HBN
 OpenBabel10282417123D

 37 39  0  0  0  0  0  0  0  0999 V2000
   -8.7985    3.7416    4.6827 C   0  0  0  0  0  0  0  0  0  0  0  0
   -9.5582    4.0976    5.8072 C   0  0  0  0  0  0  0  0  0  0  0  0
  -10.2045    3.1209    6.5586 C   0  0  0  0  0  0  0  0  0  0  0  0
  -10.0970    1.7872    6.1855 C   0  0  0  0  0  0  0  0  0  0  0  0
   -9.3663    1.4267    5.0466 C   0  0  0  0  0  0  0  0  0  0  0  0
   -8.6936    2.3981    4.2693 C   0  0  0  0  0  0  0  0  0  0  0  0
   -7.9634    1.9807    3.1181 C   0  0  0  0  0  0  0  0  0  0  0  0
   -7.9202    0.6274    2.7395 C   0  0  0  0  0  0  0  0  0  0  0  0
   -8.5995   -0.2916    3.5402 C   0  0  0  0  0  0  0  0  0  0  0  0
   -9.3101    0.0930    4.6708 C   0  0  0  0  0  0  0  0  0  0  0  0
   -7.2071    0.2119    1.5784 N   0  0  0  0  0  0  0  0  0  0  0  0
   -4.9754   -0.5947   -0.0224 N   0  0  0  0  0  0  0  0  0  0  0  0
   -6.2449   -1.3506   -0.1043 C   0  0  1  0  0  0  0  0  0  0  0  0
   -7.1147   -1.1042    1.1296 C   0  0  0  0  0  0  0  0  0  0  0  0
   -7.6757   -2.0871    1.6235 O   0  0  0  0  0  0  0  0  0  0  0  0
   -7.0409   -1.0644   -1.3837 C   0  0  0  0  0  0  0  0  0  0  0  0
   -6.2665   -1.4013   -2.6138 C   0  0  0  0  0  0  0  0  0  0  0  0
   -6.0875   -2.6687   -3.1125 N   0  0  0  0  0  0  0  0  0  0  0  0
   -5.5475   -0.5880   -3.4614 C   0  0  0  0  0  0  0  0  0  0  0  0
   -5.2885   -2.5624   -4.2176 C   0  0  0  0  0  0  0  0  0  0  0  0
   -4.9508   -1.3162   -4.4533 N   0  0  0  0  0  0  0  0  0  0  0  0
   -5.9966   -2.4226   -0.0766 H   0  0  0  0  0  0  0  0  0  0  0  0
   -8.2976    4.5300    4.1261 H   0  0  0  0  0  0  0  0  0  0  0  0
   -9.6478    5.1411    6.0985 H   0  0  0  0  0  0  0  0  0  0  0  0
  -10.7935    3.3907    7.4313 H   0  0  0  0  0  0  0  0  0  0  0  0
  -10.5932    1.0264    6.7851 H   0  0  0  0  0  0  0  0  0  0  0  0
   -7.4430    2.7352    2.5314 H   0  0  0  0  0  0  0  0  0  0  0  0
   -8.6163   -1.3512    3.3275 H   0  0  0  0  0  0  0  0  0  0  0  0
   -9.8257   -0.6783    5.2367 H   0  0  0  0  0  0  0  0  0  0  0  0
   -6.7348    0.9262    1.0305 H   0  0  0  0  0  0  0  0  0  0  0  0
   -4.2186   -1.2800   -0.1140 H   0  0  0  0  0  0  0  0  0  0  0  0
   -4.8514   -0.2090    0.9113 H   0  0  0  0  0  0  0  0  0  0  0  0
   -7.9882   -1.6207   -1.3784 H   0  0  0  0  0  0  0  0  0  0  0  0
   -7.3167   -0.0025   -1.4137 H   0  0  0  0  0  0  0  0  0  0  0  0
   -6.4545   -3.5327   -2.7360 H   0  0  0  0  0  0  0  0  0  0  0  0
   -5.4243    0.4845   -3.3879 H   0  0  0  0  0  0  0  0  0  0  0  0
   -4.9848   -3.4186   -4.8050 H   0  0  0  0  0  0  0  0  0  0  0  0
  1  2  2  0  0  0  0
  1  6  1  0  0  0  0
  1 23  1  0  0  0  0
  2  3  1  0  0  0  0
  2 24  1  0  0  0  0
  3  4  2  0  0  0  0
  3 25  1  0  0  0  0
  4  5  1  0  0  0  0
  4 26  1  0  0  0  0
  5  6  1  0  0  0  0
  5 10  2  0  0  0  0
  6  7  2  0  0  0  0
  7  8  1  0  0  0  0
  7 27  1  0  0  0  0
  8  9  2  0  0  0  0
  8 11  1  0  0  0  0
  9 10  1  0  0  0  0
  9 28  1  0  0  0  0
 10 29  1  0  0  0  0
 11 14  1  0  0  0  0
 11 30  1  0  0  0  0
 12 31  1  0  0  0  0
 12 32  1  0  0  0  0
 13 16  1  0  0  0  0
 13 22  1  6  0  0  0
 13 14  1  0  0  0  0
 13 12  1  0  0  0  0
 14 15  2  0  0  0  0
 16 17  1  0  0  0  0
 16 33  1  0  0  0  0
 16 34  1  0  0  0  0
 17 18  1  0  0  0  0
 17 19  2  0  0  0  0
 18 20  1  0  0  0  0
 18 35  1  0  0  0  0
 19 21  1  0  0  0  0
 19 36  1  0  0  0  0
 20 21  2  0  0  0  0
 20 37  1  0  0  0  0
M  END
>  <DRUGBANK_ID>
DB01938

>  <SECONDARY_ACCESSION_NUMBERS>
EXPT01699

>  <COMMON_NAME>
L-Histidine Beta Naphthylamide

$$$$
