
 OpenBabel10282417183D

 33 33  0  0  0  0  0  0  0  0999 V2000
    1.4828   -0.1541    0.2013 C   0  0  0  0  0  0  0  0  0  0  0  0
    0.8290    2.8462   -5.1901 C   0  0  0  0  0  0  0  0  0  0  0  0
    0.9446    0.1721    1.5832 C   0  0  0  0  0  0  0  0  0  0  0  0
    1.1274    1.6432    1.9640 C   0  0  0  0  0  0  0  0  0  0  0  0
   -1.1191   -0.0282   -1.4974 C   0  0  0  0  0  0  0  0  0  0  0  0
   -0.5715   -0.3725   -2.7422 C   0  0  0  0  0  0  0  0  0  0  0  0
    0.5502    2.6996    1.0152 C   0  0  0  0  0  0  0  0  0  0  0  0
   -0.6419    2.2917   -1.9402 C   0  0  0  0  0  0  0  0  0  0  0  0
   -1.5782    1.6827    0.3280 C   0  0  0  0  0  0  0  0  0  0  0  0
   -1.1331    1.3056   -1.0693 C   0  0  0  0  0  0  0  0  0  0  0  0
   -0.0785    0.6274   -3.5870 C   0  0  0  0  0  0  0  0  0  0  0  0
   -0.0984    1.9622   -3.1895 C   0  0  0  0  0  0  0  0  0  0  0  0
    0.4408    0.2460   -4.7977 O   0  0  0  0  0  0  0  0  0  0  0  0
    0.3953    3.0551   -3.8561 O   0  0  0  0  0  0  0  0  0  0  0  0
   -0.8737    2.7709    0.9340 O   0  0  0  0  0  0  0  0  0  0  0  0
    1.2394    0.6096   -0.5336 H   0  0  0  0  0  0  0  0  0  0  0  0
    1.0755   -1.1073   -0.1497 H   0  0  0  0  0  0  0  0  0  0  0  0
    2.5703   -0.2158    0.2031 H   0  0  0  0  0  0  0  0  0  0  0  0
    1.7259    2.2190   -5.2183 H   0  0  0  0  0  0  0  0  0  0  0  0
    0.0183    2.4410   -5.8043 H   0  0  0  0  0  0  0  0  0  0  0  0
    1.1022    3.8167   -5.6126 H   0  0  0  0  0  0  0  0  0  0  0  0
   -0.0974   -0.1360    1.6794 H   0  0  0  0  0  0  0  0  0  0  0  0
    1.4652   -0.4584    2.3111 H   0  0  0  0  0  0  0  0  0  0  0  0
    0.7090    1.8024    2.9638 H   0  0  0  0  0  0  0  0  0  0  0  0
    2.2077    1.8221    2.0332 H   0  0  0  0  0  0  0  0  0  0  0  0
   -1.4263   -0.8306   -0.8267 H   0  0  0  0  0  0  0  0  0  0  0  0
   -0.4850   -1.4186   -3.0120 H   0  0  0  0  0  0  0  0  0  0  0  0
    0.8657    3.6813    1.3936 H   0  0  0  0  0  0  0  0  0  0  0  0
    1.0098    2.6446    0.0254 H   0  0  0  0  0  0  0  0  0  0  0  0
   -0.6065    3.3259   -1.6077 H   0  0  0  0  0  0  0  0  0  0  0  0
   -1.5582    0.8334    1.0088 H   0  0  0  0  0  0  0  0  0  0  0  0
   -2.6361    1.9614    0.2867 H   0  0  0  0  0  0  0  0  0  0  0  0
    0.2449   -0.6847   -4.9600 H   0  0  0  0  0  0  0  0  0  0  0  0
  1 16  1  0  0  0  0
  1 17  1  0  0  0  0
  1 18  1  0  0  0  0
  2 19  1  0  0  0  0
  2 20  1  0  0  0  0
  2 21  1  0  0  0  0
  3  1  1  0  0  0  0
  3 22  1  0  0  0  0
  3 23  1  0  0  0  0
  4  3  1  0  0  0  0
  4 24  1  0  0  0  0
  4 25  1  0  0  0  0
  5 26  1  0  0  0  0
  6  5  2  0  0  0  0
  6 27  1  0  0  0  0
  7  4  1  0  0  0  0
  7 28  1  0  0  0  0
  7 29  1  0  0  0  0
  8 30  1  0  0  0  0
  9 31  1  0  0  0  0
  9 32  1  0  0  0  0
 10  5  1  0  0  0  0
 10  8  2  0  0  0  0
 10  9  1  0  0  0  0
 11  6  1  0  0  0  0
 12  8  1  0  0  0  0
 12 11  2  0  0  0  0
 13 11  1  0  0  0  0
 13 33  1  0  0  0  0
 14  2  1  0  0  0  0
 14 12  1  0  0  0  0
 15  7  1  0  0  0  0
 15  9  1  0  0  0  0
M  END
>  <DRUGBANK_ID>
DB11299

>  <COMMON_NAME>
Vanillyl butyl ether

>  <CAS_NUMBER>
82654-98-6

>  <UNII>
S2ULN37C9R

>  <SYNONYMS>
4-(Butoxymethyl)-2-methoxyphenol; Butyl vanillyl ether

$$$$
