
 OpenBabel10282417193D

 56 57  0  0  1  0  0  0  0  0999 V2000
    1.1548   -2.5585    0.5452 C   0  0  0  0  0  0  0  0  0  0  0  0
    0.5548   -1.4449   -0.3253 C   0  0  2  0  0  0  0  0  0  0  0  0
    1.1580   -0.0293   -0.0043 C   0  0  0  0  0  0  0  0  0  0  0  0
    2.3197   -0.1169    0.9673 C   0  0  0  0  0  0  0  0  0  0  0  0
    3.6073   -0.1722    0.4544 C   0  0  0  0  0  0  0  0  0  0  0  0
    4.6376   -0.7169    1.2233 C   0  0  0  0  0  0  0  0  0  0  0  0
    4.3669   -1.2747    2.4844 C   0  0  0  0  0  0  0  0  0  0  0  0
    3.0828   -1.1743    3.0281 C   0  0  0  0  0  0  0  0  0  0  0  0
    2.0819   -0.5090    2.3029 C   0  0  0  0  0  0  0  0  0  0  0  0
    2.6101   -1.7837    4.1707 O   0  0  0  0  0  0  0  0  0  0  0  0
    3.5822   -2.0904    5.1614 C   0  0  0  0  0  0  0  0  0  0  0  0
    5.2999   -1.9986    3.1781 O   0  0  0  0  0  0  0  0  0  0  0  0
    6.6518   -1.8615    2.7875 C   0  0  0  0  0  0  0  0  0  0  0  0
   -1.0077   -1.4061   -0.2377 C   0  0  1  0  0  0  0  0  0  0  0  0
   -1.5670   -0.5952   -1.4161 C   0  0  0  0  0  0  0  0  0  0  0  0
   -1.6661   -2.8222   -0.1758 C   0  0  0  0  0  0  0  0  0  0  0  0
   -1.4660   -3.6044    1.1226 C   0  0  0  0  0  0  0  0  0  0  0  0
   -1.2866   -2.9419    2.3485 C   0  0  0  0  0  0  0  0  0  0  0  0
   -0.7807   -3.6193    3.4600 C   0  0  0  0  0  0  0  0  0  0  0  0
   -0.6734   -4.9984    3.4588 C   0  0  0  0  0  0  0  0  0  0  0  0
   -1.0452   -5.7060    2.2972 C   0  0  0  0  0  0  0  0  0  0  0  0
   -1.3285   -4.9988    1.1116 C   0  0  0  0  0  0  0  0  0  0  0  0
   -1.1771   -7.0706    2.1908 O   0  0  0  0  0  0  0  0  0  0  0  0
   -1.3822   -7.7514    3.4296 C   0  0  0  0  0  0  0  0  0  0  0  0
   -0.2045   -5.7092    4.5317 O   0  0  0  0  0  0  0  0  0  0  0  0
    0.1306   -5.0066    5.7170 C   0  0  0  0  0  0  0  0  0  0  0  0
    0.8337   -2.3942    1.5690 H   0  0  0  0  0  0  0  0  0  0  0  0
    2.2427   -2.5891    0.5578 H   0  0  0  0  0  0  0  0  0  0  0  0
    0.8587   -3.5615    0.2506 H   0  0  0  0  0  0  0  0  0  0  0  0
    0.8337   -1.7012   -1.3567 H   0  0  0  0  0  0  0  0  0  0  0  0
    1.4976    0.4165   -0.9508 H   0  0  0  0  0  0  0  0  0  0  0  0
    0.4162    0.6715    0.3952 H   0  0  0  0  0  0  0  0  0  0  0  0
    3.8013    0.0806   -0.5864 H   0  0  0  0  0  0  0  0  0  0  0  0
    5.6133   -0.7792    0.7655 H   0  0  0  0  0  0  0  0  0  0  0  0
    1.0678   -0.5357    2.6930 H   0  0  0  0  0  0  0  0  0  0  0  0
    4.1392   -2.9999    4.9103 H   0  0  0  0  0  0  0  0  0  0  0  0
    4.2435   -1.2346    5.3278 H   0  0  0  0  0  0  0  0  0  0  0  0
    3.0620   -2.2930    6.1015 H   0  0  0  0  0  0  0  0  0  0  0  0
    6.8309   -2.3860    1.8445 H   0  0  0  0  0  0  0  0  0  0  0  0
    6.9372   -0.8066    2.7250 H   0  0  0  0  0  0  0  0  0  0  0  0
    7.2647   -2.3305    3.5610 H   0  0  0  0  0  0  0  0  0  0  0  0
   -1.2992   -0.8451    0.6578 H   0  0  0  0  0  0  0  0  0  0  0  0
   -1.2447   -1.0150   -2.3735 H   0  0  0  0  0  0  0  0  0  0  0  0
   -2.6611   -0.5728   -1.3965 H   0  0  0  0  0  0  0  0  0  0  0  0
   -1.2232    0.4450   -1.3724 H   0  0  0  0  0  0  0  0  0  0  0  0
   -2.7472   -2.7390   -0.3292 H   0  0  0  0  0  0  0  0  0  0  0  0
   -1.2661   -3.4036   -1.0193 H   0  0  0  0  0  0  0  0  0  0  0  0
   -1.3461   -1.8641    2.4217 H   0  0  0  0  0  0  0  0  0  0  0  0
   -0.4392   -3.0161    4.2973 H   0  0  0  0  0  0  0  0  0  0  0  0
   -1.4024   -5.5537    0.1755 H   0  0  0  0  0  0  0  0  0  0  0  0
   -0.4169   -7.9131    3.9184 H   0  0  0  0  0  0  0  0  0  0  0  0
   -2.0883   -7.2246    4.0867 H   0  0  0  0  0  0  0  0  0  0  0  0
   -1.8082   -8.7374    3.2327 H   0  0  0  0  0  0  0  0  0  0  0  0
    1.0441   -4.4242    5.5672 H   0  0  0  0  0  0  0  0  0  0  0  0
   -0.6954   -4.3792    6.0671 H   0  0  0  0  0  0  0  0  0  0  0  0
    0.3257   -5.7511    6.4950 H   0  0  0  0  0  0  0  0  0  0  0  0
  1 27  1  0  0  0  0
  1 28  1  0  0  0  0
  1 29  1  0  0  0  0
  2 14  1  0  0  0  0
  2 30  1  6  0  0  0
  2  3  1  0  0  0  0
  2  1  1  0  0  0  0
  3  4  1  0  0  0  0
  3 31  1  0  0  0  0
  3 32  1  0  0  0  0
  4  5  2  0  0  0  0
  4  9  1  0  0  0  0
  5  6  1  0  0  0  0
  5 33  1  0  0  0  0
  6  7  2  0  0  0  0
  6 34  1  0  0  0  0
  7  8  1  0  0  0  0
  7 12  1  0  0  0  0
  8  9  2  0  0  0  0
  8 10  1  0  0  0  0
  9 35  1  0  0  0  0
 10 11  1  0  0  0  0
 11 36  1  0  0  0  0
 11 37  1  0  0  0  0
 11 38  1  0  0  0  0
 12 13  1  0  0  0  0
 13 39  1  0  0  0  0
 13 40  1  0  0  0  0
 13 41  1  0  0  0  0
 14 15  1  0  0  0  0
 14 16  1  0  0  0  0
 14 42  1  1  0  0  0
 15 43  1  0  0  0  0
 15 44  1  0  0  0  0
 15 45  1  0  0  0  0
 16 17  1  0  0  0  0
 16 46  1  0  0  0  0
 16 47  1  0  0  0  0
 17 18  2  0  0  0  0
 17 22  1  0  0  0  0
 18 19  1  0  0  0  0
 18 48  1  0  0  0  0
 19 20  2  0  0  0  0
 19 49  1  0  0  0  0
 20 21  1  0  0  0  0
 20 25  1  0  0  0  0
 21 22  2  0  0  0  0
 21 23  1  0  0  0  0
 22 50  1  0  0  0  0
 23 24  1  0  0  0  0
 24 51  1  0  0  0  0
 24 52  1  0  0  0  0
 24 53  1  0  0  0  0
 25 26  1  0  0  0  0
 26 54  1  0  0  0  0
 26 55  1  0  0  0  0
 26 56  1  0  0  0  0
M  END
>  <DRUGBANK_ID>
DB12226

>  <COMMON_NAME>
Terameprocol

>  <CAS_NUMBER>
24150-24-1

>  <UNII>
53YET703F2

>  <SYNONYMS>
meso-Tetra-O-methylnordihydroguaiaretic acid; meso-Tetramethoxy-4,4'-(2,3-dimethyltetramethylene)dipyrocatechol; Terameprocol

$$$$
