
 OpenBabel10282417123D

 11 10  0  0  0  0  0  0  0  0999 V2000
    1.0023    0.0416   -0.0146 N   0  0  0  0  0  0  0  0  0  0  0  0
    0.5549   -1.0904    0.7913 O   0  0  0  0  0  0  0  0  0  0  0  0
    0.9475   -2.2982    0.1541 C   0  0  0  0  0  0  0  0  0  0  0  0
    0.3792   -2.4818   -1.2470 C   0  0  0  0  0  0  0  0  0  0  0  0
    1.3153   -2.6086   -2.2211 O   0  0  0  0  0  0  0  0  0  0  0  0
   -0.8202   -2.5420   -1.4986 O   0  0  0  0  0  0  0  0  0  0  0  0
    0.5550    0.8161    0.4845 H   0  0  0  0  0  0  0  0  0  0  0  0
    1.9916    0.1106    0.2177 H   0  0  0  0  0  0  0  0  0  0  0  0
    2.0423   -2.3564    0.1562 H   0  0  0  0  0  0  0  0  0  0  0  0
    0.5963   -3.1389    0.7641 H   0  0  0  0  0  0  0  0  0  0  0  0
    2.2354   -2.4623   -1.9328 H   0  0  0  0  0  0  0  0  0  0  0  0
  1  2  1  0  0  0  0
  1  7  1  0  0  0  0
  1  8  1  0  0  0  0
  2  3  1  0  0  0  0
  3  4  1  0  0  0  0
  3  9  1  0  0  0  0
  3 10  1  0  0  0  0
  4  5  1  0  0  0  0
  4  6  2  0  0  0  0
  5 11  1  0  0  0  0
M  END
>  <DRUGBANK_ID>
DB02079

>  <SECONDARY_ACCESSION_NUMBERS>
EXPT00528

>  <COMMON_NAME>
Aminooxyacetic acid

>  <CAS_NUMBER>
645-88-5

>  <UNII>
14I68GI3OQ

>  <SYNONYMS>
(aminooxy)acetic acid; aminoxyacetic acid; AOAA; carboxymethoxyamine; Carboxymethoxylamine

$$$$
