
 OpenBabel10282417193D

 50 53  0  0  0  0  0  0  0  0999 V2000
   -0.5991    0.5301   -0.0315 C   0  0  1  0  0  0  0  0  0  0  0  0
    0.7177   -0.5265   -0.0224 C   0  0  1  0  0  0  0  0  0  0  0  0
   -0.8073   -0.9215    0.0220 C   0  0  0  0  0  0  0  0  0  0  0  0
    1.6018   -0.9217   -1.2637 C   0  0  0  0  0  0  0  0  0  0  0  0
    2.9061   -0.3165   -1.4030 C   0  0  0  0  0  0  0  0  0  0  0  0
    3.9671   -0.8979   -2.0719 C   0  0  0  0  0  0  0  0  0  0  0  0
    3.7872   -2.1165   -2.6749 C   0  0  0  0  0  0  0  0  0  0  0  0
    2.5515   -2.7612   -2.5518 C   0  0  0  0  0  0  0  0  0  0  0  0
    1.4829   -2.1857   -1.8406 C   0  0  0  0  0  0  0  0  0  0  0  0
    5.1761   -0.3199   -2.0255 F   0  0  0  0  0  0  0  0  0  0  0  0
    1.8080   -0.7406    1.0787 C   0  0  0  0  0  0  0  0  0  0  0  0
    2.2269    0.2651    2.0218 O   0  0  0  0  0  0  0  0  0  0  0  0
    2.2335    1.6151    1.9593 C   0  0  0  0  0  0  0  0  0  0  0  0
    2.0473    2.5175    0.9119 C   0  0  0  0  0  0  0  0  0  0  0  0
    1.9790    3.8265    1.0887 N   0  0  0  0  0  0  0  0  0  0  0  0
    2.0186    4.2913    2.3232 C   0  0  0  0  0  0  0  0  0  0  0  0
    2.1509    3.5499    3.4325 N   0  0  0  0  0  0  0  0  0  0  0  0
    2.2806    2.2212    3.2141 C   0  0  0  0  0  0  0  0  0  0  0  0
    2.0960    5.7656    2.3319 C   0  0  0  0  0  0  0  0  0  0  0  0
    1.5255    2.2470   -0.4309 C   0  0  0  0  0  0  0  0  0  0  0  0
   -0.8940    1.6489    1.0288 C   0  0  0  0  0  0  0  0  0  0  0  0
   -1.2350    2.7425    0.6333 O   0  0  0  0  0  0  0  0  0  0  0  0
   -0.7447    1.5507    2.4050 N   0  0  0  0  0  0  0  0  0  0  0  0
   -0.6053    0.4270    3.1735 C   0  0  0  0  0  0  0  0  0  0  0  0
   -1.2684    0.2735    4.3457 C   0  0  0  0  0  0  0  0  0  0  0  0
   -1.3996   -1.0555    4.7663 C   0  0  0  0  0  0  0  0  0  0  0  0
   -0.4692   -2.0117    4.4060 C   0  0  0  0  0  0  0  0  0  0  0  0
    0.4145   -1.6370    3.4829 C   0  0  0  0  0  0  0  0  0  0  0  0
    0.1448   -0.5622    2.7403 N   0  0  0  0  0  0  0  0  0  0  0  0
   -0.4639   -3.2719    4.8340 F   0  0  0  0  0  0  0  0  0  0  0  0
   -0.8258    0.9693   -1.0169 H   0  0  0  0  0  0  0  0  0  0  0  0
   -1.3610   -1.2454    0.8930 H   0  0  0  0  0  0  0  0  0  0  0  0
   -1.2877   -1.2909   -0.8888 H   0  0  0  0  0  0  0  0  0  0  0  0
    3.2261    0.5035   -0.7562 H   0  0  0  0  0  0  0  0  0  0  0  0
    4.6210   -2.5715   -3.1943 H   0  0  0  0  0  0  0  0  0  0  0  0
    2.4332   -3.7559   -2.9685 H   0  0  0  0  0  0  0  0  0  0  0  0
    0.6111   -2.7953   -1.6128 H   0  0  0  0  0  0  0  0  0  0  0  0
    1.5849   -1.7332    1.4783 H   0  0  0  0  0  0  0  0  0  0  0  0
    2.7900   -1.0555    0.7142 H   0  0  0  0  0  0  0  0  0  0  0  0
    2.3357    1.6187    4.1229 H   0  0  0  0  0  0  0  0  0  0  0  0
    1.4811    6.1953    3.1160 H   0  0  0  0  0  0  0  0  0  0  0  0
    3.1511    6.0204    2.4302 H   0  0  0  0  0  0  0  0  0  0  0  0
    1.7476    6.1416    1.3584 H   0  0  0  0  0  0  0  0  0  0  0  0
    0.6272    2.7984   -0.7217 H   0  0  0  0  0  0  0  0  0  0  0  0
    2.0865    1.9896   -1.3124 H   0  0  0  0  0  0  0  0  0  0  0  0
    1.1784    1.3283   -0.1305 H   0  0  0  0  0  0  0  0  0  0  0  0
   -0.6975    2.4588    2.8626 H   0  0  0  0  0  0  0  0  0  0  0  0
   -1.8338    1.0895    4.7667 H   0  0  0  0  0  0  0  0  0  0  0  0
   -2.2869   -1.3712    5.2854 H   0  0  0  0  0  0  0  0  0  0  0  0
    1.2843   -2.2314    3.2337 H   0  0  0  0  0  0  0  0  0  0  0  0
  1  2  1  0  0  0  0
  1  3  1  0  0  0  0
  1 21  1  0  0  0  0
  1 31  1  6  0  0  0
  2  3  1  0  0  0  0
  2  4  1  0  0  0  0
  2 11  1  1  0  0  0
  3 32  1  0  0  0  0
  3 33  1  0  0  0  0
  4  5  1  0  0  0  0
  4  9  2  0  0  0  0
  5  6  2  0  0  0  0
  5 34  1  0  0  0  0
  6  7  1  0  0  0  0
  6 10  1  0  0  0  0
  7  8  2  0  0  0  0
  7 35  1  0  0  0  0
  8  9  1  0  0  0  0
  8 36  1  0  0  0  0
  9 37  1  0  0  0  0
 11 12  1  0  0  0  0
 11 38  1  0  0  0  0
 11 39  1  0  0  0  0
 12 13  1  0  0  0  0
 13 18  2  0  0  0  0
 14 13  1  0  0  0  0
 14 20  1  0  0  0  0
 15 14  2  0  0  0  0
 16 15  1  0  0  0  0
 16 17  2  0  0  0  0
 16 19  1  0  0  0  0
 18 17  1  0  0  0  0
 18 40  1  0  0  0  0
 19 41  1  0  0  0  0
 19 42  1  0  0  0  0
 19 43  1  0  0  0  0
 20 44  1  0  0  0  0
 20 45  1  0  0  0  0
 20 46  1  0  0  0  0
 21 22  2  0  0  0  0
 21 23  1  0  0  0  0
 23 24  1  0  0  0  0
 23 47  1  0  0  0  0
 24 25  1  0  0  0  0
 24 29  2  0  0  0  0
 25 26  2  0  0  0  0
 25 48  1  0  0  0  0
 26 27  1  0  0  0  0
 26 49  1  0  0  0  0
 27 28  2  0  0  0  0
 27 30  1  0  0  0  0
 28 29  1  0  0  0  0
 28 50  1  0  0  0  0
M  END
>  <DRUGBANK_ID>
DB11951

>  <COMMON_NAME>
Lemborexant

>  <CAS_NUMBER>
1369764-02-2

>  <UNII>
0K5743G68X

>  <SYNONYMS>
Lemborexant

$$$$
