
 OpenBabel10282417233D

 75 78  0  0  1  0  0  0  0  0999 V2000
    0.0736   -0.2311    0.1836 C   0  0  0  0  0  0  0  0  0  0  0  0
    0.1351   -1.6691   -0.2920 C   0  0  0  0  0  0  0  0  0  0  0  0
   -0.3779   -2.5241    0.4350 O   0  0  0  0  0  0  0  0  0  0  0  0
    0.7604   -2.0818   -1.4560 N   0  0  0  0  0  0  0  0  0  0  0  0
    1.7165   -1.4394   -2.4217 C   0  0  2  0  0  0  0  0  0  0  0  0
    3.1528   -2.0667   -2.6139 C   0  0  0  0  0  0  0  0  0  0  0  0
    4.0322   -1.2140   -3.5518 C   0  0  1  0  0  0  0  0  0  0  0  0
    3.9112    0.2844   -3.2906 C   0  0  0  0  0  0  0  0  0  0  0  0
    2.5200    0.7973   -3.2305 C   0  0  0  0  0  0  0  0  0  0  0  0
    1.8578    0.0525   -2.1193 C   0  0  2  0  0  0  0  0  0  0  0  0
    2.6081    0.3003   -0.8437 N   0  0  0  0  0  0  0  0  0  0  0  0
    2.5899    1.6134   -0.2157 C   0  0  0  0  0  0  0  0  0  0  0  0
    3.4067    1.4153    1.0455 C   0  0  0  0  0  0  0  0  0  0  0  0
    3.2139   -0.0410    1.4224 C   0  0  2  0  0  0  0  0  0  0  0  0
    4.3516   -0.6455    2.0387 N   0  0  0  0  0  0  0  0  0  0  0  0
    4.7520   -0.2626    3.2692 C   0  0  0  0  0  0  0  0  0  0  0  0
    3.9466   -0.2398    4.2930 N   0  0  0  0  0  0  0  0  0  0  0  0
    4.4470    0.2271    5.4868 C   0  0  0  0  0  0  0  0  0  0  0  0
    5.6337    0.7297    5.6723 N   0  0  0  0  0  0  0  0  0  0  0  0
    6.4466    0.7669    4.5854 C   0  0  0  0  0  0  0  0  0  0  0  0
    7.7047    1.2467    4.3426 C   0  0  0  0  0  0  0  0  0  0  0  0
    7.9663    1.0066    2.9626 C   0  0  0  0  0  0  0  0  0  0  0  0
    6.9236    0.3991    2.3718 N   0  0  0  0  0  0  0  0  0  0  0  0
    6.0439    0.2429    3.3971 N   0  0  0  0  0  0  0  0  0  0  0  0
    9.2516    1.3635    2.2318 C   0  0  0  0  0  0  0  0  0  0  0  0
    9.5118    2.8808    2.3418 C   0  0  0  0  0  0  0  0  0  0  0  0
   10.4324    0.6233    2.8942 C   0  0  0  0  0  0  0  0  0  0  0  0
    9.2300    0.9904    0.7376 C   0  0  0  0  0  0  0  0  0  0  0  0
    2.9949   -0.6830    0.1025 C   0  0  0  0  0  0  0  0  0  0  0  0
    3.0177   -1.9247    0.0505 O   0  0  0  0  0  0  0  0  0  0  0  0
    5.4535   -1.5977   -3.4308 N   0  0  0  0  0  0  0  0  0  0  0  0
    6.3932   -0.9029   -4.3376 C   0  0  0  0  0  0  0  0  0  0  0  0
    6.6265    0.6028   -4.0619 C   0  0  0  0  0  0  0  0  0  0  0  0
    7.7874   -1.5180   -4.1395 C   0  0  0  0  0  0  0  0  0  0  0  0
    5.9232   -1.1538   -5.7760 C   0  0  0  0  0  0  0  0  0  0  0  0
   -0.4702   -0.0345    1.1058 H   0  0  0  0  0  0  0  0  0  0  0  0
   -0.1764    0.5189   -0.5608 H   0  0  0  0  0  0  0  0  0  0  0  0
    1.0282   -0.0223    0.5878 H   0  0  0  0  0  0  0  0  0  0  0  0
    0.6637   -3.0838   -1.5632 H   0  0  0  0  0  0  0  0  0  0  0  0
    1.2294   -1.5839   -3.3987 H   0  0  0  0  0  0  0  0  0  0  0  0
    3.7582   -2.1272   -1.7215 H   0  0  0  0  0  0  0  0  0  0  0  0
    3.0944   -3.1136   -2.9341 H   0  0  0  0  0  0  0  0  0  0  0  0
    3.6505   -1.4337   -4.5507 H   0  0  0  0  0  0  0  0  0  0  0  0
    4.4756    0.5702   -2.3884 H   0  0  0  0  0  0  0  0  0  0  0  0
    4.2542    0.8434   -4.1394 H   0  0  0  0  0  0  0  0  0  0  0  0
    2.5365    1.8759   -3.0321 H   0  0  0  0  0  0  0  0  0  0  0  0
    2.0335    0.6647   -4.2044 H   0  0  0  0  0  0  0  0  0  0  0  0
    0.8578    0.4861   -2.1057 H   0  0  0  0  0  0  0  0  0  0  0  0
    1.5605    1.9097    0.0166 H   0  0  0  0  0  0  0  0  0  0  0  0
    3.0005    2.3841   -0.8723 H   0  0  0  0  0  0  0  0  0  0  0  0
    3.0834    2.0772    1.8520 H   0  0  0  0  0  0  0  0  0  0  0  0
    4.4573    1.6139    0.8175 H   0  0  0  0  0  0  0  0  0  0  0  0
    2.3226   -0.2192    2.0360 H   0  0  0  0  0  0  0  0  0  0  0  0
    4.7867   -1.4398    1.5719 H   0  0  0  0  0  0  0  0  0  0  0  0
    3.7637    0.1687    6.3509 H   0  0  0  0  0  0  0  0  0  0  0  0
    8.3524    1.7144    5.0646 H   0  0  0  0  0  0  0  0  0  0  0  0
    9.5747    3.2032    3.3878 H   0  0  0  0  0  0  0  0  0  0  0  0
   10.4568    3.1572    1.8605 H   0  0  0  0  0  0  0  0  0  0  0  0
    8.7098    3.4581    1.8678 H   0  0  0  0  0  0  0  0  0  0  0  0
   10.3054   -0.4635    2.8289 H   0  0  0  0  0  0  0  0  0  0  0  0
   11.3834    0.8832    2.4168 H   0  0  0  0  0  0  0  0  0  0  0  0
   10.5205    0.8799    3.9566 H   0  0  0  0  0  0  0  0  0  0  0  0
    9.0813   -0.0857    0.5939 H   0  0  0  0  0  0  0  0  0  0  0  0
    8.4302    1.5153    0.2030 H   0  0  0  0  0  0  0  0  0  0  0  0
   10.1782    1.2575    0.2539 H   0  0  0  0  0  0  0  0  0  0  0  0
    5.7646   -1.5043   -2.4603 H   0  0  0  0  0  0  0  0  0  0  0  0
    6.7777    0.7878   -2.9908 H   0  0  0  0  0  0  0  0  0  0  0  0
    7.4891    0.9801   -4.6125 H   0  0  0  0  0  0  0  0  0  0  0  0
    5.8580    1.2768   -4.4222 H   0  0  0  0  0  0  0  0  0  0  0  0
    7.8108   -2.5898   -4.3476 H   0  0  0  0  0  0  0  0  0  0  0  0
    8.5002   -1.0296   -4.8163 H   0  0  0  0  0  0  0  0  0  0  0  0
    8.1500   -1.3517   -3.1167 H   0  0  0  0  0  0  0  0  0  0  0  0
    5.8924   -2.2300   -5.9914 H   0  0  0  0  0  0  0  0  0  0  0  0
    4.9196   -0.7572   -5.9644 H   0  0  0  0  0  0  0  0  0  0  0  0
    6.5812   -0.6695   -6.4974 H   0  0  0  0  0  0  0  0  0  0  0  0
  1  2  1  0  0  0  0
  1 36  1  0  0  0  0
  1 37  1  0  0  0  0
  1 38  1  0  0  0  0
  2  3  2  0  0  0  0
  2  4  1  0  0  0  0
  4 39  1  0  0  0  0
  5  4  1  0  0  0  0
  5  6  1  0  0  0  0
  5 10  1  0  0  0  0
  5 40  1  6  0  0  0
  6 41  1  0  0  0  0
  6 42  1  0  0  0  0
  7  6  1  0  0  0  0
  7  8  1  0  0  0  0
  7 31  1  0  0  0  0
  7 43  1  6  0  0  0
  8  9  1  0  0  0  0
  8 44  1  0  0  0  0
  8 45  1  0  0  0  0
  9 46  1  0  0  0  0
  9 47  1  0  0  0  0
 10  9  1  0  0  0  0
 10 48  1  1  0  0  0
 10 11  1  0  0  0  0
 11 12  1  0  0  0  0
 11 29  1  0  0  0  0
 12 13  1  0  0  0  0
 12 49  1  0  0  0  0
 12 50  1  0  0  0  0
 13 51  1  0  0  0  0
 13 52  1  0  0  0  0
 14 13  1  0  0  0  0
 14 29  1  0  0  0  0
 14 53  1  1  0  0  0
 14 15  1  0  0  0  0
 15 16  1  0  0  0  0
 15 54  1  0  0  0  0
 16 17  2  0  0  0  0
 16 24  1  0  0  0  0
 17 18  1  0  0  0  0
 18 19  2  0  0  0  0
 18 55  1  0  0  0  0
 19 20  1  0  0  0  0
 20 21  2  0  0  0  0
 20 24  1  0  0  0  0
 21 22  1  0  0  0  0
 21 56  1  0  0  0  0
 22 23  2  0  0  0  0
 22 25  1  0  0  0  0
 23 24  1  0  0  0  0
 25 26  1  0  0  0  0
 25 27  1  0  0  0  0
 25 28  1  0  0  0  0
 26 57  1  0  0  0  0
 26 58  1  0  0  0  0
 26 59  1  0  0  0  0
 27 60  1  0  0  0  0
 27 61  1  0  0  0  0
 27 62  1  0  0  0  0
 28 63  1  0  0  0  0
 28 64  1  0  0  0  0
 28 65  1  0  0  0  0
 29 30  2  0  0  0  0
 31 32  1  0  0  0  0
 31 66  1  0  0  0  0
 32 33  1  0  0  0  0
 32 34  1  0  0  0  0
 32 35  1  0  0  0  0
 33 67  1  0  0  0  0
 33 68  1  0  0  0  0
 33 69  1  0  0  0  0
 34 70  1  0  0  0  0
 34 71  1  0  0  0  0
 34 72  1  0  0  0  0
 35 73  1  0  0  0  0
 35 74  1  0  0  0  0
 35 75  1  0  0  0  0
M  END
>  <DRUGBANK_ID>
DB16240

>  <COMMON_NAME>
BMS-813160

>  <CAS_NUMBER>
1286279-29-5

>  <UNII>
83U7957287

$$$$
