
 OpenBabel10282417193D

 49 52  0  0  1  0  0  0  0  0999 V2000
   -1.5602   -9.5936   -4.5013 C   0  0  0  0  0  0  0  0  0  0  0  0
   -3.4537   -9.3596   -4.4399 C   0  0  2  0  0  0  0  0  0  0  0  0
   -3.9673   -8.9379   -3.0625 C   0  0  0  0  0  0  0  0  0  0  0  0
   -2.9366   -8.0951   -2.4937 C   0  0  0  0  0  0  0  0  0  0  0  0
   -2.8636   -6.9290   -3.4573 C   0  0  1  0  0  0  0  0  0  0  0  0
   -2.6014   -7.2193   -4.9420 C   0  0  2  0  0  0  0  0  0  0  0  0
   -3.0040   -8.9060   -5.7005 C   0  0  2  0  0  0  0  0  0  0  0  0
   -3.0888  -10.8834   -5.3364 C   0  0  0  0  0  0  0  0  0  0  0  0
   -4.5347  -11.2790   -4.6580 C   0  0  0  0  0  0  0  0  0  0  0  0
   -4.8697  -10.0550   -5.3295 C   0  0  1  0  0  0  0  0  0  0  0  0
   -5.7409   -8.8989   -5.4458 C   0  0  0  0  0  0  0  0  0  0  0  0
   -5.8935   -7.7844   -5.9656 C   0  0  0  0  0  0  0  0  0  0  0  0
   -4.8900  -10.5406   -6.7264 O   0  0  0  0  0  0  0  0  0  0  0  0
   -2.7601   -5.6240   -5.3794 C   0  0  0  0  0  0  0  0  0  0  0  0
   -1.7345   -4.5362   -4.3597 C   0  0  0  0  0  0  0  0  0  0  0  0
   -1.2907   -4.6689   -2.6160 C   0  0  0  0  0  0  0  0  0  0  0  0
   -0.7354   -5.2189   -1.3386 C   0  0  0  0  0  0  0  0  0  0  0  0
   -0.4471   -6.8647   -0.8504 C   0  0  0  0  0  0  0  0  0  0  0  0
    0.0165   -7.4647   -2.1893 C   0  0  0  0  0  0  0  0  0  0  0  0
   -0.3597   -6.4942   -3.2208 C   0  0  0  0  0  0  0  0  0  0  0  0
   -1.8191   -6.0355   -2.8301 C   0  0  2  0  0  0  0  0  0  0  0  0
   -1.1241   -9.5070   -5.5509 H   0  0  0  0  0  0  0  0  0  0  0  0
   -1.0887  -10.5208   -4.1599 H   0  0  0  0  0  0  0  0  0  0  0  0
   -1.0465   -8.8100   -4.0023 H   0  0  0  0  0  0  0  0  0  0  0  0
   -4.0937   -9.8417   -2.4766 H   0  0  0  0  0  0  0  0  0  0  0  0
   -4.9084   -8.4115   -2.8589 H   0  0  0  0  0  0  0  0  0  0  0  0
   -2.1104   -8.7747   -2.3405 H   0  0  0  0  0  0  0  0  0  0  0  0
   -3.1342   -7.7210   -1.4906 H   0  0  0  0  0  0  0  0  0  0  0  0
   -3.8472   -6.4138   -3.3963 H   0  0  0  0  0  0  0  0  0  0  0  0
   -1.5431   -7.2801   -5.1617 H   0  0  0  0  0  0  0  0  0  0  0  0
   -3.6242   -8.6350   -6.5458 H   0  0  0  0  0  0  0  0  0  0  0  0
   -2.7865  -11.5906   -6.1295 H   0  0  0  0  0  0  0  0  0  0  0  0
   -2.4837  -11.3748   -4.5329 H   0  0  0  0  0  0  0  0  0  0  0  0
   -4.8653  -12.2694   -4.9785 H   0  0  0  0  0  0  0  0  0  0  0  0
   -4.5518  -11.3009   -3.5628 H   0  0  0  0  0  0  0  0  0  0  0  0
   -5.7129   -6.8732   -6.4871 H   0  0  0  0  0  0  0  0  0  0  0  0
   -4.5730  -11.4622   -6.8093 H   0  0  0  0  0  0  0  0  0  0  0  0
   -2.6324   -5.6162   -6.4720 H   0  0  0  0  0  0  0  0  0  0  0  0
   -3.7210   -5.0803   -5.3146 H   0  0  0  0  0  0  0  0  0  0  0  0
   -0.8197   -4.5371   -4.9794 H   0  0  0  0  0  0  0  0  0  0  0  0
   -2.0189   -3.4730   -4.4591 H   0  0  0  0  0  0  0  0  0  0  0  0
   -0.1711   -4.7001   -0.5535 H   0  0  0  0  0  0  0  0  0  0  0  0
   -0.9899   -7.8325   -0.6286 H   0  0  0  0  0  0  0  0  0  0  0  0
   -1.3661   -6.6853   -0.2354 H   0  0  0  0  0  0  0  0  0  0  0  0
   -0.3683   -8.4552   -2.3874 H   0  0  0  0  0  0  0  0  0  0  0  0
    1.0842   -7.6174   -2.2787 H   0  0  0  0  0  0  0  0  0  0  0  0
   -0.1579   -6.6533   -4.2715 H   0  0  0  0  0  0  0  0  0  0  0  0
    0.4406   -5.7115   -3.1139 H   0  0  0  0  0  0  0  0  0  0  0  0
   -2.4522   -5.9408   -1.8965 H   0  0  0  0  0  0  0  0  0  0  0  0
  1 22  1  0  0  0  0
  1 23  1  0  0  0  0
  1 24  1  0  0  0  0
  2  3  1  0  0  0  0
  2  7  1  0  0  0  0
  2 10  1  0  0  0  0
  2  1  1  6  0  0  0
  3  4  1  0  0  0  0
  3 25  1  0  0  0  0
  3 26  1  0  0  0  0
  4 27  1  0  0  0  0
  4 28  1  0  0  0  0
  5  4  1  0  0  0  0
  5  6  1  0  0  0  0
  5 21  1  0  0  0  0
  5 29  1  6  0  0  0
  6  7  1  0  0  0  0
  6 14  1  0  0  0  0
  6 30  1  6  0  0  0
  7  8  1  0  0  0  0
  7 31  1  1  0  0  0
  8  9  1  0  0  0  0
  8 32  1  0  0  0  0
  8 33  1  0  0  0  0
  9 10  1  0  0  0  0
  9 34  1  0  0  0  0
  9 35  1  0  0  0  0
 10 13  1  0  0  0  0
 10 11  1  1  0  0  0
 11 12  3  0  0  0  0
 12 36  1  0  0  0  0
 13 37  1  0  0  0  0
 14 15  1  0  0  0  0
 14 38  1  0  0  0  0
 14 39  1  0  0  0  0
 15 16  1  0  0  0  0
 15 40  1  0  0  0  0
 15 41  1  0  0  0  0
 16 17  2  0  0  0  0
 16 21  1  0  0  0  0
 17 18  1  0  0  0  0
 17 42  1  0  0  0  0
 18 19  1  0  0  0  0
 18 43  1  0  0  0  0
 18 44  1  0  0  0  0
 19 20  1  0  0  0  0
 19 45  1  0  0  0  0
 19 46  1  0  0  0  0
 20 47  1  0  0  0  0
 20 48  1  0  0  0  0
 21 20  1  0  0  0  0
 21 49  1  1  0  0  0
M  END
>  <DRUGBANK_ID>
DB12474

>  <COMMON_NAME>
Lynestrenol

>  <CAS_NUMBER>
52-76-6

>  <UNII>
N2Z8ALG4U5

>  <SYNONYMS>
Lynestrenol

$$$$
