0AY
 OpenBabel10282417163D

 37 36  0  0  0  0  0  0  0  0999 V2000
    1.0574    0.0131   -0.0809 N   0  0  0  0  0  0  0  0  0  0  0  0
    0.5674    0.5124    1.2120 C   0  0  1  0  0  0  0  0  0  0  0  0
    1.0740   -0.3871    2.3276 C   0  0  0  0  0  0  0  0  0  0  0  0
    0.5674   -1.8030    2.1063 C   0  0  0  0  0  0  0  0  0  0  0  0
    1.0740   -2.3193    0.7695 C   0  0  0  0  0  0  0  0  0  0  0  0
    2.5940   -2.3194    0.7695 C   0  0  0  0  0  0  0  0  0  0  0  0
    3.0840   -3.1893    1.8484 N   0  0  0  0  0  0  0  0  0  0  0  0
    1.1007    2.0029    1.4448 B   0  0  0  0  0  0  0  0  0  0  0  0
    2.5754    2.2737    1.4871 O   0  0  0  0  0  0  0  0  0  0  0  0
    2.7962    3.6596    1.7037 C   0  0  0  0  0  0  0  0  0  0  0  0
    2.1671    4.4557    0.5719 C   0  0  0  0  0  0  0  0  0  0  0  0
    0.1259    3.1293    1.6208 O   0  0  0  0  0  0  0  0  0  0  0  0
   -1.1992    2.6252    1.5420 C   0  0  0  0  0  0  0  0  0  0  0  0
   -1.4146    1.9762    0.1845 C   0  0  0  0  0  0  0  0  0  0  0  0
   -0.5026    0.5124    1.2120 H   0  0  0  0  0  0  0  0  0  0  0  0
    0.7174    0.6167   -0.8295 H   0  0  0  0  0  0  0  0  0  0  0  0
    2.0774    0.0131   -0.0809 H   0  0  0  0  0  0  0  0  0  0  0  0
    2.1440   -0.3871    2.3276 H   0  0  0  0  0  0  0  0  0  0  0  0
    0.7173   -0.0236    3.2686 H   0  0  0  0  0  0  0  0  0  0  0  0
    0.9240   -2.4362    2.8917 H   0  0  0  0  0  0  0  0  0  0  0  0
   -0.5026   -1.8030    2.1063 H   0  0  0  0  0  0  0  0  0  0  0  0
    0.7174   -3.3161    0.6138 H   0  0  0  0  0  0  0  0  0  0  0  0
    0.7174   -1.6861   -0.0158 H   0  0  0  0  0  0  0  0  0  0  0  0
    2.9507   -2.6829   -0.1715 H   0  0  0  0  0  0  0  0  0  0  0  0
    2.9507   -1.3226    0.9253 H   0  0  0  0  0  0  0  0  0  0  0  0
    4.1040   -3.1893    1.8484 H   0  0  0  0  0  0  0  0  0  0  0  0
    2.7440   -2.8428    2.7455 H   0  0  0  0  0  0  0  0  0  0  0  0
    2.3533    3.9503    2.6333 H   0  0  0  0  0  0  0  0  0  0  0  0
    3.8481    3.8528    1.7338 H   0  0  0  0  0  0  0  0  0  0  0  0
    1.1151    4.2625    0.5417 H   0  0  0  0  0  0  0  0  0  0  0  0
    2.3334    5.5001    0.7351 H   0  0  0  0  0  0  0  0  0  0  0  0
    2.6099    4.1650   -0.3578 H   0  0  0  0  0  0  0  0  0  0  0  0
   -1.3508    1.8987    2.3128 H   0  0  0  0  0  0  0  0  0  0  0  0
   -1.8945    3.4287    1.6676 H   0  0  0  0  0  0  0  0  0  0  0  0
   -0.7193    1.1727    0.0590 H   0  0  0  0  0  0  0  0  0  0  0  0
   -2.4131    1.5964    0.1252 H   0  0  0  0  0  0  0  0  0  0  0  0
   -1.2630    2.7028   -0.5862 H   0  0  0  0  0  0  0  0  0  0  0  0
  1 16  1  0  0  0  0
  1 17  1  0  0  0  0
  2  1  1  0  0  0  0
  2  8  1  0  0  0  0
  2 15  1  6  0  0  0
  3  2  1  0  0  0  0
  3 18  1  0  0  0  0
  3 19  1  0  0  0  0
  4  3  1  0  0  0  0
  4 20  1  0  0  0  0
  4 21  1  0  0  0  0
  5  4  1  0  0  0  0
  5 22  1  0  0  0  0
  5 23  1  0  0  0  0
  6  5  1  0  0  0  0
  6 24  1  0  0  0  0
  6 25  1  0  0  0  0
  7  6  1  0  0  0  0
  7 26  1  0  0  0  0
  7 27  1  0  0  0  0
  8 12  1  0  0  0  0
  8  9  1  0  0  0  0
  9 10  1  0  0  0  0
 10 11  1  0  0  0  0
 10 28  1  0  0  0  0
 10 29  1  0  0  0  0
 11 30  1  0  0  0  0
 11 31  1  0  0  0  0
 11 32  1  0  0  0  0
 12 13  1  0  0  0  0
 13 33  1  0  0  0  0
 13 34  1  0  0  0  0
 14 13  1  0  0  0  0
 14 35  1  0  0  0  0
 14 36  1  0  0  0  0
 14 37  1  0  0  0  0
M  END
>  <DRUGBANK_ID>
DB06840

>  <COMMON_NAME>
diethyl [(1R)-1,5-diaminopentyl]boronate

$$$$
