
 OpenBabel10282417123D

 16 15  0  0  1  0  0  0  0  0999 V2000
    0.9637    0.0215   -0.0684 O   0  0  0  0  0  0  0  0  0  0  0  0
    0.6206    1.1182   -0.9101 C   0  0  1  0  0  0  0  0  0  0  0  0
    1.1582    2.4362   -0.3626 C   0  0  0  0  0  0  0  0  0  0  0  0
    2.9397    2.5063   -0.1963 S   0  0  0  0  0  0  0  0  0  0  0  0
    3.3791    2.5288   -1.7460 O   0  0  0  0  0  0  0  0  0  0  0  0
    3.2959    3.7839    0.3727 O   0  0  0  0  0  0  0  0  0  0  0  0
    3.3920    1.2521    0.3692 O   0  0  0  0  0  0  0  0  0  0  0  0
    1.0575    0.8515   -2.3494 C   0  0  0  0  0  0  0  0  0  0  0  0
    0.0893    0.9011   -3.2850 O   0  0  0  0  0  0  0  0  0  0  0  0
    2.2235    0.6100   -2.6447 O   0  0  0  0  0  0  0  0  0  0  0  0
    1.9447   -0.0311   -0.0021 H   0  0  0  0  0  0  0  0  0  0  0  0
   -0.4745    1.1634   -0.8896 H   0  0  0  0  0  0  0  0  0  0  0  0
    0.8405    3.2990   -0.9554 H   0  0  0  0  0  0  0  0  0  0  0  0
    0.7888    2.5699    0.6628 H   0  0  0  0  0  0  0  0  0  0  0  0
    3.3849    1.6105   -2.1291 H   0  0  0  0  0  0  0  0  0  0  0  0
   -0.8350    0.9400   -2.9715 H   0  0  0  0  0  0  0  0  0  0  0  0
  1 11  1  0  0  0  0
  2  1  1  0  0  0  0
  2  3  1  0  0  0  0
  2  8  1  0  0  0  0
  2 12  1  6  0  0  0
  3  4  1  0  0  0  0
  3 13  1  0  0  0  0
  3 14  1  0  0  0  0
  4  5  1  0  0  0  0
  4  6  2  0  0  0  0
  4  7  2  0  0  0  0
  5 15  1  0  0  0  0
  8  9  1  0  0  0  0
  8 10  2  0  0  0  0
  9 16  1  0  0  0  0
M  END
>  <DRUGBANK_ID>
DB02334

>  <SECONDARY_ACCESSION_NUMBERS>
EXPT00192

>  <COMMON_NAME>
(R)-2-Hydroxy-3-Sulfopropanoic Acid

$$$$
