
 OpenBabel10282417243D

110117  0  0  1  0  0  0  0  0999 V2000
   -0.2443    0.1659    0.1759 C   0  0  0  0  0  0  0  0  0  0  0  0
    0.2187   -0.5090    1.4466 O   0  0  0  0  0  0  0  0  0  0  0  0
    0.3781   -1.8679    1.7729 C   0  0  0  0  0  0  0  0  0  0  0  0
    1.6520   -2.5870    2.0032 C   0  0  0  0  0  0  0  0  0  0  0  0
    2.2437   -3.7539    2.3428 C   0  0  0  0  0  0  0  0  0  0  0  0
    1.2342   -4.4816    2.7104 C   0  0  0  0  0  0  0  0  0  0  0  0
    1.8201   -5.6286    3.0178 C   0  0  0  0  0  0  0  0  0  0  0  0
    0.8860   -6.4819    3.4355 C   0  0  0  0  0  0  0  0  0  0  0  0
    1.3009   -7.8088    3.8170 C   0  0  0  0  0  0  0  0  0  0  0  0
    2.6014   -8.3201    3.5457 C   0  0  0  0  0  0  0  0  0  0  0  0
    2.9122   -9.5677    4.0043 C   0  0  0  0  0  0  0  0  0  0  0  0
    4.1061  -10.1923    3.8618 O   0  0  0  0  0  0  0  0  0  0  0  0
    3.8582  -11.3946    4.6182 C   0  0  0  0  0  0  0  0  0  0  0  0
    2.4844  -11.5228    5.0478 O   0  0  0  0  0  0  0  0  0  0  0  0
    1.9897  -10.3142    4.6835 C   0  0  0  0  0  0  0  0  0  0  0  0
    0.7218   -9.8493    4.9596 C   0  0  0  0  0  0  0  0  0  0  0  0
    0.3774   -8.5745    4.5342 C   0  0  0  0  0  0  0  0  0  0  0  0
   -0.9312   -7.9544    4.9254 C   0  0  0  0  0  0  0  0  0  0  0  0
   -1.4473   -7.0174    3.8776 C   0  0  0  0  0  0  0  0  0  0  0  0
   -0.4188   -6.0821    3.5368 N   0  3  0  0  0  0  0  0  0  0  0  0
   -0.9006   -4.8614    3.2316 C   0  0  0  0  0  0  0  0  0  0  0  0
   -0.0958   -3.9271    2.7329 C   0  0  0  0  0  0  0  0  0  0  0  0
   -0.5731   -2.6232    2.3141 C   0  0  0  0  0  0  0  0  0  0  0  0
   -1.8485   -2.1990    2.5256 O   0  0  0  0  0  0  0  0  0  0  0  0
   -2.1226   -0.8322    2.1477 C   0  0  0  0  0  0  0  0  0  0  0  0
    1.5582   -0.5371    0.0174 H   0  0  0  0  0  0  0  0  0  0  0  0
    2.4466   -0.0113   -0.1187 C   0  0  2  0  0  0  0  0  0  0  0  0
    2.4705    1.2392    0.8018 C   0  0  0  0  0  0  0  0  0  0  0  0
    2.4425    0.8861    2.3328 C   0  0  0  0  0  0  0  0  0  0  0  0
    2.8483   -0.5363    2.3316 C   0  0  2  0  0  0  0  0  0  0  0  0
    3.6166   -1.2476    3.5013 C   0  0  2  0  0  0  0  0  0  0  0  0
    2.7023   -1.7023    4.7223 C   0  0  0  0  0  0  0  0  0  0  0  0
    4.8753   -0.5058    3.8576 C   0  0  0  0  0  0  0  0  0  0  0  0
    5.4488    0.3988    2.7548 C   0  0  0  0  0  0  0  0  0  0  0  0
    5.2843    1.9397    2.4511 C   0  0  0  0  0  0  0  0  0  0  0  0
    6.3444    2.5920    2.6304 O   0  5  0  0  0  0  0  0  0  0  0  0
    4.2234    2.4718    2.0713 O   0  0  0  0  0  0  0  0  0  0  0  0
    3.1275   -1.1044    0.5688 C   0  0  2  0  0  0  0  0  0  0  0  0
    4.5547   -1.3029    0.2218 C   0  0  0  0  0  0  0  0  0  0  0  0
    2.3633   -2.5199   -0.1800 C   0  0  0  0  0  0  0  0  0  0  0  0
    2.4228   -2.6641   -1.6162 C   0  0  0  0  0  0  0  0  0  0  0  0
    1.8886   -1.3987   -2.2332 C   0  0  1  0  0  0  0  0  0  0  0  0
    0.8063   -1.4194   -2.0329 H   0  0  0  0  0  0  0  0  0  0  0  0
    2.4509   -0.0215   -1.6517 C   0  0  1  0  0  0  0  0  0  0  0  0
    3.5039    0.1021   -1.8903 H   0  0  0  0  0  0  0  0  0  0  0  0
    1.6339    1.0928   -2.3477 C   0  0  1  0  0  0  0  0  0  0  0  0
    1.9436    2.3985   -1.9074 O   0  0  0  0  0  0  0  0  0  0  0  0
    1.8077    1.0147   -3.8520 C   0  0  0  0  0  0  0  0  0  0  0  0
    1.3798   -0.3459   -4.4326 C   0  0  2  0  0  0  0  0  0  0  0  0
    1.6970   -0.3603   -5.4792 H   0  0  0  0  0  0  0  0  0  0  0  0
   -0.1641   -0.4835   -4.4236 C   0  0  0  0  0  0  0  0  0  0  0  0
   -0.6257   -1.8266   -4.9825 C   0  0  2  0  0  0  0  0  0  0  0  0
   -2.0451   -1.9125   -4.9596 O   0  0  0  0  0  0  0  0  0  0  0  0
   -0.0246   -2.9770   -4.1916 C   0  0  0  0  0  0  0  0  0  0  0  0
    1.4999   -2.8873   -4.2533 C   0  0  0  0  0  0  0  0  0  0  0  0
    2.0810   -1.5338   -3.7359 C   0  0  2  0  0  0  0  0  0  0  0  0
    3.6043   -1.5207   -3.9899 C   0  0  0  0  0  0  0  0  0  0  0  0
   -0.7648    1.1304    0.2811 H   0  0  0  0  0  0  0  0  0  0  0  0
   -0.4344   -0.5243   -0.6471 H   0  0  0  0  0  0  0  0  0  0  0  0
    0.5422    0.7585   -0.2684 H   0  0  0  0  0  0  0  0  0  0  0  0
    2.6409   -2.2738    1.8326 H   0  0  0  0  0  0  0  0  0  0  0  0
    3.3067   -3.9773    2.2473 H   0  0  0  0  0  0  0  0  0  0  0  0
    2.8861   -5.8465    2.9474 H   0  0  0  0  0  0  0  0  0  0  0  0
    3.3869   -7.7834    3.0137 H   0  0  0  0  0  0  0  0  0  0  0  0
    4.4967  -11.3812    5.5086 H   0  0  0  0  0  0  0  0  0  0  0  0
    4.1176  -12.2591    3.9998 H   0  0  0  0  0  0  0  0  0  0  0  0
    0.0145  -10.4506    5.5121 H   0  0  0  0  0  0  0  0  0  0  0  0
   -0.7788   -7.3955    5.8580 H   0  0  0  0  0  0  0  0  0  0  0  0
   -1.6956   -8.7122    5.0605 H   0  0  0  0  0  0  0  0  0  0  0  0
   -2.2815   -6.4307    4.2752 H   0  0  0  0  0  0  0  0  0  0  0  0
   -1.7207   -7.4707    2.9217 H   0  0  0  0  0  0  0  0  0  0  0  0
   -1.9457   -4.6193    3.3257 H   0  0  0  0  0  0  0  0  0  0  0  0
   -1.5237   -0.0956    2.7146 H   0  0  0  0  0  0  0  0  0  0  0  0
   -2.0179   -0.7179    1.0651 H   0  0  0  0  0  0  0  0  0  0  0  0
   -3.1635   -0.5953    2.3277 H   0  0  0  0  0  0  0  0  0  0  0  0
    3.3546    1.7176    0.4114 H   0  0  0  0  0  0  0  0  0  0  0  0
    1.6703    1.9745    0.6692 H   0  0  0  0  0  0  0  0  0  0  0  0
    3.0317    1.3006    3.1518 H   0  0  0  0  0  0  0  0  0  0  0  0
    1.4502    1.1191    2.7836 H   0  0  0  0  0  0  0  0  0  0  0  0
    1.8684   -0.7433    2.7628 H   0  0  0  0  0  0  0  0  0  0  0  0
    3.9955   -2.2184    3.1597 H   0  0  0  0  0  0  0  0  0  0  0  0
    3.0187   -2.6860    5.1087 H   0  0  0  0  0  0  0  0  0  0  0  0
    2.7028   -0.9811    5.5367 H   0  0  0  0  0  0  0  0  0  0  0  0
    1.6410   -1.8686    4.4718 H   0  0  0  0  0  0  0  0  0  0  0  0
    4.7369    0.0404    4.7825 H   0  0  0  0  0  0  0  0  0  0  0  0
    5.6050   -1.3149    4.0291 H   0  0  0  0  0  0  0  0  0  0  0  0
    6.5168    0.3893    2.9600 H   0  0  0  0  0  0  0  0  0  0  0  0
    5.4906   -0.2254    1.8802 H   0  0  0  0  0  0  0  0  0  0  0  0
    5.0071   -0.3214    0.1863 H   0  0  0  0  0  0  0  0  0  0  0  0
    4.9801   -2.0167    0.9330 H   0  0  0  0  0  0  0  0  0  0  0  0
    4.6950   -1.7115   -0.7739 H   0  0  0  0  0  0  0  0  0  0  0  0
    1.2566   -2.5599   -0.0911 H   0  0  0  0  0  0  0  0  0  0  0  0
    2.7738   -3.4772    0.1564 H   0  0  0  0  0  0  0  0  0  0  0  0
    1.7613   -3.5251   -1.8264 H   0  0  0  0  0  0  0  0  0  0  0  0
    3.4317   -2.9726   -1.8461 H   0  0  0  0  0  0  0  0  0  0  0  0
    0.5592    0.9777   -2.1855 H   0  0  0  0  0  0  0  0  0  0  0  0
    2.9051    2.4760   -1.7775 H   0  0  0  0  0  0  0  0  0  0  0  0
    2.8564    1.2266   -4.0826 H   0  0  0  0  0  0  0  0  0  0  0  0
    1.2247    1.8189   -4.3122 H   0  0  0  0  0  0  0  0  0  0  0  0
   -0.6045    0.3243   -5.0180 H   0  0  0  0  0  0  0  0  0  0  0  0
   -0.5912   -0.3614   -3.4190 H   0  0  0  0  0  0  0  0  0  0  0  0
   -0.3103   -1.9127   -6.0272 H   0  0  0  0  0  0  0  0  0  0  0  0
   -2.3538   -1.6986   -4.0639 H   0  0  0  0  0  0  0  0  0  0  0  0
   -0.4049   -2.9762   -3.1594 H   0  0  0  0  0  0  0  0  0  0  0  0
   -0.3538   -3.9354   -4.6105 H   0  0  0  0  0  0  0  0  0  0  0  0
    1.9170   -3.7536   -3.7284 H   0  0  0  0  0  0  0  0  0  0  0  0
    1.8262   -3.0248   -5.2863 H   0  0  0  0  0  0  0  0  0  0  0  0
    4.0838   -0.6111   -3.6225 H   0  0  0  0  0  0  0  0  0  0  0  0
    4.1189   -2.3475   -3.4917 H   0  0  0  0  0  0  0  0  0  0  0  0
    3.8189   -1.6053   -5.0494 H   0  0  0  0  0  0  0  0  0  0  0  0
  1  2  1  0  0  0  0
  1 58  1  0  0  0  0
  1 59  1  0  0  0  0
  1 60  1  0  0  0  0
  2  3  1  0  0  0  0
  3  4  1  0  0  0  0
  3 23  2  0  0  0  0
  4  5  2  0  0  0  0
  4 61  1  0  0  0  0
  5  6  1  0  0  0  0
  5 62  1  0  0  0  0
  6  7  2  0  0  0  0
  6 22  1  0  0  0  0
  7  8  1  0  0  0  0
  7 63  1  0  0  0  0
  8  9  1  0  0  0  0
  8 20  2  0  0  0  0
  9 10  2  0  0  0  0
  9 17  1  0  0  0  0
 10 11  1  0  0  0  0
 10 64  1  0  0  0  0
 11 12  1  0  0  0  0
 11 15  2  0  0  0  0
 12 13  1  0  0  0  0
 13 14  1  0  0  0  0
 13 65  1  0  0  0  0
 13 66  1  0  0  0  0
 14 15  1  0  0  0  0
 15 16  1  0  0  0  0
 16 17  2  0  0  0  0
 16 67  1  0  0  0  0
 17 18  1  0  0  0  0
 18 19  1  0  0  0  0
 18 68  1  0  0  0  0
 18 69  1  0  0  0  0
 19 20  1  0  0  0  0
 19 70  1  0  0  0  0
 19 71  1  0  0  0  0
 20 21  1  0  0  0  0
 21 22  2  0  0  0  0
 21 72  1  0  0  0  0
 22 23  1  0  0  0  0
 23 24  1  0  0  0  0
 24 25  1  0  0  0  0
 25 73  1  0  0  0  0
 25 74  1  0  0  0  0
 25 75  1  0  0  0  0
 27 26  1  1  0  0  0
 27 28  1  0  0  0  0
 27 38  1  0  0  0  0
 28 29  1  0  0  0  0
 28 76  1  0  0  0  0
 28 77  1  0  0  0  0
 29 78  1  0  0  0  0
 29 79  1  0  0  0  0
 30 29  1  0  0  0  0
 30 80  1  1  0  0  0
 30 31  1  0  0  0  0
 31 81  1  6  0  0  0
 31 33  1  0  0  0  0
 31 32  1  0  0  0  0
 32 82  1  0  0  0  0
 32 83  1  0  0  0  0
 32 84  1  0  0  0  0
 33 34  1  0  0  0  0
 33 85  1  0  0  0  0
 33 86  1  0  0  0  0
 34 35  1  0  0  0  0
 34 87  1  0  0  0  0
 34 88  1  0  0  0  0
 35 36  1  0  0  0  0
 35 37  2  0  0  0  0
 38 30  1  0  0  0  0
 38 39  1  6  0  0  0
 38 40  1  0  0  0  0
 39 89  1  0  0  0  0
 39 90  1  0  0  0  0
 39 91  1  0  0  0  0
 40 41  1  0  0  0  0
 40 92  1  0  0  0  0
 40 93  1  0  0  0  0
 41 94  1  0  0  0  0
 41 95  1  0  0  0  0
 42 41  1  0  0  0  0
 42 43  1  1  0  0  0
 42 56  1  0  0  0  0
 44 42  1  0  0  0  0
 44 27  1  0  0  0  0
 44 45  1  6  0  0  0
 44 46  1  0  0  0  0
 46 47  1  0  0  0  0
 46 48  1  0  0  0  0
 46 96  1  1  0  0  0
 47 97  1  0  0  0  0
 48 98  1  0  0  0  0
 48 99  1  0  0  0  0
 49 48  1  0  0  0  0
 49 50  1  6  0  0  0
 49 51  1  0  0  0  0
 51100  1  0  0  0  0
 51101  1  0  0  0  0
 52 51  1  0  0  0  0
 52 53  1  0  0  0  0
 52 54  1  0  0  0  0
 52102  1  6  0  0  0
 53103  1  0  0  0  0
 54 55  1  0  0  0  0
 54104  1  0  0  0  0
 54105  1  0  0  0  0
 55106  1  0  0  0  0
 55107  1  0  0  0  0
 56 55  1  0  0  0  0
 56 49  1  0  0  0  0
 56 57  1  6  0  0  0
 57108  1  0  0  0  0
 57109  1  0  0  0  0
 57110  1  0  0  0  0
M  CHG  2  20   1  36  -1
M  END
>  <DRUGBANK_ID>
DB18111

>  <COMMON_NAME>
Berberine ursodeoxycholate

>  <CAS_NUMBER>
1868138-66-2

>  <UNII>
VM8KQ3W8GM

>  <SYNONYMS>
9,10-dimethoxy-5,6-dihydro-2H,8H-[1,3]dioxolo[4,5-g]isoquinolino[3,2-a]isoquinolin-8-ylium 3α,7β-dihydroxy-5β-cholan-24-oate; Cholan-24-oic acid, 3,7-dihydroxy-, ion(1-), (3α,5β,7β)-, 5,6-dihydro-9,10-dimethoxybenzo[g]-1,3-benzodioxolo[5,6-a]quinolizinium (1:1)

$$$$
