422
 OpenBabel10282417103D

 36 37  0  0  1  0  0  0  0  0999 V2000
    0.8670    0.1255    0.0826 O   0  0  0  0  0  0  0  0  0  0  0  0
    0.8865    0.7183    2.2932 O   0  0  0  0  0  0  0  0  0  0  0  0
   -3.2100    1.4883   -0.0632 N   0  0  0  0  0  0  0  0  0  0  0  0
   -1.7447    1.4280    0.1582 C   0  0  3  0  0  0  0  0  0  0  0  0
   -1.2830    2.8262    0.6142 C   0  0  0  0  0  0  0  0  0  0  0  0
   -1.2749    0.3490    1.1911 C   0  0  3  0  0  0  0  0  0  0  0  0
   -1.6783    3.8946   -0.3981 C   0  0  0  0  0  0  0  0  0  0  0  0
   -3.1689    3.8420   -0.7028 C   0  0  0  0  0  0  0  0  0  0  0  0
   -3.5795    2.4424   -1.1006 C   0  0  0  0  0  0  0  0  0  0  0  0
   -1.7656   -1.0884    0.9518 C   0  0  0  0  0  0  0  0  0  0  0  0
    0.2700    0.4367    1.2763 C   0  0  0  0  0  0  0  0  0  0  0  0
   -0.8899   -2.1690    1.1242 C   0  0  0  0  0  0  0  0  0  0  0  0
   -3.1075   -1.4094    0.6692 C   0  0  0  0  0  0  0  0  0  0  0  0
   -1.3105   -3.4825    0.9243 C   0  0  0  0  0  0  0  0  0  0  0  0
   -3.5276   -2.7158    0.4362 C   0  0  0  0  0  0  0  0  0  0  0  0
   -2.6215   -3.7543    0.5525 C   0  0  0  0  0  0  0  0  0  0  0  0
    2.2995    0.0783    0.1135 C   0  0  0  0  0  0  0  0  0  0  0  0
   -3.4899    0.6018   -0.4683 H   0  0  0  0  0  0  0  0  0  0  0  0
   -1.2855    1.1864   -0.8092 H   0  0  0  0  0  0  0  0  0  0  0  0
   -0.1951    2.8588    0.7358 H   0  0  0  0  0  0  0  0  0  0  0  0
   -1.7182    3.0614    1.5952 H   0  0  0  0  0  0  0  0  0  0  0  0
   -1.6437    0.6312    2.1884 H   0  0  0  0  0  0  0  0  0  0  0  0
   -1.4077    4.8833   -0.0183 H   0  0  0  0  0  0  0  0  0  0  0  0
   -1.1121    3.7261   -1.3223 H   0  0  0  0  0  0  0  0  0  0  0  0
   -3.7400    4.1515    0.1812 H   0  0  0  0  0  0  0  0  0  0  0  0
   -3.4137    4.5333   -1.5143 H   0  0  0  0  0  0  0  0  0  0  0  0
   -4.6644    2.3916   -1.2468 H   0  0  0  0  0  0  0  0  0  0  0  0
   -3.1151    2.1386   -2.0461 H   0  0  0  0  0  0  0  0  0  0  0  0
    0.1402   -2.0190    1.4375 H   0  0  0  0  0  0  0  0  0  0  0  0
   -3.9056   -0.6775    0.6594 H   0  0  0  0  0  0  0  0  0  0  0  0
   -0.6045   -4.2916    1.0775 H   0  0  0  0  0  0  0  0  0  0  0  0
   -4.5719   -2.9062    0.2026 H   0  0  0  0  0  0  0  0  0  0  0  0
   -2.9474   -4.7750    0.3905 H   0  0  0  0  0  0  0  0  0  0  0  0
    2.6511   -0.2319   -0.8760 H   0  0  0  0  0  0  0  0  0  0  0  0
    2.7125    1.0677    0.3310 H   0  0  0  0  0  0  0  0  0  0  0  0
    2.6531   -0.6585    0.8430 H   0  0  0  0  0  0  0  0  0  0  0  0
  1 11  1  0  0  0  0
  1 17  1  0  0  0  0
  2 11  2  0  0  0  0
  3  4  1  0  0  0  0
  3  9  1  0  0  0  0
  3 18  1  0  0  0  0
  4  5  1  0  0  0  0
  4  6  1  0  0  0  0
  4 19  1  0  0  0  0
  5  7  1  0  0  0  0
  5 20  1  0  0  0  0
  5 21  1  0  0  0  0
  6 10  1  0  0  0  0
  6 11  1  0  0  0  0
  6 22  1  0  0  0  0
  7  8  1  0  0  0  0
  7 23  1  0  0  0  0
  7 24  1  0  0  0  0
  8  9  1  0  0  0  0
  8 25  1  0  0  0  0
  8 26  1  0  0  0  0
  9 27  1  0  0  0  0
  9 28  1  0  0  0  0
 10 12  2  0  0  0  0
 10 13  1  0  0  0  0
 12 14  1  0  0  0  0
 12 29  1  0  0  0  0
 13 15  2  0  0  0  0
 13 30  1  0  0  0  0
 14 16  2  0  0  0  0
 14 31  1  0  0  0  0
 15 16  1  0  0  0  0
 15 32  1  0  0  0  0
 16 33  1  0  0  0  0
 17 34  1  0  0  0  0
 17 35  1  0  0  0  0
 17 36  1  0  0  0  0
M  END
>  <DRUGBANK_ID>
DB00422

>  <SECONDARY_ACCESSION_NUMBERS>
APRD00657

>  <COMMON_NAME>
Methylphenidate

>  <CAS_NUMBER>
113-45-1

>  <UNII>
207ZZ9QZ49

>  <SYNONYMS>
Methyl phenidylacetate; methyl phenyl(piperidin-2-yl)acetate; methyl α-phenyl-α-(2-piperidyl)acetate; methyl α-phenyl-α-2-piperidinylacetate; Methylphenidan; Methylphenidate; Methylphenidatum; Metilfenidato; MPH; α-phenyl-2-piperidineacetic acid methyl ester

$$$$
