977
 OpenBabel10282417173D

  2  1  0  0  0  0  0  0  0  0999 V2000
    0.9625    0.0742    0.0659 O   0  0  0  0  0  0  0  0  0  0  0  0
    2.2445    0.0742    0.0659 O   0  0  0  0  0  0  0  0  0  0  0  0
  1  2  2  0  0  0  0
M  END
>  <DRUGBANK_ID>
DB09140

>  <COMMON_NAME>
Oxygen

>  <CAS_NUMBER>
7782-44-7

>  <UNII>
S88TT14065

>  <SYNONYMS>
Dioxygen; Molecular oxygen; Oxigeno gaseoso; Oxygen; Oxygen USP; Pure oxygen

$$$$
