SBA
 OpenBabel10282417173D

 65 65  0  0  0  0  0  0  0  0999 V2000
    2.2586    3.3753    9.7367 C   0  0  0  0  0  0  0  0  0  0  0  0
    2.2804    2.1970   10.4798 C   0  0  0  0  0  0  0  0  0  0  0  0
    2.9506    1.0650    9.9941 C   0  0  0  0  0  0  0  0  0  0  0  0
    3.6223    1.1382    8.7679 C   0  0  0  0  0  0  0  0  0  0  0  0
    3.5720    2.3084    8.0128 C   0  0  0  0  0  0  0  0  0  0  0  0
    2.9174    3.4347    8.5105 C   0  0  0  0  0  0  0  0  0  0  0  0
    2.8484   -0.2487   10.7271 C   0  0  0  0  0  0  0  0  0  0  0  0
    2.2569   -1.2760    9.9015 O   0  0  0  0  0  0  0  0  0  0  0  0
    0.9630   -1.0856    9.5428 C   0  0  0  0  0  0  0  0  0  0  0  0
    0.2542   -0.1380    9.8783 O   0  0  0  0  0  0  0  0  0  0  0  0
    0.4391   -2.0665    8.7546 N   0  0  0  0  0  0  0  0  0  0  0  0
    1.1325   -3.2517    8.2676 C   0  0  2  0  0  0  0  0  0  0  0  0
    0.9135   -3.5045    6.7682 C   0  0  0  0  0  0  0  0  0  0  0  0
   -0.2125   -2.9478    6.2093 N   0  0  0  0  0  0  0  0  0  0  0  0
   -0.6385   -3.1663    4.8163 C   0  0  2  0  0  0  0  0  0  0  0  0
   -2.1641   -2.9741    4.6268 C   0  0  2  0  0  0  0  0  0  0  0  0
   -0.2364   -4.5273    4.2442 C   0  0  0  0  0  0  0  0  0  0  0  0
   -0.6170   -4.7678    2.7812 C   0  0  0  0  0  0  0  0  0  0  0  0
    0.0123   -3.7070    1.8800 C   0  0  0  0  0  0  0  0  0  0  0  0
   -0.1374   -6.1622    2.3993 C   0  0  0  0  0  0  0  0  0  0  0  0
    0.7241   -4.5076    9.0690 C   0  0  0  0  0  0  0  0  0  0  0  0
    1.4707   -5.7942    8.6420 C   0  0  0  0  0  0  0  0  0  0  0  0
    2.9865   -5.6121    8.7367 C   0  0  0  0  0  0  0  0  0  0  0  0
    1.0359   -6.9945    9.4759 C   0  0  0  0  0  0  0  0  0  0  0  0
    1.6471   -4.2895    6.1745 O   0  0  0  0  0  0  0  0  0  0  0  0
   -2.3053   -1.8191    3.7916 O   0  0  0  0  0  0  0  0  0  0  0  0
   -2.9302   -2.9183    5.9602 C   0  0  0  0  0  0  0  0  0  0  0  0
   -4.2663   -2.4426    5.8154 O   0  0  0  0  0  0  0  0  0  0  0  0
   -4.2920   -1.0371    5.5811 C   0  0  0  0  0  0  0  0  0  0  0  0
    2.2023   -3.0614    8.3696 H   0  0  0  0  0  0  0  0  0  0  0  0
   -0.1086   -2.3823    4.2594 H   0  0  0  0  0  0  0  0  0  0  0  0
   -2.6345   -3.7885    4.0678 H   0  0  0  0  0  0  0  0  0  0  0  0
    1.6968    4.2322   10.0988 H   0  0  0  0  0  0  0  0  0  0  0  0
    1.7300    2.1505   11.4173 H   0  0  0  0  0  0  0  0  0  0  0  0
    4.1520    0.2703    8.3817 H   0  0  0  0  0  0  0  0  0  0  0  0
    4.0202    2.3318    7.0235 H   0  0  0  0  0  0  0  0  0  0  0  0
    2.9114    4.3571    7.9370 H   0  0  0  0  0  0  0  0  0  0  0  0
    3.8605   -0.5750   10.9994 H   0  0  0  0  0  0  0  0  0  0  0  0
    2.2879   -0.1570   11.6658 H   0  0  0  0  0  0  0  0  0  0  0  0
   -0.5483   -1.9553    8.5795 H   0  0  0  0  0  0  0  0  0  0  0  0
   -0.4516   -2.0396    6.5916 H   0  0  0  0  0  0  0  0  0  0  0  0
    0.8511   -4.6149    4.2575 H   0  0  0  0  0  0  0  0  0  0  0  0
   -0.6424   -5.3156    4.8909 H   0  0  0  0  0  0  0  0  0  0  0  0
   -1.7006   -4.7520    2.6402 H   0  0  0  0  0  0  0  0  0  0  0  0
    1.1034   -3.7108    1.9778 H   0  0  0  0  0  0  0  0  0  0  0  0
   -0.2480   -3.8863    0.8350 H   0  0  0  0  0  0  0  0  0  0  0  0
   -0.3377   -2.7006    2.1298 H   0  0  0  0  0  0  0  0  0  0  0  0
   -0.5912   -6.9137    3.0555 H   0  0  0  0  0  0  0  0  0  0  0  0
   -0.4168   -6.3905    1.3690 H   0  0  0  0  0  0  0  0  0  0  0  0
    0.9504   -6.2423    2.4964 H   0  0  0  0  0  0  0  0  0  0  0  0
    0.9134   -4.3237   10.1346 H   0  0  0  0  0  0  0  0  0  0  0  0
   -0.3585   -4.6758    8.9761 H   0  0  0  0  0  0  0  0  0  0  0  0
    1.2053   -6.0497    7.6100 H   0  0  0  0  0  0  0  0  0  0  0  0
    3.2825   -5.3910    9.7668 H   0  0  0  0  0  0  0  0  0  0  0  0
    3.5115   -6.5116    8.4045 H   0  0  0  0  0  0  0  0  0  0  0  0
    3.3451   -4.7947    8.1049 H   0  0  0  0  0  0  0  0  0  0  0  0
   -0.0406   -7.1669    9.3754 H   0  0  0  0  0  0  0  0  0  0  0  0
    1.5501   -7.8990    9.1309 H   0  0  0  0  0  0  0  0  0  0  0  0
    1.2704   -6.8475   10.5335 H   0  0  0  0  0  0  0  0  0  0  0  0
   -3.1184   -1.9499    3.2675 H   0  0  0  0  0  0  0  0  0  0  0  0
   -2.9681   -3.9387    6.3701 H   0  0  0  0  0  0  0  0  0  0  0  0
   -2.4418   -2.3076    6.7230 H   0  0  0  0  0  0  0  0  0  0  0  0
   -3.6116   -0.4983    6.2497 H   0  0  0  0  0  0  0  0  0  0  0  0
   -4.0340   -0.8100    4.5511 H   0  0  0  0  0  0  0  0  0  0  0  0
   -5.3117   -0.6799    5.7023 H   0  0  0  0  0  0  0  0  0  0  0  0
  1  2  2  0  0  0  0
  1  6  1  0  0  0  0
  1 33  1  0  0  0  0
  2  3  1  0  0  0  0
  2 34  1  0  0  0  0
  3  4  2  0  0  0  0
  3  7  1  0  0  0  0
  4  5  1  0  0  0  0
  4 35  1  0  0  0  0
  5  6  2  0  0  0  0
  5 36  1  0  0  0  0
  6 37  1  0  0  0  0
  7  8  1  0  0  0  0
  7 38  1  0  0  0  0
  7 39  1  0  0  0  0
  8  9  1  0  0  0  0
  9 10  2  0  0  0  0
  9 11  1  0  0  0  0
 11 40  1  0  0  0  0
 12 21  1  0  0  0  0
 12 30  1  1  0  0  0
 12 13  1  0  0  0  0
 12 11  1  0  0  0  0
 13 14  1  0  0  0  0
 13 25  2  0  0  0  0
 14 41  1  0  0  0  0
 15 17  1  0  0  0  0
 15 31  1  6  0  0  0
 15 16  1  0  0  0  0
 15 14  1  0  0  0  0
 16 32  1  6  0  0  0
 16 27  1  0  0  0  0
 16 26  1  0  0  0  0
 17 18  1  0  0  0  0
 17 42  1  0  0  0  0
 17 43  1  0  0  0  0
 18 19  1  0  0  0  0
 18 20  1  0  0  0  0
 18 44  1  0  0  0  0
 19 45  1  0  0  0  0
 19 46  1  0  0  0  0
 19 47  1  0  0  0  0
 20 48  1  0  0  0  0
 20 49  1  0  0  0  0
 20 50  1  0  0  0  0
 21 22  1  0  0  0  0
 21 51  1  0  0  0  0
 21 52  1  0  0  0  0
 22 23  1  0  0  0  0
 22 24  1  0  0  0  0
 22 53  1  0  0  0  0
 23 54  1  0  0  0  0
 23 55  1  0  0  0  0
 23 56  1  0  0  0  0
 24 57  1  0  0  0  0
 24 58  1  0  0  0  0
 24 59  1  0  0  0  0
 26 60  1  0  0  0  0
 27 28  1  0  0  0  0
 27 61  1  0  0  0  0
 27 62  1  0  0  0  0
 28 29  1  0  0  0  0
 29 63  1  0  0  0  0
 29 64  1  0  0  0  0
 29 65  1  0  0  0  0
M  END
>  <DRUGBANK_ID>
DB08526

>  <COMMON_NAME>
CARBOBENZYLOXY-(L)-LEUCINYL-(L)LEUCINYL METHOXYMETHYLKETONE

$$$$
