
 OpenBabel10282417123D

 42 44  0  0  0  0  0  0  0  0999 V2000
   -0.8825   -1.4719    0.0302 C   0  0  1  0  0  0  0  0  0  0  0  0
   -2.2452   -0.7142   -0.0365 C   0  0  0  0  0  0  0  0  0  0  0  0
   -2.2748    0.7488   -0.1714 N   0  0  0  0  0  0  0  0  0  0  0  0
   -0.9670    1.7837   -0.0624 S   0  0  0  0  0  0  0  0  0  0  0  0
   -0.8160    2.4742   -1.3196 O   0  0  0  0  0  0  0  0  0  0  0  0
   -0.9664    2.4541    1.2245 O   0  0  0  0  0  0  0  0  0  0  0  0
    0.3789   -0.6498   -0.0530 C   0  0  0  0  0  0  0  0  0  0  0  0
    0.3764    0.7183   -0.0187 C   0  0  0  0  0  0  0  0  0  0  0  0
    1.7361   -1.0914   -0.1663 C   0  0  0  0  0  0  0  0  0  0  0  0
    2.6338   -0.0475   -0.0529 C   0  0  0  0  0  0  0  0  0  0  0  0
    1.8800    1.4596    0.0293 S   0  0  0  0  0  0  0  0  0  0  0  0
    4.7666    0.6012   -1.2721 O   0  0  0  0  0  0  0  0  0  0  0  0
    4.7257    0.6118    1.2752 O   0  0  0  0  0  0  0  0  0  0  0  0
    4.3750    0.0418   -0.0041 S   0  0  0  0  0  0  0  0  0  0  0  0
    4.8776   -1.5591   -0.0118 N   0  0  0  0  0  0  0  0  0  0  0  0
   -3.5160    1.4131   -0.0794 C   0  0  0  0  0  0  0  0  0  0  0  0
   -3.8024    2.3649   -1.0535 C   0  0  0  0  0  0  0  0  0  0  0  0
   -4.8642    3.2215   -0.8655 C   0  0  0  0  0  0  0  0  0  0  0  0
   -5.7264    3.0003    0.2090 C   0  0  0  0  0  0  0  0  0  0  0  0
   -5.4522    2.0266    1.1695 C   0  0  0  0  0  0  0  0  0  0  0  0
   -4.3179    1.2477    1.0461 C   0  0  0  0  0  0  0  0  0  0  0  0
   -4.9364    4.2571   -1.7523 O   0  0  0  0  0  0  0  0  0  0  0  0
   -5.9363    5.2194   -1.4532 C   0  0  0  0  0  0  0  0  0  0  0  0
   -0.9062   -2.1646    1.3323 N   0  0  0  0  0  0  0  0  0  0  0  0
    0.1725   -3.1071    1.5342 C   0  0  0  0  0  0  0  0  0  0  0  0
   -0.8940   -2.2080   -0.7864 H   0  0  0  0  0  0  0  0  0  0  0  0
   -2.8417   -0.9936    0.8439 H   0  0  0  0  0  0  0  0  0  0  0  0
   -2.8111   -1.1169   -0.8878 H   0  0  0  0  0  0  0  0  0  0  0  0
    2.0533   -2.1257   -0.2310 H   0  0  0  0  0  0  0  0  0  0  0  0
    4.5383   -2.0225   -0.8538 H   0  0  0  0  0  0  0  0  0  0  0  0
    5.8942   -1.5724    0.0478 H   0  0  0  0  0  0  0  0  0  0  0  0
   -3.1513    2.4844   -1.9176 H   0  0  0  0  0  0  0  0  0  0  0  0
   -6.6218    3.5928    0.3366 H   0  0  0  0  0  0  0  0  0  0  0  0
   -6.0995    1.9123    2.0319 H   0  0  0  0  0  0  0  0  0  0  0  0
   -4.0551    0.5496    1.8350 H   0  0  0  0  0  0  0  0  0  0  0  0
   -6.9215    4.7654   -1.5907 H   0  0  0  0  0  0  0  0  0  0  0  0
   -5.8249    5.6228   -0.4387 H   0  0  0  0  0  0  0  0  0  0  0  0
   -5.8397    6.0501   -2.1545 H   0  0  0  0  0  0  0  0  0  0  0  0
   -0.9095   -1.4720    2.0829 H   0  0  0  0  0  0  0  0  0  0  0  0
    1.1259   -2.5947    1.6601 H   0  0  0  0  0  0  0  0  0  0  0  0
    0.0218   -3.6586    2.4622 H   0  0  0  0  0  0  0  0  0  0  0  0
    0.2297   -3.8142    0.7016 H   0  0  0  0  0  0  0  0  0  0  0  0
  1  2  1  0  0  0  0
  1  7  1  0  0  0  0
  1 24  1  0  0  0  0
  1 26  1  6  0  0  0
  2  3  1  0  0  0  0
  2 27  1  0  0  0  0
  2 28  1  0  0  0  0
  3 16  1  0  0  0  0
  3  4  1  0  0  0  0
  4  8  1  0  0  0  0
  4  5  2  0  0  0  0
  4  6  2  0  0  0  0
  7  9  1  0  0  0  0
  7  8  2  0  0  0  0
  8 11  1  0  0  0  0
  9 10  2  0  0  0  0
  9 29  1  0  0  0  0
 10 11  1  0  0  0  0
 10 14  1  0  0  0  0
 12 14  2  0  0  0  0
 13 14  2  0  0  0  0
 14 15  1  0  0  0  0
 15 30  1  0  0  0  0
 15 31  1  0  0  0  0
 16 21  1  0  0  0  0
 16 17  2  0  0  0  0
 17 18  1  0  0  0  0
 17 32  1  0  0  0  0
 18 19  2  0  0  0  0
 18 22  1  0  0  0  0
 19 20  1  0  0  0  0
 19 33  1  0  0  0  0
 20 21  2  0  0  0  0
 20 34  1  0  0  0  0
 21 35  1  0  0  0  0
 22 23  1  0  0  0  0
 23 36  1  0  0  0  0
 23 37  1  0  0  0  0
 23 38  1  0  0  0  0
 24 25  1  0  0  0  0
 24 39  1  0  0  0  0
 25 40  1  0  0  0  0
 25 41  1  0  0  0  0
 25 42  1  0  0  0  0
M  END
>  <DRUGBANK_ID>
DB02220

>  <SECONDARY_ACCESSION_NUMBERS>
EXPT00492

>  <COMMON_NAME>
AL7089A

>  <CAS_NUMBER>
220402-83-5

$$$$
