
 OpenBabel10282417103D

 98101  0  0  0  0  0  0  0  0999 V2000
    0.5091   -4.4208   -0.0096 C   0  0  1  0  0  0  0  0  0  0  0  0
    1.2616   -5.6727    0.4734 C   0  0  0  0  0  0  0  0  0  0  0  0
    1.5813   -3.4190   -0.5871 C   0  0  0  0  0  0  0  0  0  0  0  0
   -0.6442   -4.7110   -0.9249 N   0  0  0  0  0  0  0  0  0  0  0  0
    2.4585   -5.3379    1.3590 C   0  0  0  0  0  0  0  0  0  0  0  0
    1.3063   -2.9289   -1.9680 C   0  0  1  0  0  0  0  0  0  0  0  0
   -1.9822   -4.4232   -0.5954 C   0  0  0  0  0  0  0  0  0  0  0  0
    2.5484   -4.1189    2.0678 C   0  0  0  0  0  0  0  0  0  0  0  0
    3.5101   -6.2450    1.4789 C   0  0  0  0  0  0  0  0  0  0  0  0
    0.2406   -1.8101   -2.0220 C   0  0  2  0  0  0  0  0  0  0  0  0
    2.5240   -2.4521   -2.5447 O   0  0  0  0  0  0  0  0  0  0  0  0
   -3.0806   -4.6545   -1.7105 C   0  0  1  0  0  0  0  0  0  0  0  0
   -2.2833   -4.0116    0.5234 O   0  0  0  0  0  0  0  0  0  0  0  0
    3.6579   -3.7897    2.8307 C   0  0  0  0  0  0  0  0  0  0  0  0
    4.5636   -5.9695    2.3540 C   0  0  0  0  0  0  0  0  0  0  0  0
   -0.5260   -1.5498   -0.6563 C   0  0  0  0  0  0  0  0  0  0  0  0
   -0.5746   -2.0643   -3.2046 N   0  0  0  0  0  0  0  0  0  0  0  0
   -4.0514   -5.6830   -1.2755 N   0  0  0  0  0  0  0  0  0  0  0  0
   -3.8893   -3.3803   -2.1176 C   0  0  0  0  0  0  0  0  0  0  0  0
    4.6532   -4.7349    3.0020 C   0  0  0  0  0  0  0  0  0  0  0  0
   -0.2169   -0.1626   -0.2449 C   0  0  0  0  0  0  0  0  0  0  0  0
   -0.6455   -1.3077   -4.3535 C   0  0  0  0  0  0  0  0  0  0  0  0
   -5.3578   -5.3853   -0.9224 C   0  0  0  0  0  0  0  0  0  0  0  0
   -3.1227   -2.2063   -2.5492 C   0  0  0  0  0  0  0  0  0  0  0  0
   -4.8270   -3.6605   -3.3056 C   0  0  0  0  0  0  0  0  0  0  0  0
    0.7801    0.0395    0.7022 C   0  0  0  0  0  0  0  0  0  0  0  0
   -0.8055    0.8791   -0.9602 C   0  0  0  0  0  0  0  0  0  0  0  0
   -1.4173   -1.7332   -5.4063 O   0  0  0  0  0  0  0  0  0  0  0  0
    0.0054   -0.2592   -4.4776 O   0  0  0  0  0  0  0  0  0  0  0  0
   -6.2188   -6.4396   -0.8140 N   0  0  0  0  0  0  0  0  0  0  0  0
   -5.8323   -4.2580   -0.8214 O   0  0  0  0  0  0  0  0  0  0  0  0
    1.2702    1.3114    0.8740 C   0  0  0  0  0  0  0  0  0  0  0  0
   -0.2747    2.1407   -0.8184 C   0  0  0  0  0  0  0  0  0  0  0  0
   -2.3365   -2.8628   -5.5856 C   0  0  0  0  0  0  0  0  0  0  0  0
   -7.6444   -6.0820   -0.7277 C   0  0  0  0  0  0  0  0  0  0  0  0
   -5.7600   -7.7376   -0.3932 C   0  0  0  0  0  0  0  0  0  0  0  0
    0.7482    2.3560    0.1090 C   0  0  0  0  0  0  0  0  0  0  0  0
   -1.6278   -4.1622   -5.3405 C   0  0  0  0  0  0  0  0  0  0  0  0
   -8.4963   -6.9964   -1.5444 C   0  0  0  0  0  0  0  0  0  0  0  0
   -0.3675   -4.4076   -4.8230 C   0  0  0  0  0  0  0  0  0  0  0  0
   -2.2767   -5.6866   -5.8147 S   0  0  0  0  0  0  0  0  0  0  0  0
   -8.8734   -6.6696   -2.8459 N   0  0  0  0  0  0  0  0  0  0  0  0
   -9.0255   -8.1792   -1.0747 C   0  0  0  0  0  0  0  0  0  0  0  0
   -0.0425   -5.7014   -4.5317 N   0  0  0  0  0  0  0  0  0  0  0  0
   -0.8870   -6.4706   -5.1727 C   0  0  0  0  0  0  0  0  0  0  0  0
   -9.6800   -7.5963   -3.3282 C   0  0  0  0  0  0  0  0  0  0  0  0
   -9.9927   -8.9148   -2.2574 S   0  0  0  0  0  0  0  0  0  0  0  0
  -10.3183   -7.5554   -4.6984 C   0  0  0  0  0  0  0  0  0  0  0  0
   -9.8885   -8.7492   -5.5531 C   0  0  0  0  0  0  0  0  0  0  0  0
  -11.8452   -7.4949   -4.6046 C   0  0  0  0  0  0  0  0  0  0  0  0
    0.0678   -3.9932    0.9006 H   0  0  0  0  0  0  0  0  0  0  0  0
    0.5833   -6.3085    1.0513 H   0  0  0  0  0  0  0  0  0  0  0  0
    1.5833   -6.2425   -0.4085 H   0  0  0  0  0  0  0  0  0  0  0  0
    1.7016   -2.5448    0.0623 H   0  0  0  0  0  0  0  0  0  0  0  0
    2.5945   -3.8342   -0.5812 H   0  0  0  0  0  0  0  0  0  0  0  0
   -0.4240   -5.1578   -1.8107 H   0  0  0  0  0  0  0  0  0  0  0  0
    1.0598   -3.8162   -2.5547 H   0  0  0  0  0  0  0  0  0  0  0  0
    1.7764   -3.3582    2.0043 H   0  0  0  0  0  0  0  0  0  0  0  0
    3.5161   -7.1680    0.9036 H   0  0  0  0  0  0  0  0  0  0  0  0
    0.7727   -0.8907   -2.2770 H   0  0  0  0  0  0  0  0  0  0  0  0
    2.6395   -1.5268   -2.2626 H   0  0  0  0  0  0  0  0  0  0  0  0
   -2.5546   -5.0689   -2.5822 H   0  0  0  0  0  0  0  0  0  0  0  0
    3.7129   -2.8123    3.3024 H   0  0  0  0  0  0  0  0  0  0  0  0
    5.3176   -6.7272    2.5418 H   0  0  0  0  0  0  0  0  0  0  0  0
   -1.5971   -1.5985   -0.5321 H   0  0  0  0  0  0  0  0  0  0  0  0
   -0.2460   -2.1922    0.1650 H   0  0  0  0  0  0  0  0  0  0  0  0
   -0.9786   -2.9824   -3.1789 H   0  0  0  0  0  0  0  0  0  0  0  0
   -3.6783   -6.5859   -1.0355 H   0  0  0  0  0  0  0  0  0  0  0  0
   -4.3546   -2.9644   -1.2239 H   0  0  0  0  0  0  0  0  0  0  0  0
    5.4948   -4.5105    3.6485 H   0  0  0  0  0  0  0  0  0  0  0  0
   -2.6327   -2.5391   -3.4135 H   0  0  0  0  0  0  0  0  0  0  0  0
   -3.6282   -1.2673   -2.7620 H   0  0  0  0  0  0  0  0  0  0  0  0
   -2.3838   -2.0293   -1.8379 H   0  0  0  0  0  0  0  0  0  0  0  0
   -5.5932   -4.4113   -3.1460 H   0  0  0  0  0  0  0  0  0  0  0  0
   -5.3193   -2.7331   -3.6148 H   0  0  0  0  0  0  0  0  0  0  0  0
   -4.2625   -4.0610   -4.1478 H   0  0  0  0  0  0  0  0  0  0  0  0
    1.1952   -0.7954    1.2598 H   0  0  0  0  0  0  0  0  0  0  0  0
   -1.6032    0.6804   -1.6758 H   0  0  0  0  0  0  0  0  0  0  0  0
    2.0804    1.4713    1.5749 H   0  0  0  0  0  0  0  0  0  0  0  0
   -0.6314    2.9395   -1.4587 H   0  0  0  0  0  0  0  0  0  0  0  0
   -3.2425   -2.6580   -5.0189 H   0  0  0  0  0  0  0  0  0  0  0  0
   -2.7678   -2.8286   -6.5913 H   0  0  0  0  0  0  0  0  0  0  0  0
   -7.9326   -6.1174    0.3289 H   0  0  0  0  0  0  0  0  0  0  0  0
   -7.8453   -5.0548   -1.0647 H   0  0  0  0  0  0  0  0  0  0  0  0
   -5.2725   -8.2180   -1.2444 H   0  0  0  0  0  0  0  0  0  0  0  0
   -5.0378   -7.6120    0.4200 H   0  0  0  0  0  0  0  0  0  0  0  0
   -6.5815   -8.3494   -0.0303 H   0  0  0  0  0  0  0  0  0  0  0  0
    1.1456    3.3545    0.2359 H   0  0  0  0  0  0  0  0  0  0  0  0
    0.3605   -3.6553   -4.5628 H   0  0  0  0  0  0  0  0  0  0  0  0
   -8.8766   -8.6177   -0.1004 H   0  0  0  0  0  0  0  0  0  0  0  0
   -0.6940   -7.5291   -5.2772 H   0  0  0  0  0  0  0  0  0  0  0  0
   -9.9793   -6.6415   -5.2052 H   0  0  0  0  0  0  0  0  0  0  0  0
  -10.2132   -9.6987   -5.1127 H   0  0  0  0  0  0  0  0  0  0  0  0
  -10.3260   -8.6885   -6.5551 H   0  0  0  0  0  0  0  0  0  0  0  0
   -8.7990   -8.7851   -5.6577 H   0  0  0  0  0  0  0  0  0  0  0  0
  -12.1702   -6.6242   -4.0252 H   0  0  0  0  0  0  0  0  0  0  0  0
  -12.2943   -7.4275   -5.6011 H   0  0  0  0  0  0  0  0  0  0  0  0
  -12.2563   -8.3888   -4.1218 H   0  0  0  0  0  0  0  0  0  0  0  0
  1  4  1  0  0  0  0
  1 51  1  1  0  0  0
  1  3  1  0  0  0  0
  1  2  1  0  0  0  0
  2  5  1  0  0  0  0
  2 52  1  0  0  0  0
  2 53  1  0  0  0  0
  3  6  1  0  0  0  0
  3 54  1  0  0  0  0
  3 55  1  0  0  0  0
  4  7  1  0  0  0  0
  4 56  1  0  0  0  0
  5  8  2  0  0  0  0
  5  9  1  0  0  0  0
  6 11  1  0  0  0  0
  6 57  1  6  0  0  0
  7 12  1  0  0  0  0
  7 13  2  0  0  0  0
  8 14  1  0  0  0  0
  8 58  1  0  0  0  0
  9 15  2  0  0  0  0
  9 59  1  0  0  0  0
 10 17  1  0  0  0  0
 10 60  1  6  0  0  0
 10 16  1  0  0  0  0
 10  6  1  0  0  0  0
 11 61  1  0  0  0  0
 12 18  1  0  0  0  0
 12 19  1  0  0  0  0
 12 62  1  6  0  0  0
 14 20  2  0  0  0  0
 14 63  1  0  0  0  0
 15 20  1  0  0  0  0
 15 64  1  0  0  0  0
 16 21  1  0  0  0  0
 16 65  1  0  0  0  0
 16 66  1  0  0  0  0
 17 22  1  0  0  0  0
 17 67  1  0  0  0  0
 18 23  1  0  0  0  0
 18 68  1  0  0  0  0
 19 24  1  0  0  0  0
 19 25  1  0  0  0  0
 19 69  1  0  0  0  0
 20 70  1  0  0  0  0
 21 26  2  0  0  0  0
 21 27  1  0  0  0  0
 22 28  1  0  0  0  0
 22 29  2  0  0  0  0
 23 30  1  0  0  0  0
 23 31  2  0  0  0  0
 24 71  1  0  0  0  0
 24 72  1  0  0  0  0
 24 73  1  0  0  0  0
 25 74  1  0  0  0  0
 25 75  1  0  0  0  0
 25 76  1  0  0  0  0
 26 32  1  0  0  0  0
 26 77  1  0  0  0  0
 27 33  2  0  0  0  0
 27 78  1  0  0  0  0
 28 34  1  0  0  0  0
 30 35  1  0  0  0  0
 30 36  1  0  0  0  0
 32 37  2  0  0  0  0
 32 79  1  0  0  0  0
 33 37  1  0  0  0  0
 33 80  1  0  0  0  0
 34 38  1  0  0  0  0
 34 81  1  0  0  0  0
 34 82  1  0  0  0  0
 35 39  1  0  0  0  0
 35 83  1  0  0  0  0
 35 84  1  0  0  0  0
 36 85  1  0  0  0  0
 36 86  1  0  0  0  0
 36 87  1  0  0  0  0
 37 88  1  0  0  0  0
 38 40  2  0  0  0  0
 38 41  1  0  0  0  0
 39 42  1  0  0  0  0
 39 43  2  0  0  0  0
 40 44  1  0  0  0  0
 40 89  1  0  0  0  0
 41 45  1  0  0  0  0
 42 46  2  0  0  0  0
 43 47  1  0  0  0  0
 43 90  1  0  0  0  0
 44 45  2  0  0  0  0
 45 91  1  0  0  0  0
 46 48  1  0  0  0  0
 46 47  1  0  0  0  0
 48 49  1  0  0  0  0
 48 50  1  0  0  0  0
 48 92  1  0  0  0  0
 49 93  1  0  0  0  0
 49 94  1  0  0  0  0
 49 95  1  0  0  0  0
 50 96  1  0  0  0  0
 50 97  1  0  0  0  0
 50 98  1  0  0  0  0
M  END
>  <DRUGBANK_ID>
DB00503

>  <SECONDARY_ACCESSION_NUMBERS>
APRD00312

>  <COMMON_NAME>
Ritonavir

>  <CAS_NUMBER>
155213-67-5

>  <UNII>
O3J8G9O825

>  <SYNONYMS>
Ritonavir; Ritonavirum

$$$$
