1206
 OpenBabel10282417113D

 31 31  0  0  0  0  0  0  0  0999 V2000
    1.1628   -0.5097    0.1954 Cl  0  0  0  0  0  0  0  0  0  0  0  0
    0.5926    1.8650   -1.3862 O   0  0  0  0  0  0  0  0  0  0  0  0
    4.9650    2.8584   -0.8046 O   0  0  0  0  0  0  0  0  0  0  0  0
    1.1124    3.9189   -0.7833 N   0  0  0  0  0  0  0  0  0  0  0  0
    2.8403    2.2520   -0.9958 N   0  0  0  0  0  0  0  0  0  0  0  0
    3.8603    3.1850   -1.2519 N   0  0  0  0  0  0  0  0  0  0  0  0
    1.9204    5.0592   -0.4085 C   0  0  0  0  0  0  0  0  0  0  0  0
    2.5524    4.8650    0.9752 C   0  0  0  0  0  0  0  0  0  0  0  0
    1.1844    6.4016   -0.4677 C   0  0  0  0  0  0  0  0  0  0  0  0
    3.5905    5.9504    1.2095 C   0  0  0  0  0  0  0  0  0  0  0  0
    2.1866    7.5296   -0.1846 C   0  0  0  0  0  0  0  0  0  0  0  0
    2.9274    7.3211    1.1393 C   0  0  0  0  0  0  0  0  0  0  0  0
    1.5039    2.6424   -1.0855 C   0  0  0  0  0  0  0  0  0  0  0  0
    3.1990    0.8412   -1.1829 C   0  0  0  0  0  0  0  0  0  0  0  0
    2.8727   -0.0882   -0.0124 C   0  0  0  0  0  0  0  0  0  0  0  0
    0.1028    4.0076   -0.7347 H   0  0  0  0  0  0  0  0  0  0  0  0
    2.6843    5.1452   -1.1847 H   0  0  0  0  0  0  0  0  0  0  0  0
    1.7772    4.8990    1.7508 H   0  0  0  0  0  0  0  0  0  0  0  0
    3.0276    3.8867    1.0884 H   0  0  0  0  0  0  0  0  0  0  0  0
    0.7406    6.5490   -1.4604 H   0  0  0  0  0  0  0  0  0  0  0  0
    0.3614    6.4311    0.2562 H   0  0  0  0  0  0  0  0  0  0  0  0
    4.0688    5.8021    2.1826 H   0  0  0  0  0  0  0  0  0  0  0  0
    4.3805    5.8772    0.4498 H   0  0  0  0  0  0  0  0  0  0  0  0
    1.6732    8.4959   -0.1758 H   0  0  0  0  0  0  0  0  0  0  0  0
    2.9220    7.5667   -0.9999 H   0  0  0  0  0  0  0  0  0  0  0  0
    2.2145    7.4116    1.9673 H   0  0  0  0  0  0  0  0  0  0  0  0
    3.6847    8.0998    1.2727 H   0  0  0  0  0  0  0  0  0  0  0  0
    4.2881    0.7689   -1.3057 H   0  0  0  0  0  0  0  0  0  0  0  0
    2.7665    0.4936   -2.1261 H   0  0  0  0  0  0  0  0  0  0  0  0
    3.2307    0.3257    0.9343 H   0  0  0  0  0  0  0  0  0  0  0  0
    3.3814   -1.0414   -0.1827 H   0  0  0  0  0  0  0  0  0  0  0  0
  1 15  1  0  0  0  0
  2 13  2  0  0  0  0
  3  6  2  0  0  0  0
  4  7  1  0  0  0  0
  4 13  1  0  0  0  0
  4 16  1  0  0  0  0
  5  6  1  0  0  0  0
  5 13  1  0  0  0  0
  5 14  1  0  0  0  0
  7  8  1  0  0  0  0
  7  9  1  0  0  0  0
  7 17  1  0  0  0  0
  8 10  1  0  0  0  0
  8 18  1  0  0  0  0
  8 19  1  0  0  0  0
  9 11  1  0  0  0  0
  9 20  1  0  0  0  0
  9 21  1  0  0  0  0
 10 12  1  0  0  0  0
 10 22  1  0  0  0  0
 10 23  1  0  0  0  0
 11 12  1  0  0  0  0
 11 24  1  0  0  0  0
 11 25  1  0  0  0  0
 12 26  1  0  0  0  0
 12 27  1  0  0  0  0
 14 15  1  0  0  0  0
 14 28  1  0  0  0  0
 14 29  1  0  0  0  0
 15 30  1  0  0  0  0
 15 31  1  0  0  0  0
M  END
>  <DRUGBANK_ID>
DB01206

>  <SECONDARY_ACCESSION_NUMBERS>
APRD00292

>  <COMMON_NAME>
Lomustine

>  <CAS_NUMBER>
13010-47-4

>  <UNII>
7BRF0Z81KG

>  <SYNONYMS>
1-(2-Chloroethyl)-3-cyclohexyl-1-nitrosourea; 1-(2-chloroethyl)-3-cyclohexylnitrosourea; Chloroethylcyclohexylnitrosourea; CINU; Cyclohexyl chloroethyl nitrosourea; Lomustina; Lomustine; Lomustinum; N-(2-chloroethyl)-N'-cyclohexyl-N-nitrosourea

$$$$
