
 OpenBabel10282417123D

 66 69  0  0  0  0  0  0  0  0999 V2000
    1.1505   -0.0699   -0.0513 C   0  0  0  0  0  0  0  0  0  0  0  0
    0.5654    1.3059    0.2391 C   0  0  0  0  0  0  0  0  0  0  0  0
    1.0909    2.3076   -0.8002 C   0  0  0  0  0  0  0  0  0  0  0  0
   -0.9304    1.2856    0.2797 C   0  0  0  0  0  0  0  0  0  0  0  0
   -1.8244    0.2169    0.3354 C   0  0  0  0  0  0  0  0  0  0  0  0
   -1.6453   -1.1481    0.3927 N   0  0  0  0  0  0  0  0  0  0  0  0
   -2.7085   -1.9101    0.3236 C   0  0  0  0  0  0  0  0  0  0  0  0
   -2.5776   -3.2940    0.3896 N   0  0  0  0  0  0  0  0  0  0  0  0
   -3.0029   -4.1429   -0.7339 C   0  0  1  0  0  0  0  0  0  0  0  0
   -2.5391   -3.5585   -2.0776 C   0  0  0  0  0  0  0  0  0  0  0  0
   -3.0307   -4.3913   -3.2562 C   0  0  0  0  0  0  0  0  0  0  0  0
   -2.5785   -5.8461   -3.1392 C   0  0  2  0  0  0  0  0  0  0  0  0
   -3.1312   -6.6030   -4.2593 N   0  0  0  0  0  0  0  0  0  0  0  0
   -3.0254   -6.4427   -1.7982 C   0  0  0  0  0  0  0  0  0  0  0  0
   -2.5298   -5.6033   -0.6057 C   0  0  0  0  0  0  0  0  0  0  0  0
   -4.0968   -1.3490    0.2038 C   0  0  0  0  0  0  0  0  0  0  0  0
   -4.2743   -0.0155    0.2458 C   0  0  0  0  0  0  0  0  0  0  0  0
   -5.5500    0.5620    0.2689 N   0  0  0  0  0  0  0  0  0  0  0  0
   -5.8611    1.9287    0.1625 C   0  0  0  0  0  0  0  0  0  0  0  0
   -5.3715    2.6846   -0.9056 C   0  0  0  0  0  0  0  0  0  0  0  0
   -5.4878    4.0718   -0.9138 C   0  0  0  0  0  0  0  0  0  0  0  0
   -6.2595    4.7146    0.0469 C   0  0  0  0  0  0  0  0  0  0  0  0
   -6.8514    3.9608    1.0685 C   0  0  0  0  0  0  0  0  0  0  0  0
   -6.6020    2.5813    1.1546 C   0  0  0  0  0  0  0  0  0  0  0  0
   -6.4824    6.4801    0.0639 S   0  0  0  0  0  0  0  0  0  0  0  0
   -7.8895    6.7373   -0.1180 O   0  0  0  0  0  0  0  0  0  0  0  0
   -5.7800    6.9788    1.2383 O   0  0  0  0  0  0  0  0  0  0  0  0
   -5.6796    7.1307   -1.3216 N   0  0  0  0  0  0  0  0  0  0  0  0
   -6.2173    6.6828   -2.6301 C   0  0  0  0  0  0  0  0  0  0  0  0
   -5.6958    8.6254   -1.2947 C   0  0  0  0  0  0  0  0  0  0  0  0
   -3.1044    0.7898    0.3243 N   0  0  0  0  0  0  0  0  0  0  0  0
   -3.0203    2.1444    0.4040 N   0  0  0  0  0  0  0  0  0  0  0  0
   -1.7384    2.4339    0.3171 C   0  0  0  0  0  0  0  0  0  0  0  0
    0.8002   -0.4387   -1.0226 H   0  0  0  0  0  0  0  0  0  0  0  0
    0.8507   -0.7893    0.7173 H   0  0  0  0  0  0  0  0  0  0  0  0
    2.2421   -0.0416   -0.0636 H   0  0  0  0  0  0  0  0  0  0  0  0
    0.9148    1.6334    1.2282 H   0  0  0  0  0  0  0  0  0  0  0  0
    0.7420    2.0495   -1.8066 H   0  0  0  0  0  0  0  0  0  0  0  0
    0.7553    3.3298   -0.5891 H   0  0  0  0  0  0  0  0  0  0  0  0
    2.1853    2.3223   -0.8082 H   0  0  0  0  0  0  0  0  0  0  0  0
   -1.7477   -3.6077    0.8858 H   0  0  0  0  0  0  0  0  0  0  0  0
   -4.0983   -4.1621   -0.7141 H   0  0  0  0  0  0  0  0  0  0  0  0
   -2.9232   -2.5413   -2.2054 H   0  0  0  0  0  0  0  0  0  0  0  0
   -1.4440   -3.4885   -2.1038 H   0  0  0  0  0  0  0  0  0  0  0  0
   -4.1274   -4.3378   -3.2921 H   0  0  0  0  0  0  0  0  0  0  0  0
   -2.6607   -3.9487   -4.1889 H   0  0  0  0  0  0  0  0  0  0  0  0
   -1.4841   -5.8874   -3.2055 H   0  0  0  0  0  0  0  0  0  0  0  0
   -2.8535   -7.5813   -4.1948 H   0  0  0  0  0  0  0  0  0  0  0  0
   -4.1500   -6.5930   -4.2257 H   0  0  0  0  0  0  0  0  0  0  0  0
   -4.1225   -6.4914   -1.7642 H   0  0  0  0  0  0  0  0  0  0  0  0
   -2.6627   -7.4740   -1.7073 H   0  0  0  0  0  0  0  0  0  0  0  0
   -1.4342   -5.6599   -0.5572 H   0  0  0  0  0  0  0  0  0  0  0  0
   -2.9080   -6.0481    0.3225 H   0  0  0  0  0  0  0  0  0  0  0  0
   -4.9080   -2.0594    0.1644 H   0  0  0  0  0  0  0  0  0  0  0  0
   -6.3453   -0.0633    0.2669 H   0  0  0  0  0  0  0  0  0  0  0  0
   -4.7602    2.2091   -1.6689 H   0  0  0  0  0  0  0  0  0  0  0  0
   -4.9120    4.6069   -1.6563 H   0  0  0  0  0  0  0  0  0  0  0  0
   -7.4600    4.4479    1.8276 H   0  0  0  0  0  0  0  0  0  0  0  0
   -6.9226    2.0393    2.0412 H   0  0  0  0  0  0  0  0  0  0  0  0
   -7.2558    6.9917   -2.7514 H   0  0  0  0  0  0  0  0  0  0  0  0
   -5.6096    7.1128   -3.4336 H   0  0  0  0  0  0  0  0  0  0  0  0
   -6.1685    5.6072   -2.7709 H   0  0  0  0  0  0  0  0  0  0  0  0
   -6.7251    8.9916   -1.3801 H   0  0  0  0  0  0  0  0  0  0  0  0
   -5.2400    9.0231   -0.3845 H   0  0  0  0  0  0  0  0  0  0  0  0
   -5.1275    9.0199   -2.1446 H   0  0  0  0  0  0  0  0  0  0  0  0
   -1.4545    3.4796    0.3013 H   0  0  0  0  0  0  0  0  0  0  0  0
  1  2  1  0  0  0  0
  1 34  1  0  0  0  0
  1 35  1  0  0  0  0
  1 36  1  0  0  0  0
  2  3  1  0  0  0  0
  2  4  1  0  0  0  0
  2 37  1  0  0  0  0
  3 38  1  0  0  0  0
  3 39  1  0  0  0  0
  3 40  1  0  0  0  0
  4  5  2  0  0  0  0
  4 33  1  0  0  0  0
  5  6  1  0  0  0  0
  5 31  1  0  0  0  0
  6  7  2  0  0  0  0
  7  8  1  0  0  0  0
  7 16  1  0  0  0  0
  8 41  1  0  0  0  0
  9  8  1  0  0  0  0
  9 10  1  0  0  0  0
  9 15  1  0  0  0  0
  9 42  1  6  0  0  0
 10 11  1  0  0  0  0
 10 43  1  0  0  0  0
 10 44  1  0  0  0  0
 11 12  1  0  0  0  0
 11 45  1  0  0  0  0
 11 46  1  0  0  0  0
 12 13  1  0  0  0  0
 12 14  1  0  0  0  0
 12 47  1  6  0  0  0
 13 48  1  0  0  0  0
 13 49  1  0  0  0  0
 14 15  1  0  0  0  0
 14 50  1  0  0  0  0
 14 51  1  0  0  0  0
 15 52  1  0  0  0  0
 15 53  1  0  0  0  0
 16 17  2  0  0  0  0
 16 54  1  0  0  0  0
 17 18  1  0  0  0  0
 17 31  1  0  0  0  0
 18 19  1  0  0  0  0
 18 55  1  0  0  0  0
 19 20  2  0  0  0  0
 19 24  1  0  0  0  0
 20 21  1  0  0  0  0
 20 56  1  0  0  0  0
 21 22  2  0  0  0  0
 21 57  1  0  0  0  0
 22 23  1  0  0  0  0
 22 25  1  0  0  0  0
 23 24  2  0  0  0  0
 23 58  1  0  0  0  0
 24 59  1  0  0  0  0
 25 26  2  0  0  0  0
 25 27  2  0  0  0  0
 25 28  1  0  0  0  0
 28 29  1  0  0  0  0
 28 30  1  0  0  0  0
 29 60  1  0  0  0  0
 29 61  1  0  0  0  0
 29 62  1  0  0  0  0
 30 63  1  0  0  0  0
 30 64  1  0  0  0  0
 30 65  1  0  0  0  0
 31 32  1  0  0  0  0
 32 33  2  0  0  0  0
 33 66  1  0  0  0  0
M  END
>  <DRUGBANK_ID>
DB01888

>  <SECONDARY_ACCESSION_NUMBERS>
EXPT01046

>  <COMMON_NAME>
4-[5-(Trans-4-Aminocyclohexylamino)-3-Isopropylpyrazolo[1,5-a]Pyrimidin-7-Ylamino]-N,N-Dimethylbenzenesulfonamide

$$$$
