
 OpenBabel10282417123D

126132  0  0  1  0  0  0  0  0999 V2000
   -0.4635   -2.2613   -0.3854 C   0  0  0  0  0  0  0  0  0  0  0  0
   -1.3127   -7.5070   -8.2817 C   0  0  0  0  0  0  0  0  0  0  0  0
   -2.0898   -1.2356   -2.2978 C   0  0  0  0  0  0  0  0  0  0  0  0
   -8.8277    0.5488   -1.5403 C   0  0  0  0  0  0  0  0  0  0  0  0
    4.3518   -3.3837   -1.4960 C   0  0  0  0  0  0  0  0  0  0  0  0
    2.3100   -7.4690   -5.7065 C   0  0  0  0  0  0  0  0  0  0  0  0
   -2.0115   -1.7162   -4.7433 C   0  0  0  0  0  0  0  0  0  0  0  0
    4.4333   -4.6309   -2.2857 C   0  0  0  0  0  0  0  0  0  0  0  0
    1.3318   -6.3260   -5.4896 C   0  0  0  0  0  0  0  0  0  0  0  0
   -1.3756   -2.9548   -5.0667 C   0  0  0  0  0  0  0  0  0  0  0  0
   -6.8801   -1.3608   -4.0148 C   0  0  0  0  0  0  0  0  0  0  0  0
    4.6026   -2.1232   -2.2286 C   0  0  0  0  0  0  0  0  0  0  0  0
    1.5405   -8.7682   -5.8806 C   0  0  0  0  0  0  0  0  0  0  0  0
   -1.0559   -0.5595   -5.0439 C   0  0  0  0  0  0  0  0  0  0  0  0
   -7.9415   -2.0345   -4.6593 C   0  0  0  0  0  0  0  0  0  0  0  0
   -6.7616   -5.2394   -5.9804 C   0  0  0  0  0  0  0  0  0  0  0  0
    0.4104   -1.1502   -0.9443 C   0  0  0  0  0  0  0  0  0  0  0  0
   -0.3917   -7.6211   -7.0778 C   0  0  0  0  0  0  0  0  0  0  0  0
   -0.7376   -0.5764   -2.5157 C   0  0  0  0  0  0  0  0  0  0  0  0
    3.2041   -5.4884   -1.9775 C   0  0  2  0  0  0  0  0  0  0  0  0
    0.5052   -6.5962   -4.2430 C   0  0  2  0  0  0  0  0  0  0  0  0
   -2.1972   -4.1038   -4.8479 C   0  0  1  0  0  0  0  0  0  0  0  0
   -5.8883   -4.0173   -6.2134 C   0  0  1  0  0  0  0  0  0  0  0  0
   -7.2074   -0.6290   -2.8785 C   0  0  0  0  0  0  0  0  0  0  0  0
   -7.6776   -0.5657   -6.8305 C   0  0  2  0  0  0  0  0  0  0  0  0
   -8.8558   -0.5370   -7.7905 C   0  0  2  0  0  0  0  0  0  0  0  0
  -10.6079   -0.8608   -7.8369 C   0  0  1  0  0  0  0  0  0  0  0  0
  -10.7890   -0.5417   -6.3385 C   0  0  1  0  0  0  0  0  0  0  0  0
   -9.4797   -1.9208   -7.8685 C   0  0  2  0  0  0  0  0  0  0  0  0
    2.5474   -5.8350   -3.1995 C   0  0  0  0  0  0  0  0  0  0  0  0
   -0.4145   -5.5217   -4.0386 C   0  0  0  0  0  0  0  0  0  0  0  0
   -3.3754   -4.0751   -5.8079 C   0  0  0  0  0  0  0  0  0  0  0  0
   -6.7054   -2.7579   -5.9752 C   0  0  0  0  0  0  0  0  0  0  0  0
  -10.2690   -1.7644   -5.5622 C   0  0  2  0  0  0  0  0  0  0  0  0
   -6.8044    0.6565   -7.0635 C   0  0  0  0  0  0  0  0  0  0  0  0
   -6.6636    0.4208   -0.7742 C   0  0  0  0  0  0  0  0  0  0  0  0
   -9.4137   -0.5028   -3.7087 C   0  0  0  0  0  0  0  0  0  0  0  0
    1.8557    0.3046   -2.9055 Fe  0  7  0  0  0  0  0  0  0  0  0  0
    2.2796   -4.7305   -1.1221 N   0  0  0  0  0  0  0  0  0  0  0  0
   -8.0457    0.8887   -0.5965 N   0  0  0  0  0  0  0  0  0  0  0  0
    1.4317   -6.7109   -3.0311 N   0  0  0  0  0  0  0  0  0  0  0  0
   -1.3741   -5.3714   -5.0874 N   0  0  0  0  0  0  0  0  0  0  0  0
   -4.7489   -4.0450   -5.2850 N   0  0  0  0  0  0  0  0  0  0  0  0
   -6.2977   -0.3542   -1.9685 N   0  0  0  0  0  0  0  0  0  0  0  0
   -6.8874   -1.7836   -7.0608 N   0  0  0  0  0  0  0  0  0  0  0  0
   -8.4492   -0.2182   -2.7359 N   0  0  0  0  0  0  0  0  0  0  0  0
   -9.1772   -1.3897   -4.6520 N   0  0  0  0  0  0  0  0  0  0  0  0
    3.4873   -1.1308   -1.8955 N   0  0  0  0  0  0  0  0  0  0  0  0
    0.6498   -8.6579   -7.0449 N   0  0  0  0  0  0  0  0  0  0  0  0
   -0.2814   -0.2679   -3.8787 N   0  0  0  0  0  0  0  0  0  0  0  0
   -7.2400   -5.2313   -4.6434 O   0  0  0  0  0  0  0  0  0  0  0  0
   -8.4062   -0.1471   -9.0797 O   0  0  0  0  0  0  0  0  0  0  0  0
  -11.8059   -1.3253   -8.4414 O   0  0  0  0  0  0  0  0  0  0  0  0
  -10.0801    0.6341   -5.9762 O   0  0  0  0  0  0  0  0  0  0  0  0
    2.9229   -5.4025   -4.3340 O   0  0  0  0  0  0  0  0  0  0  0  0
   -0.3820   -4.7674   -3.0163 O   0  0  0  0  0  0  0  0  0  0  0  0
   -3.1729   -4.0770   -7.0625 O   0  0  0  0  0  0  0  0  0  0  0  0
   -7.2311   -2.5472   -4.8375 O   0  0  0  0  0  0  0  0  0  0  0  0
   -6.5330    1.6265   -6.0626 O   0  0  0  0  0  0  0  0  0  0  0  0
   -6.0944    0.6144   -8.1168 O   0  0  0  0  0  0  0  0  0  0  0  0
   -5.7849    0.6862    0.1049 O   0  0  0  0  0  0  0  0  0  0  0  0
  -10.5311    0.1021   -3.6813 O   0  0  0  0  0  0  0  0  0  0  0  0
    0.7174   -1.1427   -2.1775 O   0  3  0  0  0  0  0  0  0  0  0  0
    0.3784    1.5931   -2.6272 O   0  3  0  0  0  0  0  0  0  0  0  0
    2.9928    0.2451   -1.2857 O   0  3  0  0  0  0  0  0  0  0  0  0
    2.9217   -0.6251   -3.1063 O   0  0  0  0  0  0  0  0  0  0  0  0
    0.7904   -9.5213   -8.0992 O   0  0  0  0  0  0  0  0  0  0  0  0
    0.9766    0.3505   -4.1578 O   0  0  0  0  0  0  0  0  0  0  0  0
   -9.7897   -2.7841   -6.6166 S   0  0  0  0  0  0  0  0  0  0  0  0
    3.5086   -6.3800   -1.4704 H   0  0  0  0  0  0  0  0  0  0  0  0
   -0.0364   -7.5108   -4.3659 H   0  0  0  0  0  0  0  0  0  0  0  0
   -2.5582   -4.0977   -3.8406 H   0  0  0  0  0  0  0  0  0  0  0  0
   -5.5278   -4.0234   -7.2208 H   0  0  0  0  0  0  0  0  0  0  0  0
   -8.0381   -0.5596   -5.8231 H   0  0  0  0  0  0  0  0  0  0  0  0
   -9.5846    0.1636   -7.4399 H   0  0  0  0  0  0  0  0  0  0  0  0
  -10.3200    0.0156   -8.3790 H   0  0  0  0  0  0  0  0  0  0  0  0
  -11.8232   -0.3773   -6.1185 H   0  0  0  0  0  0  0  0  0  0  0  0
   -9.4513   -2.4847   -8.7774 H   0  0  0  0  0  0  0  0  0  0  0  0
  -11.0536   -2.1868   -4.9699 H   0  0  0  0  0  0  0  0  0  0  0  0
   -0.6151   -2.1031    0.6620 H   0  0  0  0  0  0  0  0  0  0  0  0
    0.0180   -3.2046   -0.5376 H   0  0  0  0  0  0  0  0  0  0  0  0
   -1.4086   -2.2582   -0.8870 H   0  0  0  0  0  0  0  0  0  0  0  0
   -0.7308   -7.3167   -9.1592 H   0  0  0  0  0  0  0  0  0  0  0  0
   -1.8544   -8.4215   -8.4043 H   0  0  0  0  0  0  0  0  0  0  0  0
   -2.0013   -6.7023   -8.1290 H   0  0  0  0  0  0  0  0  0  0  0  0
   -2.8607   -0.6072   -2.6924 H   0  0  0  0  0  0  0  0  0  0  0  0
   -2.1101   -2.1816   -2.7975 H   0  0  0  0  0  0  0  0  0  0  0  0
   -2.2504   -1.3821   -1.2502 H   0  0  0  0  0  0  0  0  0  0  0  0
   -9.1950    1.5098   -1.8346 H   0  0  0  0  0  0  0  0  0  0  0  0
   -9.5916    0.0232   -1.0064 H   0  0  0  0  0  0  0  0  0  0  0  0
   -7.9721    0.6718   -0.9097 H   0  0  0  0  0  0  0  0  0  0  0  0
    3.3360   -3.3227   -1.1653 H   0  0  0  0  0  0  0  0  0  0  0  0
    5.0716   -3.4504   -0.7071 H   0  0  0  0  0  0  0  0  0  0  0  0
    2.8919   -7.2788   -6.5840 H   0  0  0  0  0  0  0  0  0  0  0  0
    2.9583   -7.5493   -4.8590 H   0  0  0  0  0  0  0  0  0  0  0  0
   -2.8998   -1.6071   -5.3298 H   0  0  0  0  0  0  0  0  0  0  0  0
   -2.2672   -1.7070   -3.7043 H   0  0  0  0  0  0  0  0  0  0  0  0
    4.4639   -4.3997   -3.3300 H   0  0  0  0  0  0  0  0  0  0  0  0
    5.3213   -5.1666   -2.0220 H   0  0  0  0  0  0  0  0  0  0  0  0
    0.6835   -6.2456   -6.3370 H   0  0  0  0  0  0  0  0  0  0  0  0
    1.8735   -5.4114   -5.3670 H   0  0  0  0  0  0  0  0  0  0  0  0
   -0.5314   -3.0490   -4.4161 H   0  0  0  0  0  0  0  0  0  0  0  0
   -1.0983   -2.9312   -6.0999 H   0  0  0  0  0  0  0  0  0  0  0  0
   -5.8763   -1.4110   -4.3820 H   0  0  0  0  0  0  0  0  0  0  0  0
    5.5496   -1.7169   -1.9406 H   0  0  0  0  0  0  0  0  0  0  0  0
    4.6115   -2.3145   -3.2813 H   0  0  0  0  0  0  0  0  0  0  0  0
    2.2290   -9.5729   -6.0333 H   0  0  0  0  0  0  0  0  0  0  0  0
    0.9585   -8.9584   -5.0031 H   0  0  0  0  0  0  0  0  0  0  0  0
   -0.4040   -0.8341   -5.8467 H   0  0  0  0  0  0  0  0  0  0  0  0
   -1.6198    0.3059   -5.3234 H   0  0  0  0  0  0  0  0  0  0  0  0
   -7.8044   -2.9870   -5.1271 H   0  0  0  0  0  0  0  0  0  0  0  0
   -7.5909   -5.2192   -6.6561 H   0  0  0  0  0  0  0  0  0  0  0  0
   -6.1864   -6.1260   -6.1480 H   0  0  0  0  0  0  0  0  0  0  0  0
    2.7303   -4.0286   -0.5350 H   0  0  0  0  0  0  0  0  0  0  0  0
    1.7857   -5.4005   -0.5326 H   0  0  0  0  0  0  0  0  0  0  0  0
   -8.2996    1.4264    0.2322 H   0  0  0  0  0  0  0  0  0  0  0  0
   -8.7509    0.6757   -1.3020 H   0  0  0  0  0  0  0  0  0  0  0  0
    1.2767   -7.3190   -2.2270 H   0  0  0  0  0  0  0  0  0  0  0  0
   -1.4920   -6.0103   -5.8737 H   0  0  0  0  0  0  0  0  0  0  0  0
   -4.9114   -4.0435   -4.2780 H   0  0  0  0  0  0  0  0  0  0  0  0
   -6.4655   -1.9527   -7.9739 H   0  0  0  0  0  0  0  0  0  0  0  0
   -6.4649   -5.2502   -4.0119 H   0  0  0  0  0  0  0  0  0  0  0  0
   -9.0096    0.3588   -9.6962 H   0  0  0  0  0  0  0  0  0  0  0  0
  -12.1201   -2.1488   -7.9691 H   0  0  0  0  0  0  0  0  0  0  0  0
   -9.1071    0.5101   -6.1710 H   0  0  0  0  0  0  0  0  0  0  0  0
   -7.0916    1.6596   -5.2338 H   0  0  0  0  0  0  0  0  0  0  0  0
  1 80  1  0  0  0  0
  1 81  1  0  0  0  0
  1 82  1  0  0  0  0
  2 83  1  0  0  0  0
  2 84  1  0  0  0  0
  2 85  1  0  0  0  0
  3 86  1  0  0  0  0
  3 87  1  0  0  0  0
  3 88  1  0  0  0  0
  4 89  1  0  0  0  0
  4 90  1  0  0  0  0
  4 91  1  0  0  0  0
  5 92  1  0  0  0  0
  5 93  1  0  0  0  0
  6 94  1  0  0  0  0
  6 95  1  0  0  0  0
  7 96  1  0  0  0  0
  7 97  1  0  0  0  0
  8  5  1  0  0  0  0
  8 98  1  0  0  0  0
  8 99  1  0  0  0  0
  9  6  1  0  0  0  0
  9100  1  0  0  0  0
  9101  1  0  0  0  0
 10  7  1  0  0  0  0
 10102  1  0  0  0  0
 10103  1  0  0  0  0
 11104  1  0  0  0  0
 12  5  1  0  0  0  0
 12105  1  0  0  0  0
 12106  1  0  0  0  0
 13  6  1  0  0  0  0
 13107  1  0  0  0  0
 13108  1  0  0  0  0
 14  7  1  0  0  0  0
 14109  1  0  0  0  0
 14110  1  0  0  0  0
 15 11  2  0  0  0  0
 15111  1  0  0  0  0
 16112  1  0  0  0  0
 16113  1  0  0  0  0
 17  1  1  0  0  0  0
 18  2  1  0  0  0  0
 19  3  1  0  0  0  0
 20  8  1  0  0  0  0
 20 70  1  1  0  0  0
 20 39  1  0  0  0  0
 21  9  1  0  0  0  0
 21 71  1  6  0  0  0
 22 10  1  0  0  0  0
 22 32  1  0  0  0  0
 22 72  1  1  0  0  0
 23 16  1  0  0  0  0
 23 43  1  0  0  0  0
 23 73  1  6  0  0  0
 24 11  1  0  0  0  0
 25 45  1  0  0  0  0
 25 74  1  1  0  0  0
 25 35  1  0  0  0  0
 25 26  1  0  0  0  0
 26 75  1  1  0  0  0
 26 52  1  0  0  0  0
 26 29  1  0  0  0  0
 27 53  1  0  0  0  0
 27 76  1  6  0  0  0
 28 27  1  0  0  0  0
 28 54  1  0  0  0  0
 28 77  1  1  0  0  0
 29 27  1  0  0  0  0
 29 78  1  6  0  0  0
 30 20  1  0  0  0  0
 31 21  1  0  0  0  0
 33 23  1  0  0  0  0
 34 28  1  0  0  0  0
 34 47  1  0  0  0  0
 34 79  1  1  0  0  0
 39114  1  0  0  0  0
 39115  1  0  0  0  0
 40 36  1  0  0  0  0
 40116  1  0  0  0  0
 40117  1  0  0  0  0
 41 21  1  0  0  0  0
 41 30  1  0  0  0  0
 41118  1  0  0  0  0
 42 22  1  0  0  0  0
 42 31  1  0  0  0  0
 42119  1  0  0  0  0
 43 32  1  0  0  0  0
 43120  1  0  0  0  0
 44 24  2  0  0  0  0
 44 36  1  0  0  0  0
 45 33  1  0  0  0  0
 45121  1  0  0  0  0
 46  4  1  0  0  0  0
 46 24  1  0  0  0  0
 46 37  1  0  0  0  0
 47 15  1  0  0  0  0
 47 37  1  0  0  0  0
 48 12  1  0  0  0  0
 48 17  1  0  0  0  0
 49 13  1  0  0  0  0
 49 18  1  0  0  0  0
 50 14  1  0  0  0  0
 50 19  1  0  0  0  0
 51 16  1  0  0  0  0
 51122  1  0  0  0  0
 52123  1  0  0  0  0
 53124  1  0  0  0  0
 54125  1  0  0  0  0
 55 30  2  0  0  0  0
 56 31  2  0  0  0  0
 57 32  2  0  0  0  0
 58 33  2  0  0  0  0
 59 35  1  0  0  0  0
 59126  1  0  0  0  0
 60 35  2  0  0  0  0
 61 36  2  0  0  0  0
 62 37  2  0  0  0  0
 63 17  2  0  0  0  0
 63 38  1  0  0  0  0
 64 18  2  0  0  0  0
 64 38  1  0  0  0  0
 65 19  2  0  0  0  0
 65 38  1  0  0  0  0
 66 38  1  0  0  0  0
 66 48  1  0  0  0  0
 67 38  1  0  0  0  0
 67 49  1  0  0  0  0
 68 38  1  0  0  0  0
 68 50  1  0  0  0  0
 69 29  1  0  0  0  0
 69 34  1  0  0  0  0
M  CHG  4  38  -3  63   1  64   1  65   1
M  END
>  <DRUGBANK_ID>
DB02724

>  <SECONDARY_ACCESSION_NUMBERS>
EXPT00495

>  <COMMON_NAME>
Delta-2-Albomycin A1

$$$$
