
 OpenBabel10282417143D

 54 55  0  0  0  0  0  0  0  0999 V2000
    1.0608   -0.1035   -0.0438 C   0  0  0  0  0  0  0  0  0  0  0  0
   -2.8297    2.8495    4.4847 C   0  0  0  0  0  0  0  0  0  0  0  0
   -2.8584    9.4952    1.1988 C   0  0  0  0  0  0  0  0  0  0  0  0
   -5.0745    6.4773    0.7293 C   0  0  0  0  0  0  0  0  0  0  0  0
    0.6930    6.5256    3.4106 C   0  0  0  0  0  0  0  0  0  0  0  0
    1.4852    5.6191    2.8172 C   0  0  0  0  0  0  0  0  0  0  0  0
    2.2488    3.6214    1.6183 C   0  0  0  0  0  0  0  0  0  0  0  0
    2.1237    2.5095    0.7756 C   0  0  0  0  0  0  0  0  0  0  0  0
   -1.5053    5.4994    4.0305 C   0  0  0  0  0  0  0  0  0  0  0  0
   -1.3821    7.4641    2.5412 C   0  0  0  0  0  0  0  0  0  0  0  0
   -0.7703    6.5382    3.4047 C   0  0  0  0  0  0  0  0  0  0  0  0
    1.1276    4.4599    1.9754 C   0  0  0  0  0  0  0  0  0  0  0  0
    0.8765    2.2220    0.2651 C   0  0  0  0  0  0  0  0  0  0  0  0
   -2.8621    5.3192    3.7013 C   0  0  0  0  0  0  0  0  0  0  0  0
   -2.7281    7.3536    2.2079 C   0  0  0  0  0  0  0  0  0  0  0  0
   -0.1418    4.1349    1.4503 C   0  0  0  0  0  0  0  0  0  0  0  0
   -3.4849    6.2792    2.7096 C   0  0  0  0  0  0  0  0  0  0  0  0
   -0.1817    3.0918    0.5673 C   0  0  0  0  0  0  0  0  0  0  0  0
   -2.9213    4.5781   -0.1517 O   0  0  0  0  0  0  0  0  0  0  0  0
   -2.4753    2.4128    1.7101 O   0  0  0  0  0  0  0  0  0  0  0  0
   -4.4174    3.7764    1.7692 O   0  0  0  0  0  0  0  0  0  0  0  0
   -3.3094    2.4966   -1.2293 O   0  0  0  0  0  0  0  0  0  0  0  0
   -1.1078    2.9913   -2.1323 O   0  0  0  0  0  0  0  0  0  0  0  0
   -2.0845    0.8542   -2.2052 O   0  0  0  0  0  0  0  0  0  0  0  0
    0.6694    1.1675   -0.5758 O   0  0  0  0  0  0  0  0  0  0  0  0
   -3.4529    4.0780    3.9921 O   0  0  0  0  0  0  0  0  0  0  0  0
   -3.2942    8.1549    1.2577 O   0  0  0  0  0  0  0  0  0  0  0  0
   -4.7118    6.0109    2.0790 O   0  0  0  0  0  0  0  0  0  0  0  0
   -1.4721    4.6133    1.7852 O   0  0  0  0  0  0  0  0  0  0  0  0
   -1.4691    3.0611    0.1397 O   0  0  0  0  0  0  0  0  0  0  0  0
   -2.9936    3.9222    1.3188 P   0  0  0  0  0  0  0  0  0  0  0  0
   -1.7938    1.8965   -1.0977 P   0  0  0  0  0  0  0  0  0  0  0  0
    1.1472    7.3802    3.9023 H   0  0  0  0  0  0  0  0  0  0  0  0
    2.5620    5.7821    2.9370 H   0  0  0  0  0  0  0  0  0  0  0  0
    0.6583   -0.8802   -0.7040 H   0  0  0  0  0  0  0  0  0  0  0  0
    0.6402   -0.2663    0.9552 H   0  0  0  0  0  0  0  0  0  0  0  0
    2.1491   -0.2084   -0.0301 H   0  0  0  0  0  0  0  0  0  0  0  0
   -2.0319    2.3599    3.9074 H   0  0  0  0  0  0  0  0  0  0  0  0
   -2.4058    2.9712    5.4765 H   0  0  0  0  0  0  0  0  0  0  0  0
   -3.6050    2.0638    4.4984 H   0  0  0  0  0  0  0  0  0  0  0  0
   -2.6309    9.8811    2.1944 H   0  0  0  0  0  0  0  0  0  0  0  0
   -1.9999    9.5653    0.5270 H   0  0  0  0  0  0  0  0  0  0  0  0
   -3.6758   10.0878    0.7779 H   0  0  0  0  0  0  0  0  0  0  0  0
   -5.5837    7.4364    0.8375 H   0  0  0  0  0  0  0  0  0  0  0  0
   -4.2641    6.5776   -0.0157 H   0  0  0  0  0  0  0  0  0  0  0  0
   -5.7912    5.7946    0.2429 H   0  0  0  0  0  0  0  0  0  0  0  0
    3.2547    3.8131    2.0065 H   0  0  0  0  0  0  0  0  0  0  0  0
    2.9938    1.9112    0.5052 H   0  0  0  0  0  0  0  0  0  0  0  0
   -0.9377    4.6768    4.4695 H   0  0  0  0  0  0  0  0  0  0  0  0
   -0.7638    8.1884    2.0162 H   0  0  0  0  0  0  0  0  0  0  0  0
   -2.4559    5.4370   -0.1434 H   0  0  0  0  0  0  0  0  0  0  0  0
   -1.7250    2.6723    2.2857 H   0  0  0  0  0  0  0  0  0  0  0  0
   -3.9717    2.0558   -0.6774 H   0  0  0  0  0  0  0  0  0  0  0  0
   -0.1816    3.1630   -1.9047 H   0  0  0  0  0  0  0  0  0  0  0  0
  1 35  1  0  0  0  0
  1 36  1  0  0  0  0
  1 37  1  0  0  0  0
  2 38  1  0  0  0  0
  2 39  1  0  0  0  0
  2 40  1  0  0  0  0
  3 41  1  0  0  0  0
  3 42  1  0  0  0  0
  3 43  1  0  0  0  0
  4 44  1  0  0  0  0
  4 45  1  0  0  0  0
  4 46  1  0  0  0  0
  6  5  2  0  0  0  0
  7 47  1  0  0  0  0
  8  7  2  0  0  0  0
  8 48  1  0  0  0  0
  9 49  1  0  0  0  0
 10 50  1  0  0  0  0
 11  5  1  0  0  0  0
 11  9  2  0  0  0  0
 11 10  1  0  0  0  0
 12  6  1  0  0  0  0
 12  7  1  0  0  0  0
 13  8  1  0  0  0  0
 14  9  1  0  0  0  0
 15 10  2  0  0  0  0
 16 12  2  0  0  0  0
 17 14  2  0  0  0  0
 17 15  1  0  0  0  0
 18 13  2  0  0  0  0
 18 16  1  0  0  0  0
 19 51  1  0  0  0  0
 20 52  1  0  0  0  0
 22 53  1  0  0  0  0
 23 54  1  0  0  0  0
 25  1  1  0  0  0  0
 25 13  1  0  0  0  0
 26  2  1  0  0  0  0
 26 14  1  0  0  0  0
 27  3  1  0  0  0  0
 27 15  1  0  0  0  0
 28  4  1  0  0  0  0
 28 17  1  0  0  0  0
 29 16  1  0  0  0  0
 30 18  1  0  0  0  0
 31 19  1  0  0  0  0
 31 20  1  0  0  0  0
 31 21  2  0  0  0  0
 31 29  1  0  0  0  0
 32 22  1  0  0  0  0
 32 23  1  0  0  0  0
 32 24  2  0  0  0  0
 32 30  1  0  0  0  0
 33  5  1  0  0  0  0
 34  6  1  0  0  0  0
M  END
>  <DRUGBANK_ID>
DB05143

>  <COMMON_NAME>
OXI-4503

>  <CAS_NUMBER>
288847-35-8

>  <UNII>
JH6Z94GLUD

>  <SYNONYMS>
CA1P; Combretastatin A-1 bis(phosphate); Combretastatin A1 diphosphate; OXI4503

$$$$
