
 OpenBabel10282417213D

 21 22  0  0  0  0  0  0  0  0999 V2000
   -0.2559   -0.6583    0.0001 C   0  0  0  0  0  0  0  0  0  0  0  0
   -0.2431    0.7028   -0.0010 C   0  0  0  0  0  0  0  0  0  0  0  0
    0.9189   -1.3788   -0.0001 N   0  0  0  0  0  0  0  0  0  0  0  0
    2.0997    0.7089    0.0038 N   0  0  0  0  0  0  0  0  0  0  0  0
    2.1422   -0.6976   -0.0009 C   0  0  0  0  0  0  0  0  0  0  0  0
    0.9381    1.4822   -0.0010 C   0  0  0  0  0  0  0  0  0  0  0  0
   -1.5317   -1.1446    0.0013 N   0  0  0  0  0  0  0  0  0  0  0  0
   -1.5514    1.0836   -0.0007 N   0  0  0  0  0  0  0  0  0  0  0  0
   -2.2951   -0.0669    0.0008 C   0  0  0  0  0  0  0  0  0  0  0  0
    3.2173   -1.3037   -0.0053 O   0  0  0  0  0  0  0  0  0  0  0  0
    0.9159    2.7106   -0.0045 O   0  0  0  0  0  0  0  0  0  0  0  0
    0.9170   -2.8309    0.0015 C   0  0  0  0  0  0  0  0  0  0  0  0
   -4.1635   -0.0849    0.0022 Br  0  0  0  0  0  0  0  0  0  0  0  0
    3.3581    1.4312    0.0122 C   0  0  0  0  0  0  0  0  0  0  0  0
   -1.9089    2.0298   -0.0007 H   0  0  0  0  0  0  0  0  0  0  0  0
    0.4088   -3.1933    0.8996 H   0  0  0  0  0  0  0  0  0  0  0  0
    0.4073   -3.1957   -0.8948 H   0  0  0  0  0  0  0  0  0  0  0  0
    1.9342   -3.2351    0.0015 H   0  0  0  0  0  0  0  0  0  0  0  0
    3.4072    2.0729   -0.8733 H   0  0  0  0  0  0  0  0  0  0  0  0
    3.3970    2.0674    0.9024 H   0  0  0  0  0  0  0  0  0  0  0  0
    4.2282    0.7699    0.0158 H   0  0  0  0  0  0  0  0  0  0  0  0
  2  1  2  0  0  0  0
  3  1  1  0  0  0  0
  4  5  1  0  0  0  0
  5  3  1  0  0  0  0
  6  2  1  0  0  0  0
  6  4  1  0  0  0  0
  7  1  1  0  0  0  0
  8  2  1  0  0  0  0
  8  9  1  0  0  0  0
  8 15  1  0  0  0  0
  9  7  2  0  0  0  0
 10  5  2  0  0  0  0
 11  6  2  0  0  0  0
 12  3  1  0  0  0  0
 12 16  1  0  0  0  0
 12 17  1  0  0  0  0
 12 18  1  0  0  0  0
 13  9  1  0  0  0  0
 14  4  1  0  0  0  0
 14 19  1  0  0  0  0
 14 20  1  0  0  0  0
 14 21  1  0  0  0  0
M  END
>  <DRUGBANK_ID>
DB14018

>  <COMMON_NAME>
Bromotheophylline

>  <CAS_NUMBER>
10381-75-6

>  <UNII>
FZG87K1MQ6

>  <SYNONYMS>
8-Bromotheophylline

$$$$
