
 OpenBabel10282417223D

 46 51  0  0  0  0  0  0  0  0999 V2000
   -1.5168   -1.1106    0.0058 N   0  0  0  0  0  0  0  0  0  0  0  0
   -0.2071   -0.7093    0.0003 C   0  0  0  0  0  0  0  0  0  0  0  0
    0.9964   -1.4175    0.0040 C   0  0  0  0  0  0  0  0  0  0  0  0
    2.1903   -0.6695   -0.0023 C   0  0  0  0  0  0  0  0  0  0  0  0
    2.1310    0.7361   -0.0111 C   0  0  0  0  0  0  0  0  0  0  0  0
    0.9088    1.4225   -0.0117 C   0  0  0  0  0  0  0  0  0  0  0  0
   -0.2763    0.6774   -0.0121 C   0  0  0  0  0  0  0  0  0  0  0  0
   -1.5805    1.1015   -0.0309 N   0  0  0  0  0  0  0  0  0  0  0  0
   -2.3165    0.0073    0.0036 C   0  0  0  0  0  0  0  0  0  0  0  0
   -3.7702   -0.0509    0.0091 C   0  0  0  0  0  0  0  0  0  0  0  0
   -4.4591   -0.6824    1.0453 C   0  0  0  0  0  0  0  0  0  0  0  0
   -5.8432   -0.6747    1.0106 C   0  0  0  0  0  0  0  0  0  0  0  0
   -6.5659   -0.1119    0.0195 N   0  0  0  0  0  0  0  0  0  0  0  0
   -5.8754    0.4953   -0.9696 C   0  0  0  0  0  0  0  0  0  0  0  0
   -4.4940    0.5579   -1.0153 C   0  0  0  0  0  0  0  0  0  0  0  0
    3.4910   -1.3542    0.0060 C   0  0  0  0  0  0  0  0  0  0  0  0
    3.8294   -2.2445   -1.0319 C   0  0  0  0  0  0  0  0  0  0  0  0
    5.0778   -2.8664   -0.9650 C   0  0  0  0  0  0  0  0  0  0  0  0
    5.9856   -2.6480    0.0629 C   0  0  0  0  0  0  0  0  0  0  0  0
    5.6559   -1.7548    1.0890 C   0  0  0  0  0  0  0  0  0  0  0  0
    4.4056   -1.1221    1.0496 C   0  0  0  0  0  0  0  0  0  0  0  0
    7.1192   -3.3991   -0.1181 N   0  0  0  0  0  0  0  0  0  0  0  0
    6.9459   -4.0454   -1.2552 C   0  0  0  0  0  0  0  0  0  0  0  0
    5.7092   -3.7637   -1.7843 N   0  0  0  0  0  0  0  0  0  0  0  0
    7.9066   -4.9300   -1.8967 C   0  0  0  0  0  0  0  0  0  0  0  0
    8.3513   -4.6692   -3.1936 C   0  0  0  0  0  0  0  0  0  0  0  0
    9.3081   -5.5066   -3.7396 C   0  0  0  0  0  0  0  0  0  0  0  0
    9.8187   -6.5790   -3.0997 N   0  0  0  0  0  0  0  0  0  0  0  0
    9.3707   -6.8118   -1.8467 C   0  0  0  0  0  0  0  0  0  0  0  0
    8.4308   -6.0224   -1.2067 C   0  0  0  0  0  0  0  0  0  0  0  0
   -1.8464   -2.0650   -0.0131 H   0  0  0  0  0  0  0  0  0  0  0  0
    1.0126   -2.5029    0.0244 H   0  0  0  0  0  0  0  0  0  0  0  0
    3.0523    1.3170   -0.0281 H   0  0  0  0  0  0  0  0  0  0  0  0
    0.8753    2.5061   -0.0155 H   0  0  0  0  0  0  0  0  0  0  0  0
   -3.9395   -1.1390    1.8803 H   0  0  0  0  0  0  0  0  0  0  0  0
   -6.4261   -1.1279    1.8076 H   0  0  0  0  0  0  0  0  0  0  0  0
   -6.4820    0.9478   -1.7488 H   0  0  0  0  0  0  0  0  0  0  0  0
   -3.9920    1.0707   -1.8295 H   0  0  0  0  0  0  0  0  0  0  0  0
    3.1491   -2.4312   -1.8573 H   0  0  0  0  0  0  0  0  0  0  0  0
    6.3546   -1.5644    1.8958 H   0  0  0  0  0  0  0  0  0  0  0  0
    4.1420   -0.4435    1.8598 H   0  0  0  0  0  0  0  0  0  0  0  0
    5.3311   -4.1636   -2.6315 H   0  0  0  0  0  0  0  0  0  0  0  0
    7.9956   -3.8125   -3.7550 H   0  0  0  0  0  0  0  0  0  0  0  0
    9.7093   -5.3244   -4.7325 H   0  0  0  0  0  0  0  0  0  0  0  0
    9.8069   -7.6757   -1.3530 H   0  0  0  0  0  0  0  0  0  0  0  0
    8.1190   -6.2509   -0.1926 H   0  0  0  0  0  0  0  0  0  0  0  0
  1  2  1  0  0  0  0
  1  9  1  0  0  0  0
  1 31  1  0  0  0  0
  2  3  2  0  0  0  0
  2  7  1  0  0  0  0
  3  4  1  0  0  0  0
  3 32  1  0  0  0  0
  4  5  2  0  0  0  0
  4 16  1  0  0  0  0
  5  6  1  0  0  0  0
  5 33  1  0  0  0  0
  6  7  2  0  0  0  0
  6 34  1  0  0  0  0
  7  8  1  0  0  0  0
  8  9  2  0  0  0  0
  9 10  1  0  0  0  0
 10 11  2  0  0  0  0
 10 15  1  0  0  0  0
 11 12  1  0  0  0  0
 11 35  1  0  0  0  0
 12 13  2  0  0  0  0
 12 36  1  0  0  0  0
 13 14  1  0  0  0  0
 14 15  2  0  0  0  0
 14 37  1  0  0  0  0
 15 38  1  0  0  0  0
 16 17  2  0  0  0  0
 16 21  1  0  0  0  0
 17 18  1  0  0  0  0
 17 39  1  0  0  0  0
 18 19  2  0  0  0  0
 18 24  1  0  0  0  0
 19 20  1  0  0  0  0
 19 22  1  0  0  0  0
 20 21  2  0  0  0  0
 20 40  1  0  0  0  0
 21 41  1  0  0  0  0
 22 23  2  0  0  0  0
 23 24  1  0  0  0  0
 23 25  1  0  0  0  0
 24 42  1  0  0  0  0
 25 26  2  0  0  0  0
 25 30  1  0  0  0  0
 26 27  1  0  0  0  0
 26 43  1  0  0  0  0
 27 28  2  0  0  0  0
 27 44  1  0  0  0  0
 28 29  1  0  0  0  0
 29 30  2  0  0  0  0
 29 45  1  0  0  0  0
 30 46  1  0  0  0  0
M  END
>  <DRUGBANK_ID>
DB15308

>  <COMMON_NAME>
Ridinilazole

>  <CAS_NUMBER>
308362-25-6

>  <UNII>
06DX01190R

>  <SYNONYMS>
Ridinilazole

$$$$
