1245
 OpenBabel10282417113D

 56 55  0  0  0  0  0  0  0  0999 V2000
    1.1621    0.1805    0.0249 N   0  3  0  0  0  0  0  0  0  0  0  0
   -3.5188   -6.8454    5.3696 N   0  3  0  0  0  0  0  0  0  0  0  0
    0.7045   -1.2006   -0.4834 C   0  0  0  0  0  0  0  0  0  0  0  0
   -3.0612   -6.9667    3.9029 C   0  0  0  0  0  0  0  0  0  0  0  0
    1.2089   -2.3717    0.3682 C   0  0  0  0  0  0  0  0  0  0  0  0
   -3.5656   -5.8334    3.0015 C   0  0  0  0  0  0  0  0  0  0  0  0
    0.6459   -2.3851    1.7818 C   0  0  0  0  0  0  0  0  0  0  0  0
   -3.0026   -4.4675    3.3658 C   0  0  0  0  0  0  0  0  0  0  0  0
   -0.8806   -2.3092    1.7334 C   0  0  0  0  0  0  0  0  0  0  0  0
   -1.4761   -4.5344    3.4261 C   0  0  0  0  0  0  0  0  0  0  0  0
   -1.3959   -3.6102    1.1213 C   0  0  0  0  0  0  0  0  0  0  0  0
   -0.9608   -4.7771    2.0089 C   0  0  0  0  0  0  0  0  0  0  0  0
    0.6388    0.6240    1.3910 C   0  0  0  0  0  0  0  0  0  0  0  0
    0.6185    1.2252   -0.9512 C   0  0  0  0  0  0  0  0  0  0  0  0
    2.6811    0.2096    0.0245 C   0  0  0  0  0  0  0  0  0  0  0  0
   -5.0378   -6.8535    5.3975 C   0  0  0  0  0  0  0  0  0  0  0  0
   -2.9752   -8.0649    6.1158 C   0  0  0  0  0  0  0  0  0  0  0  0
   -2.9955   -5.6472    6.1616 C   0  0  0  0  0  0  0  0  0  0  0  0
   -0.3841   -1.1803   -0.5874 H   0  0  0  0  0  0  0  0  0  0  0  0
    1.0961   -1.3167   -1.5027 H   0  0  0  0  0  0  0  0  0  0  0  0
   -3.4528   -7.9180    3.5189 H   0  0  0  0  0  0  0  0  0  0  0  0
   -1.9725   -7.0723    3.8947 H   0  0  0  0  0  0  0  0  0  0  0  0
    0.9234   -3.3038   -0.1398 H   0  0  0  0  0  0  0  0  0  0  0  0
    2.2966   -2.4322    0.3981 H   0  0  0  0  0  0  0  0  0  0  0  0
   -4.6533   -5.7884    2.9512 H   0  0  0  0  0  0  0  0  0  0  0  0
   -3.2801   -6.0742    1.9676 H   0  0  0  0  0  0  0  0  0  0  0  0
    1.0114   -3.2752    2.2986 H   0  0  0  0  0  0  0  0  0  0  0  0
    1.0635   -1.6246    2.4297 H   0  0  0  0  0  0  0  0  0  0  0  0
   -3.4202   -4.0460    4.2717 H   0  0  0  0  0  0  0  0  0  0  0  0
   -3.3681   -3.7319    2.6460 H   0  0  0  0  0  0  0  0  0  0  0  0
   -1.2804   -2.1011    2.7307 H   0  0  0  0  0  0  0  0  0  0  0  0
   -1.2736   -1.4723    1.1553 H   0  0  0  0  0  0  0  0  0  0  0  0
   -1.0831   -5.3149    4.0784 H   0  0  0  0  0  0  0  0  0  0  0  0
   -1.0763   -3.6288    3.8929 H   0  0  0  0  0  0  0  0  0  0  0  0
   -2.4792   -3.5539    0.9900 H   0  0  0  0  0  0  0  0  0  0  0  0
   -1.0383   -3.7610    0.1016 H   0  0  0  0  0  0  0  0  0  0  0  0
   -1.3184   -5.7196    1.5914 H   0  0  0  0  0  0  0  0  0  0  0  0
    0.1225   -4.9186    2.0282 H   0  0  0  0  0  0  0  0  0  0  0  0
    0.8419    1.6907    1.5176 H   0  0  0  0  0  0  0  0  0  0  0  0
   -0.4289    0.4407    1.4537 H   0  0  0  0  0  0  0  0  0  0  0  0
    1.2065    0.1335    2.1849 H   0  0  0  0  0  0  0  0  0  0  0  0
    0.9646    2.2079   -0.6181 H   0  0  0  0  0  0  0  0  0  0  0  0
    0.9942    0.9999   -1.9522 H   0  0  0  0  0  0  0  0  0  0  0  0
   -0.4736    1.1783   -0.9213 H   0  0  0  0  0  0  0  0  0  0  0  0
    3.0465   -0.5435    0.7305 H   0  0  0  0  0  0  0  0  0  0  0  0
    3.0266   -0.0166   -0.9851 H   0  0  0  0  0  0  0  0  0  0  0  0
    3.0092    1.1965    0.3550 H   0  0  0  0  0  0  0  0  0  0  0  0
   -5.3833   -7.7662    4.9100 H   0  0  0  0  0  0  0  0  0  0  0  0
   -5.3659   -6.7984    6.4368 H   0  0  0  0  0  0  0  0  0  0  0  0
   -5.4032   -5.9722    4.8601 H   0  0  0  0  0  0  0  0  0  0  0  0
   -1.8831   -8.0236    6.0786 H   0  0  0  0  0  0  0  0  0  0  0  0
   -3.3212   -8.0062    7.1517 H   0  0  0  0  0  0  0  0  0  0  0  0
   -3.3509   -8.9695    5.6315 H   0  0  0  0  0  0  0  0  0  0  0  0
   -1.9278   -5.5378    6.0016 H   0  0  0  0  0  0  0  0  0  0  0  0
   -3.5632   -4.7512    5.9007 H   0  0  0  0  0  0  0  0  0  0  0  0
   -3.1986   -5.8099    7.2233 H   0  0  0  0  0  0  0  0  0  0  0  0
  1  3  1  0  0  0  0
  1 13  1  0  0  0  0
  1 14  1  0  0  0  0
  1 15  1  0  0  0  0
  2  4  1  0  0  0  0
  2 16  1  0  0  0  0
  2 17  1  0  0  0  0
  2 18  1  0  0  0  0
  3  5  1  0  0  0  0
  3 19  1  0  0  0  0
  3 20  1  0  0  0  0
  4  6  1  0  0  0  0
  4 21  1  0  0  0  0
  4 22  1  0  0  0  0
  5  7  1  0  0  0  0
  5 23  1  0  0  0  0
  5 24  1  0  0  0  0
  6  8  1  0  0  0  0
  6 25  1  0  0  0  0
  6 26  1  0  0  0  0
  7  9  1  0  0  0  0
  7 27  1  0  0  0  0
  7 28  1  0  0  0  0
  8 10  1  0  0  0  0
  8 29  1  0  0  0  0
  8 30  1  0  0  0  0
  9 11  1  0  0  0  0
  9 31  1  0  0  0  0
  9 32  1  0  0  0  0
 10 12  1  0  0  0  0
 10 33  1  0  0  0  0
 10 34  1  0  0  0  0
 11 12  1  0  0  0  0
 11 35  1  0  0  0  0
 11 36  1  0  0  0  0
 12 37  1  0  0  0  0
 12 38  1  0  0  0  0
 13 39  1  0  0  0  0
 13 40  1  0  0  0  0
 13 41  1  0  0  0  0
 14 42  1  0  0  0  0
 14 43  1  0  0  0  0
 14 44  1  0  0  0  0
 15 45  1  0  0  0  0
 15 46  1  0  0  0  0
 15 47  1  0  0  0  0
 16 48  1  0  0  0  0
 16 49  1  0  0  0  0
 16 50  1  0  0  0  0
 17 51  1  0  0  0  0
 17 52  1  0  0  0  0
 17 53  1  0  0  0  0
 18 54  1  0  0  0  0
 18 55  1  0  0  0  0
 18 56  1  0  0  0  0
M  CHG  2   1   1   2   1
M  END
>  <DRUGBANK_ID>
DB01245

>  <SECONDARY_ACCESSION_NUMBERS>
APRD00696

>  <COMMON_NAME>
Decamethonium

>  <CAS_NUMBER>
156-74-1

>  <UNII>
C1CG1S3T2W

>  <SYNONYMS>
Decamethonium; Decamethonium cation; Decamethonium ion; Decamethonum; Decamethylenebis(trimethylammonium); N,N,N,N',N',N'-hexamethyl-1,10-decanediaminium

$$$$
