1154
 OpenBabel10282417113D

 35 35  0  0  1  0  0  0  0  0999 V2000
    1.1094    0.1787   -0.3869 S   0  0  0  0  0  0  0  0  0  0  0  0
    4.4994    2.2570    1.8482 O   0  0  0  0  0  0  0  0  0  0  0  0
    4.2532   -2.2426    1.7130 O   0  0  0  0  0  0  0  0  0  0  0  0
    3.4818    1.2521    0.0948 N   0  0  0  0  0  0  0  0  0  0  0  0
    3.4093   -1.0563   -0.0057 N   0  0  0  0  0  0  0  0  0  0  0  0
    5.1752   -0.0221    1.2752 C   0  0  0  0  0  0  0  0  0  0  0  0
    6.1691   -0.0258    0.0466 C   0  0  3  0  0  0  0  0  0  0  0  0
    7.1737    1.1588    0.0424 C   0  0  0  0  0  0  0  0  0  0  0  0
    5.8824   -0.1418    2.6284 C   0  0  0  0  0  0  0  0  0  0  0  0
    6.8040   -1.4049   -0.1998 C   0  0  0  0  0  0  0  0  0  0  0  0
    4.3727    1.2697    1.1427 C   0  0  0  0  0  0  0  0  0  0  0  0
    4.2498   -1.2162    1.0677 C   0  0  0  0  0  0  0  0  0  0  0  0
    8.2237    1.2591    1.1532 C   0  0  0  0  0  0  0  0  0  0  0  0
    5.0420   -0.1799    3.8573 C   0  0  0  0  0  0  0  0  0  0  0  0
    2.7409    0.1235   -0.0891 C   0  0  0  0  0  0  0  0  0  0  0  0
    9.0562    0.0086    1.3575 C   0  0  0  0  0  0  0  0  0  0  0  0
    5.1431   -1.1834    4.7313 C   0  0  0  0  0  0  0  0  0  0  0  0
    3.0350    2.1378   -0.0994 H   0  0  0  0  0  0  0  0  0  0  0  0
    2.9042   -1.8952   -0.2526 H   0  0  0  0  0  0  0  0  0  0  0  0
    5.5762    0.1397   -0.8693 H   0  0  0  0  0  0  0  0  0  0  0  0
    7.6985    1.1577   -0.9209 H   0  0  0  0  0  0  0  0  0  0  0  0
    6.6007    2.0984    0.0399 H   0  0  0  0  0  0  0  0  0  0  0  0
    6.5635   -0.9998    2.6155 H   0  0  0  0  0  0  0  0  0  0  0  0
    6.4700    0.7374    2.8392 H   0  0  0  0  0  0  0  0  0  0  0  0
    6.0583   -2.1510   -0.4922 H   0  0  0  0  0  0  0  0  0  0  0  0
    7.5518   -1.3554   -0.9949 H   0  0  0  0  0  0  0  0  0  0  0  0
    7.2538   -1.8327    0.6905 H   0  0  0  0  0  0  0  0  0  0  0  0
    8.8897    2.0979    0.9364 H   0  0  0  0  0  0  0  0  0  0  0  0
    7.7831    1.5824    2.0915 H   0  0  0  0  0  0  0  0  0  0  0  0
    4.4334    0.6957    4.0695 H   0  0  0  0  0  0  0  0  0  0  0  0
    9.5940   -0.2363    0.4385 H   0  0  0  0  0  0  0  0  0  0  0  0
    9.7593    0.1346    2.1810 H   0  0  0  0  0  0  0  0  0  0  0  0
    8.4764   -0.8582    1.6573 H   0  0  0  0  0  0  0  0  0  0  0  0
    4.5801   -1.1692    5.6532 H   0  0  0  0  0  0  0  0  0  0  0  0
    5.8014   -2.0255    4.5315 H   0  0  0  0  0  0  0  0  0  0  0  0
  1 15  2  0  0  0  0
  2 11  2  0  0  0  0
  3 12  2  0  0  0  0
  4 11  1  0  0  0  0
  4 15  1  0  0  0  0
  4 18  1  0  0  0  0
  5 12  1  0  0  0  0
  5 15  1  0  0  0  0
  5 19  1  0  0  0  0
  6  7  1  0  0  0  0
  6  9  1  0  0  0  0
  6 11  1  0  0  0  0
  6 12  1  0  0  0  0
  7  8  1  0  0  0  0
  7 10  1  0  0  0  0
  7 20  1  0  0  0  0
  8 13  1  0  0  0  0
  8 21  1  0  0  0  0
  8 22  1  0  0  0  0
  9 14  1  0  0  0  0
  9 23  1  0  0  0  0
  9 24  1  0  0  0  0
 10 25  1  0  0  0  0
 10 26  1  0  0  0  0
 10 27  1  0  0  0  0
 13 16  1  0  0  0  0
 13 28  1  0  0  0  0
 13 29  1  0  0  0  0
 14 17  2  0  0  0  0
 14 30  1  0  0  0  0
 16 31  1  0  0  0  0
 16 32  1  0  0  0  0
 16 33  1  0  0  0  0
 17 34  1  0  0  0  0
 17 35  1  0  0  0  0
M  END
>  <DRUGBANK_ID>
DB01154

>  <SECONDARY_ACCESSION_NUMBERS>
APRD00154

>  <COMMON_NAME>
Thiamylal

>  <CAS_NUMBER>
77-27-0

>  <UNII>
01T23W89FR

>  <SYNONYMS>
5-Allyl-5-(1-methylbutyl)-2-thiobarbituric acid; 5-allyl-5-(1-methylbutyl)-2-thioxodihydro-4,6(1H,5H)-pyrimidinedione; 5-allyl-5-(1-methylbutyl)-2-thioxodihydropyrimidine-4,6(1H,5H)-dione; dihydro-5-(1-methylbutyl)-5-(2-propenyl)-2-thioxo-4,6(1H,5H)-pyrimidinedione; Thiamylal

$$$$
