IID
 OpenBabel10282417173D

 61 64  0  0  0  0  0  0  0  0999 V2000
    2.1480   -0.7009    0.0007 C   0  0  0  0  0  0  0  0  0  0  0  0
    0.9360   -1.4071    0.0126 C   0  0  0  0  0  0  0  0  0  0  0  0
   -0.2517   -0.6582    0.0385 C   0  0  0  0  0  0  0  0  0  0  0  0
   -0.2174    0.7439    0.0355 C   0  0  0  0  0  0  0  0  0  0  0  0
    1.0037    1.4223    0.0114 C   0  0  0  0  0  0  0  0  0  0  0  0
    2.1825    0.6913    0.0027 C   0  0  0  0  0  0  0  0  0  0  0  0
   -1.5911   -1.0210    0.0745 N   0  0  0  0  0  0  0  0  0  0  0  0
   -2.3532    0.1566   -0.0418 C   0  0  0  0  0  0  0  0  0  0  0  0
   -1.5300    1.2351    0.0380 C   0  0  0  0  0  0  0  0  0  0  0  0
   -3.7484    0.1280   -0.2880 C   0  0  0  0  0  0  0  0  0  0  0  0
   -4.5589    1.2202   -0.0145 N   0  0  0  0  0  0  0  0  0  0  0  0
   -6.0515    1.2320   -0.0464 C   0  0  0  0  0  0  0  0  0  0  0  0
   -6.7344   -0.1263    0.1031 C   0  0  0  0  0  0  0  0  0  0  0  0
   -2.1186   -2.4184    0.1177 C   0  0  0  0  0  0  0  0  0  0  0  0
   -2.9222   -2.7700    1.3746 C   0  0  0  0  0  0  0  0  0  0  0  0
   -4.0839   -2.0944    1.7701 C   0  0  0  0  0  0  0  0  0  0  0  0
   -4.8788   -2.3919    2.8597 C   0  0  0  0  0  0  0  0  0  0  0  0
   -4.3541   -3.2402    3.7858 C   0  0  0  0  0  0  0  0  0  0  0  0
   -3.1833   -3.9352    3.4782 C   0  0  0  0  0  0  0  0  0  0  0  0
   -2.5466   -3.7994    2.2244 C   0  0  0  0  0  0  0  0  0  0  0  0
   -6.6567   -0.9515   -1.1681 C   0  0  0  0  0  0  0  0  0  0  0  0
   -2.7221   -4.6904    4.5185 O   0  0  0  0  0  0  0  0  0  0  0  0
   -4.1309   -0.9365   -0.6783 O   0  0  0  0  0  0  0  0  0  0  0  0
   -1.5092   -5.3716    4.2617 C   0  0  0  0  0  0  0  0  0  0  0  0
   -6.6127    1.9039   -1.3004 C   0  0  0  0  0  0  0  0  0  0  0  0
   -6.3807    1.0245   -2.5228 C   0  0  0  0  0  0  0  0  0  0  0  0
   -7.0491   -0.2950   -2.4154 N   0  0  0  0  0  0  0  0  0  0  0  0
   -6.6220   -1.1734   -3.5589 C   0  0  0  0  0  0  0  0  0  0  0  0
   -5.0923   -1.3306   -3.7906 C   0  0  0  0  0  0  0  0  0  0  0  0
   -7.2295   -2.5787   -3.4004 C   0  0  0  0  0  0  0  0  0  0  0  0
    3.0871   -1.2478   -0.0065 H   0  0  0  0  0  0  0  0  0  0  0  0
    0.9400   -2.4925    0.0059 H   0  0  0  0  0  0  0  0  0  0  0  0
    1.0070    2.5067    0.0010 H   0  0  0  0  0  0  0  0  0  0  0  0
    3.1270    1.2247   -0.0009 H   0  0  0  0  0  0  0  0  0  0  0  0
   -1.8444    2.2666   -0.0031 H   0  0  0  0  0  0  0  0  0  0  0  0
   -4.1038    2.1096    0.1242 H   0  0  0  0  0  0  0  0  0  0  0  0
   -6.3431    1.8415    0.8214 H   0  0  0  0  0  0  0  0  0  0  0  0
   -6.3131   -0.6637    0.9516 H   0  0  0  0  0  0  0  0  0  0  0  0
   -7.7972   -0.0089    0.3397 H   0  0  0  0  0  0  0  0  0  0  0  0
   -2.6901   -2.6112   -0.8028 H   0  0  0  0  0  0  0  0  0  0  0  0
   -1.2597   -3.0964    0.0260 H   0  0  0  0  0  0  0  0  0  0  0  0
   -4.4199   -1.1989    1.3114 H   0  0  0  0  0  0  0  0  0  0  0  0
   -5.8081   -1.8498    3.0035 H   0  0  0  0  0  0  0  0  0  0  0  0
   -4.8309   -3.3101    4.7558 H   0  0  0  0  0  0  0  0  0  0  0  0
   -1.7173   -4.4367    1.9381 H   0  0  0  0  0  0  0  0  0  0  0  0
   -5.6761   -1.2112   -1.4387 H   0  0  0  0  0  0  0  0  0  0  0  0
   -7.0629   -1.9413   -0.9532 H   0  0  0  0  0  0  0  0  0  0  0  0
   -1.6655   -6.1144    3.4741 H   0  0  0  0  0  0  0  0  0  0  0  0
   -0.7016   -4.6770    4.0000 H   0  0  0  0  0  0  0  0  0  0  0  0
   -1.2279   -5.8913    5.1771 H   0  0  0  0  0  0  0  0  0  0  0  0
   -7.6919    2.0716   -1.1853 H   0  0  0  0  0  0  0  0  0  0  0  0
   -6.1452    2.8836   -1.4460 H   0  0  0  0  0  0  0  0  0  0  0  0
   -6.7446    1.5367   -3.4181 H   0  0  0  0  0  0  0  0  0  0  0  0
   -5.2932    0.9412   -2.6222 H   0  0  0  0  0  0  0  0  0  0  0  0
   -7.0481   -0.7254   -4.4623 H   0  0  0  0  0  0  0  0  0  0  0  0
   -4.5812   -1.8427   -2.9675 H   0  0  0  0  0  0  0  0  0  0  0  0
   -4.8974   -1.9344   -4.6800 H   0  0  0  0  0  0  0  0  0  0  0  0
   -4.5889   -0.3726   -3.9454 H   0  0  0  0  0  0  0  0  0  0  0  0
   -8.3081   -2.5169   -3.2243 H   0  0  0  0  0  0  0  0  0  0  0  0
   -7.0479   -3.1816   -4.2918 H   0  0  0  0  0  0  0  0  0  0  0  0
   -6.7824   -3.1363   -2.5671 H   0  0  0  0  0  0  0  0  0  0  0  0
  1  2  2  0  0  0  0
  1  6  1  0  0  0  0
  1 31  1  0  0  0  0
  2  3  1  0  0  0  0
  2 32  1  0  0  0  0
  3  4  2  0  0  0  0
  3  7  1  0  0  0  0
  4  5  1  0  0  0  0
  4  9  1  0  0  0  0
  5  6  2  0  0  0  0
  5 33  1  0  0  0  0
  6 34  1  0  0  0  0
  7  8  1  0  0  0  0
  7 14  1  0  0  0  0
  8  9  2  0  0  0  0
  8 10  1  0  0  0  0
  9 35  1  0  0  0  0
 10 11  1  0  0  0  0
 10 23  2  0  0  0  0
 11 12  1  0  0  0  0
 11 36  1  0  0  0  0
 12 13  1  0  0  0  0
 12 25  1  0  0  0  0
 12 37  1  0  0  0  0
 13 21  1  0  0  0  0
 13 38  1  0  0  0  0
 13 39  1  0  0  0  0
 14 15  1  0  0  0  0
 14 40  1  0  0  0  0
 14 41  1  0  0  0  0
 15 16  2  0  0  0  0
 15 20  1  0  0  0  0
 16 17  1  0  0  0  0
 16 42  1  0  0  0  0
 17 18  2  0  0  0  0
 17 43  1  0  0  0  0
 18 19  1  0  0  0  0
 18 44  1  0  0  0  0
 19 20  2  0  0  0  0
 19 22  1  0  0  0  0
 20 45  1  0  0  0  0
 21 27  1  0  0  0  0
 21 46  1  0  0  0  0
 21 47  1  0  0  0  0
 22 24  1  0  0  0  0
 24 48  1  0  0  0  0
 24 49  1  0  0  0  0
 24 50  1  0  0  0  0
 25 26  1  0  0  0  0
 25 51  1  0  0  0  0
 25 52  1  0  0  0  0
 26 27  1  0  0  0  0
 26 53  1  0  0  0  0
 26 54  1  0  0  0  0
 27 28  1  0  0  0  0
 28 29  1  0  0  0  0
 28 30  1  0  0  0  0
 28 55  1  0  0  0  0
 29 56  1  0  0  0  0
 29 57  1  0  0  0  0
 29 58  1  0  0  0  0
 30 59  1  0  0  0  0
 30 60  1  0  0  0  0
 30 61  1  0  0  0  0
M  END
>  <DRUGBANK_ID>
DB07973

>  <COMMON_NAME>
N-(1-ISOPROPYLPIPERIDIN-4-YL)-1-(3-METHOXYBENZYL)-1H-INDOLE-2-CARBOXAMIDE

$$$$
