
 OpenBabel10282417183D

 36 38  0  0  0  0  0  0  0  0999 V2000
    0.8878    0.0515   -0.0576 F   0  0  0  0  0  0  0  0  0  0  0  0
    6.9343   -3.3202    0.8560 O   0  0  0  0  0  0  0  0  0  0  0  0
    6.4100    0.1756   -0.0648 O   0  0  0  0  0  0  0  0  0  0  0  0
    7.7500   -2.3791    3.4808 N   0  0  0  0  0  0  0  0  0  0  0  0
    4.7821    2.7327   -0.0546 C   0  0  0  0  0  0  0  0  0  0  0  0
    4.3166    1.3050   -0.0905 C   0  0  0  0  0  0  0  0  0  0  0  0
    3.4709    3.5542   -0.0528 C   0  0  0  0  0  0  0  0  0  0  0  0
    2.2810    2.5964   -0.0875 C   0  0  0  0  0  0  0  0  0  0  0  0
    2.9167    1.2566   -0.0823 C   0  0  0  0  0  0  0  0  0  0  0  0
    6.8920   -1.9165    1.1896 C   0  0  1  0  0  0  0  0  0  0  0  0
    7.9339   -1.5655    2.2608 C   0  0  0  0  0  0  0  0  0  0  0  0
    5.0393    0.1150   -0.1310 C   0  0  0  0  0  0  0  0  0  0  0  0
    7.1057   -1.0873   -0.0944 C   0  0  0  0  0  0  0  0  0  0  0  0
    7.7519   -3.8052    3.0980 C   0  0  0  0  0  0  0  0  0  0  0  0
    6.6972   -4.1148    2.0277 C   0  0  0  0  0  0  0  0  0  0  0  0
    2.2287    0.0597   -0.0850 C   0  0  0  0  0  0  0  0  0  0  0  0
    4.3159   -1.0954   -0.1932 C   0  0  0  0  0  0  0  0  0  0  0  0
    2.9199   -1.1263   -0.1317 C   0  0  0  0  0  0  0  0  0  0  0  0
    6.8333   -2.1559    3.8727 H   0  0  0  0  0  0  0  0  0  0  0  0
    5.3836    2.9899   -0.9331 H   0  0  0  0  0  0  0  0  0  0  0  0
    5.3584    2.9529    0.8504 H   0  0  0  0  0  0  0  0  0  0  0  0
    3.4267    4.2359   -0.9117 H   0  0  0  0  0  0  0  0  0  0  0  0
    3.4081    4.1930    0.8371 H   0  0  0  0  0  0  0  0  0  0  0  0
    1.6923    2.7217   -1.0019 H   0  0  0  0  0  0  0  0  0  0  0  0
    1.6374    2.7175    0.7888 H   0  0  0  0  0  0  0  0  0  0  0  0
    5.9103   -1.7138    1.6317 H   0  0  0  0  0  0  0  0  0  0  0  0
    8.9458   -1.7313    1.8746 H   0  0  0  0  0  0  0  0  0  0  0  0
    7.8450   -0.5054    2.5216 H   0  0  0  0  0  0  0  0  0  0  0  0
    6.8422   -1.6437   -1.0048 H   0  0  0  0  0  0  0  0  0  0  0  0
    8.1738   -0.8632   -0.2084 H   0  0  0  0  0  0  0  0  0  0  0  0
    8.7463   -4.0621    2.7141 H   0  0  0  0  0  0  0  0  0  0  0  0
    7.5722   -4.4153    3.9881 H   0  0  0  0  0  0  0  0  0  0  0  0
    6.7468   -5.1694    1.7378 H   0  0  0  0  0  0  0  0  0  0  0  0
    5.6821   -3.9231    2.3993 H   0  0  0  0  0  0  0  0  0  0  0  0
    4.8011   -2.0629   -0.2582 H   0  0  0  0  0  0  0  0  0  0  0  0
    2.3916   -2.0731   -0.1246 H   0  0  0  0  0  0  0  0  0  0  0  0
  1 16  1  0  0  0  0
  2 10  1  0  0  0  0
  2 15  1  0  0  0  0
  3 12  1  0  0  0  0
  3 13  1  0  0  0  0
  4 11  1  0  0  0  0
  4 14  1  0  0  0  0
  4 19  1  0  0  0  0
  5  6  1  0  0  0  0
  5  7  1  0  0  0  0
  5 20  1  0  0  0  0
  5 21  1  0  0  0  0
  6  9  1  0  0  0  0
  6 12  2  0  0  0  0
  7  8  1  0  0  0  0
  7 22  1  0  0  0  0
  7 23  1  0  0  0  0
  8  9  1  0  0  0  0
  8 24  1  0  0  0  0
  8 25  1  0  0  0  0
  9 16  2  0  0  0  0
 10 11  1  0  0  0  0
 10 13  1  0  0  0  0
 10 26  1  1  0  0  0
 11 27  1  0  0  0  0
 11 28  1  0  0  0  0
 12 17  1  0  0  0  0
 13 29  1  0  0  0  0
 13 30  1  0  0  0  0
 14 15  1  0  0  0  0
 14 31  1  0  0  0  0
 14 32  1  0  0  0  0
 15 33  1  0  0  0  0
 15 34  1  0  0  0  0
 16 18  1  0  0  0  0
 17 18  2  0  0  0  0
 17 35  1  0  0  0  0
 18 36  1  0  0  0  0
M  END
>  <DRUGBANK_ID>
DB09196

>  <COMMON_NAME>
Lubazodone

>  <CAS_NUMBER>
161178-07-0

>  <UNII>
850TB2B172

>  <SYNONYMS>
Lubazodone

$$$$
