
 OpenBabel10282417163D

 48 52  0  0  0  0  0  0  0  0999 V2000
    2.7715   -1.2467    0.8775 C   0  0  1  0  0  0  0  0  0  0  0  0
    3.0708   -1.2323    2.6635 C   0  0  2  0  0  0  0  0  0  0  0  0
    4.5112   -1.4812    3.1131 C   0  0  0  0  0  0  0  0  0  0  0  0
    5.2733   -1.3907    1.8726 C   0  0  0  0  0  0  0  0  0  0  0  0
    5.3943    3.2131    1.9695 C   0  0  0  0  0  0  0  0  0  0  0  0
    4.2070    3.7574    1.2268 C   0  0  0  0  0  0  0  0  0  0  0  0
    4.6621    3.8072   -0.2483 C   0  0  1  0  0  0  0  0  0  0  0  0
    6.1659    3.7612   -0.5597 C   0  0  0  0  0  0  0  0  0  0  0  0
    6.7583    2.4109   -0.3152 C   0  0  0  0  0  0  0  0  0  0  0  0
    4.7841   -0.0432    1.1908 C   0  0  2  0  0  0  0  0  0  0  0  0
    4.3255    2.4251   -0.6521 C   0  0  0  0  0  0  0  0  0  0  0  0
    4.3509   -0.8057   -0.0841 C   0  0  2  0  0  0  0  0  0  0  0  0
    5.5929    1.4215    1.4928 C   0  0  1  0  0  0  0  0  0  0  0  0
    5.3961    0.2117   -0.8461 C   0  0  1  0  0  0  0  0  0  0  0  0
    5.4984    1.5868   -0.0830 C   0  0  2  0  0  0  0  0  0  0  0  0
    4.6257   -1.7771   -0.5277 H   0  0  0  0  0  0  0  0  0  0  0  0
    2.2297   -1.9435    3.5703 O   0  0  0  0  0  0  0  0  0  0  0  0
    1.1430   -1.3105    0.9190 C   0  0  0  0  0  0  0  0  0  0  0  0
    6.8655   -0.2483   -1.2559 C   0  0  0  0  0  0  0  0  0  0  0  0
    7.2379   -0.4925   -2.4018 O   0  0  0  0  0  0  0  0  0  0  0  0
    7.8188   -0.1027   -0.3018 O   0  0  0  0  0  0  0  0  0  0  0  0
    6.9689    4.7182   -1.0176 C   0  0  0  0  0  0  0  0  0  0  0  0
    4.8782    1.4398    2.3438 H   0  0  0  0  0  0  0  0  0  0  0  0
    3.4610    0.6584    1.2705 O   0  0  0  0  0  0  0  0  0  0  0  0
    2.6333    0.0898    0.4122 C   0  0  0  0  0  0  0  0  0  0  0  0
    2.2282    0.4852   -0.7219 O   0  0  0  0  0  0  0  0  0  0  0  0
    4.1209    4.5471   -0.8378 H   0  0  0  0  0  0  0  0  0  0  0  0
    2.8428   -0.2088    2.9719 H   0  0  0  0  0  0  0  0  0  0  0  0
    4.6725   -2.4236    3.6498 H   0  0  0  0  0  0  0  0  0  0  0  0
    4.8587   -0.6704    3.7545 H   0  0  0  0  0  0  0  0  0  0  0  0
    4.9731   -2.3307    1.3335 H   0  0  0  0  0  0  0  0  0  0  0  0
    6.3554   -1.5513    1.9244 H   0  0  0  0  0  0  0  0  0  0  0  0
    5.2751    3.4929    3.0300 H   0  0  0  0  0  0  0  0  0  0  0  0
    6.2821    3.8336    1.7287 H   0  0  0  0  0  0  0  0  0  0  0  0
    3.4737    4.5388    1.4829 H   0  0  0  0  0  0  0  0  0  0  0  0
    3.5303    2.9577    1.5476 H   0  0  0  0  0  0  0  0  0  0  0  0
    7.4192    2.1004   -1.1191 H   0  0  0  0  0  0  0  0  0  0  0  0
    7.3955    2.4070    0.5935 H   0  0  0  0  0  0  0  0  0  0  0  0
    3.3553    2.2243   -0.2150 H   0  0  0  0  0  0  0  0  0  0  0  0
    4.1768    2.3079   -1.7244 H   0  0  0  0  0  0  0  0  0  0  0  0
    4.9767    0.3924   -1.8450 H   0  0  0  0  0  0  0  0  0  0  0  0
    2.6645   -1.8669    4.4510 H   0  0  0  0  0  0  0  0  0  0  0  0
    0.7652   -2.3306    0.9031 H   0  0  0  0  0  0  0  0  0  0  0  0
    0.8273   -0.8894    1.9039 H   0  0  0  0  0  0  0  0  0  0  0  0
    0.4711   -0.7028    0.2747 H   0  0  0  0  0  0  0  0  0  0  0  0
    8.6733    0.0145   -0.7931 H   0  0  0  0  0  0  0  0  0  0  0  0
    8.0269    4.4962   -1.1538 H   0  0  0  0  0  0  0  0  0  0  0  0
    6.5945    5.7044   -1.2239 H   0  0  0  0  0  0  0  0  0  0  0  0
  1 12  1  0  0  0  0
  1 18  1  6  0  0  0
  1 25  1  0  0  0  0
  2  1  1  0  0  0  0
  2  3  1  0  0  0  0
  2 17  1  0  0  0  0
  2 28  1  1  0  0  0
  3  4  1  0  0  0  0
  3 29  1  0  0  0  0
  3 30  1  0  0  0  0
  4 10  1  0  0  0  0
  4 31  1  0  0  0  0
  4 32  1  0  0  0  0
  5 13  1  0  0  0  0
  5 33  1  0  0  0  0
  5 34  1  0  0  0  0
  6  5  1  0  0  0  0
  6 35  1  0  0  0  0
  6 36  1  0  0  0  0
  7  6  1  0  0  0  0
  7 11  1  0  0  0  0
  7  8  1  0  0  0  0
  7 27  1  6  0  0  0
  8  9  1  0  0  0  0
  9 37  1  0  0  0  0
  9 38  1  0  0  0  0
 10 24  1  1  0  0  0
 11 39  1  0  0  0  0
 11 40  1  0  0  0  0
 12 10  1  0  0  0  0
 12 16  1  1  0  0  0
 13 10  1  0  0  0  0
 13 23  1  1  0  0  0
 14 12  1  0  0  0  0
 14 41  1  6  0  0  0
 14 19  1  0  0  0  0
 15 13  1  0  0  0  0
 15 14  1  0  0  0  0
 15 11  1  6  0  0  0
 15  9  1  0  0  0  0
 17 42  1  0  0  0  0
 18 43  1  0  0  0  0
 18 44  1  0  0  0  0
 18 45  1  0  0  0  0
 20 19  2  0  0  0  0
 21 19  1  0  0  0  0
 21 46  1  0  0  0  0
 22  8  2  0  0  0  0
 22 47  1  0  0  0  0
 22 48  1  0  0  0  0
 25 24  1  0  0  0  0
 26 25  2  0  0  0  0
M  END
>  <DRUGBANK_ID>
DB07815

>  <COMMON_NAME>
Gibberellin A4

>  <CAS_NUMBER>
468-44-0

>  <UNII>
1360M56KLC

>  <SYNONYMS>
2β,4a-dihydroxy-1-methyl-8-methylene-4aα,4bβ-gibbane-1α,10β-dicarboxylic acid, 1,4a-lactone; GA4; Gibberellin 4

$$$$
