1185
 OpenBabel10282417113D

 53 56  0  0  1  0  0  0  0  0999 V2000
    6.0230    4.7607   -6.1300 F   0  0  0  0  0  0  0  0  0  0  0  0
    4.3337    7.4460   -7.2124 O   0  0  0  0  0  0  0  0  0  0  0  0
    4.2535    2.4981   -7.0754 O   0  0  0  0  0  0  0  0  0  0  0  0
    6.5577    0.3570   -4.1208 O   0  0  0  0  0  0  0  0  0  0  0  0
    5.0608    5.6736   -8.6717 C   0  0  1  0  0  0  0  0  0  0  0  0
    6.4845    6.1562   -8.0985 C   0  0  2  0  0  0  0  0  0  0  0  0
    7.4570    4.8432   -7.8395 C   0  0  1  0  0  0  0  0  0  0  0  0
    6.4776    3.8433   -7.0907 C   0  0  2  0  0  0  0  0  0  0  0  0
    4.2481    6.9897   -8.5870 C   0  0  2  0  0  0  0  0  0  0  0  0
    4.3265    4.6334   -7.8532 C   0  0  0  0  0  0  0  0  0  0  0  0
    7.0119    2.6740   -6.2518 C   0  0  2  0  0  0  0  0  0  0  0  0
    5.1490    3.3934   -7.7647 C   0  0  2  0  0  0  0  0  0  0  0  0
    6.5581    7.6448   -8.7334 C   0  0  0  0  0  0  0  0  0  0  0  0
    5.1607    7.8622   -9.4327 C   0  0  0  0  0  0  0  0  0  0  0  0
    8.6836    4.9654   -6.8016 C   0  0  0  0  0  0  0  0  0  0  0  0
    5.3565    5.1083  -10.1035 C   0  0  0  0  0  0  0  0  0  0  0  0
    8.4635    2.4283   -5.9569 C   0  0  0  0  0  0  0  0  0  0  0  0
    9.3778    3.5241   -6.5216 C   0  0  0  0  0  0  0  0  0  0  0  0
    6.4840    3.1456   -4.7007 C   0  0  0  0  0  0  0  0  0  0  0  0
    2.7510    7.0238   -8.8894 C   0  0  0  0  0  0  0  0  0  0  0  0
    6.7751    1.2985   -7.0604 C   0  0  0  0  0  0  0  0  0  0  0  0
    7.2703    2.5398   -3.5557 C   0  0  0  0  0  0  0  0  0  0  0  0
    8.6678    1.3136   -5.1406 C   0  0  0  0  0  0  0  0  0  0  0  0
    7.4673    1.2505   -4.1474 C   0  0  0  0  0  0  0  0  0  0  0  0
    6.3876    6.4832   -7.0566 H   0  0  0  0  0  0  0  0  0  0  0  0
    7.8408    4.4507   -8.7916 H   0  0  0  0  0  0  0  0  0  0  0  0
    3.5767    8.0057   -6.9880 H   0  0  0  0  0  0  0  0  0  0  0  0
    4.6731    1.7115   -6.7008 H   0  0  0  0  0  0  0  0  0  0  0  0
    3.3210    4.4009   -8.2136 H   0  0  0  0  0  0  0  0  0  0  0  0
    4.1406    4.9862   -6.8262 H   0  0  0  0  0  0  0  0  0  0  0  0
    5.3556    2.9136   -8.7223 H   0  0  0  0  0  0  0  0  0  0  0  0
    7.3568    7.9637   -9.4059 H   0  0  0  0  0  0  0  0  0  0  0  0
    6.5779    8.3650   -7.8933 H   0  0  0  0  0  0  0  0  0  0  0  0
    4.7966    8.8902   -9.5095 H   0  0  0  0  0  0  0  0  0  0  0  0
    5.2225    7.5000  -10.4678 H   0  0  0  0  0  0  0  0  0  0  0  0
    9.4422    5.6613   -7.1851 H   0  0  0  0  0  0  0  0  0  0  0  0
    8.3158    5.4223   -5.8700 H   0  0  0  0  0  0  0  0  0  0  0  0
    6.2585    5.5638  -10.5305 H   0  0  0  0  0  0  0  0  0  0  0  0
    5.6091    4.0465  -10.1364 H   0  0  0  0  0  0  0  0  0  0  0  0
    4.5181    5.2438  -10.7857 H   0  0  0  0  0  0  0  0  0  0  0  0
   10.3279    3.5119   -5.9616 H   0  0  0  0  0  0  0  0  0  0  0  0
    9.6991    3.2557   -7.5311 H   0  0  0  0  0  0  0  0  0  0  0  0
    5.3908    3.1529   -4.6387 H   0  0  0  0  0  0  0  0  0  0  0  0
    6.8047    4.1984   -4.5651 H   0  0  0  0  0  0  0  0  0  0  0  0
    2.4579    8.0560   -9.1175 H   0  0  0  0  0  0  0  0  0  0  0  0
    2.4068    6.3724   -9.6921 H   0  0  0  0  0  0  0  0  0  0  0  0
    2.1690    6.7746   -7.9853 H   0  0  0  0  0  0  0  0  0  0  0  0
    6.3061    0.5180   -6.4612 H   0  0  0  0  0  0  0  0  0  0  0  0
    6.2122    1.3459   -7.9929 H   0  0  0  0  0  0  0  0  0  0  0  0
    7.7144    0.8862   -7.4770 H   0  0  0  0  0  0  0  0  0  0  0  0
    7.1811    2.4673   -2.4666 H   0  0  0  0  0  0  0  0  0  0  0  0
    8.1854    3.1426   -3.5814 H   0  0  0  0  0  0  0  0  0  0  0  0
    8.4334    0.2966   -5.5103 H   0  0  0  0  0  0  0  0  0  0  0  0
  2 27  1  0  0  0  0
  3 28  1  0  0  0  0
  4 24  2  0  0  0  0
  5  6  1  0  0  0  0
  5  9  1  0  0  0  0
  5 10  1  0  0  0  0
  5 16  1  1  0  0  0
  6  7  1  0  0  0  0
  6 13  1  0  0  0  0
  6 25  1  6  0  0  0
  7  8  1  0  0  0  0
  7 15  1  0  0  0  0
  7 26  1  1  0  0  0
  8 11  1  0  0  0  0
  8 12  1  0  0  0  0
  8  1  1  6  0  0  0
  9 14  1  0  0  0  0
  9 20  1  0  0  0  0
  9  2  1  1  0  0  0
 10 12  1  0  0  0  0
 10 29  1  0  0  0  0
 10 30  1  0  0  0  0
 11 17  1  0  0  0  0
 11 19  1  0  0  0  0
 11 21  1  1  0  0  0
 12  3  1  0  0  0  0
 12 31  1  6  0  0  0
 13 14  1  0  0  0  0
 13 32  1  0  0  0  0
 13 33  1  0  0  0  0
 14 34  1  0  0  0  0
 14 35  1  0  0  0  0
 15 18  1  0  0  0  0
 15 36  1  0  0  0  0
 15 37  1  0  0  0  0
 16 38  1  0  0  0  0
 16 39  1  0  0  0  0
 16 40  1  0  0  0  0
 17 18  1  0  0  0  0
 17 23  2  0  0  0  0
 18 41  1  0  0  0  0
 18 42  1  0  0  0  0
 19 22  1  0  0  0  0
 19 43  1  0  0  0  0
 19 44  1  0  0  0  0
 20 45  1  0  0  0  0
 20 46  1  0  0  0  0
 20 47  1  0  0  0  0
 21 48  1  0  0  0  0
 21 49  1  0  0  0  0
 21 50  1  0  0  0  0
 22 24  1  0  0  0  0
 22 51  1  0  0  0  0
 22 52  1  0  0  0  0
 23 24  1  0  0  0  0
 23 53  1  0  0  0  0
M  END
>  <DRUGBANK_ID>
DB01185

>  <SECONDARY_ACCESSION_NUMBERS>
APRD00981

>  <COMMON_NAME>
Fluoxymesterone

>  <CAS_NUMBER>
76-43-7

>  <UNII>
9JU12S4YFY

>  <SYNONYMS>
11β,17β-Dihydroxy-9α-fluoro-17α-methyl-4-androster-3-one; 17α-Methyl-9α-fluoro-11β-hydroxytesterone; 9-Fluoro-11β,17β-dihydroxy-17-methylandrost-4-en-3-one; 9α-Fluoro-11β-hydroxy-17-methyltestosterone; Fluoximesterona; Fluoxymesterone; Fluoxymestérone; Fluoxymesteronum

$$$$
