
 OpenBabel10282417123D

 17 16  0  0  0  0  0  0  0  0999 V2000
    0.9416   -0.0589    0.0278 C   0  0  0  0  0  0  0  0  0  0  0  0
    0.4061   -1.3432   -0.6325 C   0  0  0  0  0  0  0  0  0  0  0  0
    0.9489   -2.5404    0.1542 C   0  0  0  0  0  0  0  0  0  0  0  0
   -1.1244   -1.2858   -0.6045 C   0  0  0  0  0  0  0  0  0  0  0  0
    0.8926   -1.3657   -1.9992 O   0  0  0  0  0  0  0  0  0  0  0  0
    0.5552   -2.4089   -2.8022 C   0  0  0  0  0  0  0  0  0  0  0  0
   -0.1348   -3.3780   -2.5193 O   0  0  0  0  0  0  0  0  0  0  0  0
    0.6056    0.0155    1.0693 H   0  0  0  0  0  0  0  0  0  0  0  0
    0.6016    0.8378   -0.5028 H   0  0  0  0  0  0  0  0  0  0  0  0
    2.0372   -0.0309    0.0225 H   0  0  0  0  0  0  0  0  0  0  0  0
    0.6172   -2.5105    1.1964 H   0  0  0  0  0  0  0  0  0  0  0  0
    0.6205   -3.4937   -0.2665 H   0  0  0  0  0  0  0  0  0  0  0  0
    2.0447   -2.5521    0.1327 H   0  0  0  0  0  0  0  0  0  0  0  0
   -1.4887   -0.4141   -1.1602 H   0  0  0  0  0  0  0  0  0  0  0  0
   -1.5788   -2.1629   -1.0713 H   0  0  0  0  0  0  0  0  0  0  0  0
   -1.4982   -1.2304    0.4223 H   0  0  0  0  0  0  0  0  0  0  0  0
    1.0056   -2.2639   -3.7936 H   0  0  0  0  0  0  0  0  0  0  0  0
  1  2  1  0  0  0  0
  1  8  1  0  0  0  0
  1  9  1  0  0  0  0
  1 10  1  0  0  0  0
  2  3  1  0  0  0  0
  2  4  1  0  0  0  0
  2  5  1  0  0  0  0
  3 11  1  0  0  0  0
  3 12  1  0  0  0  0
  3 13  1  0  0  0  0
  4 14  1  0  0  0  0
  4 15  1  0  0  0  0
  4 16  1  0  0  0  0
  5  6  1  0  0  0  0
  6  7  2  0  0  0  0
  6 17  1  0  0  0  0
M  END
>  <DRUGBANK_ID>
DB02768

>  <SECONDARY_ACCESSION_NUMBERS>
EXPT00736

>  <COMMON_NAME>
Tert-Butyloxycarbonyl Group

>  <UNII>
J5BC8DA85J

$$$$
