
 OpenBabel10282417133D

 16 15  0  0  1  0  0  0  0  0999 V2000
    1.0509   -0.0386   -0.1316 N   0  0  0  0  0  0  0  0  0  0  0  0
    0.5564   -1.4018   -0.3860 C   0  0  1  0  0  0  0  0  0  0  0  0
    1.0415   -2.3931    0.6969 C   0  0  0  0  0  0  0  0  0  0  0  0
    0.5978   -1.9639    2.0602 N   0  3  0  0  0  0  0  0  0  0  0  0
   -0.9706   -1.4159   -0.3467 C   0  0  0  0  0  0  0  0  0  0  0  0
   -1.6031   -1.8098   -1.4603 O   0  0  0  0  0  0  0  0  0  0  0  0
   -1.5656   -1.1733    0.7052 O   0  0  0  0  0  0  0  0  0  0  0  0
    0.6533    0.3929    0.7019 H   0  0  0  0  0  0  0  0  0  0  0  0
    2.0688    0.0148   -0.0869 H   0  0  0  0  0  0  0  0  0  0  0  0
    0.9046   -1.7271   -1.3713 H   0  0  0  0  0  0  0  0  0  0  0  0
    0.6515   -3.4026    0.5382 H   0  0  0  0  0  0  0  0  0  0  0  0
    2.1355   -2.4240    0.7301 H   0  0  0  0  0  0  0  0  0  0  0  0
   -0.4413   -1.8900    2.0853 H   0  0  0  0  0  0  0  0  0  0  0  0
    0.8863   -2.6117    2.8025 H   0  0  0  0  0  0  0  0  0  0  0  0
    0.9406   -1.0265    2.2998 H   0  0  0  0  0  0  0  0  0  0  0  0
   -1.0778   -1.9474   -2.2743 H   0  0  0  0  0  0  0  0  0  0  0  0
  1  8  1  0  0  0  0
  1  9  1  0  0  0  0
  2  1  1  0  0  0  0
  2  3  1  0  0  0  0
  2  5  1  0  0  0  0
  2 10  1  6  0  0  0
  3  4  1  0  0  0  0
  3 11  1  0  0  0  0
  3 12  1  0  0  0  0
  4 13  1  0  0  0  0
  4 14  1  0  0  0  0
  4 15  1  0  0  0  0
  5  6  1  0  0  0  0
  5  7  2  0  0  0  0
  6 16  1  0  0  0  0
M  CHG  1   4   1
M  END
>  <DRUGBANK_ID>
DB03320

>  <SECONDARY_ACCESSION_NUMBERS>
EXPT01238

>  <COMMON_NAME>
3-Amino-Alanine

$$$$
