SCF
 OpenBabel10282417173D

 38 41  0  0  0  0  0  0  0  0999 V2000
    1.4259   -1.3542   -0.0129 C   0  0  0  0  0  0  0  0  0  0  0  0
    0.1590   -0.8154    0.0225 C   0  0  0  0  0  0  0  0  0  0  0  0
    0.3235    0.5766    0.0077 N   0  0  0  0  0  0  0  0  0  0  0  0
    1.6520    0.8936    0.0040 N   0  0  0  0  0  0  0  0  0  0  0  0
    2.2967   -0.2633   -0.0090 C   0  0  0  0  0  0  0  0  0  0  0  0
   -1.0719   -1.4072    0.0717 N   0  0  0  0  0  0  0  0  0  0  0  0
   -2.0996   -0.6099    0.0431 C   0  0  0  0  0  0  0  0  0  0  0  0
   -2.0273    0.8920   -0.0210 C   0  0  0  0  0  0  0  0  0  0  0  0
   -0.7954    1.4589   -0.0070 C   0  0  0  0  0  0  0  0  0  0  0  0
   -0.6133    2.8465   -0.0104 N   0  0  0  0  0  0  0  0  0  0  0  0
   -3.4599   -1.2029    0.1360 C   0  0  0  0  0  0  0  0  0  0  0  0
    0.6311    3.6043    0.0213 C   0  0  0  0  0  0  0  0  0  0  0  0
    0.7533    4.4480   -1.2164 C   0  0  0  0  0  0  0  0  0  0  0  0
    0.9580    3.8615   -2.4706 C   0  0  0  0  0  0  0  0  0  0  0  0
    1.0330    4.6859   -3.5804 C   0  0  0  0  0  0  0  0  0  0  0  0
    0.9430    6.0325   -3.5211 N   0  0  0  0  0  0  0  0  0  0  0  0
    0.7825    6.5761   -2.2957 C   0  0  0  0  0  0  0  0  0  0  0  0
    0.6866    5.8378   -1.1296 C   0  0  0  0  0  0  0  0  0  0  0  0
   -3.7768   -2.0337    1.2203 C   0  0  0  0  0  0  0  0  0  0  0  0
   -5.0504   -2.6087    1.3159 C   0  0  0  0  0  0  0  0  0  0  0  0
   -6.0007   -2.3777    0.3200 C   0  0  0  0  0  0  0  0  0  0  0  0
   -5.6774   -1.5719   -0.7727 C   0  0  0  0  0  0  0  0  0  0  0  0
   -4.4127   -0.9864   -0.8575 C   0  0  0  0  0  0  0  0  0  0  0  0
   -4.1292   -0.2237   -1.9228 F   0  0  0  0  0  0  0  0  0  0  0  0
    1.6817   -2.4014   -0.0245 H   0  0  0  0  0  0  0  0  0  0  0  0
    3.3787   -0.2432   -0.0129 H   0  0  0  0  0  0  0  0  0  0  0  0
   -2.9429    1.4652   -0.0436 H   0  0  0  0  0  0  0  0  0  0  0  0
   -1.4533    3.4145   -0.0482 H   0  0  0  0  0  0  0  0  0  0  0  0
    0.6351    4.2297    0.9213 H   0  0  0  0  0  0  0  0  0  0  0  0
    1.5484    3.0293    0.0971 H   0  0  0  0  0  0  0  0  0  0  0  0
    1.0567    2.7849   -2.5782 H   0  0  0  0  0  0  0  0  0  0  0  0
    1.1683    4.2731   -4.5761 H   0  0  0  0  0  0  0  0  0  0  0  0
    0.7284    7.6599   -2.2706 H   0  0  0  0  0  0  0  0  0  0  0  0
    0.5685    6.3355   -0.1735 H   0  0  0  0  0  0  0  0  0  0  0  0
   -3.0385   -2.2342    1.9936 H   0  0  0  0  0  0  0  0  0  0  0  0
   -5.3008   -3.2435    2.1642 H   0  0  0  0  0  0  0  0  0  0  0  0
   -6.9876   -2.8313    0.3915 H   0  0  0  0  0  0  0  0  0  0  0  0
   -6.4033   -1.4019   -1.5625 H   0  0  0  0  0  0  0  0  0  0  0  0
  1  2  2  0  0  0  0
  1 25  1  0  0  0  0
  2  6  1  0  0  0  0
  3  9  1  0  0  0  0
  3  2  1  0  0  0  0
  4  5  2  0  0  0  0
  4  3  1  0  0  0  0
  5  1  1  0  0  0  0
  5 26  1  0  0  0  0
  7  6  2  0  0  0  0
  7 11  1  0  0  0  0
  8  7  1  0  0  0  0
  8 27  1  0  0  0  0
  9  8  2  0  0  0  0
 10 12  1  0  0  0  0
 10  9  1  0  0  0  0
 10 28  1  0  0  0  0
 11 23  1  0  0  0  0
 12 29  1  0  0  0  0
 12 30  1  0  0  0  0
 13 14  1  0  0  0  0
 13 12  1  0  0  0  0
 14 31  1  0  0  0  0
 15 14  2  0  0  0  0
 15 32  1  0  0  0  0
 16 15  1  0  0  0  0
 17 16  2  0  0  0  0
 17 18  1  0  0  0  0
 17 33  1  0  0  0  0
 18 13  2  0  0  0  0
 18 34  1  0  0  0  0
 19 11  2  0  0  0  0
 19 20  1  0  0  0  0
 19 35  1  0  0  0  0
 20 21  2  0  0  0  0
 20 36  1  0  0  0  0
 21 22  1  0  0  0  0
 21 37  1  0  0  0  0
 22 38  1  0  0  0  0
 23 24  1  0  0  0  0
 23 22  2  0  0  0  0
M  END
>  <DRUGBANK_ID>
DB08534

>  <COMMON_NAME>
5-(2-fluorophenyl)-N-(pyridin-4-ylmethyl)pyrazolo[1,5-a]pyrimidin-7-amine

$$$$
