
 OpenBabel10282417133D

 85 89  0  0  0  0  0  0  0  0999 V2000
    0.1408    0.6771    3.1253 P   0  0  2  0  0  0  0  0  0  0  0  0
    3.5710   -3.3055   -1.6880 P   0  0  2  0  0  0  0  0  0  0  0  0
   -1.6536    1.3084    1.5542 P   0  0  1  0  0  0  0  0  0  0  0  0
    0.8736   -1.9076   -0.1199 P   0  0  1  0  0  0  0  0  0  0  0  0
    0.9479    1.2538    0.4540 P   0  0  1  0  0  0  0  0  0  0  0  0
    1.6533   -1.6177    5.4179 O   0  0  0  0  0  0  0  0  0  0  0  0
    6.8932   -3.2079   -2.4907 O   0  0  0  0  0  0  0  0  0  0  0  0
    1.5115   -3.9589    2.7119 O   0  0  0  0  0  0  0  0  0  0  0  0
    3.8610   -3.0296    3.7048 O   0  0  0  0  0  0  0  0  0  0  0  0
    6.0708   -1.0031   -4.6218 O   0  0  0  0  0  0  0  0  0  0  0  0
    0.8698    0.4088    4.4806 O   0  0  0  0  0  0  0  0  0  0  0  0
    4.4960   -2.8683   -0.4582 O   0  0  0  0  0  0  0  0  0  0  0  0
   -1.2677   -0.0637    2.5346 O   0  0  0  0  0  0  0  0  0  0  0  0
    6.1737   -6.9794   -4.6269 O   0  0  0  0  0  0  0  0  0  0  0  0
    0.7382   -0.5228    2.3674 O   0  0  0  0  0  0  0  0  0  0  0  0
    2.3432   -2.3699   -0.9070 O   0  0  0  0  0  0  0  0  0  0  0  0
    0.5218    2.0482    2.5670 O   0  0  0  0  0  0  0  0  0  0  0  0
    2.3385   -4.2752   -1.9423 O   0  0  0  0  0  0  0  0  0  0  0  0
    2.8212   -8.2635   -1.9375 O   0  0  0  0  0  0  0  0  0  0  0  0
    4.6700   -4.1429   -2.3870 O   0  0  0  0  0  0  0  0  0  0  0  0
   -0.6723    0.6731    0.2789 O   0  0  0  0  0  0  0  0  0  0  0  0
    1.4152   -0.2860   -0.2689 O   0  0  0  0  0  0  0  0  0  0  0  0
   -3.0353    0.4858    1.2297 O   0  0  0  0  0  0  0  0  0  0  0  0
   -1.9989    2.5365    0.6768 O   0  0  0  0  0  0  0  0  0  0  0  0
    0.1627   -2.1187   -1.5798 O   0  0  0  0  0  0  0  0  0  0  0  0
   -0.4416   -1.4938    0.5845 O   0  0  0  0  0  0  0  0  0  0  0  0
    0.7026    1.9859   -1.0066 O   0  0  0  0  0  0  0  0  0  0  0  0
    2.3979    1.7736    0.6107 O   0  0  0  0  0  0  0  0  0  0  0  0
   -0.8739   -1.6505    4.6609 N   0  0  0  0  0  0  0  0  0  0  0  0
    5.9501   -5.7331   -2.6993 N   0  0  0  0  0  0  0  0  0  0  0  0
   -3.0996   -2.2115    4.8311 N   0  0  0  0  0  0  0  0  0  0  0  0
   -1.5916    1.0149    4.6337 N   0  0  0  0  0  0  0  0  0  0  0  0
    4.8177   -7.7644   -2.9560 N   0  0  0  0  0  0  0  0  0  0  0  0
   -3.9490    1.3622    4.6510 N   0  0  0  0  0  0  0  0  0  0  0  0
   -4.9509   -0.1268    6.1314 N   0  0  0  0  0  0  0  0  0  0  0  0
    1.5647   -2.5960    3.1491 C   0  0  2  0  0  0  0  0  0  0  0  0
    2.9520   -1.9670    3.4078 C   0  0  1  0  0  0  0  0  0  0  0  0
    0.6509   -2.1872    4.5013 C   0  0  1  0  0  0  0  0  0  0  0  0
    2.7417   -1.0312    4.6150 C   0  0  1  0  0  0  0  0  0  0  0  0
    5.3125   -1.7238   -3.6524 C   0  0  2  0  0  0  0  0  0  0  0  0
    6.1398   -1.9490   -2.3601 C   0  0  1  0  0  0  0  0  0  0  0  0
    5.0371   -3.1163   -4.2556 C   0  0  0  0  0  0  0  0  0  0  0  0
    6.3010   -4.1467   -3.5031 C   0  0  1  0  0  0  0  0  0  0  0  0
    2.3090    0.4192    4.3999 C   0  0  0  0  0  0  0  0  0  0  0  0
    5.3318   -1.7557   -0.9647 C   0  0  0  0  0  0  0  0  0  0  0  0
   -1.7479   -0.3816    4.7925 C   0  0  0  0  0  0  0  0  0  0  0  0
   -1.8672   -2.6423    4.7126 C   0  0  0  0  0  0  0  0  0  0  0  0
   -3.0526   -0.8559    4.8372 C   0  0  0  0  0  0  0  0  0  0  0  0
    5.2642   -5.8368   -1.2907 C   0  0  0  0  0  0  0  0  0  0  0  0
    5.6759   -6.8207   -3.4964 C   0  0  0  0  0  0  0  0  0  0  0  0
    4.0211   -6.4133   -1.1441 C   0  0  0  0  0  0  0  0  0  0  0  0
   -4.0571    0.1054    5.0914 C   0  0  0  0  0  0  0  0  0  0  0  0
    3.7946   -7.5394   -2.0592 C   0  0  0  0  0  0  0  0  0  0  0  0
   -2.7263    1.7473    4.3773 C   0  0  0  0  0  0  0  0  0  0  0  0
    2.7676   -6.0099   -0.2929 C   0  0  0  0  0  0  0  0  0  0  0  0
    4.7617   -8.6464   -3.4261 H   0  0  0  0  0  0  0  0  0  0  0  0
   -4.9740    0.7136    6.7078 H   0  0  0  0  0  0  0  0  0  0  0  0
   -4.5934   -0.9385    6.6341 H   0  0  0  0  0  0  0  0  0  0  0  0
    2.2898   -4.4382    3.0440 H   0  0  0  0  0  0  0  0  0  0  0  0
    3.5516   -3.4511    4.5236 H   0  0  0  0  0  0  0  0  0  0  0  0
    6.8245   -1.5715   -4.8572 H   0  0  0  0  0  0  0  0  0  0  0  0
   -0.1044   -1.1174    2.2484 H   0  0  0  0  0  0  0  0  0  0  0  0
    1.5329   -4.1071   -1.4312 H   0  0  0  0  0  0  0  0  0  0  0  0
   -3.4952    0.1665    2.0288 H   0  0  0  0  0  0  0  0  0  0  0  0
    0.7458   -2.2889   -2.3361 H   0  0  0  0  0  0  0  0  0  0  0  0
   -0.2475    2.1787   -1.1333 H   0  0  0  0  0  0  0  0  0  0  0  0
    1.3986   -2.2095    2.1691 H   0  0  0  0  0  0  0  0  0  0  0  0
    3.3830   -1.4332    2.5381 H   0  0  0  0  0  0  0  0  0  0  0  0
    0.5096   -3.1781    4.9563 H   0  0  0  0  0  0  0  0  0  0  0  0
    3.6812   -1.0048    5.1783 H   0  0  0  0  0  0  0  0  0  0  0  0
    4.4219   -1.0975   -3.4565 H   0  0  0  0  0  0  0  0  0  0  0  0
    6.8949   -1.1495   -2.3337 H   0  0  0  0  0  0  0  0  0  0  0  0
    3.9667   -3.3317   -4.0495 H   0  0  0  0  0  0  0  0  0  0  0  0
    5.0149   -3.1420   -5.3465 H   0  0  0  0  0  0  0  0  0  0  0  0
    6.9922   -4.3301   -4.3277 H   0  0  0  0  0  0  0  0  0  0  0  0
    2.6913    0.8814    3.4759 H   0  0  0  0  0  0  0  0  0  0  0  0
    2.6830    1.0460    5.2188 H   0  0  0  0  0  0  0  0  0  0  0  0
    4.6731   -0.8714   -1.0688 H   0  0  0  0  0  0  0  0  0  0  0  0
    6.0380   -1.4923   -0.1714 H   0  0  0  0  0  0  0  0  0  0  0  0
   -1.6256   -3.6950    4.6907 H   0  0  0  0  0  0  0  0  0  0  0  0
    5.5212   -5.0176   -0.6212 H   0  0  0  0  0  0  0  0  0  0  0  0
   -2.6703    2.6959    3.8084 H   0  0  0  0  0  0  0  0  0  0  0  0
    1.8210   -6.0760   -0.8857 H   0  0  0  0  0  0  0  0  0  0  0  0
    2.5635   -6.6092    0.5860 H   0  0  0  0  0  0  0  0  0  0  0  0
    2.7897   -4.9716    0.0799 H   0  0  0  0  0  0  0  0  0  0  0  0
  1 11  1  0  0  0  0
  1 13  1  0  0  0  0
  1 15  1  0  0  0  0
  1 17  2  6  0  0  0
  2 12  1  0  0  0  0
  2 16  1  0  0  0  0
  2 18  1  0  0  0  0
  2 20  2  6  0  0  0
  3 13  1  0  0  0  0
  3 21  1  0  0  0  0
  3 23  1  0  0  0  0
  3 24  2  1  0  0  0
  4 25  1  0  0  0  0
  4 26  2  1  0  0  0
  4 22  1  0  0  0  0
  4 16  1  0  0  0  0
  5 21  1  0  0  0  0
  5 22  1  0  0  0  0
  5 27  1  0  0  0  0
  5 28  2  1  0  0  0
  6 38  1  0  0  0  0
  6 39  1  0  0  0  0
  7 41  1  0  0  0  0
  7 43  1  0  0  0  0
  8 59  1  0  0  0  0
  9 60  1  0  0  0  0
 10 61  1  0  0  0  0
 11 44  1  0  0  0  0
 12 45  1  0  0  0  0
 14 50  2  0  0  0  0
 15 62  1  0  0  0  0
 18 63  1  0  0  0  0
 19 53  2  0  0  0  0
 23 64  1  0  0  0  0
 25 65  1  0  0  0  0
 27 66  1  0  0  0  0
 29 46  1  0  0  0  0
 29 47  1  0  0  0  0
 30 49  1  0  0  0  0
 30 50  1  0  0  0  0
 31 47  2  0  0  0  0
 31 48  1  0  0  0  0
 32 46  2  0  0  0  0
 32 54  1  0  0  0  0
 33 50  1  0  0  0  0
 33 53  1  0  0  0  0
 33 56  1  0  0  0  0
 34 52  1  0  0  0  0
 34 54  2  0  0  0  0
 35 52  1  0  0  0  0
 35 57  1  0  0  0  0
 35 58  1  0  0  0  0
 36  8  1  0  0  0  0
 36 37  1  0  0  0  0
 36 38  1  0  0  0  0
 36 67  1  6  0  0  0
 37  9  1  0  0  0  0
 37 39  1  0  0  0  0
 37 68  1  6  0  0  0
 38 69  1  1  0  0  0
 38 29  1  0  0  0  0
 39 44  1  0  0  0  0
 39 70  1  1  0  0  0
 40 10  1  0  0  0  0
 40 41  1  0  0  0  0
 40 42  1  0  0  0  0
 40 71  1  1  0  0  0
 41 45  1  0  0  0  0
 41 72  1  6  0  0  0
 42 43  1  0  0  0  0
 42 73  1  0  0  0  0
 42 74  1  0  0  0  0
 43 75  1  6  0  0  0
 43 30  1  0  0  0  0
 44 76  1  0  0  0  0
 44 77  1  0  0  0  0
 45 78  1  0  0  0  0
 45 79  1  0  0  0  0
 46 48  1  0  0  0  0
 47 80  1  0  0  0  0
 48 52  2  0  0  0  0
 49 51  2  0  0  0  0
 49 81  1  0  0  0  0
 51 53  1  0  0  0  0
 51 55  1  0  0  0  0
 54 82  1  0  0  0  0
 55 83  1  0  0  0  0
 55 84  1  0  0  0  0
 55 85  1  0  0  0  0
M  END
>  <DRUGBANK_ID>
DB03280

>  <SECONDARY_ACCESSION_NUMBERS>
EXPT02996

>  <COMMON_NAME>
p1-(5'-adenosyl)p5-(5'-thymidyl)pentaphosphate

$$$$
