
 OpenBabel10282417163D

 48 52  0  0  0  0  0  0  0  0999 V2000
   -0.2142   -0.9838   -0.0556 N   0  0  0  0  0  0  0  0  0  0  0  0
   -1.1075    0.0046   -0.0487 N   0  0  0  0  0  0  0  0  0  0  0  0
   -0.8882    2.3888    0.0290 N   0  0  0  0  0  0  0  0  0  0  0  0
   -2.7921    3.4638   -0.9451 N   0  0  0  0  0  0  0  0  0  0  0  0
   -4.9195    3.0719   -0.0104 N   0  0  0  0  0  0  0  0  0  0  0  0
   -4.7281    4.3615   -1.9564 N   0  0  0  0  0  0  0  0  0  0  0  0
  -11.3100    6.3610   -4.4092 N   0  0  0  0  0  0  0  0  0  0  0  0
    2.2501   -1.5131   -0.0093 C   0  0  0  0  0  0  0  0  0  0  0  0
    3.2357   -1.3906    1.1316 C   0  0  0  0  0  0  0  0  0  0  0  0
    3.6768   -1.1065   -0.2663 C   0  0  0  0  0  0  0  0  0  0  0  0
    1.0792   -0.5548   -0.0233 C   0  0  0  0  0  0  0  0  0  0  0  0
    1.0111    0.8211    0.0072 C   0  0  0  0  0  0  0  0  0  0  0  0
   -0.3795    1.1270   -0.0179 C   0  0  0  0  0  0  0  0  0  0  0  0
   -2.2782    2.6907    0.0456 C   0  0  0  0  0  0  0  0  0  0  0  0
   -3.0590    2.1779    1.1090 C   0  0  0  0  0  0  0  0  0  0  0  0
   -8.9161    4.5029   -2.5719 C   0  0  3  0  0  0  0  0  0  0  0  0
   -4.4137    2.4120    1.0122 C   0  0  0  0  0  0  0  0  0  0  0  0
   -2.5803    1.5002    2.2567 C   0  0  0  0  0  0  0  0  0  0  0  0
   -4.1232    3.6036   -0.9368 C   0  0  0  0  0  0  0  0  0  0  0  0
   -7.9109    5.2417   -3.4240 C   0  0  0  0  0  0  0  0  0  0  0  0
   -8.3505    4.0132   -1.2972 C   0  0  0  0  0  0  0  0  0  0  0  0
   -6.0165    4.5561   -1.9985 C   0  0  0  0  0  0  0  0  0  0  0  0
  -10.0057    5.4503   -2.1282 C   0  0  0  0  0  0  0  0  0  0  0  0
   -5.2754    1.9667    2.0114 C   0  0  0  0  0  0  0  0  0  0  0  0
   -6.5949    5.2947   -3.1669 C   0  0  0  0  0  0  0  0  0  0  0  0
   -7.0523    4.1245   -1.0042 C   0  0  0  0  0  0  0  0  0  0  0  0
   -3.4423    1.0477    3.2497 C   0  0  0  0  0  0  0  0  0  0  0  0
   -4.8011    1.2836    3.1287 C   0  0  0  0  0  0  0  0  0  0  0  0
  -10.7186    5.9480   -3.3749 C   0  0  0  0  0  0  0  0  0  0  0  0
   -0.5560   -1.9384   -0.0392 H   0  0  0  0  0  0  0  0  0  0  0  0
   -0.3512    3.1742   -0.3095 H   0  0  0  0  0  0  0  0  0  0  0  0
    1.9841   -2.5280   -0.2956 H   0  0  0  0  0  0  0  0  0  0  0  0
    3.1755   -0.5551    1.8187 H   0  0  0  0  0  0  0  0  0  0  0  0
    3.5375   -2.3192    1.6061 H   0  0  0  0  0  0  0  0  0  0  0  0
    4.3369   -1.8355   -0.7279 H   0  0  0  0  0  0  0  0  0  0  0  0
    3.9088   -0.0848   -0.5367 H   0  0  0  0  0  0  0  0  0  0  0  0
    1.8358    1.5164    0.0364 H   0  0  0  0  0  0  0  0  0  0  0  0
   -9.3299    3.6596   -3.1398 H   0  0  0  0  0  0  0  0  0  0  0  0
   -1.5164    1.3171    2.3694 H   0  0  0  0  0  0  0  0  0  0  0  0
   -8.2882    5.7807   -4.2932 H   0  0  0  0  0  0  0  0  0  0  0  0
   -9.0194    3.6427   -0.5254 H   0  0  0  0  0  0  0  0  0  0  0  0
  -10.7529    4.9566   -1.4934 H   0  0  0  0  0  0  0  0  0  0  0  0
   -9.6198    6.3176   -1.5758 H   0  0  0  0  0  0  0  0  0  0  0  0
   -6.3424    2.1589    1.9213 H   0  0  0  0  0  0  0  0  0  0  0  0
   -5.9273    5.8511   -3.8136 H   0  0  0  0  0  0  0  0  0  0  0  0
   -6.7899    3.8727    0.0039 H   0  0  0  0  0  0  0  0  0  0  0  0
   -3.0421    0.5115    4.1034 H   0  0  0  0  0  0  0  0  0  0  0  0
   -5.4889    0.9397    3.8949 H   0  0  0  0  0  0  0  0  0  0  0  0
  1  2  1  0  0  0  0
  1 11  1  0  0  0  0
  1 30  1  0  0  0  0
  2 13  2  0  0  0  0
  3 13  1  0  0  0  0
  3 14  1  0  0  0  0
  3 31  1  0  0  0  0
  4 14  2  0  0  0  0
  4 19  1  0  0  0  0
  5 17  1  0  0  0  0
  5 19  2  0  0  0  0
  6 19  1  0  0  0  0
  6 22  2  0  0  0  0
  7 29  3  0  0  0  0
  8  9  1  0  0  0  0
  8 10  1  0  0  0  0
  8 11  1  0  0  0  0
  8 32  1  0  0  0  0
  9 10  1  0  0  0  0
  9 33  1  0  0  0  0
  9 34  1  0  0  0  0
 10 35  1  0  0  0  0
 10 36  1  0  0  0  0
 11 12  2  0  0  0  0
 12 13  1  0  0  0  0
 12 37  1  0  0  0  0
 14 15  1  0  0  0  0
 15 17  1  0  0  0  0
 15 18  2  0  0  0  0
 16 20  1  0  0  0  0
 16 21  1  0  0  0  0
 16 23  1  0  0  0  0
 16 38  1  0  0  0  0
 17 24  2  0  0  0  0
 18 27  1  0  0  0  0
 18 39  1  0  0  0  0
 20 25  2  0  0  0  0
 20 40  1  0  0  0  0
 21 26  2  0  0  0  0
 21 41  1  0  0  0  0
 22 25  1  0  0  0  0
 22 26  1  0  0  0  0
 23 29  1  0  0  0  0
 23 42  1  0  0  0  0
 23 43  1  0  0  0  0
 24 28  1  0  0  0  0
 24 44  1  0  0  0  0
 25 45  1  0  0  0  0
 26 46  1  0  0  0  0
 27 28  2  0  0  0  0
 27 47  1  0  0  0  0
 28 48  1  0  0  0  0
M  END
>  <DRUGBANK_ID>
DB07853

>  <COMMON_NAME>
2-[4-[4-[(5-cyclopropyl-1H-pyrazol-3-yl)amino]quinazolin-2-yl]iminocyclohexa-2,5-dien-1-yl]acetonitrile

$$$$
