
 OpenBabel10282417193D

 39 40  0  0  0  0  0  0  0  0999 V2000
   -2.0140    0.6245    0.0088 C   0  0  0  0  0  0  0  0  0  0  0  0
   -2.0901   -0.7277    0.0166 N   0  0  0  0  0  0  0  0  0  0  0  0
   -0.9376   -1.4286    0.0149 C   0  0  0  0  0  0  0  0  0  0  0  0
    0.2746   -0.7242   -0.0155 C   0  0  0  0  0  0  0  0  0  0  0  0
    0.2021    0.6651   -0.0182 C   0  0  0  0  0  0  0  0  0  0  0  0
   -0.9107    1.4108    0.0049 N   0  0  0  0  0  0  0  0  0  0  0  0
    1.5099    1.0723   -0.0729 N   0  0  0  0  0  0  0  0  0  0  0  0
    2.2823   -0.0565   -0.1829 C   0  0  0  0  0  0  0  0  0  0  0  0
    1.5749   -1.1602   -0.0697 N   0  0  0  0  0  0  0  0  0  0  0  0
    2.0060    2.4374   -0.0652 C   0  0  0  0  0  0  0  0  0  0  0  0
    2.8552    2.7726    1.1690 C   0  0  0  0  0  0  0  0  0  0  0  0
    4.1017    1.9929    1.2461 N   0  0  0  0  0  0  0  0  0  0  0  0
    4.8386    2.2290    2.4856 C   0  0  0  0  0  0  0  0  0  0  0  0
    4.0114    1.8618    3.7260 C   0  0  0  0  0  0  0  0  0  0  0  0
    3.5316    0.3985    3.7276 C   0  0  0  0  0  0  0  0  0  0  0  0
    4.6969   -0.5970    3.7556 C   0  0  0  0  0  0  0  0  0  0  0  0
    5.5938   -0.3942    4.9725 C   0  0  0  0  0  0  0  0  0  0  0  0
    4.8594   -0.5908    6.1723 O   0  0  0  0  0  0  0  0  0  0  0  0
   -0.9780   -2.8057    0.0270 N   0  0  0  0  0  0  0  0  0  0  0  0
   -2.9673    1.1433    0.0018 H   0  0  0  0  0  0  0  0  0  0  0  0
    3.3519   -0.0330   -0.3241 H   0  0  0  0  0  0  0  0  0  0  0  0
    2.5760    2.5904   -0.9865 H   0  0  0  0  0  0  0  0  0  0  0  0
    1.1443    3.1147   -0.0833 H   0  0  0  0  0  0  0  0  0  0  0  0
    3.1189    3.8361    1.1543 H   0  0  0  0  0  0  0  0  0  0  0  0
    2.2167    2.6011    2.0406 H   0  0  0  0  0  0  0  0  0  0  0  0
    3.8740    1.0014    1.2570 H   0  0  0  0  0  0  0  0  0  0  0  0
    5.7463    1.6126    2.4491 H   0  0  0  0  0  0  0  0  0  0  0  0
    5.1876    3.2641    2.5290 H   0  0  0  0  0  0  0  0  0  0  0  0
    4.6018    2.0777    4.6204 H   0  0  0  0  0  0  0  0  0  0  0  0
    3.1436    2.5216    3.8208 H   0  0  0  0  0  0  0  0  0  0  0  0
    2.8735    0.2378    4.5884 H   0  0  0  0  0  0  0  0  0  0  0  0
    2.8967    0.1847    2.8596 H   0  0  0  0  0  0  0  0  0  0  0  0
    4.2879   -1.6139    3.7634 H   0  0  0  0  0  0  0  0  0  0  0  0
    5.2939   -0.5117    2.8398 H   0  0  0  0  0  0  0  0  0  0  0  0
    6.4229   -1.1046    4.9579 H   0  0  0  0  0  0  0  0  0  0  0  0
    6.0369    0.6063    4.9935 H   0  0  0  0  0  0  0  0  0  0  0  0
    4.1244    0.0453    6.1896 H   0  0  0  0  0  0  0  0  0  0  0  0
   -0.1043   -3.3111   -0.0150 H   0  0  0  0  0  0  0  0  0  0  0  0
   -1.8710   -3.2682   -0.0093 H   0  0  0  0  0  0  0  0  0  0  0  0
  1  2  2  0  0  0  0
  1  6  1  0  0  0  0
  1 20  1  0  0  0  0
  2  3  1  0  0  0  0
  3  4  2  0  0  0  0
  3 19  1  0  0  0  0
  4  5  1  0  0  0  0
  4  9  1  0  0  0  0
  5  6  2  0  0  0  0
  5  7  1  0  0  0  0
  7  8  1  0  0  0  0
  7 10  1  0  0  0  0
  8  9  2  0  0  0  0
  8 21  1  0  0  0  0
 10 11  1  0  0  0  0
 10 22  1  0  0  0  0
 10 23  1  0  0  0  0
 11 12  1  0  0  0  0
 11 24  1  0  0  0  0
 11 25  1  0  0  0  0
 12 13  1  0  0  0  0
 12 26  1  0  0  0  0
 13 14  1  0  0  0  0
 13 27  1  0  0  0  0
 13 28  1  0  0  0  0
 14 15  1  0  0  0  0
 14 29  1  0  0  0  0
 14 30  1  0  0  0  0
 15 16  1  0  0  0  0
 15 31  1  0  0  0  0
 15 32  1  0  0  0  0
 16 17  1  0  0  0  0
 16 33  1  0  0  0  0
 16 34  1  0  0  0  0
 17 18  1  0  0  0  0
 17 35  1  0  0  0  0
 17 36  1  0  0  0  0
 18 37  1  0  0  0  0
 19 38  1  0  0  0  0
 19 39  1  0  0  0  0
M  END
>  <DRUGBANK_ID>
DB12716

>  <SECONDARY_ACCESSION_NUMBERS>
DB05008

>  <COMMON_NAME>
NB-001

>  <CAS_NUMBER>
686301-48-4

>  <UNII>
J89QT81NBQ

$$$$
