
 OpenBabel10282417133D

 33 35  0  0  0  0  0  0  0  0999 V2000
    0.4112    1.3146    0.3738 C   0  0  1  0  0  0  0  0  0  0  0  0
   -0.6397    0.6224   -0.4956 C   0  0  1  0  0  0  0  0  0  0  0  0
    1.6240    0.5087    0.2803 O   0  0  0  0  0  0  0  0  0  0  0  0
   -0.2022   -0.8286   -0.4806 C   0  0  1  0  0  0  0  0  0  0  0  0
    1.3184   -0.7419   -0.3853 C   0  0  1  0  0  0  0  0  0  0  0  0
   -0.7391   -1.5033    0.6707 O   0  0  0  0  0  0  0  0  0  0  0  0
    0.6653    2.6744   -0.1047 N   0  0  0  0  0  0  0  0  0  0  0  0
   -0.2341    3.7263   -0.0409 C   0  0  0  0  0  0  0  0  0  0  0  0
    1.7287    3.0306   -0.9020 C   0  0  0  0  0  0  0  0  0  0  0  0
    0.2099    4.6961   -0.9305 C   0  0  0  0  0  0  0  0  0  0  0  0
    1.4432    4.2546   -1.4687 C   0  0  0  0  0  0  0  0  0  0  0  0
   -1.3640    3.7890    0.6861 N   0  0  0  0  0  0  0  0  0  0  0  0
   -2.0541    4.9255    0.4291 C   0  0  0  0  0  0  0  0  0  0  0  0
   -0.5997    5.8262   -1.1210 C   0  0  0  0  0  0  0  0  0  0  0  0
   -1.7432    5.9272   -0.4219 N   0  0  0  0  0  0  0  0  0  0  0  0
   -0.2590    6.8196   -2.0048 N   0  0  0  0  0  0  0  0  0  0  0  0
    2.0482   -0.8329   -1.7364 C   0  0  0  0  0  0  0  0  0  0  0  0
    1.4514   -1.7721   -2.6233 O   0  0  0  0  0  0  0  0  0  0  0  0
   -1.9745    0.7783   -0.0277 O   0  0  0  0  0  0  0  0  0  0  0  0
    0.1362    1.3780    1.4329 H   0  0  0  0  0  0  0  0  0  0  0  0
   -0.5925    1.0036   -1.5230 H   0  0  0  0  0  0  0  0  0  0  0  0
   -0.5692   -1.3718   -1.3549 H   0  0  0  0  0  0  0  0  0  0  0  0
    1.7022   -1.5448    0.2559 H   0  0  0  0  0  0  0  0  0  0  0  0
   -0.3845   -1.0985    1.4795 H   0  0  0  0  0  0  0  0  0  0  0  0
    2.5651    2.3677   -1.0525 H   0  0  0  0  0  0  0  0  0  0  0  0
    2.0485    4.7672   -2.1982 H   0  0  0  0  0  0  0  0  0  0  0  0
   -2.9857    5.0556    0.9740 H   0  0  0  0  0  0  0  0  0  0  0  0
    0.5807    6.7462   -2.5553 H   0  0  0  0  0  0  0  0  0  0  0  0
   -0.8908    7.5984   -2.1176 H   0  0  0  0  0  0  0  0  0  0  0  0
    2.0845    0.1364   -2.2412 H   0  0  0  0  0  0  0  0  0  0  0  0
    3.0899   -1.1390   -1.5788 H   0  0  0  0  0  0  0  0  0  0  0  0
    1.3918   -2.6352   -2.1763 H   0  0  0  0  0  0  0  0  0  0  0  0
   -2.0445    0.3367    0.8373 H   0  0  0  0  0  0  0  0  0  0  0  0
  1 20  1  1  0  0  0
  1  7  1  0  0  0  0
  2  1  1  0  0  0  0
  2 19  1  0  0  0  0
  2 21  1  6  0  0  0
  3  1  1  0  0  0  0
  4  2  1  0  0  0  0
  4  6  1  0  0  0  0
  4 22  1  6  0  0  0
  5  3  1  0  0  0  0
  5  4  1  0  0  0  0
  5 23  1  1  0  0  0
  5 17  1  0  0  0  0
  6 24  1  0  0  0  0
  8  7  1  0  0  0  0
  9  7  1  0  0  0  0
  9 25  1  0  0  0  0
 10  8  2  0  0  0  0
 11  9  2  0  0  0  0
 11 10  1  0  0  0  0
 11 26  1  0  0  0  0
 12  8  1  0  0  0  0
 13 12  2  0  0  0  0
 13 27  1  0  0  0  0
 14 10  1  0  0  0  0
 14 16  1  0  0  0  0
 15 13  1  0  0  0  0
 15 14  2  0  0  0  0
 16 28  1  0  0  0  0
 16 29  1  0  0  0  0
 17 18  1  0  0  0  0
 17 30  1  0  0  0  0
 17 31  1  0  0  0  0
 18 32  1  0  0  0  0
 19 33  1  0  0  0  0
M  END
>  <DRUGBANK_ID>
DB03172

>  <SECONDARY_ACCESSION_NUMBERS>
EXPT03017

>  <COMMON_NAME>
Tubercidin

>  <CAS_NUMBER>
69-33-0

>  <UNII>
M351LCX45Y

>  <SYNONYMS>
7-deazaadenosine; Sparsomycin A; Tubercidine

$$$$
