
 OpenBabel10282417123D

 37 36  0  0  0  0  0  0  0  0999 V2000
   -0.1716    6.8167   -0.1735 C   0  0  0  0  0  0  0  0  0  0  0  0
   -0.2667    5.3961   -0.3837 N   0  0  0  0  0  0  0  0  0  0  0  0
    1.0372    4.7565   -0.0938 C   0  0  0  0  0  0  0  0  0  0  0  0
    1.6102    4.7570    1.4217 C   0  0  0  0  0  0  0  0  0  0  0  0
    1.2461    3.7470    2.4052 O   0  0  0  0  0  0  0  0  0  0  0  0
    1.0647    2.2096    1.9021 P   0  0  2  0  0  0  0  0  0  0  0  0
   -0.0243    2.0948    0.8599 O   0  5  0  0  0  0  0  0  0  0  0  0
    0.9757    1.2561    3.0861 O   0  0  0  0  0  0  0  0  0  0  0  0
    2.5137    2.2926    1.3611 O   0  0  0  0  0  0  0  0  0  0  0  0
    3.0903    3.0221   -0.0978 P   0  0  0  0  0  0  0  0  0  0  0  0
    4.2063    3.7070    0.7544 O   0  5  0  0  0  0  0  0  0  0  0  0
    3.4511    1.5835   -0.5659 O   0  5  0  0  0  0  0  0  0  0  0  0
    3.6065    3.6749   -1.4035 O   0  0  0  0  0  0  0  0  0  0  0  0
   -1.3248    4.6873    0.3375 C   0  0  0  0  0  0  0  0  0  0  0  0
   -1.2802    4.6758    1.8567 C   0  0  0  0  0  0  0  0  0  0  0  0
   -1.0711    5.9720    2.5753 C   0  0  0  0  0  0  0  0  0  0  0  0
   -1.6759    6.3136    3.6835 C   0  0  0  0  0  0  0  0  0  0  0  0
   -1.4824    7.6989    4.1973 C   0  0  0  0  0  0  0  0  0  0  0  0
   -2.4734    5.2637    4.3742 C   0  0  0  0  0  0  0  0  0  0  0  0
    0.3600    7.3037   -0.9933 H   0  0  0  0  0  0  0  0  0  0  0  0
    0.4238    7.0784    0.6956 H   0  0  0  0  0  0  0  0  0  0  0  0
   -1.1642    7.2605   -0.0817 H   0  0  0  0  0  0  0  0  0  0  0  0
    0.9616    3.7679   -0.5652 H   0  0  0  0  0  0  0  0  0  0  0  0
    1.7713    5.2971   -0.7151 H   0  0  0  0  0  0  0  0  0  0  0  0
    2.6851    4.8483    1.4372 H   0  0  0  0  0  0  0  0  0  0  0  0
    1.4124    5.7095    1.8845 H   0  0  0  0  0  0  0  0  0  0  0  0
   -2.3032    5.0679    0.0426 H   0  0  0  0  0  0  0  0  0  0  0  0
   -1.3413    3.6560   -0.0359 H   0  0  0  0  0  0  0  0  0  0  0  0
   -2.0389    4.0069    2.2552 H   0  0  0  0  0  0  0  0  0  0  0  0
   -0.4797    4.1107    2.2008 H   0  0  0  0  0  0  0  0  0  0  0  0
   -0.2299    6.6058    2.3154 H   0  0  0  0  0  0  0  0  0  0  0  0
   -2.4423    8.2133    4.1315 H   0  0  0  0  0  0  0  0  0  0  0  0
   -1.0905    7.7126    5.2115 H   0  0  0  0  0  0  0  0  0  0  0  0
   -0.7850    8.2717    3.5642 H   0  0  0  0  0  0  0  0  0  0  0  0
   -3.2042    4.8379    3.6778 H   0  0  0  0  0  0  0  0  0  0  0  0
   -1.7960    4.4540    4.6893 H   0  0  0  0  0  0  0  0  0  0  0  0
   -2.9999    5.6463    5.2374 H   0  0  0  0  0  0  0  0  0  0  0  0
  1  2  1  0  0  0  0
  1 20  1  0  0  0  0
  1 21  1  0  0  0  0
  1 22  1  0  0  0  0
  2  3  1  0  0  0  0
  2 14  1  0  0  0  0
  3  4  1  0  0  0  0
  3 23  1  0  0  0  0
  3 24  1  0  0  0  0
  4  5  1  0  0  0  0
  4 25  1  0  0  0  0
  4 26  1  0  0  0  0
  6  8  2  1  0  0  0
  6  9  1  0  0  0  0
  6  7  1  0  0  0  0
  6  5  1  0  0  0  0
  9 10  1  0  0  0  0
 10 11  1  0  0  0  0
 10 12  1  0  0  0  0
 10 13  2  0  0  0  0
 14 15  1  0  0  0  0
 14 27  1  0  0  0  0
 14 28  1  0  0  0  0
 15 16  1  0  0  0  0
 15 29  1  0  0  0  0
 15 30  1  0  0  0  0
 16 17  2  0  0  0  0
 16 31  1  0  0  0  0
 17 18  1  0  0  0  0
 17 19  1  0  0  0  0
 18 32  1  0  0  0  0
 18 33  1  0  0  0  0
 18 34  1  0  0  0  0
 19 35  1  0  0  0  0
 19 36  1  0  0  0  0
 19 37  1  0  0  0  0
M  CHG  3   7  -1  11  -1  12  -1
M  END
>  <DRUGBANK_ID>
DB02369

>  <SECONDARY_ACCESSION_NUMBERS>
EXPT00160

>  <COMMON_NAME>
3-Aza-2,3-Dihydrogeranyl Diphosphate

$$$$
