LK7
 OpenBabel10282417173D

 38 39  0  0  0  0  0  0  0  0999 V2000
   -2.1608    2.9653    0.0159 C   0  0  0  0  0  0  0  0  0  0  0  0
   -2.7359    2.4097   -1.2573 C   0  0  0  0  0  0  0  0  0  0  0  0
   -2.0288    1.8010   -2.2307 C   0  0  0  0  0  0  0  0  0  0  0  0
   -2.7662    1.3352   -3.4520 C   0  0  0  0  0  0  0  0  0  0  0  0
   -2.2320    0.8407   -4.4392 O   0  0  0  0  0  0  0  0  0  0  0  0
   -0.5849    1.4411   -2.0777 C   0  0  2  0  0  0  0  0  0  0  0  0
    0.2608    1.9107   -3.1473 N   0  0  0  0  0  0  0  0  0  0  0  0
    1.0060    0.8917   -3.7095 C   0  0  0  0  0  0  0  0  0  0  0  0
    1.9268    1.0697   -4.8666 C   0  0  0  0  0  0  0  0  0  0  0  0
    2.5627    0.2152   -5.4409 O   0  0  0  0  0  0  0  0  0  0  0  0
    2.0114    2.3616   -5.2524 O   0  0  0  0  0  0  0  0  0  0  0  0
    0.7251   -0.2784   -3.1077 C   0  0  0  0  0  0  0  0  0  0  0  0
   -0.3002   -0.0807   -2.0073 C   0  0  2  0  0  0  0  0  0  0  0  0
   -1.4908   -1.0467   -2.1081 C   0  0  0  0  0  0  0  0  0  0  0  0
   -1.0961   -2.4771   -2.4071 C   0  0  0  0  0  0  0  0  0  0  0  0
   -0.1360   -2.5442   -3.6055 C   0  0  0  0  0  0  0  0  0  0  0  0
    1.1248   -1.6679   -3.4777 C   0  0  2  0  0  0  0  0  0  0  0  0
    2.1382   -2.1878   -2.6095 O   0  0  0  0  0  0  0  0  0  0  0  0
    1.7692   -2.4787   -1.2786 C   0  0  0  0  0  0  0  0  0  0  0  0
   -0.1526    1.8593   -1.1676 H   0  0  0  0  0  0  0  0  0  0  0  0
    0.1475   -0.2258   -1.0199 H   0  0  0  0  0  0  0  0  0  0  0  0
    1.5871   -1.6701   -4.4695 H   0  0  0  0  0  0  0  0  0  0  0  0
   -1.0843    2.8323    0.1316 H   0  0  0  0  0  0  0  0  0  0  0  0
   -2.6240    2.5003    0.8892 H   0  0  0  0  0  0  0  0  0  0  0  0
   -2.3322    4.0440    0.0412 H   0  0  0  0  0  0  0  0  0  0  0  0
   -3.8110    2.5412   -1.3664 H   0  0  0  0  0  0  0  0  0  0  0  0
   -3.8649    1.3857   -3.3968 H   0  0  0  0  0  0  0  0  0  0  0  0
    0.3864    2.8745   -3.4285 H   0  0  0  0  0  0  0  0  0  0  0  0
    2.6282    2.2957   -6.0115 H   0  0  0  0  0  0  0  0  0  0  0  0
   -2.1597   -0.8104   -2.9247 H   0  0  0  0  0  0  0  0  0  0  0  0
   -2.0886   -0.9959   -1.1908 H   0  0  0  0  0  0  0  0  0  0  0  0
   -1.9917   -3.0652   -2.6338 H   0  0  0  0  0  0  0  0  0  0  0  0
   -0.7142   -2.9096   -1.4882 H   0  0  0  0  0  0  0  0  0  0  0  0
    0.1471   -3.5823   -3.7980 H   0  0  0  0  0  0  0  0  0  0  0  0
   -0.6943   -2.1961   -4.4902 H   0  0  0  0  0  0  0  0  0  0  0  0
    1.3905   -1.5980   -0.7710 H   0  0  0  0  0  0  0  0  0  0  0  0
    1.0675   -3.3070   -1.2496 H   0  0  0  0  0  0  0  0  0  0  0  0
    2.6320   -2.8050   -0.7013 H   0  0  0  0  0  0  0  0  0  0  0  0
  1  2  1  0  0  0  0
  1 23  1  0  0  0  0
  1 24  1  0  0  0  0
  1 25  1  0  0  0  0
  2  3  2  0  0  0  0
  2 26  1  0  0  0  0
  3  4  1  0  0  0  0
  4  5  2  0  0  0  0
  4 27  1  0  0  0  0
  6 13  1  0  0  0  0
  6  7  1  0  0  0  0
  6 20  1  1  0  0  0
  6  3  1  0  0  0  0
  7  8  1  0  0  0  0
  7 28  1  0  0  0  0
  8 12  2  0  0  0  0
  8  9  1  0  0  0  0
  9 10  2  0  0  0  0
  9 11  1  0  0  0  0
 11 29  1  0  0  0  0
 12 17  1  0  0  0  0
 12 13  1  0  0  0  0
 13 14  1  0  0  0  0
 13 21  1  1  0  0  0
 14 15  1  0  0  0  0
 14 30  1  0  0  0  0
 14 31  1  0  0  0  0
 15 16  1  0  0  0  0
 15 32  1  0  0  0  0
 15 33  1  0  0  0  0
 16 17  1  0  0  0  0
 16 34  1  0  0  0  0
 16 35  1  0  0  0  0
 17 18  1  0  0  0  0
 17 22  1  6  0  0  0
 18 19  1  0  0  0  0
 19 36  1  0  0  0  0
 19 37  1  0  0  0  0
 19 38  1  0  0  0  0
M  END
>  <DRUGBANK_ID>
DB08110

>  <COMMON_NAME>
(1R,4S,7AS)-1-(1-FORMYLPROP-1-EN-1-YL)-4-METHOXY-2,4,5,6,7,7A-HEXAHYDRO-1H-ISOINDOLE-3-CARBOXYLIC ACID

$$$$
