
 OpenBabel10282417133D

 30 30  0  0  0  0  0  0  0  0999 V2000
    1.6970   -0.4928    0.6692 O   0  0  0  0  0  0  0  0  0  0  0  0
    1.1479   -3.2416    1.6236 O   0  0  0  0  0  0  0  0  0  0  0  0
    1.3532    1.0849   -1.5794 O   0  0  0  0  0  0  0  0  0  0  0  0
    1.6667   -7.0322   -0.5487 O   0  0  0  0  0  0  0  0  0  0  0  0
    0.4359   -3.0322   -2.0748 N   0  0  0  0  0  0  0  0  0  0  0  0
    0.9511   -4.9101   -0.8297 N   0  0  0  0  0  0  0  0  0  0  0  0
   -0.0790   -0.8108   -1.0200 C   0  0  2  0  0  0  0  0  0  0  0  0
    0.5221   -1.2454    0.3330 C   0  0  1  0  0  0  0  0  0  0  0  0
    0.5505   -2.7959    0.4084 C   0  0  1  0  0  0  0  0  0  0  0  0
    1.1114   -3.4713   -0.8691 C   0  0  2  0  0  0  0  0  0  0  0  0
    0.5513   -1.5750   -2.2033 C   0  0  0  0  0  0  0  0  0  0  0  0
    0.0217    0.6970   -1.2627 C   0  0  0  0  0  0  0  0  0  0  0  0
    1.9433   -5.8401   -0.7077 C   0  0  0  0  0  0  0  0  0  0  0  0
    3.3638   -5.3536   -0.7536 C   0  0  0  0  0  0  0  0  0  0  0  0
   -0.5453   -3.3047   -2.0638 H   0  0  0  0  0  0  0  0  0  0  0  0
    0.0207   -5.3055   -0.7623 H   0  0  0  0  0  0  0  0  0  0  0  0
    2.4954   -0.7902    0.2105 H   0  0  0  0  0  0  0  0  0  0  0  0
    1.9338   -3.7742    1.4241 H   0  0  0  0  0  0  0  0  0  0  0  0
    1.8534    1.0221   -0.7433 H   0  0  0  0  0  0  0  0  0  0  0  0
   -1.1452   -1.0767   -0.9806 H   0  0  0  0  0  0  0  0  0  0  0  0
   -0.1564   -0.9606    1.1445 H   0  0  0  0  0  0  0  0  0  0  0  0
   -0.5030   -3.1048    0.4686 H   0  0  0  0  0  0  0  0  0  0  0  0
    2.1731   -3.2376   -0.9534 H   0  0  0  0  0  0  0  0  0  0  0  0
    1.6124   -1.3205   -2.3148 H   0  0  0  0  0  0  0  0  0  0  0  0
    0.0631   -1.2694   -3.1366 H   0  0  0  0  0  0  0  0  0  0  0  0
   -0.6097    0.9812   -2.1103 H   0  0  0  0  0  0  0  0  0  0  0  0
   -0.3116    1.2654   -0.3889 H   0  0  0  0  0  0  0  0  0  0  0  0
    3.5448   -4.8287   -1.6958 H   0  0  0  0  0  0  0  0  0  0  0  0
    3.5528   -4.6894    0.0944 H   0  0  0  0  0  0  0  0  0  0  0  0
    4.0545   -6.1973   -0.6899 H   0  0  0  0  0  0  0  0  0  0  0  0
  1 17  1  0  0  0  0
  2 18  1  0  0  0  0
  3 12  1  0  0  0  0
  3 19  1  0  0  0  0
  4 13  2  0  0  0  0
  5 10  1  0  0  0  0
  5 11  1  0  0  0  0
  5 15  1  0  0  0  0
  6 13  1  0  0  0  0
  6 16  1  0  0  0  0
  7  8  1  0  0  0  0
  7 11  1  0  0  0  0
  7 20  1  1  0  0  0
  7 12  1  0  0  0  0
  8  1  1  0  0  0  0
  8  9  1  0  0  0  0
  8 21  1  1  0  0  0
  9 10  1  0  0  0  0
  9 22  1  1  0  0  0
  9  2  1  0  0  0  0
 10  6  1  0  0  0  0
 10 23  1  6  0  0  0
 11 24  1  0  0  0  0
 11 25  1  0  0  0  0
 12 26  1  0  0  0  0
 12 27  1  0  0  0  0
 13 14  1  0  0  0  0
 14 28  1  0  0  0  0
 14 29  1  0  0  0  0
 14 30  1  0  0  0  0
M  END
>  <DRUGBANK_ID>
DB03861

>  <SECONDARY_ACCESSION_NUMBERS>
EXPT01846

>  <COMMON_NAME>
(2R,3R,4S,5R)-2-acetamido-3,4-dihydroxy-5-hydroxymethyl-piperidine

>  <CAS_NUMBER>
176246-06-3

$$$$
