
 OpenBabel10282417123D

 24 24  0  0  0  0  0  0  0  0999 V2000
    0.9689    0.0801   -0.0568 C   0  0  0  0  0  0  0  0  0  0  0  0
    1.4330   -0.6170   -5.7364 C   0  0  0  0  0  0  0  0  0  0  0  0
    1.4513   -2.0555   -5.8677 C   0  0  0  0  0  0  0  0  0  0  0  0
    0.9288   -0.0277   -4.6475 C   0  0  0  0  0  0  0  0  0  0  0  0
    0.2333   -0.1699   -1.1495 C   0  0  0  0  0  0  0  0  0  0  0  0
    0.9746   -2.8818   -4.9156 C   0  0  0  0  0  0  0  0  0  0  0  0
    0.2890   -0.8049   -3.5273 C   0  0  1  0  0  0  0  0  0  0  0  0
    0.3741   -2.3589   -3.6400 C   0  0  1  0  0  0  0  0  0  0  0  0
   -1.3472   -0.1750   -1.0001 C   0  0  0  0  0  0  0  0  0  0  0  0
    1.0891   -4.4195   -5.0499 C   0  0  0  0  0  0  0  0  0  0  0  0
   -0.9553   -2.8849   -3.5386 O   0  0  0  0  0  0  0  0  0  0  0  0
   -2.0363   -0.5197   -1.9882 O   0  0  0  0  0  0  0  0  0  0  0  0
   -1.7775    0.1683    0.1498 O   0  5  0  0  0  0  0  0  0  0  0  0
    1.5837   -4.8378   -6.1429 O   0  5  0  0  0  0  0  0  0  0  0  0
    0.7543   -5.1109   -4.0452 O   0  0  0  0  0  0  0  0  0  0  0  0
    0.9406   -0.3557   -2.3337 O   0  0  0  0  0  0  0  0  0  0  0  0
   -0.7410   -0.4728   -3.5980 H   0  0  0  0  0  0  0  0  0  0  0  0
    0.9617   -2.7544   -2.8001 H   0  0  0  0  0  0  0  0  0  0  0  0
    0.4900    0.2809    0.8955 H   0  0  0  0  0  0  0  0  0  0  0  0
    2.0500    0.0937   -0.1025 H   0  0  0  0  0  0  0  0  0  0  0  0
    1.8252   -0.0143   -6.5467 H   0  0  0  0  0  0  0  0  0  0  0  0
    1.8900   -2.4640   -6.7736 H   0  0  0  0  0  0  0  0  0  0  0  0
    0.8852    1.0515   -4.5502 H   0  0  0  0  0  0  0  0  0  0  0  0
   -1.1803   -2.8002   -2.5947 H   0  0  0  0  0  0  0  0  0  0  0  0
  1 19  1  0  0  0  0
  1 20  1  0  0  0  0
  2 21  1  0  0  0  0
  3  2  1  0  0  0  0
  3 22  1  0  0  0  0
  4  2  2  0  0  0  0
  4 23  1  0  0  0  0
  5  1  2  0  0  0  0
  6  3  2  0  0  0  0
  7  4  1  0  0  0  0
  7 16  1  0  0  0  0
  7 17  1  1  0  0  0
  8  6  1  0  0  0  0
  8  7  1  0  0  0  0
  8 18  1  1  0  0  0
  8 11  1  0  0  0  0
  9  5  1  0  0  0  0
 10  6  1  0  0  0  0
 11 24  1  0  0  0  0
 12  9  2  0  0  0  0
 13  9  1  0  0  0  0
 14 10  1  0  0  0  0
 15 10  2  0  0  0  0
 16  5  1  0  0  0  0
M  CHG  2  13  -1  14  -1
M  END
>  <DRUGBANK_ID>
DB02793

>  <SECONDARY_ACCESSION_NUMBERS>
EXPT01933

>  <COMMON_NAME>
Isochorismic Acid

>  <CAS_NUMBER>
22642-82-6

$$$$
