A94
 OpenBabel10282417163D

 46 48  0  0  0  0  0  0  0  0999 V2000
   -1.2226   -0.2125    0.0086 C   0  0  0  0  0  0  0  0  0  0  0  0
   -0.1181   -0.9825   -0.0022 N   0  0  0  0  0  0  0  0  0  0  0  0
    1.0632   -0.3611    0.0028 C   0  0  0  0  0  0  0  0  0  0  0  0
    1.2272    0.9638    0.0049 N   0  0  0  0  0  0  0  0  0  0  0  0
    0.1120    1.7263    0.0056 C   0  0  0  0  0  0  0  0  0  0  0  0
   -1.1550    1.1670    0.0191 C   0  0  0  0  0  0  0  0  0  0  0  0
   -2.5342   -0.9379    0.0157 C   0  0  0  0  0  0  0  0  0  0  0  0
    2.1789   -1.1416    0.0217 N   0  0  0  0  0  0  0  0  0  0  0  0
    0.2959    3.2321   -0.0455 C   0  0  0  0  0  0  0  0  0  0  0  0
    1.0460    3.7779    1.1229 N   0  0  0  0  0  0  0  0  0  0  0  0
    1.2498    5.4538    1.0187 S   0  0  0  0  0  0  0  0  0  0  0  0
   -0.0835    5.9877    1.1992 O   0  0  0  0  0  0  0  0  0  0  0  0
    2.0289    5.7558   -0.1605 O   0  0  0  0  0  0  0  0  0  0  0  0
   -0.6894    9.1216    1.1674 C   0  0  0  0  0  0  0  0  0  0  0  0
   -0.2148    8.9620    2.5858 C   0  0  0  0  0  0  0  0  0  0  0  0
    0.8179   10.0219    2.6800 C   0  0  0  0  0  0  0  0  0  0  0  0
    0.5571   10.9990    1.6086 C   0  0  0  0  0  0  0  0  0  0  0  0
   -0.3721   10.4603    0.7721 O   0  0  0  0  0  0  0  0  0  0  0  0
    1.0973   12.0834    1.4653 O   0  0  0  0  0  0  0  0  0  0  0  0
    1.8813   10.1021    3.4941 C   0  0  0  0  0  0  0  0  0  0  0  0
    2.3725    9.1287    4.3393 N   0  0  0  0  0  0  0  0  0  0  0  0
    2.6023    7.7782    3.9915 C   0  0  0  0  0  0  0  0  0  0  0  0
    2.9467    6.8430    4.9688 C   0  0  0  0  0  0  0  0  0  0  0  0
    2.9874    5.4736    4.6610 C   0  0  0  0  0  0  0  0  0  0  0  0
    2.5939    5.0081    3.4036 C   0  0  0  0  0  0  0  0  0  0  0  0
    2.2028    5.9265    2.4451 C   0  0  0  0  0  0  0  0  0  0  0  0
    2.3561    7.2927    2.6956 C   0  0  0  0  0  0  0  0  0  0  0  0
   -2.0506    1.7755    0.0296 H   0  0  0  0  0  0  0  0  0  0  0  0
   -2.6160   -1.5733   -0.8723 H   0  0  0  0  0  0  0  0  0  0  0  0
   -2.6011   -1.5713    0.9063 H   0  0  0  0  0  0  0  0  0  0  0  0
   -3.3837   -0.2484    0.0218 H   0  0  0  0  0  0  0  0  0  0  0  0
    2.0520   -2.1379    0.0121 H   0  0  0  0  0  0  0  0  0  0  0  0
    3.0742   -0.6875    0.0237 H   0  0  0  0  0  0  0  0  0  0  0  0
    0.8224    3.4779   -0.9740 H   0  0  0  0  0  0  0  0  0  0  0  0
   -0.6939    3.7048   -0.0795 H   0  0  0  0  0  0  0  0  0  0  0  0
    0.5713    3.5246    1.9894 H   0  0  0  0  0  0  0  0  0  0  0  0
   -0.2051    8.4269    0.4712 H   0  0  0  0  0  0  0  0  0  0  0  0
   -1.7701    8.9693    1.1082 H   0  0  0  0  0  0  0  0  0  0  0  0
    0.0982    7.9418    2.7765 H   0  0  0  0  0  0  0  0  0  0  0  0
   -1.0107    9.1573    3.3073 H   0  0  0  0  0  0  0  0  0  0  0  0
    2.4861   11.0112    3.5169 H   0  0  0  0  0  0  0  0  0  0  0  0
    2.7261    9.4454    5.2381 H   0  0  0  0  0  0  0  0  0  0  0  0
    3.1906    7.1649    5.9787 H   0  0  0  0  0  0  0  0  0  0  0  0
    3.2799    4.7595    5.4260 H   0  0  0  0  0  0  0  0  0  0  0  0
    2.5912    3.9454    3.1886 H   0  0  0  0  0  0  0  0  0  0  0  0
    2.1624    7.9853    1.8811 H   0  0  0  0  0  0  0  0  0  0  0  0
  1  2  2  0  0  0  0
  1  6  1  0  0  0  0
  1  7  1  0  0  0  0
  2  3  1  0  0  0  0
  3  8  1  0  0  0  0
  3  4  2  0  0  0  0
  4  5  1  0  0  0  0
  5  9  1  0  0  0  0
  5  6  2  0  0  0  0
  6 28  1  0  0  0  0
  7 29  1  0  0  0  0
  7 30  1  0  0  0  0
  7 31  1  0  0  0  0
  8 32  1  0  0  0  0
  8 33  1  0  0  0  0
  9 10  1  0  0  0  0
  9 34  1  0  0  0  0
  9 35  1  0  0  0  0
 10 11  1  0  0  0  0
 10 36  1  0  0  0  0
 11 12  2  0  0  0  0
 11 26  1  0  0  0  0
 11 13  2  0  0  0  0
 14 18  1  0  0  0  0
 14 15  1  0  0  0  0
 14 37  1  0  0  0  0
 14 38  1  0  0  0  0
 15 16  1  0  0  0  0
 15 39  1  0  0  0  0
 15 40  1  0  0  0  0
 16 20  2  0  0  0  0
 16 17  1  0  0  0  0
 17 19  2  0  0  0  0
 17 18  1  0  0  0  0
 20 21  1  0  0  0  0
 20 41  1  0  0  0  0
 21 22  1  0  0  0  0
 21 42  1  0  0  0  0
 22 23  2  0  0  0  0
 22 27  1  0  0  0  0
 23 24  1  0  0  0  0
 23 43  1  0  0  0  0
 24 25  2  0  0  0  0
 24 44  1  0  0  0  0
 25 26  1  0  0  0  0
 25 45  1  0  0  0  0
 26 27  2  0  0  0  0
 27 46  1  0  0  0  0
M  END
>  <DRUGBANK_ID>
DB07325

>  <COMMON_NAME>
N-[(2-AMINO-6-METHYLPYRIMIDIN-4-YL)METHYL]-3-{[(E)-(2-OXODIHYDROFURAN-3(2H)-YLIDENE)METHYL]AMINO}BENZENESULFONAMIDE

$$$$
