
 OpenBabel10282417193D

 52 55  0  0  1  0  0  0  0  0999 V2000
   -3.8260    2.6849    5.7466 C   0  0  0  0  0  0  0  0  0  0  0  0
   -3.7632    3.5639    4.5292 C   0  0  0  0  0  0  0  0  0  0  0  0
   -4.0480    3.0711    3.2514 C   0  0  0  0  0  0  0  0  0  0  0  0
   -3.7911    3.8529    2.1174 C   0  0  0  0  0  0  0  0  0  0  0  0
   -3.3684    5.1749    2.2462 C   0  0  0  0  0  0  0  0  0  0  0  0
   -3.2266    5.7179    3.5252 C   0  0  0  0  0  0  0  0  0  0  0  0
   -3.3472    4.8938    4.6545 C   0  0  0  0  0  0  0  0  0  0  0  0
   -3.0597    5.9264    1.0426 C   0  0  0  0  0  0  0  0  0  0  0  0
   -2.7941    6.5027    0.0421 C   0  0  0  0  0  0  0  0  0  0  0  0
   -2.4577    7.3406   -1.0851 C   0  0  0  0  0  0  0  0  0  0  0  0
   -2.3988    7.0328   -2.4293 C   0  0  0  0  0  0  0  0  0  0  0  0
   -1.9714    8.1530   -3.2209 C   0  0  0  0  0  0  0  0  0  0  0  0
   -1.6461    9.2381   -2.4324 C   0  0  0  0  0  0  0  0  0  0  0  0
   -2.1499    8.9886   -0.8293 S   0  0  0  0  0  0  0  0  0  0  0  0
   -0.9633   10.8155   -2.8069 S   0  0  0  0  0  0  0  0  0  0  0  0
    0.2812   10.5869   -3.4992 O   0  0  0  0  0  0  0  0  0  0  0  0
   -2.0471   11.4786   -3.5083 O   0  0  0  0  0  0  0  0  0  0  0  0
   -0.6356   11.7198   -1.4250 N   0  0  0  0  0  0  0  0  0  0  0  0
    0.0409   11.3399   -0.1689 C   0  0  2  0  0  0  0  0  0  0  0  0
   -0.2057   12.3642    1.1291 C   0  0  0  0  0  0  0  0  0  0  0  0
   -1.3631   13.5059    1.2109 C   0  0  0  0  0  0  0  0  0  0  0  0
   -1.6763   14.6266    2.1620 C   0  0  0  0  0  0  0  0  0  0  0  0
   -3.1709   14.4001    1.9428 N   0  0  0  0  0  0  0  0  0  0  0  0
   -3.1507   14.6973    0.5675 C   0  0  0  0  0  0  0  0  0  0  0  0
   -2.2237   13.7904    0.1205 C   0  0  0  0  0  0  0  0  0  0  0  0
   -2.3483   13.5254   -1.2182 C   0  0  0  0  0  0  0  0  0  0  0  0
   -2.2221   14.5967   -2.0569 C   0  0  0  0  0  0  0  0  0  0  0  0
   -2.7600   15.7661   -1.5685 C   0  0  0  0  0  0  0  0  0  0  0  0
   -3.3733   15.7979   -0.2791 C   0  0  0  0  0  0  0  0  0  0  0  0
    1.4863   11.2975   -0.6878 C   0  0  0  0  0  0  0  0  0  0  0  0
    2.1042   10.2982   -1.0213 O   0  0  0  0  0  0  0  0  0  0  0  0
    1.9353   12.5355   -1.0001 O   0  0  0  0  0  0  0  0  0  0  0  0
   -2.8463    2.2310    5.9357 H   0  0  0  0  0  0  0  0  0  0  0  0
   -4.5666    1.8875    5.6325 H   0  0  0  0  0  0  0  0  0  0  0  0
   -4.1062    3.2693    6.6299 H   0  0  0  0  0  0  0  0  0  0  0  0
   -4.4574    2.0726    3.1197 H   0  0  0  0  0  0  0  0  0  0  0  0
   -3.9191    3.4216    1.1275 H   0  0  0  0  0  0  0  0  0  0  0  0
   -3.0081    6.7724    3.6705 H   0  0  0  0  0  0  0  0  0  0  0  0
   -3.1161    5.2913    5.6413 H   0  0  0  0  0  0  0  0  0  0  0  0
   -2.6402    6.0655   -2.8514 H   0  0  0  0  0  0  0  0  0  0  0  0
   -1.8634    8.1707   -4.3016 H   0  0  0  0  0  0  0  0  0  0  0  0
   -0.2703   12.6298   -1.7267 H   0  0  0  0  0  0  0  0  0  0  0  0
   -0.1894   10.3174    0.1378 H   0  0  0  0  0  0  0  0  0  0  0  0
   -0.3456   11.6858    1.9954 H   0  0  0  0  0  0  0  0  0  0  0  0
    0.7388   12.8850    1.3038 H   0  0  0  0  0  0  0  0  0  0  0  0
   -1.9186   15.7312    2.1649 H   0  0  0  0  0  0  0  0  0  0  0  0
   -3.3720   13.5051    2.3743 H   0  0  0  0  0  0  0  0  0  0  0  0
   -2.4853   12.5334   -1.5701 H   0  0  0  0  0  0  0  0  0  0  0  0
   -1.8871   14.4557   -3.0815 H   0  0  0  0  0  0  0  0  0  0  0  0
   -2.7952   16.6181   -2.2373 H   0  0  0  0  0  0  0  0  0  0  0  0
   -3.8585   16.6855    0.0820 H   0  0  0  0  0  0  0  0  0  0  0  0
    2.7747   12.3942   -1.4869 H   0  0  0  0  0  0  0  0  0  0  0  0
  1  2  1  0  0  0  0
  1 33  1  0  0  0  0
  1 34  1  0  0  0  0
  1 35  1  0  0  0  0
  2  3  2  0  0  0  0
  2  7  1  0  0  0  0
  3  4  1  0  0  0  0
  3 36  1  0  0  0  0
  4  5  2  0  0  0  0
  4 37  1  0  0  0  0
  5  6  1  0  0  0  0
  5  8  1  0  0  0  0
  6  7  2  0  0  0  0
  6 38  1  0  0  0  0
  7 39  1  0  0  0  0
  8  9  3  0  0  0  0
  9 10  1  0  0  0  0
 10 11  2  0  0  0  0
 10 14  1  0  0  0  0
 11 12  1  0  0  0  0
 11 40  1  0  0  0  0
 12 13  2  0  0  0  0
 12 41  1  0  0  0  0
 13 14  1  0  0  0  0
 13 15  1  0  0  0  0
 15 16  2  0  0  0  0
 15 17  2  0  0  0  0
 15 18  1  0  0  0  0
 18 42  1  0  0  0  0
 19 30  1  0  0  0  0
 19 43  1  1  0  0  0
 19 20  1  0  0  0  0
 19 18  1  0  0  0  0
 20 21  1  0  0  0  0
 20 44  1  0  0  0  0
 20 45  1  0  0  0  0
 21 22  2  0  0  0  0
 21 25  1  0  0  0  0
 22 23  1  0  0  0  0
 22 46  1  0  0  0  0
 23 24  1  0  0  0  0
 23 47  1  0  0  0  0
 24 25  1  0  0  0  0
 24 29  2  0  0  0  0
 25 26  2  0  0  0  0
 26 27  1  0  0  0  0
 26 48  1  0  0  0  0
 27 28  2  0  0  0  0
 27 49  1  0  0  0  0
 28 29  1  0  0  0  0
 28 50  1  0  0  0  0
 29 51  1  0  0  0  0
 30 31  2  0  0  0  0
 30 32  1  0  0  0  0
 32 52  1  0  0  0  0
M  END
>  <DRUGBANK_ID>
DB12149

>  <COMMON_NAME>
S-3304

>  <CAS_NUMBER>
203640-27-1

>  <UNII>
BK459F050X

$$$$
