
 OpenBabel10282417213D

 34 35  0  0  0  0  0  0  0  0999 V2000
    1.1706    0.1072    0.0797 O   0  0  0  0  0  0  0  0  0  0  0  0
    2.8244   -0.8749    1.2195 O   0  0  0  0  0  0  0  0  0  0  0  0
    1.2161    1.7730   -1.7331 C   0  0  1  0  0  0  0  0  0  0  0  0
    0.4641    2.1319   -3.0223 C   0  0  0  0  0  0  0  0  0  0  0  0
    0.0981    0.6468   -3.3173 C   0  0  2  0  0  0  0  0  0  0  0  0
    0.3222    0.9146   -0.8595 C   0  0  1  0  0  0  0  0  0  0  0  0
   -0.5071    0.1415   -1.9498 C   0  0  0  0  0  0  0  0  0  0  0  0
    2.1945    0.7167   -2.3805 C   0  0  0  0  0  0  0  0  0  0  0  0
    1.4283   -0.0610   -3.4288 C   0  0  0  0  0  0  0  0  0  0  0  0
    1.6349    2.9938   -0.8816 C   0  0  0  0  0  0  0  0  0  0  0  0
    1.4301    2.8192   -4.0287 C   0  0  0  0  0  0  0  0  0  0  0  0
   -0.7475    3.0375   -2.8420 C   0  0  0  0  0  0  0  0  0  0  0  0
    2.5106   -0.0031    0.4323 C   0  0  0  0  0  0  0  0  0  0  0  0
    3.6816    0.7866   -0.2239 C   0  0  0  0  0  0  0  0  0  0  0  0
   -0.5202    0.4734   -4.1990 H   0  0  0  0  0  0  0  0  0  0  0  0
   -0.3930    1.4695   -0.2329 H   0  0  0  0  0  0  0  0  0  0  0  0
   -1.5630    0.4424   -1.9354 H   0  0  0  0  0  0  0  0  0  0  0  0
   -0.4725   -0.9449   -1.8260 H   0  0  0  0  0  0  0  0  0  0  0  0
    3.1024    1.1748   -2.7677 H   0  0  0  0  0  0  0  0  0  0  0  0
    2.4232   -0.1436   -1.7683 H   0  0  0  0  0  0  0  0  0  0  0  0
    1.3513   -1.1259   -3.1517 H   0  0  0  0  0  0  0  0  0  0  0  0
    1.9590   -0.0204   -4.3799 H   0  0  0  0  0  0  0  0  0  0  0  0
    1.9276    2.7344    0.1455 H   0  0  0  0  0  0  0  0  0  0  0  0
    2.4401    3.5655   -1.3443 H   0  0  0  0  0  0  0  0  0  0  0  0
    0.7998    3.6840   -0.6977 H   0  0  0  0  0  0  0  0  0  0  0  0
    1.8231    3.7530   -3.6065 H   0  0  0  0  0  0  0  0  0  0  0  0
    2.3142    2.2327   -4.2999 H   0  0  0  0  0  0  0  0  0  0  0  0
    0.9277    3.0417   -4.9694 H   0  0  0  0  0  0  0  0  0  0  0  0
   -1.5117    2.6087   -2.1921 H   0  0  0  0  0  0  0  0  0  0  0  0
   -0.4569    4.0012   -2.4126 H   0  0  0  0  0  0  0  0  0  0  0  0
   -1.2050    3.2350   -3.8152 H   0  0  0  0  0  0  0  0  0  0  0  0
    4.0498    0.3062   -1.1376 H   0  0  0  0  0  0  0  0  0  0  0  0
    3.5243    1.8371   -0.4237 H   0  0  0  0  0  0  0  0  0  0  0  0
    4.5846    0.7623    0.3821 H   0  0  0  0  0  0  0  0  0  0  0  0
  1 13  1  0  0  0  0
  2 13  2  0  0  0  0
  3  4  1  0  0  0  0
  3  6  1  0  0  0  0
  3  8  1  0  0  0  0
  3 10  1  1  0  0  0
  4 11  1  0  0  0  0
  4 12  1  0  0  0  0
  5  4  1  0  0  0  0
  5  7  1  0  0  0  0
  5  9  1  0  0  0  0
  5 15  1  6  0  0  0
  6  1  1  0  0  0  0
  6  7  1  0  0  0  0
  6 16  1  1  0  0  0
  7 17  1  0  0  0  0
  7 18  1  0  0  0  0
  8  9  1  0  0  0  0
  8 19  1  0  0  0  0
  8 20  1  0  0  0  0
  9 21  1  0  0  0  0
  9 22  1  0  0  0  0
 10 23  1  0  0  0  0
 10 24  1  0  0  0  0
 10 25  1  0  0  0  0
 11 26  1  0  0  0  0
 11 27  1  0  0  0  0
 11 28  1  0  0  0  0
 12 29  1  0  0  0  0
 12 30  1  0  0  0  0
 12 31  1  0  0  0  0
 13 14  1  0  0  0  0
 14 32  1  0  0  0  0
 14 33  1  0  0  0  0
 14 34  1  0  0  0  0
M  END
>  <DRUGBANK_ID>
DB14665

>  <SECONDARY_ACCESSION_NUMBERS>
DBSALT002203

>  <COMMON_NAME>
Bornyl acetate

>  <CAS_NUMBER>
76-49-3

>  <UNII>
213431586X

>  <SYNONYMS>
Bornyl acetate

$$$$
