
 OpenBabel10282417133D

 50 52  0  0  1  0  0  0  0  0999 V2000
   -2.3157    1.1775   -3.0588 C   0  0  0  0  0  0  0  0  0  0  0  0
   -0.9175    1.4880   -2.7120 N   0  0  0  0  0  0  0  0  0  0  0  0
   -0.7754    2.9572   -2.5248 C   0  0  0  0  0  0  0  0  0  0  0  0
   -1.7981    3.8164   -1.6311 C   0  0  0  0  0  0  0  0  0  0  0  0
   -1.8458    3.5497   -0.1362 C   0  0  2  0  0  0  0  0  0  0  0  0
   -2.8381    2.4941    0.3581 N   0  0  0  0  0  0  0  0  0  0  0  0
   -1.9970    4.6678    0.9549 C   0  0  0  0  0  0  0  0  0  0  0  0
   -0.8179    5.0656    1.5370 O   0  0  0  0  0  0  0  0  0  0  0  0
   -3.0469    4.9065    1.4907 O   0  0  0  0  0  0  0  0  0  0  0  0
   -0.2736    0.5938   -1.6490 C   0  0  0  0  0  0  0  0  0  0  0  0
   -0.7173    0.8624   -0.1943 C   0  0  1  0  0  0  0  0  0  0  0  0
   -1.5332   -0.1138    0.4529 O   0  0  0  0  0  0  0  0  0  0  0  0
   -1.3332    0.0289    1.8758 C   0  0  2  0  0  0  0  0  0  0  0  0
    0.0308    0.6795    2.1131 C   0  0  2  0  0  0  0  0  0  0  0  0
    0.0804    1.3164    3.4062 O   0  0  0  0  0  0  0  0  0  0  0  0
    0.0685    1.6303    0.9625 C   0  0  2  0  0  0  0  0  0  0  0  0
   -0.5327    2.7257    1.7246 O   0  0  0  0  0  0  0  0  0  0  0  0
   -1.3107   -1.2770    2.4105 N   0  0  0  0  0  0  0  0  0  0  0  0
   -0.4364   -2.2172    1.9605 C   0  0  0  0  0  0  0  0  0  0  0  0
   -0.5013   -3.2927    2.6934 N   0  0  0  0  0  0  0  0  0  0  0  0
   -1.4781   -2.9974    3.6311 C   0  0  0  0  0  0  0  0  0  0  0  0
   -2.0142   -3.7557    4.6622 C   0  0  0  0  0  0  0  0  0  0  0  0
   -1.5704   -5.0369    4.8619 N   0  0  0  0  0  0  0  0  0  0  0  0
   -2.9761   -3.2162    5.4446 N   0  0  0  0  0  0  0  0  0  0  0  0
   -3.3708   -1.9454    5.1919 C   0  0  0  0  0  0  0  0  0  0  0  0
   -2.9271   -1.1124    4.2254 N   0  0  0  0  0  0  0  0  0  0  0  0
   -1.9895   -1.7272    3.4846 C   0  0  0  0  0  0  0  0  0  0  0  0
   -2.5999    1.6679   -4.0030 H   0  0  0  0  0  0  0  0  0  0  0  0
   -3.0269    1.5389   -2.3135 H   0  0  0  0  0  0  0  0  0  0  0  0
   -2.5010    0.1084   -3.1856 H   0  0  0  0  0  0  0  0  0  0  0  0
    0.2692    3.1532   -2.2440 H   0  0  0  0  0  0  0  0  0  0  0  0
   -0.8557    3.4023   -3.5311 H   0  0  0  0  0  0  0  0  0  0  0  0
   -1.4741    4.8557   -1.7360 H   0  0  0  0  0  0  0  0  0  0  0  0
   -2.8120    3.7247   -2.0103 H   0  0  0  0  0  0  0  0  0  0  0  0
   -0.7718    3.3303   -0.1036 H   0  0  0  0  0  0  0  0  0  0  0  0
   -2.4130    1.7467    0.8928 H   0  0  0  0  0  0  0  0  0  0  0  0
   -3.2571    1.9056   -0.3646 H   0  0  0  0  0  0  0  0  0  0  0  0
   -0.2328    4.2834    1.7083 H   0  0  0  0  0  0  0  0  0  0  0  0
   -0.5201   -0.4469   -1.9061 H   0  0  0  0  0  0  0  0  0  0  0  0
    0.8109    0.7092   -1.7015 H   0  0  0  0  0  0  0  0  0  0  0  0
   -1.4757    1.4578   -0.6051 H   0  0  0  0  0  0  0  0  0  0  0  0
   -2.1794    0.5677    2.3335 H   0  0  0  0  0  0  0  0  0  0  0  0
    0.8951    0.0307    2.0270 H   0  0  0  0  0  0  0  0  0  0  0  0
   -0.4435    2.1463    3.3597 H   0  0  0  0  0  0  0  0  0  0  0  0
    1.0208    2.0332    0.6206 H   0  0  0  0  0  0  0  0  0  0  0  0
   -1.4941    2.5949    1.9170 H   0  0  0  0  0  0  0  0  0  0  0  0
    0.2193   -2.0156    1.1211 H   0  0  0  0  0  0  0  0  0  0  0  0
   -0.8537   -5.3807    4.2338 H   0  0  0  0  0  0  0  0  0  0  0  0
   -1.9713   -5.5848    5.5987 H   0  0  0  0  0  0  0  0  0  0  0  0
   -4.1463   -1.5520    5.8457 H   0  0  0  0  0  0  0  0  0  0  0  0
  1  2  1  0  0  0  0
  1 28  1  0  0  0  0
  1 29  1  0  0  0  0
  1 30  1  0  0  0  0
  2  3  1  0  0  0  0
  2 10  1  0  0  0  0
  3  4  1  0  0  0  0
  3 31  1  0  0  0  0
  3 32  1  0  0  0  0
  4 33  1  0  0  0  0
  4 34  1  0  0  0  0
  5  7  1  0  0  0  0
  5 35  1  1  0  0  0
  5  6  1  0  0  0  0
  5  4  1  0  0  0  0
  6 36  1  0  0  0  0
  6 37  1  0  0  0  0
  7  8  1  0  0  0  0
  7  9  2  0  0  0  0
  8 38  1  0  0  0  0
 10 39  1  0  0  0  0
 10 40  1  0  0  0  0
 11 10  1  0  0  0  0
 11 12  1  0  0  0  0
 11 16  1  0  0  0  0
 11 41  1  6  0  0  0
 12 13  1  0  0  0  0
 13 14  1  0  0  0  0
 13 42  1  1  0  0  0
 13 18  1  0  0  0  0
 14 15  1  0  0  0  0
 14 16  1  0  0  0  0
 14 43  1  6  0  0  0
 15 44  1  0  0  0  0
 16 17  1  0  0  0  0
 16 45  1  6  0  0  0
 17 46  1  0  0  0  0
 18 19  1  0  0  0  0
 18 27  1  0  0  0  0
 19 20  2  0  0  0  0
 19 47  1  0  0  0  0
 20 21  1  0  0  0  0
 21 22  2  0  0  0  0
 21 27  1  0  0  0  0
 22 23  1  0  0  0  0
 22 24  1  0  0  0  0
 23 48  1  0  0  0  0
 23 49  1  0  0  0  0
 24 25  2  0  0  0  0
 25 26  1  0  0  0  0
 25 50  1  0  0  0  0
 26 27  2  0  0  0  0
M  END
>  <DRUGBANK_ID>
DB03458

>  <SECONDARY_ACCESSION_NUMBERS>
EXPT02836

>  <COMMON_NAME>
N(4)-Adenosyl-N(4)-methyl-2,4-diaminobutanoic acid

>  <CAS_NUMBER>
111770-79-7

>  <UNII>
AC4E80KX81

>  <SYNONYMS>
5'-{[(3S)-3-Amino-3-carboxypropyl](methyl)amino}-5'-deoxyadenosine

$$$$
