
 OpenBabel10282417223D

 20 19  0  0  0  0  0  0  0  0999 V2000
    1.0439   -0.0643    0.0431 N   0  3  0  0  0  0  0  0  0  0  0  0
    0.5270    0.8511    1.1880 C   0  0  0  0  0  0  0  0  0  0  0  0
    0.9840    2.3100    1.0998 C   0  0  0  0  0  0  0  0  0  0  0  0
    0.4907    2.8733   -0.0336 F   0  0  0  0  0  0  0  0  0  0  0  0
    0.5308    0.4139   -1.3156 C   0  0  0  0  0  0  0  0  0  0  0  0
    0.5086   -1.4783    0.2788 C   0  0  0  0  0  0  0  0  0  0  0  0
    2.5642   -0.1204    0.0223 C   0  0  0  0  0  0  0  0  0  0  0  0
   -0.5665    0.8020    1.1475 H   0  0  0  0  0  0  0  0  0  0  0  0
    0.8721    0.4044    2.1275 H   0  0  0  0  0  0  0  0  0  0  0  0
    0.5965    2.8822    1.9473 H   0  0  0  0  0  0  0  0  0  0  0  0
    2.0716    2.4102    1.0910 H   0  0  0  0  0  0  0  0  0  0  0  0
    0.8270   -0.3213   -2.0703 H   0  0  0  0  0  0  0  0  0  0  0  0
   -0.5588    0.4908   -1.2659 H   0  0  0  0  0  0  0  0  0  0  0  0
    0.9887    1.3751   -1.5556 H   0  0  0  0  0  0  0  0  0  0  0  0
    0.8682   -2.1243   -0.5280 H   0  0  0  0  0  0  0  0  0  0  0  0
    0.8817   -1.8330    1.2444 H   0  0  0  0  0  0  0  0  0  0  0  0
   -0.5845   -1.4405    0.2787 H   0  0  0  0  0  0  0  0  0  0  0  0
    2.9545    0.8757   -0.1987 H   0  0  0  0  0  0  0  0  0  0  0  0
    2.9087   -0.4626    1.0026 H   0  0  0  0  0  0  0  0  0  0  0  0
    2.8750   -0.8198   -0.7591 H   0  0  0  0  0  0  0  0  0  0  0  0
  1  2  1  0  0  0  0
  1  5  1  0  0  0  0
  1  6  1  0  0  0  0
  1  7  1  0  0  0  0
  2  3  1  0  0  0  0
  2  8  1  0  0  0  0
  2  9  1  0  0  0  0
  3  4  1  0  0  0  0
  3 10  1  0  0  0  0
  3 11  1  0  0  0  0
  5 12  1  0  0  0  0
  5 13  1  0  0  0  0
  5 14  1  0  0  0  0
  6 15  1  0  0  0  0
  6 16  1  0  0  0  0
  6 17  1  0  0  0  0
  7 18  1  0  0  0  0
  7 19  1  0  0  0  0
  7 20  1  0  0  0  0
M  ISO  1   4  18
M  CHG  1   1   1
M  END
>  <DRUGBANK_ID>
DB15887

>  <COMMON_NAME>
Fluorocholine F-18

>  <CAS_NUMBER>
407582-13-2

>  <UNII>
700YTQ6F2B

>  <SYNONYMS>
(18F)Fluorocholine; 18F-FCH; Fluorocholine(18F); Fluourine-18 Fluoromethylcholine

$$$$
