1PU
 OpenBabel10282417133D

 39 42  0  0  0  0  0  0  0  0999 V2000
    0.3807    0.5324    0.2867 C   0  0  0  0  0  0  0  0  0  0  0  0
   -1.0808    0.3883    0.5478 C   0  0  1  0  0  0  0  0  0  0  0  0
    0.8559   -0.7488   -0.0832 C   0  0  0  0  0  0  0  0  0  0  0  0
   -0.2854   -1.7088   -0.0874 C   0  0  0  0  0  0  0  0  0  0  0  0
   -2.0891    1.1872   -0.2824 C   0  0  0  0  0  0  0  0  0  0  0  0
    1.2299    1.6461    0.3917 C   0  0  0  0  0  0  0  0  0  0  0  0
   -1.3853   -0.9584    0.2023 N   0  0  0  0  0  0  0  0  0  0  0  0
    2.1694   -0.9739   -0.4396 C   0  0  0  0  0  0  0  0  0  0  0  0
    2.5701    1.4140    0.0099 C   0  0  0  0  0  0  0  0  0  0  0  0
    0.8133    2.9743    0.8344 N   0  0  0  0  0  0  0  0  0  0  0  0
   -2.8094   -1.1203    0.0822 C   0  0  0  0  0  0  0  0  0  0  0  0
   -3.2198    0.1897   -0.5994 C   0  0  0  0  0  0  0  0  0  0  0  0
   -0.2206   -2.8951   -0.3442 O   0  0  0  0  0  0  0  0  0  0  0  0
    3.0287    0.1276   -0.4032 C   0  0  0  0  0  0  0  0  0  0  0  0
   -0.3152    3.1933    1.5995 C   0  0  0  0  0  0  0  0  0  0  0  0
   -0.8220    4.4596    1.7590 N   0  0  0  0  0  0  0  0  0  0  0  0
   -0.9014    2.2459    2.1138 O   0  0  0  0  0  0  0  0  0  0  0  0
   -2.1749    4.6546    2.2258 C   0  0  0  0  0  0  0  0  0  0  0  0
   -2.8576    3.6882    2.9813 C   0  0  0  0  0  0  0  0  0  0  0  0
   -2.8179    5.7789    1.8443 N   0  0  0  0  0  0  0  0  0  0  0  0
   -4.2337    3.7553    3.1889 C   0  0  0  0  0  0  0  0  0  0  0  0
   -4.1598    5.8548    2.1197 C   0  0  0  0  0  0  0  0  0  0  0  0
   -4.9126    4.8614    2.7320 C   0  0  0  0  0  0  0  0  0  0  0  0
   -1.2866    0.3547    1.6207 H   0  0  0  0  0  0  0  0  0  0  0  0
   -1.6381    1.5739   -1.2054 H   0  0  0  0  0  0  0  0  0  0  0  0
   -2.4991    2.0545    0.2430 H   0  0  0  0  0  0  0  0  0  0  0  0
    2.5059   -1.9577   -0.7563 H   0  0  0  0  0  0  0  0  0  0  0  0
    3.3081    2.2137    0.0318 H   0  0  0  0  0  0  0  0  0  0  0  0
    1.5253    3.6924    0.8357 H   0  0  0  0  0  0  0  0  0  0  0  0
   -3.2269   -1.1298    1.0988 H   0  0  0  0  0  0  0  0  0  0  0  0
   -3.0996   -2.0240   -0.4491 H   0  0  0  0  0  0  0  0  0  0  0  0
   -3.2965    0.0570   -1.6840 H   0  0  0  0  0  0  0  0  0  0  0  0
   -4.1870    0.5577   -0.2407 H   0  0  0  0  0  0  0  0  0  0  0  0
    4.0694   -0.0111   -0.7003 H   0  0  0  0  0  0  0  0  0  0  0  0
   -0.3741    5.2783    1.3769 H   0  0  0  0  0  0  0  0  0  0  0  0
   -2.3482    2.8490    3.4384 H   0  0  0  0  0  0  0  0  0  0  0  0
   -4.7455    2.9488    3.7084 H   0  0  0  0  0  0  0  0  0  0  0  0
   -4.6486    6.7809    1.8265 H   0  0  0  0  0  0  0  0  0  0  0  0
   -5.9831    4.9548    2.8842 H   0  0  0  0  0  0  0  0  0  0  0  0
  1  2  1  0  0  0  0
  1  3  2  0  0  0  0
  1  6  1  0  0  0  0
  2  5  1  0  0  0  0
  2  7  1  0  0  0  0
  2 24  1  1  0  0  0
  3  4  1  0  0  0  0
  3  8  1  0  0  0  0
  4  7  1  0  0  0  0
  4 13  2  0  0  0  0
  5 12  1  0  0  0  0
  5 25  1  0  0  0  0
  5 26  1  0  0  0  0
  6  9  2  0  0  0  0
  6 10  1  0  0  0  0
  7 11  1  0  0  0  0
  8 14  2  0  0  0  0
  8 27  1  0  0  0  0
  9 14  1  0  0  0  0
  9 28  1  0  0  0  0
 10 15  1  0  0  0  0
 10 29  1  0  0  0  0
 11 12  1  0  0  0  0
 11 30  1  0  0  0  0
 11 31  1  0  0  0  0
 12 32  1  0  0  0  0
 12 33  1  0  0  0  0
 14 34  1  0  0  0  0
 15 16  1  0  0  0  0
 15 17  2  0  0  0  0
 16 18  1  0  0  0  0
 16 35  1  0  0  0  0
 18 19  2  0  0  0  0
 18 20  1  0  0  0  0
 19 21  1  0  0  0  0
 19 36  1  0  0  0  0
 20 22  2  0  0  0  0
 21 23  2  0  0  0  0
 21 37  1  0  0  0  0
 22 23  1  0  0  0  0
 22 38  1  0  0  0  0
 23 39  1  0  0  0  0
M  END
>  <DRUGBANK_ID>
DB04186

>  <SECONDARY_ACCESSION_NUMBERS>
EXPT00083

>  <COMMON_NAME>
N'-(Pyrrolidino[2,1-B]Isoindolin-4-On-8-Yl)-N-(Pyridin-2-Yl)Urea

$$$$
