
 OpenBabel10282417113D

 43 45  0  0  0  0  0  0  0  0999 V2000
    0.9936    0.0377    0.0100 S   0  0  0  0  0  0  0  0  0  0  0  0
    0.3646   -0.2499   -1.5283 N   0  0  0  0  0  0  0  0  0  0  0  0
   -0.4671   -1.3097   -1.9035 C   0  0  0  0  0  0  0  0  0  0  0  0
   -0.8119   -1.4078   -3.2475 N   0  0  0  0  0  0  0  0  0  0  0  0
   -1.6266   -2.5030   -3.6465 N   0  0  0  0  0  0  0  0  0  0  0  0
   -2.8211   -2.1456   -4.4125 C   0  0  0  0  0  0  0  0  0  0  0  0
   -3.3202   -3.5034   -4.9153 C   0  0  2  0  0  0  0  0  0  0  0  0
   -4.2868   -4.1991   -3.9494 C   0  0  0  0  0  0  0  0  0  0  0  0
   -3.9050   -5.6664   -4.0164 C   0  0  0  0  0  0  0  0  0  0  0  0
   -2.3874   -5.6214   -4.0860 C   0  0  0  0  0  0  0  0  0  0  0  0
   -2.0670   -4.4035   -4.9643 C   0  0  2  0  0  0  0  0  0  0  0  0
   -0.9310   -3.5175   -4.4437 C   0  0  0  0  0  0  0  0  0  0  0  0
   -1.8568   -4.7362   -5.9883 H   0  0  0  0  0  0  0  0  0  0  0  0
   -3.7788   -3.4142   -5.9080 H   0  0  0  0  0  0  0  0  0  0  0  0
   -0.8758   -2.1303   -1.0896 O   0  0  0  0  0  0  0  0  0  0  0  0
    0.5370   -1.2914    1.0952 C   0  0  0  0  0  0  0  0  0  0  0  0
    1.0186   -2.5700    0.8008 C   0  0  0  0  0  0  0  0  0  0  0  0
    0.6470   -3.6551    1.5890 C   0  0  0  0  0  0  0  0  0  0  0  0
   -0.1512   -3.4676    2.7215 C   0  0  0  0  0  0  0  0  0  0  0  0
   -0.5956   -2.1742    3.0403 C   0  0  0  0  0  0  0  0  0  0  0  0
   -0.2610   -1.0823    2.2254 C   0  0  0  0  0  0  0  0  0  0  0  0
   -0.5182   -4.6439    3.5783 C   0  0  0  0  0  0  0  0  0  0  0  0
    0.3725    1.2578    0.4855 O   0  0  0  0  0  0  0  0  0  0  0  0
    2.4371   -0.0165   -0.1241 O   0  0  0  0  0  0  0  0  0  0  0  0
    0.6958    0.4316   -2.2005 H   0  0  0  0  0  0  0  0  0  0  0  0
   -0.5361   -0.7100   -3.9265 H   0  0  0  0  0  0  0  0  0  0  0  0
   -2.5582   -1.5028   -5.2609 H   0  0  0  0  0  0  0  0  0  0  0  0
   -3.5722   -1.6321   -3.8036 H   0  0  0  0  0  0  0  0  0  0  0  0
   -5.3327   -4.0374   -4.2293 H   0  0  0  0  0  0  0  0  0  0  0  0
   -4.1580   -3.8286   -2.9257 H   0  0  0  0  0  0  0  0  0  0  0  0
   -4.2626   -6.2268   -3.1468 H   0  0  0  0  0  0  0  0  0  0  0  0
   -4.3195   -6.1340   -4.9171 H   0  0  0  0  0  0  0  0  0  0  0  0
   -1.9660   -5.5136   -3.0800 H   0  0  0  0  0  0  0  0  0  0  0  0
   -1.9852   -6.5467   -4.5128 H   0  0  0  0  0  0  0  0  0  0  0  0
   -0.1962   -4.0815   -3.8607 H   0  0  0  0  0  0  0  0  0  0  0  0
   -0.4175   -3.0458   -5.2903 H   0  0  0  0  0  0  0  0  0  0  0  0
    1.6127   -2.7362   -0.0934 H   0  0  0  0  0  0  0  0  0  0  0  0
    0.9711   -4.6503    1.2965 H   0  0  0  0  0  0  0  0  0  0  0  0
   -1.2122   -2.0162    3.9237 H   0  0  0  0  0  0  0  0  0  0  0  0
   -0.6277   -0.0908    2.4828 H   0  0  0  0  0  0  0  0  0  0  0  0
   -0.1331   -4.5068    4.5933 H   0  0  0  0  0  0  0  0  0  0  0  0
   -1.6041   -4.7728    3.6120 H   0  0  0  0  0  0  0  0  0  0  0  0
   -0.0857   -5.5707    3.1836 H   0  0  0  0  0  0  0  0  0  0  0  0
  2  1  1  0  0  0  0
  2 25  1  0  0  0  0
  3  2  1  0  0  0  0
  4  3  1  0  0  0  0
  4 26  1  0  0  0  0
  5  4  1  0  0  0  0
  6  5  1  0  0  0  0
  6 27  1  0  0  0  0
  6 28  1  0  0  0  0
  7  6  1  0  0  0  0
  7  8  1  0  0  0  0
  7 14  1  6  0  0  0
  8 29  1  0  0  0  0
  8 30  1  0  0  0  0
  9  8  1  0  0  0  0
  9 10  1  0  0  0  0
  9 31  1  0  0  0  0
  9 32  1  0  0  0  0
 10 33  1  0  0  0  0
 10 34  1  0  0  0  0
 11 10  1  0  0  0  0
 11 12  1  0  0  0  0
 11  7  1  0  0  0  0
 11 13  1  6  0  0  0
 12  5  1  0  0  0  0
 12 35  1  0  0  0  0
 12 36  1  0  0  0  0
 15  3  2  0  0  0  0
 16  1  1  0  0  0  0
 17 16  2  0  0  0  0
 17 37  1  0  0  0  0
 18 17  1  0  0  0  0
 18 38  1  0  0  0  0
 19 18  2  0  0  0  0
 19 20  1  0  0  0  0
 20 21  2  0  0  0  0
 20 39  1  0  0  0  0
 21 16  1  0  0  0  0
 21 40  1  0  0  0  0
 22 19  1  0  0  0  0
 22 41  1  0  0  0  0
 22 42  1  0  0  0  0
 22 43  1  0  0  0  0
 23  1  2  0  0  0  0
 24  1  2  0  0  0  0
M  END
>  <DRUGBANK_ID>
DB01120

>  <SECONDARY_ACCESSION_NUMBERS>
APRD00460

>  <COMMON_NAME>
Gliclazide

>  <CAS_NUMBER>
21187-98-4

>  <UNII>
G4PX8C4HKV

>  <SYNONYMS>
1-(3-azabicyclo(3.3.0)oct-3-yl)-3-(p-tolylsulfonyl)urea; 1-(hexahydrocyclopenta(c)pyrrol-2(1H)-yl)-3-(p-tolylsulfonyl)urea; Gliclazida; Gliclazide; Gliclazidum

$$$$
