C52
 OpenBabel10282417163D

 44 47  0  0  0  0  0  0  0  0999 V2000
   -1.1430   -1.3816    0.1274 C   0  0  0  0  0  0  0  0  0  0  0  0
    0.0607   -0.6751    0.0868 C   0  0  0  0  0  0  0  0  0  0  0  0
    1.2897   -1.2974    0.0131 C   0  0  0  0  0  0  0  0  0  0  0  0
    2.4500   -0.6275   -0.0636 N   0  0  0  0  0  0  0  0  0  0  0  0
    2.3640    0.7055   -0.0283 C   0  0  0  0  0  0  0  0  0  0  0  0
    3.5269    1.4052   -0.1375 N   0  0  0  0  0  0  0  0  0  0  0  0
    1.2311    1.4086    0.0718 N   0  0  0  0  0  0  0  0  0  0  0  0
    0.0858    0.7217    0.0973 C   0  0  0  0  0  0  0  0  0  0  0  0
   -1.1270    1.3963    0.0755 C   0  0  0  0  0  0  0  0  0  0  0  0
   -2.3285    0.7101   -0.0747 C   0  0  0  0  0  0  0  0  0  0  0  0
   -2.3428   -0.6788    0.0255 C   0  0  0  0  0  0  0  0  0  0  0  0
   -3.6046   -1.4152    0.0760 C   0  0  0  0  0  0  0  0  0  0  0  0
   -3.9273   -2.1527    1.3426 C   0  0  0  0  0  0  0  0  0  0  0  0
   -3.2507   -1.9250    2.3592 O   0  0  0  0  0  0  0  0  0  0  0  0
   -4.4429   -1.4826   -0.9781 C   0  0  0  0  0  0  0  0  0  0  0  0
   -4.1945   -0.8100   -2.3036 C   0  0  0  0  0  0  0  0  0  0  0  0
   -5.5965   -2.3571   -0.8939 C   0  0  0  0  0  0  0  0  0  0  0  0
   -5.7300   -3.2182    0.1239 C   0  0  0  0  0  0  0  0  0  0  0  0
   -4.9518   -3.1026    1.2675 N   0  0  0  0  0  0  0  0  0  0  0  0
   -5.3434   -3.7427    2.4817 C   0  0  0  0  0  0  0  0  0  0  0  0
   -5.5870   -2.9578    3.6212 C   0  0  0  0  0  0  0  0  0  0  0  0
   -5.4668   -5.1295    2.5669 C   0  0  0  0  0  0  0  0  0  0  0  0
   -5.8056   -5.7219    3.7865 C   0  0  0  0  0  0  0  0  0  0  0  0
   -5.9428   -4.9400    4.9363 C   0  0  0  0  0  0  0  0  0  0  0  0
   -5.8289   -3.5466    4.8666 C   0  0  0  0  0  0  0  0  0  0  0  0
   -5.9224   -2.7114    6.1171 C   0  0  0  0  0  0  0  0  0  0  0  0
   -4.9445   -3.0151    7.0159 F   0  0  0  0  0  0  0  0  0  0  0  0
   -5.8259   -1.3708    5.8977 F   0  0  0  0  0  0  0  0  0  0  0  0
   -7.1008   -2.8959    6.7752 F   0  0  0  0  0  0  0  0  0  0  0  0
   -1.1444   -2.4657    0.2268 H   0  0  0  0  0  0  0  0  0  0  0  0
    1.3754   -2.3795   -0.0260 H   0  0  0  0  0  0  0  0  0  0  0  0
    3.4797    2.4061   -0.0787 H   0  0  0  0  0  0  0  0  0  0  0  0
    4.3814    0.8797   -0.1746 H   0  0  0  0  0  0  0  0  0  0  0  0
   -1.1455    2.4794    0.1516 H   0  0  0  0  0  0  0  0  0  0  0  0
   -3.2456    1.2619   -0.2654 H   0  0  0  0  0  0  0  0  0  0  0  0
   -4.1892   -1.5454   -3.1132 H   0  0  0  0  0  0  0  0  0  0  0  0
   -4.9568   -0.0507   -2.5044 H   0  0  0  0  0  0  0  0  0  0  0  0
   -3.2244   -0.3066   -2.3581 H   0  0  0  0  0  0  0  0  0  0  0  0
   -6.3403   -2.3173   -1.6848 H   0  0  0  0  0  0  0  0  0  0  0  0
   -6.5267   -3.9553    0.1409 H   0  0  0  0  0  0  0  0  0  0  0  0
   -5.5724   -1.8707    3.5380 H   0  0  0  0  0  0  0  0  0  0  0  0
   -5.2397   -5.7596    1.7115 H   0  0  0  0  0  0  0  0  0  0  0  0
   -5.9325   -6.7995    3.8520 H   0  0  0  0  0  0  0  0  0  0  0  0
   -6.1263   -5.4194    5.8970 H   0  0  0  0  0  0  0  0  0  0  0  0
  1  2  1  0  0  0  0
  1 30  1  0  0  0  0
  2  8  2  0  0  0  0
  2  3  1  0  0  0  0
  3  4  2  0  0  0  0
  3 31  1  0  0  0  0
  4  5  1  0  0  0  0
  5  6  1  0  0  0  0
  6 32  1  0  0  0  0
  6 33  1  0  0  0  0
  7  5  2  0  0  0  0
  8  7  1  0  0  0  0
  9  8  1  0  0  0  0
  9 34  1  0  0  0  0
 10  9  2  0  0  0  0
 10 35  1  0  0  0  0
 11  1  2  0  0  0  0
 11 10  1  0  0  0  0
 12 11  1  0  0  0  0
 12 15  2  0  0  0  0
 13 12  1  0  0  0  0
 14 13  2  0  0  0  0
 15 16  1  0  0  0  0
 16 36  1  0  0  0  0
 16 37  1  0  0  0  0
 16 38  1  0  0  0  0
 17 15  1  0  0  0  0
 17 39  1  0  0  0  0
 18 17  2  0  0  0  0
 18 40  1  0  0  0  0
 19 13  1  0  0  0  0
 19 18  1  0  0  0  0
 20 19  1  0  0  0  0
 21 20  2  0  0  0  0
 21 41  1  0  0  0  0
 22 20  1  0  0  0  0
 22 42  1  0  0  0  0
 23 22  2  0  0  0  0
 23 43  1  0  0  0  0
 24 23  1  0  0  0  0
 24 25  2  0  0  0  0
 24 44  1  0  0  0  0
 25 21  1  0  0  0  0
 26 25  1  0  0  0  0
 26 29  1  0  0  0  0
 27 26  1  0  0  0  0
 28 26  1  0  0  0  0
M  END
>  <DRUGBANK_ID>
DB07528

>  <COMMON_NAME>
3-(2-aminoquinazolin-6-yl)-4-methyl-1-[3-(trifluoromethyl)phenyl]pyridin-2(1H)-one

$$$$
