
 OpenBabel10282417133D

107109  0  0  1  0  0  0  0  0999 V2000
   -2.2981   -1.0202    0.5367 C   0  0  2  0  0  0  0  0  0  0  0  0
   -1.5114    0.1121    0.0944 O   0  0  0  0  0  0  0  0  0  0  0  0
   -2.3688   -2.0672   -0.5270 C   0  0  1  0  0  0  0  0  0  0  0  0
   -1.3442    0.0609   -1.3231 C   0  0  1  0  0  0  0  0  0  0  0  0
   -2.1138   -1.1711   -1.7446 C   0  0  1  0  0  0  0  0  0  0  0  0
   -1.5279   -3.1608   -0.1542 O   0  0  0  0  0  0  0  0  0  0  0  0
    1.4119    4.9496    4.2044 C   0  0  0  0  0  0  0  0  0  0  0  0
    0.3321    5.9352    3.7087 C   0  0  0  0  0  0  0  0  0  0  0  0
    0.8994    3.7601    4.8945 N   0  0  0  0  0  0  0  0  0  0  0  0
    0.7721    2.5225    4.3429 C   0  0  0  0  0  0  0  0  0  0  0  0
    1.3840    2.3550    3.2520 O   0  0  0  0  0  0  0  0  0  0  0  0
   -1.2732    0.7697    4.1573 C   0  0  0  0  0  0  0  0  0  0  0  0
   -0.0298    1.3000    4.9388 C   0  0  0  0  0  0  0  0  0  0  0  0
   -0.9111    0.0495    2.9663 N   0  0  0  0  0  0  0  0  0  0  0  0
   -1.0950   -2.0238    3.8983 O   0  0  0  0  0  0  0  0  0  0  0  0
   -0.5565   -1.3027    3.0673 C   0  0  0  0  0  0  0  0  0  0  0  0
    1.1271    0.0594    0.4937 C   0  0  0  0  0  0  0  0  0  0  0  0
    2.0233   -0.2936    2.8472 C   0  0  0  0  0  0  0  0  0  0  0  0
    1.6257   -0.9443    1.5118 C   0  0  0  0  0  0  0  0  0  0  0  0
    2.7256   -1.7358    0.7730 C   0  0  0  0  0  0  0  0  0  0  0  0
    0.4931   -1.8691    2.0133 C   0  0  1  0  0  0  0  0  0  0  0  0
    1.0892   -3.0645    2.4886 O   0  0  0  0  0  0  0  0  0  0  0  0
    1.9054    0.9509   -0.2325 O   0  0  0  0  0  0  0  0  0  0  0  0
    1.1525    3.2164    0.4711 O   0  0  0  0  0  0  0  0  0  0  0  0
   -0.1061    2.2107   -1.3703 O   0  0  0  0  0  0  0  0  0  0  0  0
    3.4611    2.9219    0.4313 O   0  0  0  0  0  0  0  0  0  0  0  0
    3.4934    0.7987    1.2750 O   0  0  0  0  0  0  0  0  0  0  0  0
   -1.4831    3.5174    0.0096 O   0  0  0  0  0  0  0  0  0  0  0  0
   -0.7043    2.7505    1.9946 O   0  0  0  0  0  0  0  0  0  0  0  0
    2.3229    2.0076    0.8731 P   0  0  3  0  0  0  0  0  0  0  0  0
   -0.4052    2.4806    0.3122 P   0  0  3  0  0  0  0  0  0  0  0  0
   -1.2503    1.4507   -1.9700 C   0  0  0  0  0  0  0  0  0  0  0  0
   -1.3802   -1.8061   -2.7341 O   0  0  0  0  0  0  0  0  0  0  0  0
    0.2948   -1.9712   -0.9910 O   0  0  0  0  0  0  0  0  0  0  0  0
   -0.6426   -3.9323   -2.2294 O   0  0  0  0  0  0  0  0  0  0  0  0
    0.1555   -2.5437   -2.4334 P   0  0  0  0  0  0  0  0  0  0  0  0
    1.5299   -3.2039   -2.1642 O   0  0  0  0  0  0  0  0  0  0  0  0
   -3.5302   -0.5190    1.0269 N   0  0  0  0  0  0  0  0  0  0  0  0
   -4.4653   -1.3039    1.6089 C   0  0  0  0  0  0  0  0  0  0  0  0
   -3.8741    0.7864    1.1769 C   0  0  0  0  0  0  0  0  0  0  0  0
   -5.4388   -0.4087    1.9742 C   0  0  0  0  0  0  0  0  0  0  0  0
   -4.4605   -2.6363    1.7415 N   0  0  0  0  0  0  0  0  0  0  0  0
   -5.0560    0.8966    1.7260 N   0  0  0  0  0  0  0  0  0  0  0  0
   -6.6036   -0.9631    2.4889 C   0  0  0  0  0  0  0  0  0  0  0  0
   -5.6137   -3.0586    2.2864 C   0  0  0  0  0  0  0  0  0  0  0  0
   -6.6812   -2.3063    2.6395 N   0  0  0  0  0  0  0  0  0  0  0  0
   -7.6628   -0.1578    2.8139 N   0  0  0  0  0  0  0  0  0  0  0  0
   -0.5914    6.8052    5.0068 S   0  0  0  0  0  0  0  0  0  0  0  0
   -1.8267    4.2841    5.3780 C   0  0  0  0  0  0  0  0  0  0  0  0
   -1.4176    3.5281    6.6596 C   0  0  0  0  0  0  0  0  0  0  0  0
   -2.4020    3.4471    7.7843 C   0  0  0  0  0  0  0  0  0  0  0  0
   -3.6993    2.8621    7.2276 C   0  0  0  0  0  0  0  0  0  0  0  0
   -3.5683    1.4111    6.7143 C   0  0  0  0  0  0  0  0  0  0  0  0
   -3.0411    0.4388    7.7666 C   0  0  0  0  0  0  0  0  0  0  0  0
   -3.9713    0.4710    8.9624 C   0  0  0  0  0  0  0  0  0  0  0  0
   -1.8045    5.7419    5.6859 C   0  0  0  0  0  0  0  0  0  0  0  0
   -2.5703    6.1855    6.5319 O   0  0  0  0  0  0  0  0  0  0  0  0
   -1.8733   -1.4817    1.4025 H   0  0  0  0  0  0  0  0  0  0  0  0
   -3.3194   -2.5827   -0.6054 H   0  0  0  0  0  0  0  0  0  0  0  0
   -0.3364   -0.1586   -1.6451 H   0  0  0  0  0  0  0  0  0  0  0  0
   -3.0865   -0.8463   -2.1200 H   0  0  0  0  0  0  0  0  0  0  0  0
   -0.5759   -2.9757   -0.3184 H   0  0  0  0  0  0  0  0  0  0  0  0
    2.0660    5.4605    4.9194 H   0  0  0  0  0  0  0  0  0  0  0  0
    2.0226    4.6381    3.3524 H   0  0  0  0  0  0  0  0  0  0  0  0
    0.8685    6.7423    3.1898 H   0  0  0  0  0  0  0  0  0  0  0  0
   -0.3421    5.4974    2.9671 H   0  0  0  0  0  0  0  0  0  0  0  0
    0.5400    4.0132    5.7897 H   0  0  0  0  0  0  0  0  0  0  0  0
   -1.9619    1.5700    3.8680 H   0  0  0  0  0  0  0  0  0  0  0  0
   -1.8495    0.0586    4.7495 H   0  0  0  0  0  0  0  0  0  0  0  0
   -0.3200    1.3899    5.9656 H   0  0  0  0  0  0  0  0  0  0  0  0
    0.6889    0.4935    5.0988 H   0  0  0  0  0  0  0  0  0  0  0  0
   -0.3909    0.6471    2.3685 H   0  0  0  0  0  0  0  0  0  0  0  0
    0.3850    0.6220    0.9720 H   0  0  0  0  0  0  0  0  0  0  0  0
    0.6440   -0.3360   -0.3111 H   0  0  0  0  0  0  0  0  0  0  0  0
    1.1545    0.0968    3.3057 H   0  0  0  0  0  0  0  0  0  0  0  0
    2.4906   -0.9673    3.5435 H   0  0  0  0  0  0  0  0  0  0  0  0
    2.5308    0.6493    2.9241 H   0  0  0  0  0  0  0  0  0  0  0  0
    2.3148   -2.4253    0.0380 H   0  0  0  0  0  0  0  0  0  0  0  0
    3.4036   -1.1096    0.1805 H   0  0  0  0  0  0  0  0  0  0  0  0
    3.2978   -2.3482    1.4560 H   0  0  0  0  0  0  0  0  0  0  0  0
   -0.0888   -2.1719    1.1808 H   0  0  0  0  0  0  0  0  0  0  0  0
    1.7059   -2.8263    3.1969 H   0  0  0  0  0  0  0  0  0  0  0  0
    3.8798    0.3698    2.0508 H   0  0  0  0  0  0  0  0  0  0  0  0
   -1.5634    2.3297    2.1720 H   0  0  0  0  0  0  0  0  0  0  0  0
   -1.0137    1.3431   -3.0342 H   0  0  0  0  0  0  0  0  0  0  0  0
   -2.1811    2.0024   -1.8466 H   0  0  0  0  0  0  0  0  0  0  0  0
    1.2381   -1.6945   -1.1633 H   0  0  0  0  0  0  0  0  0  0  0  0
   -1.5190   -3.9462   -2.6499 H   0  0  0  0  0  0  0  0  0  0  0  0
   -3.2405    1.6073    0.8718 H   0  0  0  0  0  0  0  0  0  0  0  0
   -5.7021   -4.1305    2.4425 H   0  0  0  0  0  0  0  0  0  0  0  0
   -7.5611    0.8375    2.6614 H   0  0  0  0  0  0  0  0  0  0  0  0
   -8.5066   -0.5800    3.1546 H   0  0  0  0  0  0  0  0  0  0  0  0
   -2.8136    3.9804    5.0249 H   0  0  0  0  0  0  0  0  0  0  0  0
   -1.2554    4.0443    4.4846 H   0  0  0  0  0  0  0  0  0  0  0  0
   -1.3943    2.5103    6.3779 H   0  0  0  0  0  0  0  0  0  0  0  0
   -0.4422    3.7485    7.1050 H   0  0  0  0  0  0  0  0  0  0  0  0
   -1.9656    2.7965    8.5563 H   0  0  0  0  0  0  0  0  0  0  0  0
   -2.5128    4.4249    8.2511 H   0  0  0  0  0  0  0  0  0  0  0  0
   -4.4675    2.9378    7.9907 H   0  0  0  0  0  0  0  0  0  0  0  0
   -4.0663    3.4754    6.4025 H   0  0  0  0  0  0  0  0  0  0  0  0
   -4.5350    1.0689    6.3329 H   0  0  0  0  0  0  0  0  0  0  0  0
   -2.9227    1.3720    5.8439 H   0  0  0  0  0  0  0  0  0  0  0  0
   -2.9845   -0.5755    7.3535 H   0  0  0  0  0  0  0  0  0  0  0  0
   -2.0173    0.6909    8.0700 H   0  0  0  0  0  0  0  0  0  0  0  0
   -4.9820    0.1952    8.6458 H   0  0  0  0  0  0  0  0  0  0  0  0
   -3.6344   -0.2063    9.7454 H   0  0  0  0  0  0  0  0  0  0  0  0
   -4.0186    1.4719    9.4018 H   0  0  0  0  0  0  0  0  0  0  0  0
  1 38  1  0  0  0  0
  1 58  1  1  0  0  0
  2  1  1  0  0  0  0
  3  1  1  0  0  0  0
  3  6  1  0  0  0  0
  3 59  1  6  0  0  0
  4  2  1  0  0  0  0
  4 32  1  0  0  0  0
  4 60  1  6  0  0  0
  5  3  1  0  0  0  0
  5  4  1  0  0  0  0
  5 33  1  0  0  0  0
  5 61  1  6  0  0  0
  6 62  1  0  0  0  0
  7  8  1  0  0  0  0
  7 63  1  0  0  0  0
  7 64  1  0  0  0  0
  8 48  1  0  0  0  0
  8 65  1  0  0  0  0
  8 66  1  0  0  0  0
  9  7  1  0  0  0  0
  9 67  1  0  0  0  0
 10  9  1  0  0  0  0
 10 11  2  0  0  0  0
 12 14  1  0  0  0  0
 12 68  1  0  0  0  0
 12 69  1  0  0  0  0
 13 10  1  0  0  0  0
 13 12  1  0  0  0  0
 13 70  1  0  0  0  0
 13 71  1  0  0  0  0
 14 72  1  0  0  0  0
 16 14  1  0  0  0  0
 16 15  2  0  0  0  0
 17 23  1  0  0  0  0
 17 73  1  0  0  0  0
 17 74  1  0  0  0  0
 18 75  1  0  0  0  0
 18 76  1  0  0  0  0
 18 77  1  0  0  0  0
 19 17  1  0  0  0  0
 19 18  1  0  0  0  0
 19 20  1  0  0  0  0
 20 78  1  0  0  0  0
 20 79  1  0  0  0  0
 20 80  1  0  0  0  0
 21 22  1  0  0  0  0
 21 81  1  6  0  0  0
 21 19  1  0  0  0  0
 21 16  1  0  0  0  0
 22 82  1  0  0  0  0
 23 30  1  0  0  0  0
 24 31  1  0  0  0  0
 27 83  1  0  0  0  0
 29 84  1  0  0  0  0
 30 24  1  0  0  0  0
 30 26  2  0  0  0  0
 30 27  1  0  0  0  0
 31 25  1  0  0  0  0
 31 28  2  0  0  0  0
 31 29  1  0  0  0  0
 32 25  1  0  0  0  0
 32 85  1  0  0  0  0
 32 86  1  0  0  0  0
 33 36  1  0  0  0  0
 34 87  1  0  0  0  0
 35 88  1  0  0  0  0
 36 34  1  0  0  0  0
 36 35  1  0  0  0  0
 36 37  2  0  0  0  0
 39 38  1  0  0  0  0
 40 38  1  0  0  0  0
 40 89  1  0  0  0  0
 41 39  2  0  0  0  0
 42 39  1  0  0  0  0
 43 40  2  0  0  0  0
 43 41  1  0  0  0  0
 44 41  1  0  0  0  0
 45 42  2  0  0  0  0
 45 90  1  0  0  0  0
 46 44  2  0  0  0  0
 46 45  1  0  0  0  0
 47 44  1  0  0  0  0
 47 91  1  0  0  0  0
 47 92  1  0  0  0  0
 48 56  1  0  0  0  0
 49 50  1  0  0  0  0
 49 93  1  0  0  0  0
 49 94  1  0  0  0  0
 50 51  1  0  0  0  0
 50 95  1  0  0  0  0
 50 96  1  0  0  0  0
 51 52  1  0  0  0  0
 51 97  1  0  0  0  0
 51 98  1  0  0  0  0
 52 53  1  0  0  0  0
 52 99  1  0  0  0  0
 52100  1  0  0  0  0
 53 54  1  0  0  0  0
 53101  1  0  0  0  0
 53102  1  0  0  0  0
 54 55  1  0  0  0  0
 54103  1  0  0  0  0
 54104  1  0  0  0  0
 55105  1  0  0  0  0
 55106  1  0  0  0  0
 55107  1  0  0  0  0
 56 49  1  0  0  0  0
 56 57  2  0  0  0  0
M  END
>  <DRUGBANK_ID>
DB02910

>  <SECONDARY_ACCESSION_NUMBERS>
EXPT00977

>  <COMMON_NAME>
Octanoyl-Coenzyme A

$$$$
