1242
 OpenBabel10282417113D

 45 47  0  0  0  0  0  0  0  0999 V2000
   -4.3526    0.9567   -0.1570 Cl  0  0  0  0  0  0  0  0  0  0  0  0
    0.5962    0.5294    0.9852 N   0  0  0  0  0  0  0  0  0  0  0  0
    3.4252    2.2227    3.1846 N   0  0  0  0  0  0  0  0  0  0  0  0
    0.4503    0.9493    2.4086 C   0  0  0  0  0  0  0  0  0  0  0  0
   -0.5457   -0.1072    0.4698 C   0  0  0  0  0  0  0  0  0  0  0  0
    1.7763    0.5651    0.2455 C   0  0  0  0  0  0  0  0  0  0  0  0
    0.7670   -2.2830   -0.0972 C   0  0  0  0  0  0  0  0  0  0  0  0
    2.0090   -1.8678    0.6978 C   0  0  0  0  0  0  0  0  0  0  0  0
   -0.4671   -1.3895   -0.1040 C   0  0  0  0  0  0  0  0  0  0  0  0
    2.5710   -0.5933    0.1345 C   0  0  0  0  0  0  0  0  0  0  0  0
    1.5091    0.4850    3.4195 C   0  0  0  0  0  0  0  0  0  0  0  0
    2.9791    0.8125    3.1486 C   0  0  0  0  0  0  0  0  0  0  0  0
   -1.7561    0.6103    0.4535 C   0  0  0  0  0  0  0  0  0  0  0  0
    2.2031    1.7069   -0.4454 C   0  0  0  0  0  0  0  0  0  0  0  0
   -1.6083   -1.8925   -0.7437 C   0  0  0  0  0  0  0  0  0  0  0  0
    3.8330   -0.5361   -0.4610 C   0  0  0  0  0  0  0  0  0  0  0  0
   -2.8791    0.0721   -0.1515 C   0  0  0  0  0  0  0  0  0  0  0  0
    3.4900    1.7896   -0.9749 C   0  0  0  0  0  0  0  0  0  0  0  0
   -2.8028   -1.1706   -0.7668 C   0  0  0  0  0  0  0  0  0  0  0  0
    4.3194    0.6651   -0.9724 C   0  0  0  0  0  0  0  0  0  0  0  0
    4.7671    2.2776    2.5815 C   0  0  0  0  0  0  0  0  0  0  0  0
    2.5905    3.1445    2.4271 C   0  0  0  0  0  0  0  0  0  0  0  0
    0.2639    2.0211    2.4558 H   0  0  0  0  0  0  0  0  0  0  0  0
   -0.4899    0.5396    2.8155 H   0  0  0  0  0  0  0  0  0  0  0  0
    0.4577   -3.2574    0.2996 H   0  0  0  0  0  0  0  0  0  0  0  0
    1.0696   -2.4289   -1.1417 H   0  0  0  0  0  0  0  0  0  0  0  0
    2.7665   -2.6595    0.6505 H   0  0  0  0  0  0  0  0  0  0  0  0
    1.7765   -1.7533    1.7601 H   0  0  0  0  0  0  0  0  0  0  0  0
    1.2530    0.8839    4.4112 H   0  0  0  0  0  0  0  0  0  0  0  0
    1.4113   -0.6039    3.5370 H   0  0  0  0  0  0  0  0  0  0  0  0
    3.5712    0.2599    3.8922 H   0  0  0  0  0  0  0  0  0  0  0  0
    3.2780    0.3433    2.2183 H   0  0  0  0  0  0  0  0  0  0  0  0
   -1.7977    1.6132    0.8756 H   0  0  0  0  0  0  0  0  0  0  0  0
    1.5689    2.5955   -0.4549 H   0  0  0  0  0  0  0  0  0  0  0  0
   -1.5582   -2.8595   -1.2374 H   0  0  0  0  0  0  0  0  0  0  0  0
    4.4673   -1.4221   -0.4951 H   0  0  0  0  0  0  0  0  0  0  0  0
    3.8753    2.7437   -1.3275 H   0  0  0  0  0  0  0  0  0  0  0  0
   -3.6681   -1.5857   -1.2721 H   0  0  0  0  0  0  0  0  0  0  0  0
    5.3302    0.7332   -1.3545 H   0  0  0  0  0  0  0  0  0  0  0  0
    4.7838    1.8550    1.5710 H   0  0  0  0  0  0  0  0  0  0  0  0
    5.1090    3.3141    2.5025 H   0  0  0  0  0  0  0  0  0  0  0  0
    5.4894    1.7308    3.1909 H   0  0  0  0  0  0  0  0  0  0  0  0
    2.4808    2.7919    1.4242 H   0  0  0  0  0  0  0  0  0  0  0  0
    1.6050    3.2997    2.8591 H   0  0  0  0  0  0  0  0  0  0  0  0
    3.0256    4.1410    2.3211 H   0  0  0  0  0  0  0  0  0  0  0  0
  1 17  1  0  0  0  0
  2  4  1  0  0  0  0
  2  5  1  0  0  0  0
  2  6  1  0  0  0  0
  3 12  1  0  0  0  0
  3 21  1  0  0  0  0
  3 22  1  0  0  0  0
  4 11  1  0  0  0  0
  4 23  1  0  0  0  0
  4 24  1  0  0  0  0
  5  9  2  0  0  0  0
  5 13  1  0  0  0  0
  6 10  1  0  0  0  0
  6 14  2  0  0  0  0
  7  8  1  0  0  0  0
  7  9  1  0  0  0  0
  7 25  1  0  0  0  0
  7 26  1  0  0  0  0
  8 10  1  0  0  0  0
  8 27  1  0  0  0  0
  8 28  1  0  0  0  0
  9 15  1  0  0  0  0
 10 16  2  0  0  0  0
 11 12  1  0  0  0  0
 11 29  1  0  0  0  0
 11 30  1  0  0  0  0
 12 31  1  0  0  0  0
 12 32  1  0  0  0  0
 13 17  2  0  0  0  0
 13 33  1  0  0  0  0
 14 18  1  0  0  0  0
 14 34  1  0  0  0  0
 15 19  2  0  0  0  0
 15 35  1  0  0  0  0
 16 20  1  0  0  0  0
 16 36  1  0  0  0  0
 17 19  1  0  0  0  0
 18 20  2  0  0  0  0
 18 37  1  0  0  0  0
 19 38  1  0  0  0  0
 20 39  1  0  0  0  0
 21 40  1  0  0  0  0
 21 41  1  0  0  0  0
 21 42  1  0  0  0  0
 22 43  1  0  0  0  0
 22 44  1  0  0  0  0
 22 45  1  0  0  0  0
M  END
>  <DRUGBANK_ID>
DB01242

>  <SECONDARY_ACCESSION_NUMBERS>
APRD00253; DB07600

>  <COMMON_NAME>
Clomipramine

>  <CAS_NUMBER>
303-49-1

>  <UNII>
NUV44L116D

>  <SYNONYMS>
3-(3-chloro-10,11-dihydro-5H-dibenzo[b,f]azepin-5-yl)-N,N-dimethyl-1-propanamine; 3-(3-chloro-5H-dibenzo[b,F]azepin-5-yl)-N,N-dimethylpropan-1-amine; 3-Chloroimipramine; Chlorimipramine; Clomipramina; Clomipramine; Clomipraminum; Monochlorimipramine

$$$$
