
 OpenBabel10282417143D

 65 69  0  0  0  0  0  0  0  0999 V2000
    2.5166   -0.0659   -0.0968 C   0  0  0  0  0  0  0  0  0  0  0  0
    1.1305   -0.1138   -0.5951 N   0  0  0  0  0  0  0  0  0  0  0  0
    0.4353   -1.2518    0.0508 C   0  0  0  0  0  0  0  0  0  0  0  0
   -1.0817   -1.2497   -0.2294 C   0  0  0  0  0  0  0  0  0  0  0  0
   -1.7880   -0.0408    0.2239 N   0  0  0  0  0  0  0  0  0  0  0  0
   -1.0984    1.1549   -0.3082 C   0  0  0  0  0  0  0  0  0  0  0  0
    0.4518    1.1364   -0.2188 C   0  0  0  0  0  0  0  0  0  0  0  0
   -2.1321   -0.0455    1.6706 C   0  0  0  0  0  0  0  0  0  0  0  0
   -1.0066    0.0506    2.6804 C   0  0  0  0  0  0  0  0  0  0  0  0
   -0.3075    1.2294    2.7253 C   0  0  0  0  0  0  0  0  0  0  0  0
    1.0179    1.1333    3.0941 C   0  0  0  0  0  0  0  0  0  0  0  0
    1.5137    0.2231    3.9861 C   0  0  0  0  0  0  0  0  0  0  0  0
    0.6815   -0.8691    4.2151 C   0  0  0  0  0  0  0  0  0  0  0  0
   -0.5173   -1.0093    3.4640 C   0  0  0  0  0  0  0  0  0  0  0  0
    2.8816    0.3931    4.5899 C   0  0  0  0  0  0  0  0  0  0  0  0
    3.2923   -0.4870    5.3324 O   0  0  0  0  0  0  0  0  0  0  0  0
    3.7315    1.4800    4.3107 N   0  0  0  0  0  0  0  0  0  0  0  0
    3.5607    2.6141    3.4834 C   0  0  0  0  0  0  0  0  0  0  0  0
    2.4312    3.4343    3.5557 C   0  0  0  0  0  0  0  0  0  0  0  0
    2.1055    4.2716    2.4819 C   0  0  0  0  0  0  0  0  0  0  0  0
    3.0279    4.4879    1.4625 C   0  0  0  0  0  0  0  0  0  0  0  0
    4.2851    3.8794    1.5209 C   0  0  0  0  0  0  0  0  0  0  0  0
    5.2671    4.2375    0.5619 N   0  0  0  0  0  0  0  0  0  0  0  0
    6.5928    3.8078    0.6835 C   0  0  0  0  0  0  0  0  0  0  0  0
    7.5345    4.6458    1.1482 N   0  0  0  0  0  0  0  0  0  0  0  0
    8.7622    4.1181    1.3478 C   0  0  0  0  0  0  0  0  0  0  0  0
    9.0819    2.8114    1.0714 C   0  0  0  0  0  0  0  0  0  0  0  0
    8.0582    2.0427    0.5707 C   0  0  0  0  0  0  0  0  0  0  0  0
    6.8233    2.5255    0.3832 N   0  0  0  0  0  0  0  0  0  0  0  0
    8.2490    0.6664    0.1426 C   0  0  0  0  0  0  0  0  0  0  0  0
    8.0065    0.3030   -1.1815 C   0  0  0  0  0  0  0  0  0  0  0  0
    8.2349   -0.9293   -1.6919 N   0  0  0  0  0  0  0  0  0  0  0  0
    8.7046   -1.8573   -0.8336 C   0  0  0  0  0  0  0  0  0  0  0  0
    8.9490   -1.6137    0.5082 C   0  0  0  0  0  0  0  0  0  0  0  0
    8.7117   -0.3341    1.0022 C   0  0  0  0  0  0  0  0  0  0  0  0
    4.4958    2.8631    2.4786 C   0  0  0  0  0  0  0  0  0  0  0  0
    3.0258    0.8352   -0.4544 H   0  0  0  0  0  0  0  0  0  0  0  0
    2.5741   -0.0581    1.0000 H   0  0  0  0  0  0  0  0  0  0  0  0
    3.0761   -0.9361   -0.4471 H   0  0  0  0  0  0  0  0  0  0  0  0
    0.8640   -2.1970   -0.2962 H   0  0  0  0  0  0  0  0  0  0  0  0
    0.6043   -1.2416    1.1290 H   0  0  0  0  0  0  0  0  0  0  0  0
   -1.2206   -1.3401   -1.3158 H   0  0  0  0  0  0  0  0  0  0  0  0
   -1.5522   -2.1399    0.2018 H   0  0  0  0  0  0  0  0  0  0  0  0
   -1.3502    1.2622   -1.3710 H   0  0  0  0  0  0  0  0  0  0  0  0
   -1.5037    2.0614    0.1614 H   0  0  0  0  0  0  0  0  0  0  0  0
    0.7250    1.2673    0.7987 H   0  0  0  0  0  0  0  0  0  0  0  0
    0.8829    2.0338   -0.6770 H   0  0  0  0  0  0  0  0  0  0  0  0
   -2.8138    0.7951    1.8595 H   0  0  0  0  0  0  0  0  0  0  0  0
   -2.7224   -0.9425    1.8875 H   0  0  0  0  0  0  0  0  0  0  0  0
   -0.6103    2.0928    2.1386 H   0  0  0  0  0  0  0  0  0  0  0  0
    1.7016    1.6962    2.4800 H   0  0  0  0  0  0  0  0  0  0  0  0
    0.9969   -1.6582    4.8906 H   0  0  0  0  0  0  0  0  0  0  0  0
   -1.0246   -1.9698    3.4505 H   0  0  0  0  0  0  0  0  0  0  0  0
    4.6843    1.2797    4.5988 H   0  0  0  0  0  0  0  0  0  0  0  0
    1.6885    3.2623    4.3321 H   0  0  0  0  0  0  0  0  0  0  0  0
    1.1080    4.7003    2.4169 H   0  0  0  0  0  0  0  0  0  0  0  0
    2.7620    5.1347    0.6294 H   0  0  0  0  0  0  0  0  0  0  0  0
    5.2600    5.2369    0.3935 H   0  0  0  0  0  0  0  0  0  0  0  0
    9.5169    4.7952    1.7409 H   0  0  0  0  0  0  0  0  0  0  0  0
   10.0825    2.4201    1.1949 H   0  0  0  0  0  0  0  0  0  0  0  0
    7.6317    1.0322   -1.8978 H   0  0  0  0  0  0  0  0  0  0  0  0
    8.8855   -2.8360   -1.2673 H   0  0  0  0  0  0  0  0  0  0  0  0
    9.3223   -2.4008    1.1530 H   0  0  0  0  0  0  0  0  0  0  0  0
    8.8866   -0.1234    2.0543 H   0  0  0  0  0  0  0  0  0  0  0  0
    5.3637    2.2138    2.3981 H   0  0  0  0  0  0  0  0  0  0  0  0
  1  2  1  0  0  0  0
  1 37  1  0  0  0  0
  1 38  1  0  0  0  0
  1 39  1  0  0  0  0
  2  3  1  0  0  0  0
  2  7  1  0  0  0  0
  3  4  1  0  0  0  0
  3 40  1  0  0  0  0
  3 41  1  0  0  0  0
  4  5  1  0  0  0  0
  4 42  1  0  0  0  0
  4 43  1  0  0  0  0
  5  6  1  0  0  0  0
  5  8  1  0  0  0  0
  6  7  1  0  0  0  0
  6 44  1  0  0  0  0
  6 45  1  0  0  0  0
  7 46  1  0  0  0  0
  7 47  1  0  0  0  0
  8  9  1  0  0  0  0
  8 48  1  0  0  0  0
  8 49  1  0  0  0  0
  9 10  2  0  0  0  0
  9 14  1  0  0  0  0
 10 11  1  0  0  0  0
 10 50  1  0  0  0  0
 11 12  2  0  0  0  0
 11 51  1  0  0  0  0
 12 13  1  0  0  0  0
 12 15  1  0  0  0  0
 13 14  2  0  0  0  0
 13 52  1  0  0  0  0
 14 53  1  0  0  0  0
 15 16  2  0  0  0  0
 15 17  1  0  0  0  0
 17 18  1  0  0  0  0
 17 54  1  0  0  0  0
 18 19  2  0  0  0  0
 18 36  1  0  0  0  0
 19 20  1  0  0  0  0
 19 55  1  0  0  0  0
 20 21  2  0  0  0  0
 20 56  1  0  0  0  0
 21 22  1  0  0  0  0
 21 57  1  0  0  0  0
 22 23  1  0  0  0  0
 22 36  2  0  0  0  0
 23 24  1  0  0  0  0
 23 58  1  0  0  0  0
 24 25  2  0  0  0  0
 24 29  1  0  0  0  0
 25 26  1  0  0  0  0
 26 27  2  0  0  0  0
 26 59  1  0  0  0  0
 27 28  1  0  0  0  0
 27 60  1  0  0  0  0
 28 29  2  0  0  0  0
 28 30  1  0  0  0  0
 30 31  2  0  0  0  0
 30 35  1  0  0  0  0
 31 32  1  0  0  0  0
 31 61  1  0  0  0  0
 32 33  2  0  0  0  0
 33 34  1  0  0  0  0
 33 62  1  0  0  0  0
 34 35  2  0  0  0  0
 34 63  1  0  0  0  0
 35 64  1  0  0  0  0
 36 65  1  0  0  0  0
M  END
>  <DRUGBANK_ID>
DB04739

>  <COMMON_NAME>
4-[(4-METHYL-1-PIPERAZINYL)METHYL]-N-[3-[[4-(3-PYRIDINYL)-2-PYRIMIDINYL]AMINO]PHENYL]-BENZAMIDE

$$$$
