
 OpenBabel10282417213D

  1  0  0  0  0  0  0  0  0  0999 V2000
    1.0499    0.0609    0.0617 Ra  0  2  0  0  0  0  0  0  0  0  0  0
M  ISO  1   1 223
M  CHG  1   1   2
M  END
>  <DRUGBANK_ID>
DB14571

>  <COMMON_NAME>
Radium Ra-223 cation

>  <UNII>
9H414A99MD

>  <SYNONYMS>
Radium-223 ion(2+); Radium, isotope of mass 223 (223Ra2+)

$$$$
