
 OpenBabel10282417183D

123122  0  0  0  0  0  0  0  0999 V2000
    4.5808   -9.4438   -6.9626 C   0  0  0  0  0  0  0  0  0  0  0  0
    4.4111  -10.4922   -7.5922 O   0  0  0  0  0  0  0  0  0  0  0  0
    3.5623   -9.0115   -6.1016 N   0  0  0  0  0  0  0  0  0  0  0  0
    3.4173   -8.0548   -4.9568 C   0  0  1  0  0  0  0  0  0  0  0  0
    2.6624   -6.7932   -4.9460 C   0  0  0  0  0  0  0  0  0  0  0  0
    1.2271   -7.1709   -4.8790 C   0  0  0  0  0  0  0  0  0  0  0  0
    0.5652   -7.5321   -3.4271 C   0  0  0  0  0  0  0  0  0  0  0  0
   -0.3962   -6.8197   -2.9172 O   0  0  0  0  0  0  0  0  0  0  0  0
    0.7438   -8.3658   -2.5678 O   0  0  0  0  0  0  0  0  0  0  0  0
    3.3365   -8.7869   -3.6661 C   0  0  0  0  0  0  0  0  0  0  0  0
    4.7271   -9.3582   -2.5070 N   0  0  0  0  0  0  0  0  0  0  0  0
    3.8860  -10.2222   -0.8867 C   0  0  2  0  0  0  0  0  0  0  0  0
    2.1391  -10.1883   -0.5612 C   0  0  0  0  0  0  0  0  0  0  0  0
    1.2363  -10.8438   -1.0577 O   0  0  0  0  0  0  0  0  0  0  0  0
    1.8454   -9.2188    0.5497 N   0  0  0  0  0  0  0  0  0  0  0  0
    3.2036   -8.6882    1.7764 C   0  0  2  0  0  0  0  0  0  0  0  0
    5.2429   -9.0709    1.2434 C   0  0  0  0  0  0  0  0  0  0  0  0
    6.1846   -9.7239    1.7072 O   0  0  0  0  0  0  0  0  0  0  0  0
    5.3809   -8.9091   -0.5983 N   0  0  0  0  0  0  0  0  0  0  0  0
    3.6512   -8.5514   -1.6549 C   0  0  1  0  0  0  0  0  0  0  0  0
    4.3914   -6.9952   -1.9765 C   0  0  0  0  0  0  0  0  0  0  0  0
    5.5570   -7.1481   -2.8090 C   0  0  0  0  0  0  0  0  0  0  0  0
    5.7268   -7.7226   -4.2068 C   0  0  0  0  0  0  0  0  0  0  0  0
    6.0641   -7.0002   -5.1471 O   0  0  0  0  0  0  0  0  0  0  0  0
    5.3897   -8.9703   -4.4581 N   0  0  0  0  0  0  0  0  0  0  0  0
    3.5231  -10.5028   -2.6227 C   0  0  0  0  0  0  0  0  0  0  0  0
    2.7888  -11.5395   -2.6153 O   0  0  0  0  0  0  0  0  0  0  0  0
    4.9417  -10.9920   -3.5442 N   0  0  0  0  0  0  0  0  0  0  0  0
    6.6714  -10.2042   -3.3047 C   0  0  2  0  0  0  0  0  0  0  0  0
    7.3976   -8.6145   -2.5704 C   0  0  0  0  0  0  0  0  0  0  0  0
    7.7168   -7.1603   -3.3355 N   0  0  0  0  0  0  0  0  0  0  0  0
    7.3532   -5.5601   -2.6813 C   0  0  2  0  0  0  0  0  0  0  0  0
    5.9661   -4.4543   -3.0682 C   0  0  0  0  0  0  0  0  0  0  0  0
    4.8983   -4.7212   -3.6426 O   0  0  0  0  0  0  0  0  0  0  0  0
    5.8885   -3.2135   -2.5611 N   0  0  0  0  0  0  0  0  0  0  0  0
    8.6016   -4.9609   -3.0953 C   0  0  0  0  0  0  0  0  0  0  0  0
    8.8238   -3.7692   -2.2468 C   0  0  0  0  0  0  0  0  0  0  0  0
    8.7292   -4.0886   -0.7453 C   0  0  0  0  0  0  0  0  0  0  0  0
    9.7709   -5.0414   -0.3805 N   0  0  0  0  0  0  0  0  0  0  0  0
   10.7722   -4.6845    0.4554 C   0  0  0  0  0  0  0  0  0  0  0  0
   11.7366   -5.5926    0.6900 N   0  0  0  0  0  0  0  0  0  0  0  0
   10.7658   -3.5107    0.9843 N   0  0  0  0  0  0  0  0  0  0  0  0
    7.4199   -8.5845   -1.3370 O   0  0  0  0  0  0  0  0  0  0  0  0
    7.4538   -9.8221   -4.6269 C   0  0  0  0  0  0  0  0  0  0  0  0
    8.8514   -9.3718   -4.5063 C   0  0  0  0  0  0  0  0  0  0  0  0
    9.2879  -10.4529   -3.6340 C   0  0  0  0  0  0  0  0  0  0  0  0
    9.0507  -11.6920   -4.3444 N   0  0  0  0  0  0  0  0  0  0  0  0
   10.1199  -12.3471   -4.7667 C   0  0  0  0  0  0  0  0  0  0  0  0
    9.9033  -13.4582   -5.4690 N   0  0  0  0  0  0  0  0  0  0  0  0
   11.2635  -11.8933   -4.4099 N   0  0  0  0  0  0  0  0  0  0  0  0
    2.6035   -9.2948    3.0177 C   0  0  0  0  0  0  0  0  0  0  0  0
    3.7827   -8.9716    3.8980 C   0  0  0  0  0  0  0  0  0  0  0  0
    3.9950   -7.1168    3.9816 S   0  0  0  0  0  0  0  0  0  0  0  0
    4.4968   -6.4622    2.2685 C   0  0  0  0  0  0  0  0  0  0  0  0
    3.7674   -9.2295    0.1371 C   0  0  0  0  0  0  0  0  0  0  0  0
    3.7305  -10.6472    1.3089 C   0  0  0  0  0  0  0  0  0  0  0  0
    4.5878  -11.7824    1.5617 C   0  0  0  0  0  0  0  0  0  0  0  0
    5.2414  -11.9995    2.5651 O   0  0  0  0  0  0  0  0  0  0  0  0
    4.4053  -12.5417    0.5084 O   0  0  0  0  0  0  0  0  0  0  0  0
    2.1415   -9.4707   -3.8012 C   0  0  0  0  0  0  0  0  0  0  0  0
    5.9986   -8.9307   -7.0197 C   0  0  0  0  0  0  0  0  0  0  0  0
    2.7842   -9.6574   -6.0998 H   0  0  0  0  0  0  0  0  0  0  0  0
    4.1833   -7.3941   -4.8871 H   0  0  0  0  0  0  0  0  0  0  0  0
    2.9159   -6.1953   -4.0664 H   0  0  0  0  0  0  0  0  0  0  0  0
    3.1262   -6.2678   -5.8039 H   0  0  0  0  0  0  0  0  0  0  0  0
    0.7535   -6.2736   -5.2078 H   0  0  0  0  0  0  0  0  0  0  0  0
    1.1534   -7.9506   -5.6664 H   0  0  0  0  0  0  0  0  0  0  0  0
   -0.7331   -6.1069   -3.4231 H   0  0  0  0  0  0  0  0  0  0  0  0
    5.3726   -8.7202   -1.9976 H   0  0  0  0  0  0  0  0  0  0  0  0
    4.4353  -11.1178   -0.8398 H   0  0  0  0  0  0  0  0  0  0  0  0
    0.9715   -8.7334    0.3197 H   0  0  0  0  0  0  0  0  0  0  0  0
    2.8006   -7.7028    1.6255 H   0  0  0  0  0  0  0  0  0  0  0  0
    6.0875   -9.6403   -0.9711 H   0  0  0  0  0  0  0  0  0  0  0  0
    2.7257   -8.0098   -1.2459 H   0  0  0  0  0  0  0  0  0  0  0  0
    3.8070   -6.3504   -2.5617 H   0  0  0  0  0  0  0  0  0  0  0  0
    4.8252   -6.4236   -1.0998 H   0  0  0  0  0  0  0  0  0  0  0  0
    5.7044   -6.2908   -3.3272 H   0  0  0  0  0  0  0  0  0  0  0  0
    6.3269   -7.0907   -2.0155 H   0  0  0  0  0  0  0  0  0  0  0  0
    5.0765   -9.5047   -3.6689 H   0  0  0  0  0  0  0  0  0  0  0  0
    5.2004   -9.7774   -5.0332 H   0  0  0  0  0  0  0  0  0  0  0  0
    4.3260  -10.8816   -4.3857 H   0  0  0  0  0  0  0  0  0  0  0  0
    6.9365  -10.9355   -2.5439 H   0  0  0  0  0  0  0  0  0  0  0  0
    7.4721   -7.0200   -4.3513 H   0  0  0  0  0  0  0  0  0  0  0  0
    7.2214   -5.6946   -1.5958 H   0  0  0  0  0  0  0  0  0  0  0  0
    6.5831   -2.7300   -2.0413 H   0  0  0  0  0  0  0  0  0  0  0  0
    5.0780   -2.6795   -2.8507 H   0  0  0  0  0  0  0  0  0  0  0  0
    9.3473   -5.7336   -2.9042 H   0  0  0  0  0  0  0  0  0  0  0  0
    8.4744   -4.7929   -4.1660 H   0  0  0  0  0  0  0  0  0  0  0  0
    9.7681   -3.3445   -2.5378 H   0  0  0  0  0  0  0  0  0  0  0  0
    8.1238   -3.0110   -2.5537 H   0  0  0  0  0  0  0  0  0  0  0  0
    8.7941   -3.1420   -0.2128 H   0  0  0  0  0  0  0  0  0  0  0  0
    7.7493   -4.4668   -0.4115 H   0  0  0  0  0  0  0  0  0  0  0  0
    9.7451   -5.9572   -0.8169 H   0  0  0  0  0  0  0  0  0  0  0  0
   12.4978   -5.3807    1.3218 H   0  0  0  0  0  0  0  0  0  0  0  0
   11.7592   -6.5204    0.2906 H   0  0  0  0  0  0  0  0  0  0  0  0
   11.5566   -3.3557    1.6004 H   0  0  0  0  0  0  0  0  0  0  0  0
    7.2287  -10.5793   -5.3570 H   0  0  0  0  0  0  0  0  0  0  0  0
    7.2767   -8.8399   -5.0683 H   0  0  0  0  0  0  0  0  0  0  0  0
    9.2035   -9.1457   -5.5115 H   0  0  0  0  0  0  0  0  0  0  0  0
    9.0498   -8.4234   -4.0108 H   0  0  0  0  0  0  0  0  0  0  0  0
   10.2783  -10.1539   -3.3539 H   0  0  0  0  0  0  0  0  0  0  0  0
    8.7456  -10.4663   -2.6838 H   0  0  0  0  0  0  0  0  0  0  0  0
    8.1194  -11.9531   -4.6644 H   0  0  0  0  0  0  0  0  0  0  0  0
   10.6924  -14.0226   -5.7351 H   0  0  0  0  0  0  0  0  0  0  0  0
    8.9939  -13.7929   -5.7535 H   0  0  0  0  0  0  0  0  0  0  0  0
   12.0182  -12.4852   -4.7075 H   0  0  0  0  0  0  0  0  0  0  0  0
    1.5750   -8.9237    3.0825 H   0  0  0  0  0  0  0  0  0  0  0  0
    2.3926  -10.3985    3.0047 H   0  0  0  0  0  0  0  0  0  0  0  0
    3.5937   -9.5595    4.7880 H   0  0  0  0  0  0  0  0  0  0  0  0
    4.7834   -9.3733    3.6231 H   0  0  0  0  0  0  0  0  0  0  0  0
    5.4228   -6.8938    1.8758 H   0  0  0  0  0  0  0  0  0  0  0  0
    3.7609   -6.4116    1.4536 H   0  0  0  0  0  0  0  0  0  0  0  0
    4.5960   -5.3952    2.3506 H   0  0  0  0  0  0  0  0  0  0  0  0
    4.5438   -7.9411    0.3315 H   0  0  0  0  0  0  0  0  0  0  0  0
    3.5023   -7.9125    0.1262 H   0  0  0  0  0  0  0  0  0  0  0  0
    4.1111  -10.2815    2.2388 H   0  0  0  0  0  0  0  0  0  0  0  0
    2.6961  -10.9639    1.3326 H   0  0  0  0  0  0  0  0  0  0  0  0
    5.0629  -13.2313    0.5667 H   0  0  0  0  0  0  0  0  0  0  0  0
    1.3648   -9.5718   -4.5400 H   0  0  0  0  0  0  0  0  0  0  0  0
    1.6969   -9.8714   -2.8899 H   0  0  0  0  0  0  0  0  0  0  0  0
    6.9180   -9.4833   -7.2665 H   0  0  0  0  0  0  0  0  0  0  0  0
    6.2211   -7.8934   -6.8713 H   0  0  0  0  0  0  0  0  0  0  0  0
    6.1499   -9.4206   -6.1276 H   0  0  0  0  0  0  0  0  0  0  0  0
  1  2  2  0  0  0  0
  1  3  1  0  0  0  0
  1 61  1  0  0  0  0
  3  4  1  0  0  0  0
  3 62  1  0  0  0  0
  4  5  1  0  0  0  0
  4 10  1  0  0  0  0
  4 63  1  1  0  0  0
  5  6  1  0  0  0  0
  5 64  1  0  0  0  0
  5 65  1  0  0  0  0
  6  7  1  0  0  0  0
  6 66  1  0  0  0  0
  6 67  1  0  0  0  0
  7  8  1  0  0  0  0
  7  9  2  0  0  0  0
  8 68  1  0  0  0  0
 10 11  1  0  0  0  0
 10 60  2  0  0  0  0
 11 69  1  0  0  0  0
 12 55  1  0  0  0  0
 12 70  1  1  0  0  0
 12 13  1  0  0  0  0
 12 11  1  0  0  0  0
 13 14  2  0  0  0  0
 13 15  1  0  0  0  0
 15 71  1  0  0  0  0
 16 51  1  0  0  0  0
 16 72  1  1  0  0  0
 16 17  1  0  0  0  0
 16 15  1  0  0  0  0
 17 18  2  0  0  0  0
 17 19  1  0  0  0  0
 19 20  1  0  0  0  0
 19 73  1  0  0  0  0
 20 21  1  0  0  0  0
 20 26  1  0  0  0  0
 20 74  1  1  0  0  0
 21 22  1  0  0  0  0
 21 75  1  0  0  0  0
 21 76  1  0  0  0  0
 22 23  1  0  0  0  0
 22 77  1  0  0  0  0
 22 78  1  0  0  0  0
 23 24  2  0  0  0  0
 23 25  1  0  0  0  0
 25 79  1  0  0  0  0
 25 80  1  0  0  0  0
 26 27  2  0  0  0  0
 26 28  1  0  0  0  0
 28 81  1  0  0  0  0
 29 44  1  0  0  0  0
 29 82  1  1  0  0  0
 29 30  1  0  0  0  0
 29 28  1  0  0  0  0
 30 31  1  0  0  0  0
 30 43  2  0  0  0  0
 31 83  1  0  0  0  0
 32 36  1  0  0  0  0
 32 84  1  1  0  0  0
 32 33  1  0  0  0  0
 32 31  1  0  0  0  0
 33 34  2  0  0  0  0
 33 35  1  0  0  0  0
 35 85  1  0  0  0  0
 35 86  1  0  0  0  0
 36 37  1  0  0  0  0
 36 87  1  0  0  0  0
 36 88  1  0  0  0  0
 37 38  1  0  0  0  0
 37 89  1  0  0  0  0
 37 90  1  0  0  0  0
 38 39  1  0  0  0  0
 38 91  1  0  0  0  0
 38 92  1  0  0  0  0
 39 40  1  0  0  0  0
 39 93  1  0  0  0  0
 40 41  1  0  0  0  0
 40 42  2  0  0  0  0
 41 94  1  0  0  0  0
 41 95  1  0  0  0  0
 42 96  1  0  0  0  0
 44 45  1  0  0  0  0
 44 97  1  0  0  0  0
 44 98  1  0  0  0  0
 45 46  1  0  0  0  0
 45 99  1  0  0  0  0
 45100  1  0  0  0  0
 46 47  1  0  0  0  0
 46101  1  0  0  0  0
 46102  1  0  0  0  0
 47 48  1  0  0  0  0
 47103  1  0  0  0  0
 48 49  1  0  0  0  0
 48 50  2  0  0  0  0
 49104  1  0  0  0  0
 49105  1  0  0  0  0
 50106  1  0  0  0  0
 51 52  1  0  0  0  0
 51107  1  0  0  0  0
 51108  1  0  0  0  0
 52 53  1  0  0  0  0
 52109  1  0  0  0  0
 52110  1  0  0  0  0
 53 54  1  0  0  0  0
 54111  1  0  0  0  0
 54112  1  0  0  0  0
 54113  1  0  0  0  0
 55 56  1  0  0  0  0
 55114  1  0  0  0  0
 55115  1  0  0  0  0
 56 57  1  0  0  0  0
 56116  1  0  0  0  0
 56117  1  0  0  0  0
 57 58  2  0  0  0  0
 57 59  1  0  0  0  0
 59118  1  0  0  0  0
 60119  1  0  0  0  0
 60120  1  0  0  0  0
 61121  1  0  0  0  0
 61122  1  0  0  0  0
 61123  1  0  0  0  0
M  END
>  <DRUGBANK_ID>
DB11709

>  <COMMON_NAME>
Acetyl hexapeptide-3

>  <CAS_NUMBER>
616204-22-9

>  <UNII>
L4EL31FWIL

>  <SYNONYMS>
Acetyl hexapeptide-3; Acetyl hexapeptide-8; Argireline; Argireline NP; Hexapeptide 3

$$$$
