
 OpenBabel10282417123D

 13 12  0  0  0  0  0  0  0  0999 V2000
    1.0890   -0.1541    0.0982 C   0  0  0  0  0  0  0  0  0  0  0  0
    0.5584   -0.6002   -1.1419 O   0  0  0  0  0  0  0  0  0  0  0  0
    1.0866    0.0895   -2.2805 C   0  0  0  0  0  0  0  0  0  0  0  0
    0.5805    1.5277   -2.4071 C   0  0  0  0  0  0  0  0  0  0  0  0
    1.1722    2.3881   -1.4371 O   0  0  0  0  0  0  0  0  0  0  0  0
    0.8477   -0.8945    0.8649 H   0  0  0  0  0  0  0  0  0  0  0  0
    0.6071    0.7765    0.4012 H   0  0  0  0  0  0  0  0  0  0  0  0
    2.1752   -0.0303    0.0542 H   0  0  0  0  0  0  0  0  0  0  0  0
    2.1815    0.0461   -2.2655 H   0  0  0  0  0  0  0  0  0  0  0  0
    0.7450   -0.4710   -3.1581 H   0  0  0  0  0  0  0  0  0  0  0  0
    0.8538    1.9279   -3.3877 H   0  0  0  0  0  0  0  0  0  0  0  0
   -0.5079    1.5731   -2.2991 H   0  0  0  0  0  0  0  0  0  0  0  0
    0.5520    2.4314   -0.6866 H   0  0  0  0  0  0  0  0  0  0  0  0
  1  2  1  0  0  0  0
  1  6  1  0  0  0  0
  1  7  1  0  0  0  0
  1  8  1  0  0  0  0
  2  3  1  0  0  0  0
  3  4  1  0  0  0  0
  3  9  1  0  0  0  0
  3 10  1  0  0  0  0
  4  5  1  0  0  0  0
  4 11  1  0  0  0  0
  4 12  1  0  0  0  0
  5 13  1  0  0  0  0
M  END
>  <DRUGBANK_ID>
DB02806

>  <SECONDARY_ACCESSION_NUMBERS>
EXPT02260

>  <COMMON_NAME>
2-Methoxyethanol

>  <CAS_NUMBER>
109-86-4

>  <UNII>
EK1L6XWI56

$$$$
