
 OpenBabel10282417213D

 39 41  0  0  0  0  0  0  0  0999 V2000
   -1.9381   -1.0116   -0.1239 C   0  0  0  0  0  0  0  0  0  0  0  0
   -3.0267   -0.1500   -0.0490 C   0  0  0  0  0  0  0  0  0  0  0  0
   -2.8152    1.2263    0.0354 C   0  0  0  0  0  0  0  0  0  0  0  0
   -1.5175    1.7396    0.0641 C   0  0  0  0  0  0  0  0  0  0  0  0
   -0.6361   -0.4994   -0.1379 C   0  0  0  0  0  0  0  0  0  0  0  0
   -0.4416    0.8643   -0.0112 C   0  0  0  0  0  0  0  0  0  0  0  0
    1.7616   -0.8958   -0.0057 C   0  0  0  0  0  0  0  0  0  0  0  0
    3.0091   -2.5640    1.4791 C   0  0  0  0  0  0  0  0  0  0  0  0
    1.8801   -4.9582    1.6591 C   0  0  0  0  0  0  0  0  0  0  0  0
    2.9934   -1.7849    0.1178 C   0  0  1  0  0  0  0  0  0  0  0  0
    3.2015   -2.6512   -1.1276 C   0  0  0  0  0  0  0  0  0  0  0  0
    3.4317   -4.2976   -3.4037 C   0  0  0  0  0  0  0  0  0  0  0  0
    3.3397   -2.9120   -3.5380 C   0  0  0  0  0  0  0  0  0  0  0  0
    3.2228   -2.0895   -2.4112 C   0  0  0  0  0  0  0  0  0  0  0  0
    3.3520   -4.0372   -1.0358 C   0  0  0  0  0  0  0  0  0  0  0  0
    3.4478   -4.8621   -2.1441 C   0  0  0  0  0  0  0  0  0  0  0  0
    0.5205   -1.3638   -0.2381 C   0  0  0  0  0  0  0  0  0  0  0  0
    0.2030   -2.6705   -0.5312 O   0  0  0  0  0  0  0  0  0  0  0  0
    0.8526    1.4017    0.0429 O   0  0  0  0  0  0  0  0  0  0  0  0
    1.9707    0.5792    0.0515 C   0  0  0  0  0  0  0  0  0  0  0  0
    3.1049    1.0721    0.0518 O   0  0  0  0  0  0  0  0  0  0  0  0
    1.8053   -3.4547    1.8346 C   0  0  0  0  0  0  0  0  0  0  0  0
    0.7472   -2.9578    2.2226 O   0  0  0  0  0  0  0  0  0  0  0  0
   -2.1052   -2.0869   -0.1634 H   0  0  0  0  0  0  0  0  0  0  0  0
   -4.0328   -0.5590   -0.0635 H   0  0  0  0  0  0  0  0  0  0  0  0
   -3.6657    1.8989    0.0827 H   0  0  0  0  0  0  0  0  0  0  0  0
   -1.3454    2.8081    0.1376 H   0  0  0  0  0  0  0  0  0  0  0  0
    3.9243   -3.1629    1.5580 H   0  0  0  0  0  0  0  0  0  0  0  0
    3.0750   -1.8370    2.2999 H   0  0  0  0  0  0  0  0  0  0  0  0
    1.3280   -5.4442    2.4659 H   0  0  0  0  0  0  0  0  0  0  0  0
    1.4257   -5.2565    0.7066 H   0  0  0  0  0  0  0  0  0  0  0  0
    2.9105   -5.3168    1.7131 H   0  0  0  0  0  0  0  0  0  0  0  0
    3.8952   -1.1536    0.1517 H   0  0  0  0  0  0  0  0  0  0  0  0
    3.5047   -4.9402   -4.2746 H   0  0  0  0  0  0  0  0  0  0  0  0
    3.3575   -2.4701   -4.5300 H   0  0  0  0  0  0  0  0  0  0  0  0
    3.1337   -1.0127   -2.5535 H   0  0  0  0  0  0  0  0  0  0  0  0
    3.3993   -4.5365   -0.0894 H   0  0  0  0  0  0  0  0  0  0  0  0
    3.5461   -5.9341   -1.9986 H   0  0  0  0  0  0  0  0  0  0  0  0
    0.9840   -3.2298   -0.4540 H   0  0  0  0  0  0  0  0  0  0  0  0
  1  2  2  0  0  0  0
  1  5  1  0  0  0  0
  1 24  1  0  0  0  0
  2  3  1  0  0  0  0
  2 25  1  0  0  0  0
  3  4  2  0  0  0  0
  3 26  1  0  0  0  0
  4  6  1  0  0  0  0
  4 27  1  0  0  0  0
  6  5  2  0  0  0  0
  6 19  1  0  0  0  0
  7 10  1  0  0  0  0
  8 22  1  0  0  0  0
  8 28  1  0  0  0  0
  8 29  1  0  0  0  0
  9 30  1  0  0  0  0
  9 31  1  0  0  0  0
  9 32  1  0  0  0  0
 10  8  1  0  0  0  0
 10 11  1  0  0  0  0
 10 33  1  1  0  0  0
 11 15  1  0  0  0  0
 12 13  2  0  0  0  0
 12 16  1  0  0  0  0
 12 34  1  0  0  0  0
 13 14  1  0  0  0  0
 13 35  1  0  0  0  0
 14 11  2  0  0  0  0
 14 36  1  0  0  0  0
 15 16  2  0  0  0  0
 15 37  1  0  0  0  0
 16 38  1  0  0  0  0
 17  5  1  0  0  0  0
 17  7  2  0  0  0  0
 17 18  1  0  0  0  0
 18 39  1  0  0  0  0
 19 20  1  0  0  0  0
 20  7  1  0  0  0  0
 20 21  2  0  0  0  0
 22  9  1  0  0  0  0
 22 23  2  0  0  0  0
M  END
>  <DRUGBANK_ID>
DB14055

>  <SECONDARY_ACCESSION_NUMBERS>
EXPT02984; DB02507

>  <COMMON_NAME>
(S)-Warfarin

>  <CAS_NUMBER>
5543-57-7

>  <UNII>
HP31W7FNP4

>  <SYNONYMS>
(-)-Warfarin; (S)-4-Hydroxy-3-(3-oxo-1-phenylbutyl)-2-benzopyrone; 4-hydroxy-3-[(1S)-3-oxo-1-phenylbutyl]-2H-chromen-2-one; Levrowarfarin; S-Warfarin

$$$$
