
 OpenBabel10282417233D

 20 20  0  0  0  0  0  0  0  0999 V2000
   -1.8559    0.0460   -0.0567 C   0  0  0  0  0  0  0  0  0  0  0  0
   -1.1870   -1.1838   -0.0026 C   0  0  0  0  0  0  0  0  0  0  0  0
   -1.0941    1.2232   -0.1302 C   0  0  0  0  0  0  0  0  0  0  0  0
   -3.3678    0.1199   -0.0420 C   0  0  0  0  0  0  0  0  0  0  0  0
    0.2124   -1.2310    0.0155 C   0  0  0  0  0  0  0  0  0  0  0  0
    0.2948    1.1810   -0.0537 C   0  0  0  0  0  0  0  0  0  0  0  0
   -3.9332    0.8058    1.2084 C   0  0  0  0  0  0  0  0  0  0  0  0
    0.9390   -0.0425    0.0057 C   0  0  0  0  0  0  0  0  0  0  0  0
   -3.5722    2.1810    1.2891 O   0  0  0  0  0  0  0  0  0  0  0  0
    2.3018   -0.0299    0.0365 O   0  0  0  0  0  0  0  0  0  0  0  0
   -1.7472   -2.1172    0.0187 H   0  0  0  0  0  0  0  0  0  0  0  0
   -1.5776    2.1902   -0.2421 H   0  0  0  0  0  0  0  0  0  0  0  0
   -3.6964    0.6445   -0.9469 H   0  0  0  0  0  0  0  0  0  0  0  0
   -3.7863   -0.8938   -0.0921 H   0  0  0  0  0  0  0  0  0  0  0  0
    0.7113   -2.1934    0.0436 H   0  0  0  0  0  0  0  0  0  0  0  0
    0.8677    2.1043   -0.0531 H   0  0  0  0  0  0  0  0  0  0  0  0
   -5.0264    0.7728    1.1787 H   0  0  0  0  0  0  0  0  0  0  0  0
   -3.6037    0.3065    2.1255 H   0  0  0  0  0  0  0  0  0  0  0  0
   -2.6440    2.2050    1.5841 H   0  0  0  0  0  0  0  0  0  0  0  0
    2.6241   -0.9428   -0.0148 H   0  0  0  0  0  0  0  0  0  0  0  0
  1  2  1  0  0  0  0
  1  3  2  0  0  0  0
  1  4  1  0  0  0  0
  2  5  2  0  0  0  0
  2 11  1  0  0  0  0
  3  6  1  0  0  0  0
  3 12  1  0  0  0  0
  4  7  1  0  0  0  0
  4 13  1  0  0  0  0
  4 14  1  0  0  0  0
  5  8  1  0  0  0  0
  5 15  1  0  0  0  0
  6  8  2  0  0  0  0
  6 16  1  0  0  0  0
  7  9  1  0  0  0  0
  7 17  1  0  0  0  0
  7 18  1  0  0  0  0
  8 10  1  0  0  0  0
  9 19  1  0  0  0  0
 10 20  1  0  0  0  0
M  END
>  <DRUGBANK_ID>
DB16855

>  <COMMON_NAME>
Tyrosol

>  <CAS_NUMBER>
501-94-0

>  <UNII>
1AK4MU3SNX

>  <SYNONYMS>
4-Hydroxyphenethyl alcohol; 4-Hydroxyphenylethanol; p-Tyrosol

$$$$
