PIL
 OpenBabel10282417123D

 43 45  0  0  0  0  0  0  0  0999 V2000
   -2.6589   -0.9190    0.0456 Cl  0  0  0  0  0  0  0  0  0  0  0  0
   -1.1817   -0.0315   -0.0024 C   0  0  0  0  0  0  0  0  0  0  0  0
   -1.2409    1.3572    0.1448 C   0  0  0  0  0  0  0  0  0  0  0  0
   -0.1569    2.1605    0.2286 N   0  0  0  0  0  0  0  0  0  0  0  0
    1.0130    1.5779   -0.0685 C   0  0  0  0  0  0  0  0  0  0  0  0
    1.1124    0.2550   -0.4772 C   0  0  0  0  0  0  0  0  0  0  0  0
    2.3009    0.0126   -1.7146 Cl  0  0  0  0  0  0  0  0  0  0  0  0
    0.0608   -0.6403   -0.2341 C   0  0  0  0  0  0  0  0  0  0  0  0
    0.1669   -2.0757   -0.2136 N   0  0  0  0  0  0  0  0  0  0  0  0
    1.2630   -2.9278   -0.1630 C   0  0  0  0  0  0  0  0  0  0  0  0
    1.1085   -4.1547   -0.2564 O   0  0  0  0  0  0  0  0  0  0  0  0
    2.6229   -2.4150    0.0862 C   0  0  0  0  0  0  0  0  0  0  0  0
    2.7957   -1.5019    1.1344 C   0  0  0  0  0  0  0  0  0  0  0  0
    3.9339   -0.7185    1.1879 C   0  0  0  0  0  0  0  0  0  0  0  0
    4.9694   -0.9570    0.3080 C   0  0  0  0  0  0  0  0  0  0  0  0
    6.0760   -0.1818    0.3508 O   0  0  0  0  0  0  0  0  0  0  0  0
    6.1969    1.0349    1.0509 C   0  0  0  0  0  0  0  0  0  0  0  0
    4.8978   -2.0230   -0.6282 C   0  0  0  0  0  0  0  0  0  0  0  0
    3.6797   -2.7036   -0.7909 C   0  0  0  0  0  0  0  0  0  0  0  0
    5.9141   -2.4684   -1.4424 O   0  0  0  0  0  0  0  0  0  0  0  0
    7.2560   -2.0247   -1.2195 C   0  0  0  0  0  0  0  0  0  0  0  0
    7.7983   -2.1502    0.2201 C   0  0  0  0  0  0  0  0  0  0  0  0
    8.7956   -1.0019    0.3658 C   0  0  0  0  0  0  0  0  0  0  0  0
    8.6795   -0.1083   -0.8855 C   0  0  0  0  0  0  0  0  0  0  0  0
    7.5000   -0.5958   -1.7205 C   0  0  0  0  0  0  0  0  0  0  0  0
   -2.1874    1.8881    0.1932 H   0  0  0  0  0  0  0  0  0  0  0  0
    1.8849    2.2273   -0.0770 H   0  0  0  0  0  0  0  0  0  0  0  0
   -0.7086   -2.5929   -0.1437 H   0  0  0  0  0  0  0  0  0  0  0  0
    1.9821   -1.2677    1.8106 H   0  0  0  0  0  0  0  0  0  0  0  0
    3.9865    0.1110    1.8791 H   0  0  0  0  0  0  0  0  0  0  0  0
    5.4759    1.7649    0.6856 H   0  0  0  0  0  0  0  0  0  0  0  0
    6.1689    0.8649    2.1262 H   0  0  0  0  0  0  0  0  0  0  0  0
    7.1890    1.4420    0.8317 H   0  0  0  0  0  0  0  0  0  0  0  0
    3.5282   -3.3724   -1.6400 H   0  0  0  0  0  0  0  0  0  0  0  0
    7.9019   -2.6692   -1.8302 H   0  0  0  0  0  0  0  0  0  0  0  0
    7.0400   -2.1100    1.0106 H   0  0  0  0  0  0  0  0  0  0  0  0
    8.2614   -3.1242    0.4057 H   0  0  0  0  0  0  0  0  0  0  0  0
    8.6022   -0.4415    1.2914 H   0  0  0  0  0  0  0  0  0  0  0  0
    9.8125   -1.3905    0.4575 H   0  0  0  0  0  0  0  0  0  0  0  0
    8.5784    0.9515   -0.6261 H   0  0  0  0  0  0  0  0  0  0  0  0
    9.5941   -0.1865   -1.4747 H   0  0  0  0  0  0  0  0  0  0  0  0
    7.6979   -0.5582   -2.7949 H   0  0  0  0  0  0  0  0  0  0  0  0
    6.6245    0.0611   -1.6509 H   0  0  0  0  0  0  0  0  0  0  0  0
  1  2  1  0  0  0  0
  2  3  2  0  0  0  0
  2  8  1  0  0  0  0
  3  4  1  0  0  0  0
  3 26  1  0  0  0  0
  4  5  2  0  0  0  0
  5  6  1  0  0  0  0
  5 27  1  0  0  0  0
  6  7  1  0  0  0  0
  6  8  2  0  0  0  0
  8  9  1  0  0  0  0
  9 10  1  0  0  0  0
  9 28  1  0  0  0  0
 10 11  2  0  0  0  0
 10 12  1  0  0  0  0
 12 13  2  0  0  0  0
 12 19  1  0  0  0  0
 13 14  1  0  0  0  0
 13 29  1  0  0  0  0
 14 15  2  0  0  0  0
 14 30  1  0  0  0  0
 15 16  1  0  0  0  0
 15 18  1  0  0  0  0
 16 17  1  0  0  0  0
 17 31  1  0  0  0  0
 17 32  1  0  0  0  0
 17 33  1  0  0  0  0
 18 19  2  0  0  0  0
 18 20  1  0  0  0  0
 19 34  1  0  0  0  0
 20 21  1  0  0  0  0
 21 22  1  0  0  0  0
 21 25  1  0  0  0  0
 21 35  1  0  0  0  0
 22 23  1  0  0  0  0
 22 36  1  0  0  0  0
 22 37  1  0  0  0  0
 23 24  1  0  0  0  0
 23 38  1  0  0  0  0
 23 39  1  0  0  0  0
 24 25  1  0  0  0  0
 24 40  1  0  0  0  0
 24 41  1  0  0  0  0
 25 42  1  0  0  0  0
 25 43  1  0  0  0  0
M  END
>  <DRUGBANK_ID>
DB01791

>  <SECONDARY_ACCESSION_NUMBERS>
EXPT02600

>  <COMMON_NAME>
Piclamilast

>  <CAS_NUMBER>
144035-83-6

>  <UNII>
WM58D7C3ZT

>  <SYNONYMS>
3-(cyclopentyloxy)-N-(3,5-dichloro-4-pyridinyl)-4-methoxybenzamide; 3-(cyclopentyloxy)-N-(3,5-dichloro-4-pyridyl)-p-anisamide; Piclamilast; Piclamilastum

$$$$
