CMW
 OpenBabel10282417163D

 43 44  0  0  0  0  0  0  0  0999 V2000
    1.0882   -0.0970    0.0127 O   0  0  0  0  0  0  0  0  0  0  0  0
    2.2417    0.3178   -0.1085 C   0  0  0  0  0  0  0  0  0  0  0  0
    3.2042   -0.2995   -0.9388 N   0  0  0  0  0  0  0  0  0  0  0  0
    4.7770   -0.1766   -1.1267 C   0  0  0  0  0  0  0  0  0  0  0  0
    5.8351   -0.1891   -0.0409 C   0  0  0  0  0  0  0  0  0  0  0  0
    7.1752   -0.5079   -0.0408 C   0  0  0  0  0  0  0  0  0  0  0  0
    7.5946   -1.0516   -1.1471 N   0  0  0  0  0  0  0  0  0  0  0  0
    6.6936   -1.0972   -2.2017 C   0  0  0  0  0  0  0  0  0  0  0  0
    5.3333   -0.6651   -2.2746 C   0  0  0  0  0  0  0  0  0  0  0  0
    2.6030    1.4081    0.6049 O   0  0  0  0  0  0  0  0  0  0  0  0
    3.9396    1.3499    0.9887 C   0  0  0  0  0  0  0  0  0  0  0  0
    4.1930    0.0356    1.8836 C   0  0  0  0  0  0  0  0  0  0  0  0
    3.8767   -1.6929    1.2997 C   0  0  0  0  0  0  0  0  0  0  0  0
    4.4971   -2.2803   -0.0655 N   0  0  0  0  0  0  0  0  0  0  0  0
    4.0208   -3.3825   -1.2310 S   0  0  0  0  0  0  0  0  0  0  0  0
    2.5575   -3.3838   -1.2465 O   0  0  0  0  0  0  0  0  0  0  0  0
    4.7729   -3.3030   -2.4480 O   0  0  0  0  0  0  0  0  0  0  0  0
    4.7126   -4.7243   -0.4351 C   0  0  0  0  0  0  0  0  0  0  0  0
    5.6745   -4.5378    0.5829 C   0  0  0  0  0  0  0  0  0  0  0  0
    6.0361   -5.6106    1.3315 C   0  0  0  0  0  0  0  0  0  0  0  0
    5.5161   -6.8433    0.9561 C   0  0  0  0  0  0  0  0  0  0  0  0
    5.8867   -8.0433    1.7366 C   0  0  0  0  0  0  0  0  0  0  0  0
    4.6679   -7.0110   -0.1593 C   0  0  0  0  0  0  0  0  0  0  0  0
    4.2648   -5.9336   -0.8837 C   0  0  0  0  0  0  0  0  0  0  0  0
    2.7731   -1.1986   -1.2159 H   0  0  0  0  0  0  0  0  0  0  0  0
    5.6674   -0.7105    0.8994 H   0  0  0  0  0  0  0  0  0  0  0  0
    7.6861   -0.7011    0.9222 H   0  0  0  0  0  0  0  0  0  0  0  0
    7.1024   -1.6962   -3.0031 H   0  0  0  0  0  0  0  0  0  0  0  0
    4.7058   -0.9857   -3.1041 H   0  0  0  0  0  0  0  0  0  0  0  0
    4.5168    1.5525    0.0772 H   0  0  0  0  0  0  0  0  0  0  0  0
    4.2547    2.2632    1.5037 H   0  0  0  0  0  0  0  0  0  0  0  0
    5.2394    0.2020    2.2362 H   0  0  0  0  0  0  0  0  0  0  0  0
    3.6942    0.1520    2.8467 H   0  0  0  0  0  0  0  0  0  0  0  0
    4.3272   -2.3288    2.0673 H   0  0  0  0  0  0  0  0  0  0  0  0
    2.8004   -1.8388    1.2504 H   0  0  0  0  0  0  0  0  0  0  0  0
    5.5007   -2.2175   -0.2810 H   0  0  0  0  0  0  0  0  0  0  0  0
    6.1169   -3.5845    0.8599 H   0  0  0  0  0  0  0  0  0  0  0  0
    6.6877   -5.4675    2.1893 H   0  0  0  0  0  0  0  0  0  0  0  0
    4.9707   -8.5041    2.1089 H   0  0  0  0  0  0  0  0  0  0  0  0
    6.4292   -8.7136    1.0695 H   0  0  0  0  0  0  0  0  0  0  0  0
    6.5252   -7.7715    2.5798 H   0  0  0  0  0  0  0  0  0  0  0  0
    4.2905   -7.9796   -0.4547 H   0  0  0  0  0  0  0  0  0  0  0  0
    3.6134   -5.9903   -1.7515 H   0  0  0  0  0  0  0  0  0  0  0  0
  1  2  2  0  0  0  0
  2  3  1  0  0  0  0
  2 10  1  0  0  0  0
  3  4  1  0  0  0  0
  3 25  1  0  0  0  0
  4  5  1  0  0  0  0
  4  9  2  0  0  0  0
  5  6  2  0  0  0  0
  5 26  1  0  0  0  0
  6  7  1  0  0  0  0
  6 27  1  0  0  0  0
  7  8  2  0  0  0  0
  8  9  1  0  0  0  0
  8 28  1  0  0  0  0
  9 29  1  0  0  0  0
 10 11  1  0  0  0  0
 11 12  1  0  0  0  0
 11 30  1  0  0  0  0
 11 31  1  0  0  0  0
 12 13  1  0  0  0  0
 12 32  1  0  0  0  0
 12 33  1  0  0  0  0
 13 14  1  0  0  0  0
 13 34  1  0  0  0  0
 13 35  1  0  0  0  0
 14 15  1  0  0  0  0
 14 36  1  0  0  0  0
 15 16  2  0  0  0  0
 15 17  2  0  0  0  0
 15 18  1  0  0  0  0
 18 19  1  0  0  0  0
 18 24  2  0  0  0  0
 19 20  2  0  0  0  0
 19 37  1  0  0  0  0
 20 21  1  0  0  0  0
 20 38  1  0  0  0  0
 21 22  1  0  0  0  0
 21 23  2  0  0  0  0
 22 39  1  0  0  0  0
 22 40  1  0  0  0  0
 22 41  1  0  0  0  0
 23 24  1  0  0  0  0
 23 42  1  0  0  0  0
 24 43  1  0  0  0  0
M  END
>  <DRUGBANK_ID>
DB07572

>  <COMMON_NAME>
3-{[(4-methylphenyl)sulfonyl]amino}propyl pyridin-4-ylcarbamate

$$$$
