
 OpenBabel10282417183D

 49 51  0  0  0  0  0  0  0  0999 V2000
    2.3632   -1.5685    0.0490 C   0  0  0  0  0  0  0  0  0  0  0  0
    3.5409   -1.0657   -0.4749 C   0  0  0  0  0  0  0  0  0  0  0  0
    3.6490    0.3027   -0.7440 C   0  0  0  0  0  0  0  0  0  0  0  0
    2.5869    1.1644   -0.4581 C   0  0  0  0  0  0  0  0  0  0  0  0
    1.4012    0.6667    0.0628 C   0  0  0  0  0  0  0  0  0  0  0  0
    1.2751   -0.7183    0.2970 C   0  0  0  0  0  0  0  0  0  0  0  0
    0.0180   -1.2735    0.6413 N   0  0  0  0  0  0  0  0  0  0  0  0
    0.0338    1.7715    0.4092 S   0  0  0  0  0  0  0  0  0  0  0  0
   -1.3154    0.6768   -0.0224 C   0  0  0  0  0  0  0  0  0  0  0  0
   -1.1489   -0.7216    0.0635 C   0  0  0  0  0  0  0  0  0  0  0  0
   -2.1696   -1.4866   -0.5476 C   0  0  0  0  0  0  0  0  0  0  0  0
   -2.5204    1.2205   -0.4817 C   0  0  0  0  0  0  0  0  0  0  0  0
   -3.6078    0.4070   -0.8097 C   0  0  0  0  0  0  0  0  0  0  0  0
   -3.4621   -0.9819   -0.7958 C   0  0  0  0  0  0  0  0  0  0  0  0
    0.1246   -2.0499    1.9463 C   0  0  0  0  0  0  0  0  0  0  0  0
   -0.6964   -1.6099    3.1915 C   0  0  3  0  0  0  0  0  0  0  0  0
   -2.1938   -1.4326    2.9800 C   0  0  0  0  0  0  0  0  0  0  0  0
   -2.9659   -2.6913    2.7775 N   0  0  0  0  0  0  0  0  0  0  0  0
   -4.2897   -2.2729    2.3697 C   0  0  0  0  0  0  0  0  0  0  0  0
   -2.4164   -3.5560    1.7393 C   0  0  0  0  0  0  0  0  0  0  0  0
   -0.5661   -2.5944    4.3787 C   0  0  0  0  0  0  0  0  0  0  0  0
   -4.6593   -1.9091   -0.9737 C   0  0  0  0  0  0  0  0  0  0  0  0
   -5.9637   -1.5263   -0.2356 C   0  0  0  0  0  0  0  0  0  0  0  0
    2.2599   -2.6432    0.2081 H   0  0  0  0  0  0  0  0  0  0  0  0
    4.3603   -1.7389   -0.7089 H   0  0  0  0  0  0  0  0  0  0  0  0
    4.5551    0.6916   -1.1906 H   0  0  0  0  0  0  0  0  0  0  0  0
    2.6793    2.2262   -0.6803 H   0  0  0  0  0  0  0  0  0  0  0  0
   -1.9812   -2.5406   -0.7698 H   0  0  0  0  0  0  0  0  0  0  0  0
   -2.6363    2.3020   -0.5600 H   0  0  0  0  0  0  0  0  0  0  0  0
   -4.5539    0.8562   -1.0821 H   0  0  0  0  0  0  0  0  0  0  0  0
    0.0202   -3.1133    1.7220 H   0  0  0  0  0  0  0  0  0  0  0  0
    1.1647   -2.0163    2.3108 H   0  0  0  0  0  0  0  0  0  0  0  0
   -0.2866   -0.6462    3.5267 H   0  0  0  0  0  0  0  0  0  0  0  0
   -2.6120   -0.9354    3.8684 H   0  0  0  0  0  0  0  0  0  0  0  0
   -2.3534   -0.6954    2.1910 H   0  0  0  0  0  0  0  0  0  0  0  0
   -4.1768   -1.5002    1.6125 H   0  0  0  0  0  0  0  0  0  0  0  0
   -4.8641   -3.1086    1.9578 H   0  0  0  0  0  0  0  0  0  0  0  0
   -4.8604   -1.8338    3.1882 H   0  0  0  0  0  0  0  0  0  0  0  0
   -1.9223   -2.9417    1.0303 H   0  0  0  0  0  0  0  0  0  0  0  0
   -1.6468   -4.2459    2.0873 H   0  0  0  0  0  0  0  0  0  0  0  0
   -3.1410   -4.1319    1.1566 H   0  0  0  0  0  0  0  0  0  0  0  0
    0.4680   -2.7769    4.6682 H   0  0  0  0  0  0  0  0  0  0  0  0
   -1.1061   -2.2010    5.2520 H   0  0  0  0  0  0  0  0  0  0  0  0
   -1.0202   -3.5672    4.1567 H   0  0  0  0  0  0  0  0  0  0  0  0
   -4.8883   -1.9863   -2.0393 H   0  0  0  0  0  0  0  0  0  0  0  0
   -4.3788   -2.9187   -0.6383 H   0  0  0  0  0  0  0  0  0  0  0  0
   -6.3007   -0.5187   -0.4816 H   0  0  0  0  0  0  0  0  0  0  0  0
   -6.7577   -2.2413   -0.4711 H   0  0  0  0  0  0  0  0  0  0  0  0
   -5.9134   -1.5378    0.8515 H   0  0  0  0  0  0  0  0  0  0  0  0
  1  2  1  0  0  0  0
  1  6  2  0  0  0  0
  1 24  1  0  0  0  0
  2  3  2  0  0  0  0
  2 25  1  0  0  0  0
  3  4  1  0  0  0  0
  3 26  1  0  0  0  0
  4  5  2  0  0  0  0
  4 27  1  0  0  0  0
  5  8  1  0  0  0  0
  6  5  1  0  0  0  0
  7  6  1  0  0  0  0
  7 10  1  0  0  0  0
  7 15  1  0  0  0  0
  8  9  1  0  0  0  0
  9 12  1  0  0  0  0
 10  9  2  0  0  0  0
 11 10  1  0  0  0  0
 11 14  2  0  0  0  0
 11 28  1  0  0  0  0
 12 13  2  0  0  0  0
 12 29  1  0  0  0  0
 13 14  1  0  0  0  0
 13 30  1  0  0  0  0
 14 22  1  0  0  0  0
 15 16  1  0  0  0  0
 15 31  1  0  0  0  0
 15 32  1  0  0  0  0
 16 17  1  0  0  0  0
 16 21  1  0  0  0  0
 16 33  1  0  0  0  0
 17 18  1  0  0  0  0
 17 34  1  0  0  0  0
 17 35  1  0  0  0  0
 18 19  1  0  0  0  0
 18 20  1  0  0  0  0
 19 36  1  0  0  0  0
 19 37  1  0  0  0  0
 19 38  1  0  0  0  0
 20 39  1  0  0  0  0
 20 40  1  0  0  0  0
 20 41  1  0  0  0  0
 21 42  1  0  0  0  0
 21 43  1  0  0  0  0
 21 44  1  0  0  0  0
 22 23  1  0  0  0  0
 22 45  1  0  0  0  0
 22 46  1  0  0  0  0
 23 47  1  0  0  0  0
 23 48  1  0  0  0  0
 23 49  1  0  0  0  0
M  END
>  <DRUGBANK_ID>
DB11517

>  <COMMON_NAME>
Etymemazine

>  <UNII>
861J4K81C7

>  <SYNONYMS>
Ethylisobutrazine; Etymemazine

$$$$
