
 OpenBabel10282417153D

 53 56  0  0  1  0  0  0  0  0999 V2000
    0.4213   -2.0444    0.0020 S   0  0  0  0  0  0  0  0  0  0  0  0
   -4.1130    1.7210    9.9657 O   0  0  0  0  0  0  0  0  0  0  0  0
    1.4165   -1.7195    1.2787 O   0  0  0  0  0  0  0  0  0  0  0  0
    0.1729   -0.5718   -0.5933 O   0  0  0  0  0  0  0  0  0  0  0  0
   -0.8666   -2.5329    0.4228 O   0  0  0  0  0  0  0  0  0  0  0  0
    1.1903   -2.7625   -0.9922 O   0  0  0  0  0  0  0  0  0  0  0  0
   -1.0062    0.1029    6.1535 C   0  0  1  0  0  0  0  0  0  0  0  0
   -0.2836    1.1392    7.0441 C   0  0  2  0  0  0  0  0  0  0  0  0
   -1.3650    1.8706    7.8493 C   0  0  1  0  0  0  0  0  0  0  0  0
   -2.1751    0.9131    8.7476 C   0  0  2  0  0  0  0  0  0  0  0  0
   -0.0092   -0.6847    5.2448 C   0  0  2  0  0  0  0  0  0  0  0  0
   -1.9509   -0.8257    6.9657 C   0  0  0  0  0  0  0  0  0  0  0  0
   -2.9309   -0.0692    7.8635 C   0  0  0  0  0  0  0  0  0  0  0  0
   -0.9894    3.0185    8.7770 C   0  0  0  0  0  0  0  0  0  0  0  0
    0.5264    2.1124    6.1720 C   0  0  0  0  0  0  0  0  0  0  0  0
    1.0591    0.2121    4.5967 C   0  0  0  0  0  0  0  0  0  0  0  0
   -0.8713   -1.2952    4.1346 C   0  0  0  0  0  0  0  0  0  0  0  0
   -3.0173    1.9421    9.4682 C   0  0  0  0  0  0  0  0  0  0  0  0
   -2.2990    3.2774    9.5441 C   0  0  0  0  0  0  0  0  0  0  0  0
    1.2725    1.4668    5.0359 C   0  0  0  0  0  0  0  0  0  0  0  0
   -1.3607    0.1884    9.8323 C   0  0  0  0  0  0  0  0  0  0  0  0
    0.7168   -1.8033    6.0216 C   0  0  0  0  0  0  0  0  0  0  0  0
    1.8315   -0.3837    3.4033 C   0  0  0  0  0  0  0  0  0  0  0  0
   -0.0388   -2.0026    3.1128 C   0  0  0  0  0  0  0  0  0  0  0  0
    0.8444   -1.0099    2.3752 C   0  0  2  0  0  0  0  0  0  0  0  0
   -1.6643    0.6859    5.4865 H   0  0  0  0  0  0  0  0  0  0  0  0
    0.4107    0.6226    7.7179 H   0  0  0  0  0  0  0  0  0  0  0  0
   -2.0519    2.3126    7.1059 H   0  0  0  0  0  0  0  0  0  0  0  0
    1.0203   -0.2396   -0.9396 H   0  0  0  0  0  0  0  0  0  0  0  0
   -1.3604   -1.4941    7.5990 H   0  0  0  0  0  0  0  0  0  0  0  0
   -2.5323   -1.4689    6.2981 H   0  0  0  0  0  0  0  0  0  0  0  0
   -3.4937   -0.7886    8.4706 H   0  0  0  0  0  0  0  0  0  0  0  0
   -3.6706    0.4502    7.2409 H   0  0  0  0  0  0  0  0  0  0  0  0
   -0.6666    3.9106    8.2325 H   0  0  0  0  0  0  0  0  0  0  0  0
   -0.1805    2.7381    9.4599 H   0  0  0  0  0  0  0  0  0  0  0  0
   -0.1394    2.8708    5.7410 H   0  0  0  0  0  0  0  0  0  0  0  0
    1.2415    2.6435    6.8109 H   0  0  0  0  0  0  0  0  0  0  0  0
   -1.5882   -2.0220    4.5238 H   0  0  0  0  0  0  0  0  0  0  0  0
   -1.4597   -0.5171    3.6235 H   0  0  0  0  0  0  0  0  0  0  0  0
   -2.9092    4.0351    9.0455 H   0  0  0  0  0  0  0  0  0  0  0  0
   -2.1066    3.5461   10.5845 H   0  0  0  0  0  0  0  0  0  0  0  0
    2.0195    2.0925    4.5517 H   0  0  0  0  0  0  0  0  0  0  0  0
   -2.0255   -0.4012   10.4742 H   0  0  0  0  0  0  0  0  0  0  0  0
   -0.6098   -0.4882    9.4178 H   0  0  0  0  0  0  0  0  0  0  0  0
   -0.8384    0.8882   10.4926 H   0  0  0  0  0  0  0  0  0  0  0  0
    0.0147   -2.5553    6.3946 H   0  0  0  0  0  0  0  0  0  0  0  0
    1.4315   -2.3514    5.3999 H   0  0  0  0  0  0  0  0  0  0  0  0
    1.2819   -1.4000    6.8658 H   0  0  0  0  0  0  0  0  0  0  0  0
    2.4454    0.3873    2.9183 H   0  0  0  0  0  0  0  0  0  0  0  0
    2.5479   -1.1296    3.7730 H   0  0  0  0  0  0  0  0  0  0  0  0
    0.5710   -2.8128    3.5252 H   0  0  0  0  0  0  0  0  0  0  0  0
   -0.7489   -2.5184    2.4848 H   0  0  0  0  0  0  0  0  0  0  0  0
    0.2845   -0.1659    1.9563 H   0  0  0  0  0  0  0  0  0  0  0  0
  1  3  1  0  0  0  0
  1  4  1  0  0  0  0
  1  5  2  0  0  0  0
  1  6  2  0  0  0  0
  2 18  2  0  0  0  0
  4 29  1  0  0  0  0
  7  8  1  0  0  0  0
  7 11  1  0  0  0  0
  7 12  1  0  0  0  0
  7 26  1  6  0  0  0
  8  9  1  0  0  0  0
  8 15  1  0  0  0  0
  8 27  1  1  0  0  0
  9 10  1  0  0  0  0
  9 14  1  0  0  0  0
  9 28  1  6  0  0  0
 10 13  1  0  0  0  0
 10 18  1  0  0  0  0
 10 21  1  1  0  0  0
 11 16  1  0  0  0  0
 11 17  1  0  0  0  0
 11 22  1  1  0  0  0
 12 13  1  0  0  0  0
 12 30  1  0  0  0  0
 12 31  1  0  0  0  0
 13 32  1  0  0  0  0
 13 33  1  0  0  0  0
 14 19  1  0  0  0  0
 14 34  1  0  0  0  0
 14 35  1  0  0  0  0
 15 20  1  0  0  0  0
 15 36  1  0  0  0  0
 15 37  1  0  0  0  0
 16 20  2  0  0  0  0
 16 23  1  0  0  0  0
 17 24  1  0  0  0  0
 17 38  1  0  0  0  0
 17 39  1  0  0  0  0
 18 19  1  0  0  0  0
 19 40  1  0  0  0  0
 19 41  1  0  0  0  0
 20 42  1  0  0  0  0
 21 43  1  0  0  0  0
 21 44  1  0  0  0  0
 21 45  1  0  0  0  0
 22 46  1  0  0  0  0
 22 47  1  0  0  0  0
 22 48  1  0  0  0  0
 23 25  1  0  0  0  0
 23 49  1  0  0  0  0
 23 50  1  0  0  0  0
 24 25  1  0  0  0  0
 24 51  1  0  0  0  0
 24 52  1  0  0  0  0
 25 53  1  6  0  0  0
 25  3  1  0  0  0  0
M  END
>  <DRUGBANK_ID>
DB05804

>  <COMMON_NAME>
Prasterone sulfate

>  <CAS_NUMBER>
651-48-9

>  <UNII>
57B09Q7FJR

>  <SYNONYMS>
(3-beta)-3-(Sulfooxy)androst-5-en-17-one; 17-Ketoandrost-5-en-3beta-yl sulfate; 17-oxoandrost-5-en-3Î²-yl hydrogen sulphate; 3-O-Sulfodehydroepiandrosterone; 3beta-Hydroxyandrost-5-en-17-one 3-sulfate; Androst-5-en-17-on-3beta-yl sulfuric acid; Dehydroepiandrosterone 3-sulfate; Dehydroepiandrosterone monosulfate; Dehydroepiandrosterone sulfate; Dehydroepiandrosterone sulphate; Dehydroisoandrosterone sulfate; Dehydroisoandrosterone-3-sulfate; DHEA sulfate; DHEA sulphate; DHEA-S; Prasterone sulphate

$$$$
