
 OpenBabel10282417223D

 82 85  0  0  1  0  0  0  0  0999 V2000
   -4.7500   10.0703    6.8470 C   0  0  0  0  0  0  0  0  0  0  0  0
   -6.0980    9.5291    7.3332 C   0  0  0  0  0  0  0  0  0  0  0  0
   -7.2414   10.0755    6.4862 C   0  0  0  0  0  0  0  0  0  0  0  0
   -7.0882    9.7615    4.9889 C   0  0  0  0  0  0  0  0  0  0  0  0
   -7.0906    8.3434    4.6882 O   0  0  0  0  0  0  0  0  0  0  0  0
   -6.0327    7.5387    5.0317 C   0  0  0  0  0  0  0  0  0  0  0  0
   -4.9658    7.8346    5.4903 O   0  0  0  0  0  0  0  0  0  0  0  0
   -6.3692    6.2319    4.8664 N   0  0  0  0  0  0  0  0  0  0  0  0
   -6.5476    5.7575    3.5251 C   0  0  0  0  0  0  0  0  0  0  0  0
   -7.7414    4.8506    3.5651 C   0  0  0  0  0  0  0  0  0  0  0  0
   -7.4793    3.7420    4.4780 N   0  0  0  0  0  0  0  0  0  0  0  0
   -7.2371    4.2149    5.8687 C   0  0  0  0  0  0  0  0  0  0  0  0
   -6.0643    5.2038    5.8618 C   0  0  0  0  0  0  0  0  0  0  0  0
   -7.8835    2.4361    4.3019 C   0  0  0  0  0  0  0  0  0  0  0  0
   -8.2621    1.8637    5.3309 O   0  0  0  0  0  0  0  0  0  0  0  0
   -7.9621    1.7231    2.8420 C   0  0  2  0  0  0  0  0  0  0  0  0
   -7.1618    0.4663    2.4891 C   0  0  0  0  0  0  0  0  0  0  0  0
   -7.0122   -0.8544    3.7469 P   0  0  0  0  0  0  0  0  0  0  0  0
   -6.6925    0.3244    4.7797 O   0  0  0  0  0  0  0  0  0  0  0  0
   -8.6479   -0.9275    3.6280 O   0  0  0  0  0  0  0  0  0  0  0  0
   -6.8857   -1.9719    4.8111 O   0  0  0  0  0  0  0  0  0  0  0  0
   -7.7311    2.6290    1.7135 N   0  0  0  0  0  0  0  0  0  0  0  0
   -8.6857    3.2819    0.9598 C   0  0  0  0  0  0  0  0  0  0  0  0
   -8.3223    4.1643    0.1863 O   0  0  0  0  0  0  0  0  0  0  0  0
  -10.1291    2.9661    1.1713 C   0  0  0  0  0  0  0  0  0  0  0  0
  -10.6894    2.9260    2.4355 C   0  0  0  0  0  0  0  0  0  0  0  0
  -11.9541    2.3995    2.5580 C   0  0  0  0  0  0  0  0  0  0  0  0
  -12.6446    2.0652    1.4617 N   0  0  0  0  0  0  0  0  0  0  0  0
  -12.0571    2.2612    0.2610 C   0  0  0  0  0  0  0  0  0  0  0  0
  -10.7966    2.6578    0.0600 N   0  0  0  0  0  0  0  0  0  0  0  0
  -12.8603    2.0843   -0.9422 C   0  0  0  0  0  0  0  0  0  0  0  0
  -13.9972    2.8775   -1.1617 C   0  0  0  0  0  0  0  0  0  0  0  0
  -14.7227    2.7715   -2.3489 C   0  0  0  0  0  0  0  0  0  0  0  0
  -14.3099    1.8829   -3.3394 C   0  0  0  0  0  0  0  0  0  0  0  0
  -13.1665    1.1100   -3.1505 C   0  0  0  0  0  0  0  0  0  0  0  0
  -12.4672    1.1839   -1.9454 C   0  0  0  0  0  0  0  0  0  0  0  0
  -12.4953    2.1879    3.7946 N   0  0  0  0  0  0  0  0  0  0  0  0
  -12.5621    3.1788    4.8517 C   0  0  0  0  0  0  0  0  0  0  0  0
  -12.3343    2.3603    6.1078 C   0  0  0  0  0  0  0  0  0  0  0  0
  -13.0345    1.0291    5.8012 C   0  0  1  0  0  0  0  0  0  0  0  0
  -13.0019    0.8940    4.2491 C   0  0  0  0  0  0  0  0  0  0  0  0
  -12.4860   -0.0700    6.5302 O   0  0  0  0  0  0  0  0  0  0  0  0
  -11.1174   -0.3616    6.2570 C   0  0  0  0  0  0  0  0  0  0  0  0
   -4.5968    9.9835    5.7654 H   0  0  0  0  0  0  0  0  0  0  0  0
   -3.9246    9.5310    7.3179 H   0  0  0  0  0  0  0  0  0  0  0  0
   -4.6693   11.1364    7.0569 H   0  0  0  0  0  0  0  0  0  0  0  0
   -6.1527    8.4351    7.3264 H   0  0  0  0  0  0  0  0  0  0  0  0
   -6.2282    9.7828    8.3884 H   0  0  0  0  0  0  0  0  0  0  0  0
   -8.1874    9.6574    6.8535 H   0  0  0  0  0  0  0  0  0  0  0  0
   -7.2946   11.1615    6.6372 H   0  0  0  0  0  0  0  0  0  0  0  0
   -7.9543   10.2007    4.4732 H   0  0  0  0  0  0  0  0  0  0  0  0
   -6.2166   10.2410    4.5362 H   0  0  0  0  0  0  0  0  0  0  0  0
   -6.6737    6.5731    2.8091 H   0  0  0  0  0  0  0  0  0  0  0  0
   -5.6430    5.1985    3.2412 H   0  0  0  0  0  0  0  0  0  0  0  0
   -8.6374    5.3715    3.9241 H   0  0  0  0  0  0  0  0  0  0  0  0
   -7.9546    4.5686    2.5684 H   0  0  0  0  0  0  0  0  0  0  0  0
   -8.1559    4.7184    6.2053 H   0  0  0  0  0  0  0  0  0  0  0  0
   -7.0385    3.3957    6.5674 H   0  0  0  0  0  0  0  0  0  0  0  0
   -5.1462    4.6816    5.5637 H   0  0  0  0  0  0  0  0  0  0  0  0
   -5.9086    5.6432    6.8517 H   0  0  0  0  0  0  0  0  0  0  0  0
   -8.9884    1.3736    2.8192 H   0  0  0  0  0  0  0  0  0  0  0  0
   -7.3726    0.0624    1.4915 H   0  0  0  0  0  0  0  0  0  0  0  0
   -6.1124    0.7985    2.4309 H   0  0  0  0  0  0  0  0  0  0  0  0
   -5.8735    0.3018    5.2968 H   0  0  0  0  0  0  0  0  0  0  0  0
   -8.9830   -1.0536    2.7140 H   0  0  0  0  0  0  0  0  0  0  0  0
   -6.7953    3.0127    1.6030 H   0  0  0  0  0  0  0  0  0  0  0  0
  -10.1292    3.1726    3.3237 H   0  0  0  0  0  0  0  0  0  0  0  0
  -14.3072    3.5972   -0.4061 H   0  0  0  0  0  0  0  0  0  0  0  0
  -15.5984    3.3952   -2.5053 H   0  0  0  0  0  0  0  0  0  0  0  0
  -14.8792    1.7928   -4.2605 H   0  0  0  0  0  0  0  0  0  0  0  0
  -12.8122    0.4586   -3.9445 H   0  0  0  0  0  0  0  0  0  0  0  0
  -11.6044    0.5400   -1.7878 H   0  0  0  0  0  0  0  0  0  0  0  0
  -13.5653    3.6187    4.8640 H   0  0  0  0  0  0  0  0  0  0  0  0
  -11.8266    3.9828    4.7632 H   0  0  0  0  0  0  0  0  0  0  0  0
  -11.2588    2.2512    6.2630 H   0  0  0  0  0  0  0  0  0  0  0  0
  -12.7258    2.8393    7.0113 H   0  0  0  0  0  0  0  0  0  0  0  0
  -14.0842    1.1121    6.1168 H   0  0  0  0  0  0  0  0  0  0  0  0
  -12.3774    0.0624    3.9132 H   0  0  0  0  0  0  0  0  0  0  0  0
  -14.0140    0.7141    3.8703 H   0  0  0  0  0  0  0  0  0  0  0  0
  -10.9692   -0.6067    5.2055 H   0  0  0  0  0  0  0  0  0  0  0  0
  -10.4668    0.4654    6.5422 H   0  0  0  0  0  0  0  0  0  0  0  0
  -10.8218   -1.2293    6.8500 H   0  0  0  0  0  0  0  0  0  0  0  0
  1  2  1  0  0  0  0
  1 44  1  0  0  0  0
  1 45  1  0  0  0  0
  1 46  1  0  0  0  0
  2  3  1  0  0  0  0
  2 47  1  0  0  0  0
  2 48  1  0  0  0  0
  3  4  1  0  0  0  0
  3 49  1  0  0  0  0
  3 50  1  0  0  0  0
  4  5  1  0  0  0  0
  4 51  1  0  0  0  0
  4 52  1  0  0  0  0
  5  6  1  0  0  0  0
  6  7  2  0  0  0  0
  6  8  1  0  0  0  0
  8  9  1  0  0  0  0
  8 13  1  0  0  0  0
  9 10  1  0  0  0  0
  9 53  1  0  0  0  0
  9 54  1  0  0  0  0
 10 11  1  0  0  0  0
 10 55  1  0  0  0  0
 10 56  1  0  0  0  0
 11 12  1  0  0  0  0
 11 14  1  0  0  0  0
 12 13  1  0  0  0  0
 12 57  1  0  0  0  0
 12 58  1  0  0  0  0
 13 59  1  0  0  0  0
 13 60  1  0  0  0  0
 14 15  2  0  0  0  0
 16 22  1  0  0  0  0
 16 61  1  6  0  0  0
 16 17  1  0  0  0  0
 16 14  1  0  0  0  0
 17 18  1  0  0  0  0
 17 62  1  0  0  0  0
 17 63  1  0  0  0  0
 18 19  1  0  0  0  0
 18 20  1  0  0  0  0
 18 21  2  0  0  0  0
 19 64  1  0  0  0  0
 20 65  1  0  0  0  0
 22 23  1  0  0  0  0
 22 66  1  0  0  0  0
 23 24  2  0  0  0  0
 23 25  1  0  0  0  0
 25 26  2  0  0  0  0
 25 30  1  0  0  0  0
 26 27  1  0  0  0  0
 26 67  1  0  0  0  0
 27 28  2  0  0  0  0
 27 37  1  0  0  0  0
 28 29  1  0  0  0  0
 29 30  2  0  0  0  0
 29 31  1  0  0  0  0
 31 32  2  0  0  0  0
 31 36  1  0  0  0  0
 32 33  1  0  0  0  0
 32 68  1  0  0  0  0
 33 34  2  0  0  0  0
 33 69  1  0  0  0  0
 34 35  1  0  0  0  0
 34 70  1  0  0  0  0
 35 36  2  0  0  0  0
 35 71  1  0  0  0  0
 36 72  1  0  0  0  0
 37 38  1  0  0  0  0
 37 41  1  0  0  0  0
 38 39  1  0  0  0  0
 38 73  1  0  0  0  0
 38 74  1  0  0  0  0
 39 75  1  0  0  0  0
 39 76  1  0  0  0  0
 40 39  1  0  0  0  0
 40 41  1  0  0  0  0
 40 42  1  0  0  0  0
 40 77  1  1  0  0  0
 41 78  1  0  0  0  0
 41 79  1  0  0  0  0
 42 43  1  0  0  0  0
 43 80  1  0  0  0  0
 43 81  1  0  0  0  0
 43 82  1  0  0  0  0
M  END
>  <DRUGBANK_ID>
DB15163

>  <COMMON_NAME>
Selatogrel

>  <CAS_NUMBER>
1159500-34-1

>  <UNII>
6DPK7O4PR7

>  <SYNONYMS>
ACT-246475; Selatogrel

$$$$
