
 OpenBabel10282417133D

 44 45  0  0  1  0  0  0  0  0999 V2000
    1.2736   -0.2790    0.2222 C   0  0  0  0  0  0  0  0  0  0  0  0
    0.9387   -2.2941   -0.9784 C   0  0  0  0  0  0  0  0  0  0  0  0
    0.5163    1.0516   -0.0631 C   0  0  2  0  0  0  0  0  0  0  0  0
    1.0893   -0.9001   -1.7024 C   0  0  2  0  0  0  0  0  0  0  0  0
   -0.0173    2.7337   -2.6870 C   0  0  2  0  0  0  0  0  0  0  0  0
   -1.1814    1.2031   -1.1549 C   0  0  1  0  0  0  0  0  0  0  0  0
   -0.6677    1.3790   -2.6316 C   0  0  2  0  0  0  0  0  0  0  0  0
    2.1467    1.6139    0.6252 C   0  0  2  0  0  0  0  0  0  0  0  0
    0.2100    2.3335    0.9686 C   0  0  2  0  0  0  0  0  0  0  0  0
    2.5159    0.5914   -1.2428 C   0  0  2  0  0  0  0  0  0  0  0  0
   -1.0159    0.6377    0.7826 C   0  0  2  0  0  0  0  0  0  0  0  0
    1.3933    2.8197   -1.9914 C   0  0  1  0  0  0  0  0  0  0  0  0
   -0.9443    3.6513   -2.3512 F   0  0  0  0  0  0  0  0  0  0  0  0
    0.7705    0.6820   -0.8074 O   0  0  0  0  0  0  0  0  0  0  0  0
   -0.3530   -2.9425   -1.0985 O   0  0  0  0  0  0  0  0  0  0  0  0
   -2.2810   -0.2022   -0.7961 O   0  0  0  0  0  0  0  0  0  0  0  0
    0.3073    0.6426   -3.4189 O   0  0  0  0  0  0  0  0  0  0  0  0
    2.6342    0.5888    1.7749 O   0  0  0  0  0  0  0  0  0  0  0  0
   -0.4612    3.4733    0.0556 O   0  0  0  0  0  0  0  0  0  0  0  0
   -0.9098   -0.2928    1.8234 O   0  0  0  0  0  0  0  0  0  0  0  0
   -0.5023   -0.6052   -0.7415 O   0  0  0  0  0  0  0  0  0  0  0  0
    1.2599    2.6103   -0.6579 O   0  0  0  0  0  0  0  0  0  0  0  0
    2.3664    1.7670   -2.3112 O   0  0  0  0  0  0  0  0  0  0  0  0
    0.6575    0.9416    1.4029 H   0  0  0  0  0  0  0  0  0  0  0  0
    0.7592   -1.1641   -2.7830 H   0  0  0  0  0  0  0  0  0  0  0  0
    0.2766    2.8994   -3.7021 H   0  0  0  0  0  0  0  0  0  0  0  0
   -1.8342    2.0230   -0.7782 H   0  0  0  0  0  0  0  0  0  0  0  0
   -1.5788    1.1275   -3.1166 H   0  0  0  0  0  0  0  0  0  0  0  0
    3.0090    2.3216    0.5739 H   0  0  0  0  0  0  0  0  0  0  0  0
   -0.2103    2.7227    1.9231 H   0  0  0  0  0  0  0  0  0  0  0  0
    3.3411   -0.0307   -1.5847 H   0  0  0  0  0  0  0  0  0  0  0  0
   -2.1385    0.9367    0.6864 H   0  0  0  0  0  0  0  0  0  0  0  0
    1.7744    3.8513   -2.0084 H   0  0  0  0  0  0  0  0  0  0  0  0
    0.6725   -0.9128    0.8342 H   0  0  0  0  0  0  0  0  0  0  0  0
    2.3113   -0.6537    0.1107 H   0  0  0  0  0  0  0  0  0  0  0  0
    1.8601   -2.7731   -1.2101 H   0  0  0  0  0  0  0  0  0  0  0  0
    0.9962   -2.3398    0.0994 H   0  0  0  0  0  0  0  0  0  0  0  0
    0.9492    1.0342   -1.6938 H   0  0  0  0  0  0  0  0  0  0  0  0
   -1.1248   -2.3592   -0.8915 H   0  0  0  0  0  0  0  0  0  0  0  0
   -1.5802   -0.8743   -0.3941 H   0  0  0  0  0  0  0  0  0  0  0  0
    1.2575    0.5721   -3.1578 H   0  0  0  0  0  0  0  0  0  0  0  0
    2.0653   -0.2193    1.9331 H   0  0  0  0  0  0  0  0  0  0  0  0
    0.3262    3.9232   -0.3293 H   0  0  0  0  0  0  0  0  0  0  0  0
   -0.9464   -1.1370    1.3381 H   0  0  0  0  0  0  0  0  0  0  0  0
  1 34  1  0  0  0  0
  1 35  1  0  0  0  0
  2 36  1  0  0  0  0
  2 37  1  0  0  0  0
  3  1  1  0  0  0  0
  3 24  1  1  0  0  0
  4 25  1  6  0  0  0
  4  2  1  0  0  0  0
  5 26  1  6  0  0  0
  5 13  1  0  0  0  0
  6  3  1  0  0  0  0
  6 16  1  0  0  0  0
  6 27  1  1  0  0  0
  7  5  1  0  0  0  0
  7  6  1  0  0  0  0
  7 17  1  0  0  0  0
  7 28  1  6  0  0  0
  8 18  1  0  0  0  0
  8 29  1  1  0  0  0
  9  8  1  0  0  0  0
  9 30  1  1  0  0  0
  9 19  1  0  0  0  0
 10  4  1  0  0  0  0
 10  8  1  0  0  0  0
 10 23  1  0  0  0  0
 10 31  1  6  0  0  0
 11  9  1  0  0  0  0
 11 20  1  0  0  0  0
 11 32  1  6  0  0  0
 12  5  1  0  0  0  0
 12 23  1  0  0  0  0
 12 33  1  6  0  0  0
 14  1  1  0  0  0  0
 14 38  1  0  0  0  0
 15  2  1  0  0  0  0
 15 39  1  0  0  0  0
 16 40  1  0  0  0  0
 17 41  1  0  0  0  0
 18 42  1  0  0  0  0
 19 43  1  0  0  0  0
 20 44  1  0  0  0  0
 21  4  1  0  0  0  0
 21 11  1  0  0  0  0
 22  3  1  0  0  0  0
 22 12  1  0  0  0  0
M  END
>  <DRUGBANK_ID>
DB04155

>  <SECONDARY_ACCESSION_NUMBERS>
EXPT00118

>  <COMMON_NAME>
2-Fluoro-2-Deoxy-Beta-D-Galactopyranosyl-Beta-D-Glucopyranose

$$$$
