
 OpenBabel10282417203D

157156  0  0  0  0  0  0  0  0999 V2000
    2.2007    2.3595   -0.2179 N   0  0  0  0  0  0  0  0  0  0  0  0
    0.5427    1.2560   -1.6830 C   0  0  0  0  0  0  0  0  0  0  0  0
    0.3156   -0.7586   -2.0856 C   0  0  0  0  0  0  0  0  0  0  0  0
    2.7514   -0.9141   -1.7876 N   0  0  0  0  0  0  0  0  0  0  0  0
    3.6026    0.7275   -0.7297 C   0  0  0  0  0  0  0  0  0  0  0  0
   -1.7808   -1.6313   -2.2328 C   0  0  0  0  0  0  0  0  0  0  0  0
   -3.4168   -0.8966   -1.1611 N   0  0  0  0  0  0  0  0  0  0  0  0
   -3.0117    0.8951   -1.2007 C   0  0  0  0  0  0  0  0  0  0  0  0
   -1.4897    1.7701   -1.6423 N   0  0  0  0  0  0  0  0  0  0  0  0
   -1.6030   -3.1329   -2.0295 O   0  0  0  0  0  0  0  0  0  0  0  0
    2.9504    3.3437    0.0708 C   0  0  2  0  0  0  0  0  0  0  0  0
    2.0964    3.6620    1.4858 O   0  0  0  0  0  0  0  0  0  0  0  0
    1.4113    4.9494    0.8959 C   0  0  2  0  0  0  0  0  0  0  0  0
    0.1152    5.4183    1.2926 C   0  0  0  0  0  0  0  0  0  0  0  0
   -0.8985    4.6866    1.2256 O   0  0  0  0  0  0  0  0  0  0  0  0
    1.7891    5.3140   -0.9887 C   0  0  2  0  0  0  0  0  0  0  0  0
    2.2476    3.9058   -1.9011 C   0  0  1  0  0  0  0  0  0  0  0  0
    2.7441    2.9597   -2.8242 O   0  0  0  0  0  0  0  0  0  0  0  0
    3.1021    5.4248   -1.1605 O   0  0  0  0  0  0  0  0  0  0  0  0
    0.0180   -1.3780    0.0460 C   0  0  0  0  0  0  0  0  0  0  0  0
    1.1430   -0.6970    0.0890 C   0  0  0  0  0  0  0  0  0  0  0  0
    1.1470    0.6910   -0.0880 C   0  0  0  0  0  0  0  0  0  0  0  0
    0.0250    1.3780   -0.0480 C   0  0  0  0  0  0  0  0  0  0  0  0
    0.0281    2.8863   -0.2360 C   0  0  0  0  0  0  0  0  0  0  0  0
   -1.1927    3.6101   -0.1895 O   0  0  0  0  0  0  0  0  0  0  0  0
    1.1233    3.4997   -0.4347 O   0  0  0  0  0  0  0  0  0  0  0  0
   -1.1660    0.6880    0.1710 C   0  0  0  0  0  0  0  0  0  0  0  0
   -1.1670   -0.6830   -0.1700 C   0  0  0  0  0  0  0  0  0  0  0  0
    0.0138   -2.8374    0.2219 N   0  0  0  0  0  0  0  0  0  0  0  0
   -1.2536   -3.5803    0.1706 C   0  0  0  0  0  0  0  0  0  0  0  0
   -1.2579   -5.0894    0.3525 C   0  0  0  0  0  0  0  0  0  0  0  0
   -2.3457   -2.9609   -0.0260 O   0  0  0  0  0  0  0  0  0  0  0  0
    0.5771    0.1122    1.3359 C   0  0  0  0  0  0  0  0  0  0  0  0
    0.7932   -1.7876    1.9468 N   0  0  0  0  0  0  0  0  0  0  0  0
   -1.0886   -1.1380    2.6982 C   0  0  0  0  0  0  0  0  0  0  0  0
    2.2104   -3.3255    0.5952 C   0  0  0  0  0  0  0  0  0  0  0  0
    0.7710    2.3280    1.1668 C   0  0  1  0  0  0  0  0  0  0  0  0
    1.2952    2.4207   -1.4200 C   0  0  0  0  0  0  0  0  0  0  0  0
   -1.4210    2.5230    1.1550 O   0  0  0  0  0  0  0  0  0  0  0  0
    0.0180   -1.3780    0.0460 C   0  0  0  0  0  0  0  0  0  0  0  0
    1.1430   -0.6970    0.0890 C   0  0  0  0  0  0  0  0  0  0  0  0
    1.1470    0.6910   -0.0880 C   0  0  0  0  0  0  0  0  0  0  0  0
    0.0250    1.3780   -0.0480 C   0  0  0  0  0  0  0  0  0  0  0  0
    0.0281    2.8863   -0.2360 C   0  0  0  0  0  0  0  0  0  0  0  0
   -1.1927    3.6101   -0.1895 O   0  0  0  0  0  0  0  0  0  0  0  0
    1.1233    3.4997   -0.4347 O   0  0  0  0  0  0  0  0  0  0  0  0
   -1.1660    0.6880    0.1710 C   0  0  0  0  0  0  0  0  0  0  0  0
   -1.1670   -0.6830   -0.1700 C   0  0  0  0  0  0  0  0  0  0  0  0
    0.0138   -2.8374    0.2219 N   0  0  0  0  0  0  0  0  0  0  0  0
   -1.2536   -3.5803    0.1706 C   0  0  0  0  0  0  0  0  0  0  0  0
   -1.2579   -5.0894    0.3525 C   0  0  0  0  0  0  0  0  0  0  0  0
   -2.3457   -2.9609   -0.0260 O   0  0  0  0  0  0  0  0  0  0  0  0
    0.0180   -1.3780    0.0460 C   0  0  0  0  0  0  0  0  0  0  0  0
    1.1430   -0.6970    0.0890 C   0  0  0  0  0  0  0  0  0  0  0  0
    1.1470    0.6910   -0.0880 C   0  0  0  0  0  0  0  0  0  0  0  0
    0.0250    1.3780   -0.0480 C   0  0  0  0  0  0  0  0  0  0  0  0
    0.0281    2.8863   -0.2360 C   0  0  0  0  0  0  0  0  0  0  0  0
   -1.1927    3.6101   -0.1895 O   0  0  0  0  0  0  0  0  0  0  0  0
    1.1233    3.4997   -0.4347 O   0  0  0  0  0  0  0  0  0  0  0  0
   -1.1660    0.6880    0.1710 C   0  0  0  0  0  0  0  0  0  0  0  0
   -1.1670   -0.6830   -0.1700 C   0  0  0  0  0  0  0  0  0  0  0  0
    0.0138   -2.8374    0.2219 N   0  0  0  0  0  0  0  0  0  0  0  0
   -1.2536   -3.5803    0.1706 C   0  0  0  0  0  0  0  0  0  0  0  0
   -1.2579   -5.0894    0.3525 C   0  0  0  0  0  0  0  0  0  0  0  0
   -2.3457   -2.9609   -0.0260 O   0  0  0  0  0  0  0  0  0  0  0  0
    1.5852   -0.4816   -1.1490 C   0  0  0  0  0  0  0  0  0  0  0  0
    0.6672    0.5171   -3.1036 C   0  0  1  0  0  0  0  0  0  0  0  0
    1.3399   -0.5495   -3.5737 C   0  0  0  0  0  0  0  0  0  0  0  0
   -1.2255    0.4953   -2.7944 O   0  0  0  0  0  0  0  0  0  0  0  0
    1.3502   -2.2105    0.5169 N   0  0  0  0  0  0  0  0  0  0  0  0
   -1.0947   -1.9536    1.0728 C   0  0  0  0  0  0  0  0  0  0  0  0
    1.7895   -3.6870   -1.1950 C   0  0  0  0  0  0  0  0  0  0  0  0
    2.9416   -0.3986    1.0622 C   0  0  0  0  0  0  0  0  0  0  0  0
    2.2487   -2.1573   -0.5850 C   0  0  1  0  0  0  0  0  0  0  0  0
    2.1773   -2.8220    1.8880 C   0  0  0  0  0  0  0  0  0  0  0  0
    0.0637   -2.3810   -1.5063 O   0  0  0  0  0  0  0  0  0  0  0  0
    1.4783    0.6746    2.5037 N   0  0  0  0  0  0  0  0  0  0  0  0
   -0.5199    0.8840    2.6571 C   0  0  0  0  0  0  0  0  0  0  0  0
    1.5566   -0.2961    3.2991 C   0  0  0  0  0  0  0  0  0  0  0  0
    4.0719    0.1553    0.2632 H   0  0  0  0  0  0  0  0  0  0  0  0
   -3.4602   -1.5740    0.0971 H   0  0  0  0  0  0  0  0  0  0  0  0
   -3.4989    1.3131   -0.1530 H   0  0  0  0  0  0  0  0  0  0  0  0
    3.4861    2.4505    0.1029 H   0  0  0  0  0  0  0  0  0  0  0  0
    2.0101    5.5380    1.3423 H   0  0  0  0  0  0  0  0  0  0  0  0
   -0.2817    4.9041    2.1489 H   0  0  0  0  0  0  0  0  0  0  0  0
   -0.4732    5.9651    0.5844 H   0  0  0  0  0  0  0  0  0  0  0  0
   -0.8136    4.7418   -0.1383 H   0  0  0  0  0  0  0  0  0  0  0  0
    0.8008    5.4994   -1.4226 H   0  0  0  0  0  0  0  0  0  0  0  0
    0.8726    3.6161   -2.5255 H   0  0  0  0  0  0  0  0  0  0  0  0
    3.4240    3.2376   -2.2343 H   0  0  0  0  0  0  0  0  0  0  0  0
    3.5088    4.7026   -0.6661 H   0  0  0  0  0  0  0  0  0  0  0  0
    2.0657   -1.2107    0.2614 H   0  0  0  0  0  0  0  0  0  0  0  0
    2.0728    1.1998   -0.2578 H   0  0  0  0  0  0  0  0  0  0  0  0
   -2.0545    3.1275   -0.0331 H   0  0  0  0  0  0  0  0  0  0  0  0
   -2.0317    1.1700    0.5750 H   0  0  0  0  0  0  0  0  0  0  0  0
   -2.0346   -1.1618   -0.5736 H   0  0  0  0  0  0  0  0  0  0  0  0
    0.8904   -3.3346    0.3797 H   0  0  0  0  0  0  0  0  0  0  0  0
   -1.8562   -5.3445    1.2020 H   0  0  0  0  0  0  0  0  0  0  0  0
   -1.6642   -5.5529   -0.5221 H   0  0  0  0  0  0  0  0  0  0  0  0
   -0.2562   -5.4330    0.5056 H   0  0  0  0  0  0  0  0  0  0  0  0
    0.0413   -0.0031   -0.6695 H   0  0  0  0  0  0  0  0  0  0  0  0
    2.3605    0.0105    0.1476 H   0  0  0  0  0  0  0  0  0  0  0  0
   -2.1546   -1.4390    2.3662 H   0  0  0  0  0  0  0  0  0  0  0  0
   -1.5362   -2.0006    2.5956 H   0  0  0  0  0  0  0  0  0  0  0  0
   -2.1665   -0.0240    2.2299 H   0  0  0  0  0  0  0  0  0  0  0  0
    1.1132   -2.7238   -0.7982 H   0  0  0  0  0  0  0  0  0  0  0  0
    3.1512   -2.6685    0.3564 H   0  0  0  0  0  0  0  0  0  0  0  0
    0.7683   -3.0259    1.6998 H   0  0  0  0  0  0  0  0  0  0  0  0
    1.0526    2.1390    2.0647 H   0  0  0  0  0  0  0  0  0  0  0  0
    0.2355    2.5547   -2.1550 H   0  0  0  0  0  0  0  0  0  0  0  0
    0.2688    3.9241   -1.5857 H   0  0  0  0  0  0  0  0  0  0  0  0
    2.3690    2.2714   -1.4947 H   0  0  0  0  0  0  0  0  0  0  0  0
   -1.7062    2.1064   -0.3522 H   0  0  0  0  0  0  0  0  0  0  0  0
    2.0657   -1.2107    0.2614 H   0  0  0  0  0  0  0  0  0  0  0  0
    2.0728    1.1998   -0.2578 H   0  0  0  0  0  0  0  0  0  0  0  0
   -2.0545    3.1275   -0.0331 H   0  0  0  0  0  0  0  0  0  0  0  0
   -2.0317    1.1700    0.5750 H   0  0  0  0  0  0  0  0  0  0  0  0
   -2.0346   -1.1618   -0.5736 H   0  0  0  0  0  0  0  0  0  0  0  0
    0.8904   -3.3346    0.3797 H   0  0  0  0  0  0  0  0  0  0  0  0
   -1.8562   -5.3445    1.2020 H   0  0  0  0  0  0  0  0  0  0  0  0
   -1.6642   -5.5529   -0.5221 H   0  0  0  0  0  0  0  0  0  0  0  0
   -0.2562   -5.4330    0.5056 H   0  0  0  0  0  0  0  0  0  0  0  0
    2.0657   -1.2107    0.2614 H   0  0  0  0  0  0  0  0  0  0  0  0
    2.0728    1.1998   -0.2578 H   0  0  0  0  0  0  0  0  0  0  0  0
   -2.0545    3.1275   -0.0331 H   0  0  0  0  0  0  0  0  0  0  0  0
   -2.0317    1.1700    0.5750 H   0  0  0  0  0  0  0  0  0  0  0  0
   -2.0346   -1.1618   -0.5736 H   0  0  0  0  0  0  0  0  0  0  0  0
    0.8904   -3.3346    0.3797 H   0  0  0  0  0  0  0  0  0  0  0  0
   -1.8562   -5.3445    1.2020 H   0  0  0  0  0  0  0  0  0  0  0  0
   -1.6642   -5.5529   -0.5221 H   0  0  0  0  0  0  0  0  0  0  0  0
   -0.2562   -5.4330    0.5056 H   0  0  0  0  0  0  0  0  0  0  0  0
    1.8751    0.2116    0.8392 H   0  0  0  0  0  0  0  0  0  0  0  0
    2.8503    0.3388   -2.0272 H   0  0  0  0  0  0  0  0  0  0  0  0
    1.2939    1.3935   -2.9190 H   0  0  0  0  0  0  0  0  0  0  0  0
    0.7533   -1.5111   -3.3557 H   0  0  0  0  0  0  0  0  0  0  0  0
    0.4947   -0.0932   -3.8771 H   0  0  0  0  0  0  0  0  0  0  0  0
    2.1284   -0.3041   -3.0207 H   0  0  0  0  0  0  0  0  0  0  0  0
   -1.5027    0.0546   -1.9521 H   0  0  0  0  0  0  0  0  0  0  0  0
   -0.9819   -1.7712   -1.0125 H   0  0  0  0  0  0  0  0  0  0  0  0
   -2.0409   -2.4137    1.4524 H   0  0  0  0  0  0  0  0  0  0  0  0
   -2.2767   -0.8434    1.1709 H   0  0  0  0  0  0  0  0  0  0  0  0
    0.8583   -3.0136   -2.2881 H   0  0  0  0  0  0  0  0  0  0  0  0
    2.7541   -3.0781   -1.4884 H   0  0  0  0  0  0  0  0  0  0  0  0
    0.7406   -3.9740   -1.3411 H   0  0  0  0  0  0  0  0  0  0  0  0
    2.5347    0.2118   -0.8193 H   0  0  0  0  0  0  0  0  0  0  0  0
    3.0726    0.6842    1.4548 H   0  0  0  0  0  0  0  0  0  0  0  0
    1.5262   -1.9146   -1.8918 H   0  0  0  0  0  0  0  0  0  0  0  0
    1.1977   -2.6671    2.9252 H   0  0  0  0  0  0  0  0  0  0  0  0
    1.1495   -4.1481    1.7714 H   0  0  0  0  0  0  0  0  0  0  0  0
    2.7975   -2.1679    1.8505 H   0  0  0  0  0  0  0  0  0  0  0  0
   -1.3865   -2.5059   -0.7055 H   0  0  0  0  0  0  0  0  0  0  0  0
   -0.8798    0.2181    1.9746 H   0  0  0  0  0  0  0  0  0  0  0  0
   -1.4838    1.1915    2.8455 H   0  0  0  0  0  0  0  0  0  0  0  0
   -1.1105    1.4645    2.0848 H   0  0  0  0  0  0  0  0  0  0  0  0
    1.0729   -1.1113    3.2768 H   0  0  0  0  0  0  0  0  0  0  0  0
    2.3653   -0.3203    2.6889 H   0  0  0  0  0  0  0  0  0  0  0  0
    0.7208    0.1234    3.6694 H   0  0  0  0  0  0  0  0  0  0  0  0
  1  2  1  0  0  0  0
  1  5  1  0  0  0  0
  2  3  2  0  0  0  0
  2  9  1  0  0  0  0
  3  4  1  0  0  0  0
  3  6  1  0  0  0  0
  4  5  2  0  0  0  0
  5 80  1  0  0  0  0
  6  7  1  0  0  0  0
  6 10  2  0  0  0  0
  7  8  1  0  0  0  0
  7 81  1  0  0  0  0
  8  9  2  0  0  0  0
  8 82  1  0  0  0  0
 11  1  1  0  0  0  0
 11 12  1  0  0  0  0
 11 17  1  0  0  0  0
 11 83  1  1  0  0  0
 12 13  1  0  0  0  0
 13 16  1  0  0  0  0
 13 84  1  1  0  0  0
 13 14  1  0  0  0  0
 14 15  1  0  0  0  0
 14 85  1  0  0  0  0
 14 86  1  0  0  0  0
 15 87  1  0  0  0  0
 16 17  1  0  0  0  0
 16 19  1  0  0  0  0
 16 88  1  6  0  0  0
 17 18  1  0  0  0  0
 17 89  1  1  0  0  0
 18 90  1  0  0  0  0
 19 91  1  0  0  0  0
 20 21  2  0  0  0  0
 20 28  1  0  0  0  0
 20 29  1  0  0  0  0
 21 22  1  0  0  0  0
 21 92  1  0  0  0  0
 22 23  2  0  0  0  0
 22 93  1  0  0  0  0
 23 24  1  0  0  0  0
 23 27  1  0  0  0  0
 24 25  1  0  0  0  0
 24 26  2  0  0  0  0
 25 94  1  0  0  0  0
 27 28  2  0  0  0  0
 27 95  1  0  0  0  0
 28 96  1  0  0  0  0
 29 30  1  0  0  0  0
 29 97  1  0  0  0  0
 30 31  1  0  0  0  0
 30 32  2  0  0  0  0
 31 98  1  0  0  0  0
 31 99  1  0  0  0  0
 31100  1  0  0  0  0
 33 34  1  0  0  0  0
 33 37  1  0  0  0  0
 33101  1  0  0  0  0
 33102  1  0  0  0  0
 34 35  1  0  0  0  0
 34 36  1  0  0  0  0
 35103  1  0  0  0  0
 35104  1  0  0  0  0
 35105  1  0  0  0  0
 36106  1  0  0  0  0
 36107  1  0  0  0  0
 36108  1  0  0  0  0
 37 38  1  0  0  0  0
 37 39  1  0  0  0  0
 37109  1  1  0  0  0
 38110  1  0  0  0  0
 38111  1  0  0  0  0
 38112  1  0  0  0  0
 39113  1  0  0  0  0
 40 41  2  0  0  0  0
 40 48  1  0  0  0  0
 40 49  1  0  0  0  0
 41 42  1  0  0  0  0
 41114  1  0  0  0  0
 42 43  2  0  0  0  0
 42115  1  0  0  0  0
 43 44  1  0  0  0  0
 43 47  1  0  0  0  0
 44 45  1  0  0  0  0
 44 46  2  0  0  0  0
 45116  1  0  0  0  0
 47 48  2  0  0  0  0
 47117  1  0  0  0  0
 48118  1  0  0  0  0
 49 50  1  0  0  0  0
 49119  1  0  0  0  0
 50 51  1  0  0  0  0
 50 52  2  0  0  0  0
 51120  1  0  0  0  0
 51121  1  0  0  0  0
 51122  1  0  0  0  0
 53 54  2  0  0  0  0
 53 61  1  0  0  0  0
 53 62  1  0  0  0  0
 54 55  1  0  0  0  0
 54123  1  0  0  0  0
 55 56  2  0  0  0  0
 55124  1  0  0  0  0
 56 57  1  0  0  0  0
 56 60  1  0  0  0  0
 57 58  1  0  0  0  0
 57 59  2  0  0  0  0
 58125  1  0  0  0  0
 60 61  2  0  0  0  0
 60126  1  0  0  0  0
 61127  1  0  0  0  0
 62 63  1  0  0  0  0
 62128  1  0  0  0  0
 63 64  1  0  0  0  0
 63 65  2  0  0  0  0
 64129  1  0  0  0  0
 64130  1  0  0  0  0
 64131  1  0  0  0  0
 66 67  1  0  0  0  0
 66 70  1  0  0  0  0
 66132  1  0  0  0  0
 66133  1  0  0  0  0
 67 68  1  0  0  0  0
 67 69  1  0  0  0  0
 67134  1  6  0  0  0
 68135  1  0  0  0  0
 68136  1  0  0  0  0
 68137  1  0  0  0  0
 69138  1  0  0  0  0
 70 71  1  0  0  0  0
 70 72  1  0  0  0  0
 71139  1  0  0  0  0
 71140  1  0  0  0  0
 71141  1  0  0  0  0
 72142  1  0  0  0  0
 72143  1  0  0  0  0
 72144  1  0  0  0  0
 73 74  1  0  0  0  0
 73 77  1  0  0  0  0
 73145  1  0  0  0  0
 73146  1  0  0  0  0
 74 75  1  0  0  0  0
 74 76  1  0  0  0  0
 74147  1  6  0  0  0
 75148  1  0  0  0  0
 75149  1  0  0  0  0
 75150  1  0  0  0  0
 76151  1  0  0  0  0
 77 78  1  0  0  0  0
 77 79  1  0  0  0  0
 78152  1  0  0  0  0
 78153  1  0  0  0  0
 78154  1  0  0  0  0
 79155  1  0  0  0  0
 79156  1  0  0  0  0
 79157  1  0  0  0  0
M  END
>  <DRUGBANK_ID>
DB13156

>  <COMMON_NAME>
Inosine pranobex

>  <CAS_NUMBER>
36703-88-5

>  <UNII>
W1SO0V223F

>  <SYNONYMS>
IAD; Inosine acedobene dimepranol; Inosine pranobex; Inosine-2-hydroxypropyldimethylammonium 4-acetamidobenzoate (1:3); Inosiplex; Isoprinosine; Methisoprinol

$$$$
