GWB
 OpenBabel10282417163D

 37 39  0  0  0  0  0  0  0  0999 V2000
    1.0119    0.2594    0.2773 C   0  0  0  0  0  0  0  0  0  0  0  0
   -0.1938    0.3315    0.2133 C   0  0  0  0  0  0  0  0  0  0  0  0
   -1.6654    0.1293    0.1621 C   0  0  0  0  0  0  0  0  0  0  0  0
   -2.4980   -0.7175   -0.8186 C   0  0  0  0  0  0  0  0  0  0  0  0
   -2.4387    0.7640   -0.9752 C   0  0  0  0  0  0  0  0  0  0  0  0
    4.4263   -3.6254   -0.5829 N   0  0  0  0  0  0  0  0  0  0  0  0
    3.3894   -3.3143   -1.3953 C   0  0  0  0  0  0  0  0  0  0  0  0
    3.0884   -4.0708   -2.3150 O   0  0  0  0  0  0  0  0  0  0  0  0
    2.6620   -2.0245   -1.1185 C   0  0  0  0  0  0  0  0  0  0  0  0
    2.9440   -1.2169   -0.0566 C   0  0  0  0  0  0  0  0  0  0  0  0
    2.3639    0.0403    0.2982 O   0  0  0  0  0  0  0  0  0  0  0  0
    4.8680   -2.7791    0.4243 C   0  0  0  0  0  0  0  0  0  0  0  0
    4.1625   -1.5884    0.7086 C   0  0  0  0  0  0  0  0  0  0  0  0
    4.6673   -0.7658    1.7097 C   0  0  0  0  0  0  0  0  0  0  0  0
    5.9133   -1.0417    2.2626 C   0  0  0  0  0  0  0  0  0  0  0  0
    6.6425   -2.1673    1.8977 C   0  0  0  0  0  0  0  0  0  0  0  0
    6.0525   -3.1155    1.0780 C   0  0  0  0  0  0  0  0  0  0  0  0
    6.4105   -0.2149    3.1888 F   0  0  0  0  0  0  0  0  0  0  0  0
    1.5973   -1.7850   -2.1305 C   0  0  0  0  0  0  0  0  0  0  0  0
    0.3051   -2.0150   -1.4053 C   0  0  0  0  0  0  0  0  0  0  0  0
    1.8105   -0.4204   -2.7921 C   0  0  0  0  0  0  0  0  0  0  0  0
   -2.1027    0.0556    1.1546 H   0  0  0  0  0  0  0  0  0  0  0  0
   -2.1954   -1.2982   -1.6783 H   0  0  0  0  0  0  0  0  0  0  0  0
   -3.4519   -1.1445   -0.4991 H   0  0  0  0  0  0  0  0  0  0  0  0
   -3.3541    1.3045   -0.7696 H   0  0  0  0  0  0  0  0  0  0  0  0
   -1.8939    1.1474   -1.8324 H   0  0  0  0  0  0  0  0  0  0  0  0
    4.9271   -4.4714   -0.8272 H   0  0  0  0  0  0  0  0  0  0  0  0
    4.1246    0.1111    2.0422 H   0  0  0  0  0  0  0  0  0  0  0  0
    7.6564   -2.2995    2.2587 H   0  0  0  0  0  0  0  0  0  0  0  0
    6.5299   -4.0813    0.9320 H   0  0  0  0  0  0  0  0  0  0  0  0
    1.5781   -2.5119   -2.9484 H   0  0  0  0  0  0  0  0  0  0  0  0
    0.3555   -1.6297   -0.4094 H   0  0  0  0  0  0  0  0  0  0  0  0
   -0.4625   -1.5307   -1.9809 H   0  0  0  0  0  0  0  0  0  0  0  0
    0.0555   -3.0379   -1.1241 H   0  0  0  0  0  0  0  0  0  0  0  0
    2.7108   -0.4618   -3.4177 H   0  0  0  0  0  0  0  0  0  0  0  0
    0.9610   -0.1391   -3.4164 H   0  0  0  0  0  0  0  0  0  0  0  0
    1.9809    0.4014   -2.0933 H   0  0  0  0  0  0  0  0  0  0  0  0
  1  2  3  0  0  0  0
  1 11  1  0  0  0  0
  2  3  1  0  0  0  0
  3  4  1  0  0  0  0
  3  5  1  0  0  0  0
  3 22  1  0  0  0  0
  4  5  1  0  0  0  0
  4 23  1  0  0  0  0
  4 24  1  0  0  0  0
  5 25  1  0  0  0  0
  5 26  1  0  0  0  0
  6  7  1  0  0  0  0
  6 12  1  0  0  0  0
  6 27  1  0  0  0  0
  7  8  2  0  0  0  0
  7  9  1  0  0  0  0
  9 10  2  0  0  0  0
  9 19  1  0  0  0  0
 10 11  1  0  0  0  0
 10 13  1  0  0  0  0
 12 13  1  0  0  0  0
 12 17  2  0  0  0  0
 13 14  2  0  0  0  0
 14 15  1  0  0  0  0
 14 28  1  0  0  0  0
 15 16  2  0  0  0  0
 15 18  1  0  0  0  0
 16 17  1  0  0  0  0
 16 29  1  0  0  0  0
 17 30  1  0  0  0  0
 19 20  1  0  0  0  0
 19 21  1  0  0  0  0
 19 31  1  0  0  0  0
 20 32  1  0  0  0  0
 20 33  1  0  0  0  0
 20 34  1  0  0  0  0
 21 35  1  0  0  0  0
 21 36  1  0  0  0  0
 21 37  1  0  0  0  0
M  END
>  <DRUGBANK_ID>
DB07864

>  <COMMON_NAME>
4-[(CYCLOPROPYLETHYNYL)OXY]-6-FLUORO-3-ISOPROPYLQUINOLIN-2(1H)-ONE

$$$$
