
 OpenBabel10282417193D

 54 58  0  0  0  0  0  0  0  0999 V2000
    2.8527   -3.0537   -0.8695 C   0  0  0  0  0  0  0  0  0  0  0  0
    3.7448   -3.9878   -1.2028 N   0  0  0  0  0  0  0  0  0  0  0  0
    3.4924   -5.2925   -0.8127 C   0  0  0  0  0  0  0  0  0  0  0  0
    2.2197   -5.7182   -0.4901 C   0  0  0  0  0  0  0  0  0  0  0  0
    1.1487   -4.7436   -0.4242 C   0  0  0  0  0  0  0  0  0  0  0  0
    1.5286   -3.4181   -0.6429 N   0  0  0  0  0  0  0  0  0  0  0  0
    3.6305   -7.4315    0.0390 N   0  0  0  0  0  0  0  0  0  0  0  0
    4.3820   -6.3123   -0.2692 N   0  0  0  0  0  0  0  0  0  0  0  0
    2.3534   -7.0557   -0.1026 C   0  0  0  0  0  0  0  0  0  0  0  0
    0.0246   -5.0114    0.0385 O   0  0  0  0  0  0  0  0  0  0  0  0
    8.3516   -6.2482    0.7363 C   0  0  0  0  0  0  0  0  0  0  0  0
    6.8611   -6.0746    0.9679 C   0  0  0  0  0  0  0  0  0  0  0  0
    5.8831   -6.5184   -0.1985 C   0  0  0  0  0  0  0  0  0  0  0  0
    6.4831   -6.0823   -1.5097 C   0  0  0  0  0  0  0  0  0  0  0  0
    7.9853   -6.2717   -1.5852 C   0  0  0  0  0  0  0  0  0  0  0  0
    8.6779   -5.6474   -0.5116 O   0  0  0  0  0  0  0  0  0  0  0  0
    5.6671   -1.3496   -0.7248 N   0  0  0  0  0  0  0  0  0  0  0  0
    4.3569   -1.0084   -1.3562 C   0  0  0  0  0  0  0  0  0  0  0  0
    3.3270   -1.3860   -0.3354 C   0  0  2  0  0  0  0  0  0  0  0  0
    4.2744   -0.8130    1.0345 C   0  0  1  0  0  0  0  0  0  0  0  0
    5.7098   -0.6351    0.5305 C   0  0  0  0  0  0  0  0  0  0  0  0
    3.7890    0.3846    1.8065 C   0  0  0  0  0  0  0  0  0  0  0  0
    5.8070   -2.8128   -0.3172 C   0  0  0  0  0  0  0  0  0  0  0  0
    4.9486   -3.4202    1.0309 C   0  0  0  0  0  0  0  0  0  0  0  0
    3.6610   -3.0814    1.2406 N   0  0  0  0  0  0  0  0  0  0  0  0
    2.7574   -3.7108    1.9874 C   0  0  0  0  0  0  0  0  0  0  0  0
    3.0837   -4.8979    2.4806 C   0  0  0  0  0  0  0  0  0  0  0  0
    4.4374   -5.0503    2.5543 C   0  0  0  0  0  0  0  0  0  0  0  0
    5.3791   -4.2742    1.9220 N   0  0  0  0  0  0  0  0  0  0  0  0
    0.8912   -2.7247   -0.2825 H   0  0  0  0  0  0  0  0  0  0  0  0
    1.5718   -7.7584    0.1643 H   0  0  0  0  0  0  0  0  0  0  0  0
    8.9078   -5.6923    1.5106 H   0  0  0  0  0  0  0  0  0  0  0  0
    8.6771   -7.2875    0.7800 H   0  0  0  0  0  0  0  0  0  0  0  0
    6.9078   -4.9964    1.0029 H   0  0  0  0  0  0  0  0  0  0  0  0
    6.6056   -6.4950    1.9481 H   0  0  0  0  0  0  0  0  0  0  0  0
    5.9774   -7.6154   -0.1325 H   0  0  0  0  0  0  0  0  0  0  0  0
    5.9817   -6.6026   -2.3268 H   0  0  0  0  0  0  0  0  0  0  0  0
    6.2837   -5.0258   -1.6257 H   0  0  0  0  0  0  0  0  0  0  0  0
    8.2491   -7.3311   -1.6013 H   0  0  0  0  0  0  0  0  0  0  0  0
    8.3366   -5.8037   -2.5065 H   0  0  0  0  0  0  0  0  0  0  0  0
    4.2870    0.0744   -1.5422 H   0  0  0  0  0  0  0  0  0  0  0  0
    4.1766   -1.5025   -2.3140 H   0  0  0  0  0  0  0  0  0  0  0  0
    2.4008   -0.8023   -0.2928 H   0  0  0  0  0  0  0  0  0  0  0  0
    4.3959   -1.4492    1.9189 H   0  0  0  0  0  0  0  0  0  0  0  0
    6.0024    0.4070    0.4031 H   0  0  0  0  0  0  0  0  0  0  0  0
    6.4764   -1.0948    1.1778 H   0  0  0  0  0  0  0  0  0  0  0  0
    2.8235    0.1537    2.2626 H   0  0  0  0  0  0  0  0  0  0  0  0
    4.4890    0.5783    2.6394 H   0  0  0  0  0  0  0  0  0  0  0  0
    3.7458    1.2613    1.1730 H   0  0  0  0  0  0  0  0  0  0  0  0
    5.6168   -3.2972   -1.2807 H   0  0  0  0  0  0  0  0  0  0  0  0
    6.8722   -3.0364   -0.1960 H   0  0  0  0  0  0  0  0  0  0  0  0
    1.7544   -3.3070    1.9202 H   0  0  0  0  0  0  0  0  0  0  0  0
    2.3424   -5.6493    2.6867 H   0  0  0  0  0  0  0  0  0  0  0  0
    4.8363   -5.9140    3.0625 H   0  0  0  0  0  0  0  0  0  0  0  0
  1  2  2  0  0  0  0
  1  6  1  0  0  0  0
  2  3  1  0  0  0  0
  3  4  2  0  0  0  0
  3  8  1  0  0  0  0
  4  5  1  0  0  0  0
  4  9  1  0  0  0  0
  5  6  1  0  0  0  0
  5 10  2  0  0  0  0
  6 30  1  0  0  0  0
  7  8  1  0  0  0  0
  7  9  2  0  0  0  0
  8 13  1  0  0  0  0
  9 31  1  0  0  0  0
 11 12  1  0  0  0  0
 11 16  1  0  0  0  0
 11 32  1  0  0  0  0
 11 33  1  0  0  0  0
 12 13  1  0  0  0  0
 12 34  1  0  0  0  0
 12 35  1  0  0  0  0
 13 14  1  0  0  0  0
 13 36  1  0  0  0  0
 14 15  1  0  0  0  0
 14 37  1  0  0  0  0
 14 38  1  0  0  0  0
 15 16  1  0  0  0  0
 15 39  1  0  0  0  0
 15 40  1  0  0  0  0
 17 18  1  0  0  0  0
 17 21  1  0  0  0  0
 17 23  1  0  0  0  0
 18 19  1  0  0  0  0
 18 41  1  0  0  0  0
 18 42  1  0  0  0  0
 19 20  1  0  0  0  0
 19 43  1  6  0  0  0
 19  1  1  0  0  0  0
 20 21  1  0  0  0  0
 20 22  1  0  0  0  0
 20 44  1  1  0  0  0
 21 45  1  0  0  0  0
 21 46  1  0  0  0  0
 22 47  1  0  0  0  0
 22 48  1  0  0  0  0
 22 49  1  0  0  0  0
 23 24  1  0  0  0  0
 23 50  1  0  0  0  0
 23 51  1  0  0  0  0
 24 25  2  0  0  0  0
 25 26  1  0  0  0  0
 26 27  2  0  0  0  0
 26 52  1  0  0  0  0
 27 28  1  0  0  0  0
 27 53  1  0  0  0  0
 28 29  2  0  0  0  0
 28 54  1  0  0  0  0
 29 24  1  0  0  0  0
M  END
>  <DRUGBANK_ID>
DB11953

>  <COMMON_NAME>
PF-04447943

>  <CAS_NUMBER>
1082744-20-4

>  <UNII>
7N969W8Y4O

>  <SYNONYMS>
4H-pyrazolo(3,4-d)pyrimidin-4-one, 1,5-dihydro-6-((3S,4S)-4-methyl-1-(2-pyrimidinylmethyl)-3-pyrrolidinyl)-1-(tetrahydro-2H-pyran-4-yl)-; 6-((3S,4S)-4-Methyl-1-(pyrimidin-2-ylmethyl)pyrrolidin-3-yl)-1-(tetrahydro-2H-pyran-4-yl)-1,5-dihydro-4H-pyrazolo(3,4-d)pyrimidin-4-one

$$$$
