
 OpenBabel10282417133D

 20 19  0  0  1  0  0  0  0  0999 V2000
    0.8334    0.0079   -0.1978 N   0  0  0  0  0  0  0  0  0  0  0  0
    0.5676   -1.1106   -1.1474 C   0  0  1  0  0  0  0  0  0  0  0  0
    0.9702   -2.4223   -0.4729 C   0  0  0  0  0  0  0  0  0  0  0  0
    0.3446   -2.6676    0.9365 C   0  0  0  0  0  0  0  0  0  0  0  0
   -1.4861   -2.6840    1.3795 S   0  0  0  0  0  0  0  0  0  0  0  0
   -2.2713   -1.0348    1.0622 C   0  0  0  0  0  0  0  0  0  0  0  0
   -1.7544   -0.1270    1.9237 F   0  0  0  0  0  0  0  0  0  0  0  0
   -2.1784   -0.4399   -0.1480 F   0  0  0  0  0  0  0  0  0  0  0  0
   -0.8496   -1.4059   -1.6882 C   0  0  0  0  0  0  0  0  0  0  0  0
   -1.3900   -0.6807   -2.6655 O   0  0  0  0  0  0  0  0  0  0  0  0
   -1.5079   -2.4025   -1.3300 O   0  0  0  0  0  0  0  0  0  0  0  0
    0.4347   -0.1782    0.7289 H   0  0  0  0  0  0  0  0  0  0  0  0
    1.8441    0.0235    0.0097 H   0  0  0  0  0  0  0  0  0  0  0  0
    1.1802   -0.8997   -2.0308 H   0  0  0  0  0  0  0  0  0  0  0  0
    0.7100   -3.2535   -1.1451 H   0  0  0  0  0  0  0  0  0  0  0  0
    2.0669   -2.4738   -0.4003 H   0  0  0  0  0  0  0  0  0  0  0  0
    0.6817   -3.6854    1.1972 H   0  0  0  0  0  0  0  0  0  0  0  0
    0.8345   -2.0302    1.6761 H   0  0  0  0  0  0  0  0  0  0  0  0
   -3.3501   -1.1391    1.2193 H   0  0  0  0  0  0  0  0  0  0  0  0
   -0.8108   -0.0950   -3.1718 H   0  0  0  0  0  0  0  0  0  0  0  0
  1 12  1  0  0  0  0
  1 13  1  0  0  0  0
  2  1  1  0  0  0  0
  2  3  1  0  0  0  0
  2  9  1  0  0  0  0
  2 14  1  6  0  0  0
  3  4  1  0  0  0  0
  3 15  1  0  0  0  0
  3 16  1  0  0  0  0
  4  5  1  0  0  0  0
  4 17  1  0  0  0  0
  4 18  1  0  0  0  0
  5  6  1  0  0  0  0
  6  7  1  0  0  0  0
  6  8  1  0  0  0  0
  6 19  1  0  0  0  0
  9 10  1  0  0  0  0
  9 11  2  0  0  0  0
 10 20  1  0  0  0  0
M  END
>  <DRUGBANK_ID>
DB03816

>  <SECONDARY_ACCESSION_NUMBERS>
EXPT00119

>  <COMMON_NAME>
Difluoromethionine

$$$$
