GB4
 OpenBabel10282417163D

 21 21  0  0  0  0  0  0  0  0999 V2000
    0.9979   -0.1060   -0.0656 O   0  0  0  0  0  0  0  0  0  0  0  0
    2.2285   -0.1354   -0.0634 C   0  0  0  0  0  0  0  0  0  0  0  0
    2.9428   -1.1137    0.5586 N   0  0  0  0  0  0  0  0  0  0  0  0
    2.2246   -2.1419    1.2035 O   0  0  0  0  0  0  0  0  0  0  0  0
    3.0054    0.9232   -0.7524 C   0  0  0  0  0  0  0  0  0  0  0  0
    4.3434    1.0547   -0.7793 C   0  0  0  0  0  0  0  0  0  0  0  0
    4.9974    2.2185   -1.4068 C   0  0  0  0  0  0  0  0  0  0  0  0
    4.6255    3.5519   -1.1361 C   0  0  0  0  0  0  0  0  0  0  0  0
    3.4333    3.9743    0.0497 Cl  0  0  0  0  0  0  0  0  0  0  0  0
    5.2409    4.6147   -1.7977 C   0  0  0  0  0  0  0  0  0  0  0  0
    6.0648    1.9903   -2.2946 C   0  0  0  0  0  0  0  0  0  0  0  0
    6.6938    3.0616   -2.9415 C   0  0  0  0  0  0  0  0  0  0  0  0
    6.2663    4.3652   -2.7012 C   0  0  0  0  0  0  0  0  0  0  0  0
    7.0147    5.6815   -3.5157 Cl  0  0  0  0  0  0  0  0  0  0  0  0
    3.9499   -1.1707    0.6030 H   0  0  0  0  0  0  0  0  0  0  0  0
    1.2915   -1.8827    1.0431 H   0  0  0  0  0  0  0  0  0  0  0  0
    2.3616    1.6608   -1.2281 H   0  0  0  0  0  0  0  0  0  0  0  0
    5.0143    0.3323   -0.3288 H   0  0  0  0  0  0  0  0  0  0  0  0
    4.9186    5.6330   -1.5998 H   0  0  0  0  0  0  0  0  0  0  0  0
    6.4135    0.9802   -2.5072 H   0  0  0  0  0  0  0  0  0  0  0  0
    7.5086    2.8753   -3.6381 H   0  0  0  0  0  0  0  0  0  0  0  0
  1  2  2  0  0  0  0
  2  5  1  0  0  0  0
  2  3  1  0  0  0  0
  3  4  1  0  0  0  0
  3 15  1  0  0  0  0
  4 16  1  0  0  0  0
  5  6  2  0  0  0  0
  5 17  1  0  0  0  0
  6  7  1  0  0  0  0
  6 18  1  0  0  0  0
  7  8  1  0  0  0  0
  7 11  2  0  0  0  0
  8  9  1  0  0  0  0
  8 10  2  0  0  0  0
 10 13  1  0  0  0  0
 10 19  1  0  0  0  0
 11 12  1  0  0  0  0
 11 20  1  0  0  0  0
 12 13  2  0  0  0  0
 12 21  1  0  0  0  0
 13 14  1  0  0  0  0
M  END
>  <DRUGBANK_ID>
DB07818

>  <COMMON_NAME>
(2E)-3-(2,4-DICHLOROPHENYL)-N-HYDROXYACRYLAMIDE

>  <UNII>
ZQ9995YM49

$$$$
