
 OpenBabel10282417233D

 77 81  0  0  1  0  0  0  0  0999 V2000
    0.4559    0.2255   -0.1941 C   0  0  0  0  0  0  0  0  0  0  0  0
    0.1501   -0.4113   -1.5090 C   0  0  0  0  0  0  0  0  0  0  0  0
    0.9355   -1.7272   -1.7072 C   0  0  1  0  0  0  0  0  0  0  0  0
    2.3806   -1.8686   -1.3132 N   0  0  0  0  0  0  0  0  0  0  0  0
    3.3756   -0.7794   -1.1231 C   0  0  0  0  0  0  0  0  0  0  0  0
    3.3830   -0.0851    0.2763 C   0  0  0  0  0  0  0  0  0  0  0  0
    3.6928    1.4026    0.0114 C   0  0  0  0  0  0  0  0  0  0  0  0
    3.8631    1.5831   -1.4966 C   0  0  0  0  0  0  0  0  0  0  0  0
    3.2873    0.3433   -2.1660 C   0  0  0  0  0  0  0  0  0  0  0  0
    2.8626   -3.2039   -1.5491 C   0  0  0  0  0  0  0  0  0  0  0  0
    4.1832   -3.4502   -1.6654 N   0  0  0  0  0  0  0  0  0  0  0  0
    4.6267   -4.7264   -1.8049 C   0  0  0  0  0  0  0  0  0  0  0  0
    5.9874   -4.9977   -1.9436 N   0  0  0  0  0  0  0  0  0  0  0  0
    6.9963   -4.0545   -2.0977 C   0  0  0  0  0  0  0  0  0  0  0  0
    7.1009   -3.1700   -1.0574 C   0  0  0  0  0  0  0  0  0  0  0  0
    7.9204   -2.0824   -1.1681 C   0  0  0  0  0  0  0  0  0  0  0  0
    8.7888   -1.8473   -2.2318 C   0  0  0  0  0  0  0  0  0  0  0  0
    8.7332   -2.7717   -3.2735 C   0  0  0  0  0  0  0  0  0  0  0  0
    7.8322   -3.8658   -3.2211 C   0  0  0  0  0  0  0  0  0  0  0  0
    7.8556   -4.6267   -4.3639 O   0  0  0  0  0  0  0  0  0  0  0  0
    6.9564   -5.7207   -4.4089 C   0  0  0  0  0  0  0  0  0  0  0  0
    9.7619   -0.6982   -2.2795 C   0  0  0  0  0  0  0  0  0  0  0  0
   10.5119   -0.5583   -3.2597 O   0  0  0  0  0  0  0  0  0  0  0  0
    9.8767    0.2144   -1.2507 N   0  0  0  0  0  0  0  0  0  0  0  0
    9.2399    0.1612    0.0594 C   0  0  0  0  0  0  0  0  0  0  0  0
    9.3599    1.4109    0.9009 C   0  0  0  0  0  0  0  0  0  0  0  0
   10.7804    1.5717    1.3937 C   0  0  0  0  0  0  0  0  0  0  0  0
   11.2381    0.3878    2.1364 N   0  0  0  0  0  0  0  0  0  0  0  0
   12.6241    0.5787    2.5454 C   0  0  0  0  0  0  0  0  0  0  0  0
   11.1670   -0.8280    1.3281 C   0  0  0  0  0  0  0  0  0  0  0  0
    9.7474   -1.0527    0.8741 C   0  0  0  0  0  0  0  0  0  0  0  0
    3.8300   -5.7962   -1.8491 N   0  0  0  0  0  0  0  0  0  0  0  0
    2.5125   -5.5498   -1.7626 C   0  0  0  0  0  0  0  0  0  0  0  0
    1.9596   -4.2863   -1.6244 C   0  0  0  0  0  0  0  0  0  0  0  0
    0.5638   -4.0977   -1.4375 N   0  0  0  0  0  0  0  0  0  0  0  0
   -0.4213   -5.1234   -1.6912 C   0  0  0  0  0  0  0  0  0  0  0  0
    0.1476   -2.8513   -1.0119 C   0  0  0  0  0  0  0  0  0  0  0  0
   -0.7834   -2.6861   -0.2137 O   0  0  0  0  0  0  0  0  0  0  0  0
    0.4510   -0.4958    0.6302 H   0  0  0  0  0  0  0  0  0  0  0  0
   -0.0467    1.1454    0.0905 H   0  0  0  0  0  0  0  0  0  0  0  0
    1.4312    0.6038   -0.3950 H   0  0  0  0  0  0  0  0  0  0  0  0
   -0.9326   -0.5616   -1.5886 H   0  0  0  0  0  0  0  0  0  0  0  0
    0.3837    0.2978   -2.3091 H   0  0  0  0  0  0  0  0  0  0  0  0
    0.8545   -1.9366   -2.7887 H   0  0  0  0  0  0  0  0  0  0  0  0
    4.3958   -1.1717   -1.1999 H   0  0  0  0  0  0  0  0  0  0  0  0
    2.4831   -0.1593    0.8931 H   0  0  0  0  0  0  0  0  0  0  0  0
    4.0996   -0.5463    0.9613 H   0  0  0  0  0  0  0  0  0  0  0  0
    2.8816    2.0561    0.3678 H   0  0  0  0  0  0  0  0  0  0  0  0
    4.5931    1.7140    0.5469 H   0  0  0  0  0  0  0  0  0  0  0  0
    3.3522    2.4880   -1.8545 H   0  0  0  0  0  0  0  0  0  0  0  0
    4.9220    1.6935   -1.7436 H   0  0  0  0  0  0  0  0  0  0  0  0
    3.8223    0.0907   -3.0878 H   0  0  0  0  0  0  0  0  0  0  0  0
    2.2797    0.5769   -2.4952 H   0  0  0  0  0  0  0  0  0  0  0  0
    6.2093   -5.9751   -2.0001 H   0  0  0  0  0  0  0  0  0  0  0  0
    6.5041   -3.2766   -0.1537 H   0  0  0  0  0  0  0  0  0  0  0  0
    7.7977   -1.4975   -0.2890 H   0  0  0  0  0  0  0  0  0  0  0  0
    9.3683   -2.6354   -4.1493 H   0  0  0  0  0  0  0  0  0  0  0  0
    7.2208   -6.4552   -3.6410 H   0  0  0  0  0  0  0  0  0  0  0  0
    5.9185   -5.3801   -4.3311 H   0  0  0  0  0  0  0  0  0  0  0  0
    7.0518   -6.2212   -5.3716 H   0  0  0  0  0  0  0  0  0  0  0  0
   10.6189    0.8897   -1.3990 H   0  0  0  0  0  0  0  0  0  0  0  0
    8.1715    0.1703   -0.1628 H   0  0  0  0  0  0  0  0  0  0  0  0
    8.6708    1.3127    1.7542 H   0  0  0  0  0  0  0  0  0  0  0  0
    9.0312    2.2857    0.3298 H   0  0  0  0  0  0  0  0  0  0  0  0
   10.8076    2.4517    2.0423 H   0  0  0  0  0  0  0  0  0  0  0  0
   11.4306    1.7648    0.5327 H   0  0  0  0  0  0  0  0  0  0  0  0
   12.9676   -0.2797    3.1312 H   0  0  0  0  0  0  0  0  0  0  0  0
   13.2816    0.6934    1.6759 H   0  0  0  0  0  0  0  0  0  0  0  0
   12.7083    1.4665    3.1758 H   0  0  0  0  0  0  0  0  0  0  0  0
   11.8227   -0.7731    0.4481 H   0  0  0  0  0  0  0  0  0  0  0  0
   11.4822   -1.7067    1.9054 H   0  0  0  0  0  0  0  0  0  0  0  0
    9.0820   -1.2369    1.7281 H   0  0  0  0  0  0  0  0  0  0  0  0
    9.7889   -1.9895    0.3097 H   0  0  0  0  0  0  0  0  0  0  0  0
    1.9060   -6.4497   -1.7474 H   0  0  0  0  0  0  0  0  0  0  0  0
   -0.3606   -5.3972   -2.7515 H   0  0  0  0  0  0  0  0  0  0  0  0
   -0.2634   -6.0009   -1.0636 H   0  0  0  0  0  0  0  0  0  0  0  0
   -1.4314   -4.7340   -1.5205 H   0  0  0  0  0  0  0  0  0  0  0  0
  1  2  1  0  0  0  0
  1 39  1  0  0  0  0
  1 40  1  0  0  0  0
  1 41  1  0  0  0  0
  2 42  1  0  0  0  0
  2 43  1  0  0  0  0
  3  2  1  0  0  0  0
  3  4  1  0  0  0  0
  3 37  1  0  0  0  0
  3 44  1  6  0  0  0
  4  5  1  0  0  0  0
  4 10  1  0  0  0  0
  5  6  1  0  0  0  0
  5  9  1  0  0  0  0
  5 45  1  0  0  0  0
  6  7  1  0  0  0  0
  6 46  1  0  0  0  0
  6 47  1  0  0  0  0
  7  8  1  0  0  0  0
  7 48  1  0  0  0  0
  7 49  1  0  0  0  0
  8  9  1  0  0  0  0
  8 50  1  0  0  0  0
  8 51  1  0  0  0  0
  9 52  1  0  0  0  0
  9 53  1  0  0  0  0
 10 11  2  0  0  0  0
 10 34  1  0  0  0  0
 11 12  1  0  0  0  0
 12 13  1  0  0  0  0
 12 32  2  0  0  0  0
 13 14  1  0  0  0  0
 13 54  1  0  0  0  0
 14 15  2  0  0  0  0
 14 19  1  0  0  0  0
 15 16  1  0  0  0  0
 15 55  1  0  0  0  0
 16 17  2  0  0  0  0
 16 56  1  0  0  0  0
 17 18  1  0  0  0  0
 17 22  1  0  0  0  0
 18 19  2  0  0  0  0
 18 57  1  0  0  0  0
 19 20  1  0  0  0  0
 20 21  1  0  0  0  0
 21 58  1  0  0  0  0
 21 59  1  0  0  0  0
 21 60  1  0  0  0  0
 22 23  2  0  0  0  0
 22 24  1  0  0  0  0
 24 25  1  0  0  0  0
 24 61  1  0  0  0  0
 25 26  1  0  0  0  0
 25 31  1  0  0  0  0
 25 62  1  0  0  0  0
 26 27  1  0  0  0  0
 26 63  1  0  0  0  0
 26 64  1  0  0  0  0
 27 28  1  0  0  0  0
 27 65  1  0  0  0  0
 27 66  1  0  0  0  0
 28 29  1  0  0  0  0
 28 30  1  0  0  0  0
 29 67  1  0  0  0  0
 29 68  1  0  0  0  0
 29 69  1  0  0  0  0
 30 31  1  0  0  0  0
 30 70  1  0  0  0  0
 30 71  1  0  0  0  0
 31 72  1  0  0  0  0
 31 73  1  0  0  0  0
 32 33  1  0  0  0  0
 33 34  2  0  0  0  0
 33 74  1  0  0  0  0
 34 35  1  0  0  0  0
 35 36  1  0  0  0  0
 35 37  1  0  0  0  0
 36 75  1  0  0  0  0
 36 76  1  0  0  0  0
 36 77  1  0  0  0  0
 37 38  2  0  0  0  0
M  END
>  <DRUGBANK_ID>
DB16107

>  <COMMON_NAME>
BI 2536

>  <CAS_NUMBER>
755038-02-9

>  <UNII>
4LJG22T9C6

$$$$
