D56
 OpenBabel10282417163D

 63 65  0  0  0  0  0  0  0  0999 V2000
    1.2981   -0.0018    0.3095 N   0  0  0  0  0  0  0  0  0  0  0  0
    0.7319    1.2353   -0.2012 C   0  0  0  0  0  0  0  0  0  0  0  0
   -0.7267    1.2865    0.2402 C   0  0  0  0  0  0  0  0  0  0  0  0
   -1.4852    0.0228   -0.1876 C   0  0  0  0  0  0  0  0  0  0  0  0
   -0.7490   -1.2579    0.2261 C   0  0  0  0  0  0  0  0  0  0  0  0
    0.7134   -1.2306   -0.2227 C   0  0  0  0  0  0  0  0  0  0  0  0
    2.4160   -0.0222    1.1067 C   0  0  0  0  0  0  0  0  0  0  0  0
    3.5665   -0.6294    0.6295 C   0  0  0  0  0  0  0  0  0  0  0  0
    4.7339   -0.6887    1.3797 C   0  0  0  0  0  0  0  0  0  0  0  0
    6.0687   -1.2508    0.4219 Cl  0  0  0  0  0  0  0  0  0  0  0  0
    4.7325   -0.2508    2.7185 C   0  0  0  0  0  0  0  0  0  0  0  0
    3.6168    0.4805    3.1954 C   0  0  0  0  0  0  0  0  0  0  0  0
    3.6025    1.1481    4.4727 N   0  0  0  0  0  0  0  0  0  0  0  0
    4.6483    1.3266    5.3820 C   0  0  0  0  0  0  0  0  0  0  0  0
    4.4416    1.1872    6.5990 O   0  0  0  0  0  0  0  0  0  0  0  0
    5.9914    1.8277    4.9195 C   0  0  0  0  0  0  0  0  0  0  0  0
    6.1117    2.3539    3.6297 C   0  0  0  0  0  0  0  0  0  0  0  0
    7.3383    2.6569    3.0247 C   0  0  0  0  0  0  0  0  0  0  0  0
    6.9147   -2.4731    3.2451 C   0  0  0  0  0  0  0  0  0  0  0  0
    7.2024    3.1035    1.5849 C   0  0  0  0  0  0  0  0  0  0  0  0
    8.5082    2.4684    3.7906 C   0  0  0  0  0  0  0  0  0  0  0  0
    9.7989    2.5200    3.3247 O   0  0  0  0  0  0  0  0  0  0  0  0
   10.0567    2.7039    1.9364 C   0  0  0  0  0  0  0  0  0  0  0  0
    9.8837    1.4288    1.0547 C   0  0  0  0  0  0  0  0  0  0  0  0
    8.7754    0.5201    1.2899 N   0  0  0  0  0  0  0  0  0  0  0  0
    8.4081    2.0609    5.1564 C   0  0  0  0  0  0  0  0  0  0  0  0
    9.6322    1.9494    6.0429 C   0  0  0  0  0  0  0  0  0  0  0  0
    7.1449    1.7291    5.7061 C   0  0  0  0  0  0  0  0  0  0  0  0
    2.4663    0.5718    2.3810 C   0  0  0  0  0  0  0  0  0  0  0  0
    5.6553   -0.5143    3.6966 O   0  0  0  0  0  0  0  0  0  0  0  0
    6.9391   -0.9832    3.3659 C   0  0  0  0  0  0  0  0  0  0  0  0
    0.7839    1.2299   -1.2994 H   0  0  0  0  0  0  0  0  0  0  0  0
    1.2807    2.1211    0.1356 H   0  0  0  0  0  0  0  0  0  0  0  0
   -1.2123    2.1731   -0.1789 H   0  0  0  0  0  0  0  0  0  0  0  0
   -0.7651    1.3720    1.3328 H   0  0  0  0  0  0  0  0  0  0  0  0
   -2.4867    0.0306    0.2563 H   0  0  0  0  0  0  0  0  0  0  0  0
   -1.6159    0.0281   -1.2767 H   0  0  0  0  0  0  0  0  0  0  0  0
   -0.7850   -1.3489    1.3193 H   0  0  0  0  0  0  0  0  0  0  0  0
   -1.2564   -2.1334   -0.1917 H   0  0  0  0  0  0  0  0  0  0  0  0
    1.2271   -2.1330    0.1297 H   0  0  0  0  0  0  0  0  0  0  0  0
    0.7699   -1.2318   -1.3195 H   0  0  0  0  0  0  0  0  0  0  0  0
    3.5686   -1.0482   -0.3743 H   0  0  0  0  0  0  0  0  0  0  0  0
    2.6934    1.3734    4.8586 H   0  0  0  0  0  0  0  0  0  0  0  0
    5.2263    2.4212    3.0080 H   0  0  0  0  0  0  0  0  0  0  0  0
    6.1048   -2.7850    2.5841 H   0  0  0  0  0  0  0  0  0  0  0  0
    7.8630   -2.8282    2.8404 H   0  0  0  0  0  0  0  0  0  0  0  0
    6.6976   -2.9123    4.2169 H   0  0  0  0  0  0  0  0  0  0  0  0
    7.3757    4.1742    1.4989 H   0  0  0  0  0  0  0  0  0  0  0  0
    7.8481    2.6260    0.8586 H   0  0  0  0  0  0  0  0  0  0  0  0
    6.2182    2.8421    1.1803 H   0  0  0  0  0  0  0  0  0  0  0  0
    9.5465    3.6031    1.5795 H   0  0  0  0  0  0  0  0  0  0  0  0
   11.1141    2.9771    1.8514 H   0  0  0  0  0  0  0  0  0  0  0  0
    9.8567    1.7253    0.0027 H   0  0  0  0  0  0  0  0  0  0  0  0
   10.7509    0.7949    1.2242 H   0  0  0  0  0  0  0  0  0  0  0  0
    8.0020    0.6210    0.6283 H   0  0  0  0  0  0  0  0  0  0  0  0
    8.3843    0.7709    2.1941 H   0  0  0  0  0  0  0  0  0  0  0  0
    9.5372    2.6381    6.8900 H   0  0  0  0  0  0  0  0  0  0  0  0
    9.7644    0.9310    6.4252 H   0  0  0  0  0  0  0  0  0  0  0  0
   10.5570    2.2205    5.5234 H   0  0  0  0  0  0  0  0  0  0  0  0
    7.0730    1.3425    6.7239 H   0  0  0  0  0  0  0  0  0  0  0  0
    1.5787    1.0829    2.7459 H   0  0  0  0  0  0  0  0  0  0  0  0
    7.2326   -0.5376    2.4449 H   0  0  0  0  0  0  0  0  0  0  0  0
    7.6743   -0.6559    4.1116 H   0  0  0  0  0  0  0  0  0  0  0  0
  1  2  1  0  0  0  0
  1  6  1  0  0  0  0
  1  7  1  0  0  0  0
  2  3  1  0  0  0  0
  2 32  1  0  0  0  0
  2 33  1  0  0  0  0
  3  4  1  0  0  0  0
  3 34  1  0  0  0  0
  3 35  1  0  0  0  0
  4  5  1  0  0  0  0
  4 36  1  0  0  0  0
  4 37  1  0  0  0  0
  5  6  1  0  0  0  0
  5 38  1  0  0  0  0
  5 39  1  0  0  0  0
  6 40  1  0  0  0  0
  6 41  1  0  0  0  0
  7  8  1  0  0  0  0
  7 29  2  0  0  0  0
  8  9  2  0  0  0  0
  8 42  1  0  0  0  0
  9 10  1  0  0  0  0
  9 11  1  0  0  0  0
 11 12  2  0  0  0  0
 11 30  1  0  0  0  0
 12 13  1  0  0  0  0
 12 29  1  0  0  0  0
 13 14  1  0  0  0  0
 13 43  1  0  0  0  0
 14 15  2  0  0  0  0
 14 16  1  0  0  0  0
 16 17  1  0  0  0  0
 16 28  2  0  0  0  0
 17 18  2  0  0  0  0
 17 44  1  0  0  0  0
 18 20  1  0  0  0  0
 18 21  1  0  0  0  0
 19 31  1  0  0  0  0
 19 45  1  0  0  0  0
 19 46  1  0  0  0  0
 19 47  1  0  0  0  0
 20 48  1  0  0  0  0
 20 49  1  0  0  0  0
 20 50  1  0  0  0  0
 21 22  1  0  0  0  0
 21 26  2  0  0  0  0
 22 23  1  0  0  0  0
 23 24  1  0  0  0  0
 23 51  1  0  0  0  0
 23 52  1  0  0  0  0
 24 25  1  0  0  0  0
 24 53  1  0  0  0  0
 24 54  1  0  0  0  0
 25 55  1  0  0  0  0
 25 56  1  0  0  0  0
 26 27  1  0  0  0  0
 26 28  1  0  0  0  0
 27 57  1  0  0  0  0
 27 58  1  0  0  0  0
 27 59  1  0  0  0  0
 28 60  1  0  0  0  0
 29 61  1  0  0  0  0
 30 31  1  0  0  0  0
 31 62  1  0  0  0  0
 31 63  1  0  0  0  0
M  END
>  <DRUGBANK_ID>
DB07626

>  <COMMON_NAME>
4-(2-aminoethoxy)-N-(3-chloro-2-ethoxy-5-piperidin-1-ylphenyl)-3,5-dimethylbenzamide

$$$$
