956
 OpenBabel10282417113D

 43 47  0  0  1  0  0  0  0  0999 V2000
   -1.0495    0.1887    2.2757 O   0  0  0  0  0  0  0  0  0  0  0  0
   -0.4554    3.4254    1.8181 O   0  0  0  0  0  0  0  0  0  0  0  0
   -1.6272   -2.9248    1.6578 O   0  0  0  0  0  0  0  0  0  0  0  0
   -5.5084    1.3162    2.7050 N   0  0  0  0  0  0  0  0  0  0  0  0
   -2.7999    1.4209    3.1719 C   0  0  1  0  0  0  0  0  0  0  0  0
   -3.6417    2.2629    4.1006 C   0  0  2  0  0  0  0  0  0  0  0  0
   -5.0412    1.4929    4.1689 C   0  0  1  0  0  0  0  0  0  0  0  0
   -1.2840    1.4416    3.0779 C   0  0  2  0  0  0  0  0  0  0  0  0
   -3.3240    1.9150    1.7771 C   0  0  0  0  0  0  0  0  0  0  0  0
   -2.9182   -0.0380    3.5040 C   0  0  0  0  0  0  0  0  0  0  0  0
   -2.8000    3.3195    4.8207 C   0  0  0  0  0  0  0  0  0  0  0  0
   -5.0270    0.1350    4.8568 C   0  0  0  0  0  0  0  0  0  0  0  0
   -4.8258    2.1313    1.7328 C   0  0  0  0  0  0  0  0  0  0  0  0
   -3.9079   -0.6540    4.2840 C   0  0  0  0  0  0  0  0  0  0  0  0
   -1.8765    4.0063    3.7215 C   0  0  0  0  0  0  0  0  0  0  0  0
   -1.0484    3.0062    2.7899 C   0  0  0  0  0  0  0  0  0  0  0  0
   -2.0007   -0.7444    2.7609 C   0  0  0  0  0  0  0  0  0  0  0  0
   -6.2700    0.2606    2.0622 C   0  0  0  0  0  0  0  0  0  0  0  0
   -4.0715   -2.0194    4.2605 C   0  0  0  0  0  0  0  0  0  0  0  0
   -2.2778   -2.1235    2.5759 C   0  0  0  0  0  0  0  0  0  0  0  0
   -3.3413   -2.7154    3.3292 C   0  0  0  0  0  0  0  0  0  0  0  0
   -1.9272   -4.3372    1.7918 C   0  0  0  0  0  0  0  0  0  0  0  0
   -4.0881    3.1009    3.5653 H   0  0  0  0  0  0  0  0  0  0  0  0
   -5.7315    2.1219    4.7337 H   0  0  0  0  0  0  0  0  0  0  0  0
   -0.6867    1.2835    3.9890 H   0  0  0  0  0  0  0  0  0  0  0  0
   -2.9838    2.9441    1.6083 H   0  0  0  0  0  0  0  0  0  0  0  0
   -2.8930    1.3518    0.9476 H   0  0  0  0  0  0  0  0  0  0  0  0
   -3.4644    4.1013    5.2266 H   0  0  0  0  0  0  0  0  0  0  0  0
   -2.1997    2.9316    5.6412 H   0  0  0  0  0  0  0  0  0  0  0  0
   -5.0365    0.1442    5.9532 H   0  0  0  0  0  0  0  0  0  0  0  0
   -5.9521   -0.3866    4.5734 H   0  0  0  0  0  0  0  0  0  0  0  0
   -5.1358    3.1333    2.0441 H   0  0  0  0  0  0  0  0  0  0  0  0
   -5.1363    2.1465    0.6848 H   0  0  0  0  0  0  0  0  0  0  0  0
   -1.2638    4.8028    4.1596 H   0  0  0  0  0  0  0  0  0  0  0  0
   -2.5280    4.5532    3.0114 H   0  0  0  0  0  0  0  0  0  0  0  0
   -7.3105    0.2930    2.3840 H   0  0  0  0  0  0  0  0  0  0  0  0
   -6.3177    0.4574    0.9757 H   0  0  0  0  0  0  0  0  0  0  0  0
   -5.8825   -0.7657    2.1005 H   0  0  0  0  0  0  0  0  0  0  0  0
   -4.9005   -2.5011    4.7762 H   0  0  0  0  0  0  0  0  0  0  0  0
   -3.6998   -3.7315    3.1870 H   0  0  0  0  0  0  0  0  0  0  0  0
   -1.7195   -4.6779    2.8171 H   0  0  0  0  0  0  0  0  0  0  0  0
   -2.9702   -4.5757    1.5221 H   0  0  0  0  0  0  0  0  0  0  0  0
   -1.3011   -4.9245    1.1196 H   0  0  0  0  0  0  0  0  0  0  0  0
  1  8  1  0  0  0  0
  1 17  1  0  0  0  0
  2 16  2  0  0  0  0
  3 22  1  0  0  0  0
  3 20  1  0  0  0  0
  4  7  1  0  0  0  0
  4 13  1  0  0  0  0
  4 18  1  0  0  0  0
  5  6  1  0  0  0  0
  5  8  1  0  0  0  0
  5  9  1  0  0  0  0
  5 10  1  6  0  0  0
  6  7  1  0  0  0  0
  6 11  1  0  0  0  0
  6 23  1  1  0  0  0
  7 12  1  0  0  0  0
  7 24  1  6  0  0  0
  8 16  1  0  0  0  0
  8 25  1  1  0  0  0
  9 13  1  0  0  0  0
  9 26  1  0  0  0  0
  9 27  1  0  0  0  0
 10 14  2  0  0  0  0
 10 17  1  0  0  0  0
 11 15  1  0  0  0  0
 11 28  1  0  0  0  0
 11 29  1  0  0  0  0
 12 14  1  0  0  0  0
 12 30  1  0  0  0  0
 12 31  1  0  0  0  0
 13 32  1  0  0  0  0
 13 33  1  0  0  0  0
 14 19  1  0  0  0  0
 15 16  1  0  0  0  0
 15 34  1  0  0  0  0
 15 35  1  0  0  0  0
 17 20  2  0  0  0  0
 18 36  1  0  0  0  0
 18 37  1  0  0  0  0
 18 38  1  0  0  0  0
 19 21  2  0  0  0  0
 19 39  1  0  0  0  0
 20 21  1  0  0  0  0
 21 40  1  0  0  0  0
 22 41  1  0  0  0  0
 22 42  1  0  0  0  0
 22 43  1  0  0  0  0
M  END
>  <DRUGBANK_ID>
DB00956

>  <SECONDARY_ACCESSION_NUMBERS>
APRD00591; DB09475

>  <COMMON_NAME>
Hydrocodone

>  <CAS_NUMBER>
125-29-1

>  <UNII>
6YKS4Y3WQ7

>  <SYNONYMS>
(-)-Dihydrocodeinone; 4,5-alpha-Epoxy-3-methoxy-17-methylmorphinan-6-one; Dihydrocodeinone; Hidrocodona; Hydrocodon; Hydrocodone; Hydrocodonum; Hydrocone; Hydroconum; Idrocodone

$$$$
