
 OpenBabel10282417203D

 78 79  0  0  1  0  0  0  0  0999 V2000
   -1.7738  -13.6428    0.4055 C   0  0  0  0  0  0  0  0  0  0  0  0
   -0.7353  -13.2464    2.5395 C   0  0  1  0  0  0  0  0  0  0  0  0
   -0.3099  -12.5863    5.3336 C   0  0  0  0  0  0  0  0  0  0  0  0
    0.5289  -11.6115    7.6973 C   0  0  1  0  0  0  0  0  0  0  0  0
    1.5948  -12.0043    9.4617 C   0  0  1  0  0  0  0  0  0  0  0  0
    0.0032  -11.7401    9.3341 C   0  0  2  0  0  0  0  0  0  0  0  0
   -0.5495  -10.1719    8.4705 C   0  0  0  0  0  0  0  0  0  0  0  0
   -0.6514  -10.0847    7.1634 C   0  0  0  0  0  0  0  0  0  0  0  0
   -0.9650   -8.8521    6.6756 C   0  0  1  0  0  0  0  0  0  0  0  0
    0.0340   -8.4240    5.6912 C   0  0  2  0  0  0  0  0  0  0  0  0
    0.1419   -9.4157    4.4392 C   0  0  0  0  0  0  0  0  0  0  0  0
   -0.0493   -9.0254    3.2052 C   0  0  0  0  0  0  0  0  0  0  0  0
    0.0012   -9.9569    2.0758 C   0  0  0  0  0  0  0  0  0  0  0  0
   -0.2498   -9.5496    0.8022 C   0  0  0  0  0  0  0  0  0  0  0  0
   -0.1940  -10.5358   -0.3556 C   0  0  0  0  0  0  0  0  0  0  0  0
    0.0788  -11.6781   -0.0421 O   0  0  0  0  0  0  0  0  0  0  0  0
   -0.4601  -10.1088   -1.6929 N   0  0  0  0  0  0  0  0  0  0  0  0
   -0.4143  -11.0125   -2.7936 C   0  0  0  0  0  0  0  0  0  0  0  0
   -0.6707  -10.5883   -4.0357 C   0  0  0  0  0  0  0  0  0  0  0  0
   -0.6169  -11.4872   -5.1374 C   0  0  0  0  0  0  0  0  0  0  0  0
   -0.5470  -11.0603   -6.2969 O   0  0  0  0  0  0  0  0  0  0  0  0
   -0.6917  -13.0758   -4.3379 C   0  0  0  0  0  0  0  0  0  0  0  0
   -0.6619  -13.5760   -2.4588 C   0  0  0  0  0  0  0  0  0  0  0  0
   -0.5817  -13.7998   -0.0259 C   0  0  0  0  0  0  0  0  0  0  0  0
   -0.0144  -12.3949   -2.4985 C   0  0  0  0  0  0  0  0  0  0  0  0
    0.5960  -12.8616   -1.5599 O   0  0  0  0  0  0  0  0  0  0  0  0
   -1.0278  -13.7685   -5.9270 N   0  0  0  0  0  0  0  0  0  0  0  0
   -0.5855   -8.1223    0.5376 C   0  0  0  0  0  0  0  0  0  0  0  0
    1.4623   -8.3448    6.3332 O   0  0  0  0  0  0  0  0  0  0  0  0
    1.8321   -9.6249    6.7642 C   0  0  0  0  0  0  0  0  0  0  0  0
   -2.2099   -8.9475    6.0406 O   0  0  0  0  0  0  0  0  0  0  0  0
   -3.2177   -9.7526    6.5656 C   0  0  0  0  0  0  0  0  0  0  0  0
   -4.3074   -9.7977    6.0006 O   0  0  0  0  0  0  0  0  0  0  0  0
   -3.0013  -10.5052    7.7368 N   0  0  0  0  0  0  0  0  0  0  0  0
   -0.3397  -10.9862    6.1411 C   0  0  0  0  0  0  0  0  0  0  0  0
   -1.0398  -12.3409   10.0766 C   0  0  0  0  0  0  0  0  0  0  0  0
    2.5504  -11.3476    8.7099 O   0  0  0  0  0  0  0  0  0  0  0  0
    0.8591  -10.1574    9.5029 O   0  0  0  0  0  0  0  0  0  0  0  0
    0.0297   -9.0732   11.0797 C   0  0  0  0  0  0  0  0  0  0  0  0
   -2.1929  -14.9396   -0.5594 H   0  0  0  0  0  0  0  0  0  0  0  0
   -2.8384  -13.6690   -0.9742 H   0  0  0  0  0  0  0  0  0  0  0  0
   -1.6540  -13.3309   -1.2208 H   0  0  0  0  0  0  0  0  0  0  0  0
   -1.6559  -13.7416    1.2658 H   0  0  0  0  0  0  0  0  0  0  0  0
   -0.6694  -12.3062    7.0648 H   0  0  0  0  0  0  0  0  0  0  0  0
   -0.8460  -12.3583    7.0206 H   0  0  0  0  0  0  0  0  0  0  0  0
    1.2861  -11.1942    9.4099 H   0  0  0  0  0  0  0  0  0  0  0  0
    1.6631  -12.8552   10.1258 H   0  0  0  0  0  0  0  0  0  0  0  0
    0.2899  -12.8548    8.5669 H   0  0  0  0  0  0  0  0  0  0  0  0
   -0.5282   -9.4736    9.2018 H   0  0  0  0  0  0  0  0  0  0  0  0
   -0.9470   -8.1593    7.4806 H   0  0  0  0  0  0  0  0  0  0  0  0
   -0.1276   -7.3769    5.2948 H   0  0  0  0  0  0  0  0  0  0  0  0
    0.4158   -8.7377    5.1719 H   0  0  0  0  0  0  0  0  0  0  0  0
   -0.2779   -7.9728    3.0649 H   0  0  0  0  0  0  0  0  0  0  0  0
    0.2520  -11.0054    2.2673 H   0  0  0  0  0  0  0  0  0  0  0  0
   -0.6933   -9.1289   -1.8853 H   0  0  0  0  0  0  0  0  0  0  0  0
   -0.9073   -9.5721   -4.2543 H   0  0  0  0  0  0  0  0  0  0  0  0
   -0.2319  -14.7428   -1.5242 H   0  0  0  0  0  0  0  0  0  0  0  0
   -0.7967  -14.5644   -1.6701 H   0  0  0  0  0  0  0  0  0  0  0  0
   -1.0912  -14.7610   -5.8580 H   0  0  0  0  0  0  0  0  0  0  0  0
   -1.2290  -13.3545   -6.9078 H   0  0  0  0  0  0  0  0  0  0  0  0
    0.1437   -7.6748   -0.1252 H   0  0  0  0  0  0  0  0  0  0  0  0
   -1.5721   -8.0361    0.1013 H   0  0  0  0  0  0  0  0  0  0  0  0
   -0.5873   -7.5406    1.4515 H   0  0  0  0  0  0  0  0  0  0  0  0
    1.1609   -9.9190    7.4887 H   0  0  0  0  0  0  0  0  0  0  0  0
    1.8382  -10.3560    5.9700 H   0  0  0  0  0  0  0  0  0  0  0  0
    2.7465   -9.6133    7.2727 H   0  0  0  0  0  0  0  0  0  0  0  0
   -2.1388  -10.5100    8.2368 H   0  0  0  0  0  0  0  0  0  0  0  0
   -3.6942  -11.1128    8.1481 H   0  0  0  0  0  0  0  0  0  0  0  0
   -1.4328  -11.3825    5.7056 H   0  0  0  0  0  0  0  0  0  0  0  0
    0.4246  -11.1306    5.4301 H   0  0  0  0  0  0  0  0  0  0  0  0
    0.5096  -12.1823    6.5387 H   0  0  0  0  0  0  0  0  0  0  0  0
   -1.9775  -12.3257    9.5355 H   0  0  0  0  0  0  0  0  0  0  0  0
   -0.7464  -13.2970   10.4435 H   0  0  0  0  0  0  0  0  0  0  0  0
   -1.3295  -11.6716   10.8133 H   0  0  0  0  0  0  0  0  0  0  0  0
    3.3562  -11.7199    8.7153 H   0  0  0  0  0  0  0  0  0  0  0  0
   -0.8680   -9.6273   11.2485 H   0  0  0  0  0  0  0  0  0  0  0  0
    0.4128   -8.8765   12.2056 H   0  0  0  0  0  0  0  0  0  0  0  0
   -0.2983   -8.0020   10.8366 H   0  0  0  0  0  0  0  0  0  0  0  0
  1 40  1  0  0  0  0
  1 41  1  0  0  0  0
  1 42  1  0  0  0  0
  2  3  1  0  0  0  0
  2 24  1  0  0  0  0
  2 43  1  6  0  0  0
  2  1  1  0  0  0  0
  3  4  1  0  0  0  0
  3 44  1  0  0  0  0
  3 45  1  0  0  0  0
  4  5  1  0  0  0  0
  4 46  1  1  0  0  0
  4 38  1  0  0  0  0
  5  6  1  0  0  0  0
  5 47  1  6  0  0  0
  5 37  1  0  0  0  0
  6  7  1  0  0  0  0
  6 36  1  0  0  0  0
  6 48  1  6  0  0  0
  7  8  2  0  0  0  0
  7 49  1  0  0  0  0
  8  9  1  0  0  0  0
  8 35  1  0  0  0  0
  9 10  1  0  0  0  0
  9 50  1  1  0  0  0
  9 31  1  0  0  0  0
 10 11  1  0  0  0  0
 10 29  1  0  0  0  0
 10 51  1  6  0  0  0
 11 12  2  0  0  0  0
 11 52  1  0  0  0  0
 12 13  1  0  0  0  0
 12 53  1  0  0  0  0
 13 14  2  0  0  0  0
 13 54  1  0  0  0  0
 14 15  1  0  0  0  0
 14 28  1  0  0  0  0
 15 16  2  0  0  0  0
 15 17  1  0  0  0  0
 17 18  1  0  0  0  0
 17 55  1  0  0  0  0
 18 19  2  0  0  0  0
 18 25  1  0  0  0  0
 19 20  1  0  0  0  0
 19 56  1  0  0  0  0
 20 21  2  0  0  0  0
 20 22  1  0  0  0  0
 22 23  2  0  0  0  0
 22 27  1  0  0  0  0
 23 24  1  0  0  0  0
 23 25  1  0  0  0  0
 24 57  1  0  0  0  0
 24 58  1  0  0  0  0
 25 26  2  0  0  0  0
 27 59  1  0  0  0  0
 27 60  1  0  0  0  0
 28 61  1  0  0  0  0
 28 62  1  0  0  0  0
 28 63  1  0  0  0  0
 29 30  1  0  0  0  0
 30 64  1  0  0  0  0
 30 65  1  0  0  0  0
 30 66  1  0  0  0  0
 31 32  1  0  0  0  0
 32 33  2  0  0  0  0
 32 34  1  0  0  0  0
 34 67  1  0  0  0  0
 34 68  1  0  0  0  0
 35 69  1  0  0  0  0
 35 70  1  0  0  0  0
 35 71  1  0  0  0  0
 36 72  1  0  0  0  0
 36 73  1  0  0  0  0
 36 74  1  0  0  0  0
 37 75  1  0  0  0  0
 38 39  1  0  0  0  0
 39 76  1  0  0  0  0
 39 77  1  0  0  0  0
 39 78  1  0  0  0  0
M  END
>  <DRUGBANK_ID>
DB13023

>  <COMMON_NAME>
IPI-493

>  <CAS_NUMBER>
64202-81-9

>  <UNII>
SLQ1AJG3VB

$$$$
