
 OpenBabel10282417173D

104109  0  0  0  0  0  0  0  0999 V2000
    1.0468    0.0353    0.0419 O   0  0  0  0  0  0  0  0  0  0  0  0
  -13.0028   -0.2436    8.7959 O   0  0  0  0  0  0  0  0  0  0  0  0
    1.7465   -2.1141    4.1503 O   0  0  0  0  0  0  0  0  0  0  0  0
  -10.4018    2.6274    4.8031 O   0  0  0  0  0  0  0  0  0  0  0  0
    1.3128   -3.1281    2.2591 O   0  0  0  0  0  0  0  0  0  0  0  0
   -8.9868    1.4153    5.8190 O   0  0  0  0  0  0  0  0  0  0  0  0
    3.0380    0.9410   -0.6886 N   0  0  0  0  0  0  0  0  0  0  0  0
  -12.1009    1.8604    8.9232 N   0  0  0  0  0  0  0  0  0  0  0  0
   -8.9031    3.3345    7.5324 N   0  0  0  0  0  0  0  0  0  0  0  0
    0.5729    2.5378    0.5960 N   0  0  0  0  0  0  0  0  0  0  0  0
   -8.8971    2.4241    9.5359 N   0  0  0  0  0  0  0  0  0  0  0  0
    0.4989    3.4535   -1.4170 N   0  0  0  0  0  0  0  0  0  0  0  0
    2.5947   -1.1784    2.1644 N   0  0  0  0  0  0  0  0  0  0  0  0
  -11.1636    0.8524    6.1629 N   0  0  0  0  0  0  0  0  0  0  0  0
    2.6703    2.3646   -0.8061 C   0  0  2  0  0  0  0  0  0  0  0  0
  -11.2104    3.0490    8.6660 C   0  0  2  0  0  0  0  0  0  0  0  0
   -9.6924    2.9456    8.6111 C   0  0  0  0  0  0  0  0  0  0  0  0
    1.2524    2.7641   -0.5817 C   0  0  0  0  0  0  0  0  0  0  0  0
    2.2728   -0.0383   -0.0490 C   0  0  0  0  0  0  0  0  0  0  0  0
  -12.1320    0.5549    8.4133 C   0  0  0  0  0  0  0  0  0  0  0  0
    3.0024   -1.1888    0.7112 C   0  0  2  0  0  0  0  0  0  0  0  0
  -11.0526    0.0067    7.4087 C   0  0  2  0  0  0  0  0  0  0  0  0
    3.1510    2.7590   -2.2085 C   0  0  0  0  0  0  0  0  0  0  0  0
  -11.4426    3.8533    9.9471 C   0  0  0  0  0  0  0  0  0  0  0  0
    4.1895    0.6772   -1.5628 C   0  0  0  0  0  0  0  0  0  0  0  0
  -13.2486    2.3028    9.7615 C   0  0  0  0  0  0  0  0  0  0  0  0
   -7.6578    2.6733    7.6226 C   0  0  0  0  0  0  0  0  0  0  0  0
   -0.6996    3.0363    0.4594 C   0  0  0  0  0  0  0  0  0  0  0  0
    4.4205    1.9481   -2.3935 C   0  0  0  0  0  0  0  0  0  0  0  0
  -12.9025    3.6985   10.2787 C   0  0  0  0  0  0  0  0  0  0  0  0
    2.7292   -2.5554    0.0652 C   0  0  0  0  0  0  0  0  0  0  0  0
   -9.7015   -0.0965    8.1259 C   0  0  0  0  0  0  0  0  0  0  0  0
   -7.7118    2.1214    8.8828 C   0  0  0  0  0  0  0  0  0  0  0  0
   -0.7125    3.5836   -0.8019 C   0  0  0  0  0  0  0  0  0  0  0  0
   -6.7122    2.5021    6.4792 C   0  0  0  0  0  0  0  0  0  0  0  0
   -1.7594    2.8725    1.4318 C   0  0  0  0  0  0  0  0  0  0  0  0
    1.8352   -2.1617    2.7981 C   0  0  0  0  0  0  0  0  0  0  0  0
  -10.1342    1.5599    5.5869 C   0  0  0  0  0  0  0  0  0  0  0  0
   -4.9200    2.4695    4.2625 C   0  0  0  0  0  0  0  0  0  0  0  0
   -3.8306    2.5155    3.2927 C   0  0  0  0  0  0  0  0  0  0  0  0
   -6.3061    1.2978    5.8285 C   0  0  0  0  0  0  0  0  0  0  0  0
   -2.9449    2.2231    1.0643 C   0  0  0  0  0  0  0  0  0  0  0  0
   -6.2400    3.6780    5.9362 C   0  0  0  0  0  0  0  0  0  0  0  0
   -1.6129    3.3521    2.7317 C   0  0  0  0  0  0  0  0  0  0  0  0
    3.0471   -2.5946   -1.4164 C   0  0  0  0  0  0  0  0  0  0  0  0
    3.5527   -3.6594    0.7600 C   0  0  0  0  0  0  0  0  0  0  0  0
   -9.6384   -0.6023    9.5666 C   0  0  0  0  0  0  0  0  0  0  0  0
   -8.4932   -0.6518    7.3980 C   0  0  0  0  0  0  0  0  0  0  0  0
   -5.4498    1.2753    4.7161 C   0  0  0  0  0  0  0  0  0  0  0  0
   -3.9729    2.0386    1.9893 C   0  0  0  0  0  0  0  0  0  0  0  0
   -5.3881    3.6642    4.8354 C   0  0  0  0  0  0  0  0  0  0  0  0
   -2.6146    3.1143    3.6681 C   0  0  0  0  0  0  0  0  0  0  0  0
    1.9905   -0.9411    4.9032 C   0  0  0  0  0  0  0  0  0  0  0  0
  -11.3164    2.4324    3.7681 C   0  0  0  0  0  0  0  0  0  0  0  0
   -9.2884    3.6339    6.6482 H   0  0  0  0  0  0  0  0  0  0  0  0
    0.8927    1.9348    1.3419 H   0  0  0  0  0  0  0  0  0  0  0  0
    2.8446   -0.3565    2.6878 H   0  0  0  0  0  0  0  0  0  0  0  0
  -12.0486    0.8230    5.6867 H   0  0  0  0  0  0  0  0  0  0  0  0
    3.3008    2.8871   -0.0721 H   0  0  0  0  0  0  0  0  0  0  0  0
  -11.6384    3.5534    7.7884 H   0  0  0  0  0  0  0  0  0  0  0  0
    4.0773   -0.9720    0.6975 H   0  0  0  0  0  0  0  0  0  0  0  0
  -11.3129   -1.0148    7.1131 H   0  0  0  0  0  0  0  0  0  0  0  0
    2.4157    2.4758   -2.9733 H   0  0  0  0  0  0  0  0  0  0  0  0
    3.3260    3.8372   -2.3091 H   0  0  0  0  0  0  0  0  0  0  0  0
  -10.8647    3.4017   10.7676 H   0  0  0  0  0  0  0  0  0  0  0  0
  -11.1120    4.8871    9.8338 H   0  0  0  0  0  0  0  0  0  0  0  0
    3.9918   -0.1705   -2.2218 H   0  0  0  0  0  0  0  0  0  0  0  0
    5.0703    0.4596   -0.9534 H   0  0  0  0  0  0  0  0  0  0  0  0
  -13.4473    1.5988   10.5790 H   0  0  0  0  0  0  0  0  0  0  0  0
  -14.1682    2.3658    9.1601 H   0  0  0  0  0  0  0  0  0  0  0  0
    4.6133    1.7355   -3.4528 H   0  0  0  0  0  0  0  0  0  0  0  0
    5.2859    2.5055   -2.0176 H   0  0  0  0  0  0  0  0  0  0  0  0
  -13.0723    3.8068   11.3564 H   0  0  0  0  0  0  0  0  0  0  0  0
  -13.4802    4.4775    9.7714 H   0  0  0  0  0  0  0  0  0  0  0  0
    1.6514   -2.7573    0.1279 H   0  0  0  0  0  0  0  0  0  0  0  0
   -9.5327    0.9292    8.1862 H   0  0  0  0  0  0  0  0  0  0  0  0
   -7.0507    1.3576    9.2682 H   0  0  0  0  0  0  0  0  0  0  0  0
   -1.5474    4.0609   -1.2927 H   0  0  0  0  0  0  0  0  0  0  0  0
   -6.6540    0.3118    6.0950 H   0  0  0  0  0  0  0  0  0  0  0  0
   -3.0788    1.8635    0.0468 H   0  0  0  0  0  0  0  0  0  0  0  0
   -6.5160    4.6138    6.4056 H   0  0  0  0  0  0  0  0  0  0  0  0
   -0.7450    3.9396    3.0175 H   0  0  0  0  0  0  0  0  0  0  0  0
    4.1142   -2.4248   -1.5746 H   0  0  0  0  0  0  0  0  0  0  0  0
    2.7798   -3.5739   -1.8236 H   0  0  0  0  0  0  0  0  0  0  0  0
    2.4719   -1.8460   -1.9674 H   0  0  0  0  0  0  0  0  0  0  0  0
    3.4662   -3.6955    1.8493 H   0  0  0  0  0  0  0  0  0  0  0  0
    3.2401   -4.6417    0.3972 H   0  0  0  0  0  0  0  0  0  0  0  0
    4.6193   -3.5103    0.5804 H   0  0  0  0  0  0  0  0  0  0  0  0
   -9.6579   -1.6901    9.5607 H   0  0  0  0  0  0  0  0  0  0  0  0
   -8.6946   -0.2985   10.0479 H   0  0  0  0  0  0  0  0  0  0  0  0
  -10.4318   -0.2135   10.2083 H   0  0  0  0  0  0  0  0  0  0  0  0
   -8.4232   -0.3128    6.3837 H   0  0  0  0  0  0  0  0  0  0  0  0
   -7.5614   -0.3500    7.9004 H   0  0  0  0  0  0  0  0  0  0  0  0
   -8.5064   -1.7208    7.2693 H   0  0  0  0  0  0  0  0  0  0  0  0
   -5.1823    0.3277    4.2443 H   0  0  0  0  0  0  0  0  0  0  0  0
   -4.8854    1.5332    1.6837 H   0  0  0  0  0  0  0  0  0  0  0  0
   -5.0649    4.6182    4.4350 H   0  0  0  0  0  0  0  0  0  0  0  0
   -2.4557    3.4066    4.7052 H   0  0  0  0  0  0  0  0  0  0  0  0
    3.0620   -0.7391    4.9229 H   0  0  0  0  0  0  0  0  0  0  0  0
    1.4156   -0.1131    4.4865 H   0  0  0  0  0  0  0  0  0  0  0  0
    1.6446   -1.1394    5.9211 H   0  0  0  0  0  0  0  0  0  0  0  0
  -11.3005    1.3958    3.4226 H   0  0  0  0  0  0  0  0  0  0  0  0
  -12.2621    2.7310    4.2047 H   0  0  0  0  0  0  0  0  0  0  0  0
  -11.0317    3.0937    2.9466 H   0  0  0  0  0  0  0  0  0  0  0  0
  1 19  2  0  0  0  0
  2 20  2  0  0  0  0
  3 37  1  0  0  0  0
  3 53  1  0  0  0  0
  4 38  1  0  0  0  0
  4 54  1  0  0  0  0
  5 37  2  0  0  0  0
  6 38  2  0  0  0  0
  7 15  1  0  0  0  0
  7 19  1  0  0  0  0
  7 25  1  0  0  0  0
  8 16  1  0  0  0  0
  8 20  1  0  0  0  0
  8 26  1  0  0  0  0
  9 17  1  0  0  0  0
  9 27  1  0  0  0  0
  9 55  1  0  0  0  0
 10 18  1  0  0  0  0
 10 28  1  0  0  0  0
 10 56  1  0  0  0  0
 11 17  2  0  0  0  0
 11 33  1  0  0  0  0
 12 18  2  0  0  0  0
 12 34  1  0  0  0  0
 13 21  1  0  0  0  0
 13 37  1  0  0  0  0
 13 57  1  0  0  0  0
 14 22  1  0  0  0  0
 14 38  1  0  0  0  0
 14 58  1  0  0  0  0
 15 23  1  0  0  0  0
 15 59  1  1  0  0  0
 15 18  1  0  0  0  0
 16 17  1  0  0  0  0
 16 24  1  0  0  0  0
 16 60  1  6  0  0  0
 19 21  1  0  0  0  0
 20 22  1  0  0  0  0
 21 31  1  0  0  0  0
 21 61  1  6  0  0  0
 22 32  1  0  0  0  0
 22 62  1  6  0  0  0
 23 29  1  0  0  0  0
 23 63  1  0  0  0  0
 23 64  1  0  0  0  0
 24 30  1  0  0  0  0
 24 65  1  0  0  0  0
 24 66  1  0  0  0  0
 25 29  1  0  0  0  0
 25 67  1  0  0  0  0
 25 68  1  0  0  0  0
 26 30  1  0  0  0  0
 26 69  1  0  0  0  0
 26 70  1  0  0  0  0
 27 33  2  0  0  0  0
 27 35  1  0  0  0  0
 28 34  2  0  0  0  0
 28 36  1  0  0  0  0
 29 71  1  0  0  0  0
 29 72  1  0  0  0  0
 30 73  1  0  0  0  0
 30 74  1  0  0  0  0
 31 45  1  0  0  0  0
 31 46  1  0  0  0  0
 31 75  1  0  0  0  0
 32 47  1  0  0  0  0
 32 48  1  0  0  0  0
 32 76  1  0  0  0  0
 33 77  1  0  0  0  0
 34 78  1  0  0  0  0
 35 41  2  0  0  0  0
 35 43  1  0  0  0  0
 36 42  2  0  0  0  0
 36 44  1  0  0  0  0
 39 40  1  0  0  0  0
 39 49  2  0  0  0  0
 39 51  1  0  0  0  0
 40 50  2  0  0  0  0
 40 52  1  0  0  0  0
 41 49  1  0  0  0  0
 41 79  1  0  0  0  0
 42 50  1  0  0  0  0
 42 80  1  0  0  0  0
 43 51  2  0  0  0  0
 43 81  1  0  0  0  0
 44 52  2  0  0  0  0
 44 82  1  0  0  0  0
 45 83  1  0  0  0  0
 45 84  1  0  0  0  0
 45 85  1  0  0  0  0
 46 86  1  0  0  0  0
 46 87  1  0  0  0  0
 46 88  1  0  0  0  0
 47 89  1  0  0  0  0
 47 90  1  0  0  0  0
 47 91  1  0  0  0  0
 48 92  1  0  0  0  0
 48 93  1  0  0  0  0
 48 94  1  0  0  0  0
 49 95  1  0  0  0  0
 50 96  1  0  0  0  0
 51 97  1  0  0  0  0
 52 98  1  0  0  0  0
 53 99  1  0  0  0  0
 53100  1  0  0  0  0
 53101  1  0  0  0  0
 54102  1  0  0  0  0
 54103  1  0  0  0  0
 54104  1  0  0  0  0
M  END
>  <DRUGBANK_ID>
DB09102

>  <COMMON_NAME>
Daclatasvir

>  <CAS_NUMBER>
1009119-64-5

>  <UNII>
LI2427F9CI

>  <SYNONYMS>
BMS-790052; Daclatasvir

$$$$
