
 OpenBabel10282417213D

 53 57  0  0  1  0  0  0  0  0999 V2000
    1.0007   -0.1255    0.0663 C   0  0  0  0  0  0  0  0  0  0  0  0
    0.5095    0.4051   -1.2898 C   0  0  2  0  0  0  0  0  0  0  0  0
    1.6852    0.6396   -2.2669 C   0  0  0  0  0  0  0  0  0  0  0  0
    2.5546    1.7001   -1.8169 O   0  0  0  0  0  0  0  0  0  0  0  0
    1.8325    2.9422   -1.6775 C   0  0  0  0  0  0  0  0  0  0  0  0
    0.6761    2.8136   -0.6927 C   0  0  0  0  0  0  0  0  0  0  0  0
   -0.1562    1.6907   -1.0782 N   0  0  0  0  0  0  0  0  0  0  0  0
   -1.4640    1.9144   -1.4181 C   0  0  0  0  0  0  0  0  0  0  0  0
   -1.7917    2.8339   -2.3417 N   0  0  0  0  0  0  0  0  0  0  0  0
   -3.1009    3.0669   -2.5073 C   0  0  0  0  0  0  0  0  0  0  0  0
   -3.5721    4.0348   -3.4789 C   0  0  0  0  0  0  0  0  0  0  0  0
   -4.4710    5.0516   -3.1553 C   0  0  0  0  0  0  0  0  0  0  0  0
   -4.8530    6.0598   -3.9800 N   0  0  0  0  0  0  0  0  0  0  0  0
   -4.3579    6.0921   -5.2361 C   0  0  0  0  0  0  0  0  0  0  0  0
   -3.5225    5.0651   -5.6588 C   0  0  0  0  0  0  0  0  0  0  0  0
   -2.8914    4.8602   -6.8648 N   0  0  0  0  0  0  0  0  0  0  0  0
   -2.0617    3.7738   -6.7784 C   0  0  0  0  0  0  0  0  0  0  0  0
   -2.3345    3.1377   -5.5911 C   0  0  0  0  0  0  0  0  0  0  0  0
   -3.1427    4.0172   -4.8161 C   0  0  0  0  0  0  0  0  0  0  0  0
   -4.0500    2.4689   -1.7958 N   0  0  0  0  0  0  0  0  0  0  0  0
   -3.7251    1.5038   -0.9213 C   0  0  0  0  0  0  0  0  0  0  0  0
   -4.8559    0.6939   -0.3563 C   0  0  0  0  0  0  0  0  0  0  0  0
   -6.2672    0.6792   -1.5486 S   0  0  1  0  0  0  0  0  0  0  0  0
   -6.7612    2.0586   -1.5814 O   0  0  0  0  0  0  0  0  0  0  0  0
   -5.7073   -0.0571   -2.7835 N   0  0  0  0  0  0  0  0  0  0  0  0
   -7.6547   -0.2197   -1.0032 C   0  0  0  0  0  0  0  0  0  0  0  0
   -5.2098    0.6517    1.1088 C   0  0  0  0  0  0  0  0  0  0  0  0
   -4.5529   -0.5420    0.4740 C   0  0  0  0  0  0  0  0  0  0  0  0
   -2.4065    1.2171   -0.7034 C   0  0  0  0  0  0  0  0  0  0  0  0
    0.6650   -1.1558    0.2192 H   0  0  0  0  0  0  0  0  0  0  0  0
    0.6161    0.4587    0.9102 H   0  0  0  0  0  0  0  0  0  0  0  0
    2.0935   -0.1243    0.1309 H   0  0  0  0  0  0  0  0  0  0  0  0
   -0.1724   -0.3357   -1.7310 H   0  0  0  0  0  0  0  0  0  0  0  0
    2.2889   -0.2704   -2.3544 H   0  0  0  0  0  0  0  0  0  0  0  0
    1.3164    0.8898   -3.2693 H   0  0  0  0  0  0  0  0  0  0  0  0
    2.5334    3.6919   -1.3004 H   0  0  0  0  0  0  0  0  0  0  0  0
    1.4737    3.2630   -2.6610 H   0  0  0  0  0  0  0  0  0  0  0  0
    1.0758    2.5936    0.3048 H   0  0  0  0  0  0  0  0  0  0  0  0
    0.1089    3.7459   -0.5969 H   0  0  0  0  0  0  0  0  0  0  0  0
   -4.9088    5.0974   -2.1591 H   0  0  0  0  0  0  0  0  0  0  0  0
   -4.6355    6.9385   -5.8522 H   0  0  0  0  0  0  0  0  0  0  0  0
   -2.9814    5.4602   -7.6734 H   0  0  0  0  0  0  0  0  0  0  0  0
   -1.3675    3.5323   -7.5710 H   0  0  0  0  0  0  0  0  0  0  0  0
   -1.9189    2.1942   -5.2609 H   0  0  0  0  0  0  0  0  0  0  0  0
   -4.9638    0.5174   -3.2001 H   0  0  0  0  0  0  0  0  0  0  0  0
   -7.4135   -1.2714   -0.8826 H   0  0  0  0  0  0  0  0  0  0  0  0
   -8.0450    0.2372   -0.0950 H   0  0  0  0  0  0  0  0  0  0  0  0
   -8.4079   -0.0978   -1.7942 H   0  0  0  0  0  0  0  0  0  0  0  0
   -4.6207    1.2706    1.7816 H   0  0  0  0  0  0  0  0  0  0  0  0
   -6.2142    0.4786    1.4705 H   0  0  0  0  0  0  0  0  0  0  0  0
   -5.1100   -1.4611    0.3737 H   0  0  0  0  0  0  0  0  0  0  0  0
   -3.5339   -0.7443    0.8046 H   0  0  0  0  0  0  0  0  0  0  0  0
   -2.0792    0.4920    0.0253 H   0  0  0  0  0  0  0  0  0  0  0  0
  1 30  1  0  0  0  0
  1 31  1  0  0  0  0
  1 32  1  0  0  0  0
  2  1  1  0  0  0  0
  2  3  1  0  0  0  0
  2  7  1  0  0  0  0
  2 33  1  6  0  0  0
  3  4  1  0  0  0  0
  3 34  1  0  0  0  0
  3 35  1  0  0  0  0
  4  5  1  0  0  0  0
  5  6  1  0  0  0  0
  5 36  1  0  0  0  0
  5 37  1  0  0  0  0
  6  7  1  0  0  0  0
  6 38  1  0  0  0  0
  6 39  1  0  0  0  0
  7  8  1  0  0  0  0
  8  9  2  0  0  0  0
  8 29  1  0  0  0  0
  9 10  1  0  0  0  0
 10 11  1  0  0  0  0
 10 20  2  0  0  0  0
 11 12  2  0  0  0  0
 11 19  1  0  0  0  0
 12 13  1  0  0  0  0
 12 40  1  0  0  0  0
 13 14  2  0  0  0  0
 14 15  1  0  0  0  0
 14 41  1  0  0  0  0
 15 16  1  0  0  0  0
 15 19  2  0  0  0  0
 16 42  1  0  0  0  0
 17 16  1  0  0  0  0
 17 43  1  0  0  0  0
 18 17  2  0  0  0  0
 18 44  1  0  0  0  0
 19 18  1  0  0  0  0
 20 21  1  0  0  0  0
 21 22  1  0  0  0  0
 21 29  2  0  0  0  0
 22 23  1  0  0  0  0
 22 27  1  0  0  0  0
 22 28  1  0  0  0  0
 23 24  2  6  0  0  0
 23 25  2  0  0  0  0
 23 26  1  0  0  0  0
 25 45  1  0  0  0  0
 26 46  1  0  0  0  0
 26 47  1  0  0  0  0
 26 48  1  0  0  0  0
 27 28  1  0  0  0  0
 27 49  1  0  0  0  0
 27 50  1  0  0  0  0
 28 51  1  0  0  0  0
 28 52  1  0  0  0  0
 29 53  1  0  0  0  0
M  END
>  <DRUGBANK_ID>
DB14917

>  <COMMON_NAME>
Ceralasertib

>  <CAS_NUMBER>
1352226-88-0

>  <UNII>
85RE35306Z

>  <SYNONYMS>
Ceralasertib

$$$$
