
 OpenBabel10282417113D

 30 30  0  0  0  0  0  0  0  0999 V2000
    1.3335   -0.1968    0.0784 C   0  0  0  0  0  0  0  0  0  0  0  0
    2.8295   -0.3895    0.1616 C   0  0  0  0  0  0  0  0  0  0  0  0
    0.4701   -1.2965    0.0097 C   0  0  0  0  0  0  0  0  0  0  0  0
    0.7827    1.0916    0.1234 C   0  0  0  0  0  0  0  0  0  0  0  0
    3.6015    0.1854   -1.0334 C   0  0  0  0  0  0  0  0  0  0  0  0
   -0.9119   -1.1016   -0.0297 C   0  0  0  0  0  0  0  0  0  0  0  0
   -0.5927    1.2867    0.0714 C   0  0  0  0  0  0  0  0  0  0  0  0
    3.5046    1.6520   -1.1094 N   0  0  0  0  0  0  0  0  0  0  0  0
   -1.4409    0.1889   -0.0125 C   0  0  0  0  0  0  0  0  0  0  0  0
    4.6083    2.4456   -1.0269 C   0  0  0  0  0  0  0  0  0  0  0  0
    4.4393    3.8103   -1.1124 N   0  0  0  0  0  0  0  0  0  0  0  0
    5.7677    1.9013   -0.8415 N   0  0  0  0  0  0  0  0  0  0  0  0
    5.4197    4.7680   -1.0320 C   0  0  0  0  0  0  0  0  0  0  0  0
    5.0710    6.0688   -1.1172 N   0  0  0  0  0  0  0  0  0  0  0  0
    6.6618    4.4490   -0.8836 N   0  0  0  0  0  0  0  0  0  0  0  0
    3.1879    0.0467    1.1025 H   0  0  0  0  0  0  0  0  0  0  0  0
    3.0515   -1.4643    0.2264 H   0  0  0  0  0  0  0  0  0  0  0  0
    0.8626   -2.3114    0.0049 H   0  0  0  0  0  0  0  0  0  0  0  0
    1.4242    1.9622    0.2213 H   0  0  0  0  0  0  0  0  0  0  0  0
    4.6417   -0.1480   -0.9331 H   0  0  0  0  0  0  0  0  0  0  0  0
    3.2331   -0.2519   -1.9685 H   0  0  0  0  0  0  0  0  0  0  0  0
   -1.5788   -1.9590   -0.0581 H   0  0  0  0  0  0  0  0  0  0  0  0
   -0.9941    2.2943    0.1224 H   0  0  0  0  0  0  0  0  0  0  0  0
    2.6612    1.9909   -1.5474 H   0  0  0  0  0  0  0  0  0  0  0  0
   -2.5155    0.3401   -0.0458 H   0  0  0  0  0  0  0  0  0  0  0  0
    3.4929    4.1379   -1.1886 H   0  0  0  0  0  0  0  0  0  0  0  0
    6.4336    2.7009   -0.8035 H   0  0  0  0  0  0  0  0  0  0  0  0
    5.7998    6.7706   -1.0692 H   0  0  0  0  0  0  0  0  0  0  0  0
    4.1328    6.4147   -1.2312 H   0  0  0  0  0  0  0  0  0  0  0  0
    7.2548    5.2761   -0.8471 H   0  0  0  0  0  0  0  0  0  0  0  0
  1  2  1  0  0  0  0
  1  3  2  0  0  0  0
  1  4  1  0  0  0  0
  2  5  1  0  0  0  0
  2 16  1  0  0  0  0
  2 17  1  0  0  0  0
  3  6  1  0  0  0  0
  3 18  1  0  0  0  0
  4  7  2  0  0  0  0
  4 19  1  0  0  0  0
  5  8  1  0  0  0  0
  5 20  1  0  0  0  0
  5 21  1  0  0  0  0
  6  9  2  0  0  0  0
  6 22  1  0  0  0  0
  7  9  1  0  0  0  0
  7 23  1  0  0  0  0
  8 10  1  0  0  0  0
  8 24  1  0  0  0  0
  9 25  1  0  0  0  0
 10 11  1  0  0  0  0
 10 12  2  0  0  0  0
 11 13  1  0  0  0  0
 11 26  1  0  0  0  0
 12 27  1  0  0  0  0
 13 14  1  0  0  0  0
 13 15  2  0  0  0  0
 14 28  1  0  0  0  0
 14 29  1  0  0  0  0
 15 30  1  0  0  0  0
M  END
>  <DRUGBANK_ID>
DB00914

>  <SECONDARY_ACCESSION_NUMBERS>
APRD00511

>  <COMMON_NAME>
Phenformin

>  <CAS_NUMBER>
114-86-3

>  <UNII>
DD5K7529CE

>  <SYNONYMS>
Fenformin; Fenformina; Phenformin; Phenformine; Phenforminum; Î²-Phenethybiguanide

$$$$
