
 OpenBabel10282417123D

 34 36  0  0  1  0  0  0  0  0999 V2000
    1.0656    0.1139    0.0334 C   0  0  0  0  0  0  0  0  0  0  0  0
   -2.1667    6.1324    3.1312 C   0  0  0  0  0  0  0  0  0  0  0  0
    0.4526    1.2500   -0.8049 C   0  0  2  0  0  0  0  0  0  0  0  0
   -2.6743    3.5925    3.4731 C   0  0  0  0  0  0  0  0  0  0  0  0
    1.2335    2.5556   -0.7310 C   0  0  2  0  0  0  0  0  0  0  0  0
    0.5073    3.3630    0.3417 C   0  0  2  0  0  0  0  0  0  0  0  0
   -2.8376    2.1270    3.4408 C   0  0  1  0  0  0  0  0  0  0  0  0
   -3.0732    4.4947    4.4358 C   0  0  0  0  0  0  0  0  0  0  0  0
   -1.9995    4.0188    2.3389 C   0  0  0  0  0  0  0  0  0  0  0  0
   -0.9512    2.8834    0.2547 C   0  0  2  0  0  0  0  0  0  0  0  0
   -4.9004    1.6073    3.3116 I   0  0  0  0  0  0  0  0  0  0  0  0
   -3.5965    4.0617    5.6501 N   0  0  0  0  0  0  0  0  0  0  0  0
   -2.8242    5.7902    4.2672 N   0  0  0  0  0  0  0  0  0  0  0  0
   -1.7427    5.3066    2.1364 N   0  0  0  0  0  0  0  0  0  0  0  0
   -2.1787    1.6712    2.1874 N   0  0  0  0  0  0  0  0  0  0  0  0
   -1.6708    2.8813    1.5524 N   0  0  0  0  0  0  0  0  0  0  0  0
    0.6080   -1.1638   -0.4255 O   0  0  0  0  0  0  0  0  0  0  0  0
    1.1964    3.2415   -1.9995 O   0  0  0  0  0  0  0  0  0  0  0  0
    0.6703    4.7634    0.1098 O   0  0  0  0  0  0  0  0  0  0  0  0
   -0.8929    1.5457   -0.3363 O   0  0  0  0  0  0  0  0  0  0  0  0
    0.3699    0.9083   -1.8458 H   0  0  0  0  0  0  0  0  0  0  0  0
    2.2962    2.4131   -0.5046 H   0  0  0  0  0  0  0  0  0  0  0  0
    0.9294    3.1220    1.3222 H   0  0  0  0  0  0  0  0  0  0  0  0
   -2.3529    1.6781    4.3131 H   0  0  0  0  0  0  0  0  0  0  0  0
   -1.5142    3.4904   -0.4639 H   0  0  0  0  0  0  0  0  0  0  0  0
    0.7694    0.1976    1.0817 H   0  0  0  0  0  0  0  0  0  0  0  0
    2.1596    0.0954   -0.0280 H   0  0  0  0  0  0  0  0  0  0  0  0
   -1.9480    7.1901    3.0229 H   0  0  0  0  0  0  0  0  0  0  0  0
   -4.1860    3.2395    5.6180 H   0  0  0  0  0  0  0  0  0  0  0  0
   -3.9971    4.8282    6.1863 H   0  0  0  0  0  0  0  0  0  0  0  0
   -2.9085    1.2640    1.5966 H   0  0  0  0  0  0  0  0  0  0  0  0
    0.9157   -1.2897   -1.3402 H   0  0  0  0  0  0  0  0  0  0  0  0
    0.2849    3.2599   -2.3366 H   0  0  0  0  0  0  0  0  0  0  0  0
    0.4566    4.9340   -0.8263 H   0  0  0  0  0  0  0  0  0  0  0  0
  1 26  1  0  0  0  0
  1 27  1  0  0  0  0
  2 28  1  0  0  0  0
  3  1  1  0  0  0  0
  3 21  1  6  0  0  0
  5  3  1  0  0  0  0
  5 18  1  0  0  0  0
  5 22  1  1  0  0  0
  6  5  1  0  0  0  0
  6 19  1  0  0  0  0
  6 23  1  1  0  0  0
  7  4  1  0  0  0  0
  7 24  1  1  0  0  0
  7 11  1  0  0  0  0
  8  4  2  0  0  0  0
  9  4  1  0  0  0  0
 10  6  1  0  0  0  0
 10 25  1  6  0  0  0
 10 16  1  0  0  0  0
 12  8  1  0  0  0  0
 12 29  1  0  0  0  0
 12 30  1  0  0  0  0
 13  2  2  0  0  0  0
 13  8  1  0  0  0  0
 14  2  1  0  0  0  0
 14  9  2  0  0  0  0
 15  7  1  0  0  0  0
 15 31  1  0  0  0  0
 16  9  1  0  0  0  0
 16 15  1  0  0  0  0
 17  1  1  0  0  0  0
 17 32  1  0  0  0  0
 18 33  1  0  0  0  0
 19 34  1  0  0  0  0
 20  3  1  0  0  0  0
 20 10  1  0  0  0  0
M  END
>  <DRUGBANK_ID>
DB02416

>  <SECONDARY_ACCESSION_NUMBERS>
EXPT02813

>  <COMMON_NAME>
2-Ribofuranosyl-3-Iodo-2,3-Dihydro-1h-Pyrazolo[3,4-D]Pyrimidin-4-Ylamine

$$$$
