
 OpenBabel10282417123D

 18 18  0  0  0  0  0  0  0  0999 V2000
    2.3040    0.0010    0.0040 N   0  0  0  0  0  0  0  0  0  0  0  0
    0.9560   -0.0010    0.0020 C   0  0  0  0  0  0  0  0  0  0  0  0
    0.2380    1.2040   -0.0120 C   0  0  0  0  0  0  0  0  0  0  0  0
   -1.1400    1.2110    0.0070 C   0  0  0  0  0  0  0  0  0  0  0  0
   -1.8370   -0.0000    0.0040 C   0  0  0  0  0  0  0  0  0  0  0  0
   -1.1430   -1.2080   -0.0050 C   0  0  0  0  0  0  0  0  0  0  0  0
    0.2400   -1.2070   -0.0000 C   0  0  0  0  0  0  0  0  0  0  0  0
   -1.9440   -2.5930   -0.0211 B   0  0  0  0  0  0  0  0  0  0  0  0
   -1.1949   -3.8925   -0.0308 O   0  0  0  0  0  0  0  0  0  0  0  0
   -3.4439   -2.5919   -0.0265 O   0  0  0  0  0  0  0  0  0  0  0  0
    2.8153   -0.8816    0.0041 H   0  0  0  0  0  0  0  0  0  0  0  0
    2.8127    0.8851    0.0054 H   0  0  0  0  0  0  0  0  0  0  0  0
    0.7688    2.1327   -0.0378 H   0  0  0  0  0  0  0  0  0  0  0  0
   -1.6731    2.1386    0.0240 H   0  0  0  0  0  0  0  0  0  0  0  0
   -2.9070    0.0004    0.0086 H   0  0  0  0  0  0  0  0  0  0  0  0
    0.7697   -2.1367    0.0024 H   0  0  0  0  0  0  0  0  0  0  0  0
   -0.2116   -3.7105   -0.0255 H   0  0  0  0  0  0  0  0  0  0  0  0
   -3.7779   -3.5344   -0.0367 H   0  0  0  0  0  0  0  0  0  0  0  0
  1  2  1  0  0  0  0
  1 11  1  0  0  0  0
  1 12  1  0  0  0  0
  2  3  2  0  0  0  0
  2  7  1  0  0  0  0
  3  4  1  0  0  0  0
  3 13  1  0  0  0  0
  4  5  2  0  0  0  0
  4 14  1  0  0  0  0
  5  6  1  0  0  0  0
  5 15  1  0  0  0  0
  6  7  2  0  0  0  0
  6  8  1  0  0  0  0
  7 16  1  0  0  0  0
  8  9  1  0  0  0  0
  8 10  1  0  0  0  0
  9 17  1  0  0  0  0
 10 18  1  0  0  0  0
M  END
>  <DRUGBANK_ID>
DB01896

>  <SECONDARY_ACCESSION_NUMBERS>
EXPT00538

>  <COMMON_NAME>
M-Aminophenylboronic Acid

>  <UNII>
44U8ADR772

$$$$
