
 OpenBabel10282417193D

 65 67  0  0  1  0  0  0  0  0999 V2000
   11.6365    7.1537    4.4560 C   0  0  0  0  0  0  0  0  0  0  0  0
    9.6885   10.0272   -1.1471 C   0  0  0  0  0  0  0  0  0  0  0  0
   11.1847    8.4817   -2.4572 C   0  0  0  0  0  0  0  0  0  0  0  0
    5.9303    4.2218   -2.1341 C   0  0  0  0  0  0  0  0  0  0  0  0
    3.9544    5.2519   -1.0886 C   0  0  0  0  0  0  0  0  0  0  0  0
   12.2731    6.9309    3.1142 C   0  0  0  0  0  0  0  0  0  0  0  0
   11.1706    6.8641    2.1156 C   0  0  0  0  0  0  0  0  0  0  0  0
   10.2688    8.0814    1.9701 C   0  0  0  0  0  0  0  0  0  0  0  0
   11.0804    9.2251    1.4052 C   0  0  0  0  0  0  0  0  0  0  0  0
    6.0351    3.2687    2.7616 C   0  0  0  0  0  0  0  0  0  0  0  0
    5.1836    4.2614    1.9833 C   0  0  0  0  0  0  0  0  0  0  0  0
   11.6125    8.9256   -0.0111 C   0  0  0  0  0  0  0  0  0  0  0  0
    8.0893    3.0126    1.6681 C   0  0  0  0  0  0  0  0  0  0  0  0
   10.2496    6.2514   -0.6147 C   0  0  0  0  0  0  0  0  0  0  0  0
    8.2162    7.4075   -1.0938 C   0  0  0  0  0  0  0  0  0  0  0  0
    7.2313    3.7748    2.5440 C   0  0  0  0  0  0  0  0  0  0  0  0
    9.6123    7.4558   -0.9479 C   0  0  0  0  0  0  0  0  0  0  0  0
    7.4451    3.7725    0.3401 C   0  0  2  0  0  0  0  0  0  0  0  0
    5.7839    4.1044    0.4174 C   0  0  2  0  0  0  0  0  0  0  0  0
    9.5532    5.1186   -0.2076 C   0  0  0  0  0  0  0  0  0  0  0  0
    7.5018    6.2186   -0.7529 C   0  0  0  0  0  0  0  0  0  0  0  0
    8.1678    5.0584   -0.2439 C   0  0  0  0  0  0  0  0  0  0  0  0
    7.8400    5.1169    2.6364 C   0  0  0  0  0  0  0  0  0  0  0  0
   10.4933    8.7165   -1.1077 C   0  0  0  0  0  0  0  0  0  0  0  0
    5.4626    5.0220   -0.8674 C   0  0  0  0  0  0  0  0  0  0  0  0
   10.2205    4.1082    0.4355 O   0  0  0  0  0  0  0  0  0  0  0  0
    7.4798    6.2127    2.2074 O   0  0  0  0  0  0  0  0  0  0  0  0
    9.1120    4.8312    2.9415 O   0  0  0  0  0  0  0  0  0  0  0  0
    6.1294    6.2959   -0.8793 O   0  0  0  0  0  0  0  0  0  0  0  0
    7.5473    3.0168   -0.4551 H   0  0  0  0  0  0  0  0  0  0  0  0
    5.2168    3.2088    0.1403 H   0  0  0  0  0  0  0  0  0  0  0  0
   11.0426    8.0705    4.4582 H   0  0  0  0  0  0  0  0  0  0  0  0
   12.4049    7.2393    5.2140 H   0  0  0  0  0  0  0  0  0  0  0  0
   10.9580    6.3227    4.6874 H   0  0  0  0  0  0  0  0  0  0  0  0
   10.3446   10.8823   -1.3508 H   0  0  0  0  0  0  0  0  0  0  0  0
    8.9189   10.0102   -1.9182 H   0  0  0  0  0  0  0  0  0  0  0  0
    9.1805   10.2182   -0.1946 H   0  0  0  0  0  0  0  0  0  0  0  0
   11.8031    7.5741   -2.4310 H   0  0  0  0  0  0  0  0  0  0  0  0
   10.4318    8.3347   -3.2393 H   0  0  0  0  0  0  0  0  0  0  0  0
   11.8321    9.3139   -2.7371 H   0  0  0  0  0  0  0  0  0  0  0  0
    5.5054    3.2158   -2.1023 H   0  0  0  0  0  0  0  0  0  0  0  0
    5.6751    4.7081   -3.0801 H   0  0  0  0  0  0  0  0  0  0  0  0
    7.0150    4.0998   -2.1946 H   0  0  0  0  0  0  0  0  0  0  0  0
    3.5075    5.9063   -0.3366 H   0  0  0  0  0  0  0  0  0  0  0  0
    3.7482    5.7147   -2.0688 H   0  0  0  0  0  0  0  0  0  0  0  0
    3.4314    4.2902   -1.0820 H   0  0  0  0  0  0  0  0  0  0  0  0
   12.9764    7.7093    2.8179 H   0  0  0  0  0  0  0  0  0  0  0  0
   12.8101    5.9737    3.0832 H   0  0  0  0  0  0  0  0  0  0  0  0
   11.6828    6.5439    1.2241 H   0  0  0  0  0  0  0  0  0  0  0  0
   10.5569    6.0641    2.4255 H   0  0  0  0  0  0  0  0  0  0  0  0
    9.3904    7.8812    1.3559 H   0  0  0  0  0  0  0  0  0  0  0  0
    9.7891    8.3470    2.9151 H   0  0  0  0  0  0  0  0  0  0  0  0
   10.4829   10.1374    1.4201 H   0  0  0  0  0  0  0  0  0  0  0  0
   11.9196    9.4276    2.0789 H   0  0  0  0  0  0  0  0  0  0  0  0
    6.2202    2.1915    3.0164 H   0  0  0  0  0  0  0  0  0  0  0  0
    4.9964    4.8479    2.9292 H   0  0  0  0  0  0  0  0  0  0  0  0
    5.5692    5.2894    1.8560 H   0  0  0  0  0  0  0  0  0  0  0  0
   12.2582    9.7692   -0.2940 H   0  0  0  0  0  0  0  0  0  0  0  0
   12.3116    8.0798    0.0135 H   0  0  0  0  0  0  0  0  0  0  0  0
    8.6040    2.0573    1.5624 H   0  0  0  0  0  0  0  0  0  0  0  0
    8.4092    2.9571    2.7644 H   0  0  0  0  0  0  0  0  0  0  0  0
   11.3307    6.2404   -0.5573 H   0  0  0  0  0  0  0  0  0  0  0  0
    7.6742    8.2879   -1.4470 H   0  0  0  0  0  0  0  0  0  0  0  0
   11.0414    4.4280    0.8537 H   0  0  0  0  0  0  0  0  0  0  0  0
    9.5360    4.7832    2.0531 H   0  0  0  0  0  0  0  0  0  0  0  0
  1 32  1  0  0  0  0
  1 33  1  0  0  0  0
  1 34  1  0  0  0  0
  2 35  1  0  0  0  0
  2 36  1  0  0  0  0
  2 37  1  0  0  0  0
  3 38  1  0  0  0  0
  3 39  1  0  0  0  0
  3 40  1  0  0  0  0
  4 41  1  0  0  0  0
  4 42  1  0  0  0  0
  4 43  1  0  0  0  0
  5 44  1  0  0  0  0
  5 45  1  0  0  0  0
  5 46  1  0  0  0  0
  6  1  1  0  0  0  0
  6 47  1  0  0  0  0
  6 48  1  0  0  0  0
  7  6  1  0  0  0  0
  7 49  1  0  0  0  0
  7 50  1  0  0  0  0
  8  7  1  0  0  0  0
  8 51  1  0  0  0  0
  8 52  1  0  0  0  0
  9  8  1  0  0  0  0
  9 53  1  0  0  0  0
  9 54  1  0  0  0  0
 10 55  1  0  0  0  0
 11 10  1  0  0  0  0
 11 56  1  0  0  0  0
 11 57  1  0  0  0  0
 12  9  1  0  0  0  0
 12 58  1  0  0  0  0
 12 59  1  0  0  0  0
 13 60  1  0  0  0  0
 13 61  1  0  0  0  0
 14 62  1  0  0  0  0
 15 63  1  0  0  0  0
 16 10  2  0  0  0  0
 16 13  1  0  0  0  0
 17 14  2  0  0  0  0
 17 15  1  0  0  0  0
 18 13  1  0  0  0  0
 18 30  1  1  0  0  0
 19 11  1  0  0  0  0
 19 18  1  0  0  0  0
 19 31  1  6  0  0  0
 20 14  1  0  0  0  0
 21 15  2  0  0  0  0
 22 18  1  0  0  0  0
 22 20  2  0  0  0  0
 22 21  1  0  0  0  0
 23 16  1  0  0  0  0
 24  2  1  0  0  0  0
 24  3  1  0  0  0  0
 24 12  1  0  0  0  0
 24 17  1  0  0  0  0
 25  4  1  0  0  0  0
 25  5  1  0  0  0  0
 25 19  1  0  0  0  0
 26 20  1  0  0  0  0
 26 64  1  0  0  0  0
 27 23  2  0  0  0  0
 28 23  1  0  0  0  0
 28 65  1  0  0  0  0
 29 21  1  0  0  0  0
 29 25  1  0  0  0  0
M  END
>  <DRUGBANK_ID>
DB12193

>  <COMMON_NAME>
Lenabasum

>  <CAS_NUMBER>
137945-48-3

>  <UNII>
OGN7X90BT8

>  <SYNONYMS>
(6aR,10aR)-1-hydroxy-6,6-dimethyl-3-(2-methyloctan-2-yl)-6a,7,10,10a-tetrahydrobenzo[c]chromene-9-carboxylic acid; Ajulemic acid; Anabasum; JBT-101; Lenabasum

$$$$
