
 OpenBabel10282417203D

 58 66  0  0  0  0  0  0  0  0999 V2000
   -2.7720    9.3837   -8.0142 C   0  0  0  0  0  0  0  0  0  0  0  0
   -2.0123   10.3202   -8.6754 C   0  0  0  0  0  0  0  0  0  0  0  0
   -6.5287    7.9866   -2.2576 C   0  0  0  0  0  0  0  0  0  0  0  0
   -6.7943    6.7191   -2.8100 C   0  0  0  0  0  0  0  0  0  0  0  0
    1.9138    3.3339  -10.9665 C   0  0  0  0  0  0  0  0  0  0  0  0
    0.8225    4.0224  -10.6286 C   0  0  0  0  0  0  0  0  0  0  0  0
   -2.5798    3.7517   -9.3332 C   0  0  0  0  0  0  0  0  0  0  0  0
   -1.4390    2.8963   -9.3192 C   0  0  0  0  0  0  0  0  0  0  0  0
   -2.5948    9.3019   -6.6530 C   0  0  0  0  0  0  0  0  0  0  0  0
   -0.7814   10.6707   -8.0883 C   0  0  0  0  0  0  0  0  0  0  0  0
   -5.2851    8.6448   -2.4705 C   0  0  0  0  0  0  0  0  0  0  0  0
   -5.8266    6.0864   -3.5852 C   0  0  0  0  0  0  0  0  0  0  0  0
    2.9621    3.7079  -10.1024 C   0  0  0  0  0  0  0  0  0  0  0  0
    0.8098    4.6050   -9.3307 C   0  0  0  0  0  0  0  0  0  0  0  0
   -3.0454    4.3925   -8.1816 C   0  0  0  0  0  0  0  0  0  0  0  0
   -0.5609    2.6869   -8.1982 C   0  0  0  0  0  0  0  0  0  0  0  0
   -1.4000    9.7974   -6.1103 C   0  0  0  0  0  0  0  0  0  0  0  0
   -0.3173    9.9078   -6.9938 C   0  0  0  0  0  0  0  0  0  0  0  0
   -4.3069    8.0047   -3.2227 C   0  0  0  0  0  0  0  0  0  0  0  0
   -4.6125    6.7465   -3.7586 C   0  0  0  0  0  0  0  0  0  0  0  0
    2.9382    4.7676   -8.8948 C   0  0  0  0  0  0  0  0  0  0  0  0
    1.7871    4.2752   -8.4057 C   0  0  0  0  0  0  0  0  0  0  0  0
   -2.1101    4.3438   -7.1529 C   0  0  0  0  0  0  0  0  0  0  0  0
   -0.9301    3.5611   -7.1732 C   0  0  0  0  0  0  0  0  0  0  0  0
   -0.9506    9.3425   -4.8005 C   0  0  0  0  0  0  0  0  0  0  0  0
    0.6299    8.4264   -6.4963 C   0  0  0  0  0  0  0  0  0  0  0  0
   -2.9064    8.2681   -3.7090 C   0  0  0  0  0  0  0  0  0  0  0  0
    2.5658    6.0418   -7.6044 C   0  0  0  0  0  0  0  0  0  0  0  0
   -3.4393    6.3042   -4.5023 C   0  0  0  0  0  0  0  0  0  0  0  0
    1.9640    4.3271   -6.9253 C   0  0  0  0  0  0  0  0  0  0  0  0
   -2.2407    4.8848   -5.8939 C   0  0  0  0  0  0  0  0  0  0  0  0
   -0.1209    4.0336   -6.1620 C   0  0  0  0  0  0  0  0  0  0  0  0
    0.2187    8.6996   -4.9594 N   0  0  0  0  0  0  0  0  0  0  0  0
   -2.4612    7.2346   -4.3745 N   0  0  0  0  0  0  0  0  0  0  0  0
    2.9376    5.2743   -6.6558 N   0  0  0  0  0  0  0  0  0  0  0  0
   -0.9720    4.7702   -5.3322 N   0  0  0  0  0  0  0  0  0  0  0  0
   -2.0342    9.3667   -3.7302 N   0  0  0  0  0  0  0  0  0  0  0  0
    1.5631    7.3415   -6.8500 N   0  0  0  0  0  0  0  0  0  0  0  0
   -3.3694    5.2456   -5.2140 N   0  0  0  0  0  0  0  0  0  0  0  0
    1.1919    4.0196   -5.9037 N   0  0  0  0  0  0  0  0  0  0  0  0
   -3.3623    8.6522   -8.5512 H   0  0  0  0  0  0  0  0  0  0  0  0
   -2.2614   10.6618   -9.6711 H   0  0  0  0  0  0  0  0  0  0  0  0
   -7.3100    8.4541   -1.6526 H   0  0  0  0  0  0  0  0  0  0  0  0
   -7.7515    6.2264   -2.6317 H   0  0  0  0  0  0  0  0  0  0  0  0
    1.8886    2.6672  -11.8543 H   0  0  0  0  0  0  0  0  0  0  0  0
   -0.0453    3.9578  -11.2744 H   0  0  0  0  0  0  0  0  0  0  0  0
   -3.1079    3.8865  -10.2786 H   0  0  0  0  0  0  0  0  0  0  0  0
   -1.1749    2.5487  -10.3198 H   0  0  0  0  0  0  0  0  0  0  0  0
   -3.1958    8.5679   -6.1254 H   0  0  0  0  0  0  0  0  0  0  0  0
   -0.8263   11.8176   -8.0301 H   0  0  0  0  0  0  0  0  0  0  0  0
   -5.1338    9.6230   -2.0315 H   0  0  0  0  0  0  0  0  0  0  0  0
   -6.0159    5.1091   -4.0228 H   0  0  0  0  0  0  0  0  0  0  0  0
    3.8296    3.0327  -10.3836 H   0  0  0  0  0  0  0  0  0  0  0  0
   -0.0623    5.1025   -8.9521 H   0  0  0  0  0  0  0  0  0  0  0  0
   -4.0128    4.8529   -8.1346 H   0  0  0  0  0  0  0  0  0  0  0  0
    0.4296    2.2248   -8.2478 H   0  0  0  0  0  0  0  0  0  0  0  0
   -0.7104    5.1032   -4.4149 H   0  0  0  0  0  0  0  0  0  0  0  0
   -1.9494    9.8310   -2.8148 H   0  0  0  0  0  0  0  0  0  0  0  0
  1 41  1  0  0  0  0
  2  1  2  0  0  0  0
  2 42  1  0  0  0  0
  3 43  1  0  0  0  0
  4  3  2  0  0  0  0
  4 44  1  0  0  0  0
  5 45  1  0  0  0  0
  6  5  2  0  0  0  0
  6 46  1  0  0  0  0
  7 47  1  0  0  0  0
  8  7  1  0  0  0  0
  8 48  1  0  0  0  0
  9  1  1  0  0  0  0
  9 49  1  0  0  0  0
 10  2  1  0  0  0  0
 10 50  1  0  0  0  0
 11  3  1  0  0  0  0
 11 51  1  0  0  0  0
 12  4  1  0  0  0  0
 12 52  1  0  0  0  0
 13  5  1  0  0  0  0
 13 53  1  0  0  0  0
 14  6  1  0  0  0  0
 14 54  1  0  0  0  0
 15  7  2  0  0  0  0
 15 55  1  0  0  0  0
 16  8  2  0  0  0  0
 16 56  1  0  0  0  0
 17  9  2  0  0  0  0
 18 10  2  0  0  0  0
 18 17  1  0  0  0  0
 19 11  2  0  0  0  0
 20 12  2  0  0  0  0
 20 19  1  0  0  0  0
 21 13  2  0  0  0  0
 22 14  2  0  0  0  0
 22 21  1  0  0  0  0
 23 15  1  0  0  0  0
 24 16  1  0  0  0  0
 24 23  1  0  0  0  0
 25 17  1  0  0  0  0
 26 18  1  0  0  0  0
 27 19  1  0  0  0  0
 28 21  1  0  0  0  0
 29 20  1  0  0  0  0
 30 22  1  0  0  0  0
 31 23  2  0  0  0  0
 32 24  2  0  0  0  0
 33 25  2  0  0  0  0
 33 26  1  0  0  0  0
 34 27  2  0  0  0  0
 34 29  1  0  0  0  0
 35 28  2  0  0  0  0
 35 30  1  0  0  0  0
 36 31  1  0  0  0  0
 36 32  1  0  0  0  0
 36 57  1  0  0  0  0
 37 25  1  0  0  0  0
 37 27  1  0  0  0  0
 37 58  1  0  0  0  0
 38 26  2  0  0  0  0
 38 28  1  0  0  0  0
 39 29  2  0  0  0  0
 39 31  1  0  0  0  0
 40 30  2  0  0  0  0
 40 32  1  0  0  0  0
M  END
>  <DRUGBANK_ID>
DB12983

>  <COMMON_NAME>
Phthalocyanine

>  <CAS_NUMBER>
574-93-6

>  <UNII>
V5PUF4VLGY

>  <SYNONYMS>
ftalocianina; Pigment blue 16

$$$$
