
 OpenBabel10282417213D

 65 68  0  0  1  0  0  0  0  0999 V2000
    0.9381   -0.2000   -0.6728 C   0  0  0  0  0  0  0  0  0  0  0  0
    0.5743   -1.5629   -1.1669 C   0  0  1  0  0  0  0  0  0  0  0  0
    1.0604   -2.4863   -0.0814 O   0  0  0  0  0  0  0  0  0  0  0  0
    2.4254   -2.6569    0.1911 C   0  0  0  0  0  0  0  0  0  0  0  0
    3.3201   -1.6245    0.4727 C   0  0  0  0  0  0  0  0  0  0  0  0
    4.6527   -1.7504    0.8114 C   0  0  0  0  0  0  0  0  0  0  0  0
    5.1431   -2.9961    0.8605 N   0  0  0  0  0  0  0  0  0  0  0  0
    4.2666   -4.0979    0.6358 N   0  0  0  0  0  0  0  0  0  0  0  0
    2.9444   -3.9310    0.3480 C   0  0  0  0  0  0  0  0  0  0  0  0
    2.1355   -5.0240    0.0761 N   0  0  0  0  0  0  0  0  0  0  0  0
    5.5468   -0.5312    1.0726 C   0  0  0  0  0  0  0  0  0  0  0  0
    6.7626   -0.6950    1.2151 O   0  0  0  0  0  0  0  0  0  0  0  0
    5.0921    0.8157    1.0462 N   0  0  0  0  0  0  0  0  0  0  0  0
    3.8036    1.3988    1.1423 C   0  0  0  0  0  0  0  0  0  0  0  0
    2.8892    0.9277    2.0565 C   0  0  0  0  0  0  0  0  0  0  0  0
    1.5618    1.3628    1.9856 C   0  0  0  0  0  0  0  0  0  0  0  0
    1.0032    2.1822    1.0154 C   0  0  0  0  0  0  0  0  0  0  0  0
    1.9381    2.6209    0.0591 C   0  0  0  0  0  0  0  0  0  0  0  0
    3.3474    2.3495    0.2085 C   0  0  0  0  0  0  0  0  0  0  0  0
   -0.5557    2.1590    0.8856 C   0  0  0  0  0  0  0  0  0  0  0  0
   -1.0768    2.7919   -0.0540 O   0  0  0  0  0  0  0  0  0  0  0  0
   -1.3068    1.2685    1.7231 N   0  0  0  0  0  0  0  0  0  0  0  0
   -1.3497    1.3893    3.1569 C   0  0  0  0  0  0  0  0  0  0  0  0
   -1.3620   -0.0210    3.8464 C   0  0  2  0  0  0  0  0  0  0  0  0
   -0.0122   -0.8003    3.7937 C   0  0  0  0  0  0  0  0  0  0  0  0
   -2.5158   -0.8573    3.4149 N   0  0  0  0  0  0  0  0  0  0  0  0
   -2.5139   -0.9919    1.9616 C   0  0  2  0  0  0  0  0  0  0  0  0
   -1.3180   -1.8328    1.6148 C   0  0  0  0  0  0  0  0  0  0  0  0
   -2.4249    0.4323    1.2744 C   0  0  0  0  0  0  0  0  0  0  0  0
   -1.0079   -1.5698   -1.5227 C   0  0  0  0  0  0  0  0  0  0  0  0
   -1.7924   -2.7277   -1.3063 C   0  0  0  0  0  0  0  0  0  0  0  0
   -1.0820   -4.2857   -1.0190 Cl  0  0  0  0  0  0  0  0  0  0  0  0
   -3.1772   -2.6296   -0.9792 C   0  0  0  0  0  0  0  0  0  0  0  0
   -3.8217   -1.4001   -0.9184 C   0  0  0  0  0  0  0  0  0  0  0  0
   -3.1734   -0.3124   -1.4660 C   0  0  0  0  0  0  0  0  0  0  0  0
   -3.7421    0.8967   -1.2612 F   0  0  0  0  0  0  0  0  0  0  0  0
   -1.7948   -0.4013   -1.8345 C   0  0  0  0  0  0  0  0  0  0  0  0
   -1.1982    1.0388   -2.5974 Cl  0  0  0  0  0  0  0  0  0  0  0  0
    0.6129   -0.1220    0.3560 H   0  0  0  0  0  0  0  0  0  0  0  0
    0.5936    0.6483   -1.2205 H   0  0  0  0  0  0  0  0  0  0  0  0
    1.9954   -0.0180   -0.7385 H   0  0  0  0  0  0  0  0  0  0  0  0
    1.1412   -1.8057   -2.0599 H   0  0  0  0  0  0  0  0  0  0  0  0
    2.9812   -0.6373    0.4736 H   0  0  0  0  0  0  0  0  0  0  0  0
    2.5186   -5.9400    0.2535 H   0  0  0  0  0  0  0  0  0  0  0  0
    1.1363   -4.8707    0.1687 H   0  0  0  0  0  0  0  0  0  0  0  0
    5.8618    1.4798    1.0356 H   0  0  0  0  0  0  0  0  0  0  0  0
    3.1184    0.0922    2.7165 H   0  0  0  0  0  0  0  0  0  0  0  0
    0.8735    0.8132    2.5639 H   0  0  0  0  0  0  0  0  0  0  0  0
    1.5960    2.9763   -0.9192 H   0  0  0  0  0  0  0  0  0  0  0  0
    4.0408    2.7735   -0.5159 H   0  0  0  0  0  0  0  0  0  0  0  0
   -0.5523    2.0448    3.4940 H   0  0  0  0  0  0  0  0  0  0  0  0
   -2.2994    1.9032    3.3657 H   0  0  0  0  0  0  0  0  0  0  0  0
   -1.5360    0.1604    4.9035 H   0  0  0  0  0  0  0  0  0  0  0  0
    0.7597   -0.2361    4.3125 H   0  0  0  0  0  0  0  0  0  0  0  0
   -0.0988   -1.8032    4.2134 H   0  0  0  0  0  0  0  0  0  0  0  0
    0.4535   -0.9900    2.8216 H   0  0  0  0  0  0  0  0  0  0  0  0
   -3.3921   -0.3919    3.6554 H   0  0  0  0  0  0  0  0  0  0  0  0
   -3.4031   -1.5654    1.6638 H   0  0  0  0  0  0  0  0  0  0  0  0
   -1.0443   -2.6322    2.3048 H   0  0  0  0  0  0  0  0  0  0  0  0
   -1.3860   -2.3490    0.7067 H   0  0  0  0  0  0  0  0  0  0  0  0
   -0.5215   -1.1478    1.4019 H   0  0  0  0  0  0  0  0  0  0  0  0
   -3.3917    0.9502    1.3408 H   0  0  0  0  0  0  0  0  0  0  0  0
   -2.1371    0.2973    0.2722 H   0  0  0  0  0  0  0  0  0  0  0  0
   -3.6998   -3.4953   -0.5747 H   0  0  0  0  0  0  0  0  0  0  0  0
   -4.7282   -1.2589   -0.3242 H   0  0  0  0  0  0  0  0  0  0  0  0
  1 39  1  0  0  0  0
  1 40  1  0  0  0  0
  1 41  1  0  0  0  0
  2  1  1  0  0  0  0
  2  3  1  0  0  0  0
  2 30  1  0  0  0  0
  2 42  1  6  0  0  0
  3  4  1  0  0  0  0
  4  5  2  0  0  0  0
  4  9  1  0  0  0  0
  5  6  1  0  0  0  0
  5 43  1  0  0  0  0
  6  7  2  0  0  0  0
  6 11  1  0  0  0  0
  7  8  1  0  0  0  0
  8  9  2  0  0  0  0
  9 10  1  0  0  0  0
 10 44  1  0  0  0  0
 10 45  1  0  0  0  0
 11 12  2  0  0  0  0
 11 13  1  0  0  0  0
 13 14  1  0  0  0  0
 13 46  1  0  0  0  0
 14 15  2  0  0  0  0
 14 19  1  0  0  0  0
 15 16  1  0  0  0  0
 15 47  1  0  0  0  0
 16 17  2  0  0  0  0
 16 48  1  0  0  0  0
 17 18  1  0  0  0  0
 17 20  1  0  0  0  0
 18 19  2  0  0  0  0
 18 49  1  0  0  0  0
 19 50  1  0  0  0  0
 20 21  2  0  0  0  0
 20 22  1  0  0  0  0
 22 23  1  0  0  0  0
 22 29  1  0  0  0  0
 23 51  1  0  0  0  0
 23 52  1  0  0  0  0
 24 23  1  0  0  0  0
 24 25  1  0  0  0  0
 24 26  1  0  0  0  0
 24 53  1  1  0  0  0
 25 54  1  0  0  0  0
 25 55  1  0  0  0  0
 25 56  1  0  0  0  0
 26 57  1  0  0  0  0
 27 26  1  0  0  0  0
 27 28  1  0  0  0  0
 27 29  1  0  0  0  0
 27 58  1  6  0  0  0
 28 59  1  0  0  0  0
 28 60  1  0  0  0  0
 28 61  1  0  0  0  0
 29 62  1  0  0  0  0
 29 63  1  0  0  0  0
 30 31  2  0  0  0  0
 30 37  1  0  0  0  0
 31 32  1  0  0  0  0
 31 33  1  0  0  0  0
 33 34  2  0  0  0  0
 33 64  1  0  0  0  0
 34 35  1  0  0  0  0
 34 65  1  0  0  0  0
 35 36  1  0  0  0  0
 35 37  2  0  0  0  0
 37 38  1  0  0  0  0
M  END
>  <DRUGBANK_ID>
DB14860

>  <COMMON_NAME>
Ensartinib

>  <CAS_NUMBER>
1370651-20-9

>  <UNII>
SMA5ZS5B22

>  <SYNONYMS>
Ensartinib

$$$$
