TDA
 OpenBabel10282417123D

 41 40  0  0  0  0  0  0  0  0999 V2000
    0.8929    0.2205   -0.1881 O   0  0  0  0  0  0  0  0  0  0  0  0
    0.9931   -0.7997   -2.1695 O   0  0  0  0  0  0  0  0  0  0  0  0
    0.3105   -0.3557   -1.2552 C   0  0  0  0  0  0  0  0  0  0  0  0
   -1.1928   -0.4008   -1.1857 C   0  0  0  0  0  0  0  0  0  0  0  0
   -1.6865   -1.2996   -0.0518 C   0  0  0  0  0  0  0  0  0  0  0  0
   -1.2705   -0.7680    1.3227 C   0  0  0  0  0  0  0  0  0  0  0  0
   -1.7917    0.6593    1.5295 C   0  0  0  0  0  0  0  0  0  0  0  0
   -3.3224    0.6584    1.5269 C   0  0  0  0  0  0  0  0  0  0  0  0
   -3.8382   -0.2394    2.6554 C   0  0  0  0  0  0  0  0  0  0  0  0
   -3.3296    0.2788    4.0048 C   0  0  0  0  0  0  0  0  0  0  0  0
   -3.8343    1.7064    4.2347 C   0  0  0  0  0  0  0  0  0  0  0  0
   -5.3670    1.7273    4.2366 C   0  0  0  0  0  0  0  0  0  0  0  0
   -5.9188    0.8473    5.3639 C   0  0  0  0  0  0  0  0  0  0  0  0
   -5.4204    1.3206    6.7300 C   0  0  0  0  0  0  0  0  0  0  0  0
   -5.8684    2.7498    6.9891 C   0  0  0  0  0  0  0  0  0  0  0  0
    1.8530    0.0454   -0.2615 H   0  0  0  0  0  0  0  0  0  0  0  0
   -1.5805    0.6215   -1.1173 H   0  0  0  0  0  0  0  0  0  0  0  0
   -1.5758   -0.7845   -2.1359 H   0  0  0  0  0  0  0  0  0  0  0  0
   -2.7806   -1.3807   -0.1087 H   0  0  0  0  0  0  0  0  0  0  0  0
   -1.3188   -2.3221   -0.1765 H   0  0  0  0  0  0  0  0  0  0  0  0
   -1.6198   -1.4496    2.1043 H   0  0  0  0  0  0  0  0  0  0  0  0
   -0.1891   -0.7997    1.4577 H   0  0  0  0  0  0  0  0  0  0  0  0
   -1.3821    1.0694    2.4578 H   0  0  0  0  0  0  0  0  0  0  0  0
   -1.4258    1.3561    0.7711 H   0  0  0  0  0  0  0  0  0  0  0  0
   -3.6924    1.6847    1.6157 H   0  0  0  0  0  0  0  0  0  0  0  0
   -3.7310    0.3234    0.5696 H   0  0  0  0  0  0  0  0  0  0  0  0
   -4.9292   -0.2927    2.6168 H   0  0  0  0  0  0  0  0  0  0  0  0
   -3.5380   -1.2820    2.5229 H   0  0  0  0  0  0  0  0  0  0  0  0
   -3.6391   -0.4014    4.8026 H   0  0  0  0  0  0  0  0  0  0  0  0
   -2.2373    0.2593    4.0697 H   0  0  0  0  0  0  0  0  0  0  0  0
   -3.4151    2.1013    5.1638 H   0  0  0  0  0  0  0  0  0  0  0  0
   -3.4584    2.3999    3.4756 H   0  0  0  0  0  0  0  0  0  0  0  0
   -5.7218    2.7574    4.3187 H   0  0  0  0  0  0  0  0  0  0  0  0
   -5.7773    1.3939    3.2777 H   0  0  0  0  0  0  0  0  0  0  0  0
   -7.0123    0.8533    5.3325 H   0  0  0  0  0  0  0  0  0  0  0  0
   -5.6353   -0.2022    5.2165 H   0  0  0  0  0  0  0  0  0  0  0  0
   -5.7983    0.6550    7.5105 H   0  0  0  0  0  0  0  0  0  0  0  0
   -4.3276    1.2586    6.7976 H   0  0  0  0  0  0  0  0  0  0  0  0
   -6.9603    2.8063    6.9572 H   0  0  0  0  0  0  0  0  0  0  0  0
   -5.5148    3.0968    7.9601 H   0  0  0  0  0  0  0  0  0  0  0  0
   -5.4741    3.4475    6.2429 H   0  0  0  0  0  0  0  0  0  0  0  0
  1  3  1  0  0  0  0
  1 16  1  0  0  0  0
  2  3  2  0  0  0  0
  3  4  1  0  0  0  0
  4  5  1  0  0  0  0
  4 17  1  0  0  0  0
  4 18  1  0  0  0  0
  5  6  1  0  0  0  0
  5 19  1  0  0  0  0
  5 20  1  0  0  0  0
  6  7  1  0  0  0  0
  6 21  1  0  0  0  0
  6 22  1  0  0  0  0
  7  8  1  0  0  0  0
  7 23  1  0  0  0  0
  7 24  1  0  0  0  0
  8  9  1  0  0  0  0
  8 25  1  0  0  0  0
  8 26  1  0  0  0  0
  9 10  1  0  0  0  0
  9 27  1  0  0  0  0
  9 28  1  0  0  0  0
 10 11  1  0  0  0  0
 10 29  1  0  0  0  0
 10 30  1  0  0  0  0
 11 12  1  0  0  0  0
 11 31  1  0  0  0  0
 11 32  1  0  0  0  0
 12 13  1  0  0  0  0
 12 33  1  0  0  0  0
 12 34  1  0  0  0  0
 13 14  1  0  0  0  0
 13 35  1  0  0  0  0
 13 36  1  0  0  0  0
 14 15  1  0  0  0  0
 14 37  1  0  0  0  0
 14 38  1  0  0  0  0
 15 39  1  0  0  0  0
 15 40  1  0  0  0  0
 15 41  1  0  0  0  0
M  END
>  <DRUGBANK_ID>
DB02448

>  <SECONDARY_ACCESSION_NUMBERS>
EXPT03028

>  <COMMON_NAME>
N-Tridecanoic Acid

>  <CAS_NUMBER>
638-53-9

>  <UNII>
19936LIY2V

$$$$
