FAF
 OpenBabel10282417163D

 46 46  0  0  0  0  0  0  0  0999 V2000
    0.9553    0.0552    0.0200 C   0  0  0  0  0  0  0  0  0  0  0  0
    0.3087   -0.7056   -0.7301 O   0  0  0  0  0  0  0  0  0  0  0  0
    0.2838    0.9459    1.0149 C   0  0  0  0  0  0  0  0  0  0  0  0
    2.3161    0.1695   -0.0055 N   0  0  0  0  0  0  0  0  0  0  0  0
    3.1455   -0.7146   -0.8158 C   0  0  1  0  0  0  0  0  0  0  0  0
    3.9665    0.0514   -1.9210 C   0  0  0  0  0  0  0  0  0  0  0  0
    5.2485    0.7434   -1.4399 C   0  0  0  0  0  0  0  0  0  0  0  0
    6.2482   -0.4187   -1.2100 C   0  0  0  0  0  0  0  0  0  0  0  0
    5.9306    1.7948   -2.2910 C   0  0  0  0  0  0  0  0  0  0  0  0
    3.9405   -1.6463    0.1432 C   0  0  0  0  0  0  0  0  0  0  0  0
    3.9598   -2.8720   -0.0350 O   0  0  0  0  0  0  0  0  0  0  0  0
    4.8427   -1.1399    1.0688 N   0  0  0  0  0  0  0  0  0  0  0  0
    5.3011    0.2596    1.4266 C   0  0  1  0  0  0  0  0  0  0  0  0
    4.9975    0.6010    2.8540 C   0  0  0  0  0  0  0  0  0  0  0  0
    5.9643   -0.1443    3.7072 C   0  0  0  0  0  0  0  0  0  0  0  0
    6.9433    0.5769    4.3849 C   0  0  0  0  0  0  0  0  0  0  0  0
    5.9590   -1.5455    3.7455 C   0  0  0  0  0  0  0  0  0  0  0  0
    7.8100   -0.1031    5.2192 C   0  0  0  0  0  0  0  0  0  0  0  0
    6.8433   -2.2231    4.5529 C   0  0  0  0  0  0  0  0  0  0  0  0
    7.7426   -1.4955    5.3187 C   0  0  0  0  0  0  0  0  0  0  0  0
    6.7996    0.8228    1.2252 C   0  0  0  0  0  0  0  0  0  0  0  0
    7.0942    1.8510    0.6465 O   0  0  0  0  0  0  0  0  0  0  0  0
    2.4744   -1.3839   -1.3756 H   0  0  0  0  0  0  0  0  0  0  0  0
    4.6176    0.9175    0.9312 H   0  0  0  0  0  0  0  0  0  0  0  0
    0.5733    0.6642    2.0318 H   0  0  0  0  0  0  0  0  0  0  0  0
    0.5629    1.9863    0.8244 H   0  0  0  0  0  0  0  0  0  0  0  0
   -0.8006    0.8484    0.9156 H   0  0  0  0  0  0  0  0  0  0  0  0
    2.7411    0.6800    0.7543 H   0  0  0  0  0  0  0  0  0  0  0  0
    4.2904   -0.6781   -2.6726 H   0  0  0  0  0  0  0  0  0  0  0  0
    3.3107    0.7646   -2.4279 H   0  0  0  0  0  0  0  0  0  0  0  0
    4.8917    1.3937   -0.6434 H   0  0  0  0  0  0  0  0  0  0  0  0
    6.7505   -0.7575   -2.1045 H   0  0  0  0  0  0  0  0  0  0  0  0
    7.0193   -0.3529   -0.4545 H   0  0  0  0  0  0  0  0  0  0  0  0
    5.7195   -1.3124   -0.9414 H   0  0  0  0  0  0  0  0  0  0  0  0
    5.2125    2.4453   -2.7903 H   0  0  0  0  0  0  0  0  0  0  0  0
    6.5466    2.4494   -1.6532 H   0  0  0  0  0  0  0  0  0  0  0  0
    6.6022    1.3208   -3.0014 H   0  0  0  0  0  0  0  0  0  0  0  0
    5.4925   -1.8955    1.2713 H   0  0  0  0  0  0  0  0  0  0  0  0
    5.1236    1.6903    2.9548 H   0  0  0  0  0  0  0  0  0  0  0  0
    3.9619    0.3678    3.1076 H   0  0  0  0  0  0  0  0  0  0  0  0
    7.0272    1.6568    4.2608 H   0  0  0  0  0  0  0  0  0  0  0  0
    5.2654   -2.1471    3.1662 H   0  0  0  0  0  0  0  0  0  0  0  0
    8.5146    0.4615    5.8185 H   0  0  0  0  0  0  0  0  0  0  0  0
    6.7770   -3.3050    4.6095 H   0  0  0  0  0  0  0  0  0  0  0  0
    8.3848   -2.0217    6.0134 H   0  0  0  0  0  0  0  0  0  0  0  0
    7.6203    0.2254    1.6811 H   0  0  0  0  0  0  0  0  0  0  0  0
  1  2  2  0  0  0  0
  1  3  1  0  0  0  0
  1  4  1  0  0  0  0
  3 25  1  0  0  0  0
  3 26  1  0  0  0  0
  3 27  1  0  0  0  0
  4 28  1  0  0  0  0
  5  4  1  0  0  0  0
  5  6  1  0  0  0  0
  5 10  1  0  0  0  0
  5 23  1  6  0  0  0
  6  7  1  0  0  0  0
  6 29  1  0  0  0  0
  6 30  1  0  0  0  0
  7  8  1  0  0  0  0
  7  9  1  0  0  0  0
  7 31  1  0  0  0  0
  8 32  1  0  0  0  0
  8 33  1  0  0  0  0
  8 34  1  0  0  0  0
  9 35  1  0  0  0  0
  9 36  1  0  0  0  0
  9 37  1  0  0  0  0
 10 11  2  0  0  0  0
 10 12  1  0  0  0  0
 12 38  1  0  0  0  0
 13 12  1  0  0  0  0
 13 14  1  0  0  0  0
 13 21  1  0  0  0  0
 13 24  1  6  0  0  0
 14 15  1  0  0  0  0
 14 39  1  0  0  0  0
 14 40  1  0  0  0  0
 15 16  2  0  0  0  0
 15 17  1  0  0  0  0
 16 18  1  0  0  0  0
 16 41  1  0  0  0  0
 17 19  2  0  0  0  0
 17 42  1  0  0  0  0
 18 20  2  0  0  0  0
 18 43  1  0  0  0  0
 19 20  1  0  0  0  0
 19 44  1  0  0  0  0
 20 45  1  0  0  0  0
 21 22  2  0  0  0  0
 21 46  1  0  0  0  0
M  END
>  <DRUGBANK_ID>
DB07749

>  <COMMON_NAME>
2-ACETYLAMINO-4-METHYL-PENTANOIC ACID (1-FORMYL-2-PHENYL-ETHYL)-AMIDE

$$$$
