
 OpenBabel10282417233D

300312  0  0  1  0  0  0  0  0999 V2000
   -9.6531  -14.4707    7.4029 H   0  0  0  0  0  0  0  0  0  0  0  0
   -9.2967  -13.7926    6.6466 C   0  0  2  0  0  0  0  0  0  0  0  0
   -8.6384  -12.7010    7.2161 O   0  0  0  0  0  0  0  0  0  0  0  0
   -8.2099  -11.8129    6.2380 C   0  0  1  0  0  0  0  0  0  0  0  0
   -9.2902  -11.1333    5.5869 C   0  0  2  0  0  0  0  0  0  0  0  0
  -10.0173  -11.6613    4.4558 C   0  0  0  0  0  0  0  0  0  0  0  0
   -8.6578  -10.2649    4.7347 O   0  0  0  0  0  0  0  0  0  0  0  0
   -8.1885   -9.0158    5.3091 C   0  0  1  0  0  0  0  0  0  0  0  0
   -7.6962   -8.2595    4.6571 H   0  0  0  0  0  0  0  0  0  0  0  0
   -8.8112   -8.2385    6.2402 O   0  0  0  0  0  0  0  0  0  0  0  0
   -9.7125   -7.5802    5.4226 C   0  0  2  0  0  0  0  0  0  0  0  0
  -10.2582   -9.1514    4.5079 C   0  0  1  0  0  0  0  0  0  0  0  0
  -11.7855  -10.0331    4.6057 O   0  0  0  0  0  0  0  0  0  0  0  0
  -10.1173   -9.1873    3.1435 C   0  0  2  0  0  0  0  0  0  0  0  0
   -8.7753   -9.1364    2.8836 O   0  0  0  0  0  0  0  0  0  0  0  0
  -10.5258   -7.9366    2.5639 C   0  0  1  0  0  0  0  0  0  0  0  0
  -11.8409   -7.9369    1.9664 C   0  0  0  0  0  0  0  0  0  0  0  0
  -12.2422   -6.8574    1.2676 O   0  0  0  0  0  0  0  0  0  0  0  0
  -10.0465   -6.6813    3.1567 O   0  0  0  0  0  0  0  0  0  0  0  0
  -10.3841   -6.3970    4.4852 C   0  0  1  0  0  0  0  0  0  0  0  0
  -12.0626   -6.1930    4.4378 O   0  0  0  0  0  0  0  0  0  0  0  0
  -13.0383   -7.5531    3.8909 C   0  0  0  0  0  0  0  0  0  0  0  0
  -12.5596   -8.7528    3.5591 O   0  0  0  0  0  0  0  0  0  0  0  0
  -14.9503   -7.6371    3.9048 C   0  0  2  0  0  0  0  0  0  0  0  0
  -15.7880   -6.0570    4.2408 C   0  0  0  0  0  0  0  0  0  0  0  0
  -14.4089   -4.7330    4.3712 C   0  0  2  0  0  0  0  0  0  0  0  0
  -14.7221   -4.0530    5.7728 O   0  0  0  0  0  0  0  0  0  0  0  0
  -15.3588   -4.5816    6.8477 C   0  0  0  0  0  0  0  0  0  0  0  0
  -15.9703   -3.9784    7.6986 O   0  0  0  0  0  0  0  0  0  0  0  0
  -15.5898   -5.9531    6.8418 C   0  0  0  0  0  0  0  0  0  0  0  0
  -14.7609   -6.4792    5.9292 C   0  0  0  0  0  0  0  0  0  0  0  0
  -13.5283   -6.6710    6.0137 O   0  0  0  0  0  0  0  0  0  0  0  0
  -16.5450   -6.7151    7.3586 C   0  0  0  0  0  0  0  0  0  0  0  0
  -16.2826   -8.1158    7.3449 C   0  0  0  0  0  0  0  0  0  0  0  0
  -15.0898   -8.9904    8.6161 C   0  0  0  0  0  0  0  0  0  0  0  0
  -16.0634   -8.2133   10.5242 C   0  0  1  0  0  0  0  0  0  0  0  0
  -17.5886   -8.4961   10.8274 C   0  0  0  0  0  0  0  0  0  0  0  0
  -15.2533   -8.9990   11.9527 O   0  0  0  0  0  0  0  0  0  0  0  0
  -14.4082  -10.8043   12.1871 C   0  0  2  0  0  0  0  0  0  0  0  0
  -14.2695  -11.3362   10.7859 O   0  0  0  0  0  0  0  0  0  0  0  0
  -15.8636  -11.0399    9.6179 C   0  0  2  0  0  0  0  0  0  0  0  0
  -16.7818   -9.2205    9.0571 C   0  0  0  0  0  0  0  0  0  0  0  0
  -17.1618  -11.6984   10.3471 C   0  0  1  0  0  0  0  0  0  0  0  0
  -16.6732  -12.9726   10.2295 O   0  0  0  0  0  0  0  0  0  0  0  0
  -16.1394  -13.4855    9.0909 C   0  0  0  0  0  0  0  0  0  0  0  0
  -15.4205  -14.4517    9.2597 O   0  0  0  0  0  0  0  0  0  0  0  0
  -16.7477  -12.9522    7.4301 C   0  0  0  0  0  0  0  0  0  0  0  0
  -17.2632  -11.0239    7.4354 C   0  0  0  0  0  0  0  0  0  0  0  0
  -16.0470  -10.0249    6.8397 O   0  0  0  0  0  0  0  0  0  0  0  0
  -15.7821  -13.3260    6.4083 C   0  0  0  0  0  0  0  0  0  0  0  0
  -14.8373  -12.1834    5.3401 C   0  0  0  0  0  0  0  0  0  0  0  0
  -13.4313  -12.0362    5.1755 C   0  0  0  0  0  0  0  0  0  0  0  0
  -13.1802  -13.4370    5.0744 C   0  0  1  0  0  0  0  0  0  0  0  0
  -13.5562  -14.0336    3.8130 C   0  0  0  0  0  0  0  0  0  0  0  0
  -11.9982  -12.9529    4.9416 O   0  0  0  0  0  0  0  0  0  0  0  0
  -13.2129  -14.3626    6.2508 C   0  0  0  0  0  0  0  0  0  0  0  0
  -13.4668  -13.8896    7.4809 C   0  0  0  0  0  0  0  0  0  0  0  0
  -17.1545  -11.2499   12.2332 C   0  0  2  0  0  0  0  0  0  0  0  0
  -17.1340   -9.4461   12.7769 O   0  0  0  0  0  0  0  0  0  0  0  0
  -15.4598  -11.5736   12.9889 C   0  0  1  0  0  0  0  0  0  0  0  0
  -15.1459  -12.8261   12.5305 O   0  0  0  0  0  0  0  0  0  0  0  0
  -16.1478   -6.2503   10.3611 C   0  0  0  0  0  0  0  0  0  0  0  0
  -15.4435   -5.3627    9.5468 C   0  0  0  0  0  0  0  0  0  0  0  0
  -14.8130   -4.8379    2.9520 C   0  0  0  0  0  0  0  0  0  0  0  0
  -14.8049   -4.3445    1.5195 C   0  0  0  0  0  0  0  0  0  0  0  0
  -15.9057   -3.9807    3.4536 C   0  0  0  0  0  0  0  0  0  0  0  0
  -13.9825   -6.1178    2.8128 C   0  0  0  0  0  0  0  0  0  0  0  0
  -13.5806   -7.5284    4.2923 C   0  0  1  0  0  0  0  0  0  0  0  0
  -14.2365   -8.1177    3.0427 H   0  0  0  0  0  0  0  0  0  0  0  0
  -12.6356   -8.3832    6.0420 C   0  0  0  0  0  0  0  0  0  0  0  0
  -11.6993   -9.5666    7.1168 C   0  0  0  0  0  0  0  0  0  0  0  0
  -12.3044  -10.7874    8.0933 C   0  0  0  0  0  0  0  0  0  0  0  0
  -13.3912  -10.6156    9.2225 C   0  0  2  0  0  0  0  0  0  0  0  0
  -14.0393  -11.9704    9.4190 H   0  0  0  0  0  0  0  0  0  0  0  0
  -13.7730   -9.1428   10.8929 C   0  0  1  0  0  0  0  0  0  0  0  0
  -15.7485  -10.2660   11.1896 C   0  0  0  0  0  0  0  0  0  0  0  0
  -12.9297   -7.2832   11.7612 C   0  0  0  0  0  0  0  0  0  0  0  0
  -13.2567   -7.8145   12.7977 C   0  0  0  0  0  0  0  0  0  0  0  0
  -12.2661   -8.5215   11.6078 C   0  0  2  0  0  0  0  0  0  0  0  0
  -10.8453   -9.9723   12.1427 O   0  0  0  0  0  0  0  0  0  0  0  0
  -11.5867  -10.7026   13.7900 C   0  0  2  0  0  0  0  0  0  0  0  0
  -12.6142  -11.3620   13.5317 H   0  0  0  0  0  0  0  0  0  0  0  0
  -12.0978   -9.7742   14.7361 O   0  0  0  0  0  0  0  0  0  0  0  0
  -10.9981   -8.9951   15.1800 C   0  0  2  0  0  0  0  0  0  0  0  0
  -10.2511   -7.8738   14.4625 C   0  0  0  0  0  0  0  0  0  0  0  0
  -11.0256   -6.5923   14.2958 O   0  0  0  0  0  0  0  0  0  0  0  0
  -12.4027   -6.7919   14.2501 C   0  0  2  0  0  0  0  0  0  0  0  0
  -11.6412   -7.6897   13.3668 O   0  0  0  0  0  0  0  0  0  0  0  0
  -10.7022   -7.4701   11.6985 C   0  0  2  0  0  0  0  0  0  0  0  0
   -9.3487   -7.5715   11.5378 C   0  0  0  0  0  0  0  0  0  0  0  0
  -11.2586   -6.5000   10.7852 C   0  0  2  0  0  0  0  0  0  0  0  0
  -10.4631   -6.4673    9.2109 O   0  0  0  0  0  0  0  0  0  0  0  0
  -12.3148   -4.8687   11.5297 C   0  0  2  0  0  0  0  0  0  0  0  0
  -10.8213   -5.1224   11.4548 O   0  0  0  0  0  0  0  0  0  0  0  0
  -13.4888   -5.6040   12.9870 C   0  0  1  0  0  0  0  0  0  0  0  0
  -14.8547   -6.0236   12.5791 O   0  0  0  0  0  0  0  0  0  0  0  0
  -14.8888   -7.4666   11.9154 C   0  0  2  0  0  0  0  0  0  0  0  0
  -16.0314   -7.4150   12.0948 H   0  0  0  0  0  0  0  0  0  0  0  0
  -14.1250   -9.1427   13.0077 O   0  0  0  0  0  0  0  0  0  0  0  0
  -12.4273   -9.7261   12.5342 C   0  0  0  0  0  0  0  0  0  0  0  0
  -11.7023   -9.6772   10.3454 C   0  0  1  0  0  0  0  0  0  0  0  0
  -11.6706  -11.1169   10.0351 O   0  0  0  0  0  0  0  0  0  0  0  0
  -12.4020   -7.9027    8.9242 C   0  0  2  0  0  0  0  0  0  0  0  0
  -12.0422   -5.7191    9.6390 O   0  0  0  0  0  0  0  0  0  0  0  0
  -14.5883   -7.8120    9.7864 C   0  0  1  0  0  0  0  0  0  0  0  0
  -15.0177   -9.4622   10.0472 O   0  0  0  0  0  0  0  0  0  0  0  0
   -9.9802  -10.0333   15.4039 C   0  0  1  0  0  0  0  0  0  0  0  0
  -10.4933  -10.8318   16.4217 O   0  0  0  0  0  0  0  0  0  0  0  0
   -9.6161  -10.8964   14.2356 C   0  0  2  0  0  0  0  0  0  0  0  0
   -9.0088  -10.0656   13.2879 O   0  0  0  0  0  0  0  0  0  0  0  0
  -10.7109  -11.7593   13.7894 C   0  0  1  0  0  0  0  0  0  0  0  0
  -11.4194  -12.5710   14.7024 N   0  0  0  0  0  0  0  0  0  0  0  0
  -11.5365  -13.8728   14.3831 C   0  0  0  0  0  0  0  0  0  0  0  0
  -12.0992  -14.7542   15.4419 C   0  0  0  0  0  0  0  0  0  0  0  0
  -11.1437  -14.3053   13.3049 O   0  0  0  0  0  0  0  0  0  0  0  0
  -12.1209   -8.0570   10.4046 C   0  0  0  0  0  0  0  0  0  0  0  0
  -10.5619   -8.6650    9.2101 C   0  0  0  0  0  0  0  0  0  0  0  0
  -12.6712   -6.4887    8.5820 C   0  0  0  0  0  0  0  0  0  0  0  0
  -13.3544   -7.7564   10.5038 C   0  0  2  0  0  0  0  0  0  0  0  0
  -13.9900   -6.6748   10.8014 H   0  0  0  0  0  0  0  0  0  0  0  0
  -13.9859   -7.5633    8.2953 C   0  0  0  0  0  0  0  0  0  0  0  0
  -13.7896   -8.7896    7.5315 C   0  0  0  0  0  0  0  0  0  0  0  0
  -13.8477  -10.5353    7.5491 C   0  0  2  0  0  0  0  0  0  0  0  0
  -15.1756  -11.5006    7.3713 C   0  0  0  0  0  0  0  0  0  0  0  0
  -13.1296   -9.6149    6.0409 C   0  0  1  0  0  0  0  0  0  0  0  0
  -11.7804   -8.1286    5.8730 C   0  0  0  0  0  0  0  0  0  0  0  0
  -14.3245   -8.9837    5.6087 C   0  0  0  0  0  0  0  0  0  0  0  0
  -15.2686   -8.9767    4.5639 C   0  0  1  0  0  0  0  0  0  0  0  0
  -16.6100   -8.8719    4.9626 O   0  0  0  0  0  0  0  0  0  0  0  0
   -7.1252   -9.6704    5.8262 C   0  0  2  0  0  0  0  0  0  0  0  0
   -6.6762  -10.1255    4.5811 O   0  0  0  0  0  0  0  0  0  0  0  0
   -7.4398  -10.6921    6.8741 C   0  0  2  0  0  0  0  0  0  0  0  0
   -6.1718  -11.2269    7.3511 O   0  0  0  0  0  0  0  0  0  0  0  0
   -5.4783  -10.1791    7.9651 C   0  0  2  0  0  0  0  0  0  0  0  0
   -5.8087  -10.4507    8.9651 H   0  0  0  0  0  0  0  0  0  0  0  0
   -5.4818   -9.1368    7.0640 O   0  0  0  0  0  0  0  0  0  0  0  0
   -4.5653   -9.0881    5.9065 C   0  0  2  0  0  0  0  0  0  0  0  0
   -4.2131  -10.4100    5.1547 C   0  0  0  0  0  0  0  0  0  0  0  0
   -5.0846  -11.1920    4.4001 O   0  0  0  0  0  0  0  0  0  0  0  0
   -3.4186   -8.4693    6.6609 C   0  0  1  0  0  0  0  0  0  0  0  0
   -3.8636   -7.1760    7.1395 O   0  0  0  0  0  0  0  0  0  0  0  0
   -3.1263   -9.4238    7.8006 C   0  0  2  0  0  0  0  0  0  0  0  0
   -2.7804  -10.6989    7.3131 O   0  0  0  0  0  0  0  0  0  0  0  0
   -4.2949   -9.6061    8.7162 C   0  0  1  0  0  0  0  0  0  0  0  0
   -4.6693   -8.3016    9.2688 O   0  0  0  0  0  0  0  0  0  0  0  0
   -8.6170  -14.4480    5.5490 O   0  0  0  0  0  0  0  0  0  0  0  0
   -9.1945  -14.3119    4.2539 C   0  0  1  0  0  0  0  0  0  0  0  0
   -9.0993  -15.3580    3.2198 C   0  0  0  0  0  0  0  0  0  0  0  0
   -9.7900  -15.0433    2.0036 O   0  0  0  0  0  0  0  0  0  0  0  0
  -10.6198  -14.2942    4.5610 C   0  0  2  0  0  0  0  0  0  0  0  0
  -11.2602  -13.5646    3.0623 O   0  0  0  0  0  0  0  0  0  0  0  0
  -10.5774  -13.3508    6.2191 C   0  0  1  0  0  0  0  0  0  0  0  0
  -11.4467  -13.1164    7.1977 O   0  0  0  0  0  0  0  0  0  0  0  0
   -7.6730  -12.2911    5.4306 H   0  0  0  0  0  0  0  0  0  0  0  0
   -9.9704  -10.8119    6.4197 H   0  0  0  0  0  0  0  0  0  0  0  0
  -10.0284  -12.5448    4.8686 H   0  0  0  0  0  0  0  0  0  0  0  0
  -11.0361  -11.4410    4.2948 H   0  0  0  0  0  0  0  0  0  0  0  0
   -9.6847  -12.2423    3.6767 H   0  0  0  0  0  0  0  0  0  0  0  0
   -9.9688   -6.9928    6.3846 H   0  0  0  0  0  0  0  0  0  0  0  0
  -10.1964   -9.6591    5.4801 H   0  0  0  0  0  0  0  0  0  0  0  0
  -12.4888   -9.3166    4.5606 H   0  0  0  0  0  0  0  0  0  0  0  0
  -10.6616  -10.0853    2.9459 H   0  0  0  0  0  0  0  0  0  0  0  0
   -8.5438   -8.3616    3.4194 H   0  0  0  0  0  0  0  0  0  0  0  0
  -10.1591   -7.9920    1.5988 H   0  0  0  0  0  0  0  0  0  0  0  0
  -12.5723   -8.8364    1.9381 H   0  0  0  0  0  0  0  0  0  0  0  0
  -11.8936   -7.2879    2.7829 H   0  0  0  0  0  0  0  0  0  0  0  0
  -12.0766   -6.1022    1.8893 H   0  0  0  0  0  0  0  0  0  0  0  0
  -10.0915   -5.4732    4.9791 H   0  0  0  0  0  0  0  0  0  0  0  0
  -16.4855   -6.4387    5.0284 H   0  0  0  0  0  0  0  0  0  0  0  0
  -16.0364   -5.3834    5.1079 H   0  0  0  0  0  0  0  0  0  0  0  0
  -13.3402   -4.5433    4.4155 H   0  0  0  0  0  0  0  0  0  0  0  0
  -15.4348   -7.2959    5.5764 H   0  0  0  0  0  0  0  0  0  0  0  0
  -14.2211   -6.1531    5.1275 H   0  0  0  0  0  0  0  0  0  0  0  0
  -12.7431   -6.3555    6.3004 H   0  0  0  0  0  0  0  0  0  0  0  0
  -16.7508   -6.3997    8.3384 H   0  0  0  0  0  0  0  0  0  0  0  0
  -17.1216   -8.7915    7.3197 H   0  0  0  0  0  0  0  0  0  0  0  0
  -15.8228   -8.4714    6.6190 H   0  0  0  0  0  0  0  0  0  0  0  0
  -14.9870   -9.9643    8.5640 H   0  0  0  0  0  0  0  0  0  0  0  0
  -13.7182   -9.0605    9.1211 H   0  0  0  0  0  0  0  0  0  0  0  0
  -17.7318   -9.5151   11.1054 H   0  0  0  0  0  0  0  0  0  0  0  0
  -17.7570   -7.8739   11.6157 H   0  0  0  0  0  0  0  0  0  0  0  0
  -18.1854   -8.5364    9.9757 H   0  0  0  0  0  0  0  0  0  0  0  0
  -13.4875  -11.1082   12.1771 H   0  0  0  0  0  0  0  0  0  0  0  0
  -15.2026  -11.2752    8.9590 H   0  0  0  0  0  0  0  0  0  0  0  0
  -16.2150   -8.3046    8.9318 H   0  0  0  0  0  0  0  0  0  0  0  0
  -17.4673   -8.5068    8.7046 H   0  0  0  0  0  0  0  0  0  0  0  0
  -16.7236   -8.0647    9.2135 H   0  0  0  0  0  0  0  0  0  0  0  0
  -17.9359  -11.1585    9.7558 H   0  0  0  0  0  0  0  0  0  0  0  0
  -17.6688  -10.5530    6.6467 H   0  0  0  0  0  0  0  0  0  0  0  0
  -17.2529  -10.5242    8.3310 H   0  0  0  0  0  0  0  0  0  0  0  0
  -15.1952   -9.7784    7.2273 H   0  0  0  0  0  0  0  0  0  0  0  0
  -15.1266  -14.1143    6.6731 H   0  0  0  0  0  0  0  0  0  0  0  0
  -15.3149  -12.4185    4.4720 H   0  0  0  0  0  0  0  0  0  0  0  0
  -15.0038  -11.1380    5.3930 H   0  0  0  0  0  0  0  0  0  0  0  0
  -13.1489  -11.4015    4.3146 H   0  0  0  0  0  0  0  0  0  0  0  0
  -12.7855  -11.6099    5.9091 H   0  0  0  0  0  0  0  0  0  0  0  0
  -13.3384  -13.3822    2.9617 H   0  0  0  0  0  0  0  0  0  0  0  0
  -13.0674  -14.9942    3.7051 H   0  0  0  0  0  0  0  0  0  0  0  0
  -14.5919  -14.1032    3.9821 H   0  0  0  0  0  0  0  0  0  0  0  0
  -11.6001  -12.9376    4.1032 H   0  0  0  0  0  0  0  0  0  0  0  0
  -12.7217  -15.3074    6.2882 H   0  0  0  0  0  0  0  0  0  0  0  0
  -13.6305  -14.3032    8.4246 H   0  0  0  0  0  0  0  0  0  0  0  0
  -13.4310  -12.8416    7.4582 H   0  0  0  0  0  0  0  0  0  0  0  0
  -18.0989  -10.9830   12.4437 H   0  0  0  0  0  0  0  0  0  0  0  0
  -16.4254   -8.9661   12.1846 H   0  0  0  0  0  0  0  0  0  0  0  0
  -15.3720  -10.7025   13.6908 H   0  0  0  0  0  0  0  0  0  0  0  0
  -15.1460  -12.7992   11.5229 H   0  0  0  0  0  0  0  0  0  0  0  0
  -16.0666   -5.8317   11.2831 H   0  0  0  0  0  0  0  0  0  0  0  0
  -14.8894   -4.4965    9.2861 H   0  0  0  0  0  0  0  0  0  0  0  0
  -15.0021   -5.7276    8.6371 H   0  0  0  0  0  0  0  0  0  0  0  0
  -14.7589   -3.2711    1.4916 H   0  0  0  0  0  0  0  0  0  0  0  0
  -14.0016   -4.6806    0.8508 H   0  0  0  0  0  0  0  0  0  0  0  0
  -15.7348   -4.7334    1.0687 H   0  0  0  0  0  0  0  0  0  0  0  0
  -16.8196   -4.4926    3.7082 H   0  0  0  0  0  0  0  0  0  0  0  0
  -15.5995   -3.3998    4.3116 H   0  0  0  0  0  0  0  0  0  0  0  0
  -15.9793   -3.0939    2.9112 H   0  0  0  0  0  0  0  0  0  0  0  0
  -13.9524   -6.3682    1.6483 H   0  0  0  0  0  0  0  0  0  0  0  0
  -13.2162   -5.3943    2.6074 H   0  0  0  0  0  0  0  0  0  0  0  0
  -11.7170   -9.5975    8.3082 H   0  0  0  0  0  0  0  0  0  0  0  0
  -12.2676  -11.8103    8.0917 H   0  0  0  0  0  0  0  0  0  0  0  0
  -12.3016  -10.9039    7.0683 H   0  0  0  0  0  0  0  0  0  0  0  0
  -15.9297  -10.2581   12.1579 H   0  0  0  0  0  0  0  0  0  0  0  0
  -16.6482  -10.0359   10.4657 H   0  0  0  0  0  0  0  0  0  0  0  0
  -15.7005  -11.3761   11.1881 H   0  0  0  0  0  0  0  0  0  0  0  0
  -11.9837   -6.4692   12.5760 H   0  0  0  0  0  0  0  0  0  0  0  0
  -12.1680   -6.2231   12.3258 H   0  0  0  0  0  0  0  0  0  0  0  0
  -13.6736   -7.8946   13.6909 H   0  0  0  0  0  0  0  0  0  0  0  0
  -14.0436   -7.2698   13.2318 H   0  0  0  0  0  0  0  0  0  0  0  0
  -12.7515  -10.0103   11.2072 H   0  0  0  0  0  0  0  0  0  0  0  0
  -11.3715   -8.4334   16.0090 H   0  0  0  0  0  0  0  0  0  0  0  0
   -9.3263   -7.4773   14.5621 H   0  0  0  0  0  0  0  0  0  0  0  0
   -9.9660   -8.2144   13.4912 H   0  0  0  0  0  0  0  0  0  0  0  0
  -13.0417   -7.8364   14.8798 H   0  0  0  0  0  0  0  0  0  0  0  0
  -10.7522   -8.3146   11.0492 H   0  0  0  0  0  0  0  0  0  0  0  0
   -9.3064   -8.6316   11.6065 H   0  0  0  0  0  0  0  0  0  0  0  0
   -9.3140   -7.0584   10.6035 H   0  0  0  0  0  0  0  0  0  0  0  0
   -9.6378   -7.0268   12.3517 H   0  0  0  0  0  0  0  0  0  0  0  0
  -12.4237   -6.7642   10.1808 H   0  0  0  0  0  0  0  0  0  0  0  0
  -10.5770   -5.6057    9.5869 H   0  0  0  0  0  0  0  0  0  0  0  0
  -13.3527   -4.6662   10.7030 H   0  0  0  0  0  0  0  0  0  0  0  0
  -10.6516   -5.8480   12.1179 H   0  0  0  0  0  0  0  0  0  0  0  0
  -13.5734   -5.0080   13.7660 H   0  0  0  0  0  0  0  0  0  0  0  0
  -11.2076   -8.8088   12.6991 H   0  0  0  0  0  0  0  0  0  0  0  0
  -12.2639  -10.6900   12.3303 H   0  0  0  0  0  0  0  0  0  0  0  0
  -10.4059   -9.7606   10.5869 H   0  0  0  0  0  0  0  0  0  0  0  0
  -12.4589  -11.4479   10.5087 H   0  0  0  0  0  0  0  0  0  0  0  0
  -12.1375   -8.0478    8.0224 H   0  0  0  0  0  0  0  0  0  0  0  0
  -12.9228   -5.8455   10.5861 H   0  0  0  0  0  0  0  0  0  0  0  0
  -14.8162   -6.8988    9.5925 H   0  0  0  0  0  0  0  0  0  0  0  0
  -14.4348  -10.2333   10.2028 H   0  0  0  0  0  0  0  0  0  0  0  0
   -9.0881   -9.5382   15.7050 H   0  0  0  0  0  0  0  0  0  0  0  0
  -10.1220  -10.2809   17.1150 H   0  0  0  0  0  0  0  0  0  0  0  0
   -8.9035  -11.6130   14.4634 H   0  0  0  0  0  0  0  0  0  0  0  0
   -9.8096   -9.6461   12.9210 H   0  0  0  0  0  0  0  0  0  0  0  0
  -10.6272  -12.1016   12.7472 H   0  0  0  0  0  0  0  0  0  0  0  0
  -11.7738  -12.0903   15.5430 H   0  0  0  0  0  0  0  0  0  0  0  0
  -12.9664  -15.2834   15.0465 H   0  0  0  0  0  0  0  0  0  0  0  0
  -11.3412  -15.4873   15.7289 H   0  0  0  0  0  0  0  0  0  0  0  0
  -12.3977  -14.1937   16.3288 H   0  0  0  0  0  0  0  0  0  0  0  0
   -9.8254   -8.1343    9.6073 H   0  0  0  0  0  0  0  0  0  0  0  0
  -10.3071   -9.8826    9.1173 H   0  0  0  0  0  0  0  0  0  0  0  0
  -10.5631   -8.3110    8.2205 H   0  0  0  0  0  0  0  0  0  0  0  0
  -12.0043   -6.6457    7.6748 H   0  0  0  0  0  0  0  0  0  0  0  0
  -13.5677   -6.0722    9.0156 H   0  0  0  0  0  0  0  0  0  0  0  0
  -12.9257   -5.3681    8.3925 H   0  0  0  0  0  0  0  0  0  0  0  0
  -13.9209   -6.5331    7.6273 H   0  0  0  0  0  0  0  0  0  0  0  0
  -15.0174   -7.2883    8.2225 H   0  0  0  0  0  0  0  0  0  0  0  0
  -13.0537   -9.1535    7.9463 H   0  0  0  0  0  0  0  0  0  0  0  0
  -13.5741   -7.8659    7.2063 H   0  0  0  0  0  0  0  0  0  0  0  0
  -14.6650  -12.2611    7.6531 H   0  0  0  0  0  0  0  0  0  0  0  0
  -16.2099  -11.7870    8.3256 H   0  0  0  0  0  0  0  0  0  0  0  0
  -16.0022  -11.4769    6.3697 H   0  0  0  0  0  0  0  0  0  0  0  0
  -11.5131   -7.8323    4.8124 H   0  0  0  0  0  0  0  0  0  0  0  0
  -11.4407   -7.0665    6.0884 H   0  0  0  0  0  0  0  0  0  0  0  0
  -11.1940   -8.7654    5.5409 H   0  0  0  0  0  0  0  0  0  0  0  0
  -14.3275   -9.8809    6.0382 H   0  0  0  0  0  0  0  0  0  0  0  0
  -14.5961   -8.1695    6.2562 H   0  0  0  0  0  0  0  0  0  0  0  0
  -14.9477   -9.9451    4.3118 H   0  0  0  0  0  0  0  0  0  0  0  0
  -16.7824   -9.3881    5.7785 H   0  0  0  0  0  0  0  0  0  0  0  0
   -6.7576   -8.7003    6.0673 H   0  0  0  0  0  0  0  0  0  0  0  0
   -7.1752  -10.9215    4.2551 H   0  0  0  0  0  0  0  0  0  0  0  0
   -8.0429  -10.1711    7.6375 H   0  0  0  0  0  0  0  0  0  0  0  0
   -4.9063   -8.3700    5.1255 H   0  0  0  0  0  0  0  0  0  0  0  0
   -3.3288  -10.2815    4.5771 H   0  0  0  0  0  0  0  0  0  0  0  0
   -4.1256  -11.2475    5.7810 H   0  0  0  0  0  0  0  0  0  0  0  0
   -5.8383  -11.1753    5.0435 H   0  0  0  0  0  0  0  0  0  0  0  0
   -2.5560   -8.4088    6.0226 H   0  0  0  0  0  0  0  0  0  0  0  0
   -3.1926   -6.6116    7.5638 H   0  0  0  0  0  0  0  0  0  0  0  0
   -2.3099   -9.0298    8.3665 H   0  0  0  0  0  0  0  0  0  0  0  0
   -3.6505  -11.0958    7.1459 H   0  0  0  0  0  0  0  0  0  0  0  0
   -4.0028  -10.2518    9.5283 H   0  0  0  0  0  0  0  0  0  0  0  0
   -4.9130   -7.7240    8.4970 H   0  0  0  0  0  0  0  0  0  0  0  0
   -8.7171  -13.4782    3.7093 H   0  0  0  0  0  0  0  0  0  0  0  0
   -8.0445  -15.4329    3.0260 H   0  0  0  0  0  0  0  0  0  0  0  0
   -9.5175  -16.2508    3.6558 H   0  0  0  0  0  0  0  0  0  0  0  0
  -10.7458  -14.8743    2.2019 H   0  0  0  0  0  0  0  0  0  0  0  0
  -11.3306  -15.1025    4.6983 H   0  0  0  0  0  0  0  0  0  0  0  0
  -11.2453  -12.5490    2.8588 H   0  0  0  0  0  0  0  0  0  0  0  0
  -10.8025  -12.2379    6.2050 H   0  0  0  0  0  0  0  0  0  0  0  0
  -11.7016  -14.0068    7.2305 H   0  0  0  0  0  0  0  0  0  0  0  0
  2146  1  0  0  0  0
  2  3  1  0  0  0  0
  2  1  1  1  0  0  0
  4  5  1  0  0  0  0
  4132  1  0  0  0  0
  4154  1  6  0  0  0
  4  3  1  0  0  0  0
  5  6  1  0  0  0  0
  5  7  1  0  0  0  0
  5155  1  1  0  0  0
  6156  1  0  0  0  0
  6157  1  0  0  0  0
  6158  1  0  0  0  0
  8  7  1  0  0  0  0
  8  9  1  6  0  0  0
  8 10  1  0  0  0  0
 11 10  1  0  0  0  0
 11 12  1  0  0  0  0
 11 20  1  0  0  0  0
 11159  1  1  0  0  0
 12 14  1  0  0  0  0
 12160  1  1  0  0  0
 12 13  1  0  0  0  0
 13161  1  0  0  0  0
 14 15  1  0  0  0  0
 14 16  1  0  0  0  0
 14162  1  6  0  0  0
 15163  1  0  0  0  0
 16 19  1  0  0  0  0
 16164  1  6  0  0  0
 16 17  1  0  0  0  0
 17 18  1  0  0  0  0
 17165  1  0  0  0  0
 17166  1  0  0  0  0
 18167  1  0  0  0  0
 20 19  1  0  0  0  0
 20 21  1  0  0  0  0
 20168  1  1  0  0  0
 21 22  1  0  0  0  0
 22 23  2  0  0  0  0
 24 25  1  0  0  0  0
 24 68  1  0  0  0  0
 24128  1  0  0  0  0
 24 22  1  6  0  0  0
 25169  1  0  0  0  0
 25170  1  0  0  0  0
 26 25  1  0  0  0  0
 26 64  1  0  0  0  0
 26171  1  1  0  0  0
 26 27  1  0  0  0  0
 27 28  1  0  0  0  0
 28 29  2  0  0  0  0
 28 30  1  0  0  0  0
 30 31  1  0  0  0  0
 30 33  2  0  0  0  0
 31 32  1  0  0  0  0
 31172  1  0  0  0  0
 31173  1  0  0  0  0
 32174  1  0  0  0  0
 33 34  1  0  0  0  0
 33175  1  0  0  0  0
 34 35  1  0  0  0  0
 34176  1  0  0  0  0
 34177  1  0  0  0  0
 35178  1  0  0  0  0
 35179  1  0  0  0  0
 36 35  1  0  0  0  0
 36 37  1  0  0  0  0
 36 38  1  1  0  0  0
 36 62  1  0  0  0  0
 37180  1  0  0  0  0
 37181  1  0  0  0  0
 37182  1  0  0  0  0
 39 38  1  0  0  0  0
 39 40  1  0  0  0  0
 39183  1  1  0  0  0
 41 40  1  0  0  0  0
 41 42  1  0  0  0  0
 41184  1  6  0  0  0
 42185  1  0  0  0  0
 42186  1  0  0  0  0
 42187  1  0  0  0  0
 43 41  1  0  0  0  0
 43 58  1  0  0  0  0
 43188  1  6  0  0  0
 43 44  1  0  0  0  0
 44 45  1  0  0  0  0
 45 46  2  0  0  0  0
 45 47  1  0  0  0  0
 47 48  1  0  0  0  0
 47 50  2  0  0  0  0
 48 49  1  0  0  0  0
 48189  1  0  0  0  0
 48190  1  0  0  0  0
 49191  1  0  0  0  0
 50 51  1  0  0  0  0
 50192  1  0  0  0  0
 51 52  1  0  0  0  0
 51193  1  0  0  0  0
 51194  1  0  0  0  0
 52195  1  0  0  0  0
 52196  1  0  0  0  0
 53 52  1  0  0  0  0
 53 54  1  0  0  0  0
 53 55  1  6  0  0  0
 53 56  1  0  0  0  0
 54197  1  0  0  0  0
 54198  1  0  0  0  0
 54199  1  0  0  0  0
 55200  1  0  0  0  0
 56 57  2  0  0  0  0
 56201  1  0  0  0  0
 57202  1  0  0  0  0
 57203  1  0  0  0  0
 58 59  1  0  0  0  0
 58 60  1  0  0  0  0
 58204  1  1  0  0  0
 59205  1  0  0  0  0
 60 39  1  0  0  0  0
 60 61  1  0  0  0  0
 60206  1  1  0  0  0
 61207  1  0  0  0  0
 62 63  2  0  0  0  0
 62208  1  0  0  0  0
 63209  1  0  0  0  0
 63210  1  0  0  0  0
 64 67  1  0  0  0  0
 64 65  1  0  0  0  0
 64 66  1  0  0  0  0
 65211  1  0  0  0  0
 65212  1  0  0  0  0
 65213  1  0  0  0  0
 66214  1  0  0  0  0
 66215  1  0  0  0  0
 66216  1  0  0  0  0
 67217  1  0  0  0  0
 67218  1  0  0  0  0
 68 67  1  0  0  0  0
 68 70  1  0  0  0  0
 68 69  1  6  0  0  0
 70 71  2  0  0  0  0
 71 72  1  0  0  0  0
 71219  1  0  0  0  0
 72220  1  0  0  0  0
 72221  1  0  0  0  0
 73 72  1  0  0  0  0
 73 75  1  0  0  0  0
 73123  1  0  0  0  0
 73 74  1  6  0  0  0
 75 77  1  0  0  0  0
 75119  1  0  0  0  0
 75 76  1  1  0  0  0
 76222  1  0  0  0  0
 76223  1  0  0  0  0
 76224  1  0  0  0  0
 77 78  1  0  0  0  0
 77225  1  0  0  0  0
 77226  1  0  0  0  0
 78227  1  0  0  0  0
 78228  1  0  0  0  0
 79 78  1  0  0  0  0
 79116  1  0  0  0  0
 79 80  1  0  0  0  0
 79229  1  6  0  0  0
 81 80  1  0  0  0  0
 81 82  1  6  0  0  0
 81 83  1  0  0  0  0
 84 83  1  0  0  0  0
 84 85  1  0  0  0  0
 84230  1  1  0  0  0
 85 86  1  0  0  0  0
 85231  1  0  0  0  0
 85232  1  0  0  0  0
 87 86  1  0  0  0  0
 87 88  1  0  0  0  0
 87233  1  1  0  0  0
 89 88  1  0  0  0  0
 89 90  1  0  0  0  0
 89234  1  6  0  0  0
 90235  1  0  0  0  0
 90236  1  0  0  0  0
 90237  1  0  0  0  0
 91 89  1  0  0  0  0
 91 92  1  0  0  0  0
 91 93  1  0  0  0  0
 91238  1  6  0  0  0
 92239  1  0  0  0  0
 93 94  1  0  0  0  0
 93 95  1  0  0  0  0
 93240  1  6  0  0  0
 94241  1  0  0  0  0
 95 87  1  0  0  0  0
 95 96  1  0  0  0  0
 95242  1  1  0  0  0
 97 96  1  0  0  0  0
 97 98  1  1  0  0  0
 97 99  1  0  0  0  0
 99100  1  0  0  0  0
100243  1  0  0  0  0
100244  1  0  0  0  0
101100  1  0  0  0  0
101245  1  1  0  0  0
101102  1  0  0  0  0
102246  1  0  0  0  0
103101  1  0  0  0  0
103104  1  0  0  0  0
103105  1  0  0  0  0
103247  1  6  0  0  0
104248  1  0  0  0  0
105 97  1  0  0  0  0
105106  1  0  0  0  0
105249  1  6  0  0  0
106250  1  0  0  0  0
107 84  1  0  0  0  0
107109  1  0  0  0  0
107251  1  1  0  0  0
107108  1  0  0  0  0
108252  1  0  0  0  0
109110  1  0  0  0  0
109111  1  0  0  0  0
109253  1  1  0  0  0
110254  1  0  0  0  0
111 81  1  0  0  0  0
111112  1  0  0  0  0
111255  1  6  0  0  0
112113  1  0  0  0  0
112256  1  0  0  0  0
113114  1  0  0  0  0
113115  2  0  0  0  0
114257  1  0  0  0  0
114258  1  0  0  0  0
114259  1  0  0  0  0
116117  1  0  0  0  0
116118  1  0  0  0  0
117260  1  0  0  0  0
117261  1  0  0  0  0
117262  1  0  0  0  0
118263  1  0  0  0  0
118264  1  0  0  0  0
118265  1  0  0  0  0
119116  1  0  0  0  0
119121  1  0  0  0  0
119120  1  6  0  0  0
121122  1  0  0  0  0
121266  1  0  0  0  0
121267  1  0  0  0  0
122268  1  0  0  0  0
122269  1  0  0  0  0
123122  1  0  0  0  0
123125  1  0  0  0  0
123124  1  6  0  0  0
124270  1  0  0  0  0
124271  1  0  0  0  0
124272  1  0  0  0  0
125 70  1  0  0  0  0
125127  1  0  0  0  0
125126  1  1  0  0  0
126273  1  0  0  0  0
126274  1  0  0  0  0
126275  1  0  0  0  0
127276  1  0  0  0  0
127277  1  0  0  0  0
128127  1  0  0  0  0
128278  1  6  0  0  0
128129  1  0  0  0  0
129279  1  0  0  0  0
130  8  1  0  0  0  0
130131  1  0  0  0  0
130280  1  1  0  0  0
131281  1  0  0  0  0
132130  1  0  0  0  0
132282  1  1  0  0  0
132133  1  0  0  0  0
134133  1  0  0  0  0
134135  1  1  0  0  0
134136  1  0  0  0  0
137136  1  0  0  0  0
137138  1  0  0  0  0
137283  1  6  0  0  0
138139  1  0  0  0  0
138284  1  0  0  0  0
138285  1  0  0  0  0
139286  1  0  0  0  0
140137  1  0  0  0  0
140142  1  0  0  0  0
140287  1  6  0  0  0
140141  1  0  0  0  0
141288  1  0  0  0  0
142143  1  0  0  0  0
142144  1  0  0  0  0
142289  1  1  0  0  0
143290  1  0  0  0  0
144134  1  0  0  0  0
144145  1  0  0  0  0
144291  1  1  0  0  0
145292  1  0  0  0  0
147146  1  0  0  0  0
147148  1  0  0  0  0
147293  1  6  0  0  0
148149  1  0  0  0  0
148294  1  0  0  0  0
148295  1  0  0  0  0
149296  1  0  0  0  0
150147  1  0  0  0  0
150151  1  0  0  0  0
150152  1  0  0  0  0
150297  1  1  0  0  0
151298  1  0  0  0  0
152  2  1  0  0  0  0
152153  1  0  0  0  0
152299  1  6  0  0  0
153300  1  0  0  0  0
M  END
>  <DRUGBANK_ID>
DB17240

>  <COMMON_NAME>
Avicin D

>  <CAS_NUMBER>
197787-20-5

>  <UNII>
69451KN1RO

>  <SYNONYMS>
Elliptoside e

$$$$
