
 OpenBabel10282417203D

 56 59  0  0  0  0  0  0  0  0999 V2000
   -0.0385    1.2512    0.0122 C   0  0  1  0  0  0  0  0  0  0  0  0
    1.7506    1.8372    0.2008 O   0  0  0  0  0  0  0  0  0  0  0  0
    0.0068   -0.6428    0.6624 C   0  0  2  0  0  0  0  0  0  0  0  0
    2.9535    0.2597    0.2147 C   0  0  2  0  0  0  0  0  0  0  0  0
    1.7874   -1.3759    0.1101 C   0  0  2  0  0  0  0  0  0  0  0  0
   -1.1415   -1.4334    0.4923 O   0  0  0  0  0  0  0  0  0  0  0  0
   -1.3008    1.7440    0.6241 C   0  0  0  0  0  0  0  0  0  0  0  0
   -2.3692    0.8821    0.1500 O   0  0  0  0  0  0  0  0  0  0  0  0
    4.1191   -1.0101    3.1918 C   0  0  0  0  0  0  0  0  0  0  0  0
    3.9842   -1.2280    1.8433 C   0  0  0  0  0  0  0  0  0  0  0  0
    5.2970   -1.5421    3.7548 C   0  0  0  0  0  0  0  0  0  0  0  0
    4.5858   -2.1404    1.0623 N   0  0  0  0  0  0  0  0  0  0  0  0
    5.9470   -2.5218    3.0343 N   0  0  0  0  0  0  0  0  0  0  0  0
    5.5063   -2.8191    1.7790 C   0  0  0  0  0  0  0  0  0  0  0  0
    3.3425   -0.0700    1.4860 N   0  0  0  0  0  0  0  0  0  0  0  0
    2.9096    0.6620    2.5019 C   0  0  0  0  0  0  0  0  0  0  0  0
    3.1908   -0.0321    3.5619 N   0  0  0  0  0  0  0  0  0  0  0  0
   -3.6537   -1.4313   -0.4837 O   0  0  0  0  0  0  0  0  0  0  0  0
   -2.3877   -0.7000   -0.2268 P   0  0  3  0  0  0  0  0  0  0  0  0
   -1.6464   -0.6888   -1.6249 O   0  0  0  0  0  0  0  0  0  0  0  0
    5.7960    0.2943    5.4445 C   0  0  0  0  0  0  0  0  0  0  0  0
    4.9071    1.3369    4.8218 C   0  0  0  0  0  0  0  0  0  0  0  0
    5.4295    1.8987    3.4465 C   0  0  0  0  0  0  0  0  0  0  0  0
    6.0335    0.9920    2.3673 C   0  0  0  0  0  0  0  0  0  0  0  0
    2.3534   -1.2617   -2.5541 C   0  0  0  0  0  0  0  0  0  0  0  0
    1.9681   -1.8845   -1.3450 O   0  0  0  0  0  0  0  0  0  0  0  0
    2.8037    0.2541   -2.6576 C   0  0  0  0  0  0  0  0  0  0  0  0
    1.7532    1.1741   -2.1376 C   0  0  0  0  0  0  0  0  0  0  0  0
    1.2655    0.3138   -1.0651 C   0  0  0  0  0  0  0  0  0  0  0  0
    2.2155   -1.8786   -3.6059 O   0  0  0  0  0  0  0  0  0  0  0  0
    5.9775   -0.9414    4.8495 N   0  0  0  0  0  0  0  0  0  0  0  0
    6.3758    0.5760    6.4963 O   0  0  0  0  0  0  0  0  0  0  0  0
   -0.3487    1.3110   -1.1169 H   0  0  0  0  0  0  0  0  0  0  0  0
    0.1462   -0.5270    1.7513 H   0  0  0  0  0  0  0  0  0  0  0  0
    3.6708    0.1157   -0.5732 H   0  0  0  0  0  0  0  0  0  0  0  0
    2.0363   -2.1614    0.8069 H   0  0  0  0  0  0  0  0  0  0  0  0
   -1.3832    2.7574    0.2334 H   0  0  0  0  0  0  0  0  0  0  0  0
   -1.0989    1.6112    1.6679 H   0  0  0  0  0  0  0  0  0  0  0  0
    5.9536   -3.6793    1.2772 H   0  0  0  0  0  0  0  0  0  0  0  0
    2.5017    1.6646    2.3488 H   0  0  0  0  0  0  0  0  0  0  0  0
   -0.8032   -0.6977   -1.2034 H   0  0  0  0  0  0  0  0  0  0  0  0
    3.9126    0.9238    4.9931 H   0  0  0  0  0  0  0  0  0  0  0  0
    4.7340    2.2043    5.4694 H   0  0  0  0  0  0  0  0  0  0  0  0
    4.6249    2.4946    2.9909 H   0  0  0  0  0  0  0  0  0  0  0  0
    6.2397    2.5823    3.6746 H   0  0  0  0  0  0  0  0  0  0  0  0
    5.2284    0.5444    1.8718 H   0  0  0  0  0  0  0  0  0  0  0  0
    6.4304    1.3816    1.4297 H   0  0  0  0  0  0  0  0  0  0  0  0
    6.6733    0.2011    2.7449 H   0  0  0  0  0  0  0  0  0  0  0  0
    3.7736    0.4620   -2.2114 H   0  0  0  0  0  0  0  0  0  0  0  0
    2.9873    0.5562   -3.6830 H   0  0  0  0  0  0  0  0  0  0  0  0
    2.0568    2.2125   -1.9490 H   0  0  0  0  0  0  0  0  0  0  0  0
    0.8971    1.2698   -2.8151 H   0  0  0  0  0  0  0  0  0  0  0  0
    1.4017    0.1434    0.1471 H   0  0  0  0  0  0  0  0  0  0  0  0
    1.1747    0.4963    0.2933 H   0  0  0  0  0  0  0  0  0  0  0  0
    0.6122   -0.4131   -1.4429 H   0  0  0  0  0  0  0  0  0  0  0  0
    6.7961   -1.4344    5.1863 H   0  0  0  0  0  0  0  0  0  0  0  0
  1  2  1  0  0  0  0
  1  3  1  0  0  0  0
  1  7  1  0  0  0  0
  1 33  1  6  0  0  0
  2  4  1  0  0  0  0
  3  5  1  0  0  0  0
  3  6  1  0  0  0  0
  3 34  1  1  0  0  0
  4  5  1  0  0  0  0
  4 15  1  0  0  0  0
  4 35  1  6  0  0  0
  5 36  1  1  0  0  0
  5 26  1  0  0  0  0
  6 19  1  0  0  0  0
  7 37  1  0  0  0  0
  7 38  1  0  0  0  0
  8  7  1  0  0  0  0
  9 11  1  0  0  0  0
  9 10  2  0  0  0  0
  9 17  1  0  0  0  0
 10 12  1  0  0  0  0
 10 15  1  0  0  0  0
 11 13  2  0  0  0  0
 12 14  2  0  0  0  0
 13 14  1  0  0  0  0
 14 39  1  0  0  0  0
 16 15  1  0  0  0  0
 16 40  1  0  0  0  0
 17 16  2  0  0  0  0
 19  8  1  0  0  0  0
 19 18  2  0  0  0  0
 19 20  1  0  0  0  0
 20 41  1  0  0  0  0
 21 32  2  0  0  0  0
 22 21  1  0  0  0  0
 22 42  1  0  0  0  0
 22 43  1  0  0  0  0
 23 22  1  0  0  0  0
 23 44  1  0  0  0  0
 23 45  1  0  0  0  0
 24 23  1  0  0  0  0
 24 46  1  0  0  0  0
 24 47  1  0  0  0  0
 24 48  1  0  0  0  0
 25 30  2  0  0  0  0
 26 25  1  0  0  0  0
 27 25  1  0  0  0  0
 27 49  1  0  0  0  0
 27 50  1  0  0  0  0
 28 27  1  0  0  0  0
 28 51  1  0  0  0  0
 28 52  1  0  0  0  0
 29 28  1  0  0  0  0
 29 53  1  0  0  0  0
 29 54  1  0  0  0  0
 29 55  1  0  0  0  0
 31 11  1  0  0  0  0
 31 21  1  0  0  0  0
 31 56  1  0  0  0  0
M  END
>  <DRUGBANK_ID>
DB13242

>  <COMMON_NAME>
Bucladesine

>  <CAS_NUMBER>
362-74-3

>  <UNII>
63X7MBT2LQ

>  <SYNONYMS>
3',5'-cyclic AMP dibutyrate; bucladesina; Bucladesine; dibutyryl 3',5'-cyclic AMP; dibutyryl adenosine 3',5'-cyclic phosphate; dibutyryl adenosine 3',5'-monophosphate; dibutyryl cAMP; dibutyryl cyclic 3',5'-adenylic acid; dibutyryl cyclic adenosine 3',5'-monophosphate; dibutyryl cyclic AMP; dibutyryl-3',5'-AMP; dibutyryladenosine 3',5'-cyclic monophosphate; dibutyryladenosine cyclic monophosphate

$$$$
