
 OpenBabel10282417233D

 30 31  0  0  0  0  0  0  0  0999 V2000
    2.3639   -0.0329   -0.1633 N   0  0  0  0  0  0  0  0  0  0  0  0
    0.9902   -0.0353    0.0515 C   0  0  0  0  0  0  0  0  0  0  0  0
    0.3022    1.1697    0.1109 C   0  0  0  0  0  0  0  0  0  0  0  0
   -1.0831    1.1816    0.2529 C   0  0  0  0  0  0  0  0  0  0  0  0
   -1.8367    0.0037    0.1397 C   0  0  0  0  0  0  0  0  0  0  0  0
   -1.1521   -1.2101    0.0394 C   0  0  0  0  0  0  0  0  0  0  0  0
    0.2517   -1.2236    0.0117 C   0  0  0  0  0  0  0  0  0  0  0  0
   -3.3402    0.0168    0.1014 C   0  0  0  0  0  0  0  0  0  0  0  0
   -3.9701   -1.0367    0.2395 O   0  0  0  0  0  0  0  0  0  0  0  0
   -4.0230    1.2133   -0.0071 N   0  0  0  0  0  0  0  0  0  0  0  0
   -3.7608    2.2703   -0.9158 C   0  0  0  0  0  0  0  0  0  0  0  0
   -2.7722    2.1231   -1.9041 C   0  0  0  0  0  0  0  0  0  0  0  0
   -2.3226    3.2028   -2.6470 C   0  0  0  0  0  0  0  0  0  0  0  0
   -2.9792    4.4139   -2.5315 C   0  0  0  0  0  0  0  0  0  0  0  0
   -4.0629    4.5409   -1.6525 C   0  0  0  0  0  0  0  0  0  0  0  0
   -4.4808    3.4777   -0.8320 C   0  0  0  0  0  0  0  0  0  0  0  0
   -5.4133    3.7411    0.1810 N   0  0  0  0  0  0  0  0  0  0  0  0
    2.8676   -0.8870    0.0441 H   0  0  0  0  0  0  0  0  0  0  0  0
    2.8600    0.8253    0.0545 H   0  0  0  0  0  0  0  0  0  0  0  0
    0.8275    2.1193    0.0526 H   0  0  0  0  0  0  0  0  0  0  0  0
   -1.5579    2.1510    0.3661 H   0  0  0  0  0  0  0  0  0  0  0  0
   -1.7003   -2.1487   -0.0226 H   0  0  0  0  0  0  0  0  0  0  0  0
    0.7664   -2.1785   -0.0497 H   0  0  0  0  0  0  0  0  0  0  0  0
   -4.9213    1.2238    0.4526 H   0  0  0  0  0  0  0  0  0  0  0  0
   -2.2674    1.1758   -2.0654 H   0  0  0  0  0  0  0  0  0  0  0  0
   -1.4566    3.0812   -3.2921 H   0  0  0  0  0  0  0  0  0  0  0  0
   -2.6505    5.2570   -3.1315 H   0  0  0  0  0  0  0  0  0  0  0  0
   -4.5697    5.5005   -1.6012 H   0  0  0  0  0  0  0  0  0  0  0  0
   -6.0268    4.5367    0.0338 H   0  0  0  0  0  0  0  0  0  0  0  0
   -5.8590    2.9620    0.6449 H   0  0  0  0  0  0  0  0  0  0  0  0
  1  2  1  0  0  0  0
  1 18  1  0  0  0  0
  1 19  1  0  0  0  0
  2  3  2  0  0  0  0
  2  7  1  0  0  0  0
  3  4  1  0  0  0  0
  3 20  1  0  0  0  0
  4  5  2  0  0  0  0
  4 21  1  0  0  0  0
  5  6  1  0  0  0  0
  5  8  1  0  0  0  0
  6  7  2  0  0  0  0
  6 22  1  0  0  0  0
  7 23  1  0  0  0  0
  8  9  2  0  0  0  0
  8 10  1  0  0  0  0
 10 11  1  0  0  0  0
 10 24  1  0  0  0  0
 11 12  2  0  0  0  0
 11 16  1  0  0  0  0
 12 13  1  0  0  0  0
 12 25  1  0  0  0  0
 13 14  2  0  0  0  0
 13 26  1  0  0  0  0
 14 15  1  0  0  0  0
 14 27  1  0  0  0  0
 15 16  2  0  0  0  0
 15 28  1  0  0  0  0
 16 17  1  0  0  0  0
 17 29  1  0  0  0  0
 17 30  1  0  0  0  0
M  END
>  <DRUGBANK_ID>
DB16142

>  <COMMON_NAME>
Acetyldinaline

>  <CAS_NUMBER>
58338-59-3

>  <UNII>
RG9G4Z82PY

>  <SYNONYMS>
Dinalin; Dinaline

$$$$
