
 OpenBabel10282417133D

 16 16  0  0  0  0  0  0  0  0999 V2000
    1.0039   -0.0303   -0.0967 S   0  0  0  0  0  0  0  0  0  0  0  0
    0.4747    1.4159    0.8734 C   0  0  0  0  0  0  0  0  0  0  0  0
    0.9877    1.4889    2.2982 C   0  0  0  0  0  0  0  0  0  0  0  0
    1.2189    0.3103    3.0376 C   0  0  0  0  0  0  0  0  0  0  0  0
    1.6697    0.3483    4.3596 C   0  0  0  0  0  0  0  0  0  0  0  0
    1.8598    1.5675    4.9943 C   0  0  0  0  0  0  0  0  0  0  0  0
    1.5985    2.7501    4.3075 C   0  0  0  0  0  0  0  0  0  0  0  0
    1.1656    2.7153    2.9721 C   0  0  0  0  0  0  0  0  0  0  0  0
    0.7959    4.5926    2.0875 I   0  0  0  0  0  0  0  0  0  0  0  0
    2.3175    0.1084    0.1356 H   0  0  0  0  0  0  0  0  0  0  0  0
    0.8307    2.2684    0.2914 H   0  0  0  0  0  0  0  0  0  0  0  0
   -0.6200    1.4413    0.8870 H   0  0  0  0  0  0  0  0  0  0  0  0
    1.0509   -0.6696    2.5948 H   0  0  0  0  0  0  0  0  0  0  0  0
    1.8646   -0.5807    4.8901 H   0  0  0  0  0  0  0  0  0  0  0  0
    2.2013    1.5986    6.0258 H   0  0  0  0  0  0  0  0  0  0  0  0
    1.7337    3.6954    4.8281 H   0  0  0  0  0  0  0  0  0  0  0  0
  1  2  1  0  0  0  0
  1 10  1  0  0  0  0
  2  3  1  0  0  0  0
  2 11  1  0  0  0  0
  2 12  1  0  0  0  0
  3  4  2  0  0  0  0
  3  8  1  0  0  0  0
  4  5  1  0  0  0  0
  4 13  1  0  0  0  0
  5  6  2  0  0  0  0
  5 14  1  0  0  0  0
  6  7  1  0  0  0  0
  6 15  1  0  0  0  0
  7  8  2  0  0  0  0
  7 16  1  0  0  0  0
  8  9  1  0  0  0  0
M  END
>  <DRUGBANK_ID>
DB03630

>  <SECONDARY_ACCESSION_NUMBERS>
EXPT01829

>  <COMMON_NAME>
2-Iodobenzylthio Group

$$$$
