
 OpenBabel10282417173D

 67 71  0  0  1  0  0  0  0  0999 V2000
   -0.9860   -0.5714    3.6479 C   0  0  0  0  0  0  0  0  0  0  0  0
    0.4389    0.0934    3.5103 C   0  0  0  0  0  0  0  0  0  0  0  0
    0.4649    1.2278    4.0275 O   0  0  0  0  0  0  0  0  0  0  0  0
    1.7790   -0.2964    2.5866 C   0  0  1  0  0  0  0  0  0  0  0  0
    3.6351    0.1231    2.9699 C   0  0  0  0  0  0  0  0  0  0  0  0
    4.1497   -0.8066    4.0990 C   0  0  0  0  0  0  0  0  0  0  0  0
    2.7722   -1.2656    4.1632 C   0  0  2  0  0  0  0  0  0  0  0  0
    2.3949   -1.6450    2.5205 C   0  0  2  0  0  0  0  0  0  0  0  0
    2.6775   -3.1326    2.6522 C   0  0  0  0  0  0  0  0  0  0  0  0
    2.0184   -3.9938    3.8714 C   0  0  1  0  0  0  0  0  0  0  0  0
    2.2908   -3.5864    5.4831 C   0  0  0  0  0  0  0  0  0  0  0  0
    2.4598   -4.1949    6.7837 C   0  0  0  0  0  0  0  0  0  0  0  0
    2.5615   -5.6597    7.9366 C   0  0  0  0  0  0  0  0  0  0  0  0
    3.9793   -5.8650    8.7563 C   0  0  0  0  0  0  0  0  0  0  0  0
    4.6363   -4.9933    7.8474 C   0  0  0  0  0  0  0  0  0  0  0  0
    4.9708   -5.4259    6.6750 O   0  0  0  0  0  0  0  0  0  0  0  0
    4.3061   -3.6148    8.1671 C   0  0  0  0  0  0  0  0  0  0  0  0
    3.1575   -3.2028    7.6357 C   0  0  0  0  0  0  0  0  0  0  0  0
    2.9268   -1.7302    7.7514 C   0  0  0  0  0  0  0  0  0  0  0  0
    2.4690   -1.0162    6.5452 C   0  0  0  0  0  0  0  0  0  0  0  0
    2.2192   -1.9908    5.3838 C   0  0  1  0  0  0  0  0  0  0  0  0
    0.5411   -3.9706    3.4891 C   0  0  0  0  0  0  0  0  0  0  0  0
    0.0856   -4.3878    2.2300 C   0  0  0  0  0  0  0  0  0  0  0  0
   -1.2855   -4.4426    1.9476 C   0  0  0  0  0  0  0  0  0  0  0  0
   -2.2538   -4.0435    2.8813 C   0  0  0  0  0  0  0  0  0  0  0  0
   -1.7657   -3.6126    4.1080 C   0  0  0  0  0  0  0  0  0  0  0  0
   -0.4151   -3.5292    4.3826 C   0  0  0  0  0  0  0  0  0  0  0  0
   -3.6071   -4.0315    2.6115 N   0  0  0  0  0  0  0  0  0  0  0  0
   -4.5959   -3.4882    3.5364 C   0  0  0  0  0  0  0  0  0  0  0  0
   -4.1027   -4.5417    1.3450 C   0  0  0  0  0  0  0  0  0  0  0  0
    3.0861   -1.1678    0.9050 C   0  0  0  0  0  0  0  0  0  0  0  0
    1.1570    0.2146    1.3822 O   0  0  0  0  0  0  0  0  0  0  0  0
   -1.2493   -0.7174    4.7174 H   0  0  0  0  0  0  0  0  0  0  0  0
   -1.4019   -1.3964    3.0649 H   0  0  0  0  0  0  0  0  0  0  0  0
   -1.6851    0.2260    3.3551 H   0  0  0  0  0  0  0  0  0  0  0  0
    4.2739    0.9959    2.7884 H   0  0  0  0  0  0  0  0  0  0  0  0
    4.2697   -0.4076    2.2522 H   0  0  0  0  0  0  0  0  0  0  0  0
    4.5927   -0.2728    4.9404 H   0  0  0  0  0  0  0  0  0  0  0  0
    4.7787   -1.6790    3.8681 H   0  0  0  0  0  0  0  0  0  0  0  0
    2.3317   -0.2801    4.4719 H   0  0  0  0  0  0  0  0  0  0  0  0
    2.4577   -3.5571    1.6617 H   0  0  0  0  0  0  0  0  0  0  0  0
    3.7764   -3.2631    2.6993 H   0  0  0  0  0  0  0  0  0  0  0  0
    2.4024   -5.0089    3.7303 H   0  0  0  0  0  0  0  0  0  0  0  0
    2.4041   -6.6821    7.5613 H   0  0  0  0  0  0  0  0  0  0  0  0
    1.8053   -5.5569    8.7508 H   0  0  0  0  0  0  0  0  0  0  0  0
    4.5435   -6.8140    8.7466 H   0  0  0  0  0  0  0  0  0  0  0  0
    4.0750   -5.4491    9.7867 H   0  0  0  0  0  0  0  0  0  0  0  0
    4.4530   -3.2366    9.1788 H   0  0  0  0  0  0  0  0  0  0  0  0
    3.9182   -1.2857    7.9261 H   0  0  0  0  0  0  0  0  0  0  0  0
    2.2668   -1.4676    8.5712 H   0  0  0  0  0  0  0  0  0  0  0  0
    3.1762   -0.1925    6.3265 H   0  0  0  0  0  0  0  0  0  0  0  0
    1.5671   -0.4057    6.7343 H   0  0  0  0  0  0  0  0  0  0  0  0
    1.1459   -1.8142    5.3208 H   0  0  0  0  0  0  0  0  0  0  0  0
    0.7736   -4.6878    1.4409 H   0  0  0  0  0  0  0  0  0  0  0  0
   -1.5704   -4.8296    0.9738 H   0  0  0  0  0  0  0  0  0  0  0  0
   -2.3965   -3.2542    4.9081 H   0  0  0  0  0  0  0  0  0  0  0  0
   -0.1815   -3.0620    5.3265 H   0  0  0  0  0  0  0  0  0  0  0  0
   -5.1646   -2.6896    3.0514 H   0  0  0  0  0  0  0  0  0  0  0  0
   -5.2788   -4.2812    3.8522 H   0  0  0  0  0  0  0  0  0  0  0  0
   -4.1989   -3.0427    4.4503 H   0  0  0  0  0  0  0  0  0  0  0  0
   -3.7113   -3.9551    0.5062 H   0  0  0  0  0  0  0  0  0  0  0  0
   -3.8190   -5.5919    1.2175 H   0  0  0  0  0  0  0  0  0  0  0  0
   -5.1944   -4.4898    1.2998 H   0  0  0  0  0  0  0  0  0  0  0  0
    2.4694   -1.5408    0.0830 H   0  0  0  0  0  0  0  0  0  0  0  0
    3.0424   -0.0448    0.7427 H   0  0  0  0  0  0  0  0  0  0  0  0
    4.1455   -1.3254    0.6726 H   0  0  0  0  0  0  0  0  0  0  0  0
    0.9766   -0.4829    0.7236 H   0  0  0  0  0  0  0  0  0  0  0  0
  1  2  1  0  0  0  0
  1 33  1  0  0  0  0
  1 34  1  0  0  0  0
  1 35  1  0  0  0  0
  2  3  2  0  0  0  0
  4  5  1  0  0  0  0
  4  8  1  0  0  0  0
  4 32  1  6  0  0  0
  4  2  1  0  0  0  0
  5  6  1  0  0  0  0
  5 36  1  0  0  0  0
  5 37  1  0  0  0  0
  6 38  1  0  0  0  0
  6 39  1  0  0  0  0
  7  6  1  0  0  0  0
  7  8  1  0  0  0  0
  7 21  1  0  0  0  0
  7 40  1  6  0  0  0
  8  9  1  0  0  0  0
  8 31  1  1  0  0  0
  9 10  1  0  0  0  0
  9 41  1  0  0  0  0
  9 42  1  0  0  0  0
 10 11  1  0  0  0  0
 10 22  1  0  0  0  0
 10 43  1  6  0  0  0
 11 12  2  0  0  0  0
 11 21  1  0  0  0  0
 12 13  1  0  0  0  0
 12 18  1  0  0  0  0
 13 14  1  0  0  0  0
 13 44  1  0  0  0  0
 13 45  1  0  0  0  0
 14 15  1  0  0  0  0
 14 46  1  0  0  0  0
 14 47  1  0  0  0  0
 15 16  2  0  0  0  0
 15 17  1  0  0  0  0
 17 18  2  0  0  0  0
 17 48  1  0  0  0  0
 18 19  1  0  0  0  0
 19 20  1  0  0  0  0
 19 49  1  0  0  0  0
 19 50  1  0  0  0  0
 20 51  1  0  0  0  0
 20 52  1  0  0  0  0
 21 20  1  0  0  0  0
 21 53  1  6  0  0  0
 22 23  2  0  0  0  0
 22 27  1  0  0  0  0
 23 24  1  0  0  0  0
 23 54  1  0  0  0  0
 24 25  2  0  0  0  0
 24 55  1  0  0  0  0
 25 26  1  0  0  0  0
 25 28  1  0  0  0  0
 26 27  2  0  0  0  0
 26 56  1  0  0  0  0
 27 57  1  0  0  0  0
 28 29  1  0  0  0  0
 28 30  1  0  0  0  0
 29 58  1  0  0  0  0
 29 59  1  0  0  0  0
 29 60  1  0  0  0  0
 30 61  1  0  0  0  0
 30 62  1  0  0  0  0
 30 63  1  0  0  0  0
 31 64  1  0  0  0  0
 31 65  1  0  0  0  0
 31 66  1  0  0  0  0
 32 67  1  0  0  0  0
M  END
>  <DRUGBANK_ID>
DB08867

>  <SECONDARY_ACCESSION_NUMBERS>
DB05366

>  <COMMON_NAME>
Ulipristal

>  <CAS_NUMBER>
159811-51-5

>  <UNII>
6J5J15Q2X8

>  <SYNONYMS>
Ulipristal

$$$$
