
 OpenBabel10282417233D

 61 64  0  0  1  0  0  0  0  0999 V2000
    0.1958    0.2157    0.7060 C   0  0  0  0  0  0  0  0  0  0  0  0
    0.4274    1.4188   -0.2664 C   0  0  0  0  0  0  0  0  0  0  0  0
    1.3013    1.2804   -1.5556 O   0  0  0  0  0  0  0  0  0  0  0  0
    2.5520    1.0032   -2.1718 C   0  0  0  0  0  0  0  0  0  0  0  0
    3.5675    0.1788   -1.7413 C   0  0  0  0  0  0  0  0  0  0  0  0
    3.3546   -1.0138   -1.1171 O   0  0  0  0  0  0  0  0  0  0  0  0
    2.0484   -0.9151   -0.6928 C   0  0  0  0  0  0  0  0  0  0  0  0
    4.9290    0.4088   -2.0019 C   0  0  0  0  0  0  0  0  0  0  0  0
    5.3546    1.4068   -2.8506 C   0  0  0  0  0  0  0  0  0  0  0  0
    4.3533    2.0346   -3.5500 C   0  0  0  0  0  0  0  0  0  0  0  0
    2.9986    1.6959   -3.3042 C   0  0  0  0  0  0  0  0  0  0  0  0
    4.4344    3.4816   -4.0229 C   0  0  1  0  0  0  0  0  0  0  0  0
    3.9187    3.5009   -5.6115 C   0  0  0  0  0  0  0  0  0  0  0  0
    2.2067    3.7104   -6.1200 S   0  0  0  0  0  0  0  0  0  0  0  0
    1.8953    5.3694   -5.7117 C   0  0  0  0  0  0  0  0  0  0  0  0
    2.0575    3.7588   -7.5947 O   0  0  0  0  0  0  0  0  0  0  0  0
    1.3984    2.7891   -5.4440 O   0  0  0  0  0  0  0  0  0  0  0  0
    3.8375    4.2641   -2.6176 N   0  0  0  0  0  0  0  0  0  0  0  0
    3.0027    3.5998   -1.6150 C   0  0  0  0  0  0  0  0  0  0  0  0
    1.5459    3.9050   -2.1600 C   0  0  0  0  0  0  0  0  0  0  0  0
    0.4964    3.1278   -2.8596 C   0  0  0  0  0  0  0  0  0  0  0  0
   -0.5244    3.5826   -3.6663 C   0  0  0  0  0  0  0  0  0  0  0  0
   -0.4620    4.9280   -3.8881 C   0  0  0  0  0  0  0  0  0  0  0  0
    0.5903    5.7839   -3.2830 C   0  0  0  0  0  0  0  0  0  0  0  0
    0.6343    7.0691   -3.8816 N   0  0  0  0  0  0  0  0  0  0  0  0
    1.6786    7.9721   -4.0755 C   0  0  0  0  0  0  0  0  0  0  0  0
    1.4327    9.0999   -4.4649 O   0  0  0  0  0  0  0  0  0  0  0  0
    3.0630    7.6028   -3.7060 C   0  0  0  0  0  0  0  0  0  0  0  0
    4.4612    7.9655   -4.1206 C   0  0  0  0  0  0  0  0  0  0  0  0
    3.9968    6.6579   -4.5514 C   0  0  0  0  0  0  0  0  0  0  0  0
    1.6196    5.2448   -2.4424 C   0  0  0  0  0  0  0  0  0  0  0  0
    3.1988    5.4755   -2.3161 C   0  0  0  0  0  0  0  0  0  0  0  0
    3.7887    6.2451   -1.5572 O   0  0  0  0  0  0  0  0  0  0  0  0
   -0.1775   -0.6394    0.1271 H   0  0  0  0  0  0  0  0  0  0  0  0
   -0.4552    0.2961    1.5795 H   0  0  0  0  0  0  0  0  0  0  0  0
    1.1231   -0.0181    1.2395 H   0  0  0  0  0  0  0  0  0  0  0  0
   -0.5945    1.6572   -0.6337 H   0  0  0  0  0  0  0  0  0  0  0  0
    0.7176    2.3098    0.3093 H   0  0  0  0  0  0  0  0  0  0  0  0
    2.1547    0.0023   -0.0997 H   0  0  0  0  0  0  0  0  0  0  0  0
    1.2980   -0.8334   -1.5132 H   0  0  0  0  0  0  0  0  0  0  0  0
    1.7367   -1.7023   -0.0370 H   0  0  0  0  0  0  0  0  0  0  0  0
    5.6225   -0.1782   -1.4198 H   0  0  0  0  0  0  0  0  0  0  0  0
    6.3907    1.7283   -2.8566 H   0  0  0  0  0  0  0  0  0  0  0  0
    2.4073    2.4778   -3.7292 H   0  0  0  0  0  0  0  0  0  0  0  0
    5.5255    3.7181   -4.1038 H   0  0  0  0  0  0  0  0  0  0  0  0
    4.5074    4.1751   -6.2507 H   0  0  0  0  0  0  0  0  0  0  0  0
    4.1192    2.4956   -6.0254 H   0  0  0  0  0  0  0  0  0  0  0  0
    2.4551    6.0838   -6.3009 H   0  0  0  0  0  0  0  0  0  0  0  0
    0.8618    5.6504   -5.8465 H   0  0  0  0  0  0  0  0  0  0  0  0
    2.2270    5.3972   -4.6947 H   0  0  0  0  0  0  0  0  0  0  0  0
    3.0732    4.1392   -0.6412 H   0  0  0  0  0  0  0  0  0  0  0  0
    3.4979    2.7152   -1.2277 H   0  0  0  0  0  0  0  0  0  0  0  0
    0.5723    2.0645   -3.1388 H   0  0  0  0  0  0  0  0  0  0  0  0
   -1.0703    2.8534   -4.2976 H   0  0  0  0  0  0  0  0  0  0  0  0
   -1.0325    5.2238   -4.7817 H   0  0  0  0  0  0  0  0  0  0  0  0
   -0.1969    7.3239   -4.4099 H   0  0  0  0  0  0  0  0  0  0  0  0
    3.0350    7.7213   -2.6312 H   0  0  0  0  0  0  0  0  0  0  0  0
    4.6599    8.6091   -4.9537 H   0  0  0  0  0  0  0  0  0  0  0  0
    5.2485    7.8819   -3.3702 H   0  0  0  0  0  0  0  0  0  0  0  0
    4.3545    5.7453   -4.1290 H   0  0  0  0  0  0  0  0  0  0  0  0
    4.1666    6.4921   -5.6085 H   0  0  0  0  0  0  0  0  0  0  0  0
  1  2  1  0  0  0  0
  1 34  1  0  0  0  0
  1 35  1  0  0  0  0
  1 36  1  0  0  0  0
  2  3  1  0  0  0  0
  2 37  1  0  0  0  0
  2 38  1  0  0  0  0
  3  4  1  0  0  0  0
  4  5  2  0  0  0  0
  4 11  1  0  0  0  0
  5  6  1  0  0  0  0
  5  8  1  0  0  0  0
  6  7  1  0  0  0  0
  7 39  1  0  0  0  0
  7 40  1  0  0  0  0
  7 41  1  0  0  0  0
  8  9  2  0  0  0  0
  8 42  1  0  0  0  0
  9 10  1  0  0  0  0
  9 43  1  0  0  0  0
 10 11  2  0  0  0  0
 11 44  1  0  0  0  0
 12 10  1  0  0  0  0
 12 13  1  0  0  0  0
 12 18  1  0  0  0  0
 12 45  1  6  0  0  0
 13 14  1  0  0  0  0
 13 46  1  0  0  0  0
 13 47  1  0  0  0  0
 14 15  1  0  0  0  0
 14 16  2  0  0  0  0
 14 17  2  0  0  0  0
 15 48  1  0  0  0  0
 15 49  1  0  0  0  0
 15 50  1  0  0  0  0
 18 19  1  0  0  0  0
 18 32  1  0  0  0  0
 19 20  1  0  0  0  0
 19 51  1  0  0  0  0
 19 52  1  0  0  0  0
 20 21  2  0  0  0  0
 20 31  1  0  0  0  0
 21 22  1  0  0  0  0
 21 53  1  0  0  0  0
 22 23  2  0  0  0  0
 22 54  1  0  0  0  0
 23 24  1  0  0  0  0
 23 55  1  0  0  0  0
 24 25  1  0  0  0  0
 24 31  2  0  0  0  0
 25 26  1  0  0  0  0
 25 56  1  0  0  0  0
 26 27  2  0  0  0  0
 26 28  1  0  0  0  0
 28 29  1  0  0  0  0
 28 30  1  0  0  0  0
 28 57  1  0  0  0  0
 29 30  1  0  0  0  0
 29 58  1  0  0  0  0
 29 59  1  0  0  0  0
 30 60  1  0  0  0  0
 30 61  1  0  0  0  0
 31 32  1  0  0  0  0
 32 33  2  0  0  0  0
M  END
>  <DRUGBANK_ID>
DB16242

>  <COMMON_NAME>
CC-11050

>  <CAS_NUMBER>
340019-69-4

>  <UNII>
1Z08G7438A

$$$$
