
 OpenBabel10282417203D

 70 70  0  0  0  0  0  0  0  0999 V2000
   -5.3826    2.1875   11.0871 C   0  0  1  0  0  0  0  0  0  0  0  0
   -4.4158    1.3840   10.2327 C   0  0  1  0  0  0  0  0  0  0  0  0
   -6.5265    1.2927   11.5356 C   0  0  1  0  0  0  0  0  0  0  0  0
   -4.7012    2.6915   12.2264 O   0  0  0  0  0  0  0  0  0  0  0  0
   -5.0513    1.1448    8.8728 C   0  0  2  0  0  0  0  0  0  0  0  0
   -3.2162    2.1235   10.0577 O   0  0  0  0  0  0  0  0  0  0  0  0
   -7.1394    1.8137   12.8253 C   0  0  0  0  0  0  0  0  0  0  0  0
   -7.5565    1.0321   10.5935 O   0  0  0  0  0  0  0  0  0  0  0  0
   -5.8913   -0.1211    8.9218 C   0  0  0  0  0  0  0  0  0  0  0  0
   -4.0333    0.9997    7.8935 O   0  0  0  0  0  0  0  0  0  0  0  0
   -7.8525    3.0126   12.5599 O   0  0  0  0  0  0  0  0  0  0  0  0
   -6.6815   -0.2248    9.9118 O   0  0  0  0  0  0  0  0  0  0  0  0
   -5.7691   -1.1907    7.9959 O   0  0  0  0  0  0  0  0  0  0  0  0
   -6.9454   -1.2445    3.6592 C   0  0  2  0  0  0  0  0  0  0  0  0
   -7.5084   -0.2650    2.7989 O   0  0  0  0  0  0  0  0  0  0  0  0
   -5.6151   -0.8892    3.8641 O   0  0  0  0  0  0  0  0  0  0  0  0
   -7.0421   -2.6439    3.0701 C   0  0  1  0  0  0  0  0  0  0  0  0
   -6.7844   -0.2357    1.5777 C   0  0  1  0  0  0  0  0  0  0  0  0
   -4.9881   -1.7289    4.8662 C   0  0  1  0  0  0  0  0  0  0  0  0
   -6.3707   -3.5939    4.0105 C   0  0  2  0  0  0  0  0  0  0  0  0
   -8.4077   -3.0587    2.9727 O   0  0  0  0  0  0  0  0  0  0  0  0
   -5.3178    0.0420    1.8647 C   0  0  1  0  0  0  0  0  0  0  0  0
   -6.9183   -1.5779    0.8770 C   0  0  1  0  0  0  0  0  0  0  0  0
   -4.9364   -3.1359    4.3068 C   0  0  1  0  0  0  0  0  0  0  0  0
   -3.5904   -1.2271    5.1906 C   0  0  0  0  0  0  0  0  0  0  0  0
   -6.3862   -4.9109    3.4478 O   0  0  0  0  0  0  0  0  0  0  0  0
   -4.7494   -1.1162    2.6684 C   0  0  2  0  0  0  0  0  0  0  0  0
   -4.6494    0.1237    0.6145 O   0  0  0  0  0  0  0  0  0  0  0  0
   -8.3849   -1.8556    0.5900 C   0  0  0  0  0  0  0  0  0  0  0  0
   -6.1943   -1.5486   -0.3442 O   0  0  0  0  0  0  0  0  0  0  0  0
   -4.1664   -3.1183    3.0939 O   0  0  0  0  0  0  0  0  0  0  0  0
   -3.6689    0.0960    5.7002 O   0  0  0  0  0  0  0  0  0  0  0  0
   -3.2645   -0.8906    2.9016 C   0  0  0  0  0  0  0  0  0  0  0  0
   -4.9373   -2.3273    1.9512 O   0  0  0  0  0  0  0  0  0  0  0  0
   -8.9059   -0.8318   -0.2447 O   0  0  0  0  0  0  0  0  0  0  0  0
   -2.4743   -0.7869    1.9116 O   0  0  0  0  0  0  0  0  0  0  0  0
   -2.7600   -0.7957    4.2256 O   0  0  0  0  0  0  0  0  0  0  0  0
   -4.2646   -0.9932    6.1107 Ca  0  0  0  0  0  0  0  0  0  0  0  0
   -5.7715    3.0034   10.5143 H   0  0  0  0  0  0  0  0  0  0  0  0
   -4.1943    0.4533   10.7118 H   0  0  0  0  0  0  0  0  0  0  0  0
   -5.9891    0.3893   11.7356 H   0  0  0  0  0  0  0  0  0  0  0  0
   -4.3377    1.9291   12.7617 H   0  0  0  0  0  0  0  0  0  0  0  0
   -5.6744    1.9768    8.6190 H   0  0  0  0  0  0  0  0  0  0  0  0
   -3.4231    2.9933    9.6099 H   0  0  0  0  0  0  0  0  0  0  0  0
   -7.8097    1.0807   13.2232 H   0  0  0  0  0  0  0  0  0  0  0  0
   -6.3633    2.0100   13.5352 H   0  0  0  0  0  0  0  0  0  0  0  0
   -8.0587    1.8764   10.4066 H   0  0  0  0  0  0  0  0  0  0  0  0
   -3.4509    0.2221    8.1308 H   0  0  0  0  0  0  0  0  0  0  0  0
   -7.2261    3.6977   12.1880 H   0  0  0  0  0  0  0  0  0  0  0  0
   -7.4531   -1.3107    4.5988 H   0  0  0  0  0  0  0  0  0  0  0  0
   -6.5897   -2.6386    2.1005 H   0  0  0  0  0  0  0  0  0  0  0  0
   -7.1770    0.5358    0.9487 H   0  0  0  0  0  0  0  0  0  0  0  0
   -5.5634   -1.7144    5.7682 H   0  0  0  0  0  0  0  0  0  0  0  0
   -6.9030   -3.6097    4.9386 H   0  0  0  0  0  0  0  0  0  0  0  0
   -8.8214   -3.0604    3.8831 H   0  0  0  0  0  0  0  0  0  0  0  0
   -5.1762    0.9546    2.4052 H   0  0  0  0  0  0  0  0  0  0  0  0
   -6.5256   -2.3493    1.5060 H   0  0  0  0  0  0  0  0  0  0  0  0
   -4.4836   -3.8078    5.0056 H   0  0  0  0  0  0  0  0  0  0  0  0
   -3.1435   -1.8657    5.9237 H   0  0  0  0  0  0  0  0  0  0  0  0
   -2.9944   -1.2324    4.3021 H   0  0  0  0  0  0  0  0  0  0  0  0
   -5.8910   -4.9080    2.5790 H   0  0  0  0  0  0  0  0  0  0  0  0
   -5.2531   -1.1777    3.6105 H   0  0  0  0  0  0  0  0  0  0  0  0
   -3.6725    0.2721    0.7679 H   0  0  0  0  0  0  0  0  0  0  0  0
   -8.4791   -2.8004    0.0968 H   0  0  0  0  0  0  0  0  0  0  0  0
   -8.9304   -1.8776    1.5102 H   0  0  0  0  0  0  0  0  0  0  0  0
   -6.5612   -0.8276   -0.9320 H   0  0  0  0  0  0  0  0  0  0  0  0
   -4.5887   -2.4906    2.4400 H   0  0  0  0  0  0  0  0  0  0  0  0
   -4.0866    0.6928    5.0151 H   0  0  0  0  0  0  0  0  0  0  0  0
   -4.4666   -2.2698    1.0708 H   0  0  0  0  0  0  0  0  0  0  0  0
   -8.8179    0.0512    0.2163 H   0  0  0  0  0  0  0  0  0  0  0  0
  1  4  1  0  0  0  0
  1 39  1  6  0  0  0
  1  3  1  0  0  0  0
  1  2  1  0  0  0  0
  2  6  1  0  0  0  0
  2 40  1  1  0  0  0
  3  7  1  0  0  0  0
  3  8  1  0  0  0  0
  3 41  1  1  0  0  0
  4 42  1  0  0  0  0
  5 10  1  0  0  0  0
  5 43  1  6  0  0  0
  5  9  1  0  0  0  0
  5  2  1  0  0  0  0
  6 44  1  0  0  0  0
  7 11  1  0  0  0  0
  7 45  1  0  0  0  0
  7 46  1  0  0  0  0
  8 47  1  0  0  0  0
  9 13  1  0  0  0  0
  9 12  2  0  0  0  0
 10 48  1  0  0  0  0
 11 49  1  0  0  0  0
 14 16  1  0  0  0  0
 14 17  1  0  0  0  0
 14 50  1  1  0  0  0
 14 15  1  0  0  0  0
 16 19  1  0  0  0  0
 17 20  1  0  0  0  0
 17 21  1  0  0  0  0
 17 51  1  6  0  0  0
 18 23  1  0  0  0  0
 18 52  1  6  0  0  0
 18 22  1  0  0  0  0
 18 15  1  0  0  0  0
 19 24  1  0  0  0  0
 19 25  1  0  0  0  0
 19 53  1  1  0  0  0
 20 26  1  0  0  0  0
 20 24  1  0  0  0  0
 20 54  1  1  0  0  0
 21 55  1  0  0  0  0
 22 27  1  0  0  0  0
 22 28  1  0  0  0  0
 22 56  1  1  0  0  0
 23 29  1  0  0  0  0
 23 30  1  0  0  0  0
 23 57  1  1  0  0  0
 24 31  1  0  0  0  0
 24 58  1  1  0  0  0
 25 32  1  0  0  0  0
 25 59  1  0  0  0  0
 25 60  1  0  0  0  0
 26 61  1  0  0  0  0
 27 33  1  0  0  0  0
 27 34  1  0  0  0  0
 27 62  1  1  0  0  0
 28 63  1  0  0  0  0
 29 35  1  0  0  0  0
 29 64  1  0  0  0  0
 29 65  1  0  0  0  0
 30 66  1  0  0  0  0
 31 67  1  0  0  0  0
 32 68  1  0  0  0  0
 33 36  2  0  0  0  0
 33 37  1  0  0  0  0
 34 69  1  0  0  0  0
 35 70  1  0  0  0  0
 37 38  1  0  0  0  0
 38 13  1  0  0  0  0
M  END
>  <DRUGBANK_ID>
DB13142

>  <COMMON_NAME>
Calcium glubionate anhydrous

>  <CAS_NUMBER>
97635-31-9

>  <UNII>
93H20IU3DN

>  <SYNONYMS>
(D-gluconato)(lactobionato)calcium; Calcium D-gluconate lactobionate; Calcium glubionate anhydrous; Glubionate calcium

$$$$
