
 OpenBabel10282417183D

 20 21  0  0  0  0  0  0  0  0999 V2000
    1.8732   -0.1605    0.6264 C   0  0  0  0  0  0  0  0  0  0  0  0
   -1.9734    0.2029    0.4574 C   0  0  0  0  0  0  0  0  0  0  0  0
    0.8975   -1.3257    0.4509 C   0  0  2  0  0  0  0  0  0  0  0  0
   -0.8325    1.2124    0.4748 C   0  0  1  0  0  0  0  0  0  0  0  0
   -0.1388   -0.8054   -0.5511 C   0  0  2  0  0  0  0  0  0  0  0  0
    0.1084    0.6854   -0.6023 C   0  0  2  0  0  0  0  0  0  0  0  0
    0.3613   -1.7654    1.6967 O   0  0  0  0  0  0  0  0  0  0  0  0
   -1.2660    2.5467    0.2476 O   0  0  0  0  0  0  0  0  0  0  0  0
    1.4878    0.8819   -0.2843 O   0  0  0  0  0  0  0  0  0  0  0  0
   -1.4980   -1.0025   -0.1582 O   0  0  0  0  0  0  0  0  0  0  0  0
    1.4237   -2.1857    0.0246 H   0  0  0  0  0  0  0  0  0  0  0  0
   -0.3407    1.2133    1.4530 H   0  0  0  0  0  0  0  0  0  0  0  0
    0.0359   -1.2647   -1.5313 H   0  0  0  0  0  0  0  0  0  0  0  0
   -0.1120    1.1270   -1.5808 H   0  0  0  0  0  0  0  0  0  0  0  0
    2.9027   -0.4547    0.4070 H   0  0  0  0  0  0  0  0  0  0  0  0
    1.8481    0.2517    1.6416 H   0  0  0  0  0  0  0  0  0  0  0  0
   -2.2980   -0.0363    1.4745 H   0  0  0  0  0  0  0  0  0  0  0  0
   -2.8454    0.5607   -0.0985 H   0  0  0  0  0  0  0  0  0  0  0  0
    0.0067   -1.0054    2.1892 H   0  0  0  0  0  0  0  0  0  0  0  0
   -1.9822    2.5409   -0.4103 H   0  0  0  0  0  0  0  0  0  0  0  0
  1 15  1  0  0  0  0
  1 16  1  0  0  0  0
  2 17  1  0  0  0  0
  2 18  1  0  0  0  0
  3  1  1  0  0  0  0
  3 11  1  6  0  0  0
  3  7  1  0  0  0  0
  4  2  1  0  0  0  0
  4 12  1  1  0  0  0
  4  8  1  0  0  0  0
  5  3  1  0  0  0  0
  5 13  1  6  0  0  0
  6  4  1  0  0  0  0
  6  5  1  0  0  0  0
  6 14  1  6  0  0  0
  7 19  1  0  0  0  0
  8 20  1  0  0  0  0
  9  1  1  0  0  0  0
  9  6  1  0  0  0  0
 10  2  1  0  0  0  0
 10  5  1  0  0  0  0
M  END
>  <DRUGBANK_ID>
DB09401

>  <SECONDARY_ACCESSION_NUMBERS>
DB05707

>  <COMMON_NAME>
Isosorbide

>  <CAS_NUMBER>
652-67-5

>  <UNII>
WXR179L51S

>  <SYNONYMS>
Isosorbide

$$$$
