1096
 OpenBabel10282417113D

 41 42  0  0  1  0  0  0  0  0999 V2000
    1.0558    0.0433    0.0659 O   0  0  0  0  0  0  0  0  0  0  0  0
    0.9206   -3.7365   -1.3181 O   0  5  0  0  0  0  0  0  0  0  0  0
    1.7113   -4.3890   -3.2386 O   0  0  0  0  0  0  0  0  0  0  0  0
    2.3346   -0.4640   -6.1047 N   0  0  0  0  0  0  0  0  0  0  0  0
    3.6190    2.1398   -8.4850 N   0  0  0  0  0  0  0  0  0  0  0  0
    1.3417   -3.5030   -2.4591 N   0  3  0  0  0  0  0  0  0  0  0  0
    2.8560    0.8372   -6.5017 C   0  0  3  0  0  0  0  0  0  0  0  0
    1.8868    1.9343   -6.0502 C   0  0  0  0  0  0  0  0  0  0  0  0
    1.6943    1.8881   -4.5434 C   0  0  0  0  0  0  0  0  0  0  0  0
    3.0505    0.8695   -8.0241 C   0  0  0  0  0  0  0  0  0  0  0  0
    1.5780    0.4827   -4.0119 C   0  0  0  0  0  0  0  0  0  0  0  0
    1.8678   -0.6236   -4.8154 C   0  0  0  0  0  0  0  0  0  0  0  0
    1.1837    0.2917   -2.6850 C   0  0  0  0  0  0  0  0  0  0  0  0
    3.7800    2.1806   -9.9381 C   0  0  0  0  0  0  0  0  0  0  0  0
    1.7907   -1.9039   -4.2665 C   0  0  0  0  0  0  0  0  0  0  0  0
    1.0941   -0.9938   -2.1093 C   0  0  0  0  0  0  0  0  0  0  0  0
    1.4004   -2.1009   -2.9275 C   0  0  0  0  0  0  0  0  0  0  0  0
    2.4390    2.0342  -10.6585 C   0  0  0  0  0  0  0  0  0  0  0  0
    4.4092    3.5255  -10.3000 C   0  0  0  0  0  0  0  0  0  0  0  0
    0.5951   -1.0753   -0.6890 C   0  0  0  0  0  0  0  0  0  0  0  0
    2.0273   -0.0208    0.0665 H   0  0  0  0  0  0  0  0  0  0  0  0
    2.1704   -1.1880   -6.7948 H   0  0  0  0  0  0  0  0  0  0  0  0
    3.0183    2.9133   -8.2028 H   0  0  0  0  0  0  0  0  0  0  0  0
    3.8330    0.9755   -6.0209 H   0  0  0  0  0  0  0  0  0  0  0  0
    2.2545    2.9316   -6.3146 H   0  0  0  0  0  0  0  0  0  0  0  0
    0.9184    1.8089   -6.5535 H   0  0  0  0  0  0  0  0  0  0  0  0
    2.5466    2.3798   -4.0588 H   0  0  0  0  0  0  0  0  0  0  0  0
    0.7926    2.4603   -4.2935 H   0  0  0  0  0  0  0  0  0  0  0  0
    3.7016    0.0402   -8.3276 H   0  0  0  0  0  0  0  0  0  0  0  0
    2.0670    0.6892   -8.4711 H   0  0  0  0  0  0  0  0  0  0  0  0
    0.9384    1.1728   -2.0892 H   0  0  0  0  0  0  0  0  0  0  0  0
    4.4636    1.3817  -10.2479 H   0  0  0  0  0  0  0  0  0  0  0  0
    2.0653   -2.7495   -4.8949 H   0  0  0  0  0  0  0  0  0  0  0  0
    1.7363    2.8133  -10.3406 H   0  0  0  0  0  0  0  0  0  0  0  0
    2.5727    2.1060  -11.7402 H   0  0  0  0  0  0  0  0  0  0  0  0
    1.9725    1.0632  -10.4672 H   0  0  0  0  0  0  0  0  0  0  0  0
    5.3791    3.6583   -9.8080 H   0  0  0  0  0  0  0  0  0  0  0  0
    4.5681    3.5909  -11.3808 H   0  0  0  0  0  0  0  0  0  0  0  0
    3.7643    4.3620  -10.0044 H   0  0  0  0  0  0  0  0  0  0  0  0
    0.9597   -1.9378   -0.1407 H   0  0  0  0  0  0  0  0  0  0  0  0
   -0.4999   -1.0779   -0.6933 H   0  0  0  0  0  0  0  0  0  0  0  0
  1 20  1  0  0  0  0
  1 21  1  0  0  0  0
  2  6  1  0  0  0  0
  3  6  2  0  0  0  0
  4  7  1  0  0  0  0
  4 12  1  0  0  0  0
  4 22  1  0  0  0  0
  5 10  1  0  0  0  0
  5 14  1  0  0  0  0
  5 23  1  0  0  0  0
  6 17  1  0  0  0  0
  7  8  1  0  0  0  0
  7 10  1  0  0  0  0
  7 24  1  0  0  0  0
  8  9  1  0  0  0  0
  8 25  1  0  0  0  0
  8 26  1  0  0  0  0
  9 11  1  0  0  0  0
  9 27  1  0  0  0  0
  9 28  1  0  0  0  0
 10 29  1  0  0  0  0
 10 30  1  0  0  0  0
 11 12  1  0  0  0  0
 11 13  2  0  0  0  0
 12 15  2  0  0  0  0
 13 16  1  0  0  0  0
 13 31  1  0  0  0  0
 14 18  1  0  0  0  0
 14 19  1  0  0  0  0
 14 32  1  0  0  0  0
 15 17  1  0  0  0  0
 15 33  1  0  0  0  0
 16 17  2  0  0  0  0
 16 20  1  0  0  0  0
 18 34  1  0  0  0  0
 18 35  1  0  0  0  0
 18 36  1  0  0  0  0
 19 37  1  0  0  0  0
 19 38  1  0  0  0  0
 19 39  1  0  0  0  0
 20 40  1  0  0  0  0
 20 41  1  0  0  0  0
M  CHG  2   2  -1   6   1
M  END
>  <DRUGBANK_ID>
DB01096

>  <SECONDARY_ACCESSION_NUMBERS>
APRD01150

>  <COMMON_NAME>
Oxamniquine

>  <CAS_NUMBER>
21738-42-1

>  <UNII>
0O977R722D

$$$$
