PLH
 OpenBabel10282417173D

 52 52  0  0  0  0  0  0  0  0999 V2000
    1.1498   -0.0236   -0.0458 C   0  0  0  0  0  0  0  0  0  0  0  0
    0.3559   -1.3231   -0.0825 C   0  0  0  0  0  0  0  0  0  0  0  0
   -0.5454   -1.5764    1.1444 C   0  0  1  0  0  0  0  0  0  0  0  0
   -1.6770   -0.5119    1.2560 C   0  0  0  0  0  0  0  0  0  0  0  0
   -2.5545   -0.3485   -0.0168 C   0  0  0  0  0  0  0  0  0  0  0  0
   -3.4318   -1.5665   -0.2437 C   0  0  0  0  0  0  0  0  0  0  0  0
   -3.4608    0.8743    0.0439 C   0  0  0  0  0  0  0  0  0  0  0  0
   -1.0438   -3.0379    1.0722 C   0  0  0  0  0  0  0  0  0  0  0  0
   -1.8851   -5.0658    2.2127 C   0  0  2  0  0  0  0  0  0  0  0  0
   -2.8657   -5.1523    3.3828 C   0  0  0  0  0  0  0  0  0  0  0  0
   -3.1919   -4.7217    5.7822 C   0  0  0  0  0  0  0  0  0  0  0  0
   -0.8208   -6.1846    2.1215 C   0  0  0  0  0  0  0  0  0  0  0  0
   -1.0518   -7.6188    2.5689 C   0  0  0  0  0  0  0  0  0  0  0  0
   -0.4464   -8.6656    1.8494 C   0  0  0  0  0  0  0  0  0  0  0  0
   -0.4261   -9.9733    2.3513 C   0  0  0  0  0  0  0  0  0  0  0  0
   -0.9972  -10.2585    3.5875 C   0  0  0  0  0  0  0  0  0  0  0  0
   -1.5917   -9.2389    4.3158 C   0  0  0  0  0  0  0  0  0  0  0  0
   -1.6430   -7.9445    3.7962 C   0  0  0  0  0  0  0  0  0  0  0  0
    0.4369    1.1447   -0.1206 N   0  0  0  0  0  0  0  0  0  0  0  0
   -1.2342   -3.7172    2.2458 N   0  0  0  0  0  0  0  0  0  0  0  0
   -2.4134   -4.6245    4.5759 N   0  0  0  0  0  0  0  0  0  0  0  0
    1.1326    2.3629    0.0153 O   0  0  0  0  0  0  0  0  0  0  0  0
    2.3771   -0.0147    0.0422 O   0  0  0  0  0  0  0  0  0  0  0  0
   -1.2703   -3.6052   -0.0021 O   0  0  0  0  0  0  0  0  0  0  0  0
   -3.9210   -5.7785    3.2978 O   0  0  0  0  0  0  0  0  0  0  0  0
    0.0700   -1.4934    2.0512 H   0  0  0  0  0  0  0  0  0  0  0  0
   -2.5215   -5.1182    1.3183 H   0  0  0  0  0  0  0  0  0  0  0  0
   -0.2040   -1.3815   -1.0220 H   0  0  0  0  0  0  0  0  0  0  0  0
    1.0851   -2.1425   -0.1426 H   0  0  0  0  0  0  0  0  0  0  0  0
   -2.3086   -0.7000    2.1315 H   0  0  0  0  0  0  0  0  0  0  0  0
   -1.2098    0.4535    1.4959 H   0  0  0  0  0  0  0  0  0  0  0  0
   -1.9284   -0.2161   -0.9060 H   0  0  0  0  0  0  0  0  0  0  0  0
   -3.9116   -1.8783    0.6888 H   0  0  0  0  0  0  0  0  0  0  0  0
   -4.1915   -1.4045   -1.0100 H   0  0  0  0  0  0  0  0  0  0  0  0
   -2.8365   -2.3745   -0.6428 H   0  0  0  0  0  0  0  0  0  0  0  0
   -2.8847    1.8030    0.0778 H   0  0  0  0  0  0  0  0  0  0  0  0
   -4.0872    0.9094   -0.8566 H   0  0  0  0  0  0  0  0  0  0  0  0
   -4.1190    0.8246    0.9145 H   0  0  0  0  0  0  0  0  0  0  0  0
   -2.5691   -5.1874    6.5493 H   0  0  0  0  0  0  0  0  0  0  0  0
   -3.4670   -3.7120    6.0922 H   0  0  0  0  0  0  0  0  0  0  0  0
   -4.0929   -5.3201    5.6307 H   0  0  0  0  0  0  0  0  0  0  0  0
   -0.4980   -6.2099    1.0690 H   0  0  0  0  0  0  0  0  0  0  0  0
    0.0659   -5.8587    2.6798 H   0  0  0  0  0  0  0  0  0  0  0  0
    0.0499   -8.4694    0.9004 H   0  0  0  0  0  0  0  0  0  0  0  0
    0.0647  -10.7647    1.7909 H   0  0  0  0  0  0  0  0  0  0  0  0
   -0.9777  -11.2677    3.9878 H   0  0  0  0  0  0  0  0  0  0  0  0
   -1.9997   -9.4327    5.3044 H   0  0  0  0  0  0  0  0  0  0  0  0
   -2.1393   -7.2094    4.4134 H   0  0  0  0  0  0  0  0  0  0  0  0
   -0.5628    1.2315   -0.2442 H   0  0  0  0  0  0  0  0  0  0  0  0
   -0.5415   -3.5503    2.9647 H   0  0  0  0  0  0  0  0  0  0  0  0
   -1.5561   -4.0949    4.5948 H   0  0  0  0  0  0  0  0  0  0  0  0
    2.0681    2.0736    0.0500 H   0  0  0  0  0  0  0  0  0  0  0  0
  1  2  1  0  0  0  0
  1 19  1  0  0  0  0
  1 23  2  0  0  0  0
  2  3  1  0  0  0  0
  2 28  1  0  0  0  0
  2 29  1  0  0  0  0
  3  4  1  0  0  0  0
  3  8  1  0  0  0  0
  3 26  1  1  0  0  0
  4  5  1  0  0  0  0
  4 30  1  0  0  0  0
  4 31  1  0  0  0  0
  5  6  1  0  0  0  0
  5  7  1  0  0  0  0
  5 32  1  0  0  0  0
  6 33  1  0  0  0  0
  6 34  1  0  0  0  0
  6 35  1  0  0  0  0
  7 36  1  0  0  0  0
  7 37  1  0  0  0  0
  7 38  1  0  0  0  0
  8 20  1  0  0  0  0
  8 24  2  0  0  0  0
  9 20  1  0  0  0  0
  9 27  1  6  0  0  0
  9 12  1  0  0  0  0
  9 10  1  0  0  0  0
 10 21  1  0  0  0  0
 10 25  2  0  0  0  0
 11 21  1  0  0  0  0
 11 39  1  0  0  0  0
 11 40  1  0  0  0  0
 11 41  1  0  0  0  0
 12 13  1  0  0  0  0
 12 42  1  0  0  0  0
 12 43  1  0  0  0  0
 13 14  2  0  0  0  0
 13 18  1  0  0  0  0
 14 15  1  0  0  0  0
 14 44  1  0  0  0  0
 15 16  2  0  0  0  0
 15 45  1  0  0  0  0
 16 17  1  0  0  0  0
 16 46  1  0  0  0  0
 17 18  2  0  0  0  0
 17 47  1  0  0  0  0
 18 48  1  0  0  0  0
 19 22  1  0  0  0  0
 19 49  1  0  0  0  0
 20 50  1  0  0  0  0
 21 51  1  0  0  0  0
 22 52  1  0  0  0  0
M  END
>  <DRUGBANK_ID>
DB08403

>  <COMMON_NAME>
METHYLAMINO-PHENYLALANYL-LEUCYL-HYDROXAMIC ACID

$$$$
