
 OpenBabel10282417133D

 31 32  0  0  1  0  0  0  0  0999 V2000
    1.5448    0.0394   -0.0822 C   0  0  0  0  0  0  0  0  0  0  0  0
    0.9266   -1.1142    0.5218 C   0  0  0  0  0  0  0  0  0  0  0  0
    0.9179    1.1487   -0.4863 C   0  0  0  0  0  0  0  0  0  0  0  0
   -0.3176   -1.5386    0.2435 C   0  0  0  0  0  0  0  0  0  0  0  0
   -4.5022    0.6770   -2.9168 C   0  0  0  0  0  0  0  0  0  0  0  0
   -3.9125   -0.7474   -2.8452 C   0  0  2  0  0  0  0  0  0  0  0  0
   -4.6912   -1.5977   -1.8435 C   0  0  2  0  0  0  0  0  0  0  0  0
   -3.8150   -1.6028   -0.5857 C   0  0  2  0  0  0  0  0  0  0  0  0
   -2.3892   -1.4406   -1.1391 C   0  0  2  0  0  0  0  0  0  0  0  0
   -1.4660    0.5701   -0.0077 C   0  0  0  0  0  0  0  0  0  0  0  0
   -0.4080    1.4093   -0.2964 N   0  0  0  0  0  0  0  0  0  0  0  0
   -1.3217   -0.7749   -0.3480 N   0  0  0  0  0  0  0  0  0  0  0  0
   -4.6231    1.1065   -4.2770 O   0  0  0  0  0  0  0  0  0  0  0  0
   -4.9217   -2.9355   -2.3248 O   0  0  0  0  0  0  0  0  0  0  0  0
   -3.9977   -2.8236    0.1408 O   0  0  0  0  0  0  0  0  0  0  0  0
   -2.5066    1.0516    0.4045 O   0  0  0  0  0  0  0  0  0  0  0  0
   -2.5273   -0.7361   -2.4074 O   0  0  0  0  0  0  0  0  0  0  0  0
   -3.9206   -1.1939   -3.8484 H   0  0  0  0  0  0  0  0  0  0  0  0
   -5.6897   -1.1984   -1.6383 H   0  0  0  0  0  0  0  0  0  0  0  0
   -4.0979   -0.7643    0.0520 H   0  0  0  0  0  0  0  0  0  0  0  0
   -2.0084   -2.4415   -1.3893 H   0  0  0  0  0  0  0  0  0  0  0  0
    2.6232   -0.0216   -0.2153 H   0  0  0  0  0  0  0  0  0  0  0  0
    1.6093   -1.7581    1.0735 H   0  0  0  0  0  0  0  0  0  0  0  0
    1.4929    1.9547   -0.9365 H   0  0  0  0  0  0  0  0  0  0  0  0
   -0.5864   -2.5593    0.5030 H   0  0  0  0  0  0  0  0  0  0  0  0
   -5.5291    0.6792   -2.5425 H   0  0  0  0  0  0  0  0  0  0  0  0
   -3.9320    1.4170   -2.3469 H   0  0  0  0  0  0  0  0  0  0  0  0
   -0.6895    2.3819   -0.3405 H   0  0  0  0  0  0  0  0  0  0  0  0
   -3.9345    1.7693   -4.4529 H   0  0  0  0  0  0  0  0  0  0  0  0
   -4.1231   -3.2783   -2.7585 H   0  0  0  0  0  0  0  0  0  0  0  0
   -4.2306   -3.5129   -0.5148 H   0  0  0  0  0  0  0  0  0  0  0  0
  1 22  1  0  0  0  0
  2  1  1  0  0  0  0
  2 23  1  0  0  0  0
  3  1  2  0  0  0  0
  3 24  1  0  0  0  0
  4  2  2  0  0  0  0
  4 25  1  0  0  0  0
  5 26  1  0  0  0  0
  5 27  1  0  0  0  0
  6 18  1  6  0  0  0
  6  5  1  0  0  0  0
  7  6  1  0  0  0  0
  7 14  1  0  0  0  0
  7 19  1  1  0  0  0
  8  7  1  0  0  0  0
  8 15  1  0  0  0  0
  8 20  1  1  0  0  0
  9  8  1  0  0  0  0
  9 12  1  0  0  0  0
  9 21  1  6  0  0  0
 11  3  1  0  0  0  0
 11 10  1  0  0  0  0
 11 28  1  0  0  0  0
 12  4  1  0  0  0  0
 12 10  1  0  0  0  0
 13  5  1  0  0  0  0
 13 29  1  0  0  0  0
 14 30  1  0  0  0  0
 15 31  1  0  0  0  0
 16 10  2  0  0  0  0
 17  6  1  0  0  0  0
 17  9  1  0  0  0  0
M  END
>  <DRUGBANK_ID>
DB03185

>  <SECONDARY_ACCESSION_NUMBERS>
EXPT00750

>  <COMMON_NAME>
1-Beta-Ribofuranosyl-1,3-Diazepinone

$$$$
