79Z
 OpenBabel10282417163D

 54 57  0  0  0  0  0  0  0  0999 V2000
    0.3506    0.5572   -0.4184 C   0  0  0  0  0  0  0  0  0  0  0  0
   -0.6659   -0.6051   -0.4238 C   0  0  0  0  0  0  0  0  0  0  0  0
    0.8352   -0.7883   -0.0767 C   0  0  0  0  0  0  0  0  0  0  0  0
   -4.1048   -5.0868    4.7497 C   0  0  0  0  0  0  0  0  0  0  0  0
   -5.2664   -5.7847    4.3777 C   0  0  0  0  0  0  0  0  0  0  0  0
   -5.6913   -6.9029    5.1111 C   0  0  0  0  0  0  0  0  0  0  0  0
   -4.9618   -7.3210    6.2185 C   0  0  0  0  0  0  0  0  0  0  0  0
   -3.8416   -6.6180    6.6344 C   0  0  0  0  0  0  0  0  0  0  0  0
   -3.4358   -5.4866    5.9199 C   0  0  0  0  0  0  0  0  0  0  0  0
   -1.8707   -1.0193    0.6232 C   0  0  0  0  0  0  0  0  0  0  0  0
   -3.1869   -0.5264    0.8999 C   0  0  0  0  0  0  0  0  0  0  0  0
   -4.0248   -1.1625    1.8860 C   0  0  0  0  0  0  0  0  0  0  0  0
   -1.5664   -2.1341    1.3745 C   0  0  0  0  0  0  0  0  0  0  0  0
   -2.3389   -2.8529    2.3430 C   0  0  0  0  0  0  0  0  0  0  0  0
   -3.5867   -2.3116    2.5588 C   0  0  0  0  0  0  0  0  0  0  0  0
   -4.2837   -3.0525    3.4665 O   0  0  0  0  0  0  0  0  0  0  0  0
   -3.4888   -4.1031    3.8436 C   0  0  0  0  0  0  0  0  0  0  0  0
   -2.2344   -4.0415    3.2089 C   0  0  0  0  0  0  0  0  0  0  0  0
   -1.1768   -5.0901    3.4430 C   0  0  0  0  0  0  0  0  0  0  0  0
   -1.3603   -6.0581    4.1826 O   0  0  0  0  0  0  0  0  0  0  0  0
    0.0880   -5.0726    2.8663 N   0  0  0  0  0  0  0  0  0  0  0  0
    0.5843   -4.0862    1.9974 C   0  0  0  0  0  0  0  0  0  0  0  0
   -3.6538    0.6458    0.1898 N   0  0  0  0  0  0  0  0  0  0  0  0
   -5.1069    1.4796    0.4844 S   0  0  0  0  0  0  0  0  0  0  0  0
   -4.7492    2.8738    0.7469 O   0  0  0  0  0  0  0  0  0  0  0  0
   -6.0152    0.7887    1.3431 O   0  0  0  0  0  0  0  0  0  0  0  0
   -5.8361    1.4175   -1.1334 C   0  0  0  0  0  0  0  0  0  0  0  0
   -5.3351   -8.4227    6.8840 F   0  0  0  0  0  0  0  0  0  0  0  0
   -2.6430    1.4376   -0.5289 C   0  0  0  0  0  0  0  0  0  0  0  0
   -1.6866    2.1768    0.4443 C   0  0  0  0  0  0  0  0  0  0  0  0
   -1.0686    1.5203    1.5623 O   0  0  0  0  0  0  0  0  0  0  0  0
    0.6803    1.2500    0.3577 H   0  0  0  0  0  0  0  0  0  0  0  0
    0.5274    1.0280   -1.3838 H   0  0  0  0  0  0  0  0  0  0  0  0
   -0.9233   -0.9495   -1.4253 H   0  0  0  0  0  0  0  0  0  0  0  0
    1.5722   -1.1467   -0.7877 H   0  0  0  0  0  0  0  0  0  0  0  0
    1.1898   -0.8473    0.9539 H   0  0  0  0  0  0  0  0  0  0  0  0
   -5.8149   -5.5029    3.4819 H   0  0  0  0  0  0  0  0  0  0  0  0
   -6.5613   -7.4750    4.8037 H   0  0  0  0  0  0  0  0  0  0  0  0
   -3.2595   -6.9757    7.4778 H   0  0  0  0  0  0  0  0  0  0  0  0
   -2.5255   -4.9775    6.2285 H   0  0  0  0  0  0  0  0  0  0  0  0
   -4.9960   -0.8014    2.1812 H   0  0  0  0  0  0  0  0  0  0  0  0
   -0.5685   -2.3824    1.0698 H   0  0  0  0  0  0  0  0  0  0  0  0
    0.6965   -5.8331    3.1255 H   0  0  0  0  0  0  0  0  0  0  0  0
    1.3749   -3.4235    2.3456 H   0  0  0  0  0  0  0  0  0  0  0  0
    0.5874   -4.3544    0.9368 H   0  0  0  0  0  0  0  0  0  0  0  0
   -0.2207   -3.4640    2.1666 H   0  0  0  0  0  0  0  0  0  0  0  0
   -5.9360    0.3713   -1.4315 H   0  0  0  0  0  0  0  0  0  0  0  0
   -6.8259    1.8709   -1.0510 H   0  0  0  0  0  0  0  0  0  0  0  0
   -5.2316    1.9746   -1.8478 H   0  0  0  0  0  0  0  0  0  0  0  0
   -2.2033    0.7972   -1.3023 H   0  0  0  0  0  0  0  0  0  0  0  0
   -3.1013    2.2008   -1.1638 H   0  0  0  0  0  0  0  0  0  0  0  0
   -0.8888    2.5843   -0.1849 H   0  0  0  0  0  0  0  0  0  0  0  0
   -2.1753    3.0260    0.8957 H   0  0  0  0  0  0  0  0  0  0  0  0
   -1.5681    0.7525    1.8721 H   0  0  0  0  0  0  0  0  0  0  0  0
  1  3  1  0  0  0  0
  1  2  1  0  0  0  0
  1 32  1  0  0  0  0
  1 33  1  0  0  0  0
  2 10  1  0  0  0  0
  2 34  1  0  0  0  0
  3  2  1  0  0  0  0
  3 35  1  0  0  0  0
  3 36  1  0  0  0  0
  4  9  2  0  0  0  0
  5  6  2  0  0  0  0
  5  4  1  0  0  0  0
  5 37  1  0  0  0  0
  6  7  1  0  0  0  0
  6 38  1  0  0  0  0
  7 28  1  0  0  0  0
  7  8  2  0  0  0  0
  8 39  1  0  0  0  0
  9  8  1  0  0  0  0
  9 40  1  0  0  0  0
 10 11  2  0  0  0  0
 11 12  1  0  0  0  0
 11 23  1  0  0  0  0
 12 41  1  0  0  0  0
 13 14  2  0  0  0  0
 13 10  1  0  0  0  0
 13 42  1  0  0  0  0
 14 15  1  0  0  0  0
 15 16  1  0  0  0  0
 15 12  2  0  0  0  0
 17  4  1  0  0  0  0
 17 16  1  0  0  0  0
 18 14  1  0  0  0  0
 18 17  2  0  0  0  0
 19 18  1  0  0  0  0
 20 19  2  0  0  0  0
 21 19  1  0  0  0  0
 21 43  1  0  0  0  0
 22 21  1  0  0  0  0
 22 44  1  0  0  0  0
 22 45  1  0  0  0  0
 22 46  1  0  0  0  0
 23 24  1  0  0  0  0
 24 25  2  0  0  0  0
 24 27  1  0  0  0  0
 26 24  2  0  0  0  0
 27 47  1  0  0  0  0
 27 48  1  0  0  0  0
 27 49  1  0  0  0  0
 29 23  1  0  0  0  0
 29 50  1  0  0  0  0
 29 51  1  0  0  0  0
 30 29  1  0  0  0  0
 30 52  1  0  0  0  0
 30 53  1  0  0  0  0
 31 30  1  0  0  0  0
 31 54  1  0  0  0  0
M  END
>  <DRUGBANK_ID>
DB07238

>  <SECONDARY_ACCESSION_NUMBERS>
DB12516

>  <COMMON_NAME>
Nesbuvir

>  <CAS_NUMBER>
691852-58-1

>  <UNII>
EYK815W3Z8

>  <SYNONYMS>
Nesbuvir

$$$$
