HLE
 OpenBabel10282417163D

 28 27  0  0  0  0  0  0  0  0999 V2000
    1.0612    0.0681   -0.1582 N   0  0  0  0  0  0  0  0  0  0  0  0
    0.3563   -0.2620    1.0197 O   0  0  0  0  0  0  0  0  0  0  0  0
    0.5568    2.1341   -2.9821 C   0  0  1  0  0  0  0  0  0  0  0  0
    1.6468    3.1268   -3.4669 C   0  0  0  0  0  0  0  0  0  0  0  0
    2.5304    2.7152   -4.6615 C   0  0  0  0  0  0  0  0  0  0  0  0
    1.7266    2.4328   -5.9229 C   0  0  0  0  0  0  0  0  0  0  0  0
    3.5368    3.8168   -5.0120 C   0  0  0  0  0  0  0  0  0  0  0  0
   -0.6233    2.0154   -3.9386 C   0  0  0  0  0  0  0  0  0  0  0  0
   -1.7534    2.4051   -3.7053 O   0  0  0  0  0  0  0  0  0  0  0  0
    1.0804    0.7442   -2.5336 C   0  0  2  0  0  0  0  0  0  0  0  0
    1.0833   -0.2768   -3.5257 O   0  0  0  0  0  0  0  0  0  0  0  0
    0.2832    0.3428   -1.2652 C   0  0  0  0  0  0  0  0  0  0  0  0
   -0.9453    0.3136   -1.2666 O   0  0  0  0  0  0  0  0  0  0  0  0
    0.1346    2.6337   -2.0969 H   0  0  0  0  0  0  0  0  0  0  0  0
    2.1350    0.8283   -2.2488 H   0  0  0  0  0  0  0  0  0  0  0  0
    2.0733    0.0183   -0.1559 H   0  0  0  0  0  0  0  0  0  0  0  0
    1.0438   -0.4847    1.6698 H   0  0  0  0  0  0  0  0  0  0  0  0
    1.1613    4.0862   -3.6960 H   0  0  0  0  0  0  0  0  0  0  0  0
    2.3105    3.3420   -2.6136 H   0  0  0  0  0  0  0  0  0  0  0  0
    3.0932    1.8153   -4.3892 H   0  0  0  0  0  0  0  0  0  0  0  0
    1.0202    3.2470   -6.1255 H   0  0  0  0  0  0  0  0  0  0  0  0
    2.3667    2.3057   -6.7988 H   0  0  0  0  0  0  0  0  0  0  0  0
    1.1983    1.4881   -5.8309 H   0  0  0  0  0  0  0  0  0  0  0  0
    4.2133    4.0314   -4.1807 H   0  0  0  0  0  0  0  0  0  0  0  0
    4.1470    3.5059   -5.8687 H   0  0  0  0  0  0  0  0  0  0  0  0
    3.0249    4.7444   -5.2934 H   0  0  0  0  0  0  0  0  0  0  0  0
   -0.4373    1.5311   -4.9060 H   0  0  0  0  0  0  0  0  0  0  0  0
    0.4845   -0.0808   -4.2610 H   0  0  0  0  0  0  0  0  0  0  0  0
  1  2  1  0  0  0  0
  1 12  1  0  0  0  0
  1 16  1  0  0  0  0
  2 17  1  0  0  0  0
  3  4  1  0  0  0  0
  3  8  1  0  0  0  0
  3 14  1  1  0  0  0
  4  5  1  0  0  0  0
  4 18  1  0  0  0  0
  4 19  1  0  0  0  0
  5  6  1  0  0  0  0
  5  7  1  0  0  0  0
  5 20  1  0  0  0  0
  6 21  1  0  0  0  0
  6 22  1  0  0  0  0
  6 23  1  0  0  0  0
  7 24  1  0  0  0  0
  7 25  1  0  0  0  0
  7 26  1  0  0  0  0
  8  9  2  0  0  0  0
  8 27  1  0  0  0  0
 10 12  1  0  0  0  0
 10 15  1  1  0  0  0
 10 11  1  0  0  0  0
 10  3  1  0  0  0  0
 11 28  1  0  0  0  0
 12 13  2  0  0  0  0
M  END
>  <DRUGBANK_ID>
DB07900

>  <COMMON_NAME>
3-FORMYL-2-HYDROXY-5-METHYL-HEXANOIC ACID HYDROXYAMIDE

$$$$
