
 OpenBabel10282417163D

 39 40  0  0  0  0  0  0  0  0999 V2000
    1.1383    0.0987    0.1272 C   0  0  2  0  0  0  0  0  0  0  0  0
    0.5626    1.7704    0.3841 C   0  0  0  0  0  0  0  0  0  0  0  0
    0.6040   -0.5601   -1.2519 N   0  0  0  0  0  0  0  0  0  0  0  0
   -0.2506   -1.6779   -1.4242 C   0  0  0  0  0  0  0  0  0  0  0  0
   -1.4390   -1.9844   -0.6835 C   0  0  0  0  0  0  0  0  0  0  0  0
    0.9919   -1.0406    1.4339 C   0  0  0  0  0  0  0  0  0  0  0  0
   -2.1529   -3.1664   -0.6865 C   0  0  0  0  0  0  0  0  0  0  0  0
   -2.1729   -1.0523    0.1159 C   0  0  0  0  0  0  0  0  0  0  0  0
   -0.7514    2.4516    0.9640 C   0  0  0  0  0  0  0  0  0  0  0  0
    1.4497    2.7534   -0.1367 C   0  0  0  0  0  0  0  0  0  0  0  0
    0.0373   -2.6577   -2.3712 C   0  0  0  0  0  0  0  0  0  0  0  0
    1.9695   -1.6938    1.8209 O   0  0  0  0  0  0  0  0  0  0  0  0
   -3.0669   -1.3076    0.9516 O   0  0  0  0  0  0  0  0  0  0  0  0
   -0.2169   -1.3849    2.0296 N   0  0  0  0  0  0  0  0  0  0  0  0
   -1.8104   -4.1099   -1.5831 C   0  0  0  0  0  0  0  0  0  0  0  0
   -0.7422   -3.8508   -2.4455 C   0  0  0  0  0  0  0  0  0  0  0  0
   -2.8403    2.0544    1.6421 Br  0  0  0  0  0  0  0  0  0  0  0  0
    3.1524    2.4209   -0.9444 Br  0  0  0  0  0  0  0  0  0  0  0  0
   -0.0789    4.6515    0.4400 C   0  0  0  0  0  0  0  0  0  0  0  0
   -0.9943    3.8192    0.9744 C   0  0  0  0  0  0  0  0  0  0  0  0
    1.1070    4.1393   -0.0912 C   0  0  0  0  0  0  0  0  0  0  0  0
   -1.5895    0.2061    0.1114 C   0  0  0  0  0  0  0  0  0  0  0  0
   -0.4506   -4.9230   -3.4352 C   0  0  0  0  0  0  0  0  0  0  0  0
    2.2307    0.1138   -0.0372 H   0  0  0  0  0  0  0  0  0  0  0  0
    0.8952   -0.0842   -2.1080 H   0  0  0  0  0  0  0  0  0  0  0  0
   -2.9891   -3.3021   -0.0044 H   0  0  0  0  0  0  0  0  0  0  0  0
    0.8767   -2.5392   -3.0532 H   0  0  0  0  0  0  0  0  0  0  0  0
   -1.0399   -0.8115    2.1359 H   0  0  0  0  0  0  0  0  0  0  0  0
   -0.3786   -2.2507    2.5341 H   0  0  0  0  0  0  0  0  0  0  0  0
   -2.4067   -5.0135   -1.6056 H   0  0  0  0  0  0  0  0  0  0  0  0
   -0.3417    5.6999    0.4577 H   0  0  0  0  0  0  0  0  0  0  0  0
   -1.9277    4.2327    1.3581 H   0  0  0  0  0  0  0  0  0  0  0  0
    1.7887    4.8916   -0.4767 H   0  0  0  0  0  0  0  0  0  0  0  0
   -0.6292   -0.0628    0.3579 H   0  0  0  0  0  0  0  0  0  0  0  0
   -1.4951    0.8272   -0.7759 H   0  0  0  0  0  0  0  0  0  0  0  0
   -1.5517    0.4912    1.1372 H   0  0  0  0  0  0  0  0  0  0  0  0
   -0.2304   -5.8478   -2.8927 H   0  0  0  0  0  0  0  0  0  0  0  0
   -1.3336   -5.0681   -4.0659 H   0  0  0  0  0  0  0  0  0  0  0  0
    0.4008   -4.6546   -4.0574 H   0  0  0  0  0  0  0  0  0  0  0  0
  1  6  1  0  0  0  0
  1 24  1  6  0  0  0
  2  1  1  0  0  0  0
  3  1  1  0  0  0  0
  3 25  1  0  0  0  0
  4  3  1  0  0  0  0
  5  4  2  0  0  0  0
  7  5  1  0  0  0  0
  7 26  1  0  0  0  0
  8  5  1  0  0  0  0
  9  2  1  0  0  0  0
 10  2  2  0  0  0  0
 11  4  1  0  0  0  0
 11 27  1  0  0  0  0
 12  6  2  0  0  0  0
 13  8  2  0  0  0  0
 14  6  1  0  0  0  0
 14 28  1  0  0  0  0
 14 29  1  0  0  0  0
 15 16  1  0  0  0  0
 15  7  2  0  0  0  0
 15 30  1  0  0  0  0
 16 11  2  0  0  0  0
 17  9  1  0  0  0  0
 18 10  1  0  0  0  0
 19 21  2  0  0  0  0
 19 20  1  0  0  0  0
 19 31  1  0  0  0  0
 20  9  2  0  0  0  0
 20 32  1  0  0  0  0
 21 10  1  0  0  0  0
 21 33  1  0  0  0  0
 22  8  1  0  0  0  0
 22 34  1  0  0  0  0
 22 35  1  0  0  0  0
 22 36  1  0  0  0  0
 23 16  1  0  0  0  0
 23 37  1  0  0  0  0
 23 38  1  0  0  0  0
 23 39  1  0  0  0  0
M  END
>  <DRUGBANK_ID>
DB07327

>  <COMMON_NAME>
R-95845

>  <CAS_NUMBER>
163435-77-6

>  <UNII>
X1KA97Q99G

$$$$
