TSX
 OpenBabel10282417133D

 54 56  0  0  0  0  0  0  0  0999 V2000
    1.1085    0.0294    0.0950 O   0  0  0  0  0  0  0  0  0  0  0  0
    2.3412    0.0196    0.0263 C   0  0  0  0  0  0  0  0  0  0  0  0
    3.0637   -1.1919    0.0026 N   0  0  0  0  0  0  0  0  0  0  0  0
    2.3014   -2.4232    0.0559 C   0  0  0  0  0  0  0  0  0  0  0  0
    2.6102   -3.2610   -1.1542 C   0  0  0  0  0  0  0  0  0  0  0  0
    3.1633   -4.4785   -1.0683 C   0  0  0  0  0  0  0  0  0  0  0  0
    3.0785    1.2116   -0.0280 N   0  0  0  0  0  0  0  0  0  0  0  0
    2.3499    2.4868    0.0508 C   0  0  0  0  0  0  0  0  0  0  0  0
    2.6514    3.3341    1.3033 C   0  0  0  0  0  0  0  0  0  0  0  0
    4.0980    3.8039    1.4042 C   0  0  0  0  0  0  0  0  0  0  0  0
    4.5216    4.5692    0.1460 C   0  0  0  0  0  0  0  0  0  0  0  0
    4.4554    1.1190   -0.1517 C   0  0  0  0  0  0  0  0  0  0  0  0
    5.3690    2.1093   -0.3444 N   0  0  0  0  0  0  0  0  0  0  0  0
    5.1022   -0.0651   -0.0444 C   0  0  0  0  0  0  0  0  0  0  0  0
    4.4527   -1.3036    0.0652 C   0  0  0  0  0  0  0  0  0  0  0  0
    5.0968   -2.3484    0.1844 O   0  0  0  0  0  0  0  0  0  0  0  0
    6.4326    0.2181   -0.0569 N   0  0  0  0  0  0  0  0  0  0  0  0
    6.5635    1.5793   -0.1554 C   0  0  0  0  0  0  0  0  0  0  0  0
    7.8705    2.3065   -0.0687 C   0  0  0  0  0  0  0  0  0  0  0  0
    8.6720    1.9803    1.1675 C   0  0  0  0  0  0  0  0  0  0  0  0
    9.1449    0.6955    1.4832 C   0  0  0  0  0  0  0  0  0  0  0  0
    9.8107    0.4274    2.6943 C   0  0  0  0  0  0  0  0  0  0  0  0
   10.0763    1.4698    3.5831 C   0  0  0  0  0  0  0  0  0  0  0  0
    9.6531    2.7401    3.2048 C   0  0  0  0  0  0  0  0  0  0  0  0
    8.9653    3.0083    2.0388 C   0  0  0  0  0  0  0  0  0  0  0  0
   10.7532    1.2182    4.7979 N   0  0  0  0  0  0  0  0  0  0  0  0
   11.1318    2.0796    5.8045 C   0  0  0  0  0  0  0  0  0  0  0  0
   11.7275    1.6396    6.7900 O   0  0  0  0  0  0  0  0  0  0  0  0
   10.8287    3.5519    5.7121 C   0  0  0  0  0  0  0  0  0  0  0  0
    2.5682   -2.9431    0.9832 H   0  0  0  0  0  0  0  0  0  0  0  0
    1.2233   -2.2399    0.0818 H   0  0  0  0  0  0  0  0  0  0  0  0
    2.4032   -2.8311   -2.1313 H   0  0  0  0  0  0  0  0  0  0  0  0
    3.4203   -5.0477   -1.9540 H   0  0  0  0  0  0  0  0  0  0  0  0
    3.4111   -4.9125   -0.1028 H   0  0  0  0  0  0  0  0  0  0  0  0
    2.5174    3.0392   -0.8779 H   0  0  0  0  0  0  0  0  0  0  0  0
    1.2679    2.3005    0.0633 H   0  0  0  0  0  0  0  0  0  0  0  0
    2.0096    4.2246    1.2985 H   0  0  0  0  0  0  0  0  0  0  0  0
    2.3917    2.7647    2.2048 H   0  0  0  0  0  0  0  0  0  0  0  0
    4.2564    4.4360    2.2812 H   0  0  0  0  0  0  0  0  0  0  0  0
    4.7227    2.9329    1.6234 H   0  0  0  0  0  0  0  0  0  0  0  0
    3.9938    5.5203    0.0840 H   0  0  0  0  0  0  0  0  0  0  0  0
    5.5999    4.7450    0.1414 H   0  0  0  0  0  0  0  0  0  0  0  0
    4.2917    4.0498   -0.7919 H   0  0  0  0  0  0  0  0  0  0  0  0
    7.1718   -0.4621    0.0257 H   0  0  0  0  0  0  0  0  0  0  0  0
    8.4865    2.1223   -0.9513 H   0  0  0  0  0  0  0  0  0  0  0  0
    7.6646    3.3899   -0.0689 H   0  0  0  0  0  0  0  0  0  0  0  0
    8.9983   -0.1234    0.7886 H   0  0  0  0  0  0  0  0  0  0  0  0
   10.1027   -0.6009    2.9020 H   0  0  0  0  0  0  0  0  0  0  0  0
    9.7993    3.6326    3.7714 H   0  0  0  0  0  0  0  0  0  0  0  0
    8.6736    4.0413    1.8616 H   0  0  0  0  0  0  0  0  0  0  0  0
   11.0223    0.2584    4.9956 H   0  0  0  0  0  0  0  0  0  0  0  0
   11.3487    3.9748    4.8439 H   0  0  0  0  0  0  0  0  0  0  0  0
    9.7418    3.6972    5.6871 H   0  0  0  0  0  0  0  0  0  0  0  0
   11.1865    4.1084    6.5762 H   0  0  0  0  0  0  0  0  0  0  0  0
  1  2  2  0  0  0  0
  2  3  1  0  0  0  0
  2  7  1  0  0  0  0
  3  4  1  0  0  0  0
  3 15  1  0  0  0  0
  4  5  1  0  0  0  0
  4 30  1  0  0  0  0
  4 31  1  0  0  0  0
  5  6  2  0  0  0  0
  5 32  1  0  0  0  0
  6 33  1  0  0  0  0
  6 34  1  0  0  0  0
  7  8  1  0  0  0  0
  7 12  1  0  0  0  0
  8  9  1  0  0  0  0
  8 35  1  0  0  0  0
  8 36  1  0  0  0  0
  9 10  1  0  0  0  0
  9 37  1  0  0  0  0
  9 38  1  0  0  0  0
 10 11  1  0  0  0  0
 10 39  1  0  0  0  0
 10 40  1  0  0  0  0
 11 41  1  0  0  0  0
 11 42  1  0  0  0  0
 11 43  1  0  0  0  0
 12 13  1  0  0  0  0
 12 14  2  0  0  0  0
 13 18  2  0  0  0  0
 14 15  1  0  0  0  0
 14 17  1  0  0  0  0
 15 16  2  0  0  0  0
 17 18  1  0  0  0  0
 17 44  1  0  0  0  0
 18 19  1  0  0  0  0
 19 20  1  0  0  0  0
 19 45  1  0  0  0  0
 19 46  1  0  0  0  0
 20 21  2  0  0  0  0
 20 25  1  0  0  0  0
 21 22  1  0  0  0  0
 21 47  1  0  0  0  0
 22 23  2  0  0  0  0
 22 48  1  0  0  0  0
 23 24  1  0  0  0  0
 23 26  1  0  0  0  0
 24 25  2  0  0  0  0
 24 49  1  0  0  0  0
 25 50  1  0  0  0  0
 26 27  1  0  0  0  0
 26 51  1  0  0  0  0
 27 28  2  0  0  0  0
 27 29  1  0  0  0  0
 29 52  1  0  0  0  0
 29 53  1  0  0  0  0
 29 54  1  0  0  0  0
M  END
>  <DRUGBANK_ID>
DB03267

>  <SECONDARY_ACCESSION_NUMBERS>
EXPT03126

>  <COMMON_NAME>
1-Allyl-3-Butyl-8-(N-Acetyl-4-Aminobenzyl)-Xanthine

$$$$
