RA2
 OpenBabel10282417133D

 51 52  0  0  0  0  0  0  0  0999 V2000
    1.3885   -0.2171    0.0068 C   0  0  0  0  0  0  0  0  0  0  0  0
    0.4794   -1.2871   -0.0133 C   0  0  0  0  0  0  0  0  0  0  0  0
   -0.9186   -0.9920    0.0107 C   0  0  0  0  0  0  0  0  0  0  0  0
   -1.3282    0.3403   -0.0236 C   0  0  0  0  0  0  0  0  0  0  0  0
   -0.4251    1.3964    0.0527 C   0  0  0  0  0  0  0  0  0  0  0  0
    0.9418    1.1148   -0.0011 C   0  0  0  0  0  0  0  0  0  0  0  0
   -1.0373    2.7303    0.3155 C   0  0  0  0  0  0  0  0  0  0  0  0
    1.0145   -2.6225   -0.0549 N   0  0  0  0  0  0  0  0  0  0  0  0
   -1.8726   -1.9771    0.1048 N   0  0  0  0  0  0  0  0  0  0  0  0
   -3.3261   -1.9405    0.0944 C   0  0  0  0  0  0  0  0  0  0  0  0
   -3.9044   -2.6672   -1.1496 C   0  0  0  0  0  0  0  0  0  0  0  0
   -3.8446   -4.1935   -1.2118 C   0  0  0  0  0  0  0  0  0  0  0  0
   -3.8382   -2.5436    1.4071 C   0  0  0  0  0  0  0  0  0  0  0  0
   -3.2294   -1.8624    2.6236 C   0  0  0  0  0  0  0  0  0  0  0  0
    0.8204   -3.5801   -1.1589 C   0  0  0  0  0  0  0  0  0  0  0  0
    1.3390   -4.9093   -0.5598 C   0  0  0  0  0  0  0  0  0  0  0  0
    2.3739   -4.4885    0.4505 C   0  0  0  0  0  0  0  0  0  0  0  0
    1.8959   -3.1265    0.9063 C   0  0  0  0  0  0  0  0  0  0  0  0
    2.2638   -2.5943    1.9438 O   0  0  0  0  0  0  0  0  0  0  0  0
    1.5796   -3.2066   -2.4475 C   0  0  0  0  0  0  0  0  0  0  0  0
    1.3233   -4.1329   -3.5085 O   0  0  0  0  0  0  0  0  0  0  0  0
   -0.6298   -3.8021   -1.5017 C   0  0  0  0  0  0  0  0  0  0  0  0
   -1.2335   -4.2612   -0.2699 O   0  0  0  0  0  0  0  0  0  0  0  0
   -0.1849    3.7543    0.4758 O   0  0  0  0  0  0  0  0  0  0  0  0
   -2.2510    2.8821    0.4369 O   0  0  0  0  0  0  0  0  0  0  0  0
    2.4595   -0.4094    0.0296 H   0  0  0  0  0  0  0  0  0  0  0  0
   -2.3879    0.5754   -0.0330 H   0  0  0  0  0  0  0  0  0  0  0  0
    1.6913    1.8951   -0.0420 H   0  0  0  0  0  0  0  0  0  0  0  0
   -1.4954   -2.8893    0.3805 H   0  0  0  0  0  0  0  0  0  0  0  0
   -3.6916   -0.9123    0.0381 H   0  0  0  0  0  0  0  0  0  0  0  0
   -4.9682   -2.4126   -1.2013 H   0  0  0  0  0  0  0  0  0  0  0  0
   -3.4403   -2.2581   -2.0564 H   0  0  0  0  0  0  0  0  0  0  0  0
   -4.1444   -4.6757   -0.2798 H   0  0  0  0  0  0  0  0  0  0  0  0
   -4.4575   -4.5824   -2.0260 H   0  0  0  0  0  0  0  0  0  0  0  0
   -2.8712   -4.5669   -1.4835 H   0  0  0  0  0  0  0  0  0  0  0  0
   -4.9293   -2.4508    1.4356 H   0  0  0  0  0  0  0  0  0  0  0  0
   -3.5965   -3.6096    1.4731 H   0  0  0  0  0  0  0  0  0  0  0  0
   -3.4137   -0.7849    2.5983 H   0  0  0  0  0  0  0  0  0  0  0  0
   -3.6570   -2.2780    3.5386 H   0  0  0  0  0  0  0  0  0  0  0  0
   -2.1466   -2.0256    2.6668 H   0  0  0  0  0  0  0  0  0  0  0  0
    1.6948   -5.6285   -1.3003 H   0  0  0  0  0  0  0  0  0  0  0  0
    0.5824   -5.4615    0.0090 H   0  0  0  0  0  0  0  0  0  0  0  0
    3.3565   -4.4062   -0.0138 H   0  0  0  0  0  0  0  0  0  0  0  0
    2.3949   -5.1984    1.2829 H   0  0  0  0  0  0  0  0  0  0  0  0
    1.2584   -2.2239   -2.8100 H   0  0  0  0  0  0  0  0  0  0  0  0
    2.6599   -3.1642   -2.2846 H   0  0  0  0  0  0  0  0  0  0  0  0
    1.5745   -5.0280   -3.2253 H   0  0  0  0  0  0  0  0  0  0  0  0
   -1.0776   -2.8680   -1.8671 H   0  0  0  0  0  0  0  0  0  0  0  0
   -0.8170   -4.5363   -2.2873 H   0  0  0  0  0  0  0  0  0  0  0  0
   -1.2915   -5.2279   -0.2796 H   0  0  0  0  0  0  0  0  0  0  0  0
    0.7595    3.5393    0.4361 H   0  0  0  0  0  0  0  0  0  0  0  0
  1  2  2  0  0  0  0
  1  6  1  0  0  0  0
  1 26  1  0  0  0  0
  2  3  1  0  0  0  0
  2  8  1  0  0  0  0
  3  4  2  0  0  0  0
  3  9  1  0  0  0  0
  4  5  1  0  0  0  0
  4 27  1  0  0  0  0
  5  6  2  0  0  0  0
  5  7  1  0  0  0  0
  6 28  1  0  0  0  0
  7 24  1  0  0  0  0
  7 25  2  0  0  0  0
  8 15  1  0  0  0  0
  8 18  1  0  0  0  0
  9 10  1  0  0  0  0
  9 29  1  0  0  0  0
 10 11  1  0  0  0  0
 10 13  1  0  0  0  0
 10 30  1  0  0  0  0
 11 12  1  0  0  0  0
 11 31  1  0  0  0  0
 11 32  1  0  0  0  0
 12 33  1  0  0  0  0
 12 34  1  0  0  0  0
 12 35  1  0  0  0  0
 13 14  1  0  0  0  0
 13 36  1  0  0  0  0
 13 37  1  0  0  0  0
 14 38  1  0  0  0  0
 14 39  1  0  0  0  0
 14 40  1  0  0  0  0
 15 16  1  0  0  0  0
 15 20  1  0  0  0  0
 15 22  1  0  0  0  0
 16 17  1  0  0  0  0
 16 41  1  0  0  0  0
 16 42  1  0  0  0  0
 17 18  1  0  0  0  0
 17 43  1  0  0  0  0
 17 44  1  0  0  0  0
 18 19  2  0  0  0  0
 20 21  1  0  0  0  0
 20 45  1  0  0  0  0
 20 46  1  0  0  0  0
 21 47  1  0  0  0  0
 22 23  1  0  0  0  0
 22 48  1  0  0  0  0
 22 49  1  0  0  0  0
 23 50  1  0  0  0  0
 24 51  1  0  0  0  0
M  END
>  <DRUGBANK_ID>
DB03475

>  <SECONDARY_ACCESSION_NUMBERS>
EXPT02752

>  <COMMON_NAME>
1-[4-Carboxy-2-(3-Pentylamino)Phenyl]-5,5'-Di(Hydroxymethyl)Pyrrolidin-2-One

$$$$
