
 OpenBabel10282417133D

 39 40  0  0  0  0  0  0  0  0999 V2000
    5.2423   -3.6298   -6.7970 C   0  0  0  0  0  0  0  0  0  0  0  0
    5.9872   -3.6621   -5.5088 C   0  0  0  0  0  0  0  0  0  0  0  0
    6.2594   -4.8838   -5.0443 N   0  0  0  0  0  0  0  0  0  0  0  0
    7.0327   -4.9135   -3.9745 C   0  0  0  0  0  0  0  0  0  0  0  0
    7.4341   -3.8284   -3.2386 C   0  0  0  0  0  0  0  0  0  0  0  0
    8.1057   -4.0293   -1.9406 C   0  0  0  0  0  0  0  0  0  0  0  0
    7.1681   -4.4607   -0.9043 N   0  3  0  0  0  0  0  0  0  0  0  0
    7.0704   -3.7103    0.1817 C   0  0  0  0  0  0  0  0  0  0  0  0
    6.8853   -4.7983    1.4615 S   0  0  0  0  0  0  0  0  0  0  0  0
    5.8666   -5.7770    0.4497 C   0  0  0  0  0  0  0  0  0  0  0  0
    4.8186   -6.7517    0.9183 C   0  0  0  0  0  0  0  0  0  0  0  0
    5.1025   -7.3060    2.2952 C   0  0  0  0  0  0  0  0  0  0  0  0
    5.0736   -6.3523    3.3275 O   0  0  0  0  0  0  0  0  0  0  0  0
    3.9323   -5.1843    3.4820 P   0  0  2  0  0  0  0  0  0  0  0  0
    3.0414   -6.4065    4.3220 O   0  0  0  0  0  0  0  0  0  0  0  0
    2.7645   -5.3525    2.5040 O   0  5  0  0  0  0  0  0  0  0  0  0
    4.7296   -4.0905    2.7303 O   0  0  0  0  0  0  0  0  0  0  0  0
    6.4869   -5.6858   -0.7736 C   0  0  0  0  0  0  0  0  0  0  0  0
    6.4915   -6.7928   -1.7418 C   0  0  0  0  0  0  0  0  0  0  0  0
    7.1952   -2.6087   -3.8426 C   0  0  0  0  0  0  0  0  0  0  0  0
    7.8794   -1.4693   -3.4619 N   0  0  0  0  0  0  0  0  0  0  0  0
    6.4758   -2.5237   -4.9725 N   0  0  0  0  0  0  0  0  0  0  0  0
    4.3987   -2.9421   -6.7328 H   0  0  0  0  0  0  0  0  0  0  0  0
    5.9252   -3.3283   -7.5946 H   0  0  0  0  0  0  0  0  0  0  0  0
    4.8591   -4.6292   -7.0399 H   0  0  0  0  0  0  0  0  0  0  0  0
    7.3695   -5.9134   -3.7365 H   0  0  0  0  0  0  0  0  0  0  0  0
    8.9117   -4.7679   -2.0005 H   0  0  0  0  0  0  0  0  0  0  0  0
    8.5908   -3.1035   -1.6010 H   0  0  0  0  0  0  0  0  0  0  0  0
    7.3727   -2.6777    0.3033 H   0  0  0  0  0  0  0  0  0  0  0  0
    3.8220   -6.3153    0.8262 H   0  0  0  0  0  0  0  0  0  0  0  0
    4.7728   -7.6076    0.2337 H   0  0  0  0  0  0  0  0  0  0  0  0
    4.4445   -8.1446    2.5382 H   0  0  0  0  0  0  0  0  0  0  0  0
    6.1229   -7.7136    2.2784 H   0  0  0  0  0  0  0  0  0  0  0  0
    2.1691   -6.2083    3.9183 H   0  0  0  0  0  0  0  0  0  0  0  0
    5.8294   -6.5867   -2.5818 H   0  0  0  0  0  0  0  0  0  0  0  0
    7.5174   -7.0348   -2.0291 H   0  0  0  0  0  0  0  0  0  0  0  0
    6.1008   -7.7206   -1.3140 H   0  0  0  0  0  0  0  0  0  0  0  0
    7.5574   -0.6682   -4.0074 H   0  0  0  0  0  0  0  0  0  0  0  0
    8.0442   -1.2416   -2.4938 H   0  0  0  0  0  0  0  0  0  0  0  0
  1  2  1  0  0  0  0
  1 23  1  0  0  0  0
  1 24  1  0  0  0  0
  1 25  1  0  0  0  0
  2  3  2  0  0  0  0
  2 22  1  0  0  0  0
  3  4  1  0  0  0  0
  4  5  2  0  0  0  0
  4 26  1  0  0  0  0
  5  6  1  0  0  0  0
  5 20  1  0  0  0  0
  6  7  1  0  0  0  0
  6 27  1  0  0  0  0
  6 28  1  0  0  0  0
  7  8  2  0  0  0  0
  7 18  1  0  0  0  0
  8  9  1  0  0  0  0
  8 29  1  0  0  0  0
  9 10  1  0  0  0  0
 10 11  1  0  0  0  0
 10 18  2  0  0  0  0
 11 12  1  0  0  0  0
 11 30  1  0  0  0  0
 11 31  1  0  0  0  0
 12 13  1  0  0  0  0
 12 32  1  0  0  0  0
 12 33  1  0  0  0  0
 14 16  1  6  0  0  0
 14 17  2  0  0  0  0
 14 15  1  0  0  0  0
 14 13  1  0  0  0  0
 15 34  1  0  0  0  0
 18 19  1  0  0  0  0
 19 35  1  0  0  0  0
 19 36  1  0  0  0  0
 19 37  1  0  0  0  0
 20 21  1  0  0  0  0
 20 22  2  0  0  0  0
 21 38  1  0  0  0  0
 21 39  1  0  0  0  0
M  CHG  2   7   1  16  -1
M  END
>  <DRUGBANK_ID>
DB03416

>  <SECONDARY_ACCESSION_NUMBERS>
EXPT03096

>  <COMMON_NAME>
Thiamine(1+) monophosphate

>  <CAS_NUMBER>
10023-48-0

>  <UNII>
71F2V60NN0

$$$$
