304
 OpenBabel10282417103D

 53 56  0  0  1  0  0  0  0  0999 V2000
    0.1598    0.8766    0.3540 O   0  0  0  0  0  0  0  0  0  0  0  0
    0.3919   -1.5928    0.2650 C   0  0  1  0  0  0  0  0  0  0  0  0
   -1.0207   -1.9063    0.7962 C   0  0  2  0  0  0  0  0  0  0  0  0
   -1.8280   -2.4000   -0.4379 C   0  0  1  0  0  0  0  0  0  0  0  0
   -1.4276   -3.8024   -1.3739 C   0  0  1  0  0  0  0  0  0  0  0  0
    0.7132   -0.2990    1.1883 C   0  0  2  0  0  0  0  0  0  0  0  0
   -1.4665   -0.7323    1.7402 C   0  0  0  0  0  0  0  0  0  0  0  0
    0.7910   -3.2316    0.1608 C   0  0  0  0  0  0  0  0  0  0  0  0
   -0.1931   -0.1015    2.3432 C   0  0  0  0  0  0  0  0  0  0  0  0
   -2.4779   -4.0974   -2.9526 C   0  0  2  0  0  0  0  0  0  0  0  0
   -3.2772   -2.3379   -0.1268 C   0  0  0  0  0  0  0  0  0  0  0  0
    0.1779   -3.7872   -1.2259 C   0  0  0  0  0  0  0  0  0  0  0  0
    1.0372   -0.8110   -1.0490 C   0  0  0  0  0  0  0  0  0  0  0  0
   -3.8989   -2.5386   -1.4796 C   0  0  0  0  0  0  0  0  0  0  0  0
   -3.5295   -3.9353   -1.8950 C   0  0  0  0  0  0  0  0  0  0  0  0
   -3.9318   -4.9086   -3.9254 C   0  0  0  0  0  0  0  0  0  0  0  0
    0.3246   -0.8473   -2.3079 C   0  0  0  0  0  0  0  0  0  0  0  0
    2.1921   -0.6131    1.2832 C   0  0  0  0  0  0  0  0  0  0  0  0
   -5.4938   -4.6024   -3.4690 C   0  0  0  0  0  0  0  0  0  0  0  0
   -4.2142   -5.0297   -1.5329 C   0  0  0  0  0  0  0  0  0  0  0  0
    1.0481   -3.9896   -2.2338 C   0  0  0  0  0  0  0  0  0  0  0  0
   -5.6171   -4.8120   -1.9568 C   0  0  0  0  0  0  0  0  0  0  0  0
    2.9992   -1.3530    0.8242 C   0  0  0  0  0  0  0  0  0  0  0  0
   -1.0122   -2.7178    1.5537 H   0  0  0  0  0  0  0  0  0  0  0  0
   -1.6945   -1.5863   -1.1246 H   0  0  0  0  0  0  0  0  0  0  0  0
   -1.6689   -4.6773   -0.7418 H   0  0  0  0  0  0  0  0  0  0  0  0
   -1.8864   -5.0026   -3.1901 H   0  0  0  0  0  0  0  0  0  0  0  0
   -0.1717    1.7060    0.7322 H   0  0  0  0  0  0  0  0  0  0  0  0
   -2.1057   -1.0289    2.5780 H   0  0  0  0  0  0  0  0  0  0  0  0
   -2.0274   -0.0055    1.1429 H   0  0  0  0  0  0  0  0  0  0  0  0
    1.8498   -3.5110    0.2553 H   0  0  0  0  0  0  0  0  0  0  0  0
    0.3996   -3.8601    0.9967 H   0  0  0  0  0  0  0  0  0  0  0  0
    0.2314   -0.4798    3.2696 H   0  0  0  0  0  0  0  0  0  0  0  0
   -0.4200    0.9727    2.5365 H   0  0  0  0  0  0  0  0  0  0  0  0
   -3.5405   -1.3484    0.2547 H   0  0  0  0  0  0  0  0  0  0  0  0
   -3.5294   -3.0824    0.6370 H   0  0  0  0  0  0  0  0  0  0  0  0
    1.1508    0.2740   -0.9711 H   0  0  0  0  0  0  0  0  0  0  0  0
    2.1238   -0.8729   -1.1898 H   0  0  0  0  0  0  0  0  0  0  0  0
   -3.5049   -1.8032   -2.1978 H   0  0  0  0  0  0  0  0  0  0  0  0
   -4.9554   -2.3492   -1.3728 H   0  0  0  0  0  0  0  0  0  0  0  0
   -4.0158   -4.7653   -5.0250 H   0  0  0  0  0  0  0  0  0  0  0  0
   -3.8027   -6.0171   -3.9084 H   0  0  0  0  0  0  0  0  0  0  0  0
   -0.6909   -0.5573   -2.1043 H   0  0  0  0  0  0  0  0  0  0  0  0
    0.7587   -0.0864   -2.9489 H   0  0  0  0  0  0  0  0  0  0  0  0
    0.4962   -1.8204   -2.7053 H   0  0  0  0  0  0  0  0  0  0  0  0
   -6.3349   -5.1805   -3.9034 H   0  0  0  0  0  0  0  0  0  0  0  0
   -5.7297   -3.5881   -3.8333 H   0  0  0  0  0  0  0  0  0  0  0  0
   -3.7876   -5.9940   -1.8620 H   0  0  0  0  0  0  0  0  0  0  0  0
    0.6929   -4.0784   -3.2528 H   0  0  0  0  0  0  0  0  0  0  0  0
    2.1237   -3.8353   -2.1145 H   0  0  0  0  0  0  0  0  0  0  0  0
   -6.1786   -5.7007   -1.6865 H   0  0  0  0  0  0  0  0  0  0  0  0
   -6.0770   -3.9378   -1.4974 H   0  0  0  0  0  0  0  0  0  0  0  0
    3.1967   -2.0824    0.0002 H   0  0  0  0  0  0  0  0  0  0  0  0
  1 28  1  0  0  0  0
  2  3  1  0  0  0  0
  2  6  1  0  0  0  0
  2  8  1  0  0  0  0
  2 13  1  6  0  0  0
  3  4  1  0  0  0  0
  3  7  1  0  0  0  0
  3 24  1  1  0  0  0
  4  5  1  0  0  0  0
  4 11  1  0  0  0  0
  4 25  1  6  0  0  0
  5 10  1  0  0  0  0
  5 12  1  0  0  0  0
  5 26  1  1  0  0  0
  6  1  1  0  0  0  0
  6  9  1  0  0  0  0
  6 18  1  1  0  0  0
  7  9  1  0  0  0  0
  7 29  1  0  0  0  0
  7 30  1  0  0  0  0
  8 12  1  0  0  0  0
  8 31  1  0  0  0  0
  8 32  1  0  0  0  0
  9 33  1  0  0  0  0
  9 34  1  0  0  0  0
 10 15  1  0  0  0  0
 10 16  1  0  0  0  0
 10 27  1  6  0  0  0
 11 14  1  0  0  0  0
 11 35  1  0  0  0  0
 11 36  1  0  0  0  0
 12 21  2  0  0  0  0
 13 17  1  0  0  0  0
 13 37  1  0  0  0  0
 13 38  1  0  0  0  0
 14 15  1  0  0  0  0
 14 39  1  0  0  0  0
 14 40  1  0  0  0  0
 15 20  2  0  0  0  0
 16 19  1  0  0  0  0
 16 41  1  0  0  0  0
 16 42  1  0  0  0  0
 17 43  1  0  0  0  0
 17 44  1  0  0  0  0
 17 45  1  0  0  0  0
 18 23  3  0  0  0  0
 19 22  1  0  0  0  0
 19 46  1  0  0  0  0
 19 47  1  0  0  0  0
 20 22  1  0  0  0  0
 20 48  1  0  0  0  0
 21 49  1  0  0  0  0
 21 50  1  0  0  0  0
 22 51  1  0  0  0  0
 22 52  1  0  0  0  0
 23 53  1  0  0  0  0
M  END
>  <DRUGBANK_ID>
DB00304

>  <SECONDARY_ACCESSION_NUMBERS>
APRD00762

>  <COMMON_NAME>
Desogestrel

>  <CAS_NUMBER>
54024-22-5

>  <UNII>
81K9V7M3A3

>  <SYNONYMS>
13-Ethyl-11-methylene-18,19-dinor-17α-pregn-4-en-20-yn-17-ol; Desogestrel; Désogestrel; Desogestrelum

$$$$
