
 OpenBabel10282417123D

105112  0  0  1  0  0  0  0  0999 V2000
    1.2744   -8.3066    8.1207 C   0  0  0  0  0  0  0  0  0  0  0  0
    1.3412   -7.8400    9.5657 C   0  0  1  0  0  0  0  0  0  0  0  0
    2.4866   -8.5454   10.2735 C   0  0  0  0  0  0  0  0  0  0  0  0
    3.7948   -8.2154    9.5734 C   0  0  0  0  0  0  0  0  0  0  0  0
    4.8375   -7.5664   10.2862 O   0  0  0  0  0  0  0  0  0  0  0  0
    3.9555   -8.5204    8.3502 O   0  0  0  0  0  0  0  0  0  0  0  0
    0.5990   -7.2719    6.9054 C   0  0  0  0  0  0  0  0  0  0  0  0
    0.6200   -7.9851    5.7670 C   0  0  0  0  0  0  0  0  0  0  0  0
    1.7043   -7.7347    4.8063 C   0  0  0  0  0  0  0  0  0  0  0  0
    1.9939   -8.2479    3.6428 C   0  0  0  0  0  0  0  0  0  0  0  0
    1.2087   -9.3331    2.9245 C   0  0  0  0  0  0  0  0  0  0  0  0
    0.7207   -8.8037    1.5858 C   0  0  0  0  0  0  0  0  0  0  0  0
    1.9137   -8.3955    0.7370 C   0  0  0  0  0  0  0  0  0  0  0  0
    2.1384   -9.0194   -0.5186 O   0  0  0  0  0  0  0  0  0  0  0  0
    2.7101   -7.4958    1.1511 O   0  0  0  0  0  0  0  0  0  0  0  0
    3.1572   -7.6225    3.1707 C   0  0  2  0  0  0  0  0  0  0  0  0
    2.8697   -6.9197    1.8540 C   0  0  0  0  0  0  0  0  0  0  0  0
    4.2550   -8.6468    2.9343 C   0  0  0  0  0  0  0  0  0  0  0  0
    4.9138   -8.7054    4.3029 C   0  0  0  0  0  0  0  0  0  0  0  0
    5.3322   -9.9530    4.8366 O   0  0  0  0  0  0  0  0  0  0  0  0
    5.0900   -7.6379    4.9696 O   0  0  0  0  0  0  0  0  0  0  0  0
    3.5419   -6.7217    4.0983 C   0  0  0  0  0  0  0  0  0  0  0  0
    4.2814   -9.2768    8.1754 C   0  0  0  0  0  0  0  0  0  0  0  0
    4.9258   -7.9046    8.0650 C   0  0  0  0  0  0  0  0  0  0  0  0
    6.1495   -7.4703    8.5561 C   0  0  0  0  0  0  0  0  0  0  0  0
    7.0645   -8.3977    9.3392 C   0  0  0  0  0  0  0  0  0  0  0  0
    8.3945   -8.5274    8.6149 C   0  0  0  0  0  0  0  0  0  0  0  0
    9.5962   -8.1342    9.2613 O   0  0  0  0  0  0  0  0  0  0  0  0
    8.4311   -8.9878    7.4309 O   0  0  0  0  0  0  0  0  0  0  0  0
    6.4968   -6.1670    8.3036 C   0  0  0  0  0  0  0  0  0  0  0  0
    7.8253   -5.6159    8.7954 C   0  0  0  0  0  0  0  0  0  0  0  0
    8.6492   -5.1449    7.6081 C   0  0  0  0  0  0  0  0  0  0  0  0
    7.8922   -4.0553    6.8664 C   0  0  0  0  0  0  0  0  0  0  0  0
    8.4620   -2.7619    6.7298 O   0  0  0  0  0  0  0  0  0  0  0  0
    6.7492   -4.3020    6.3684 O   0  0  0  0  0  0  0  0  0  0  0  0
    5.6380   -5.3740    7.6078 C   0  0  0  0  0  0  0  0  0  0  0  0
    5.8051   -3.9138    7.2198 C   0  0  0  0  0  0  0  0  0  0  0  0
    4.8282   -3.2810    6.5156 C   0  0  0  0  0  0  0  0  0  0  0  0
    4.7834   -1.9680    6.0671 N   0  0  0  0  0  0  0  0  0  0  0  0
    3.6691   -1.5863    5.3630 C   0  0  0  0  0  0  0  0  0  0  0  0
    1.9115   -4.1357    8.4790 C   0  0  0  0  0  0  0  0  0  0  0  0
    1.6818   -5.6377    8.4418 C   0  0  0  0  0  0  0  0  0  0  0  0
    1.5793   -6.3339    7.1511 N   0  0  0  0  0  0  0  0  0  0  0  0
    2.5695   -6.0971    6.2754 Fe  0  0  1  0  0  0  0  0  0  0  0  0
    2.6594   -6.7745    5.1156 N   0  0  0  0  0  0  0  0  0  0  0  0
    4.3067   -6.4321    7.2707 N   0  0  0  0  0  0  0  0  0  0  0  0
    1.5710   -6.3379    9.6029 C   0  0  0  0  0  0  0  0  0  0  0  0
    1.6769   -5.6181   10.9375 C   0  0  0  0  0  0  0  0  0  0  0  0
    0.3892   -5.8121   11.7215 C   0  0  0  0  0  0  0  0  0  0  0  0
    0.1615   -7.2955   11.9626 C   0  0  0  0  0  0  0  0  0  0  0  0
    0.0809   -7.7950   13.2894 O   0  0  0  0  0  0  0  0  0  0  0  0
    0.0432   -8.0887   10.9767 O   0  0  0  0  0  0  0  0  0  0  0  0
    2.6753   -2.4908    5.1515 C   0  0  0  0  0  0  0  0  0  0  0  0
    1.3612   -2.2942    4.4134 C   0  0  0  0  0  0  0  0  0  0  0  0
    1.2893   -3.2590    3.2410 C   0  0  0  0  0  0  0  0  0  0  0  0
    0.2413   -4.2146    3.1712 O   0  0  0  0  0  0  0  0  0  0  0  0
    2.1672   -3.2104    2.3233 O   0  0  0  0  0  0  0  0  0  0  0  0
    3.2707   -3.9221    5.9278 C   0  0  0  0  0  0  0  0  0  0  0  0
    2.6530   -5.3040    6.0657 C   0  0  0  0  0  0  0  0  0  0  0  0
    1.3289   -5.1957    6.8044 C   0  0  0  0  0  0  0  0  0  0  0  0
    0.3857   -4.2947    6.0242 C   0  0  0  0  0  0  0  0  0  0  0  0
   -0.8548   -4.8019    5.5549 O   0  0  0  0  0  0  0  0  0  0  0  0
    0.7073   -3.0873    5.7918 O   0  0  0  0  0  0  0  0  0  0  0  0
    1.1127   -9.3640    8.0945 H   0  0  0  0  0  0  0  0  0  0  0  0
    2.1953   -8.0744    7.6279 H   0  0  0  0  0  0  0  0  0  0  0  0
    0.4681   -7.8101    7.6225 H   0  0  0  0  0  0  0  0  0  0  0  0
    2.5337   -8.2168   11.2907 H   0  0  0  0  0  0  0  0  0  0  0  0
    2.3249   -9.6027   10.2473 H   0  0  0  0  0  0  0  0  0  0  0  0
    4.7111   -7.3264   11.2487 H   0  0  0  0  0  0  0  0  0  0  0  0
   -0.1337   -8.7171    5.5646 H   0  0  0  0  0  0  0  0  0  0  0  0
    1.8393  -10.1825    2.7636 H   0  0  0  0  0  0  0  0  0  0  0  0
    0.3689   -9.6205    3.5220 H   0  0  0  0  0  0  0  0  0  0  0  0
    0.1679   -9.5677    1.0802 H   0  0  0  0  0  0  0  0  0  0  0  0
    0.0901   -7.9543    1.7467 H   0  0  0  0  0  0  0  0  0  0  0  0
    1.5117   -9.7273   -0.8445 H   0  0  0  0  0  0  0  0  0  0  0  0
    3.8089   -6.4797    1.5906 H   0  0  0  0  0  0  0  0  0  0  0  0
    2.5818   -7.6232    1.1009 H   0  0  0  0  0  0  0  0  0  0  0  0
    2.1260   -6.1541    1.9298 H   0  0  0  0  0  0  0  0  0  0  0  0
    4.1913   -9.6340    2.5266 H   0  0  0  0  0  0  0  0  0  0  0  0
    4.8384   -8.0292    2.2839 H   0  0  0  0  0  0  0  0  0  0  0  0
    5.1936  -10.7930    4.3120 H   0  0  0  0  0  0  0  0  0  0  0  0
    4.7879  -10.0657    8.6911 H   0  0  0  0  0  0  0  0  0  0  0  0
    7.2285   -7.9950   10.3168 H   0  0  0  0  0  0  0  0  0  0  0  0
    6.6082   -9.3619    9.4225 H   0  0  0  0  0  0  0  0  0  0  0  0
    9.5674   -7.7719   10.1929 H   0  0  0  0  0  0  0  0  0  0  0  0
    7.6475   -4.7926    9.4553 H   0  0  0  0  0  0  0  0  0  0  0  0
    8.3582   -6.3829    9.3176 H   0  0  0  0  0  0  0  0  0  0  0  0
    9.5844   -4.7570    7.9544 H   0  0  0  0  0  0  0  0  0  0  0  0
    8.8269   -5.9682    6.9483 H   0  0  0  0  0  0  0  0  0  0  0  0
    9.3613   -2.5678    7.1217 H   0  0  0  0  0  0  0  0  0  0  0  0
    5.6875   -4.9417    7.4929 H   0  0  0  0  0  0  0  0  0  0  0  0
    1.9861   -3.6290    9.4185 H   0  0  0  0  0  0  0  0  0  0  0  0
    2.4977   -6.0190   11.4948 H   0  0  0  0  0  0  0  0  0  0  0  0
    1.8372   -4.5738   10.7678 H   0  0  0  0  0  0  0  0  0  0  0  0
    0.4638   -5.3054   12.6609 H   0  0  0  0  0  0  0  0  0  0  0  0
   -0.4315   -5.4112   11.1642 H   0  0  0  0  0  0  0  0  0  0  0  0
    0.1740   -7.1709   14.0651 H   0  0  0  0  0  0  0  0  0  0  0  0
    0.5459   -2.4821    5.0804 H   0  0  0  0  0  0  0  0  0  0  0  0
    1.3020   -1.2888    4.0521 H   0  0  0  0  0  0  0  0  0  0  0  0
   -0.4494   -4.2529    3.8933 H   0  0  0  0  0  0  0  0  0  0  0  0
    2.4861   -5.7188    5.0936 H   0  0  0  0  0  0  0  0  0  0  0  0
    3.3170   -5.9383    6.6150 H   0  0  0  0  0  0  0  0  0  0  0  0
    0.8941   -6.1685    6.9015 H   0  0  0  0  0  0  0  0  0  0  0  0
    1.4958   -4.7810    7.7765 H   0  0  0  0  0  0  0  0  0  0  0  0
   -1.1079   -5.7519    5.7377 H   0  0  0  0  0  0  0  0  0  0  0  0
  1 64  1  0  0  0  0
  1 65  1  0  0  0  0
  1 66  1  0  0  0  0
  2  1  1  1  0  0  0
  2  3  1  0  0  0  0
  2  7  1  0  0  0  0
  2 47  1  0  0  0  0
  3  4  1  0  0  0  0
  3 67  1  0  0  0  0
  3 68  1  0  0  0  0
  4  5  1  0  0  0  0
  4  6  2  0  0  0  0
  5 69  1  0  0  0  0
  7  8  2  0  0  0  0
  8  9  1  0  0  0  0
  8 70  1  0  0  0  0
  9 10  2  0  0  0  0
  9 45  1  0  0  0  0
 10 11  1  0  0  0  0
 10 16  1  0  0  0  0
 11 12  1  0  0  0  0
 11 71  1  0  0  0  0
 11 72  1  0  0  0  0
 12 13  1  0  0  0  0
 12 73  1  0  0  0  0
 12 74  1  0  0  0  0
 13 14  1  0  0  0  0
 13 15  2  0  0  0  0
 14 75  1  0  0  0  0
 16 22  1  0  0  0  0
 16 18  1  6  0  0  0
 16 17  1  0  0  0  0
 17 76  1  0  0  0  0
 17 77  1  0  0  0  0
 17 78  1  0  0  0  0
 18 19  1  0  0  0  0
 18 79  1  0  0  0  0
 18 80  1  0  0  0  0
 19 20  1  0  0  0  0
 19 21  2  0  0  0  0
 20 81  1  0  0  0  0
 22 23  2  0  0  0  0
 23 24  1  0  0  0  0
 23 82  1  0  0  0  0
 24 25  2  0  0  0  0
 24 46  1  0  0  0  0
 25 26  1  0  0  0  0
 25 30  1  0  0  0  0
 26 27  1  0  0  0  0
 26 83  1  0  0  0  0
 26 84  1  0  0  0  0
 27 28  1  0  0  0  0
 27 29  2  0  0  0  0
 28 85  1  0  0  0  0
 30 31  1  0  0  0  0
 30 36  2  0  0  0  0
 31 32  1  0  0  0  0
 31 86  1  0  0  0  0
 31 87  1  0  0  0  0
 32 33  1  0  0  0  0
 32 88  1  0  0  0  0
 32 89  1  0  0  0  0
 33 34  1  0  0  0  0
 33 35  2  0  0  0  0
 34 90  1  0  0  0  0
 36 37  1  0  0  0  0
 36 46  1  0  0  0  0
 37 38  2  0  0  0  0
 37 91  1  0  0  0  0
 38 39  1  0  0  0  0
 38 58  1  0  0  0  0
 39 40  1  0  0  0  0
 40 41  2  0  0  0  0
 40 53  1  0  0  0  0
 41 42  1  0  0  0  0
 41 92  1  0  0  0  0
 42 43  1  0  0  0  0
 42 47  2  0  0  0  0
 43  7  1  0  0  0  0
 44 43  1  1  0  0  0
 44 39  1  0  0  0  0
 44 45  1  0  0  0  0
 44 46  1  0  0  0  0
 45 22  1  0  0  0  0
 47 48  1  0  0  0  0
 48 49  1  0  0  0  0
 48 93  1  0  0  0  0
 48 94  1  0  0  0  0
 49 50  1  0  0  0  0
 49 95  1  0  0  0  0
 49 96  1  0  0  0  0
 50 51  1  0  0  0  0
 50 52  2  0  0  0  0
 51 97  1  0  0  0  0
 53 54  1  0  0  0  0
 53 58  2  0  0  0  0
 54 55  1  0  0  0  0
 54 98  1  0  0  0  0
 54 99  1  0  0  0  0
 55 56  1  0  0  0  0
 55 57  2  0  0  0  0
 56100  1  0  0  0  0
 58 59  1  0  0  0  0
 59 60  1  0  0  0  0
 59101  1  0  0  0  0
 59102  1  0  0  0  0
 60 61  1  0  0  0  0
 60103  1  0  0  0  0
 60104  1  0  0  0  0
 61 62  1  0  0  0  0
 61 63  2  0  0  0  0
 62105  1  0  0  0  0
M  END
>  <DRUGBANK_ID>
DB02832

>  <SECONDARY_ACCESSION_NUMBERS>
EXPT02954

>  <COMMON_NAME>
Siroheme

>  <CAS_NUMBER>
52553-42-1

$$$$
