
 OpenBabel10282417213D

 55 56  0  0  0  0  0  0  0  0999 V2000
    0.9501   -0.0626    0.0599 C   0  0  3  0  0  0  0  0  0  0  0  0
    0.5073   -0.4589    1.5009 C   0  0  0  0  0  0  0  0  0  0  0  0
    0.6606    1.4634   -0.2226 C   0  0  0  0  0  0  0  0  0  0  0  0
    0.8707   -1.2008   -1.0911 C   0  0  0  0  0  0  0  0  0  0  0  0
    2.4701   -0.0626    0.0599 C   0  0  0  0  0  0  0  0  0  0  0  0
    0.6116   -1.7756    1.9758 C   0  0  0  0  0  0  0  0  0  0  0  0
    0.1097    0.4748    2.4696 C   0  0  0  0  0  0  0  0  0  0  0  0
    0.8668    2.0466   -1.6374 C   0  0  0  0  0  0  0  0  0  0  0  0
    1.7498   -1.0214   -2.4020 C   0  0  0  0  0  0  0  0  0  0  0  0
    1.2216   -2.6776   -0.8236 C   0  0  0  0  0  0  0  0  0  0  0  0
    3.7310   -0.0626    0.0599 N   0  0  0  0  0  0  0  0  0  0  0  0
    0.2291   -2.1930    3.2441 C   0  0  0  0  0  0  0  0  0  0  0  0
   -0.1102    0.0932    3.8043 C   0  0  0  0  0  0  0  0  0  0  0  0
    0.0707    1.3621   -2.7695 C   0  0  0  0  0  0  0  0  0  0  0  0
   -0.1060   -1.2477    4.1762 C   0  0  0  0  0  0  0  0  0  0  0  0
   -1.3730    1.2406   -2.9032 N   0  0  0  0  0  0  0  0  0  0  0  0
   -1.7267   -0.0227   -3.7279 C   0  0  0  0  0  0  0  0  0  0  0  0
   -1.9348    1.1306   -1.5797 C   0  0  0  0  0  0  0  0  0  0  0  0
   -1.4755   -1.5920   -3.4120 C   0  0  0  0  0  0  0  0  0  0  0  0
   -1.9927   -2.2820   -2.1344 C   0  0  0  0  0  0  0  0  0  0  0  0
   -1.6724   -3.5682   -1.7566 C   0  0  0  0  0  0  0  0  0  0  0  0
   -2.6565   -1.5449   -1.1510 C   0  0  0  0  0  0  0  0  0  0  0  0
   -1.8324   -3.9881   -0.4086 C   0  0  0  0  0  0  0  0  0  0  0  0
   -2.4405   -1.7851    0.2105 C   0  0  0  0  0  0  0  0  0  0  0  0
   -2.1386   -3.0455    0.5887 C   0  0  0  0  0  0  0  0  0  0  0  0
   -0.3276    1.7055    0.1480 H   0  0  0  0  0  0  0  0  0  0  0  0
    1.2809    2.0806    0.4520 H   0  0  0  0  0  0  0  0  0  0  0  0
   -0.1782   -1.2327   -1.2634 H   0  0  0  0  0  0  0  0  0  0  0  0
    1.0503   -2.5706    1.4178 H   0  0  0  0  0  0  0  0  0  0  0  0
    0.0015    1.5346    2.2504 H   0  0  0  0  0  0  0  0  0  0  0  0
    0.6725    3.1233   -1.6400 H   0  0  0  0  0  0  0  0  0  0  0  0
    1.9433    1.9351   -1.8489 H   0  0  0  0  0  0  0  0  0  0  0  0
    2.8113   -1.0729   -2.1883 H   0  0  0  0  0  0  0  0  0  0  0  0
    1.5077   -1.8076   -3.1208 H   0  0  0  0  0  0  0  0  0  0  0  0
    1.7095   -0.1257   -3.0064 H   0  0  0  0  0  0  0  0  0  0  0  0
    0.5790   -3.1879   -0.1212 H   0  0  0  0  0  0  0  0  0  0  0  0
    1.0290   -3.2624   -1.7293 H   0  0  0  0  0  0  0  0  0  0  0  0
    2.2740   -2.8015   -0.5601 H   0  0  0  0  0  0  0  0  0  0  0  0
    0.2737   -3.2551    3.4750 H   0  0  0  0  0  0  0  0  0  0  0  0
   -0.2601    0.8544    4.5617 H   0  0  0  0  0  0  0  0  0  0  0  0
    0.5740    1.5058   -3.7337 H   0  0  0  0  0  0  0  0  0  0  0  0
    0.1859    0.3582   -2.4863 H   0  0  0  0  0  0  0  0  0  0  0  0
   -0.3203   -1.5551    5.1934 H   0  0  0  0  0  0  0  0  0  0  0  0
   -2.8031    0.0366   -3.8854 H   0  0  0  0  0  0  0  0  0  0  0  0
   -1.2580    0.1442   -4.7116 H   0  0  0  0  0  0  0  0  0  0  0  0
   -1.4410    0.2859   -1.1122 H   0  0  0  0  0  0  0  0  0  0  0  0
   -1.8033    1.9248   -0.8535 H   0  0  0  0  0  0  0  0  0  0  0  0
   -3.0118    1.0608   -1.6438 H   0  0  0  0  0  0  0  0  0  0  0  0
   -1.8637   -2.1740   -4.2583 H   0  0  0  0  0  0  0  0  0  0  0  0
   -0.3995   -1.7709   -3.5055 H   0  0  0  0  0  0  0  0  0  0  0  0
   -1.2302   -4.2626   -2.4748 H   0  0  0  0  0  0  0  0  0  0  0  0
   -3.2096   -0.6979   -1.4405 H   0  0  0  0  0  0  0  0  0  0  0  0
   -1.6101   -4.9985   -0.1161 H   0  0  0  0  0  0  0  0  0  0  0  0
   -2.5066   -0.9591    0.9332 H   0  0  0  0  0  0  0  0  0  0  0  0
   -2.1392   -3.3021    1.6496 H   0  0  0  0  0  0  0  0  0  0  0  0
  1  2  1  0  0  0  0
  1  3  1  0  0  0  0
  1  4  1  0  0  0  0
  1  5  1  0  0  0  0
  2  6  2  0  0  0  0
  2  7  1  0  0  0  0
  3  8  1  0  0  0  0
  3 26  1  0  0  0  0
  3 27  1  0  0  0  0
  4  9  1  0  0  0  0
  4 10  1  0  0  0  0
  4 28  1  0  0  0  0
  5 11  3  0  0  0  0
  6 12  1  0  0  0  0
  6 29  1  0  0  0  0
  7 13  2  0  0  0  0
  7 30  1  0  0  0  0
  8 14  1  0  0  0  0
  8 31  1  0  0  0  0
  8 32  1  0  0  0  0
  9 33  1  0  0  0  0
  9 34  1  0  0  0  0
  9 35  1  0  0  0  0
 10 36  1  0  0  0  0
 10 37  1  0  0  0  0
 10 38  1  0  0  0  0
 12 15  2  0  0  0  0
 12 39  1  0  0  0  0
 13 15  1  0  0  0  0
 13 40  1  0  0  0  0
 14 16  1  0  0  0  0
 14 41  1  0  0  0  0
 14 42  1  0  0  0  0
 15 43  1  0  0  0  0
 16 17  1  0  0  0  0
 16 18  1  0  0  0  0
 17 19  1  0  0  0  0
 17 44  1  0  0  0  0
 17 45  1  0  0  0  0
 18 46  1  0  0  0  0
 18 47  1  0  0  0  0
 18 48  1  0  0  0  0
 19 20  1  0  0  0  0
 19 49  1  0  0  0  0
 19 50  1  0  0  0  0
 20 21  1  0  0  0  0
 20 22  2  0  0  0  0
 21 23  2  0  0  0  0
 21 51  1  0  0  0  0
 22 24  1  0  0  0  0
 22 52  1  0  0  0  0
 23 25  1  0  0  0  0
 23 53  1  0  0  0  0
 24 25  2  0  0  0  0
 24 54  1  0  0  0  0
 25 55  1  0  0  0  0
M  END
>  <DRUGBANK_ID>
DB14064

>  <COMMON_NAME>
Emopamil

>  <CAS_NUMBER>
78370-13-5

>  <UNII>
M514041RF7

>  <SYNONYMS>
Emopamil; Emopamilo; Emopamilum

$$$$
