
 OpenBabel10282417233D

 39 39  0  0  0  0  0  0  0  0999 V2000
   -1.0893    1.0056   -0.0304 C   0  0  2  0  0  0  0  0  0  0  0  0
    0.4901    1.2880    0.1910 C   0  0  0  0  0  0  0  0  0  0  0  0
   -1.3910   -0.4856   -0.0585 C   0  0  0  0  0  0  0  0  0  0  0  0
   -1.8131    1.6969   -1.2392 C   0  0  0  0  0  0  0  0  0  0  0  0
   -1.8316    1.3746    1.1540 O   0  0  0  0  0  0  0  0  0  0  0  0
    1.4990    0.1410    0.0744 C   0  0  0  0  0  0  0  0  0  0  0  0
    0.7084    2.0170    1.5311 C   0  0  0  0  0  0  0  0  0  0  0  0
    1.0593    2.1852   -0.8813 C   0  0  0  0  0  0  0  0  0  0  0  0
   -0.4751   -1.4664   -0.0237 C   0  0  0  0  0  0  0  0  0  0  0  0
   -2.8654   -0.8412    0.0061 C   0  0  0  0  0  0  0  0  0  0  0  0
   -1.4004    2.7372   -1.9755 C   0  0  0  0  0  0  0  0  0  0  0  0
    0.9727   -1.2392    0.0476 C   0  0  0  0  0  0  0  0  0  0  0  0
   -1.7431    3.4005   -3.1979 C   0  0  0  0  0  0  0  0  0  0  0  0
    1.7491   -2.1930    0.0328 O   0  0  0  0  0  0  0  0  0  0  0  0
   -0.9725    4.4067   -3.7076 C   0  0  0  0  0  0  0  0  0  0  0  0
   -2.9746    2.8246   -3.8148 C   0  0  0  0  0  0  0  0  0  0  0  0
    0.3173    5.0589   -3.2592 C   0  0  0  0  0  0  0  0  0  0  0  0
    0.8763    5.9724   -3.8763 O   0  0  0  0  0  0  0  0  0  0  0  0
    0.8776    4.6002   -2.1443 O   0  0  0  0  0  0  0  0  0  0  0  0
   -2.7368    1.2393   -1.5671 H   0  0  0  0  0  0  0  0  0  0  0  0
   -1.7069    2.3046    1.3826 H   0  0  0  0  0  0  0  0  0  0  0  0
    2.0778    0.2102   -0.8630 H   0  0  0  0  0  0  0  0  0  0  0  0
    2.2425    0.2304    0.8747 H   0  0  0  0  0  0  0  0  0  0  0  0
    1.7393    2.3692    1.6265 H   0  0  0  0  0  0  0  0  0  0  0  0
    0.0832    2.9151    1.6077 H   0  0  0  0  0  0  0  0  0  0  0  0
    0.4771    1.3473    2.3626 H   0  0  0  0  0  0  0  0  0  0  0  0
    0.7773    1.7747   -1.8671 H   0  0  0  0  0  0  0  0  0  0  0  0
    0.6958    3.1606   -0.5831 H   0  0  0  0  0  0  0  0  0  0  0  0
    2.1345    2.3407   -0.9519 H   0  0  0  0  0  0  0  0  0  0  0  0
   -0.7499   -2.5132   -0.0086 H   0  0  0  0  0  0  0  0  0  0  0  0
   -3.3335   -0.4036    0.8961 H   0  0  0  0  0  0  0  0  0  0  0  0
   -3.4079   -0.4673   -0.8644 H   0  0  0  0  0  0  0  0  0  0  0  0
   -3.0328   -1.9174    0.0446 H   0  0  0  0  0  0  0  0  0  0  0  0
   -0.5611    3.2677   -1.6657 H   0  0  0  0  0  0  0  0  0  0  0  0
   -1.2894    4.8717   -4.6376 H   0  0  0  0  0  0  0  0  0  0  0  0
   -2.8021    1.7689   -4.0664 H   0  0  0  0  0  0  0  0  0  0  0  0
   -3.7906    2.8616   -3.0823 H   0  0  0  0  0  0  0  0  0  0  0  0
   -3.2862    3.3535   -4.7134 H   0  0  0  0  0  0  0  0  0  0  0  0
    1.7434    5.0219   -1.9632 H   0  0  0  0  0  0  0  0  0  0  0  0
  1  2  1  0  0  0  0
  1  3  1  0  0  0  0
  1  5  1  1  0  0  0
  1  4  1  0  0  0  0
  2  6  1  0  0  0  0
  2  7  1  0  0  0  0
  2  8  1  0  0  0  0
  3  9  2  0  0  0  0
  3 10  1  0  0  0  0
  4 11  2  0  0  0  0
  4 20  1  0  0  0  0
  5 21  1  0  0  0  0
  6 12  1  0  0  0  0
  6 22  1  0  0  0  0
  6 23  1  0  0  0  0
  7 24  1  0  0  0  0
  7 25  1  0  0  0  0
  7 26  1  0  0  0  0
  8 27  1  0  0  0  0
  8 28  1  0  0  0  0
  8 29  1  0  0  0  0
  9 12  1  0  0  0  0
  9 30  1  0  0  0  0
 10 31  1  0  0  0  0
 10 32  1  0  0  0  0
 10 33  1  0  0  0  0
 11 13  1  0  0  0  0
 11 34  1  0  0  0  0
 12 14  2  0  0  0  0
 13 15  2  0  0  0  0
 13 16  1  0  0  0  0
 15 17  1  0  0  0  0
 15 35  1  0  0  0  0
 16 36  1  0  0  0  0
 16 37  1  0  0  0  0
 16 38  1  0  0  0  0
 17 18  2  0  0  0  0
 17 19  1  0  0  0  0
 19 39  1  0  0  0  0
M  END
>  <DRUGBANK_ID>
DB16829

>  <COMMON_NAME>
Abscisic Acid

>  <CAS_NUMBER>
21293-29-8

>  <UNII>
72S9A8J5GW

>  <SYNONYMS>
Abscisin II; Acide abscisique

$$$$
