
 OpenBabel10282417203D

 41 42  0  0  0  0  0  0  0  0999 V2000
    1.2631   -0.1120   -0.1953 C   0  0  0  0  0  0  0  0  0  0  0  0
    1.6580    1.4448    1.7419 C   0  0  0  0  0  0  0  0  0  0  0  0
   -1.4021   -2.4662    4.1985 C   0  0  0  0  0  0  0  0  0  0  0  0
   -5.2729    0.5279    0.6907 C   0  0  0  0  0  0  0  0  0  0  0  0
   -4.9334   -0.7776    1.0772 C   0  0  0  0  0  0  0  0  0  0  0  0
   -4.6573    1.6416    1.2672 C   0  0  0  0  0  0  0  0  0  0  0  0
   -3.0571   -0.4460    4.1120 C   0  0  0  0  0  0  0  0  0  0  0  0
   -0.7516    0.5965    2.7844 C   0  0  0  0  0  0  0  0  0  0  0  0
   -1.7361    2.8637    2.5759 C   0  0  0  0  0  0  0  0  0  0  0  0
    1.0047    0.1652    1.2632 C   0  0  0  0  0  0  0  0  0  0  0  0
   -2.6023   -1.6921    3.7193 C   0  0  0  0  0  0  0  0  0  0  0  0
   -0.8699    1.9765    3.4571 C   0  0  3  0  0  0  0  0  0  0  0  0
   -3.7102    0.1689    2.9642 C   0  0  0  0  0  0  0  0  0  0  0  0
   -4.0802   -0.9199    2.1795 C   0  0  0  0  0  0  0  0  0  0  0  0
   -3.8049    1.4919    2.3728 C   0  0  0  0  0  0  0  0  0  0  0  0
   -0.4059    0.3019    1.4117 N   0  0  0  0  0  0  0  0  0  0  0  0
   -3.3808   -2.0487    2.6247 N   0  0  0  0  0  0  0  0  0  0  0  0
   -1.4458    1.9506    4.7750 O   0  0  0  0  0  0  0  0  0  0  0  0
   -3.1681    2.6608    2.8240 O   0  0  0  0  0  0  0  0  0  0  0  0
    0.8564    0.6866   -0.8257 H   0  0  0  0  0  0  0  0  0  0  0  0
    0.7977   -1.0564   -0.5034 H   0  0  0  0  0  0  0  0  0  0  0  0
    2.3390   -0.1804   -0.3511 H   0  0  0  0  0  0  0  0  0  0  0  0
    1.1347    2.3239    1.3395 H   0  0  0  0  0  0  0  0  0  0  0  0
    1.6242    1.4876    2.8339 H   0  0  0  0  0  0  0  0  0  0  0  0
    2.7076    1.4890    1.4782 H   0  0  0  0  0  0  0  0  0  0  0  0
   -1.6765   -3.1869    4.9676 H   0  0  0  0  0  0  0  0  0  0  0  0
   -0.8620   -2.9757    3.3901 H   0  0  0  0  0  0  0  0  0  0  0  0
   -0.6601   -1.7959    4.6624 H   0  0  0  0  0  0  0  0  0  0  0  0
   -5.9907    0.6658   -0.1160 H   0  0  0  0  0  0  0  0  0  0  0  0
   -5.3122   -1.6372    0.5423 H   0  0  0  0  0  0  0  0  0  0  0  0
   -4.8473    2.6288    0.8486 H   0  0  0  0  0  0  0  0  0  0  0  0
   -2.5617    0.0598    4.9283 H   0  0  0  0  0  0  0  0  0  0  0  0
   -1.7387    0.3455    2.5818 H   0  0  0  0  0  0  0  0  0  0  0  0
   -0.3538   -0.1479    3.4676 H   0  0  0  0  0  0  0  0  0  0  0  0
   -1.5013    3.8966    2.8728 H   0  0  0  0  0  0  0  0  0  0  0  0
   -1.4505    2.7976    1.5175 H   0  0  0  0  0  0  0  0  0  0  0  0
    1.3290   -0.6926    1.8651 H   0  0  0  0  0  0  0  0  0  0  0  0
    0.1190    2.3906    3.6364 H   0  0  0  0  0  0  0  0  0  0  0  0
   -0.8889    0.8819    0.7285 H   0  0  0  0  0  0  0  0  0  0  0  0
   -3.3105   -2.9018    2.1289 H   0  0  0  0  0  0  0  0  0  0  0  0
   -2.4115    2.0758    4.6529 H   0  0  0  0  0  0  0  0  0  0  0  0
  1 20  1  0  0  0  0
  1 21  1  0  0  0  0
  1 22  1  0  0  0  0
  2 23  1  0  0  0  0
  2 24  1  0  0  0  0
  2 25  1  0  0  0  0
  3 26  1  0  0  0  0
  3 27  1  0  0  0  0
  3 28  1  0  0  0  0
  4 29  1  0  0  0  0
  5  4  2  0  0  0  0
  5 30  1  0  0  0  0
  6  4  1  0  0  0  0
  6 31  1  0  0  0  0
  7 32  1  0  0  0  0
  8 33  1  0  0  0  0
  8 34  1  0  0  0  0
  9 35  1  0  0  0  0
  9 36  1  0  0  0  0
 10  1  1  0  0  0  0
 10  2  1  0  0  0  0
 10 37  1  0  0  0  0
 11  3  1  0  0  0  0
 11  7  2  0  0  0  0
 12  8  1  0  0  0  0
 12  9  1  0  0  0  0
 12 38  1  0  0  0  0
 13  7  1  0  0  0  0
 14  5  1  0  0  0  0
 14 13  2  0  0  0  0
 15  6  2  0  0  0  0
 15 13  1  0  0  0  0
 16  8  1  0  0  0  0
 16 10  1  0  0  0  0
 16 39  1  0  0  0  0
 17 11  1  0  0  0  0
 17 14  1  0  0  0  0
 17 40  1  0  0  0  0
 18 12  1  0  0  0  0
 18 41  1  0  0  0  0
 19  9  1  0  0  0  0
 19 15  1  0  0  0  0
M  END
>  <DRUGBANK_ID>
DB13530

>  <COMMON_NAME>
Mepindolol

>  <CAS_NUMBER>
23694-81-7

>  <UNII>
00Q31ER368

>  <SYNONYMS>
Mepindolol; Mepindololum

$$$$
