
 OpenBabel10282417203D

  8  7  0  0  0  0  0  0  0  0999 V2000
    1.0957    0.0048    0.0372 C   0  0  0  0  0  0  0  0  0  0  0  0
    0.5907   -0.3428    1.4218 C   0  0  0  0  0  0  0  0  0  0  0  0
    1.1674    0.8446    2.6109 Cl  0  0  0  0  0  0  0  0  0  0  0  0
    0.7410    0.9916   -0.2780 H   0  0  0  0  0  0  0  0  0  0  0  0
    0.7373   -0.7301   -0.6906 H   0  0  0  0  0  0  0  0  0  0  0  0
    2.1902    0.0062    0.0031 H   0  0  0  0  0  0  0  0  0  0  0  0
   -0.5027   -0.3428    1.4477 H   0  0  0  0  0  0  0  0  0  0  0  0
    0.9484   -1.3295    1.7293 H   0  0  0  0  0  0  0  0  0  0  0  0
  1  2  1  0  0  0  0
  1  4  1  0  0  0  0
  1  5  1  0  0  0  0
  1  6  1  0  0  0  0
  2  3  1  0  0  0  0
  2  7  1  0  0  0  0
  2  8  1  0  0  0  0
M  END
>  <DRUGBANK_ID>
DB13259

>  <COMMON_NAME>
Ethyl chloride

>  <CAS_NUMBER>
75-00-3

>  <UNII>
46U771ERWK

>  <SYNONYMS>
chloroethane; Ethyl chloride; monochloroethane

$$$$
