
 OpenBabel10282417223D

330344  0  0  0  0  0  0  0  0999 V2000
  -14.8366   -3.6504   -1.2403 C   0  0  2  0  0  0  0  0  0  0  0  0
  -13.8946   -4.4644   -2.1112 C   0  0  2  0  0  0  0  0  0  0  0  0
  -12.9325   -3.5872   -2.8755 C   0  0  1  0  0  0  0  0  0  0  0  0
  -12.2546   -2.6094   -1.9483 C   0  0  2  0  0  0  0  0  0  0  0  0
  -13.2774   -1.8937   -1.1057 C   0  0  1  0  0  0  0  0  0  0  0  0
  -14.0766   -2.8104   -0.3747 O   0  0  0  0  0  0  0  0  0  0  0  0
   -6.3257   -2.9141   -2.2290 C   0  0  2  0  0  0  0  0  0  0  0  0
   -7.1993   -3.9841   -1.5963 C   0  0  2  0  0  0  0  0  0  0  0  0
   -8.3620   -3.3889   -0.8393 C   0  0  1  0  0  0  0  0  0  0  0  0
   -9.1002   -2.3925   -1.6982 C   0  0  2  0  0  0  0  0  0  0  0  0
   -8.1338   -1.4108   -2.3070 C   0  0  1  0  0  0  0  0  0  0  0  0
   -7.1276   -2.0741   -3.0561 O   0  0  0  0  0  0  0  0  0  0  0  0
   -9.2118    1.0260   -1.3721 C   0  0  2  0  0  0  0  0  0  0  0  0
   -9.8440    0.1158   -2.4115 C   0  0  2  0  0  0  0  0  0  0  0  0
  -10.8246   -0.8515   -1.7934 C   0  0  1  0  0  0  0  0  0  0  0  0
  -11.8042   -0.1214   -0.9087 C   0  0  2  0  0  0  0  0  0  0  0  0
  -11.0711    0.7812    0.0485 C   0  0  1  0  0  0  0  0  0  0  0  0
  -10.2363    1.6972   -0.6424 O   0  0  0  0  0  0  0  0  0  0  0  0
  -12.0299    1.5206    0.7903 O   0  0  0  0  0  0  0  0  0  0  0  0
  -13.6225    7.8833   -5.8534 O   0  0  0  0  0  0  0  0  0  0  0  0
  -13.9203    6.5192   -6.1122 C   0  0  0  0  0  0  0  0  0  0  0  0
  -14.8655    6.2145   -6.9052 O   0  0  0  0  0  0  0  0  0  0  0  0
  -13.1085    5.4235   -5.4408 C   0  0  0  0  0  0  0  0  0  0  0  0
  -12.0967    5.7496   -4.5919 C   0  0  0  0  0  0  0  0  0  0  0  0
  -10.8511    7.1712   -3.4893 C   0  0  0  0  0  0  0  0  0  0  0  0
  -13.4272    3.9633   -5.7178 C   0  0  0  0  0  0  0  0  0  0  0  0
  -12.5844    8.2929   -4.9754 C   0  0  1  0  0  0  0  0  0  0  0  0
  -11.3716    8.7649   -5.3033 C   0  0  2  0  0  0  0  0  0  0  0  0
  -11.5190   10.1754   -5.3743 O   0  0  0  0  0  0  0  0  0  0  0  0
  -11.0794   10.9820   -4.2915 C   0  0  0  0  0  0  0  0  0  0  0  0
  -11.2052   12.2454   -4.3481 O   0  0  0  0  0  0  0  0  0  0  0  0
  -13.8583    7.6628   -3.0214 C   0  0  0  0  0  0  0  0  0  0  0  0
  -13.2334    7.0776   -1.7801 C   0  0  3  0  0  0  0  0  0  0  0  0
  -10.6939    8.2899   -6.5625 C   0  0  1  0  0  0  0  0  0  0  0  0
  -13.1763    8.7939   -3.7465 C   0  0  0  0  0  0  0  0  0  0  0  0
  -12.4899    5.8176   -2.1385 C   0  0  0  0  0  0  0  0  0  0  0  0
   -8.7177    6.1354   -4.6176 C   0  0  1  0  0  0  0  0  0  0  0  0
   -9.0997    6.4348   -6.0685 C   0  0  0  0  0  0  0  0  0  0  0  0
   -9.2348    7.9447   -6.2572 C   0  0  1  0  0  0  0  0  0  0  0  0
  -10.5622    4.3259   -1.9843 C   0  0  0  0  0  0  0  0  0  0  0  0
   -9.2309    4.6901   -2.6460 C   0  0  3  0  0  0  0  0  0  0  0  0
   -9.4431    4.8725   -4.1498 C   0  0  1  0  0  0  0  0  0  0  0  0
  -11.3064    5.5865   -1.6260 C   0  0  0  0  0  0  0  0  0  0  0  0
  -11.8815    2.4770   -3.3002 C   0  0  2  0  0  0  0  0  0  0  0  0
  -11.4368    3.6484   -2.4182 C   0  0  3  0  0  0  0  0  0  0  0  0
  -11.7065    4.9615   -3.1349 C   0  0  0  0  0  0  0  0  0  0  0  0
  -10.9299    4.9946   -4.4411 C   0  0  0  0  0  0  0  0  0  0  0  0
  -12.3983    1.2067   -1.3100 C   0  0  0  0  0  0  0  0  0  0  0  0
  -11.9935    2.2532   -0.4256 C   0  0  3  0  0  0  0  0  0  0  0  0
  -12.2191    3.6076   -1.1018 C   0  0  1  0  0  0  0  0  0  0  0  0
  -11.6690    1.1666   -2.5385 C   0  0  0  0  0  0  0  0  0  0  0  0
  -11.9202    5.0629   -1.4228 C   0  0  0  0  0  0  0  0  0  0  0  0
  -13.4433    3.8219   -0.2267 C   0  0  0  0  0  0  0  0  0  0  0  0
  -14.0685    2.5733    0.0310 O   0  0  0  0  0  0  0  0  0  0  0  0
  -12.8752    2.0251   -4.3579 C   0  0  0  0  0  0  0  0  0  0  0  0
   -8.8847    3.6695   -4.8925 C   0  0  0  0  0  0  0  0  0  0  0  0
   -7.3334    6.7576   -4.5335 C   0  0  0  0  0  0  0  0  0  0  0  0
   -8.4231    8.8240   -7.0216 O   0  0  0  0  0  0  0  0  0  0  0  0
  -10.7308    8.3928   -8.0785 C   0  0  0  0  0  0  0  0  0  0  0  0
   -9.8896    6.8146   -8.5268 O   0  0  0  0  0  0  0  0  0  0  0  0
  -13.8942   10.1268   -3.6110 C   0  0  0  0  0  0  0  0  0  0  0  0
  -12.3207   10.1223   -3.0372 C   0  0  0  0  0  0  0  0  0  0  0  0
  -10.4584   10.3344   -3.0645 C   0  0  0  0  0  0  0  0  0  0  0  0
  -10.4681    0.1828    0.6992 H   0  0  0  0  0  0  0  0  0  0  0  0
   -8.3290    2.0508   -2.0656 C   0  0  0  0  0  0  0  0  0  0  0  0
   -6.9418    2.1103   -1.7680 O   0  0  0  0  0  0  0  0  0  0  0  0
   -8.8324    2.8544   -2.9118 O   0  0  0  0  0  0  0  0  0  0  0  0
  -12.5928   -1.0605   -0.1819 O   0  0  0  0  0  0  0  0  0  0  0  0
  -11.5494   -1.5798   -2.7758 O   0  0  0  0  0  0  0  0  0  0  0  0
   -8.8549   -0.5572   -3.1832 O   0  0  0  0  0  0  0  0  0  0  0  0
   -7.6708   -0.8468   -1.5245 H   0  0  0  0  0  0  0  0  0  0  0  0
  -10.0660   -1.6982   -0.9125 O   0  0  0  0  0  0  0  0  0  0  0  0
   -9.2789   -4.3822   -0.3992 O   0  0  0  0  0  0  0  0  0  0  0  0
   -6.4337   -4.8640   -0.7798 O   0  0  0  0  0  0  0  0  0  0  0  0
   -5.2465   -3.5740   -3.0719 C   0  0  0  0  0  0  0  0  0  0  0  0
   -4.4302   -2.5738   -3.6632 O   0  0  0  0  0  0  0  0  0  0  0  0
  -11.5041   -1.6641   -2.7068 O   0  0  0  0  0  0  0  0  0  0  0  0
  -11.9366   -4.3455   -3.5492 O   0  0  0  0  0  0  0  0  0  0  0  0
  -14.6118   -5.3388   -2.9760 O   0  0  0  0  0  0  0  0  0  0  0  0
  -15.6967   -4.5886   -0.4095 C   0  0  0  0  0  0  0  0  0  0  0  0
  -16.5771   -3.8277    0.4044 O   0  0  0  0  0  0  0  0  0  0  0  0
  -13.9095   -1.3124   -1.7440 H   0  0  0  0  0  0  0  0  0  0  0  0
  -14.8366   -3.6504   -1.2403 C   0  0  2  0  0  0  0  0  0  0  0  0
  -13.8946   -4.4644   -2.1112 C   0  0  2  0  0  0  0  0  0  0  0  0
  -12.9325   -3.5872   -2.8755 C   0  0  1  0  0  0  0  0  0  0  0  0
  -12.2546   -2.6094   -1.9483 C   0  0  2  0  0  0  0  0  0  0  0  0
  -13.2774   -1.8937   -1.1057 C   0  0  1  0  0  0  0  0  0  0  0  0
  -14.0766   -2.8104   -0.3747 O   0  0  0  0  0  0  0  0  0  0  0  0
   -6.3257   -2.9141   -2.2290 C   0  0  2  0  0  0  0  0  0  0  0  0
   -7.1993   -3.9841   -1.5963 C   0  0  2  0  0  0  0  0  0  0  0  0
   -8.3620   -3.3889   -0.8393 C   0  0  1  0  0  0  0  0  0  0  0  0
   -9.1002   -2.3925   -1.6982 C   0  0  2  0  0  0  0  0  0  0  0  0
   -8.1338   -1.4108   -2.3070 C   0  0  1  0  0  0  0  0  0  0  0  0
   -7.1276   -2.0741   -3.0561 O   0  0  0  0  0  0  0  0  0  0  0  0
   -9.2118    1.0260   -1.3721 C   0  0  2  0  0  0  0  0  0  0  0  0
   -9.8440    0.1158   -2.4115 C   0  0  2  0  0  0  0  0  0  0  0  0
  -10.8246   -0.8515   -1.7934 C   0  0  1  0  0  0  0  0  0  0  0  0
  -11.8042   -0.1214   -0.9087 C   0  0  2  0  0  0  0  0  0  0  0  0
  -11.0711    0.7812    0.0485 C   0  0  1  0  0  0  0  0  0  0  0  0
  -10.2363    1.6972   -0.6424 O   0  0  0  0  0  0  0  0  0  0  0  0
  -12.0299    1.5206    0.7903 O   0  0  0  0  0  0  0  0  0  0  0  0
  -13.6225    7.8833   -5.8534 O   0  0  0  0  0  0  0  0  0  0  0  0
  -13.9203    6.5192   -6.1122 C   0  0  0  0  0  0  0  0  0  0  0  0
  -14.8655    6.2145   -6.9052 O   0  0  0  0  0  0  0  0  0  0  0  0
  -13.1085    5.4235   -5.4408 C   0  0  0  0  0  0  0  0  0  0  0  0
  -12.0967    5.7496   -4.5919 C   0  0  0  0  0  0  0  0  0  0  0  0
  -11.2902    3.4377   -4.8563 C   0  0  0  0  0  0  0  0  0  0  0  0
  -13.4272    3.9633   -5.7178 C   0  0  0  0  0  0  0  0  0  0  0  0
  -12.5844    8.2929   -4.9754 C   0  0  1  0  0  0  0  0  0  0  0  0
  -11.3716    8.7649   -5.3033 C   0  0  2  0  0  0  0  0  0  0  0  0
  -11.5190   10.1754   -5.3743 O   0  0  0  0  0  0  0  0  0  0  0  0
  -11.0794   10.9820   -4.2915 C   0  0  0  0  0  0  0  0  0  0  0  0
  -11.2052   12.2454   -4.3481 O   0  0  0  0  0  0  0  0  0  0  0  0
  -13.8583    7.6628   -3.0214 C   0  0  0  0  0  0  0  0  0  0  0  0
  -13.2334    7.0776   -1.7801 C   0  0  3  0  0  0  0  0  0  0  0  0
  -10.6939    8.2899   -6.5625 C   0  0  1  0  0  0  0  0  0  0  0  0
  -13.1763    8.7939   -3.7465 C   0  0  0  0  0  0  0  0  0  0  0  0
  -12.4899    5.8176   -2.1385 C   0  0  0  0  0  0  0  0  0  0  0  0
   -8.7177    6.1354   -4.6176 C   0  0  1  0  0  0  0  0  0  0  0  0
   -9.0997    6.4348   -6.0685 C   0  0  0  0  0  0  0  0  0  0  0  0
   -9.2348    7.9447   -6.2572 C   0  0  1  0  0  0  0  0  0  0  0  0
  -10.5622    4.3259   -1.9843 C   0  0  0  0  0  0  0  0  0  0  0  0
   -9.2309    4.6901   -2.6460 C   0  0  3  0  0  0  0  0  0  0  0  0
   -9.4431    4.8725   -4.1498 C   0  0  1  0  0  0  0  0  0  0  0  0
  -11.3064    5.5865   -1.6260 C   0  0  0  0  0  0  0  0  0  0  0  0
  -11.8815    2.4770   -3.3002 C   0  0  2  0  0  0  0  0  0  0  0  0
  -11.4368    3.6484   -2.4182 C   0  0  3  0  0  0  0  0  0  0  0  0
  -11.7065    4.9615   -3.1349 C   0  0  0  0  0  0  0  0  0  0  0  0
  -10.9299    4.9946   -4.4411 C   0  0  0  0  0  0  0  0  0  0  0  0
  -12.3983    1.2067   -1.3100 C   0  0  0  0  0  0  0  0  0  0  0  0
  -11.9935    2.2532   -0.4256 C   0  0  3  0  0  0  0  0  0  0  0  0
  -12.2191    3.6076   -1.1018 C   0  0  1  0  0  0  0  0  0  0  0  0
  -11.6690    1.1666   -2.5385 C   0  0  0  0  0  0  0  0  0  0  0  0
  -11.9202    5.0629   -1.4228 C   0  0  0  0  0  0  0  0  0  0  0  0
  -13.4433    3.8219   -0.2267 C   0  0  0  0  0  0  0  0  0  0  0  0
  -14.0685    2.5733    0.0310 O   0  0  0  0  0  0  0  0  0  0  0  0
  -12.8752    2.0251   -4.3579 C   0  0  0  0  0  0  0  0  0  0  0  0
   -8.8847    3.6695   -4.8925 C   0  0  0  0  0  0  0  0  0  0  0  0
   -7.3334    6.7576   -4.5335 C   0  0  0  0  0  0  0  0  0  0  0  0
   -8.4231    8.8240   -7.0216 O   0  0  0  0  0  0  0  0  0  0  0  0
  -10.7308    8.3928   -8.0785 C   0  0  0  0  0  0  0  0  0  0  0  0
   -9.1466    8.3435   -9.1356 O   0  0  0  0  0  0  0  0  0  0  0  0
  -13.8942   10.1268   -3.6110 C   0  0  0  0  0  0  0  0  0  0  0  0
  -12.1074    8.7301   -1.7429 C   0  0  0  0  0  0  0  0  0  0  0  0
  -10.4584   10.3344   -3.0645 C   0  0  0  0  0  0  0  0  0  0  0  0
  -10.4681    0.1828    0.6992 H   0  0  0  0  0  0  0  0  0  0  0  0
   -8.3290    2.0508   -2.0656 C   0  0  0  0  0  0  0  0  0  0  0  0
   -6.9418    2.1103   -1.7680 O   0  0  0  0  0  0  0  0  0  0  0  0
   -8.8324    2.8544   -2.9118 O   0  0  0  0  0  0  0  0  0  0  0  0
  -12.5928   -1.0605   -0.1819 O   0  0  0  0  0  0  0  0  0  0  0  0
  -11.5494   -1.5798   -2.7758 O   0  0  0  0  0  0  0  0  0  0  0  0
   -8.8549   -0.5572   -3.1832 O   0  0  0  0  0  0  0  0  0  0  0  0
   -7.6708   -0.8468   -1.5245 H   0  0  0  0  0  0  0  0  0  0  0  0
  -10.0660   -1.6982   -0.9125 O   0  0  0  0  0  0  0  0  0  0  0  0
   -9.2789   -4.3822   -0.3992 O   0  0  0  0  0  0  0  0  0  0  0  0
   -6.4337   -4.8640   -0.7798 O   0  0  0  0  0  0  0  0  0  0  0  0
   -5.2465   -3.5740   -3.0719 C   0  0  0  0  0  0  0  0  0  0  0  0
   -4.4302   -2.5738   -3.6632 O   0  0  0  0  0  0  0  0  0  0  0  0
  -11.5041   -1.6641   -2.7068 O   0  0  0  0  0  0  0  0  0  0  0  0
  -11.9366   -4.3455   -3.5492 O   0  0  0  0  0  0  0  0  0  0  0  0
  -14.6118   -5.3388   -2.9760 O   0  0  0  0  0  0  0  0  0  0  0  0
  -15.6967   -4.5886   -0.4095 C   0  0  0  0  0  0  0  0  0  0  0  0
  -16.5771   -3.8277    0.4044 O   0  0  0  0  0  0  0  0  0  0  0  0
  -13.9095   -1.3124   -1.7440 H   0  0  0  0  0  0  0  0  0  0  0  0
  -15.4649   -3.0470   -1.8617 H   0  0  0  0  0  0  0  0  0  0  0  0
  -13.3057   -5.0728   -1.4569 H   0  0  0  0  0  0  0  0  0  0  0  0
  -13.5112   -3.0611   -3.6057 H   0  0  0  0  0  0  0  0  0  0  0  0
  -11.5928   -3.1482   -1.3028 H   0  0  0  0  0  0  0  0  0  0  0  0
   -5.8684   -2.3265   -1.4606 H   0  0  0  0  0  0  0  0  0  0  0  0
   -7.6139   -4.5656   -2.3931 H   0  0  0  0  0  0  0  0  0  0  0  0
   -7.9511   -2.9009    0.0197 H   0  0  0  0  0  0  0  0  0  0  0  0
   -9.5987   -2.9183   -2.4856 H   0  0  0  0  0  0  0  0  0  0  0  0
   -8.6191    0.4418   -0.6996 H   0  0  0  0  0  0  0  0  0  0  0  0
  -10.4025    0.7384   -3.0790 H   0  0  0  0  0  0  0  0  0  0  0  0
  -10.2493   -1.5426   -1.2134 H   0  0  0  0  0  0  0  0  0  0  0  0
  -12.4449    0.4761   -1.5230 H   0  0  0  0  0  0  0  0  0  0  0  0
  -13.3809    4.8208   -4.0415 H   0  0  0  0  0  0  0  0  0  0  0  0
  -11.1981    7.6669   -2.7214 H   0  0  0  0  0  0  0  0  0  0  0  0
   -9.8154    7.4370   -3.4211 H   0  0  0  0  0  0  0  0  0  0  0  0
  -11.7389    7.5856   -3.3246 H   0  0  0  0  0  0  0  0  0  0  0  0
  -14.4347    3.7560   -5.4231 H   0  0  0  0  0  0  0  0  0  0  0  0
  -13.3135    3.7655   -6.7632 H   0  0  0  0  0  0  0  0  0  0  0  0
  -12.7578    3.3405   -5.1621 H   0  0  0  0  0  0  0  0  0  0  0  0
  -12.0510    7.3661   -4.9369 H   0  0  0  0  0  0  0  0  0  0  0  0
  -10.7161    8.3812   -4.5496 H   0  0  0  0  0  0  0  0  0  0  0  0
  -14.8833    7.4843   -3.2710 H   0  0  0  0  0  0  0  0  0  0  0  0
  -13.4555    6.7961   -3.5024 H   0  0  0  0  0  0  0  0  0  0  0  0
  -13.5192    7.2000   -0.7562 H   0  0  0  0  0  0  0  0  0  0  0  0
   -9.2319    5.8979   -6.9845 H   0  0  0  0  0  0  0  0  0  0  0  0
   -9.2362    5.3797   -5.9547 H   0  0  0  0  0  0  0  0  0  0  0  0
   -8.7834    8.1655   -5.3126 H   0  0  0  0  0  0  0  0  0  0  0  0
  -10.9813    3.3565   -1.8125 H   0  0  0  0  0  0  0  0  0  0  0  0
  -10.4645    3.2814   -1.7736 H   0  0  0  0  0  0  0  0  0  0  0  0
   -8.3117    5.0804   -2.2617 H   0  0  0  0  0  0  0  0  0  0  0  0
  -10.8681    6.2932   -0.9527 H   0  0  0  0  0  0  0  0  0  0  0  0
  -10.3888    3.5705   -2.2172 H   0  0  0  0  0  0  0  0  0  0  0  0
  -12.7416    5.1512   -2.9410 H   0  0  0  0  0  0  0  0  0  0  0  0
  -11.3085    5.9099   -2.8399 H   0  0  0  0  0  0  0  0  0  0  0  0
  -11.4682    4.6736   -5.3084 H   0  0  0  0  0  0  0  0  0  0  0  0
  -10.8485    5.9103   -4.9886 H   0  0  0  0  0  0  0  0  0  0  0  0
  -13.0345    0.3847   -1.0563 H   0  0  0  0  0  0  0  0  0  0  0  0
  -13.4171    1.5332   -1.2929 H   0  0  0  0  0  0  0  0  0  0  0  0
  -11.2037    2.8823   -0.0715 H   0  0  0  0  0  0  0  0  0  0  0  0
  -11.5155    0.1281   -2.7452 H   0  0  0  0  0  0  0  0  0  0  0  0
  -10.6671    1.3379   -2.8728 H   0  0  0  0  0  0  0  0  0  0  0  0
  -11.9417    5.6680   -0.5406 H   0  0  0  0  0  0  0  0  0  0  0  0
  -10.9066    4.9268   -1.7374 H   0  0  0  0  0  0  0  0  0  0  0  0
  -12.4732    5.5468   -2.2007 H   0  0  0  0  0  0  0  0  0  0  0  0
  -13.1397    4.2664    0.6981 H   0  0  0  0  0  0  0  0  0  0  0  0
  -14.1336    4.4705   -0.7245 H   0  0  0  0  0  0  0  0  0  0  0  0
  -14.3522    2.1579   -0.8332 H   0  0  0  0  0  0  0  0  0  0  0  0
  -13.8685    2.3520   -4.1312 H   0  0  0  0  0  0  0  0  0  0  0  0
  -12.5970    2.3768   -5.3294 H   0  0  0  0  0  0  0  0  0  0  0  0
  -12.8392    0.9559   -4.3417 H   0  0  0  0  0  0  0  0  0  0  0  0
   -8.3174    4.0034   -5.7361 H   0  0  0  0  0  0  0  0  0  0  0  0
   -8.2523    3.1078   -4.2372 H   0  0  0  0  0  0  0  0  0  0  0  0
   -9.6910    3.0509   -5.2271 H   0  0  0  0  0  0  0  0  0  0  0  0
   -7.2667    7.3614   -3.6527 H   0  0  0  0  0  0  0  0  0  0  0  0
   -6.5962    5.9832   -4.4918 H   0  0  0  0  0  0  0  0  0  0  0  0
   -7.1631    7.3662   -5.3969 H   0  0  0  0  0  0  0  0  0  0  0  0
   -7.7427    9.5894   -6.6398 H   0  0  0  0  0  0  0  0  0  0  0  0
  -11.7320    8.2363   -8.4221 H   0  0  0  0  0  0  0  0  0  0  0  0
  -10.3987    9.3649   -8.3782 H   0  0  0  0  0  0  0  0  0  0  0  0
   -8.9420    7.5532   -8.3200 H   0  0  0  0  0  0  0  0  0  0  0  0
  -13.4652   10.6808   -2.8024 H   0  0  0  0  0  0  0  0  0  0  0  0
  -13.7887   10.6823   -4.5194 H   0  0  0  0  0  0  0  0  0  0  0  0
  -14.9323    9.9565   -3.4156 H   0  0  0  0  0  0  0  0  0  0  0  0
  -11.8173    9.4199   -3.7054 H   0  0  0  0  0  0  0  0  0  0  0  0
  -12.4835   11.5758   -3.2230 H   0  0  0  0  0  0  0  0  0  0  0  0
  -13.1514    9.8984   -1.7381 H   0  0  0  0  0  0  0  0  0  0  0  0
  -11.1643    9.6653   -2.6186 H   0  0  0  0  0  0  0  0  0  0  0  0
   -9.5837    9.7897   -3.3529 H   0  0  0  0  0  0  0  0  0  0  0  0
  -10.1900   11.0922   -2.3585 H   0  0  0  0  0  0  0  0  0  0  0  0
   -6.5457    1.4780   -1.1022 H   0  0  0  0  0  0  0  0  0  0  0  0
  -12.0928   -0.9465   -3.3268 H   0  0  0  0  0  0  0  0  0  0  0  0
   -9.6039   -1.2054   -0.1753 H   0  0  0  0  0  0  0  0  0  0  0  0
   -9.6719   -4.8478   -1.1921 H   0  0  0  0  0  0  0  0  0  0  0  0
   -6.0308   -4.3500   -0.0226 H   0  0  0  0  0  0  0  0  0  0  0  0
   -4.6448   -4.2044   -2.4511 H   0  0  0  0  0  0  0  0  0  0  0  0
   -5.7037   -4.1616   -3.8404 H   0  0  0  0  0  0  0  0  0  0  0  0
   -4.9925   -1.9846   -4.2434 H   0  0  0  0  0  0  0  0  0  0  0  0
  -12.1193   -1.1584   -3.3116 H   0  0  0  0  0  0  0  0  0  0  0  0
  -11.3866   -4.8437   -2.8788 H   0  0  0  0  0  0  0  0  0  0  0  0
  -15.1744   -4.7999   -3.6029 H   0  0  0  0  0  0  0  0  0  0  0  0
  -16.2671   -5.2190   -1.0592 H   0  0  0  0  0  0  0  0  0  0  0  0
  -15.0686   -5.1921    0.2119 H   0  0  0  0  0  0  0  0  0  0  0  0
  -16.0441   -3.2385    1.0117 H   0  0  0  0  0  0  0  0  0  0  0  0
  -15.4649   -3.0470   -1.8617 H   0  0  0  0  0  0  0  0  0  0  0  0
  -13.3057   -5.0728   -1.4569 H   0  0  0  0  0  0  0  0  0  0  0  0
  -13.5112   -3.0611   -3.6057 H   0  0  0  0  0  0  0  0  0  0  0  0
  -11.5928   -3.1482   -1.3028 H   0  0  0  0  0  0  0  0  0  0  0  0
   -5.8684   -2.3265   -1.4606 H   0  0  0  0  0  0  0  0  0  0  0  0
   -7.6139   -4.5656   -2.3931 H   0  0  0  0  0  0  0  0  0  0  0  0
   -7.9511   -2.9009    0.0197 H   0  0  0  0  0  0  0  0  0  0  0  0
   -9.5987   -2.9183   -2.4856 H   0  0  0  0  0  0  0  0  0  0  0  0
   -8.6191    0.4418   -0.6996 H   0  0  0  0  0  0  0  0  0  0  0  0
  -10.4025    0.7384   -3.0790 H   0  0  0  0  0  0  0  0  0  0  0  0
  -10.2493   -1.5426   -1.2134 H   0  0  0  0  0  0  0  0  0  0  0  0
  -12.4449    0.4761   -1.5230 H   0  0  0  0  0  0  0  0  0  0  0  0
  -10.8982    7.0148   -5.0015 H   0  0  0  0  0  0  0  0  0  0  0  0
  -10.7378    2.2747   -4.6245 H   0  0  0  0  0  0  0  0  0  0  0  0
  -10.5404    3.2482   -4.0696 H   0  0  0  0  0  0  0  0  0  0  0  0
  -12.0632    3.7269   -4.1768 H   0  0  0  0  0  0  0  0  0  0  0  0
  -14.4347    3.7560   -5.4231 H   0  0  0  0  0  0  0  0  0  0  0  0
  -13.3135    3.7655   -6.7632 H   0  0  0  0  0  0  0  0  0  0  0  0
  -12.7578    3.3405   -5.1621 H   0  0  0  0  0  0  0  0  0  0  0  0
  -12.0510    7.3661   -4.9369 H   0  0  0  0  0  0  0  0  0  0  0  0
  -10.7161    8.3812   -4.5496 H   0  0  0  0  0  0  0  0  0  0  0  0
  -14.8833    7.4843   -3.2710 H   0  0  0  0  0  0  0  0  0  0  0  0
  -13.4555    6.7961   -3.5024 H   0  0  0  0  0  0  0  0  0  0  0  0
  -13.5192    7.2000   -0.7562 H   0  0  0  0  0  0  0  0  0  0  0  0
   -9.2319    5.8979   -6.9845 H   0  0  0  0  0  0  0  0  0  0  0  0
   -9.2362    5.3797   -5.9547 H   0  0  0  0  0  0  0  0  0  0  0  0
   -8.7834    8.1655   -5.3126 H   0  0  0  0  0  0  0  0  0  0  0  0
  -10.9813    3.3565   -1.8125 H   0  0  0  0  0  0  0  0  0  0  0  0
  -10.4645    3.2814   -1.7736 H   0  0  0  0  0  0  0  0  0  0  0  0
   -8.3117    5.0804   -2.2617 H   0  0  0  0  0  0  0  0  0  0  0  0
  -10.8681    6.2932   -0.9527 H   0  0  0  0  0  0  0  0  0  0  0  0
  -10.3888    3.5705   -2.2172 H   0  0  0  0  0  0  0  0  0  0  0  0
  -12.7416    5.1512   -2.9410 H   0  0  0  0  0  0  0  0  0  0  0  0
  -11.3085    5.9099   -2.8399 H   0  0  0  0  0  0  0  0  0  0  0  0
  -11.4682    4.6736   -5.3084 H   0  0  0  0  0  0  0  0  0  0  0  0
  -10.8485    5.9103   -4.9886 H   0  0  0  0  0  0  0  0  0  0  0  0
  -13.0345    0.3847   -1.0563 H   0  0  0  0  0  0  0  0  0  0  0  0
  -13.4171    1.5332   -1.2929 H   0  0  0  0  0  0  0  0  0  0  0  0
  -11.2037    2.8823   -0.0715 H   0  0  0  0  0  0  0  0  0  0  0  0
  -11.5155    0.1281   -2.7452 H   0  0  0  0  0  0  0  0  0  0  0  0
  -10.6671    1.3379   -2.8728 H   0  0  0  0  0  0  0  0  0  0  0  0
  -11.9417    5.6680   -0.5406 H   0  0  0  0  0  0  0  0  0  0  0  0
  -10.9066    4.9268   -1.7374 H   0  0  0  0  0  0  0  0  0  0  0  0
  -12.4732    5.5468   -2.2007 H   0  0  0  0  0  0  0  0  0  0  0  0
  -13.1397    4.2664    0.6981 H   0  0  0  0  0  0  0  0  0  0  0  0
  -14.1336    4.4705   -0.7245 H   0  0  0  0  0  0  0  0  0  0  0  0
  -14.3522    2.1579   -0.8332 H   0  0  0  0  0  0  0  0  0  0  0  0
  -13.8685    2.3520   -4.1312 H   0  0  0  0  0  0  0  0  0  0  0  0
  -12.5970    2.3768   -5.3294 H   0  0  0  0  0  0  0  0  0  0  0  0
  -12.8392    0.9559   -4.3417 H   0  0  0  0  0  0  0  0  0  0  0  0
   -8.3174    4.0034   -5.7361 H   0  0  0  0  0  0  0  0  0  0  0  0
   -8.2523    3.1078   -4.2372 H   0  0  0  0  0  0  0  0  0  0  0  0
   -9.6910    3.0509   -5.2271 H   0  0  0  0  0  0  0  0  0  0  0  0
   -7.2667    7.3614   -3.6527 H   0  0  0  0  0  0  0  0  0  0  0  0
   -6.5962    5.9832   -4.4918 H   0  0  0  0  0  0  0  0  0  0  0  0
   -7.1631    7.3662   -5.3969 H   0  0  0  0  0  0  0  0  0  0  0  0
   -8.6463    9.2352   -8.0171 H   0  0  0  0  0  0  0  0  0  0  0  0
  -11.7320    8.2363   -8.4221 H   0  0  0  0  0  0  0  0  0  0  0  0
  -10.3987    9.3649   -8.3782 H   0  0  0  0  0  0  0  0  0  0  0  0
   -8.9420    7.5532   -8.3200 H   0  0  0  0  0  0  0  0  0  0  0  0
  -13.4652   10.6808   -2.8024 H   0  0  0  0  0  0  0  0  0  0  0  0
  -13.7887   10.6823   -4.5194 H   0  0  0  0  0  0  0  0  0  0  0  0
  -14.9323    9.9565   -3.4156 H   0  0  0  0  0  0  0  0  0  0  0  0
  -10.7116    8.5156   -1.7542 H   0  0  0  0  0  0  0  0  0  0  0  0
  -11.9131    9.8232   -1.0466 H   0  0  0  0  0  0  0  0  0  0  0  0
  -11.4620    8.1198   -1.0007 H   0  0  0  0  0  0  0  0  0  0  0  0
  -11.1643    9.6653   -2.6186 H   0  0  0  0  0  0  0  0  0  0  0  0
   -9.5837    9.7897   -3.3529 H   0  0  0  0  0  0  0  0  0  0  0  0
  -10.1900   11.0922   -2.3585 H   0  0  0  0  0  0  0  0  0  0  0  0
   -6.5457    1.4780   -1.1022 H   0  0  0  0  0  0  0  0  0  0  0  0
  -12.0928   -0.9465   -3.3268 H   0  0  0  0  0  0  0  0  0  0  0  0
   -9.6039   -1.2054   -0.1753 H   0  0  0  0  0  0  0  0  0  0  0  0
   -9.6719   -4.8478   -1.1921 H   0  0  0  0  0  0  0  0  0  0  0  0
   -6.0308   -4.3500   -0.0226 H   0  0  0  0  0  0  0  0  0  0  0  0
   -4.6448   -4.2044   -2.4511 H   0  0  0  0  0  0  0  0  0  0  0  0
   -5.7037   -4.1616   -3.8404 H   0  0  0  0  0  0  0  0  0  0  0  0
   -4.9925   -1.9846   -4.2434 H   0  0  0  0  0  0  0  0  0  0  0  0
  -12.1193   -1.1584   -3.3116 H   0  0  0  0  0  0  0  0  0  0  0  0
  -11.3866   -4.8437   -2.8788 H   0  0  0  0  0  0  0  0  0  0  0  0
  -15.1744   -4.7999   -3.6029 H   0  0  0  0  0  0  0  0  0  0  0  0
  -16.2671   -5.2190   -1.0592 H   0  0  0  0  0  0  0  0  0  0  0  0
  -15.0686   -5.1921    0.2119 H   0  0  0  0  0  0  0  0  0  0  0  0
  -16.0441   -3.2385    1.0117 H   0  0  0  0  0  0  0  0  0  0  0  0
  1  6  1  0  0  0  0
  1 80  1  0  0  0  0
  1  2  1  0  0  0  0
  1165  1  6  0  0  0
  2 79  1  0  0  0  0
  2  3  1  0  0  0  0
  2166  1  1  0  0  0
  3 78  1  0  0  0  0
  3  4  1  0  0  0  0
  3167  1  6  0  0  0
  4 77  1  0  0  0  0
  4  5  1  0  0  0  0
  4168  1  1  0  0  0
  5 82  1  6  0  0  0
  5  6  1  0  0  0  0
  7 75  1  0  0  0  0
  7 12  1  0  0  0  0
  7  8  1  0  0  0  0
  7169  1  1  0  0  0
  8 74  1  0  0  0  0
  8  9  1  0  0  0  0
  8170  1  6  0  0  0
  9 73  1  0  0  0  0
  9 10  1  0  0  0  0
  9171  1  1  0  0  0
 10 72  1  0  0  0  0
 10 11  1  0  0  0  0
 10172  1  6  0  0  0
 11 12  1  0  0  0  0
 11 71  1  1  0  0  0
 11 70  1  0  0  0  0
 13 14  1  0  0  0  0
 13 65  1  0  0  0  0
 13 18  1  0  0  0  0
 13173  1  1  0  0  0
 14 70  1  0  0  0  0
 14 15  1  0  0  0  0
 14174  1  6  0  0  0
 15 16  1  0  0  0  0
 15 69  1  0  0  0  0
 15175  1  1  0  0  0
 16 17  1  0  0  0  0
 16 68  1  0  0  0  0
 16176  1  6  0  0  0
 17 18  1  0  0  0  0
 17 19  1  0  0  0  0
 17 64  1  1  0  0  0
 20 21  1  0  0  0  0
 21 22  2  0  0  0  0
 21 23  1  0  0  0  0
 23 24  2  0  0  0  0
 23 26  1  0  0  0  0
 24 25  1  0  0  0  0
 24177  1  0  0  0  0
 25178  1  0  0  0  0
 25179  1  0  0  0  0
 25180  1  0  0  0  0
 26181  1  0  0  0  0
 26182  1  0  0  0  0
 26183  1  0  0  0  0
 27 35  1  0  0  0  0
 27 28  1  0  0  0  0
 27 20  1  0  0  0  0
 27184  1  1  0  0  0
 28 29  1  0  0  0  0
 28185  1  1  0  0  0
 29 30  1  0  0  0  0
 30 31  2  0  0  0  0
 30 63  1  0  0  0  0
 32 33  1  0  0  0  0
 32 35  1  0  0  0  0
 32186  1  0  0  0  0
 32187  1  0  0  0  0
 33 34  1  0  0  0  0
 33188  1  0  0  0  0
 34 28  1  0  0  0  0
 34 59  1  1  0  0  0
 35 61  1  0  0  0  0
 35 62  1  0  0  0  0
 36 37  1  0  0  0  0
 36 33  1  0  0  0  0
 36 43  2  0  0  0  0
 37 38  1  0  0  0  0
 37 57  1  6  0  0  0
 38 39  1  0  0  0  0
 38189  1  0  0  0  0
 38190  1  0  0  0  0
 39 34  1  0  0  0  0
 39 58  1  0  0  0  0
 39191  1  1  0  0  0
 40 41  1  0  0  0  0
 40 43  1  0  0  0  0
 40192  1  0  0  0  0
 40193  1  0  0  0  0
 41 42  1  0  0  0  0
 41194  1  0  0  0  0
 42 37  1  0  0  0  0
 42 56  1  6  0  0  0
 43195  1  0  0  0  0
 44 45  1  0  0  0  0
 44 41  1  0  0  0  0
 44 51  1  0  0  0  0
 44 55  1  6  0  0  0
 45 46  1  0  0  0  0
 45196  1  0  0  0  0
 46 47  1  0  0  0  0
 46197  1  0  0  0  0
 46198  1  0  0  0  0
 47 42  1  0  0  0  0
 47199  1  0  0  0  0
 47200  1  0  0  0  0
 48 49  1  0  0  0  0
 48 51  1  0  0  0  0
 48201  1  0  0  0  0
 48202  1  0  0  0  0
 49 50  1  0  0  0  0
 49 19  1  0  0  0  0
 49203  1  0  0  0  0
 50 45  1  0  0  0  0
 50 53  1  6  0  0  0
 50 52  1  0  0  0  0
 51204  1  0  0  0  0
 51205  1  0  0  0  0
 52206  1  0  0  0  0
 52207  1  0  0  0  0
 52208  1  0  0  0  0
 53 54  1  0  0  0  0
 53209  1  0  0  0  0
 53210  1  0  0  0  0
 54211  1  0  0  0  0
 55212  1  0  0  0  0
 55213  1  0  0  0  0
 55214  1  0  0  0  0
 56215  1  0  0  0  0
 56216  1  0  0  0  0
 56217  1  0  0  0  0
 57218  1  0  0  0  0
 57219  1  0  0  0  0
 57220  1  0  0  0  0
 58221  1  0  0  0  0
 59 60  1  0  0  0  0
 59222  1  0  0  0  0
 59223  1  0  0  0  0
 60224  1  0  0  0  0
 61225  1  0  0  0  0
 61226  1  0  0  0  0
 61227  1  0  0  0  0
 62228  1  0  0  0  0
 62229  1  0  0  0  0
 62230  1  0  0  0  0
 63231  1  0  0  0  0
 63232  1  0  0  0  0
 63233  1  0  0  0  0
 65 66  1  0  0  0  0
 65 67  2  0  0  0  0
 66234  1  0  0  0  0
 68  5  1  0  0  0  0
 69235  1  0  0  0  0
 72236  1  0  0  0  0
 73237  1  0  0  0  0
 74238  1  0  0  0  0
 75 76  1  0  0  0  0
 75239  1  0  0  0  0
 75240  1  0  0  0  0
 76241  1  0  0  0  0
 77242  1  0  0  0  0
 78243  1  0  0  0  0
 79244  1  0  0  0  0
 80 81  1  0  0  0  0
 80245  1  0  0  0  0
 80246  1  0  0  0  0
 81247  1  0  0  0  0
 83 84  1  0  0  0  0
 83 88  1  0  0  0  0
 83162  1  0  0  0  0
 83248  1  6  0  0  0
 84 85  1  0  0  0  0
 84161  1  0  0  0  0
 84249  1  1  0  0  0
 85 86  1  0  0  0  0
 85160  1  0  0  0  0
 85250  1  6  0  0  0
 86 87  1  0  0  0  0
 86159  1  0  0  0  0
 86251  1  1  0  0  0
 87 88  1  0  0  0  0
 87164  1  6  0  0  0
 89 90  1  0  0  0  0
 89 94  1  0  0  0  0
 89157  1  0  0  0  0
 89252  1  1  0  0  0
 90 91  1  0  0  0  0
 90156  1  0  0  0  0
 90253  1  6  0  0  0
 91 92  1  0  0  0  0
 91155  1  0  0  0  0
 91254  1  1  0  0  0
 92 93  1  0  0  0  0
 92154  1  0  0  0  0
 92255  1  6  0  0  0
 93 94  1  0  0  0  0
 93153  1  1  0  0  0
 93152  1  0  0  0  0
 95 96  1  0  0  0  0
 95100  1  0  0  0  0
 95147  1  0  0  0  0
 95256  1  1  0  0  0
 96 97  1  0  0  0  0
 96152  1  0  0  0  0
 96257  1  6  0  0  0
 97 98  1  0  0  0  0
 97151  1  0  0  0  0
 97258  1  1  0  0  0
 98 99  1  0  0  0  0
 98150  1  0  0  0  0
 98259  1  6  0  0  0
 99100  1  0  0  0  0
 99101  1  0  0  0  0
 99146  1  1  0  0  0
102103  1  0  0  0  0
103104  2  0  0  0  0
103105  1  0  0  0  0
105106  2  0  0  0  0
105108  1  0  0  0  0
106107  1  0  0  0  0
106260  1  0  0  0  0
107261  1  0  0  0  0
107262  1  0  0  0  0
107263  1  0  0  0  0
108264  1  0  0  0  0
108265  1  0  0  0  0
108266  1  0  0  0  0
109110  1  0  0  0  0
109117  1  0  0  0  0
109102  1  0  0  0  0
109267  1  1  0  0  0
110111  1  0  0  0  0
110268  1  1  0  0  0
111112  1  0  0  0  0
112113  2  0  0  0  0
112145  1  0  0  0  0
114115  1  0  0  0  0
114117  1  0  0  0  0
114269  1  0  0  0  0
114270  1  0  0  0  0
115116  1  0  0  0  0
115271  1  0  0  0  0
116110  1  0  0  0  0
116141  1  1  0  0  0
117143  1  0  0  0  0
117144  1  0  0  0  0
118119  1  0  0  0  0
118115  1  0  0  0  0
118125  2  0  0  0  0
119120  1  0  0  0  0
119139  1  6  0  0  0
120121  1  0  0  0  0
120272  1  0  0  0  0
120273  1  0  0  0  0
121116  1  0  0  0  0
121140  1  0  0  0  0
121274  1  1  0  0  0
122123  1  0  0  0  0
122125  1  0  0  0  0
122275  1  0  0  0  0
122276  1  0  0  0  0
123124  1  0  0  0  0
123277  1  0  0  0  0
124119  1  0  0  0  0
124138  1  6  0  0  0
125278  1  0  0  0  0
126127  1  0  0  0  0
126123  1  0  0  0  0
126133  1  0  0  0  0
126137  1  6  0  0  0
127128  1  0  0  0  0
127279  1  0  0  0  0
128129  1  0  0  0  0
128280  1  0  0  0  0
128281  1  0  0  0  0
129124  1  0  0  0  0
129282  1  0  0  0  0
129283  1  0  0  0  0
130131  1  0  0  0  0
130133  1  0  0  0  0
130284  1  0  0  0  0
130285  1  0  0  0  0
131132  1  0  0  0  0
131101  1  0  0  0  0
131286  1  0  0  0  0
132127  1  0  0  0  0
132135  1  6  0  0  0
132134  1  0  0  0  0
133287  1  0  0  0  0
133288  1  0  0  0  0
134289  1  0  0  0  0
134290  1  0  0  0  0
134291  1  0  0  0  0
135136  1  0  0  0  0
135292  1  0  0  0  0
135293  1  0  0  0  0
136294  1  0  0  0  0
137295  1  0  0  0  0
137296  1  0  0  0  0
137297  1  0  0  0  0
138298  1  0  0  0  0
138299  1  0  0  0  0
138300  1  0  0  0  0
139301  1  0  0  0  0
139302  1  0  0  0  0
139303  1  0  0  0  0
140304  1  0  0  0  0
141142  1  0  0  0  0
141305  1  0  0  0  0
141306  1  0  0  0  0
142307  1  0  0  0  0
143308  1  0  0  0  0
143309  1  0  0  0  0
143310  1  0  0  0  0
144311  1  0  0  0  0
144312  1  0  0  0  0
144313  1  0  0  0  0
145314  1  0  0  0  0
145315  1  0  0  0  0
145316  1  0  0  0  0
147148  1  0  0  0  0
147149  2  0  0  0  0
148317  1  0  0  0  0
150 87  1  0  0  0  0
151318  1  0  0  0  0
154319  1  0  0  0  0
155320  1  0  0  0  0
156321  1  0  0  0  0
157158  1  0  0  0  0
157322  1  0  0  0  0
157323  1  0  0  0  0
158324  1  0  0  0  0
159325  1  0  0  0  0
160326  1  0  0  0  0
161327  1  0  0  0  0
162163  1  0  0  0  0
162328  1  0  0  0  0
162329  1  0  0  0  0
163330  1  0  0  0  0
M  END
>  <DRUGBANK_ID>
DB15907

>  <COMMON_NAME>
Escin

>  <CAS_NUMBER>
6805-41-0

>  <UNII>
RUU8G67GQM

>  <SYNONYMS>
Aescin

$$$$
