
 OpenBabel10282417193D

 60 62  0  0  1  0  0  0  0  0999 V2000
   15.2498   -8.7122    8.4736 C   0  0  0  0  0  0  0  0  0  0  0  0
   15.0775   -8.3785    7.0001 C   0  0  0  0  0  0  0  0  0  0  0  0
   13.8867   -7.6450    6.6817 O   0  0  0  0  0  0  0  0  0  0  0  0
   12.7078   -8.3249    6.7819 C   0  0  0  0  0  0  0  0  0  0  0  0
   12.2724   -8.9206    7.9661 C   0  0  0  0  0  0  0  0  0  0  0  0
   11.0314   -9.5368    8.0552 C   0  0  0  0  0  0  0  0  0  0  0  0
   10.1597   -9.5014    6.9793 C   0  0  0  0  0  0  0  0  0  0  0  0
   10.5928   -8.8831    5.7896 C   0  0  0  0  0  0  0  0  0  0  0  0
   11.8492   -8.2822    5.6969 C   0  0  0  0  0  0  0  0  0  0  0  0
    8.7883  -10.1121    7.1454 C   0  0  0  0  0  0  0  0  0  0  0  0
    7.6299   -9.1394    7.2791 C   0  0  0  0  0  0  0  0  0  0  0  0
    7.4369   -8.2125    6.2520 C   0  0  0  0  0  0  0  0  0  0  0  0
    6.2421   -7.5116    5.9494 C   0  0  0  0  0  0  0  0  0  0  0  0
    5.2304   -7.6363    6.9036 C   0  0  0  0  0  0  0  0  0  0  0  0
    5.4559   -8.4704    8.0313 C   0  0  0  0  0  0  0  0  0  0  0  0
    6.6528   -9.1827    8.2485 C   0  0  0  0  0  0  0  0  0  0  0  0
    6.8494   -9.8396    9.5813 C   0  0  0  0  0  0  0  0  0  0  0  0
    3.9839   -7.0803    7.0509 O   0  0  0  0  0  0  0  0  0  0  0  0
    3.6198   -6.0504    6.1789 C   0  0  0  0  0  0  0  0  0  0  0  0
    6.4003   -6.8887    4.5419 C   0  0  1  0  0  0  0  0  0  0  0  0
    6.4449   -7.9667    3.4018 C   0  0  1  0  0  0  0  0  0  0  0  0
    6.9284   -7.3556    2.0730 C   0  0  2  0  0  0  0  0  0  0  0  0
    5.9962   -6.2831    1.4924 C   0  0  1  0  0  0  0  0  0  0  0  0
    5.8911   -5.0825    2.4263 C   0  0  2  0  0  0  0  0  0  0  0  0
    5.3781   -5.5049    4.0718 S   0  0  0  0  0  0  0  0  0  0  0  0
    4.8513   -4.0285    2.0059 C   0  0  0  0  0  0  0  0  0  0  0  0
    5.0801   -3.4658    0.7273 O   0  0  0  0  0  0  0  0  0  0  0  0
    6.5423   -5.8127    0.2496 O   0  0  0  0  0  0  0  0  0  0  0  0
    7.1368   -8.3972    1.1092 O   0  0  0  0  0  0  0  0  0  0  0  0
    7.3739   -9.0506    3.6497 O   0  0  0  0  0  0  0  0  0  0  0  0
   14.9269   -7.8765    9.1040 H   0  0  0  0  0  0  0  0  0  0  0  0
   16.2830   -8.9700    8.7100 H   0  0  0  0  0  0  0  0  0  0  0  0
   14.6669   -9.5987    8.7407 H   0  0  0  0  0  0  0  0  0  0  0  0
   15.9037   -7.7140    6.7221 H   0  0  0  0  0  0  0  0  0  0  0  0
   15.1676   -9.2717    6.3703 H   0  0  0  0  0  0  0  0  0  0  0  0
   12.8441   -8.8768    8.8768 H   0  0  0  0  0  0  0  0  0  0  0  0
   10.7514  -10.0196    8.9895 H   0  0  0  0  0  0  0  0  0  0  0  0
    9.9577   -8.8408    4.9178 H   0  0  0  0  0  0  0  0  0  0  0  0
   12.1365   -7.7725    4.7794 H   0  0  0  0  0  0  0  0  0  0  0  0
    8.5980  -10.7707    6.2869 H   0  0  0  0  0  0  0  0  0  0  0  0
    8.8120  -10.8015    7.9964 H   0  0  0  0  0  0  0  0  0  0  0  0
    8.2632   -8.0556    5.5865 H   0  0  0  0  0  0  0  0  0  0  0  0
    4.6572   -8.5558    8.7664 H   0  0  0  0  0  0  0  0  0  0  0  0
    6.7516   -9.0713   10.3569 H   0  0  0  0  0  0  0  0  0  0  0  0
    6.1155  -10.6293    9.7482 H   0  0  0  0  0  0  0  0  0  0  0  0
    7.8517  -10.2550    9.7021 H   0  0  0  0  0  0  0  0  0  0  0  0
    4.3765   -5.2625    6.2371 H   0  0  0  0  0  0  0  0  0  0  0  0
    3.4286   -6.5159    5.2080 H   0  0  0  0  0  0  0  0  0  0  0  0
    2.6894   -5.5505    6.4504 H   0  0  0  0  0  0  0  0  0  0  0  0
    7.3818   -6.3933    4.5770 H   0  0  0  0  0  0  0  0  0  0  0  0
    5.4659   -8.4494    3.3004 H   0  0  0  0  0  0  0  0  0  0  0  0
    7.9243   -6.9198    2.2273 H   0  0  0  0  0  0  0  0  0  0  0  0
    5.0151   -6.7237    1.2732 H   0  0  0  0  0  0  0  0  0  0  0  0
    6.8713   -4.5990    2.5050 H   0  0  0  0  0  0  0  0  0  0  0  0
    3.8351   -4.4446    2.0129 H   0  0  0  0  0  0  0  0  0  0  0  0
    4.8647   -3.1933    2.7187 H   0  0  0  0  0  0  0  0  0  0  0  0
    6.0252   -3.5452    0.5228 H   0  0  0  0  0  0  0  0  0  0  0  0
    7.4424   -5.4885    0.4129 H   0  0  0  0  0  0  0  0  0  0  0  0
    7.7700   -9.0264    1.5026 H   0  0  0  0  0  0  0  0  0  0  0  0
    8.2693   -8.6802    3.6790 H   0  0  0  0  0  0  0  0  0  0  0  0
  1  2  1  0  0  0  0
  1 31  1  0  0  0  0
  1 32  1  0  0  0  0
  1 33  1  0  0  0  0
  2  3  1  0  0  0  0
  2 34  1  0  0  0  0
  2 35  1  0  0  0  0
  3  4  1  0  0  0  0
  4  5  2  0  0  0  0
  4  9  1  0  0  0  0
  5  6  1  0  0  0  0
  5 36  1  0  0  0  0
  6  7  2  0  0  0  0
  6 37  1  0  0  0  0
  7  8  1  0  0  0  0
  7 10  1  0  0  0  0
  8  9  2  0  0  0  0
  8 38  1  0  0  0  0
  9 39  1  0  0  0  0
 10 11  1  0  0  0  0
 10 40  1  0  0  0  0
 10 41  1  0  0  0  0
 11 12  2  0  0  0  0
 11 16  1  0  0  0  0
 12 13  1  0  0  0  0
 12 42  1  0  0  0  0
 13 14  2  0  0  0  0
 14 15  1  0  0  0  0
 14 18  1  0  0  0  0
 15 16  2  0  0  0  0
 15 43  1  0  0  0  0
 16 17  1  0  0  0  0
 17 44  1  0  0  0  0
 17 45  1  0  0  0  0
 17 46  1  0  0  0  0
 18 19  1  0  0  0  0
 19 47  1  0  0  0  0
 19 48  1  0  0  0  0
 19 49  1  0  0  0  0
 20 21  1  0  0  0  0
 20 25  1  0  0  0  0
 20 50  1  1  0  0  0
 20 13  1  0  0  0  0
 21 22  1  0  0  0  0
 21 30  1  0  0  0  0
 21 51  1  6  0  0  0
 22 23  1  0  0  0  0
 22 52  1  1  0  0  0
 22 29  1  0  0  0  0
 23 24  1  0  0  0  0
 23 28  1  0  0  0  0
 23 53  1  6  0  0  0
 24 25  1  0  0  0  0
 24 54  1  1  0  0  0
 24 26  1  0  0  0  0
 26 27  1  0  0  0  0
 26 55  1  0  0  0  0
 26 56  1  0  0  0  0
 27 57  1  0  0  0  0
 28 58  1  0  0  0  0
 29 59  1  0  0  0  0
 30 60  1  0  0  0  0
M  END
>  <DRUGBANK_ID>
DB12214

>  <COMMON_NAME>
Luseogliflozin

>  <CAS_NUMBER>
898537-18-3

>  <UNII>
C596HWF74Z

>  <SYNONYMS>
Luseogliflozin

$$$$
