
 OpenBabel10282417143D

 36 37  0  0  0  0  0  0  0  0999 V2000
    1.0051    0.1113   -0.2645 N   0  0  0  0  0  0  0  0  0  0  0  0
    0.4144    1.3381   -0.4164 C   0  0  0  0  0  0  0  0  0  0  0  0
   -0.4809    1.8146    0.4013 N   0  0  0  0  0  0  0  0  0  0  0  0
   -1.1216    2.9420   -0.0255 C   0  0  0  0  0  0  0  0  0  0  0  0
   -0.8859    3.6504   -1.1689 C   0  0  0  0  0  0  0  0  0  0  0  0
   -1.7649    4.7000   -1.3316 N   0  0  0  0  0  0  0  0  0  0  0  0
   -2.5706    4.6122   -0.2990 C   0  0  0  0  0  0  0  0  0  0  0  0
   -2.2686    3.5172    0.4561 N   0  0  0  0  0  0  0  0  0  0  0  0
   -3.2223    2.9482    1.3663 C   0  0  0  0  0  0  0  0  0  0  0  0
   -3.7961    1.6475    0.7156 C   0  0  0  0  0  0  0  0  0  0  0  0
   -2.7734    0.4290    1.0270 C   0  0  0  0  0  0  0  0  0  0  0  0
   -1.7825    0.4343    2.3695 C   0  0  0  0  0  0  0  0  0  0  0  0
   -2.4235    0.1090    3.7272 C   0  0  0  0  0  0  0  0  0  0  0  0
   -2.9874   -1.1230    3.6990 F   0  0  0  0  0  0  0  0  0  0  0  0
   -1.6163    0.1761    4.7972 F   0  0  0  0  0  0  0  0  0  0  0  0
   -3.7604    1.3046    4.0906 P   0  0  0  0  0  0  0  0  0  0  0  0
   -4.5107    1.1055    2.7479 O   0  0  0  0  0  0  0  0  0  0  0  0
   -4.5964    0.1074    4.8777 O   0  0  0  0  0  0  0  0  0  0  0  0
   -4.8915    2.3162    4.3981 O   0  0  0  0  0  0  0  0  0  0  0  0
    0.1839    3.1867   -2.0318 C   0  0  0  0  0  0  0  0  0  0  0  0
    0.5314    3.7142   -3.0540 O   0  0  0  0  0  0  0  0  0  0  0  0
    0.7833    2.0142   -1.5500 N   0  0  0  0  0  0  0  0  0  0  0  0
    0.5631   -0.5339    0.3842 H   0  0  0  0  0  0  0  0  0  0  0  0
    2.0130    0.1043   -0.1395 H   0  0  0  0  0  0  0  0  0  0  0  0
   -3.4186    5.2468   -0.0636 H   0  0  0  0  0  0  0  0  0  0  0  0
   -2.6604    2.8389    2.3015 H   0  0  0  0  0  0  0  0  0  0  0  0
   -3.9760    3.7079    1.6320 H   0  0  0  0  0  0  0  0  0  0  0  0
   -4.8366    1.3630    0.9842 H   0  0  0  0  0  0  0  0  0  0  0  0
   -4.1411    1.7975   -0.3205 H   0  0  0  0  0  0  0  0  0  0  0  0
   -3.2838   -0.5411    1.0188 H   0  0  0  0  0  0  0  0  0  0  0  0
   -2.1614    0.3909    0.1227 H   0  0  0  0  0  0  0  0  0  0  0  0
   -0.9637   -0.2815    2.2060 H   0  0  0  0  0  0  0  0  0  0  0  0
   -1.2749    1.3947    2.5221 H   0  0  0  0  0  0  0  0  0  0  0  0
   -4.9320    2.0049    2.7586 H   0  0  0  0  0  0  0  0  0  0  0  0
   -4.0666   -0.6809    5.1077 H   0  0  0  0  0  0  0  0  0  0  0  0
    1.4804    1.6136   -2.1500 H   0  0  0  0  0  0  0  0  0  0  0  0
  1  2  1  0  0  0  0
  1 23  1  0  0  0  0
  1 24  1  0  0  0  0
  2  3  2  0  0  0  0
  2 22  1  0  0  0  0
  3  4  1  0  0  0  0
  4  5  2  0  0  0  0
  4  8  1  0  0  0  0
  5  6  1  0  0  0  0
  5 20  1  0  0  0  0
  6  7  2  0  0  0  0
  7  8  1  0  0  0  0
  7 25  1  0  0  0  0
  8  9  1  0  0  0  0
  9 10  1  0  0  0  0
  9 26  1  0  0  0  0
  9 27  1  0  0  0  0
 10 11  1  0  0  0  0
 10 28  1  0  0  0  0
 10 29  1  0  0  0  0
 11 12  1  0  0  0  0
 11 30  1  0  0  0  0
 11 31  1  0  0  0  0
 12 13  1  0  0  0  0
 12 32  1  0  0  0  0
 12 33  1  0  0  0  0
 13 14  1  0  0  0  0
 13 15  1  0  0  0  0
 13 16  1  0  0  0  0
 16 17  1  0  0  0  0
 16 18  1  0  0  0  0
 16 19  2  0  0  0  0
 17 34  1  0  0  0  0
 18 35  1  0  0  0  0
 20 21  2  0  0  0  0
 20 22  1  0  0  0  0
 22 36  1  0  0  0  0
M  END
>  <DRUGBANK_ID>
DB04260

>  <SECONDARY_ACCESSION_NUMBERS>
EXPT01684

>  <COMMON_NAME>
9-(5,5-Difluoro-5-Phosphonopentyl)Guanine

$$$$
