538
 OpenBabel10282417103D

 70 68  0  0  1  0  0  0  0  0999 V2000
    1.0469    0.0468    0.0749 Gd  0  1  0  0  0  0  0  0  0  0  0  0
    0.9389   -0.0439   -0.0658 O   0  5  0  0  0  0  0  0  0  0  0  0
    2.9943    0.2628    0.9912 O   0  0  0  0  0  0  0  0  0  0  0  0
    7.6903   -1.2963    0.1970 O   0  0  0  0  0  0  0  0  0  0  0  0
    7.9680   -0.7245   -1.5246 O   0  0  0  0  0  0  0  0  0  0  0  0
    3.9746   -0.2262    0.1124 O   0  5  0  0  0  0  0  0  0  0  0  0
    4.6633   -1.0429   -3.5085 O   0  5  0  0  0  0  0  0  0  0  0  0
    6.1877   -0.9361    0.2982 O   0  0  0  0  0  0  0  0  0  0  0  0
    6.6442   -0.7002   -2.3275 O   0  0  0  0  0  0  0  0  0  0  0  0
    5.2287    1.5335   -3.0993 O   0  0  0  0  0  0  0  0  0  0  0  0
    5.5645   -4.7900   -3.1458 O   0  0  0  0  0  0  0  0  0  0  0  0
    2.7637   -1.7783   -1.7359 N   0  0  0  0  0  0  0  0  0  0  0  0
    5.3483   -2.9935   -1.6169 N   0  0  0  0  0  0  0  0  0  0  0  0
    4.9684   -1.2712    0.0115 N   0  0  0  0  0  0  0  0  0  0  0  0
    6.9034   -0.3781   -1.8480 N   0  0  0  0  0  0  0  0  0  0  0  0
    6.9899   -2.8881   -1.6044 N   0  0  0  0  0  0  0  0  0  0  0  0
    3.4987   -2.1331   -2.9585 C   0  0  0  0  0  0  0  0  0  0  0  0
    3.1189   -2.7162   -0.6611 C   0  0  0  0  0  0  0  0  0  0  0  0
    4.9932   -2.0557   -2.6917 C   0  0  0  0  0  0  0  0  0  0  0  0
    4.6133   -2.6387   -0.3943 C   0  0  0  0  0  0  0  0  0  0  0  0
    3.1189   -0.4108   -1.3300 C   0  0  0  0  0  0  0  0  0  0  0  0
    6.7935   -2.9187   -1.3590 C   0  0  0  0  0  0  0  0  0  0  0  0
    6.4136   -1.1964    0.2695 C   0  0  0  0  0  0  0  0  0  0  0  0
    4.6133   -2.6388   -0.3943 C   0  0  0  0  0  0  0  0  0  0  0  0
    4.6133   -0.3334   -1.0633 C   0  0  0  0  0  0  0  0  0  0  0  0
    2.3589   -0.0439   -0.0658 C   0  0  0  0  0  0  0  0  0  0  0  0
    7.1607   -1.5046   -0.9394 C   0  0  0  0  0  0  0  0  0  0  0  0
    7.1737   -1.5632   -0.9947 C   0  0  0  0  0  0  0  0  0  0  0  0
    4.9805   -1.2247    0.0253 C   0  0  0  0  0  0  0  0  0  0  0  0
    5.3733   -0.7002   -2.3275 C   0  0  0  0  0  0  0  0  0  0  0  0
    6.2909   -0.6191   -3.1624 C   0  0  0  0  0  0  0  0  0  0  0  0
    6.0712   -3.8583   -0.9915 C   0  0  0  0  0  0  0  0  0  0  0  0
    4.9801    0.1445   -3.2582 C   0  0  0  0  0  0  0  0  0  0  0  0
    4.9788   -4.2192   -1.9850 C   0  0  0  0  0  0  0  0  0  0  0  0
    5.8203    1.7663   -1.8296 C   0  0  0  0  0  0  0  0  0  0  0  0
    6.4520   -3.8529   -3.7379 C   0  0  0  0  0  0  0  0  0  0  0  0
    7.1498    0.5708   -1.5664 H   0  0  0  0  0  0  0  0  0  0  0  0
    7.4999   -3.1343   -2.4528 H   0  0  0  0  0  0  0  0  0  0  0  0
    3.2403   -3.1285   -3.2538 H   0  0  0  0  0  0  0  0  0  0  0  0
    3.2402   -1.4504   -3.7408 H   0  0  0  0  0  0  0  0  0  0  0  0
    2.5839   -2.4579    0.2289 H   0  0  0  0  0  0  0  0  0  0  0  0
    2.8604   -3.7116   -0.9564 H   0  0  0  0  0  0  0  0  0  0  0  0
    5.5282   -2.3139   -3.5817 H   0  0  0  0  0  0  0  0  0  0  0  0
    5.2516   -1.0603   -2.3963 H   0  0  0  0  0  0  0  0  0  0  0  0
    4.8718   -3.3214    0.3880 H   0  0  0  0  0  0  0  0  0  0  0  0
    5.1483   -2.8970   -1.2842 H   0  0  0  0  0  0  0  0  0  0  0  0
    2.8604    0.2719   -2.1124 H   0  0  0  0  0  0  0  0  0  0  0  0
    4.1709   -0.3563   -1.1423 H   0  0  0  0  0  0  0  0  0  0  0  0
    7.0520   -3.6013   -0.5766 H   0  0  0  0  0  0  0  0  0  0  0  0
    7.3285   -3.1769   -2.2489 H   0  0  0  0  0  0  0  0  0  0  0  0
    6.6721   -0.2010    0.5649 H   0  0  0  0  0  0  0  0  0  0  0  0
    6.6721   -1.8790    1.0518 H   0  0  0  0  0  0  0  0  0  0  0  0
    3.5613   -2.6932   -0.5821 H   0  0  0  0  0  0  0  0  0  0  0  0
    4.8718   -3.3214    0.3880 H   0  0  0  0  0  0  0  0  0  0  0  0
    3.5613   -0.3878   -1.2511 H   0  0  0  0  0  0  0  0  0  0  0  0
    4.8718    0.6621   -0.7679 H   0  0  0  0  0  0  0  0  0  0  0  0
    6.9551   -0.2853   -3.9320 H   0  0  0  0  0  0  0  0  0  0  0  0
    6.1035   -1.6657   -3.2821 H   0  0  0  0  0  0  0  0  0  0  0  0
    6.6127   -4.7405   -0.7208 H   0  0  0  0  0  0  0  0  0  0  0  0
    5.6298   -3.4281   -0.1168 H   0  0  0  0  0  0  0  0  0  0  0  0
    4.5342   -0.0309   -4.2149 H   0  0  0  0  0  0  0  0  0  0  0  0
    4.3158   -0.1893   -2.4886 H   0  0  0  0  0  0  0  0  0  0  0  0
    4.3101   -4.9253   -1.5389 H   0  0  0  0  0  0  0  0  0  0  0  0
    4.4373   -3.3369   -2.2558 H   0  0  0  0  0  0  0  0  0  0  0  0
    5.1561    1.4325   -1.0600 H   0  0  0  0  0  0  0  0  0  0  0  0
    6.7431    1.2288   -1.7622 H   0  0  0  0  0  0  0  0  0  0  0  0
    6.0077    2.8129   -1.7100 H   0  0  0  0  0  0  0  0  0  0  0  0
    5.9105   -2.9706   -4.0086 H   0  0  0  0  0  0  0  0  0  0  0  0
    7.2210   -3.5988   -3.0385 H   0  0  0  0  0  0  0  0  0  0  0  0
    6.8933   -4.2830   -4.6126 H   0  0  0  0  0  0  0  0  0  0  0  0
  2 26  1  0  0  0  0
  3 26  2  0  0  0  0
  4 27  2  0  0  0  0
  5 28  2  0  0  0  0
  6 29  1  0  0  0  0
  7 30  1  0  0  0  0
  8 29  2  0  0  0  0
  9 30  2  0  0  0  0
 10 33  1  0  0  0  0
 10 35  1  0  0  0  0
 11 34  1  0  0  0  0
 11 36  1  0  0  0  0
 12 17  1  0  0  0  0
 12 18  1  0  0  0  0
 12 21  1  0  0  0  0
 13 19  1  0  0  0  0
 13 22  1  0  0  0  0
 13 24  1  0  0  0  0
 14 20  1  0  0  0  0
 14 23  1  0  0  0  0
 14 25  1  0  0  0  0
 15 27  1  0  0  0  0
 15 31  1  0  0  0  0
 15 37  1  0  0  0  0
 16 28  1  0  0  0  0
 16 32  1  0  0  0  0
 16 38  1  0  0  0  0
 17 19  1  0  0  0  0
 17 39  1  0  0  0  0
 17 40  1  0  0  0  0
 18 20  1  0  0  0  0
 18 41  1  0  0  0  0
 18 42  1  0  0  0  0
 19 43  1  0  0  0  0
 19 44  1  0  0  0  0
 20 45  1  0  0  0  0
 20 46  1  0  0  0  0
 21 26  1  0  0  0  0
 21 47  1  0  0  0  0
 21 48  1  0  0  0  0
 22 27  1  0  0  0  0
 22 49  1  0  0  0  0
 22 50  1  0  0  0  0
 23 28  1  0  0  0  0
 23 51  1  0  0  0  0
 23 52  1  0  0  0  0
 24 29  1  0  0  0  0
 24 53  1  0  0  0  0
 24 54  1  0  0  0  0
 25 30  1  0  0  0  0
 25 55  1  0  0  0  0
 25 56  1  0  0  0  0
 31 33  1  0  0  0  0
 31 57  1  0  0  0  0
 31 58  1  0  0  0  0
 32 34  1  0  0  0  0
 32 59  1  0  0  0  0
 32 60  1  0  0  0  0
 33 61  1  0  0  0  0
 33 62  1  0  0  0  0
 34 63  1  0  0  0  0
 34 64  1  0  0  0  0
 35 65  1  0  0  0  0
 35 66  1  0  0  0  0
 35 67  1  0  0  0  0
 36 68  1  0  0  0  0
 36 69  1  0  0  0  0
 36 70  1  0  0  0  0
M  CHG  4   1   3   2  -1   6  -1   7  -1
M  END
>  <DRUGBANK_ID>
DB00538

>  <SECONDARY_ACCESSION_NUMBERS>
APRD00993

>  <COMMON_NAME>
Gadoversetamide

>  <CAS_NUMBER>
131069-91-5

>  <UNII>
RLM74T3Z9D

>  <SYNONYMS>
Gadoversetamid; Gadoversetamida; Gadoversetamide; Gadoversetamidum

$$$$
