Q22
 OpenBabel10282417173D

 48 52  0  0  0  0  0  0  0  0999 V2000
    1.5910    1.7957   -4.1072 C   0  0  0  0  0  0  0  0  0  0  0  0
    0.9111    0.7674   -4.5727 N   0  0  0  0  0  0  0  0  0  0  0  0
    1.6995   -0.2990   -4.5630 C   0  0  0  0  0  0  0  0  0  0  0  0
    1.1816   -2.1562   -4.3826 N   0  0  0  0  0  0  0  0  0  0  0  0
    2.0099   -3.5598   -4.3479 C   0  0  0  0  0  0  0  0  0  0  0  0
    1.4489   -4.6033   -5.2071 N   0  0  0  0  0  0  0  0  0  0  0  0
    3.5099   -3.4257   -4.1108 N   0  0  0  0  0  0  0  0  0  0  0  0
    4.3367   -1.8944   -4.0863 C   0  0  0  0  0  0  0  0  0  0  0  0
    5.5767   -2.0774   -3.5934 N   0  0  0  0  0  0  0  0  0  0  0  0
    3.5945   -0.1819   -4.4154 C   0  0  0  0  0  0  0  0  0  0  0  0
    4.1166    1.0019   -4.3194 N   0  0  0  0  0  0  0  0  0  0  0  0
    3.0598    1.8079   -3.9571 C   0  0  0  0  0  0  0  0  0  0  0  0
    3.3644    2.0115   -2.5471 C   0  0  0  0  0  0  0  0  0  0  0  0
    3.2612    0.2211   -2.1404 N   0  0  0  0  0  0  0  0  0  0  0  0
    2.4487   -1.3581   -3.2218 C   0  0  1  0  0  0  0  0  0  0  0  0
    2.5227   -1.7546   -5.4468 C   0  0  0  0  0  0  0  0  0  0  0  0
    1.2014   -1.9366   -6.3299 C   0  0  0  0  0  0  0  0  0  0  0  0
   -0.4535   -1.7454   -5.5574 C   0  0  0  0  0  0  0  0  0  0  0  0
   -0.5922   -1.5744   -3.7491 C   0  0  0  0  0  0  0  0  0  0  0  0
    0.5577   -1.5930   -2.7415 C   0  0  0  0  0  0  0  0  0  0  0  0
    0.2817   -0.8638   -1.6304 C   0  0  0  0  0  0  0  0  0  0  0  0
    1.0689    0.1260   -1.4290 C   0  0  0  0  0  0  0  0  0  0  0  0
    1.6463    0.4262   -0.2661 C   0  0  0  0  0  0  0  0  0  0  0  0
    0.8633    0.2278    0.8125 C   0  0  0  0  0  0  0  0  0  0  0  0
    2.8142    0.9719   -0.5111 C   0  0  0  0  0  0  0  0  0  0  0  0
    2.9302    1.9933    0.6922 C   0  0  0  0  0  0  0  0  0  0  0  0
    1.7821    2.0685    1.8009 C   0  0  0  0  0  0  0  0  0  0  0  0
    0.8682    1.0395    1.8646 C   0  0  0  0  0  0  0  0  0  0  0  0
   -0.0373    0.7001    2.8113 O   0  0  0  0  0  0  0  0  0  0  0  0
    2.8800   -1.5846   -4.5577 H   0  0  0  0  0  0  0  0  0  0  0  0
    0.9292    2.4069   -3.4610 H   0  0  0  0  0  0  0  0  0  0  0  0
    0.5920   -4.4157   -5.7492 H   0  0  0  0  0  0  0  0  0  0  0  0
    2.0689   -5.2430   -5.6989 H   0  0  0  0  0  0  0  0  0  0  0  0
    5.8731   -3.0480   -3.5076 H   0  0  0  0  0  0  0  0  0  0  0  0
    5.7949   -1.3216   -2.9717 H   0  0  0  0  0  0  0  0  0  0  0  0
    4.3324    2.5887   -2.7070 H   0  0  0  0  0  0  0  0  0  0  0  0
    2.6447    2.8448   -2.2060 H   0  0  0  0  0  0  0  0  0  0  0  0
    3.2456   -2.4811   -5.9608 H   0  0  0  0  0  0  0  0  0  0  0  0
    1.1215   -2.7970   -7.0271 H   0  0  0  0  0  0  0  0  0  0  0  0
   -0.7906   -0.8658   -6.0993 H   0  0  0  0  0  0  0  0  0  0  0  0
   -1.1219   -2.6031   -5.7508 H   0  0  0  0  0  0  0  0  0  0  0  0
   -1.4924   -1.0440   -3.4744 H   0  0  0  0  0  0  0  0  0  0  0  0
    0.0695   -0.2349   -2.5027 H   0  0  0  0  0  0  0  0  0  0  0  0
    1.4754    0.6415   -2.2585 H   0  0  0  0  0  0  0  0  0  0  0  0
    0.2237   -0.6147    0.6568 H   0  0  0  0  0  0  0  0  0  0  0  0
    3.7280    2.6456    1.1606 H   0  0  0  0  0  0  0  0  0  0  0  0
    1.6123    2.8313    2.5960 H   0  0  0  0  0  0  0  0  0  0  0  0
   -0.4528   -0.1519    2.5291 H   0  0  0  0  0  0  0  0  0  0  0  0
  1  2  2  0  0  0  0
  1 12  1  0  0  0  0
  1 31  1  0  0  0  0
  2  3  1  0  0  0  0
  3  4  2  0  0  0  0
  3 10  1  0  0  0  0
  4  5  1  0  0  0  0
  5  6  1  0  0  0  0
  5  7  2  0  0  0  0
  6 32  1  0  0  0  0
  6 33  1  0  0  0  0
  7  8  1  0  0  0  0
  8  9  1  0  0  0  0
  8 10  2  0  0  0  0
  9 34  1  0  0  0  0
  9 35  1  0  0  0  0
 10 11  1  0  0  0  0
 11 12  2  0  0  0  0
 12 13  1  0  0  0  0
 13 14  1  0  0  0  0
 13 36  1  0  0  0  0
 13 37  1  0  0  0  0
 14 15  1  0  0  0  0
 14 25  1  0  0  0  0
 15 16  1  0  0  0  0
 15 20  1  0  0  0  0
 15 30  1  6  0  0  0
 16 17  2  0  0  0  0
 16 38  1  0  0  0  0
 17 18  1  0  0  0  0
 17 39  1  0  0  0  0
 18 19  1  0  0  0  0
 18 40  1  0  0  0  0
 18 41  1  0  0  0  0
 19 20  2  0  0  0  0
 19 42  1  0  0  0  0
 20 21  1  0  0  0  0
 21 22  2  0  0  0  0
 21 43  1  0  0  0  0
 22 23  1  0  0  0  0
 22 44  1  0  0  0  0
 23 24  2  0  0  0  0
 23 25  1  0  0  0  0
 24 28  1  0  0  0  0
 24 45  1  0  0  0  0
 25 26  2  0  0  0  0
 26 27  1  0  0  0  0
 26 46  1  0  0  0  0
 27 28  2  0  0  0  0
 27 47  1  0  0  0  0
 28 29  1  0  0  0  0
 29 48  1  0  0  0  0
M  END
>  <DRUGBANK_ID>
DB08448

>  <COMMON_NAME>
(4aS)-5-[(2,4-diaminopteridin-6-yl)methyl]-4a,5-dihydro-2H-dibenzo[b,f]azepin-8-ol

$$$$
