
 OpenBabel10282417173D

 42 43  0  0  0  0  0  0  0  0999 V2000
   -0.3198    1.0910   -0.2186 O   0  0  0  0  0  0  0  0  0  0  0  0
    0.4781    0.0048   -0.3415 C   0  0  0  0  0  0  0  0  0  0  0  0
   -0.1896   -1.1853   -0.0531 C   0  0  0  0  0  0  0  0  0  0  0  0
   -1.5662   -0.7217    0.0369 C   0  0  0  0  0  0  0  0  0  0  0  0
   -1.5645    0.6501   -0.0007 C   0  0  0  0  0  0  0  0  0  0  0  0
    1.8308    0.4194   -0.6786 C   0  0  0  0  0  0  0  0  0  0  0  0
    0.3132   -2.5801    0.0455 C   0  0  0  0  0  0  0  0  0  0  0  0
   -0.8411   -3.8073   -0.0520 S   0  0  0  0  0  0  0  0  0  0  0  0
    1.6345   -3.0142    0.1215 N   0  0  0  0  0  0  0  0  0  0  0  0
    2.8277   -2.3083    0.3618 C   0  0  0  0  0  0  0  0  0  0  0  0
    2.9131   -1.3316    1.3632 C   0  0  0  0  0  0  0  0  0  0  0  0
    3.9233   -0.3387    1.3281 C   0  0  0  0  0  0  0  0  0  0  0  0
    4.8874   -0.3974    0.3015 C   0  0  0  0  0  0  0  0  0  0  0  0
    4.8715   -1.4629   -0.6211 C   0  0  0  0  0  0  0  0  0  0  0  0
    3.8641   -2.4398   -0.5745 C   0  0  0  0  0  0  0  0  0  0  0  0
    5.9767    0.9036   -0.0351 Cl  0  0  0  0  0  0  0  0  0  0  0  0
    3.6859    0.9263    2.1093 C   0  0  0  0  0  0  0  0  0  0  0  0
    2.6307    1.0437    2.8823 N   0  0  0  0  0  0  0  0  0  0  0  0
    2.5441    2.3416    3.4304 O   0  0  0  0  0  0  0  0  0  0  0  0
    1.4009    2.4425    4.3206 C   0  0  0  0  0  0  0  0  0  0  0  0
    0.0925    2.5506    3.5264 C   0  0  0  0  0  0  0  0  0  0  0  0
    1.3350    1.2528    5.2878 C   0  0  0  0  0  0  0  0  0  0  0  0
    1.5696    3.7278    5.1499 C   0  0  0  0  0  0  0  0  0  0  0  0
   -2.4639   -1.3138    0.1389 H   0  0  0  0  0  0  0  0  0  0  0  0
   -2.3104    1.4269    0.0732 H   0  0  0  0  0  0  0  0  0  0  0  0
    1.9447    1.1725   -1.4516 H   0  0  0  0  0  0  0  0  0  0  0  0
    2.2081    0.8914    0.2217 H   0  0  0  0  0  0  0  0  0  0  0  0
    2.4015   -0.4253   -1.0270 H   0  0  0  0  0  0  0  0  0  0  0  0
    1.7372   -3.9864   -0.1610 H   0  0  0  0  0  0  0  0  0  0  0  0
    2.0703   -1.2104    2.0431 H   0  0  0  0  0  0  0  0  0  0  0  0
    5.5583   -1.4582   -1.4698 H   0  0  0  0  0  0  0  0  0  0  0  0
    3.7951   -3.1557   -1.3942 H   0  0  0  0  0  0  0  0  0  0  0  0
    4.3551    1.7842    1.9571 H   0  0  0  0  0  0  0  0  0  0  0  0
   -0.0786    1.6586    2.9165 H   0  0  0  0  0  0  0  0  0  0  0  0
   -0.7675    2.6696    4.1981 H   0  0  0  0  0  0  0  0  0  0  0  0
    0.1099    3.4081    2.8448 H   0  0  0  0  0  0  0  0  0  0  0  0
    2.2679    1.1620    5.8541 H   0  0  0  0  0  0  0  0  0  0  0  0
    0.5050    1.3588    5.9944 H   0  0  0  0  0  0  0  0  0  0  0  0
    1.1909    0.3084    4.7522 H   0  0  0  0  0  0  0  0  0  0  0  0
    2.4998    3.7041    5.7279 H   0  0  0  0  0  0  0  0  0  0  0  0
    1.6182    4.6148    4.5085 H   0  0  0  0  0  0  0  0  0  0  0  0
    0.7374    3.8633    5.8523 H   0  0  0  0  0  0  0  0  0  0  0  0
  2  1  1  0  0  0  0
  2  3  2  0  0  0  0
  2  6  1  0  0  0  0
  4  3  1  0  0  0  0
  4  5  2  0  0  0  0
  4 24  1  0  0  0  0
  5  1  1  0  0  0  0
  5 25  1  0  0  0  0
  6 26  1  0  0  0  0
  6 27  1  0  0  0  0
  6 28  1  0  0  0  0
  7  3  1  0  0  0  0
  7  8  2  0  0  0  0
  7  9  1  0  0  0  0
  9 29  1  0  0  0  0
 10  9  1  0  0  0  0
 10 11  2  0  0  0  0
 10 15  1  0  0  0  0
 11 12  1  0  0  0  0
 11 30  1  0  0  0  0
 12 13  2  0  0  0  0
 12 17  1  0  0  0  0
 13 14  1  0  0  0  0
 13 16  1  0  0  0  0
 14 15  2  0  0  0  0
 14 31  1  0  0  0  0
 15 32  1  0  0  0  0
 17 18  2  0  0  0  0
 17 33  1  0  0  0  0
 18 19  1  0  0  0  0
 20 19  1  0  0  0  0
 20 21  1  0  0  0  0
 20 22  1  0  0  0  0
 20 23  1  0  0  0  0
 21 34  1  0  0  0  0
 21 35  1  0  0  0  0
 21 36  1  0  0  0  0
 22 37  1  0  0  0  0
 22 38  1  0  0  0  0
 22 39  1  0  0  0  0
 23 40  1  0  0  0  0
 23 41  1  0  0  0  0
 23 42  1  0  0  0  0
M  END
>  <DRUGBANK_ID>
DB08680

>  <COMMON_NAME>
N-{3-[(E)-(tert-butoxyimino)methyl]-4-chlorophenyl}-2-methylfuran-3-carbimidothioic acid

>  <CAS_NUMBER>
172998-57-1

>  <UNII>
9ES58KV6YB

$$$$
