
 OpenBabel10282417183D

113121  0  0  1  0  0  0  0  0999 V2000
    6.2182    6.9710   -0.6212 C   0  0  0  0  0  0  0  0  0  0  0  0
    5.7161    8.7259    0.2368 C   0  0  0  0  0  0  0  0  0  0  0  0
    7.0824    8.5450    0.3094 C   0  0  1  0  0  0  0  0  0  0  0  0
    7.6615    8.5244   -1.1419 C   0  0  0  0  0  0  0  0  0  0  0  0
    6.8812    9.4032   -1.7962 C   0  0  0  0  0  0  0  0  0  0  0  0
    5.1995    8.9565   -1.9392 C   0  0  0  0  0  0  0  0  0  0  0  0
    4.1368    8.7106   -0.6423 N   0  0  3  0  0  0  0  0  0  0  0  0
    5.3003    7.8465    0.7758 C   0  0  2  0  0  0  0  0  0  0  0  0
    5.2485    8.6160    2.3629 C   0  0  1  0  0  0  0  0  0  0  0  0
    4.9036   10.3566    1.8255 C   0  0  0  0  0  0  0  0  0  0  0  0
    4.3562   10.4101    0.0529 C   0  0  0  0  0  0  0  0  0  0  0  0
    4.3871    7.7646    3.2101 C   0  0  0  0  0  0  0  0  0  0  0  0
    2.9228    7.5907    2.9955 C   0  0  0  0  0  0  0  0  0  0  0  0
    2.0003    6.9851    3.9162 C   0  0  0  0  0  0  0  0  0  0  0  0
    3.0636    6.7835    5.2928 C   0  0  0  0  0  0  0  0  0  0  0  0
    4.6304    6.9370    5.3108 C   0  0  0  0  0  0  0  0  0  0  0  0
    5.2823    7.3619    4.2169 C   0  0  0  0  0  0  0  0  0  0  0  0
    6.6249    7.6313    4.0096 N   0  0  0  0  0  0  0  0  0  0  0  0
    6.7658    8.1854    2.7110 C   0  0  1  0  0  0  0  0  0  0  0  0
    7.7289    9.3920    2.5739 C   0  0  2  0  0  0  0  0  0  0  0  0
    7.9167    9.6742    1.0930 C   0  0  2  0  0  0  0  0  0  0  0  0
    8.3756   11.0140    0.7221 O   0  0  0  0  0  0  0  0  0  0  0  0
    9.5079   11.2458   -0.0415 C   0  0  0  0  0  0  0  0  0  0  0  0
   10.1003   12.3213   -0.0552 O   0  0  0  0  0  0  0  0  0  0  0  0
    9.9617   10.1543   -0.9613 C   0  0  0  0  0  0  0  0  0  0  0  0
    9.1432    9.1561    3.0129 C   0  0  0  0  0  0  0  0  0  0  0  0
    9.6128    9.7199    3.9898 O   0  0  0  0  0  0  0  0  0  0  0  0
    9.7941    8.2058    2.2679 O   0  0  0  0  0  0  0  0  0  0  0  0
   11.0894    7.8966    2.7713 C   0  0  0  0  0  0  0  0  0  0  0  0
    7.1847   10.4638    3.3350 O   0  0  0  0  0  0  0  0  0  0  0  0
    7.8203    7.1007    4.6064 C   0  0  0  0  0  0  0  0  0  0  0  0
    2.7293    6.6867    6.7290 O   0  0  0  0  0  0  0  0  0  0  0  0
    3.8040    6.3382    7.7701 C   0  0  0  0  0  0  0  0  0  0  0  0
    0.0492    7.2482    3.3645 C   0  0  1  0  0  0  0  0  0  0  0  0
   -1.5987    6.0146    2.3896 C   0  0  0  0  0  0  0  0  0  0  0  0
   -1.6678    4.6038    0.8774 C   0  0  2  0  0  0  0  0  0  0  0  0
   -1.0355    2.9289    0.8336 C   0  0  0  0  0  0  0  0  0  0  0  0
    0.5257    2.8340    0.5710 C   0  0  2  0  0  0  0  0  0  0  0  0
    0.7735    3.8461    1.5720 C   0  0  0  0  0  0  0  0  0  0  0  0
    0.6374    5.1225    0.8993 N   0  0  1  0  0  0  0  0  0  0  0  0
   -0.6082    5.3365    1.2899 C   0  0  0  0  0  0  0  0  0  0  0  0
    1.0038    6.1824    1.8237 C   0  0  0  0  0  0  0  0  0  0  0  0
    0.2027    5.8273    3.5804 C   0  0  0  0  0  0  0  0  0  0  0  0
   -0.7032    6.7086    4.4208 C   0  0  0  0  0  0  0  0  0  0  0  0
   -0.7875    6.1659    5.6600 N   0  0  0  0  0  0  0  0  0  0  0  0
   -0.0743    5.0146    5.6228 C   0  0  0  0  0  0  0  0  0  0  0  0
    0.5147    4.8368    4.4050 C   0  0  0  0  0  0  0  0  0  0  0  0
    1.4205    3.8874    4.1528 C   0  0  0  0  0  0  0  0  0  0  0  0
    1.7918    2.9776    5.0018 C   0  0  0  0  0  0  0  0  0  0  0  0
    1.1547    3.0738    6.1856 C   0  0  0  0  0  0  0  0  0  0  0  0
    0.1407    4.0077    6.5078 C   0  0  0  0  0  0  0  0  0  0  0  0
    2.0210    2.9987    0.1218 C   0  0  0  0  0  0  0  0  0  0  0  0
    2.7551    1.7298    0.5768 C   0  0  0  0  0  0  0  0  0  0  0  0
    2.1132    3.2827   -1.1749 F   0  0  0  0  0  0  0  0  0  0  0  0
    2.8360    3.9274    0.7429 F   0  0  0  0  0  0  0  0  0  0  0  0
    0.9217    8.6029    4.5650 C   0  0  0  0  0  0  0  0  0  0  0  0
    0.7994    8.6116    5.8095 O   0  0  0  0  0  0  0  0  0  0  0  0
    2.3825    9.3916    4.2653 O   0  0  0  0  0  0  0  0  0  0  0  0
    3.8705   10.0472    4.9996 C   0  0  0  0  0  0  0  0  0  0  0  0
    6.4329    7.0980   -1.6633 H   0  0  0  0  0  0  0  0  0  0  0  0
    5.4068    6.2654   -0.6639 H   0  0  0  0  0  0  0  0  0  0  0  0
    7.0910    6.6555    0.0189 H   0  0  0  0  0  0  0  0  0  0  0  0
    4.2876    8.9442    0.9587 H   0  0  0  0  0  0  0  0  0  0  0  0
    6.1697    9.3780    0.9659 H   0  0  0  0  0  0  0  0  0  0  0  0
    8.6748    8.1359   -0.9561 H   0  0  0  0  0  0  0  0  0  0  0  0
    7.1180   10.3633   -1.2883 H   0  0  0  0  0  0  0  0  0  0  0  0
    5.0693    7.9910   -2.4463 H   0  0  0  0  0  0  0  0  0  0  0  0
    4.8111    9.7672   -2.5208 H   0  0  0  0  0  0  0  0  0  0  0  0
    5.1953    6.7377    1.0350 H   0  0  0  0  0  0  0  0  0  0  0  0
    5.8662   10.9003    1.7713 H   0  0  0  0  0  0  0  0  0  0  0  0
    4.1950   10.7799    2.4975 H   0  0  0  0  0  0  0  0  0  0  0  0
    5.2273   10.8445   -0.4832 H   0  0  0  0  0  0  0  0  0  0  0  0
    3.3828   10.8491   -0.0052 H   0  0  0  0  0  0  0  0  0  0  0  0
    2.5000    8.3941    2.3690 H   0  0  0  0  0  0  0  0  0  0  0  0
    5.3318    6.8369    6.1594 H   0  0  0  0  0  0  0  0  0  0  0  0
    7.1601    7.3596    2.0611 H   0  0  0  0  0  0  0  0  0  0  0  0
    8.7459    9.1284    0.7609 H   0  0  0  0  0  0  0  0  0  0  0  0
   10.2556    9.2569   -0.4132 H   0  0  0  0  0  0  0  0  0  0  0  0
    9.1937    9.9922   -1.7020 H   0  0  0  0  0  0  0  0  0  0  0  0
   10.7851   10.4396   -1.6057 H   0  0  0  0  0  0  0  0  0  0  0  0
   11.7175    8.7873    2.7316 H   0  0  0  0  0  0  0  0  0  0  0  0
   11.0144    7.5200    3.7960 H   0  0  0  0  0  0  0  0  0  0  0  0
   11.5367    7.1141    2.1527 H   0  0  0  0  0  0  0  0  0  0  0  0
    6.9613   10.0643    4.1988 H   0  0  0  0  0  0  0  0  0  0  0  0
    8.0319    7.7368    5.4587 H   0  0  0  0  0  0  0  0  0  0  0  0
    7.7513    6.0400    4.7978 H   0  0  0  0  0  0  0  0  0  0  0  0
    8.6946    7.1643    3.9467 H   0  0  0  0  0  0  0  0  0  0  0  0
    4.3881    5.4495    7.4778 H   0  0  0  0  0  0  0  0  0  0  0  0
    4.5314    7.1394    8.0613 H   0  0  0  0  0  0  0  0  0  0  0  0
    3.3227    6.0712    8.7240 H   0  0  0  0  0  0  0  0  0  0  0  0
   -2.7377    6.2343    2.0547 H   0  0  0  0  0  0  0  0  0  0  0  0
   -2.3007    4.8443    2.5143 H   0  0  0  0  0  0  0  0  0  0  0  0
   -1.5781    4.6839   -0.2567 H   0  0  0  0  0  0  0  0  0  0  0  0
   -1.5581    2.5251    1.7313 H   0  0  0  0  0  0  0  0  0  0  0  0
   -1.3638    1.9836    0.2827 H   0  0  0  0  0  0  0  0  0  0  0  0
    0.5368    1.7493    0.5889 H   0  0  0  0  0  0  0  0  0  0  0  0
    1.6355    4.3579    1.9217 H   0  0  0  0  0  0  0  0  0  0  0  0
    1.2497    3.0449    2.1163 H   0  0  0  0  0  0  0  0  0  0  0  0
   -0.9457    6.4040    0.8722 H   0  0  0  0  0  0  0  0  0  0  0  0
   -0.7332    4.5229    2.3537 H   0  0  0  0  0  0  0  0  0  0  0  0
    0.9319    7.2935    1.5415 H   0  0  0  0  0  0  0  0  0  0  0  0
    2.0347    6.1072    1.5371 H   0  0  0  0  0  0  0  0  0  0  0  0
   -1.4683    6.4008    6.3954 H   0  0  0  0  0  0  0  0  0  0  0  0
    2.0470    3.8276    3.3198 H   0  0  0  0  0  0  0  0  0  0  0  0
    2.5514    2.3373    4.5999 H   0  0  0  0  0  0  0  0  0  0  0  0
    1.5117    2.3700    6.8890 H   0  0  0  0  0  0  0  0  0  0  0  0
   -0.4179    3.9672    7.4100 H   0  0  0  0  0  0  0  0  0  0  0  0
    2.3988    0.8746    0.0157 H   0  0  0  0  0  0  0  0  0  0  0  0
    3.8238    1.8874    0.4456 H   0  0  0  0  0  0  0  0  0  0  0  0
    2.6204    1.5160    1.6595 H   0  0  0  0  0  0  0  0  0  0  0  0
    3.6852   11.0994    5.1928 H   0  0  0  0  0  0  0  0  0  0  0  0
    4.4428    9.5692    5.8523 H   0  0  0  0  0  0  0  0  0  0  0  0
    4.7096   10.1077    4.2523 H   0  0  0  0  0  0  0  0  0  0  0  0
  1  2  1  0  0  0  0
  1 60  1  0  0  0  0
  1 61  1  0  0  0  0
  1 62  1  0  0  0  0
  2 63  1  0  0  0  0
  2 64  1  0  0  0  0
  3  2  1  1  0  0  0
  3  4  1  0  0  0  0
  3  8  1  0  0  0  0
  3 21  1  0  0  0  0
  4  5  2  0  0  0  0
  4 65  1  0  0  0  0
  5  6  1  0  0  0  0
  5 66  1  0  0  0  0
  6  7  1  0  0  0  0
  6 67  1  0  0  0  0
  6 68  1  0  0  0  0
  7 11  1  0  0  0  0
  8  7  1  0  0  0  0
  8  9  1  0  0  0  0
  8 69  1  1  0  0  0
  9 10  1  0  0  0  0
  9 12  1  1  0  0  0
  9 19  1  0  0  0  0
 10 11  1  0  0  0  0
 10 70  1  0  0  0  0
 10 71  1  0  0  0  0
 11 72  1  0  0  0  0
 11 73  1  0  0  0  0
 12 13  2  0  0  0  0
 12 17  1  0  0  0  0
 13 14  1  0  0  0  0
 13 74  1  0  0  0  0
 14 15  2  0  0  0  0
 15 16  1  0  0  0  0
 15 32  1  0  0  0  0
 16 17  2  0  0  0  0
 16 75  1  0  0  0  0
 17 18  1  0  0  0  0
 18 31  1  0  0  0  0
 19 18  1  0  0  0  0
 19 20  1  0  0  0  0
 19 76  1  1  0  0  0
 20 21  1  0  0  0  0
 20 26  1  1  0  0  0
 20 30  1  0  0  0  0
 21 77  1  6  0  0  0
 21 22  1  0  0  0  0
 22 23  1  0  0  0  0
 23 24  2  0  0  0  0
 23 25  1  0  0  0  0
 25 78  1  0  0  0  0
 25 79  1  0  0  0  0
 25 80  1  0  0  0  0
 26 27  2  0  0  0  0
 26 28  1  0  0  0  0
 28 29  1  0  0  0  0
 29 81  1  0  0  0  0
 29 82  1  0  0  0  0
 29 83  1  0  0  0  0
 30 84  1  0  0  0  0
 31 85  1  0  0  0  0
 31 86  1  0  0  0  0
 31 87  1  0  0  0  0
 32 33  1  0  0  0  0
 33 88  1  0  0  0  0
 33 89  1  0  0  0  0
 33 90  1  0  0  0  0
 34 35  1  0  0  0  0
 34 44  1  0  0  0  0
 34 56  1  6  0  0  0
 34 14  1  0  0  0  0
 35 36  1  0  0  0  0
 35 91  1  0  0  0  0
 35 92  1  0  0  0  0
 36 37  1  0  0  0  0
 36 41  1  0  0  0  0
 36 93  1  6  0  0  0
 37 38  1  0  0  0  0
 37 94  1  0  0  0  0
 37 95  1  0  0  0  0
 38 39  1  0  0  0  0
 38 52  1  0  0  0  0
 38 96  1  1  0  0  0
 39 97  1  0  0  0  0
 39 98  1  0  0  0  0
 40 39  1  1  0  0  0
 40 41  1  0  0  0  0
 40 42  1  0  0  0  0
 41 99  1  0  0  0  0
 41100  1  0  0  0  0
 42 43  1  0  0  0  0
 42101  1  0  0  0  0
 42102  1  0  0  0  0
 43 44  2  0  0  0  0
 43 47  1  0  0  0  0
 44 45  1  0  0  0  0
 45 46  1  0  0  0  0
 45103  1  0  0  0  0
 46 47  1  0  0  0  0
 46 51  2  0  0  0  0
 47 48  2  0  0  0  0
 48 49  1  0  0  0  0
 48104  1  0  0  0  0
 49 50  2  0  0  0  0
 49105  1  0  0  0  0
 50 51  1  0  0  0  0
 50106  1  0  0  0  0
 51107  1  0  0  0  0
 52 53  1  0  0  0  0
 52 54  1  0  0  0  0
 52 55  1  0  0  0  0
 53108  1  0  0  0  0
 53109  1  0  0  0  0
 53110  1  0  0  0  0
 56 57  2  0  0  0  0
 56 58  1  0  0  0  0
 58 59  1  0  0  0  0
 59111  1  0  0  0  0
 59112  1  0  0  0  0
 59113  1  0  0  0  0
M  END
>  <DRUGBANK_ID>
DB11641

>  <COMMON_NAME>
Vinflunine

>  <CAS_NUMBER>
162652-95-1

>  <UNII>
5BF646324K

>  <SYNONYMS>
20',20'-difluoro-3',4'-dihydrovinorelbine; 4'-deoxy-20',20'-difluoro-5'-norvincaleukoblastine; 4'-deoxy-20',20'-difluoro-8'-norvincaleukoblastine; Vinflunina; Vinflunine; Vinfluninum

$$$$
