1566
 OpenBabel10282417113D

 32 33  0  0  1  0  0  0  0  0999 V2000
   -1.4770   -1.1503   -0.0718 O   0  0  0  0  0  0  0  0  0  0  0  0
   -1.4646    1.2596    0.0342 O   0  0  0  0  0  0  0  0  0  0  0  0
    2.5574   -3.3983    1.2823 N   0  0  0  0  0  0  0  0  0  0  0  0
    3.6361   -2.3948    1.1685 C   0  0  3  0  0  0  0  0  0  0  0  0
    3.4595   -1.4842   -0.0817 C   0  0  0  0  0  0  0  0  0  0  0  0
    2.1654   -0.6895   -0.1027 C   0  0  0  0  0  0  0  0  0  0  0  0
    5.0009   -3.0851    1.1173 C   0  0  0  0  0  0  0  0  0  0  0  0
    0.9341   -1.3552   -0.2180 C   0  0  0  0  0  0  0  0  0  0  0  0
    2.5980   -4.2429    2.4716 C   0  0  0  0  0  0  0  0  0  0  0  0
    2.1756    0.7178   -0.0062 C   0  0  0  0  0  0  0  0  0  0  0  0
   -0.2265   -0.6258   -0.1050 C   0  0  0  0  0  0  0  0  0  0  0  0
   -0.2080    0.7384   -0.0132 C   0  0  0  0  0  0  0  0  0  0  0  0
    0.9753    1.4452    0.0113 C   0  0  0  0  0  0  0  0  0  0  0  0
    2.4878   -3.4152    3.7420 C   0  0  0  0  0  0  0  0  0  0  0  0
   -2.2564    0.0514    0.0758 C   0  0  0  0  0  0  0  0  0  0  0  0
    1.6805   -2.8846    1.3625 H   0  0  0  0  0  0  0  0  0  0  0  0
    3.6085   -1.7245    2.0351 H   0  0  0  0  0  0  0  0  0  0  0  0
    3.5283   -2.0710   -1.0055 H   0  0  0  0  0  0  0  0  0  0  0  0
    4.3038   -0.7803   -0.1064 H   0  0  0  0  0  0  0  0  0  0  0  0
    5.8085   -2.3488    1.0741 H   0  0  0  0  0  0  0  0  0  0  0  0
    5.1838   -3.6926    2.0093 H   0  0  0  0  0  0  0  0  0  0  0  0
    5.0780   -3.7380    0.2413 H   0  0  0  0  0  0  0  0  0  0  0  0
    0.8671   -2.4266   -0.3635 H   0  0  0  0  0  0  0  0  0  0  0  0
    1.7373   -4.9208    2.4176 H   0  0  0  0  0  0  0  0  0  0  0  0
    3.4811   -4.8865    2.4776 H   0  0  0  0  0  0  0  0  0  0  0  0
    3.1191    1.2577    0.0472 H   0  0  0  0  0  0  0  0  0  0  0  0
    0.9785    2.5275    0.0556 H   0  0  0  0  0  0  0  0  0  0  0  0
    1.5624   -2.8276    3.7407 H   0  0  0  0  0  0  0  0  0  0  0  0
    2.4870   -4.0640    4.6193 H   0  0  0  0  0  0  0  0  0  0  0  0
    3.3268   -2.7217    3.8517 H   0  0  0  0  0  0  0  0  0  0  0  0
   -2.9974    0.0755   -0.7302 H   0  0  0  0  0  0  0  0  0  0  0  0
   -2.7807    0.0156    1.0383 H   0  0  0  0  0  0  0  0  0  0  0  0
  1 11  1  0  0  0  0
  1 15  1  0  0  0  0
  2 12  1  0  0  0  0
  2 15  1  0  0  0  0
  3  4  1  0  0  0  0
  3  9  1  0  0  0  0
  3 16  1  0  0  0  0
  4  5  1  0  0  0  0
  4  7  1  0  0  0  0
  4 17  1  0  0  0  0
  5  6  1  0  0  0  0
  5 18  1  0  0  0  0
  5 19  1  0  0  0  0
  6  8  2  0  0  0  0
  6 10  1  0  0  0  0
  7 20  1  0  0  0  0
  7 21  1  0  0  0  0
  7 22  1  0  0  0  0
  8 11  1  0  0  0  0
  8 23  1  0  0  0  0
  9 14  1  0  0  0  0
  9 24  1  0  0  0  0
  9 25  1  0  0  0  0
 10 13  2  0  0  0  0
 10 26  1  0  0  0  0
 11 12  2  0  0  0  0
 12 13  1  0  0  0  0
 13 27  1  0  0  0  0
 14 28  1  0  0  0  0
 14 29  1  0  0  0  0
 14 30  1  0  0  0  0
 15 31  1  0  0  0  0
 15 32  1  0  0  0  0
M  END
>  <DRUGBANK_ID>
DB01566

>  <COMMON_NAME>
Methylenedioxyethamphetamine

>  <CAS_NUMBER>
82801-81-8

>  <UNII>
ML1I4KK67B

>  <SYNONYMS>
(+/-)-MDE; 3,4-methylenedioxy-N-ethylamphetamine; MDE; n-ethyl MDA

$$$$
