
 OpenBabel10282417163D

 54 59  0  0  1  0  0  0  0  0999 V2000
   -1.0931    0.4035   -0.1582 C   0  0  0  0  0  0  0  0  0  0  0  0
   -1.0120    1.5223    0.6894 O   0  0  0  0  0  0  0  0  0  0  0  0
   -1.2669    2.6407   -0.1969 C   0  0  2  0  0  0  0  0  0  0  0  0
   -0.6527    2.1650   -1.4258 C   0  0  3  0  0  0  0  0  0  0  0  0
   -0.1115    0.7491   -1.2470 C   0  0  2  0  0  0  0  0  0  0  0  0
   -3.2692    2.7646   -2.4937 C   0  0  2  0  0  0  0  0  0  0  0  0
   -1.8161    2.2692   -2.4883 C   0  0  1  0  0  0  0  0  0  0  0  0
   -4.0631    1.7713   -3.9745 C   0  0  2  0  0  0  0  0  0  0  0  0
   -3.4917    0.6083   -3.1253 C   0  0  2  0  0  0  0  0  0  0  0  0
   -2.1036    0.9015   -2.8063 O   0  0  0  0  0  0  0  0  0  0  0  0
   -3.7712   -0.6970   -3.6317 O   0  0  0  0  0  0  0  0  0  0  0  0
   -4.7141   -0.4684   -4.6109 C   0  0  0  0  0  0  0  0  0  0  0  0
   -4.0445    0.5913   -5.3634 C   0  0  2  0  0  0  0  0  0  0  0  0
   -1.8626   -0.4948   -0.0079 O   0  0  0  0  0  0  0  0  0  0  0  0
   -2.8841    2.7843   -0.6056 C   0  0  1  0  0  0  0  0  0  0  0  0
   -3.4218    4.3085   -3.1683 C   0  0  1  0  0  0  0  0  0  0  0  0
   -3.7502    2.8865   -5.3558 C   0  0  1  0  0  0  0  0  0  0  0  0
   -4.2677    4.1268   -4.5858 C   0  0  1  0  0  0  0  0  0  0  0  0
   -5.8401   -0.8194   -4.6804 O   0  0  0  0  0  0  0  0  0  0  0  0
   -3.3754    1.9288    0.4545 O   0  0  0  0  0  0  0  0  0  0  0  0
    0.7374    0.5483   -2.4697 C   0  0  0  0  0  0  0  0  0  0  0  0
   -1.2934    3.7646   -2.8885 C   0  0  0  0  0  0  0  0  0  0  0  0
   -2.2030    4.7321   -2.5744 O   0  0  0  0  0  0  0  0  0  0  0  0
   -0.2437    4.0135   -3.4762 O   0  0  0  0  0  0  0  0  0  0  0  0
   -2.9511   -0.2562   -5.8886 O   0  0  0  0  0  0  0  0  0  0  0  0
   -2.2658    2.7610   -6.0996 C   0  0  0  0  0  0  0  0  0  0  0  0
   -1.9202    1.8293   -7.2776 C   0  0  0  0  0  0  0  0  0  0  0  0
   -1.4779    4.0406   -6.2793 C   0  0  0  0  0  0  0  0  0  0  0  0
   -1.5914    2.0529   -5.0327 C   0  0  0  0  0  0  0  0  0  0  0  0
   -5.6236    3.8602   -4.1768 O   0  0  0  0  0  0  0  0  0  0  0  0
   -0.7658    3.5297    0.2301 H   0  0  0  0  0  0  0  0  0  0  0  0
    0.2261    2.8012   -1.6095 H   0  0  0  0  0  0  0  0  0  0  0  0
    0.6612    0.3086   -0.5978 H   0  0  0  0  0  0  0  0  0  0  0  0
   -4.0810    0.5869   -2.2043 H   0  0  0  0  0  0  0  0  0  0  0  0
   -4.6033    0.8591   -6.2841 H   0  0  0  0  0  0  0  0  0  0  0  0
   -3.1699    3.7804   -0.2501 H   0  0  0  0  0  0  0  0  0  0  0  0
   -2.8872    4.8219   -3.9942 H   0  0  0  0  0  0  0  0  0  0  0  0
   -4.4273    2.8265   -6.2465 H   0  0  0  0  0  0  0  0  0  0  0  0
   -4.4125    4.9677   -5.3068 H   0  0  0  0  0  0  0  0  0  0  0  0
   -2.6574    1.8961    1.1768 H   0  0  0  0  0  0  0  0  0  0  0  0
    0.5422    1.3112   -3.2300 H   0  0  0  0  0  0  0  0  0  0  0  0
    1.7768    0.7988   -2.1830 H   0  0  0  0  0  0  0  0  0  0  0  0
    0.6833   -0.4247   -2.9366 H   0  0  0  0  0  0  0  0  0  0  0  0
   -2.1923   -0.3691   -5.2889 H   0  0  0  0  0  0  0  0  0  0  0  0
   -1.8437    2.3606   -8.2190 H   0  0  0  0  0  0  0  0  0  0  0  0
   -0.9322    1.3660   -7.0738 H   0  0  0  0  0  0  0  0  0  0  0  0
   -2.5915    1.0047   -7.4844 H   0  0  0  0  0  0  0  0  0  0  0  0
   -1.7026    4.7957   -5.5342 H   0  0  0  0  0  0  0  0  0  0  0  0
   -0.4104    3.7999   -6.1620 H   0  0  0  0  0  0  0  0  0  0  0  0
   -1.6502    4.4624   -7.2640 H   0  0  0  0  0  0  0  0  0  0  0  0
   -1.9535    2.7206   -4.3341 H   0  0  0  0  0  0  0  0  0  0  0  0
   -2.1045    1.1793   -4.8163 H   0  0  0  0  0  0  0  0  0  0  0  0
   -0.5777    1.7590   -4.8595 H   0  0  0  0  0  0  0  0  0  0  0  0
   -5.5890    3.3880   -3.3305 H   0  0  0  0  0  0  0  0  0  0  0  0
  1  2  1  0  0  0  0
  1 14  2  0  0  0  0
  3  2  1  0  0  0  0
  3  4  1  0  0  0  0
  3 15  1  0  0  0  0
  3 31  1  6  0  0  0
  4  5  1  0  0  0  0
  4 32  1  0  0  0  0
  5  1  1  0  0  0  0
  5 21  1  0  0  0  0
  5 33  1  1  0  0  0
  6  7  1  0  0  0  0
  6  8  1  0  0  0  0
  6 16  1  0  0  0  0
  7  4  1  0  0  0  0
  7 22  1  0  0  0  0
  8  9  1  0  0  0  0
  8 17  1  0  0  0  0
  9 10  1  0  0  0  0
  9 11  1  0  0  0  0
  9 34  1  0  0  0  0
 10  7  1  0  0  0  0
 11 12  1  0  0  0  0
 12 13  1  0  0  0  0
 12 19  2  0  0  0  0
 13  8  1  0  0  0  0
 13 35  1  0  0  0  0
 13 25  1  0  0  0  0
 15  6  1  0  0  0  0
 15 36  1  0  0  0  0
 15 20  1  0  0  0  0
 16 23  1  0  0  0  0
 16 37  1  0  0  0  0
 17 18  1  0  0  0  0
 17 38  1  0  0  0  0
 17 26  1  0  0  0  0
 18 16  1  0  0  0  0
 18 39  1  0  0  0  0
 18 30  1  0  0  0  0
 20 40  1  0  0  0  0
 21 41  1  0  0  0  0
 21 42  1  0  0  0  0
 21 43  1  0  0  0  0
 22 23  1  0  0  0  0
 22 24  2  0  0  0  0
 25 44  1  0  0  0  0
 26 27  1  0  0  0  0
 26 28  1  0  0  0  0
 26 29  1  0  0  0  0
 27 45  1  0  0  0  0
 27 46  1  0  0  0  0
 27 47  1  0  0  0  0
 28 48  1  0  0  0  0
 28 49  1  0  0  0  0
 28 50  1  0  0  0  0
 29 51  1  0  0  0  0
 29 52  1  0  0  0  0
 29 53  1  0  0  0  0
 30 54  1  0  0  0  0
M  END
>  <DRUGBANK_ID>
DB06747

>  <COMMON_NAME>
ginkgolide-M

>  <CAS_NUMBER>
15291-78-8

>  <UNII>
Z9XSZ8ZK7U

$$$$
