
 OpenBabel10282417143D

 77 79  0  0  0  0  0  0  0  0999 V2000
   -2.5500    2.8179    0.1362 O   0  0  0  0  0  0  0  0  0  0  0  0
   -2.5936    1.5633   -0.5493 C   0  0  1  0  0  0  0  0  0  0  0  0
   -1.3362    2.8054   -0.6006 C   0  0  2  0  0  0  0  0  0  0  0  0
    1.3071   -2.1992   -0.1204 C   0  0  0  0  0  0  0  0  0  0  0  0
    2.7424   -2.1849   -0.7639 C   0  0  0  0  0  0  0  0  0  0  0  0
    0.6043   -3.5286    0.0457 C   0  0  1  0  0  0  0  0  0  0  0  0
    4.1273    4.9005   -3.3053 N   0  0  0  0  0  0  0  0  0  0  0  0
    2.2903    2.4134    0.5882 N   0  0  0  0  0  0  0  0  0  0  0  0
    3.3243    1.5487    0.2313 C   0  0  0  0  0  0  0  0  0  0  0  0
    1.3028    2.8320   -0.4233 C   0  0  1  0  0  0  0  0  0  0  0  0
    2.8736    4.4169   -3.6226 C   0  0  0  0  0  0  0  0  0  0  0  0
    3.6457   -1.0044   -0.2348 C   0  0  2  0  0  0  0  0  0  0  0  0
   -0.0796    3.2535    0.2219 C   0  0  0  0  0  0  0  0  0  0  0  0
    2.8170    0.1450    0.3025 C   0  0  0  0  0  0  0  0  0  0  0  0
    2.1875    3.5694   -2.6886 C   0  0  0  0  0  0  0  0  0  0  0  0
    2.0182    3.8323   -1.3659 C   0  0  0  0  0  0  0  0  0  0  0  0
   -0.7392   -3.3734    0.7849 C   0  0  2  0  0  0  0  0  0  0  0  0
    4.4809    5.8389   -4.1562 C   0  0  0  0  0  0  0  0  0  0  0  0
    3.3907    6.0851   -5.4634 S   0  0  0  0  0  0  0  0  0  0  0  0
    2.3490    4.8789   -4.8097 C   0  0  0  0  0  0  0  0  0  0  0  0
    0.6774   -1.1875    0.2089 O   0  0  0  0  0  0  0  0  0  0  0  0
    4.3747    1.8649   -0.2584 O   0  0  0  0  0  0  0  0  0  0  0  0
   -1.8478   -2.8944   -0.1633 C   0  0  2  0  0  0  0  0  0  0  0  0
   -3.0473    0.4666    0.4489 C   0  0  0  0  0  0  0  0  0  0  0  0
   -0.5718   -2.5099    1.9191 O   0  0  0  0  0  0  0  0  0  0  0  0
    4.4998   -0.5888   -1.3068 O   0  0  0  0  0  0  0  0  0  0  0  0
   -3.5784    1.4732   -1.7316 C   0  0  0  0  0  0  0  0  0  0  0  0
    3.4583   -3.5085   -0.3962 C   0  0  0  0  0  0  0  0  0  0  0  0
    2.6291   -2.0206   -2.3133 C   0  0  0  0  0  0  0  0  0  0  0  0
    0.4587   -4.1172   -1.3481 C   0  0  0  0  0  0  0  0  0  0  0  0
    2.6072    5.0865   -0.7467 C   0  0  0  0  0  0  0  0  0  0  0  0
    5.7082    6.6722   -4.0152 C   0  0  0  0  0  0  0  0  0  0  0  0
   -3.2838   -0.8958   -0.2838 C   0  0  0  0  0  0  0  0  0  0  0  0
   -2.9297   -2.1010    0.5619 C   0  0  0  0  0  0  0  0  0  0  0  0
   -2.4964   -4.0658   -0.9312 C   0  0  0  0  0  0  0  0  0  0  0  0
   -1.3623    3.4712   -1.4649 H   0  0  0  0  0  0  0  0  0  0  0  0
    1.2376   -4.1322    0.6999 H   0  0  0  0  0  0  0  0  0  0  0  0
    2.4248    2.9380    1.4413 H   0  0  0  0  0  0  0  0  0  0  0  0
    1.0792    1.9406   -1.0157 H   0  0  0  0  0  0  0  0  0  0  0  0
    4.3148   -1.3612    0.5557 H   0  0  0  0  0  0  0  0  0  0  0  0
   -0.1252    2.9621    1.2783 H   0  0  0  0  0  0  0  0  0  0  0  0
   -0.0638    4.3589    0.2432 H   0  0  0  0  0  0  0  0  0  0  0  0
    1.9665    0.2343   -0.3679 H   0  0  0  0  0  0  0  0  0  0  0  0
    2.4979   -0.0729    1.3313 H   0  0  0  0  0  0  0  0  0  0  0  0
    1.7685    2.6558   -3.1045 H   0  0  0  0  0  0  0  0  0  0  0  0
   -1.0270   -4.3400    1.2025 H   0  0  0  0  0  0  0  0  0  0  0  0
    1.4039    4.6467   -5.2772 H   0  0  0  0  0  0  0  0  0  0  0  0
   -1.3733   -2.2269   -0.8969 H   0  0  0  0  0  0  0  0  0  0  0  0
   -2.4110    0.3847    1.3309 H   0  0  0  0  0  0  0  0  0  0  0  0
   -4.0500    0.7515    0.8168 H   0  0  0  0  0  0  0  0  0  0  0  0
   -0.3909   -1.6095    1.5608 H   0  0  0  0  0  0  0  0  0  0  0  0
    4.3385    0.3574   -1.5010 H   0  0  0  0  0  0  0  0  0  0  0  0
   -4.0414    2.4005   -2.0571 H   0  0  0  0  0  0  0  0  0  0  0  0
   -3.1143    0.9278   -2.5626 H   0  0  0  0  0  0  0  0  0  0  0  0
   -4.4489    0.8526   -1.4599 H   0  0  0  0  0  0  0  0  0  0  0  0
    2.9214   -4.4047   -0.7193 H   0  0  0  0  0  0  0  0  0  0  0  0
    4.4511   -3.5759   -0.8417 H   0  0  0  0  0  0  0  0  0  0  0  0
    3.5522   -3.6011    0.6945 H   0  0  0  0  0  0  0  0  0  0  0  0
    2.1127   -1.0857   -2.5559 H   0  0  0  0  0  0  0  0  0  0  0  0
    3.6197   -2.0288   -2.7792 H   0  0  0  0  0  0  0  0  0  0  0  0
    2.1080   -2.7853   -2.8832 H   0  0  0  0  0  0  0  0  0  0  0  0
    1.3555   -4.0635   -1.9329 H   0  0  0  0  0  0  0  0  0  0  0  0
    0.2366   -5.1786   -1.3110 H   0  0  0  0  0  0  0  0  0  0  0  0
   -0.2468   -3.5568   -1.9730 H   0  0  0  0  0  0  0  0  0  0  0  0
    1.8286    5.6813   -0.2693 H   0  0  0  0  0  0  0  0  0  0  0  0
    3.3911    4.8437   -0.0225 H   0  0  0  0  0  0  0  0  0  0  0  0
    3.0698    5.7657   -1.4678 H   0  0  0  0  0  0  0  0  0  0  0  0
    6.3747    6.5374   -4.8716 H   0  0  0  0  0  0  0  0  0  0  0  0
    5.4596    7.7356   -3.9249 H   0  0  0  0  0  0  0  0  0  0  0  0
    6.2582    6.3877   -3.1112 H   0  0  0  0  0  0  0  0  0  0  0  0
   -4.3313   -1.0359   -0.5927 H   0  0  0  0  0  0  0  0  0  0  0  0
   -2.7264   -0.8927   -1.2289 H   0  0  0  0  0  0  0  0  0  0  0  0
   -2.6286   -1.7564    1.5490 H   0  0  0  0  0  0  0  0  0  0  0  0
   -3.8057   -2.7382    0.7269 H   0  0  0  0  0  0  0  0  0  0  0  0
   -3.2184   -3.7008   -1.6667 H   0  0  0  0  0  0  0  0  0  0  0  0
   -1.8069   -4.6958   -1.4926 H   0  0  0  0  0  0  0  0  0  0  0  0
   -2.9865   -4.7442   -0.2309 H   0  0  0  0  0  0  0  0  0  0  0  0
  2  1  1  0  0  0  0
  2 27  1  6  0  0  0
  2  3  1  0  0  0  0
  3  1  1  0  0  0  0
  3 36  1  6  0  0  0
  4  6  1  0  0  0  0
  5 12  1  0  0  0  0
  5  4  1  0  0  0  0
  6 17  1  0  0  0  0
  6 37  1  1  0  0  0
  6 30  1  0  0  0  0
  7 11  1  0  0  0  0
  8 10  1  0  0  0  0
  8 38  1  0  0  0  0
  9  8  1  0  0  0  0
 10 13  1  0  0  0  0
 10 16  1  0  0  0  0
 10 39  1  6  0  0  0
 11 15  1  0  0  0  0
 12 14  1  0  0  0  0
 12 40  1  1  0  0  0
 12 26  1  0  0  0  0
 13  3  1  0  0  0  0
 13 41  1  0  0  0  0
 13 42  1  0  0  0  0
 14  9  1  0  0  0  0
 14 43  1  0  0  0  0
 14 44  1  0  0  0  0
 15 16  2  0  0  0  0
 15 45  1  0  0  0  0
 17 23  1  0  0  0  0
 17 25  1  0  0  0  0
 17 46  1  1  0  0  0
 18  7  2  0  0  0  0
 18 19  1  0  0  0  0
 19 20  1  0  0  0  0
 20 11  2  0  0  0  0
 20 47  1  0  0  0  0
 21  4  2  0  0  0  0
 22  9  2  0  0  0  0
 23 34  1  0  0  0  0
 23 35  1  0  0  0  0
 23 48  1  6  0  0  0
 24  2  1  0  0  0  0
 24 49  1  0  0  0  0
 24 50  1  0  0  0  0
 25 51  1  0  0  0  0
 26 52  1  0  0  0  0
 27 53  1  0  0  0  0
 27 54  1  0  0  0  0
 27 55  1  0  0  0  0
 28  5  1  0  0  0  0
 28 56  1  0  0  0  0
 28 57  1  0  0  0  0
 28 58  1  0  0  0  0
 29  5  1  0  0  0  0
 29 59  1  0  0  0  0
 29 60  1  0  0  0  0
 29 61  1  0  0  0  0
 30 62  1  0  0  0  0
 30 63  1  0  0  0  0
 30 64  1  0  0  0  0
 31 16  1  0  0  0  0
 31 65  1  0  0  0  0
 31 66  1  0  0  0  0
 31 67  1  0  0  0  0
 32 18  1  0  0  0  0
 32 68  1  0  0  0  0
 32 69  1  0  0  0  0
 32 70  1  0  0  0  0
 33 24  1  0  0  0  0
 33 71  1  0  0  0  0
 33 72  1  0  0  0  0
 34 33  1  0  0  0  0
 34 73  1  0  0  0  0
 34 74  1  0  0  0  0
 35 75  1  0  0  0  0
 35 76  1  0  0  0  0
 35 77  1  0  0  0  0
M  END
>  <DRUGBANK_ID>
DB04845

>  <COMMON_NAME>
Ixabepilone

>  <CAS_NUMBER>
219989-84-1

>  <UNII>
K27005NP0A

>  <SYNONYMS>
Aza-epothilone B; Azaepothilone B; Ixabepilone

$$$$
