
 OpenBabel10282417103D

 46 50  0  0  0  0  0  0  0  0999 V2000
    1.3093   -0.4492    0.3205 C   0  0  0  0  0  0  0  0  0  0  0  0
   -0.0286   -0.0415    0.2255 C   0  0  0  0  0  0  0  0  0  0  0  0
    1.6572   -1.7866    0.1446 C   0  0  0  0  0  0  0  0  0  0  0  0
   -1.0379   -0.9780   -0.0396 C   0  0  0  0  0  0  0  0  0  0  0  0
    0.6583   -2.7169   -0.1481 C   0  0  0  0  0  0  0  0  0  0  0  0
   -0.6783   -2.3141   -0.2482 C   0  0  0  0  0  0  0  0  0  0  0  0
    2.0942    1.7457   -0.2937 N   0  0  0  0  0  0  0  0  0  0  0  0
    0.7099    2.1877   -0.4143 C   0  0  0  0  0  0  0  0  0  0  0  0
    2.3592    0.5977    0.4448 C   0  0  0  0  0  0  0  0  0  0  0  0
   -0.3121    1.4273    0.4149 C   0  0  1  0  0  0  0  0  0  0  0  0
   -1.7195    1.8138   -0.0626 C   0  0  0  0  0  0  0  0  0  0  0  0
   -2.7197    0.8151    0.4943 C   0  0  0  0  0  0  0  0  0  0  0  0
   -2.4800   -0.5505   -0.1536 C   0  0  0  0  0  0  0  0  0  0  0  0
    3.3842    0.4011    1.0900 O   0  0  0  0  0  0  0  0  0  0  0  0
    3.1757    2.4183   -1.0632 C   0  0  2  0  0  0  0  0  0  0  0  0
    3.3109    3.9219   -0.7222 C   0  0  0  0  0  0  0  0  0  0  0  0
    3.0388    2.2862   -2.6235 C   0  0  3  0  0  0  0  0  0  0  0  0
    3.1473    4.7928   -1.9181 N   0  0  3  0  0  0  0  0  0  0  0  0
    1.8269    3.0703   -3.1588 C   0  0  0  0  0  0  0  0  0  0  0  0
    1.8566    4.4930   -2.5804 C   0  0  0  0  0  0  0  0  0  0  0  0
    4.2332    3.0102   -3.2938 C   0  0  0  0  0  0  0  0  0  0  0  0
    4.2383    4.4917   -2.8703 C   0  0  0  0  0  0  0  0  0  0  0  0
   -0.1967    1.6680    1.4788 H   0  0  0  0  0  0  0  0  0  0  0  0
    2.6989   -2.0929    0.1944 H   0  0  0  0  0  0  0  0  0  0  0  0
    0.9186   -3.7602   -0.3080 H   0  0  0  0  0  0  0  0  0  0  0  0
   -1.4422   -3.0524   -0.4834 H   0  0  0  0  0  0  0  0  0  0  0  0
    0.6523    3.2549   -0.1912 H   0  0  0  0  0  0  0  0  0  0  0  0
    0.3999    1.9950   -1.4271 H   0  0  0  0  0  0  0  0  0  0  0  0
   -1.9554    2.8362    0.2522 H   0  0  0  0  0  0  0  0  0  0  0  0
   -1.7829    1.8047   -1.1617 H   0  0  0  0  0  0  0  0  0  0  0  0
   -2.5882    0.7427    1.5811 H   0  0  0  0  0  0  0  0  0  0  0  0
   -3.7425    1.1520    0.3044 H   0  0  0  0  0  0  0  0  0  0  0  0
   -3.1241   -1.2914    0.3304 H   0  0  0  0  0  0  0  0  0  0  0  0
   -2.7530   -0.5071   -1.2166 H   0  0  0  0  0  0  0  0  0  0  0  0
    4.1200    1.9212   -0.7918 H   0  0  0  0  0  0  0  0  0  0  0  0
    2.5967    4.2193    0.0527 H   0  0  0  0  0  0  0  0  0  0  0  0
    4.2968    4.1066   -0.2733 H   0  0  0  0  0  0  0  0  0  0  0  0
    3.0039    1.2364   -2.9339 H   0  0  0  0  0  0  0  0  0  0  0  0
    0.8787    2.5817   -2.9738 H   0  0  0  0  0  0  0  0  0  0  0  0
    1.8442    3.1011   -4.2539 H   0  0  0  0  0  0  0  0  0  0  0  0
    1.0328    4.6534   -1.8754 H   0  0  0  0  0  0  0  0  0  0  0  0
    1.6822    5.2071   -3.3928 H   0  0  0  0  0  0  0  0  0  0  0  0
    5.1840    2.5323   -3.0406 H   0  0  0  0  0  0  0  0  0  0  0  0
    4.1280    2.9543   -4.3870 H   0  0  0  0  0  0  0  0  0  0  0  0
    4.1332    5.1380   -3.7519 H   0  0  0  0  0  0  0  0  0  0  0  0
    5.2069    4.7524   -2.4286 H   0  0  0  0  0  0  0  0  0  0  0  0
  1  9  1  0  0  0  0
  2  1  1  0  0  0  0
  2 10  1  0  0  0  0
  3  1  2  0  0  0  0
  3 24  1  0  0  0  0
  4  2  2  0  0  0  0
  5  3  1  0  0  0  0
  5 25  1  0  0  0  0
  6  4  1  0  0  0  0
  6  5  2  0  0  0  0
  6 26  1  0  0  0  0
  8  7  1  0  0  0  0
  8 27  1  0  0  0  0
  8 28  1  0  0  0  0
  9  7  1  0  0  0  0
  9 14  2  0  0  0  0
 10  8  1  0  0  0  0
 10 23  1  1  0  0  0
 11 10  1  0  0  0  0
 11 29  1  0  0  0  0
 11 30  1  0  0  0  0
 12 11  1  0  0  0  0
 12 31  1  0  0  0  0
 12 32  1  0  0  0  0
 13 12  1  0  0  0  0
 13  4  1  0  0  0  0
 13 33  1  0  0  0  0
 13 34  1  0  0  0  0
 15  7  1  0  0  0  0
 15 35  1  1  0  0  0
 16 15  1  0  0  0  0
 16 36  1  0  0  0  0
 16 37  1  0  0  0  0
 17 15  1  0  0  0  0
 17 21  1  0  0  0  0
 17 38  1  0  0  0  0
 18 16  1  0  0  0  0
 19 17  1  0  0  0  0
 19 39  1  0  0  0  0
 19 40  1  0  0  0  0
 20 18  1  0  0  0  0
 20 19  1  0  0  0  0
 20 41  1  0  0  0  0
 20 42  1  0  0  0  0
 21 22  1  0  0  0  0
 21 43  1  0  0  0  0
 21 44  1  0  0  0  0
 22 18  1  0  0  0  0
 22 45  1  0  0  0  0
 22 46  1  0  0  0  0
M  END
>  <DRUGBANK_ID>
DB00377

>  <SECONDARY_ACCESSION_NUMBERS>
APRD00351

>  <COMMON_NAME>
Palonosetron

>  <CAS_NUMBER>
135729-56-5

>  <UNII>
5D06587D6R

>  <SYNONYMS>
(3aS)-2-[(3S)-1-azabicyclo[2.2.2]octan-3-yl]-2,3,3a,4,5,6-hexahydro-1H-benzo[de]isoquinolin-1-one; 2-(1-Azabicyclo(2.2.2)oct-3-yl)-2,3,3a,4,5,6-hexahydro-1H-benz(de)isoquinolin-1-one; Palonosetron; Palonosétron; Palonosetrón; Palonosetronum

$$$$
