
 OpenBabel10282417133D

 91 93  0  0  1  0  0  0  0  0999 V2000
    1.0621    0.0901   -0.0369 C   0  0  0  0  0  0  0  0  0  0  0  0
    1.0227    2.5274   -0.4814 C   0  0  0  0  0  0  0  0  0  0  0  0
   -4.4337    3.9661   -1.3908 C   0  0  0  0  0  0  0  0  0  0  0  0
   -4.7705    4.4746    1.1190 C   0  0  0  0  0  0  0  0  0  0  0  0
   -4.5871   -1.5763    1.4415 C   0  0  0  0  0  0  0  0  0  0  0  0
   -4.5811   -1.1466   -1.1932 C   0  0  0  0  0  0  0  0  0  0  0  0
   -6.7510   -2.1101    4.9624 C   0  0  0  0  0  0  0  0  0  0  0  0
   -7.3048   -1.4266    3.8830 C   0  0  0  0  0  0  0  0  0  0  0  0
   -6.0733   -1.4247    5.9863 C   0  0  0  0  0  0  0  0  0  0  0  0
  -10.8509    8.6333    3.6243 C   0  0  0  0  0  0  0  0  0  0  0  0
  -10.9151    9.8723    2.7330 C   0  0  0  0  0  0  0  0  0  0  0  0
   -9.9349    5.2318    2.0180 C   0  0  0  0  0  0  0  0  0  0  0  0
   -8.6275    6.5626    3.6465 C   0  0  0  0  0  0  0  0  0  0  0  0
   -9.7760    4.0023    2.9025 C   0  0  0  0  0  0  0  0  0  0  0  0
   -8.4731    5.3115    4.5181 C   0  0  0  0  0  0  0  0  0  0  0  0
   -6.2780    0.5431    4.7327 C   0  0  0  0  0  0  0  0  0  0  0  0
   -7.9129    0.7424    2.7825 C   0  0  0  0  0  0  0  0  0  0  0  0
   -1.7982    2.6125    0.4635 C   0  0  0  0  0  0  0  0  0  0  0  0
   -1.8021    0.2347    0.4410 C   0  0  0  0  0  0  0  0  0  0  0  0
    0.4663    1.4265    0.4396 C   0  0  0  0  0  0  0  0  0  0  0  0
   -3.8321    3.9922    0.0232 C   0  0  0  0  0  0  0  0  0  0  0  0
   -3.8496   -1.1416    0.1682 C   0  0  0  0  0  0  0  0  0  0  0  0
   -7.1317   -0.0585    3.7993 C   0  0  0  0  0  0  0  0  0  0  0  0
   -5.8992   -0.0527    5.9118 C   0  0  0  0  0  0  0  0  0  0  0  0
   -1.0650    1.4205    0.4675 C   0  0  0  0  0  0  0  0  0  0  0  0
   -3.2136    2.6425    0.3424 C   0  0  0  0  0  0  0  0  0  0  0  0
   -3.2154    0.2182    0.3710 C   0  0  0  0  0  0  0  0  0  0  0  0
   -7.3681    2.1543    2.5793 C   0  0  1  0  0  0  0  0  0  0  0  0
  -10.9037    7.3517    2.8013 C   0  0  0  0  0  0  0  0  0  0  0  0
   -3.9434    1.4322    0.3790 C   0  0  0  0  0  0  0  0  0  0  0  0
   -5.4437    0.8485    7.0340 C   0  0  0  0  0  0  0  0  0  0  0  0
   -7.6628    3.0957    3.8160 C   0  0  0  0  0  0  0  0  0  0  0  0
  -12.1853    9.9766    2.0266 N   0  0  0  0  0  0  0  0  0  0  0  0
   -5.1627    0.3812    8.2090 N   0  0  0  0  0  0  0  0  0  0  0  0
   -5.3588    2.2133    6.8910 N   0  0  0  0  0  0  0  0  0  0  0  0
   -5.9486    2.0181    2.1332 N   0  0  0  0  0  0  0  0  0  0  0  0
   -9.8466    6.4667    2.8268 N   0  0  0  0  0  0  0  0  0  0  0  0
   -8.5363    4.1328    3.6424 N   0  0  0  0  0  0  0  0  0  0  0  0
  -11.8945    7.1182    2.1007 O   0  0  0  0  0  0  0  0  0  0  0  0
   -7.1420    3.0275    4.9310 O   0  0  0  0  0  0  0  0  0  0  0  0
   -6.4342    2.4059   -0.3054 O   0  0  0  0  0  0  0  0  0  0  0  0
   -6.3243    0.1104    0.4834 O   0  0  0  0  0  0  0  0  0  0  0  0
   -5.7743    1.4536    0.5343 S   0  0  0  0  0  0  0  0  0  0  0  0
   -7.8723    2.6324    1.7319 H   0  0  0  0  0  0  0  0  0  0  0  0
    0.7032   -0.1530   -1.0450 H   0  0  0  0  0  0  0  0  0  0  0  0
    0.7900   -0.7343    0.6300 H   0  0  0  0  0  0  0  0  0  0  0  0
    2.1556    0.1204   -0.0656 H   0  0  0  0  0  0  0  0  0  0  0  0
    0.6630    2.3920   -1.5082 H   0  0  0  0  0  0  0  0  0  0  0  0
    0.7300    3.5299   -0.1560 H   0  0  0  0  0  0  0  0  0  0  0  0
    2.1177    2.5141   -0.4993 H   0  0  0  0  0  0  0  0  0  0  0  0
   -5.0582    3.1069   -1.6142 H   0  0  0  0  0  0  0  0  0  0  0  0
   -5.0333    4.8581   -1.5780 H   0  0  0  0  0  0  0  0  0  0  0  0
   -3.6548    3.8626   -2.1506 H   0  0  0  0  0  0  0  0  0  0  0  0
   -4.3012    4.4079    2.1079 H   0  0  0  0  0  0  0  0  0  0  0  0
   -5.1573    5.4748    0.9403 H   0  0  0  0  0  0  0  0  0  0  0  0
   -5.6774    3.9041    1.1596 H   0  0  0  0  0  0  0  0  0  0  0  0
   -5.1639   -0.7949    1.9295 H   0  0  0  0  0  0  0  0  0  0  0  0
   -5.2513   -2.4203    1.2481 H   0  0  0  0  0  0  0  0  0  0  0  0
   -3.8801   -1.8211    2.2395 H   0  0  0  0  0  0  0  0  0  0  0  0
   -3.8580   -1.0255   -2.0104 H   0  0  0  0  0  0  0  0  0  0  0  0
   -5.1436   -2.0679   -1.3454 H   0  0  0  0  0  0  0  0  0  0  0  0
   -5.2665   -0.3155   -1.3699 H   0  0  0  0  0  0  0  0  0  0  0  0
   -6.8991   -3.1815    5.0364 H   0  0  0  0  0  0  0  0  0  0  0  0
   -7.8451   -1.9553    3.1011 H   0  0  0  0  0  0  0  0  0  0  0  0
   -5.6773   -1.9898    6.8173 H   0  0  0  0  0  0  0  0  0  0  0  0
  -11.6887    8.6164    4.3315 H   0  0  0  0  0  0  0  0  0  0  0  0
   -9.9559    8.7170    4.2355 H   0  0  0  0  0  0  0  0  0  0  0  0
  -10.7989   10.7666    3.3551 H   0  0  0  0  0  0  0  0  0  0  0  0
  -10.0882    9.8608    2.0139 H   0  0  0  0  0  0  0  0  0  0  0  0
  -10.8687    5.1552    1.4578 H   0  0  0  0  0  0  0  0  0  0  0  0
   -9.1045    5.2649    1.3021 H   0  0  0  0  0  0  0  0  0  0  0  0
   -7.7889    6.6176    2.9413 H   0  0  0  0  0  0  0  0  0  0  0  0
   -8.5849    7.4518    4.2689 H   0  0  0  0  0  0  0  0  0  0  0  0
  -10.5758    3.9398    3.6517 H   0  0  0  0  0  0  0  0  0  0  0  0
   -9.8037    3.0718    2.3340 H   0  0  0  0  0  0  0  0  0  0  0  0
   -9.2854    5.2368    5.2519 H   0  0  0  0  0  0  0  0  0  0  0  0
   -7.5255    5.3574    5.0679 H   0  0  0  0  0  0  0  0  0  0  0  0
   -5.8817    1.5319    4.5906 H   0  0  0  0  0  0  0  0  0  0  0  0
   -8.9713    0.7803    3.0500 H   0  0  0  0  0  0  0  0  0  0  0  0
   -7.9172    0.1913    1.8414 H   0  0  0  0  0  0  0  0  0  0  0  0
   -1.2620    3.5598    0.5119 H   0  0  0  0  0  0  0  0  0  0  0  0
   -1.2847   -0.7236    0.4407 H   0  0  0  0  0  0  0  0  0  0  0  0
    0.8231    1.6137    1.4616 H   0  0  0  0  0  0  0  0  0  0  0  0
   -3.0368    4.7481   -0.0176 H   0  0  0  0  0  0  0  0  0  0  0  0
   -3.0665   -1.9031    0.0426 H   0  0  0  0  0  0  0  0  0  0  0  0
  -12.1619   10.7380    1.3533 H   0  0  0  0  0  0  0  0  0  0  0  0
  -12.3285    9.1131    1.4867 H   0  0  0  0  0  0  0  0  0  0  0  0
   -5.2762   -0.6316    8.2294 H   0  0  0  0  0  0  0  0  0  0  0  0
   -5.9876    2.6795    6.2285 H   0  0  0  0  0  0  0  0  0  0  0  0
   -5.3250    2.7091    7.7765 H   0  0  0  0  0  0  0  0  0  0  0  0
   -5.2525    1.6456    2.7778 H   0  0  0  0  0  0  0  0  0  0  0  0
  1 45  1  0  0  0  0
  1 46  1  0  0  0  0
  1 47  1  0  0  0  0
  2 48  1  0  0  0  0
  2 49  1  0  0  0  0
  2 50  1  0  0  0  0
  3 51  1  0  0  0  0
  3 52  1  0  0  0  0
  3 53  1  0  0  0  0
  4 54  1  0  0  0  0
  4 55  1  0  0  0  0
  4 56  1  0  0  0  0
  5 57  1  0  0  0  0
  5 58  1  0  0  0  0
  5 59  1  0  0  0  0
  6 60  1  0  0  0  0
  6 61  1  0  0  0  0
  6 62  1  0  0  0  0
  7 63  1  0  0  0  0
  8  7  2  0  0  0  0
  8 64  1  0  0  0  0
  9  7  1  0  0  0  0
  9 65  1  0  0  0  0
 10 66  1  0  0  0  0
 10 67  1  0  0  0  0
 11 10  1  0  0  0  0
 11 68  1  0  0  0  0
 11 69  1  0  0  0  0
 12 70  1  0  0  0  0
 12 71  1  0  0  0  0
 13 72  1  0  0  0  0
 13 73  1  0  0  0  0
 14 12  1  0  0  0  0
 14 74  1  0  0  0  0
 14 75  1  0  0  0  0
 15 13  1  0  0  0  0
 15 76  1  0  0  0  0
 15 77  1  0  0  0  0
 16 78  1  0  0  0  0
 17 79  1  0  0  0  0
 17 80  1  0  0  0  0
 18 81  1  0  0  0  0
 19 82  1  0  0  0  0
 20  1  1  0  0  0  0
 20  2  1  0  0  0  0
 20 83  1  0  0  0  0
 21  3  1  0  0  0  0
 21  4  1  0  0  0  0
 21 84  1  0  0  0  0
 22  5  1  0  0  0  0
 22  6  1  0  0  0  0
 22 85  1  0  0  0  0
 23  8  1  0  0  0  0
 23 16  2  0  0  0  0
 23 17  1  0  0  0  0
 24  9  2  0  0  0  0
 24 16  1  0  0  0  0
 25 18  2  0  0  0  0
 25 19  1  0  0  0  0
 25 20  1  0  0  0  0
 26 18  1  0  0  0  0
 26 21  1  0  0  0  0
 27 19  2  0  0  0  0
 27 22  1  0  0  0  0
 28 17  1  0  0  0  0
 28 36  1  0  0  0  0
 28 44  1  6  0  0  0
 29 10  1  0  0  0  0
 30 26  2  0  0  0  0
 30 27  1  0  0  0  0
 31 24  1  0  0  0  0
 32 28  1  0  0  0  0
 33 11  1  0  0  0  0
 33 86  1  0  0  0  0
 33 87  1  0  0  0  0
 34 31  2  0  0  0  0
 34 88  1  0  0  0  0
 35 31  1  0  0  0  0
 35 89  1  0  0  0  0
 35 90  1  0  0  0  0
 36 91  1  0  0  0  0
 37 12  1  0  0  0  0
 37 13  1  0  0  0  0
 37 29  1  0  0  0  0
 38 14  1  0  0  0  0
 38 15  1  0  0  0  0
 38 32  1  0  0  0  0
 39 29  2  0  0  0  0
 40 32  2  0  0  0  0
 43 30  1  0  0  0  0
 43 36  1  0  0  0  0
 43 41  2  0  0  0  0
 43 42  2  0  0  0  0
M  END
>  <DRUGBANK_ID>
DB04172

>  <SECONDARY_ACCESSION_NUMBERS>
EXPT03181

>  <COMMON_NAME>
[2,4,6-Triisopropyl-Phenylsulfonyl-L-[3-Amidino-Phenylalanine]]-Piperazine-N'-Beta-Alanine

$$$$
