2368
 OpenBabel10282417103D

 28 28  0  0  0  0  0  0  0  0999 V2000
    0.9748   -0.1523    0.2900 N   0  0  0  0  0  0  0  0  0  0  0  0
    1.0157   -2.3189    1.0125 N   0  0  0  0  0  0  0  0  0  0  0  0
   -1.0447   -1.0851    0.7928 N   0  0  0  0  0  0  0  0  0  0  0  0
    0.3528    1.0015   -0.3950 C   0  0  0  0  0  0  0  0  0  0  0  0
   -0.4527    0.6594   -1.6482 C   0  0  0  0  0  0  0  0  0  0  0  0
   -0.5168   -0.6559   -2.1323 C   0  0  0  0  0  0  0  0  0  0  0  0
   -1.2521    1.6241   -2.2891 C   0  0  0  0  0  0  0  0  0  0  0  0
    0.2374   -1.2211    0.7559 C   0  0  0  0  0  0  0  0  0  0  0  0
   -1.4291   -1.0404   -3.1078 C   0  0  0  0  0  0  0  0  0  0  0  0
   -2.1581    1.2427   -3.2921 C   0  0  0  0  0  0  0  0  0  0  0  0
   -2.2505   -0.0902   -3.6931 C   0  0  0  0  0  0  0  0  0  0  0  0
    0.6338   -3.6021    1.5724 C   0  0  0  0  0  0  0  0  0  0  0  0
   -1.9290   -2.1850    1.0574 C   0  0  0  0  0  0  0  0  0  0  0  0
    1.9549   -0.2721    0.0843 H   0  0  0  0  0  0  0  0  0  0  0  0
    2.0165   -2.1758    1.0089 H   0  0  0  0  0  0  0  0  0  0  0  0
   -0.3050    1.5068    0.3243 H   0  0  0  0  0  0  0  0  0  0  0  0
    1.1328    1.7235   -0.6705 H   0  0  0  0  0  0  0  0  0  0  0  0
    0.0892   -1.4362   -1.6861 H   0  0  0  0  0  0  0  0  0  0  0  0
   -1.2122    2.6718   -1.9965 H   0  0  0  0  0  0  0  0  0  0  0  0
   -1.5100   -2.0920   -3.3639 H   0  0  0  0  0  0  0  0  0  0  0  0
   -2.8237    1.9769   -3.7398 H   0  0  0  0  0  0  0  0  0  0  0  0
   -2.9614   -0.3952   -4.4547 H   0  0  0  0  0  0  0  0  0  0  0  0
    1.0271   -4.4110    0.9500 H   0  0  0  0  0  0  0  0  0  0  0  0
    1.0119   -3.7126    2.5922 H   0  0  0  0  0  0  0  0  0  0  0  0
   -0.4286   -3.8098    1.6401 H   0  0  0  0  0  0  0  0  0  0  0  0
   -1.7459   -3.0251    0.3739 H   0  0  0  0  0  0  0  0  0  0  0  0
   -1.8530   -2.4795    2.1068 H   0  0  0  0  0  0  0  0  0  0  0  0
   -2.9653   -1.8914    0.8832 H   0  0  0  0  0  0  0  0  0  0  0  0
  1  4  1  0  0  0  0
  1  8  1  0  0  0  0
  1 14  1  0  0  0  0
  2  8  1  0  0  0  0
  2 12  1  0  0  0  0
  2 15  1  0  0  0  0
  3  8  2  0  0  0  0
  3 13  1  0  0  0  0
  4  5  1  0  0  0  0
  4 16  1  0  0  0  0
  4 17  1  0  0  0  0
  5  6  2  0  0  0  0
  5  7  1  0  0  0  0
  6  9  1  0  0  0  0
  6 18  1  0  0  0  0
  7 10  2  0  0  0  0
  7 19  1  0  0  0  0
  9 11  2  0  0  0  0
  9 20  1  0  0  0  0
 10 11  1  0  0  0  0
 10 21  1  0  0  0  0
 11 22  1  0  0  0  0
 12 23  1  0  0  0  0
 12 24  1  0  0  0  0
 12 25  1  0  0  0  0
 13 26  1  0  0  0  0
 13 27  1  0  0  0  0
 13 28  1  0  0  0  0
M  END
>  <DRUGBANK_ID>
DB00217

>  <SECONDARY_ACCESSION_NUMBERS>
APRD00825

>  <COMMON_NAME>
Bethanidine

>  <CAS_NUMBER>
55-73-2

>  <UNII>
W8S3YM7AUU

>  <SYNONYMS>
Betanidina; Betanidine; BÃ©tanidine; Betanidinum; Bethanidine; N,N'-dimethyl-N''-(phenylmethyl)-guanidine

$$$$
