
 OpenBabel10282417213D

 63 65  0  0  0  0  0  0  0  0999 V2000
    1.6176   -0.6367    0.5005 C   0  0  0  0  0  0  0  0  0  0  0  0
    0.8114   -0.4345    1.7610 C   0  0  0  0  0  0  0  0  0  0  0  0
    1.2116    0.9037    2.3844 C   0  0  0  0  0  0  0  0  0  0  0  0
    0.6123    2.1616    1.6886 C   0  0  0  0  0  0  0  0  0  0  0  0
   -0.2093    2.9406    2.3442 N   0  0  0  0  0  0  0  0  0  0  0  0
   -0.2522    2.6489    3.7298 O   0  0  0  0  0  0  0  0  0  0  0  0
   -1.1866    3.5071    4.3887 C   0  0  0  0  0  0  0  0  0  0  0  0
   -0.7020    4.9537    4.6186 C   0  0  3  0  0  0  0  0  0  0  0  0
   -0.4179    5.6848    3.3119 C   0  0  0  0  0  0  0  0  0  0  0  0
   -1.5520    5.7574    5.4881 O   0  0  0  0  0  0  0  0  0  0  0  0
   -2.8025    6.0858    5.0357 C   0  0  0  0  0  0  0  0  0  0  0  0
   -3.7299    5.1324    4.6241 C   0  0  0  0  0  0  0  0  0  0  0  0
   -4.9672    5.4927    4.1034 C   0  0  0  0  0  0  0  0  0  0  0  0
   -5.3479    6.8230    4.1226 C   0  0  0  0  0  0  0  0  0  0  0  0
   -6.9122    7.2507    3.5552 Cl  0  0  0  0  0  0  0  0  0  0  0  0
   -4.4847    7.7880    4.6418 C   0  0  0  0  0  0  0  0  0  0  0  0
   -3.2032    7.4221    5.0858 C   0  0  0  0  0  0  0  0  0  0  0  0
    1.0274    2.5514    0.2305 C   0  0  0  0  0  0  0  0  0  0  0  0
    0.7356    1.8490   -0.9168 C   0  0  0  0  0  0  0  0  0  0  0  0
   -0.0877    0.7336   -1.0088 O   0  0  0  0  0  0  0  0  0  0  0  0
    1.0044    2.2904   -2.3161 C   0  0  0  0  0  0  0  0  0  0  0  0
    0.5668    3.7294   -2.3936 C   0  0  3  0  0  0  0  0  0  0  0  0
    1.5014    4.5089   -1.4674 C   0  0  0  0  0  0  0  0  0  0  0  0
    1.4807    3.9813   -0.0418 C   0  0  0  0  0  0  0  0  0  0  0  0
    1.8010    4.7538    0.8850 O   0  0  0  0  0  0  0  0  0  0  0  0
   -0.9804    3.8915   -2.0867 C   0  0  3  0  0  0  0  0  0  0  0  0
   -1.3593    5.3477   -2.3434 C   0  0  0  0  0  0  0  0  0  0  0  0
   -2.8552    5.5804   -2.1741 C   0  0  0  0  0  0  0  0  0  0  0  0
   -3.3273    5.3731   -0.7395 C   0  0  0  0  0  0  0  0  0  0  0  0
   -3.2380    3.6362   -0.3427 S   0  0  0  0  0  0  0  0  0  0  0  0
   -1.4864    3.5056   -0.6712 C   0  0  0  0  0  0  0  0  0  0  0  0
    1.6503    0.3372    0.1007 H   0  0  0  0  0  0  0  0  0  0  0  0
    1.1303   -1.2718   -0.2428 H   0  0  0  0  0  0  0  0  0  0  0  0
    2.7009   -0.7282    0.5298 H   0  0  0  0  0  0  0  0  0  0  0  0
   -0.2689   -0.4050    1.5533 H   0  0  0  0  0  0  0  0  0  0  0  0
    0.9738   -1.2826    2.4308 H   0  0  0  0  0  0  0  0  0  0  0  0
    0.8761    0.8467    3.4262 H   0  0  0  0  0  0  0  0  0  0  0  0
    2.2966    1.0213    2.4215 H   0  0  0  0  0  0  0  0  0  0  0  0
   -2.0796    3.4768    3.7700 H   0  0  0  0  0  0  0  0  0  0  0  0
   -1.4413    3.0646    5.3627 H   0  0  0  0  0  0  0  0  0  0  0  0
    0.2580    4.8822    5.1508 H   0  0  0  0  0  0  0  0  0  0  0  0
   -1.3304    5.7861    2.7168 H   0  0  0  0  0  0  0  0  0  0  0  0
   -0.0099    6.6820    3.4874 H   0  0  0  0  0  0  0  0  0  0  0  0
    0.3182    5.1477    2.7207 H   0  0  0  0  0  0  0  0  0  0  0  0
   -3.5544    4.0742    4.7320 H   0  0  0  0  0  0  0  0  0  0  0  0
   -5.6238    4.7156    3.7238 H   0  0  0  0  0  0  0  0  0  0  0  0
   -4.8077    8.8232    4.7061 H   0  0  0  0  0  0  0  0  0  0  0  0
   -2.5336    8.1845    5.4774 H   0  0  0  0  0  0  0  0  0  0  0  0
   -0.5278    0.5370   -0.1691 H   0  0  0  0  0  0  0  0  0  0  0  0
    2.0496    2.1117   -2.6018 H   0  0  0  0  0  0  0  0  0  0  0  0
    0.3992    1.6997   -3.0180 H   0  0  0  0  0  0  0  0  0  0  0  0
    0.7425    4.0556   -3.4295 H   0  0  0  0  0  0  0  0  0  0  0  0
    1.2336    5.5690   -1.4792 H   0  0  0  0  0  0  0  0  0  0  0  0
    2.5386    4.4406   -1.8205 H   0  0  0  0  0  0  0  0  0  0  0  0
   -1.5062    3.2459   -2.8066 H   0  0  0  0  0  0  0  0  0  0  0  0
   -0.8271    5.9968   -1.6387 H   0  0  0  0  0  0  0  0  0  0  0  0
   -1.0400    5.6371   -3.3506 H   0  0  0  0  0  0  0  0  0  0  0  0
   -3.0683    6.6112   -2.4589 H   0  0  0  0  0  0  0  0  0  0  0  0
   -3.4006    4.9222   -2.8624 H   0  0  0  0  0  0  0  0  0  0  0  0
   -2.7048    5.9326   -0.0305 H   0  0  0  0  0  0  0  0  0  0  0  0
   -4.3648    5.6692   -0.6096 H   0  0  0  0  0  0  0  0  0  0  0  0
   -1.3595    2.4624   -0.4401 H   0  0  0  0  0  0  0  0  0  0  0  0
   -0.9859    4.1225    0.0783 H   0  0  0  0  0  0  0  0  0  0  0  0
  1  2  1  0  0  0  0
  1 32  1  0  0  0  0
  1 33  1  0  0  0  0
  1 34  1  0  0  0  0
  2  3  1  0  0  0  0
  2 35  1  0  0  0  0
  2 36  1  0  0  0  0
  3  4  1  0  0  0  0
  3 37  1  0  0  0  0
  3 38  1  0  0  0  0
  4  5  2  3  0  0  0
  4 18  1  0  0  0  0
  5  6  1  0  0  0  0
  6  7  1  0  0  0  0
  7  8  1  0  0  0  0
  7 39  1  0  0  0  0
  7 40  1  0  0  0  0
  8  9  1  0  0  0  0
  8 10  1  0  0  0  0
  8 41  1  0  0  0  0
  9 42  1  0  0  0  0
  9 43  1  0  0  0  0
  9 44  1  0  0  0  0
 10 11  1  0  0  0  0
 11 12  2  0  0  0  0
 11 17  1  0  0  0  0
 12 13  1  0  0  0  0
 12 45  1  0  0  0  0
 13 14  2  0  0  0  0
 13 46  1  0  0  0  0
 14 15  1  0  0  0  0
 14 16  1  0  0  0  0
 16 17  2  0  0  0  0
 16 47  1  0  0  0  0
 17 48  1  0  0  0  0
 18 19  2  0  0  0  0
 18 24  1  0  0  0  0
 19 20  1  0  0  0  0
 19 21  1  0  0  0  0
 20 49  1  0  0  0  0
 21 22  1  0  0  0  0
 21 50  1  0  0  0  0
 21 51  1  0  0  0  0
 22 23  1  0  0  0  0
 22 26  1  0  0  0  0
 22 52  1  0  0  0  0
 23 24  1  0  0  0  0
 23 53  1  0  0  0  0
 23 54  1  0  0  0  0
 24 25  2  0  0  0  0
 26 27  1  0  0  0  0
 26 31  1  0  0  0  0
 26 55  1  0  0  0  0
 27 28  1  0  0  0  0
 27 56  1  0  0  0  0
 27 57  1  0  0  0  0
 28 29  1  0  0  0  0
 28 58  1  0  0  0  0
 28 59  1  0  0  0  0
 29 30  1  0  0  0  0
 29 60  1  0  0  0  0
 29 61  1  0  0  0  0
 30 31  1  0  0  0  0
 31 62  1  0  0  0  0
 31 63  1  0  0  0  0
M  END
>  <DRUGBANK_ID>
DB14820

>  <COMMON_NAME>
Profoxydim

>  <CAS_NUMBER>
139001-49-3

>  <UNII>
T7QYT6EW74

>  <SYNONYMS>
TETRIS

$$$$
