C28
 OpenBabel10282417163D

 58 60  0  0  0  0  0  0  0  0999 V2000
    2.8934   -0.1201   -3.7649 C   0  0  0  0  0  0  0  0  0  0  0  0
    0.8730   -0.5052   -2.5651 C   0  0  0  0  0  0  0  0  0  0  0  0
    1.3701    0.1623   -1.4056 C   0  0  0  0  0  0  0  0  0  0  0  0
    2.6592    0.6786   -1.4918 C   0  0  0  0  0  0  0  0  0  0  0  0
    3.4014    0.5600   -2.6659 C   0  0  0  0  0  0  0  0  0  0  0  0
    1.6425   -0.6912   -3.7160 C   0  0  0  0  0  0  0  0  0  0  0  0
    0.6308    0.3497   -0.0585 C   0  0  2  0  0  0  0  0  0  0  0  0
    3.6167   -0.2116   -4.8858 F   0  0  0  0  0  0  0  0  0  0  0  0
   -0.1322    1.6041   -0.0578 N   0  0  0  0  0  0  0  0  0  0  0  0
    1.4305   -0.0974    1.2335 C   0  0  0  0  0  0  0  0  0  0  0  0
   -1.6403    1.4422   -0.1071 C   0  0  2  0  0  0  0  0  0  0  0  0
   -2.3409    0.0407   -0.0155 C   0  0  0  0  0  0  0  0  0  0  0  0
   -2.1318    2.1108   -1.3490 C   0  0  0  0  0  0  0  0  0  0  0  0
   -3.9110    2.0713   -1.4454 S   0  0  0  0  0  0  0  0  0  0  0  0
   -4.3531    2.9589   -0.0380 N   0  0  0  0  0  0  0  0  0  0  0  0
   -2.2701   -0.8102   -1.1328 N   0  0  0  0  0  0  0  0  0  0  0  0
   -2.9359   -0.2818    1.0135 O   0  0  0  0  0  0  0  0  0  0  0  0
   -2.1766   -2.2635   -0.9044 C   0  0  0  0  0  0  0  0  0  0  0  0
   -2.4623   -3.1824   -2.1151 C   0  0  0  0  0  0  0  0  0  0  0  0
   -3.2744   -3.2865   -0.8664 C   0  0  0  0  0  0  0  0  0  0  0  0
   -4.1949    2.8175   -2.6673 O   0  0  0  0  0  0  0  0  0  0  0  0
    0.6477   -0.0567    2.3401 F   0  0  0  0  0  0  0  0  0  0  0  0
    1.8334   -1.3929    1.1100 F   0  0  0  0  0  0  0  0  0  0  0  0
    2.5335    0.6344    1.4843 F   0  0  0  0  0  0  0  0  0  0  0  0
   -4.4838    0.7724   -1.3116 O   0  0  0  0  0  0  0  0  0  0  0  0
   -5.8415    3.1603    0.0418 C   0  0  0  0  0  0  0  0  0  0  0  0
   -6.2569    4.1113   -1.0895 C   0  0  0  0  0  0  0  0  0  0  0  0
   -5.5377    5.3639   -1.0230 O   0  0  0  0  0  0  0  0  0  0  0  0
   -4.1077    5.2057   -0.9770 C   0  0  0  0  0  0  0  0  0  0  0  0
   -3.7043    4.2890    0.1727 C   0  0  0  0  0  0  0  0  0  0  0  0
    0.1544   -2.3583   -0.6548 N   0  0  0  0  0  0  0  0  0  0  0  0
   -1.0623   -2.5451    0.0809 C   0  0  0  0  0  0  0  0  0  0  0  0
   -0.1582   -0.3439    0.0069 H   0  0  0  0  0  0  0  0  0  0  0  0
   -1.9737    1.9759    0.7927 H   0  0  0  0  0  0  0  0  0  0  0  0
   -0.0824   -1.0115   -2.6255 H   0  0  0  0  0  0  0  0  0  0  0  0
    3.1052    1.1775   -0.6368 H   0  0  0  0  0  0  0  0  0  0  0  0
    4.3871    1.0020   -2.7178 H   0  0  0  0  0  0  0  0  0  0  0  0
    1.2710   -1.2807   -4.5523 H   0  0  0  0  0  0  0  0  0  0  0  0
    0.2033    2.1770   -0.8351 H   0  0  0  0  0  0  0  0  0  0  0  0
   -1.7969    3.1546   -1.3992 H   0  0  0  0  0  0  0  0  0  0  0  0
   -1.7406    1.6316   -2.2500 H   0  0  0  0  0  0  0  0  0  0  0  0
   -1.6120   -0.4943   -1.8273 H   0  0  0  0  0  0  0  0  0  0  0  0
   -3.0325   -2.8675   -2.9876 H   0  0  0  0  0  0  0  0  0  0  0  0
   -1.7652   -3.9796   -2.3572 H   0  0  0  0  0  0  0  0  0  0  0  0
   -3.1000   -4.1784   -0.2663 H   0  0  0  0  0  0  0  0  0  0  0  0
   -4.3056   -2.9672   -0.8569 H   0  0  0  0  0  0  0  0  0  0  0  0
   -6.0914    3.6088    1.0131 H   0  0  0  0  0  0  0  0  0  0  0  0
   -6.3603    2.1966   -0.0015 H   0  0  0  0  0  0  0  0  0  0  0  0
   -6.1153    3.6585   -2.0717 H   0  0  0  0  0  0  0  0  0  0  0  0
   -7.3259    4.3227   -1.0329 H   0  0  0  0  0  0  0  0  0  0  0  0
   -3.6420    6.1851   -0.8562 H   0  0  0  0  0  0  0  0  0  0  0  0
   -3.7387    4.8354   -1.9347 H   0  0  0  0  0  0  0  0  0  0  0  0
   -4.0420    4.7073    1.1309 H   0  0  0  0  0  0  0  0  0  0  0  0
   -2.6208    4.1815    0.2737 H   0  0  0  0  0  0  0  0  0  0  0  0
    0.9627   -2.2024   -0.0638 H   0  0  0  0  0  0  0  0  0  0  0  0
    0.3556   -3.0026   -1.4025 H   0  0  0  0  0  0  0  0  0  0  0  0
   -1.1526   -1.7831    0.8612 H   0  0  0  0  0  0  0  0  0  0  0  0
   -1.0608   -3.4586    0.6625 H   0  0  0  0  0  0  0  0  0  0  0  0
  1  5  1  0  0  0  0
  1  6  2  0  0  0  0
  1  8  1  0  0  0  0
  2  3  2  0  0  0  0
  2  6  1  0  0  0  0
  2 35  1  0  0  0  0
  3  4  1  0  0  0  0
  4  5  2  0  0  0  0
  4 36  1  0  0  0  0
  5 37  1  0  0  0  0
  6 38  1  0  0  0  0
  7 10  1  0  0  0  0
  7 33  1  6  0  0  0
  7  9  1  0  0  0  0
  7  3  1  0  0  0  0
  9 39  1  0  0  0  0
 10 22  1  0  0  0  0
 10 23  1  0  0  0  0
 10 24  1  0  0  0  0
 11 13  1  0  0  0  0
 11 34  1  1  0  0  0
 11 12  1  0  0  0  0
 11  9  1  0  0  0  0
 12 16  1  0  0  0  0
 12 17  2  0  0  0  0
 13 14  1  0  0  0  0
 13 40  1  0  0  0  0
 13 41  1  0  0  0  0
 14 15  1  0  0  0  0
 14 21  2  0  0  0  0
 14 25  2  0  0  0  0
 15 26  1  0  0  0  0
 15 30  1  0  0  0  0
 16 18  1  0  0  0  0
 16 42  1  0  0  0  0
 18 19  1  0  0  0  0
 18 20  1  0  0  0  0
 18 32  1  0  0  0  0
 19 20  1  0  0  0  0
 19 43  1  0  0  0  0
 19 44  1  0  0  0  0
 20 45  1  0  0  0  0
 20 46  1  0  0  0  0
 26 27  1  0  0  0  0
 26 47  1  0  0  0  0
 26 48  1  0  0  0  0
 27 28  1  0  0  0  0
 27 49  1  0  0  0  0
 27 50  1  0  0  0  0
 28 29  1  0  0  0  0
 29 30  1  0  0  0  0
 29 51  1  0  0  0  0
 29 52  1  0  0  0  0
 30 53  1  0  0  0  0
 30 54  1  0  0  0  0
 31 32  1  0  0  0  0
 31 55  1  0  0  0  0
 31 56  1  0  0  0  0
 32 57  1  0  0  0  0
 32 58  1  0  0  0  0
M  END
>  <DRUGBANK_ID>
DB07520

>  <COMMON_NAME>
N-[1-(AMINOMETHYL)CYCLOPROPYL]-3-(MORPHOLIN-4-YLSULFONYL)-N~2~-[(1S)-2,2,2-TRIFLUORO-1-(4-FLUOROPHENYL)ETHYL]-L-ALANINAMIDE

$$$$
