
 OpenBabel10282417233D

 29 30  0  0  1  0  0  0  0  0999 V2000
    1.5189   -0.2181    0.0126 C   0  0  0  0  0  0  0  0  0  0  0  0
    0.5991   -1.4561   -0.0393 C   0  0  0  0  0  0  0  0  0  0  0  0
    1.1086   -2.4604   -0.7625 C   0  0  0  0  0  0  0  0  0  0  0  0
    0.1744   -3.5134   -1.2255 C   0  0  2  0  0  0  0  0  0  0  0  0
   -1.2147   -2.8450   -1.7091 C   0  0  0  0  0  0  0  0  0  0  0  0
   -1.7503   -2.5489   -0.4103 N   0  0  0  0  0  0  0  0  0  0  0  0
   -0.9624   -1.4822    0.3593 C   0  0  2  0  0  0  0  0  0  0  0  0
   -1.1768    0.0411    0.4242 C   0  0  0  0  0  0  0  0  0  0  0  0
   -0.9927    0.7589   -0.7366 N   0  0  0  0  0  0  0  0  0  0  0  0
   -1.0355    0.6327    1.5018 O   0  0  0  0  0  0  0  0  0  0  0  0
   -1.6331   -3.9458    0.0997 C   0  0  0  0  0  0  0  0  0  0  0  0
   -2.4294   -4.8546   -0.1576 O   0  0  0  0  0  0  0  0  0  0  0  0
   -0.2891   -4.2853   -0.0592 N   0  0  0  0  0  0  0  0  0  0  0  0
    0.4963   -4.7133    1.0446 O   0  0  0  0  0  0  0  0  0  0  0  0
   -0.2996   -4.9568    2.4959 S   0  0  0  0  0  0  0  0  0  0  0  0
   -0.6548   -3.4488    2.9453 O   0  0  0  0  0  0  0  0  0  0  0  0
   -1.5675   -5.6460    2.2916 O   0  0  0  0  0  0  0  0  0  0  0  0
    0.6285   -5.4351    3.4821 O   0  0  0  0  0  0  0  0  0  0  0  0
    1.2858    0.5053    0.7959 H   0  0  0  0  0  0  0  0  0  0  0  0
    1.4586    0.3017   -0.9596 H   0  0  0  0  0  0  0  0  0  0  0  0
    2.5819   -0.4564    0.1196 H   0  0  0  0  0  0  0  0  0  0  0  0
    2.1431   -2.4362   -1.0963 H   0  0  0  0  0  0  0  0  0  0  0  0
    0.6550   -4.1774   -1.9441 H   0  0  0  0  0  0  0  0  0  0  0  0
   -1.9186   -3.5651   -2.1817 H   0  0  0  0  0  0  0  0  0  0  0  0
   -1.2900   -1.9240   -2.2965 H   0  0  0  0  0  0  0  0  0  0  0  0
   -1.1606   -1.7772    1.3908 H   0  0  0  0  0  0  0  0  0  0  0  0
   -0.4021    1.5676   -0.5335 H   0  0  0  0  0  0  0  0  0  0  0  0
   -0.6431    0.2472   -1.5382 H   0  0  0  0  0  0  0  0  0  0  0  0
    0.1632   -3.0280    3.2797 H   0  0  0  0  0  0  0  0  0  0  0  0
  1 19  1  0  0  0  0
  1 20  1  0  0  0  0
  1 21  1  0  0  0  0
  1  2  1  0  0  0  0
  2  3  2  0  0  0  0
  3 22  1  0  0  0  0
  4  3  1  0  0  0  0
  4  5  1  0  0  0  0
  4 13  1  0  0  0  0
  4 23  1  6  0  0  0
  5 24  1  0  0  0  0
  5 25  1  0  0  0  0
  6  5  1  0  0  0  0
  6  7  1  0  0  0  0
  6 11  1  0  0  0  0
  7  2  1  0  0  0  0
  7 26  1  1  0  0  0
  7  8  1  0  0  0  0
  8  9  1  0  0  0  0
  8 10  2  0  0  0  0
  9 27  1  0  0  0  0
  9 28  1  0  0  0  0
 11 13  1  0  0  0  0
 11 12  2  0  0  0  0
 13 14  1  0  0  0  0
 14 15  1  0  0  0  0
 15 16  1  0  0  0  0
 15 17  2  0  0  0  0
 15 18  2  0  0  0  0
 16 29  1  0  0  0  0
M  END
>  <DRUGBANK_ID>
DB16704

>  <COMMON_NAME>
Durlobactam

>  <CAS_NUMBER>
1467829-71-5

>  <UNII>
PSA33KO9WA

>  <SYNONYMS>
(2S,5R)-2-CARBAMOYL-3-METHYL-7-OXO-1,6-DIAZABICYCLO(3.2.1)OCT-3-EN-6-YL SULFATE; Durlobactam; SULFURIC ACID, MONO((2S,5R)-2-(AMINOCARBONYL)-3-METHYL-7-OXO-1,6-DIAZABICYCLO(3.2.1)OCT-3-EN-6-YL) ESTER

$$$$
