
 OpenBabel10282417183D

 37 40  0  0  0  0  0  0  0  0999 V2000
   -1.2171   -0.7324   -0.0009 C   0  0  0  0  0  0  0  0  0  0  0  0
   -2.4279   -1.4522   -0.0066 C   0  0  0  0  0  0  0  0  0  0  0  0
   -3.6561   -0.7706   -0.0143 C   0  0  0  0  0  0  0  0  0  0  0  0
   -3.6732    0.6204   -0.0464 C   0  0  0  0  0  0  0  0  0  0  0  0
   -2.4752    1.3237   -0.0895 C   0  0  0  0  0  0  0  0  0  0  0  0
   -1.2347    0.6617   -0.0314 C   0  0  0  0  0  0  0  0  0  0  0  0
    0.0372    1.4301    0.0383 C   0  0  0  0  0  0  0  0  0  0  0  0
    1.1949    0.7155    0.1222 C   0  0  0  0  0  0  0  0  0  0  0  0
    1.1884   -0.7546    0.0624 C   0  0  0  0  0  0  0  0  0  0  0  0
   -0.0322   -1.4249    0.0397 O   0  0  0  0  0  0  0  0  0  0  0  0
    2.3465   -1.4495    0.0195 C   0  0  0  0  0  0  0  0  0  0  0  0
    2.4920    1.3945    0.1658 C   0  0  0  0  0  0  0  0  0  0  0  0
    3.6579    0.7465    0.0705 C   0  0  0  0  0  0  0  0  0  0  0  0
    3.6771   -0.7430    0.0139 C   0  0  0  0  0  0  0  0  0  0  0  0
    0.0580    2.9402   -0.0268 C   0  0  0  0  0  0  0  0  0  0  0  0
   -0.5089    3.6703    1.0648 C   0  0  0  0  0  0  0  0  0  0  0  0
   -0.5660    5.0697    1.0361 C   0  0  0  0  0  0  0  0  0  0  0  0
    0.0082    5.7574   -0.0402 C   0  0  0  0  0  0  0  0  0  0  0  0
    0.6028    5.0572   -1.1189 C   0  0  0  0  0  0  0  0  0  0  0  0
    0.6051    3.6428   -1.1585 C   0  0  0  0  0  0  0  0  0  0  0  0
    1.1782    2.8495   -2.3327 C   0  0  0  0  0  0  0  0  0  0  0  0
    1.8794    3.4993   -3.2733 O   0  0  0  0  0  0  0  0  0  0  0  0
    1.0654    1.6355   -2.4481 O   0  0  0  0  0  0  0  0  0  0  0  0
    4.7427   -1.3538   -0.0085 O   0  0  0  0  0  0  0  0  0  0  0  0
   -4.8314   -1.4728    0.0069 O   0  0  0  0  0  0  0  0  0  0  0  0
   -1.1578    2.8367    2.4648 Cl  0  0  0  0  0  0  0  0  0  0  0  0
   -1.3501    5.9503    2.3195 Cl  0  0  0  0  0  0  0  0  0  0  0  0
   -0.0053    7.5045   -0.0391 Cl  0  0  0  0  0  0  0  0  0  0  0  0
    1.3406    6.0183   -2.3740 Cl  0  0  0  0  0  0  0  0  0  0  0  0
   -5.4482    1.7231    0.0033 I   0  0  0  0  0  0  0  0  0  0  0  0
   -2.4068   -3.5624    0.0052 I   0  0  0  0  0  0  0  0  0  0  0  0
    2.4090   -3.5291   -0.0205 I   0  0  0  0  0  0  0  0  0  0  0  0
    5.4238    1.8032   -0.0044 I   0  0  0  0  0  0  0  0  0  0  0  0
   -2.5271    2.4068   -0.1247 H   0  0  0  0  0  0  0  0  0  0  0  0
    2.5262    2.4751    0.1957 H   0  0  0  0  0  0  0  0  0  0  0  0
    1.8981    4.4739   -3.2485 H   0  0  0  0  0  0  0  0  0  0  0  0
   -5.5679   -0.8352   -0.0039 H   0  0  0  0  0  0  0  0  0  0  0  0
  1  2  2  0  0  0  0
  1  6  1  0  0  0  0
  1 10  1  0  0  0  0
  2  3  1  0  0  0  0
  2 31  1  0  0  0  0
  3  4  2  0  0  0  0
  3 25  1  0  0  0  0
  4  5  1  0  0  0  0
  4 30  1  0  0  0  0
  5  6  2  0  0  0  0
  5 34  1  0  0  0  0
  6  7  1  0  0  0  0
  7  8  2  0  0  0  0
  7 15  1  0  0  0  0
  8 12  1  0  0  0  0
  9 10  1  0  0  0  0
  9  8  1  0  0  0  0
 11  9  2  0  0  0  0
 11 14  1  0  0  0  0
 11 32  1  0  0  0  0
 12 13  2  0  0  0  0
 12 35  1  0  0  0  0
 13 14  1  0  0  0  0
 13 33  1  0  0  0  0
 14 24  2  0  0  0  0
 15 16  2  0  0  0  0
 15 20  1  0  0  0  0
 16 17  1  0  0  0  0
 16 26  1  0  0  0  0
 17 18  2  0  0  0  0
 17 27  1  0  0  0  0
 18 19  1  0  0  0  0
 18 28  1  0  0  0  0
 19 20  2  0  0  0  0
 19 29  1  0  0  0  0
 20 21  1  0  0  0  0
 21 22  1  0  0  0  0
 21 23  2  0  0  0  0
 22 36  1  0  0  0  0
 25 37  1  0  0  0  0
M  END
>  <DRUGBANK_ID>
DB11182

>  <COMMON_NAME>
Rose bengal

$$$$
