M2F
 OpenBabel10282417173D

 37 38  0  0  0  0  0  0  0  0999 V2000
    1.1549   -0.9137    1.1386 O   0  5  0  0  0  0  0  0  0  0  0  0
    2.3456   -0.5241    0.9207 N   0  3  0  0  0  0  0  0  0  0  0  0
    2.6987    0.3659    0.3411 O   0  0  0  0  0  0  0  0  0  0  0  0
    3.4327   -0.7405    1.6738 C   0  0  0  0  0  0  0  0  0  0  0  0
    3.0820   -1.8127    2.3647 C   0  0  0  0  0  0  0  0  0  0  0  0
    3.7227   -1.7887    3.5059 C   0  0  0  0  0  0  0  0  0  0  0  0
    3.1749   -2.7726    4.3928 N   0  3  0  0  0  0  0  0  0  0  0  0
    3.8470   -3.0255    5.3803 O   0  5  0  0  0  0  0  0  0  0  0  0
    2.1033   -3.3301    4.0740 O   0  0  0  0  0  0  0  0  0  0  0  0
    4.8208   -0.8815    3.7257 C   0  0  0  0  0  0  0  0  0  0  0  0
    5.2548    0.1505    2.8131 C   0  0  0  0  0  0  0  0  0  0  0  0
    4.4514    0.3644    1.7411 C   0  0  0  0  0  0  0  0  0  0  0  0
    4.5348    1.6099    0.9965 O   0  0  0  0  0  0  0  0  0  0  0  0
    3.6066    2.2448   -0.2231 C   0  0  2  0  0  0  0  0  0  0  0  0
    2.1746    2.7248    0.0832 O   0  0  0  0  0  0  0  0  0  0  0  0
    3.7231    1.3923   -1.6584 C   0  0  1  0  0  0  0  0  0  0  0  0
    5.0600    1.1991   -1.9112 F   0  0  0  0  0  0  0  0  0  0  0  0
    3.0143   -0.0037   -1.6642 C   0  0  1  0  0  0  0  0  0  0  0  0
    4.0321   -0.8265   -0.8770 O   0  0  0  0  0  0  0  0  0  0  0  0
    1.2725    0.3959   -1.0547 C   0  0  2  0  0  0  0  0  0  0  0  0
    0.5136    0.8043   -2.1715 O   0  0  0  0  0  0  0  0  0  0  0  0
    1.1420    1.6810    0.4087 C   0  0  1  0  0  0  0  0  0  0  0  0
    1.5440    1.4713    2.1940 C   0  0  0  0  0  0  0  0  0  0  0  0
    1.7314    2.5352    3.1306 O   0  0  0  0  0  0  0  0  0  0  0  0
    4.1223    3.2067   -0.4143 H   0  0  0  0  0  0  0  0  0  0  0  0
    3.2947    1.9549   -2.4840 H   0  0  0  0  0  0  0  0  0  0  0  0
    0.0957    2.0079    0.5195 H   0  0  0  0  0  0  0  0  0  0  0  0
    2.9695   -0.7512   -2.4679 H   0  0  0  0  0  0  0  0  0  0  0  0
    0.8516   -0.6215   -0.8437 H   0  0  0  0  0  0  0  0  0  0  0  0
    2.1398   -2.3479    2.1567 H   0  0  0  0  0  0  0  0  0  0  0  0
    5.3378   -0.9765    4.6630 H   0  0  0  0  0  0  0  0  0  0  0  0
    6.1296    0.7659    2.9943 H   0  0  0  0  0  0  0  0  0  0  0  0
    4.5709   -0.1349   -0.4135 H   0  0  0  0  0  0  0  0  0  0  0  0
    1.0717    0.5663   -2.9272 H   0  0  0  0  0  0  0  0  0  0  0  0
    1.1886    0.5760    2.7483 H   0  0  0  0  0  0  0  0  0  0  0  0
    2.5929    1.3302    2.1548 H   0  0  0  0  0  0  0  0  0  0  0  0
    2.6199    2.9037    2.9234 H   0  0  0  0  0  0  0  0  0  0  0  0
  1  2  1  0  0  0  0
  2  3  2  0  0  0  0
  2  4  1  0  0  0  0
  4  5  1  0  0  0  0
  4 12  2  0  0  0  0
  5  6  2  0  0  0  0
  5 30  1  0  0  0  0
  6  7  1  0  0  0  0
  6 10  1  0  0  0  0
  7  8  1  0  0  0  0
  7  9  2  0  0  0  0
 10 11  2  0  0  0  0
 10 31  1  0  0  0  0
 11 12  1  0  0  0  0
 11 32  1  0  0  0  0
 12 13  1  0  0  0  0
 14 13  1  0  0  0  0
 14 15  1  0  0  0  0
 14 16  1  0  0  0  0
 14 25  1  6  0  0  0
 15 22  1  0  0  0  0
 16 18  1  0  0  0  0
 16 26  1  6  0  0  0
 16 17  1  0  0  0  0
 18 19  1  0  0  0  0
 18 20  1  0  0  0  0
 18 28  1  6  0  0  0
 19 33  1  0  0  0  0
 20 22  1  0  0  0  0
 20 29  1  1  0  0  0
 20 21  1  0  0  0  0
 21 34  1  0  0  0  0
 22 23  1  0  0  0  0
 22 27  1  6  0  0  0
 23 24  1  0  0  0  0
 23 35  1  0  0  0  0
 23 36  1  0  0  0  0
 24 37  1  0  0  0  0
M  CHG  4   1  -1   2   1   7   1   8  -1
M  END
>  <DRUGBANK_ID>
DB08158

>  <COMMON_NAME>
2,4-DINITROPHENYL 2-DEOXY-2-FLUORO-BETA-D-MANNOPYRANOSIDE

$$$$
