
 OpenBabel10282417133D

 32 33  0  0  0  0  0  0  0  0999 V2000
    4.9659    3.1772   -0.8326 O   0  0  0  0  0  0  0  0  0  0  0  0
    2.4472    2.6712   -0.5851 O   0  0  0  0  0  0  0  0  0  0  0  0
    2.2656   -0.9167   -2.5633 O   0  0  0  0  0  0  0  0  0  0  0  0
    4.2597    0.9817   -3.2888 N   0  0  0  0  0  0  0  0  0  0  0  0
    6.4985    1.0908   -1.6849 N   0  0  0  0  0  0  0  0  0  0  0  0
    5.4398   -0.5501   -0.2341 N   0  0  0  0  0  0  0  0  0  0  0  0
    3.4313   -1.6617   -0.7410 N   0  0  0  0  0  0  0  0  0  0  0  0
    4.6499   -2.2186    1.1142 N   0  0  0  0  0  0  0  0  0  0  0  0
    4.9018    2.3054   -3.1971 C   0  0  1  0  0  0  0  0  0  0  0  0
    4.2918    3.2714   -2.1041 C   0  0  1  0  0  0  0  0  0  0  0  0
    6.3865    1.9527   -2.9055 C   0  0  0  0  0  0  0  0  0  0  0  0
    2.7491    3.2279   -1.8744 C   0  0  1  0  0  0  0  0  0  0  0  0
    4.3963    0.0947   -2.2191 C   0  0  0  0  0  0  0  0  0  0  0  0
    5.4614    0.1889   -1.3820 C   0  0  0  0  0  0  0  0  0  0  0  0
    1.9416    2.4703   -2.9122 C   0  0  0  0  0  0  0  0  0  0  0  0
    3.2848   -0.8826   -1.8620 C   0  0  0  0  0  0  0  0  0  0  0  0
    4.4756   -1.4754    0.0018 C   0  0  0  0  0  0  0  0  0  0  0  0
    4.8043    2.8065   -4.1693 H   0  0  0  0  0  0  0  0  0  0  0  0
    4.7181    2.3065   -0.4730 H   0  0  0  0  0  0  0  0  0  0  0  0
    2.6689    1.7249   -0.6064 H   0  0  0  0  0  0  0  0  0  0  0  0
    3.4843    0.8112   -3.9252 H   0  0  0  0  0  0  0  0  0  0  0  0
    6.8494    1.6003   -0.8768 H   0  0  0  0  0  0  0  0  0  0  0  0
    6.2678   -0.5065    0.3367 H   0  0  0  0  0  0  0  0  0  0  0  0
    4.0108   -2.9974    1.2386 H   0  0  0  0  0  0  0  0  0  0  0  0
    5.5185   -2.2565    1.6237 H   0  0  0  0  0  0  0  0  0  0  0  0
    4.5393    4.2915   -2.4294 H   0  0  0  0  0  0  0  0  0  0  0  0
    6.7485    1.3422   -3.7435 H   0  0  0  0  0  0  0  0  0  0  0  0
    7.0185    2.8430   -2.8455 H   0  0  0  0  0  0  0  0  0  0  0  0
    2.3780    4.2592   -1.8530 H   0  0  0  0  0  0  0  0  0  0  0  0
    0.8653    2.5851   -2.7863 H   0  0  0  0  0  0  0  0  0  0  0  0
    2.2302    2.7354   -3.9330 H   0  0  0  0  0  0  0  0  0  0  0  0
    2.0626    1.4049   -2.7518 H   0  0  0  0  0  0  0  0  0  0  0  0
  1 19  1  0  0  0  0
  2 20  1  0  0  0  0
  3 16  2  0  0  0  0
  4  9  1  0  0  0  0
  4 13  1  0  0  0  0
  4 21  1  0  0  0  0
  5 11  1  0  0  0  0
  5 14  1  0  0  0  0
  5 22  1  0  0  0  0
  6 14  1  0  0  0  0
  6 17  1  0  0  0  0
  6 23  1  0  0  0  0
  7 16  1  0  0  0  0
  7 17  2  0  0  0  0
  8 17  1  0  0  0  0
  8 24  1  0  0  0  0
  8 25  1  0  0  0  0
  9 11  1  0  0  0  0
  9 18  1  6  0  0  0
  9 10  1  0  0  0  0
 10  1  1  0  0  0  0
 10 26  1  6  0  0  0
 11 27  1  0  0  0  0
 11 28  1  0  0  0  0
 12 15  1  0  0  0  0
 12 29  1  6  0  0  0
 12 10  1  0  0  0  0
 12  2  1  0  0  0  0
 13 14  2  0  0  0  0
 13 16  1  0  0  0  0
 15 30  1  0  0  0  0
 15 31  1  0  0  0  0
 15 32  1  0  0  0  0
M  END
>  <DRUGBANK_ID>
DB03918

>  <SECONDARY_ACCESSION_NUMBERS>
EXPT00702

>  <COMMON_NAME>
6S-5,6,7,8-Tetrahydrobiopterin

$$$$
