
 OpenBabel10282417183D

 74 73  0  0  0  0  0  0  0  0999 V2000
    0.8388   -0.4141    0.2977 C   0  0  3  0  0  0  0  0  0  0  0  0
    0.3601   -0.0006    1.7503 C   0  0  0  0  0  0  0  0  0  0  0  0
    0.0385    0.2621   -0.7275 C   0  0  0  0  0  0  0  0  0  0  0  0
    0.5004   -1.7650   -0.2385 C   0  0  0  0  0  0  0  0  0  0  0  0
   -0.3175    1.2267    1.9846 O   0  0  0  0  0  0  0  0  0  0  0  0
    0.6435   -0.7095    2.6251 O   0  0  0  0  0  0  0  0  0  0  0  0
    0.7660    0.2791   -2.4108 C   0  0  0  0  0  0  0  0  0  0  0  0
    1.3856   -2.1716   -1.4245 C   0  0  0  0  0  0  0  0  0  0  0  0
   -0.6779    2.4484    1.1869 C   0  0  0  0  0  0  0  0  0  0  0  0
   -0.0192   -0.5439   -3.3288 C   0  0  0  0  0  0  0  0  0  0  0  0
    0.5943    3.2802    0.6855 C   0  0  0  0  0  0  0  0  0  0  0  0
   -1.4539   -0.2523   -3.1034 C   0  0  0  0  0  0  0  0  0  0  0  0
    1.6115    2.5680   -0.1147 C   0  0  0  0  0  0  0  0  0  0  0  0
    0.8330    2.2947   -1.3758 C   0  0  0  0  0  0  0  0  0  0  0  0
    0.3278    3.0331   -2.5482 C   0  0  0  0  0  0  0  0  0  0  0  0
    1.6719    3.2739   -3.1530 C   0  0  0  0  0  0  0  0  0  0  0  0
    2.5512    2.0812   -3.8370 C   0  0  0  0  0  0  0  0  0  0  0  0
    1.7783    1.3592   -4.9708 C   0  0  0  0  0  0  0  0  0  0  0  0
    1.3262    2.3759   -5.9506 C   0  0  0  0  0  0  0  0  0  0  0  0
    2.5969    2.9942   -6.4462 C   0  0  0  0  0  0  0  0  0  0  0  0
    3.4650    1.8814   -7.0468 C   0  0  0  0  0  0  0  0  0  0  0  0
    2.6848    1.2065   -8.1752 C   0  0  0  0  0  0  0  0  0  0  0  0
    2.3024    2.2675   -9.2070 C   0  0  0  0  0  0  0  0  0  0  0  0
    3.5666    2.9266   -9.7631 C   0  0  0  0  0  0  0  0  0  0  0  0
    4.4668    1.8809  -10.4157 C   0  0  0  0  0  0  0  0  0  0  0  0
    3.7242    1.2023  -11.5525 C   0  0  0  0  0  0  0  0  0  0  0  0
    1.9298   -0.2429    0.2510 H   0  0  0  0  0  0  0  0  0  0  0  0
   -1.0433    0.4817   -0.6430 H   0  0  0  0  0  0  0  0  0  0  0  0
    0.1151    1.1389   -0.1452 H   0  0  0  0  0  0  0  0  0  0  0  0
    0.6582   -2.5020    0.4966 H   0  0  0  0  0  0  0  0  0  0  0  0
   -0.5821   -1.6861   -0.5261 H   0  0  0  0  0  0  0  0  0  0  0  0
    0.7083    1.1245   -3.0406 H   0  0  0  0  0  0  0  0  0  0  0  0
    1.9086    0.2886   -2.3846 H   0  0  0  0  0  0  0  0  0  0  0  0
    2.4214   -1.8724   -1.6593 H   0  0  0  0  0  0  0  0  0  0  0  0
    0.8726   -2.7952   -2.1602 H   0  0  0  0  0  0  0  0  0  0  0  0
    1.2611   -1.2904   -1.8981 H   0  0  0  0  0  0  0  0  0  0  0  0
   -1.4251    2.1383    0.4307 H   0  0  0  0  0  0  0  0  0  0  0  0
   -1.3392    3.1194    1.7579 H   0  0  0  0  0  0  0  0  0  0  0  0
    0.5093   -0.6752   -4.2727 H   0  0  0  0  0  0  0  0  0  0  0  0
   -0.0346   -1.5493   -3.0431 H   0  0  0  0  0  0  0  0  0  0  0  0
    0.2621    4.0462   -0.0145 H   0  0  0  0  0  0  0  0  0  0  0  0
    1.1580    3.6679    1.5214 H   0  0  0  0  0  0  0  0  0  0  0  0
   -1.8033    0.6729   -3.5444 H   0  0  0  0  0  0  0  0  0  0  0  0
   -1.9228   -1.1636   -3.4334 H   0  0  0  0  0  0  0  0  0  0  0  0
   -1.7268   -0.2301   -2.0484 H   0  0  0  0  0  0  0  0  0  0  0  0
    2.6269    2.8269   -0.4872 H   0  0  0  0  0  0  0  0  0  0  0  0
    1.9621    1.7163    0.5257 H   0  0  0  0  0  0  0  0  0  0  0  0
    1.6130    1.5044   -1.3381 H   0  0  0  0  0  0  0  0  0  0  0  0
   -0.2138    1.8517   -1.5598 H   0  0  0  0  0  0  0  0  0  0  0  0
   -0.3882    2.4887   -3.2602 H   0  0  0  0  0  0  0  0  0  0  0  0
   -0.4401    3.6586   -2.0524 H   0  0  0  0  0  0  0  0  0  0  0  0
    1.4472    4.0432   -3.8661 H   0  0  0  0  0  0  0  0  0  0  0  0
    2.2658    3.6784   -2.3369 H   0  0  0  0  0  0  0  0  0  0  0  0
    3.4937    2.5458   -4.1484 H   0  0  0  0  0  0  0  0  0  0  0  0
    3.0782    1.2977   -3.2679 H   0  0  0  0  0  0  0  0  0  0  0  0
    2.3106    0.4582   -5.3236 H   0  0  0  0  0  0  0  0  0  0  0  0
    0.7977    0.9688   -4.7911 H   0  0  0  0  0  0  0  0  0  0  0  0
    0.6972    1.8894   -6.7011 H   0  0  0  0  0  0  0  0  0  0  0  0
    0.6485    3.0796   -5.4638 H   0  0  0  0  0  0  0  0  0  0  0  0
    2.3391    3.7959   -7.1246 H   0  0  0  0  0  0  0  0  0  0  0  0
    3.1435    3.5048   -5.6543 H   0  0  0  0  0  0  0  0  0  0  0  0
    4.4112    2.3096   -7.3680 H   0  0  0  0  0  0  0  0  0  0  0  0
    3.7847    1.1199   -6.3251 H   0  0  0  0  0  0  0  0  0  0  0  0
    3.2793    0.3975   -8.6013 H   0  0  0  0  0  0  0  0  0  0  0  0
    1.7847    0.6929   -7.8205 H   0  0  0  0  0  0  0  0  0  0  0  0
    1.6960    1.8177   -9.9925 H   0  0  0  0  0  0  0  0  0  0  0  0
    1.6420    3.0307   -8.7844 H   0  0  0  0  0  0  0  0  0  0  0  0
    3.2922    3.7034  -10.4797 H   0  0  0  0  0  0  0  0  0  0  0  0
    4.1233    3.4469   -8.9742 H   0  0  0  0  0  0  0  0  0  0  0  0
    5.3806    2.3540  -10.7797 H   0  0  0  0  0  0  0  0  0  0  0  0
    4.7946    1.1275   -9.6896 H   0  0  0  0  0  0  0  0  0  0  0  0
    3.4238    1.9503  -12.2917 H   0  0  0  0  0  0  0  0  0  0  0  0
    4.3494    0.4460  -12.0237 H   0  0  0  0  0  0  0  0  0  0  0  0
    2.8210    0.6894  -11.2063 H   0  0  0  0  0  0  0  0  0  0  0  0
  1  2  1  0  0  0  0
  1  3  1  0  0  0  0
  1  4  1  0  0  0  0
  1 27  1  0  0  0  0
  2  5  1  0  0  0  0
  2  6  2  0  0  0  0
  3  7  1  0  0  0  0
  3 28  1  0  0  0  0
  3 29  1  0  0  0  0
  4  8  1  0  0  0  0
  4 30  1  0  0  0  0
  4 31  1  0  0  0  0
  5  9  1  0  0  0  0
  7 10  1  0  0  0  0
  7 32  1  0  0  0  0
  7 33  1  0  0  0  0
  8 34  1  0  0  0  0
  8 35  1  0  0  0  0
  8 36  1  0  0  0  0
  9 11  1  0  0  0  0
  9 37  1  0  0  0  0
  9 38  1  0  0  0  0
 10 12  1  0  0  0  0
 10 39  1  0  0  0  0
 10 40  1  0  0  0  0
 11 13  1  0  0  0  0
 11 41  1  0  0  0  0
 11 42  1  0  0  0  0
 12 43  1  0  0  0  0
 12 44  1  0  0  0  0
 12 45  1  0  0  0  0
 13 14  1  0  0  0  0
 13 46  1  0  0  0  0
 13 47  1  0  0  0  0
 14 15  1  0  0  0  0
 14 48  1  0  0  0  0
 14 49  1  0  0  0  0
 15 16  1  0  0  0  0
 15 50  1  0  0  0  0
 15 51  1  0  0  0  0
 16 17  1  0  0  0  0
 16 52  1  0  0  0  0
 16 53  1  0  0  0  0
 17 18  1  0  0  0  0
 17 54  1  0  0  0  0
 17 55  1  0  0  0  0
 18 19  1  0  0  0  0
 18 56  1  0  0  0  0
 18 57  1  0  0  0  0
 19 20  1  0  0  0  0
 19 58  1  0  0  0  0
 19 59  1  0  0  0  0
 20 21  1  0  0  0  0
 20 60  1  0  0  0  0
 20 61  1  0  0  0  0
 21 22  1  0  0  0  0
 21 62  1  0  0  0  0
 21 63  1  0  0  0  0
 22 23  1  0  0  0  0
 22 64  1  0  0  0  0
 22 65  1  0  0  0  0
 23 24  1  0  0  0  0
 23 66  1  0  0  0  0
 23 67  1  0  0  0  0
 24 25  1  0  0  0  0
 24 68  1  0  0  0  0
 24 69  1  0  0  0  0
 25 26  1  0  0  0  0
 25 70  1  0  0  0  0
 25 71  1  0  0  0  0
 26 72  1  0  0  0  0
 26 73  1  0  0  0  0
 26 74  1  0  0  0  0
M  END
>  <DRUGBANK_ID>
DB11349

>  <COMMON_NAME>
Cetyl ethylhexanoate

>  <CAS_NUMBER>
59130-69-7

>  <UNII>
134647WMX4

>  <SYNONYMS>
Cetyl 2-ethylhexanoate; Hexadecyl 2-ethylhexanoate; Perceline oil

$$$$
