
 OpenBabel10282417203D

 35 35  0  0  0  0  0  0  0  0999 V2000
    1.2677    1.4193   -0.6649 C   0  0  0  0  0  0  0  0  0  0  0  0
    1.4948   -2.6054    1.7693 C   0  0  0  0  0  0  0  0  0  0  0  0
   -3.8487    0.6533    1.1039 C   0  0  0  0  0  0  0  0  0  0  0  0
   -1.1976    0.7068    3.2179 C   0  0  0  0  0  0  0  0  0  0  0  0
    1.7733    0.0561   -0.0660 C   0  0  0  0  0  0  0  0  0  0  0  0
    1.4540   -2.3826    0.2480 C   0  0  0  0  0  0  0  0  0  0  0  0
   -2.5973    0.7648    0.2868 C   0  0  0  0  0  0  0  0  0  0  0  0
   -0.5272    0.7671    1.8844 C   0  0  0  0  0  0  0  0  0  0  0  0
   -0.1953    1.6512   -0.9288 C   0  0  0  0  0  0  0  0  0  0  0  0
   -0.0286   -3.2919    2.3525 Cl  0  0  0  0  0  0  0  0  0  0  0  0
   -4.0543    2.0521    2.1897 Cl  0  0  0  0  0  0  0  0  0  0  0  0
   -1.4879   -0.8939    3.8580 Cl  0  0  0  0  0  0  0  0  0  0  0  0
    0.9142   -1.0945   -0.2484 N   0  0  0  0  0  0  0  0  0  0  0  0
   -1.3510    0.0478    0.8516 N   0  0  0  0  0  0  0  0  0  0  0  0
   -1.5014   -1.9443   -0.8962 O   0  0  0  0  0  0  0  0  0  0  0  0
   -0.6960    0.4401   -1.4751 O   0  0  0  0  0  0  0  0  0  0  0  0
   -0.6943   -0.8173   -0.4132 P   0  0  3  0  0  0  0  0  0  0  0  0
    1.6523    2.2501   -0.0664 H   0  0  0  0  0  0  0  0  0  0  0  0
    1.6431    1.4634   -1.6808 H   0  0  0  0  0  0  0  0  0  0  0  0
    2.2507   -3.3521    2.0343 H   0  0  0  0  0  0  0  0  0  0  0  0
    1.7456   -1.6941    2.3217 H   0  0  0  0  0  0  0  0  0  0  0  0
   -4.7201    0.7036    0.4515 H   0  0  0  0  0  0  0  0  0  0  0  0
   -3.8133   -0.3133    1.6085 H   0  0  0  0  0  0  0  0  0  0  0  0
   -0.7804    1.3888    3.9606 H   0  0  0  0  0  0  0  0  0  0  0  0
   -2.1595    1.0726    2.9903 H   0  0  0  0  0  0  0  0  0  0  0  0
    2.7542   -0.1184   -0.5121 H   0  0  0  0  0  0  0  0  0  0  0  0
    1.9944    0.1369    0.9992 H   0  0  0  0  0  0  0  0  0  0  0  0
    0.9235   -3.2331   -0.2078 H   0  0  0  0  0  0  0  0  0  0  0  0
    2.4858   -2.4974   -0.1166 H   0  0  0  0  0  0  0  0  0  0  0  0
   -2.4916    1.8083   -0.0599 H   0  0  0  0  0  0  0  0  0  0  0  0
   -2.8618    0.2716   -0.6721 H   0  0  0  0  0  0  0  0  0  0  0  0
    0.4935    0.4010    2.0354 H   0  0  0  0  0  0  0  0  0  0  0  0
   -0.3494    1.8433    1.7094 H   0  0  0  0  0  0  0  0  0  0  0  0
   -0.6734    2.0094   -0.0226 H   0  0  0  0  0  0  0  0  0  0  0  0
   -0.4892    2.5046   -1.5433 H   0  0  0  0  0  0  0  0  0  0  0  0
  1 18  1  0  0  0  0
  1 19  1  0  0  0  0
  2 20  1  0  0  0  0
  2 21  1  0  0  0  0
  3 22  1  0  0  0  0
  3 23  1  0  0  0  0
  4 24  1  0  0  0  0
  4 25  1  0  0  0  0
  5  1  1  0  0  0  0
  5 26  1  0  0  0  0
  5 27  1  0  0  0  0
  6  2  1  0  0  0  0
  6 28  1  0  0  0  0
  6 29  1  0  0  0  0
  7  3  1  0  0  0  0
  7 30  1  0  0  0  0
  7 31  1  0  0  0  0
  8  4  1  0  0  0  0
  8 32  1  0  0  0  0
  8 33  1  0  0  0  0
  9  1  1  0  0  0  0
  9 34  1  0  0  0  0
  9 35  1  0  0  0  0
 10  2  1  0  0  0  0
 11  3  1  0  0  0  0
 12  4  1  0  0  0  0
 13  5  1  0  0  0  0
 13  6  1  0  0  0  0
 14  7  1  0  0  0  0
 14  8  1  0  0  0  0
 16  9  1  0  0  0  0
 17 13  1  0  0  0  0
 17 14  1  0  0  0  0
 17 15  2  0  0  0  0
 17 16  1  0  0  0  0
M  END
>  <DRUGBANK_ID>
DB12902

>  <COMMON_NAME>
Trofosfamide

>  <CAS_NUMBER>
22089-22-1

>  <UNII>
H64JRU6GJ0

>  <SYNONYMS>
Trofosfamide

$$$$
