
 OpenBabel10282417113D

134136  0  0  1  0  0  0  0  0999 V2000
   -3.6149    4.7806    7.4906 C   0  0  1  0  0  0  0  0  0  0  0  0
   -3.6958    4.6217    5.9471 C   0  0  2  0  0  0  0  0  0  0  0  0
   -4.5476    4.2773    9.8077 C   0  0  0  0  0  0  0  0  0  0  0  0
   -3.4072    3.3254    5.1929 C   0  0  1  0  0  0  0  0  0  0  0  0
   -5.4811    3.2017   10.4248 C   0  0  2  0  0  0  0  0  0  0  0  0
   -4.5989    2.4786    4.6952 C   0  0  2  0  0  0  0  0  0  0  0  0
   -5.1686    1.7677    9.9566 C   0  0  0  0  0  0  0  0  0  0  0  0
   -4.1209    1.1572    4.2000 C   0  0  0  0  0  0  0  0  0  0  0  0
   -6.2000    0.9367    9.3346 C   0  0  1  0  0  0  0  0  0  0  0  0
   -4.8091    0.1151    4.7478 O   0  0  0  0  0  0  0  0  0  0  0  0
   -5.7486   -0.2704    8.5008 C   0  0  1  0  0  0  0  0  0  0  0  0
   -4.6244   -0.0724    6.1826 C   0  0  2  0  0  0  0  0  0  0  0  0
   -3.2601    6.0976    7.9249 O   0  0  0  0  0  0  0  0  0  0  0  0
   -2.7962    5.6977    5.4256 C   0  0  0  0  0  0  0  0  0  0  0  0
   -3.9002    7.2108    7.2941 C   0  0  1  0  0  0  0  0  0  0  0  0
   -2.6332    3.6758    4.0638 O   0  0  0  0  0  0  0  0  0  0  0  0
   -5.3904    7.1806    7.0930 C   0  0  1  0  0  0  0  0  0  0  0  0
   -3.4373    8.4197    7.8076 O   0  0  0  0  0  0  0  0  0  0  0  0
   -6.9773    3.5759   10.1042 C   0  0  0  0  0  0  0  0  0  0  0  0
   -3.2482    4.3818    2.9758 C   0  0  1  0  0  0  0  0  0  0  0  0
   -5.6871    3.1011    3.8526 C   0  0  0  0  0  0  0  0  0  0  0  0
   -6.0431    8.3642    6.4812 C   0  0  2  0  0  0  0  0  0  0  0  0
   -5.8642    6.0830    6.2944 O   0  0  0  0  0  0  0  0  0  0  0  0
   -3.8242    9.4721    6.9108 C   0  0  1  0  0  0  0  0  0  0  0  0
   -3.9598    1.1736    9.8448 N   0  0  0  0  0  0  0  0  0  0  0  0
   -4.1363    5.6477    3.1383 C   0  0  0  0  0  0  0  0  0  0  0  0
   -2.2257    4.6774    2.0655 O   0  0  0  0  0  0  0  0  0  0  0  0
   -3.2613    1.0246    3.3310 O   0  0  0  0  0  0  0  0  0  0  0  0
   -5.3417    9.6181    6.9177 C   0  0  0  0  0  0  0  0  0  0  0  0
   -7.5204    8.3316    6.5757 N   0  0  0  0  0  0  0  0  0  0  0  0
   -3.1747   10.6501    7.5513 C   0  0  0  0  0  0  0  0  0  0  0  0
   -7.0489    0.5568   10.4887 C   0  0  0  0  0  0  0  0  0  0  0  0
   -2.7384    5.1955    0.8424 C   0  0  2  0  0  0  0  0  0  0  0  0
   -8.1502    7.1113    6.0194 C   0  0  0  0  0  0  0  0  0  0  0  0
   -7.8505    8.3986    7.9975 C   0  0  0  0  0  0  0  0  0  0  0  0
   -6.5295   -1.3603    8.9962 O   0  0  0  0  0  0  0  0  0  0  0  0
   -3.3881    6.5686    1.0496 C   0  0  2  0  0  0  0  0  0  0  0  0
   -3.7272    4.2328    0.2077 C   0  0  0  0  0  0  0  0  0  0  0  0
   -2.4107    7.4216    1.6813 O   0  0  0  0  0  0  0  0  0  0  0  0
   -4.6335    6.4260    1.9285 C   0  0  2  0  0  0  0  0  0  0  0  0
   -3.0697    2.0344   10.2100 O   0  0  0  0  0  0  0  0  0  0  0  0
   -1.8649    1.3473   10.2822 C   0  0  0  0  0  0  0  0  0  0  0  0
   -1.5867    0.2775   11.1574 O   0  0  0  0  0  0  0  0  0  0  0  0
   -1.9225    0.6792   12.4971 C   0  0  0  0  0  0  0  0  0  0  0  0
   -0.9901    1.7611   13.1371 C   0  0  0  0  0  0  0  0  0  0  0  0
   -0.9192    3.0558   12.4845 O   0  0  0  0  0  0  0  0  0  0  0  0
   -0.0491    3.1815   11.3331 C   0  0  0  0  0  0  0  0  0  0  0  0
   -3.8930   -1.3820    6.4033 C   0  0  0  0  0  0  0  0  0  0  0  0
   -2.6359   -1.4508    5.5937 C   0  0  0  0  0  0  0  0  0  0  0  0
   -5.0767    7.7625    2.2147 O   0  0  0  0  0  0  0  0  0  0  0  0
   -5.6309    7.8624    3.4859 C   0  0  0  0  0  0  0  0  0  0  0  0
   -5.8468    5.7410    1.3392 C   0  0  0  0  0  0  0  0  0  0  0  0
   -5.9730   -0.1686    6.9417 C   0  0  1  0  0  0  0  0  0  0  0  0
   -4.8117    4.4030    8.3450 C   0  0  1  0  0  0  0  0  0  0  0  0
   -6.6591   -1.3374    6.5008 O   0  0  0  0  0  0  0  0  0  0  0  0
   -5.9632    5.2047    8.3496 O   0  0  0  0  0  0  0  0  0  0  0  0
   -6.8685    0.9654    6.5295 C   0  0  0  0  0  0  0  0  0  0  0  0
   -5.2837    3.1900    7.7440 C   0  0  0  0  0  0  0  0  0  0  0  0
   -2.8364    4.0447    7.7443 H   0  0  0  0  0  0  0  0  0  0  0  0
   -4.7408    4.6792    5.6898 H   0  0  0  0  0  0  0  0  0  0  0  0
   -3.4824    4.1062    9.9393 H   0  0  0  0  0  0  0  0  0  0  0  0
   -4.7665    5.2512   10.2576 H   0  0  0  0  0  0  0  0  0  0  0  0
   -2.8192    2.7306    5.9021 H   0  0  0  0  0  0  0  0  0  0  0  0
   -5.3356    3.2091   11.5044 H   0  0  0  0  0  0  0  0  0  0  0  0
   -5.1780    2.1894    5.5196 H   0  0  0  0  0  0  0  0  0  0  0  0
   -6.7595    1.6091    8.7136 H   0  0  0  0  0  0  0  0  0  0  0  0
   -4.7078   -0.5235    8.7359 H   0  0  0  0  0  0  0  0  0  0  0  0
   -4.0146    0.7500    6.5797 H   0  0  0  0  0  0  0  0  0  0  0  0
   -2.0952    6.1378    6.1158 H   0  0  0  0  0  0  0  0  0  0  0  0
   -2.1307    5.5178    4.6068 H   0  0  0  0  0  0  0  0  0  0  0  0
   -3.5217    6.4250    5.1022 H   0  0  0  0  0  0  0  0  0  0  0  0
   -3.5320    7.3706    6.3248 H   0  0  0  0  0  0  0  0  0  0  0  0
   -5.7369    7.1510    8.1126 H   0  0  0  0  0  0  0  0  0  0  0  0
   -7.7332    2.8393   10.3152 H   0  0  0  0  0  0  0  0  0  0  0  0
   -7.2657    4.5018   10.5814 H   0  0  0  0  0  0  0  0  0  0  0  0
   -7.2319    3.6897    9.0534 H   0  0  0  0  0  0  0  0  0  0  0  0
   -3.8237    3.6211    2.5318 H   0  0  0  0  0  0  0  0  0  0  0  0
   -6.5461    2.4578    3.7184 H   0  0  0  0  0  0  0  0  0  0  0  0
   -6.0295    4.0506    4.2670 H   0  0  0  0  0  0  0  0  0  0  0  0
   -5.4075    3.2023    2.8251 H   0  0  0  0  0  0  0  0  0  0  0  0
   -5.8566    8.3002    5.4541 H   0  0  0  0  0  0  0  0  0  0  0  0
   -5.6325    6.2016    5.3674 H   0  0  0  0  0  0  0  0  0  0  0  0
   -3.4571    9.3313    5.8752 H   0  0  0  0  0  0  0  0  0  0  0  0
   -4.9445    5.5367    3.8417 H   0  0  0  0  0  0  0  0  0  0  0  0
   -3.4833    6.4051    3.5081 H   0  0  0  0  0  0  0  0  0  0  0  0
   -5.6192    9.7951    7.9493 H   0  0  0  0  0  0  0  0  0  0  0  0
   -5.6627   10.4324    6.2688 H   0  0  0  0  0  0  0  0  0  0  0  0
   -2.0895   10.5228    7.5131 H   0  0  0  0  0  0  0  0  0  0  0  0
   -3.4790   11.5670    7.0587 H   0  0  0  0  0  0  0  0  0  0  0  0
   -3.4627   10.6657    8.6087 H   0  0  0  0  0  0  0  0  0  0  0  0
   -7.3099    1.3790   11.1372 H   0  0  0  0  0  0  0  0  0  0  0  0
   -7.9552    0.1432   10.0586 H   0  0  0  0  0  0  0  0  0  0  0  0
   -6.4534   -0.0894   11.1245 H   0  0  0  0  0  0  0  0  0  0  0  0
   -1.8616    5.3187    0.2187 H   0  0  0  0  0  0  0  0  0  0  0  0
   -7.8956    6.1861    6.5477 H   0  0  0  0  0  0  0  0  0  0  0  0
   -9.2332    7.1467    6.1114 H   0  0  0  0  0  0  0  0  0  0  0  0
   -7.9201    6.9720    4.9573 H   0  0  0  0  0  0  0  0  0  0  0  0
   -7.4818    7.5376    8.5625 H   0  0  0  0  0  0  0  0  0  0  0  0
   -7.4204    9.2974    8.4381 H   0  0  0  0  0  0  0  0  0  0  0  0
   -8.9214    8.4434    8.1368 H   0  0  0  0  0  0  0  0  0  0  0  0
   -6.0913   -2.1683    8.7015 H   0  0  0  0  0  0  0  0  0  0  0  0
   -3.6476    7.0553    0.1126 H   0  0  0  0  0  0  0  0  0  0  0  0
   -4.1484    4.6942   -0.6858 H   0  0  0  0  0  0  0  0  0  0  0  0
   -3.3381    3.2414    0.0303 H   0  0  0  0  0  0  0  0  0  0  0  0
   -4.5465    3.9848    0.8815 H   0  0  0  0  0  0  0  0  0  0  0  0
   -2.6896    7.5647    2.5983 H   0  0  0  0  0  0  0  0  0  0  0  0
   -1.2867    1.3773    9.3521 H   0  0  0  0  0  0  0  0  0  0  0  0
   -1.6369    2.1260   10.9214 H   0  0  0  0  0  0  0  0  0  0  0  0
   -2.9602    1.0330   12.4834 H   0  0  0  0  0  0  0  0  0  0  0  0
   -1.8908   -0.2344   13.0941 H   0  0  0  0  0  0  0  0  0  0  0  0
   -1.3877    1.9287   14.1536 H   0  0  0  0  0  0  0  0  0  0  0  0
    0.0263    1.3853   13.2337 H   0  0  0  0  0  0  0  0  0  0  0  0
    0.8913    2.6654   11.4718 H   0  0  0  0  0  0  0  0  0  0  0  0
   -0.1851    2.5499   10.4564 H   0  0  0  0  0  0  0  0  0  0  0  0
   -0.3716    4.0521   10.7420 H   0  0  0  0  0  0  0  0  0  0  0  0
   -3.6320   -1.4713    7.4570 H   0  0  0  0  0  0  0  0  0  0  0  0
   -4.5348   -2.2327    6.1525 H   0  0  0  0  0  0  0  0  0  0  0  0
   -2.0080   -0.5857    5.8219 H   0  0  0  0  0  0  0  0  0  0  0  0
   -2.1081   -2.3681    5.8492 H   0  0  0  0  0  0  0  0  0  0  0  0
   -2.8725   -1.4592    4.5275 H   0  0  0  0  0  0  0  0  0  0  0  0
   -6.3098    7.0300    3.7083 H   0  0  0  0  0  0  0  0  0  0  0  0
   -4.7700    7.8385    4.1645 H   0  0  0  0  0  0  0  0  0  0  0  0
   -6.1713    8.7949    3.6395 H   0  0  0  0  0  0  0  0  0  0  0  0
   -6.7466    6.3435    1.2764 H   0  0  0  0  0  0  0  0  0  0  0  0
   -5.6471    5.4981    0.3085 H   0  0  0  0  0  0  0  0  0  0  0  0
   -6.0926    4.8408    1.9049 H   0  0  0  0  0  0  0  0  0  0  0  0
   -7.3679   -1.0198    5.9206 H   0  0  0  0  0  0  0  0  0  0  0  0
   -6.2044    5.3163    7.4100 H   0  0  0  0  0  0  0  0  0  0  0  0
   -6.2959    1.7598    6.8492 H   0  0  0  0  0  0  0  0  0  0  0  0
   -6.9524    1.2052    5.4744 H   0  0  0  0  0  0  0  0  0  0  0  0
   -7.8138    1.0620    7.0526 H   0  0  0  0  0  0  0  0  0  0  0  0
   -4.8471    3.0453    6.8237 H   0  0  0  0  0  0  0  0  0  0  0  0
   -4.7913    2.3199    8.0918 H   0  0  0  0  0  0  0  0  0  0  0  0
   -6.3580    3.2301    7.5743 H   0  0  0  0  0  0  0  0  0  0  0  0
  1 13  1  0  0  0  0
  1 54  1  0  0  0  0
  1 59  1  1  0  0  0
  2  1  1  0  0  0  0
  2  4  1  0  0  0  0
  2 60  1  6  0  0  0
  2 14  1  0  0  0  0
  3  5  1  0  0  0  0
  3 61  1  0  0  0  0
  3 62  1  0  0  0  0
  4  6  1  0  0  0  0
  4 63  1  1  0  0  0
  4 16  1  0  0  0  0
  5  7  1  0  0  0  0
  5 64  1  1  0  0  0
  5 19  1  0  0  0  0
  6 21  1  0  0  0  0
  6  8  1  0  0  0  0
  6 65  1  1  0  0  0
  7 25  2  3  0  0  0
  8 28  2  0  0  0  0
  8 10  1  0  0  0  0
  9  7  1  0  0  0  0
  9 32  1  0  0  0  0
  9 66  1  6  0  0  0
 11  9  1  0  0  0  0
 11 53  1  0  0  0  0
 11 67  1  1  0  0  0
 11 36  1  0  0  0  0
 12 10  1  0  0  0  0
 12 68  1  1  0  0  0
 12 48  1  0  0  0  0
 14 69  1  0  0  0  0
 14 70  1  0  0  0  0
 14 71  1  0  0  0  0
 15 17  1  0  0  0  0
 15 18  1  0  0  0  0
 15 72  1  6  0  0  0
 15 13  1  0  0  0  0
 17 22  1  0  0  0  0
 17 23  1  0  0  0  0
 17 73  1  1  0  0  0
 18 24  1  0  0  0  0
 19 74  1  0  0  0  0
 19 75  1  0  0  0  0
 19 76  1  0  0  0  0
 20 26  1  0  0  0  0
 20 27  1  0  0  0  0
 20 77  1  6  0  0  0
 20 16  1  0  0  0  0
 21 78  1  0  0  0  0
 21 79  1  0  0  0  0
 21 80  1  0  0  0  0
 22 29  1  0  0  0  0
 22 30  1  0  0  0  0
 22 81  1  6  0  0  0
 23 82  1  0  0  0  0
 24 31  1  0  0  0  0
 24 29  1  0  0  0  0
 24 83  1  6  0  0  0
 25 41  1  0  0  0  0
 26 40  1  0  0  0  0
 26 84  1  0  0  0  0
 26 85  1  0  0  0  0
 27 33  1  0  0  0  0
 29 86  1  0  0  0  0
 29 87  1  0  0  0  0
 30 34  1  0  0  0  0
 30 35  1  0  0  0  0
 31 88  1  0  0  0  0
 31 89  1  0  0  0  0
 31 90  1  0  0  0  0
 32 91  1  0  0  0  0
 32 92  1  0  0  0  0
 32 93  1  0  0  0  0
 33 38  1  0  0  0  0
 33 37  1  0  0  0  0
 33 94  1  6  0  0  0
 34 95  1  0  0  0  0
 34 96  1  0  0  0  0
 34 97  1  0  0  0  0
 35 98  1  0  0  0  0
 35 99  1  0  0  0  0
 35100  1  0  0  0  0
 36101  1  0  0  0  0
 37102  1  6  0  0  0
 37 39  1  0  0  0  0
 38103  1  0  0  0  0
 38104  1  0  0  0  0
 38105  1  0  0  0  0
 39106  1  0  0  0  0
 40 37  1  0  0  0  0
 40 52  1  0  0  0  0
 40 50  1  1  0  0  0
 41 42  1  0  0  0  0
 42 43  1  0  0  0  0
 42107  1  0  0  0  0
 42108  1  0  0  0  0
 43 44  1  0  0  0  0
 44 45  1  0  0  0  0
 44109  1  0  0  0  0
 44110  1  0  0  0  0
 45 46  1  0  0  0  0
 45111  1  0  0  0  0
 45112  1  0  0  0  0
 46 47  1  0  0  0  0
 47113  1  0  0  0  0
 47114  1  0  0  0  0
 47115  1  0  0  0  0
 48 49  1  0  0  0  0
 48116  1  0  0  0  0
 48117  1  0  0  0  0
 49118  1  0  0  0  0
 49119  1  0  0  0  0
 49120  1  0  0  0  0
 50 51  1  0  0  0  0
 51121  1  0  0  0  0
 51122  1  0  0  0  0
 51123  1  0  0  0  0
 52124  1  0  0  0  0
 52125  1  0  0  0  0
 52126  1  0  0  0  0
 53 12  1  0  0  0  0
 53 55  1  6  0  0  0
 53 57  1  0  0  0  0
 54  3  1  0  0  0  0
 54 56  1  6  0  0  0
 54 58  1  0  0  0  0
 55127  1  0  0  0  0
 56128  1  0  0  0  0
 57129  1  0  0  0  0
 57130  1  0  0  0  0
 57131  1  0  0  0  0
 58132  1  0  0  0  0
 58133  1  0  0  0  0
 58134  1  0  0  0  0
M  END
>  <DRUGBANK_ID>
DB00778

>  <SECONDARY_ACCESSION_NUMBERS>
APRD01305

>  <COMMON_NAME>
Roxithromycin

>  <CAS_NUMBER>
80214-83-1

>  <UNII>
21KOF230FA

>  <SYNONYMS>
(9E)-erythromycin 9-(O-((2-methoxyethoxy)methyl)oxime); Roxithromycin; Roxithromycine; Roxithromycinum; Roxitromicina

$$$$
