
 OpenBabel10282417233D

 66 68  0  0  0  0  0  0  0  0999 V2000
    0.6039    0.8502   -0.4241 C   0  0  0  0  0  0  0  0  0  0  0  0
   -0.0077   -0.3899   -0.6839 O   0  0  0  0  0  0  0  0  0  0  0  0
    0.2356   -1.1415   -1.7822 C   0  0  0  0  0  0  0  0  0  0  0  0
    1.4790   -1.1554   -2.3780 C   0  0  0  0  0  0  0  0  0  0  0  0
    1.6716   -2.1256   -3.3276 C   0  0  0  0  0  0  0  0  0  0  0  0
    0.6312   -2.9910   -3.7643 C   0  0  0  0  0  0  0  0  0  0  0  0
    0.8439   -3.8692   -4.8594 C   0  0  0  0  0  0  0  0  0  0  0  0
    0.1946   -4.8244   -5.5772 C   0  0  0  0  0  0  0  0  0  0  0  0
    0.7777   -5.5501   -6.7499 C   0  0  0  0  0  0  0  0  0  0  0  0
   -0.0602   -6.2206   -7.3939 O   0  0  0  0  0  0  0  0  0  0  0  0
    2.2504   -5.5002   -7.2324 C   0  0  3  0  0  0  0  0  0  0  0  0
    2.6901   -4.1276   -7.8786 C   0  0  0  0  0  0  0  0  0  0  0  0
    2.8780   -3.0504   -6.8318 C   0  0  0  0  0  0  0  0  0  0  0  0
    1.7334   -1.9417   -6.6795 C   0  0  0  0  0  0  0  0  0  0  0  0
    2.7841   -1.0526   -6.0051 C   0  0  0  0  0  0  0  0  0  0  0  0
    3.8732   -1.8898   -6.6947 C   0  0  0  0  0  0  0  0  0  0  0  0
    3.3418   -6.3865   -6.4398 C   0  0  0  0  0  0  0  0  0  0  0  0
    3.9282   -7.2788   -7.0442 O   0  0  0  0  0  0  0  0  0  0  0  0
    3.8180   -6.1799   -4.9761 C   0  0  0  0  0  0  0  0  0  0  0  0
    3.1248   -5.4964   -4.0670 C   0  0  0  0  0  0  0  0  0  0  0  0
    3.3090   -4.8405   -2.7253 C   0  0  0  0  0  0  0  0  0  0  0  0
    4.5408   -4.2088   -2.5894 C   0  0  0  0  0  0  0  0  0  0  0  0
    4.7968   -3.3194   -1.5439 C   0  0  0  0  0  0  0  0  0  0  0  0
    3.8125   -2.9681   -0.6266 C   0  0  0  0  0  0  0  0  0  0  0  0
    3.9909   -1.9294    0.2198 O   0  0  0  0  0  0  0  0  0  0  0  0
    5.2002   -1.7657    0.8950 C   0  0  0  0  0  0  0  0  0  0  0  0
    2.5300   -3.5001   -0.7108 C   0  0  0  0  0  0  0  0  0  0  0  0
    1.4783   -2.9994    0.0703 O   0  0  0  0  0  0  0  0  0  0  0  0
    1.6846   -1.7761    0.8511 C   0  0  0  0  0  0  0  0  0  0  0  0
    2.2927   -4.4753   -1.7520 C   0  0  0  0  0  0  0  0  0  0  0  0
   -0.5383   -3.0609   -3.0916 C   0  0  0  0  0  0  0  0  0  0  0  0
   -0.7416   -2.1334   -2.1079 C   0  0  0  0  0  0  0  0  0  0  0  0
   -1.9482   -2.3720   -1.5160 O   0  0  0  0  0  0  0  0  0  0  0  0
   -2.2678   -1.4967   -0.4678 C   0  0  0  0  0  0  0  0  0  0  0  0
    0.1444    1.1667    0.5179 H   0  0  0  0  0  0  0  0  0  0  0  0
    0.3711    1.5427   -1.2245 H   0  0  0  0  0  0  0  0  0  0  0  0
    1.6810    0.8237   -0.2349 H   0  0  0  0  0  0  0  0  0  0  0  0
    2.3475   -0.6291   -1.9837 H   0  0  0  0  0  0  0  0  0  0  0  0
    2.7109   -2.3237   -3.6036 H   0  0  0  0  0  0  0  0  0  0  0  0
    1.8284   -3.6340   -5.1127 H   0  0  0  0  0  0  0  0  0  0  0  0
   -0.8085   -5.0914   -5.3105 H   0  0  0  0  0  0  0  0  0  0  0  0
    2.1702   -6.1092   -8.1637 H   0  0  0  0  0  0  0  0  0  0  0  0
    3.6355   -4.2602   -8.4157 H   0  0  0  0  0  0  0  0  0  0  0  0
    1.9459   -3.7943   -8.6186 H   0  0  0  0  0  0  0  0  0  0  0  0
    3.2620   -3.6705   -6.0164 H   0  0  0  0  0  0  0  0  0  0  0  0
    1.3227   -1.5727   -7.6212 H   0  0  0  0  0  0  0  0  0  0  0  0
    0.8130   -2.0684   -6.1043 H   0  0  0  0  0  0  0  0  0  0  0  0
    2.6674    0.0132   -6.1770 H   0  0  0  0  0  0  0  0  0  0  0  0
    2.9242   -1.1066   -4.9324 H   0  0  0  0  0  0  0  0  0  0  0  0
    4.6896   -2.1606   -6.0083 H   0  0  0  0  0  0  0  0  0  0  0  0
    4.2474   -1.4820   -7.6209 H   0  0  0  0  0  0  0  0  0  0  0  0
    4.7652   -6.6357   -4.7047 H   0  0  0  0  0  0  0  0  0  0  0  0
    2.2319   -5.2682   -4.5453 H   0  0  0  0  0  0  0  0  0  0  0  0
    5.2917   -4.3073   -3.3679 H   0  0  0  0  0  0  0  0  0  0  0  0
    5.7509   -2.8107   -1.5186 H   0  0  0  0  0  0  0  0  0  0  0  0
    5.6367   -2.7266    1.1636 H   0  0  0  0  0  0  0  0  0  0  0  0
    5.8394   -1.1494    0.2666 H   0  0  0  0  0  0  0  0  0  0  0  0
    4.9622   -1.2123    1.8095 H   0  0  0  0  0  0  0  0  0  0  0  0
    2.2382   -1.9574    1.7720 H   0  0  0  0  0  0  0  0  0  0  0  0
    2.1904   -0.9824    0.2821 H   0  0  0  0  0  0  0  0  0  0  0  0
    0.7443   -1.3179    1.1819 H   0  0  0  0  0  0  0  0  0  0  0  0
    1.2537   -4.7818   -1.9079 H   0  0  0  0  0  0  0  0  0  0  0  0
   -1.2169   -3.8835   -3.2816 H   0  0  0  0  0  0  0  0  0  0  0  0
   -1.7221   -1.8017    0.4316 H   0  0  0  0  0  0  0  0  0  0  0  0
   -2.0921   -0.4590   -0.7562 H   0  0  0  0  0  0  0  0  0  0  0  0
   -3.3361   -1.5577   -0.2965 H   0  0  0  0  0  0  0  0  0  0  0  0
  1  2  1  0  0  0  0
  1 35  1  0  0  0  0
  1 36  1  0  0  0  0
  1 37  1  0  0  0  0
  2  3  1  0  0  0  0
  3  4  2  0  0  0  0
  3 32  1  0  0  0  0
  4  5  1  0  0  0  0
  4 38  1  0  0  0  0
  5  6  2  0  0  0  0
  5 39  1  0  0  0  0
  6  7  1  0  0  0  0
  6 31  1  0  0  0  0
  7  8  2  0  0  0  0
  7 40  1  0  0  0  0
  8  9  1  0  0  0  0
  8 41  1  0  0  0  0
  9 10  2  0  0  0  0
  9 11  1  0  0  0  0
 11 12  1  0  0  0  0
 11 17  1  0  0  0  0
 11 42  1  0  0  0  0
 12 13  1  0  0  0  0
 12 43  1  0  0  0  0
 12 44  1  0  0  0  0
 13 14  1  0  0  0  0
 13 16  1  0  0  0  0
 13 45  1  0  0  0  0
 14 15  1  0  0  0  0
 14 46  1  0  0  0  0
 14 47  1  0  0  0  0
 15 16  1  0  0  0  0
 15 48  1  0  0  0  0
 15 49  1  0  0  0  0
 16 50  1  0  0  0  0
 16 51  1  0  0  0  0
 17 18  2  0  0  0  0
 17 19  1  0  0  0  0
 19 20  2  0  0  0  0
 19 52  1  0  0  0  0
 20 21  1  0  0  0  0
 20 53  1  0  0  0  0
 21 22  2  0  0  0  0
 21 30  1  0  0  0  0
 22 23  1  0  0  0  0
 22 54  1  0  0  0  0
 23 24  2  0  0  0  0
 23 55  1  0  0  0  0
 24 25  1  0  0  0  0
 24 27  1  0  0  0  0
 25 26  1  0  0  0  0
 26 56  1  0  0  0  0
 26 57  1  0  0  0  0
 26 58  1  0  0  0  0
 27 28  1  0  0  0  0
 27 30  2  0  0  0  0
 28 29  1  0  0  0  0
 29 59  1  0  0  0  0
 29 60  1  0  0  0  0
 29 61  1  0  0  0  0
 30 62  1  0  0  0  0
 31 32  2  0  0  0  0
 31 63  1  0  0  0  0
 32 33  1  0  0  0  0
 33 34  1  0  0  0  0
 34 64  1  0  0  0  0
 34 65  1  0  0  0  0
 34 66  1  0  0  0  0
M  END
>  <DRUGBANK_ID>
DB16931

>  <COMMON_NAME>
ASC-JM-17

>  <CAS_NUMBER>
1039760-91-2

>  <UNII>
5VLL140BN9

>  <SYNONYMS>
(1e,6e)-1,7-bis(3,4-dimethoxyphenyl)-4-cyclobutylmethyl-1,6-heptadiene-3,5-dione; (1e,6e)-4-(cyclobutylmethyl)-1,7-bis(3,4-dimethoxyphenyl)-1,6-heptadiene-3,5-dione; 1,6-heptadiene-3,5-dione, 4-(cyclobutylmethyl)-1,7-bis(3,4-dimethoxyphenyl)-, (1e,6e)-

$$$$
