LID
 OpenBabel10282417173D

 43 46  0  0  0  0  0  0  0  0999 V2000
   -2.0064   -0.7298    0.0155 C   0  0  0  0  0  0  0  0  0  0  0  0
    2.3655    0.0280   -0.0605 C   0  0  0  0  0  0  0  0  0  0  0  0
    1.9010   -2.4915    0.0857 C   0  0  0  0  0  0  0  0  0  0  0  0
    3.7294    0.0524   -0.1177 N   0  0  0  0  0  0  0  0  0  0  0  0
    4.6491   -1.0253   -0.1338 C   0  0  0  0  0  0  0  0  0  0  0  0
   -3.3840   -2.8164    0.0330 C   0  0  0  0  0  0  0  0  0  0  0  0
   -4.0884   -4.8910   -1.0523 C   0  0  0  0  0  0  0  0  0  0  0  0
   -2.8050   -3.6029    1.0385 C   0  0  0  0  0  0  0  0  0  0  0  0
    4.6151   -1.9511   -1.1955 C   0  0  0  0  0  0  0  0  0  0  0  0
    5.2911   -3.1741   -1.1112 C   0  0  0  0  0  0  0  0  0  0  0  0
    6.2075   -2.5159    1.0196 C   0  0  0  0  0  0  0  0  0  0  0  0
   -4.5994   -2.8016   -2.0082 F   0  0  0  0  0  0  0  0  0  0  0  0
   -4.0362   -3.4933   -1.0048 C   0  0  0  0  0  0  0  0  0  0  0  0
   -3.4950   -5.6456   -0.0406 C   0  0  0  0  0  0  0  0  0  0  0  0
   -2.8613   -4.9961    1.0147 C   0  0  0  0  0  0  0  0  0  0  0  0
   -2.2089   -3.0144    2.0875 F   0  0  0  0  0  0  0  0  0  0  0  0
   -3.2182   -1.4224    0.0203 N   0  0  0  0  0  0  0  0  0  0  0  0
   -2.0765    0.6212    0.0062 N   0  0  0  0  0  0  0  0  0  0  0  0
   -0.8569   -1.4330   -0.0172 N   0  0  0  0  0  0  0  0  0  0  0  0
    0.2437   -0.6736   -0.0157 C   0  0  0  0  0  0  0  0  0  0  0  0
    1.5515   -1.0954    0.0085 N   0  0  0  0  0  0  0  0  0  0  0  0
    1.4727   -3.2198    1.3364 C   0  0  0  0  0  0  0  0  0  0  0  0
    0.3064    0.7040   -0.0118 C   0  0  0  0  0  0  0  0  0  0  0  0
   -0.9232    1.3527   -0.0007 C   0  0  0  0  0  0  0  0  0  0  0  0
    1.6165    1.1239   -0.0245 N   0  0  0  0  0  0  0  0  0  0  0  0
    6.0863   -3.4565   -0.0039 C   0  0  0  0  0  0  0  0  0  0  0  0
    5.4913   -1.3112    0.9604 C   0  0  0  0  0  0  0  0  0  0  0  0
    5.6017   -0.2395    2.3118 Cl  0  0  0  0  0  0  0  0  0  0  0  0
    1.5828   -2.9785   -0.8420 H   0  0  0  0  0  0  0  0  0  0  0  0
    2.9635   -2.5878    0.1526 H   0  0  0  0  0  0  0  0  0  0  0  0
    4.1542    0.9306    0.1736 H   0  0  0  0  0  0  0  0  0  0  0  0
   -4.5786   -5.3831   -1.8878 H   0  0  0  0  0  0  0  0  0  0  0  0
    3.9424   -1.7760   -2.0334 H   0  0  0  0  0  0  0  0  0  0  0  0
    5.1464   -3.9259   -1.8840 H   0  0  0  0  0  0  0  0  0  0  0  0
    6.8310   -2.7469    1.8809 H   0  0  0  0  0  0  0  0  0  0  0  0
   -3.5241   -6.7318   -0.0733 H   0  0  0  0  0  0  0  0  0  0  0  0
   -2.4014   -5.5565    1.8225 H   0  0  0  0  0  0  0  0  0  0  0  0
   -4.0120   -0.8384   -0.1923 H   0  0  0  0  0  0  0  0  0  0  0  0
    0.3913   -3.3094    1.4133 H   0  0  0  0  0  0  0  0  0  0  0  0
    1.9113   -4.2241    1.3242 H   0  0  0  0  0  0  0  0  0  0  0  0
    1.8579   -2.6991    2.2195 H   0  0  0  0  0  0  0  0  0  0  0  0
   -1.0241    2.4309    0.0017 H   0  0  0  0  0  0  0  0  0  0  0  0
    6.5984   -4.4137    0.0693 H   0  0  0  0  0  0  0  0  0  0  0  0
  1 17  1  0  0  0  0
  1 18  1  0  0  0  0
  1 19  2  0  0  0  0
  2  4  1  0  0  0  0
  2 21  1  0  0  0  0
  2 25  2  0  0  0  0
  3 21  1  0  0  0  0
  3 22  1  0  0  0  0
  3 29  1  0  0  0  0
  3 30  1  0  0  0  0
  4  5  1  0  0  0  0
  4 31  1  0  0  0  0
  5  9  2  0  0  0  0
  5 27  1  0  0  0  0
  6  8  2  0  0  0  0
  6 13  1  0  0  0  0
  6 17  1  0  0  0  0
  7 13  2  0  0  0  0
  7 14  1  0  0  0  0
  7 32  1  0  0  0  0
  8 15  1  0  0  0  0
  8 16  1  0  0  0  0
  9 10  1  0  0  0  0
  9 33  1  0  0  0  0
 10 26  2  0  0  0  0
 10 34  1  0  0  0  0
 11 26  1  0  0  0  0
 11 27  2  0  0  0  0
 11 35  1  0  0  0  0
 12 13  1  0  0  0  0
 14 15  2  0  0  0  0
 14 36  1  0  0  0  0
 15 37  1  0  0  0  0
 17 38  1  0  0  0  0
 18 24  2  0  0  0  0
 19 20  1  0  0  0  0
 20 21  1  0  0  0  0
 20 23  2  0  0  0  0
 22 39  1  0  0  0  0
 22 40  1  0  0  0  0
 22 41  1  0  0  0  0
 23 24  1  0  0  0  0
 23 25  1  0  0  0  0
 24 42  1  0  0  0  0
 26 43  1  0  0  0  0
 27 28  1  0  0  0  0
M  END
>  <DRUGBANK_ID>
DB08096

>  <COMMON_NAME>
8-(2-CHLOROPHENYLAMINO)-2-(2,6-DIFLUOROPHENYLAMINO)-9-ETHYL-9H-PURINE-1,7-DIIUM

$$$$
