
 OpenBabel10282417223D

  4  3  0  0  0  0  0  0  0  0999 V2000
    0.9111    0.0317   -0.0331 Zr  0  0  0  0  0  0  0  0  0  0  0  0
   -1.4989    0.0317   -0.0331 O   0  0  0  0  0  0  0  0  0  0  0  0
    3.6811    0.0317   -0.0331 Cl  0  0  0  0  0  0  0  0  0  0  0  0
   -1.8322    0.2996   -0.9371 H   0  0  0  0  0  0  0  0  0  0  0  0
  1  2  1  0  0  0  0
  1  3  1  0  0  0  0
  2  4  1  0  0  0  0
M  END
>  <DRUGBANK_ID>
DB15479

>  <COMMON_NAME>
Zirconium chloride hydroxide

>  <CAS_NUMBER>
10119-31-0

>  <UNII>
R7EF6G80G1

>  <SYNONYMS>
Zirconium chlorohydrate; Zirconium hydroxychloride; Zirconyl hydroxychloride

$$$$
