1526
 OpenBabel10282417113D

 51 54  0  0  1  0  0  0  0  0999 V2000
    3.5838   -0.0172   -6.9016 O   0  0  0  0  0  0  0  0  0  0  0  0
    6.8565    2.5702   -2.7598 O   0  0  0  0  0  0  0  0  0  0  0  0
    1.1733    0.0526   -6.1011 C   0  0  1  0  0  0  0  0  0  0  0  0
    1.6040    0.5052   -4.7539 C   0  0  1  0  0  0  0  0  0  0  0  0
    0.2316    0.1635   -7.0157 C   0  0  2  0  0  0  0  0  0  0  0  0
    1.2541    2.0144   -4.6945 C   0  0  1  0  0  0  0  0  0  0  0  0
    2.2117    2.8109   -3.7090 C   0  0  2  0  0  0  0  0  0  0  0  0
   -0.6830    1.4061   -5.9889 C   0  0  0  0  0  0  0  0  0  0  0  0
   -0.2508    1.8038   -4.5521 C   0  0  0  0  0  0  0  0  0  0  0  0
    2.1308   -0.4743   -7.3564 C   0  0  2  0  0  0  0  0  0  0  0  0
    1.0379   -1.6231   -6.6644 C   0  0  0  0  0  0  0  0  0  0  0  0
    3.0765    0.4417   -4.7182 C   0  0  0  0  0  0  0  0  0  0  0  0
    2.4071   -1.8419   -6.5000 C   0  0  0  0  0  0  0  0  0  0  0  0
    3.2809    2.0260   -2.9925 C   0  0  0  0  0  0  0  0  0  0  0  0
    3.6860    0.6828   -3.4355 C   0  0  0  0  0  0  0  0  0  0  0  0
    3.7384    3.6437   -4.5861 C   0  0  0  0  0  0  0  0  0  0  0  0
   -1.3291   -0.7964   -6.6789 C   0  0  0  0  0  0  0  0  0  0  0  0
    1.2746    2.3183   -2.3332 C   0  0  0  0  0  0  0  0  0  0  0  0
    5.2496    3.8825   -3.7313 C   0  0  0  0  0  0  0  0  0  0  0  0
    4.1326    2.8319   -2.3388 C   0  0  0  0  0  0  0  0  0  0  0  0
    5.4780    2.5832   -3.0272 C   0  0  1  0  0  0  0  0  0  0  0  0
    1.5455    1.0483   -6.6950 H   0  0  0  0  0  0  0  0  0  0  0  0
    1.1283   -0.2163   -4.0922 H   0  0  0  0  0  0  0  0  0  0  0  0
    1.3047    2.6049   -5.6157 H   0  0  0  0  0  0  0  0  0  0  0  0
    4.3858    0.1417   -7.4344 H   0  0  0  0  0  0  0  0  0  0  0  0
    6.9566    2.4204   -1.8091 H   0  0  0  0  0  0  0  0  0  0  0  0
   -1.0084    2.1672   -6.6877 H   0  0  0  0  0  0  0  0  0  0  0  0
   -1.7072    1.1811   -5.6211 H   0  0  0  0  0  0  0  0  0  0  0  0
   -0.8775    2.6281   -4.1809 H   0  0  0  0  0  0  0  0  0  0  0  0
   -0.5212    0.9852   -3.8303 H   0  0  0  0  0  0  0  0  0  0  0  0
    2.4347   -0.4512   -8.4072 H   0  0  0  0  0  0  0  0  0  0  0  0
    0.8422   -1.8086   -7.7921 H   0  0  0  0  0  0  0  0  0  0  0  0
    0.3494   -2.2410   -6.1334 H   0  0  0  0  0  0  0  0  0  0  0  0
    3.4410    1.1933   -5.4296 H   0  0  0  0  0  0  0  0  0  0  0  0
    3.4666   -0.5429   -4.9103 H   0  0  0  0  0  0  0  0  0  0  0  0
    3.0496   -2.6054   -6.9198 H   0  0  0  0  0  0  0  0  0  0  0  0
    2.4642   -1.9322   -5.3894 H   0  0  0  0  0  0  0  0  0  0  0  0
    4.7495    0.5340   -3.6645 H   0  0  0  0  0  0  0  0  0  0  0  0
    3.3379   -0.0736   -2.7446 H   0  0  0  0  0  0  0  0  0  0  0  0
    3.8202    4.5904   -5.1652 H   0  0  0  0  0  0  0  0  0  0  0  0
    3.9425    3.0340   -5.5074 H   0  0  0  0  0  0  0  0  0  0  0  0
   -1.8563   -1.0485   -7.5914 H   0  0  0  0  0  0  0  0  0  0  0  0
   -1.4184   -1.5373   -5.8506 H   0  0  0  0  0  0  0  0  0  0  0  0
   -2.1844   -0.1870   -6.3002 H   0  0  0  0  0  0  0  0  0  0  0  0
    1.5498    2.5715   -1.3068 H   0  0  0  0  0  0  0  0  0  0  0  0
    0.2177    2.6160   -2.4030 H   0  0  0  0  0  0  0  0  0  0  0  0
    1.1418    1.1866   -2.2946 H   0  0  0  0  0  0  0  0  0  0  0  0
    6.1105    4.2341   -4.3568 H   0  0  0  0  0  0  0  0  0  0  0  0
    5.2930    4.7140   -2.9801 H   0  0  0  0  0  0  0  0  0  0  0  0
    3.7310    3.8380   -2.1232 H   0  0  0  0  0  0  0  0  0  0  0  0
    5.3816    1.9740   -2.1266 H   0  0  0  0  0  0  0  0  0  0  0  0
  1 25  1  0  0  0  0
  2 26  1  0  0  0  0
  3  4  1  0  0  0  0
  3  5  1  0  0  0  0
  3 11  1  0  0  0  0
  3 22  1  1  0  0  0
  4  6  1  0  0  0  0
  4 12  1  0  0  0  0
  4 23  1  6  0  0  0
  5  8  1  0  0  0  0
  5 10  1  0  0  0  0
  5 17  1  6  0  0  0
  6  7  1  0  0  0  0
  6  9  1  0  0  0  0
  6 24  1  1  0  0  0
  7 14  1  0  0  0  0
  7 16  1  0  0  0  0
  7 18  1  6  0  0  0
  8  9  1  0  0  0  0
  8 27  1  0  0  0  0
  8 28  1  0  0  0  0
  9 29  1  0  0  0  0
  9 30  1  0  0  0  0
 10 13  1  0  0  0  0
 10 31  1  6  0  0  0
 10  1  1  0  0  0  0
 11 13  1  0  0  0  0
 11 32  1  0  0  0  0
 11 33  1  0  0  0  0
 12 15  1  0  0  0  0
 12 34  1  0  0  0  0
 12 35  1  0  0  0  0
 13 36  1  0  0  0  0
 13 37  1  0  0  0  0
 14 15  1  0  0  0  0
 14 20  2  0  0  0  0
 15 38  1  0  0  0  0
 15 39  1  0  0  0  0
 16 19  1  0  0  0  0
 16 40  1  0  0  0  0
 16 41  1  0  0  0  0
 17 42  1  0  0  0  0
 17 43  1  0  0  0  0
 17 44  1  0  0  0  0
 18 45  1  0  0  0  0
 18 46  1  0  0  0  0
 18 47  1  0  0  0  0
 19 21  1  0  0  0  0
 19 48  1  0  0  0  0
 19 49  1  0  0  0  0
 20 21  1  0  0  0  0
 20 50  1  0  0  0  0
 21  2  1  0  0  0  0
 21 51  1  1  0  0  0
M  END
>  <DRUGBANK_ID>
DB01526

>  <COMMON_NAME>
4-Androstenediol

>  <CAS_NUMBER>
1156-92-9

>  <UNII>
G10EHA9I0D

$$$$
