MR6
 OpenBabel10282417173D

 30 32  0  0  0  0  0  0  0  0999 V2000
    2.5207    1.0649    0.0152 C   0  0  0  0  0  0  0  0  0  0  0  0
    1.2218    0.3119    0.0293 C   0  0  0  0  0  0  0  0  0  0  0  0
    1.2119   -1.0916    0.0503 C   0  0  0  0  0  0  0  0  0  0  0  0
    0.0026    1.0086    0.0110 C   0  0  0  0  0  0  0  0  0  0  0  0
   -1.2168    0.3187    0.0113 C   0  0  0  0  0  0  0  0  0  0  0  0
   -2.5226    1.0579   -0.0052 C   0  0  0  0  0  0  0  0  0  0  0  0
   -1.2031   -1.0809    0.0124 C   0  0  0  0  0  0  0  0  0  0  0  0
    0.0026   -1.7946    0.0349 C   0  0  0  0  0  0  0  0  0  0  0  0
   -0.0364   -3.2443   -0.0688 C   0  0  0  0  0  0  0  0  0  0  0  0
    0.5678   -3.9700    0.9299 O   0  0  0  0  0  0  0  0  0  0  0  0
    0.3257   -5.2705    0.5700 C   0  0  0  0  0  0  0  0  0  0  0  0
    0.7021   -6.4338    1.2350 C   0  0  0  0  0  0  0  0  0  0  0  0
    0.3372   -7.6379    0.6119 C   0  0  0  0  0  0  0  0  0  0  0  0
   -0.3609   -7.6529   -0.6026 C   0  0  0  0  0  0  0  0  0  0  0  0
   -0.7339   -6.4594   -1.2332 C   0  0  0  0  0  0  0  0  0  0  0  0
   -0.3836   -5.2516   -0.6207 C   0  0  0  0  0  0  0  0  0  0  0  0
   -0.6291   -3.9629   -1.0014 N   0  0  0  0  0  0  0  0  0  0  0  0
    2.5880    1.6968   -0.8766 H   0  0  0  0  0  0  0  0  0  0  0  0
    2.6029    1.6908    0.9092 H   0  0  0  0  0  0  0  0  0  0  0  0
    3.3772    0.3824    0.0037 H   0  0  0  0  0  0  0  0  0  0  0  0
    2.1514   -1.6406    0.0383 H   0  0  0  0  0  0  0  0  0  0  0  0
    0.0046    2.0977   -0.0114 H   0  0  0  0  0  0  0  0  0  0  0  0
   -2.6034    1.7067    0.8725 H   0  0  0  0  0  0  0  0  0  0  0  0
   -2.6119    1.6602   -0.9145 H   0  0  0  0  0  0  0  0  0  0  0  0
   -3.3703    0.3639    0.0188 H   0  0  0  0  0  0  0  0  0  0  0  0
   -2.1427   -1.6307   -0.0174 H   0  0  0  0  0  0  0  0  0  0  0  0
    1.2430   -6.4124    2.1727 H   0  0  0  0  0  0  0  0  0  0  0  0
    0.6045   -8.5848    1.0789 H   0  0  0  0  0  0  0  0  0  0  0  0
   -0.6220   -8.6018   -1.0668 H   0  0  0  0  0  0  0  0  0  0  0  0
   -1.2764   -6.4572   -2.1716 H   0  0  0  0  0  0  0  0  0  0  0  0
  1  2  1  0  0  0  0
  1 18  1  0  0  0  0
  1 19  1  0  0  0  0
  1 20  1  0  0  0  0
  2  4  2  0  0  0  0
  2  3  1  0  0  0  0
  3  8  2  0  0  0  0
  3 21  1  0  0  0  0
  4  5  1  0  0  0  0
  4 22  1  0  0  0  0
  5  6  1  0  0  0  0
  5  7  2  0  0  0  0
  6 23  1  0  0  0  0
  6 24  1  0  0  0  0
  6 25  1  0  0  0  0
  7  8  1  0  0  0  0
  7 26  1  0  0  0  0
  8  9  1  0  0  0  0
  9 10  1  0  0  0  0
  9 17  2  0  0  0  0
 10 11  1  0  0  0  0
 11 16  2  0  0  0  0
 11 12  1  0  0  0  0
 12 13  2  0  0  0  0
 12 27  1  0  0  0  0
 13 14  1  0  0  0  0
 13 28  1  0  0  0  0
 14 15  2  0  0  0  0
 14 29  1  0  0  0  0
 15 16  1  0  0  0  0
 15 30  1  0  0  0  0
 16 17  1  0  0  0  0
M  END
>  <DRUGBANK_ID>
DB08207

>  <COMMON_NAME>
2-(3,5-DIMETHYLPHENYL)-1,3-BENZOXAZOLE

>  <UNII>
M3R7JN0FDL

$$$$
