C9P
 OpenBabel10282417163D

 44 46  0  0  0  0  0  0  0  0999 V2000
    1.3440   -0.2250    0.0360 C   0  0  0  0  0  0  0  0  0  0  0  0
   -1.0397    2.5525    0.3757 N   0  0  0  0  0  0  0  0  0  0  0  0
    0.3496    1.3849    5.5602 C   0  0  0  0  0  0  0  0  0  0  0  0
    0.1198    0.0891    5.3833 C   0  0  0  0  0  0  0  0  0  0  0  0
   -1.0252   -0.4915    5.8730 C   0  0  0  0  0  0  0  0  0  0  0  0
   -1.9955    0.2630    6.4718 C   0  0  0  0  0  0  0  0  0  0  0  0
   -1.6994    1.5304    6.6958 C   0  0  0  0  0  0  0  0  0  0  0  0
   -0.2642    4.6816    4.5053 C   0  0  0  0  0  0  0  0  0  0  0  0
   -0.2617    3.8878    3.3533 C   0  0  0  0  0  0  0  0  0  0  0  0
    3.8739    0.6472    0.2569 O   0  0  0  0  0  0  0  0  0  0  0  0
    0.8920    1.0800   -0.0700 C   0  0  0  0  0  0  0  0  0  0  0  0
   -0.5090    1.2150    0.0750 C   0  0  0  0  0  0  0  0  0  0  0  0
   -1.3730    0.2230   -0.0410 C   0  0  0  0  0  0  0  0  0  0  0  0
   -0.2881    4.9820   -0.5008 O   0  0  0  0  0  0  0  0  0  0  0  0
   -0.1052    4.6237    2.2017 C   0  0  0  0  0  0  0  0  0  0  0  0
   -0.8560   -1.0420    0.0030 C   0  0  0  0  0  0  0  0  0  0  0  0
    0.7909    4.3784    7.0073 O   0  0  0  0  0  0  0  0  0  0  0  0
    0.5020   -1.2510   -0.0040 C   0  0  0  0  0  0  0  0  0  0  0  0
   -0.1159    6.0057    4.2307 C   0  0  0  0  0  0  0  0  0  0  0  0
    1.4979    3.4437    0.3300 O   0  0  0  0  0  0  0  0  0  0  0  0
   -2.8621    0.4740   -0.2141 C   0  0  0  0  0  0  0  0  0  0  0  0
   -3.6634   -0.5065   -0.3225 O   0  0  0  0  0  0  0  0  0  0  0  0
    0.0584    3.9177    0.5431 S   0  0  0  0  0  0  0  0  0  0  0  0
   -3.3579    1.8040   -0.2547 O   0  0  0  0  0  0  0  0  0  0  0  0
    3.4151   -1.9091    0.3261 O   0  0  0  0  0  0  0  0  0  0  0  0
   -0.4453    4.0187    6.1798 S   0  0  0  0  0  0  0  0  0  0  0  0
    0.0479    6.3050    2.5445 S   0  0  0  0  0  0  0  0  0  0  0  0
   -1.6906    4.6207    6.8349 O   0  0  0  0  0  0  0  0  0  0  0  0
   -0.6156    2.2185    6.1008 C   0  0  0  0  0  0  0  0  0  0  0  0
    2.9103   -0.5014    0.2099 B   0  0  0  0  0  0  0  0  0  0  0  0
   -2.0443    2.6893    0.4873 H   0  0  0  0  0  0  0  0  0  0  0  0
    1.2982    1.7928    5.2799 H   0  0  0  0  0  0  0  0  0  0  0  0
    0.8328   -0.5084    4.8545 H   0  0  0  0  0  0  0  0  0  0  0  0
   -1.1594   -1.5494    5.7844 H   0  0  0  0  0  0  0  0  0  0  0  0
   -2.9437   -0.1511    6.7444 H   0  0  0  0  0  0  0  0  0  0  0  0
   -2.3224    2.0747    7.3743 H   0  0  0  0  0  0  0  0  0  0  0  0
   -0.3698    2.8233    3.3666 H   0  0  0  0  0  0  0  0  0  0  0  0
    3.3720    1.5073    0.1660 H   0  0  0  0  0  0  0  0  0  0  0  0
    1.5432    1.9107   -0.2456 H   0  0  0  0  0  0  0  0  0  0  0  0
   -1.5185   -1.8813    0.0435 H   0  0  0  0  0  0  0  0  0  0  0  0
    0.8845   -2.2496   -0.0420 H   0  0  0  0  0  0  0  0  0  0  0  0
   -0.1025    6.7723    4.9771 H   0  0  0  0  0  0  0  0  0  0  0  0
   -2.7274    2.5755   -0.1694 H   0  0  0  0  0  0  0  0  0  0  0  0
    4.4099   -1.8992    0.4281 H   0  0  0  0  0  0  0  0  0  0  0  0
  1 18  1  0  0  0  0
  1 30  1  0  0  0  0
  2 12  1  0  0  0  0
  2 31  1  0  0  0  0
  3  4  1  0  0  0  0
  3 32  1  0  0  0  0
  4 33  1  0  0  0  0
  5  4  2  0  0  0  0
  5 34  1  0  0  0  0
  6  5  1  0  0  0  0
  6 35  1  0  0  0  0
  7  6  2  0  0  0  0
  7 29  1  0  0  0  0
  7 36  1  0  0  0  0
  8 26  1  0  0  0  0
  9  8  1  0  0  0  0
  9 37  1  0  0  0  0
 10 38  1  0  0  0  0
 11  1  2  0  0  0  0
 11 39  1  0  0  0  0
 12 11  1  0  0  0  0
 12 13  2  0  0  0  0
 13 16  1  0  0  0  0
 14 23  2  0  0  0  0
 15  9  2  0  0  0  0
 16 18  2  0  0  0  0
 16 40  1  0  0  0  0
 18 41  1  0  0  0  0
 19  8  2  0  0  0  0
 19 42  1  0  0  0  0
 21 13  1  0  0  0  0
 21 24  1  0  0  0  0
 22 21  2  0  0  0  0
 23  2  1  0  0  0  0
 23 15  1  0  0  0  0
 23 20  2  0  0  0  0
 24 43  1  0  0  0  0
 25 44  1  0  0  0  0
 26 17  2  0  0  0  0
 26 28  2  0  0  0  0
 26 29  1  0  0  0  0
 27 15  1  0  0  0  0
 27 19  1  0  0  0  0
 29  3  2  0  0  0  0
 30 10  1  0  0  0  0
 30 25  1  0  0  0  0
M  END
>  <DRUGBANK_ID>
DB07541

>  <COMMON_NAME>
4-(dihydroxyboranyl)-2-({[4-(phenylsulfonyl)thiophen-2-yl]sulfonyl}amino)benzoic acid

$$$$
