
 OpenBabel10282417203D

 31 32  0  0  0  0  0  0  0  0999 V2000
    1.1015    0.0502   -0.1966 C   0  0  0  0  0  0  0  0  0  0  0  0
   -0.7079   -4.7293    5.0555 C   0  0  0  0  0  0  0  0  0  0  0  0
    0.8451   -7.6987    1.4577 C   0  0  0  0  0  0  0  0  0  0  0  0
    0.9314   -2.5001   -0.3332 C   0  0  0  0  0  0  0  0  0  0  0  0
   -0.0468   -1.9869    1.9781 C   0  0  0  0  0  0  0  0  0  0  0  0
    0.4906   -1.1495   -0.9136 C   0  0  3  0  0  0  0  0  0  0  0  0
    0.4398   -4.0673    1.5696 C   0  0  0  0  0  0  0  0  0  0  0  0
   -0.0252   -3.8987    2.8418 C   0  0  0  0  0  0  0  0  0  0  0  0
    0.7594   -5.3384    1.0359 C   0  0  0  0  0  0  0  0  0  0  0  0
    0.0833   -6.2362    3.2678 C   0  0  0  0  0  0  0  0  0  0  0  0
   -0.3050   -2.6062    3.1080 N   0  0  0  0  0  0  0  0  0  0  0  0
   -0.2075   -4.9473    3.7067 N   0  0  0  0  0  0  0  0  0  0  0  0
    0.5457   -6.3743    1.9455 N   0  0  0  0  0  0  0  0  0  0  0  0
    0.4784   -2.8143    1.0178 N   0  0  0  0  0  0  0  0  0  0  0  0
   -0.9309   -1.0506   -0.9828 O   0  0  0  0  0  0  0  0  0  0  0  0
    1.1751   -5.5042   -0.1113 O   0  0  0  0  0  0  0  0  0  0  0  0
   -0.0591   -7.2138    4.0064 O   0  0  0  0  0  0  0  0  0  0  0  0
    0.8692    0.1101    0.8620 H   0  0  0  0  0  0  0  0  0  0  0  0
    0.7169    0.9843   -0.6113 H   0  0  0  0  0  0  0  0  0  0  0  0
    2.1921    0.0231   -0.2593 H   0  0  0  0  0  0  0  0  0  0  0  0
   -0.0202   -4.0757    5.6017 H   0  0  0  0  0  0  0  0  0  0  0  0
   -1.7002   -4.2682    5.0130 H   0  0  0  0  0  0  0  0  0  0  0  0
   -0.7940   -5.6699    5.6065 H   0  0  0  0  0  0  0  0  0  0  0  0
    0.2176   -7.8968    0.5828 H   0  0  0  0  0  0  0  0  0  0  0  0
    1.8941   -7.7232    1.1468 H   0  0  0  0  0  0  0  0  0  0  0  0
    0.6728   -8.4722    2.2071 H   0  0  0  0  0  0  0  0  0  0  0  0
    0.5446   -3.2885   -0.9923 H   0  0  0  0  0  0  0  0  0  0  0  0
    2.0272   -2.5733   -0.3352 H   0  0  0  0  0  0  0  0  0  0  0  0
   -0.2743   -0.9436    1.8440 H   0  0  0  0  0  0  0  0  0  0  0  0
    0.8332   -1.0990   -1.9553 H   0  0  0  0  0  0  0  0  0  0  0  0
   -1.3268   -1.3058   -0.1326 H   0  0  0  0  0  0  0  0  0  0  0  0
  1 18  1  0  0  0  0
  1 19  1  0  0  0  0
  1 20  1  0  0  0  0
  2 21  1  0  0  0  0
  2 22  1  0  0  0  0
  2 23  1  0  0  0  0
  3 24  1  0  0  0  0
  3 25  1  0  0  0  0
  3 26  1  0  0  0  0
  4 27  1  0  0  0  0
  4 28  1  0  0  0  0
  5 29  1  0  0  0  0
  6  1  1  0  0  0  0
  6  4  1  0  0  0  0
  6 30  1  0  0  0  0
  8  7  2  0  0  0  0
  9  7  1  0  0  0  0
 11  5  2  0  0  0  0
 11  8  1  0  0  0  0
 12  2  1  0  0  0  0
 12  8  1  0  0  0  0
 12 10  1  0  0  0  0
 13  3  1  0  0  0  0
 13  9  1  0  0  0  0
 13 10  1  0  0  0  0
 14  4  1  0  0  0  0
 14  5  1  0  0  0  0
 14  7  1  0  0  0  0
 15  6  1  0  0  0  0
 15 31  1  0  0  0  0
 16  9  2  0  0  0  0
 17 10  2  0  0  0  0
M  END
>  <DRUGBANK_ID>
DB13449

>  <COMMON_NAME>
Proxyphylline

>  <CAS_NUMBER>
603-00-9

>  <UNII>
13G1DMN4P0

>  <SYNONYMS>
Proxyphylline

$$$$
