LS5
 OpenBabel10282417173D

 40 42  0  0  0  0  0  0  0  0999 V2000
   -0.7538    1.4249    0.0149 N   0  0  0  0  0  0  0  0  0  0  0  0
   -1.7941    0.5130   -0.0225 C   0  0  0  0  0  0  0  0  0  0  0  0
   -1.1205   -0.8361    0.0038 C   0  0  0  0  0  0  0  0  0  0  0  0
    1.4456   -1.4227   -0.0291 C   0  0  0  0  0  0  0  0  0  0  0  0
    2.7097   -0.8089   -0.0359 C   0  0  0  0  0  0  0  0  0  0  0  0
    2.8405    0.5923    0.0185 C   0  0  0  0  0  0  0  0  0  0  0  0
    1.7117    1.4091    0.0496 C   0  0  0  0  0  0  0  0  0  0  0  0
    0.4813    0.7864    0.0397 C   0  0  0  0  0  0  0  0  0  0  0  0
    0.3278   -0.6086    0.0270 C   0  0  0  0  0  0  0  0  0  0  0  0
   -2.9786    0.7413   -0.0468 O   0  0  0  0  0  0  0  0  0  0  0  0
   -1.8533   -1.9585   -0.0167 C   0  0  0  0  0  0  0  0  0  0  0  0
   -3.2193   -2.0171   -0.2270 N   0  0  0  0  0  0  0  0  0  0  0  0
   -4.0839   -3.0912    0.0150 C   0  0  0  0  0  0  0  0  0  0  0  0
   -3.9258   -3.9041    1.1232 C   0  0  0  0  0  0  0  0  0  0  0  0
   -4.9502   -4.7790    1.4922 C   0  0  0  0  0  0  0  0  0  0  0  0
   -5.8981   -5.1821    0.5631 C   0  0  0  0  0  0  0  0  0  0  0  0
   -6.1065   -4.3533   -0.5404 C   0  0  0  0  0  0  0  0  0  0  0  0
   -5.2299   -3.2752   -0.7738 C   0  0  0  0  0  0  0  0  0  0  0  0
   -6.6683   -6.8170    0.6128 S   0  0  0  0  0  0  0  0  0  0  0  0
   -8.0052   -6.6101    1.1275 O   0  0  0  0  0  0  0  0  0  0  0  0
   -6.4802   -7.4072   -0.6981 O   0  0  0  0  0  0  0  0  0  0  0  0
   -5.8908   -7.8742    1.6939 N   0  0  0  0  0  0  0  0  0  0  0  0
   -4.6533   -7.9004    2.3209 C   0  0  0  0  0  0  0  0  0  0  0  0
   -4.3611   -8.6576    3.3122 N   0  0  0  0  0  0  0  0  0  0  0  0
   -3.6951   -7.1149    1.8359 N   0  0  0  0  0  0  0  0  0  0  0  0
   -0.9092    2.4197    0.0022 H   0  0  0  0  0  0  0  0  0  0  0  0
    1.3672   -2.5034   -0.0856 H   0  0  0  0  0  0  0  0  0  0  0  0
    3.6098   -1.4198   -0.0901 H   0  0  0  0  0  0  0  0  0  0  0  0
    3.8305    1.0441    0.0272 H   0  0  0  0  0  0  0  0  0  0  0  0
    1.8000    2.4889    0.0730 H   0  0  0  0  0  0  0  0  0  0  0  0
   -1.3774   -2.9332    0.0491 H   0  0  0  0  0  0  0  0  0  0  0  0
   -3.6856   -1.1044   -0.1272 H   0  0  0  0  0  0  0  0  0  0  0  0
   -3.0293   -3.8287    1.7339 H   0  0  0  0  0  0  0  0  0  0  0  0
   -4.9132   -5.2159    2.4804 H   0  0  0  0  0  0  0  0  0  0  0  0
   -6.9661   -4.5059   -1.1905 H   0  0  0  0  0  0  0  0  0  0  0  0
   -5.4168   -2.5992   -1.6064 H   0  0  0  0  0  0  0  0  0  0  0  0
   -6.4958   -8.6764    1.8639 H   0  0  0  0  0  0  0  0  0  0  0  0
   -5.0909   -9.3187    3.5561 H   0  0  0  0  0  0  0  0  0  0  0  0
   -3.9163   -6.6348    0.9813 H   0  0  0  0  0  0  0  0  0  0  0  0
   -3.2698   -6.5340    2.5527 H   0  0  0  0  0  0  0  0  0  0  0  0
  1  2  1  0  0  0  0
  1  8  1  0  0  0  0
  1 26  1  0  0  0  0
  2  3  1  0  0  0  0
  2 10  2  0  0  0  0
  3  9  1  0  0  0  0
  3 11  2  0  0  0  0
  4  5  2  0  0  0  0
  4  9  1  0  0  0  0
  4 27  1  0  0  0  0
  5  6  1  0  0  0  0
  5 28  1  0  0  0  0
  6  7  2  0  0  0  0
  6 29  1  0  0  0  0
  7  8  1  0  0  0  0
  7 30  1  0  0  0  0
  8  9  2  0  0  0  0
 11 12  1  0  0  0  0
 11 31  1  0  0  0  0
 12 13  1  0  0  0  0
 12 32  1  0  0  0  0
 13 14  2  0  0  0  0
 13 18  1  0  0  0  0
 14 15  1  0  0  0  0
 14 33  1  0  0  0  0
 15 16  2  0  0  0  0
 15 34  1  0  0  0  0
 16 17  1  0  0  0  0
 16 19  1  0  0  0  0
 17 18  2  0  0  0  0
 17 35  1  0  0  0  0
 18 36  1  0  0  0  0
 19 20  2  0  0  0  0
 19 21  2  0  0  0  0
 19 22  1  0  0  0  0
 22 23  1  0  0  0  0
 22 37  1  0  0  0  0
 23 24  2  0  0  0  0
 23 25  1  0  0  0  0
 24 38  1  0  0  0  0
 25 39  1  0  0  0  0
 25 40  1  0  0  0  0
M  END
>  <DRUGBANK_ID>
DB08126

>  <COMMON_NAME>
3-{[4-([amino(imino)methyl]aminosulfonyl)anilino]methylene}-2-oxo-2,3-dihydro-1H-indole

$$$$
