
 OpenBabel10282417103D

 42 44  0  0  0  0  0  0  0  0999 V2000
   -0.9366   -3.9102    6.9238 S   0  0  0  0  0  0  0  0  0  0  0  0
   -1.0839   -4.3501    8.5672 C   0  0  0  0  0  0  0  0  0  0  0  0
   -1.1138   -5.7156    8.7380 C   0  0  0  0  0  0  0  0  0  0  0  0
   -1.0454   -6.4113    7.4982 C   0  0  0  0  0  0  0  0  0  0  0  0
   -0.9380   -5.5524    6.4231 C   0  0  0  0  0  0  0  0  0  0  0  0
   -0.9157   -5.9005    4.9642 C   0  0  0  0  0  0  0  0  0  0  0  0
   -2.1851   -5.3391    4.3346 C   0  0  0  0  0  0  0  0  0  0  0  0
   -2.0250   -4.7038    3.1189 N   0  0  0  0  0  0  0  0  0  0  0  0
   -4.0397   -2.9741    2.8380 C   0  0  0  0  0  0  0  0  0  0  0  0
   -3.1216   -4.1026    2.2797 C   0  0  2  0  0  0  0  0  0  0  0  0
   -5.1447   -3.6144    2.3529 N   0  0  0  0  0  0  0  0  0  0  0  0
   -4.4553   -4.8360    1.9564 C   0  0  2  0  0  0  0  0  0  0  0  0
   -6.4817   -3.4894    2.6541 C   0  0  0  0  0  0  0  0  0  0  0  0
   -4.9849   -6.2590    2.9014 S   0  0  0  0  0  0  0  0  0  0  0  0
   -6.7248   -6.0233    2.6158 C   0  0  0  0  0  0  0  0  0  0  0  0
   -7.2410   -4.6079    2.8132 C   0  0  0  0  0  0  0  0  0  0  0  0
   -8.7025   -4.5975    3.2286 C   0  0  0  0  0  0  0  0  0  0  0  0
   -8.9664   -3.8941    4.4688 O   0  0  0  0  0  0  0  0  0  0  0  0
   -8.3948   -4.1180    5.6704 C   0  0  0  0  0  0  0  0  0  0  0  0
   -7.6023   -5.3692    5.8526 C   0  0  0  0  0  0  0  0  0  0  0  0
   -7.0432   -2.0703    2.7394 C   0  0  0  0  0  0  0  0  0  0  0  0
   -3.2648   -5.4624    4.9030 O   0  0  0  0  0  0  0  0  0  0  0  0
   -3.8721   -1.9497    3.4472 O   0  0  0  0  0  0  0  0  0  0  0  0
   -6.4312   -1.0354    2.5427 O   0  0  0  0  0  0  0  0  0  0  0  0
   -8.3750   -2.0125    2.9231 O   0  0  0  0  0  0  0  0  0  0  0  0
   -8.5638   -3.3349    6.6013 O   0  0  0  0  0  0  0  0  0  0  0  0
   -4.5407   -5.0444    0.8856 H   0  0  0  0  0  0  0  0  0  0  0  0
   -2.6400   -3.7550    1.3514 H   0  0  0  0  0  0  0  0  0  0  0  0
   -1.1390   -3.5850    9.3285 H   0  0  0  0  0  0  0  0  0  0  0  0
   -1.1975   -6.1930    9.7056 H   0  0  0  0  0  0  0  0  0  0  0  0
   -1.0962   -7.4888    7.3979 H   0  0  0  0  0  0  0  0  0  0  0  0
   -0.0047   -5.5357    4.4789 H   0  0  0  0  0  0  0  0  0  0  0  0
   -0.9386   -6.9920    4.8388 H   0  0  0  0  0  0  0  0  0  0  0  0
   -1.0751   -4.4242    2.8928 H   0  0  0  0  0  0  0  0  0  0  0  0
   -6.9561   -6.3727    1.6102 H   0  0  0  0  0  0  0  0  0  0  0  0
   -7.2047   -6.7353    3.2910 H   0  0  0  0  0  0  0  0  0  0  0  0
   -9.2866   -4.1149    2.4342 H   0  0  0  0  0  0  0  0  0  0  0  0
   -9.1355   -5.5978    3.3167 H   0  0  0  0  0  0  0  0  0  0  0  0
   -6.5612   -5.1296    6.0802 H   0  0  0  0  0  0  0  0  0  0  0  0
   -8.0579   -5.9833    6.6293 H   0  0  0  0  0  0  0  0  0  0  0  0
   -7.6287   -5.9897    4.9761 H   0  0  0  0  0  0  0  0  0  0  0  0
   -8.6162   -1.0791    3.0930 H   0  0  0  0  0  0  0  0  0  0  0  0
  1  2  1  0  0  0  0
  1  5  1  0  0  0  0
  2  3  2  0  0  0  0
  2 29  1  0  0  0  0
  3  4  1  0  0  0  0
  3 30  1  0  0  0  0
  4  5  2  0  0  0  0
  4 31  1  0  0  0  0
  5  6  1  0  0  0  0
  6  7  1  0  0  0  0
  6 32  1  0  0  0  0
  6 33  1  0  0  0  0
  7  8  1  0  0  0  0
  7 22  2  0  0  0  0
  8 34  1  0  0  0  0
  9 10  1  0  0  0  0
  9 11  1  0  0  0  0
  9 23  2  0  0  0  0
 10 28  1  6  0  0  0
 10  8  1  0  0  0  0
 11 12  1  0  0  0  0
 12 10  1  0  0  0  0
 12 14  1  0  0  0  0
 12 27  1  6  0  0  0
 13 11  1  0  0  0  0
 13 16  2  0  0  0  0
 13 21  1  0  0  0  0
 14 15  1  0  0  0  0
 15 16  1  0  0  0  0
 15 35  1  0  0  0  0
 15 36  1  0  0  0  0
 16 17  1  0  0  0  0
 17 18  1  0  0  0  0
 17 37  1  0  0  0  0
 17 38  1  0  0  0  0
 18 19  1  0  0  0  0
 19 20  1  0  0  0  0
 19 26  2  0  0  0  0
 20 39  1  0  0  0  0
 20 40  1  0  0  0  0
 20 41  1  0  0  0  0
 21 24  2  0  0  0  0
 21 25  1  0  0  0  0
 25 42  1  0  0  0  0
M  END
>  <DRUGBANK_ID>
DB00456

>  <SECONDARY_ACCESSION_NUMBERS>
APRD00859; EXPT00946

>  <COMMON_NAME>
Cefalotin

>  <CAS_NUMBER>
153-61-7

>  <UNII>
R72LW146E6

>  <SYNONYMS>
3-Acetoxymethyl-7-(2-thienylacetamido)-3-cephem-4-carboxylic acid; 7-(2-Thienylacetamido)cephalosporanic acid; 7-(2'-thienylacetamido)cephalosporanic acid; 7-(Thiophene-2-acetamido)cephalosporin; Cefalothin; Cefalotin; Cefalotina; CÃ©falotine; Cefalotinum; Cephalothin; Cephalotin; CET

$$$$
