
 OpenBabel10282417213D

124122  0  0  0  0  0  0  0  0999 V2000
    0.7747    0.2912    0.2619 O   0  0  0  0  0  0  0  0  0  0  0  0
    2.0097    0.2713    0.2808 C   0  0  0  0  0  0  0  0  0  0  0  0
    2.6455    0.2196    1.6599 C   0  0  0  0  0  0  0  0  0  0  0  0
    3.2877   -1.1144    2.0012 C   0  0  0  0  0  0  0  0  0  0  0  0
    4.1447   -1.3126    0.8799 C   0  0  0  0  0  0  0  0  0  0  0  0
    5.0553    0.0831    1.1441 C   0  0  0  0  0  0  0  0  0  0  0  0
    6.3488    0.5574    2.1892 C   0  0  0  0  0  0  0  0  0  0  0  0
    7.6603   -0.2351    2.5172 C   0  0  0  0  0  0  0  0  0  0  0  0
    8.8156   -0.4361    1.2797 C   0  0  0  0  0  0  0  0  0  0  0  0
    9.7550    0.6736    1.1303 C   0  0  0  0  0  0  0  0  0  0  0  0
   10.4863    0.5363    2.4029 C   0  0  0  0  0  0  0  0  0  0  0  0
   11.2213   -0.8156    2.4559 C   0  0  0  0  0  0  0  0  0  0  0  0
   12.0212   -1.0411    1.1624 C   0  0  0  0  0  0  0  0  0  0  0  0
   12.8910    0.1993    1.0044 C   0  0  0  0  0  0  0  0  0  0  0  0
   13.6750    0.3900    2.3097 C   0  0  0  0  0  0  0  0  0  0  0  0
   14.5051   -0.8581    2.6042 C   0  0  0  0  0  0  0  0  0  0  0  0
   15.4735   -1.0783    1.4597 C   0  0  0  0  0  0  0  0  0  0  0  0
    2.5872    0.1555   -0.9600 O   0  0  0  0  0  0  0  0  0  0  0  0
    3.9762    0.2886   -1.4916 C   0  0  0  0  0  0  0  0  0  0  0  0
    4.5901    1.5536   -0.8438 C   0  0  1  0  0  0  0  0  0  0  0  0
    4.0357    1.9396   -0.0013 H   0  0  0  0  0  0  0  0  0  0  0  0
    6.0571    1.4521   -0.5209 O   0  0  0  0  0  0  0  0  0  0  0  0
    6.9928    0.4415   -0.2615 C   0  0  0  0  0  0  0  0  0  0  0  0
    6.6935   -1.3157    0.3971 C   0  0  0  0  0  0  0  0  0  0  0  0
    6.8512   -2.7259    0.0047 C   0  0  0  0  0  0  0  0  0  0  0  0
    8.2554   -3.1134    0.3911 C   0  0  0  0  0  0  0  0  0  0  0  0
    8.5475   -2.9806    1.9672 C   0  0  0  0  0  0  0  0  0  0  0  0
    7.6535   -3.7569    2.8738 C   0  0  0  0  0  0  0  0  0  0  0  0
    8.0585   -5.1174    2.4089 C   0  0  0  0  0  0  0  0  0  0  0  0
    9.6153   -5.2413    2.5386 C   0  0  0  0  0  0  0  0  0  0  0  0
    9.9914   -4.9393    3.9993 C   0  0  0  0  0  0  0  0  0  0  0  0
    9.2171   -5.9518    4.8343 C   0  0  0  0  0  0  0  0  0  0  0  0
    9.5675   -7.3485    4.3077 C   0  0  0  0  0  0  0  0  0  0  0  0
   11.0781   -7.5588    4.4397 C   0  0  0  0  0  0  0  0  0  0  0  0
   11.4687   -7.4410    5.9143 C   0  0  0  0  0  0  0  0  0  0  0  0
   10.7304   -8.5007    6.7384 C   0  0  0  0  0  0  0  0  0  0  0  0
   11.0593   -9.9066    6.2362 C   0  0  0  0  0  0  0  0  0  0  0  0
   12.5525  -10.1646    6.3496 C   0  0  0  0  0  0  0  0  0  0  0  0
    8.1459    0.9919   -0.4859 O   0  0  0  0  0  0  0  0  0  0  0  0
    4.2962    2.7406   -1.6459 C   0  0  0  0  0  0  0  0  0  0  0  0
    4.8628    2.2153   -2.7622 O   0  0  0  0  0  0  0  0  0  0  0  0
    6.5928    2.2153   -2.7622 P   0  0  3  0  0  0  0  0  0  0  0  0
    6.4800    1.3803   -4.2170 O   0  0  0  0  0  0  0  0  0  0  0  0
    6.5875   -0.0487   -4.1945 C   0  0  0  0  0  0  0  0  0  0  0  0
    7.8536   -0.5681   -3.5370 C   0  0  3  0  0  0  0  0  0  0  0  0
    7.7187   -0.1024   -2.2604 O   0  0  0  0  0  0  0  0  0  0  0  0
    7.8842   -2.0257   -3.1489 C   0  0  0  0  0  0  0  0  0  0  0  0
    7.8290   -2.9029   -4.2323 O   0  0  0  0  0  0  0  0  0  0  0  0
    6.4370    3.7193   -3.0586 O   0  5  0  0  0  0  0  0  0  0  0  0
    8.1412    2.2153   -2.7622 O   0  0  0  0  0  0  0  0  0  0  0  0
    0.2979   -0.4332   -1.6756 Na  0  3  0  0  0  0  0  0  0  0  0  0
    3.2117    1.1359    1.8322 H   0  0  0  0  0  0  0  0  0  0  0  0
    1.9295    0.3682    2.4494 H   0  0  0  0  0  0  0  0  0  0  0  0
    3.9925   -1.0890    2.8418 H   0  0  0  0  0  0  0  0  0  0  0  0
    2.6525   -1.9876    2.0430 H   0  0  0  0  0  0  0  0  0  0  0  0
    4.6139   -2.2998    0.8908 H   0  0  0  0  0  0  0  0  0  0  0  0
    3.6136   -1.5144   -0.0779 H   0  0  0  0  0  0  0  0  0  0  0  0
    5.2899   -0.0818    0.1145 H   0  0  0  0  0  0  0  0  0  0  0  0
    4.6707    1.0653    1.1805 H   0  0  0  0  0  0  0  0  0  0  0  0
    6.7398    1.5538    1.8972 H   0  0  0  0  0  0  0  0  0  0  0  0
    5.8004    0.7081    3.1110 H   0  0  0  0  0  0  0  0  0  0  0  0
    8.1189    0.0557    3.4547 H   0  0  0  0  0  0  0  0  0  0  0  0
    7.2626   -1.1606    2.9619 H   0  0  0  0  0  0  0  0  0  0  0  0
    9.4729   -1.2868    1.2819 H   0  0  0  0  0  0  0  0  0  0  0  0
    8.5549   -0.7597    0.2754 H   0  0  0  0  0  0  0  0  0  0  0  0
   10.3090    0.4965    0.1860 H   0  0  0  0  0  0  0  0  0  0  0  0
    9.2658    1.6354    1.0661 H   0  0  0  0  0  0  0  0  0  0  0  0
   11.0834    1.4327    2.4593 H   0  0  0  0  0  0  0  0  0  0  0  0
    9.7950    0.6102    3.2306 H   0  0  0  0  0  0  0  0  0  0  0  0
   11.7661   -0.8500    3.3923 H   0  0  0  0  0  0  0  0  0  0  0  0
   10.6176   -1.6960    2.6092 H   0  0  0  0  0  0  0  0  0  0  0  0
   12.5768   -1.9800    1.2318 H   0  0  0  0  0  0  0  0  0  0  0  0
   11.4171   -1.2036    0.2562 H   0  0  0  0  0  0  0  0  0  0  0  0
   13.5198    0.1173    0.1196 H   0  0  0  0  0  0  0  0  0  0  0  0
   12.2929    1.0949    0.8023 H   0  0  0  0  0  0  0  0  0  0  0  0
   14.2812    1.2910    2.2483 H   0  0  0  0  0  0  0  0  0  0  0  0
   13.0175    0.5852    3.1672 H   0  0  0  0  0  0  0  0  0  0  0  0
   15.0250   -0.7363    3.5551 H   0  0  0  0  0  0  0  0  0  0  0  0
   13.8841   -1.7552    2.7371 H   0  0  0  0  0  0  0  0  0  0  0  0
   16.0949   -0.1868    1.3430 H   0  0  0  0  0  0  0  0  0  0  0  0
   16.0966   -1.9507    1.6418 H   0  0  0  0  0  0  0  0  0  0  0  0
   14.9592   -1.2542    0.5082 H   0  0  0  0  0  0  0  0  0  0  0  0
    4.5414   -0.6573   -1.4311 H   0  0  0  0  0  0  0  0  0  0  0  0
    3.9378    0.2900   -2.5923 H   0  0  0  0  0  0  0  0  0  0  0  0
    7.0088   -1.6149    1.3884 H   0  0  0  0  0  0  0  0  0  0  0  0
    5.9887   -1.3715    1.1952 H   0  0  0  0  0  0  0  0  0  0  0  0
    6.2084   -3.3672    0.6386 H   0  0  0  0  0  0  0  0  0  0  0  0
    6.4251   -2.8139   -0.9640 H   0  0  0  0  0  0  0  0  0  0  0  0
    8.4361   -4.1227    0.0487 H   0  0  0  0  0  0  0  0  0  0  0  0
    8.9602   -2.5515   -0.2218 H   0  0  0  0  0  0  0  0  0  0  0  0
    9.6061   -3.1471    2.0268 H   0  0  0  0  0  0  0  0  0  0  0  0
    8.6744   -2.1068    2.5867 H   0  0  0  0  0  0  0  0  0  0  0  0
    7.8689   -3.5158    3.9317 H   0  0  0  0  0  0  0  0  0  0  0  0
    6.5930   -3.5009    2.7851 H   0  0  0  0  0  0  0  0  0  0  0  0
    7.4822   -5.8619    2.9435 H   0  0  0  0  0  0  0  0  0  0  0  0
    7.7487   -5.2561    1.3770 H   0  0  0  0  0  0  0  0  0  0  0  0
    9.9234   -6.1991    2.1384 H   0  0  0  0  0  0  0  0  0  0  0  0
   10.2582   -4.6403    1.8822 H   0  0  0  0  0  0  0  0  0  0  0  0
   11.0755   -4.9860    4.1310 H   0  0  0  0  0  0  0  0  0  0  0  0
    9.7676   -3.9186    4.3380 H   0  0  0  0  0  0  0  0  0  0  0  0
    9.4274   -5.8152    5.8941 H   0  0  0  0  0  0  0  0  0  0  0  0
    8.1360   -5.7933    4.7839 H   0  0  0  0  0  0  0  0  0  0  0  0
    8.9735   -8.1006    4.8233 H   0  0  0  0  0  0  0  0  0  0  0  0
    9.2675   -7.5078    3.2672 H   0  0  0  0  0  0  0  0  0  0  0  0
   11.3563   -8.5186    4.0006 H   0  0  0  0  0  0  0  0  0  0  0  0
   11.6607   -6.8442    3.8472 H   0  0  0  0  0  0  0  0  0  0  0  0
   12.5519   -7.5218    6.0174 H   0  0  0  0  0  0  0  0  0  0  0  0
   11.2524   -6.4456    6.3167 H   0  0  0  0  0  0  0  0  0  0  0  0
   10.9941   -8.3947    7.7935 H   0  0  0  0  0  0  0  0  0  0  0  0
    9.6447   -8.3456    6.7018 H   0  0  0  0  0  0  0  0  0  0  0  0
   10.4965  -10.6448    6.8125 H   0  0  0  0  0  0  0  0  0  0  0  0
   10.7394  -10.0452    5.1962 H   0  0  0  0  0  0  0  0  0  0  0  0
   12.8654  -10.0595    7.3923 H   0  0  0  0  0  0  0  0  0  0  0  0
   12.8014  -11.1631    5.9917 H   0  0  0  0  0  0  0  0  0  0  0  0
   13.1405   -9.4613    5.7506 H   0  0  0  0  0  0  0  0  0  0  0  0
    3.2084    2.8260   -1.7483 H   0  0  0  0  0  0  0  0  0  0  0  0
    4.7393    3.6575   -1.2515 H   0  0  0  0  0  0  0  0  0  0  0  0
    5.7222   -0.4069   -3.6313 H   0  0  0  0  0  0  0  0  0  0  0  0
    6.5106   -0.4445   -5.2075 H   0  0  0  0  0  0  0  0  0  0  0  0
    8.7917   -0.1921   -3.9466 H   0  0  0  0  0  0  0  0  0  0  0  0
    8.2502    0.7548   -2.2047 H   0  0  0  0  0  0  0  0  0  0  0  0
    8.7398   -2.2309   -2.4837 H   0  0  0  0  0  0  0  0  0  0  0  0
    7.0026   -2.2210   -2.5395 H   0  0  0  0  0  0  0  0  0  0  0  0
    7.0657   -2.5983   -4.7455 H   0  0  0  0  0  0  0  0  0  0  0  0
  1  2  2  0  0  0  0
  2  3  1  0  0  0  0
  2 18  1  0  0  0  0
  3  4  1  0  0  0  0
  3 52  1  0  0  0  0
  3 53  1  0  0  0  0
  4  5  1  0  0  0  0
  4 54  1  0  0  0  0
  4 55  1  0  0  0  0
  5  6  1  0  0  0  0
  5 56  1  0  0  0  0
  5 57  1  0  0  0  0
  6  7  1  0  0  0  0
  6 58  1  0  0  0  0
  6 59  1  0  0  0  0
  7  8  1  0  0  0  0
  7 60  1  0  0  0  0
  7 61  1  0  0  0  0
  8  9  1  0  0  0  0
  8 62  1  0  0  0  0
  8 63  1  0  0  0  0
  9 10  1  0  0  0  0
  9 64  1  0  0  0  0
  9 65  1  0  0  0  0
 10 11  1  0  0  0  0
 10 66  1  0  0  0  0
 10 67  1  0  0  0  0
 11 12  1  0  0  0  0
 11 68  1  0  0  0  0
 11 69  1  0  0  0  0
 12 13  1  0  0  0  0
 12 70  1  0  0  0  0
 12 71  1  0  0  0  0
 13 14  1  0  0  0  0
 13 72  1  0  0  0  0
 13 73  1  0  0  0  0
 14 15  1  0  0  0  0
 14 74  1  0  0  0  0
 14 75  1  0  0  0  0
 15 16  1  0  0  0  0
 15 76  1  0  0  0  0
 15 77  1  0  0  0  0
 16 17  1  0  0  0  0
 16 78  1  0  0  0  0
 16 79  1  0  0  0  0
 17 80  1  0  0  0  0
 17 81  1  0  0  0  0
 17 82  1  0  0  0  0
 18 19  1  0  0  0  0
 19 20  1  0  0  0  0
 19 83  1  0  0  0  0
 19 84  1  0  0  0  0
 20 21  1  1  0  0  0
 20 22  1  0  0  0  0
 20 40  1  0  0  0  0
 22 23  1  0  0  0  0
 23 24  1  0  0  0  0
 23 39  2  0  0  0  0
 24 25  1  0  0  0  0
 24 85  1  0  0  0  0
 24 86  1  0  0  0  0
 25 26  1  0  0  0  0
 25 87  1  0  0  0  0
 25 88  1  0  0  0  0
 26 27  1  0  0  0  0
 26 89  1  0  0  0  0
 26 90  1  0  0  0  0
 27 28  1  0  0  0  0
 27 91  1  0  0  0  0
 27 92  1  0  0  0  0
 28 29  1  0  0  0  0
 28 93  1  0  0  0  0
 28 94  1  0  0  0  0
 29 30  1  0  0  0  0
 29 95  1  0  0  0  0
 29 96  1  0  0  0  0
 30 31  1  0  0  0  0
 30 97  1  0  0  0  0
 30 98  1  0  0  0  0
 31 32  1  0  0  0  0
 31 99  1  0  0  0  0
 31100  1  0  0  0  0
 32 33  1  0  0  0  0
 32101  1  0  0  0  0
 32102  1  0  0  0  0
 33 34  1  0  0  0  0
 33103  1  0  0  0  0
 33104  1  0  0  0  0
 34 35  1  0  0  0  0
 34105  1  0  0  0  0
 34106  1  0  0  0  0
 35 36  1  0  0  0  0
 35107  1  0  0  0  0
 35108  1  0  0  0  0
 36 37  1  0  0  0  0
 36109  1  0  0  0  0
 36110  1  0  0  0  0
 37 38  1  0  0  0  0
 37111  1  0  0  0  0
 37112  1  0  0  0  0
 38113  1  0  0  0  0
 38114  1  0  0  0  0
 38115  1  0  0  0  0
 40 41  1  0  0  0  0
 40116  1  0  0  0  0
 40117  1  0  0  0  0
 41 42  1  0  0  0  0
 42 43  1  0  0  0  0
 42 49  1  0  0  0  0
 42 50  2  0  0  0  0
 43 44  1  0  0  0  0
 44 45  1  0  0  0  0
 44118  1  0  0  0  0
 44119  1  0  0  0  0
 45 46  1  0  0  0  0
 45 47  1  0  0  0  0
 45120  1  0  0  0  0
 46121  1  0  0  0  0
 47 48  1  0  0  0  0
 47122  1  0  0  0  0
 47123  1  0  0  0  0
 48124  1  0  0  0  0
M  CHG  2  49  -1  51   1
M  END
>  <DRUGBANK_ID>
DB14105

>  <COMMON_NAME>
Sodium 1,2-Dipalmitoyl-sn-glycero-3-phospho-(1'-rac-glycerol)

>  <CAS_NUMBER>
200880-41-7

>  <UNII>
841B886EJ7

>  <SYNONYMS>
1,2-dipalmitoyl-sn-glycero-3-phosphorylglycerol sodium salt; L-DPPG-Na; R-DPPG-Na

$$$$
