
 OpenBabel10282417173D

 48 51  0  0  0  0  0  0  0  0999 V2000
   -1.9820    2.8324   -1.1253 C   0  0  0  0  0  0  0  0  0  0  0  0
   -3.1133    3.2758   -0.1880 C   0  0  1  0  0  0  0  0  0  0  0  0
   -0.9847    4.2793   -0.9326 C   0  0  0  0  0  0  0  0  0  0  0  0
   -1.4448    1.5329   -1.1128 C   0  0  0  0  0  0  0  0  0  0  0  0
   -3.7681    2.1651    0.5044 C   0  0  0  0  0  0  0  0  0  0  0  0
   -1.8616    4.7812   -1.8931 C   0  0  0  0  0  0  0  0  0  0  0  0
   -0.8315    1.7666    0.1850 C   0  0  0  0  0  0  0  0  0  0  0  0
   -0.0434    0.5134   -1.3755 C   0  0  0  0  0  0  0  0  0  0  0  0
   -2.3557    1.3944    0.9391 C   0  0  0  0  0  0  0  0  0  0  0  0
    0.1382    2.5404   -0.5086 C   0  0  0  0  0  0  0  0  0  0  0  0
    1.4992    1.0986   -0.4162 C   0  0  0  0  0  0  0  0  0  0  0  0
    1.4851    2.6667   -0.2710 C   0  0  0  0  0  0  0  0  0  0  0  0
    1.9194    3.7033   -0.7796 O   0  0  0  0  0  0  0  0  0  0  0  0
   -2.4903    3.6122    0.6272 H   0  0  0  0  0  0  0  0  0  0  0  0
   -2.5761    6.8668   -1.5734 C   0  0  0  0  0  0  0  0  0  0  0  0
   -4.1640    4.2725   -1.7308 H   0  0  0  0  0  0  0  0  0  0  0  0
   -2.7585    5.5222    1.3527 C   0  0  1  0  0  0  0  0  0  0  0  0
   -2.6043    5.5290   -0.6398 C   0  0  2  0  0  0  0  0  0  0  0  0
   -3.8004    4.5505   -0.7441 C   0  0  1  0  0  0  0  0  0  0  0  0
   -4.8571    5.2622    0.0472 C   0  0  0  0  0  0  0  0  0  0  0  0
   -4.1055    6.1512    0.9933 C   0  0  0  0  0  0  0  0  0  0  0  0
   -2.4764    4.1962    2.5900 C   0  0  0  0  0  0  0  0  0  0  0  0
   -3.5415    3.2848    3.2542 C   0  0  0  0  0  0  0  0  0  0  0  0
   -4.1350    2.5096    3.7942 N   0  0  0  0  0  0  0  0  0  0  0  0
   -2.7334    6.5901    2.4169 O   0  0  0  0  0  0  0  0  0  0  0  0
   -0.1238    4.8216   -1.3230 H   0  0  0  0  0  0  0  0  0  0  0  0
   -0.8532    4.3784    0.1630 H   0  0  0  0  0  0  0  0  0  0  0  0
   -4.3223    2.9933    1.0273 H   0  0  0  0  0  0  0  0  0  0  0  0
   -4.2890    1.8262    1.4227 H   0  0  0  0  0  0  0  0  0  0  0  0
   -1.6542    5.3267   -2.8164 H   0  0  0  0  0  0  0  0  0  0  0  0
   -1.5605    3.9144   -2.5814 H   0  0  0  0  0  0  0  0  0  0  0  0
    0.0524    0.5508   -2.4664 H   0  0  0  0  0  0  0  0  0  0  0  0
   -0.3177   -0.4870   -1.0023 H   0  0  0  0  0  0  0  0  0  0  0  0
   -2.9383    0.5868    1.4243 H   0  0  0  0  0  0  0  0  0  0  0  0
   -2.1716    0.3880    0.5030 H   0  0  0  0  0  0  0  0  0  0  0  0
    0.5005    2.4345   -1.7380 H   0  0  0  0  0  0  0  0  0  0  0  0
    2.4861    0.8650   -0.7602 H   0  0  0  0  0  0  0  0  0  0  0  0
    1.3219    0.6663    0.5923 H   0  0  0  0  0  0  0  0  0  0  0  0
   -1.6839    6.8882   -2.2602 H   0  0  0  0  0  0  0  0  0  0  0  0
   -3.3806    6.8377   -2.3289 H   0  0  0  0  0  0  0  0  0  0  0  0
   -2.3616    7.8335   -1.1400 H   0  0  0  0  0  0  0  0  0  0  0  0
   -5.4827    5.9137   -0.5692 H   0  0  0  0  0  0  0  0  0  0  0  0
   -5.5070    4.5256    0.5031 H   0  0  0  0  0  0  0  0  0  0  0  0
   -4.7315    6.8300    1.5810 H   0  0  0  0  0  0  0  0  0  0  0  0
   -3.6348    7.0190    0.4703 H   0  0  0  0  0  0  0  0  0  0  0  0
   -1.5858    3.5867    2.3681 H   0  0  0  0  0  0  0  0  0  0  0  0
   -2.1030    4.6337    3.5427 H   0  0  0  0  0  0  0  0  0  0  0  0
   -2.7165    6.2341    3.3447 H   0  0  0  0  0  0  0  0  0  0  0  0
  1  2  1  0  0  0  0
  1  3  1  0  0  0  0
  1  4  2  0  0  0  0
  2  5  1  0  0  0  0
  2 19  1  0  0  0  0
  2 14  1  6  0  0  0
  3  6  1  0  0  0  0
  3 26  1  0  0  0  0
  3 27  1  0  0  0  0
  4  7  1  0  0  0  0
  4  8  1  0  0  0  0
  5  9  1  0  0  0  0
  5 28  1  0  0  0  0
  5 29  1  0  0  0  0
  6 18  1  0  0  0  0
  6 30  1  0  0  0  0
  6 31  1  0  0  0  0
  7 10  2  0  0  0  0
  7  9  1  0  0  0  0
  8 11  1  0  0  0  0
  8 32  1  0  0  0  0
  8 33  1  0  0  0  0
  9 34  1  0  0  0  0
  9 35  1  0  0  0  0
 10 12  1  0  0  0  0
 10 36  1  0  0  0  0
 11 12  1  0  0  0  0
 11 37  1  0  0  0  0
 11 38  1  0  0  0  0
 12 13  2  0  0  0  0
 15 39  1  0  0  0  0
 15 40  1  0  0  0  0
 15 41  1  0  0  0  0
 17 18  1  0  0  0  0
 17 21  1  0  0  0  0
 17 25  1  1  0  0  0
 17 22  1  0  0  0  0
 18 19  1  0  0  0  0
 18 15  1  6  0  0  0
 19 20  1  0  0  0  0
 19 16  1  1  0  0  0
 20 21  1  0  0  0  0
 20 42  1  0  0  0  0
 20 43  1  0  0  0  0
 21 44  1  0  0  0  0
 21 45  1  0  0  0  0
 22 23  1  0  0  0  0
 22 46  1  0  0  0  0
 22 47  1  0  0  0  0
 23 24  3  0  0  0  0
 25 48  1  0  0  0  0
M  END
>  <DRUGBANK_ID>
DB09123

>  <COMMON_NAME>
Dienogest

>  <CAS_NUMBER>
65928-58-7

>  <UNII>
46M3EV8HHE

>  <SYNONYMS>
17-alpha-Cyanomethyl-17-beta-hydroxy-estra-4,9(10)-dien-3-one; 17alpha-17-Hydroxy-3-oxo-19-norpregna-4,9-diene-21-nitrile; Dienogest; Dienogestril; Dienogestum; Endometrion

$$$$
