
 OpenBabel10282417133D

 49 51  0  0  1  0  0  0  0  0999 V2000
    0.9383    0.0546    0.0566 C   0  0  0  0  0  0  0  0  0  0  0  0
    1.2089    3.9942   -2.0570 C   0  0  0  0  0  0  0  0  0  0  0  0
    4.5894    2.8495    3.0159 C   0  0  0  0  0  0  0  0  0  0  0  0
    2.3940    5.6665    0.3346 C   0  0  0  0  0  0  0  0  0  0  0  0
    0.4316    1.4397    0.4243 C   0  0  2  0  0  0  0  0  0  0  0  0
    4.1145    5.1091    1.5130 C   0  0  0  0  0  0  0  0  0  0  0  0
   -0.0236    2.0831   -0.8920 C   0  0  2  0  0  0  0  0  0  0  0  0
    0.7254    3.4224   -0.9026 C   0  0  2  0  0  0  0  0  0  0  0  0
    5.3280    4.9483    2.2140 C   0  0  0  0  0  0  0  0  0  0  0  0
    3.1337    4.0814    1.5973 C   0  0  0  0  0  0  0  0  0  0  0  0
    0.8639    3.7290    0.6008 C   0  0  2  0  0  0  0  0  0  0  0  0
   -0.2345    2.7102   -1.7910 As  0  0  0  0  0  0  0  0  0  0  0  0
    6.3653    5.9879    2.1500 N   0  0  0  0  0  0  0  0  0  0  0  0
    5.5279    3.8298    2.9445 N   0  0  0  0  0  0  0  0  0  0  0  0
    3.4063    2.9509    2.3700 N   0  0  0  0  0  0  0  0  0  0  0  0
    3.6004    6.0516    0.7243 N   0  0  0  0  0  0  0  0  0  0  0  0
    2.0980    4.4891    0.8461 N   0  0  0  0  0  0  0  0  0  0  0  0
   -1.4113    2.3747   -0.8910 O   0  0  0  0  0  0  0  0  0  0  0  0
    0.0514    4.4361   -1.6066 O   0  0  0  0  0  0  0  0  0  0  0  0
    0.3254    1.3853   -0.6275 O   0  0  0  0  0  0  0  0  0  0  0  0
   -1.7060    3.5756   -1.0780 O   0  0  0  0  0  0  0  0  0  0  0  0
   -0.6441    2.0314   -3.2446 O   0  0  0  0  0  0  0  0  0  0  0  0
    3.4121    1.8433   -1.8921 O   0  0  0  0  0  0  0  0  0  0  0  0
    3.6008    4.1513   -2.0592 O   0  0  0  0  0  0  0  0  0  0  0  0
    2.2193    1.4103   -1.2523 O   0  0  0  0  0  0  0  0  0  0  0  0
    1.3892   -0.2968   -3.3655 O   0  0  0  0  0  0  0  0  0  0  0  0
    0.4649   -0.2949   -1.2357 O   0  0  0  0  0  0  0  0  0  0  0  0
    0.9140    2.5109    1.2744 O   0  0  0  0  0  0  0  0  0  0  0  0
    1.6183    2.0063   -3.5478 O   0  0  0  0  0  0  0  0  0  0  0  0
    2.6645    3.1383   -2.7623 P   0  0  3  0  0  0  0  0  0  0  0  0
    1.0416    0.8557   -2.3918 P   0  0  3  0  0  0  0  0  0  0  0  0
   -0.1504    1.0508    1.2336 H   0  0  0  0  0  0  0  0  0  0  0  0
    0.1660    1.4387   -1.7248 H   0  0  0  0  0  0  0  0  0  0  0  0
    1.6621    3.3722   -1.4173 H   0  0  0  0  0  0  0  0  0  0  0  0
    0.0367    4.3149    0.9433 H   0  0  0  0  0  0  0  0  0  0  0  0
    0.5816   -0.6570    0.7716 H   0  0  0  0  0  0  0  0  0  0  0  0
    2.0083    0.0546    0.0566 H   0  0  0  0  0  0  0  0  0  0  0  0
    1.4736    4.4329   -1.1176 H   0  0  0  0  0  0  0  0  0  0  0  0
    0.8850    4.7605   -2.7299 H   0  0  0  0  0  0  0  0  0  0  0  0
    4.7921    1.9750    3.5984 H   0  0  0  0  0  0  0  0  0  0  0  0
    1.7504    6.2325   -0.3060 H   0  0  0  0  0  0  0  0  0  0  0  0
    6.2093    6.8306    1.5969 H   0  0  0  0  0  0  0  0  0  0  0  0
    7.2410    5.8666    2.6588 H   0  0  0  0  0  0  0  0  0  0  0  0
   -1.6247    2.9776   -0.1222 H   0  0  0  0  0  0  0  0  0  0  0  0
   -0.8547    4.5738   -1.2067 H   0  0  0  0  0  0  0  0  0  0  0  0
    1.1208    0.9176   -1.0129 H   0  0  0  0  0  0  0  0  0  0  0  0
   -1.4586    3.9856   -0.2001 H   0  0  0  0  0  0  0  0  0  0  0  0
    2.9860    0.9770   -2.1526 H   0  0  0  0  0  0  0  0  0  0  0  0
    1.8312    2.1530   -0.7066 H   0  0  0  0  0  0  0  0  0  0  0  0
  1 36  1  0  0  0  0
  1 37  1  0  0  0  0
  2 38  1  0  0  0  0
  2 39  1  0  0  0  0
  3 40  1  0  0  0  0
  4 41  1  0  0  0  0
  5  1  1  0  0  0  0
  5 32  1  1  0  0  0
  7  5  1  0  0  0  0
  7 18  1  0  0  0  0
  7 33  1  6  0  0  0
  8  7  1  0  0  0  0
  8 19  1  0  0  0  0
  8 34  1  6  0  0  0
  9  6  2  0  0  0  0
 10  6  1  0  0  0  0
 11  8  1  0  0  0  0
 11 35  1  1  0  0  0
 11 17  1  0  0  0  0
 12  2  1  0  0  0  0
 13  9  1  0  0  0  0
 13 42  1  0  0  0  0
 13 43  1  0  0  0  0
 14  3  2  0  0  0  0
 14  9  1  0  0  0  0
 15  3  1  0  0  0  0
 15 10  2  0  0  0  0
 16  4  2  0  0  0  0
 16  6  1  0  0  0  0
 17  4  1  0  0  0  0
 17 10  1  0  0  0  0
 18 44  1  0  0  0  0
 19 45  1  0  0  0  0
 20 12  1  0  0  0  0
 20 46  1  0  0  0  0
 21 12  1  0  0  0  0
 21 47  1  0  0  0  0
 22 12  2  0  0  0  0
 23 48  1  0  0  0  0
 25 49  1  0  0  0  0
 27  1  1  0  0  0  0
 28  5  1  0  0  0  0
 28 11  1  0  0  0  0
 30  2  1  0  0  0  0
 30 23  1  0  0  0  0
 30 24  2  0  0  0  0
 30 29  1  0  0  0  0
 31 25  1  0  0  0  0
 31 26  2  0  0  0  0
 31 27  1  0  0  0  0
 31 29  1  0  0  0  0
M  END
>  <DRUGBANK_ID>
DB02937

>  <SECONDARY_ACCESSION_NUMBERS>
EXPT00589

>  <COMMON_NAME>
Gamma-Arsono-Beta, Gamma-Methyleneadenosine-5'-Diphosphate

$$$$
