
 OpenBabel10282417143D

 50 50  0  0  0  0  0  0  0  0999 V2000
    7.7606    0.4089    8.5773 I   0  0  0  0  0  0  0  0  0  0  0  0
    6.1853    2.5622    2.2524 S   0  0  0  0  0  0  0  0  0  0  0  0
    2.1338    0.2555    2.3706 O   0  0  0  0  0  0  0  0  0  0  0  0
    3.6844    4.5307    5.6761 O   0  0  0  0  0  0  0  0  0  0  0  0
    1.5063    5.6653    5.6291 O   0  0  0  0  0  0  0  0  0  0  0  0
    0.2238    4.6091    7.0869 O   0  0  0  0  0  0  0  0  0  0  0  0
    1.0301    5.3154    0.3749 O   0  0  0  0  0  0  0  0  0  0  0  0
    1.2326    3.1389    0.7019 O   0  0  0  0  0  0  0  0  0  0  0  0
    3.4223    1.7847    3.2841 N   0  0  0  0  0  0  0  0  0  0  0  0
    2.7066    4.7708    3.5536 N   0  0  0  0  0  0  0  0  0  0  0  0
    1.9281    2.0762    6.2628 N   0  0  0  0  0  0  0  0  0  0  0  0
    4.1657    2.7919    4.1454 C   0  0  1  0  0  0  0  0  0  0  0  0
    0.2022    2.5182    4.5005 C   0  0  0  0  0  0  0  0  0  0  0  0
    0.8507    2.1158    3.1682 C   0  0  0  0  0  0  0  0  0  0  0  0
    5.4237    3.4666    3.5891 C   0  0  0  0  0  0  0  0  0  0  0  0
    1.2247    3.0859    5.4498 C   0  0  1  0  0  0  0  0  0  0  0  0
    2.1606    1.3280    2.9903 C   0  0  0  0  0  0  0  0  0  0  0  0
    3.5379    4.1174    4.5170 C   0  0  0  0  0  0  0  0  0  0  0  0
    6.6776    1.0841    3.1811 C   0  0  0  0  0  0  0  0  0  0  0  0
    0.9639    4.5027    6.1563 C   0  0  0  0  0  0  0  0  0  0  0  0
    7.5664    1.3981    4.3505 C   0  0  0  0  0  0  0  0  0  0  0  0
    2.7282    4.6374    2.0697 C   0  0  0  0  0  0  0  0  0  0  0  0
    7.2852    0.9001    5.6323 C   0  0  0  0  0  0  0  0  0  0  0  0
    8.7040    2.1938    4.1579 C   0  0  0  0  0  0  0  0  0  0  0  0
    8.1428    1.1960    6.6922 C   0  0  0  0  0  0  0  0  0  0  0  0
    9.5381    2.5071    5.2224 C   0  0  0  0  0  0  0  0  0  0  0  0
    1.5969    4.2679    1.0027 C   0  0  0  0  0  0  0  0  0  0  0  0
    9.2627    2.0031    6.4915 C   0  0  0  0  0  0  0  0  0  0  0  0
    4.0093    0.9897    3.0542 H   0  0  0  0  0  0  0  0  0  0  0  0
    1.8461    5.2069    3.8952 H   0  0  0  0  0  0  0  0  0  0  0  0
    2.5140    2.5611    6.9420 H   0  0  0  0  0  0  0  0  0  0  0  0
    2.5851    1.5430    5.6820 H   0  0  0  0  0  0  0  0  0  0  0  0
    2.4644    5.7443    5.3853 H   0  0  0  0  0  0  0  0  0  0  0  0
    1.4986    6.1601    0.4566 H   0  0  0  0  0  0  0  0  0  0  0  0
    4.4715    2.2229    5.0421 H   0  0  0  0  0  0  0  0  0  0  0  0
   -0.5068    3.3242    4.2656 H   0  0  0  0  0  0  0  0  0  0  0  0
   -0.3114    1.6688    4.9347 H   0  0  0  0  0  0  0  0  0  0  0  0
    1.0997    3.0809    2.7825 H   0  0  0  0  0  0  0  0  0  0  0  0
    0.0921    1.7390    2.4655 H   0  0  0  0  0  0  0  0  0  0  0  0
    6.0830    3.7209    4.4366 H   0  0  0  0  0  0  0  0  0  0  0  0
    5.1943    4.4626    3.1802 H   0  0  0  0  0  0  0  0  0  0  0  0
    1.9091    3.2208    4.6857 H   0  0  0  0  0  0  0  0  0  0  0  0
    7.2053    0.4591    2.4639 H   0  0  0  0  0  0  0  0  0  0  0  0
    5.8099    0.5102    3.5179 H   0  0  0  0  0  0  0  0  0  0  0  0
    3.1019    5.6125    1.7667 H   0  0  0  0  0  0  0  0  0  0  0  0
    3.4877    3.8943    1.8735 H   0  0  0  0  0  0  0  0  0  0  0  0
    6.4083    0.2778    5.8028 H   0  0  0  0  0  0  0  0  0  0  0  0
    8.9323    2.5873    3.1683 H   0  0  0  0  0  0  0  0  0  0  0  0
   10.4058    3.1377    5.0523 H   0  0  0  0  0  0  0  0  0  0  0  0
    9.9356    2.2430    7.3094 H   0  0  0  0  0  0  0  0  0  0  0  0
  1 25  1  0  0  0  0
  2 15  1  0  0  0  0
  2 19  1  0  0  0  0
  3 17  2  0  0  0  0
  4 18  2  0  0  0  0
  5 20  1  0  0  0  0
  5 33  1  0  0  0  0
  6 20  2  0  0  0  0
  7 27  1  0  0  0  0
  7 34  1  0  0  0  0
  8 27  2  0  0  0  0
  9 17  1  0  0  0  0
  9 29  1  0  0  0  0
 10 18  1  0  0  0  0
 10 22  1  0  0  0  0
 10 30  1  0  0  0  0
 11 31  1  0  0  0  0
 11 32  1  0  0  0  0
 12 18  1  0  0  0  0
 12 35  1  1  0  0  0
 12 15  1  0  0  0  0
 12  9  1  0  0  0  0
 13 14  1  0  0  0  0
 13 36  1  0  0  0  0
 13 37  1  0  0  0  0
 14 17  1  0  0  0  0
 14 38  1  0  0  0  0
 14 39  1  0  0  0  0
 15 40  1  0  0  0  0
 15 41  1  0  0  0  0
 16 20  1  0  0  0  0
 16 42  1  6  0  0  0
 16 13  1  0  0  0  0
 16 11  1  0  0  0  0
 19 21  1  0  0  0  0
 19 43  1  0  0  0  0
 19 44  1  0  0  0  0
 21 23  2  0  0  0  0
 21 24  1  0  0  0  0
 22 27  1  0  0  0  0
 22 45  1  0  0  0  0
 22 46  1  0  0  0  0
 23 25  1  0  0  0  0
 23 47  1  0  0  0  0
 24 26  2  0  0  0  0
 24 48  1  0  0  0  0
 25 28  2  0  0  0  0
 26 28  1  0  0  0  0
 26 49  1  0  0  0  0
 28 50  1  0  0  0  0
M  END
>  <DRUGBANK_ID>
DB04341

>  <SECONDARY_ACCESSION_NUMBERS>
EXPT01551

>  <COMMON_NAME>
S-(3-Iodobenzyl)glutathione

$$$$
