
 OpenBabel10282417203D

 16 16  0  0  0  0  0  0  0  0999 V2000
    0.9206    0.0074    0.0604 O   0  5  0  0  0  0  0  0  0  0  0  0
    2.2906    0.0074    0.0604 N   0  3  0  0  0  0  0  0  0  0  0  0
    2.9037   -0.6056   -0.8067 O   0  0  0  0  0  0  0  0  0  0  0  0
    2.9756    0.6923    1.0292 O   0  0  0  0  0  0  0  0  0  0  0  0
    4.9556    0.6923    1.0292 Hg  0  0  0  0  0  0  0  0  0  0  0  0
    7.0356    0.6923    1.0292 C   0  0  0  0  0  0  0  0  0  0  0  0
    7.7593    0.3618   -0.1503 C   0  0  0  0  0  0  0  0  0  0  0  0
    9.1316    0.0770   -0.0595 C   0  0  0  0  0  0  0  0  0  0  0  0
    9.7879    0.3749    1.0231 C   0  0  0  0  0  0  0  0  0  0  0  0
    9.1298    0.9900    2.0964 C   0  0  0  0  0  0  0  0  0  0  0  0
    7.7143    1.0022    2.1352 C   0  0  0  0  0  0  0  0  0  0  0  0
    7.2628    0.3305   -1.0976 H   0  0  0  0  0  0  0  0  0  0  0  0
    9.6374   -0.3853   -0.8814 H   0  0  0  0  0  0  0  0  0  0  0  0
   10.8315    0.1501    1.0943 H   0  0  0  0  0  0  0  0  0  0  0  0
    9.6936    1.4479    2.8822 H   0  0  0  0  0  0  0  0  0  0  0  0
    7.1973    1.2558    3.0370 H   0  0  0  0  0  0  0  0  0  0  0  0
  1  2  1  0  0  0  0
  2  3  2  0  0  0  0
  2  4  1  0  0  0  0
  4  5  1  0  0  0  0
  5  6  1  0  0  0  0
  6  7  2  0  0  0  0
  6 11  1  0  0  0  0
  7  8  1  0  0  0  0
  7 12  1  0  0  0  0
  8  9  2  0  0  0  0
  8 13  1  0  0  0  0
  9 10  1  0  0  0  0
  9 14  1  0  0  0  0
 10 11  2  0  0  0  0
 10 15  1  0  0  0  0
 11 16  1  0  0  0  0
M  CHG  2   1  -1   2   1
M  END
>  <DRUGBANK_ID>
DB13388

>  <COMMON_NAME>
Phenylmercuric nitrate

>  <CAS_NUMBER>
55-68-5

>  <UNII>
CG8692ZN14

$$$$
