
 OpenBabel10282417223D

 28 29  0  0  1  0  0  0  0  0999 V2000
    5.2661    2.3513   -1.7975 N   0  0  0  0  0  0  0  0  0  0  0  0
    4.8142    3.8996   -1.4893 S   0  0  0  0  0  0  0  0  0  0  0  0
    5.9104    4.1933   -0.6306 O   0  0  0  0  0  0  0  0  0  0  0  0
    4.6961    4.6894   -2.7085 O   0  0  0  0  0  0  0  0  0  0  0  0
    3.2034    3.6459   -0.9010 N   0  0  0  0  0  0  0  0  0  0  0  0
    2.6293    2.6454    0.0935 C   0  0  0  0  0  0  0  0  0  0  0  0
    2.8707    2.9486    1.6125 C   0  0  1  0  0  0  0  0  0  0  0  0
    4.3559    3.0379    1.8398 C   0  0  0  0  0  0  0  0  0  0  0  0
    4.8616    4.2554    1.3118 O   0  0  0  0  0  0  0  0  0  0  0  0
    4.0324    5.3329    1.1855 C   0  0  0  0  0  0  0  0  0  0  0  0
    2.7764    5.3146    1.7425 C   0  0  0  0  0  0  0  0  0  0  0  0
    2.1916    4.1347    2.1321 O   0  0  0  0  0  0  0  0  0  0  0  0
    2.1096    6.5343    1.8292 C   0  0  0  0  0  0  0  0  0  0  0  0
    2.5988    7.6817    1.1586 C   0  0  0  0  0  0  0  0  0  0  0  0
    3.7366    7.6050    0.3737 C   0  0  0  0  0  0  0  0  0  0  0  0
    4.2842    8.9430   -0.5621 Cl  0  0  0  0  0  0  0  0  0  0  0  0
    4.4638    6.4337    0.4047 C   0  0  0  0  0  0  0  0  0  0  0  0
    6.2933    2.4733   -1.7292 H   0  0  0  0  0  0  0  0  0  0  0  0
    5.0485    1.8265   -0.9555 H   0  0  0  0  0  0  0  0  0  0  0  0
    2.6893    4.5315   -0.8297 H   0  0  0  0  0  0  0  0  0  0  0  0
    1.5305    2.6030   -0.0357 H   0  0  0  0  0  0  0  0  0  0  0  0
    2.9710    1.6393   -0.1823 H   0  0  0  0  0  0  0  0  0  0  0  0
    2.4752    2.0946    2.1942 H   0  0  0  0  0  0  0  0  0  0  0  0
    4.6906    3.0256    2.8727 H   0  0  0  0  0  0  0  0  0  0  0  0
    4.8299    2.1721    1.3412 H   0  0  0  0  0  0  0  0  0  0  0  0
    1.2082    6.6212    2.4237 H   0  0  0  0  0  0  0  0  0  0  0  0
    2.0846    8.6344    1.2358 H   0  0  0  0  0  0  0  0  0  0  0  0
    5.3508    6.3860   -0.2251 H   0  0  0  0  0  0  0  0  0  0  0  0
  1  2  1  0  0  0  0
  1 18  1  0  0  0  0
  1 19  1  0  0  0  0
  2  3  2  0  0  0  0
  2  4  2  0  0  0  0
  2  5  1  0  0  0  0
  5  6  1  0  0  0  0
  5 20  1  0  0  0  0
  6 21  1  0  0  0  0
  6 22  1  0  0  0  0
  7  8  1  0  0  0  0
  7 12  1  0  0  0  0
  7 23  1  1  0  0  0
  7  6  1  0  0  0  0
  8  9  1  0  0  0  0
  8 24  1  0  0  0  0
  8 25  1  0  0  0  0
  9 10  1  0  0  0  0
 10 11  2  0  0  0  0
 10 17  1  0  0  0  0
 11 12  1  0  0  0  0
 11 13  1  0  0  0  0
 13 14  2  0  0  0  0
 13 26  1  0  0  0  0
 14 15  1  0  0  0  0
 14 27  1  0  0  0  0
 15 16  1  0  0  0  0
 15 17  2  0  0  0  0
 17 28  1  0  0  0  0
M  END
>  <DRUGBANK_ID>
DB15203

>  <COMMON_NAME>
JNJ-26489112

>  <CAS_NUMBER>
871824-55-4

>  <UNII>
G1TI012DLT

$$$$
