
 OpenBabel10282417183D

176183  0  0  0  0  0  0  0  0999 V2000
  -11.1225   -7.9764   15.6935 C   0  0  0  0  0  0  0  0  0  0  0  0
  -12.3620   -8.4871   16.0327 C   0  0  0  0  0  0  0  0  0  0  0  0
  -12.2077   -9.3466   17.0831 N   0  0  0  0  0  0  0  0  0  0  0  0
   -9.3409   -8.8217    5.7475 C   0  0  0  0  0  0  0  0  0  0  0  0
   -9.5027   -8.5831    4.2501 C   0  0  0  0  0  0  0  0  0  0  0  0
   -9.2028   -7.1088    4.1266 C   0  0  0  0  0  0  0  0  0  0  0  0
   -9.4487   -6.5330    5.3648 N   0  0  0  0  0  0  0  0  0  0  0  0
   -9.7411   -7.4978    6.4038 C   0  0  2  0  0  0  0  0  0  0  0  0
  -17.0475   -4.9930   10.9701 C   0  0  0  0  0  0  0  0  0  0  0  0
  -17.7372   -5.8449   11.8368 C   0  0  0  0  0  0  0  0  0  0  0  0
  -18.4240   -6.9519   11.3310 C   0  0  0  0  0  0  0  0  0  0  0  0
  -17.0304   -5.2121    9.5823 C   0  0  0  0  0  0  0  0  0  0  0  0
  -17.7409   -6.3113    9.0969 C   0  0  0  0  0  0  0  0  0  0  0  0
  -18.4324   -7.1767    9.9395 C   0  0  0  0  0  0  0  0  0  0  0  0
  -18.9840   -8.1970    9.1262 C   0  0  0  0  0  0  0  0  0  0  0  0
  -18.6566   -7.9136    7.8171 C   0  0  0  0  0  0  0  0  0  0  0  0
  -17.8685   -6.7977    7.8160 N   0  0  0  0  0  0  0  0  0  0  0  0
  -19.7689   -9.3462    9.6219 C   0  0  0  0  0  0  0  0  0  0  0  0
  -19.2089  -10.6812    9.1716 C   0  0  1  0  0  0  0  0  0  0  0  0
  -17.7928  -10.8920    9.6010 N   0  0  0  0  0  0  0  0  0  0  0  0
  -16.7468  -10.8414    8.6842 C   0  0  0  0  0  0  0  0  0  0  0  0
  -15.3045  -11.0570    9.2158 C   0  0  1  0  0  0  0  0  0  0  0  0
  -15.1038  -10.3751   10.4796 N   0  0  0  0  0  0  0  0  0  0  0  0
  -14.5328   -9.1215   10.4089 C   0  0  0  0  0  0  0  0  0  0  0  0
  -14.3351   -8.4198   11.7421 C   0  0  1  0  0  0  0  0  0  0  0  0
  -12.9842   -7.9619   11.9196 N   0  0  0  0  0  0  0  0  0  0  0  0
  -12.2256   -8.5532   12.8797 C   0  0  0  0  0  0  0  0  0  0  0  0
  -10.8577   -7.9163   13.1428 C   0  0  1  0  0  0  0  0  0  0  0  0
  -10.4496   -7.0515   12.0028 N   0  0  0  0  0  0  0  0  0  0  0  0
   -9.3718   -7.4088   11.2053 C   0  0  0  0  0  0  0  0  0  0  0  0
   -8.9207   -6.4435   10.0682 C   0  0  1  0  0  0  0  0  0  0  0  0
   -9.6107   -6.7660    8.7872 N   0  0  0  0  0  0  0  0  0  0  0  0
   -8.9084   -7.2331    7.6848 C   0  0  0  0  0  0  0  0  0  0  0  0
  -16.9611  -10.7926    7.4728 O   0  0  0  0  0  0  0  0  0  0  0  0
  -14.1924   -8.6127    9.3406 O   0  0  0  0  0  0  0  0  0  0  0  0
  -12.6989   -9.4842   13.5274 O   0  0  0  0  0  0  0  0  0  0  0  0
   -8.8617   -8.5232   11.3277 O   0  0  0  0  0  0  0  0  0  0  0  0
   -7.6844   -7.3418    7.6864 O   0  0  0  0  0  0  0  0  0  0  0  0
   -8.8716   -6.5235    3.1337 O   0  0  0  0  0  0  0  0  0  0  0  0
  -14.8620  -12.5135    9.2642 C   0  0  0  0  0  0  0  0  0  0  0  0
  -10.7893   -7.1475   14.4823 C   0  0  0  0  0  0  0  0  0  0  0  0
  -20.1951  -11.7473    9.7050 C   0  0  0  0  0  0  0  0  0  0  0  0
  -15.1702   -7.1933   11.7221 C   0  0  0  0  0  0  0  0  0  0  0  0
   -9.0922   -4.9637   10.4355 C   0  0  0  0  0  0  0  0  0  0  0  0
  -21.1159  -11.5282   10.4881 O   0  0  0  0  0  0  0  0  0  0  0  0
  -20.0665  -13.0120    9.2574 N   0  0  0  0  0  0  0  0  0  0  0  0
  -18.9924  -13.4209    8.4439 C   0  0  1  0  0  0  0  0  0  0  0  0
  -17.9505  -14.0030    9.4527 C   0  0  0  0  0  0  0  0  0  0  0  0
  -18.2205  -15.4172    9.8045 C   0  0  0  0  0  0  0  0  0  0  0  0
  -17.9850  -15.8421    8.1554 C   0  0  0  0  0  0  0  0  0  0  0  0
  -17.5365  -16.0226   11.1493 C   0  0  0  0  0  0  0  0  0  0  0  0
  -19.6042  -14.1344    7.1070 C   0  0  0  0  0  0  0  0  0  0  0  0
  -19.2361  -13.7491    5.9853 O   0  0  0  0  0  0  0  0  0  0  0  0
  -20.2856  -15.3642    7.1613 N   0  0  0  0  0  0  0  0  0  0  0  0
  -14.8401  -13.1410    7.8773 C   0  0  0  0  0  0  0  0  0  0  0  0
  -15.2745  -14.4250    7.7466 C   0  0  0  0  0  0  0  0  0  0  0  0
  -15.6289  -14.9948    6.4955 C   0  0  0  0  0  0  0  0  0  0  0  0
  -15.3175  -14.4111    5.3236 C   0  0  0  0  0  0  0  0  0  0  0  0
  -14.6962  -13.1961    5.4130 C   0  0  0  0  0  0  0  0  0  0  0  0
  -14.4885  -12.5541    6.6694 C   0  0  0  0  0  0  0  0  0  0  0  0
  -15.5750  -15.0761    4.1685 O   0  0  0  0  0  0  0  0  0  0  0  0
  -10.2450   -8.3517   16.7589 C   0  0  0  0  0  0  0  0  0  0  0  0
  -10.9547   -9.1943   17.6179 C   0  0  0  0  0  0  0  0  0  0  0  0
  -10.4084   -9.7286   18.7879 C   0  0  0  0  0  0  0  0  0  0  0  0
   -9.1066   -9.3449   19.1161 C   0  0  0  0  0  0  0  0  0  0  0  0
   -8.3677   -8.5131   18.2770 C   0  0  0  0  0  0  0  0  0  0  0  0
   -8.9134   -8.0336   17.0825 C   0  0  0  0  0  0  0  0  0  0  0  0
  -15.2600  -17.3818    8.5980 C   0  0  0  0  0  0  0  0  0  0  0  0
  -16.4745  -17.5460    9.4659 C   0  0  0  0  0  0  0  0  0  0  0  0
  -17.6394  -18.1230    8.7190 N   0  0  0  0  0  0  0  0  0  0  0  0
  -16.8868  -18.8586    7.7342 C   0  0  1  0  0  0  0  0  0  0  0  0
  -15.3372  -18.5273    7.7119 C   0  0  0  0  0  0  0  0  0  0  0  0
  -20.3141  -16.4452    8.3204 C   0  0  2  0  0  0  0  0  0  0  0  0
  -19.1509  -17.9816    8.4016 C   0  0  0  0  0  0  0  0  0  0  0  0
  -19.5992  -18.9896    7.8087 O   0  0  0  0  0  0  0  0  0  0  0  0
  -21.7899  -16.5565    8.6831 C   0  0  0  0  0  0  0  0  0  0  0  0
  -22.1250  -17.9997    8.6828 C   0  0  0  0  0  0  0  0  0  0  0  0
  -16.8973  -20.2603    8.2801 C   0  0  0  0  0  0  0  0  0  0  0  0
  -16.7559  -20.5371    9.4270 O   0  0  0  0  0  0  0  0  0  0  0  0
  -16.8826  -21.1937    7.2827 N   0  0  0  0  0  0  0  0  0  0  0  0
  -16.9952  -20.9110    5.8764 C   0  0  0  0  0  0  0  0  0  0  0  0
  -15.7272  -21.3118    5.1817 C   0  0  0  0  0  0  0  0  0  0  0  0
  -21.4456  -18.7274    9.8393 C   0  0  0  0  0  0  0  0  0  0  0  0
  -21.9334  -18.2230   11.1051 N   0  0  0  0  0  0  0  0  0  0  0  0
  -22.2515  -19.1568   12.0162 C   0  0  0  0  0  0  0  0  0  0  0  0
  -22.3549  -18.6810   13.2608 N   0  0  0  0  0  0  0  0  0  0  0  0
  -22.4404  -20.3798   11.6858 N   0  0  0  0  0  0  0  0  0  0  0  0
  -14.7217   -6.3277   10.6808 O   0  0  0  0  0  0  0  0  0  0  0  0
  -10.8165   -7.4543    6.6043 H   0  0  0  0  0  0  0  0  0  0  0  0
   -7.8488   -4.1512   10.5520 C   0  0  0  0  0  0  0  0  0  0  0  0
   -6.7174   -4.5913   11.1942 N   0  0  0  0  0  0  0  0  0  0  0  0
   -5.8714   -3.5840   11.1433 C   0  0  0  0  0  0  0  0  0  0  0  0
   -6.4306   -2.4910   10.5439 N   0  0  0  0  0  0  0  0  0  0  0  0
   -7.6962   -2.8358   10.1704 C   0  0  0  0  0  0  0  0  0  0  0  0
  -13.3250   -8.4090   15.5484 H   0  0  0  0  0  0  0  0  0  0  0  0
  -12.9304   -9.9493   17.4516 H   0  0  0  0  0  0  0  0  0  0  0  0
   -9.9414   -9.6633    6.1030 H   0  0  0  0  0  0  0  0  0  0  0  0
   -8.2901   -9.0657    5.9491 H   0  0  0  0  0  0  0  0  0  0  0  0
  -10.5283   -8.7648    3.9156 H   0  0  0  0  0  0  0  0  0  0  0  0
   -8.8019   -9.1799    3.6614 H   0  0  0  0  0  0  0  0  0  0  0  0
   -9.2824   -5.5438    5.4970 H   0  0  0  0  0  0  0  0  0  0  0  0
  -16.3342   -4.2836   11.3882 H   0  0  0  0  0  0  0  0  0  0  0  0
  -17.5595   -5.7839   12.9095 H   0  0  0  0  0  0  0  0  0  0  0  0
  -18.8213   -7.7027   12.0089 H   0  0  0  0  0  0  0  0  0  0  0  0
  -16.3637   -4.6471    8.9384 H   0  0  0  0  0  0  0  0  0  0  0  0
  -18.8846   -8.4357    6.8954 H   0  0  0  0  0  0  0  0  0  0  0  0
  -17.4609   -6.3793    6.9918 H   0  0  0  0  0  0  0  0  0  0  0  0
  -20.8019   -9.2404    9.2684 H   0  0  0  0  0  0  0  0  0  0  0  0
  -19.8110   -9.3423   10.7176 H   0  0  0  0  0  0  0  0  0  0  0  0
  -19.2559  -10.7159    8.0740 H   0  0  0  0  0  0  0  0  0  0  0  0
  -17.5824  -10.8549   10.5869 H   0  0  0  0  0  0  0  0  0  0  0  0
  -14.6479  -10.5784    8.4870 H   0  0  0  0  0  0  0  0  0  0  0  0
  -15.2947  -10.8209   11.3696 H   0  0  0  0  0  0  0  0  0  0  0  0
  -14.6879   -9.0569   12.5609 H   0  0  0  0  0  0  0  0  0  0  0  0
  -12.5676   -7.4278   11.1691 H   0  0  0  0  0  0  0  0  0  0  0  0
  -10.1828   -8.7731   13.1945 H   0  0  0  0  0  0  0  0  0  0  0  0
  -10.9350   -6.1739   11.8823 H   0  0  0  0  0  0  0  0  0  0  0  0
   -7.8539   -6.6639    9.9357 H   0  0  0  0  0  0  0  0  0  0  0  0
  -10.6178   -6.6856    8.7330 H   0  0  0  0  0  0  0  0  0  0  0  0
  -13.8760  -12.6325    9.7305 H   0  0  0  0  0  0  0  0  0  0  0  0
  -15.5327  -13.0366    9.9649 H   0  0  0  0  0  0  0  0  0  0  0  0
  -11.4364   -6.2608   14.4727 H   0  0  0  0  0  0  0  0  0  0  0  0
   -9.7652   -6.7616   14.5869 H   0  0  0  0  0  0  0  0  0  0  0  0
  -16.1644   -7.5717   11.5335 H   0  0  0  0  0  0  0  0  0  0  0  0
  -15.1488   -6.6436   12.6702 H   0  0  0  0  0  0  0  0  0  0  0  0
   -9.7291   -4.4829    9.6829 H   0  0  0  0  0  0  0  0  0  0  0  0
   -9.6015   -4.8310   11.3927 H   0  0  0  0  0  0  0  0  0  0  0  0
  -20.6664  -13.7118    9.6640 H   0  0  0  0  0  0  0  0  0  0  0  0
  -18.4360  -12.6020    7.9910 H   0  0  0  0  0  0  0  0  0  0  0  0
  -17.0626  -14.0208    8.8732 H   0  0  0  0  0  0  0  0  0  0  0  0
  -17.6526  -13.4291   10.3219 H   0  0  0  0  0  0  0  0  0  0  0  0
  -19.2020  -15.3947   10.2823 H   0  0  0  0  0  0  0  0  0  0  0  0
  -17.0749  -16.2408    7.8710 H   0  0  0  0  0  0  0  0  0  0  0  0
  -18.5414  -16.4633    7.4481 H   0  0  0  0  0  0  0  0  0  0  0  0
  -17.8974  -15.0158    7.4922 H   0  0  0  0  0  0  0  0  0  0  0  0
  -17.7450  -15.4766   12.0651 H   0  0  0  0  0  0  0  0  0  0  0  0
  -17.9106  -17.0561   11.3156 H   0  0  0  0  0  0  0  0  0  0  0  0
  -16.4332  -16.0363   11.1849 H   0  0  0  0  0  0  0  0  0  0  0  0
  -20.3232  -15.7525    6.2218 H   0  0  0  0  0  0  0  0  0  0  0  0
  -15.4456  -14.9233    8.6965 H   0  0  0  0  0  0  0  0  0  0  0  0
  -16.1621  -15.9289    6.3660 H   0  0  0  0  0  0  0  0  0  0  0  0
  -14.3864  -12.7222    4.4966 H   0  0  0  0  0  0  0  0  0  0  0  0
  -14.0621  -11.5620    6.6622 H   0  0  0  0  0  0  0  0  0  0  0  0
  -16.0552  -15.9045    4.3670 H   0  0  0  0  0  0  0  0  0  0  0  0
  -10.9815  -10.3825   19.4369 H   0  0  0  0  0  0  0  0  0  0  0  0
   -8.6658   -9.6969   20.0450 H   0  0  0  0  0  0  0  0  0  0  0  0
   -7.3584   -8.2217   18.5539 H   0  0  0  0  0  0  0  0  0  0  0  0
   -8.3294   -7.3837   16.4387 H   0  0  0  0  0  0  0  0  0  0  0  0
  -15.4289  -16.6301    7.8831 H   0  0  0  0  0  0  0  0  0  0  0  0
  -14.3647  -16.9661    9.0691 H   0  0  0  0  0  0  0  0  0  0  0  0
  -16.2162  -18.1098   10.3561 H   0  0  0  0  0  0  0  0  0  0  0  0
  -16.5309  -16.5049    9.5655 H   0  0  0  0  0  0  0  0  0  0  0  0
  -17.3505  -18.5782    6.7960 H   0  0  0  0  0  0  0  0  0  0  0  0
  -14.9702  -18.2388    6.7153 H   0  0  0  0  0  0  0  0  0  0  0  0
  -14.6566  -19.2381    8.1742 H   0  0  0  0  0  0  0  0  0  0  0  0
  -20.1324  -15.7935    9.1173 H   0  0  0  0  0  0  0  0  0  0  0  0
  -21.9963  -16.0870    9.6648 H   0  0  0  0  0  0  0  0  0  0  0  0
  -22.4158  -15.9737    7.9923 H   0  0  0  0  0  0  0  0  0  0  0  0
  -23.2057  -18.1190    8.7317 H   0  0  0  0  0  0  0  0  0  0  0  0
  -21.8112  -18.3846    7.7071 H   0  0  0  0  0  0  0  0  0  0  0  0
  -16.8532  -22.1296    7.6570 H   0  0  0  0  0  0  0  0  0  0  0  0
  -17.8972  -21.4059    5.5254 H   0  0  0  0  0  0  0  0  0  0  0  0
  -17.1315  -19.8586    5.6260 H   0  0  0  0  0  0  0  0  0  0  0  0
  -15.5669  -22.3815    5.3105 H   0  0  0  0  0  0  0  0  0  0  0  0
  -15.7992  -21.0620    4.1218 H   0  0  0  0  0  0  0  0  0  0  0  0
  -14.8651  -20.7772    5.6018 H   0  0  0  0  0  0  0  0  0  0  0  0
  -21.5935  -19.7924    9.6484 H   0  0  0  0  0  0  0  0  0  0  0  0
  -20.3707  -18.6400    9.9814 H   0  0  0  0  0  0  0  0  0  0  0  0
  -21.4080  -17.4307   11.4562 H   0  0  0  0  0  0  0  0  0  0  0  0
  -22.8710  -19.2441   13.9202 H   0  0  0  0  0  0  0  0  0  0  0  0
  -22.3767  -17.6842   13.4174 H   0  0  0  0  0  0  0  0  0  0  0  0
  -22.6784  -20.9492   12.4864 H   0  0  0  0  0  0  0  0  0  0  0  0
  -13.9566   -5.8298   10.9858 H   0  0  0  0  0  0  0  0  0  0  0  0
   -4.8566   -3.5747   11.5211 H   0  0  0  0  0  0  0  0  0  0  0  0
   -5.9885   -1.5920   10.4084 H   0  0  0  0  0  0  0  0  0  0  0  0
   -8.3721   -2.1432    9.6912 H   0  0  0  0  0  0  0  0  0  0  0  0
  1  2  2  0  0  0  0
  2  3  1  0  0  0  0
  2 95  1  0  0  0  0
  3 63  1  0  0  0  0
  3 96  1  0  0  0  0
  4  5  1  0  0  0  0
  4 97  1  0  0  0  0
  4 98  1  0  0  0  0
  5  6  1  0  0  0  0
  5 99  1  0  0  0  0
  5100  1  0  0  0  0
  6  7  1  0  0  0  0
  6 39  2  0  0  0  0
  7  8  1  0  0  0  0
  7101  1  0  0  0  0
  8  4  1  0  0  0  0
  8 89  1  1  0  0  0
  9 10  2  0  0  0  0
  9102  1  0  0  0  0
 10 11  1  0  0  0  0
 10103  1  0  0  0  0
 11 14  2  0  0  0  0
 11104  1  0  0  0  0
 12  9  1  0  0  0  0
 12105  1  0  0  0  0
 13 12  2  0  0  0  0
 13 14  1  0  0  0  0
 14 15  1  0  0  0  0
 15 18  1  0  0  0  0
 15 16  2  0  0  0  0
 16 17  1  0  0  0  0
 16106  1  0  0  0  0
 17 13  1  0  0  0  0
 17107  1  0  0  0  0
 18 19  1  0  0  0  0
 18108  1  0  0  0  0
 18109  1  0  0  0  0
 19 42  1  0  0  0  0
 19 20  1  0  0  0  0
 19110  1  6  0  0  0
 20 21  1  0  0  0  0
 20111  1  0  0  0  0
 21 34  2  0  0  0  0
 22 40  1  0  0  0  0
 22112  1  6  0  0  0
 22 23  1  0  0  0  0
 22 21  1  0  0  0  0
 23 24  1  0  0  0  0
 23113  1  0  0  0  0
 24 25  1  0  0  0  0
 24 35  2  0  0  0  0
 25 43  1  0  0  0  0
 25 26  1  0  0  0  0
 25114  1  1  0  0  0
 26 27  1  0  0  0  0
 26115  1  0  0  0  0
 27 28  1  0  0  0  0
 27 36  2  0  0  0  0
 28 29  1  0  0  0  0
 28 41  1  0  0  0  0
 28116  1  1  0  0  0
 29 30  1  0  0  0  0
 29117  1  0  0  0  0
 30 37  2  0  0  0  0
 31 32  1  0  0  0  0
 31118  1  6  0  0  0
 31 30  1  0  0  0  0
 31 44  1  0  0  0  0
 32 33  1  0  0  0  0
 32119  1  0  0  0  0
 33  8  1  0  0  0  0
 33 38  2  0  0  0  0
 40 55  1  0  0  0  0
 40120  1  0  0  0  0
 40121  1  0  0  0  0
 41  1  1  0  0  0  0
 41122  1  0  0  0  0
 41123  1  0  0  0  0
 42 45  2  0  0  0  0
 42 46  1  0  0  0  0
 43 88  1  0  0  0  0
 43124  1  0  0  0  0
 43125  1  0  0  0  0
 44 90  1  0  0  0  0
 44126  1  0  0  0  0
 44127  1  0  0  0  0
 46 47  1  0  0  0  0
 46128  1  0  0  0  0
 47 48  1  0  0  0  0
 47 52  1  0  0  0  0
 47129  1  6  0  0  0
 48 49  1  0  0  0  0
 48130  1  0  0  0  0
 48131  1  0  0  0  0
 49 50  1  0  0  0  0
 49 51  1  0  0  0  0
 49132  1  0  0  0  0
 50133  1  0  0  0  0
 50134  1  0  0  0  0
 50135  1  0  0  0  0
 51136  1  0  0  0  0
 51137  1  0  0  0  0
 51138  1  0  0  0  0
 52 53  2  0  0  0  0
 52 54  1  0  0  0  0
 54 73  1  0  0  0  0
 54139  1  0  0  0  0
 55 56  2  0  0  0  0
 56 57  1  0  0  0  0
 56140  1  0  0  0  0
 57 58  2  0  0  0  0
 57141  1  0  0  0  0
 58 59  1  0  0  0  0
 58 61  1  0  0  0  0
 59 60  2  0  0  0  0
 59142  1  0  0  0  0
 60 55  1  0  0  0  0
 60143  1  0  0  0  0
 61144  1  0  0  0  0
 62 63  2  0  0  0  0
 62  1  1  0  0  0  0
 63 64  1  0  0  0  0
 64 65  2  0  0  0  0
 64145  1  0  0  0  0
 65 66  1  0  0  0  0
 65146  1  0  0  0  0
 66 67  2  0  0  0  0
 66147  1  0  0  0  0
 67 62  1  0  0  0  0
 67148  1  0  0  0  0
 68 69  1  0  0  0  0
 68149  1  0  0  0  0
 68150  1  0  0  0  0
 69 70  1  0  0  0  0
 69151  1  0  0  0  0
 69152  1  0  0  0  0
 70 71  1  0  0  0  0
 71 72  1  0  0  0  0
 71153  1  6  0  0  0
 71 78  1  0  0  0  0
 72 68  1  0  0  0  0
 72154  1  0  0  0  0
 72155  1  0  0  0  0
 73156  1  1  0  0  0
 73 76  1  0  0  0  0
 73 74  1  0  0  0  0
 74 70  1  0  0  0  0
 74 75  2  0  0  0  0
 76 77  1  0  0  0  0
 76157  1  0  0  0  0
 76158  1  0  0  0  0
 77 83  1  0  0  0  0
 77159  1  0  0  0  0
 77160  1  0  0  0  0
 78 79  2  0  0  0  0
 78 80  1  0  0  0  0
 80 81  1  0  0  0  0
 80161  1  0  0  0  0
 81 82  1  0  0  0  0
 81162  1  0  0  0  0
 81163  1  0  0  0  0
 82164  1  0  0  0  0
 82165  1  0  0  0  0
 82166  1  0  0  0  0
 83 84  1  0  0  0  0
 83167  1  0  0  0  0
 83168  1  0  0  0  0
 84 85  1  0  0  0  0
 84169  1  0  0  0  0
 85 86  1  0  0  0  0
 85 87  2  0  0  0  0
 86170  1  0  0  0  0
 86171  1  0  0  0  0
 87172  1  0  0  0  0
 88173  1  0  0  0  0
 90 94  2  0  0  0  0
 91 92  2  0  0  0  0
 91 90  1  0  0  0  0
 92 93  1  0  0  0  0
 92174  1  0  0  0  0
 93 94  1  0  0  0  0
 93175  1  0  0  0  0
 94176  1  0  0  0  0
M  END
>  <DRUGBANK_ID>
DB11510

>  <COMMON_NAME>
Deslorelin

>  <CAS_NUMBER>
57773-65-6

>  <UNII>
TKG3I66TVE

>  <SYNONYMS>
Deslorelin; Deslorelina; Desloreline; Deslorelinum

$$$$
