
 OpenBabel10282417153D

 67 70  0  0  0  0  0  0  0  0999 V2000
    0.9276   -0.0079   -0.1248 O   0  0  0  0  0  0  0  0  0  0  0  0
    2.1464    0.1280    0.0098 C   0  0  0  0  0  0  0  0  0  0  0  0
    2.9553   -0.5906   -0.8100 O   0  0  0  0  0  0  0  0  0  0  0  0
    4.4025   -0.7075   -0.9303 C   0  0  2  0  0  0  0  0  0  0  0  0
    5.1111    0.2584   -0.0338 C   0  0  0  0  0  0  0  0  0  0  0  0
    6.5913    0.4106   -0.1042 C   0  0  0  0  0  0  0  0  0  0  0  0
    7.0054    0.6513   -1.5416 C   0  0  1  0  0  0  0  0  0  0  0  0
    8.4696    0.6389   -1.6953 N   0  0  0  0  0  0  0  0  0  0  0  0
    9.2063   -0.4606   -1.1924 C   0  0  0  0  0  0  0  0  0  0  0  0
    9.0872   -1.7035   -1.9053 C   0  0  0  0  0  0  0  0  0  0  0  0
    9.7018   -2.9044   -1.5190 C   0  0  0  0  0  0  0  0  0  0  0  0
    9.4928   -4.1212   -2.2936 N   0  0  0  0  0  0  0  0  0  0  0  0
    9.1305   -5.4128   -1.8855 C   0  0  0  0  0  0  0  0  0  0  0  0
    8.7547   -5.9581   -0.5229 C   0  0  0  0  0  0  0  0  0  0  0  0
    8.7045   -7.5467   -0.5738 C   0  0  0  0  0  0  0  0  0  0  0  0
    7.9796   -8.1632    0.6269 C   0  0  0  0  0  0  0  0  0  0  0  0
   10.1468   -8.1147   -0.6038 C   0  0  0  0  0  0  0  0  0  0  0  0
    7.9257   -8.0200   -1.8201 C   0  0  0  0  0  0  0  0  0  0  0  0
    8.7139   -7.6008   -3.0223 C   0  0  0  0  0  0  0  0  0  0  0  0
    9.0915   -8.4201   -3.8326 O   0  0  0  0  0  0  0  0  0  0  0  0
    9.0721   -6.1888   -3.0361 C   0  0  0  0  0  0  0  0  0  0  0  0
    9.4297   -5.3708   -4.1123 C   0  0  0  0  0  0  0  0  0  0  0  0
    9.5209   -5.8663   -5.5619 C   0  0  0  0  0  0  0  0  0  0  0  0
    8.7280   -5.1553   -6.4057 F   0  0  0  0  0  0  0  0  0  0  0  0
   10.7879   -5.8211   -6.0518 F   0  0  0  0  0  0  0  0  0  0  0  0
    9.1151   -7.1536   -5.7364 F   0  0  0  0  0  0  0  0  0  0  0  0
    9.6023   -4.0918   -3.6759 N   0  0  0  0  0  0  0  0  0  0  0  0
   10.5974   -2.8095   -0.4554 C   0  0  0  0  0  0  0  0  0  0  0  0
   10.7953   -1.5713    0.2301 C   0  0  0  0  0  0  0  0  0  0  0  0
   10.0324   -0.4140   -0.0415 C   0  0  0  0  0  0  0  0  0  0  0  0
   10.0750    0.7801    0.9104 C   0  0  0  0  0  0  0  0  0  0  0  0
   10.9229    0.7483    1.9979 N   0  0  0  0  0  0  0  0  0  0  0  0
    9.3481    1.7616    0.7869 O   0  0  0  0  0  0  0  0  0  0  0  0
    6.3343   -0.3686   -2.4728 C   0  0  0  0  0  0  0  0  0  0  0  0
    4.8173   -0.4539   -2.3789 C   0  0  0  0  0  0  0  0  0  0  0  0
    2.6775    1.1036    1.0817 C   0  0  0  0  0  0  0  0  0  0  0  0
    2.4053    2.5110    0.7491 N   0  0  0  0  0  0  0  0  0  0  0  0
    4.6649   -1.7380   -0.6532 H   0  0  0  0  0  0  0  0  0  0  0  0
    4.7125    1.2480   -0.2917 H   0  0  0  0  0  0  0  0  0  0  0  0
    4.9165   -0.0790    0.9859 H   0  0  0  0  0  0  0  0  0  0  0  0
    6.8559    1.2604    0.5398 H   0  0  0  0  0  0  0  0  0  0  0  0
    7.0408   -0.4833    0.3338 H   0  0  0  0  0  0  0  0  0  0  0  0
    6.6483    1.6536   -1.8302 H   0  0  0  0  0  0  0  0  0  0  0  0
    8.8790    1.5405   -1.4329 H   0  0  0  0  0  0  0  0  0  0  0  0
    8.4796   -1.7167   -2.8047 H   0  0  0  0  0  0  0  0  0  0  0  0
    7.7577   -5.5846   -0.2547 H   0  0  0  0  0  0  0  0  0  0  0  0
    9.4602   -5.6343    0.2470 H   0  0  0  0  0  0  0  0  0  0  0  0
    7.9689   -9.2599    0.5404 H   0  0  0  0  0  0  0  0  0  0  0  0
    8.4744   -7.9106    1.5663 H   0  0  0  0  0  0  0  0  0  0  0  0
    6.9354   -7.8376    0.6717 H   0  0  0  0  0  0  0  0  0  0  0  0
   10.7402   -7.7226   -1.4377 H   0  0  0  0  0  0  0  0  0  0  0  0
   10.6832   -7.8575    0.3130 H   0  0  0  0  0  0  0  0  0  0  0  0
   10.1391   -9.2061   -0.7072 H   0  0  0  0  0  0  0  0  0  0  0  0
    7.8162   -9.1108   -1.8567 H   0  0  0  0  0  0  0  0  0  0  0  0
    6.9204   -7.5838   -1.8814 H   0  0  0  0  0  0  0  0  0  0  0  0
   11.2288   -3.6496   -0.1820 H   0  0  0  0  0  0  0  0  0  0  0  0
   11.5936   -1.5315    0.9664 H   0  0  0  0  0  0  0  0  0  0  0  0
   10.8946    1.5396    2.6342 H   0  0  0  0  0  0  0  0  0  0  0  0
   11.5615    0.0082    2.2376 H   0  0  0  0  0  0  0  0  0  0  0  0
    6.6536   -0.1874   -3.5028 H   0  0  0  0  0  0  0  0  0  0  0  0
    6.6550   -1.3680   -2.1787 H   0  0  0  0  0  0  0  0  0  0  0  0
    4.4737   -1.2828   -3.0126 H   0  0  0  0  0  0  0  0  0  0  0  0
    4.3472    0.4525   -2.7733 H   0  0  0  0  0  0  0  0  0  0  0  0
    2.2931    0.7846    2.0542 H   0  0  0  0  0  0  0  0  0  0  0  0
    3.7221    1.1394    1.3005 H   0  0  0  0  0  0  0  0  0  0  0  0
    2.9826    3.0892    1.3641 H   0  0  0  0  0  0  0  0  0  0  0  0
    2.7634    2.7005   -0.1888 H   0  0  0  0  0  0  0  0  0  0  0  0
  2  1  2  0  0  0  0
  2  3  1  0  0  0  0
  2 36  1  0  0  0  0
  4  3  1  0  0  0  0
  4  5  1  0  0  0  0
  4 35  1  0  0  0  0
  4 38  1  1  0  0  0
  5 39  1  0  0  0  0
  5 40  1  0  0  0  0
  6  5  1  0  0  0  0
  6 41  1  0  0  0  0
  6 42  1  0  0  0  0
  7  6  1  0  0  0  0
  7 43  1  6  0  0  0
  7  8  1  0  0  0  0
  8 44  1  0  0  0  0
  9  8  1  0  0  0  0
  9 10  1  0  0  0  0
  9 30  2  0  0  0  0
 10 45  1  0  0  0  0
 11 10  2  0  0  0  0
 12 11  1  0  0  0  0
 12 27  1  0  0  0  0
 13 12  1  0  0  0  0
 13 14  1  0  0  0  0
 14 46  1  0  0  0  0
 14 47  1  0  0  0  0
 15 14  1  0  0  0  0
 16 15  1  0  0  0  0
 16 48  1  0  0  0  0
 16 49  1  0  0  0  0
 16 50  1  0  0  0  0
 17 15  1  0  0  0  0
 17 51  1  0  0  0  0
 17 52  1  0  0  0  0
 17 53  1  0  0  0  0
 18 15  1  0  0  0  0
 18 54  1  0  0  0  0
 18 55  1  0  0  0  0
 19 18  1  0  0  0  0
 20 19  2  0  0  0  0
 21 19  1  0  0  0  0
 21 22  1  0  0  0  0
 21 13  2  0  0  0  0
 23 22  1  0  0  0  0
 24 23  1  0  0  0  0
 25 23  1  0  0  0  0
 26 23  1  0  0  0  0
 27 22  2  0  0  0  0
 28 11  1  0  0  0  0
 28 56  1  0  0  0  0
 29 28  2  0  0  0  0
 29 57  1  0  0  0  0
 30 29  1  0  0  0  0
 31 30  1  0  0  0  0
 31 32  1  0  0  0  0
 31 33  2  0  0  0  0
 32 58  1  0  0  0  0
 32 59  1  0  0  0  0
 34  7  1  0  0  0  0
 34 60  1  0  0  0  0
 34 61  1  0  0  0  0
 35 34  1  0  0  0  0
 35 62  1  0  0  0  0
 35 63  1  0  0  0  0
 36 64  1  0  0  0  0
 36 65  1  0  0  0  0
 37 36  1  0  0  0  0
 37 66  1  0  0  0  0
 37 67  1  0  0  0  0
M  END
>  <DRUGBANK_ID>
DB06070

>  <COMMON_NAME>
SNX-5422

>  <CAS_NUMBER>
908115-27-5

>  <UNII>
BF52J69Q8T

$$$$
