
 OpenBabel10282417203D

 61 65  0  0  0  0  0  0  0  0999 V2000
    2.4429    0.0018    0.0584 C   0  0  0  0  0  0  0  0  0  0  0  0
    1.0304   -0.0042   -0.2989 N   0  0  0  0  0  0  0  0  0  0  0  0
    0.3499   -1.2030    0.2453 C   0  0  0  0  0  0  0  0  0  0  0  0
   -1.1303   -1.2596   -0.1905 C   0  0  0  0  0  0  0  0  0  0  0  0
   -1.8084   -0.0231    0.1953 N   0  0  0  0  0  0  0  0  0  0  0  0
   -1.1562    1.2324   -0.1935 C   0  0  0  0  0  0  0  0  0  0  0  0
    0.3364    1.1950    0.2284 C   0  0  0  0  0  0  0  0  0  0  0  0
   -3.0542   -0.0326    0.7709 C   0  0  0  0  0  0  0  0  0  0  0  0
   -3.2633   -0.6543    2.0093 C   0  0  0  0  0  0  0  0  0  0  0  0
   -4.4937   -0.5737    2.6804 C   0  0  0  0  0  0  0  0  0  0  0  0
   -5.5607    0.1180    2.1116 C   0  0  0  0  0  0  0  0  0  0  0  0
   -6.7779    0.2689    2.7917 N   0  0  0  0  0  0  0  0  0  0  0  0
   -7.9666    0.7324    2.2344 C   0  0  0  0  0  0  0  0  0  0  0  0
   -8.2574    0.3266    1.0012 N   0  0  0  0  0  0  0  0  0  0  0  0
   -9.2810    0.8655    0.3317 C   0  0  0  0  0  0  0  0  0  0  0  0
   -9.4789    0.4495   -0.9713 O   0  0  0  0  0  0  0  0  0  0  0  0
   -8.6282   -0.5349   -1.4546 C   0  0  0  0  0  0  0  0  0  0  0  0
   -8.8137   -1.8731   -1.1595 C   0  0  0  0  0  0  0  0  0  0  0  0
   -8.1386   -2.8215   -1.9340 C   0  0  0  0  0  0  0  0  0  0  0  0
   -7.5084   -2.4367   -3.1323 C   0  0  0  0  0  0  0  0  0  0  0  0
   -7.4619   -1.0874   -3.4755 C   0  0  0  0  0  0  0  0  0  0  0  0
   -7.2520   -0.6821   -4.8185 N   0  0  0  0  0  0  0  0  0  0  0  0
   -7.5267    0.4976   -5.4941 C   0  0  0  0  0  0  0  0  0  0  0  0
   -7.2009    0.6065   -6.6680 O   0  0  0  0  0  0  0  0  0  0  0  0
   -8.1418    1.6966   -4.8392 C   0  0  0  0  0  0  0  0  0  0  0  0
   -9.1040    1.7035   -3.9120 C   0  0  0  0  0  0  0  0  0  0  0  0
   -7.7381   -0.1852   -2.4642 C   0  0  0  0  0  0  0  0  0  0  0  0
  -10.0497    1.8481    0.9475 C   0  0  0  0  0  0  0  0  0  0  0  0
  -11.4112    2.7591    0.4204 S   0  0  0  0  0  0  0  0  0  0  0  0
  -11.5180    3.6117    1.9049 C   0  0  0  0  0  0  0  0  0  0  0  0
  -10.5247    3.2349    2.7786 C   0  0  0  0  0  0  0  0  0  0  0  0
   -9.6996    2.1997    2.2498 C   0  0  0  0  0  0  0  0  0  0  0  0
   -8.6771    1.6210    2.9220 N   0  0  0  0  0  0  0  0  0  0  0  0
   -5.3377    0.7525    0.8796 C   0  0  0  0  0  0  0  0  0  0  0  0
   -4.1271    0.6402    0.1981 C   0  0  0  0  0  0  0  0  0  0  0  0
    2.9399    0.8810   -0.3662 H   0  0  0  0  0  0  0  0  0  0  0  0
    2.5995    0.0016    1.1420 H   0  0  0  0  0  0  0  0  0  0  0  0
    2.9441   -0.8755   -0.3657 H   0  0  0  0  0  0  0  0  0  0  0  0
    0.8514   -2.1124   -0.1029 H   0  0  0  0  0  0  0  0  0  0  0  0
    0.3996   -1.1972    1.3435 H   0  0  0  0  0  0  0  0  0  0  0  0
   -1.1835   -1.3701   -1.2814 H   0  0  0  0  0  0  0  0  0  0  0  0
   -1.6063   -2.1434    0.2484 H   0  0  0  0  0  0  0  0  0  0  0  0
   -1.2315    1.3748   -1.2780 H   0  0  0  0  0  0  0  0  0  0  0  0
   -1.6281    2.0955    0.2930 H   0  0  0  0  0  0  0  0  0  0  0  0
    0.3966    1.2057    1.3265 H   0  0  0  0  0  0  0  0  0  0  0  0
    0.8279    2.1054   -0.1327 H   0  0  0  0  0  0  0  0  0  0  0  0
   -2.4343   -1.1665    2.4896 H   0  0  0  0  0  0  0  0  0  0  0  0
   -4.5864   -1.0325    3.6601 H   0  0  0  0  0  0  0  0  0  0  0  0
   -6.9377   -0.2546    3.6364 H   0  0  0  0  0  0  0  0  0  0  0  0
   -9.4327   -2.1626   -0.3173 H   0  0  0  0  0  0  0  0  0  0  0  0
   -8.1610   -3.8656   -1.6360 H   0  0  0  0  0  0  0  0  0  0  0  0
   -7.0817   -3.1993   -3.7786 H   0  0  0  0  0  0  0  0  0  0  0  0
   -6.9679   -1.4031   -5.4741 H   0  0  0  0  0  0  0  0  0  0  0  0
   -7.7540    2.6476   -5.1911 H   0  0  0  0  0  0  0  0  0  0  0  0
   -9.2536    2.5773   -3.2821 H   0  0  0  0  0  0  0  0  0  0  0  0
   -9.6044    0.7898   -3.6068 H   0  0  0  0  0  0  0  0  0  0  0  0
   -7.4009    0.8376   -2.5455 H   0  0  0  0  0  0  0  0  0  0  0  0
  -12.2931    4.3496    2.0742 H   0  0  0  0  0  0  0  0  0  0  0  0
  -10.3933    3.6632    3.7648 H   0  0  0  0  0  0  0  0  0  0  0  0
   -6.1086    1.3709    0.4288 H   0  0  0  0  0  0  0  0  0  0  0  0
   -4.0431    1.0823   -0.7903 H   0  0  0  0  0  0  0  0  0  0  0  0
  1  2  1  0  0  0  0
  1 36  1  0  0  0  0
  1 37  1  0  0  0  0
  1 38  1  0  0  0  0
  2  3  1  0  0  0  0
  2  7  1  0  0  0  0
  3  4  1  0  0  0  0
  3 39  1  0  0  0  0
  3 40  1  0  0  0  0
  4  5  1  0  0  0  0
  4 41  1  0  0  0  0
  4 42  1  0  0  0  0
  5  6  1  0  0  0  0
  5  8  1  0  0  0  0
  6  7  1  0  0  0  0
  6 43  1  0  0  0  0
  6 44  1  0  0  0  0
  7 45  1  0  0  0  0
  7 46  1  0  0  0  0
  8  9  2  0  0  0  0
  8 35  1  0  0  0  0
  9 10  1  0  0  0  0
  9 47  1  0  0  0  0
 10 11  2  0  0  0  0
 10 48  1  0  0  0  0
 11 12  1  0  0  0  0
 11 34  1  0  0  0  0
 12 13  1  0  0  0  0
 12 49  1  0  0  0  0
 13 14  2  0  0  0  0
 13 33  1  0  0  0  0
 14 15  1  0  0  0  0
 15 16  1  0  0  0  0
 15 28  2  0  0  0  0
 16 17  1  0  0  0  0
 17 18  2  0  0  0  0
 17 27  1  0  0  0  0
 18 19  1  0  0  0  0
 18 50  1  0  0  0  0
 19 20  2  0  0  0  0
 19 51  1  0  0  0  0
 20 21  1  0  0  0  0
 20 52  1  0  0  0  0
 21 22  1  0  0  0  0
 21 27  2  0  0  0  0
 22 23  1  0  0  0  0
 22 53  1  0  0  0  0
 23 24  2  0  0  0  0
 23 25  1  0  0  0  0
 25 26  2  0  0  0  0
 25 54  1  0  0  0  0
 26 55  1  0  0  0  0
 26 56  1  0  0  0  0
 27 57  1  0  0  0  0
 28 29  1  0  0  0  0
 28 32  1  0  0  0  0
 29 30  1  0  0  0  0
 30 31  2  0  0  0  0
 30 58  1  0  0  0  0
 31 32  1  0  0  0  0
 31 59  1  0  0  0  0
 32 33  2  0  0  0  0
 34 35  2  0  0  0  0
 34 60  1  0  0  0  0
 35 61  1  0  0  0  0
M  END
>  <DRUGBANK_ID>
DB13164

>  <COMMON_NAME>
Olmutinib

>  <CAS_NUMBER>
1353550-13-6

>  <UNII>
CHL9B67L95

>  <SYNONYMS>
Olmutinib

$$$$
