
 OpenBabel10282417193D

 80 81  0  0  1  0  0  0  0  0999 V2000
    1.0035   -0.0200    0.1559 C   0  0  0  0  0  0  0  0  0  0  0  0
    0.5488    0.9347   -0.9361 C   0  0  0  0  0  0  0  0  0  0  0  0
    1.0452    0.4572   -2.3018 C   0  0  0  0  0  0  0  0  0  0  0  0
    0.4966   -0.9337   -2.6396 C   0  0  0  0  0  0  0  0  0  0  0  0
   -1.0362   -0.9282   -2.6524 C   0  0  0  0  0  0  0  0  0  0  0  0
   -1.5640    0.0380   -3.7191 C   0  0  0  0  0  0  0  0  0  0  0  0
   -1.0969   -0.3870   -5.1173 C   0  0  0  0  0  0  0  0  0  0  0  0
   -1.5509   -1.8084   -5.4480 C   0  0  0  0  0  0  0  0  0  0  0  0
   -3.0397   -1.8795   -5.3957 C   0  0  0  0  0  0  0  0  0  0  0  0
   -3.7666   -2.2154   -6.4562 C   0  0  0  0  0  0  0  0  0  0  0  0
   -5.2554   -2.1242   -6.4536 C   0  0  0  0  0  0  0  0  0  0  0  0
   -5.7047   -1.1472   -7.5399 C   0  0  0  0  0  0  0  0  0  0  0  0
   -5.2423   -1.6084   -8.9272 C   0  0  0  0  0  0  0  0  0  0  0  0
   -5.7724   -3.0145   -9.2250 C   0  0  0  0  0  0  0  0  0  0  0  0
   -7.3054   -3.0122   -9.2059 C   0  0  0  0  0  0  0  0  0  0  0  0
   -7.8462   -2.1636  -10.3546 C   0  0  0  0  0  0  0  0  0  0  0  0
   -7.2765   -2.5997  -11.7150 C   0  0  0  0  0  0  0  0  0  0  0  0
   -7.5288   -4.0463  -12.1436 C   0  0  0  0  0  0  0  0  0  0  0  0
   -7.7051   -4.4071  -13.3032 O   0  0  0  0  0  0  0  0  0  0  0  0
   -7.4360   -4.9426  -11.1190 O   0  0  0  0  0  0  0  0  0  0  0  0
   -7.9292   -6.2499  -11.4301 C   0  0  0  0  0  0  0  0  0  0  0  0
   -9.4716   -6.2781  -11.4380 C   0  0  2  0  0  0  0  0  0  0  0  0
   -9.9873   -7.2479  -12.4834 C   0  0  2  0  0  0  0  0  0  0  0  0
  -11.3535   -6.6800  -12.8098 C   0  0  0  0  0  0  0  0  0  0  0  0
  -11.2206   -5.1683  -12.5725 C   0  0  1  0  0  0  0  0  0  0  0  0
  -10.0460   -4.9969  -11.7543 O   0  0  0  0  0  0  0  0  0  0  0  0
  -11.2163   -4.3498  -13.8137 N   0  0  0  0  0  0  0  0  0  0  0  0
  -12.4162   -4.2906  -14.5205 C   0  0  0  0  0  0  0  0  0  0  0  0
  -12.6561   -3.3035  -15.3872 C   0  0  0  0  0  0  0  0  0  0  0  0
  -11.4569   -2.5837  -15.8550 C   0  0  0  0  0  0  0  0  0  0  0  0
  -10.3298   -2.6555  -15.2224 N   0  0  0  0  0  0  0  0  0  0  0  0
  -10.3592   -3.2618  -13.9906 C   0  0  0  0  0  0  0  0  0  0  0  0
   -9.7429   -2.7494  -13.0573 O   0  0  0  0  0  0  0  0  0  0  0  0
  -11.5087   -1.8357  -16.9888 N   0  0  0  0  0  0  0  0  0  0  0  0
  -12.2880   -7.2033  -11.9703 F   0  0  0  0  0  0  0  0  0  0  0  0
  -11.7291   -7.0052  -14.0652 F   0  0  0  0  0  0  0  0  0  0  0  0
   -9.9880   -8.5953  -12.0053 O   0  0  0  0  0  0  0  0  0  0  0  0
    0.6144   -1.0325    0.0068 H   0  0  0  0  0  0  0  0  0  0  0  0
    0.6492    0.3109    1.1324 H   0  0  0  0  0  0  0  0  0  0  0  0
    2.0958   -0.0782    0.1651 H   0  0  0  0  0  0  0  0  0  0  0  0
   -0.5441    1.0206   -0.9191 H   0  0  0  0  0  0  0  0  0  0  0  0
    0.9230    1.9433   -0.7399 H   0  0  0  0  0  0  0  0  0  0  0  0
    0.7577    1.1857   -3.0696 H   0  0  0  0  0  0  0  0  0  0  0  0
    2.1391    0.4360   -2.3225 H   0  0  0  0  0  0  0  0  0  0  0  0
    0.9046   -1.2666   -3.5996 H   0  0  0  0  0  0  0  0  0  0  0  0
    0.8556   -1.6856   -1.9314 H   0  0  0  0  0  0  0  0  0  0  0  0
   -1.4044   -1.9469   -2.8091 H   0  0  0  0  0  0  0  0  0  0  0  0
   -1.4500   -0.6575   -1.6766 H   0  0  0  0  0  0  0  0  0  0  0  0
   -2.6555    0.0873   -3.6613 H   0  0  0  0  0  0  0  0  0  0  0  0
   -1.2476    1.0671   -3.5237 H   0  0  0  0  0  0  0  0  0  0  0  0
   -1.4692    0.3253   -5.8622 H   0  0  0  0  0  0  0  0  0  0  0  0
   -0.0048   -0.3367   -5.1947 H   0  0  0  0  0  0  0  0  0  0  0  0
   -1.1606   -2.0924   -6.4304 H   0  0  0  0  0  0  0  0  0  0  0  0
   -1.1459   -2.5444   -4.7475 H   0  0  0  0  0  0  0  0  0  0  0  0
   -3.5588   -1.5956   -4.4842 H   0  0  0  0  0  0  0  0  0  0  0  0
   -3.2490   -2.5088   -7.3658 H   0  0  0  0  0  0  0  0  0  0  0  0
   -5.6622   -3.1287   -6.6034 H   0  0  0  0  0  0  0  0  0  0  0  0
   -5.6464   -1.7930   -5.4869 H   0  0  0  0  0  0  0  0  0  0  0  0
   -6.7959   -1.0540   -7.5035 H   0  0  0  0  0  0  0  0  0  0  0  0
   -5.3299   -0.1376   -7.3421 H   0  0  0  0  0  0  0  0  0  0  0  0
   -5.5659   -0.8852   -9.6826 H   0  0  0  0  0  0  0  0  0  0  0  0
   -4.1511   -1.6021   -9.0087 H   0  0  0  0  0  0  0  0  0  0  0  0
   -5.3619   -3.3606  -10.1782 H   0  0  0  0  0  0  0  0  0  0  0  0
   -5.3977   -3.7573   -8.5157 H   0  0  0  0  0  0  0  0  0  0  0  0
   -7.6935   -4.0281   -9.2445 H   0  0  0  0  0  0  0  0  0  0  0  0
   -7.7084   -2.6649   -8.2509 H   0  0  0  0  0  0  0  0  0  0  0  0
   -8.9408   -2.1709  -10.3444 H   0  0  0  0  0  0  0  0  0  0  0  0
   -7.5783   -1.1094  -10.1826 H   0  0  0  0  0  0  0  0  0  0  0  0
   -7.6799   -1.9169  -12.4683 H   0  0  0  0  0  0  0  0  0  0  0  0
   -6.1966   -2.4400  -11.7633 H   0  0  0  0  0  0  0  0  0  0  0  0
   -7.4913   -6.5907  -12.3745 H   0  0  0  0  0  0  0  0  0  0  0  0
   -7.5543   -6.9492  -10.6707 H   0  0  0  0  0  0  0  0  0  0  0  0
   -9.8162   -6.5518  -10.4305 H   0  0  0  0  0  0  0  0  0  0  0  0
   -9.3672   -7.2165  -13.3853 H   0  0  0  0  0  0  0  0  0  0  0  0
  -12.0536   -4.8085  -11.9534 H   0  0  0  0  0  0  0  0  0  0  0  0
  -13.1917   -5.0037  -14.2599 H   0  0  0  0  0  0  0  0  0  0  0  0
  -13.6178   -3.0940  -15.8264 H   0  0  0  0  0  0  0  0  0  0  0  0
  -12.3451   -1.7175  -17.5394 H   0  0  0  0  0  0  0  0  0  0  0  0
  -10.6467   -1.4169  -17.3169 H   0  0  0  0  0  0  0  0  0  0  0  0
  -10.6839   -8.6797  -11.3261 H   0  0  0  0  0  0  0  0  0  0  0  0
  1  2  1  0  0  0  0
  1 38  1  0  0  0  0
  1 39  1  0  0  0  0
  1 40  1  0  0  0  0
  2  3  1  0  0  0  0
  2 41  1  0  0  0  0
  2 42  1  0  0  0  0
  3  4  1  0  0  0  0
  3 43  1  0  0  0  0
  3 44  1  0  0  0  0
  4  5  1  0  0  0  0
  4 45  1  0  0  0  0
  4 46  1  0  0  0  0
  5  6  1  0  0  0  0
  5 47  1  0  0  0  0
  5 48  1  0  0  0  0
  6  7  1  0  0  0  0
  6 49  1  0  0  0  0
  6 50  1  0  0  0  0
  7  8  1  0  0  0  0
  7 51  1  0  0  0  0
  7 52  1  0  0  0  0
  8  9  1  0  0  0  0
  8 53  1  0  0  0  0
  8 54  1  0  0  0  0
  9 10  2  0  0  0  0
  9 55  1  0  0  0  0
 10 11  1  0  0  0  0
 10 56  1  0  0  0  0
 11 12  1  0  0  0  0
 11 57  1  0  0  0  0
 11 58  1  0  0  0  0
 12 13  1  0  0  0  0
 12 59  1  0  0  0  0
 12 60  1  0  0  0  0
 13 14  1  0  0  0  0
 13 61  1  0  0  0  0
 13 62  1  0  0  0  0
 14 15  1  0  0  0  0
 14 63  1  0  0  0  0
 14 64  1  0  0  0  0
 15 16  1  0  0  0  0
 15 65  1  0  0  0  0
 15 66  1  0  0  0  0
 16 17  1  0  0  0  0
 16 67  1  0  0  0  0
 16 68  1  0  0  0  0
 17 18  1  0  0  0  0
 17 69  1  0  0  0  0
 17 70  1  0  0  0  0
 18 19  2  0  0  0  0
 18 20  1  0  0  0  0
 20 21  1  0  0  0  0
 21 71  1  0  0  0  0
 21 72  1  0  0  0  0
 22 21  1  0  0  0  0
 22 23  1  0  0  0  0
 22 26  1  0  0  0  0
 22 73  1  1  0  0  0
 23 24  1  0  0  0  0
 23 37  1  0  0  0  0
 23 74  1  6  0  0  0
 24 25  1  0  0  0  0
 24 35  1  0  0  0  0
 24 36  1  0  0  0  0
 25 26  1  0  0  0  0
 25 75  1  1  0  0  0
 25 27  1  0  0  0  0
 27 28  1  0  0  0  0
 27 32  1  0  0  0  0
 28 29  2  0  0  0  0
 28 76  1  0  0  0  0
 29 30  1  0  0  0  0
 29 77  1  0  0  0  0
 30 31  2  0  0  0  0
 30 34  1  0  0  0  0
 31 32  1  0  0  0  0
 32 33  2  0  0  0  0
 34 78  1  0  0  0  0
 34 79  1  0  0  0  0
 37 80  1  0  0  0  0
M  END
>  <DRUGBANK_ID>
DB12564

>  <COMMON_NAME>
Gemcitabine elaidate

>  <CAS_NUMBER>
210829-30-4

>  <UNII>
231C73W7LG

>  <SYNONYMS>
2'-Deoxy-2',2'-difluorocytidine 5'-(9E)-octadec-9-enoate; 5'-O-(TRANS-9''-OCTADECENOYL)-1-.BETA.-D-2'DEOXY-2',2'-DIFLUOROCYTIDINE; 5'-O-(trans-9"-octadecenoyl)-1-beta-D-2'deoxy-2',2'-difluorocytidine; Gemcitabine elaidate

$$$$
