3DH
 OpenBabel10282417163D

 38 40  0  0  0  0  0  0  0  0999 V2000
    0.8647   -0.1466    0.1821 C   0  0  0  0  0  0  0  0  0  0  0  0
    0.3626   -0.2301   -1.2339 C   0  0  0  0  0  0  0  0  0  0  0  0
    1.0073   -1.7108   -2.0699 S   0  0  0  0  0  0  0  0  0  0  0  0
    2.7859   -1.3622   -2.2940 C   0  0  0  0  0  0  0  0  0  0  0  0
    3.3288   -0.1098   -3.0114 C   0  0  1  0  0  0  0  0  0  0  0  0
    2.9175   -0.0441   -4.3914 O   0  0  0  0  0  0  0  0  0  0  0  0
    3.0506    1.2506   -2.3723 C   0  0  1  0  0  0  0  0  0  0  0  0
    4.2659    2.0265   -2.3357 O   0  0  0  0  0  0  0  0  0  0  0  0
    2.0771    1.9346   -3.3281 C   0  0  1  0  0  0  0  0  0  0  0  0
    2.2046    3.3553   -3.3209 O   0  0  0  0  0  0  0  0  0  0  0  0
    2.3998    1.2748   -4.6603 C   0  0  2  0  0  0  0  0  0  0  0  0
    1.2475    1.1687   -5.5420 N   0  0  0  0  0  0  0  0  0  0  0  0
    1.1250    1.8119   -6.7456 C   0  0  0  0  0  0  0  0  0  0  0  0
   -0.0314    1.5627   -7.3287 N   0  0  0  0  0  0  0  0  0  0  0  0
   -0.6982    0.7324   -6.4541 C   0  0  0  0  0  0  0  0  0  0  0  0
    0.0714    0.4970   -5.3241 C   0  0  0  0  0  0  0  0  0  0  0  0
   -0.2943   -0.2176   -4.2648 N   0  0  0  0  0  0  0  0  0  0  0  0
   -1.5043   -0.7894   -4.4162 C   0  0  0  0  0  0  0  0  0  0  0  0
   -2.3511   -0.6553   -5.4522 N   0  0  0  0  0  0  0  0  0  0  0  0
   -1.9656    0.1230   -6.4846 C   0  0  0  0  0  0  0  0  0  0  0  0
   -2.8466    0.2869   -7.5291 N   0  0  0  0  0  0  0  0  0  0  0  0
    4.4189   -0.2580   -3.0415 H   0  0  0  0  0  0  0  0  0  0  0  0
    2.7080    1.2036   -1.3400 H   0  0  0  0  0  0  0  0  0  0  0  0
    1.0341    1.7510   -3.0997 H   0  0  0  0  0  0  0  0  0  0  0  0
    3.1714    1.8516   -5.1853 H   0  0  0  0  0  0  0  0  0  0  0  0
    0.5093   -1.0018    0.7571 H   0  0  0  0  0  0  0  0  0  0  0  0
    0.5000    0.7743    0.6470 H   0  0  0  0  0  0  0  0  0  0  0  0
    1.9573   -0.1204    0.2225 H   0  0  0  0  0  0  0  0  0  0  0  0
   -0.7317   -0.2432   -1.2681 H   0  0  0  0  0  0  0  0  0  0  0  0
    0.6236    0.6827   -1.7365 H   0  0  0  0  0  0  0  0  0  0  0  0
    3.2443   -1.4447   -1.3045 H   0  0  0  0  0  0  0  0  0  0  0  0
    3.1400   -2.2302   -2.8665 H   0  0  0  0  0  0  0  0  0  0  0  0
    4.8252    1.6403   -1.6334 H   0  0  0  0  0  0  0  0  0  0  0  0
    3.1590    3.5446   -3.2356 H   0  0  0  0  0  0  0  0  0  0  0  0
    1.9023    2.4488   -7.1425 H   0  0  0  0  0  0  0  0  0  0  0  0
   -1.8368   -1.4321   -3.6068 H   0  0  0  0  0  0  0  0  0  0  0  0
   -2.5666    0.8567   -8.3112 H   0  0  0  0  0  0  0  0  0  0  0  0
   -3.7268   -0.1999   -7.4870 H   0  0  0  0  0  0  0  0  0  0  0  0
  1 26  1  0  0  0  0
  1 27  1  0  0  0  0
  1 28  1  0  0  0  0
  2  1  1  0  0  0  0
  2  3  1  0  0  0  0
  2 29  1  0  0  0  0
  2 30  1  0  0  0  0
  4  3  1  0  0  0  0
  4 31  1  0  0  0  0
  4 32  1  0  0  0  0
  5  4  1  0  0  0  0
  5  6  1  0  0  0  0
  5 22  1  6  0  0  0
  6 11  1  0  0  0  0
  7  5  1  0  0  0  0
  7  9  1  0  0  0  0
  7 23  1  1  0  0  0
  7  8  1  0  0  0  0
  8 33  1  0  0  0  0
  9 10  1  0  0  0  0
  9 11  1  0  0  0  0
  9 24  1  1  0  0  0
 10 34  1  0  0  0  0
 11 25  1  6  0  0  0
 11 12  1  0  0  0  0
 12 16  1  0  0  0  0
 13 12  1  0  0  0  0
 13 14  2  0  0  0  0
 13 35  1  0  0  0  0
 14 15  1  0  0  0  0
 15 20  1  0  0  0  0
 16 15  2  0  0  0  0
 16 17  1  0  0  0  0
 17 18  2  0  0  0  0
 18 19  1  0  0  0  0
 18 36  1  0  0  0  0
 20 19  2  0  0  0  0
 20 21  1  0  0  0  0
 21 37  1  0  0  0  0
 21 38  1  0  0  0  0
M  END
>  <DRUGBANK_ID>
DB07052

>  <COMMON_NAME>
5'-S-ethyl-5'-thioadenosine

$$$$
