
 OpenBabel10282417123D

 35 36  0  0  0  0  0  0  0  0999 V2000
   -1.4934   -3.3637    0.1318 N   0  0  0  0  0  0  0  0  0  0  0  0
   -1.8106   -4.7214    0.1853 C   0  0  0  0  0  0  0  0  0  0  0  0
   -2.4447   -2.4399   -0.2509 C   0  0  0  0  0  0  0  0  0  0  0  0
   -3.1147   -5.1007    0.0670 N   0  0  0  0  0  0  0  0  0  0  0  0
   -3.9776   -4.2456   -0.3753 C   0  0  0  0  0  0  0  0  0  0  0  0
   -3.6385   -2.8449   -0.6808 C   0  0  0  0  0  0  0  0  0  0  0  0
   -0.1044   -2.9342    0.2626 C   0  0  2  0  0  0  0  0  0  0  0  0
    0.6900   -3.5692   -0.7569 O   0  0  0  0  0  0  0  0  0  0  0  0
    0.5325   -3.2087    1.6252 C   0  0  1  0  0  0  0  0  0  0  0  0
    1.6926   -4.4015   -0.1247 C   0  0  1  0  0  0  0  0  0  0  0  0
    1.3816   -4.4609    1.3974 C   0  0  1  0  0  0  0  0  0  0  0  0
    1.3259   -2.0706    2.0143 O   0  0  0  0  0  0  0  0  0  0  0  0
   -0.9559   -5.5923    0.3503 O   0  0  0  0  0  0  0  0  0  0  0  0
    2.4841   -4.4833    2.3164 O   0  0  0  0  0  0  0  0  0  0  0  0
   -5.2525   -4.6880   -0.5204 N   0  0  0  0  0  0  0  0  0  0  0  0
    1.8243   -5.7319   -0.8699 C   0  0  0  0  0  0  0  0  0  0  0  0
    2.3321   -5.4801   -2.1918 O   0  0  0  0  0  0  0  0  0  0  0  0
    3.7948   -3.7013    1.8507 P   0  0  0  0  0  0  0  0  0  0  0  0
    4.7259   -4.9021    1.3783 O   0  0  0  0  0  0  0  0  0  0  0  0
    3.6152   -2.5641    0.9027 O   0  0  0  0  0  0  0  0  0  0  0  0
    4.6756   -3.2426    3.0856 O   0  0  0  0  0  0  0  0  0  0  0  0
   -2.1645   -1.3900   -0.2661 H   0  0  0  0  0  0  0  0  0  0  0  0
   -4.3642   -2.2019   -1.1519 H   0  0  0  0  0  0  0  0  0  0  0  0
   -0.0501   -1.8550    0.0559 H   0  0  0  0  0  0  0  0  0  0  0  0
   -0.2074   -3.3314    2.4224 H   0  0  0  0  0  0  0  0  0  0  0  0
    2.6351   -3.9230   -0.3608 H   0  0  0  0  0  0  0  0  0  0  0  0
    0.7916   -5.3543    1.6192 H   0  0  0  0  0  0  0  0  0  0  0  0
    2.0213   -1.9356    1.3305 H   0  0  0  0  0  0  0  0  0  0  0  0
   -6.0186   -4.0797   -0.7629 H   0  0  0  0  0  0  0  0  0  0  0  0
   -5.4632   -5.6082   -0.1510 H   0  0  0  0  0  0  0  0  0  0  0  0
    2.5421   -6.3868   -0.3699 H   0  0  0  0  0  0  0  0  0  0  0  0
    0.8756   -6.2497   -1.0010 H   0  0  0  0  0  0  0  0  0  0  0  0
    1.7423   -4.8080   -2.5838 H   0  0  0  0  0  0  0  0  0  0  0  0
    4.9583   -5.4567    2.1502 H   0  0  0  0  0  0  0  0  0  0  0  0
    5.4282   -2.7784    2.6605 H   0  0  0  0  0  0  0  0  0  0  0  0
  1  2  1  0  0  0  0
  1  3  1  0  0  0  0
  2 13  2  0  0  0  0
  2  4  1  0  0  0  0
  3  6  2  0  0  0  0
  3 22  1  0  0  0  0
  4  5  2  0  0  0  0
  5 15  1  0  0  0  0
  6  5  1  0  0  0  0
  6 23  1  0  0  0  0
  7  8  1  0  0  0  0
  7  9  1  0  0  0  0
  7 24  1  6  0  0  0
  7  1  1  0  0  0  0
  8 10  1  0  0  0  0
  9 11  1  0  0  0  0
  9 12  1  0  0  0  0
  9 25  1  1  0  0  0
 10 16  1  0  0  0  0
 10 11  1  0  0  0  0
 10 26  1  6  0  0  0
 11 14  1  0  0  0  0
 11 27  1  1  0  0  0
 12 28  1  0  0  0  0
 14 18  1  0  0  0  0
 15 29  1  0  0  0  0
 15 30  1  0  0  0  0
 16 17  1  0  0  0  0
 16 31  1  0  0  0  0
 16 32  1  0  0  0  0
 17 33  1  0  0  0  0
 18 19  1  0  0  0  0
 18 20  2  0  0  0  0
 18 21  1  0  0  0  0
 19 34  1  0  0  0  0
 21 35  1  0  0  0  0
M  END
>  <DRUGBANK_ID>
DB01961

>  <SECONDARY_ACCESSION_NUMBERS>
EXPT00809

>  <COMMON_NAME>
Cytidine 3'-monophosphate

>  <CAS_NUMBER>
84-52-6

>  <UNII>
6DZL5I6D4D

>  <SYNONYMS>
3'-CMP; 3'-Cytidylic acid; Cytidine 3'-phosphate; Cytidine-3'-monophosphate

$$$$
