1604
 OpenBabel10282417123D

 61 63  0  0  1  0  0  0  0  0999 V2000
   -2.2279   -6.1462    4.3449 S   0  0  0  0  0  0  0  0  0  0  0  0
   -2.2631   -1.7845    4.6336 O   0  0  0  0  0  0  0  0  0  0  0  0
   -4.0397   -2.7227    7.8675 O   0  0  0  0  0  0  0  0  0  0  0  0
   -5.1251   -4.5924    7.4996 O   0  0  0  0  0  0  0  0  0  0  0  0
   -0.0357   -4.2438    0.4908 O   0  0  0  0  0  0  0  0  0  0  0  0
   -1.6793   -2.2728    7.9044 O   0  0  0  0  0  0  0  0  0  0  0  0
   -2.3083   -2.6539   10.0639 O   0  0  0  0  0  0  0  0  0  0  0  0
   -3.4361   -3.8378    4.8768 N   0  0  0  0  0  0  0  0  0  0  0  0
   -1.2794   -3.8790    2.2912 N   0  0  0  0  0  0  0  0  0  0  0  0
   -2.1191   -3.5085   -1.3308 N   0  0  0  0  0  0  0  0  0  0  0  0
   -3.2277   -4.8007    3.7605 C   0  0  1  0  0  0  0  0  0  0  0  0
   -2.9223   -5.8732    6.0238 C   0  0  0  0  0  0  0  0  0  0  0  0
   -3.0830   -4.3296    6.1948 C   0  0  2  0  0  0  0  0  0  0  0  0
   -2.5075   -3.7171    3.0566 C   0  0  1  0  0  0  0  0  0  0  0  0
   -2.6572   -2.8825    4.2809 C   0  0  0  0  0  0  0  0  0  0  0  0
   -1.8732   -6.4641    6.9274 C   0  0  0  0  0  0  0  0  0  0  0  0
   -4.2229   -6.6697    6.0731 C   0  0  0  0  0  0  0  0  0  0  0  0
   -4.1355   -3.9106    7.2444 C   0  0  0  0  0  0  0  0  0  0  0  0
   -1.1819   -4.0889    0.9322 C   0  0  0  0  0  0  0  0  0  0  0  0
   -2.4501   -4.1460   -0.0414 C   0  0  1  0  0  0  0  0  0  0  0  0
   -2.9966   -1.7711    7.6626 C   0  0  0  0  0  0  0  0  0  0  0  0
   -3.7443   -3.4794    0.4086 C   0  0  0  0  0  0  0  0  0  0  0  0
   -0.0548   -3.2767    9.3672 C   0  0  0  0  0  0  0  0  0  0  0  0
   -3.7121   -2.1635    0.9465 C   0  0  0  0  0  0  0  0  0  0  0  0
   -4.9549   -4.1885    0.4077 C   0  0  0  0  0  0  0  0  0  0  0  0
   -1.4648   -2.7002    9.1787 C   0  0  0  0  0  0  0  0  0  0  0  0
    0.1820   -4.4875    8.4751 C   0  0  0  0  0  0  0  0  0  0  0  0
    1.0012   -2.2238    9.0465 C   0  0  0  0  0  0  0  0  0  0  0  0
    0.0931   -3.7387   10.8230 C   0  0  0  0  0  0  0  0  0  0  0  0
   -4.7839   -1.7157    1.7236 C   0  0  0  0  0  0  0  0  0  0  0  0
   -6.0882   -3.6087    0.9790 C   0  0  0  0  0  0  0  0  0  0  0  0
   -5.9790   -2.4270    1.7161 C   0  0  0  0  0  0  0  0  0  0  0  0
   -4.1759   -5.0885    3.2886 H   0  0  0  0  0  0  0  0  0  0  0  0
   -0.3740   -3.7715    2.7426 H   0  0  0  0  0  0  0  0  0  0  0  0
   -1.4311   -2.7776   -1.1545 H   0  0  0  0  0  0  0  0  0  0  0  0
   -2.9547   -3.0135   -1.6524 H   0  0  0  0  0  0  0  0  0  0  0  0
   -2.1049   -3.9127    6.4346 H   0  0  0  0  0  0  0  0  0  0  0  0
   -3.2834   -3.4246    2.4347 H   0  0  0  0  0  0  0  0  0  0  0  0
   -2.1726   -6.3407    7.9682 H   0  0  0  0  0  0  0  0  0  0  0  0
   -1.7157   -7.5294    6.7361 H   0  0  0  0  0  0  0  0  0  0  0  0
   -0.9097   -5.9780    6.7514 H   0  0  0  0  0  0  0  0  0  0  0  0
   -4.0838   -7.7092    5.7663 H   0  0  0  0  0  0  0  0  0  0  0  0
   -4.5996   -6.7154    7.0970 H   0  0  0  0  0  0  0  0  0  0  0  0
   -4.9984   -6.2233    5.4368 H   0  0  0  0  0  0  0  0  0  0  0  0
   -2.6208   -5.2174   -0.2223 H   0  0  0  0  0  0  0  0  0  0  0  0
   -3.0870   -1.3893    6.6486 H   0  0  0  0  0  0  0  0  0  0  0  0
   -3.1939   -0.9091    8.3100 H   0  0  0  0  0  0  0  0  0  0  0  0
   -2.7455   -1.6672    1.0708 H   0  0  0  0  0  0  0  0  0  0  0  0
   -5.0170   -5.2008    0.0075 H   0  0  0  0  0  0  0  0  0  0  0  0
    0.0900   -4.2274    7.4155 H   0  0  0  0  0  0  0  0  0  0  0  0
    1.1779   -4.9219    8.6189 H   0  0  0  0  0  0  0  0  0  0  0  0
   -0.5366   -5.2668    8.7282 H   0  0  0  0  0  0  0  0  0  0  0  0
    0.8746   -1.3404    9.6776 H   0  0  0  0  0  0  0  0  0  0  0  0
    2.0080   -2.6251    9.2100 H   0  0  0  0  0  0  0  0  0  0  0  0
    0.9402   -1.9036    8.0001 H   0  0  0  0  0  0  0  0  0  0  0  0
   -0.0554   -2.9034   11.5141 H   0  0  0  0  0  0  0  0  0  0  0  0
   -0.6499   -4.5082   11.0695 H   0  0  0  0  0  0  0  0  0  0  0  0
    1.0850   -4.1648   11.0057 H   0  0  0  0  0  0  0  0  0  0  0  0
   -4.6392   -0.8871    2.4168 H   0  0  0  0  0  0  0  0  0  0  0  0
   -7.0546   -4.0965    0.8854 H   0  0  0  0  0  0  0  0  0  0  0  0
   -6.8217   -2.0721    2.3035 H   0  0  0  0  0  0  0  0  0  0  0  0
  1 11  1  0  0  0  0
  1 12  1  0  0  0  0
  2 15  2  0  0  0  0
  3 18  1  0  0  0  0
  3 21  1  0  0  0  0
  4 18  2  0  0  0  0
  5 19  2  0  0  0  0
  6 21  1  0  0  0  0
  6 26  1  0  0  0  0
  7 26  2  0  0  0  0
  8 11  1  0  0  0  0
  8 13  1  0  0  0  0
  8 15  1  0  0  0  0
  9 19  1  0  0  0  0
  9 34  1  0  0  0  0
 10 35  1  0  0  0  0
 10 36  1  0  0  0  0
 11 14  1  0  0  0  0
 11 33  1  6  0  0  0
 12 13  1  0  0  0  0
 12 16  1  0  0  0  0
 12 17  1  0  0  0  0
 13 37  1  1  0  0  0
 13 18  1  0  0  0  0
 14 15  1  0  0  0  0
 14 38  1  6  0  0  0
 14  9  1  0  0  0  0
 16 39  1  0  0  0  0
 16 40  1  0  0  0  0
 16 41  1  0  0  0  0
 17 42  1  0  0  0  0
 17 43  1  0  0  0  0
 17 44  1  0  0  0  0
 20 22  1  0  0  0  0
 20 45  1  6  0  0  0
 20 19  1  0  0  0  0
 20 10  1  0  0  0  0
 21 46  1  0  0  0  0
 21 47  1  0  0  0  0
 22 24  2  0  0  0  0
 22 25  1  0  0  0  0
 23 26  1  0  0  0  0
 23 27  1  0  0  0  0
 23 28  1  0  0  0  0
 23 29  1  0  0  0  0
 24 30  1  0  0  0  0
 24 48  1  0  0  0  0
 25 31  2  0  0  0  0
 25 49  1  0  0  0  0
 27 50  1  0  0  0  0
 27 51  1  0  0  0  0
 27 52  1  0  0  0  0
 28 53  1  0  0  0  0
 28 54  1  0  0  0  0
 28 55  1  0  0  0  0
 29 56  1  0  0  0  0
 29 57  1  0  0  0  0
 29 58  1  0  0  0  0
 30 32  2  0  0  0  0
 30 59  1  0  0  0  0
 31 32  1  0  0  0  0
 31 60  1  0  0  0  0
 32 61  1  0  0  0  0
M  END
>  <DRUGBANK_ID>
DB01604

>  <COMMON_NAME>
Pivampicillin

>  <CAS_NUMBER>
33817-20-8

>  <UNII>
0HLM346LL7

>  <SYNONYMS>
Ampicillin pivaloyloxymethyl ester; Pivaloylampicillin; Pivaloyloxymethyl ampicillinate; Pivampicilina; Pivampicillin; Pivampicilline; Pivampicillinum

$$$$
