
 OpenBabel10282417183D

 54 56  0  0  1  0  0  0  0  0999 V2000
   -1.0601    0.4979    2.2841 C   0  0  0  0  0  0  0  0  0  0  0  0
   -0.3589    0.4655    3.6170 C   0  0  0  0  0  0  0  0  0  0  0  0
   -0.8128   -0.0983    4.5900 O   0  0  0  0  0  0  0  0  0  0  0  0
    0.8662    1.0840    3.6767 N   0  0  0  0  0  0  0  0  0  0  0  0
    1.6859    1.5246    2.5354 C   0  0  1  0  0  0  0  0  0  0  0  0
    2.6762    2.5577    3.0798 C   0  0  0  0  0  0  0  0  0  0  0  0
    3.8544    2.8708    2.1640 C   0  0  0  0  0  0  0  0  0  0  0  0
    3.4950    2.9850    0.6990 C   0  0  0  0  0  0  0  0  0  0  0  0
    3.5484    4.2370    0.0847 C   0  0  0  0  0  0  0  0  0  0  0  0
    3.2542    4.4380   -1.2788 C   0  0  0  0  0  0  0  0  0  0  0  0
    2.8563    3.3253   -2.0544 C   0  0  0  0  0  0  0  0  0  0  0  0
    2.7803    2.0355   -1.4275 C   0  0  0  0  0  0  0  0  0  0  0  0
    3.1279    1.8545   -0.0616 C   0  0  0  0  0  0  0  0  0  0  0  0
    3.0670    0.5274    0.5950 C   0  0  0  0  0  0  0  0  0  0  0  0
    2.3713    0.3790    1.7952 C   0  0  0  0  0  0  0  0  0  0  0  0
    2.2716   -0.9031    2.3160 C   0  0  0  0  0  0  0  0  0  0  0  0
    2.9221   -2.0325    1.8497 C   0  0  0  0  0  0  0  0  0  0  0  0
    3.6301   -1.8917    0.6723 C   0  0  0  0  0  0  0  0  0  0  0  0
    3.6861   -0.6260    0.0457 C   0  0  0  0  0  0  0  0  0  0  0  0
    2.8749   -3.2407    2.5248 O   0  0  0  0  0  0  0  0  0  0  0  0
    2.0572   -3.4324    4.0372 P   0  0  0  0  0  0  0  0  0  0  0  0
    2.2758   -2.0322    4.5865 O   0  0  0  0  0  0  0  0  0  0  0  0
    0.6804   -3.6609    3.2111 O   0  0  0  0  0  0  0  0  0  0  0  0
    1.2395   -3.6240    5.5496 O   0  0  0  0  0  0  0  0  0  0  0  0
    2.3473    0.8646   -2.0477 O   0  0  0  0  0  0  0  0  0  0  0  0
    1.9964    0.8553   -3.4272 C   0  0  0  0  0  0  0  0  0  0  0  0
    2.5332    3.2115   -3.3645 O   0  0  0  0  0  0  0  0  0  0  0  0
    2.3567    4.1956   -4.3274 C   0  0  0  0  0  0  0  0  0  0  0  0
    3.4523    5.7745   -1.5340 O   0  0  0  0  0  0  0  0  0  0  0  0
    3.3254    6.2711   -2.8346 C   0  0  0  0  0  0  0  0  0  0  0  0
   -2.0529    0.0588    2.3918 H   0  0  0  0  0  0  0  0  0  0  0  0
   -0.5013   -0.0847    1.5465 H   0  0  0  0  0  0  0  0  0  0  0  0
   -1.1642    1.5309    1.9474 H   0  0  0  0  0  0  0  0  0  0  0  0
    1.3582    0.8339    4.5308 H   0  0  0  0  0  0  0  0  0  0  0  0
    1.0065    2.0075    1.8266 H   0  0  0  0  0  0  0  0  0  0  0  0
    3.0866    2.2237    4.0449 H   0  0  0  0  0  0  0  0  0  0  0  0
    2.1127    3.4729    3.3096 H   0  0  0  0  0  0  0  0  0  0  0  0
    4.6203    2.0934    2.2770 H   0  0  0  0  0  0  0  0  0  0  0  0
    4.3269    3.7927    2.5236 H   0  0  0  0  0  0  0  0  0  0  0  0
    3.8545    5.0998    0.6795 H   0  0  0  0  0  0  0  0  0  0  0  0
    1.5963   -0.9772    3.1395 H   0  0  0  0  0  0  0  0  0  0  0  0
    4.1210   -2.7427    0.2121 H   0  0  0  0  0  0  0  0  0  0  0  0
    4.2213   -0.5391   -0.8988 H   0  0  0  0  0  0  0  0  0  0  0  0
    0.8716   -4.2996    2.4897 H   0  0  0  0  0  0  0  0  0  0  0  0
    0.9467   -2.7061    5.7381 H   0  0  0  0  0  0  0  0  0  0  0  0
    1.1181    1.4870   -3.6081 H   0  0  0  0  0  0  0  0  0  0  0  0
    2.8576    1.1285   -4.0494 H   0  0  0  0  0  0  0  0  0  0  0  0
    1.7143   -0.1545   -3.7323 H   0  0  0  0  0  0  0  0  0  0  0  0
    1.5483    4.8485   -4.0121 H   0  0  0  0  0  0  0  0  0  0  0  0
    3.3339    4.5955   -4.5678 H   0  0  0  0  0  0  0  0  0  0  0  0
    2.0207    3.7946   -5.2848 H   0  0  0  0  0  0  0  0  0  0  0  0
    4.0774    5.7886   -3.4558 H   0  0  0  0  0  0  0  0  0  0  0  0
    2.2773    6.2067   -3.1047 H   0  0  0  0  0  0  0  0  0  0  0  0
    3.5318    7.3368   -2.9431 H   0  0  0  0  0  0  0  0  0  0  0  0
  1  2  1  0  0  0  0
  1 31  1  0  0  0  0
  1 32  1  0  0  0  0
  1 33  1  0  0  0  0
  2  3  2  0  0  0  0
  2  4  1  0  0  0  0
  4 34  1  0  0  0  0
  5  6  1  0  0  0  0
  5 15  1  0  0  0  0
  5 35  1  6  0  0  0
  5  4  1  0  0  0  0
  6  7  1  0  0  0  0
  6 36  1  0  0  0  0
  6 37  1  0  0  0  0
  7  8  1  0  0  0  0
  7 38  1  0  0  0  0
  7 39  1  0  0  0  0
  8  9  2  0  0  0  0
  8 13  1  0  0  0  0
  9 10  1  0  0  0  0
  9 40  1  0  0  0  0
 10 11  2  0  0  0  0
 10 29  1  0  0  0  0
 11 12  1  0  0  0  0
 11 27  1  0  0  0  0
 12 13  2  0  0  0  0
 12 25  1  0  0  0  0
 13 14  1  0  0  0  0
 14 15  2  0  0  0  0
 14 19  1  0  0  0  0
 15 16  1  0  0  0  0
 16 17  2  0  0  0  0
 16 41  1  0  0  0  0
 17 18  1  0  0  0  0
 17 20  1  0  0  0  0
 18 19  2  0  0  0  0
 18 42  1  0  0  0  0
 19 43  1  0  0  0  0
 20 21  1  0  0  0  0
 21 22  2  0  0  0  0
 21 23  1  0  0  0  0
 21 24  1  0  0  0  0
 23 44  1  0  0  0  0
 24 45  1  0  0  0  0
 25 26  1  0  0  0  0
 26 46  1  0  0  0  0
 26 47  1  0  0  0  0
 26 48  1  0  0  0  0
 27 28  1  0  0  0  0
 28 49  1  0  0  0  0
 28 50  1  0  0  0  0
 28 51  1  0  0  0  0
 29 30  1  0  0  0  0
 30 52  1  0  0  0  0
 30 53  1  0  0  0  0
 30 54  1  0  0  0  0
M  END
>  <DRUGBANK_ID>
DB11872

>  <COMMON_NAME>
ZD-6126

>  <CAS_NUMBER>
219923-05-4

>  <UNII>
GBO3S6M9W7

$$$$
