ASF
 OpenBabel10282417163D

 26 25  0  0  0  0  0  0  0  0999 V2000
    1.0813   -0.0317    0.0062 C   0  0  0  0  0  0  0  0  0  0  0  0
    0.6485    1.4267    0.0108 C   0  0  0  0  0  0  0  0  0  0  0  0
    1.0201    2.1289   -1.2963 C   0  0  0  0  0  0  0  0  0  0  0  0
    0.4501    1.4465   -2.5440 C   0  0  0  0  0  0  0  0  0  0  0  0
   -1.8956    3.0554   -2.6388 C   0  0  0  0  0  0  0  0  0  0  0  0
   -1.4053    3.8411   -3.8434 C   0  0  0  0  0  0  0  0  0  0  0  0
   -1.8117    3.2508   -5.1694 C   0  0  0  0  0  0  0  0  0  0  0  0
   -1.7828    0.6168   -3.7275 O   0  0  0  0  0  0  0  0  0  0  0  0
   -1.8388    0.8314   -1.2799 O   0  0  0  0  0  0  0  0  0  0  0  0
   -2.6868    3.9747   -5.8875 O   0  0  0  0  0  0  0  0  0  0  0  0
   -1.3203    2.2251   -5.6226 O   0  0  0  0  0  0  0  0  0  0  0  0
   -1.3607    1.3407   -2.5501 S   0  0  0  0  0  0  0  0  0  0  0  0
    0.6812   -0.5889   -0.8469 H   0  0  0  0  0  0  0  0  0  0  0  0
    0.7277   -0.5415    0.9044 H   0  0  0  0  0  0  0  0  0  0  0  0
    2.1723   -0.0938   -0.0358 H   0  0  0  0  0  0  0  0  0  0  0  0
   -0.4224    1.5028    0.1992 H   0  0  0  0  0  0  0  0  0  0  0  0
    1.0951    1.9495    0.8614 H   0  0  0  0  0  0  0  0  0  0  0  0
    0.6934    3.1741   -1.2555 H   0  0  0  0  0  0  0  0  0  0  0  0
    2.1157    2.1595   -1.3707 H   0  0  0  0  0  0  0  0  0  0  0  0
    0.7675    1.9814   -3.4450 H   0  0  0  0  0  0  0  0  0  0  0  0
    0.8387    0.4303   -2.6575 H   0  0  0  0  0  0  0  0  0  0  0  0
   -2.9878    3.0532   -2.5796 H   0  0  0  0  0  0  0  0  0  0  0  0
   -1.5337    3.5379   -1.7194 H   0  0  0  0  0  0  0  0  0  0  0  0
   -1.7631    4.8758   -3.7740 H   0  0  0  0  0  0  0  0  0  0  0  0
   -0.3122    3.9157   -3.8439 H   0  0  0  0  0  0  0  0  0  0  0  0
   -2.9053    4.8648   -5.5603 H   0  0  0  0  0  0  0  0  0  0  0  0
  1  2  1  0  0  0  0
  1 13  1  0  0  0  0
  1 14  1  0  0  0  0
  1 15  1  0  0  0  0
  2  3  1  0  0  0  0
  2 16  1  0  0  0  0
  2 17  1  0  0  0  0
  3  4  1  0  0  0  0
  3 18  1  0  0  0  0
  3 19  1  0  0  0  0
  4 12  1  0  0  0  0
  4 20  1  0  0  0  0
  4 21  1  0  0  0  0
  5  6  1  0  0  0  0
  5 12  1  0  0  0  0
  5 22  1  0  0  0  0
  5 23  1  0  0  0  0
  6  7  1  0  0  0  0
  6 24  1  0  0  0  0
  6 25  1  0  0  0  0
  7 10  1  0  0  0  0
  7 11  2  0  0  0  0
  8 12  2  0  0  0  0
  9 12  2  0  0  0  0
 10 26  1  0  0  0  0
M  END
>  <DRUGBANK_ID>
DB07387

>  <COMMON_NAME>
3-(BUTYLSULPHONYL)-PROPANOIC ACID

$$$$
