1465
 OpenBabel10282417113D

 31 31  0  0  1  0  0  0  0  0999 V2000
    1.0187   -0.0112    0.1260 O   0  0  0  0  0  0  0  0  0  0  0  0
   -1.8483   -4.5348   -1.3627 O   0  0  0  0  0  0  0  0  0  0  0  0
    0.9589   -4.4792    2.6132 N   0  0  0  0  0  0  0  0  0  0  0  0
    1.9099   -2.7710    1.0719 C   0  0  0  0  0  0  0  0  0  0  0  0
    1.6181   -3.1780    2.5216 C   0  0  3  0  0  0  0  0  0  0  0  0
    0.7345   -2.4623    0.1880 C   0  0  0  0  0  0  0  0  0  0  0  0
    0.4133   -1.1750   -0.2728 C   0  0  0  0  0  0  0  0  0  0  0  0
    2.9484   -3.2259    3.2784 C   0  0  0  0  0  0  0  0  0  0  0  0
   -0.0773   -3.5450   -0.2224 C   0  0  0  0  0  0  0  0  0  0  0  0
   -1.1901   -3.3823   -1.0380 C   0  0  0  0  0  0  0  0  0  0  0  0
   -0.7253   -1.0113   -1.0743 C   0  0  0  0  0  0  0  0  0  0  0  0
   -1.5311   -2.0965   -1.4486 C   0  0  0  0  0  0  0  0  0  0  0  0
    2.4207    0.1402   -0.0964 C   0  0  0  0  0  0  0  0  0  0  0  0
   -2.7988   -4.4358   -2.4156 C   0  0  0  0  0  0  0  0  0  0  0  0
    0.8100   -4.7211    3.5900 H   0  0  0  0  0  0  0  0  0  0  0  0
    0.0225   -4.3851    2.2163 H   0  0  0  0  0  0  0  0  0  0  0  0
    2.5563   -3.4932    0.5570 H   0  0  0  0  0  0  0  0  0  0  0  0
    2.5268   -1.8975    1.1780 H   0  0  0  0  0  0  0  0  0  0  0  0
    0.9757   -2.4220    2.9899 H   0  0  0  0  0  0  0  0  0  0  0  0
    3.4231   -2.2367    3.2872 H   0  0  0  0  0  0  0  0  0  0  0  0
    2.8061   -3.5333    4.3177 H   0  0  0  0  0  0  0  0  0  0  0  0
    3.6504   -3.9206    2.8018 H   0  0  0  0  0  0  0  0  0  0  0  0
    0.1667   -4.5588    0.1021 H   0  0  0  0  0  0  0  0  0  0  0  0
   -1.0033   -0.0166   -1.4213 H   0  0  0  0  0  0  0  0  0  0  0  0
   -2.4118   -1.9109   -2.0494 H   0  0  0  0  0  0  0  0  0  0  0  0
    2.6496    1.2082   -0.0392 H   0  0  0  0  0  0  0  0  0  0  0  0
    3.0280   -0.2748    0.7085 H   0  0  0  0  0  0  0  0  0  0  0  0
    2.7457   -0.2450   -1.0669 H   0  0  0  0  0  0  0  0  0  0  0  0
   -3.6864   -3.8952   -2.0739 H   0  0  0  0  0  0  0  0  0  0  0  0
   -2.3649   -3.9639   -3.3043 H   0  0  0  0  0  0  0  0  0  0  0  0
   -3.1061   -5.4476   -2.6968 H   0  0  0  0  0  0  0  0  0  0  0  0
  1  7  1  0  0  0  0
  1 13  1  0  0  0  0
  2 10  1  0  0  0  0
  2 14  1  0  0  0  0
  3  5  1  0  0  0  0
  3 15  1  0  0  0  0
  3 16  1  0  0  0  0
  4  5  1  0  0  0  0
  4  6  1  0  0  0  0
  4 17  1  0  0  0  0
  4 18  1  0  0  0  0
  5  8  1  0  0  0  0
  5 19  1  0  0  0  0
  6  7  2  0  0  0  0
  6  9  1  0  0  0  0
  7 11  1  0  0  0  0
  8 20  1  0  0  0  0
  8 21  1  0  0  0  0
  8 22  1  0  0  0  0
  9 10  2  0  0  0  0
  9 23  1  0  0  0  0
 10 12  1  0  0  0  0
 11 12  2  0  0  0  0
 11 24  1  0  0  0  0
 12 25  1  0  0  0  0
 13 26  1  0  0  0  0
 13 27  1  0  0  0  0
 13 28  1  0  0  0  0
 14 29  1  0  0  0  0
 14 30  1  0  0  0  0
 14 31  1  0  0  0  0
M  END
>  <DRUGBANK_ID>
DB01465

>  <COMMON_NAME>
2,5-Dimethoxyamphetamine

>  <CAS_NUMBER>
2801-68-5

>  <UNII>
OIM1536TQQ

$$$$
