
 OpenBabel10282417203D

 57 62  0  0  0  0  0  0  0  0999 V2000
    3.0764   -0.4176   -0.5377 C   0  0  0  0  0  0  0  0  0  0  0  0
    4.0350    0.5942   -0.3755 C   0  0  0  0  0  0  0  0  0  0  0  0
    3.7177    1.8059    0.1810 C   0  0  0  0  0  0  0  0  0  0  0  0
    2.4118    2.0773    0.5310 C   0  0  0  0  0  0  0  0  0  0  0  0
    1.4369    1.1113    0.4081 C   0  0  0  0  0  0  0  0  0  0  0  0
    1.7271   -0.1698   -0.0847 C   0  0  0  0  0  0  0  0  0  0  0  0
    4.8865    2.5740    0.1957 C   0  0  0  0  0  0  0  0  0  0  0  0
    5.8963    1.8999   -0.3701 N   0  0  0  0  0  0  0  0  0  0  0  0
    5.3650    0.6338   -0.7083 O   0  0  0  0  0  0  0  0  0  0  0  0
    3.4404   -1.5725   -1.1166 F   0  0  0  0  0  0  0  0  0  0  0  0
    0.6397   -1.0815   -0.1753 N   0  0  0  0  0  0  0  0  0  0  0  0
   -0.6143   -0.7554    0.6104 C   0  0  1  0  0  0  0  0  0  0  0  0
   -1.0414    0.7057    0.3376 C   0  0  0  0  0  0  0  0  0  0  0  0
    0.0879    1.5728    0.8561 C   0  0  0  0  0  0  0  0  0  0  0  0
    1.0230   -2.4813   -0.0921 C   0  0  0  0  0  0  0  0  0  0  0  0
   -0.1480   -3.4144   -0.4021 C   0  0  2  0  0  0  0  0  0  0  0  0
   -1.2557   -3.1551    0.4609 O   0  0  0  0  0  0  0  0  0  0  0  0
   -1.7397   -1.8018    0.3033 C   0  0  1  0  0  0  0  0  0  0  0  0
   -2.4801    1.2916   -1.5804 N   0  0  0  0  0  0  0  0  0  0  0  0
   -1.2330    0.9553   -1.1544 C   0  0  0  0  0  0  0  0  0  0  0  0
   -2.2319    1.1347    1.1734 C   0  0  0  0  0  0  0  0  0  0  0  0
   -3.4084    1.3742    0.5254 N   0  0  0  0  0  0  0  0  0  0  0  0
   -3.5691    1.5243   -0.8124 C   0  0  0  0  0  0  0  0  0  0  0  0
   -2.9466   -1.7285    1.2453 C   0  0  0  0  0  0  0  0  0  0  0  0
   -0.3526    0.8886   -2.0089 O   0  0  0  0  0  0  0  0  0  0  0  0
   -4.6385    1.8701   -1.2982 O   0  0  0  0  0  0  0  0  0  0  0  0
   -2.1927    1.2157    2.4024 O   0  0  0  0  0  0  0  0  0  0  0  0
   -0.3529   -0.8838    1.6732 H   0  0  0  0  0  0  0  0  0  0  0  0
    0.3931   -4.8225   -0.1764 C   0  0  0  0  0  0  0  0  0  0  0  0
    4.9121    3.8442    0.7690 N   0  0  0  0  0  0  0  0  0  0  0  0
    5.0328    4.9588   -0.0395 C   0  0  0  0  0  0  0  0  0  0  0  0
    4.6650    6.0795    0.6689 O   0  0  0  0  0  0  0  0  0  0  0  0
    4.2654    5.7144    1.9916 C   0  0  0  0  0  0  0  0  0  0  0  0
    4.3006    4.2037    2.0259 C   0  0  2  0  0  0  0  0  0  0  0  0
    5.3449    5.0084   -1.2088 O   0  0  0  0  0  0  0  0  0  0  0  0
    5.1016    3.6329    3.1788 C   0  0  0  0  0  0  0  0  0  0  0  0
    2.1262    3.0651    0.8557 H   0  0  0  0  0  0  0  0  0  0  0  0
   -0.0764    2.6119    0.5372 H   0  0  0  0  0  0  0  0  0  0  0  0
    0.1233    1.5892    1.9564 H   0  0  0  0  0  0  0  0  0  0  0  0
    1.8018   -2.7471   -0.8047 H   0  0  0  0  0  0  0  0  0  0  0  0
    1.3796   -2.6560    0.9309 H   0  0  0  0  0  0  0  0  0  0  0  0
   -0.4943   -3.3026   -1.4387 H   0  0  0  0  0  0  0  0  0  0  0  0
   -2.0829   -1.6712   -0.7323 H   0  0  0  0  0  0  0  0  0  0  0  0
   -2.5704    1.4452   -2.5756 H   0  0  0  0  0  0  0  0  0  0  0  0
   -4.2172    1.5786    1.0976 H   0  0  0  0  0  0  0  0  0  0  0  0
   -2.9882   -2.5720    1.9376 H   0  0  0  0  0  0  0  0  0  0  0  0
   -2.9642   -0.8648    1.8955 H   0  0  0  0  0  0  0  0  0  0  0  0
   -3.8760   -1.6967    0.6668 H   0  0  0  0  0  0  0  0  0  0  0  0
    1.2182   -4.7931    0.5476 H   0  0  0  0  0  0  0  0  0  0  0  0
   -0.3330   -5.5362    0.2152 H   0  0  0  0  0  0  0  0  0  0  0  0
    0.8209   -5.1928   -1.1131 H   0  0  0  0  0  0  0  0  0  0  0  0
    3.2535    6.1025    2.1695 H   0  0  0  0  0  0  0  0  0  0  0  0
    4.9401    6.1740    2.7173 H   0  0  0  0  0  0  0  0  0  0  0  0
    3.2728    3.8560    2.1512 H   0  0  0  0  0  0  0  0  0  0  0  0
    4.7040    3.9632    4.1414 H   0  0  0  0  0  0  0  0  0  0  0  0
    5.0732    2.5372    3.1539 H   0  0  0  0  0  0  0  0  0  0  0  0
    6.1473    3.9415    3.0950 H   0  0  0  0  0  0  0  0  0  0  0  0
  1  2  2  0  0  0  0
  1  6  1  0  0  0  0
  1 10  1  0  0  0  0
  2  3  1  0  0  0  0
  2  9  1  0  0  0  0
  3  4  2  0  0  0  0
  3  7  1  0  0  0  0
  4  5  1  0  0  0  0
  4 37  1  0  0  0  0
  5  6  2  0  0  0  0
  6 11  1  0  0  0  0
  7  8  2  0  0  0  0
  7 30  1  0  0  0  0
  8  9  1  0  0  0  0
 11 15  1  0  0  0  0
 12 13  1  0  0  0  0
 12 11  1  0  0  0  0
 12 28  1  1  0  0  0
 13 14  1  0  0  0  0
 13 21  1  0  0  0  0
 14  5  1  0  0  0  0
 14 38  1  0  0  0  0
 14 39  1  0  0  0  0
 15 16  1  0  0  0  0
 15 40  1  0  0  0  0
 15 41  1  0  0  0  0
 16 17  1  0  0  0  0
 16 42  1  6  0  0  0
 16 29  1  0  0  0  0
 17 18  1  0  0  0  0
 18 12  1  0  0  0  0
 18 43  1  6  0  0  0
 18 24  1  0  0  0  0
 19 20  1  0  0  0  0
 19 44  1  0  0  0  0
 20 13  1  0  0  0  0
 20 25  2  0  0  0  0
 21 22  1  0  0  0  0
 21 27  2  0  0  0  0
 22 23  1  0  0  0  0
 22 45  1  0  0  0  0
 23 19  1  0  0  0  0
 23 26  2  0  0  0  0
 24 46  1  0  0  0  0
 24 47  1  0  0  0  0
 24 48  1  0  0  0  0
 29 49  1  0  0  0  0
 29 50  1  0  0  0  0
 29 51  1  0  0  0  0
 30 31  1  0  0  0  0
 30 34  1  0  0  0  0
 31 32  1  0  0  0  0
 31 35  2  0  0  0  0
 32 33  1  0  0  0  0
 33 34  1  0  0  0  0
 33 52  1  0  0  0  0
 33 53  1  0  0  0  0
 34 36  1  0  0  0  0
 34 54  1  1  0  0  0
 36 55  1  0  0  0  0
 36 56  1  0  0  0  0
 36 57  1  0  0  0  0
M  END
>  <DRUGBANK_ID>
DB12817

>  <COMMON_NAME>
Zoliflodacin

>  <CAS_NUMBER>
1620458-09-4

>  <UNII>
FWL2263R77

>  <SYNONYMS>
Zoliflodacin

$$$$
