1186
 OpenBabel10282417113D

 48 51  0  0  1  0  0  0  0  0999 V2000
    0.4294    1.8942    1.0819 S   0  0  0  0  0  0  0  0  0  0  0  0
    1.4102    0.1958    3.7975 N   0  0  0  0  0  0  0  0  0  0  0  0
    0.2054   -3.1584    7.0588 N   0  0  0  0  0  0  0  0  0  0  0  0
   -0.6153    1.0225    5.4713 C   0  0  2  0  0  0  0  0  0  0  0  0
    1.2201    0.7602    5.2049 C   0  0  1  0  0  0  0  0  0  0  0  0
   -1.8892    0.4708    4.0828 C   0  0  0  0  0  0  0  0  0  0  0  0
   -1.1111   -0.1683    2.7695 C   0  0  2  0  0  0  0  0  0  0  0  0
    0.0136    0.0567    3.5347 C   0  0  0  0  0  0  0  0  0  0  0  0
    2.1340   -0.1406    6.1933 C   0  0  0  0  0  0  0  0  0  0  0  0
   -0.8962    0.1710    6.6708 C   0  0  0  0  0  0  0  0  0  0  0  0
    1.2723   -1.2398    6.7108 C   0  0  0  0  0  0  0  0  0  0  0  0
   -0.1034   -0.9710    6.9320 C   0  0  0  0  0  0  0  0  0  0  0  0
    1.9296   -1.1484    3.7003 C   0  0  0  0  0  0  0  0  0  0  0  0
   -1.0028    0.6599    1.4363 C   0  0  0  0  0  0  0  0  0  0  0  0
   -0.7566   -2.1685    7.1292 C   0  0  0  0  0  0  0  0  0  0  0  0
   -2.2142    0.2523    7.0491 C   0  0  0  0  0  0  0  0  0  0  0  0
    1.4546   -2.6079    6.8280 C   0  0  0  0  0  0  0  0  0  0  0  0
    1.5372   -2.0876    2.5785 C   0  0  0  0  0  0  0  0  0  0  0  0
   -2.1568   -2.1774    7.2442 C   0  0  0  0  0  0  0  0  0  0  0  0
   -2.8546   -0.9454    7.2416 C   0  0  0  0  0  0  0  0  0  0  0  0
    1.5824   -1.3355    1.2920 C   0  0  0  0  0  0  0  0  0  0  0  0
    0.4128    3.0466    2.4924 C   0  0  0  0  0  0  0  0  0  0  0  0
   -0.7504    2.0894    5.7080 H   0  0  0  0  0  0  0  0  0  0  0  0
    1.6696    1.7651    5.2090 H   0  0  0  0  0  0  0  0  0  0  0  0
    0.0168   -4.1501    7.0964 H   0  0  0  0  0  0  0  0  0  0  0  0
   -2.6799   -0.2038    4.4682 H   0  0  0  0  0  0  0  0  0  0  0  0
   -2.4670    1.2228    3.5239 H   0  0  0  0  0  0  0  0  0  0  0  0
   -1.1758   -1.2664    2.6203 H   0  0  0  0  0  0  0  0  0  0  0  0
   -0.2357   -0.6679    4.3375 H   0  0  0  0  0  0  0  0  0  0  0  0
   -0.1699    1.1295    3.5817 H   0  0  0  0  0  0  0  0  0  0  0  0
    2.6959    0.3416    7.0028 H   0  0  0  0  0  0  0  0  0  0  0  0
    2.9999   -0.4988    5.6083 H   0  0  0  0  0  0  0  0  0  0  0  0
    2.9940   -0.9733    3.6415 H   0  0  0  0  0  0  0  0  0  0  0  0
    1.6553   -1.7620    4.5447 H   0  0  0  0  0  0  0  0  0  0  0  0
   -1.9196    1.1811    1.1983 H   0  0  0  0  0  0  0  0  0  0  0  0
   -0.8873   -0.0780    0.6221 H   0  0  0  0  0  0  0  0  0  0  0  0
   -2.7485    1.1805    6.8499 H   0  0  0  0  0  0  0  0  0  0  0  0
    2.3129   -3.2515    6.6441 H   0  0  0  0  0  0  0  0  0  0  0  0
    2.2652   -2.8939    2.5916 H   0  0  0  0  0  0  0  0  0  0  0  0
    0.5529   -2.5487    2.7622 H   0  0  0  0  0  0  0  0  0  0  0  0
   -2.7127   -3.0991    7.3147 H   0  0  0  0  0  0  0  0  0  0  0  0
   -3.9379   -0.9123    7.2607 H   0  0  0  0  0  0  0  0  0  0  0  0
    2.5059   -0.7685    1.1726 H   0  0  0  0  0  0  0  0  0  0  0  0
    1.2929   -1.9174    0.4257 H   0  0  0  0  0  0  0  0  0  0  0  0
    0.8372   -0.5864    1.3709 H   0  0  0  0  0  0  0  0  0  0  0  0
    1.2473    3.7431    2.3999 H   0  0  0  0  0  0  0  0  0  0  0  0
   -0.5447    3.5579    2.4871 H   0  0  0  0  0  0  0  0  0  0  0  0
    0.5856    2.6698    3.4966 H   0  0  0  0  0  0  0  0  0  0  0  0
  1 14  1  0  0  0  0
  1 22  1  0  0  0  0
  2  5  1  0  0  0  0
  2  8  1  0  0  0  0
  2 13  1  0  0  0  0
  3 15  1  0  0  0  0
  3 17  1  0  0  0  0
  3 25  1  0  0  0  0
  4  5  1  0  0  0  0
  4  6  1  0  0  0  0
  4 10  1  0  0  0  0
  4 23  1  6  0  0  0
  5  9  1  0  0  0  0
  5 24  1  6  0  0  0
  6  7  1  0  0  0  0
  6 26  1  0  0  0  0
  6 27  1  0  0  0  0
  7  8  1  0  0  0  0
  7 28  1  6  0  0  0
  7 14  1  0  0  0  0
  8 29  1  0  0  0  0
  8 30  1  0  0  0  0
  9 11  1  0  0  0  0
  9 31  1  0  0  0  0
  9 32  1  0  0  0  0
 10 12  2  0  0  0  0
 10 16  1  0  0  0  0
 11 12  1  0  0  0  0
 11 17  2  0  0  0  0
 12 15  1  0  0  0  0
 13 18  1  0  0  0  0
 13 33  1  0  0  0  0
 13 34  1  0  0  0  0
 14 35  1  0  0  0  0
 14 36  1  0  0  0  0
 15 19  2  0  0  0  0
 16 20  2  0  0  0  0
 16 37  1  0  0  0  0
 17 38  1  0  0  0  0
 18 21  1  0  0  0  0
 18 39  1  0  0  0  0
 18 40  1  0  0  0  0
 19 20  1  0  0  0  0
 19 41  1  0  0  0  0
 20 42  1  0  0  0  0
 21 43  1  0  0  0  0
 21 44  1  0  0  0  0
 21 45  1  0  0  0  0
 22 46  1  0  0  0  0
 22 47  1  0  0  0  0
 22 48  1  0  0  0  0
M  END
>  <DRUGBANK_ID>
DB01186

>  <SECONDARY_ACCESSION_NUMBERS>
APRD00663

>  <COMMON_NAME>
Pergolide

>  <CAS_NUMBER>
66104-22-1

>  <UNII>
24MJ822NZ9

>  <SYNONYMS>
Pergolida; Pergolide; Pergolidum

$$$$
