
 OpenBabel10282417133D

 50 52  0  0  0  0  0  0  0  0999 V2000
    0.8978   -0.0655   -0.0743 C   0  0  0  0  0  0  0  0  0  0  0  0
    0.2588    0.4103    1.1414 N   0  0  0  0  0  0  0  0  0  0  0  0
   -0.4316    1.6948    1.1312 C   0  0  0  0  0  0  0  0  0  0  0  0
    0.6962   -0.0183    2.3829 C   0  0  0  0  0  0  0  0  0  0  0  0
    2.0168   -0.3517    2.6140 C   0  0  0  0  0  0  0  0  0  0  0  0
    2.4717   -0.5475    3.9122 C   0  0  0  0  0  0  0  0  0  0  0  0
    1.6237   -0.6720    5.0201 C   0  0  0  0  0  0  0  0  0  0  0  0
    0.2971   -0.3072    4.7806 C   0  0  0  0  0  0  0  0  0  0  0  0
   -0.1589   -0.0170    3.4892 C   0  0  0  0  0  0  0  0  0  0  0  0
    2.0546   -1.1695    6.3962 C   0  0  0  0  0  0  0  0  0  0  0  0
    1.0703   -1.1813    7.5409 C   0  0  0  0  0  0  0  0  0  0  0  0
   -0.0834   -1.9827    7.4579 C   0  0  0  0  0  0  0  0  0  0  0  0
   -0.9718   -2.0719    8.5303 C   0  0  0  0  0  0  0  0  0  0  0  0
   -0.6828   -1.4164    9.7236 C   0  0  0  0  0  0  0  0  0  0  0  0
    0.4727   -0.6446    9.8329 C   0  0  0  0  0  0  0  0  0  0  0  0
    1.3087   -0.4721    8.7273 C   0  0  0  0  0  0  0  0  0  0  0  0
    3.2840   -1.7254    6.6468 C   0  0  0  0  0  0  0  0  0  0  0  0
    3.7279   -2.1903    7.9633 C   0  0  0  0  0  0  0  0  0  0  0  0
    5.0329   -2.2629    8.2582 C   0  0  0  0  0  0  0  0  0  0  0  0
    6.0745   -1.9140    7.2199 C   0  0  0  0  0  0  0  0  0  0  0  0
    5.5733   -1.9332    5.8180 C   0  0  0  0  0  0  0  0  0  0  0  0
    4.2655   -1.9913    5.6053 C   0  0  0  0  0  0  0  0  0  0  0  0
    7.3208   -1.7178    7.5041 N   0  3  0  0  0  0  0  0  0  0  0  0
    8.3713   -1.3703    6.4919 C   0  0  0  0  0  0  0  0  0  0  0  0
    7.8178   -1.8305    8.9077 C   0  0  0  0  0  0  0  0  0  0  0  0
    0.5522    0.4890   -0.9507 H   0  0  0  0  0  0  0  0  0  0  0  0
    0.6241   -1.1158   -0.2168 H   0  0  0  0  0  0  0  0  0  0  0  0
    1.9907    0.0091   -0.0671 H   0  0  0  0  0  0  0  0  0  0  0  0
   -1.4224    1.5865    1.5831 H   0  0  0  0  0  0  0  0  0  0  0  0
    0.1216    2.4646    1.6865 H   0  0  0  0  0  0  0  0  0  0  0  0
   -0.5803    2.0638    0.1134 H   0  0  0  0  0  0  0  0  0  0  0  0
    2.7546   -0.3767    1.8199 H   0  0  0  0  0  0  0  0  0  0  0  0
    3.5483   -0.5461    3.9807 H   0  0  0  0  0  0  0  0  0  0  0  0
   -0.4242   -0.2088    5.5867 H   0  0  0  0  0  0  0  0  0  0  0  0
   -1.2155    0.1975    3.3557 H   0  0  0  0  0  0  0  0  0  0  0  0
   -0.3123   -2.5301    6.5445 H   0  0  0  0  0  0  0  0  0  0  0  0
   -1.8777   -2.6668    8.4387 H   0  0  0  0  0  0  0  0  0  0  0  0
   -1.3623   -1.5026   10.5681 H   0  0  0  0  0  0  0  0  0  0  0  0
    0.7253   -0.1836   10.7842 H   0  0  0  0  0  0  0  0  0  0  0  0
    2.1765    0.1760    8.8151 H   0  0  0  0  0  0  0  0  0  0  0  0
    2.9898   -2.4916    8.7027 H   0  0  0  0  0  0  0  0  0  0  0  0
    5.3258   -2.6130    9.2415 H   0  0  0  0  0  0  0  0  0  0  0  0
    6.2310   -2.0356    4.9636 H   0  0  0  0  0  0  0  0  0  0  0  0
    3.9342   -2.2870    4.6164 H   0  0  0  0  0  0  0  0  0  0  0  0
    8.8058   -0.4088    6.7715 H   0  0  0  0  0  0  0  0  0  0  0  0
    9.1198   -2.1658    6.4929 H   0  0  0  0  0  0  0  0  0  0  0  0
    7.9610   -1.2734    5.4869 H   0  0  0  0  0  0  0  0  0  0  0  0
    7.2864   -1.0969    9.5196 H   0  0  0  0  0  0  0  0  0  0  0  0
    7.6298   -2.8509    9.2552 H   0  0  0  0  0  0  0  0  0  0  0  0
    8.8906   -1.6307    8.9327 H   0  0  0  0  0  0  0  0  0  0  0  0
  1  2  1  0  0  0  0
  1 26  1  0  0  0  0
  1 27  1  0  0  0  0
  1 28  1  0  0  0  0
  2  3  1  0  0  0  0
  2  4  1  0  0  0  0
  3 29  1  0  0  0  0
  3 30  1  0  0  0  0
  3 31  1  0  0  0  0
  4  5  2  0  0  0  0
  4  9  1  0  0  0  0
  5  6  1  0  0  0  0
  5 32  1  0  0  0  0
  6  7  2  0  0  0  0
  6 33  1  0  0  0  0
  7  8  1  0  0  0  0
  7 10  1  0  0  0  0
  8  9  2  0  0  0  0
  8 34  1  0  0  0  0
  9 35  1  0  0  0  0
 10 11  1  0  0  0  0
 10 17  2  0  0  0  0
 11 12  2  0  0  0  0
 11 16  1  0  0  0  0
 12 13  1  0  0  0  0
 12 36  1  0  0  0  0
 13 14  2  0  0  0  0
 13 37  1  0  0  0  0
 14 15  1  0  0  0  0
 14 38  1  0  0  0  0
 15 16  2  0  0  0  0
 15 39  1  0  0  0  0
 16 40  1  0  0  0  0
 17 18  1  0  0  0  0
 17 22  1  0  0  0  0
 18 19  2  0  0  0  0
 18 41  1  0  0  0  0
 19 20  1  0  0  0  0
 19 42  1  0  0  0  0
 20 21  1  0  0  0  0
 20 23  2  0  0  0  0
 21 22  2  0  0  0  0
 21 43  1  0  0  0  0
 22 44  1  0  0  0  0
 23 24  1  0  0  0  0
 23 25  1  0  0  0  0
 24 45  1  0  0  0  0
 24 46  1  0  0  0  0
 24 47  1  0  0  0  0
 25 48  1  0  0  0  0
 25 49  1  0  0  0  0
 25 50  1  0  0  0  0
M  CHG  1  23   1
M  END
>  <DRUGBANK_ID>
DB03895

>  <SECONDARY_ACCESSION_NUMBERS>
EXPT02168

>  <COMMON_NAME>
Malachite Green

>  <CAS_NUMBER>
10309-95-2

>  <UNII>
AWT9R95TV1

>  <SYNONYMS>
malachite green cation; malachite green(1+)

$$$$
