
 OpenBabel10282417203D

 25 26  0  0  0  0  0  0  0  0999 V2000
   -2.5381    0.7325    0.0002 C   0  0  0  0  0  0  0  0  0  0  0  0
   -2.5424   -0.6684    0.0020 C   0  0  0  0  0  0  0  0  0  0  0  0
   -1.3513   -1.3549   -0.0010 C   0  0  0  0  0  0  0  0  0  0  0  0
   -1.3458    1.4700   -0.0014 C   0  0  0  0  0  0  0  0  0  0  0  0
   -0.1400    0.7974   -0.0015 C   0  0  0  0  0  0  0  0  0  0  0  0
   -0.1754   -0.6152   -0.0021 C   0  0  0  0  0  0  0  0  0  0  0  0
    1.0070   -1.3857   -0.0017 C   0  0  0  0  0  0  0  0  0  0  0  0
    2.1263   -0.6868    0.0004 C   0  0  0  0  0  0  0  0  0  0  0  0
    2.4472    0.7032    0.0006 C   0  0  0  0  0  0  0  0  0  0  0  0
    1.1735    1.5633   -0.0005 C   0  0  0  0  0  0  0  0  0  0  0  0
    1.2160    2.7808   -0.0002 O   0  0  0  0  0  0  0  0  0  0  0  0
    3.6788    1.1451    0.0020 N   0  0  0  0  0  0  0  0  0  0  0  0
    4.8463    0.2946    0.0031 N   0  0  0  0  0  0  0  0  0  0  0  0
    5.0854   -1.0787    0.0027 C   0  0  0  0  0  0  0  0  0  0  0  0
    6.3546   -1.4865    0.0052 N   0  0  0  0  0  0  0  0  0  0  0  0
    4.4245   -2.1138    0.0010 O   0  0  0  0  0  0  0  0  0  0  0  0
   -3.4845    1.2599   -0.0000 H   0  0  0  0  0  0  0  0  0  0  0  0
   -3.4693   -1.2310    0.0059 H   0  0  0  0  0  0  0  0  0  0  0  0
   -1.3241   -2.4449   -0.0019 H   0  0  0  0  0  0  0  0  0  0  0  0
   -1.3582    2.5552   -0.0020 H   0  0  0  0  0  0  0  0  0  0  0  0
    1.0805   -2.4652   -0.0005 H   0  0  0  0  0  0  0  0  0  0  0  0
    2.9256   -1.2977    0.0048 H   0  0  0  0  0  0  0  0  0  0  0  0
    5.6817    0.8693    0.0040 H   0  0  0  0  0  0  0  0  0  0  0  0
    6.3382   -2.5049    0.0044 H   0  0  0  0  0  0  0  0  0  0  0  0
    7.2059   -0.9705    0.0049 H   0  0  0  0  0  0  0  0  0  0  0  0
  1  2  2  0  0  0  0
  1 17  1  0  0  0  0
  2  3  1  0  0  0  0
  2 18  1  0  0  0  0
  3  6  2  0  0  0  0
  3 19  1  0  0  0  0
  4  1  1  0  0  0  0
  4 20  1  0  0  0  0
  5  4  2  0  0  0  0
  5  6  1  0  0  0  0
  6  7  1  0  0  0  0
  7  8  2  0  0  0  0
  7 21  1  0  0  0  0
  8  9  1  0  0  0  0
  8 22  1  0  0  0  0
  9 10  1  0  0  0  0
  9 12  2  0  0  0  0
 10  5  1  0  0  0  0
 10 11  2  0  0  0  0
 12 13  1  0  0  0  0
 13 14  1  0  0  0  0
 13 23  1  0  0  0  0
 14 15  1  0  0  0  0
 14 16  2  0  0  0  0
 15 24  1  0  0  0  0
 15 25  1  0  0  0  0
M  END
>  <DRUGBANK_ID>
DB13680

>  <COMMON_NAME>
Naftazone

>  <CAS_NUMBER>
15687-37-3

>  <UNII>
15B0523P5L

>  <SYNONYMS>
Naftazona; Naftazone; Naftazonum

$$$$
