
 OpenBabel10282417233D

 32 34  0  0  0  0  0  0  0  0999 V2000
    0.9405   -0.0004    0.0744 C   0  0  0  0  0  0  0  0  0  0  0  0
    0.3684   -1.3318    0.1739 N   0  0  0  0  0  0  0  0  0  0  0  0
   -0.3529   -1.7577    1.2775 C   0  0  0  0  0  0  0  0  0  0  0  0
   -0.0565   -2.8816    1.8746 N   0  0  0  0  0  0  0  0  0  0  0  0
   -0.7627   -3.2996    3.0338 C   0  0  0  0  0  0  0  0  0  0  0  0
   -2.1536   -3.2132    3.2354 C   0  0  0  0  0  0  0  0  0  0  0  0
   -2.7258   -3.6793    4.4352 C   0  0  0  0  0  0  0  0  0  0  0  0
   -1.9524   -4.2676    5.4212 C   0  0  0  0  0  0  0  0  0  0  0  0
   -2.7152   -4.8470    6.8501 Cl  0  0  0  0  0  0  0  0  0  0  0  0
   -0.5865   -4.3792    5.2415 C   0  0  0  0  0  0  0  0  0  0  0  0
   -0.0020   -3.8961    4.0590 C   0  0  0  0  0  0  0  0  0  0  0  0
   -3.0521   -2.6406    2.1974 C   0  0  0  0  0  0  0  0  0  0  0  0
   -2.7805   -1.5894    1.4896 N   0  0  0  0  0  0  0  0  0  0  0  0
   -1.5213   -0.8806    1.7330 C   0  0  0  0  0  0  0  0  0  0  0  0
   -4.3170   -3.3132    1.9197 C   0  0  0  0  0  0  0  0  0  0  0  0
   -4.7279   -3.8869    0.7259 C   0  0  0  0  0  0  0  0  0  0  0  0
   -6.0031   -4.4717    0.9216 C   0  0  0  0  0  0  0  0  0  0  0  0
   -6.3620   -4.2365    2.2257 C   0  0  0  0  0  0  0  0  0  0  0  0
   -5.3709   -3.4857    2.7975 N   0  0  0  0  0  0  0  0  0  0  0  0
    0.6586    0.6429    0.9152 H   0  0  0  0  0  0  0  0  0  0  0  0
    0.6105    0.4819   -0.8505 H   0  0  0  0  0  0  0  0  0  0  0  0
    2.0356   -0.0477    0.0594 H   0  0  0  0  0  0  0  0  0  0  0  0
    0.9081   -2.0561   -0.2882 H   0  0  0  0  0  0  0  0  0  0  0  0
   -3.7797   -3.5877    4.6383 H   0  0  0  0  0  0  0  0  0  0  0  0
    0.0255   -4.8378    6.0127 H   0  0  0  0  0  0  0  0  0  0  0  0
    1.0743   -3.9924    3.9338 H   0  0  0  0  0  0  0  0  0  0  0  0
   -1.5410    0.0329    1.1303 H   0  0  0  0  0  0  0  0  0  0  0  0
   -1.3872   -0.5781    2.7765 H   0  0  0  0  0  0  0  0  0  0  0  0
   -4.1441   -3.8972   -0.1855 H   0  0  0  0  0  0  0  0  0  0  0  0
   -6.5951   -5.0078    0.1921 H   0  0  0  0  0  0  0  0  0  0  0  0
   -7.2443   -4.5102    2.7900 H   0  0  0  0  0  0  0  0  0  0  0  0
   -5.4232   -3.1230    3.7374 H   0  0  0  0  0  0  0  0  0  0  0  0
  1  2  1  0  0  0  0
  1 20  1  0  0  0  0
  1 21  1  0  0  0  0
  1 22  1  0  0  0  0
  2  3  1  0  0  0  0
  2 23  1  0  0  0  0
  3  4  2  0  0  0  0
  3 14  1  0  0  0  0
  4  5  1  0  0  0  0
  5  6  2  0  0  0  0
  5 11  1  0  0  0  0
  6  7  1  0  0  0  0
  6 12  1  0  0  0  0
  7  8  2  0  0  0  0
  7 24  1  0  0  0  0
  8  9  1  0  0  0  0
  8 10  1  0  0  0  0
 10 11  2  0  0  0  0
 10 25  1  0  0  0  0
 11 26  1  0  0  0  0
 12 13  2  0  0  0  0
 12 15  1  0  0  0  0
 13 14  1  0  0  0  0
 14 27  1  0  0  0  0
 14 28  1  0  0  0  0
 15 16  2  0  0  0  0
 15 19  1  0  0  0  0
 16 17  1  0  0  0  0
 16 29  1  0  0  0  0
 17 18  2  0  0  0  0
 17 30  1  0  0  0  0
 18 19  1  0  0  0  0
 18 31  1  0  0  0  0
 19 32  1  0  0  0  0
M  END
>  <DRUGBANK_ID>
DB16062

>  <COMMON_NAME>
Ro 24-7429

>  <CAS_NUMBER>
139339-45-0

>  <UNII>
MLW2GKK8LI

$$$$
