
 OpenBabel10282417233D

 42 40  0  0  0  0  0  0  0  0999 V2000
   -0.0202   -0.4582    0.4709 C   0  0  0  0  0  0  0  0  0  0  0  0
    0.5626    2.5928   -0.8319 C   0  0  0  0  0  0  0  0  0  0  0  0
   -0.2190   -1.3272    1.6392 C   0  0  0  0  0  0  0  0  0  0  0  0
   -0.1453    1.3998    0.3795 C   0  0  1  0  0  0  0  0  0  0  0  0
   -0.0816    3.1197   -1.7379 O   0  0  0  0  0  0  0  0  0  0  0  0
   -0.6080   -0.9933    2.7736 O   0  0  0  0  0  0  0  0  0  0  0  0
   -1.5828    1.6057    0.2323 N   0  0  0  0  0  0  0  0  0  0  0  0
    1.8964    2.8932   -0.7568 O   0  0  0  0  0  0  0  0  0  0  0  0
    0.3284   -2.5572    1.3909 O   0  0  0  0  0  0  0  0  0  0  0  0
    2.1334    0.5388   -0.3475 C   0  0  0  0  0  0  0  0  0  0  0  0
   -0.4566   -0.5240   -5.8776 C   0  0  0  0  0  0  0  0  0  0  0  0
    2.1873    0.7264    0.9598 N   0  0  0  0  0  0  0  0  0  0  0  0
   -0.9891   -0.6937   -6.9634 O   0  0  0  0  0  0  0  0  0  0  0  0
    1.1970    0.2863   -1.4366 N   0  0  0  0  0  0  0  0  0  0  0  0
   -1.1778   -0.4021   -4.5145 C   0  0  1  0  0  0  0  0  0  0  0  0
    3.4041    0.3231   -0.5771 N   0  0  0  0  0  0  0  0  0  0  0  0
    0.8868   -0.4133   -5.7872 O   0  0  0  0  0  0  0  0  0  0  0  0
   -2.6441   -0.4444   -4.7076 N   0  0  0  0  0  0  0  0  0  0  0  0
    1.4057   -0.1523   -2.7917 C   0  0  0  0  0  0  0  0  0  0  0  0
   -0.7729   -1.5133   -3.5373 C   0  0  0  0  0  0  0  0  0  0  0  0
    0.7318   -1.5005   -3.1738 C   0  0  0  0  0  0  0  0  0  0  0  0
   -0.2317   -1.0495   -0.4449 H   0  0  0  0  0  0  0  0  0  0  0  0
    1.0279   -0.8007    0.5176 H   0  0  0  0  0  0  0  0  0  0  0  0
    0.1670    1.9003    1.3083 H   0  0  0  0  0  0  0  0  0  0  0  0
   -1.7311    2.6124    0.3268 H   0  0  0  0  0  0  0  0  0  0  0  0
   -1.8138    1.3894   -0.7349 H   0  0  0  0  0  0  0  0  0  0  0  0
    2.2852    3.1706   -1.6240 H   0  0  0  0  0  0  0  0  0  0  0  0
    0.4011   -3.0482    2.2297 H   0  0  0  0  0  0  0  0  0  0  0  0
    1.4131    0.6872    1.6434 H   0  0  0  0  0  0  0  0  0  0  0  0
    0.1651    0.3869   -1.3968 H   0  0  0  0  0  0  0  0  0  0  0  0
   -0.9623    0.5787   -4.0853 H   0  0  0  0  0  0  0  0  0  0  0  0
    3.6431    0.1117    0.4048 H   0  0  0  0  0  0  0  0  0  0  0  0
    3.4929   -0.4805   -1.1536 H   0  0  0  0  0  0  0  0  0  0  0  0
    1.2535   -0.6006   -6.6773 H   0  0  0  0  0  0  0  0  0  0  0  0
   -2.8943    0.3003   -5.3634 H   0  0  0  0  0  0  0  0  0  0  0  0
   -2.8876   -1.3045   -5.2036 H   0  0  0  0  0  0  0  0  0  0  0  0
    1.0664    0.6386   -3.4709 H   0  0  0  0  0  0  0  0  0  0  0  0
    2.4679   -0.2648   -2.8784 H   0  0  0  0  0  0  0  0  0  0  0  0
   -1.0252   -2.4935   -3.9816 H   0  0  0  0  0  0  0  0  0  0  0  0
   -1.3723   -1.4510   -2.6188 H   0  0  0  0  0  0  0  0  0  0  0  0
    1.2624   -1.8413   -4.0691 H   0  0  0  0  0  0  0  0  0  0  0  0
    0.9244   -2.2875   -2.4382 H   0  0  0  0  0  0  0  0  0  0  0  0
  1 22  1  0  0  0  0
  1 23  1  0  0  0  0
  2  4  1  0  0  0  0
  3  1  1  0  0  0  0
  4  1  1  0  0  0  0
  4  7  1  0  0  0  0
  4 24  1  1  0  0  0
  5  2  2  0  0  0  0
  6  3  2  0  0  0  0
  7 25  1  0  0  0  0
  7 26  1  0  0  0  0
  8  2  1  0  0  0  0
  8 27  1  0  0  0  0
  9  3  1  0  0  0  0
  9 28  1  0  0  0  0
 11 15  1  0  0  0  0
 12 10  2  0  0  0  0
 12 29  1  0  0  0  0
 13 11  2  0  0  0  0
 14 10  1  0  0  0  0
 14 30  1  0  0  0  0
 15 20  1  0  0  0  0
 15 18  1  0  0  0  0
 15 31  1  1  0  0  0
 16 10  1  0  0  0  0
 16 32  1  0  0  0  0
 16 33  1  0  0  0  0
 17 11  1  0  0  0  0
 17 34  1  0  0  0  0
 18 35  1  0  0  0  0
 18 36  1  0  0  0  0
 19 14  1  0  0  0  0
 19 37  1  0  0  0  0
 19 38  1  0  0  0  0
 20 21  1  0  0  0  0
 20 39  1  0  0  0  0
 20 40  1  0  0  0  0
 21 19  1  0  0  0  0
 21 41  1  0  0  0  0
 21 42  1  0  0  0  0
M  END
>  <DRUGBANK_ID>
DB15993

>  <COMMON_NAME>
Arginine aspartate

>  <CAS_NUMBER>
7675-83-4

>  <UNII>
LZB1G2I725

>  <SYNONYMS>
Arginine L-aspartate; L-Arginine aspartate; L-Arginine-L-aspartate

$$$$
