
 OpenBabel10282417133D

107111  0  0  0  0  0  0  0  0999 V2000
    1.0575    0.0251    0.1051 S   0  0  0  0  0  0  0  0  0  0  0  0
   -5.2923    4.1810   -5.0541 P   0  0  3  0  0  0  0  0  0  0  0  0
   -6.1320    5.2742   -7.5200 P   0  0  3  0  0  0  0  0  0  0  0  0
   -5.2132    8.8365   -9.6075 P   0  0  0  0  0  0  0  0  0  0  0  0
   -3.6596    4.1473   -5.6250 O   0  0  0  0  0  0  0  0  0  0  0  0
   -1.0576    2.5501   -5.6888 O   0  0  0  0  0  0  0  0  0  0  0  0
   -1.7902    2.0638   -2.6963 O   0  0  0  0  0  0  0  0  0  0  0  0
   -5.8567    3.8068   -6.6460 O   0  0  0  0  0  0  0  0  0  0  0  0
   -4.9620    2.8969   -3.7637 O   0  0  0  0  0  0  0  0  0  0  0  0
   -6.7536    4.2112   -4.5431 O   0  0  0  0  0  0  0  0  0  0  0  0
   -5.0005    4.3852   -8.6108 O   0  0  0  0  0  0  0  0  0  0  0  0
   -8.2500    5.6757   -7.3265 O   0  0  0  0  0  0  0  0  0  0  0  0
   -6.3784    6.5875   -8.3022 O   0  0  0  0  0  0  0  0  0  0  0  0
   -4.1098    6.1389   -9.3260 O   0  0  0  0  0  0  0  0  0  0  0  0
    4.3662    3.6845   -1.7069 O   0  0  0  0  0  0  0  0  0  0  0  0
   -4.3235    9.1146   -8.1502 O   0  0  0  0  0  0  0  0  0  0  0  0
   -5.6650    6.9398   -5.9078 O   0  0  0  0  0  0  0  0  0  0  0  0
   -4.2641    7.8046  -10.1864 O   0  0  0  0  0  0  0  0  0  0  0  0
   -6.5761    9.0263   -8.7932 O   0  0  0  0  0  0  0  0  0  0  0  0
   -6.0095    8.5876  -10.9119 O   0  0  0  0  0  0  0  0  0  0  0  0
    3.4421   -0.5054    0.9043 O   0  0  0  0  0  0  0  0  0  0  0  0
    6.4778    1.9851   -5.6816 O   0  0  0  0  0  0  0  0  0  0  0  0
    3.3569    5.4977   -5.1058 O   0  0  0  0  0  0  0  0  0  0  0  0
    5.4412    4.4610   -6.3696 O   0  0  0  0  0  0  0  0  0  0  0  0
    0.3028    2.3639   -3.5872 N   0  0  0  0  0  0  0  0  0  0  0  0
    2.3060    3.0072   -0.8101 N   0  0  0  0  0  0  0  0  0  0  0  0
   -7.0444    4.8412   -8.8721 N   0  0  0  0  0  0  0  0  0  0  0  0
   -8.6172    3.5807   -8.5724 N   0  0  0  0  0  0  0  0  0  0  0  0
   -5.0365    4.8450   -6.4980 N   0  0  0  0  0  0  0  0  0  0  0  0
   -6.1709    1.9204   -5.7984 N   0  0  0  0  0  0  0  0  0  0  0  0
   -8.5025    1.2800   -6.3006 N   0  0  0  0  0  0  0  0  0  0  0  0
   -1.4378    4.9364   -4.6159 C   0  0  0  0  0  0  0  0  0  0  0  0
   -1.4585    3.3833   -4.5792 C   0  0  3  0  0  0  0  0  0  0  0  0
   -2.7361    4.1704   -4.5156 C   0  0  2  0  0  0  0  0  0  0  0  0
   -0.9860    5.8771   -3.5277 C   0  0  0  0  0  0  0  0  0  0  0  0
   -1.1475    5.7110   -5.8401 C   0  0  0  0  0  0  0  0  0  0  0  0
   -1.0130    2.6040   -3.4586 C   0  0  0  0  0  0  0  0  0  0  0  0
    1.2525    3.1185   -4.2956 C   0  0  0  0  0  0  0  0  0  0  0  0
    1.9477    4.3311   -3.0644 C   0  0  0  0  0  0  0  0  0  0  0  0
    3.1173    3.8773   -1.6612 C   0  0  0  0  0  0  0  0  0  0  0  0
   -3.5078    6.6539   -8.1273 C   0  0  1  0  0  0  0  0  0  0  0  0
   -4.0838    7.9124   -7.4132 C   0  0  2  0  0  0  0  0  0  0  0  0
   -3.5146    5.1160   -8.1961 C   0  0  0  0  0  0  0  0  0  0  0  0
   -5.3368    7.4058   -7.4625 C   0  0  1  0  0  0  0  0  0  0  0  0
   -5.4998    6.1975   -9.3881 C   0  0  1  0  0  0  0  0  0  0  0  0
    0.8753    2.6192   -0.9860 C   0  0  0  0  0  0  0  0  0  0  0  0
   -7.1896    4.3589   -6.8393 C   0  0  0  0  0  0  0  0  0  0  0  0
   -8.2998    4.6910   -9.3083 C   0  0  0  0  0  0  0  0  0  0  0  0
   -7.6897    3.1545   -7.3905 C   0  0  0  0  0  0  0  0  0  0  0  0
    0.3926    1.0362   -1.1838 C   0  0  0  0  0  0  0  0  0  0  0  0
   -7.5054    2.1743   -6.3897 C   0  0  0  0  0  0  0  0  0  0  0  0
   -4.7586    2.7818   -6.2959 C   0  0  0  0  0  0  0  0  0  0  0  0
    2.8256    0.0194   -0.0138 C   0  0  0  0  0  0  0  0  0  0  0  0
    3.6443    0.5618   -1.1504 C   0  0  0  0  0  0  0  0  0  0  0  0
    3.1479    0.9999   -2.2955 C   0  0  0  0  0  0  0  0  0  0  0  0
    3.7905    1.7450   -3.3434 C   0  0  0  0  0  0  0  0  0  0  0  0
    3.4226    2.9624   -3.7465 C   0  0  0  0  0  0  0  0  0  0  0  0
    4.9194    1.5674   -3.9219 C   0  0  0  0  0  0  0  0  0  0  0  0
    5.4329    2.4305   -4.9550 C   0  0  0  0  0  0  0  0  0  0  0  0
    3.8933    4.1178   -4.7332 C   0  0  0  0  0  0  0  0  0  0  0  0
    4.9587    3.6937   -5.3793 C   0  0  0  0  0  0  0  0  0  0  0  0
    6.9285    0.7127   -5.2704 C   0  0  0  0  0  0  0  0  0  0  0  0
    2.1931    6.2412   -4.4207 C   0  0  0  0  0  0  0  0  0  0  0  0
   -1.0923    2.8372   -6.5934 H   0  0  0  0  0  0  0  0  0  0  0  0
   -4.0899    2.4267   -3.6899 H   0  0  0  0  0  0  0  0  0  0  0  0
   -8.8449    4.7488   -7.4030 H   0  0  0  0  0  0  0  0  0  0  0  0
   -5.0790    6.1983   -5.8071 H   0  0  0  0  0  0  0  0  0  0  0  0
   -3.4070    7.4806  -10.4531 H   0  0  0  0  0  0  0  0  0  0  0  0
   -6.5399    9.3710   -7.8890 H   0  0  0  0  0  0  0  0  0  0  0  0
    6.1922    3.9913   -6.7486 H   0  0  0  0  0  0  0  0  0  0  0  0
    0.7516    1.8702   -2.8895 H   0  0  0  0  0  0  0  0  0  0  0  0
    2.8371    2.2985   -0.3274 H   0  0  0  0  0  0  0  0  0  0  0  0
   -9.1951    1.3575   -7.0327 H   0  0  0  0  0  0  0  0  0  0  0  0
   -8.3013    0.5253   -5.6890 H   0  0  0  0  0  0  0  0  0  0  0  0
   -3.3002    4.1740   -3.5982 H   0  0  0  0  0  0  0  0  0  0  0  0
    0.0342    6.1468   -3.7183 H   0  0  0  0  0  0  0  0  0  0  0  0
   -1.4075    6.8779   -3.6771 H   0  0  0  0  0  0  0  0  0  0  0  0
   -0.9745    5.5575   -2.5019 H   0  0  0  0  0  0  0  0  0  0  0  0
   -1.0587    5.0852   -6.7056 H   0  0  0  0  0  0  0  0  0  0  0  0
   -1.9029    6.4936   -5.9359 H   0  0  0  0  0  0  0  0  0  0  0  0
   -0.1999    6.2428   -5.7092 H   0  0  0  0  0  0  0  0  0  0  0  0
    0.8534    3.6268   -5.1296 H   0  0  0  0  0  0  0  0  0  0  0  0
    1.8972    2.2826   -4.7382 H   0  0  0  0  0  0  0  0  0  0  0  0
    1.2305    4.9632   -2.7110 H   0  0  0  0  0  0  0  0  0  0  0  0
    2.7520    4.8223   -3.5013 H   0  0  0  0  0  0  0  0  0  0  0  0
   -2.6089    7.1798   -8.3924 H   0  0  0  0  0  0  0  0  0  0  0  0
   -3.6796    8.1511   -6.4251 H   0  0  0  0  0  0  0  0  0  0  0  0
   -3.2297    4.7220   -7.2954 H   0  0  0  0  0  0  0  0  0  0  0  0
   -2.8456    4.7957   -9.0185 H   0  0  0  0  0  0  0  0  0  0  0  0
   -6.2827    8.1194   -7.0327 H   0  0  0  0  0  0  0  0  0  0  0  0
   -6.3303    7.1134   -9.8271 H   0  0  0  0  0  0  0  0  0  0  0  0
    0.4846    3.2768   -1.7509 H   0  0  0  0  0  0  0  0  0  0  0  0
    0.4156    2.9989   -0.1092 H   0  0  0  0  0  0  0  0  0  0  0  0
   -8.8405    5.5868   -9.6847 H   0  0  0  0  0  0  0  0  0  0  0  0
    0.6198    0.4688   -2.1373 H   0  0  0  0  0  0  0  0  0  0  0  0
   -0.6998    1.0222   -1.2497 H   0  0  0  0  0  0  0  0  0  0  0  0
   -4.1457    2.4369   -5.4020 H   0  0  0  0  0  0  0  0  0  0  0  0
    4.6953    0.7781   -1.0044 H   0  0  0  0  0  0  0  0  0  0  0  0
    2.1336    1.2164   -2.2369 H   0  0  0  0  0  0  0  0  0  0  0  0
    2.4715    2.7946   -2.9352 H   0  0  0  0  0  0  0  0  0  0  0  0
    5.3178    0.6782   -3.5084 H   0  0  0  0  0  0  0  0  0  0  0  0
    7.2981    0.7378   -4.2375 H   0  0  0  0  0  0  0  0  0  0  0  0
    6.1520   -0.0576   -5.3805 H   0  0  0  0  0  0  0  0  0  0  0  0
    7.7438    0.4953   -5.9389 H   0  0  0  0  0  0  0  0  0  0  0  0
    1.3365    5.5725   -4.6153 H   0  0  0  0  0  0  0  0  0  0  0  0
    2.3574    6.4037   -3.2909 H   0  0  0  0  0  0  0  0  0  0  0  0
    1.8232    7.1845   -4.7818 H   0  0  0  0  0  0  0  0  0  0  0  0
  1 50  1  0  0  0  0
  1 53  1  0  0  0  0
  2  5  1  0  0  0  0
  2  8  1  0  0  0  0
  2  9  1  0  0  0  0
  2 10  2  0  0  0  0
  3  8  1  0  0  0  0
  3 11  1  0  0  0  0
  3 12  1  0  0  0  0
  3 13  2  0  0  0  0
  4 16  1  0  0  0  0
  4 18  1  0  0  0  0
  4 19  1  0  0  0  0
  4 20  2  0  0  0  0
  6 33  1  0  0  0  0
  6 64  1  0  0  0  0
  7 37  2  0  0  0  0
  9 65  1  0  0  0  0
 11 43  1  0  0  0  0
 12 66  1  0  0  0  0
 14 41  1  0  0  0  0
 14 45  1  0  0  0  0
 15 40  2  0  0  0  0
 17 67  1  0  0  0  0
 18 68  1  0  0  0  0
 19 69  1  0  0  0  0
 21 53  2  0  0  0  0
 22 59  1  0  0  0  0
 22 62  1  0  0  0  0
 23 60  1  0  0  0  0
 23 63  1  0  0  0  0
 24 61  1  0  0  0  0
 24 70  1  0  0  0  0
 25 37  1  0  0  0  0
 25 38  1  0  0  0  0
 25 71  1  0  0  0  0
 26 40  1  0  0  0  0
 26 46  1  0  0  0  0
 26 72  1  0  0  0  0
 27 47  1  0  0  0  0
 27 48  1  0  0  0  0
 28 48  2  0  0  0  0
 28 49  1  0  0  0  0
 29 47  2  0  0  0  0
 29 52  1  0  0  0  0
 30 51  1  0  0  0  0
 30 52  2  0  0  0  0
 31 51  1  0  0  0  0
 31 73  1  0  0  0  0
 31 74  1  0  0  0  0
 32 33  1  0  0  0  0
 32 34  1  0  0  0  0
 32 35  1  0  0  0  0
 32 36  1  0  0  0  0
 33 34  1  0  0  0  0
 33 37  1  0  0  0  0
 34 75  1  1  0  0  0
 34  5  1  0  0  0  0
 35 76  1  0  0  0  0
 35 77  1  0  0  0  0
 35 78  1  0  0  0  0
 36 79  1  0  0  0  0
 36 80  1  0  0  0  0
 36 81  1  0  0  0  0
 38 39  1  0  0  0  0
 38 82  1  0  0  0  0
 38 83  1  0  0  0  0
 39 40  1  0  0  0  0
 39 84  1  0  0  0  0
 39 85  1  0  0  0  0
 41 42  1  0  0  0  0
 41 43  1  0  0  0  0
 41 86  1  6  0  0  0
 42 16  1  0  0  0  0
 42 44  1  0  0  0  0
 42 87  1  1  0  0  0
 43 88  1  0  0  0  0
 43 89  1  0  0  0  0
 44 17  1  0  0  0  0
 44 45  1  0  0  0  0
 44 90  1  6  0  0  0
 45 91  1  6  0  0  0
 45 27  1  0  0  0  0
 46 50  1  0  0  0  0
 46 92  1  0  0  0  0
 46 93  1  0  0  0  0
 47 49  1  0  0  0  0
 48 94  1  0  0  0  0
 49 51  2  0  0  0  0
 50 95  1  0  0  0  0
 50 96  1  0  0  0  0
 52 97  1  0  0  0  0
 53 54  1  0  0  0  0
 54 55  2  0  0  0  0
 54 98  1  0  0  0  0
 55 56  1  0  0  0  0
 55 99  1  0  0  0  0
 56 57  2  0  0  0  0
 56 58  1  0  0  0  0
 57 60  1  0  0  0  0
 57100  1  0  0  0  0
 58 59  2  0  0  0  0
 58101  1  0  0  0  0
 59 61  1  0  0  0  0
 60 61  2  0  0  0  0
 62102  1  0  0  0  0
 62103  1  0  0  0  0
 62104  1  0  0  0  0
 63105  1  0  0  0  0
 63106  1  0  0  0  0
 63107  1  0  0  0  0
M  END
>  <DRUGBANK_ID>
DB03179

>  <SECONDARY_ACCESSION_NUMBERS>
EXPT02943

>  <COMMON_NAME>
Sinapoyl coenzyme A

$$$$
