
 OpenBabel10282417203D

 46 46  0  0  0  0  0  0  0  0999 V2000
    1.4722   -0.2487    0.0618 C   0  0  0  0  0  0  0  0  0  0  0  0
    0.5690   -1.3413   -0.0057 C   0  0  0  0  0  0  0  0  0  0  0  0
    0.9055    1.0626    0.0482 C   0  0  0  0  0  0  0  0  0  0  0  0
    2.9970   -0.4132    0.1993 C   0  0  0  0  0  0  0  0  0  0  0  0
   -0.8251   -1.0895   -0.0313 C   0  0  0  0  0  0  0  0  0  0  0  0
    0.7779   -2.7019   -0.0548 O   0  0  0  0  0  0  0  0  0  0  0  0
   -0.4874    1.2731    0.0945 C   0  0  0  0  0  0  0  0  0  0  0  0
    3.7673    0.6649    0.5350 N   0  0  0  0  0  0  0  0  0  0  0  0
    3.6397   -1.4241    0.0801 O   0  0  0  0  0  0  0  0  0  0  0  0
   -1.3568    0.1976    0.0092 C   0  0  0  0  0  0  0  0  0  0  0  0
    2.1063   -3.1748   -0.0802 C   0  0  0  0  0  0  0  0  0  0  0  0
   -1.1643    2.9071    0.3814 S   0  0  0  0  0  0  0  0  0  0  0  0
    5.2309    0.5161    0.5345 C   0  0  0  0  0  0  0  0  0  0  0  0
   -0.4747    3.4185    1.9398 C   0  0  0  0  0  0  0  0  0  0  0  0
   -0.6403    3.7708   -0.6575 O   0  0  0  0  0  0  0  0  0  0  0  0
   -2.5936    2.7603    0.5847 O   0  0  0  0  0  0  0  0  0  0  0  0
    5.9314    1.0233   -0.7395 C   0  0  0  0  0  0  0  0  0  0  0  0
    5.7085    2.4548   -1.0201 N   0  0  0  0  0  0  0  0  0  0  0  0
    6.5515    2.9417   -2.1173 C   0  0  0  0  0  0  0  0  0  0  0  0
    4.3067    2.8449   -1.2138 C   0  0  0  0  0  0  0  0  0  0  0  0
    6.2826    2.3227   -3.4841 C   0  0  0  0  0  0  0  0  0  0  0  0
    3.5048    2.0339   -2.2377 C   0  0  0  0  0  0  0  0  0  0  0  0
    1.5298    1.9483   -0.0211 H   0  0  0  0  0  0  0  0  0  0  0  0
   -1.5148   -1.9343   -0.0553 H   0  0  0  0  0  0  0  0  0  0  0  0
    3.3486    1.5301    0.8023 H   0  0  0  0  0  0  0  0  0  0  0  0
   -2.4364    0.3392   -0.0179 H   0  0  0  0  0  0  0  0  0  0  0  0
    2.6027   -2.7737   -0.9736 H   0  0  0  0  0  0  0  0  0  0  0  0
    2.5529   -2.9711    0.9024 H   0  0  0  0  0  0  0  0  0  0  0  0
    2.1890   -4.2533   -0.1987 H   0  0  0  0  0  0  0  0  0  0  0  0
    5.6000    1.0110    1.4312 H   0  0  0  0  0  0  0  0  0  0  0  0
    5.5172   -0.5414    0.6248 H   0  0  0  0  0  0  0  0  0  0  0  0
    0.6116    3.4750    1.8580 H   0  0  0  0  0  0  0  0  0  0  0  0
   -0.8703    4.4098    2.1800 H   0  0  0  0  0  0  0  0  0  0  0  0
   -0.7704    2.7149    2.7209 H   0  0  0  0  0  0  0  0  0  0  0  0
    7.0088    0.8374   -0.6046 H   0  0  0  0  0  0  0  0  0  0  0  0
    5.6448    0.3876   -1.5861 H   0  0  0  0  0  0  0  0  0  0  0  0
    6.4165    4.0284   -2.1829 H   0  0  0  0  0  0  0  0  0  0  0  0
    7.6055    2.7929   -1.8573 H   0  0  0  0  0  0  0  0  0  0  0  0
    3.8149    2.8477   -0.2441 H   0  0  0  0  0  0  0  0  0  0  0  0
    4.2404    3.9112   -1.4495 H   0  0  0  0  0  0  0  0  0  0  0  0
    5.3395    2.6658   -3.8991 H   0  0  0  0  0  0  0  0  0  0  0  0
    7.0235    2.6437   -4.2145 H   0  0  0  0  0  0  0  0  0  0  0  0
    6.2733    1.2293   -3.4513 H   0  0  0  0  0  0  0  0  0  0  0  0
    3.7548    0.9679   -2.2565 H   0  0  0  0  0  0  0  0  0  0  0  0
    2.4320    2.1190   -2.0767 H   0  0  0  0  0  0  0  0  0  0  0  0
    3.6470    2.4207   -3.2415 H   0  0  0  0  0  0  0  0  0  0  0  0
  1  2  1  0  0  0  0
  1  3  2  0  0  0  0
  1  4  1  0  0  0  0
  2  5  2  0  0  0  0
  2  6  1  0  0  0  0
  3  7  1  0  0  0  0
  3 23  1  0  0  0  0
  4  8  1  0  0  0  0
  4  9  2  0  0  0  0
  5 10  1  0  0  0  0
  5 24  1  0  0  0  0
  6 11  1  0  0  0  0
  7 12  1  0  0  0  0
  7 10  2  0  0  0  0
  8 13  1  0  0  0  0
  8 25  1  0  0  0  0
 10 26  1  0  0  0  0
 11 27  1  0  0  0  0
 11 28  1  0  0  0  0
 11 29  1  0  0  0  0
 12 14  1  0  0  0  0
 12 15  2  0  0  0  0
 12 16  2  0  0  0  0
 13 17  1  0  0  0  0
 13 30  1  0  0  0  0
 13 31  1  0  0  0  0
 14 32  1  0  0  0  0
 14 33  1  0  0  0  0
 14 34  1  0  0  0  0
 17 18  1  0  0  0  0
 17 35  1  0  0  0  0
 17 36  1  0  0  0  0
 18 19  1  0  0  0  0
 18 20  1  0  0  0  0
 19 21  1  0  0  0  0
 19 37  1  0  0  0  0
 19 38  1  0  0  0  0
 20 22  1  0  0  0  0
 20 39  1  0  0  0  0
 20 40  1  0  0  0  0
 21 41  1  0  0  0  0
 21 42  1  0  0  0  0
 21 43  1  0  0  0  0
 22 44  1  0  0  0  0
 22 45  1  0  0  0  0
 22 46  1  0  0  0  0
M  END
>  <DRUGBANK_ID>
DB13025

>  <COMMON_NAME>
Tiapride

>  <CAS_NUMBER>
51012-32-9

>  <UNII>
LAH70H9JPH

>  <SYNONYMS>
Thiapride; Tiaprida; Tiapride; Tiapridum

$$$$
