
 OpenBabel10282417123D

 13 12  0  0  0  0  0  0  0  0999 V2000
    0.9578   -0.0545   -0.0546 C   0  0  0  0  0  0  0  0  0  0  0  0
    0.1455    0.5006   -1.1849 C   0  0  0  0  0  0  0  0  0  0  0  0
   -0.7018   -0.5290   -1.8771 C   0  0  0  0  0  0  0  0  0  0  0  0
   -2.1896   -0.3057   -1.9329 C   0  0  0  0  0  0  0  0  0  0  0  0
    2.1798   -0.0000   -0.0167 O   0  0  0  0  0  0  0  0  0  0  0  0
    0.2411   -0.5496    0.9788 O   0  0  0  0  0  0  0  0  0  0  0  0
   -0.2110   -1.5459   -2.3659 O   0  0  0  0  0  0  0  0  0  0  0  0
   -0.4545    1.3384   -0.8163 H   0  0  0  0  0  0  0  0  0  0  0  0
    0.8285    0.9160   -1.9356 H   0  0  0  0  0  0  0  0  0  0  0  0
   -2.5151   -0.2997   -2.9763 H   0  0  0  0  0  0  0  0  0  0  0  0
   -2.6875   -1.1124   -1.3883 H   0  0  0  0  0  0  0  0  0  0  0  0
   -2.4667    0.6464   -1.4748 H   0  0  0  0  0  0  0  0  0  0  0  0
   -0.7290   -0.5485    0.8936 H   0  0  0  0  0  0  0  0  0  0  0  0
  2  1  1  0  0  0  0
  2  8  1  0  0  0  0
  2  9  1  0  0  0  0
  3  2  1  0  0  0  0
  4  3  1  0  0  0  0
  4 10  1  0  0  0  0
  4 11  1  0  0  0  0
  4 12  1  0  0  0  0
  5  1  2  0  0  0  0
  6  1  1  0  0  0  0
  6 13  1  0  0  0  0
  7  3  2  0  0  0  0
M  END
>  <DRUGBANK_ID>
DB01762

>  <SECONDARY_ACCESSION_NUMBERS>
EXPT00381; DB04025

>  <COMMON_NAME>
Acetoacetic acid

>  <CAS_NUMBER>
541-50-4

>  <UNII>
4ZI204Y1MC

>  <SYNONYMS>
3-ketobutanoic acid; 3-Ketobutyric acid; 3-Oxobutanoic acid; 3-Oxobutyric acid; beta-Ketobutyric acid

$$$$
