
 OpenBabel10282417233D

 68 72  0  0  1  0  0  0  0  0999 V2000
    1.0067    0.0481   -0.0147 C   0  0  0  0  0  0  0  0  0  0  0  0
    0.5111   -1.2807   -0.0745 O   0  0  0  0  0  0  0  0  0  0  0  0
    0.9349   -2.0424   -1.0861 C   0  0  0  0  0  0  0  0  0  0  0  0
    0.1711   -2.9580   -1.6496 N   0  0  0  0  0  0  0  0  0  0  0  0
    0.9284   -3.6370   -2.5801 N   0  0  0  0  0  0  0  0  0  0  0  0
    2.1437   -3.1364   -2.5440 C   0  0  0  0  0  0  0  0  0  0  0  0
    3.3222   -3.4591   -3.2423 C   0  0  0  0  0  0  0  0  0  0  0  0
    4.4332   -2.7566   -2.9967 C   0  0  0  0  0  0  0  0  0  0  0  0
    4.4021   -1.6859   -1.9506 C   0  0  0  0  0  0  0  0  0  0  0  0
    3.3267   -1.3908   -1.2697 N   0  0  0  0  0  0  0  0  0  0  0  0
    2.2133   -2.1180   -1.6125 N   0  0  0  0  0  0  0  0  0  0  0  0
    5.5786   -1.0287   -1.6615 N   0  0  0  0  0  0  0  0  0  0  0  0
    6.1601   -1.0738   -0.3295 C   0  0  0  0  0  0  0  0  0  0  0  0
    6.2563    0.3306    0.2448 C   0  0  0  0  0  0  0  0  0  0  0  0
    6.9709    1.2877   -0.7323 C   0  0  0  0  0  0  0  0  0  0  0  0
    6.4269    1.1805   -2.1507 C   0  0  0  0  0  0  0  0  0  0  0  0
    6.3308   -0.2517   -2.6334 C   0  0  0  0  0  0  0  0  0  0  0  0
    6.9364    2.7280   -0.2688 C   0  0  0  0  0  0  0  0  0  0  0  0
    7.5808    2.9946    0.9052 C   0  0  0  0  0  0  0  0  0  0  0  0
    7.8460    4.3184    1.2297 C   0  0  0  0  0  0  0  0  0  0  0  0
    7.1895    5.3952    0.6961 C   0  0  0  0  0  0  0  0  0  0  0  0
    7.1237    6.6319    1.2710 O   0  0  0  0  0  0  0  0  0  0  0  0
    7.5014    6.7930    2.6640 C   0  0  0  0  0  0  0  0  0  0  0  0
    6.6771    5.9807    3.7238 C   0  0  0  0  0  0  0  0  0  0  0  0
    7.0313    4.5466    3.6917 N   0  0  0  0  0  0  0  0  0  0  0  0
    6.0683    3.5835    4.2220 C   0  0  0  0  0  0  0  0  0  0  0  0
    6.0948    3.5822    5.7508 C   0  0  0  0  0  0  0  0  0  0  0  0
    7.4426    3.6612    6.3303 N   0  0  0  0  0  0  0  0  0  0  0  0
    8.0035    2.6030    7.1263 C   0  0  0  0  0  0  0  0  0  0  0  0
    8.3550    4.5009    5.7243 C   0  0  0  0  0  0  0  0  0  0  0  0
    9.1075    5.2794    6.3262 O   0  0  0  0  0  0  0  0  0  0  0  0
    8.4001    4.3256    4.2310 C   0  0  1  0  0  0  0  0  0  0  0  0
    9.0569    2.9776    3.8560 C   0  0  0  0  0  0  0  0  0  0  0  0
    6.5825    5.1573   -0.5109 C   0  0  0  0  0  0  0  0  0  0  0  0
    6.4627    3.8373   -0.9926 C   0  0  0  0  0  0  0  0  0  0  0  0
    0.6012    0.5125    0.8898 H   0  0  0  0  0  0  0  0  0  0  0  0
    0.6632    0.6286   -0.8770 H   0  0  0  0  0  0  0  0  0  0  0  0
    2.0930    0.0958    0.0776 H   0  0  0  0  0  0  0  0  0  0  0  0
    3.3115   -4.2772   -3.9523 H   0  0  0  0  0  0  0  0  0  0  0  0
    5.3786   -2.9712   -3.4752 H   0  0  0  0  0  0  0  0  0  0  0  0
    7.1632   -1.5132   -0.4071 H   0  0  0  0  0  0  0  0  0  0  0  0
    5.5866   -1.7202    0.3439 H   0  0  0  0  0  0  0  0  0  0  0  0
    6.7910    0.2651    1.2026 H   0  0  0  0  0  0  0  0  0  0  0  0
    5.2552    0.7146    0.4698 H   0  0  0  0  0  0  0  0  0  0  0  0
    8.0338    0.9866   -0.7612 H   0  0  0  0  0  0  0  0  0  0  0  0
    5.4250    1.6241   -2.1765 H   0  0  0  0  0  0  0  0  0  0  0  0
    7.0701    1.7593   -2.8269 H   0  0  0  0  0  0  0  0  0  0  0  0
    5.8503   -0.2454   -3.6166 H   0  0  0  0  0  0  0  0  0  0  0  0
    7.3346   -0.6745   -2.7471 H   0  0  0  0  0  0  0  0  0  0  0  0
    7.9265    2.1764    1.5297 H   0  0  0  0  0  0  0  0  0  0  0  0
    8.5751    4.5279    1.9757 H   0  0  0  0  0  0  0  0  0  0  0  0
    8.5836    6.6522    2.7629 H   0  0  0  0  0  0  0  0  0  0  0  0
    7.3596    7.8558    2.9006 H   0  0  0  0  0  0  0  0  0  0  0  0
    6.8873    6.3901    4.7235 H   0  0  0  0  0  0  0  0  0  0  0  0
    5.6077    6.1458    3.5453 H   0  0  0  0  0  0  0  0  0  0  0  0
    5.0539    3.7463    3.8295 H   0  0  0  0  0  0  0  0  0  0  0  0
    6.3329    2.5831    3.8509 H   0  0  0  0  0  0  0  0  0  0  0  0
    5.6012    4.5071    6.0700 H   0  0  0  0  0  0  0  0  0  0  0  0
    5.5377    2.7381    6.1644 H   0  0  0  0  0  0  0  0  0  0  0  0
    8.7619    2.0578    6.5492 H   0  0  0  0  0  0  0  0  0  0  0  0
    8.5089    3.0736    7.9722 H   0  0  0  0  0  0  0  0  0  0  0  0
    7.2286    1.9174    7.4628 H   0  0  0  0  0  0  0  0  0  0  0  0
    9.0903    5.0864    3.8558 H   0  0  0  0  0  0  0  0  0  0  0  0
    9.2881    2.8771    2.7957 H   0  0  0  0  0  0  0  0  0  0  0  0
   10.0399    2.8963    4.3210 H   0  0  0  0  0  0  0  0  0  0  0  0
    8.4535    2.1099    4.1317 H   0  0  0  0  0  0  0  0  0  0  0  0
    6.2498    5.9957   -1.1094 H   0  0  0  0  0  0  0  0  0  0  0  0
    5.9831    3.7109   -1.9545 H   0  0  0  0  0  0  0  0  0  0  0  0
  1  2  1  0  0  0  0
  1 36  1  0  0  0  0
  1 37  1  0  0  0  0
  1 38  1  0  0  0  0
  2  3  1  0  0  0  0
  3  4  2  0  0  0  0
  3 11  1  0  0  0  0
  4  5  1  0  0  0  0
  5  6  2  0  0  0  0
  6  7  1  0  0  0  0
  6 11  1  0  0  0  0
  7  8  2  0  0  0  0
  7 39  1  0  0  0  0
  8  9  1  0  0  0  0
  8 40  1  0  0  0  0
  9 10  2  0  0  0  0
  9 12  1  0  0  0  0
 10 11  1  0  0  0  0
 12 13  1  0  0  0  0
 12 17  1  0  0  0  0
 13 14  1  0  0  0  0
 13 41  1  0  0  0  0
 13 42  1  0  0  0  0
 14 15  1  0  0  0  0
 14 43  1  0  0  0  0
 14 44  1  0  0  0  0
 15 16  1  0  0  0  0
 15 18  1  0  0  0  0
 15 45  1  0  0  0  0
 16 17  1  0  0  0  0
 16 46  1  0  0  0  0
 16 47  1  0  0  0  0
 17 48  1  0  0  0  0
 17 49  1  0  0  0  0
 18 19  2  0  0  0  0
 18 35  1  0  0  0  0
 19 20  1  0  0  0  0
 19 50  1  0  0  0  0
 20 21  2  0  0  0  0
 20 51  1  0  0  0  0
 21 22  1  0  0  0  0
 21 34  1  0  0  0  0
 22 23  1  0  0  0  0
 23 24  1  0  0  0  0
 23 52  1  0  0  0  0
 23 53  1  0  0  0  0
 24 25  1  0  0  0  0
 24 54  1  0  0  0  0
 24 55  1  0  0  0  0
 25 26  1  0  0  0  0
 26 27  1  0  0  0  0
 26 56  1  0  0  0  0
 26 57  1  0  0  0  0
 27 28  1  0  0  0  0
 27 58  1  0  0  0  0
 27 59  1  0  0  0  0
 28 29  1  0  0  0  0
 28 30  1  0  0  0  0
 29 60  1  0  0  0  0
 29 61  1  0  0  0  0
 29 62  1  0  0  0  0
 30 31  2  0  0  0  0
 32 30  1  0  0  0  0
 32 25  1  0  0  0  0
 32 33  1  0  0  0  0
 32 63  1  6  0  0  0
 33 64  1  0  0  0  0
 33 65  1  0  0  0  0
 33 66  1  0  0  0  0
 34 35  2  0  0  0  0
 34 67  1  0  0  0  0
 35 68  1  0  0  0  0
M  END
>  <DRUGBANK_ID>
DB17018

>  <COMMON_NAME>
AZD-5153

>  <CAS_NUMBER>
1869912-39-9

>  <UNII>
C7C7U6YEAO

>  <SYNONYMS>
2-piperazinone, 4-(2-(4-(1-(3-methoxy-1,2,4-triazolo(4,3-b)pyridazin-6-yl)-4-piperidinyl)phenoxy)ethyl)-1,3-dimethyl-, (3r)-

$$$$
