
 OpenBabel10282417213D

148154  0  0  0  0  0  0  0  0999 V2000
    0.7215   -3.0023    4.9176 C   0  0  2  0  0  0  0  0  0  0  0  0
    0.9123   -2.6753    6.2895 O   0  0  0  0  0  0  0  0  0  0  0  0
   -0.0543   -1.7534    6.7004 C   0  0  1  0  0  0  0  0  0  0  0  0
   -1.4695   -2.3692    6.4606 C   0  0  2  0  0  0  0  0  0  0  0  0
   -1.7661   -3.1613    5.1323 C   0  0  1  0  0  0  0  0  0  0  0  0
   -0.5315   -3.6696    4.4122 C   0  0  1  0  0  0  0  0  0  0  0  0
   -0.7051   -3.4041    2.9991 O   0  0  0  0  0  0  0  0  0  0  0  0
   -2.8772   -4.0539    5.2048 O   0  0  0  0  0  0  0  0  0  0  0  0
   -2.4436   -1.3472    6.6726 O   0  0  0  0  0  0  0  0  0  0  0  0
    0.2017   -1.2513    8.1162 C   0  0  0  0  0  0  0  0  0  0  0  0
   -0.5466   -2.2093    2.1577 C   0  0  2  0  0  0  0  0  0  0  0  0
    0.6960   -1.4183    2.0319 O   0  0  0  0  0  0  0  0  0  0  0  0
    1.0235   -0.5802    3.1382 C   0  0  2  0  0  0  0  0  0  0  0  0
   -0.1932    0.2581    3.6387 C   0  0  1  0  0  0  0  0  0  0  0  0
   -1.5148   -0.5155    3.5576 C   0  0  2  0  0  0  0  0  0  0  0  0
   -1.7565   -1.3148    2.3028 C   0  0  1  0  0  0  0  0  0  0  0  0
   -2.6636    0.1643    4.0393 O   0  0  0  0  0  0  0  0  0  0  0  0
   -0.0872    0.7228    4.9862 O   0  0  0  0  0  0  0  0  0  0  0  0
    2.4617   -0.1643    3.4792 C   0  0  0  0  0  0  0  0  0  0  0  0
   -1.8926   -0.3884    1.2328 O   0  0  0  0  0  0  0  0  0  0  0  0
    1.2436   -0.2615    8.1586 O   0  0  0  0  0  0  0  0  0  0  0  0
    1.9462   -3.2195    4.2033 O   0  0  0  0  0  0  0  0  0  0  0  0
    2.4158   -5.6196    8.2145 C   0  0  1  0  0  0  0  0  0  0  0  0
    2.9758   -5.6642    6.7191 C   0  0  1  0  0  0  0  0  0  0  0  0
    2.4963   -6.9569    4.3942 C   0  0  2  0  0  0  0  0  0  0  0  0
    2.2837   -6.8537    5.9500 C   0  0  1  0  0  0  0  0  0  0  0  0
    5.6765   -6.9499   10.1643 C   0  0  1  0  0  0  0  0  0  0  0  0
    7.0347   -6.3078   10.3162 C   0  0  1  0  0  0  0  0  0  0  0  0
    2.7650   -6.9817    8.8317 C   0  0  2  0  0  0  0  0  0  0  0  0
    2.0160   -5.6206    3.7945 C   0  0  2  0  0  0  0  0  0  0  0  0
    7.5906   -6.1588    8.8749 C   0  0  2  0  0  0  0  0  0  0  0  0
    5.9604   -8.2306    9.5737 O   0  0  0  0  0  0  0  0  0  0  0  0
    1.9063   -5.6024    2.2199 C   0  0  0  0  0  0  0  0  0  0  0  0
    7.5281   -7.4440    7.9983 C   0  0  1  0  0  0  0  0  0  0  0  0
    6.2254   -8.1871    8.1859 C   0  0  1  0  0  0  0  0  0  0  0  0
    2.0307   -8.1349    8.1100 C   0  0  1  0  0  0  0  0  0  0  0  0
    2.6738   -6.7283   10.3377 C   0  0  1  0  0  0  0  0  0  0  0  0
    2.4998   -8.1611    6.6618 C   0  0  0  0  0  0  0  0  0  0  0  0
    3.5960   -7.6126   11.2330 C   0  0  1  0  0  0  0  0  0  0  0  0
    4.9286   -7.0500   11.3900 O   0  0  0  0  0  0  0  0  0  0  0  0
    0.7773   -6.8386    0.3951 O   0  0  0  0  0  0  0  0  0  0  0  0
    0.9909   -6.7845    1.7978 C   0  0  1  0  0  0  0  0  0  0  0  0
    3.0774   -4.5938    9.1653 C   0  0  0  0  0  0  0  0  0  0  0  0
    2.5652   -4.4485    6.0224 C   0  0  0  0  0  0  0  0  0  0  0  0
    1.5737   -8.0842    3.8293 C   0  0  0  0  0  0  0  0  0  0  0  0
    2.6428   -4.4093    4.5125 C   0  0  2  0  0  0  0  0  0  0  0  0
    2.9178   -5.2003   10.5569 C   0  0  0  0  0  0  0  0  0  0  0  0
    6.0825   -9.3981    6.0415 O   0  0  0  0  0  0  0  0  0  0  0  0
    6.0813   -9.5319    7.4618 C   0  0  0  0  0  0  0  0  0  0  0  0
    1.4748   -8.1041    2.3096 C   0  0  0  0  0  0  0  0  0  0  0  0
    1.0737  -10.9027   12.6156 C   0  0  0  0  0  0  0  0  0  0  0  0
    1.2999   -9.7210   11.9530 C   0  0  0  0  0  0  0  0  0  0  0  0
    6.9748   -5.0407   10.9752 O   0  0  0  0  0  0  0  0  0  0  0  0
    8.9454   -5.7206    8.9412 O   0  0  0  0  0  0  0  0  0  0  0  0
    7.7548   -7.1256    6.6267 O   0  0  0  0  0  0  0  0  0  0  0  0
    0.8719   -5.3593    8.3486 C   0  0  0  0  0  0  0  0  0  0  0  0
    2.2932   -9.4568    8.5307 O   0  0  0  0  0  0  0  0  0  0  0  0
    4.4834   -5.5030    6.6333 C   0  0  0  0  0  0  0  0  0  0  0  0
    3.9244   -7.3056    3.9921 C   0  0  0  0  0  0  0  0  0  0  0  0
    2.8826   -7.7439   12.6096 C   0  0  0  0  0  0  0  0  0  0  0  0
    1.4376   -8.3572   12.5600 C   0  0  0  0  0  0  0  0  0  0  0  0
    3.8261   -9.0223   10.7380 C   0  0  0  0  0  0  0  0  0  0  0  0
    1.2402  -12.2050   11.9012 C   0  0  0  0  0  0  0  0  0  0  0  0
    0.5632  -10.8193   13.9946 C   0  0  0  0  0  0  0  0  0  0  0  0
    1.1993   -6.6806    6.0455 H   0  0  0  0  0  0  0  0  0  0  0  0
    0.9798   -5.6132    4.1070 H   0  0  0  0  0  0  0  0  0  0  0  0
    3.7944   -7.1894    8.6294 H   0  0  0  0  0  0  0  0  0  0  0  0
    1.6242   -6.8931   10.5682 H   0  0  0  0  0  0  0  0  0  0  0  0
    3.2198   -5.3548    1.4866 C   0  0  0  0  0  0  0  0  0  0  0  0
    1.1152   -4.4485    1.6881 C   0  0  0  0  0  0  0  0  0  0  0  0
    0.3255   -2.0847    4.6219 H   0  0  0  0  0  0  0  0  0  0  0  0
    0.2157   -0.8906    6.1282 H   0  0  0  0  0  0  0  0  0  0  0  0
   -1.5921   -3.1187    7.2400 H   0  0  0  0  0  0  0  0  0  0  0  0
   -2.2551   -2.5543    4.3969 H   0  0  0  0  0  0  0  0  0  0  0  0
   -0.5046   -4.7454    4.5807 H   0  0  0  0  0  0  0  0  0  0  0  0
   -2.5993   -4.9700    5.3173 H   0  0  0  0  0  0  0  0  0  0  0  0
   -2.6371   -0.8431    5.8549 H   0  0  0  0  0  0  0  0  0  0  0  0
   -0.6971   -0.7580    8.4850 H   0  0  0  0  0  0  0  0  0  0  0  0
    0.5083   -2.0659    8.7693 H   0  0  0  0  0  0  0  0  0  0  0  0
   -0.6180   -2.6274    1.1427 H   0  0  0  0  0  0  0  0  0  0  0  0
    1.2742   -1.3440    3.7816 H   0  0  0  0  0  0  0  0  0  0  0  0
   -0.2673    1.1440    3.0288 H   0  0  0  0  0  0  0  0  0  0  0  0
   -1.3488   -1.1683    4.3670 H   0  0  0  0  0  0  0  0  0  0  0  0
   -2.6548   -1.9507    2.3244 H   0  0  0  0  0  0  0  0  0  0  0  0
   -2.8950    0.8385    3.3774 H   0  0  0  0  0  0  0  0  0  0  0  0
   -0.8701    0.4057    5.4948 H   0  0  0  0  0  0  0  0  0  0  0  0
    2.5571   -0.0590    4.5820 H   0  0  0  0  0  0  0  0  0  0  0  0
    3.1800   -0.9703    3.2353 H   0  0  0  0  0  0  0  0  0  0  0  0
    2.7665    0.7483    2.9960 H   0  0  0  0  0  0  0  0  0  0  0  0
   -1.0662    0.1256    1.2117 H   0  0  0  0  0  0  0  0  0  0  0  0
    1.9317   -0.4853    7.5072 H   0  0  0  0  0  0  0  0  0  0  0  0
    5.1310   -6.2720    9.5096 H   0  0  0  0  0  0  0  0  0  0  0  0
    7.6669   -6.9661   10.9178 H   0  0  0  0  0  0  0  0  0  0  0  0
    7.0379   -5.3556    8.3667 H   0  0  0  0  0  0  0  0  0  0  0  0
    8.3238   -8.1236    8.3142 H   0  0  0  0  0  0  0  0  0  0  0  0
    5.4210   -7.6800    7.7256 H   0  0  0  0  0  0  0  0  0  0  0  0
    0.9499   -8.0175    8.1994 H   0  0  0  0  0  0  0  0  0  0  0  0
    3.5618   -8.4014    6.6218 H   0  0  0  0  0  0  0  0  0  0  0  0
    1.9935   -8.9933    6.1708 H   0  0  0  0  0  0  0  0  0  0  0  0
    1.6393   -6.7749   -0.0430 H   0  0  0  0  0  0  0  0  0  0  0  0
   -0.0146   -6.6478    2.2385 H   0  0  0  0  0  0  0  0  0  0  0  0
    4.1419   -4.4435    8.9846 H   0  0  0  0  0  0  0  0  0  0  0  0
    2.6250   -3.5961    9.1061 H   0  0  0  0  0  0  0  0  0  0  0  0
    3.0358   -3.5467    6.4512 H   0  0  0  0  0  0  0  0  0  0  0  0
    1.5213   -4.4857    6.2743 H   0  0  0  0  0  0  0  0  0  0  0  0
    1.9374   -9.0677    4.1339 H   0  0  0  0  0  0  0  0  0  0  0  0
    0.5636   -7.9709    4.2534 H   0  0  0  0  0  0  0  0  0  0  0  0
    3.6889   -4.3086    4.1985 H   0  0  0  0  0  0  0  0  0  0  0  0
    2.0686   -4.7440   11.0815 H   0  0  0  0  0  0  0  0  0  0  0  0
    3.7959   -4.9653   11.1679 H   0  0  0  0  0  0  0  0  0  0  0  0
    5.4232   -8.7361    5.7864 H   0  0  0  0  0  0  0  0  0  0  0  0
    6.8692  -10.2205    7.7493 H   0  0  0  0  0  0  0  0  0  0  0  0
    5.1248   -9.9984    7.7181 H   0  0  0  0  0  0  0  0  0  0  0  0
    2.4304   -8.3325    1.8374 H   0  0  0  0  0  0  0  0  0  0  0  0
    0.7719   -8.8812    1.9948 H   0  0  0  0  0  0  0  0  0  0  0  0
    1.3269   -9.8527   10.8857 H   0  0  0  0  0  0  0  0  0  0  0  0
    6.3839   -4.4485   10.4817 H   0  0  0  0  0  0  0  0  0  0  0  0
    9.4263   -6.4021    9.4449 H   0  0  0  0  0  0  0  0  0  0  0  0
    7.1598   -6.4092    6.3526 H   0  0  0  0  0  0  0  0  0  0  0  0
    0.5065   -5.5018    9.3706 H   0  0  0  0  0  0  0  0  0  0  0  0
    0.6176   -4.3262    8.1079 H   0  0  0  0  0  0  0  0  0  0  0  0
    0.2642   -6.0047    7.7149 H   0  0  0  0  0  0  0  0  0  0  0  0
    3.2137   -9.6831    8.3143 H   0  0  0  0  0  0  0  0  0  0  0  0
    4.8798   -4.6430    7.1785 H   0  0  0  0  0  0  0  0  0  0  0  0
    4.9272   -6.3561    7.0327 H   0  0  0  0  0  0  0  0  0  0  0  0
    4.8944   -5.3913    5.6384 H   0  0  0  0  0  0  0  0  0  0  0  0
    4.0224   -7.4716    2.9254 H   0  0  0  0  0  0  0  0  0  0  0  0
    4.6555   -6.5407    4.2211 H   0  0  0  0  0  0  0  0  0  0  0  0
    4.2211   -8.2489    4.4372 H   0  0  0  0  0  0  0  0  0  0  0  0
    3.5129   -8.3408   13.2828 H   0  0  0  0  0  0  0  0  0  0  0  0
    2.8240   -6.7552   13.0872 H   0  0  0  0  0  0  0  0  0  0  0  0
    1.0570   -8.3341   13.5816 H   0  0  0  0  0  0  0  0  0  0  0  0
    0.7482   -7.7125   12.0084 H   0  0  0  0  0  0  0  0  0  0  0  0
    2.9176   -9.4914   10.5041 H   0  0  0  0  0  0  0  0  0  0  0  0
    4.2728   -9.0951    9.7676 H   0  0  0  0  0  0  0  0  0  0  0  0
    4.3947   -9.6508   11.4214 H   0  0  0  0  0  0  0  0  0  0  0  0
    1.8943  -12.8714   12.4774 H   0  0  0  0  0  0  0  0  0  0  0  0
    0.2725  -12.6879   11.7464 H   0  0  0  0  0  0  0  0  0  0  0  0
    1.7170  -12.0944   10.9165 H   0  0  0  0  0  0  0  0  0  0  0  0
    1.3047  -10.3798   14.6668 H   0  0  0  0  0  0  0  0  0  0  0  0
   -0.3278  -10.1745   13.9846 H   0  0  0  0  0  0  0  0  0  0  0  0
    0.2523  -11.7970   14.3634 H   0  0  0  0  0  0  0  0  0  0  0  0
    3.0360   -5.1854    0.4187 H   0  0  0  0  0  0  0  0  0  0  0  0
    3.6879   -4.4315    1.8573 H   0  0  0  0  0  0  0  0  0  0  0  0
    3.9341   -6.1596    1.5537 H   0  0  0  0  0  0  0  0  0  0  0  0
    1.5076   -3.5249    2.0894 H   0  0  0  0  0  0  0  0  0  0  0  0
    1.0606   -4.3139    0.6065 H   0  0  0  0  0  0  0  0  0  0  0  0
    0.0961   -4.7068    1.9287 H   0  0  0  0  0  0  0  0  0  0  0  0
  1  2  1  0  0  0  0
  1  6  1  0  0  0  0
  1 71  1  6  0  0  0
  1 22  1  0  0  0  0
  3  2  1  0  0  0  0
  3 72  1  6  0  0  0
  3 10  1  0  0  0  0
  4  3  1  0  0  0  0
  4  9  1  0  0  0  0
  4 73  1  1  0  0  0
  5  4  1  0  0  0  0
  5  8  1  0  0  0  0
  5 74  1  6  0  0  0
  6  5  1  0  0  0  0
  6  7  1  0  0  0  0
  6 75  1  1  0  0  0
  8 76  1  0  0  0  0
  9 77  1  0  0  0  0
 10 21  1  0  0  0  0
 10 78  1  0  0  0  0
 10 79  1  0  0  0  0
 11 12  1  0  0  0  0
 11 16  1  0  0  0  0
 11 80  1  6  0  0  0
 11  7  1  0  0  0  0
 13 12  1  0  0  0  0
 13 19  1  0  0  0  0
 13 81  1  1  0  0  0
 14 13  1  0  0  0  0
 14 18  1  0  0  0  0
 14 82  1  6  0  0  0
 15 14  1  0  0  0  0
 15 17  1  0  0  0  0
 15 83  1  1  0  0  0
 16 15  1  0  0  0  0
 16 20  1  0  0  0  0
 16 84  1  1  0  0  0
 17 85  1  0  0  0  0
 18 86  1  0  0  0  0
 19 87  1  0  0  0  0
 19 88  1  0  0  0  0
 19 89  1  0  0  0  0
 20 90  1  0  0  0  0
 21 91  1  0  0  0  0
 23 56  1  6  0  0  0
 24 58  1  6  0  0  0
 24 23  1  0  0  0  0
 25 59  1  6  0  0  0
 25 30  1  0  0  0  0
 25 26  1  0  0  0  0
 26 65  1  1  0  0  0
 26 38  1  0  0  0  0
 26 24  1  0  0  0  0
 27 40  1  0  0  0  0
 27 92  1  6  0  0  0
 28 53  1  0  0  0  0
 28 27  1  0  0  0  0
 28 93  1  1  0  0  0
 29 67  1  6  0  0  0
 29 23  1  0  0  0  0
 30 66  1  1  0  0  0
 30 46  1  0  0  0  0
 31 28  1  0  0  0  0
 31 54  1  0  0  0  0
 31 34  1  0  0  0  0
 31 94  1  6  0  0  0
 32 27  1  0  0  0  0
 33 30  1  0  0  0  0
 33 69  1  0  0  0  0
 33 70  1  0  0  0  0
 34 35  1  0  0  0  0
 34 55  1  0  0  0  0
 34 95  1  1  0  0  0
 35 32  1  0  0  0  0
 35 96  1  6  0  0  0
 35 49  1  0  0  0  0
 36 29  1  0  0  0  0
 36 57  1  0  0  0  0
 36 97  1  1  0  0  0
 37 29  1  0  0  0  0
 37 47  1  0  0  0  0
 37 68  1  1  0  0  0
 37 39  1  0  0  0  0
 38 36  1  0  0  0  0
 38 98  1  0  0  0  0
 38 99  1  0  0  0  0
 39 40  1  1  0  0  0
 41100  1  0  0  0  0
 42 41  1  0  0  0  0
 42 33  1  0  0  0  0
 42101  1  1  0  0  0
 43 23  1  0  0  0  0
 43102  1  0  0  0  0
 43103  1  0  0  0  0
 44 24  1  0  0  0  0
 44104  1  0  0  0  0
 44105  1  0  0  0  0
 45 25  1  0  0  0  0
 45106  1  0  0  0  0
 45107  1  0  0  0  0
 46 44  1  0  0  0  0
 46 22  1  0  0  0  0
 46108  1  6  0  0  0
 47 43  1  0  0  0  0
 47109  1  0  0  0  0
 47110  1  0  0  0  0
 48 49  1  0  0  0  0
 48111  1  0  0  0  0
 49112  1  0  0  0  0
 49113  1  0  0  0  0
 50 45  1  0  0  0  0
 50 42  1  0  0  0  0
 50114  1  0  0  0  0
 50115  1  0  0  0  0
 51 52  2  0  0  0  0
 52 61  1  0  0  0  0
 52116  1  0  0  0  0
 53117  1  0  0  0  0
 54118  1  0  0  0  0
 55119  1  0  0  0  0
 56120  1  0  0  0  0
 56121  1  0  0  0  0
 56122  1  0  0  0  0
 57123  1  0  0  0  0
 58124  1  0  0  0  0
 58125  1  0  0  0  0
 58126  1  0  0  0  0
 59127  1  0  0  0  0
 59128  1  0  0  0  0
 59129  1  0  0  0  0
 60 39  1  0  0  0  0
 60130  1  0  0  0  0
 60131  1  0  0  0  0
 61 60  1  0  0  0  0
 61132  1  0  0  0  0
 61133  1  0  0  0  0
 62 39  1  0  0  0  0
 62134  1  0  0  0  0
 62135  1  0  0  0  0
 62136  1  0  0  0  0
 63 51  1  0  0  0  0
 63137  1  0  0  0  0
 63138  1  0  0  0  0
 63139  1  0  0  0  0
 64 51  1  0  0  0  0
 64140  1  0  0  0  0
 64141  1  0  0  0  0
 64142  1  0  0  0  0
 69143  1  0  0  0  0
 69144  1  0  0  0  0
 69145  1  0  0  0  0
 70146  1  0  0  0  0
 70147  1  0  0  0  0
 70148  1  0  0  0  0
M  END
>  <DRUGBANK_ID>
DB14815

>  <COMMON_NAME>
Ginsenoside B2

>  <CAS_NUMBER>
52286-59-6

>  <UNII>
46F3R0BL3I

>  <SYNONYMS>
Ginsenoside Re

$$$$
