
 OpenBabel10282417213D

 16 16  0  0  0  0  0  0  0  0999 V2000
    0.2915    1.3568    0.0000 O   0  0  0  0  0  0  0  0  0  0  0  0
    1.3710    0.3961    0.0090 C   0  0  2  0  0  0  0  0  0  0  0  0
   -1.0180    1.0511    0.0006 C   0  0  0  0  0  0  0  0  0  0  0  0
    0.9853   -1.0851   -0.0557 C   0  0  0  0  0  0  0  0  0  0  0  0
    2.2180    0.6690    1.2489 C   0  0  0  0  0  0  0  0  0  0  0  0
   -1.3821   -0.3666    0.0050 C   0  0  0  0  0  0  0  0  0  0  0  0
   -1.8916    1.9129   -0.0031 O   0  0  0  0  0  0  0  0  0  0  0  0
   -0.4751   -1.3450   -0.0198 C   0  0  0  0  0  0  0  0  0  0  0  0
    1.9716    0.6377   -0.8771 H   0  0  0  0  0  0  0  0  0  0  0  0
    1.4008   -1.5202   -0.9720 H   0  0  0  0  0  0  0  0  0  0  0  0
    1.4559   -1.6420    0.7645 H   0  0  0  0  0  0  0  0  0  0  0  0
    2.1764    1.7201    1.5486 H   0  0  0  0  0  0  0  0  0  0  0  0
    1.8628    0.0815    2.1032 H   0  0  0  0  0  0  0  0  0  0  0  0
    3.2594    0.3872    1.0640 H   0  0  0  0  0  0  0  0  0  0  0  0
   -2.4452   -0.5754    0.0216 H   0  0  0  0  0  0  0  0  0  0  0  0
   -0.7990   -2.3818   -0.0135 H   0  0  0  0  0  0  0  0  0  0  0  0
  1  2  1  0  0  0  0
  1  3  1  0  0  0  0
  2  4  1  0  0  0  0
  2  9  1  6  0  0  0
  2  5  1  0  0  0  0
  3  6  1  0  0  0  0
  3  7  2  0  0  0  0
  4  8  1  0  0  0  0
  4 10  1  0  0  0  0
  4 11  1  0  0  0  0
  5 12  1  0  0  0  0
  5 13  1  0  0  0  0
  5 14  1  0  0  0  0
  6  8  2  0  0  0  0
  6 15  1  0  0  0  0
  8 16  1  0  0  0  0
M  END
>  <DRUGBANK_ID>
DB14121

>  <COMMON_NAME>
Parasorbic acid

>  <CAS_NUMBER>
10048-32-5

>  <UNII>
DCN48OUK3T

>  <SYNONYMS>
(+)-Parasorbinsaeure; (S)-(+)-5,6-Dihydro-6-methyl-2H-pyran-2-one; 2-Hexen-5,1-olide; 5-Hydroxy-2-hexenoic acid lactone; gamma-Hexenolactone; Parascorbic acid; Sorbic oil

$$$$
