PYU
 OpenBabel10282417173D

 25 26  0  0  0  0  0  0  0  0999 V2000
   -0.3197   -1.1104    0.0137 N   0  0  0  0  0  0  0  0  0  0  0  0
    0.3001   -4.5052   -1.0051 C   0  0  0  0  0  0  0  0  0  0  0  0
    2.1203   -4.7080    1.1230 C   0  0  0  0  0  0  0  0  0  0  0  0
    1.2589   -5.5169   -0.9981 C   0  0  0  0  0  0  0  0  0  0  0  0
   -1.1526   -0.0024    0.0009 C   0  0  0  0  0  0  0  0  0  0  0  0
    0.9805   -0.6355   -0.0317 C   0  0  0  0  0  0  0  0  0  0  0  0
   -0.3817    1.1407    0.0011 C   0  0  0  0  0  0  0  0  0  0  0  0
    0.9689    0.7378   -0.0088 C   0  0  0  0  0  0  0  0  0  0  0  0
    0.2516   -3.5851    0.0460 C   0  0  0  0  0  0  0  0  0  0  0  0
    2.1608   -5.6103    0.0608 C   0  0  0  0  0  0  0  0  0  0  0  0
    1.1591   -3.6961    1.1089 C   0  0  0  0  0  0  0  0  0  0  0  0
   -0.7120   -2.4665    0.0100 C   0  0  0  0  0  0  0  0  0  0  0  0
   -1.9102   -2.7267   -0.1208 O   0  0  0  0  0  0  0  0  0  0  0  0
    3.0829   -6.6153    0.0094 O   0  0  0  0  0  0  0  0  0  0  0  0
    1.0948   -2.7852    2.1276 O   0  0  0  0  0  0  0  0  0  0  0  0
   -0.5306   -4.4505   -2.0910 O   0  0  0  0  0  0  0  0  0  0  0  0
    2.8223   -4.7926    1.9452 H   0  0  0  0  0  0  0  0  0  0  0  0
    1.3083   -6.2296   -1.8174 H   0  0  0  0  0  0  0  0  0  0  0  0
   -2.2284   -0.1303    0.0030 H   0  0  0  0  0  0  0  0  0  0  0  0
    1.8171   -1.3175   -0.0624 H   0  0  0  0  0  0  0  0  0  0  0  0
   -0.7513    2.1579    0.0045 H   0  0  0  0  0  0  0  0  0  0  0  0
    1.8478    1.3685   -0.0106 H   0  0  0  0  0  0  0  0  0  0  0  0
    3.6562   -6.5839    0.7923 H   0  0  0  0  0  0  0  0  0  0  0  0
    1.8386   -2.8976    2.7420 H   0  0  0  0  0  0  0  0  0  0  0  0
   -1.2435   -3.8020   -1.9257 H   0  0  0  0  0  0  0  0  0  0  0  0
  1  5  1  0  0  0  0
  1  6  1  0  0  0  0
  2 16  1  0  0  0  0
  3 11  2  0  0  0  0
  3 10  1  0  0  0  0
  3 17  1  0  0  0  0
  4  2  1  0  0  0  0
  4 18  1  0  0  0  0
  5  7  2  0  0  0  0
  5 19  1  0  0  0  0
  6  8  2  0  0  0  0
  6 20  1  0  0  0  0
  7  8  1  0  0  0  0
  7 21  1  0  0  0  0
  8 22  1  0  0  0  0
  9  2  2  0  0  0  0
  9 12  1  0  0  0  0
 10  4  2  0  0  0  0
 11  9  1  0  0  0  0
 12  1  1  0  0  0  0
 13 12  2  0  0  0  0
 14 10  1  0  0  0  0
 14 23  1  0  0  0  0
 15 11  1  0  0  0  0
 15 24  1  0  0  0  0
 16 25  1  0  0  0  0
M  END
>  <DRUGBANK_ID>
DB08443

>  <COMMON_NAME>
2-(1H-pyrrol-1-ylcarbonyl)benzene-1,3,5-triol

$$$$
