
 OpenBabel10282417133D

 18 18  0  0  0  0  0  0  0  0999 V2000
    2.3648    0.0686    0.1518 N   0  0  0  0  0  0  0  0  0  0  0  0
    0.9839   -0.0046   -0.0206 C   0  0  0  0  0  0  0  0  0  0  0  0
    0.2478    1.1942   -0.0057 C   0  0  0  0  0  0  0  0  0  0  0  0
   -1.1467    1.1996   -0.0037 C   0  0  0  0  0  0  0  0  0  0  0  0
   -1.8430   -0.0027    0.0007 C   0  0  0  0  0  0  0  0  0  0  0  0
   -1.1332   -1.2038    0.0041 C   0  0  0  0  0  0  0  0  0  0  0  0
    0.2768   -1.2230    0.0097 C   0  0  0  0  0  0  0  0  0  0  0  0
    0.9607   -2.5675    0.0109 C   0  0  0  0  0  0  0  0  0  0  0  0
    0.6275   -3.3036    1.1815 O   0  0  0  0  0  0  0  0  0  0  0  0
    2.9354   -0.7388   -0.0655 H   0  0  0  0  0  0  0  0  0  0  0  0
    2.8098    0.9561   -0.0571 H   0  0  0  0  0  0  0  0  0  0  0  0
    0.7698    2.1488    0.0029 H   0  0  0  0  0  0  0  0  0  0  0  0
   -1.6885    2.1427    0.0044 H   0  0  0  0  0  0  0  0  0  0  0  0
   -2.9284   -0.0073    0.0065 H   0  0  0  0  0  0  0  0  0  0  0  0
   -1.6874   -2.1427    0.0116 H   0  0  0  0  0  0  0  0  0  0  0  0
    0.6531   -3.1420   -0.8696 H   0  0  0  0  0  0  0  0  0  0  0  0
    2.0487   -2.4961   -0.0240 H   0  0  0  0  0  0  0  0  0  0  0  0
    0.8002   -2.7068    1.9309 H   0  0  0  0  0  0  0  0  0  0  0  0
  1  2  1  0  0  0  0
  1 10  1  0  0  0  0
  1 11  1  0  0  0  0
  2  3  2  0  0  0  0
  2  7  1  0  0  0  0
  3  4  1  0  0  0  0
  3 12  1  0  0  0  0
  4  5  2  0  0  0  0
  4 13  1  0  0  0  0
  5  6  1  0  0  0  0
  5 14  1  0  0  0  0
  6  7  2  0  0  0  0
  6 15  1  0  0  0  0
  7  8  1  0  0  0  0
  8  9  1  0  0  0  0
  8 16  1  0  0  0  0
  8 17  1  0  0  0  0
  9 18  1  0  0  0  0
M  END
>  <DRUGBANK_ID>
DB03058

>  <SECONDARY_ACCESSION_NUMBERS>
EXPT02934

>  <COMMON_NAME>
2-Aminobenzyl alcohol

>  <CAS_NUMBER>
5344-90-1

>  <UNII>
JK3AH3NG9C

>  <SYNONYMS>
2-Aminobenzenemethanol; 2-Aminobenzyl alcohol; o-(Hydroxymethyl)aniline; o-Aminobenzyl alcohol; o-Aminobenzylic alcohol

$$$$
