
 OpenBabel10282417243D

 17 16  0  0  0  0  0  0  0  0999 V2000
    1.0804   -0.0408   -0.0433 N   0  3  0  0  0  0  0  0  0  0  0  0
    1.0734   -0.0322   -0.0598 Cl  0  0  0  0  0  0  0  0  0  0  0  0
    3.4734   -0.0322   -0.0598 Te  0  5  0  0  0  0  0  0  0  0  0  0
    1.9511   -1.8397   -0.4791 Cl  0  0  0  0  0  0  0  0  0  0  0  0
    4.3321   -0.0270    2.1813 Cl  0  0  0  0  0  0  0  0  0  0  0  0
    3.9105    1.0817   -0.6807 O   0  0  0  0  0  0  0  0  0  0  0  0
    4.7457    0.5984   -1.8499 C   0  0  0  0  0  0  0  0  0  0  0  0
    4.6677   -0.8698   -1.7470 C   0  0  0  0  0  0  0  0  0  0  0  0
    3.9071   -1.1404   -0.6707 O   0  0  0  0  0  0  0  0  0  0  0  0
    0.7404   -1.0006   -0.1031 H   0  0  0  0  0  0  0  0  0  0  0  0
    0.7404    0.3874    0.8178 H   0  0  0  0  0  0  0  0  0  0  0  0
    0.7404    0.4908   -0.8447 H   0  0  0  0  0  0  0  0  0  0  0  0
    2.1004   -0.0408   -0.0433 H   0  0  0  0  0  0  0  0  0  0  0  0
    4.3971    0.9686   -2.7914 H   0  0  0  0  0  0  0  0  0  0  0  0
    5.7577    0.9345   -1.7615 H   0  0  0  0  0  0  0  0  0  0  0  0
    4.2473   -1.2967   -2.6335 H   0  0  0  0  0  0  0  0  0  0  0  0
    5.6464   -1.2834   -1.6208 H   0  0  0  0  0  0  0  0  0  0  0  0
  1 10  1  0  0  0  0
  1 11  1  0  0  0  0
  1 12  1  0  0  0  0
  1 13  1  0  0  0  0
  2  3  1  0  0  0  0
  3  4  1  0  0  0  0
  3  5  1  0  0  0  0
  3  6  1  0  0  0  0
  3  9  1  0  0  0  0
  6  7  1  0  0  0  0
  7  8  1  0  0  0  0
  7 14  1  0  0  0  0
  7 15  1  0  0  0  0
  8  9  1  0  0  0  0
  8 16  1  0  0  0  0
  8 17  1  0  0  0  0
M  CHG  2   1   1   3  -1
M  END
>  <DRUGBANK_ID>
DB17740

>  <COMMON_NAME>
Ammonium trichlorotellurate

>  <CAS_NUMBER>
106566-58-9

>  <UNII>
708681952A

>  <SYNONYMS>
Ammonium trichloro [dioxoethylene-O,O') tellurium (IV); Ammonium trichloro(dioxyethylene-o,o')tellurium(iv); Ammonium trichlorotellurate; Ossirene

$$$$
