
 OpenBabel10282417123D

 61 60  0  0  1  0  0  0  0  0999 V2000
  -13.3749    2.1846   27.8025 C   0  0  0  0  0  0  0  0  0  0  0  0
  -12.9313   11.1611   10.1956 C   0  0  0  0  0  0  0  0  0  0  0  0
  -14.5324    2.7839   27.0184 C   0  0  0  0  0  0  0  0  0  0  0  0
  -14.3135    4.2770   26.7578 C   0  0  0  0  0  0  0  0  0  0  0  0
  -13.0474    4.5389   25.9464 C   0  0  0  0  0  0  0  0  0  0  0  0
  -13.0541    3.7597   24.6399 C   0  0  0  0  0  0  0  0  0  0  0  0
  -14.1480    4.2524   23.7383 C   0  0  0  0  0  0  0  0  0  0  0  0
  -13.9180    4.8152   22.5501 C   0  0  0  0  0  0  0  0  0  0  0  0
  -12.5492    4.9693   22.0087 C   0  0  0  0  0  0  0  0  0  0  0  0
  -12.4218    4.2754   20.7008 C   0  0  0  0  0  0  0  0  0  0  0  0
  -12.0092    4.9125   19.6051 C   0  0  0  0  0  0  0  0  0  0  0  0
  -11.7027    6.3639   19.6226 C   0  0  0  0  0  0  0  0  0  0  0  0
  -10.3142    6.6246   19.1691 C   0  0  0  0  0  0  0  0  0  0  0  0
  -10.0589    7.4333   18.1415 C   0  0  0  0  0  0  0  0  0  0  0  0
  -11.1493    8.0795   17.3678 C   0  0  0  0  0  0  0  0  0  0  0  0
  -10.9707    9.5465   17.3616 C   0  0  0  0  0  0  0  0  0  0  0  0
  -10.8230   10.2328   16.2249 C   0  0  0  0  0  0  0  0  0  0  0  0
  -10.8831    9.5919   14.8781 C   0  0  0  0  0  0  0  0  0  0  0  0
  -12.0847   10.1243   14.1259 C   0  0  0  0  0  0  0  0  0  0  0  0
  -11.9564   11.6322   13.8750 C   0  0  0  0  0  0  0  0  0  0  0  0
  -10.6907   11.9371   13.0780 C   0  0  0  0  0  0  0  0  0  0  0  0
   -8.9702   10.9172   11.4724 F   0  0  0  0  0  0  0  0  0  0  0  0
  -10.5050   11.9460   10.3358 O   0  0  0  0  0  0  0  0  0  0  0  0
  -12.3402   10.9172   11.4724 O   0  0  0  0  0  0  0  0  0  0  0  0
  -10.6102   10.9172   11.4724 P   0  0  2  0  0  0  0  0  0  0  0  0
  -15.1789    4.1804   24.0732 H   0  0  0  0  0  0  0  0  0  0  0  0
  -14.7455    5.2120   21.9647 H   0  0  0  0  0  0  0  0  0  0  0  0
  -12.6451    3.2128   20.6595 H   0  0  0  0  0  0  0  0  0  0  0  0
  -11.9297    4.3785   18.6620 H   0  0  0  0  0  0  0  0  0  0  0  0
   -9.4954    6.1732   19.7227 H   0  0  0  0  0  0  0  0  0  0  0  0
   -9.0324    7.6156   17.8345 H   0  0  0  0  0  0  0  0  0  0  0  0
  -10.9956   10.0742   18.3113 H   0  0  0  0  0  0  0  0  0  0  0  0
  -10.7082   11.3091   16.2984 H   0  0  0  0  0  0  0  0  0  0  0  0
  -12.4234    2.2713   27.2672 H   0  0  0  0  0  0  0  0  0  0  0  0
  -13.5424    1.1209   27.9821 H   0  0  0  0  0  0  0  0  0  0  0  0
  -13.2696    2.6972   28.7629 H   0  0  0  0  0  0  0  0  0  0  0  0
  -12.7043   12.1753    9.8499 H   0  0  0  0  0  0  0  0  0  0  0  0
  -12.5583   10.4277    9.4740 H   0  0  0  0  0  0  0  0  0  0  0  0
  -14.0160   11.0803   10.2721 H   0  0  0  0  0  0  0  0  0  0  0  0
  -14.6616    2.2321   26.0797 H   0  0  0  0  0  0  0  0  0  0  0  0
  -15.4692    2.6461   27.5645 H   0  0  0  0  0  0  0  0  0  0  0  0
  -15.1843    4.6851   26.2311 H   0  0  0  0  0  0  0  0  0  0  0  0
  -14.2510    4.8214   27.7049 H   0  0  0  0  0  0  0  0  0  0  0  0
  -12.9365    5.6139   25.7518 H   0  0  0  0  0  0  0  0  0  0  0  0
  -12.1560    4.2567   26.5180 H   0  0  0  0  0  0  0  0  0  0  0  0
  -12.0483    3.8519   24.2354 H   0  0  0  0  0  0  0  0  0  0  0  0
  -13.1704    2.6816   24.7672 H   0  0  0  0  0  0  0  0  0  0  0  0
  -12.3706    6.0418   22.0280 H   0  0  0  0  0  0  0  0  0  0  0  0
  -11.7344    4.5746   22.6091 H   0  0  0  0  0  0  0  0  0  0  0  0
  -12.5123    6.8107   19.0513 H   0  0  0  0  0  0  0  0  0  0  0  0
  -11.7712    6.8830   20.5750 H   0  0  0  0  0  0  0  0  0  0  0  0
  -11.1415    7.5725   16.4068 H   0  0  0  0  0  0  0  0  0  0  0  0
  -12.1706    7.9329   17.7110 H   0  0  0  0  0  0  0  0  0  0  0  0
   -9.9339    9.7524   14.3625 H   0  0  0  0  0  0  0  0  0  0  0  0
  -10.9878    8.5085   14.8727 H   0  0  0  0  0  0  0  0  0  0  0  0
  -12.1511    9.5360   13.2037 H   0  0  0  0  0  0  0  0  0  0  0  0
  -13.0212    9.9124   14.6557 H   0  0  0  0  0  0  0  0  0  0  0  0
  -12.8442   11.9929   13.3453 H   0  0  0  0  0  0  0  0  0  0  0  0
  -11.9494   12.1962   14.8094 H   0  0  0  0  0  0  0  0  0  0  0  0
  -10.6121   12.9948   12.8188 H   0  0  0  0  0  0  0  0  0  0  0  0
   -9.7821   11.6746   13.6295 H   0  0  0  0  0  0  0  0  0  0  0  0
  1 34  1  0  0  0  0
  1 35  1  0  0  0  0
  1 36  1  0  0  0  0
  2 37  1  0  0  0  0
  2 38  1  0  0  0  0
  2 39  1  0  0  0  0
  3  1  1  0  0  0  0
  3 40  1  0  0  0  0
  3 41  1  0  0  0  0
  4  3  1  0  0  0  0
  4 42  1  0  0  0  0
  4 43  1  0  0  0  0
  5  4  1  0  0  0  0
  5 44  1  0  0  0  0
  5 45  1  0  0  0  0
  6  5  1  0  0  0  0
  6 46  1  0  0  0  0
  6 47  1  0  0  0  0
  7  6  1  0  0  0  0
  8  7  2  0  0  0  0
  9  8  1  0  0  0  0
  9 48  1  0  0  0  0
  9 49  1  0  0  0  0
 10  9  1  0  0  0  0
 11 10  2  0  0  0  0
 12 11  1  0  0  0  0
 12 50  1  0  0  0  0
 12 51  1  0  0  0  0
 13 12  1  0  0  0  0
 14 13  2  0  0  0  0
 15 14  1  0  0  0  0
 15 52  1  0  0  0  0
 15 53  1  0  0  0  0
 16 15  1  0  0  0  0
 17 16  2  0  0  0  0
 18 17  1  0  0  0  0
 18 54  1  0  0  0  0
 18 55  1  0  0  0  0
 19 18  1  0  0  0  0
 19 56  1  0  0  0  0
 19 57  1  0  0  0  0
 20 19  1  0  0  0  0
 20 58  1  0  0  0  0
 20 59  1  0  0  0  0
 21 20  1  0  0  0  0
 21 60  1  0  0  0  0
 21 61  1  0  0  0  0
 24  2  1  0  0  0  0
 25 23  2  6  0  0  0
 25 24  1  0  0  0  0
 25 22  1  0  0  0  0
 25 21  1  0  0  0  0
 26  7  1  0  0  0  0
 27  8  1  0  0  0  0
 28 10  1  0  0  0  0
 29 11  1  0  0  0  0
 30 13  1  0  0  0  0
 31 14  1  0  0  0  0
 32 16  1  0  0  0  0
 33 17  1  0  0  0  0
M  END
>  <DRUGBANK_ID>
DB02465

>  <SECONDARY_ACCESSION_NUMBERS>
EXPT02119

>  <COMMON_NAME>
Methoxy arachidonyl fluorophosphonate

>  <CAS_NUMBER>
180509-15-3

>  <SYNONYMS>
MAFP; Methoxy arachidonyl fluorophosphonate; Methyl arachidonylfluorophosphonate

$$$$
