
 OpenBabel10282417163D

 39 38  0  0  0  0  0  0  0  0999 V2000
    1.0488   -0.0781   -0.0232 C   0  0  0  0  0  0  0  0  0  0  0  0
    0.5875   -1.1669    0.9401 C   0  0  0  0  0  0  0  0  0  0  0  0
    0.4968    1.3031    0.3353 C   0  0  0  0  0  0  0  0  0  0  0  0
    0.1390    1.3268    5.0446 C   0  0  0  0  0  0  0  0  0  0  0  0
   -4.1216    0.5842    7.3447 C   0  0  0  0  0  0  0  0  0  0  0  0
    0.9270   -0.8218    2.3582 C   0  0  0  0  0  0  0  0  0  0  0  0
    0.5388   -0.1205    4.7095 C   0  0  0  0  0  0  0  0  0  0  0  0
   -1.3452    1.4865    5.2417 C   0  0  0  0  0  0  0  0  0  0  0  0
   -3.5441    1.6497    6.4052 C   0  0  0  0  0  0  0  0  0  0  0  0
    0.9566    2.3125   -0.6769 C   0  0  0  0  0  0  0  0  0  0  0  0
   -3.7763    0.8179    8.7908 C   0  0  0  0  0  0  0  0  0  0  0  0
   -1.4254   -0.7285    3.1772 C   0  0  0  0  0  0  0  0  0  0  0  0
   -1.3159    2.1156    7.6252 C   0  0  0  0  0  0  0  0  0  0  0  0
    0.0567   -0.5791    3.3538 C   0  0  0  0  0  0  0  0  0  0  0  0
   -2.0278    1.7192    6.3749 C   0  0  0  0  0  0  0  0  0  0  0  0
    0.1902    3.0112   -1.3312 O   0  0  0  0  0  0  0  0  0  0  0  0
   -4.5670    1.2549    9.6186 O   0  0  0  0  0  0  0  0  0  0  0  0
   -2.0285   -0.7601    2.1127 O   0  0  0  0  0  0  0  0  0  0  0  0
   -0.1267    1.9229    7.8615 O   0  0  0  0  0  0  0  0  0  0  0  0
    0.7093   -0.3515   -1.0297 H   0  0  0  0  0  0  0  0  0  0  0  0
    2.1445   -0.0526   -0.0571 H   0  0  0  0  0  0  0  0  0  0  0  0
   -0.4767   -1.3060    0.7712 H   0  0  0  0  0  0  0  0  0  0  0  0
    1.0398   -2.1319    0.6937 H   0  0  0  0  0  0  0  0  0  0  0  0
   -0.5982    1.2947    0.3624 H   0  0  0  0  0  0  0  0  0  0  0  0
    0.8579    1.6434    1.3121 H   0  0  0  0  0  0  0  0  0  0  0  0
    0.7146    1.6010    5.9256 H   0  0  0  0  0  0  0  0  0  0  0  0
    0.4683    2.0197    4.2638 H   0  0  0  0  0  0  0  0  0  0  0  0
   -5.2154    0.5749    7.2632 H   0  0  0  0  0  0  0  0  0  0  0  0
   -3.7671   -0.4168    7.0751 H   0  0  0  0  0  0  0  0  0  0  0  0
    1.9941   -0.7152    2.5614 H   0  0  0  0  0  0  0  0  0  0  0  0
    0.1938   -0.8174    5.4842 H   0  0  0  0  0  0  0  0  0  0  0  0
    1.6373   -0.1598    4.7517 H   0  0  0  0  0  0  0  0  0  0  0  0
   -1.9354    1.3899    4.3310 H   0  0  0  0  0  0  0  0  0  0  0  0
   -3.9499    2.6388    6.6407 H   0  0  0  0  0  0  0  0  0  0  0  0
   -3.9227    1.4037    5.3998 H   0  0  0  0  0  0  0  0  0  0  0  0
    2.0499    2.4252   -0.7751 H   0  0  0  0  0  0  0  0  0  0  0  0
   -2.7301    0.6127    9.0736 H   0  0  0  0  0  0  0  0  0  0  0  0
   -2.0004   -0.7555    4.1125 H   0  0  0  0  0  0  0  0  0  0  0  0
   -1.9476    2.5944    8.3829 H   0  0  0  0  0  0  0  0  0  0  0  0
  1 20  1  0  0  0  0
  1 21  1  0  0  0  0
  2  1  1  0  0  0  0
  2 22  1  0  0  0  0
  2 23  1  0  0  0  0
  3  1  1  0  0  0  0
  3 24  1  0  0  0  0
  3 25  1  0  0  0  0
  4 26  1  0  0  0  0
  4 27  1  0  0  0  0
  5 28  1  0  0  0  0
  5 29  1  0  0  0  0
  6  2  1  0  0  0  0
  6 30  1  0  0  0  0
  7  4  1  0  0  0  0
  7 31  1  0  0  0  0
  7 32  1  0  0  0  0
  8  4  1  0  0  0  0
  8 33  1  0  0  0  0
  9  5  1  0  0  0  0
  9 34  1  0  0  0  0
  9 35  1  0  0  0  0
 10  3  1  0  0  0  0
 10 36  1  0  0  0  0
 11  5  1  0  0  0  0
 11 37  1  0  0  0  0
 12 38  1  0  0  0  0
 13 39  1  0  0  0  0
 14  6  2  3  0  0  0
 14  7  1  0  0  0  0
 14 12  1  0  0  0  0
 15  8  2  3  0  0  0
 15  9  1  0  0  0  0
 15 13  1  0  0  0  0
 16 10  2  0  0  0  0
 17 11  2  0  0  0  0
 18 12  2  0  0  0  0
 19 13  2  0  0  0  0
M  END
>  <DRUGBANK_ID>
DB06912

>  <COMMON_NAME>
UNDECA-3,7-DIENE-1,3,7,11-TETRACARBALDEHYDE

$$$$
