M03
 OpenBabel10282417173D

 44 47  0  0  0  0  0  0  0  0999 V2000
    1.3783   -0.0025    0.2992 N   0  0  0  0  0  0  0  0  0  0  0  0
    0.8093    1.2635   -0.1168 C   0  0  0  0  0  0  0  0  0  0  0  0
   -0.6801    1.2927    0.1947 C   0  0  0  0  0  0  0  0  0  0  0  0
   -1.4799    0.0356   -0.2650 C   0  0  0  0  0  0  0  0  0  0  0  0
   -2.8603    0.0809    0.5132 C   0  0  0  0  0  0  0  0  0  0  0  0
   -3.6697    1.2746    0.2279 N   0  0  0  0  0  0  0  0  0  0  0  0
   -0.7199   -1.2449    0.2167 C   0  0  0  0  0  0  0  0  0  0  0  0
    0.7807   -1.2623   -0.1149 C   0  0  0  0  0  0  0  0  0  0  0  0
   -1.6842    0.0063   -1.8072 C   0  0  0  0  0  0  0  0  0  0  0  0
   -0.6020    0.0129   -2.7046 C   0  0  0  0  0  0  0  0  0  0  0  0
   -0.7661    0.0411   -4.0885 C   0  0  0  0  0  0  0  0  0  0  0  0
   -2.0393    0.0661   -4.6243 C   0  0  0  0  0  0  0  0  0  0  0  0
   -2.2452    0.1343   -6.3258 Cl  0  0  0  0  0  0  0  0  0  0  0  0
   -3.1404    0.0351   -3.7832 C   0  0  0  0  0  0  0  0  0  0  0  0
   -2.9611   -0.0117   -2.3966 C   0  0  0  0  0  0  0  0  0  0  0  0
    2.4648   -0.0305    1.1428 C   0  0  0  0  0  0  0  0  0  0  0  0
    3.5752   -0.7152    0.7672 N   0  0  0  0  0  0  0  0  0  0  0  0
    4.6288   -0.7563    1.6069 C   0  0  0  0  0  0  0  0  0  0  0  0
    4.7246   -0.2562    2.8503 N   0  0  0  0  0  0  0  0  0  0  0  0
    3.6023    0.3925    3.1929 C   0  0  0  0  0  0  0  0  0  0  0  0
    3.3906    0.9775    4.4132 N   0  0  0  0  0  0  0  0  0  0  0  0
    2.1632    1.5886    4.4246 C   0  0  0  0  0  0  0  0  0  0  0  0
    1.5748    1.3609    3.2004 C   0  0  0  0  0  0  0  0  0  0  0  0
    2.4739    0.5801    2.4150 C   0  0  0  0  0  0  0  0  0  0  0  0
    0.9848    1.4337   -1.1810 H   0  0  0  0  0  0  0  0  0  0  0  0
    1.3027    2.1208    0.3565 H   0  0  0  0  0  0  0  0  0  0  0  0
   -1.1089    2.2090   -0.2258 H   0  0  0  0  0  0  0  0  0  0  0  0
   -0.7831    1.3784    1.2843 H   0  0  0  0  0  0  0  0  0  0  0  0
   -3.4527   -0.8112    0.2725 H   0  0  0  0  0  0  0  0  0  0  0  0
   -2.6914    0.0457    1.5970 H   0  0  0  0  0  0  0  0  0  0  0  0
   -4.5480    1.2574    0.7392 H   0  0  0  0  0  0  0  0  0  0  0  0
   -3.1753    2.1244    0.4879 H   0  0  0  0  0  0  0  0  0  0  0  0
   -0.8011   -1.3173    1.3119 H   0  0  0  0  0  0  0  0  0  0  0  0
   -1.1971   -2.1481   -0.1841 H   0  0  0  0  0  0  0  0  0  0  0  0
    1.2449   -2.1234    0.3832 H   0  0  0  0  0  0  0  0  0  0  0  0
    0.9492   -1.4517   -1.1771 H   0  0  0  0  0  0  0  0  0  0  0  0
    0.4281    0.0018   -2.3804 H   0  0  0  0  0  0  0  0  0  0  0  0
    0.1159    0.0518   -4.7218 H   0  0  0  0  0  0  0  0  0  0  0  0
   -4.1482    0.0565   -4.1852 H   0  0  0  0  0  0  0  0  0  0  0  0
   -3.8694   -0.0354   -1.8012 H   0  0  0  0  0  0  0  0  0  0  0  0
    5.5168   -1.2563    1.2304 H   0  0  0  0  0  0  0  0  0  0  0  0
    4.0521    0.9474    5.1714 H   0  0  0  0  0  0  0  0  0  0  0  0
    1.8125    2.1226    5.2981 H   0  0  0  0  0  0  0  0  0  0  0  0
    0.5973    1.7141    2.9105 H   0  0  0  0  0  0  0  0  0  0  0  0
  1  2  1  0  0  0  0
  1  8  1  0  0  0  0
  1 16  1  0  0  0  0
  2  3  1  0  0  0  0
  2 25  1  0  0  0  0
  2 26  1  0  0  0  0
  3  4  1  0  0  0  0
  3 27  1  0  0  0  0
  3 28  1  0  0  0  0
  4  5  1  0  0  0  0
  4  7  1  0  0  0  0
  4  9  1  0  0  0  0
  5  6  1  0  0  0  0
  5 29  1  0  0  0  0
  5 30  1  0  0  0  0
  6 31  1  0  0  0  0
  6 32  1  0  0  0  0
  7  8  1  0  0  0  0
  7 33  1  0  0  0  0
  7 34  1  0  0  0  0
  8 35  1  0  0  0  0
  8 36  1  0  0  0  0
  9 10  1  0  0  0  0
  9 15  2  0  0  0  0
 10 11  2  0  0  0  0
 10 37  1  0  0  0  0
 11 12  1  0  0  0  0
 11 38  1  0  0  0  0
 12 13  1  0  0  0  0
 12 14  2  0  0  0  0
 14 15  1  0  0  0  0
 14 39  1  0  0  0  0
 15 40  1  0  0  0  0
 16 17  1  0  0  0  0
 16 24  2  0  0  0  0
 17 18  2  0  0  0  0
 18 19  1  0  0  0  0
 18 41  1  0  0  0  0
 19 20  2  0  0  0  0
 20 21  1  0  0  0  0
 20 24  1  0  0  0  0
 21 22  1  0  0  0  0
 21 42  1  0  0  0  0
 22 23  2  0  0  0  0
 22 43  1  0  0  0  0
 23 24  1  0  0  0  0
 23 44  1  0  0  0  0
M  END
>  <DRUGBANK_ID>
DB08148

>  <COMMON_NAME>
1-[4-(4-chlorophenyl)-1-(7H-pyrrolo[2,3-d]pyrimidin-4-yl)piperidin-4-yl]methanamine

$$$$
