
 OpenBabel10282417133D

 18 18  0  0  1  0  0  0  0  0999 V2000
    0.9889   -0.1977   -2.3585 C   0  0  0  0  0  0  0  0  0  0  0  0
   -0.9982    0.7870   -1.1180 C   0  0  0  0  0  0  0  0  0  0  0  0
   -1.3199    2.0514   -0.8209 C   0  0  0  0  0  0  0  0  0  0  0  0
    0.5141    0.6461   -1.1863 C   0  0  2  0  0  0  0  0  0  0  0  0
    0.9653    2.1296   -1.2822 C   0  0  2  0  0  0  0  0  0  0  0  0
    2.2963    2.4046   -0.6060 C   0  0  0  0  0  0  0  0  0  0  0  0
   -0.1995    2.8195   -0.7146 N   0  0  0  0  0  0  0  0  0  0  0  0
    3.3023    2.8109   -1.1792 O   0  0  0  0  0  0  0  0  0  0  0  0
    2.3480    2.1426    0.7136 O   0  0  0  0  0  0  0  0  0  0  0  0
    0.8568    0.1900   -0.2479 H   0  0  0  0  0  0  0  0  0  0  0  0
    1.0633    2.4406   -2.3309 H   0  0  0  0  0  0  0  0  0  0  0  0
    1.3969   -1.1433   -1.9842 H   0  0  0  0  0  0  0  0  0  0  0  0
    1.7868    0.2961   -2.9212 H   0  0  0  0  0  0  0  0  0  0  0  0
    0.1774   -0.4449   -3.0501 H   0  0  0  0  0  0  0  0  0  0  0  0
   -1.6998   -0.0242   -1.2433 H   0  0  0  0  0  0  0  0  0  0  0  0
   -2.3107    2.4628   -0.6723 H   0  0  0  0  0  0  0  0  0  0  0  0
   -0.2042    3.7796   -0.3978 H   0  0  0  0  0  0  0  0  0  0  0  0
    3.2738    2.3438    0.9667 H   0  0  0  0  0  0  0  0  0  0  0  0
  1 12  1  0  0  0  0
  1 13  1  0  0  0  0
  1 14  1  0  0  0  0
  2 15  1  0  0  0  0
  3  2  2  0  0  0  0
  3 16  1  0  0  0  0
  4  2  1  0  0  0  0
  4 10  1  1  0  0  0
  4  1  1  0  0  0  0
  5  4  1  0  0  0  0
  5  6  1  0  0  0  0
  5 11  1  6  0  0  0
  7  3  1  0  0  0  0
  7  5  1  0  0  0  0
  7 17  1  0  0  0  0
  8  6  2  0  0  0  0
  9  6  1  0  0  0  0
  9 18  1  0  0  0  0
M  END
>  <DRUGBANK_ID>
DB03930

>  <SECONDARY_ACCESSION_NUMBERS>
EXPT00689

>  <COMMON_NAME>
4-Methyl-Pyrroline-5-Carboxylic Acid

$$$$
