
 OpenBabel10282417173D

 45 47  0  0  0  0  0  0  0  0999 V2000
   -1.2018    0.3693   -0.3045 O   0  0  0  0  0  0  0  0  0  0  0  0
    0.0528    0.9258   -0.1267 N   0  0  0  0  0  0  0  0  0  0  0  0
    0.8784   -0.1209   -0.0283 C   0  0  0  0  0  0  0  0  0  0  0  0
    0.1870   -1.3413   -0.0324 C   0  0  0  0  0  0  0  0  0  0  0  0
   -1.1150   -0.9884   -0.2037 C   0  0  0  0  0  0  0  0  0  0  0  0
    2.3348    0.0532    0.0156 C   0  0  0  0  0  0  0  0  0  0  0  0
   -2.3454   -1.8028   -0.2363 C   0  0  0  0  0  0  0  0  0  0  0  0
   -3.1755   -1.5148    0.9710 C   0  0  0  0  0  0  0  0  0  0  0  0
   -3.6098   -0.0774    0.8978 C   0  0  0  0  0  0  0  0  0  0  0  0
   -4.6281    0.3682   -0.1324 C   0  0  0  0  0  0  0  0  0  0  0  0
   -5.9619   -0.3299    0.1545 C   0  0  0  0  0  0  0  0  0  0  0  0
   -6.6854    0.1987    1.3244 O   0  0  0  0  0  0  0  0  0  0  0  0
   -6.2296   -0.0371    2.6107 C   0  0  0  0  0  0  0  0  0  0  0  0
   -6.8374   -0.9852    3.4382 C   0  0  0  0  0  0  0  0  0  0  0  0
   -6.2788   -1.3136    4.6900 C   0  0  0  0  0  0  0  0  0  0  0  0
   -5.0317   -0.8049    5.0573 C   0  0  0  0  0  0  0  0  0  0  0  0
   -4.4558    0.1767    4.2716 C   0  0  0  0  0  0  0  0  0  0  0  0
   -5.2115    0.7245    3.2266 C   0  0  0  0  0  0  0  0  0  0  0  0
   -3.9513   -0.1064    7.0311 O   0  0  0  0  0  0  0  0  0  0  0  0
   -4.4121   -1.1634    6.3280 C   0  0  0  0  0  0  0  0  0  0  0  0
   -4.3383   -2.3642    6.8409 N   0  0  0  0  0  0  0  0  0  0  0  0
   -3.8117   -2.1080    8.1872 C   0  0  0  0  0  0  0  0  0  0  0  0
   -3.3453   -0.6679    8.1862 C   0  0  0  0  0  0  0  0  0  0  0  0
   -4.6826    2.2707    2.6378 Cl  0  0  0  0  0  0  0  0  0  0  0  0
   -8.3627   -1.6768    3.0271 Cl  0  0  0  0  0  0  0  0  0  0  0  0
    0.5546   -2.3483    0.0473 H   0  0  0  0  0  0  0  0  0  0  0  0
    2.6702    0.5994   -0.8700 H   0  0  0  0  0  0  0  0  0  0  0  0
    2.6445    0.5848    0.9175 H   0  0  0  0  0  0  0  0  0  0  0  0
    2.8144   -0.9309    0.0080 H   0  0  0  0  0  0  0  0  0  0  0  0
   -2.9251   -1.6071   -1.1402 H   0  0  0  0  0  0  0  0  0  0  0  0
   -2.0969   -2.8658   -0.2177 H   0  0  0  0  0  0  0  0  0  0  0  0
   -4.0406   -2.1857    1.0530 H   0  0  0  0  0  0  0  0  0  0  0  0
   -2.6232   -1.6560    1.9154 H   0  0  0  0  0  0  0  0  0  0  0  0
   -4.1002   -0.1074    1.8129 H   0  0  0  0  0  0  0  0  0  0  0  0
   -2.8326    0.6668    1.0746 H   0  0  0  0  0  0  0  0  0  0  0  0
   -4.7901    1.4501   -0.0574 H   0  0  0  0  0  0  0  0  0  0  0  0
   -4.2509    0.1987   -1.1502 H   0  0  0  0  0  0  0  0  0  0  0  0
   -6.6015   -0.1412   -0.7202 H   0  0  0  0  0  0  0  0  0  0  0  0
   -5.8428   -1.4227    0.1769 H   0  0  0  0  0  0  0  0  0  0  0  0
   -6.8153   -1.9505    5.3896 H   0  0  0  0  0  0  0  0  0  0  0  0
   -3.4371    0.5112    4.4655 H   0  0  0  0  0  0  0  0  0  0  0  0
   -2.9995   -2.7941    8.4468 H   0  0  0  0  0  0  0  0  0  0  0  0
   -4.6249   -2.2534    8.9072 H   0  0  0  0  0  0  0  0  0  0  0  0
   -3.6626   -0.1345    9.0884 H   0  0  0  0  0  0  0  0  0  0  0  0
   -2.2576   -0.5825    8.0955 H   0  0  0  0  0  0  0  0  0  0  0  0
  1  2  1  0  0  0  0
  1  5  1  0  0  0  0
  2  3  2  0  0  0  0
  3  4  1  0  0  0  0
  3  6  1  0  0  0  0
  4  5  2  0  0  0  0
  4 26  1  0  0  0  0
  5  7  1  0  0  0  0
  6 27  1  0  0  0  0
  6 28  1  0  0  0  0
  6 29  1  0  0  0  0
  7  8  1  0  0  0  0
  7 30  1  0  0  0  0
  7 31  1  0  0  0  0
  8  9  1  0  0  0  0
  8 32  1  0  0  0  0
  8 33  1  0  0  0  0
  9 10  1  0  0  0  0
  9 34  1  0  0  0  0
  9 35  1  0  0  0  0
 10 11  1  0  0  0  0
 10 36  1  0  0  0  0
 10 37  1  0  0  0  0
 11 12  1  0  0  0  0
 11 38  1  0  0  0  0
 11 39  1  0  0  0  0
 12 13  1  0  0  0  0
 13 14  1  0  0  0  0
 13 18  2  0  0  0  0
 14 15  2  0  0  0  0
 14 25  1  0  0  0  0
 15 16  1  0  0  0  0
 15 40  1  0  0  0  0
 16 17  2  0  0  0  0
 16 20  1  0  0  0  0
 17 18  1  0  0  0  0
 17 41  1  0  0  0  0
 18 24  1  0  0  0  0
 19 20  1  0  0  0  0
 19 23  1  0  0  0  0
 20 21  2  0  0  0  0
 21 22  1  0  0  0  0
 22 23  1  0  0  0  0
 22 42  1  0  0  0  0
 22 43  1  0  0  0  0
 23 44  1  0  0  0  0
 23 45  1  0  0  0  0
M  END
>  <DRUGBANK_ID>
DB08723

>  <COMMON_NAME>
WIN-54954

>  <CAS_NUMBER>
107355-45-3

>  <UNII>
IY9RJD7JGI

$$$$
