
 OpenBabel10282417123D

 76 81  0  0  0  0  0  0  0  0999 V2000
    0.4389   -0.8960    0.4506 C   0  0  2  0  0  0  0  0  0  0  0  0
    0.0899    0.5098   -0.3700 C   0  0  0  0  0  0  0  0  0  0  0  0
    0.9465    0.8420    2.1324 C   0  0  0  0  0  0  0  0  0  0  0  0
    1.4295   -0.2354    1.3776 C   0  0  0  0  0  0  0  0  0  0  0  0
    0.3995   -2.0853   -0.3123 O   0  0  0  0  0  0  0  0  0  0  0  0
   -0.2614    1.8487    0.5616 C   0  0  2  0  0  0  0  0  0  0  0  0
   -1.1791    2.9681    0.2501 O   0  0  0  0  0  0  0  0  0  0  0  0
   -0.5799    1.2765    1.9454 C   0  0  2  0  0  0  0  0  0  0  0  0
   -1.7448    3.3596    1.4844 C   0  0  0  0  0  0  0  0  0  0  0  0
   -1.4957    2.3565    2.4364 C   0  0  0  0  0  0  0  0  0  0  0  0
   -2.6744    4.4355    1.7470 C   0  0  0  0  0  0  0  0  0  0  0  0
   -3.4425    4.3639    2.9283 C   0  0  0  0  0  0  0  0  0  0  0  0
   -3.3096    3.2922    3.7975 C   0  0  0  0  0  0  0  0  0  0  0  0
   -2.8430    5.5076    0.8916 O   0  0  0  0  0  0  0  0  0  0  0  0
   -3.8296    6.5110    1.2586 C   0  0  0  0  0  0  0  0  0  0  0  0
   -2.3791    2.2893    3.5204 C   0  0  0  0  0  0  0  0  0  0  0  0
   -2.4076    1.1802    4.4692 C   0  0  0  0  0  0  0  0  0  0  0  0
   -1.2649   -0.0557    2.1318 C   0  0  0  0  0  0  0  0  0  0  0  0
   -2.4122   -0.5629    2.8806 C   0  0  0  0  0  0  0  0  0  0  0  0
   -2.2168   -0.0715    4.2323 N   0  3  0  0  0  0  0  0  0  0  0  0
   -1.5931   -1.0490    5.2053 C   0  0  0  0  0  0  0  0  0  0  0  0
   -0.2925   -0.5149    5.8309 C   0  0  0  0  0  0  0  0  0  0  0  0
   -0.4869    0.8050    6.5733 C   0  0  0  0  0  0  0  0  0  0  0  0
   -1.6901    0.6846    7.5296 C   0  0  0  0  0  0  0  0  0  0  0  0
   -1.3909   -0.3451    8.6025 C   0  0  0  0  0  0  0  0  0  0  0  0
   -0.1557    0.0810    9.3827 C   0  0  0  0  0  0  0  0  0  0  0  0
   -0.3802    1.4135   10.1016 C   0  0  0  0  0  0  0  0  0  0  0  0
   -1.4800    1.2583   11.1371 C   0  0  0  0  0  0  0  0  0  0  0  0
   -2.3151   -0.3198   12.7910 C   0  0  0  0  0  0  0  0  0  0  0  0
   -0.0816   -0.4107   12.5431 C   0  0  0  0  0  0  0  0  0  0  0  0
   -1.2584    0.2079   12.1374 N   0  0  0  0  0  0  0  0  0  0  0  0
   -3.5207   -0.0248   12.6769 O   0  0  0  0  0  0  0  0  0  0  0  0
    1.0566   -0.2184   12.1856 O   0  0  0  0  0  0  0  0  0  0  0  0
   -0.4681   -1.4585   13.5192 C   0  0  0  0  0  0  0  0  0  0  0  0
   -1.8382   -1.3638   13.6602 C   0  0  0  0  0  0  0  0  0  0  0  0
    0.2348   -2.4228   14.2322 C   0  0  0  0  0  0  0  0  0  0  0  0
   -0.4958   -3.2605   15.1023 C   0  0  0  0  0  0  0  0  0  0  0  0
   -1.8917   -3.1335   15.2328 C   0  0  0  0  0  0  0  0  0  0  0  0
   -2.5766   -2.1756   14.4966 C   0  0  0  0  0  0  0  0  0  0  0  0
   -0.0120   -1.4312    1.3042 H   0  0  0  0  0  0  0  0  0  0  0  0
    1.0962    0.7467   -0.7855 H   0  0  0  0  0  0  0  0  0  0  0  0
   -0.5477    0.4196   -1.2445 H   0  0  0  0  0  0  0  0  0  0  0  0
    1.6318    1.5975    2.4902 H   0  0  0  0  0  0  0  0  0  0  0  0
    2.4482   -0.4444    1.1010 H   0  0  0  0  0  0  0  0  0  0  0  0
    1.1317   -2.7061   -0.1722 H   0  0  0  0  0  0  0  0  0  0  0  0
    0.6828    2.4470    0.6269 H   0  0  0  0  0  0  0  0  0  0  0  0
   -4.2123    5.0910    3.1879 H   0  0  0  0  0  0  0  0  0  0  0  0
   -3.9615    3.2375    4.6702 H   0  0  0  0  0  0  0  0  0  0  0  0
   -4.8417    6.0832    1.2742 H   0  0  0  0  0  0  0  0  0  0  0  0
   -3.6123    6.9879    2.2272 H   0  0  0  0  0  0  0  0  0  0  0  0
   -3.8375    7.3141    0.5125 H   0  0  0  0  0  0  0  0  0  0  0  0
   -2.5678    1.5072    5.4905 H   0  0  0  0  0  0  0  0  0  0  0  0
   -0.5213   -0.5653    2.7785 H   0  0  0  0  0  0  0  0  0  0  0  0
   -1.5134   -0.4745    1.1646 H   0  0  0  0  0  0  0  0  0  0  0  0
   -2.2922   -1.6614    2.8642 H   0  0  0  0  0  0  0  0  0  0  0  0
   -3.3629   -0.2886    2.4334 H   0  0  0  0  0  0  0  0  0  0  0  0
   -2.3707   -1.3178    5.9191 H   0  0  0  0  0  0  0  0  0  0  0  0
   -1.3298   -1.9712    4.6716 H   0  0  0  0  0  0  0  0  0  0  0  0
    0.0757   -1.2745    6.5351 H   0  0  0  0  0  0  0  0  0  0  0  0
    0.5196   -0.4108    5.1018 H   0  0  0  0  0  0  0  0  0  0  0  0
    0.4290    1.0959    7.0921 H   0  0  0  0  0  0  0  0  0  0  0  0
   -0.5887    1.6355    5.8719 H   0  0  0  0  0  0  0  0  0  0  0  0
   -1.9502    1.6673    7.9308 H   0  0  0  0  0  0  0  0  0  0  0  0
   -2.6177    0.3618    7.0475 H   0  0  0  0  0  0  0  0  0  0  0  0
   -2.2704   -0.4804    9.2386 H   0  0  0  0  0  0  0  0  0  0  0  0
   -1.2279   -1.3389    8.1717 H   0  0  0  0  0  0  0  0  0  0  0  0
    0.0847   -0.7280   10.0664 H   0  0  0  0  0  0  0  0  0  0  0  0
    0.7319    0.1560    8.7498 H   0  0  0  0  0  0  0  0  0  0  0  0
    0.5418    1.7650   10.5683 H   0  0  0  0  0  0  0  0  0  0  0  0
   -0.6492    2.2074    9.3895 H   0  0  0  0  0  0  0  0  0  0  0  0
   -1.6888    2.2090   11.6372 H   0  0  0  0  0  0  0  0  0  0  0  0
   -2.4283    1.0275   10.6251 H   0  0  0  0  0  0  0  0  0  0  0  0
    1.3109   -2.5481   14.1455 H   0  0  0  0  0  0  0  0  0  0  0  0
    0.0117   -4.0213   15.6967 H   0  0  0  0  0  0  0  0  0  0  0  0
   -2.4461   -3.7807   15.9107 H   0  0  0  0  0  0  0  0  0  0  0  0
   -3.6510   -2.0513   14.5672 H   0  0  0  0  0  0  0  0  0  0  0  0
  1  2  1  0  0  0  0
  1  4  1  0  0  0  0
  1 40  1  1  0  0  0
  1  5  1  0  0  0  0
  2  6  1  0  0  0  0
  2 41  1  0  0  0  0
  2 42  1  0  0  0  0
  3  4  2  0  0  0  0
  3 43  1  0  0  0  0
  4 44  1  0  0  0  0
  5 45  1  0  0  0  0
  6  7  1  0  0  0  0
  6  8  1  0  0  0  0
  6 46  1  6  0  0  0
  7  9  1  0  0  0  0
  8  3  1  1  0  0  0
  8 10  1  0  0  0  0
  8 18  1  0  0  0  0
  9 11  1  0  0  0  0
  9 10  2  0  0  0  0
 10 16  1  0  0  0  0
 11 12  2  0  0  0  0
 11 14  1  0  0  0  0
 12 13  1  0  0  0  0
 12 47  1  0  0  0  0
 13 16  2  0  0  0  0
 13 48  1  0  0  0  0
 14 15  1  0  0  0  0
 15 49  1  0  0  0  0
 15 50  1  0  0  0  0
 15 51  1  0  0  0  0
 16 17  1  0  0  0  0
 17 20  2  0  0  0  0
 17 52  1  0  0  0  0
 18 19  1  0  0  0  0
 18 53  1  0  0  0  0
 18 54  1  0  0  0  0
 19 20  1  0  0  0  0
 19 55  1  0  0  0  0
 19 56  1  0  0  0  0
 20 21  1  0  0  0  0
 21 22  1  0  0  0  0
 21 57  1  0  0  0  0
 21 58  1  0  0  0  0
 22 23  1  0  0  0  0
 22 59  1  0  0  0  0
 22 60  1  0  0  0  0
 23 24  1  0  0  0  0
 23 61  1  0  0  0  0
 23 62  1  0  0  0  0
 24 25  1  0  0  0  0
 24 63  1  0  0  0  0
 24 64  1  0  0  0  0
 25 26  1  0  0  0  0
 25 65  1  0  0  0  0
 25 66  1  0  0  0  0
 26 27  1  0  0  0  0
 26 67  1  0  0  0  0
 26 68  1  0  0  0  0
 27 28  1  0  0  0  0
 27 69  1  0  0  0  0
 27 70  1  0  0  0  0
 28 31  1  0  0  0  0
 28 71  1  0  0  0  0
 28 72  1  0  0  0  0
 29 31  1  0  0  0  0
 29 35  1  0  0  0  0
 29 32  2  0  0  0  0
 30 31  1  0  0  0  0
 30 34  1  0  0  0  0
 30 33  2  0  0  0  0
 34 36  1  0  0  0  0
 34 35  2  0  0  0  0
 35 39  1  0  0  0  0
 36 37  2  0  0  0  0
 36 73  1  0  0  0  0
 37 38  1  0  0  0  0
 37 74  1  0  0  0  0
 38 39  2  0  0  0  0
 38 75  1  0  0  0  0
 39 76  1  0  0  0  0
M  CHG  1  20   1
M  END
>  <DRUGBANK_ID>
DB02673

>  <SECONDARY_ACCESSION_NUMBERS>
EXPT01601

>  <COMMON_NAME>
(4aS,6R,8aS)-11-[8-(1,3-Dioxo-1,3-dihydro-2H-isoindol-2-yl)octyl]-6-hydroxy-3-methoxy-5,6,9,10-tetrahydro-4aH-[1]benzofuro[3a,3,2-ef][2]benzazepin-11-ium

$$$$
