
 OpenBabel10282417133D

 97 99  0  0  1  0  0  0  0  0999 V2000
    1.3980   -0.6856   -3.0149 C   0  0  0  0  0  0  0  0  0  0  0  0
    3.2588    0.8192   -2.5510 C   0  0  0  0  0  0  0  0  0  0  0  0
    4.9130    0.3192    0.1050 C   0  0  0  0  0  0  0  0  0  0  0  0
    1.1298    1.6595    3.9108 C   0  0  0  0  0  0  0  0  0  0  0  0
   -0.0500    1.0776    2.5623 C   0  0  0  0  0  0  0  0  0  0  0  0
    2.7332    4.4810    2.7000 C   0  0  0  0  0  0  0  0  0  0  0  0
    1.3146    4.9210    2.4374 C   0  0  0  0  0  0  0  0  0  0  0  0
    3.2072   -1.2212    1.2580 C   0  0  0  0  0  0  0  0  0  0  0  0
    3.0188    1.8149    0.7111 C   0  0  0  0  0  0  0  0  0  0  0  0
   -4.9536   -0.4688   -0.1091 C   0  0  0  0  0  0  0  0  0  0  0  0
    1.0862    1.9575   -2.5225 C   0  0  0  0  0  0  0  0  0  0  0  0
    1.5388    4.0618   -0.1699 C   0  0  0  0  0  0  0  0  0  0  0  0
   -2.6777    2.9836   -0.6990 C   0  0  0  0  0  0  0  0  0  0  0  0
   -3.7840   -0.4963    0.7516 C   0  0  2  0  0  0  0  0  0  0  0  0
    2.7992    2.1123    3.6733 C   0  0  0  0  0  0  0  0  0  0  0  0
    3.2995   -2.3091    0.1011 C   0  0  0  0  0  0  0  0  0  0  0  0
    1.8394    1.9303    1.6281 C   0  0  0  0  0  0  0  0  0  0  0  0
   -1.0592    4.4213   -0.6158 C   0  0  0  0  0  0  0  0  0  0  0  0
   -1.9825   -0.0053    1.9034 C   0  0  2  0  0  0  0  0  0  0  0  0
   -3.4141    0.0946    2.0419 C   0  0  2  0  0  0  0  0  0  0  0  0
    1.5606    0.0094   -0.7921 C   0  0  1  0  0  0  0  0  0  0  0  0
   -0.0466    5.4615   -0.6502 C   0  0  0  0  0  0  0  0  0  0  0  0
   -0.6802    3.2655   -0.0603 C   0  0  0  0  0  0  0  0  0  0  0  0
    0.6865   -0.7597    0.2590 C   0  0  0  0  0  0  0  0  0  0  0  0
   -1.9650    0.8851    0.6250 C   0  0  2  0  0  0  0  0  0  0  0  0
    1.7741    0.5353   -2.2221 C   0  0  0  0  0  0  0  0  0  0  0  0
    3.8546    0.3173    1.1240 C   0  0  2  0  0  0  0  0  0  0  0  0
   -0.3333    6.8089   -0.6726 N   0  0  0  0  0  0  0  0  0  0  0  0
    3.2798    3.1070    3.0250 N   0  0  0  0  0  0  0  0  0  0  0  0
    0.2628   -0.2025    1.3700 N   0  0  0  0  0  0  0  0  0  0  0  0
    1.2761    5.2813   -0.4836 N   0  0  0  0  0  0  0  0  0  0  0  0
    0.6565    3.1118   -0.0195 N   0  0  0  0  0  0  0  0  0  0  0  0
   -2.3611    4.2381   -1.0431 N   0  0  0  0  0  0  0  0  0  0  0  0
   -1.7913    2.3551    0.1891 N   0  0  0  0  0  0  0  0  0  0  0  0
    3.5610    1.1716    4.2129 O   0  5  0  0  0  0  0  0  0  0  0  0
    3.3327   -3.5331    0.4404 O   0  0  0  0  0  0  0  0  0  0  0  0
    3.5517   -1.9012   -1.0842 O   0  5  0  0  0  0  0  0  0  0  0  0
    1.8888    0.8408    2.1335 O   0  0  0  0  0  0  0  0  0  0  0  0
   -1.2629   -1.2676    1.9689 O   0  0  0  0  0  0  0  0  0  0  0  0
    0.9123    1.0993   -0.3498 O   0  0  0  0  0  0  0  0  0  0  0  0
    0.3716   -1.9116   -0.1959 O   0  5  0  0  0  0  0  0  0  0  0  0
    4.8013    0.4526    2.1902 O   0  0  0  0  0  0  0  0  0  0  0  0
   -3.0251   -2.5055    1.9545 O   0  5  0  0  0  0  0  0  0  0  0  0
   -1.8876   -1.5726    4.5392 O   0  5  0  0  0  0  0  0  0  0  0  0
   -2.1891   -3.5320    3.4675 O   0  0  0  0  0  0  0  0  0  0  0  0
   -4.1645   -0.4502   -3.2487 O   0  0  0  0  0  0  0  0  0  0  0  0
   -3.1037   -2.5951   -2.5504 O   0  0  0  0  0  0  0  0  0  0  0  0
   -1.0098   -0.2941   -1.2978 O   0  0  0  0  0  0  0  0  0  0  0  0
   -2.2958    1.4023   -2.8510 O   0  0  0  0  0  0  0  0  0  0  0  0
   -4.5533   -1.4641   -1.1258 O   0  0  0  0  0  0  0  0  0  0  0  0
   -0.2400    2.1027   -1.8982 O   0  0  0  0  0  0  0  0  0  0  0  0
   -2.9910    0.2772   -0.1507 O   0  0  0  0  0  0  0  0  0  0  0  0
   -3.3219   -0.4627    3.2588 O   0  0  0  0  0  0  0  0  0  0  0  0
   -1.7690   -0.7751   -3.0608 O   0  0  0  0  0  0  0  0  0  0  0  0
   -2.7241   -2.0824    3.3689 P   0  0  0  0  0  0  0  0  0  0  0  0
   -3.1611   -1.1196   -2.0933 P   0  0  3  0  0  0  0  0  0  0  0  0
   -1.0045    0.6638   -2.4795 P   0  0  3  0  0  0  0  0  0  0  0  0
    0.4546    3.5166    2.4481 S   0  0  0  0  0  0  0  0  0  0  0  0
   -3.7933   -1.5619    0.7428 H   0  0  0  0  0  0  0  0  0  0  0  0
   -1.6797    0.2181    2.9305 H   0  0  0  0  0  0  0  0  0  0  0  0
   -3.6377    1.1620    2.1328 H   0  0  0  0  0  0  0  0  0  0  0  0
    2.5223   -0.0641   -0.4162 H   0  0  0  0  0  0  0  0  0  0  0  0
   -1.1512    0.4668    0.2234 H   0  0  0  0  0  0  0  0  0  0  0  0
    1.6761   -0.6295   -4.0506 H   0  0  0  0  0  0  0  0  0  0  0  0
    0.3599   -0.8927   -3.0328 H   0  0  0  0  0  0  0  0  0  0  0  0
    1.7285   -1.5890   -2.4992 H   0  0  0  0  0  0  0  0  0  0  0  0
    3.4394    1.0313   -3.5980 H   0  0  0  0  0  0  0  0  0  0  0  0
    3.6973    1.6598   -1.9840 H   0  0  0  0  0  0  0  0  0  0  0  0
    3.8285   -0.0883   -2.3916 H   0  0  0  0  0  0  0  0  0  0  0  0
    4.4844    0.2288   -0.8427 H   0  0  0  0  0  0  0  0  0  0  0  0
    5.4246    1.2824    0.1479 H   0  0  0  0  0  0  0  0  0  0  0  0
    5.5331   -0.5471    0.2893 H   0  0  0  0  0  0  0  0  0  0  0  0
    0.9104    2.6446    4.3780 H   0  0  0  0  0  0  0  0  0  0  0  0
    1.0234    0.8954    4.6401 H   0  0  0  0  0  0  0  0  0  0  0  0
   -0.2050    1.6752    1.6677 H   0  0  0  0  0  0  0  0  0  0  0  0
   -1.0779    1.6053    2.8131 H   0  0  0  0  0  0  0  0  0  0  0  0
    2.9351    4.8472    3.6862 H   0  0  0  0  0  0  0  0  0  0  0  0
    3.3898    5.0009    1.9784 H   0  0  0  0  0  0  0  0  0  0  0  0
    0.9505    5.9365    2.6432 H   0  0  0  0  0  0  0  0  0  0  0  0
    0.7840    5.0059    1.5183 H   0  0  0  0  0  0  0  0  0  0  0  0
    3.4190   -1.6896    2.2270 H   0  0  0  0  0  0  0  0  0  0  0  0
    2.1660   -1.1730    1.5318 H   0  0  0  0  0  0  0  0  0  0  0  0
    2.6729    1.7739   -0.2999 H   0  0  0  0  0  0  0  0  0  0  0  0
    3.6638    2.6386    0.5139 H   0  0  0  0  0  0  0  0  0  0  0  0
   -5.0600    0.5180   -0.5649 H   0  0  0  0  0  0  0  0  0  0  0  0
   -5.8289   -0.7885    0.4489 H   0  0  0  0  0  0  0  0  0  0  0  0
    1.6845    2.8052   -2.1648 H   0  0  0  0  0  0  0  0  0  0  0  0
    1.0277    2.1319   -3.5987 H   0  0  0  0  0  0  0  0  0  0  0  0
    2.3823    3.9006    0.4990 H   0  0  0  0  0  0  0  0  0  0  0  0
   -3.4519    2.3737   -1.1486 H   0  0  0  0  0  0  0  0  0  0  0  0
   -0.9836    6.8447   -1.4359 H   0  0  0  0  0  0  0  0  0  0  0  0
    0.5691    7.2779   -0.6807 H   0  0  0  0  0  0  0  0  0  0  0  0
   -1.4959   -2.0691    1.4719 H   0  0  0  0  0  0  0  0  0  0  0  0
   -0.0042    1.0258   -0.6008 H   0  0  0  0  0  0  0  0  0  0  0  0
    4.2155    0.3101    2.9744 H   0  0  0  0  0  0  0  0  0  0  0  0
   -4.0974    0.5065   -3.0922 H   0  0  0  0  0  0  0  0  0  0  0  0
   -0.4818   -1.1599   -1.2322 H   0  0  0  0  0  0  0  0  0  0  0  0
  1 64  1  0  0  0  0
  1 65  1  0  0  0  0
  1 66  1  0  0  0  0
  2 67  1  0  0  0  0
  2 68  1  0  0  0  0
  2 69  1  0  0  0  0
  3 70  1  0  0  0  0
  3 71  1  0  0  0  0
  3 72  1  0  0  0  0
  4 73  1  0  0  0  0
  4 74  1  0  0  0  0
  5  4  1  0  0  0  0
  5 75  1  0  0  0  0
  5 76  1  0  0  0  0
  6 77  1  0  0  0  0
  6 78  1  0  0  0  0
  7  6  1  0  0  0  0
  7 79  1  0  0  0  0
  7 80  1  0  0  0  0
  8 81  1  0  0  0  0
  8 82  1  0  0  0  0
  9 83  1  0  0  0  0
  9 84  1  0  0  0  0
 10 85  1  0  0  0  0
 10 86  1  0  0  0  0
 11 87  1  0  0  0  0
 11 88  1  0  0  0  0
 12 89  1  0  0  0  0
 13 90  1  0  0  0  0
 14 59  1  6  0  0  0
 14 10  1  0  0  0  0
 15  4  1  0  0  0  0
 16  8  1  0  0  0  0
 17  9  1  0  0  0  0
 19 39  1  0  0  0  0
 19 60  1  1  0  0  0
 20 14  1  0  0  0  0
 20 19  1  0  0  0  0
 20 53  1  0  0  0  0
 20 61  1  1  0  0  0
 21 40  1  0  0  0  0
 21 62  1  1  0  0  0
 21 26  1  0  0  0  0
 21 24  1  0  0  0  0
 22 18  2  0  0  0  0
 23 18  1  0  0  0  0
 25 19  1  0  0  0  0
 25 34  1  0  0  0  0
 25 63  1  6  0  0  0
 26  1  1  0  0  0  0
 26  2  1  0  0  0  0
 26 11  1  0  0  0  0
 27  9  1  0  0  0  0
 27 42  1  1  0  0  0
 27  8  1  0  0  0  0
 27  3  1  0  0  0  0
 28 22  1  0  0  0  0
 28 91  1  0  0  0  0
 28 92  1  0  0  0  0
 29  6  1  0  0  0  0
 29 15  2  3  0  0  0
 30  5  1  0  0  0  0
 30 24  2  3  0  0  0
 31 12  2  0  0  0  0
 31 22  1  0  0  0  0
 32 12  1  0  0  0  0
 32 23  2  0  0  0  0
 33 13  2  0  0  0  0
 33 18  1  0  0  0  0
 34 13  1  0  0  0  0
 34 23  1  0  0  0  0
 35 15  1  0  0  0  0
 36 16  2  0  0  0  0
 37 16  1  0  0  0  0
 38 17  2  0  0  0  0
 39 93  1  0  0  0  0
 40 94  1  0  0  0  0
 41 24  1  0  0  0  0
 42 95  1  0  0  0  0
 46 96  1  0  0  0  0
 48 97  1  0  0  0  0
 50 10  1  0  0  0  0
 51 11  1  0  0  0  0
 52 14  1  0  0  0  0
 52 25  1  0  0  0  0
 55 43  1  0  0  0  0
 55 44  1  0  0  0  0
 55 45  2  0  0  0  0
 55 53  1  0  0  0  0
 56 46  1  0  0  0  0
 56 47  2  0  0  0  0
 56 50  1  0  0  0  0
 56 54  1  0  0  0  0
 57 48  1  0  0  0  0
 57 49  2  0  0  0  0
 57 51  1  0  0  0  0
 57 54  1  0  0  0  0
 58  7  1  0  0  0  0
 58 17  1  0  0  0  0
M  CHG  5  35  -1  37  -1  41  -1  43  -1  44  -1
M  END
>  <DRUGBANK_ID>
DB03169

>  <SECONDARY_ACCESSION_NUMBERS>
EXPT01758

>  <COMMON_NAME>
(S)-Hmg-Coa

$$$$
