
 OpenBabel10282417123D

 25 26  0  0  0  0  0  0  0  0999 V2000
    1.0231   -1.4170    0.0292 C   0  0  0  0  0  0  0  0  0  0  0  0
    2.2112   -0.6772   -0.0005 C   0  0  0  0  0  0  0  0  0  0  0  0
    2.1837    0.7157   -0.0155 C   0  0  0  0  0  0  0  0  0  0  0  0
    0.9738    1.4120    0.0040 C   0  0  0  0  0  0  0  0  0  0  0  0
   -0.2018    0.6560   -0.0173 C   0  0  0  0  0  0  0  0  0  0  0  0
   -1.5098    1.0676   -0.0564 N   0  0  0  0  0  0  0  0  0  0  0  0
   -2.3246   -0.0108   -0.2416 C   0  0  0  0  0  0  0  0  0  0  0  0
   -1.5813   -1.1611   -0.0649 C   0  0  0  0  0  0  0  0  0  0  0  0
   -0.2126   -0.7411   -0.0089 C   0  0  0  0  0  0  0  0  0  0  0  0
   -2.1225   -2.5562   -0.0157 C   0  0  0  0  0  0  0  0  0  0  0  0
   -3.0125   -2.8482    1.1974 C   0  0  0  0  0  0  0  0  0  0  0  0
   -4.2668   -2.0008    1.3065 C   0  0  0  0  0  0  0  0  0  0  0  0
   -5.4203   -2.6617    1.0698 O   0  0  0  0  0  0  0  0  0  0  0  0
   -4.2883   -0.8214    1.6319 O   0  0  0  0  0  0  0  0  0  0  0  0
    1.0593   -2.5014    0.0350 H   0  0  0  0  0  0  0  0  0  0  0  0
    3.1643   -1.1985   -0.0243 H   0  0  0  0  0  0  0  0  0  0  0  0
    3.1169    1.2720   -0.0510 H   0  0  0  0  0  0  0  0  0  0  0  0
    0.9499    2.4968   -0.0013 H   0  0  0  0  0  0  0  0  0  0  0  0
   -1.8230    2.0273   -0.0167 H   0  0  0  0  0  0  0  0  0  0  0  0
   -3.3857    0.1381   -0.3895 H   0  0  0  0  0  0  0  0  0  0  0  0
   -2.6597   -2.7671   -0.9479 H   0  0  0  0  0  0  0  0  0  0  0  0
   -1.2806   -3.2625    0.0138 H   0  0  0  0  0  0  0  0  0  0  0  0
   -3.2971   -3.9074    1.1767 H   0  0  0  0  0  0  0  0  0  0  0  0
   -2.4501   -2.7085    2.1280 H   0  0  0  0  0  0  0  0  0  0  0  0
   -5.3402   -3.6257    0.9664 H   0  0  0  0  0  0  0  0  0  0  0  0
  1  2  1  0  0  0  0
  1  9  2  0  0  0  0
  1 15  1  0  0  0  0
  2  3  2  0  0  0  0
  2 16  1  0  0  0  0
  3  4  1  0  0  0  0
  3 17  1  0  0  0  0
  4  5  2  0  0  0  0
  4 18  1  0  0  0  0
  5  6  1  0  0  0  0
  5  9  1  0  0  0  0
  6  7  1  0  0  0  0
  6 19  1  0  0  0  0
  7  8  2  0  0  0  0
  7 20  1  0  0  0  0
  8  9  1  0  0  0  0
  8 10  1  0  0  0  0
 10 11  1  0  0  0  0
 10 21  1  0  0  0  0
 10 22  1  0  0  0  0
 11 12  1  0  0  0  0
 11 23  1  0  0  0  0
 11 24  1  0  0  0  0
 12 13  1  0  0  0  0
 12 14  2  0  0  0  0
 13 25  1  0  0  0  0
M  END
>  <DRUGBANK_ID>
DB02758

>  <SECONDARY_ACCESSION_NUMBERS>
EXPT01908

>  <COMMON_NAME>
Indolepropionic acid

>  <CAS_NUMBER>
830-96-6

>  <UNII>
JF49U1Q7KN

>  <SYNONYMS>
1H-Indole-3-propionic acid; 3-(3-Indole)propionic acid; 3-(3-Indolyl)propanoic acid; 3-(3-Indolyl)propionic acid; 3-(Indol-3-yl)propionic acid; 3-indolepropionic acid; beta-Indolylpropionate; Indole-3-propionic acid; Indolylpropionic acid

$$$$
