
 OpenBabel10282417233D

 31 32  0  0  1  0  0  0  0  0999 V2000
    1.0041   -0.6776   -2.4156 C   0  0  0  0  0  0  0  0  0  0  0  0
    0.4474    0.2694   -1.3395 C   0  0  2  0  0  0  0  0  0  0  0  0
    0.9245    0.0482    0.1018 C   0  0  0  0  0  0  0  0  0  0  0  0
    1.6896   -1.0295    0.3593 O   0  0  0  0  0  0  0  0  0  0  0  0
    0.6284    0.8186    1.0158 O   0  0  0  0  0  0  0  0  0  0  0  0
   -1.0730    0.3131   -1.3847 C   0  0  0  0  0  0  0  0  0  0  0  0
   -1.8024   -0.8833   -1.3513 C   0  0  0  0  0  0  0  0  0  0  0  0
   -3.1873   -0.8706   -1.3639 C   0  0  0  0  0  0  0  0  0  0  0  0
   -3.8274   -2.0497   -1.3467 F   0  0  0  0  0  0  0  0  0  0  0  0
   -3.8999    0.3276   -1.3805 C   0  0  0  0  0  0  0  0  0  0  0  0
   -3.1746    1.5319   -1.3919 C   0  0  0  0  0  0  0  0  0  0  0  0
   -1.7749    1.5278   -1.3927 C   0  0  0  0  0  0  0  0  0  0  0  0
   -5.3591    0.3314   -1.3185 C   0  0  0  0  0  0  0  0  0  0  0  0
   -6.0191   -0.2748   -0.2377 C   0  0  0  0  0  0  0  0  0  0  0  0
   -7.4051   -0.2126   -0.1250 C   0  0  0  0  0  0  0  0  0  0  0  0
   -8.1457    0.4713   -1.0855 C   0  0  0  0  0  0  0  0  0  0  0  0
   -7.5042    1.0797   -2.1635 C   0  0  0  0  0  0  0  0  0  0  0  0
   -6.1217    0.9742   -2.3020 C   0  0  0  0  0  0  0  0  0  0  0  0
    1.9463   -1.1501   -2.1395 H   0  0  0  0  0  0  0  0  0  0  0  0
    1.2023   -0.1192   -3.3367 H   0  0  0  0  0  0  0  0  0  0  0  0
    0.3108   -1.4777   -2.6947 H   0  0  0  0  0  0  0  0  0  0  0  0
    0.8313    1.2665   -1.6042 H   0  0  0  0  0  0  0  0  0  0  0  0
    1.8811   -1.6525   -0.3613 H   0  0  0  0  0  0  0  0  0  0  0  0
   -1.3132   -1.8503   -1.3073 H   0  0  0  0  0  0  0  0  0  0  0  0
   -3.7042    2.4842   -1.3649 H   0  0  0  0  0  0  0  0  0  0  0  0
   -1.2492    2.4817   -1.3700 H   0  0  0  0  0  0  0  0  0  0  0  0
   -5.4457   -0.7930    0.5296 H   0  0  0  0  0  0  0  0  0  0  0  0
   -7.8980   -0.6814    0.7218 H   0  0  0  0  0  0  0  0  0  0  0  0
   -9.2262    0.5277   -0.9956 H   0  0  0  0  0  0  0  0  0  0  0  0
   -8.0777    1.6455   -2.8919 H   0  0  0  0  0  0  0  0  0  0  0  0
   -5.6371    1.3975   -3.1796 H   0  0  0  0  0  0  0  0  0  0  0  0
  1 19  1  0  0  0  0
  1 20  1  0  0  0  0
  1 21  1  0  0  0  0
  2  6  1  0  0  0  0
  2 22  1  6  0  0  0
  2  3  1  0  0  0  0
  2  1  1  0  0  0  0
  3  4  1  0  0  0  0
  3  5  2  0  0  0  0
  4 23  1  0  0  0  0
  6  7  2  0  0  0  0
  6 12  1  0  0  0  0
  7  8  1  0  0  0  0
  7 24  1  0  0  0  0
  8  9  1  0  0  0  0
  8 10  2  0  0  0  0
 10 11  1  0  0  0  0
 10 13  1  0  0  0  0
 11 12  2  0  0  0  0
 11 25  1  0  0  0  0
 12 26  1  0  0  0  0
 13 14  2  0  0  0  0
 13 18  1  0  0  0  0
 14 15  1  0  0  0  0
 14 27  1  0  0  0  0
 15 16  2  0  0  0  0
 15 28  1  0  0  0  0
 16 17  1  0  0  0  0
 16 29  1  0  0  0  0
 17 18  2  0  0  0  0
 17 30  1  0  0  0  0
 18 31  1  0  0  0  0
M  END
>  <DRUGBANK_ID>
DB16159

>  <COMMON_NAME>
Esflurbiprofen

>  <CAS_NUMBER>
51543-39-6

>  <UNII>
J5ZZK9P7MX

>  <SYNONYMS>
Esflurbiprofen; Flurbiprofen, (s)-

$$$$
