
 OpenBabel10282417243D

 77 76  0  0  0  0  0  0  0  0999 V2000
    0.9721    0.1809   -0.0731 C   0  0  0  0  0  0  0  0  0  0  0  0
    0.5270   -0.9295   -1.0111 C   0  0  0  0  0  0  0  0  0  0  0  0
    1.0217   -2.2862   -0.5070 C   0  0  0  0  0  0  0  0  0  0  0  0
    0.4632   -2.6012    0.8843 C   0  0  0  0  0  0  0  0  0  0  0  0
   -1.0702   -2.6006    0.8656 C   0  0  0  0  0  0  0  0  0  0  0  0
   -1.5992   -3.6737   -0.0939 C   0  0  0  0  0  0  0  0  0  0  0  0
   -1.1192   -5.0541    0.3442 C   0  0  0  0  0  0  0  0  0  0  0  0
   -1.5365   -5.3150    1.7804 C   0  0  0  0  0  0  0  0  0  0  0  0
   -3.0164   -5.3424    1.8161 C   0  0  0  0  0  0  0  0  0  0  0  0
   -3.6921   -6.4884    2.0866 C   0  0  0  0  0  0  0  0  0  0  0  0
   -3.0065   -7.7010    2.5900 C   0  0  0  0  0  0  0  0  0  0  0  0
   -3.4462   -7.8435    4.0418 C   0  0  0  0  0  0  0  0  0  0  0  0
   -4.9903   -7.9547    4.0923 C   0  0  0  0  0  0  0  0  0  0  0  0
   -5.4628   -9.0331    3.1501 C   0  0  0  0  0  0  0  0  0  0  0  0
   -4.6993  -10.1858    3.6364 C   0  0  0  0  0  0  0  0  0  0  0  0
   -5.1731  -10.4884    5.2907 C   0  0  0  0  0  0  0  0  0  0  0  0
   -6.5252  -11.2343    5.2702 C   0  0  0  0  0  0  0  0  0  0  0  0
   -6.7514  -12.4610    4.2998 C   0  0  0  0  0  0  0  0  0  0  0  0
   -6.0074  -13.6887    4.5604 O   0  0  0  0  0  0  0  0  0  0  0  0
   -4.3066  -13.3888    4.4607 P   0  0  3  0  0  0  0  0  0  0  0  0
   -4.5677  -13.5861    3.0123 O   0  5  0  0  0  0  0  0  0  0  0  0
   -4.1136  -11.9771    4.4649 O   0  0  0  0  0  0  0  0  0  0  0  0
   -2.6057  -13.0888    4.3609 O   0  0  0  0  0  0  0  0  0  0  0  0
   -2.1013  -13.5165    3.0622 C   0  0  0  0  0  0  0  0  0  0  0  0
   -2.2617  -15.0711    2.6627 C   0  0  0  0  0  0  0  0  0  0  0  0
   -3.6751  -15.7401    2.6268 N   0  3  0  0  0  0  0  0  0  0  0  0
   -4.5476  -14.8975    1.3633 C   0  0  0  0  0  0  0  0  0  0  0  0
   -3.9628  -17.1290    2.2597 C   0  0  0  0  0  0  0  0  0  0  0  0
   -4.1550  -15.8465    4.1210 C   0  0  0  0  0  0  0  0  0  0  0  0
    0.5753    0.0501    0.9391 H   0  0  0  0  0  0  0  0  0  0  0  0
    0.6191    1.1505   -0.4258 H   0  0  0  0  0  0  0  0  0  0  0  0
    2.0638    0.1940   -0.0066 H   0  0  0  0  0  0  0  0  0  0  0  0
   -0.5653   -0.9158   -1.1061 H   0  0  0  0  0  0  0  0  0  0  0  0
    0.9084   -0.7511   -2.0200 H   0  0  0  0  0  0  0  0  0  0  0  0
    0.7390   -3.0668   -1.2240 H   0  0  0  0  0  0  0  0  0  0  0  0
    2.1153   -2.3062   -0.4772 H   0  0  0  0  0  0  0  0  0  0  0  0
    0.8650   -3.5596    1.2320 H   0  0  0  0  0  0  0  0  0  0  0  0
    0.8214   -1.8866    1.6303 H   0  0  0  0  0  0  0  0  0  0  0  0
   -1.4456   -2.7381    1.8848 H   0  0  0  0  0  0  0  0  0  0  0  0
   -1.4797   -1.6280    0.5846 H   0  0  0  0  0  0  0  0  0  0  0  0
   -2.6921   -3.6270   -0.1305 H   0  0  0  0  0  0  0  0  0  0  0  0
   -1.2881   -3.4942   -1.1259 H   0  0  0  0  0  0  0  0  0  0  0  0
   -1.5139   -5.8269   -0.3278 H   0  0  0  0  0  0  0  0  0  0  0  0
   -0.0307   -5.1473    0.2747 H   0  0  0  0  0  0  0  0  0  0  0  0
   -1.0275   -6.2249    2.0838 H   0  0  0  0  0  0  0  0  0  0  0  0
   -1.1834   -4.5840    2.5101 H   0  0  0  0  0  0  0  0  0  0  0  0
   -3.6101   -4.4770    1.5724 H   0  0  0  0  0  0  0  0  0  0  0  0
   -4.7688   -6.4531    2.0256 H   0  0  0  0  0  0  0  0  0  0  0  0
   -3.2517   -8.5368    1.9249 H   0  0  0  0  0  0  0  0  0  0  0  0
   -1.9206   -7.7080    2.5812 H   0  0  0  0  0  0  0  0  0  0  0  0
   -2.9030   -8.6991    4.4761 H   0  0  0  0  0  0  0  0  0  0  0  0
   -3.1193   -7.0139    4.6711 H   0  0  0  0  0  0  0  0  0  0  0  0
   -5.2945   -8.1504    5.1144 H   0  0  0  0  0  0  0  0  0  0  0  0
   -5.5154   -7.0388    3.8588 H   0  0  0  0  0  0  0  0  0  0  0  0
   -6.5149   -9.3043    3.2082 H   0  0  0  0  0  0  0  0  0  0  0  0
   -5.2492   -8.8766    2.0849 H   0  0  0  0  0  0  0  0  0  0  0  0
   -4.9248  -10.9577    2.8749 H   0  0  0  0  0  0  0  0  0  0  0  0
   -3.5905  -10.1352    3.5172 H   0  0  0  0  0  0  0  0  0  0  0  0
   -4.4843  -11.1100    5.9343 H   0  0  0  0  0  0  0  0  0  0  0  0
   -5.0161   -9.6553    5.9698 H   0  0  0  0  0  0  0  0  0  0  0  0
   -6.7309  -11.5748    6.2868 H   0  0  0  0  0  0  0  0  0  0  0  0
   -7.2460  -10.4629    4.9999 H   0  0  0  0  0  0  0  0  0  0  0  0
   -7.8087  -12.7392    4.3670 H   0  0  0  0  0  0  0  0  0  0  0  0
   -6.6039  -12.1851    3.2486 H   0  0  0  0  0  0  0  0  0  0  0  0
   -2.5050  -12.8467    2.2892 H   0  0  0  0  0  0  0  0  0  0  0  0
   -1.0281  -13.2900    3.0770 H   0  0  0  0  0  0  0  0  0  0  0  0
   -1.8468  -15.2217    1.6639 H   0  0  0  0  0  0  0  0  0  0  0  0
   -1.6917  -15.6495    3.3938 H   0  0  0  0  0  0  0  0  0  0  0  0
   -4.2424  -15.3508    0.4218 H   0  0  0  0  0  0  0  0  0  0  0  0
   -5.6252  -14.9870    1.5671 H   0  0  0  0  0  0  0  0  0  0  0  0
   -4.2246  -13.8454    1.1846 H   0  0  0  0  0  0  0  0  0  0  0  0
   -3.4786  -17.7822    2.9846 H   0  0  0  0  0  0  0  0  0  0  0  0
   -5.0602  -17.2252    2.3573 H   0  0  0  0  0  0  0  0  0  0  0  0
   -3.6461  -17.2996    1.2435 H   0  0  0  0  0  0  0  0  0  0  0  0
   -3.9332  -16.7753    4.6593 H   0  0  0  0  0  0  0  0  0  0  0  0
   -3.4612  -15.2617    4.7254 H   0  0  0  0  0  0  0  0  0  0  0  0
   -5.2321  -15.6850    4.1840 H   0  0  0  0  0  0  0  0  0  0  0  0
  1  2  1  0  0  0  0
  1 30  1  0  0  0  0
  1 31  1  0  0  0  0
  1 32  1  0  0  0  0
  2  3  1  0  0  0  0
  2 33  1  0  0  0  0
  2 34  1  0  0  0  0
  3  4  1  0  0  0  0
  3 35  1  0  0  0  0
  3 36  1  0  0  0  0
  4  5  1  0  0  0  0
  4 37  1  0  0  0  0
  4 38  1  0  0  0  0
  5  6  1  0  0  0  0
  5 39  1  0  0  0  0
  5 40  1  0  0  0  0
  6  7  1  0  0  0  0
  6 41  1  0  0  0  0
  6 42  1  0  0  0  0
  7  8  1  0  0  0  0
  7 43  1  0  0  0  0
  7 44  1  0  0  0  0
  8  9  1  0  0  0  0
  8 45  1  0  0  0  0
  8 46  1  0  0  0  0
  9 10  2  0  0  0  0
  9 47  1  0  0  0  0
 10 11  1  0  0  0  0
 10 48  1  0  0  0  0
 11 12  1  0  0  0  0
 11 49  1  0  0  0  0
 11 50  1  0  0  0  0
 12 13  1  0  0  0  0
 12 51  1  0  0  0  0
 12 52  1  0  0  0  0
 13 14  1  0  0  0  0
 13 53  1  0  0  0  0
 13 54  1  0  0  0  0
 14 15  1  0  0  0  0
 14 55  1  0  0  0  0
 14 56  1  0  0  0  0
 15 16  1  0  0  0  0
 15 57  1  0  0  0  0
 15 58  1  0  0  0  0
 16 17  1  0  0  0  0
 16 59  1  0  0  0  0
 16 60  1  0  0  0  0
 17 18  1  0  0  0  0
 17 61  1  0  0  0  0
 17 62  1  0  0  0  0
 18 19  1  0  0  0  0
 18 63  1  0  0  0  0
 18 64  1  0  0  0  0
 19 20  1  0  0  0  0
 20 21  1  0  0  0  0
 20 22  2  0  0  0  0
 20 23  1  0  0  0  0
 23 24  1  0  0  0  0
 24 25  1  0  0  0  0
 24 65  1  0  0  0  0
 24 66  1  0  0  0  0
 25 26  1  0  0  0  0
 25 67  1  0  0  0  0
 25 68  1  0  0  0  0
 26 27  1  0  0  0  0
 26 28  1  0  0  0  0
 26 29  1  0  0  0  0
 27 69  1  0  0  0  0
 27 70  1  0  0  0  0
 27 71  1  0  0  0  0
 28 72  1  0  0  0  0
 28 73  1  0  0  0  0
 28 74  1  0  0  0  0
 29 75  1  0  0  0  0
 29 76  1  0  0  0  0
 29 77  1  0  0  0  0
M  CHG  2  21  -1  26   1
M  END
>  <DRUGBANK_ID>
DB17750

>  <COMMON_NAME>
Oleylphosphocholine

>  <CAS_NUMBER>
76622-80-5

>  <UNII>
Z46GXL23LX

>  <SYNONYMS>
Cis-9-octadecenylphosphocholine; Ethanaminium, 2-((hydroxy((9z)-9-octadecen-1-yloxy)phosphinyl)oxy)-n,n,n-trimethyl-, inner salt; Ethanaminium, 2-((hydroxy(9-octadecenyloxy)phosphinyl)oxy)-n,n,n-trimethyl-, inner salt, (z)-; Oleyl phosphocholine

$$$$
