PBB
 OpenBabel10282417173D

 27 27  0  0  0  0  0  0  0  0999 V2000
    1.0337    0.1560   -0.0056 C   0  0  1  0  0  0  0  0  0  0  0  0
    0.7067    0.0108   -1.5073 C   0  0  0  0  0  0  0  0  0  0  0  0
    1.3965   -0.5459   -2.3529 O   0  0  0  0  0  0  0  0  0  0  0  0
   -0.4941    0.5239   -1.8675 O   0  0  0  0  0  0  0  0  0  0  0  0
    0.5154    1.4728    0.4598 N   0  0  0  0  0  0  0  0  0  0  0  0
    0.5351   -0.9481    0.9572 C   0  0  0  0  0  0  0  0  0  0  0  0
    1.1545   -2.6549    0.6895 S   0  0  0  0  0  0  0  0  0  0  0  0
   -5.7784   -3.1396   -0.9226 Br  0  0  0  0  0  0  0  0  0  0  0  0
   -1.0802   -3.1290   -0.9512 C   0  0  0  0  0  0  0  0  0  0  0  0
   -1.7765   -4.3315   -1.0122 C   0  0  0  0  0  0  0  0  0  0  0  0
   -3.1767   -4.3364   -1.0089 C   0  0  0  0  0  0  0  0  0  0  0  0
   -3.8953   -3.1404   -0.9884 C   0  0  0  0  0  0  0  0  0  0  0  0
   -3.2286   -1.9354   -0.9651 C   0  0  0  0  0  0  0  0  0  0  0  0
   -1.8434   -1.9560   -0.9182 C   0  0  0  0  0  0  0  0  0  0  0  0
    0.4267   -3.1254   -0.9111 C   0  0  0  0  0  0  0  0  0  0  0  0
    2.1247    0.1969    0.0615 H   0  0  0  0  0  0  0  0  0  0  0  0
   -0.7120    0.0841   -2.7216 H   0  0  0  0  0  0  0  0  0  0  0  0
   -0.5040    1.4666    0.3697 H   0  0  0  0  0  0  0  0  0  0  0  0
    0.8201    2.1759   -0.2169 H   0  0  0  0  0  0  0  0  0  0  0  0
    0.8900   -0.6912    1.9659 H   0  0  0  0  0  0  0  0  0  0  0  0
   -0.5524   -0.9635    1.0846 H   0  0  0  0  0  0  0  0  0  0  0  0
   -1.2322   -5.2728   -1.0290 H   0  0  0  0  0  0  0  0  0  0  0  0
   -3.6980   -5.2865   -1.0011 H   0  0  0  0  0  0  0  0  0  0  0  0
   -3.7453   -0.9792   -0.9325 H   0  0  0  0  0  0  0  0  0  0  0  0
   -1.3945   -0.9982   -0.7722 H   0  0  0  0  0  0  0  0  0  0  0  0
    0.8322   -2.5395   -1.7291 H   0  0  0  0  0  0  0  0  0  0  0  0
    0.8065   -4.1301   -1.1351 H   0  0  0  0  0  0  0  0  0  0  0  0
  1  6  1  0  0  0  0
  1 16  1  1  0  0  0
  1  5  1  0  0  0  0
  1  2  1  0  0  0  0
  2  3  2  0  0  0  0
  2  4  1  0  0  0  0
  4 17  1  0  0  0  0
  5 18  1  0  0  0  0
  5 19  1  0  0  0  0
  6  7  1  0  0  0  0
  6 20  1  0  0  0  0
  6 21  1  0  0  0  0
  7 15  1  0  0  0  0
  8 12  1  0  0  0  0
  9 10  2  0  0  0  0
  9 14  1  0  0  0  0
  9 15  1  0  0  0  0
 10 11  1  0  0  0  0
 10 22  1  0  0  0  0
 11 12  2  0  0  0  0
 11 23  1  0  0  0  0
 12 13  1  0  0  0  0
 13 14  2  0  0  0  0
 13 24  1  0  0  0  0
 14 25  1  0  0  0  0
 15 26  1  0  0  0  0
 15 27  1  0  0  0  0
M  END
>  <DRUGBANK_ID>
DB08370

>  <COMMON_NAME>
S-(4-BROMOBENZYL)CYSTEINE

$$$$
