DZ3
 OpenBabel10282417163D

 34 35  0  0  0  0  0  0  0  0999 V2000
   -2.5127    0.6571    0.1354 C   0  0  0  0  0  0  0  0  0  0  0  0
   -1.1438    0.0495    0.1444 C   0  0  0  0  0  0  0  0  0  0  0  0
   -1.0219   -1.3252    0.3332 C   0  0  0  0  0  0  0  0  0  0  0  0
    0.0232    0.7740    0.0004 C   0  0  0  0  0  0  0  0  0  0  0  0
   -0.0094    2.1377   -0.0631 O   0  0  0  0  0  0  0  0  0  0  0  0
    1.2651    0.1205   -0.0210 C   0  0  0  0  0  0  0  0  0  0  0  0
    2.5208    0.9381   -0.0430 C   0  0  0  0  0  0  0  0  0  0  0  0
    1.3225   -1.2937   -0.0106 C   0  0  0  0  0  0  0  0  0  0  0  0
    0.1486   -2.0436    0.0993 C   0  0  0  0  0  0  0  0  0  0  0  0
    0.1633   -3.5541    0.0125 C   0  0  0  0  0  0  0  0  0  0  0  0
    1.2397   -4.1402    0.0507 O   0  0  0  0  0  0  0  0  0  0  0  0
   -1.0097   -4.3204   -0.0468 N   0  0  0  0  0  0  0  0  0  0  0  0
   -2.3481   -3.9228   -0.2487 C   0  0  0  0  0  0  0  0  0  0  0  0
   -2.6848   -2.9983   -1.2486 C   0  0  0  0  0  0  0  0  0  0  0  0
   -3.9468   -2.3963   -1.2590 C   0  0  0  0  0  0  0  0  0  0  0  0
   -4.2826   -0.9978   -2.5012 Br  0  0  0  0  0  0  0  0  0  0  0  0
   -4.9045   -2.7536   -0.3094 C   0  0  0  0  0  0  0  0  0  0  0  0
   -6.1185   -2.1195   -0.2669 O   0  0  0  0  0  0  0  0  0  0  0  0
   -4.6063   -3.7558    0.6211 C   0  0  0  0  0  0  0  0  0  0  0  0
   -5.9045   -4.3219    1.8865 Br  0  0  0  0  0  0  0  0  0  0  0  0
   -3.3323   -4.3488    0.6521 C   0  0  0  0  0  0  0  0  0  0  0  0
   -2.6570    1.2864    1.0124 H   0  0  0  0  0  0  0  0  0  0  0  0
   -2.6674    1.2377   -0.7819 H   0  0  0  0  0  0  0  0  0  0  0  0
   -3.2910   -0.1095    0.1638 H   0  0  0  0  0  0  0  0  0  0  0  0
   -1.9099   -1.8303    0.6709 H   0  0  0  0  0  0  0  0  0  0  0  0
   -0.9309    2.4366    0.0028 H   0  0  0  0  0  0  0  0  0  0  0  0
    2.5469    1.5539   -0.9465 H   0  0  0  0  0  0  0  0  0  0  0  0
    2.5534    1.5856    0.8408 H   0  0  0  0  0  0  0  0  0  0  0  0
    3.4109    0.3042   -0.0281 H   0  0  0  0  0  0  0  0  0  0  0  0
    2.2882   -1.7971   -0.0491 H   0  0  0  0  0  0  0  0  0  0  0  0
   -0.8425   -5.2937    0.1918 H   0  0  0  0  0  0  0  0  0  0  0  0
   -1.9172   -2.6487   -1.9361 H   0  0  0  0  0  0  0  0  0  0  0  0
   -6.1479   -1.4632   -0.9873 H   0  0  0  0  0  0  0  0  0  0  0  0
   -3.0917   -5.0563    1.4435 H   0  0  0  0  0  0  0  0  0  0  0  0
  1  2  1  0  0  0  0
  1 22  1  0  0  0  0
  1 23  1  0  0  0  0
  1 24  1  0  0  0  0
  2  3  2  0  0  0  0
  2  4  1  0  0  0  0
  3  9  1  0  0  0  0
  3 25  1  0  0  0  0
  4  5  1  0  0  0  0
  4  6  2  0  0  0  0
  5 26  1  0  0  0  0
  6  7  1  0  0  0  0
  6  8  1  0  0  0  0
  7 27  1  0  0  0  0
  7 28  1  0  0  0  0
  7 29  1  0  0  0  0
  8  9  2  0  0  0  0
  8 30  1  0  0  0  0
  9 10  1  0  0  0  0
 10 11  2  0  0  0  0
 10 12  1  0  0  0  0
 12 13  1  0  0  0  0
 12 31  1  0  0  0  0
 13 14  2  0  0  0  0
 13 21  1  0  0  0  0
 14 15  1  0  0  0  0
 14 32  1  0  0  0  0
 15 16  1  0  0  0  0
 15 17  2  0  0  0  0
 17 18  1  0  0  0  0
 17 19  1  0  0  0  0
 18 33  1  0  0  0  0
 19 20  1  0  0  0  0
 19 21  2  0  0  0  0
 21 34  1  0  0  0  0
M  END
>  <DRUGBANK_ID>
DB07695

>  <COMMON_NAME>
N-(3,5-dibromo-4-hydroxyphenyl)-4-hydroxy-3,5-dimethylbenzamide

>  <UNII>
QS55UAN7H7

$$$$
