
 OpenBabel10282417223D

 72 74  0  0  1  0  0  0  0  0999 V2000
    0.7720    0.2884    0.1321 C   0  0  0  0  0  0  0  0  0  0  0  0
    0.1144   -0.8513    0.8836 C   0  0  0  0  0  0  0  0  0  0  0  0
    0.5574   -0.7262    2.2976 C   0  0  0  0  0  0  0  0  0  0  0  0
   -1.3082   -1.2530    0.7401 C   0  0  1  0  0  0  0  0  0  0  0  0
   -1.7426   -1.2178   -0.8710 C   0  0  0  0  0  0  0  0  0  0  0  0
   -0.9409   -2.2361   -2.4172 S   0  0  0  0  0  0  0  0  0  0  0  0
   -1.6323   -3.4854   -2.7561 O   0  0  0  0  0  0  0  0  0  0  0  0
   -1.0455   -1.3524   -3.5708 O   0  0  0  0  0  0  0  0  0  0  0  0
    0.8900   -2.6010   -2.1708 C   0  0  0  0  0  0  0  0  0  0  0  0
    1.5651   -1.4197   -2.7693 C   0  0  0  0  0  0  0  0  0  0  0  0
    1.6456   -2.7138   -0.8902 C   0  0  0  0  0  0  0  0  0  0  0  0
   -1.6163   -2.5458    1.6996 N   0  0  0  0  0  0  0  0  0  0  0  0
   -0.6164   -3.8398    2.2076 C   0  0  1  0  0  0  0  0  0  0  0  0
   -1.2492   -5.1744    1.7057 C   0  0  2  0  0  0  0  0  0  0  0  0
   -2.7806   -5.2684    1.7176 C   0  0  0  0  0  0  0  0  0  0  0  0
   -3.4878   -4.0640    1.1062 C   0  0  2  0  0  0  0  0  0  0  0  0
   -5.0015   -4.2155    1.2999 C   0  0  0  0  0  0  0  0  0  0  0  0
   -3.2560   -4.0538   -0.4208 C   0  0  0  0  0  0  0  0  0  0  0  0
   -1.7953   -4.2320   -0.6662 C   0  0  0  0  0  0  0  0  0  0  0  0
   -1.3665   -5.3641   -1.2571 O   0  0  0  0  0  0  0  0  0  0  0  0
   -0.9719   -3.4732   -0.3062 O   0  0  0  0  0  0  0  0  0  0  0  0
   -3.0004   -2.7685    1.8011 C   0  0  0  0  0  0  0  0  0  0  0  0
   -3.7724   -1.9214    2.2468 O   0  0  0  0  0  0  0  0  0  0  0  0
   -0.6781   -6.5250    1.9304 C   0  0  0  0  0  0  0  0  0  0  0  0
   -0.4679   -6.9125    3.2198 C   0  0  0  0  0  0  0  0  0  0  0  0
   -0.1890   -8.2403    3.4146 C   0  0  0  0  0  0  0  0  0  0  0  0
   -0.0354   -9.1265    2.3279 C   0  0  0  0  0  0  0  0  0  0  0  0
   -0.1000   -8.6898    1.0176 C   0  0  0  0  0  0  0  0  0  0  0  0
    0.1271   -9.7281   -0.3294 Cl  0  0  0  0  0  0  0  0  0  0  0  0
   -0.4276   -7.3826    0.8145 C   0  0  0  0  0  0  0  0  0  0  0  0
    1.0009   -3.9309    2.0227 C   0  0  0  0  0  0  0  0  0  0  0  0
    1.8956   -3.1010    2.6954 C   0  0  0  0  0  0  0  0  0  0  0  0
    3.1627   -2.7842    2.1488 C   0  0  0  0  0  0  0  0  0  0  0  0
    3.7467   -3.5884    1.1912 C   0  0  0  0  0  0  0  0  0  0  0  0
    5.2019   -3.0836    0.4204 Cl  0  0  0  0  0  0  0  0  0  0  0  0
    3.0299   -4.6804    0.7374 C   0  0  0  0  0  0  0  0  0  0  0  0
    1.6706   -4.8218    1.1279 C   0  0  0  0  0  0  0  0  0  0  0  0
    0.6389    1.2179    0.6785 H   0  0  0  0  0  0  0  0  0  0  0  0
    0.3979    0.4458   -0.8699 H   0  0  0  0  0  0  0  0  0  0  0  0
    1.8604    0.1201    0.0611 H   0  0  0  0  0  0  0  0  0  0  0  0
    0.4430   -1.7801    0.5149 H   0  0  0  0  0  0  0  0  0  0  0  0
    0.2252    0.1540    2.8219 H   0  0  0  0  0  0  0  0  0  0  0  0
    0.1370   -1.5489    2.8592 H   0  0  0  0  0  0  0  0  0  0  0  0
    1.6491   -0.7229    2.2852 H   0  0  0  0  0  0  0  0  0  0  0  0
   -1.8775   -0.4297    1.2164 H   0  0  0  0  0  0  0  0  0  0  0  0
   -2.8315   -1.2610   -0.9632 H   0  0  0  0  0  0  0  0  0  0  0  0
   -1.4677   -0.2191   -1.2306 H   0  0  0  0  0  0  0  0  0  0  0  0
    1.0906   -3.5787   -2.6352 H   0  0  0  0  0  0  0  0  0  0  0  0
    1.1752   -0.5507   -2.2507 H   0  0  0  0  0  0  0  0  0  0  0  0
    2.6436   -1.4271   -2.6196 H   0  0  0  0  0  0  0  0  0  0  0  0
    1.2904   -1.3483   -3.8085 H   0  0  0  0  0  0  0  0  0  0  0  0
    1.1159   -3.4272   -0.3178 H   0  0  0  0  0  0  0  0  0  0  0  0
    2.6671   -3.0419   -1.0817 H   0  0  0  0  0  0  0  0  0  0  0  0
    1.9106   -1.8502   -0.2832 H   0  0  0  0  0  0  0  0  0  0  0  0
   -0.7848   -3.8369    3.2900 H   0  0  0  0  0  0  0  0  0  0  0  0
   -0.8787   -5.1912    0.7271 H   0  0  0  0  0  0  0  0  0  0  0  0
   -3.1082   -6.1522    1.1441 H   0  0  0  0  0  0  0  0  0  0  0  0
   -3.1071   -5.4200    2.7486 H   0  0  0  0  0  0  0  0  0  0  0  0
   -5.5362   -3.2899    1.0583 H   0  0  0  0  0  0  0  0  0  0  0  0
   -5.3986   -5.0054    0.6519 H   0  0  0  0  0  0  0  0  0  0  0  0
   -5.2300   -4.4797    2.3356 H   0  0  0  0  0  0  0  0  0  0  0  0
   -3.7517   -4.8626   -0.9597 H   0  0  0  0  0  0  0  0  0  0  0  0
   -3.6090   -3.1230   -0.8705 H   0  0  0  0  0  0  0  0  0  0  0  0
   -1.6936   -5.3617   -2.1696 H   0  0  0  0  0  0  0  0  0  0  0  0
   -0.5907   -6.1903    4.0199 H   0  0  0  0  0  0  0  0  0  0  0  0
   -0.1382   -8.5882    4.4349 H   0  0  0  0  0  0  0  0  0  0  0  0
    0.1215  -10.1758    2.5199 H   0  0  0  0  0  0  0  0  0  0  0  0
   -0.4771   -7.0345   -0.2167 H   0  0  0  0  0  0  0  0  0  0  0  0
    1.5793   -2.5039    3.5407 H   0  0  0  0  0  0  0  0  0  0  0  0
    3.6053   -1.8106    2.3666 H   0  0  0  0  0  0  0  0  0  0  0  0
    3.3786   -5.2297   -0.1387 H   0  0  0  0  0  0  0  0  0  0  0  0
    1.1162   -5.4677    0.4519 H   0  0  0  0  0  0  0  0  0  0  0  0
  1  2  1  0  0  0  0
  1 38  1  0  0  0  0
  1 39  1  0  0  0  0
  1 40  1  0  0  0  0
  2  3  1  0  0  0  0
  2 41  1  0  0  0  0
  3 42  1  0  0  0  0
  3 43  1  0  0  0  0
  3 44  1  0  0  0  0
  4  2  1  0  0  0  0
  4  5  1  0  0  0  0
  4 12  1  0  0  0  0
  4 45  1  1  0  0  0
  5  6  1  0  0  0  0
  5 46  1  0  0  0  0
  5 47  1  0  0  0  0
  6  7  2  0  0  0  0
  6  8  2  0  0  0  0
  6  9  1  0  0  0  0
  9 10  1  0  0  0  0
  9 11  1  0  0  0  0
  9 48  1  0  0  0  0
 10 49  1  0  0  0  0
 10 50  1  0  0  0  0
 10 51  1  0  0  0  0
 11 52  1  0  0  0  0
 11 53  1  0  0  0  0
 11 54  1  0  0  0  0
 12 22  1  0  0  0  0
 13 12  1  0  0  0  0
 13 14  1  0  0  0  0
 13 31  1  0  0  0  0
 13 55  1  1  0  0  0
 14 15  1  0  0  0  0
 14 56  1  6  0  0  0
 14 24  1  0  0  0  0
 15 57  1  0  0  0  0
 15 58  1  0  0  0  0
 16 15  1  0  0  0  0
 16 22  1  0  0  0  0
 16 18  1  6  0  0  0
 16 17  1  0  0  0  0
 17 59  1  0  0  0  0
 17 60  1  0  0  0  0
 17 61  1  0  0  0  0
 18 19  1  0  0  0  0
 18 62  1  0  0  0  0
 18 63  1  0  0  0  0
 19 20  1  0  0  0  0
 19 21  2  0  0  0  0
 20 64  1  0  0  0  0
 22 23  2  0  0  0  0
 24 25  2  0  0  0  0
 24 30  1  0  0  0  0
 25 26  1  0  0  0  0
 25 65  1  0  0  0  0
 26 27  2  0  0  0  0
 26 66  1  0  0  0  0
 27 28  1  0  0  0  0
 27 67  1  0  0  0  0
 28 29  1  0  0  0  0
 28 30  2  0  0  0  0
 30 68  1  0  0  0  0
 31 32  2  0  0  0  0
 31 37  1  0  0  0  0
 32 33  1  0  0  0  0
 32 69  1  0  0  0  0
 33 34  2  0  0  0  0
 33 70  1  0  0  0  0
 34 35  1  0  0  0  0
 34 36  1  0  0  0  0
 36 37  2  0  0  0  0
 36 71  1  0  0  0  0
 37 72  1  0  0  0  0
M  END
>  <DRUGBANK_ID>
DB15299

>  <COMMON_NAME>
Navtemadlin

>  <CAS_NUMBER>
1352066-68-2

>  <UNII>
7R7G6EH5UL

>  <SYNONYMS>
{(3R,5R,6S)-5-(3-chlorophenyl)-6-(4-chlorophenyl)-3-methyl-1-[ (2S)-3 -methyl-1-(propan-2- ylsulfonyl)butan-2-yl]-2-oxopiperidin-3-yl}acetic acid

$$$$
