
 OpenBabel10282417163D

 29 30  0  0  0  0  0  0  0  0999 V2000
    2.4020   -0.1399    0.1957 C   0  0  0  0  0  0  0  0  0  0  0  0
    1.6993    1.0326    0.4136 C   0  0  0  0  0  0  0  0  0  0  0  0
    0.3393    1.1643    0.1552 C   0  0  0  0  0  0  0  0  0  0  0  0
   -0.3822   -0.0318    0.0087 C   0  0  0  0  0  0  0  0  0  0  0  0
    0.2874   -1.2750   -0.0300 C   0  0  0  0  0  0  0  0  0  0  0  0
    1.6880   -1.3100    0.0119 C   0  0  0  0  0  0  0  0  0  0  0  0
    2.4456   -2.5627   -0.0192 N   0  3  0  0  0  0  0  0  0  0  0  0
    1.7995   -3.6224   -0.0344 O   0  0  0  0  0  0  0  0  0  0  0  0
    3.6792   -2.4874   -0.0133 O   0  5  0  0  0  0  0  0  0  0  0  0
   -2.1077   -0.0303   -0.0725 Cl  0  0  0  0  0  0  0  0  0  0  0  0
   -0.2599    2.4506    0.0316 N   0  0  0  0  0  0  0  0  0  0  0  0
    0.3148    3.7193   -0.1123 C   0  0  0  0  0  0  0  0  0  0  0  0
   -0.3945    4.7243   -0.0607 O   0  0  0  0  0  0  0  0  0  0  0  0
    1.7853    3.9189   -0.2796 C   0  0  0  0  0  0  0  0  0  0  0  0
    2.5394    3.1891   -1.2169 C   0  0  0  0  0  0  0  0  0  0  0  0
    3.9287    3.0958   -1.0846 C   0  0  0  0  0  0  0  0  0  0  0  0
    4.5827    3.8500   -0.1090 C   0  0  0  0  0  0  0  0  0  0  0  0
    3.8470    4.6833    0.7360 C   0  0  0  0  0  0  0  0  0  0  0  0
    2.4511    4.7054    0.6767 C   0  0  0  0  0  0  0  0  0  0  0  0
    4.6795    5.6472    1.8939 Cl  0  0  0  0  0  0  0  0  0  0  0  0
    1.9075    2.4206   -2.1568 O   0  0  0  0  0  0  0  0  0  0  0  0
    3.4886   -0.1056    0.2214 H   0  0  0  0  0  0  0  0  0  0  0  0
    2.2856    1.8632    0.7686 H   0  0  0  0  0  0  0  0  0  0  0  0
   -0.2830   -2.1996   -0.0905 H   0  0  0  0  0  0  0  0  0  0  0  0
   -1.2753    2.4777   -0.0360 H   0  0  0  0  0  0  0  0  0  0  0  0
    4.5048    2.4033   -1.6931 H   0  0  0  0  0  0  0  0  0  0  0  0
    5.6646    3.7830   -0.0105 H   0  0  0  0  0  0  0  0  0  0  0  0
    1.8852    5.2871    1.4018 H   0  0  0  0  0  0  0  0  0  0  0  0
    2.4427    1.6277   -2.3336 H   0  0  0  0  0  0  0  0  0  0  0  0
  1  2  2  0  0  0  0
  1  6  1  0  0  0  0
  1 22  1  0  0  0  0
  2  3  1  0  0  0  0
  2 23  1  0  0  0  0
  3  4  2  0  0  0  0
  3 11  1  0  0  0  0
  4  5  1  0  0  0  0
  4 10  1  0  0  0  0
  5  6  2  0  0  0  0
  5 24  1  0  0  0  0
  6  7  1  0  0  0  0
  7  8  2  0  0  0  0
  7  9  1  0  0  0  0
 11 12  1  0  0  0  0
 11 25  1  0  0  0  0
 12 13  2  0  0  0  0
 12 14  1  0  0  0  0
 14 15  2  0  0  0  0
 14 19  1  0  0  0  0
 15 16  1  0  0  0  0
 15 21  1  0  0  0  0
 16 17  2  0  0  0  0
 16 26  1  0  0  0  0
 17 18  1  0  0  0  0
 17 27  1  0  0  0  0
 18 19  2  0  0  0  0
 18 20  1  0  0  0  0
 19 28  1  0  0  0  0
 21 29  1  0  0  0  0
M  CHG  2   7   1   9  -1
M  END
>  <DRUGBANK_ID>
DB06803

>  <COMMON_NAME>
Niclosamide

>  <CAS_NUMBER>
50-65-7

>  <UNII>
8KK8CQ2K8G

>  <SYNONYMS>
Niclosamide

$$$$
