
 OpenBabel10282417223D

 27 26  0  0  0  0  0  0  0  0999 V2000
    2.4481   -3.1777   -2.0788 O   0  0  0  0  0  0  0  0  0  0  0  0
    2.3130   -2.1443   -1.1795 C   0  0  0  0  0  0  0  0  0  0  0  0
    0.8106   -2.0280   -1.1929 C   0  0  2  0  0  0  0  0  0  0  0  0
    0.3718   -1.2939   -0.0715 O   0  0  0  0  0  0  0  0  0  0  0  0
    0.1597   -3.4335   -1.2029 C   0  0  0  0  0  0  0  0  0  0  0  0
   -1.2476   -3.3470   -1.1635 O   0  0  0  0  0  0  0  0  0  0  0  0
    2.9620   -4.6204   -1.6732 P   0  0  3  0  0  0  0  0  0  0  0  0
    3.0102   -4.8138   -3.2759 O   0  0  0  0  0  0  0  0  0  0  0  0
    4.1616   -4.6710   -0.8464 O   0  0  0  0  0  0  0  0  0  0  0  0
    2.0257   -5.9382   -1.5765 O   0  0  0  0  0  0  0  0  0  0  0  0
    2.9114   -7.1102   -1.6736 C   0  0  0  0  0  0  0  0  0  0  0  0
    3.5693   -7.3372   -3.0960 C   0  0  0  0  0  0  0  0  0  0  0  0
    4.5804   -6.4040   -3.6569 N   0  0  0  0  0  0  0  0  0  0  0  0
    2.7695   -2.3645   -0.2104 H   0  0  0  0  0  0  0  0  0  0  0  0
    2.8091   -1.2464   -1.5779 H   0  0  0  0  0  0  0  0  0  0  0  0
    0.5112   -1.5110   -2.1150 H   0  0  0  0  0  0  0  0  0  0  0  0
   -0.5869   -1.2085   -0.2021 H   0  0  0  0  0  0  0  0  0  0  0  0
    0.3952   -3.9874   -2.1212 H   0  0  0  0  0  0  0  0  0  0  0  0
    0.5165   -4.0202   -0.3451 H   0  0  0  0  0  0  0  0  0  0  0  0
   -1.4676   -3.1465   -0.2409 H   0  0  0  0  0  0  0  0  0  0  0  0
    2.1009   -4.9957   -3.5891 H   0  0  0  0  0  0  0  0  0  0  0  0
    3.6879   -7.0181   -0.9071 H   0  0  0  0  0  0  0  0  0  0  0  0
    2.3396   -8.0091   -1.4049 H   0  0  0  0  0  0  0  0  0  0  0  0
    4.1095   -8.2809   -3.0769 H   0  0  0  0  0  0  0  0  0  0  0  0
    2.7461   -7.4059   -3.8156 H   0  0  0  0  0  0  0  0  0  0  0  0
    4.3917   -6.2803   -4.6577 H   0  0  0  0  0  0  0  0  0  0  0  0
    4.3240   -5.4416   -3.3773 H   0  0  0  0  0  0  0  0  0  0  0  0
  1  2  1  0  0  0  0
  1  7  1  0  0  0  0
  2 14  1  0  0  0  0
  2 15  1  0  0  0  0
  3  5  1  0  0  0  0
  3 16  1  6  0  0  0
  3  4  1  0  0  0  0
  3  2  1  0  0  0  0
  4 17  1  0  0  0  0
  5  6  1  0  0  0  0
  5 18  1  0  0  0  0
  5 19  1  0  0  0  0
  6 20  1  0  0  0  0
  7  8  1  0  0  0  0
  7  9  2  0  0  0  0
  7 10  1  0  0  0  0
  8 21  1  0  0  0  0
 10 11  1  0  0  0  0
 11 12  1  0  0  0  0
 11 22  1  0  0  0  0
 11 23  1  0  0  0  0
 12 13  1  0  0  0  0
 12 24  1  0  0  0  0
 12 25  1  0  0  0  0
 13 26  1  0  0  0  0
 13 27  1  0  0  0  0
M  END
>  <DRUGBANK_ID>
DB15872

>  <COMMON_NAME>
L-alpha-Glycerophosphorylethanolamine

>  <CAS_NUMBER>
33049-08-0

>  <UNII>
O35QN01X8F

>  <SYNONYMS>
Ethanolamine glycerophosphate anhydrous; L-alpha-Glycerophosphorylethanolamine

$$$$
