
 OpenBabel10282417133D

 15 14  0  0  1  0  0  0  0  0999 V2000
    1.0779   -0.0625    0.0055 N   0  0  0  0  0  0  0  0  0  0  0  0
    0.5879   -0.7311   -1.2085 C   0  0  1  0  0  0  0  0  0  0  0  0
    1.0946   -2.1639   -1.2373 C   0  0  0  0  0  0  0  0  0  0  0  0
    0.4912   -3.0467    0.2231 S   0  0  0  0  0  0  0  0  0  0  0  0
    1.2412   -2.0233    2.0812 Se  0  0  0  0  0  0  0  0  0  0  0  0
   -0.9321   -0.7312   -1.2085 C   0  0  0  0  0  0  0  0  0  0  0  0
   -1.6421   -0.0950   -2.2609 O   0  0  0  0  0  0  0  0  0  0  0  0
   -1.5676   -1.3005   -0.2666 O   0  0  0  0  0  0  0  0  0  0  0  0
    0.7379   -0.5600    0.8285 H   0  0  0  0  0  0  0  0  0  0  0  0
    2.0979   -0.0625    0.0055 H   0  0  0  0  0  0  0  0  0  0  0  0
    0.9446   -0.2093   -2.0718 H   0  0  0  0  0  0  0  0  0  0  0  0
    0.7379   -2.6506   -2.1209 H   0  0  0  0  0  0  0  0  0  0  0  0
    2.1646   -2.1639   -1.2373 H   0  0  0  0  0  0  0  0  0  0  0  0
    0.7379   -2.7598    3.2995 H   0  0  0  0  0  0  0  0  0  0  0  0
   -1.1421    0.3531   -3.0020 H   0  0  0  0  0  0  0  0  0  0  0  0
  1  9  1  0  0  0  0
  1 10  1  0  0  0  0
  2  1  1  0  0  0  0
  2  3  1  0  0  0  0
  2  6  1  0  0  0  0
  2 11  1  6  0  0  0
  3  4  1  0  0  0  0
  3 12  1  0  0  0  0
  3 13  1  0  0  0  0
  4  5  1  0  0  0  0
  5 14  1  0  0  0  0
  6  7  1  0  0  0  0
  6  8  2  0  0  0  0
  7 15  1  0  0  0  0
M  END
>  <DRUGBANK_ID>
DB03049

>  <SECONDARY_ACCESSION_NUMBERS>
EXPT01043

>  <COMMON_NAME>
S-Selanyl Cysteine

$$$$
