
 OpenBabel10282417123D

 65 68  0  0  0  0  0  0  0  0999 V2000
    0.6837    0.0223    0.3534 C   0  0  0  0  0  0  0  0  0  0  0  0
    0.1680   -1.3753    0.0089 C   0  0  0  0  0  0  0  0  0  0  0  0
    0.8595   -2.4653    0.8337 N   0  3  0  0  0  0  0  0  0  0  0  0
    0.4700   -2.1149    2.3089 C   0  0  0  0  0  0  0  0  0  0  0  0
    0.2956   -3.8949    0.5522 C   0  0  0  0  0  0  0  0  0  0  0  0
    0.5742   -4.4834   -0.8330 C   0  0  0  0  0  0  0  0  0  0  0  0
    2.3620   -2.4897    0.7760 C   0  0  0  0  0  0  0  0  0  0  0  0
    2.9667   -2.8791   -0.5613 C   0  0  0  0  0  0  0  0  0  0  0  0
    2.8397   -1.9651   -1.7813 C   0  0  0  0  0  0  0  0  0  0  0  0
    3.2408   -0.5385   -1.5639 N   0  3  0  0  0  0  0  0  0  0  0  0
    4.3901   -0.2620   -0.8504 C   0  0  0  0  0  0  0  0  0  0  0  0
    5.2664   -1.3934   -0.4086 C   0  0  0  0  0  0  0  0  0  0  0  0
    5.4816   -1.6786    0.9779 C   0  0  0  0  0  0  0  0  0  0  0  0
    6.2322   -2.7846    1.3838 C   0  0  0  0  0  0  0  0  0  0  0  0
    6.6695   -3.6970    0.4299 C   0  0  0  0  0  0  0  0  0  0  0  0
    6.3843   -3.4943   -0.9206 C   0  0  0  0  0  0  0  0  0  0  0  0
    5.7811   -2.3073   -1.3487 C   0  0  0  0  0  0  0  0  0  0  0  0
    4.7234    1.0389   -0.4925 C   0  0  0  0  0  0  0  0  0  0  0  0
    3.9055    2.1154   -0.9074 C   0  0  0  0  0  0  0  0  0  0  0  0
    4.3383    3.3942   -0.4981 C   0  0  0  0  0  0  0  0  0  0  0  0
    5.5137    3.6025    0.2394 C   0  0  0  0  0  0  0  0  0  0  0  0
    6.3169    2.5383    0.6136 C   0  0  0  0  0  0  0  0  0  0  0  0
    7.3841    2.6686    1.4852 N   0  0  0  0  0  0  0  0  0  0  0  0
    5.8767    1.2838    0.2702 C   0  0  0  0  0  0  0  0  0  0  0  0
    2.7465    1.8367   -1.6880 C   0  0  0  0  0  0  0  0  0  0  0  0
    2.4352    0.5008   -2.0565 C   0  0  0  0  0  0  0  0  0  0  0  0
    1.2129    0.2761   -2.7731 C   0  0  0  0  0  0  0  0  0  0  0  0
    0.2953    1.2942   -3.0926 C   0  0  0  0  0  0  0  0  0  0  0  0
   -1.0211    0.9766   -3.4425 N   0  0  0  0  0  0  0  0  0  0  0  0
    0.6207    2.5874   -2.7312 C   0  0  0  0  0  0  0  0  0  0  0  0
    1.8225    2.8583   -2.0680 C   0  0  0  0  0  0  0  0  0  0  0  0
    0.3513    0.3888    1.3228 H   0  0  0  0  0  0  0  0  0  0  0  0
    0.3090    0.7473   -0.3658 H   0  0  0  0  0  0  0  0  0  0  0  0
    1.7719    0.0844    0.3735 H   0  0  0  0  0  0  0  0  0  0  0  0
   -0.9074   -1.4396    0.1837 H   0  0  0  0  0  0  0  0  0  0  0  0
    0.3129   -1.6260   -1.0339 H   0  0  0  0  0  0  0  0  0  0  0  0
   -0.6201   -2.0493    2.3511 H   0  0  0  0  0  0  0  0  0  0  0  0
    0.8658   -2.8800    2.9750 H   0  0  0  0  0  0  0  0  0  0  0  0
    0.9198   -1.1505    2.5689 H   0  0  0  0  0  0  0  0  0  0  0  0
    0.7411   -4.5464    1.3127 H   0  0  0  0  0  0  0  0  0  0  0  0
   -0.7809   -3.8247    0.6975 H   0  0  0  0  0  0  0  0  0  0  0  0
    1.5387   -4.9911   -0.8874 H   0  0  0  0  0  0  0  0  0  0  0  0
   -0.0884   -5.3227   -1.0409 H   0  0  0  0  0  0  0  0  0  0  0  0
    0.4803   -3.7621   -1.6486 H   0  0  0  0  0  0  0  0  0  0  0  0
    2.7336   -1.5209    1.1233 H   0  0  0  0  0  0  0  0  0  0  0  0
    2.7027   -3.2051    1.5389 H   0  0  0  0  0  0  0  0  0  0  0  0
    3.9671   -3.1129   -0.2753 H   0  0  0  0  0  0  0  0  0  0  0  0
    2.8117   -3.8832   -0.9052 H   0  0  0  0  0  0  0  0  0  0  0  0
    3.3992   -2.3182   -2.6522 H   0  0  0  0  0  0  0  0  0  0  0  0
    1.8145   -2.0329   -2.1130 H   0  0  0  0  0  0  0  0  0  0  0  0
    5.0400   -1.0643    1.7681 H   0  0  0  0  0  0  0  0  0  0  0  0
    6.4496   -2.9573    2.4383 H   0  0  0  0  0  0  0  0  0  0  0  0
    7.2235   -4.5824    0.7381 H   0  0  0  0  0  0  0  0  0  0  0  0
    6.5900   -4.2878   -1.6372 H   0  0  0  0  0  0  0  0  0  0  0  0
    5.5719   -2.1909   -2.4100 H   0  0  0  0  0  0  0  0  0  0  0  0
    3.7765    4.2916   -0.7643 H   0  0  0  0  0  0  0  0  0  0  0  0
    5.8110    4.6122    0.5005 H   0  0  0  0  0  0  0  0  0  0  0  0
    8.0416    1.8920    1.5383 H   0  0  0  0  0  0  0  0  0  0  0  0
    7.8508    3.5698    1.4977 H   0  0  0  0  0  0  0  0  0  0  0  0
    6.5197    0.4696    0.6109 H   0  0  0  0  0  0  0  0  0  0  0  0
    0.8545   -0.7119   -3.0353 H   0  0  0  0  0  0  0  0  0  0  0  0
   -1.5371    1.7325   -3.9008 H   0  0  0  0  0  0  0  0  0  0  0  0
   -1.2016    0.0983   -3.9181 H   0  0  0  0  0  0  0  0  0  0  0  0
   -0.0735    3.4087   -2.9249 H   0  0  0  0  0  0  0  0  0  0  0  0
    1.9874    3.8985   -1.7941 H   0  0  0  0  0  0  0  0  0  0  0  0
  1  2  1  0  0  0  0
  1 32  1  0  0  0  0
  1 33  1  0  0  0  0
  1 34  1  0  0  0  0
  2  3  1  0  0  0  0
  2 35  1  0  0  0  0
  2 36  1  0  0  0  0
  3  4  1  0  0  0  0
  3  5  1  0  0  0  0
  3  7  1  0  0  0  0
  4 37  1  0  0  0  0
  4 38  1  0  0  0  0
  4 39  1  0  0  0  0
  5  6  1  0  0  0  0
  5 40  1  0  0  0  0
  5 41  1  0  0  0  0
  6 42  1  0  0  0  0
  6 43  1  0  0  0  0
  6 44  1  0  0  0  0
  7  8  1  0  0  0  0
  7 45  1  0  0  0  0
  7 46  1  0  0  0  0
  8  9  1  0  0  0  0
  8 47  1  0  0  0  0
  8 48  1  0  0  0  0
  9 10  1  0  0  0  0
  9 49  1  0  0  0  0
  9 50  1  0  0  0  0
 10 11  2  0  0  0  0
 10 26  1  0  0  0  0
 11 12  1  0  0  0  0
 11 18  1  0  0  0  0
 12 13  2  0  0  0  0
 12 17  1  0  0  0  0
 13 14  1  0  0  0  0
 13 51  1  0  0  0  0
 14 15  2  0  0  0  0
 14 52  1  0  0  0  0
 15 16  1  0  0  0  0
 15 53  1  0  0  0  0
 16 17  2  0  0  0  0
 16 54  1  0  0  0  0
 17 55  1  0  0  0  0
 18 19  2  0  0  0  0
 18 24  1  0  0  0  0
 19 20  1  0  0  0  0
 19 25  1  0  0  0  0
 20 21  2  0  0  0  0
 20 56  1  0  0  0  0
 21 22  1  0  0  0  0
 21 57  1  0  0  0  0
 22 23  1  0  0  0  0
 22 24  2  0  0  0  0
 23 58  1  0  0  0  0
 23 59  1  0  0  0  0
 24 60  1  0  0  0  0
 25 26  2  0  0  0  0
 25 31  1  0  0  0  0
 26 27  1  0  0  0  0
 27 28  2  0  0  0  0
 27 61  1  0  0  0  0
 28 29  1  0  0  0  0
 28 30  1  0  0  0  0
 29 62  1  0  0  0  0
 29 63  1  0  0  0  0
 30 31  2  0  0  0  0
 30 64  1  0  0  0  0
 31 65  1  0  0  0  0
M  CHG  2   3   1  10   1
M  END
>  <DRUGBANK_ID>
DB02166

>  <SECONDARY_ACCESSION_NUMBERS>
EXPT02661

>  <COMMON_NAME>
Propidium

>  <CAS_NUMBER>
36015-30-2

>  <UNII>
74NX23J96Y

$$$$
