
 OpenBabel10282417153D

 37 38  0  0  0  0  0  0  0  0999 V2000
    1.0302    0.0845   -0.1474 C   0  0  0  0  0  0  0  0  0  0  0  0
    0.5616   -0.1147    1.2769 C   0  0  3  0  0  0  0  0  0  0  0  0
    1.0631    0.9849    2.2095 C   0  0  0  0  0  0  0  0  0  0  0  0
    0.5532    2.3107    1.8874 N   0  0  0  0  0  0  0  0  0  0  0  0
   -0.2754    3.1126    2.6311 C   0  0  0  0  0  0  0  0  0  0  0  0
   -0.7426    4.1371    2.1352 O   0  0  0  0  0  0  0  0  0  0  0  0
   -0.5997    2.7539    4.0241 C   0  0  0  0  0  0  0  0  0  0  0  0
    0.3645    2.2628    4.9086 C   0  0  0  0  0  0  0  0  0  0  0  0
    0.0023    1.9092    6.2008 C   0  0  0  0  0  0  0  0  0  0  0  0
   -1.3051    2.1359    6.5912 C   0  0  0  0  0  0  0  0  0  0  0  0
   -2.2575    2.6420    5.7750 N   0  0  0  0  0  0  0  0  0  0  0  0
   -1.8866    2.9387    4.5031 C   0  0  0  0  0  0  0  0  0  0  0  0
   -0.8885   -0.2486    1.3833 N   0  0  0  0  0  0  0  0  0  0  0  0
   -1.6213   -1.3150    1.8447 C   0  0  0  0  0  0  0  0  0  0  0  0
   -2.8494   -1.2863    1.7977 O   0  0  0  0  0  0  0  0  0  0  0  0
   -0.9447   -2.5213    2.3644 C   0  0  0  0  0  0  0  0  0  0  0  0
    0.1217   -2.4834    3.2673 C   0  0  0  0  0  0  0  0  0  0  0  0
    0.7361   -3.6673    3.6623 C   0  0  0  0  0  0  0  0  0  0  0  0
    0.2155   -4.8596    3.1907 C   0  0  0  0  0  0  0  0  0  0  0  0
   -0.8360   -4.9370    2.3450 N   0  0  0  0  0  0  0  0  0  0  0  0
   -1.3969   -3.7648    1.9516 C   0  0  0  0  0  0  0  0  0  0  0  0
    0.6662    1.0222   -0.5716 H   0  0  0  0  0  0  0  0  0  0  0  0
    0.6852   -0.7403   -0.7767 H   0  0  0  0  0  0  0  0  0  0  0  0
    2.1259    0.0930   -0.1633 H   0  0  0  0  0  0  0  0  0  0  0  0
    1.0329   -1.0418    1.5946 H   0  0  0  0  0  0  0  0  0  0  0  0
    0.7441    0.6844    3.2035 H   0  0  0  0  0  0  0  0  0  0  0  0
    2.1549    1.0439    2.2066 H   0  0  0  0  0  0  0  0  0  0  0  0
    0.7401    2.6851    0.9625 H   0  0  0  0  0  0  0  0  0  0  0  0
    1.3965    2.1381    4.5961 H   0  0  0  0  0  0  0  0  0  0  0  0
    0.7280    1.4843    6.8843 H   0  0  0  0  0  0  0  0  0  0  0  0
   -1.6251    1.9225    7.6067 H   0  0  0  0  0  0  0  0  0  0  0  0
   -2.6790    3.3321    3.8707 H   0  0  0  0  0  0  0  0  0  0  0  0
   -1.4599    0.5405    1.0914 H   0  0  0  0  0  0  0  0  0  0  0  0
    0.4933   -1.5444    3.6601 H   0  0  0  0  0  0  0  0  0  0  0  0
    1.5925   -3.6584    4.3275 H   0  0  0  0  0  0  0  0  0  0  0  0
    0.6367   -5.8121    3.4992 H   0  0  0  0  0  0  0  0  0  0  0  0
   -2.2360   -3.8603    1.2669 H   0  0  0  0  0  0  0  0  0  0  0  0
  1  2  1  0  0  0  0
  1 22  1  0  0  0  0
  1 23  1  0  0  0  0
  1 24  1  0  0  0  0
  2  3  1  0  0  0  0
  2 13  1  0  0  0  0
  2 25  1  0  0  0  0
  3  4  1  0  0  0  0
  3 26  1  0  0  0  0
  3 27  1  0  0  0  0
  4  5  1  0  0  0  0
  4 28  1  0  0  0  0
  5  6  2  0  0  0  0
  5  7  1  0  0  0  0
  7  8  2  0  0  0  0
  7 12  1  0  0  0  0
  8  9  1  0  0  0  0
  8 29  1  0  0  0  0
  9 10  2  0  0  0  0
  9 30  1  0  0  0  0
 10 11  1  0  0  0  0
 10 31  1  0  0  0  0
 11 12  2  0  0  0  0
 12 32  1  0  0  0  0
 13 14  1  0  0  0  0
 13 33  1  0  0  0  0
 14 15  2  0  0  0  0
 14 16  1  0  0  0  0
 16 17  2  0  0  0  0
 16 21  1  0  0  0  0
 17 18  1  0  0  0  0
 17 34  1  0  0  0  0
 18 19  2  0  0  0  0
 18 35  1  0  0  0  0
 19 20  1  0  0  0  0
 19 36  1  0  0  0  0
 20 21  2  0  0  0  0
 21 37  1  0  0  0  0
M  END
>  <DRUGBANK_ID>
DB06397

>  <COMMON_NAME>
Nicaraven

>  <CAS_NUMBER>
79455-30-4

>  <UNII>
UD8PEV6JBD

$$$$
