
 OpenBabel10282417143D

 77 81  0  0  0  0  0  0  0  0999 V2000
   -1.6471   -4.8720   -3.0340 O   0  0  0  0  0  0  0  0  0  0  0  0
   -1.2234   -5.2776   -4.3381 C   0  0  1  0  0  0  0  0  0  0  0  0
   -1.4867   -6.7594   -4.5696 C   0  0  0  0  0  0  0  0  0  0  0  0
   -0.8680   -7.5931   -3.5048 C   0  0  0  0  0  0  0  0  0  0  0  0
   -0.8060   -7.0078   -2.1694 C   0  0  0  0  0  0  0  0  0  0  0  0
   -1.2522   -5.7032   -2.0240 C   0  0  0  0  0  0  0  0  0  0  0  0
   -1.3851   -5.1823   -0.7510 C   0  0  0  0  0  0  0  0  0  0  0  0
   -0.9471   -5.8872    0.3741 C   0  0  0  0  0  0  0  0  0  0  0  0
   -0.4531   -7.1826    0.2204 C   0  0  0  0  0  0  0  0  0  0  0  0
   -0.4247   -7.7558   -1.0491 C   0  0  0  0  0  0  0  0  0  0  0  0
   -0.0546   -9.0710   -1.1342 O   0  0  0  0  0  0  0  0  0  0  0  0
   -0.5353   -8.7681   -3.6842 O   0  0  0  0  0  0  0  0  0  0  0  0
   -0.9626   -5.3705    1.6429 O   0  0  0  0  0  0  0  0  0  0  0  0
   -0.9382   -3.9286    1.7685 C   0  0  2  0  0  0  0  0  0  0  0  0
   -2.2060   -3.3377    1.4402 O   0  0  0  0  0  0  0  0  0  0  0  0
   -2.2095   -1.9129    1.5872 C   0  0  2  0  0  0  0  0  0  0  0  0
   -3.6246   -1.3473    1.3316 C   0  0  0  0  0  0  0  0  0  0  0  0
   -4.6016   -1.7738    2.2858 O   0  0  0  0  0  0  0  0  0  0  0  0
   -4.1939   -1.5054    3.6209 C   0  0  1  0  0  0  0  0  0  0  0  0
   -5.4008   -1.2839    4.5328 C   0  0  2  0  0  0  0  0  0  0  0  0
   -4.9651   -0.8339    5.8326 O   0  0  0  0  0  0  0  0  0  0  0  0
    0.2358   -3.3236    0.9584 C   0  0  1  0  0  0  0  0  0  0  0  0
    0.1951   -1.8016    0.9147 C   0  0  2  0  0  0  0  0  0  0  0  0
   -1.2174   -1.2763    0.6257 C   0  0  2  0  0  0  0  0  0  0  0  0
   -1.2564    0.1471    0.7470 O   0  0  0  0  0  0  0  0  0  0  0  0
   -3.3846   -2.5768    4.1322 O   0  0  0  0  0  0  0  0  0  0  0  0
   -4.0767   -3.8347    4.1200 C   0  0  1  0  0  0  0  0  0  0  0  0
   -3.0916   -4.9184    4.5396 C   0  0  0  0  0  0  0  0  0  0  0  0
   -6.1894   -2.5885    4.6771 C   0  0  1  0  0  0  0  0  0  0  0  0
   -5.2699   -3.7590    5.0772 C   0  0  1  0  0  0  0  0  0  0  0  0
   -5.9822   -4.9939    5.1069 O   0  0  0  0  0  0  0  0  0  0  0  0
    1.0704   -1.3428   -0.1263 O   0  0  0  0  0  0  0  0  0  0  0  0
   -3.2723   -0.7384   -8.5512 C   0  0  0  0  0  0  0  0  0  0  0  0
   -3.4900   -2.1438   -8.5302 O   0  0  0  0  0  0  0  0  0  0  0  0
   -3.0011   -2.8010   -7.4330 C   0  0  0  0  0  0  0  0  0  0  0  0
   -2.3476   -2.2150   -6.3452 C   0  0  0  0  0  0  0  0  0  0  0  0
   -1.8281   -3.0097   -5.3138 C   0  0  0  0  0  0  0  0  0  0  0  0
   -1.9442   -4.4069   -5.3611 C   0  0  0  0  0  0  0  0  0  0  0  0
   -2.6730   -4.9705   -6.4210 C   0  0  0  0  0  0  0  0  0  0  0  0
   -3.1780   -4.1810   -7.4397 C   0  0  0  0  0  0  0  0  0  0  0  0
   -3.8216   -4.8257   -8.4596 O   0  0  0  0  0  0  0  0  0  0  0  0
   -7.2164   -2.4154    5.6600 O   0  0  0  0  0  0  0  0  0  0  0  0
    1.5087   -3.8232    1.3778 O   0  0  0  0  0  0  0  0  0  0  0  0
   -0.1476   -5.0652   -4.4375 H   0  0  0  0  0  0  0  0  0  0  0  0
   -1.0657   -7.0641   -5.5328 H   0  0  0  0  0  0  0  0  0  0  0  0
   -2.5623   -6.9730   -4.5406 H   0  0  0  0  0  0  0  0  0  0  0  0
   -1.7980   -4.1837   -0.6781 H   0  0  0  0  0  0  0  0  0  0  0  0
   -0.1045   -7.7521    1.0785 H   0  0  0  0  0  0  0  0  0  0  0  0
   -0.1716   -9.3622   -2.0677 H   0  0  0  0  0  0  0  0  0  0  0  0
   -0.7608   -3.7427    2.8360 H   0  0  0  0  0  0  0  0  0  0  0  0
   -1.8918   -1.6613    2.6040 H   0  0  0  0  0  0  0  0  0  0  0  0
   -3.6233   -0.2508    1.3478 H   0  0  0  0  0  0  0  0  0  0  0  0
   -3.9854   -1.6579    0.3447 H   0  0  0  0  0  0  0  0  0  0  0  0
   -3.5807   -0.5957    3.6570 H   0  0  0  0  0  0  0  0  0  0  0  0
   -6.0471   -0.4996    4.1224 H   0  0  0  0  0  0  0  0  0  0  0  0
   -4.2628   -1.4395    6.1344 H   0  0  0  0  0  0  0  0  0  0  0  0
    0.1845   -3.6194   -0.0849 H   0  0  0  0  0  0  0  0  0  0  0  0
    0.5869   -1.3872    1.8494 H   0  0  0  0  0  0  0  0  0  0  0  0
   -1.5019   -1.5208   -0.4051 H   0  0  0  0  0  0  0  0  0  0  0  0
   -0.8375    0.4028    1.5881 H   0  0  0  0  0  0  0  0  0  0  0  0
   -4.4157   -4.0808    3.1038 H   0  0  0  0  0  0  0  0  0  0  0  0
   -3.5674   -5.8992    4.6195 H   0  0  0  0  0  0  0  0  0  0  0  0
   -2.2908   -5.0088    3.8067 H   0  0  0  0  0  0  0  0  0  0  0  0
   -2.6105   -4.6643    5.4886 H   0  0  0  0  0  0  0  0  0  0  0  0
   -6.6925   -2.8245    3.7321 H   0  0  0  0  0  0  0  0  0  0  0  0
   -4.9018   -3.5859    6.0956 H   0  0  0  0  0  0  0  0  0  0  0  0
   -6.4125   -5.1167    4.2432 H   0  0  0  0  0  0  0  0  0  0  0  0
    0.7889   -1.7680   -0.9582 H   0  0  0  0  0  0  0  0  0  0  0  0
   -3.7886   -0.2554   -7.7153 H   0  0  0  0  0  0  0  0  0  0  0  0
   -2.2020   -0.5029   -8.5445 H   0  0  0  0  0  0  0  0  0  0  0  0
   -3.6957   -0.3467   -9.4794 H   0  0  0  0  0  0  0  0  0  0  0  0
   -2.2013   -1.1421   -6.2763 H   0  0  0  0  0  0  0  0  0  0  0  0
   -1.3119   -2.5262   -4.4859 H   0  0  0  0  0  0  0  0  0  0  0  0
   -2.8436   -6.0387   -6.5081 H   0  0  0  0  0  0  0  0  0  0  0  0
   -4.0780   -4.1314   -9.0939 H   0  0  0  0  0  0  0  0  0  0  0  0
   -6.7696   -2.1096    6.4723 H   0  0  0  0  0  0  0  0  0  0  0  0
    1.6311   -3.6480    2.3234 H   0  0  0  0  0  0  0  0  0  0  0  0
  1  2  1  0  0  0  0
  1  6  1  0  0  0  0
  2  3  1  0  0  0  0
  2 44  1  6  0  0  0
  2 38  1  0  0  0  0
  3  4  1  0  0  0  0
  3 45  1  0  0  0  0
  3 46  1  0  0  0  0
  4  5  1  0  0  0  0
  4 12  2  0  0  0  0
  5  6  2  0  0  0  0
  5 10  1  0  0  0  0
  6  7  1  0  0  0  0
  7  8  2  0  0  0  0
  7 47  1  0  0  0  0
  8  9  1  0  0  0  0
  8 13  1  0  0  0  0
  9 10  2  0  0  0  0
  9 48  1  0  0  0  0
 10 11  1  0  0  0  0
 11 49  1  0  0  0  0
 14 15  1  0  0  0  0
 14 22  1  0  0  0  0
 14 50  1  1  0  0  0
 14 13  1  0  0  0  0
 15 16  1  0  0  0  0
 16 17  1  0  0  0  0
 16 24  1  0  0  0  0
 16 51  1  1  0  0  0
 17 18  1  0  0  0  0
 17 52  1  0  0  0  0
 17 53  1  0  0  0  0
 19 20  1  0  0  0  0
 19 26  1  0  0  0  0
 19 54  1  6  0  0  0
 19 18  1  0  0  0  0
 20 21  1  0  0  0  0
 20 29  1  0  0  0  0
 20 55  1  6  0  0  0
 21 56  1  0  0  0  0
 22 23  1  0  0  0  0
 22 43  1  0  0  0  0
 22 57  1  6  0  0  0
 23 24  1  0  0  0  0
 23 32  1  0  0  0  0
 23 58  1  1  0  0  0
 24 25  1  0  0  0  0
 24 59  1  6  0  0  0
 25 60  1  0  0  0  0
 26 27  1  0  0  0  0
 27 28  1  0  0  0  0
 27 30  1  0  0  0  0
 27 61  1  6  0  0  0
 28 62  1  0  0  0  0
 28 63  1  0  0  0  0
 28 64  1  0  0  0  0
 29 30  1  0  0  0  0
 29 42  1  0  0  0  0
 29 65  1  6  0  0  0
 30 31  1  0  0  0  0
 30 66  1  1  0  0  0
 31 67  1  0  0  0  0
 32 68  1  0  0  0  0
 33 34  1  0  0  0  0
 33 69  1  0  0  0  0
 33 70  1  0  0  0  0
 33 71  1  0  0  0  0
 34 35  1  0  0  0  0
 35 36  2  0  0  0  0
 35 40  1  0  0  0  0
 36 37  1  0  0  0  0
 36 72  1  0  0  0  0
 37 38  2  0  0  0  0
 37 73  1  0  0  0  0
 38 39  1  0  0  0  0
 39 40  2  0  0  0  0
 39 74  1  0  0  0  0
 40 41  1  0  0  0  0
 41 75  1  0  0  0  0
 42 76  1  0  0  0  0
 43 77  1  0  0  0  0
M  END
>  <DRUGBANK_ID>
DB04703

>  <COMMON_NAME>
Hesperidin

>  <CAS_NUMBER>
520-26-3

>  <UNII>
E750O06Y6O

>  <SYNONYMS>
(S)-(âˆ’)-hesperidin; Cirantin; Ciratin; Hesperetin 7-O-rutinoside; Hesperidin; Hesperidina; Hesperidoside

$$$$
