024
 OpenBabel10282417163D

 47 49  0  0  0  0  0  0  0  0999 V2000
    2.6611    0.4279    0.0787 S   0  0  0  0  0  0  0  0  0  0  0  0
    2.1434   -1.2233    0.0187 C   0  0  0  0  0  0  0  0  0  0  0  0
    0.7501   -1.2981   -0.0812 C   0  0  0  0  0  0  0  0  0  0  0  0
    0.1749    0.0042   -0.2538 C   0  0  0  0  0  0  0  0  0  0  0  0
    1.0683    1.0246   -0.0396 C   0  0  0  0  0  0  0  0  0  0  0  0
    3.1082   -2.3189    0.0543 C   0  0  0  0  0  0  0  0  0  0  0  0
    2.8785   -3.5289    0.0332 O   0  0  0  0  0  0  0  0  0  0  0  0
    4.4045   -1.9206    0.0737 O   0  0  0  0  0  0  0  0  0  0  0  0
    0.7425    2.4535    0.0005 C   0  0  0  0  0  0  0  0  0  0  0  0
   -0.1046    2.9532    1.0213 C   0  0  0  0  0  0  0  0  0  0  0  0
   -0.5019    4.2946    1.0554 C   0  0  0  0  0  0  0  0  0  0  0  0
   -0.0364    5.1027    0.0176 C   0  0  0  0  0  0  0  0  0  0  0  0
    0.7600    4.6257   -1.0164 C   0  0  0  0  0  0  0  0  0  0  0  0
    1.1037    3.2871   -1.0576 C   0  0  0  0  0  0  0  0  0  0  0  0
   -1.5853    0.4795   -0.8367 Br  0  0  0  0  0  0  0  0  0  0  0  0
    0.1634   -2.5278   -0.0779 O   0  0  0  0  0  0  0  0  0  0  0  0
   -1.2490   -2.5721    0.0148 C   0  0  0  0  0  0  0  0  0  0  0  0
   -1.8797   -2.0800    1.3281 C   0  0  0  0  0  0  0  0  0  0  0  0
   -2.9301   -1.2343    1.1942 O   0  0  0  0  0  0  0  0  0  0  0  0
   -1.4934   -2.4200    2.4378 O   0  0  0  0  0  0  0  0  0  0  0  0
   -1.3661    4.7501    2.0383 N   0  0  0  0  0  0  0  0  0  0  0  0
   -1.6864    6.1590    2.2965 C   0  0  0  0  0  0  0  0  0  0  0  0
   -2.5812    6.7462    1.1929 C   0  0  0  0  0  0  0  0  0  0  0  0
   -2.9292    8.2011    1.4749 C   0  0  0  0  0  0  0  0  0  0  0  0
   -1.6766    9.0443    1.7019 C   0  0  0  0  0  0  0  0  0  0  0  0
   -0.8177    8.4792    2.8308 C   0  0  0  0  0  0  0  0  0  0  0  0
   -0.4428    7.0211    2.5801 C   0  0  0  0  0  0  0  0  0  0  0  0
    4.9122   -2.7610    0.0812 H   0  0  0  0  0  0  0  0  0  0  0  0
   -0.4862    2.2670    1.7776 H   0  0  0  0  0  0  0  0  0  0  0  0
   -0.2761    6.1540   -0.0328 H   0  0  0  0  0  0  0  0  0  0  0  0
    1.0971    5.3204   -1.7781 H   0  0  0  0  0  0  0  0  0  0  0  0
    1.6177    2.9023   -1.9326 H   0  0  0  0  0  0  0  0  0  0  0  0
   -1.6968   -2.1441   -0.8854 H   0  0  0  0  0  0  0  0  0  0  0  0
   -1.5374   -3.6279   -0.0529 H   0  0  0  0  0  0  0  0  0  0  0  0
   -3.0033   -0.8025    0.3192 H   0  0  0  0  0  0  0  0  0  0  0  0
   -1.5236    4.1240    2.8244 H   0  0  0  0  0  0  0  0  0  0  0  0
   -2.2872    6.1693    3.2175 H   0  0  0  0  0  0  0  0  0  0  0  0
   -2.1087    6.7213    0.2094 H   0  0  0  0  0  0  0  0  0  0  0  0
   -3.4911    6.1450    1.0858 H   0  0  0  0  0  0  0  0  0  0  0  0
   -3.4964    8.6064    0.6298 H   0  0  0  0  0  0  0  0  0  0  0  0
   -3.5742    8.2524    2.3586 H   0  0  0  0  0  0  0  0  0  0  0  0
   -1.0864    9.0882    0.7770 H   0  0  0  0  0  0  0  0  0  0  0  0
   -1.9680   10.0725    1.9421 H   0  0  0  0  0  0  0  0  0  0  0  0
    0.0942    9.0789    2.9326 H   0  0  0  0  0  0  0  0  0  0  0  0
   -1.3626    8.5549    3.7783 H   0  0  0  0  0  0  0  0  0  0  0  0
    0.1119    6.6217    3.4372 H   0  0  0  0  0  0  0  0  0  0  0  0
    0.2645    7.0117    1.7470 H   0  0  0  0  0  0  0  0  0  0  0  0
  1  2  1  0  0  0  0
  1  5  1  0  0  0  0
  2  3  2  0  0  0  0
  2  6  1  0  0  0  0
  3  4  1  0  0  0  0
  3 16  1  0  0  0  0
  4  5  2  0  0  0  0
  4 15  1  0  0  0  0
  5  9  1  0  0  0  0
  6  7  2  0  0  0  0
  6  8  1  0  0  0  0
  8 28  1  0  0  0  0
  9 10  1  0  0  0  0
  9 14  2  0  0  0  0
 10 11  2  0  0  0  0
 10 29  1  0  0  0  0
 11 12  1  0  0  0  0
 11 21  1  0  0  0  0
 12 13  2  0  0  0  0
 12 30  1  0  0  0  0
 13 14  1  0  0  0  0
 13 31  1  0  0  0  0
 14 32  1  0  0  0  0
 16 17  1  0  0  0  0
 17 18  1  0  0  0  0
 17 33  1  0  0  0  0
 17 34  1  0  0  0  0
 18 19  1  0  0  0  0
 18 20  2  0  0  0  0
 19 35  1  0  0  0  0
 21 22  1  0  0  0  0
 21 36  1  0  0  0  0
 22 23  1  0  0  0  0
 22 27  1  0  0  0  0
 22 37  1  0  0  0  0
 23 24  1  0  0  0  0
 23 38  1  0  0  0  0
 23 39  1  0  0  0  0
 24 25  1  0  0  0  0
 24 40  1  0  0  0  0
 24 41  1  0  0  0  0
 25 26  1  0  0  0  0
 25 42  1  0  0  0  0
 25 43  1  0  0  0  0
 26 27  1  0  0  0  0
 26 44  1  0  0  0  0
 26 45  1  0  0  0  0
 27 46  1  0  0  0  0
 27 47  1  0  0  0  0
M  END
>  <DRUGBANK_ID>
DB06829

>  <COMMON_NAME>
4-BROMO-3-(CARBOXYMETHOXY)-5-[3-(CYCLOHEXYLAMINO)PHENYL]THIOPHENE-2-CARBOXYLIC ACID

$$$$
