SCJ
 OpenBabel10282417173D

 38 41  0  0  0  0  0  0  0  0999 V2000
    1.5427   -1.2133    0.0016 C   0  0  0  0  0  0  0  0  0  0  0  0
    0.2250   -0.8121    0.0092 C   0  0  0  0  0  0  0  0  0  0  0  0
    0.2694    0.5937   -0.0018 N   0  0  0  0  0  0  0  0  0  0  0  0
    1.5650    1.0403   -0.0010 N   0  0  0  0  0  0  0  0  0  0  0  0
    2.3146   -0.0568   -0.0023 C   0  0  0  0  0  0  0  0  0  0  0  0
   -0.9463   -1.5133    0.0220 N   0  0  0  0  0  0  0  0  0  0  0  0
   -2.0412   -0.8013   -0.0100 C   0  0  0  0  0  0  0  0  0  0  0  0
   -2.1028    0.6895   -0.0169 C   0  0  0  0  0  0  0  0  0  0  0  0
   -0.9326    1.3633   -0.0036 C   0  0  0  0  0  0  0  0  0  0  0  0
   -0.9181    2.7570    0.0171 N   0  0  0  0  0  0  0  0  0  0  0  0
   -3.3579   -1.4744    0.0034 C   0  0  0  0  0  0  0  0  0  0  0  0
    0.2179    3.6586    0.0048 C   0  0  0  0  0  0  0  0  0  0  0  0
    0.2203    4.5182   -1.2238 C   0  0  0  0  0  0  0  0  0  0  0  0
    1.3644    4.6325   -2.0099 C   0  0  0  0  0  0  0  0  0  0  0  0
    1.4792    5.4795   -3.0579 N   0  0  0  0  0  0  0  0  0  0  0  0
    0.4355    6.3046   -3.2822 C   0  0  0  0  0  0  0  0  0  0  0  0
   -0.7251    6.3013   -2.5283 C   0  0  0  0  0  0  0  0  0  0  0  0
   -0.8645    5.3361   -1.5418 C   0  0  0  0  0  0  0  0  0  0  0  0
   -4.2504   -1.3037   -1.0605 C   0  0  0  0  0  0  0  0  0  0  0  0
   -5.4962   -1.9311   -1.0192 C   0  0  0  0  0  0  0  0  0  0  0  0
   -5.8998   -2.6012    0.1361 C   0  0  0  0  0  0  0  0  0  0  0  0
   -5.0302   -2.7093    1.2221 C   0  0  0  0  0  0  0  0  0  0  0  0
   -3.7236   -2.2324    1.1178 C   0  0  0  0  0  0  0  0  0  0  0  0
    2.2354   -2.9456   -0.0005 Br  0  0  0  0  0  0  0  0  0  0  0  0
    3.3913    0.0545   -0.0049 H   0  0  0  0  0  0  0  0  0  0  0  0
   -3.0669    1.1798   -0.0039 H   0  0  0  0  0  0  0  0  0  0  0  0
   -1.8256    3.2085    0.0358 H   0  0  0  0  0  0  0  0  0  0  0  0
    0.1642    4.3106    0.8844 H   0  0  0  0  0  0  0  0  0  0  0  0
    1.1826    3.1707    0.0916 H   0  0  0  0  0  0  0  0  0  0  0  0
    2.2601    4.0519   -1.7974 H   0  0  0  0  0  0  0  0  0  0  0  0
    0.5586    6.9950   -4.1104 H   0  0  0  0  0  0  0  0  0  0  0  0
   -1.4976    7.0432   -2.6885 H   0  0  0  0  0  0  0  0  0  0  0  0
   -1.8015    5.2503   -1.0013 H   0  0  0  0  0  0  0  0  0  0  0  0
   -3.9760   -0.7082   -1.9264 H   0  0  0  0  0  0  0  0  0  0  0  0
   -6.1592   -1.8864   -1.8799 H   0  0  0  0  0  0  0  0  0  0  0  0
   -6.8898   -3.0485    0.1883 H   0  0  0  0  0  0  0  0  0  0  0  0
   -5.3700   -3.1684    2.1471 H   0  0  0  0  0  0  0  0  0  0  0  0
   -3.0064   -2.4317    1.9100 H   0  0  0  0  0  0  0  0  0  0  0  0
  1  2  2  0  0  0  0
  1 24  1  0  0  0  0
  2  6  1  0  0  0  0
  3  9  1  0  0  0  0
  3  2  1  0  0  0  0
  4  5  2  0  0  0  0
  4  3  1  0  0  0  0
  5  1  1  0  0  0  0
  5 25  1  0  0  0  0
  6  7  2  0  0  0  0
  7 11  1  0  0  0  0
  8  7  1  0  0  0  0
  8 26  1  0  0  0  0
  9  8  2  0  0  0  0
 10 12  1  0  0  0  0
 10  9  1  0  0  0  0
 10 27  1  0  0  0  0
 11 19  1  0  0  0  0
 12 28  1  0  0  0  0
 12 29  1  0  0  0  0
 13 14  1  0  0  0  0
 13 12  1  0  0  0  0
 14 30  1  0  0  0  0
 15 14  2  0  0  0  0
 16 15  1  0  0  0  0
 16 31  1  0  0  0  0
 17 16  2  0  0  0  0
 17 18  1  0  0  0  0
 17 32  1  0  0  0  0
 18 13  2  0  0  0  0
 18 33  1  0  0  0  0
 19 20  2  0  0  0  0
 19 34  1  0  0  0  0
 20 35  1  0  0  0  0
 21 20  1  0  0  0  0
 21 36  1  0  0  0  0
 22 21  2  0  0  0  0
 22 37  1  0  0  0  0
 23 11  2  0  0  0  0
 23 22  1  0  0  0  0
 23 38  1  0  0  0  0
M  END
>  <DRUGBANK_ID>
DB08535

>  <COMMON_NAME>
3-bromo-5-phenyl-N-(pyridin-3-ylmethyl)pyrazolo[1,5-a]pyrimidin-7-amine

$$$$
