
 OpenBabel10282417113D

 21 21  0  0  0  0  0  0  0  0999 V2000
    1.1285   -0.0990    0.0661 O   0  0  0  0  0  0  0  0  0  0  0  0
    2.2484    3.6718    1.6609 O   0  0  0  0  0  0  0  0  0  0  0  0
    2.1748    2.5022   -0.2348 O   0  0  0  0  0  0  0  0  0  0  0  0
    3.0626   -0.6119   -1.0353 O   0  0  0  0  0  0  0  0  0  0  0  0
    0.3386    0.5965    1.0185 C   0  0  0  0  0  0  0  0  0  0  0  0
    0.6201    1.8961    1.4737 C   0  0  0  0  0  0  0  0  0  0  0  0
   -0.8302   -0.0771    1.4153 C   0  0  0  0  0  0  0  0  0  0  0  0
   -0.2087    2.4313    2.4651 C   0  0  0  0  0  0  0  0  0  0  0  0
   -1.7111    0.5395    2.3002 C   0  0  0  0  0  0  0  0  0  0  0  0
   -1.3670    1.7614    2.8697 C   0  0  0  0  0  0  0  0  0  0  0  0
    1.7073    2.7265    0.8584 C   0  0  0  0  0  0  0  0  0  0  0  0
    2.5238   -0.1685   -0.0245 C   0  0  0  0  0  0  0  0  0  0  0  0
    3.3036    0.1819    1.2209 C   0  0  0  0  0  0  0  0  0  0  0  0
    1.7903    3.9074    2.4806 H   0  0  0  0  0  0  0  0  0  0  0  0
   -1.0726   -1.0636    1.0218 H   0  0  0  0  0  0  0  0  0  0  0  0
   -0.0204    3.4000    2.9093 H   0  0  0  0  0  0  0  0  0  0  0  0
   -2.6666    0.0785    2.5437 H   0  0  0  0  0  0  0  0  0  0  0  0
   -2.0213    2.2213    3.6063 H   0  0  0  0  0  0  0  0  0  0  0  0
    3.2167    1.2043    1.5711 H   0  0  0  0  0  0  0  0  0  0  0  0
    3.0312   -0.4824    2.0396 H   0  0  0  0  0  0  0  0  0  0  0  0
    4.3663    0.0844    0.9850 H   0  0  0  0  0  0  0  0  0  0  0  0
  1  5  1  0  0  0  0
  1 12  1  0  0  0  0
  2 11  1  0  0  0  0
  2 14  1  0  0  0  0
  3 11  2  0  0  0  0
  4 12  2  0  0  0  0
  5  6  1  0  0  0  0
  5  7  2  0  0  0  0
  6  8  2  0  0  0  0
  6 11  1  0  0  0  0
  7  9  1  0  0  0  0
  7 15  1  0  0  0  0
  8 10  1  0  0  0  0
  8 16  1  0  0  0  0
  9 10  2  0  0  0  0
  9 17  1  0  0  0  0
 10 18  1  0  0  0  0
 12 13  1  0  0  0  0
 13 19  1  0  0  0  0
 13 20  1  0  0  0  0
 13 21  1  0  0  0  0
M  END
>  <DRUGBANK_ID>
DB00945

>  <SECONDARY_ACCESSION_NUMBERS>
APRD00264; EXPT00475

>  <COMMON_NAME>
Acetylsalicylic acid

>  <CAS_NUMBER>
50-78-2

>  <UNII>
R16CO5Y76E

>  <SYNONYMS>
2-Acetoxybenzenecarboxylic acid; 2-Acetoxybenzoic acid; Acetylsalicylate; Acetylsalicylsäure; acide 2-(acétyloxy)benzoïque; Acide acétylsalicylique; ácido acetilsalicílico; Acidum acetylsalicylicum; ASA; Aspirin; Aspirina; Azetylsalizylsäure; o-acetoxybenzoic acid; O-acetylsalicylic acid; o-carboxyphenyl acetate; Polopiryna; Salicylic acid acetate

$$$$
