
 OpenBabel10282417123D

 17 16  0  0  1  0  0  0  0  0999 V2000
    1.1424   -1.5004   -1.7029 C   0  0  0  0  0  0  0  0  0  0  0  0
    0.7731    0.0761    0.2428 C   0  0  0  0  0  0  0  0  0  0  0  0
    0.3707   -0.2578   -1.2239 C   0  0  2  0  0  0  0  0  0  0  0  0
    2.5159   -1.0144   -2.1162 C   0  0  0  0  0  0  0  0  0  0  0  0
   -1.0909   -0.3399   -1.3728 N   0  0  0  0  0  0  0  0  0  0  0  0
    3.0168   -1.1287   -3.2259 O   0  0  0  0  0  0  0  0  0  0  0  0
    3.1342   -0.3066   -1.1503 O   0  0  0  0  0  0  0  0  0  0  0  0
   -0.2703   -0.7113    1.5114 S   0  0  0  0  0  0  0  0  0  0  0  0
    0.6849    0.5774   -1.8667 H   0  0  0  0  0  0  0  0  0  0  0  0
    0.6707   -1.9693   -2.5767 H   0  0  0  0  0  0  0  0  0  0  0  0
    1.2208   -2.2746   -0.9301 H   0  0  0  0  0  0  0  0  0  0  0  0
    1.7692   -0.2818    0.5020 H   0  0  0  0  0  0  0  0  0  0  0  0
    0.7806    1.1623    0.3756 H   0  0  0  0  0  0  0  0  0  0  0  0
   -1.3539   -0.5853   -2.3254 H   0  0  0  0  0  0  0  0  0  0  0  0
   -1.4471   -1.0777   -0.7658 H   0  0  0  0  0  0  0  0  0  0  0  0
    3.8786    0.1935   -1.5391 H   0  0  0  0  0  0  0  0  0  0  0  0
   -1.4093   -0.1580    1.0770 H   0  0  0  0  0  0  0  0  0  0  0  0
  1 10  1  0  0  0  0
  1 11  1  0  0  0  0
  2 12  1  0  0  0  0
  2 13  1  0  0  0  0
  3  5  1  0  0  0  0
  3  9  1  6  0  0  0
  3  2  1  0  0  0  0
  3  1  1  0  0  0  0
  4  1  1  0  0  0  0
  5 14  1  0  0  0  0
  5 15  1  0  0  0  0
  6  4  2  0  0  0  0
  7  4  1  0  0  0  0
  7 16  1  0  0  0  0
  8  2  1  0  0  0  0
  8 17  1  0  0  0  0
M  END
>  <DRUGBANK_ID>
DB02780

>  <SECONDARY_ACCESSION_NUMBERS>
EXPT00644

>  <COMMON_NAME>
Beta-3-Cysteine

$$$$
