
 OpenBabel10282417173D

 66 70  0  0  0  0  0  0  0  0999 V2000
    0.7392    0.0239   -0.0772 O   0  0  0  0  0  0  0  0  0  0  0  0
    3.7354    6.5876   -0.6322 O   0  0  0  0  0  0  0  0  0  0  0  0
    1.3862    4.7977    0.7478 N   0  3  3  0  0  0  0  0  0  0  0  0
    0.6467    2.4284   -0.1480 C   0  0  3  0  0  0  0  0  0  0  0  0
    1.9171    2.2938    0.7148 C   0  0  0  0  0  0  0  0  0  0  0  0
   -0.3393    2.9970    0.9318 C   0  0  0  0  0  0  0  0  0  0  0  0
    0.8484    3.5120   -1.1848 C   0  0  0  0  0  0  0  0  0  0  0  0
    2.3533    3.6601    1.2401 C   0  0  0  0  0  0  0  0  0  0  0  0
    0.0647    4.4066    1.4221 C   0  0  0  0  0  0  0  0  0  0  0  0
    0.9547    4.8964   -0.7087 C   0  0  0  0  0  0  0  0  0  0  0  0
    0.2722    1.0759   -0.9599 C   0  0  0  0  0  0  0  0  0  0  0  0
    1.8980    6.1676    1.1850 C   0  0  0  0  0  0  0  0  0  0  0  0
    0.9007    0.8115   -2.3822 C   0  0  0  0  0  0  0  0  0  0  0  0
   -1.2493    0.9745   -1.0521 C   0  0  0  0  0  0  0  0  0  0  0  0
    3.3603    6.5262    0.7609 C   0  0  0  0  0  0  0  0  0  0  0  0
    1.2138    1.8126   -3.3383 C   0  0  0  0  0  0  0  0  0  0  0  0
   -1.8925   -0.2442   -0.8306 C   0  0  0  0  0  0  0  0  0  0  0  0
    1.0903   -0.4864   -2.8520 C   0  0  0  0  0  0  0  0  0  0  0  0
   -2.0618    2.1060   -1.2384 C   0  0  0  0  0  0  0  0  0  0  0  0
    1.9473    1.5865   -4.5031 C   0  0  0  0  0  0  0  0  0  0  0  0
   -3.2707   -0.2736   -0.6614 C   0  0  0  0  0  0  0  0  0  0  0  0
    1.6956   -0.7431   -4.1046 C   0  0  0  0  0  0  0  0  0  0  0  0
   -3.3832    2.1167   -0.8444 C   0  0  0  0  0  0  0  0  0  0  0  0
    3.8388    5.3480   -1.3593 C   0  0  0  0  0  0  0  0  0  0  0  0
    2.1617    0.3113   -4.9001 C   0  0  0  0  0  0  0  0  0  0  0  0
   -4.0061    0.9080   -0.5983 C   0  0  0  0  0  0  0  0  0  0  0  0
    4.7907    4.2282   -1.0349 C   0  0  0  0  0  0  0  0  0  0  0  0
    5.7623    4.5051   -0.0974 C   0  0  0  0  0  0  0  0  0  0  0  0
    4.4471    2.8733   -1.3070 C   0  0  0  0  0  0  0  0  0  0  0  0
    6.3032    3.4763    0.6578 C   0  0  0  0  0  0  0  0  0  0  0  0
    4.9889    1.8428   -0.5324 C   0  0  0  0  0  0  0  0  0  0  0  0
    5.9135    2.1521    0.4522 C   0  0  0  0  0  0  0  0  0  0  0  0
    1.6867   -0.1219   -0.2458 H   0  0  0  0  0  0  0  0  0  0  0  0
    2.6973    1.7920    0.1595 H   0  0  0  0  0  0  0  0  0  0  0  0
    1.7645    1.6277    1.5796 H   0  0  0  0  0  0  0  0  0  0  0  0
   -0.4462    2.2945    1.7656 H   0  0  0  0  0  0  0  0  0  0  0  0
   -1.3410    3.1647    0.5706 H   0  0  0  0  0  0  0  0  0  0  0  0
    1.7930    3.3003   -1.6731 H   0  0  0  0  0  0  0  0  0  0  0  0
    0.0480    3.5503   -1.9099 H   0  0  0  0  0  0  0  0  0  0  0  0
    2.3068    3.6736    2.3378 H   0  0  0  0  0  0  0  0  0  0  0  0
    3.3796    3.8940    1.0049 H   0  0  0  0  0  0  0  0  0  0  0  0
    0.1873    4.4545    2.5030 H   0  0  0  0  0  0  0  0  0  0  0  0
   -0.6812    5.1439    1.1041 H   0  0  0  0  0  0  0  0  0  0  0  0
    0.0443    5.4948   -0.7977 H   0  0  0  0  0  0  0  0  0  0  0  0
    1.5749    5.4389   -1.4233 H   0  0  0  0  0  0  0  0  0  0  0  0
    1.1781    6.9025    0.8102 H   0  0  0  0  0  0  0  0  0  0  0  0
    1.8498    6.1551    2.2790 H   0  0  0  0  0  0  0  0  0  0  0  0
    3.5404    7.5347    1.1576 H   0  0  0  0  0  0  0  0  0  0  0  0
    4.0586    5.8898    1.3025 H   0  0  0  0  0  0  0  0  0  0  0  0
    0.8884    2.8274   -3.3110 H   0  0  0  0  0  0  0  0  0  0  0  0
   -1.3156   -1.1632   -0.7578 H   0  0  0  0  0  0  0  0  0  0  0  0
    0.7159   -1.3430   -2.2867 H   0  0  0  0  0  0  0  0  0  0  0  0
   -1.6718    3.0775   -1.5084 H   0  0  0  0  0  0  0  0  0  0  0  0
    2.2644    2.4520   -5.0935 H   0  0  0  0  0  0  0  0  0  0  0  0
   -3.7692   -1.2288   -0.5264 H   0  0  0  0  0  0  0  0  0  0  0  0
    1.7936   -1.7553   -4.4644 H   0  0  0  0  0  0  0  0  0  0  0  0
   -3.8985    3.0630   -0.7094 H   0  0  0  0  0  0  0  0  0  0  0  0
    3.0500    4.8129   -0.9127 H   0  0  0  0  0  0  0  0  0  0  0  0
    3.5818    5.4830   -2.4156 H   0  0  0  0  0  0  0  0  0  0  0  0
    2.6265    0.1251   -5.8690 H   0  0  0  0  0  0  0  0  0  0  0  0
   -5.0648    0.8978   -0.3807 H   0  0  0  0  0  0  0  0  0  0  0  0
    5.9759    5.5424    0.1419 H   0  0  0  0  0  0  0  0  0  0  0  0
    3.6454    2.5925   -1.9893 H   0  0  0  0  0  0  0  0  0  0  0  0
    6.9968    3.7328    1.4473 H   0  0  0  0  0  0  0  0  0  0  0  0
    4.6140    0.8203   -0.6199 H   0  0  0  0  0  0  0  0  0  0  0  0
    6.3311    1.3629    1.0708 H   0  0  0  0  0  0  0  0  0  0  0  0
  1 11  1  0  0  0  0
  1 33  1  0  0  0  0
  2 15  1  0  0  0  0
  2 24  1  0  0  0  0
  3  8  1  0  0  0  0
  3  9  1  0  0  0  0
  3 10  1  0  0  0  0
  3 12  1  0  0  0  0
  4  5  1  0  0  0  0
  4  6  1  0  0  0  0
  4  7  1  0  0  0  0
  4 11  1  0  0  0  0
  5  8  1  0  0  0  0
  5 34  1  0  0  0  0
  5 35  1  0  0  0  0
  6  9  1  0  0  0  0
  6 36  1  0  0  0  0
  6 37  1  0  0  0  0
  7 10  1  0  0  0  0
  7 38  1  0  0  0  0
  7 39  1  0  0  0  0
  8 40  1  0  0  0  0
  8 41  1  0  0  0  0
  9 42  1  0  0  0  0
  9 43  1  0  0  0  0
 10 44  1  0  0  0  0
 10 45  1  0  0  0  0
 11 13  1  0  0  0  0
 11 14  1  0  0  0  0
 12 15  1  0  0  0  0
 12 46  1  0  0  0  0
 12 47  1  0  0  0  0
 13 16  2  0  0  0  0
 13 18  1  0  0  0  0
 14 17  2  0  0  0  0
 14 19  1  0  0  0  0
 15 48  1  0  0  0  0
 15 49  1  0  0  0  0
 16 20  1  0  0  0  0
 16 50  1  0  0  0  0
 17 21  1  0  0  0  0
 17 51  1  0  0  0  0
 18 22  2  0  0  0  0
 18 52  1  0  0  0  0
 19 23  2  0  0  0  0
 19 53  1  0  0  0  0
 20 25  2  0  0  0  0
 20 54  1  0  0  0  0
 21 26  2  0  0  0  0
 21 55  1  0  0  0  0
 22 25  1  0  0  0  0
 22 56  1  0  0  0  0
 23 26  1  0  0  0  0
 23 57  1  0  0  0  0
 24 27  1  0  0  0  0
 24 58  1  0  0  0  0
 24 59  1  0  0  0  0
 25 60  1  0  0  0  0
 26 61  1  0  0  0  0
 27 28  2  0  0  0  0
 27 29  1  0  0  0  0
 28 30  1  0  0  0  0
 28 62  1  0  0  0  0
 29 31  2  0  0  0  0
 29 63  1  0  0  0  0
 30 32  2  0  0  0  0
 30 64  1  0  0  0  0
 31 32  1  0  0  0  0
 31 65  1  0  0  0  0
 32 66  1  0  0  0  0
M  CHG  1   3   1
M  END
>  <DRUGBANK_ID>
DB09076

>  <COMMON_NAME>
Umeclidinium

>  <CAS_NUMBER>
869185-19-3

>  <UNII>
GE2T1418SV

>  <SYNONYMS>
1-[2-(benzyloxy)ethyl]-4-[hydroxy(diphenyl)methyl]-1-azoniabicyclo[2.2.2]octane; Umeclidinium

$$$$
