
 OpenBabel10282417183D

  2  0  0  0  0  0  0  0  0  0999 V2000
    0.8790   -0.8308   -0.5473 F   0  5  0  0  0  0  0  0  0  0  0  0
    1.2320    0.7574    0.6140 Na  0  3  0  0  0  0  0  0  0  0  0  0
M  CHG  2   1  -1   2   1
M  END
>  <DRUGBANK_ID>
DB09325

>  <COMMON_NAME>
Sodium fluoride

>  <CAS_NUMBER>
7681-49-4

>  <UNII>
8ZYQ1474W7

>  <SYNONYMS>
Sodium fluoride

$$$$
