
 OpenBabel10282417203D

 62 68  0  0  1  0  0  0  0  0999 V2000
    4.0605   -0.8289   -0.2150 C   0  0  0  0  0  0  0  0  0  0  0  0
   -1.9246    1.6294   -3.3943 C   0  0  0  0  0  0  0  0  0  0  0  0
   -2.0412    6.5120   -0.3449 C   0  0  0  0  0  0  0  0  0  0  0  0
   -2.6214    0.4372   -3.1290 C   0  0  0  0  0  0  0  0  0  0  0  0
   -2.5394    5.2211   -0.3740 C   0  0  0  0  0  0  0  0  0  0  0  0
   -0.7714   -2.6474    0.8936 C   0  0  0  0  0  0  0  0  0  0  0  0
    0.2622    1.5711    2.0200 C   0  0  0  0  0  0  0  0  0  0  0  0
   -2.0830   -2.6962    0.3349 C   0  0  0  0  0  0  0  0  0  0  0  0
   -0.9760    2.0914    1.9816 C   0  0  0  0  0  0  0  0  0  0  0  0
    0.9505    0.6491   -1.6966 C   0  0  0  0  0  0  0  0  0  0  0  0
   -2.5034    2.8379   -3.0383 C   0  0  0  0  0  0  0  0  0  0  0  0
   -2.5522    7.3671    0.6104 C   0  0  0  0  0  0  0  0  0  0  0  0
    2.1325   -0.3065   -1.5401 C   0  0  0  0  0  0  0  0  0  0  0  0
    1.3986   -1.2730    1.3260 C   0  0  0  0  0  0  0  0  0  0  0  0
   -4.3601    1.7704   -2.1650 C   0  0  0  0  0  0  0  0  0  0  0  0
   -3.9327    5.7298    1.4819 C   0  0  0  0  0  0  0  0  0  0  0  0
    0.0607   -1.5343    0.6889 C   0  0  0  0  0  0  0  0  0  0  0  0
   -3.8608    0.5003   -2.4653 C   0  0  0  0  0  0  0  0  0  0  0  0
   -3.4652    4.8008    0.5752 C   0  0  0  0  0  0  0  0  0  0  0  0
    1.0681    1.2519    0.7645 C   0  0  1  0  0  0  0  0  0  0  0  0
    2.0941    0.0908    0.9072 C   0  0  2  0  0  0  0  0  0  0  0  0
   -2.5816   -1.5840   -0.3424 C   0  0  0  0  0  0  0  0  0  0  0  0
   -1.5851    2.5154    0.7011 C   0  0  1  0  0  0  0  0  0  0  0  0
   -0.4710   -0.4977   -0.0227 C   0  0  0  0  0  0  0  0  0  0  0  0
   -1.7807   -0.4851   -0.3797 C   0  0  0  0  0  0  0  0  0  0  0  0
   -1.1007    1.6528   -0.4614 C   0  0  1  0  0  0  0  0  0  0  0  0
   -4.5420   -0.6632   -1.8320 C   0  0  0  0  0  0  0  0  0  0  0  0
   -3.9616    3.4202    0.6829 C   0  0  0  0  0  0  0  0  0  0  0  0
    0.1612    0.8095   -0.3615 C   0  0  2  0  0  0  0  0  0  0  0  0
   -3.7046    2.9400   -2.4356 N   0  0  0  0  0  0  0  0  0  0  0  0
   -3.4879    7.0102    1.5217 N   0  0  0  0  0  0  0  0  0  0  0  0
    2.9027    0.0441   -0.3471 N   0  0  0  0  0  0  0  0  0  0  0  0
   -5.7372   -0.8137   -2.0751 O   0  0  0  0  0  0  0  0  0  0  0  0
   -5.1493    3.2090    0.7792 O   0  0  0  0  0  0  0  0  0  0  0  0
   -3.8692   -1.5626   -0.9499 O   0  0  0  0  0  0  0  0  0  0  0  0
   -3.0361    2.4354    0.8157 O   0  0  0  0  0  0  0  0  0  0  0  0
   -2.1788    0.7535   -0.7077 O   0  0  0  0  0  0  0  0  0  0  0  0
    1.5824    2.1775    0.4611 H   0  0  0  0  0  0  0  0  0  0  0  0
    2.7748    0.3825    1.7145 H   0  0  0  0  0  0  0  0  0  0  0  0
   -1.2409    3.5291    0.5295 H   0  0  0  0  0  0  0  0  0  0  0  0
   -0.9400    2.3452   -1.2830 H   0  0  0  0  0  0  0  0  0  0  0  0
    4.7029   -0.4672    0.5924 H   0  0  0  0  0  0  0  0  0  0  0  0
    3.7825   -1.8661   -0.0118 H   0  0  0  0  0  0  0  0  0  0  0  0
    4.6581   -0.8201   -1.1322 H   0  0  0  0  0  0  0  0  0  0  0  0
   -0.8616    1.6250   -3.6246 H   0  0  0  0  0  0  0  0  0  0  0  0
   -1.2760    6.8263   -1.0451 H   0  0  0  0  0  0  0  0  0  0  0  0
   -2.0725   -0.5033   -3.1586 H   0  0  0  0  0  0  0  0  0  0  0  0
   -2.1586    4.5367   -1.1123 H   0  0  0  0  0  0  0  0  0  0  0  0
   -0.4270   -3.4714    1.5146 H   0  0  0  0  0  0  0  0  0  0  0  0
    0.6919    1.3329    2.9823 H   0  0  0  0  0  0  0  0  0  0  0  0
   -2.7060   -3.5737    0.4914 H   0  0  0  0  0  0  0  0  0  0  0  0
   -1.5725    2.2593    2.8705 H   0  0  0  0  0  0  0  0  0  0  0  0
    1.3217    1.6274   -2.0351 H   0  0  0  0  0  0  0  0  0  0  0  0
    0.3413    0.2464   -2.5140 H   0  0  0  0  0  0  0  0  0  0  0  0
   -1.9093    3.7517   -3.0672 H   0  0  0  0  0  0  0  0  0  0  0  0
   -2.2130    8.3960    0.6659 H   0  0  0  0  0  0  0  0  0  0  0  0
    2.7587   -0.2355   -2.4412 H   0  0  0  0  0  0  0  0  0  0  0  0
    1.7764   -1.3442   -1.5094 H   0  0  0  0  0  0  0  0  0  0  0  0
    2.0529   -2.1248    1.1405 H   0  0  0  0  0  0  0  0  0  0  0  0
    1.2221   -1.2160    2.4059 H   0  0  0  0  0  0  0  0  0  0  0  0
   -5.2637    1.8907   -1.5678 H   0  0  0  0  0  0  0  0  0  0  0  0
   -4.6766    5.4636    2.2285 H   0  0  0  0  0  0  0  0  0  0  0  0
  1 42  1  0  0  0  0
  1 43  1  0  0  0  0
  1 44  1  0  0  0  0
  2 45  1  0  0  0  0
  3 46  1  0  0  0  0
  4  2  2  0  0  0  0
  4 47  1  0  0  0  0
  5  3  2  0  0  0  0
  5 48  1  0  0  0  0
  6 49  1  0  0  0  0
  7 50  1  0  0  0  0
  8  6  2  0  0  0  0
  8 51  1  0  0  0  0
  9  7  2  0  0  0  0
  9 52  1  0  0  0  0
 10 53  1  0  0  0  0
 10 54  1  0  0  0  0
 11  2  1  0  0  0  0
 11 55  1  0  0  0  0
 12  3  1  0  0  0  0
 12 56  1  0  0  0  0
 13 10  1  0  0  0  0
 13 57  1  0  0  0  0
 13 58  1  0  0  0  0
 14 59  1  0  0  0  0
 14 60  1  0  0  0  0
 15 61  1  0  0  0  0
 16 62  1  0  0  0  0
 17  6  1  0  0  0  0
 17 14  1  0  0  0  0
 18  4  1  0  0  0  0
 18 15  2  0  0  0  0
 19  5  1  0  0  0  0
 19 16  2  0  0  0  0
 20  7  1  0  0  0  0
 20 38  1  6  0  0  0
 21 14  1  0  0  0  0
 21 20  1  0  0  0  0
 21 39  1  1  0  0  0
 22  8  1  0  0  0  0
 23  9  1  0  0  0  0
 23 40  1  6  0  0  0
 23 36  1  0  0  0  0
 24 17  2  0  0  0  0
 25 22  2  0  0  0  0
 25 24  1  0  0  0  0
 26 23  1  0  0  0  0
 26 41  1  6  0  0  0
 27 18  1  0  0  0  0
 28 19  1  0  0  0  0
 29 10  1  0  0  0  0
 29 20  1  0  0  0  0
 29 24  1  1  0  0  0
 29 26  1  0  0  0  0
 30 11  2  0  0  0  0
 30 15  1  0  0  0  0
 31 12  2  0  0  0  0
 31 16  1  0  0  0  0
 32  1  1  0  0  0  0
 32 13  1  0  0  0  0
 32 21  1  0  0  0  0
 33 27  2  0  0  0  0
 34 28  2  0  0  0  0
 35 22  1  0  0  0  0
 35 27  1  0  0  0  0
 36 28  1  0  0  0  0
 37 25  1  0  0  0  0
 37 26  1  0  0  0  0
M  END
>  <DRUGBANK_ID>
DB13454

>  <COMMON_NAME>
Nicomorphine

>  <CAS_NUMBER>
639-48-5

>  <UNII>
Y95FRL95FW

>  <SYNONYMS>
Nicomorphine

$$$$
