
 OpenBabel10282417153D

 45 47  0  0  0  0  0  0  0  0999 V2000
    1.2424   -0.2602    0.1186 C   0  0  0  0  0  0  0  0  0  0  0  0
    0.7805    1.1574   -0.0493 C   0  0  0  0  0  0  0  0  0  0  0  0
    1.6120    1.6119   -1.4149 C   0  0  0  0  0  0  0  0  0  0  0  0
   -0.8861    1.0083    0.2010 C   0  0  0  0  0  0  0  0  0  0  0  0
    1.1021    2.2362    0.9369 C   0  0  0  0  0  0  0  0  0  0  0  0
    0.8237    3.6121    0.9325 C   0  0  0  0  0  0  0  0  0  0  0  0
    1.2328    4.1330    2.1482 N   0  0  0  0  0  0  0  0  0  0  0  0
    1.6929    3.1193    2.8588 C   0  0  0  0  0  0  0  0  0  0  0  0
    1.6518    1.9531    2.1564 N   0  0  0  0  0  0  0  0  0  0  0  0
    0.2402    4.5065   -0.1107 C   0  0  0  0  0  0  0  0  0  0  0  0
   -0.3900    4.2077   -1.2922 C   0  0  0  0  0  0  0  0  0  0  0  0
   -0.7281    5.0959   -2.4478 C   0  0  0  0  0  0  0  0  0  0  0  0
   -0.5721    6.2927   -2.4145 O   0  0  0  0  0  0  0  0  0  0  0  0
   -1.1938    4.4058   -3.5843 N   0  0  0  0  0  0  0  0  0  0  0  0
   -1.4308    3.0415   -3.6974 C   0  0  0  0  0  0  0  0  0  0  0  0
   -2.0170    2.3239   -4.6599 C   0  0  0  0  0  0  0  0  0  0  0  0
   -2.5762    3.0256   -5.7647 C   0  0  0  0  0  0  0  0  0  0  0  0
   -1.7207    3.8165   -6.5263 C   0  0  0  0  0  0  0  0  0  0  0  0
   -2.2758    4.7899   -7.3223 C   0  0  0  0  0  0  0  0  0  0  0  0
   -3.6616    4.8294   -7.4796 C   0  0  0  0  0  0  0  0  0  0  0  0
   -4.4964    3.9201   -6.8205 C   0  0  0  0  0  0  0  0  0  0  0  0
   -3.9581    3.0518   -5.8944 C   0  0  0  0  0  0  0  0  0  0  0  0
   -1.0535    2.1829   -2.6149 C   0  0  0  0  0  0  0  0  0  0  0  0
   -1.0152    0.9713   -2.6616 O   0  0  0  0  0  0  0  0  0  0  0  0
   -0.6730    2.9279   -1.5612 N   0  0  0  0  0  0  0  0  0  0  0  0
    0.8437   -0.8276   -0.7372 H   0  0  0  0  0  0  0  0  0  0  0  0
    0.8525   -0.7032    1.0326 H   0  0  0  0  0  0  0  0  0  0  0  0
    2.3293   -0.3241    0.0949 H   0  0  0  0  0  0  0  0  0  0  0  0
    1.3277    1.0402   -2.3031 H   0  0  0  0  0  0  0  0  0  0  0  0
    1.5776    2.6762   -1.7022 H   0  0  0  0  0  0  0  0  0  0  0  0
    2.6971    1.4971   -1.2875 H   0  0  0  0  0  0  0  0  0  0  0  0
   -1.1267    0.5924    1.1817 H   0  0  0  0  0  0  0  0  0  0  0  0
   -1.4518    1.9641    0.2717 H   0  0  0  0  0  0  0  0  0  0  0  0
   -1.3798    0.4018   -0.5584 H   0  0  0  0  0  0  0  0  0  0  0  0
    2.0630    3.1425    3.8773 H   0  0  0  0  0  0  0  0  0  0  0  0
    1.9228    1.0357    2.4908 H   0  0  0  0  0  0  0  0  0  0  0  0
    0.3943    5.5617    0.1042 H   0  0  0  0  0  0  0  0  0  0  0  0
   -1.3941    4.9905   -4.3788 H   0  0  0  0  0  0  0  0  0  0  0  0
   -2.2075    1.2485   -4.6002 H   0  0  0  0  0  0  0  0  0  0  0  0
   -0.6419    3.7418   -6.3942 H   0  0  0  0  0  0  0  0  0  0  0  0
   -1.6288    5.5142   -7.8032 H   0  0  0  0  0  0  0  0  0  0  0  0
   -4.0967    5.5804   -8.1276 H   0  0  0  0  0  0  0  0  0  0  0  0
   -5.5649    3.9109   -7.0013 H   0  0  0  0  0  0  0  0  0  0  0  0
   -4.5954    2.4431   -5.2540 H   0  0  0  0  0  0  0  0  0  0  0  0
   -0.2493    2.3814   -0.9049 H   0  0  0  0  0  0  0  0  0  0  0  0
  1  2  1  0  0  0  0
  1 26  1  0  0  0  0
  1 27  1  0  0  0  0
  1 28  1  0  0  0  0
  2  3  1  0  0  0  0
  2  4  1  0  0  0  0
  2  5  1  0  0  0  0
  3 29  1  0  0  0  0
  3 30  1  0  0  0  0
  3 31  1  0  0  0  0
  4 32  1  0  0  0  0
  4 33  1  0  0  0  0
  4 34  1  0  0  0  0
  5  6  2  0  0  0  0
  5  9  1  0  0  0  0
  6  7  1  0  0  0  0
  6 10  1  0  0  0  0
  7  8  2  0  0  0  0
  8  9  1  0  0  0  0
  8 35  1  0  0  0  0
  9 36  1  0  0  0  0
 10 11  2  0  0  0  0
 10 37  1  0  0  0  0
 11 12  1  0  0  0  0
 11 25  1  0  0  0  0
 12 13  2  0  0  0  0
 12 14  1  0  0  0  0
 14 15  1  0  0  0  0
 14 38  1  0  0  0  0
 15 16  2  0  0  0  0
 15 23  1  0  0  0  0
 16 17  1  0  0  0  0
 16 39  1  0  0  0  0
 17 18  2  0  0  0  0
 17 22  1  0  0  0  0
 18 19  1  0  0  0  0
 18 40  1  0  0  0  0
 19 20  2  0  0  0  0
 19 41  1  0  0  0  0
 20 21  1  0  0  0  0
 20 42  1  0  0  0  0
 21 22  2  0  0  0  0
 21 43  1  0  0  0  0
 22 44  1  0  0  0  0
 23 24  2  0  0  0  0
 23 25  1  0  0  0  0
 25 45  1  0  0  0  0
M  END
>  <DRUGBANK_ID>
DB05992

>  <COMMON_NAME>
Plinabulin

>  <CAS_NUMBER>
714272-27-2

>  <UNII>
986FY7F8XR

>  <SYNONYMS>
Plinabulin

$$$$
