IQZ
 OpenBabel10282417123D

 34 37  0  0  0  0  0  0  0  0999 V2000
    3.1562    1.4328    0.1302 C   0  0  0  0  0  0  0  0  0  0  0  0
    1.9067    0.8003    0.2095 C   0  0  0  0  0  0  0  0  0  0  0  0
    1.7223   -0.5508   -0.0914 C   0  0  0  0  0  0  0  0  0  0  0  0
    2.8402   -1.3000   -0.5102 C   0  0  0  0  0  0  0  0  0  0  0  0
    4.0944   -0.6832   -0.6016 C   0  0  0  0  0  0  0  0  0  0  0  0
    4.2492    0.6626   -0.2798 C   0  0  0  0  0  0  0  0  0  0  0  0
    0.6834    1.2963    0.6029 N   0  0  0  0  0  0  0  0  0  0  0  0
   -0.2759    0.3122    0.5542 C   0  0  0  0  0  0  0  0  0  0  0  0
    0.3601   -0.8564    0.1935 C   0  0  0  0  0  0  0  0  0  0  0  0
   -1.7205    0.4835    0.9512 C   0  0  1  0  0  0  0  0  0  0  0  0
   -2.5041   -0.7518    0.6991 N   0  0  2  0  0  0  0  0  0  0  0  0
   -1.7507   -2.0309    0.9212 C   0  0  0  0  0  0  0  0  0  0  0  0
   -0.3589   -2.1110    0.2599 C   0  0  0  0  0  0  0  0  0  0  0  0
   -2.2762    1.7915    0.3302 C   0  0  0  0  0  0  0  0  0  0  0  0
   -2.8470    1.5432   -1.0577 C   0  0  0  0  0  0  0  0  0  0  0  0
   -3.9607    0.5173   -0.9539 C   0  0  0  0  0  0  0  0  0  0  0  0
   -3.3825   -0.8172   -0.4742 C   0  0  0  0  0  0  0  0  0  0  0  0
    0.1821   -3.1899   -0.0013 O   0  0  0  0  0  0  0  0  0  0  0  0
   -1.7263    0.6160    2.0424 H   0  0  0  0  0  0  0  0  0  0  0  0
    3.2870    2.4781    0.3930 H   0  0  0  0  0  0  0  0  0  0  0  0
    2.7319   -2.3552   -0.7452 H   0  0  0  0  0  0  0  0  0  0  0  0
    4.9564   -1.2682   -0.9131 H   0  0  0  0  0  0  0  0  0  0  0  0
    5.2356    1.1181   -0.3420 H   0  0  0  0  0  0  0  0  0  0  0  0
    0.5373    2.2494    0.9054 H   0  0  0  0  0  0  0  0  0  0  0  0
   -2.3449   -2.9002    0.6089 H   0  0  0  0  0  0  0  0  0  0  0  0
   -1.5618   -2.1487    1.9945 H   0  0  0  0  0  0  0  0  0  0  0  0
   -3.0343    2.2610    0.9719 H   0  0  0  0  0  0  0  0  0  0  0  0
   -1.4818    2.5421    0.2478 H   0  0  0  0  0  0  0  0  0  0  0  0
   -3.2147    2.4674   -1.5156 H   0  0  0  0  0  0  0  0  0  0  0  0
   -2.0487    1.1643   -1.7066 H   0  0  0  0  0  0  0  0  0  0  0  0
   -4.7572    0.8649   -0.2809 H   0  0  0  0  0  0  0  0  0  0  0  0
   -4.4327    0.3906   -1.9367 H   0  0  0  0  0  0  0  0  0  0  0  0
   -4.2353   -1.4731   -0.2420 H   0  0  0  0  0  0  0  0  0  0  0  0
   -2.8577   -1.2805   -1.3168 H   0  0  0  0  0  0  0  0  0  0  0  0
  1  2  1  0  0  0  0
  1  6  2  0  0  0  0
  1 20  1  0  0  0  0
  2  3  2  0  0  0  0
  2  7  1  0  0  0  0
  3  4  1  0  0  0  0
  3  9  1  0  0  0  0
  4  5  2  0  0  0  0
  4 21  1  0  0  0  0
  5  6  1  0  0  0  0
  5 22  1  0  0  0  0
  6 23  1  0  0  0  0
  7  8  1  0  0  0  0
  7 24  1  0  0  0  0
  8  9  2  0  0  0  0
  8 10  1  0  0  0  0
  9 13  1  0  0  0  0
 10 11  1  0  0  0  0
 10 14  1  0  0  0  0
 10 19  1  6  0  0  0
 11 12  1  6  0  0  0
 11 17  1  0  0  0  0
 12 13  1  0  0  0  0
 12 25  1  0  0  0  0
 12 26  1  0  0  0  0
 13 18  2  0  0  0  0
 14 15  1  0  0  0  0
 14 27  1  0  0  0  0
 14 28  1  0  0  0  0
 15 16  1  0  0  0  0
 15 29  1  0  0  0  0
 15 30  1  0  0  0  0
 16 17  1  0  0  0  0
 16 31  1  0  0  0  0
 16 32  1  0  0  0  0
 17 33  1  0  0  0  0
 17 34  1  0  0  0  0
M  END
>  <DRUGBANK_ID>
DB02191

>  <SECONDARY_ACCESSION_NUMBERS>
EXPT01928

>  <COMMON_NAME>
(7as,12ar,12bs)-1,2,3,4,7a,12,12a,12b-Octahydroindolo[2,3-a]Quinolizin-7(6h)-One

$$$$
