
 OpenBabel10282417203D

 48 47  0  0  0  0  0  0  0  0999 V2000
    1.3141   -0.7592    0.0019 C   0  0  0  0  0  0  0  0  0  0  0  0
    1.0729    0.6188   -0.5017 C   0  0  0  0  0  0  0  0  0  0  0  0
    1.4790    1.5491   -1.8203 N   0  0  0  0  0  0  0  0  0  0  0  0
    0.9957    3.1552   -2.4472 C   0  0  0  0  0  0  0  0  0  0  0  0
    1.5109    4.5688   -1.6352 C   0  0  0  0  0  0  0  0  0  0  0  0
    3.0784    4.9176   -1.1964 O   0  0  0  0  0  0  0  0  0  0  0  0
    4.4115    3.9710   -0.6113 N   0  3  0  0  0  0  0  0  0  0  0  0
    4.4029    3.2939    0.4471 O   0  0  0  0  0  0  0  0  0  0  0  0
    5.3540    3.9656   -1.4009 O   0  5  0  0  0  0  0  0  0  0  0  0
    2.8048    1.3427   -2.0201 C   0  0  0  0  0  0  0  0  0  0  0  0
    2.8352    2.2051   -0.7871 C   0  0  0  0  0  0  0  0  0  0  0  0
    2.4095    2.3680    0.7758 O   0  0  0  0  0  0  0  0  0  0  0  0
    1.0752    2.8073    1.7334 N   0  3  0  0  0  0  0  0  0  0  0  0
    0.2865    3.7500    1.5214 O   0  0  0  0  0  0  0  0  0  0  0  0
    1.0215    2.0884    2.7406 O   0  5  0  0  0  0  0  0  0  0  0  0
    0.4773   -1.7114   -0.7726 N   0  0  0  0  0  0  0  0  0  0  0  0
   -1.1382   -1.3666   -0.9546 C   0  0  0  0  0  0  0  0  0  0  0  0
   -2.0282   -0.0391   -1.9104 C   0  0  0  0  0  0  0  0  0  0  0  0
   -1.6670    0.4641   -3.6121 O   0  0  0  0  0  0  0  0  0  0  0  0
   -0.1756    1.0316   -4.4775 N   0  3  0  0  0  0  0  0  0  0  0  0
    0.9763    1.2011   -4.0955 O   0  0  0  0  0  0  0  0  0  0  0  0
   -0.3529    0.9991   -5.7527 O   0  5  0  0  0  0  0  0  0  0  0  0
    1.0665   -1.5480   -2.0503 C   0  0  0  0  0  0  0  0  0  0  0  0
    0.3951   -0.3351   -2.5960 C   0  0  0  0  0  0  0  0  0  0  0  0
   -0.4488    1.2155   -2.1258 O   0  0  0  0  0  0  0  0  0  0  0  0
   -0.6530    2.0917   -0.5965 N   0  3  0  0  0  0  0  0  0  0  0  0
   -1.1997    1.5308    0.3788 O   0  0  0  0  0  0  0  0  0  0  0  0
    0.0470    3.0530   -0.4970 O   0  5  0  0  0  0  0  0  0  0  0  0
    0.9514   -0.7720    1.0368 H   0  0  0  0  0  0  0  0  0  0  0  0
    2.4085   -0.7696   -0.0140 H   0  0  0  0  0  0  0  0  0  0  0  0
    0.0483    0.3442   -0.5583 H   0  0  0  0  0  0  0  0  0  0  0  0
    1.1805    1.1003    0.4128 H   0  0  0  0  0  0  0  0  0  0  0  0
    1.1485    3.2444   -3.5433 H   0  0  0  0  0  0  0  0  0  0  0  0
   -0.1503    3.2360   -2.5329 H   0  0  0  0  0  0  0  0  0  0  0  0
    1.0628    5.4029   -2.2462 H   0  0  0  0  0  0  0  0  0  0  0  0
    0.8708    4.8095   -0.7693 H   0  0  0  0  0  0  0  0  0  0  0  0
    3.1580    0.3232   -1.9229 H   0  0  0  0  0  0  0  0  0  0  0  0
    3.1543    1.7620   -2.9963 H   0  0  0  0  0  0  0  0  0  0  0  0
    3.8889    1.9454   -0.8843 H   0  0  0  0  0  0  0  0  0  0  0  0
    2.6428    3.1203   -1.2244 H   0  0  0  0  0  0  0  0  0  0  0  0
   -1.4717   -2.2417   -1.5180 H   0  0  0  0  0  0  0  0  0  0  0  0
   -1.5105   -1.3951    0.0794 H   0  0  0  0  0  0  0  0  0  0  0  0
   -3.1066   -0.2111   -1.8702 H   0  0  0  0  0  0  0  0  0  0  0  0
   -2.1315    0.8497   -1.2751 H   0  0  0  0  0  0  0  0  0  0  0  0
    2.1584   -1.4518   -2.1502 H   0  0  0  0  0  0  0  0  0  0  0  0
    0.8066   -2.3684   -2.7488 H   0  0  0  0  0  0  0  0  0  0  0  0
    0.7049   -0.5648   -3.6468 H   0  0  0  0  0  0  0  0  0  0  0  0
   -0.5112   -0.8131   -2.7386 H   0  0  0  0  0  0  0  0  0  0  0  0
  1  2  1  0  0  0  0
  1 16  1  0  0  0  0
  1 29  1  0  0  0  0
  1 30  1  0  0  0  0
  2  3  1  0  0  0  0
  2 31  1  0  0  0  0
  2 32  1  0  0  0  0
  3  4  1  0  0  0  0
  3 10  1  0  0  0  0
  4  5  1  0  0  0  0
  4 33  1  0  0  0  0
  4 34  1  0  0  0  0
  5  6  1  0  0  0  0
  5 35  1  0  0  0  0
  5 36  1  0  0  0  0
  6  7  1  0  0  0  0
  7  8  2  0  0  0  0
  7  9  1  0  0  0  0
 10 11  1  0  0  0  0
 10 37  1  0  0  0  0
 10 38  1  0  0  0  0
 11 12  1  0  0  0  0
 11 39  1  0  0  0  0
 11 40  1  0  0  0  0
 12 13  1  0  0  0  0
 13 14  2  0  0  0  0
 13 15  1  0  0  0  0
 16 17  1  0  0  0  0
 16 23  1  0  0  0  0
 17 18  1  0  0  0  0
 17 41  1  0  0  0  0
 17 42  1  0  0  0  0
 18 19  1  0  0  0  0
 18 43  1  0  0  0  0
 18 44  1  0  0  0  0
 19 20  1  0  0  0  0
 20 21  2  0  0  0  0
 20 22  1  0  0  0  0
 23 24  1  0  0  0  0
 23 45  1  0  0  0  0
 23 46  1  0  0  0  0
 24 25  1  0  0  0  0
 24 47  1  0  0  0  0
 24 48  1  0  0  0  0
 25 26  1  0  0  0  0
 26 27  2  0  0  0  0
 26 28  1  0  0  0  0
M  CHG  8   7   1   9  -1  13   1  15  -1  20   1  22  -1  26   1  28  -1
M  END
>  <DRUGBANK_ID>
DB13637

>  <COMMON_NAME>
Tenitramine

>  <CAS_NUMBER>
21946-79-2

>  <UNII>
CKB16BAQ3S

$$$$
