459
 OpenBabel10282417163D

 44 46  0  0  0  0  0  0  0  0999 V2000
   -1.8851   -2.0600   -0.7307 C   0  0  0  0  0  0  0  0  0  0  0  0
   -0.6204   -1.2096   -0.6630 C   0  0  2  0  0  0  0  0  0  0  0  0
   -0.4966   -0.3921   -1.9157 C   0  0  1  0  0  0  0  0  0  0  0  0
    0.3081    0.8148   -1.3994 C   0  0  1  0  0  0  0  0  0  0  0  0
   -0.5286    1.8282   -0.6548 C   0  0  0  0  0  0  0  0  0  0  0  0
    1.6984    0.6232   -0.8322 C   0  0  0  0  0  0  0  0  0  0  0  0
    1.7943   -0.6068    0.0114 C   0  0  0  0  0  0  0  0  0  0  0  0
    0.7848   -1.7602   -0.3392 C   0  0  1  0  0  0  0  0  0  0  0  0
    0.7124   -2.5176    1.0028 C   0  0  0  0  0  0  0  0  0  0  0  0
    1.7714   -3.4376    1.1543 O   0  0  0  0  0  0  0  0  0  0  0  0
    1.3865   -2.5121   -1.5676 C   0  0  0  0  0  0  0  0  0  0  0  0
    1.1586   -1.9963   -2.8937 O   0  0  0  0  0  0  0  0  0  0  0  0
    0.0678   -1.1118   -3.1807 C   0  0  2  0  0  0  0  0  0  0  0  0
    0.4642    0.1012   -4.1451 C   0  0  0  0  0  0  0  0  0  0  0  0
    1.8058    0.5170   -4.0244 C   0  0  0  0  0  0  0  0  0  0  0  0
    2.0890    1.8819   -3.7782 C   0  0  0  0  0  0  0  0  0  0  0  0
    1.0547    2.8292   -3.7889 C   0  0  0  0  0  0  0  0  0  0  0  0
    1.1944    3.9863   -3.0474 O   0  0  0  0  0  0  0  0  0  0  0  0
   -0.2408    2.4646   -4.1720 C   0  0  0  0  0  0  0  0  0  0  0  0
   -0.5390    1.0954   -4.4013 C   0  0  0  0  0  0  0  0  0  0  0  0
   -0.8538   -0.5258    0.1593 H   0  0  0  0  0  0  0  0  0  0  0  0
   -1.4894   -0.0391   -2.2212 H   0  0  0  0  0  0  0  0  0  0  0  0
    0.4858    1.4191   -2.2542 H   0  0  0  0  0  0  0  0  0  0  0  0
   -0.6842   -1.7070   -3.7253 H   0  0  0  0  0  0  0  0  0  0  0  0
   -2.5756   -1.6980   -1.5068 H   0  0  0  0  0  0  0  0  0  0  0  0
   -2.4407   -1.9179    0.2062 H   0  0  0  0  0  0  0  0  0  0  0  0
   -1.7075   -3.1194   -0.8928 H   0  0  0  0  0  0  0  0  0  0  0  0
   -0.0996    2.8198   -0.8243 H   0  0  0  0  0  0  0  0  0  0  0  0
   -1.5466    1.8429   -1.0547 H   0  0  0  0  0  0  0  0  0  0  0  0
   -0.5325    1.6249    0.4149 H   0  0  0  0  0  0  0  0  0  0  0  0
    2.5013    0.5621   -1.5691 H   0  0  0  0  0  0  0  0  0  0  0  0
    1.9635    1.5062   -0.2385 H   0  0  0  0  0  0  0  0  0  0  0  0
    2.8318   -0.9749   -0.0021 H   0  0  0  0  0  0  0  0  0  0  0  0
    1.6419   -0.2361    1.0287 H   0  0  0  0  0  0  0  0  0  0  0  0
    0.7949   -1.8069    1.8395 H   0  0  0  0  0  0  0  0  0  0  0  0
   -0.2473   -3.0093    1.1681 H   0  0  0  0  0  0  0  0  0  0  0  0
    1.6215   -4.1511    0.5142 H   0  0  0  0  0  0  0  0  0  0  0  0
    1.1572   -3.5850   -1.5500 H   0  0  0  0  0  0  0  0  0  0  0  0
    2.4831   -2.4871   -1.4881 H   0  0  0  0  0  0  0  0  0  0  0  0
    2.5257   -0.2156   -3.6502 H   0  0  0  0  0  0  0  0  0  0  0  0
    2.9998    2.0962   -3.2168 H   0  0  0  0  0  0  0  0  0  0  0  0
    1.9236    3.8644   -2.4156 H   0  0  0  0  0  0  0  0  0  0  0  0
   -1.0623    3.1595   -3.9709 H   0  0  0  0  0  0  0  0  0  0  0  0
   -1.5967    0.8217   -4.3878 H   0  0  0  0  0  0  0  0  0  0  0  0
  1 25  1  0  0  0  0
  1 26  1  0  0  0  0
  1 27  1  0  0  0  0
  2  3  1  0  0  0  0
  2  8  1  0  0  0  0
  2  1  1  0  0  0  0
  2 21  1  1  0  0  0
  3  4  1  0  0  0  0
  3 13  1  0  0  0  0
  3 22  1  6  0  0  0
  4  6  1  0  0  0  0
  4 23  1  6  0  0  0
  4  5  1  0  0  0  0
  5 28  1  0  0  0  0
  5 29  1  0  0  0  0
  5 30  1  0  0  0  0
  6  7  1  0  0  0  0
  6 31  1  0  0  0  0
  6 32  1  0  0  0  0
  7  8  1  0  0  0  0
  7 33  1  0  0  0  0
  7 34  1  0  0  0  0
  8 11  1  0  0  0  0
  8  9  1  1  0  0  0
  9 10  1  0  0  0  0
  9 35  1  0  0  0  0
  9 36  1  0  0  0  0
 10 37  1  0  0  0  0
 11 12  1  0  0  0  0
 11 38  1  0  0  0  0
 11 39  1  0  0  0  0
 12 13  1  0  0  0  0
 13 24  1  6  0  0  0
 13 14  1  0  0  0  0
 14 15  1  0  0  0  0
 14 20  2  0  0  0  0
 15 16  2  0  0  0  0
 15 40  1  0  0  0  0
 16 17  1  0  0  0  0
 16 41  1  0  0  0  0
 17 18  1  0  0  0  0
 17 19  2  0  0  0  0
 18 42  1  0  0  0  0
 19 20  1  0  0  0  0
 19 43  1  0  0  0  0
 20 44  1  0  0  0  0
M  END
>  <DRUGBANK_ID>
DB07087

>  <COMMON_NAME>
4-[(1S,2S,5S,9R)-5-(HYDROXYMETHYL)-8,9-DIMETHYL-3-OXABICYCLO[3.3.1]NON-7-EN-2-YL]PHENOL

$$$$
