L05
 OpenBabel10282417173D

 49 52  0  0  0  0  0  0  0  0999 V2000
    1.0947    0.0398    0.0464 C   0  0  0  0  0  0  0  0  0  0  0  0
    0.5417    0.9163   -0.9235 O   0  0  0  0  0  0  0  0  0  0  0  0
    0.9635    2.2131   -0.8634 C   0  0  0  0  0  0  0  0  0  0  0  0
    2.2732    2.6313   -0.6274 C   0  0  0  0  0  0  0  0  0  0  0  0
    2.6076    3.9980   -0.6860 C   0  0  0  0  0  0  0  0  0  0  0  0
    1.6435    4.9549   -1.0177 C   0  0  0  0  0  0  0  0  0  0  0  0
    1.9178    6.3331   -0.9576 N   0  0  0  0  0  0  0  0  0  0  0  0
    0.9817    7.3411   -1.0931 C   0  0  0  0  0  0  0  0  0  0  0  0
   -0.1616    7.6046   -0.4411 C   0  0  0  0  0  0  0  0  0  0  0  0
   -0.8592    8.6979   -1.1452 C   0  0  0  0  0  0  0  0  0  0  0  0
   -1.9714    9.0987   -0.8773 O   0  0  0  0  0  0  0  0  0  0  0  0
   -0.0380    9.1128   -2.1481 N   0  0  0  0  0  0  0  0  0  0  0  0
   -0.3875   10.1831   -3.0717 C   0  0  0  0  0  0  0  0  0  0  0  0
    0.5966   11.3324   -3.0283 C   0  0  0  0  0  0  0  0  0  0  0  0
    1.9289   11.1226   -3.4116 C   0  0  0  0  0  0  0  0  0  0  0  0
    2.8777   12.1326   -3.3759 C   0  0  0  0  0  0  0  0  0  0  0  0
    2.4818   13.4183   -3.0533 C   0  0  0  0  0  0  0  0  0  0  0  0
    1.1445   13.6746   -2.7454 C   0  0  0  0  0  0  0  0  0  0  0  0
    0.2145   12.6298   -2.6729 C   0  0  0  0  0  0  0  0  0  0  0  0
    1.0364    8.2847   -2.2311 C   0  0  0  0  0  0  0  0  0  0  0  0
    1.9065    8.2047   -3.0852 O   0  0  0  0  0  0  0  0  0  0  0  0
   -0.6687    6.7868    0.6562 C   0  0  0  0  0  0  0  0  0  0  0  0
   -1.8700    6.0815    0.5113 C   0  0  0  0  0  0  0  0  0  0  0  0
   -2.1992    5.0706    1.4146 C   0  0  0  0  0  0  0  0  0  0  0  0
   -1.3356    4.7643    2.4657 C   0  0  0  0  0  0  0  0  0  0  0  0
   -0.1468    5.4724    2.6234 C   0  0  0  0  0  0  0  0  0  0  0  0
    0.1624    6.5133    1.7518 C   0  0  0  0  0  0  0  0  0  0  0  0
    0.3643    4.4900   -1.3429 C   0  0  0  0  0  0  0  0  0  0  0  0
    0.0046    3.1549   -1.1999 C   0  0  0  0  0  0  0  0  0  0  0  0
    0.7171   -0.9652   -0.1686 H   0  0  0  0  0  0  0  0  0  0  0  0
    0.7539    0.3238    1.0463 H   0  0  0  0  0  0  0  0  0  0  0  0
    2.1853   -0.0097    0.0017 H   0  0  0  0  0  0  0  0  0  0  0  0
    3.0588    1.9132   -0.4206 H   0  0  0  0  0  0  0  0  0  0  0  0
    3.6372    4.2899   -0.4945 H   0  0  0  0  0  0  0  0  0  0  0  0
    2.8847    6.6273   -0.8783 H   0  0  0  0  0  0  0  0  0  0  0  0
   -0.4208    9.7875   -4.0947 H   0  0  0  0  0  0  0  0  0  0  0  0
   -1.3979   10.5494   -2.8432 H   0  0  0  0  0  0  0  0  0  0  0  0
    2.2655   10.1594   -3.7689 H   0  0  0  0  0  0  0  0  0  0  0  0
    3.9056   11.8997   -3.6376 H   0  0  0  0  0  0  0  0  0  0  0  0
    3.2144   14.2186   -3.0605 H   0  0  0  0  0  0  0  0  0  0  0  0
    0.8266   14.6989   -2.5727 H   0  0  0  0  0  0  0  0  0  0  0  0
   -0.8050   12.8494   -2.3615 H   0  0  0  0  0  0  0  0  0  0  0  0
   -2.5146    6.2549   -0.3482 H   0  0  0  0  0  0  0  0  0  0  0  0
   -3.1049    4.4884    1.2689 H   0  0  0  0  0  0  0  0  0  0  0  0
   -1.5837    3.9654    3.1585 H   0  0  0  0  0  0  0  0  0  0  0  0
    0.5600    5.1894    3.3982 H   0  0  0  0  0  0  0  0  0  0  0  0
    1.0923    7.0609    1.8880 H   0  0  0  0  0  0  0  0  0  0  0  0
   -0.3944    5.1742   -1.7047 H   0  0  0  0  0  0  0  0  0  0  0  0
   -1.0307    2.8658   -1.3526 H   0  0  0  0  0  0  0  0  0  0  0  0
  1  2  1  0  0  0  0
  1 30  1  0  0  0  0
  1 31  1  0  0  0  0
  1 32  1  0  0  0  0
  2  3  1  0  0  0  0
  3  4  2  0  0  0  0
  3 29  1  0  0  0  0
  4  5  1  0  0  0  0
  4 33  1  0  0  0  0
  5  6  2  0  0  0  0
  5 34  1  0  0  0  0
  6  7  1  0  0  0  0
  6 28  1  0  0  0  0
  7  8  1  0  0  0  0
  7 35  1  0  0  0  0
  8  9  2  0  0  0  0
  8 20  1  0  0  0  0
  9 10  1  0  0  0  0
  9 22  1  0  0  0  0
 10 11  2  0  0  0  0
 10 12  1  0  0  0  0
 12 13  1  0  0  0  0
 12 20  1  0  0  0  0
 13 14  1  0  0  0  0
 13 36  1  0  0  0  0
 13 37  1  0  0  0  0
 14 15  2  0  0  0  0
 14 19  1  0  0  0  0
 15 16  1  0  0  0  0
 15 38  1  0  0  0  0
 16 17  2  0  0  0  0
 16 39  1  0  0  0  0
 17 18  1  0  0  0  0
 17 40  1  0  0  0  0
 18 19  2  0  0  0  0
 18 41  1  0  0  0  0
 19 42  1  0  0  0  0
 20 21  2  0  0  0  0
 22 23  2  0  0  0  0
 22 27  1  0  0  0  0
 23 24  1  0  0  0  0
 23 43  1  0  0  0  0
 24 25  2  0  0  0  0
 24 44  1  0  0  0  0
 25 26  1  0  0  0  0
 25 45  1  0  0  0  0
 26 27  2  0  0  0  0
 26 46  1  0  0  0  0
 27 47  1  0  0  0  0
 28 29  2  0  0  0  0
 28 48  1  0  0  0  0
 29 49  1  0  0  0  0
M  END
>  <DRUGBANK_ID>
DB08063

>  <COMMON_NAME>
1-BENZYL-3-(4-METHOXYPHENYLAMINO)-4-PHENYLPYRROLE-2,5-DIONE

$$$$
