864
 OpenBabel10282417163D

 60 61  0  0  0  0  0  0  0  0999 V2000
   -2.0231   -3.8444   -3.6820 C   0  0  2  0  0  0  0  0  0  0  0  0
   -2.0399   -4.8532   -2.5103 C   0  0  0  0  0  0  0  0  0  0  0  0
   -2.9907   -4.2295   -4.7822 C   0  0  0  0  0  0  0  0  0  0  0  0
   -2.9111   -3.6586   -6.0609 C   0  0  0  0  0  0  0  0  0  0  0  0
   -3.9114   -3.8633   -6.9967 C   0  0  0  0  0  0  0  0  0  0  0  0
   -4.9706   -4.7044   -6.6945 C   0  0  0  0  0  0  0  0  0  0  0  0
   -5.0756   -5.2910   -5.4297 C   0  0  0  0  0  0  0  0  0  0  0  0
   -4.0877   -5.0445   -4.4814 C   0  0  0  0  0  0  0  0  0  0  0  0
   -6.2715   -6.1154   -5.0574 C   0  0  0  0  0  0  0  0  0  0  0  0
   -7.4836   -5.3176   -5.1794 N   0  0  0  0  0  0  0  0  0  0  0  0
   -1.5325   -6.0639   -2.8311 O   0  0  0  0  0  0  0  0  0  0  0  0
   -2.5889   -4.7083   -1.4253 O   0  0  0  0  0  0  0  0  0  0  0  0
   -0.5896   -3.5162   -4.2051 C   0  0  0  0  0  0  0  0  0  0  0  0
    0.2603   -2.4563   -3.0981 P   0  0  1  0  0  0  0  0  0  0  0  0
    1.3200   -1.3313   -2.2068 C   0  0  2  0  0  0  0  0  0  0  0  0
    1.1566    0.1802   -2.5794 C   0  0  0  0  0  0  0  0  0  0  0  0
    0.7609    0.4741   -4.0355 C   0  0  0  0  0  0  0  0  0  0  0  0
    0.0465    0.7781   -1.7187 C   0  0  0  0  0  0  0  0  0  0  0  0
    2.7219   -1.7773   -2.1777 N   0  0  0  0  0  0  0  0  0  0  0  0
    3.4650   -2.1423   -1.0850 C   0  0  0  0  0  0  0  0  0  0  0  0
    4.6603   -2.4166   -1.2205 O   0  0  0  0  0  0  0  0  0  0  0  0
    2.7935   -2.1576    0.0923 O   0  0  0  0  0  0  0  0  0  0  0  0
    3.5424   -2.5365    1.2652 C   0  0  0  0  0  0  0  0  0  0  0  0
   -0.4629   -3.0229   -1.8518 O   0  0  0  0  0  0  0  0  0  0  0  0
    1.0683   -1.8231   -4.4906 O   0  0  0  0  0  0  0  0  0  0  0  0
    4.0195   -3.9682    1.2379 C   0  0  0  0  0  0  0  0  0  0  0  0
    3.1092   -5.0313    1.2064 C   0  0  0  0  0  0  0  0  0  0  0  0
    3.5706   -6.3479    1.2446 C   0  0  0  0  0  0  0  0  0  0  0  0
    4.9404   -6.6115    1.2232 C   0  0  0  0  0  0  0  0  0  0  0  0
    5.8533   -5.5600    1.2238 C   0  0  0  0  0  0  0  0  0  0  0  0
    5.3945   -4.2449    1.2471 C   0  0  0  0  0  0  0  0  0  0  0  0
   -2.4403   -2.9118   -3.2652 H   0  0  0  0  0  0  0  0  0  0  0  0
    1.0093   -1.3993   -1.1557 H   0  0  0  0  0  0  0  0  0  0  0  0
   -2.0963   -3.0139   -6.3674 H   0  0  0  0  0  0  0  0  0  0  0  0
   -3.8738   -3.3368   -7.9447 H   0  0  0  0  0  0  0  0  0  0  0  0
   -5.7447   -4.8759   -7.4355 H   0  0  0  0  0  0  0  0  0  0  0  0
   -4.2051   -5.4786   -3.4894 H   0  0  0  0  0  0  0  0  0  0  0  0
   -6.3145   -6.9944   -5.7070 H   0  0  0  0  0  0  0  0  0  0  0  0
   -6.1824   -6.4765   -4.0252 H   0  0  0  0  0  0  0  0  0  0  0  0
   -8.2783   -5.8626   -4.8604 H   0  0  0  0  0  0  0  0  0  0  0  0
   -7.4036   -4.5153   -4.5541 H   0  0  0  0  0  0  0  0  0  0  0  0
   -1.7259   -6.6004   -2.0316 H   0  0  0  0  0  0  0  0  0  0  0  0
   -0.0551   -4.4452   -4.4298 H   0  0  0  0  0  0  0  0  0  0  0  0
   -0.6739   -2.9688   -5.1382 H   0  0  0  0  0  0  0  0  0  0  0  0
    2.0958    0.7051   -2.3717 H   0  0  0  0  0  0  0  0  0  0  0  0
   -0.1708   -0.0583   -4.2877 H   0  0  0  0  0  0  0  0  0  0  0  0
    0.5525    1.5195   -4.2497 H   0  0  0  0  0  0  0  0  0  0  0  0
    1.5766    0.1949   -4.7135 H   0  0  0  0  0  0  0  0  0  0  0  0
    0.3320    0.7847   -0.6640 H   0  0  0  0  0  0  0  0  0  0  0  0
   -0.1579    1.8069   -2.0279 H   0  0  0  0  0  0  0  0  0  0  0  0
   -0.8791    0.2000   -1.8250 H   0  0  0  0  0  0  0  0  0  0  0  0
    3.2359   -1.7884   -3.0454 H   0  0  0  0  0  0  0  0  0  0  0  0
    4.3705   -1.8346    1.4326 H   0  0  0  0  0  0  0  0  0  0  0  0
    2.8835   -2.4238    2.1379 H   0  0  0  0  0  0  0  0  0  0  0  0
    1.4159   -2.5090   -5.0991 H   0  0  0  0  0  0  0  0  0  0  0  0
    2.0402   -4.8358    1.1476 H   0  0  0  0  0  0  0  0  0  0  0  0
    2.8617   -7.1698    1.2922 H   0  0  0  0  0  0  0  0  0  0  0  0
    5.2967   -7.6373    1.1970 H   0  0  0  0  0  0  0  0  0  0  0  0
    6.9213   -5.7588    1.2084 H   0  0  0  0  0  0  0  0  0  0  0  0
    6.1150   -3.4295    1.2396 H   0  0  0  0  0  0  0  0  0  0  0  0
  1  3  1  0  0  0  0
  1 13  1  0  0  0  0
  1  2  1  0  0  0  0
  1 32  1  1  0  0  0
  2 12  2  0  0  0  0
  2 11  1  0  0  0  0
  3  8  2  0  0  0  0
  3  4  1  0  0  0  0
  4  5  2  0  0  0  0
  4 34  1  0  0  0  0
  5  6  1  0  0  0  0
  5 35  1  0  0  0  0
  6  7  2  0  0  0  0
  6 36  1  0  0  0  0
  7  9  1  0  0  0  0
  7  8  1  0  0  0  0
  8 37  1  0  0  0  0
  9 10  1  0  0  0  0
  9 38  1  0  0  0  0
  9 39  1  0  0  0  0
 10 40  1  0  0  0  0
 10 41  1  0  0  0  0
 11 42  1  0  0  0  0
 13 43  1  0  0  0  0
 13 44  1  0  0  0  0
 14 25  1  0  0  0  0
 14 24  2  1  0  0  0
 14 13  1  0  0  0  0
 15 19  1  0  0  0  0
 15 33  1  1  0  0  0
 15 16  1  0  0  0  0
 15 14  1  0  0  0  0
 16 17  1  0  0  0  0
 16 18  1  0  0  0  0
 16 45  1  0  0  0  0
 17 46  1  0  0  0  0
 17 47  1  0  0  0  0
 17 48  1  0  0  0  0
 18 49  1  0  0  0  0
 18 50  1  0  0  0  0
 18 51  1  0  0  0  0
 19 20  1  0  0  0  0
 19 52  1  0  0  0  0
 20 21  2  0  0  0  0
 20 22  1  0  0  0  0
 22 23  1  0  0  0  0
 23 26  1  0  0  0  0
 23 53  1  0  0  0  0
 23 54  1  0  0  0  0
 25 55  1  0  0  0  0
 26 31  2  0  0  0  0
 26 27  1  0  0  0  0
 27 28  2  0  0  0  0
 27 56  1  0  0  0  0
 28 29  1  0  0  0  0
 28 57  1  0  0  0  0
 29 30  2  0  0  0  0
 29 58  1  0  0  0  0
 30 31  1  0  0  0  0
 30 59  1  0  0  0  0
 31 60  1  0  0  0  0
M  END
>  <DRUGBANK_ID>
DB07269

>  <COMMON_NAME>
(2S)-2-[3-(AMINOMETHYL)PHENYL]-3-[(R)-[(1R)-1-{[(BENZYLOXY)CARBONYL]AMINO}-2-METHYLPROPYL](HYDROXY)PHOSPHORYL]PROPANOIC ACID

$$$$
