
 OpenBabel10282417223D

 48 52  0  0  1  0  0  0  0  0999 V2000
    0.8749   -0.0331    0.0009 O   0  0  0  0  0  0  0  0  0  0  0  0
    0.5646    1.1564    0.6730 N   0  0  0  0  0  0  0  0  0  0  0  0
    1.4509    2.0129    1.2551 C   0  0  0  0  0  0  0  0  0  0  0  0
    1.0543    2.9749    1.9239 O   0  0  0  0  0  0  0  0  0  0  0  0
    2.8965    1.8030    1.1155 C   0  0  0  0  0  0  0  0  0  0  0  0
    3.5132    1.4785   -0.0682 C   0  0  0  0  0  0  0  0  0  0  0  0
    4.8484    1.2697   -0.1900 N   0  0  0  0  0  0  0  0  0  0  0  0
    5.5994    1.3658    0.9263 C   0  0  0  0  0  0  0  0  0  0  0  0
    5.0771    1.6865    2.1208 N   0  0  0  0  0  0  0  0  0  0  0  0
    3.7483    1.9447    2.1836 C   0  0  0  0  0  0  0  0  0  0  0  0
    6.9464    1.1917    0.8573 N   0  0  0  0  0  0  0  0  0  0  0  0
    7.7619    1.8725   -0.1282 C   0  0  0  0  0  0  0  0  0  0  0  0
    8.8730    0.8971   -0.3917 C   0  0  1  0  0  0  0  0  0  0  0  0
    8.7867   -0.2211    0.5842 C   0  0  1  0  0  0  0  0  0  0  0  0
    7.6242    0.0778    1.5120 C   0  0  0  0  0  0  0  0  0  0  0  0
    8.4799   -0.4790   -0.8695 C   0  0  2  0  0  0  0  0  0  0  0  0
    9.3090   -1.2213   -1.8296 N   0  0  0  0  0  0  0  0  0  0  0  0
    8.9615   -0.8216   -3.2183 C   0  0  0  0  0  0  0  0  0  0  0  0
    9.4437    0.5818   -3.5347 C   0  0  0  0  0  0  0  0  0  0  0  0
   10.7845    0.7669   -3.6416 N   0  0  0  0  0  0  0  0  0  0  0  0
   11.2391    2.0253   -3.7226 C   0  0  0  0  0  0  0  0  0  0  0  0
   12.5719    2.2543   -4.0302 C   0  0  0  0  0  0  0  0  0  0  0  0
   13.0619    3.5526   -4.1924 C   0  0  0  0  0  0  0  0  0  0  0  0
   12.2155    4.6345   -3.9932 C   0  0  0  0  0  0  0  0  0  0  0  0
   12.6719    5.8782   -4.1817 F   0  0  0  0  0  0  0  0  0  0  0  0
   10.8904    4.4451   -3.6377 C   0  0  0  0  0  0  0  0  0  0  0  0
   10.3942    3.1429   -3.5371 C   0  0  0  0  0  0  0  0  0  0  0  0
    9.0363    2.9223   -3.3366 C   0  0  0  0  0  0  0  0  0  0  0  0
    8.5390    1.6377   -3.4789 C   0  0  0  0  0  0  0  0  0  0  0  0
    1.8019   -0.2438    0.1992 H   0  0  0  0  0  0  0  0  0  0  0  0
   -0.4267    1.3079    0.8520 H   0  0  0  0  0  0  0  0  0  0  0  0
    2.9434    1.3700   -0.9878 H   0  0  0  0  0  0  0  0  0  0  0  0
    3.3935    2.2674    3.1592 H   0  0  0  0  0  0  0  0  0  0  0  0
    7.2274    2.1150   -1.0500 H   0  0  0  0  0  0  0  0  0  0  0  0
    8.1522    2.7963    0.3114 H   0  0  0  0  0  0  0  0  0  0  0  0
    9.8278    1.3366   -0.6396 H   0  0  0  0  0  0  0  0  0  0  0  0
    9.6742   -0.6105    1.0576 H   0  0  0  0  0  0  0  0  0  0  0  0
    7.9771    0.4002    2.4964 H   0  0  0  0  0  0  0  0  0  0  0  0
    7.0016   -0.8172    1.6146 H   0  0  0  0  0  0  0  0  0  0  0  0
    7.4200   -0.6218   -1.0772 H   0  0  0  0  0  0  0  0  0  0  0  0
   10.3155   -1.0927   -1.7103 H   0  0  0  0  0  0  0  0  0  0  0  0
    9.3987   -1.5228   -3.9360 H   0  0  0  0  0  0  0  0  0  0  0  0
    7.8734   -0.8824   -3.3592 H   0  0  0  0  0  0  0  0  0  0  0  0
   13.2289    1.4030   -4.1916 H   0  0  0  0  0  0  0  0  0  0  0  0
   14.0914    3.7207   -4.4888 H   0  0  0  0  0  0  0  0  0  0  0  0
   10.2419    5.3073   -3.5186 H   0  0  0  0  0  0  0  0  0  0  0  0
    8.3620    3.7374   -3.0878 H   0  0  0  0  0  0  0  0  0  0  0  0
    7.4691    1.4602   -3.4493 H   0  0  0  0  0  0  0  0  0  0  0  0
  1  2  1  0  0  0  0
  1 30  1  0  0  0  0
  2  3  1  0  0  0  0
  2 31  1  0  0  0  0
  3  4  2  0  0  0  0
  3  5  1  0  0  0  0
  5  6  2  0  0  0  0
  5 10  1  0  0  0  0
  6  7  1  0  0  0  0
  6 32  1  0  0  0  0
  7  8  2  0  0  0  0
  8  9  1  0  0  0  0
  8 11  1  0  0  0  0
  9 10  2  0  0  0  0
 10 33  1  0  0  0  0
 11 12  1  0  0  0  0
 11 15  1  0  0  0  0
 12 34  1  0  0  0  0
 12 35  1  0  0  0  0
 13 12  1  0  0  0  0
 13 14  1  0  0  0  0
 13 16  1  0  0  0  0
 13 36  1  6  0  0  0
 14 15  1  0  0  0  0
 14 16  1  0  0  0  0
 14 37  1  1  0  0  0
 15 38  1  0  0  0  0
 15 39  1  0  0  0  0
 16 17  1  0  0  0  0
 16 40  1  6  0  0  0
 17 18  1  0  0  0  0
 17 41  1  0  0  0  0
 18 19  1  0  0  0  0
 18 42  1  0  0  0  0
 18 43  1  0  0  0  0
 19 20  2  0  0  0  0
 19 29  1  0  0  0  0
 20 21  1  0  0  0  0
 21 22  2  0  0  0  0
 21 27  1  0  0  0  0
 22 23  1  0  0  0  0
 22 44  1  0  0  0  0
 23 24  2  0  0  0  0
 23 45  1  0  0  0  0
 24 25  1  0  0  0  0
 24 26  1  0  0  0  0
 26 27  2  0  0  0  0
 26 46  1  0  0  0  0
 27 28  1  0  0  0  0
 28 29  2  0  0  0  0
 28 47  1  0  0  0  0
 29 48  1  0  0  0  0
M  END
>  <DRUGBANK_ID>
DB15419

>  <COMMON_NAME>
Nanatinostat

>  <CAS_NUMBER>
1256448-47-1

>  <UNII>
YTL7A418KQ

>  <SYNONYMS>
Nanatinostat

$$$$
