
 OpenBabel10282417133D

 50 52  0  0  0  0  0  0  0  0999 V2000
    1.0204    0.0218    0.0954 P   0  0  3  0  0  0  0  0  0  0  0  0
    3.4604   -1.6360    0.5735 P   0  0  3  0  0  0  0  0  0  0  0  0
    4.4086   -2.0454   -2.0560 P   0  0  0  0  0  0  0  0  0  0  0  0
   -0.0485    2.9786   -1.6297 O   0  0  0  0  0  0  0  0  0  0  0  0
   -2.5201    1.5353   -3.1906 O   0  0  0  0  0  0  0  0  0  0  0  0
   -2.0499    3.7576   -4.5362 O   0  0  0  0  0  0  0  0  0  0  0  0
    1.0433   -0.2905   -1.5099 O   0  0  0  0  0  0  0  0  0  0  0  0
    1.0888   -1.4774    0.7469 O   0  0  0  0  0  0  0  0  0  0  0  0
   -0.5279    0.0218    0.0954 O   0  0  0  0  0  0  0  0  0  0  0  0
    4.8145   -1.4432   -0.4858 O   0  0  0  0  0  0  0  0  0  0  0  0
    4.0620   -0.9084    1.9428 O   0  0  0  0  0  0  0  0  0  0  0  0
    3.5181    7.9412   -3.4358 O   0  0  0  0  0  0  0  0  0  0  0  0
    3.9765   -3.0386    0.9780 O   0  0  0  0  0  0  0  0  0  0  0  0
    4.1057   -3.4893   -1.4135 O   0  0  0  0  0  0  0  0  0  0  0  0
    3.0466   -1.2286   -2.0005 O   0  0  0  0  0  0  0  0  0  0  0  0
    4.0453   -2.5844   -3.4613 O   0  0  0  0  0  0  0  0  0  0  0  0
    0.0657    5.1061   -2.5540 N   0  0  0  0  0  0  0  0  0  0  0  0
    2.1795    4.1417   -3.2923 N   0  0  0  0  0  0  0  0  0  0  0  0
    0.6863    7.2448   -2.5565 N   0  0  0  0  0  0  0  0  0  0  0  0
    3.9177    5.6862   -3.7374 N   0  0  0  0  0  0  0  0  0  0  0  0
    4.2263    3.3978   -3.9302 N   0  0  0  0  0  0  0  0  0  0  0  0
   -1.1282    1.7894   -3.4239 C   0  0  1  0  0  0  0  0  0  0  0  0
   -0.9489    3.2405   -3.8076 C   0  0  2  0  0  0  0  0  0  0  0  0
   -0.3220    1.6603   -2.1442 C   0  0  1  0  0  0  0  0  0  0  0  0
   -0.7556    3.9253   -2.4545 C   0  0  1  0  0  0  0  0  0  0  0  0
    0.9954    0.8866   -2.3242 C   0  0  0  0  0  0  0  0  0  0  0  0
    1.3625    5.1427   -2.9461 C   0  0  0  0  0  0  0  0  0  0  0  0
   -0.3061    6.4039   -2.3167 C   0  0  0  0  0  0  0  0  0  0  0  0
    1.7426    6.4532   -2.9656 C   0  0  0  0  0  0  0  0  0  0  0  0
    2.8504    0.0218    0.0954 C   0  0  0  0  0  0  0  0  0  0  0  0
    3.1065    6.7787   -3.3930 C   0  0  0  0  0  0  0  0  0  0  0  0
    3.4468    4.4749   -3.6713 C   0  0  0  0  0  0  0  0  0  0  0  0
   -2.8008    1.9414   -2.3512 H   0  0  0  0  0  0  0  0  0  0  0  0
   -2.8605    3.3585   -4.1638 H   0  0  0  0  0  0  0  0  0  0  0  0
    1.1301   -1.5202    1.7302 H   0  0  0  0  0  0  0  0  0  0  0  0
    3.5064   -0.2811    2.4413 H   0  0  0  0  0  0  0  0  0  0  0  0
    4.9321   -4.0180   -1.4375 H   0  0  0  0  0  0  0  0  0  0  0  0
    2.1907   -1.6729   -1.8375 H   0  0  0  0  0  0  0  0  0  0  0  0
    1.9153    3.1737   -3.3031 H   0  0  0  0  0  0  0  0  0  0  0  0
    3.8618    2.4738   -4.1071 H   0  0  0  0  0  0  0  0  0  0  0  0
    5.1296    3.6015   -4.3452 H   0  0  0  0  0  0  0  0  0  0  0  0
   -0.7960    1.0897   -4.1949 H   0  0  0  0  0  0  0  0  0  0  0  0
   -0.0539    3.3226   -4.4309 H   0  0  0  0  0  0  0  0  0  0  0  0
   -0.9898    1.2314   -1.4167 H   0  0  0  0  0  0  0  0  0  0  0  0
   -1.7072    4.1878   -1.9747 H   0  0  0  0  0  0  0  0  0  0  0  0
    1.8630    1.5060   -2.0671 H   0  0  0  0  0  0  0  0  0  0  0  0
    1.1405    0.5540   -3.3540 H   0  0  0  0  0  0  0  0  0  0  0  0
   -1.2976    6.6864   -1.9801 H   0  0  0  0  0  0  0  0  0  0  0  0
    3.3065    0.4736   -0.7891 H   0  0  0  0  0  0  0  0  0  0  0  0
    3.1060    0.7771    0.8490 H   0  0  0  0  0  0  0  0  0  0  0  0
  1  7  1  0  0  0  0
  1  8  1  0  0  0  0
  1  9  2  0  0  0  0
  1 30  1  0  0  0  0
  2 10  1  0  0  0  0
  2 11  1  0  0  0  0
  2 13  2  0  0  0  0
  2 30  1  0  0  0  0
  3 10  1  0  0  0  0
  3 14  1  0  0  0  0
  3 15  1  0  0  0  0
  3 16  2  0  0  0  0
  4 24  1  0  0  0  0
  4 25  1  0  0  0  0
  5 33  1  0  0  0  0
  6 34  1  0  0  0  0
  7 26  1  0  0  0  0
  8 35  1  0  0  0  0
 11 36  1  0  0  0  0
 12 31  2  0  0  0  0
 14 37  1  0  0  0  0
 15 38  1  0  0  0  0
 17 27  1  0  0  0  0
 17 28  1  0  0  0  0
 18 27  1  0  0  0  0
 18 32  1  0  0  0  0
 18 39  1  0  0  0  0
 19 28  2  0  0  0  0
 19 29  1  0  0  0  0
 20 31  1  0  0  0  0
 20 32  2  0  0  0  0
 21 32  1  0  0  0  0
 21 40  1  0  0  0  0
 21 41  1  0  0  0  0
 22  5  1  0  0  0  0
 22 23  1  0  0  0  0
 22 24  1  0  0  0  0
 22 42  1  6  0  0  0
 23  6  1  0  0  0  0
 23 25  1  0  0  0  0
 23 43  1  6  0  0  0
 24 26  1  0  0  0  0
 24 44  1  1  0  0  0
 25 45  1  1  0  0  0
 25 17  1  0  0  0  0
 26 46  1  0  0  0  0
 26 47  1  0  0  0  0
 27 29  2  0  0  0  0
 28 48  1  0  0  0  0
 29 31  1  0  0  0  0
 30 49  1  0  0  0  0
 30 50  1  0  0  0  0
M  END
>  <DRUGBANK_ID>
DB03532

>  <SECONDARY_ACCESSION_NUMBERS>
EXPT01527

>  <COMMON_NAME>
Phosphomethylphosphonic acid guanylate ester

$$$$
