
 OpenBabel10282417163D

 26 27  0  0  0  0  0  0  0  0999 V2000
    0.9052   -0.0302    0.0088 C   0  0  0  0  0  0  0  0  0  0  0  0
    0.1766   -1.2159    0.0048 C   0  0  0  0  0  0  0  0  0  0  0  0
    0.2590    1.1969    0.0213 C   0  0  0  0  0  0  0  0  0  0  0  0
   -1.2256   -1.1629   -0.0128 C   0  0  0  0  0  0  0  0  0  0  0  0
   -1.1334    1.2499    0.0207 C   0  0  0  0  0  0  0  0  0  0  0  0
   -4.5892    3.5431   -1.1259 C   0  0  0  0  0  0  0  0  0  0  0  0
   -3.9249    2.3118   -1.1318 C   0  0  0  0  0  0  0  0  0  0  0  0
   -5.6676    2.9405    0.9567 C   0  0  0  0  0  0  0  0  0  0  0  0
   -1.8922    0.0741   -0.0206 C   0  0  0  0  0  0  0  0  0  0  0  0
   -5.4611    3.8432   -0.0827 C   0  0  0  0  0  0  0  0  0  0  0  0
   -4.1181    1.4035   -0.0808 C   0  0  0  0  0  0  0  0  0  0  0  0
   -5.0000    1.7134    0.9588 C   0  0  0  0  0  0  0  0  0  0  0  0
   -3.3871    0.1121   -0.0415 C   0  0  0  0  0  0  0  0  0  0  0  0
   -6.1475    5.0205   -0.0355 O   0  0  0  0  0  0  0  0  0  0  0  0
   -4.0400   -0.9292    0.0027 O   0  0  0  0  0  0  0  0  0  0  0  0
    2.2674   -0.0079    0.0055 O   0  0  0  0  0  0  0  0  0  0  0  0
    0.6740   -2.1814    0.0164 H   0  0  0  0  0  0  0  0  0  0  0  0
    0.8355    2.1171    0.0364 H   0  0  0  0  0  0  0  0  0  0  0  0
   -1.7949   -2.0920   -0.0141 H   0  0  0  0  0  0  0  0  0  0  0  0
   -1.5960    2.2297    0.0573 H   0  0  0  0  0  0  0  0  0  0  0  0
   -4.4129    4.2465   -1.9341 H   0  0  0  0  0  0  0  0  0  0  0  0
   -3.2479    2.0720   -1.9482 H   0  0  0  0  0  0  0  0  0  0  0  0
   -6.3498    3.1946    1.7636 H   0  0  0  0  0  0  0  0  0  0  0  0
   -5.1622    1.0108    1.7725 H   0  0  0  0  0  0  0  0  0  0  0  0
   -5.9597    5.5371   -0.8360 H   0  0  0  0  0  0  0  0  0  0  0  0
    2.6047   -0.9175   -0.0186 H   0  0  0  0  0  0  0  0  0  0  0  0
  1  2  2  0  0  0  0
  1  3  1  0  0  0  0
  1 16  1  0  0  0  0
  2  4  1  0  0  0  0
  2 17  1  0  0  0  0
  3  5  2  0  0  0  0
  3 18  1  0  0  0  0
  4  9  2  0  0  0  0
  4 19  1  0  0  0  0
  5  9  1  0  0  0  0
  5 20  1  0  0  0  0
  6  7  2  0  0  0  0
  6 10  1  0  0  0  0
  6 21  1  0  0  0  0
  7 11  1  0  0  0  0
  7 22  1  0  0  0  0
  8 10  2  0  0  0  0
  8 12  1  0  0  0  0
  8 23  1  0  0  0  0
  9 13  1  0  0  0  0
 10 14  1  0  0  0  0
 11 12  2  0  0  0  0
 11 13  1  0  0  0  0
 12 24  1  0  0  0  0
 13 15  2  0  0  0  0
 14 25  1  0  0  0  0
 16 26  1  0  0  0  0
M  END
>  <DRUGBANK_ID>
DB07635

>  <COMMON_NAME>
4,4'-Dihydroxybenzophenone

>  <CAS_NUMBER>
611-99-4

>  <UNII>
HZR7D31SBY

>  <SYNONYMS>
4,4-Dihydroxybenzophenone; 4,4'-Dihydroxydiphenyl ketone; Bis(4-hydroxyphenyl) ketone; Bis(p-hydroxy)benzophenone; p,p'-Dihydroxybenzophenone

$$$$
