365
 OpenBabel10282417103D

 48 51  0  0  1  0  0  0  0  0999 V2000
    0.9612    0.0310   -0.1247 F   0  0  0  0  0  0  0  0  0  0  0  0
    4.6543    3.6605   -0.0326 O   0  0  0  0  0  0  0  0  0  0  0  0
    6.7405    4.9087   -0.0718 O   0  0  0  0  0  0  0  0  0  0  0  0
    8.6739    3.7648   -0.0740 O   0  0  0  0  0  0  0  0  0  0  0  0
    6.5611    0.0670   -0.0570 N   0  0  0  0  0  0  0  0  0  0  0  0
    2.3725   -2.4482   -0.0311 N   0  0  0  0  0  0  0  0  0  0  0  0
    0.6421   -4.6277    0.8411 N   0  0  0  0  0  0  0  0  0  0  0  0
    7.2493   -1.2555   -0.1069 C   0  0  0  0  0  0  0  0  0  0  0  0
    8.1850   -1.6714    1.0105 C   0  0  0  0  0  0  0  0  0  0  0  0
    8.6130   -1.7728   -0.4185 C   0  0  0  0  0  0  0  0  0  0  0  0
    5.1170    0.0742   -0.0395 C   0  0  0  0  0  0  0  0  0  0  0  0
    7.2351    1.2826   -0.0521 C   0  0  0  0  0  0  0  0  0  0  0  0
    4.3945    1.2839   -0.0538 C   0  0  0  0  0  0  0  0  0  0  0  0
    2.9768   -1.2053   -0.0916 C   0  0  0  0  0  0  0  0  0  0  0  0
    1.3279   -2.9432   -0.9451 C   0  0  0  0  0  0  0  0  0  0  0  0
    4.3738   -1.1285   -0.0299 C   0  0  0  0  0  0  0  0  0  0  0  0
    0.1692   -3.6061   -0.1363 C   0  0  3  0  0  0  0  0  0  0  0  0
    2.8531   -3.4376    0.9453 C   0  0  0  0  0  0  0  0  0  0  0  0
    1.6635   -4.0286    1.7245 C   0  0  0  0  0  0  0  0  0  0  0  0
    2.9781    1.2707   -0.0905 C   0  0  0  0  0  0  0  0  0  0  0  0
    6.6540    2.4991   -0.0480 C   0  0  0  0  0  0  0  0  0  0  0  0
    5.1790    2.5474   -0.0415 C   0  0  0  0  0  0  0  0  0  0  0  0
    2.3052    0.0218   -0.1312 C   0  0  0  0  0  0  0  0  0  0  0  0
   -0.6564   -2.5268    0.5669 C   0  0  0  0  0  0  0  0  0  0  0  0
    2.1059    2.5005   -0.0696 C   0  0  0  0  0  0  0  0  0  0  0  0
    7.4571    3.7543   -0.0637 C   0  0  0  0  0  0  0  0  0  0  0  0
    5.7569    4.7869   -0.0603 H   0  0  0  0  0  0  0  0  0  0  0  0
    1.0928   -5.3786    0.3156 H   0  0  0  0  0  0  0  0  0  0  0  0
    6.6075   -1.9670   -0.6131 H   0  0  0  0  0  0  0  0  0  0  0  0
    8.7439   -0.9500    1.5961 H   0  0  0  0  0  0  0  0  0  0  0  0
    7.9067   -2.5567    1.5714 H   0  0  0  0  0  0  0  0  0  0  0  0
    8.6449   -2.7880   -0.8254 H   0  0  0  0  0  0  0  0  0  0  0  0
    9.3730   -1.1327   -0.8309 H   0  0  0  0  0  0  0  0  0  0  0  0
    8.3192    1.1956   -0.0566 H   0  0  0  0  0  0  0  0  0  0  0  0
    0.9414   -2.1730   -1.6216 H   0  0  0  0  0  0  0  0  0  0  0  0
    1.7768   -3.7208   -1.5824 H   0  0  0  0  0  0  0  0  0  0  0  0
    4.8756   -2.0873    0.0135 H   0  0  0  0  0  0  0  0  0  0  0  0
   -0.4958   -4.1279   -0.8377 H   0  0  0  0  0  0  0  0  0  0  0  0
    3.3895   -4.2348    0.4158 H   0  0  0  0  0  0  0  0  0  0  0  0
    3.5403   -2.9935    1.6735 H   0  0  0  0  0  0  0  0  0  0  0  0
    1.2055   -3.2480    2.3425 H   0  0  0  0  0  0  0  0  0  0  0  0
    2.0273   -4.7869    2.4244 H   0  0  0  0  0  0  0  0  0  0  0  0
   -1.0949   -1.8470   -0.1695 H   0  0  0  0  0  0  0  0  0  0  0  0
   -1.4653   -2.9664    1.1578 H   0  0  0  0  0  0  0  0  0  0  0  0
   -0.0442   -1.9161    1.2378 H   0  0  0  0  0  0  0  0  0  0  0  0
    1.4731    2.5205   -0.9608 H   0  0  0  0  0  0  0  0  0  0  0  0
    1.4898    2.5077    0.8347 H   0  0  0  0  0  0  0  0  0  0  0  0
    2.6213    3.4551   -0.0695 H   0  0  0  0  0  0  0  0  0  0  0  0
  1 23  1  0  0  0  0
  2 22  2  0  0  0  0
  3 26  1  0  0  0  0
  3 27  1  0  0  0  0
  4 26  2  0  0  0  0
  5  8  1  0  0  0  0
  5 11  1  0  0  0  0
  5 12  1  0  0  0  0
  6 14  1  0  0  0  0
  6 15  1  0  0  0  0
  6 18  1  0  0  0  0
  7 17  1  0  0  0  0
  7 19  1  0  0  0  0
  7 28  1  0  0  0  0
  8  9  1  0  0  0  0
  8 10  1  0  0  0  0
  8 29  1  0  0  0  0
  9 10  1  0  0  0  0
  9 30  1  0  0  0  0
  9 31  1  0  0  0  0
 10 32  1  0  0  0  0
 10 33  1  0  0  0  0
 11 13  1  0  0  0  0
 11 16  2  0  0  0  0
 12 21  2  0  0  0  0
 12 34  1  0  0  0  0
 13 20  2  0  0  0  0
 13 22  1  0  0  0  0
 14 16  1  0  0  0  0
 14 23  2  0  0  0  0
 15 17  1  0  0  0  0
 15 35  1  0  0  0  0
 15 36  1  0  0  0  0
 16 37  1  0  0  0  0
 17 24  1  0  0  0  0
 17 38  1  0  0  0  0
 18 19  1  0  0  0  0
 18 39  1  0  0  0  0
 18 40  1  0  0  0  0
 19 41  1  0  0  0  0
 19 42  1  0  0  0  0
 20 23  1  0  0  0  0
 20 25  1  0  0  0  0
 21 22  1  0  0  0  0
 21 26  1  0  0  0  0
 24 43  1  0  0  0  0
 24 44  1  0  0  0  0
 24 45  1  0  0  0  0
 25 46  1  0  0  0  0
 25 47  1  0  0  0  0
 25 48  1  0  0  0  0
M  END
>  <DRUGBANK_ID>
DB00365

>  <SECONDARY_ACCESSION_NUMBERS>
APRD01003

>  <COMMON_NAME>
Grepafloxacin

>  <CAS_NUMBER>
119914-60-2

>  <UNII>
L1M1U2HC31

>  <SYNONYMS>
Grepafloxacin

$$$$
