
 OpenBabel10282417223D

 48 49  0  0  0  0  0  0  0  0999 V2000
    0.8828    0.1130    0.3311 C   0  0  0  0  0  0  0  0  0  0  0  0
   -0.1329    1.1975   -0.3040 C   0  0  0  0  0  0  0  0  0  0  0  0
    0.4971   -0.9905    0.7988 O   0  0  0  0  0  0  0  0  0  0  0  0
   -1.2971    0.7721   -1.3713 C   0  0  0  0  0  0  0  0  0  0  0  0
   -0.8460    1.8266    0.8184 C   0  0  0  0  0  0  0  0  0  0  0  0
    2.2444    0.3356    0.3346 O   0  0  0  0  0  0  0  0  0  0  0  0
    1.6666    1.2573   -2.5379 N   0  0  0  0  0  0  0  0  0  0  0  0
    3.0900    1.2842   -0.4429 C   0  0  0  0  0  0  0  0  0  0  0  0
    3.0115    1.4138   -2.0342 C   0  0  0  0  0  0  0  0  0  0  0  0
   -1.5692   -0.5955   -1.6594 C   0  0  0  0  0  0  0  0  0  0  0  0
   -1.8276    1.7228   -2.2743 C   0  0  0  0  0  0  0  0  0  0  0  0
   -1.5359    0.9591    1.6598 C   0  0  0  0  0  0  0  0  0  0  0  0
   -0.8038    3.2055    0.9858 C   0  0  0  0  0  0  0  0  0  0  0  0
    1.2496    1.8163   -3.8127 C   0  0  0  0  0  0  0  0  0  0  0  0
    1.3543   -0.1344   -2.3106 C   0  0  0  0  0  0  0  0  0  0  0  0
    1.4378    0.7832   -4.8900 C   0  0  0  0  0  0  0  0  0  0  0  0
    1.4531   -1.4943   -2.8781 C   0  0  0  0  0  0  0  0  0  0  0  0
   -2.5292    1.3084   -3.4278 C   0  0  0  0  0  0  0  0  0  0  0  0
   -2.1173    1.4661    2.7797 C   0  0  0  0  0  0  0  0  0  0  0  0
   -1.3702    3.7084    2.1292 C   0  0  0  0  0  0  0  0  0  0  0  0
   -2.0303   -0.9821   -2.9300 C   0  0  0  0  0  0  0  0  0  0  0  0
   -2.5526   -0.0358   -3.7978 C   0  0  0  0  0  0  0  0  0  0  0  0
   -2.0277    2.8382    3.0123 C   0  0  0  0  0  0  0  0  0  0  0  0
    0.5051    1.9822   -0.7236 H   0  0  0  0  0  0  0  0  0  0  0  0
    2.9414    2.2394    0.0488 H   0  0  0  0  0  0  0  0  0  0  0  0
    4.1223    0.9474   -0.2526 H   0  0  0  0  0  0  0  0  0  0  0  0
    3.4757    2.3559   -2.3343 H   0  0  0  0  0  0  0  0  0  0  0  0
    3.5994    0.6148   -2.5081 H   0  0  0  0  0  0  0  0  0  0  0  0
   -1.1187   -1.3758   -1.0482 H   0  0  0  0  0  0  0  0  0  0  0  0
   -1.5938    2.7831   -2.1798 H   0  0  0  0  0  0  0  0  0  0  0  0
   -1.5802   -0.1069    1.4336 H   0  0  0  0  0  0  0  0  0  0  0  0
   -0.3246    3.8489    0.2476 H   0  0  0  0  0  0  0  0  0  0  0  0
    0.1812    2.0711   -3.7970 H   0  0  0  0  0  0  0  0  0  0  0  0
    1.7300    2.7759   -4.0374 H   0  0  0  0  0  0  0  0  0  0  0  0
    1.9164   -0.3998   -1.4523 H   0  0  0  0  0  0  0  0  0  0  0  0
    0.3798   -0.1201   -1.9928 H   0  0  0  0  0  0  0  0  0  0  0  0
    0.6655    0.0189   -4.7741 H   0  0  0  0  0  0  0  0  0  0  0  0
    1.3047    1.1737   -5.8926 H   0  0  0  0  0  0  0  0  0  0  0  0
    2.4284    0.3308   -4.7848 H   0  0  0  0  0  0  0  0  0  0  0  0
    2.5074   -1.7312   -2.9362 H   0  0  0  0  0  0  0  0  0  0  0  0
    0.9978   -2.1510   -2.1125 H   0  0  0  0  0  0  0  0  0  0  0  0
    0.8744   -1.6405   -3.7761 H   0  0  0  0  0  0  0  0  0  0  0  0
   -2.9834    2.0400   -4.0923 H   0  0  0  0  0  0  0  0  0  0  0  0
   -2.6035    0.7725    3.4526 H   0  0  0  0  0  0  0  0  0  0  0  0
   -1.2795    4.7673    2.3391 H   0  0  0  0  0  0  0  0  0  0  0  0
   -1.8900   -2.0096   -3.2690 H   0  0  0  0  0  0  0  0  0  0  0  0
   -2.9484   -0.3454   -4.7635 H   0  0  0  0  0  0  0  0  0  0  0  0
   -2.4886    3.2367    3.9032 H   0  0  0  0  0  0  0  0  0  0  0  0
  2  1  1  0  0  0  0
  2 24  1  0  0  0  0
  3  1  2  0  0  0  0
  4  2  1  0  0  0  0
  5  2  1  0  0  0  0
  6  1  1  0  0  0  0
  7  9  1  0  0  0  0
  8  6  1  0  0  0  0
  8 25  1  0  0  0  0
  8 26  1  0  0  0  0
  9  8  1  0  0  0  0
  9 27  1  0  0  0  0
  9 28  1  0  0  0  0
 10  4  1  0  0  0  0
 10 29  1  0  0  0  0
 11  4  2  0  0  0  0
 11 30  1  0  0  0  0
 12  5  2  0  0  0  0
 12 31  1  0  0  0  0
 13  5  1  0  0  0  0
 13 32  1  0  0  0  0
 14  7  1  0  0  0  0
 14 33  1  0  0  0  0
 14 34  1  0  0  0  0
 15  7  1  0  0  0  0
 15 35  1  0  0  0  0
 15 36  1  0  0  0  0
 16 14  1  0  0  0  0
 16 37  1  0  0  0  0
 16 38  1  0  0  0  0
 16 39  1  0  0  0  0
 17 15  1  0  0  0  0
 17 40  1  0  0  0  0
 17 41  1  0  0  0  0
 17 42  1  0  0  0  0
 18 11  1  0  0  0  0
 18 43  1  0  0  0  0
 19 12  1  0  0  0  0
 19 44  1  0  0  0  0
 20 13  2  0  0  0  0
 20 45  1  0  0  0  0
 21 10  2  0  0  0  0
 21 46  1  0  0  0  0
 22 18  2  0  0  0  0
 22 21  1  0  0  0  0
 22 47  1  0  0  0  0
 23 20  1  0  0  0  0
 23 19  2  0  0  0  0
 23 48  1  0  0  0  0
M  END
>  <DRUGBANK_ID>
DB15795

>  <COMMON_NAME>
Adiphenine

>  <CAS_NUMBER>
64-95-9

>  <UNII>
YKG6OR043Q

>  <SYNONYMS>
Adiphenine

$$$$
