
 OpenBabel10282417173D

 29 29  0  0  0  0  0  0  0  0999 V2000
    0.8564    0.0775   -0.5038 C   0  0  0  0  0  0  0  0  0  0  0  0
   -1.6110   -2.7286   -0.2899 C   0  0  0  0  0  0  0  0  0  0  0  0
    2.4344   -0.8096    3.7134 C   0  0  0  0  0  0  0  0  0  0  0  0
    1.5669    0.4292    3.5932 C   0  0  0  0  0  0  0  0  0  0  0  0
    1.4241   -1.9434    3.6095 C   0  0  0  0  0  0  0  0  0  0  0  0
    0.5093    0.0272    2.5863 C   0  0  0  0  0  0  0  0  0  0  0  0
    0.9993   -2.0040    1.0802 C   0  0  0  0  0  0  0  0  0  0  0  0
    0.3889   -1.3583   -0.2011 C   0  0  3  0  0  0  0  0  0  0  0  0
    0.5021   -1.4991    2.4624 C   0  0  0  0  0  0  0  0  0  0  0  0
   -1.0739   -1.3814   -0.2104 N   0  0  0  0  0  0  0  0  0  0  0  0
    0.2513    0.8404    0.0043 H   0  0  0  0  0  0  0  0  0  0  0  0
    0.7482    0.3255   -1.5625 H   0  0  0  0  0  0  0  0  0  0  0  0
    1.9100    0.2154   -0.2314 H   0  0  0  0  0  0  0  0  0  0  0  0
   -1.3424   -3.3391    0.5776 H   0  0  0  0  0  0  0  0  0  0  0  0
   -2.7013   -2.6876   -0.3321 H   0  0  0  0  0  0  0  0  0  0  0  0
   -1.2596   -3.2298   -1.2000 H   0  0  0  0  0  0  0  0  0  0  0  0
    3.1407   -0.8587    2.8765 H   0  0  0  0  0  0  0  0  0  0  0  0
    3.0047   -0.8162    4.6445 H   0  0  0  0  0  0  0  0  0  0  0  0
    1.1115    0.7185    4.5400 H   0  0  0  0  0  0  0  0  0  0  0  0
    2.1435    1.2834    3.2124 H   0  0  0  0  0  0  0  0  0  0  0  0
    1.8948   -2.9167    3.4446 H   0  0  0  0  0  0  0  0  0  0  0  0
    0.8487   -1.9992    4.5431 H   0  0  0  0  0  0  0  0  0  0  0  0
   -0.4877    0.4400    2.7853 H   0  0  0  0  0  0  0  0  0  0  0  0
    0.8656    0.4881    1.6945 H   0  0  0  0  0  0  0  0  0  0  0  0
    0.7971   -3.0867    1.0451 H   0  0  0  0  0  0  0  0  0  0  0  0
    2.0908   -1.9355    1.0218 H   0  0  0  0  0  0  0  0  0  0  0  0
    0.7571   -1.9481   -1.0547 H   0  0  0  0  0  0  0  0  0  0  0  0
   -0.5022   -1.9024    2.6380 H   0  0  0  0  0  0  0  0  0  0  0  0
   -1.4288   -0.9245    0.6409 H   0  0  0  0  0  0  0  0  0  0  0  0
  1 11  1  0  0  0  0
  1 12  1  0  0  0  0
  1 13  1  0  0  0  0
  2 14  1  0  0  0  0
  2 15  1  0  0  0  0
  2 16  1  0  0  0  0
  3 17  1  0  0  0  0
  3 18  1  0  0  0  0
  4  3  1  0  0  0  0
  4 19  1  0  0  0  0
  4 20  1  0  0  0  0
  5  3  1  0  0  0  0
  5 21  1  0  0  0  0
  5 22  1  0  0  0  0
  6  4  1  0  0  0  0
  6 23  1  0  0  0  0
  6 24  1  0  0  0  0
  7 25  1  0  0  0  0
  7 26  1  0  0  0  0
  8  1  1  0  0  0  0
  8  7  1  0  0  0  0
  8 27  1  0  0  0  0
  9  5  1  0  0  0  0
  9  6  1  0  0  0  0
  9  7  1  0  0  0  0
  9 28  1  0  0  0  0
 10  2  1  0  0  0  0
 10  8  1  0  0  0  0
 10 29  1  0  0  0  0
M  END
>  <DRUGBANK_ID>
DB08999

>  <COMMON_NAME>
Cyclopentamine

>  <CAS_NUMBER>
102-45-4

>  <UNII>
WB9Q6M8O60

>  <SYNONYMS>
Cyclopentamine

$$$$
