
 OpenBabel10282417183D

111118  0  0  0  0  0  0  0  0999 V2000
   -0.8293   -1.4038   -0.2371 C   0  0  0  0  0  0  0  0  0  0  0  0
   -1.4412   -0.1046    0.1945 N   0  0  0  0  0  0  0  0  0  0  0  0
   -0.7085    0.9378   -0.5493 C   0  0  0  0  0  0  0  0  0  0  0  0
    0.7848    0.6973   -0.3629 C   0  0  0  0  0  0  0  0  0  0  0  0
    1.3909   -0.5420   -0.6426 N   0  0  0  0  0  0  0  0  0  0  0  0
    0.7068   -1.6293    0.0118 C   0  0  0  0  0  0  0  0  0  0  0  0
    2.6604   -0.4688   -1.1355 C   0  0  0  0  0  0  0  0  0  0  0  0
   -1.4917    0.1659    1.6731 C   0  0  0  0  0  0  0  0  0  0  0  0
   -0.1813    0.3476    2.5028 C   0  0  0  0  0  0  0  0  0  0  0  0
    0.0912   -0.9881    3.2144 C   0  0  0  0  0  0  0  0  0  0  0  0
    1.4958   -1.2833    3.6715 C   0  0  0  0  0  0  0  0  0  0  0  0
    2.5559   -0.2008    3.4395 C   0  0  0  0  0  0  0  0  0  0  0  0
    2.1744    1.0777    2.6664 C   0  0  0  0  0  0  0  0  0  0  0  0
    0.7320    1.4035    2.4158 C   0  0  0  0  0  0  0  0  0  0  0  0
    0.5994    2.7532    1.5644 C   0  0  0  0  0  0  0  0  0  0  0  0
    1.3530    3.2241    0.3958 C   0  0  0  0  0  0  0  0  0  0  0  0
    0.7366    3.9642   -0.6416 C   0  0  0  0  0  0  0  0  0  0  0  0
   -0.4406    4.6024   -0.3348 C   0  0  0  0  0  0  0  0  0  0  0  0
   -1.0926    4.3228    0.8727 C   0  0  0  0  0  0  0  0  0  0  0  0
   -0.5897    3.4033    1.8033 C   0  0  0  0  0  0  0  0  0  0  0  0
   -1.0027    5.8546   -1.3643 Cl  0  0  0  0  0  0  0  0  0  0  0  0
    2.8929    0.3622    4.8178 C   0  0  0  0  0  0  0  0  0  0  0  0
    3.7339   -0.9183    2.7342 C   0  0  0  0  0  0  0  0  0  0  0  0
    2.6906   -0.9161   -2.4226 C   0  0  0  0  0  0  0  0  0  0  0  0
    3.8217   -0.7994   -3.1953 C   0  0  0  0  0  0  0  0  0  0  0  0
    5.0254   -0.2304   -2.7310 C   0  0  0  0  0  0  0  0  0  0  0  0
    6.1178   -0.4407   -3.8183 C   0  0  0  0  0  0  0  0  0  0  0  0
    7.4865   -0.1594   -3.5260 N   0  0  0  0  0  0  0  0  0  0  0  0
    8.7635   -0.0047   -4.7498 S   0  0  0  0  0  0  0  0  0  0  0  0
    9.1834    1.9537   -5.6804 C   0  0  0  0  0  0  0  0  0  0  0  0
    5.7911   -0.8064   -4.8831 O   0  0  0  0  0  0  0  0  0  0  0  0
    8.3820    3.2107   -5.4737 C   0  0  0  0  0  0  0  0  0  0  0  0
    8.9513    4.5310   -5.2370 C   0  0  0  0  0  0  0  0  0  0  0  0
   10.3136    4.7902   -5.4394 C   0  0  0  0  0  0  0  0  0  0  0  0
   11.1870    3.6305   -5.7169 C   0  0  0  0  0  0  0  0  0  0  0  0
   10.6131    2.2244   -5.8979 C   0  0  0  0  0  0  0  0  0  0  0  0
    9.9633   -0.3492   -3.9773 O   0  0  0  0  0  0  0  0  0  0  0  0
    8.4508   -0.8834   -5.8419 O   0  0  0  0  0  0  0  0  0  0  0  0
   12.6770    3.6905   -5.1754 N   0  3  0  0  0  0  0  0  0  0  0  0
   10.6879    6.1011   -5.0978 N   0  0  0  0  0  0  0  0  0  0  0  0
    4.9452    0.4089   -1.4730 C   0  0  0  0  0  0  0  0  0  0  0  0
    3.7827    0.2446   -0.6789 C   0  0  0  0  0  0  0  0  0  0  0  0
    5.7971    1.2667   -0.8009 O   0  0  0  0  0  0  0  0  0  0  0  0
    6.8504    1.7918   -1.4581 C   0  0  0  0  0  0  0  0  0  0  0  0
    8.1532    1.4913   -0.8993 C   0  0  0  0  0  0  0  0  0  0  0  0
    9.3147    1.7034   -1.6295 C   0  0  0  0  0  0  0  0  0  0  0  0
    8.9804    2.2804   -2.7939 C   0  0  0  0  0  0  0  0  0  0  0  0
    7.7862    2.4211   -3.3737 N   0  0  0  0  0  0  0  0  0  0  0  0
    6.6863    2.2958   -2.7084 C   0  0  0  0  0  0  0  0  0  0  0  0
   10.7183    1.3723   -1.7617 C   0  0  0  0  0  0  0  0  0  0  0  0
   11.1839    1.9050   -2.9383 C   0  0  0  0  0  0  0  0  0  0  0  0
   10.1601    2.7105   -3.2581 N   0  0  0  0  0  0  0  0  0  0  0  0
   11.8913    6.5346   -5.7490 C   0  0  0  0  0  0  0  0  0  0  0  0
   11.7406    7.0805   -7.1242 C   0  0  0  0  0  0  0  0  0  0  0  0
   13.1815    7.3042   -7.6065 C   0  0  0  0  0  0  0  0  0  0  0  0
   13.1674    8.0573   -8.9063 C   0  0  0  0  0  0  0  0  0  0  0  0
   12.3889    9.2471   -8.7748 O   0  0  0  0  0  0  0  0  0  0  0  0
   11.0228    8.9904   -8.4432 C   0  0  0  0  0  0  0  0  0  0  0  0
   10.9151    8.3351   -7.0914 C   0  0  0  0  0  0  0  0  0  0  0  0
   13.4422    2.7838   -5.5209 O   0  0  0  0  0  0  0  0  0  0  0  0
   13.0282    4.5892   -4.3836 O   0  5  0  0  0  0  0  0  0  0  0  0
   -1.4170   -2.2299    0.1517 H   0  0  0  0  0  0  0  0  0  0  0  0
   -0.9463   -1.4088   -1.3348 H   0  0  0  0  0  0  0  0  0  0  0  0
   -0.9415    0.9952   -1.6150 H   0  0  0  0  0  0  0  0  0  0  0  0
   -1.0894    1.8821   -0.1620 H   0  0  0  0  0  0  0  0  0  0  0  0
    0.8461    0.5764    0.6613 H   0  0  0  0  0  0  0  0  0  0  0  0
    1.4981    1.4350   -0.5987 H   0  0  0  0  0  0  0  0  0  0  0  0
    0.9376   -1.5666    1.0651 H   0  0  0  0  0  0  0  0  0  0  0  0
    1.0723   -2.5958   -0.3225 H   0  0  0  0  0  0  0  0  0  0  0  0
   -2.1420    1.0183    1.8980 H   0  0  0  0  0  0  0  0  0  0  0  0
   -2.0592   -0.6837    2.0907 H   0  0  0  0  0  0  0  0  0  0  0  0
   -0.1972   -1.8528    2.5908 H   0  0  0  0  0  0  0  0  0  0  0  0
   -0.5879   -1.0948    4.0673 H   0  0  0  0  0  0  0  0  0  0  0  0
    1.8162   -2.2392    3.2233 H   0  0  0  0  0  0  0  0  0  0  0  0
    1.4366   -1.5268    4.7399 H   0  0  0  0  0  0  0  0  0  0  0  0
    2.6029    1.9654    3.1406 H   0  0  0  0  0  0  0  0  0  0  0  0
    2.6746    1.0413    1.7059 H   0  0  0  0  0  0  0  0  0  0  0  0
    2.3298    2.8456    0.0627 H   0  0  0  0  0  0  0  0  0  0  0  0
    1.1383    3.9894   -1.6658 H   0  0  0  0  0  0  0  0  0  0  0  0
   -2.0568    4.7662    1.0751 H   0  0  0  0  0  0  0  0  0  0  0  0
   -1.1596    3.1173    2.6797 H   0  0  0  0  0  0  0  0  0  0  0  0
    3.1823   -0.4094    5.5282 H   0  0  0  0  0  0  0  0  0  0  0  0
    3.6852    1.1130    4.7534 H   0  0  0  0  0  0  0  0  0  0  0  0
    1.9893    0.8630    5.1998 H   0  0  0  0  0  0  0  0  0  0  0  0
    3.4200   -1.2728    1.7397 H   0  0  0  0  0  0  0  0  0  0  0  0
    4.6034   -0.2735    2.5919 H   0  0  0  0  0  0  0  0  0  0  0  0
    4.0502   -1.8166    3.2775 H   0  0  0  0  0  0  0  0  0  0  0  0
    1.7636   -1.3193   -2.8180 H   0  0  0  0  0  0  0  0  0  0  0  0
    3.7142   -1.1921   -4.1980 H   0  0  0  0  0  0  0  0  0  0  0  0
    7.7822   -0.1319   -2.5561 H   0  0  0  0  0  0  0  0  0  0  0  0
    7.3651    3.2926   -5.0680 H   0  0  0  0  0  0  0  0  0  0  0  0
    8.3907    5.2416   -4.5745 H   0  0  0  0  0  0  0  0  0  0  0  0
   11.3200    1.3833   -5.8628 H   0  0  0  0  0  0  0  0  0  0  0  0
    9.9460    6.8073   -5.0604 H   0  0  0  0  0  0  0  0  0  0  0  0
    3.8331    0.7324    0.2927 H   0  0  0  0  0  0  0  0  0  0  0  0
    8.2463    0.8884   -0.0274 H   0  0  0  0  0  0  0  0  0  0  0  0
    5.7573    2.3871   -3.2932 H   0  0  0  0  0  0  0  0  0  0  0  0
   11.3548    0.6891   -1.2379 H   0  0  0  0  0  0  0  0  0  0  0  0
   12.0698    1.7675   -3.5624 H   0  0  0  0  0  0  0  0  0  0  0  0
   10.1269    3.2463   -4.0617 H   0  0  0  0  0  0  0  0  0  0  0  0
   12.4754    7.1595   -5.0715 H   0  0  0  0  0  0  0  0  0  0  0  0
   12.4828    5.6893   -6.0359 H   0  0  0  0  0  0  0  0  0  0  0  0
   11.2633    6.3429   -7.7898 H   0  0  0  0  0  0  0  0  0  0  0  0
   13.7362    7.8725   -6.8459 H   0  0  0  0  0  0  0  0  0  0  0  0
   13.7120    6.3458   -7.7179 H   0  0  0  0  0  0  0  0  0  0  0  0
   14.1919    8.3330   -9.1718 H   0  0  0  0  0  0  0  0  0  0  0  0
   12.7632    7.4252   -9.7039 H   0  0  0  0  0  0  0  0  0  0  0  0
   10.5687    8.3524   -9.2103 H   0  0  0  0  0  0  0  0  0  0  0  0
   10.4846    9.9385   -8.4102 H   0  0  0  0  0  0  0  0  0  0  0  0
    9.8717    8.0918   -6.8585 H   0  0  0  0  0  0  0  0  0  0  0  0
   11.2942    8.9914   -6.2992 H   0  0  0  0  0  0  0  0  0  0  0  0
  1  2  1  0  0  0  0
  1  6  1  0  0  0  0
  1 62  1  0  0  0  0
  1 63  1  0  0  0  0
  2  3  1  0  0  0  0
  2  8  1  0  0  0  0
  3  4  1  0  0  0  0
  3 64  1  0  0  0  0
  3 65  1  0  0  0  0
  4  5  1  0  0  0  0
  4 66  1  0  0  0  0
  4 67  1  0  0  0  0
  5  6  1  0  0  0  0
  5  7  1  0  0  0  0
  6 68  1  0  0  0  0
  6 69  1  0  0  0  0
  7 24  2  0  0  0  0
  7 42  1  0  0  0  0
  8  9  1  0  0  0  0
  8 70  1  0  0  0  0
  8 71  1  0  0  0  0
  9 10  1  0  0  0  0
  9 14  2  0  0  0  0
 10 11  1  0  0  0  0
 10 72  1  0  0  0  0
 10 73  1  0  0  0  0
 11 12  1  0  0  0  0
 11 74  1  0  0  0  0
 11 75  1  0  0  0  0
 12 13  1  0  0  0  0
 12 22  1  0  0  0  0
 12 23  1  0  0  0  0
 13 14  1  0  0  0  0
 13 76  1  0  0  0  0
 13 77  1  0  0  0  0
 14 15  1  0  0  0  0
 15 16  1  0  0  0  0
 15 20  2  0  0  0  0
 16 17  2  0  0  0  0
 16 78  1  0  0  0  0
 17 18  1  0  0  0  0
 17 79  1  0  0  0  0
 18 19  2  0  0  0  0
 18 21  1  0  0  0  0
 19 20  1  0  0  0  0
 19 80  1  0  0  0  0
 20 81  1  0  0  0  0
 22 82  1  0  0  0  0
 22 83  1  0  0  0  0
 22 84  1  0  0  0  0
 23 85  1  0  0  0  0
 23 86  1  0  0  0  0
 23 87  1  0  0  0  0
 24 25  1  0  0  0  0
 24 88  1  0  0  0  0
 25 26  2  0  0  0  0
 25 89  1  0  0  0  0
 26 27  1  0  0  0  0
 26 41  1  0  0  0  0
 27 28  1  0  0  0  0
 27 31  2  0  0  0  0
 28 29  1  0  0  0  0
 28 90  1  0  0  0  0
 29 30  1  0  0  0  0
 29 37  2  0  0  0  0
 29 38  2  0  0  0  0
 30 32  2  0  0  0  0
 30 36  1  0  0  0  0
 32 33  1  0  0  0  0
 32 91  1  0  0  0  0
 33 34  2  0  0  0  0
 33 92  1  0  0  0  0
 34 35  1  0  0  0  0
 34 40  1  0  0  0  0
 35 36  2  0  0  0  0
 35 39  1  0  0  0  0
 36 93  1  0  0  0  0
 39 60  2  0  0  0  0
 39 61  1  0  0  0  0
 40 53  1  0  0  0  0
 40 94  1  0  0  0  0
 41 42  2  0  0  0  0
 41 43  1  0  0  0  0
 42 95  1  0  0  0  0
 43 44  1  0  0  0  0
 44 45  1  0  0  0  0
 44 49  2  0  0  0  0
 45 46  2  0  0  0  0
 45 96  1  0  0  0  0
 46 47  1  0  0  0  0
 46 50  1  0  0  0  0
 47 48  2  0  0  0  0
 47 52  1  0  0  0  0
 48 49  1  0  0  0  0
 49 97  1  0  0  0  0
 50 51  2  0  0  0  0
 50 98  1  0  0  0  0
 51 52  1  0  0  0  0
 51 99  1  0  0  0  0
 52100  1  0  0  0  0
 53 54  1  0  0  0  0
 53101  1  0  0  0  0
 53102  1  0  0  0  0
 54 55  1  0  0  0  0
 54 59  1  0  0  0  0
 54103  1  0  0  0  0
 55 56  1  0  0  0  0
 55104  1  0  0  0  0
 55105  1  0  0  0  0
 56 57  1  0  0  0  0
 56106  1  0  0  0  0
 56107  1  0  0  0  0
 57 58  1  0  0  0  0
 58 59  1  0  0  0  0
 58108  1  0  0  0  0
 58109  1  0  0  0  0
 59110  1  0  0  0  0
 59111  1  0  0  0  0
M  CHG  2  39   1  61  -1
M  END
>  <DRUGBANK_ID>
DB11581

>  <COMMON_NAME>
Venetoclax

>  <CAS_NUMBER>
1257044-40-8

>  <UNII>
N54AIC43PW

>  <SYNONYMS>
4-(4-((2-(4-chlorophenyl)-4,4-dimethylcyclohex-1-en-1-yl)methyl)piperazin-1-yl)-N-((3-nitro-4-((tetrahydro-2H-pyran-4-ylmethyl)amino)phenyl)sulfonyl)-2-(1H-pyrrolo(2,3-b)pyridin-5-yloxy)benzamide; 4-(4-{[2-(4-chlorophenyl)-4,4-dimethylcyclohex-1-en-1-yl]methyl}piperazin-1-yl)-N-({3-nitro-4-[(tetrahydro-2H-pyran-4-ylmethyl)amino]phenyl}sulfonyl)-2-(1H-pyrrolo[2,3-b]pyridin-5-yloxy)benzamide; 4-{4-[(4'-chloro-5,5-dimethyl[3,4,5,6-tetrahydro[1,1'-biphenyl]]-2-yl)methyl]piperazin-1-yl}-N-(3-nitro-4-{[(oxan-4-yl)methyl]amino}benzene-1-sulfonyl)-2-[(1H-pyrrolo[2,3-b]pyridin-5-yl)oxy]benzamide

$$$$
