
 OpenBabel10282417123D

 27 26  0  0  1  0  0  0  0  0999 V2000
   -2.6729    0.6692    1.2518 O   0  0  0  0  0  0  0  0  0  0  0  0
   -1.2397    0.8738    1.1248 C   0  0  0  0  0  0  0  0  0  0  0  0
   -0.4670    0.5974    2.4579 C   0  0  1  0  0  0  0  0  0  0  0  0
   -0.8996   -0.4383    3.3354 O   0  0  0  0  0  0  0  0  0  0  0  0
    0.8768    1.2400    2.9361 C   0  0  2  0  0  0  0  0  0  0  0  0
    1.9189    0.6116    2.1962 O   0  0  0  0  0  0  0  0  0  0  0  0
    1.1292    1.1483    4.5289 C   0  0  1  0  0  0  0  0  0  0  0  0
    2.5545    1.2263    4.7150 O   0  0  0  0  0  0  0  0  0  0  0  0
    0.5139    2.2276    5.5227 C   0  0  0  0  0  0  0  0  0  0  0  0
   -0.9212    2.3264    5.6317 O   0  0  0  0  0  0  0  0  0  0  0  0
   -1.4979    2.7331    4.0522 P   0  0  0  0  0  0  0  0  0  0  0  0
   -2.7145    1.6658    4.3281 O   0  0  0  0  0  0  0  0  0  0  0  0
   -2.2587    3.9503    4.8276 O   0  0  0  0  0  0  0  0  0  0  0  0
   -2.0140    3.0971    2.6385 O   0  0  0  0  0  0  0  0  0  0  0  0
   -3.1064    1.2123    1.9343 H   0  0  0  0  0  0  0  0  0  0  0  0
   -0.9346    0.2248    0.3179 H   0  0  0  0  0  0  0  0  0  0  0  0
   -1.0598    1.9129    0.7924 H   0  0  0  0  0  0  0  0  0  0  0  0
   -0.9746    1.3721    2.8570 H   0  0  0  0  0  0  0  0  0  0  0  0
   -1.8560   -0.5117    3.4679 H   0  0  0  0  0  0  0  0  0  0  0  0
    0.9388    2.3099    2.6849 H   0  0  0  0  0  0  0  0  0  0  0  0
    1.6744    0.7348    1.2577 H   0  0  0  0  0  0  0  0  0  0  0  0
    0.8228    0.1646    4.8968 H   0  0  0  0  0  0  0  0  0  0  0  0
    2.9278    0.6709    3.9987 H   0  0  0  0  0  0  0  0  0  0  0  0
    0.8802    2.0251    6.5386 H   0  0  0  0  0  0  0  0  0  0  0  0
    0.9028    3.2273    5.2837 H   0  0  0  0  0  0  0  0  0  0  0  0
   -2.6920    1.0150    3.6714 H   0  0  0  0  0  0  0  0  0  0  0  0
   -2.7114    3.5377    5.5958 H   0  0  0  0  0  0  0  0  0  0  0  0
  1  2  1  0  0  0  0
  1 15  1  0  0  0  0
  2  3  1  0  0  0  0
  2 16  1  0  0  0  0
  2 17  1  0  0  0  0
  3  4  1  0  0  0  0
  3 18  1  1  0  0  0
  4 19  1  0  0  0  0
  5  7  1  0  0  0  0
  5 20  1  6  0  0  0
  5  6  1  0  0  0  0
  5  3  1  0  0  0  0
  6 21  1  0  0  0  0
  7  8  1  0  0  0  0
  7  9  1  0  0  0  0
  7 22  1  1  0  0  0
  8 23  1  0  0  0  0
  9 10  1  0  0  0  0
  9 24  1  0  0  0  0
  9 25  1  0  0  0  0
 10 11  1  0  0  0  0
 11 12  1  0  0  0  0
 11 13  1  0  0  0  0
 11 14  2  0  0  0  0
 12 26  1  0  0  0  0
 13 27  1  0  0  0  0
M  END
>  <DRUGBANK_ID>
DB02630

>  <SECONDARY_ACCESSION_NUMBERS>
EXPT02071

>  <COMMON_NAME>
L-xylitol 5-phosphate

>  <CAS_NUMBER>
64913-51-5

>  <SYNONYMS>
Xylitol 5-P; Xylitol 5-phosphate

$$$$
