
 OpenBabel10282417153D

 69 71  0  0  0  0  0  0  0  0999 V2000
   -2.1012    0.8299    0.2057 C   0  0  0  0  0  0  0  0  0  0  0  0
   -1.9818   -0.5256    0.2055 N   0  0  0  0  0  0  0  0  0  0  0  0
   -0.9860   -1.1547   -0.5478 C   0  0  0  0  0  0  0  0  0  0  0  0
   -0.1065   -0.1662   -1.2151 C   0  0  0  0  0  0  0  0  0  0  0  0
   -0.1254    1.1738   -0.7672 C   0  0  0  0  0  0  0  0  0  0  0  0
   -1.1404    1.7264   -0.1037 N   0  0  0  0  0  0  0  0  0  0  0  0
    1.0044   -0.2535   -2.0271 N   0  0  0  0  0  0  0  0  0  0  0  0
    1.8234    0.7443   -1.6885 C   0  0  0  0  0  0  0  0  0  0  0  0
    1.1746    1.7205   -0.9572 N   0  0  0  0  0  0  0  0  0  0  0  0
   -3.7287    1.5887    0.2336 S   0  0  0  0  0  0  0  0  0  0  0  0
   -4.9573    0.2409    0.0132 C   0  0  0  0  0  0  0  0  0  0  0  0
   -5.0474   -0.5743   -1.2872 C   0  0  0  0  0  0  0  0  0  0  0  0
   -3.8390   -1.3994   -1.5544 C   0  0  0  0  0  0  0  0  0  0  0  0
   -0.9673   -2.5865   -0.4446 N   0  0  0  0  0  0  0  0  0  0  0  0
    0.0764   -3.6319   -0.1740 C   0  0  0  0  0  0  0  0  0  0  0  0
    1.8658    2.9494   -0.4080 C   0  0  2  0  0  0  0  0  0  0  0  0
    2.9301    3.1953   -1.3624 O   0  0  0  0  0  0  0  0  0  0  0  0
    4.0774    3.8514   -0.7631 C   0  0  1  0  0  0  0  0  0  0  0  0
    3.7725    4.2439    0.6551 C   0  0  2  0  0  0  0  0  0  0  0  0
    2.6964    3.2773    1.0025 C   0  0  1  0  0  0  0  0  0  0  0  0
    2.1611    3.6228    2.2784 O   0  0  0  0  0  0  0  0  0  0  0  0
    3.2398    5.5443    0.7630 O   0  0  0  0  0  0  0  0  0  0  0  0
    5.2545    1.3831    1.3993 P   0  0  3  0  0  0  0  0  0  0  0  0
    5.1873    1.7623   -0.1446 O   0  0  0  0  0  0  0  0  0  0  0  0
    5.3361    2.9754   -0.8188 C   0  0  0  0  0  0  0  0  0  0  0  0
    0.1047   -4.4756    1.1439 C   0  0  0  0  0  0  0  0  0  0  0  0
   -1.1518   -5.7788    1.2454 S   0  0  0  0  0  0  0  0  0  0  0  0
   -2.6626   -4.7963    1.3287 C   0  0  0  0  0  0  0  0  0  0  0  0
   -3.5541   -2.1335   -0.4543 F   0  0  0  0  0  0  0  0  0  0  0  0
   -3.9666   -2.2750   -2.5647 F   0  0  0  0  0  0  0  0  0  0  0  0
   -2.8534   -0.5647   -1.9362 F   0  0  0  0  0  0  0  0  0  0  0  0
    3.9661    0.5495    1.3108 O   0  0  0  0  0  0  0  0  0  0  0  0
    2.3921    0.5275    1.5017 P   0  0  3  0  0  0  0  0  0  0  0  0
    1.7768   -0.7393    0.2479 C   0  0  0  0  0  0  0  0  0  0  0  0
    2.7411   -2.0397    1.1011 P   0  0  0  0  0  0  0  0  0  0  0  0
    4.1932   -1.4907    0.4592 O   0  0  0  0  0  0  0  0  0  0  0  0
    6.5886    0.5249    1.3241 O   0  0  0  0  0  0  0  0  0  0  0  0
    5.2327    2.4109    2.4925 O   0  0  0  0  0  0  0  0  0  0  0  0
    2.3600    0.4367    3.1267 O   0  0  0  0  0  0  0  0  0  0  0  0
    1.3233    1.5527    1.4510 O   0  0  0  0  0  0  0  0  0  0  0  0
    0.3991   -1.3712    1.7487 Cl  0  0  0  0  0  0  0  0  0  0  0  0
    2.5503   -2.0303   -1.1897 Cl  0  0  0  0  0  0  0  0  0  0  0  0
    2.8529   -1.5067    2.6305 O   0  0  0  0  0  0  0  0  0  0  0  0
    3.5570   -3.1400    1.8230 O   0  0  0  0  0  0  0  0  0  0  0  0
    2.9161    0.6360   -1.6137 H   0  0  0  0  0  0  0  0  0  0  0  0
   -4.9032   -0.4029    0.8955 H   0  0  0  0  0  0  0  0  0  0  0  0
   -5.9209    0.7649    0.0873 H   0  0  0  0  0  0  0  0  0  0  0  0
   -5.8955   -1.2618   -1.2189 H   0  0  0  0  0  0  0  0  0  0  0  0
   -5.2066    0.0838   -2.1455 H   0  0  0  0  0  0  0  0  0  0  0  0
   -1.8706   -2.8935   -0.0996 H   0  0  0  0  0  0  0  0  0  0  0  0
    0.1720   -4.3016   -1.0301 H   0  0  0  0  0  0  0  0  0  0  0  0
    1.0142   -3.1544   -0.1029 H   0  0  0  0  0  0  0  0  0  0  0  0
    1.0701    3.6837   -0.4436 H   0  0  0  0  0  0  0  0  0  0  0  0
    4.2310    4.7434   -1.3611 H   0  0  0  0  0  0  0  0  0  0  0  0
    4.6589    4.1919    1.3002 H   0  0  0  0  0  0  0  0  0  0  0  0
    3.2974    2.4547    1.2430 H   0  0  0  0  0  0  0  0  0  0  0  0
    1.2559    3.9449    2.1902 H   0  0  0  0  0  0  0  0  0  0  0  0
    2.2757    5.4405    0.7187 H   0  0  0  0  0  0  0  0  0  0  0  0
    5.5058    2.6929   -1.8637 H   0  0  0  0  0  0  0  0  0  0  0  0
    6.2288    3.4873   -0.4555 H   0  0  0  0  0  0  0  0  0  0  0  0
    1.0800   -5.0044    1.1825 H   0  0  0  0  0  0  0  0  0  0  0  0
    0.1173   -3.9005    2.0770 H   0  0  0  0  0  0  0  0  0  0  0  0
   -2.6316   -4.0608    2.1382 H   0  0  0  0  0  0  0  0  0  0  0  0
   -2.8780   -4.3193    0.3758 H   0  0  0  0  0  0  0  0  0  0  0  0
   -3.4990   -5.4756    1.4907 H   0  0  0  0  0  0  0  0  0  0  0  0
    4.4336   -2.1316   -0.2487 H   0  0  0  0  0  0  0  0  0  0  0  0
    7.2473    1.0377    0.8165 H   0  0  0  0  0  0  0  0  0  0  0  0
    2.7833    1.2486    3.4916 H   0  0  0  0  0  0  0  0  0  0  0  0
    2.0890   -1.0923    3.1044 H   0  0  0  0  0  0  0  0  0  0  0  0
  1  2  2  0  0  0  0
  1  6  1  0  0  0  0
  1 10  1  0  0  0  0
  2  3  1  0  0  0  0
  3  4  2  0  0  0  0
  3 14  1  0  0  0  0
  4  5  1  0  0  0  0
  4  7  1  0  0  0  0
  5  6  2  0  0  0  0
  5  9  1  0  0  0  0
  7  8  2  0  0  0  0
  8  9  1  0  0  0  0
  8 45  1  0  0  0  0
 10 11  1  0  0  0  0
 11 12  1  0  0  0  0
 11 46  1  0  0  0  0
 11 47  1  0  0  0  0
 12 13  1  0  0  0  0
 12 48  1  0  0  0  0
 12 49  1  0  0  0  0
 13 29  1  0  0  0  0
 13 30  1  0  0  0  0
 13 31  1  0  0  0  0
 14 50  1  0  0  0  0
 15 14  1  0  0  0  0
 15 26  1  0  0  0  0
 15 51  1  0  0  0  0
 15 52  1  0  0  0  0
 16  9  1  0  0  0  0
 16 17  1  0  0  0  0
 16 20  1  0  0  0  0
 16 53  1  6  0  0  0
 17 18  1  0  0  0  0
 18 19  1  0  0  0  0
 18 54  1  6  0  0  0
 18 25  1  0  0  0  0
 19 20  1  0  0  0  0
 19 22  1  0  0  0  0
 19 55  1  1  0  0  0
 20 21  1  0  0  0  0
 20 56  1  1  0  0  0
 21 57  1  0  0  0  0
 22 58  1  0  0  0  0
 23 24  1  0  0  0  0
 23 32  1  0  0  0  0
 23 37  1  0  0  0  0
 23 38  2  0  0  0  0
 24 25  1  0  0  0  0
 25 59  1  0  0  0  0
 25 60  1  0  0  0  0
 26 27  1  0  0  0  0
 26 61  1  0  0  0  0
 26 62  1  0  0  0  0
 27 28  1  0  0  0  0
 28 63  1  0  0  0  0
 28 64  1  0  0  0  0
 28 65  1  0  0  0  0
 32 33  1  0  0  0  0
 33 34  1  0  0  0  0
 33 39  1  0  0  0  0
 33 40  2  0  0  0  0
 34 35  1  0  0  0  0
 34 41  1  0  0  0  0
 34 42  1  0  0  0  0
 35 36  1  0  0  0  0
 35 43  1  0  0  0  0
 35 44  2  0  0  0  0
 36 66  1  0  0  0  0
 37 67  1  0  0  0  0
 39 68  1  0  0  0  0
 43 69  1  0  0  0  0
M  END
>  <DRUGBANK_ID>
DB06441

>  <COMMON_NAME>
Cangrelor

>  <CAS_NUMBER>
163706-06-7

>  <UNII>
6AQ1Y404U7

>  <SYNONYMS>
[dichloro-[[[(2R,3S,4R,5R)-3,4-dihydroxy-5-[6-(2-methylsulfanylethylamino)-2-(3,3,3-trifluoropropylsulfanyl)purin-9-yl]oxolan-2-yl]methoxy-hydroxyphosphoryl]oxy-hydroxyphosphoryl]methyl]phosphonic acid; Cangrelor

$$$$
