ZYW
 OpenBabel10282417173D

 32 34  0  0  0  0  0  0  0  0999 V2000
    1.1908   -0.3146   -0.1324 Br  0  0  0  0  0  0  0  0  0  0  0  0
    3.0705   -0.0248   -0.0140 C   0  0  0  0  0  0  0  0  0  0  0  0
    3.8652   -1.1680   -0.0561 C   0  0  0  0  0  0  0  0  0  0  0  0
    5.2156   -1.1948   -0.0564 N   0  0  0  0  0  0  0  0  0  0  0  0
    5.7404    0.0445   -0.0326 C   0  0  0  0  0  0  0  0  0  0  0  0
    7.0748    0.3384   -0.0105 N   0  0  0  0  0  0  0  0  0  0  0  0
    7.3364    1.6614    0.0284 N   0  0  0  0  0  0  0  0  0  0  0  0
    6.1164    2.2091    0.0718 C   0  0  0  0  0  0  0  0  0  0  0  0
    5.0709    1.2562    0.0105 C   0  0  0  0  0  0  0  0  0  0  0  0
    3.6568    1.2658    0.0498 C   0  0  0  0  0  0  0  0  0  0  0  0
    2.9188    2.4182    0.1889 N   0  0  0  0  0  0  0  0  0  0  0  0
    3.1074    3.6356   -0.6069 C   0  0  0  0  0  0  0  0  0  0  0  0
    2.0644    2.6056    1.3631 C   0  0  0  0  0  0  0  0  0  0  0  0
    0.7068    3.1270    0.8747 C   0  0  0  0  0  0  0  0  0  0  0  0
    0.8641    4.3571    0.1413 O   0  0  0  0  0  0  0  0  0  0  0  0
    1.7037    4.1495   -1.0274 C   0  0  1  0  0  0  0  0  0  0  0  0
    1.7779    5.4831   -1.7881 C   0  0  0  0  0  0  0  0  0  0  0  0
    2.5732    5.4182   -3.0138 N   0  0  0  0  0  0  0  0  0  0  0  0
    1.2141    3.4011   -1.6661 H   0  0  0  0  0  0  0  0  0  0  0  0
    3.4007   -2.1519   -0.0929 H   0  0  0  0  0  0  0  0  0  0  0  0
    7.8389   -0.3206    0.0068 H   0  0  0  0  0  0  0  0  0  0  0  0
    6.0308    3.2829    0.1599 H   0  0  0  0  0  0  0  0  0  0  0  0
    3.6066    4.3980    0.0064 H   0  0  0  0  0  0  0  0  0  0  0  0
    3.7290    3.4450   -1.4878 H   0  0  0  0  0  0  0  0  0  0  0  0
    2.5334    3.3513    2.0177 H   0  0  0  0  0  0  0  0  0  0  0  0
    1.9500    1.6904    1.9520 H   0  0  0  0  0  0  0  0  0  0  0  0
    0.2070    2.4046    0.2215 H   0  0  0  0  0  0  0  0  0  0  0  0
    0.0497    3.3117    1.7280 H   0  0  0  0  0  0  0  0  0  0  0  0
    0.7585    5.7984   -2.0448 H   0  0  0  0  0  0  0  0  0  0  0  0
    2.1732    6.2651   -1.1290 H   0  0  0  0  0  0  0  0  0  0  0  0
    2.5884    6.3377   -3.4538 H   0  0  0  0  0  0  0  0  0  0  0  0
    3.5441    5.1997   -2.7979 H   0  0  0  0  0  0  0  0  0  0  0  0
  1  2  1  0  0  0  0
  2  3  1  0  0  0  0
  2 10  2  0  0  0  0
  3  4  2  0  0  0  0
  3 20  1  0  0  0  0
  4  5  1  0  0  0  0
  5  6  1  0  0  0  0
  5  9  2  0  0  0  0
  6  7  1  0  0  0  0
  6 21  1  0  0  0  0
  7  8  2  0  0  0  0
  8  9  1  0  0  0  0
  8 22  1  0  0  0  0
  9 10  1  0  0  0  0
 10 11  1  0  0  0  0
 11 12  1  0  0  0  0
 11 13  1  0  0  0  0
 12 16  1  0  0  0  0
 12 23  1  0  0  0  0
 12 24  1  0  0  0  0
 13 14  1  0  0  0  0
 13 25  1  0  0  0  0
 13 26  1  0  0  0  0
 14 15  1  0  0  0  0
 14 27  1  0  0  0  0
 14 28  1  0  0  0  0
 15 16  1  0  0  0  0
 16 17  1  0  0  0  0
 16 19  1  6  0  0  0
 17 18  1  0  0  0  0
 17 29  1  0  0  0  0
 17 30  1  0  0  0  0
 18 31  1  0  0  0  0
 18 32  1  0  0  0  0
M  END
>  <DRUGBANK_ID>
DB08781

>  <COMMON_NAME>
1-[(2S)-4-(5-BROMO-1H-PYRAZOLO[3,4-B]PYRIDIN-4-YL)MORPHOLIN-2-YL]METHANAMINE

$$$$
