
 OpenBabel10282417203D

 35 38  0  0  0  0  0  0  0  0999 V2000
    1.3132   -1.2390   -0.4127 C   0  0  0  0  0  0  0  0  0  0  0  0
    1.8200   -0.0795   -1.0114 C   0  0  0  0  0  0  0  0  0  0  0  0
    1.3662    1.3253   -0.6788 C   0  0  0  0  0  0  0  0  0  0  0  0
    0.0550    1.3432   -0.2208 C   0  0  0  0  0  0  0  0  0  0  0  0
   -0.6168    0.0840   -0.0286 C   0  0  0  0  0  0  0  0  0  0  0  0
    0.0155   -1.1773   -0.0258 C   0  0  0  0  0  0  0  0  0  0  0  0
   -2.3248    0.0611    0.1806 Cl  0  0  0  0  0  0  0  0  0  0  0  0
    2.5918    2.7169   -0.4131 C   0  0  3  0  0  0  0  0  0  0  0  0
    3.6283    3.2844    1.0435 C   0  0  0  0  0  0  0  0  0  0  0  0
    4.9582    2.6355    1.3551 C   0  0  0  0  0  0  0  0  0  0  0  0
    5.3089    2.1407    2.6221 C   0  0  0  0  0  0  0  0  0  0  0  0
    4.8748    2.9715    3.6064 C   0  0  0  0  0  0  0  0  0  0  0  0
    3.8789    3.9130    3.3279 C   0  0  0  0  0  0  0  0  0  0  0  0
    3.1069    3.9997    2.1216 C   0  0  0  0  0  0  0  0  0  0  0  0
    3.9165    4.6734    4.4683 N   0  0  0  0  0  0  0  0  0  0  0  0
    4.9047    4.2042    5.2912 C   0  0  0  0  0  0  0  0  0  0  0  0
    5.4075    3.0820    4.8545 N   0  0  0  0  0  0  0  0  0  0  0  0
    3.4611    1.5984   -0.2830 N   0  0  0  0  0  0  0  0  0  0  0  0
    3.2504    0.8257    0.8725 C   0  0  0  0  0  0  0  0  0  0  0  0
    4.2060   -0.1343    0.7259 C   0  0  0  0  0  0  0  0  0  0  0  0
    4.9366    0.0620   -0.4539 N   0  0  0  0  0  0  0  0  0  0  0  0
    4.4546    1.1441   -1.0609 C   0  0  0  0  0  0  0  0  0  0  0  0
    1.9365   -2.1296   -0.2584 H   0  0  0  0  0  0  0  0  0  0  0  0
    2.8044   -0.3252   -1.4141 H   0  0  0  0  0  0  0  0  0  0  0  0
   -0.4673    2.2639   -0.0052 H   0  0  0  0  0  0  0  0  0  0  0  0
   -0.4852   -2.1153    0.2027 H   0  0  0  0  0  0  0  0  0  0  0  0
    1.7723    3.2250    0.0892 H   0  0  0  0  0  0  0  0  0  0  0  0
    5.5653    2.0984    0.6260 H   0  0  0  0  0  0  0  0  0  0  0  0
    5.9709    1.2924    2.8013 H   0  0  0  0  0  0  0  0  0  0  0  0
    2.2195    4.6107    2.0641 H   0  0  0  0  0  0  0  0  0  0  0  0
    3.4253    5.5401    4.5806 H   0  0  0  0  0  0  0  0  0  0  0  0
    5.2345    4.7175    6.1811 H   0  0  0  0  0  0  0  0  0  0  0  0
    2.4703    1.1326    1.5683 H   0  0  0  0  0  0  0  0  0  0  0  0
    4.3294   -0.8917    1.4625 H   0  0  0  0  0  0  0  0  0  0  0  0
    4.7780    1.6065   -1.9973 H   0  0  0  0  0  0  0  0  0  0  0  0
  1  2  2  0  0  0  0
  1  6  1  0  0  0  0
  1 23  1  0  0  0  0
  2  3  1  0  0  0  0
  2 24  1  0  0  0  0
  3  4  2  0  0  0  0
  3  8  1  0  0  0  0
  4  5  1  0  0  0  0
  4 25  1  0  0  0  0
  5  6  2  0  0  0  0
  5  7  1  0  0  0  0
  6 26  1  0  0  0  0
  8  9  1  0  0  0  0
  8 18  1  0  0  0  0
  8 27  1  0  0  0  0
  9 10  2  0  0  0  0
  9 14  1  0  0  0  0
 10 11  1  0  0  0  0
 10 28  1  0  0  0  0
 11 12  2  0  0  0  0
 11 29  1  0  0  0  0
 12 13  1  0  0  0  0
 12 17  1  0  0  0  0
 13 14  2  0  0  0  0
 13 15  1  0  0  0  0
 14 30  1  0  0  0  0
 15 16  1  0  0  0  0
 15 31  1  0  0  0  0
 16 17  2  0  0  0  0
 16 32  1  0  0  0  0
 18 19  1  0  0  0  0
 18 22  1  0  0  0  0
 19 20  2  0  0  0  0
 19 33  1  0  0  0  0
 20 21  1  0  0  0  0
 20 34  1  0  0  0  0
 21 22  2  0  0  0  0
 22 35  1  0  0  0  0
M  END
>  <DRUGBANK_ID>
DB13066

>  <COMMON_NAME>
Liarozole

>  <CAS_NUMBER>
115575-11-6

>  <UNII>
K0Q29TGV9Y

$$$$
