
 OpenBabel10282417173D

 57 60  0  0  0  0  0  0  0  0999 V2000
    5.9558    4.1032    3.5670 C   0  0  0  0  0  0  0  0  0  0  0  0
    5.3938    5.5775    3.6320 C   0  0  2  0  0  0  0  0  0  0  0  0
    3.7760    5.7034    3.4980 C   0  0  2  0  0  0  0  0  0  0  0  0
    5.5180    6.2375    5.0313 C   0  0  2  0  0  0  0  0  0  0  0  0
    5.9893    6.3415    2.4220 C   0  0  0  0  0  0  0  0  0  0  0  0
    3.4389    4.9682    2.1535 C   0  0  1  0  0  0  0  0  0  0  0  0
    3.4463    7.2493    3.9353 C   0  0  0  0  0  0  0  0  0  0  0  0
    6.5521    6.7002    6.0594 C   0  0  0  0  0  0  0  0  0  0  0  0
    5.1107    5.0058    5.9124 C   0  0  0  0  0  0  0  0  0  0  0  0
    4.7755    7.5666    4.6541 C   0  0  0  0  0  0  0  0  0  0  0  0
    5.7340    5.5518    1.1513 C   0  0  0  0  0  0  0  0  0  0  0  0
    4.2132    5.5242    0.9452 C   0  0  2  0  0  0  0  0  0  0  0  0
    2.0070    4.6605    1.8259 C   0  0  0  0  0  0  0  0  0  0  0  0
    7.9340    6.1558    6.0748 C   0  0  0  0  0  0  0  0  0  0  0  0
    6.1571    7.2978    7.0779 O   0  0  0  0  0  0  0  0  0  0  0  0
    3.8084    4.7884   -0.3524 C   0  0  2  0  0  0  0  0  0  0  0  0
    1.4355    4.7993    0.6029 C   0  0  0  0  0  0  0  0  0  0  0  0
    4.0732    3.2276   -0.2439 C   0  0  0  0  0  0  0  0  0  0  0  0
    2.2070    5.2933   -0.5065 C   0  0  0  0  0  0  0  0  0  0  0  0
    4.7043    5.2453   -1.5485 C   0  0  0  0  0  0  0  0  0  0  0  0
    0.0389    4.2349    0.4558 C   0  0  0  0  0  0  0  0  0  0  0  0
    1.8791    6.1344   -1.5788 C   0  0  0  0  0  0  0  0  0  0  0  0
    4.3393    6.7016   -1.7103 C   0  0  0  0  0  0  0  0  0  0  0  0
    3.0139    6.3744   -2.3574 C   0  0  0  0  0  0  0  0  0  0  0  0
    2.9613    6.0743   -3.5622 O   0  0  0  0  0  0  0  0  0  0  0  0
    3.8251    3.9482    2.3084 H   0  0  0  0  0  0  0  0  0  0  0  0
    3.8457    6.5595    0.9098 H   0  0  0  0  0  0  0  0  0  0  0  0
    3.1902    5.1256    4.2242 H   0  0  0  0  0  0  0  0  0  0  0  0
    6.0611    3.6195    2.6017 H   0  0  0  0  0  0  0  0  0  0  0  0
    5.3164    3.3784    4.0793 H   0  0  0  0  0  0  0  0  0  0  0  0
    6.9715    4.0890    3.9701 H   0  0  0  0  0  0  0  0  0  0  0  0
    7.0295    6.6018    2.6189 H   0  0  0  0  0  0  0  0  0  0  0  0
    5.5005    7.3009    2.1933 H   0  0  0  0  0  0  0  0  0  0  0  0
    3.0878    7.6812    4.9127 H   0  0  0  0  0  0  0  0  0  0  0  0
    2.3409    7.1968    3.9619 H   0  0  0  0  0  0  0  0  0  0  0  0
    5.9505    4.2936    5.7937 H   0  0  0  0  0  0  0  0  0  0  0  0
    5.1077    5.0789    6.9953 H   0  0  0  0  0  0  0  0  0  0  0  0
    4.2293    4.4586    5.5933 H   0  0  0  0  0  0  0  0  0  0  0  0
    4.8395    8.3797    5.4007 H   0  0  0  0  0  0  0  0  0  0  0  0
    5.3348    8.1260    3.8852 H   0  0  0  0  0  0  0  0  0  0  0  0
    6.3346    5.9928    0.3555 H   0  0  0  0  0  0  0  0  0  0  0  0
    6.0834    4.5267    1.1349 H   0  0  0  0  0  0  0  0  0  0  0  0
    1.4590    4.1189    2.5910 H   0  0  0  0  0  0  0  0  0  0  0  0
    8.6112    6.9824    6.2929 H   0  0  0  0  0  0  0  0  0  0  0  0
    8.0041    5.4016    6.8693 H   0  0  0  0  0  0  0  0  0  0  0  0
    8.1689    5.6999    5.1190 H   0  0  0  0  0  0  0  0  0  0  0  0
    5.0886    3.0399    0.1378 H   0  0  0  0  0  0  0  0  0  0  0  0
    3.4037    2.6875    0.4292 H   0  0  0  0  0  0  0  0  0  0  0  0
    4.0555    2.7057   -1.2104 H   0  0  0  0  0  0  0  0  0  0  0  0
    5.7842    5.1023   -1.4878 H   0  0  0  0  0  0  0  0  0  0  0  0
    4.4109    4.6108   -2.4044 H   0  0  0  0  0  0  0  0  0  0  0  0
   -0.6044    4.8481   -0.1767 H   0  0  0  0  0  0  0  0  0  0  0  0
    0.0337    3.1968    0.0893 H   0  0  0  0  0  0  0  0  0  0  0  0
   -0.4494    4.1882    1.4438 H   0  0  0  0  0  0  0  0  0  0  0  0
    1.3614    6.9977   -1.9096 H   0  0  0  0  0  0  0  0  0  0  0  0
    4.9162    7.3500   -2.3781 H   0  0  0  0  0  0  0  0  0  0  0  0
    4.4332    7.2267   -0.7486 H   0  0  0  0  0  0  0  0  0  0  0  0
  1 29  1  0  0  0  0
  1 30  1  0  0  0  0
  1 31  1  0  0  0  0
  2  4  1  0  0  0  0
  2  5  1  0  0  0  0
  2  1  1  6  0  0  0
  3  2  1  0  0  0  0
  3  7  1  0  0  0  0
  3 28  1  1  0  0  0
  4 10  1  0  0  0  0
  4  8  1  1  0  0  0
  4  9  1  0  0  0  0
  5 11  1  0  0  0  0
  5 32  1  0  0  0  0
  5 33  1  0  0  0  0
  6  3  1  0  0  0  0
  6 13  1  0  0  0  0
  6 26  1  6  0  0  0
  7 10  1  0  0  0  0
  7 34  1  0  0  0  0
  7 35  1  0  0  0  0
  8 14  1  0  0  0  0
  8 15  2  0  0  0  0
  9 36  1  0  0  0  0
  9 37  1  0  0  0  0
  9 38  1  0  0  0  0
 10 39  1  0  0  0  0
 10 40  1  0  0  0  0
 11 41  1  0  0  0  0
 11 42  1  0  0  0  0
 12  6  1  0  0  0  0
 12 11  1  0  0  0  0
 12 16  1  0  0  0  0
 12 27  1  1  0  0  0
 13 17  2  0  0  0  0
 13 43  1  0  0  0  0
 14 44  1  0  0  0  0
 14 45  1  0  0  0  0
 14 46  1  0  0  0  0
 16 19  1  0  0  0  0
 16 20  1  0  0  0  0
 16 18  1  6  0  0  0
 17 19  1  0  0  0  0
 17 21  1  0  0  0  0
 18 47  1  0  0  0  0
 18 48  1  0  0  0  0
 18 49  1  0  0  0  0
 19 22  2  0  0  0  0
 20 23  1  0  0  0  0
 20 50  1  0  0  0  0
 20 51  1  0  0  0  0
 21 52  1  0  0  0  0
 21 53  1  0  0  0  0
 21 54  1  0  0  0  0
 22 24  1  0  0  0  0
 22 55  1  0  0  0  0
 23 24  1  0  0  0  0
 23 56  1  0  0  0  0
 23 57  1  0  0  0  0
 24 25  2  0  0  0  0
M  END
>  <DRUGBANK_ID>
DB09124

>  <COMMON_NAME>
Medrogestone

>  <CAS_NUMBER>
977-79-7

>  <UNII>
077DN93G5B

>  <SYNONYMS>
Medrogestone

$$$$
