
 OpenBabel10282417213D

 52 55  0  0  1  0  0  0  0  0999 V2000
   13.0283   -4.1895   -6.4427 C   0  0  0  0  0  0  0  0  0  0  0  0
   15.2226   -8.9835   -2.9031 C   0  0  0  0  0  0  0  0  0  0  0  0
    9.9997   -4.5238   -7.6441 C   0  0  0  0  0  0  0  0  0  0  0  0
   12.6596  -10.0562   -4.8419 C   0  0  0  0  0  0  0  0  0  0  0  0
   11.1918   -5.2295   -7.5293 C   0  0  0  0  0  0  0  0  0  0  0  0
   13.7054   -9.9401   -5.9635 C   0  0  0  0  0  0  0  0  0  0  0  0
   10.1706   -4.1947   -5.1856 C   0  0  0  0  0  0  0  0  0  0  0  0
   10.8590   -7.7817   -4.9920 C   0  0  0  0  0  0  0  0  0  0  0  0
   15.1335   -7.2868   -4.3436 C   0  0  0  0  0  0  0  0  0  0  0  0
   15.0807  -11.4551   -2.4392 C   0  0  0  0  0  0  0  0  0  0  0  0
    9.2170   -4.4190   -6.3278 C   0  0  0  0  0  0  0  0  0  0  0  0
   12.3195   -7.7505   -5.2188 C   0  0  1  0  0  0  0  0  0  0  0  0
   13.0169   -8.7098   -4.1974 C   0  0  1  0  0  0  0  0  0  0  0  0
   10.8243   -5.3624   -5.1913 C   0  0  0  0  0  0  0  0  0  0  0  0
   10.1368   -6.6791   -5.0518 C   0  0  0  0  0  0  0  0  0  0  0  0
   14.5858   -6.5719   -5.5593 C   0  0  1  0  0  0  0  0  0  0  0  0
   14.9942  -11.4109   -4.0838 C   0  0  0  0  0  0  0  0  0  0  0  0
   13.0019   -6.4004   -5.3754 C   0  0  2  0  0  0  0  0  0  0  0  0
   12.0523   -5.3619   -6.1799 C   0  0  2  0  0  0  0  0  0  0  0  0
   14.5978   -8.6949   -4.2048 C   0  0  2  0  0  0  0  0  0  0  0  0
   14.9199  -10.0127   -5.0328 C   0  0  2  0  0  0  0  0  0  0  0  0
    8.4402   -7.0324   -5.1963 Cl  0  0  0  0  0  0  0  0  0  0  0  0
   13.8866  -11.9907   -1.9135 O   0  0  0  0  0  0  0  0  0  0  0  0
    8.0451   -4.4630   -6.2426 O   0  0  0  0  0  0  0  0  0  0  0  0
   15.3393   -5.3762   -5.7059 O   0  0  0  0  0  0  0  0  0  0  0  0
   14.9483  -12.4973   -4.6849 O   0  0  0  0  0  0  0  0  0  0  0  0
   16.0158  -10.0825   -5.9195 O   0  0  0  0  0  0  0  0  0  0  0  0
   12.2791   -8.1433   -6.2425 H   0  0  0  0  0  0  0  0  0  0  0  0
   12.6074   -8.5419   -3.1921 H   0  0  0  0  0  0  0  0  0  0  0  0
   14.8858   -7.1915   -6.4016 H   0  0  0  0  0  0  0  0  0  0  0  0
   12.9662   -5.9870   -4.3502 H   0  0  0  0  0  0  0  0  0  0  0  0
   12.5592   -3.2556   -6.7418 H   0  0  0  0  0  0  0  0  0  0  0  0
   13.7174   -4.4615   -7.2687 H   0  0  0  0  0  0  0  0  0  0  0  0
   13.6164   -3.9523   -5.5563 H   0  0  0  0  0  0  0  0  0  0  0  0
   14.3661   -9.2596   -2.2874 H   0  0  0  0  0  0  0  0  0  0  0  0
   16.0339   -9.6715   -3.1751 H   0  0  0  0  0  0  0  0  0  0  0  0
   15.8470   -8.3083   -2.3335 H   0  0  0  0  0  0  0  0  0  0  0  0
    9.9080   -3.4085   -7.6734 H   0  0  0  0  0  0  0  0  0  0  0  0
   12.8202  -10.9887   -4.3065 H   0  0  0  0  0  0  0  0  0  0  0  0
   11.5739  -10.0950   -4.8487 H   0  0  0  0  0  0  0  0  0  0  0  0
   11.5070   -5.8301   -8.3736 H   0  0  0  0  0  0  0  0  0  0  0  0
   13.7151  -10.4210   -6.9472 H   0  0  0  0  0  0  0  0  0  0  0  0
   13.8346   -8.9292   -6.4000 H   0  0  0  0  0  0  0  0  0  0  0  0
   10.7884   -3.3209   -5.4125 H   0  0  0  0  0  0  0  0  0  0  0  0
   10.3239   -8.7322   -4.9749 H   0  0  0  0  0  0  0  0  0  0  0  0
   16.2322   -7.2857   -4.2663 H   0  0  0  0  0  0  0  0  0  0  0  0
   14.8244   -6.7203   -3.4324 H   0  0  0  0  0  0  0  0  0  0  0  0
   16.0310  -11.9332   -2.1672 H   0  0  0  0  0  0  0  0  0  0  0  0
   15.2262  -10.6287   -1.7346 H   0  0  0  0  0  0  0  0  0  0  0  0
   13.1809  -11.4081   -2.2528 H   0  0  0  0  0  0  0  0  0  0  0  0
   15.3636   -4.8761   -4.8728 H   0  0  0  0  0  0  0  0  0  0  0  0
   15.8423  -10.9159   -6.4260 H   0  0  0  0  0  0  0  0  0  0  0  0
  1 32  1  0  0  0  0
  1 33  1  0  0  0  0
  1 34  1  0  0  0  0
  2 35  1  0  0  0  0
  2 36  1  0  0  0  0
  2 37  1  0  0  0  0
  3 38  1  0  0  0  0
  4 39  1  0  0  0  0
  4 40  1  0  0  0  0
  5  3  2  0  0  0  0
  5 41  1  0  0  0  0
  6  4  1  0  0  0  0
  6 42  1  0  0  0  0
  6 43  1  0  0  0  0
  7 44  1  0  0  0  0
  8 45  1  0  0  0  0
  9 46  1  0  0  0  0
  9 47  1  0  0  0  0
 10 48  1  0  0  0  0
 10 49  1  0  0  0  0
 11  3  1  0  0  0  0
 11  7  1  0  0  0  0
 12  8  1  0  0  0  0
 12 28  1  1  0  0  0
 13  4  1  0  0  0  0
 13 12  1  0  0  0  0
 13 29  1  6  0  0  0
 14  7  2  0  0  0  0
 15  8  2  0  0  0  0
 15 14  1  0  0  0  0
 16  9  1  0  0  0  0
 16 30  1  6  0  0  0
 16 25  1  0  0  0  0
 17 10  1  0  0  0  0
 18 12  1  0  0  0  0
 18 16  1  0  0  0  0
 18 31  1  6  0  0  0
 19  5  1  0  0  0  0
 19 14  1  0  0  0  0
 19 18  1  0  0  0  0
 19  1  1  1  0  0  0
 20  9  1  0  0  0  0
 20 13  1  0  0  0  0
 20  2  1  1  0  0  0
 21  6  1  0  0  0  0
 21 20  1  0  0  0  0
 21 27  1  6  0  0  0
 21 17  1  0  0  0  0
 22 15  1  0  0  0  0
 23 10  1  0  0  0  0
 23 50  1  0  0  0  0
 24 11  2  0  0  0  0
 25 51  1  0  0  0  0
 26 17  2  0  0  0  0
 27 52  1  0  0  0  0
M  END
>  <DRUGBANK_ID>
DB13843

>  <COMMON_NAME>
Cloprednol

>  <CAS_NUMBER>
5251-34-3

>  <UNII>
SYP56O3GJG

>  <SYNONYMS>
Cloprednol

$$$$
