Uridine diphosphate acetylgalactosamine-4-sulfate.mol
 OpenBabel10282417133D

 39 40  0  0  0  0  0  0  0  0999 V2000
    0.9575   -0.2720    0.2660 C   0  0  0  0  0  0  0  0  0  0  0  0
    0.3160   -1.4225   -0.4964 C   0  0  2  0  0  0  0  0  0  0  0  0
    0.6153   -2.7191    0.2120 C   0  0  1  0  0  0  0  0  0  0  0  0
   -0.6299   -3.3563    0.4820 O   0  0  0  0  0  0  0  0  0  0  0  0
    1.5309   -3.4803   -0.7010 C   0  0  1  0  0  0  0  0  0  0  0  0
    1.4240   -4.8749   -0.4811 O   0  0  0  0  0  0  0  0  0  0  0  0
    1.0852   -2.9654   -2.0708 C   0  0  1  0  0  0  0  0  0  0  0  0
    0.6722   -1.5867   -1.8636 O   0  0  0  0  0  0  0  0  0  0  0  0
    2.1444   -3.0088   -3.0711 N   0  0  0  0  0  0  0  0  0  0  0  0
    2.6956   -4.2476   -3.3814 C   0  0  0  0  0  0  0  0  0  0  0  0
    2.3225   -5.3231   -2.9319 O   0  0  0  0  0  0  0  0  0  0  0  0
    3.7352   -4.2203   -4.2721 N   0  0  0  0  0  0  0  0  0  0  0  0
    4.3761   -3.1021   -4.6941 C   0  0  0  0  0  0  0  0  0  0  0  0
    5.4481   -3.1295   -5.3099 O   0  0  0  0  0  0  0  0  0  0  0  0
    3.7150   -1.8294   -4.4004 C   0  0  0  0  0  0  0  0  0  0  0  0
    2.6131   -1.8465   -3.6494 C   0  0  0  0  0  0  0  0  0  0  0  0
    1.4775   -0.7651    2.9016 P   0  0  3  0  0  0  0  0  0  0  0  0
    2.7431    0.0177    2.7884 O   0  0  0  0  0  0  0  0  0  0  0  0
    0.5133   -0.4812    1.6232 O   0  0  0  0  0  0  0  0  0  0  0  0
   -0.8360   -2.3117    3.4854 O   0  0  0  0  0  0  0  0  0  0  0  0
    0.4216   -0.1100    3.9407 O   0  0  0  0  0  0  0  0  0  0  0  0
    1.6090   -2.3179    3.4445 O   0  0  0  0  0  0  0  0  0  0  0  0
    0.3165   -3.4159    3.7866 P   0  0  0  0  0  0  0  0  0  0  0  0
    0.6678   -4.2606    2.5817 O   0  0  0  0  0  0  0  0  0  0  0  0
   -0.9760   -4.5138    4.1286 O   0  0  0  0  0  0  0  0  0  0  0  0
    0.5571    0.6699   -0.1548 H   0  0  0  0  0  0  0  0  0  0  0  0
    2.0458   -0.2000    0.1676 H   0  0  0  0  0  0  0  0  0  0  0  0
   -0.7639   -1.2287   -0.4762 H   0  0  0  0  0  0  0  0  0  0  0  0
    1.1581   -2.5794    1.1377 H   0  0  0  0  0  0  0  0  0  0  0  0
   -1.0609   -3.6016   -0.3460 H   0  0  0  0  0  0  0  0  0  0  0  0
    2.5736   -3.1872   -0.5127 H   0  0  0  0  0  0  0  0  0  0  0  0
    0.4847   -5.1077   -0.3836 H   0  0  0  0  0  0  0  0  0  0  0  0
    0.2312   -3.5518   -2.4332 H   0  0  0  0  0  0  0  0  0  0  0  0
    4.1556   -5.1130   -4.4773 H   0  0  0  0  0  0  0  0  0  0  0  0
    4.1370   -0.9214   -4.8044 H   0  0  0  0  0  0  0  0  0  0  0  0
    2.0721   -0.9242   -3.4607 H   0  0  0  0  0  0  0  0  0  0  0  0
   -0.9635   -1.7355    4.2676 H   0  0  0  0  0  0  0  0  0  0  0  0
   -0.3168    0.2255    3.3804 H   0  0  0  0  0  0  0  0  0  0  0  0
   -1.8122   -4.0215    4.0704 H   0  0  0  0  0  0  0  0  0  0  0  0
  1 19  1  0  0  0  0
  1 26  1  0  0  0  0
  1 27  1  0  0  0  0
  2  1  1  0  0  0  0
  2  3  1  0  0  0  0
  2  8  1  0  0  0  0
  2 28  1  1  0  0  0
  3  4  1  0  0  0  0
  3  5  1  0  0  0  0
  3 29  1  1  0  0  0
  4 30  1  0  0  0  0
  5  6  1  0  0  0  0
  5  7  1  0  0  0  0
  5 31  1  1  0  0  0
  6 32  1  0  0  0  0
  7  8  1  0  0  0  0
  7 33  1  6  0  0  0
  7  9  1  0  0  0  0
  9 10  1  0  0  0  0
  9 16  1  0  0  0  0
 10 11  2  0  0  0  0
 10 12  1  0  0  0  0
 12 13  1  0  0  0  0
 12 34  1  0  0  0  0
 13 14  2  0  0  0  0
 13 15  1  0  0  0  0
 15 16  2  0  0  0  0
 15 35  1  0  0  0  0
 16 36  1  0  0  0  0
 17 18  2  0  0  0  0
 17 19  1  0  0  0  0
 17 21  1  0  0  0  0
 17 22  1  0  0  0  0
 20 23  1  0  0  0  0
 20 37  1  0  0  0  0
 21 38  1  0  0  0  0
 22 23  1  0  0  0  0
 23 24  2  0  0  0  0
 23 25  1  0  0  0  0
 25 39  1  0  0  0  0
M  END
>  <DRUGBANK_ID>
DB03435

>  <SECONDARY_ACCESSION_NUMBERS>
EXPT03172

>  <COMMON_NAME>
Uridine-5'-Diphosphate

>  <CAS_NUMBER>
58-98-0

>  <UNII>
5G0F599A1Y

$$$$
