
 OpenBabel10282417123D

 42 44  0  0  0  0  0  0  0  0999 V2000
    1.6515   -1.0267    0.0947 N   0  0  0  0  0  0  0  0  0  0  0  0
    2.4101    0.1292    0.1775 C   0  0  0  0  0  0  0  0  0  0  0  0
    1.5448    1.2179    0.1375 C   0  0  0  0  0  0  0  0  0  0  0  0
    0.2277    0.6962    0.0641 C   0  0  0  0  0  0  0  0  0  0  0  0
   -1.0283    1.4085   -0.0616 C   0  0  0  0  0  0  0  0  0  0  0  0
   -2.2421    0.5395    0.1115 C   0  0  0  0  0  0  0  0  0  0  0  0
   -2.1400   -0.8062    0.0941 C   0  0  0  0  0  0  0  0  0  0  0  0
   -0.8471   -1.5195   -0.0794 C   0  0  0  0  0  0  0  0  0  0  0  0
    0.3193   -0.6856    0.0304 C   0  0  0  0  0  0  0  0  0  0  0  0
   -1.1155    2.6184   -0.2547 O   0  0  0  0  0  0  0  0  0  0  0  0
   -0.8554   -2.7303   -0.2824 O   0  0  0  0  0  0  0  0  0  0  0  0
    1.9174    2.6654    0.0124 C   0  0  0  0  0  0  0  0  0  0  0  0
    1.4877    3.3255   -1.1980 O   0  0  0  0  0  0  0  0  0  0  0  0
    1.9257    2.8442   -2.3986 C   0  0  0  0  0  0  0  0  0  0  0  0
    1.8989    1.5010   -2.7719 C   0  0  0  0  0  0  0  0  0  0  0  0
    2.3302    1.0651   -4.0151 C   0  0  0  0  0  0  0  0  0  0  0  0
    2.7305    2.0107   -4.9462 C   0  0  0  0  0  0  0  0  0  0  0  0
    2.6574    3.3778   -4.6445 C   0  0  0  0  0  0  0  0  0  0  0  0
    2.2919    3.7878   -3.3549 C   0  0  0  0  0  0  0  0  0  0  0  0
    3.2796    1.5526   -6.2214 N   0  3  0  0  0  0  0  0  0  0  0  0
    3.6480    2.4134   -7.0309 O   0  0  0  0  0  0  0  0  0  0  0  0
    3.3748    0.3288   -6.4014 O   0  5  0  0  0  0  0  0  0  0  0  0
    3.9002    0.1667    0.1811 C   0  0  0  0  0  0  0  0  0  0  0  0
    2.2032   -2.3671    0.0716 C   0  0  0  0  0  0  0  0  0  0  0  0
   -3.4141    1.2487    0.2963 O   0  0  0  0  0  0  0  0  0  0  0  0
   -4.5939    0.5004    0.5267 C   0  0  0  0  0  0  0  0  0  0  0  0
   -2.9863   -1.4657    0.2199 H   0  0  0  0  0  0  0  0  0  0  0  0
    1.4485    3.2010    0.8485 H   0  0  0  0  0  0  0  0  0  0  0  0
    2.9968    2.8129    0.1188 H   0  0  0  0  0  0  0  0  0  0  0  0
    1.5232    0.7236   -2.1348 H   0  0  0  0  0  0  0  0  0  0  0  0
    2.3274   -0.0027   -4.2199 H   0  0  0  0  0  0  0  0  0  0  0  0
    2.8839    4.1294   -5.3954 H   0  0  0  0  0  0  0  0  0  0  0  0
    2.2959    4.8445   -3.0968 H   0  0  0  0  0  0  0  0  0  0  0  0
    4.2628    0.7021   -0.7044 H   0  0  0  0  0  0  0  0  0  0  0  0
    4.2431    0.7102    1.0668 H   0  0  0  0  0  0  0  0  0  0  0  0
    4.3599   -0.8225    0.1847 H   0  0  0  0  0  0  0  0  0  0  0  0
    2.8513   -2.4664   -0.8044 H   0  0  0  0  0  0  0  0  0  0  0  0
    2.7763   -2.5071    0.9914 H   0  0  0  0  0  0  0  0  0  0  0  0
    1.4189   -3.1195    0.0239 H   0  0  0  0  0  0  0  0  0  0  0  0
   -4.8188   -0.1258   -0.3416 H   0  0  0  0  0  0  0  0  0  0  0  0
   -4.4944   -0.1023    1.4352 H   0  0  0  0  0  0  0  0  0  0  0  0
   -5.4183    1.2022    0.6692 H   0  0  0  0  0  0  0  0  0  0  0  0
  1  2  1  0  0  0  0
  1  9  1  0  0  0  0
  1 24  1  0  0  0  0
  2  3  2  0  0  0  0
  2 23  1  0  0  0  0
  3  4  1  0  0  0  0
  3 12  1  0  0  0  0
  4  5  1  0  0  0  0
  4  9  2  0  0  0  0
  5  6  1  0  0  0  0
  5 10  2  0  0  0  0
  6  7  2  0  0  0  0
  6 25  1  0  0  0  0
  7  8  1  0  0  0  0
  7 27  1  0  0  0  0
  8  9  1  0  0  0  0
  8 11  2  0  0  0  0
 12 13  1  0  0  0  0
 12 28  1  0  0  0  0
 12 29  1  0  0  0  0
 13 14  1  0  0  0  0
 14 15  1  0  0  0  0
 14 19  2  0  0  0  0
 15 16  2  0  0  0  0
 15 30  1  0  0  0  0
 16 17  1  0  0  0  0
 16 31  1  0  0  0  0
 17 18  2  0  0  0  0
 17 20  1  0  0  0  0
 18 19  1  0  0  0  0
 18 32  1  0  0  0  0
 19 33  1  0  0  0  0
 20 21  2  0  0  0  0
 20 22  1  0  0  0  0
 23 34  1  0  0  0  0
 23 35  1  0  0  0  0
 23 36  1  0  0  0  0
 24 37  1  0  0  0  0
 24 38  1  0  0  0  0
 24 39  1  0  0  0  0
 25 26  1  0  0  0  0
 26 40  1  0  0  0  0
 26 41  1  0  0  0  0
 26 42  1  0  0  0  0
M  CHG  2  20   1  22  -1
M  END
>  <DRUGBANK_ID>
DB02400

>  <SECONDARY_ACCESSION_NUMBERS>
EXPT00341

>  <COMMON_NAME>
ES-936

>  <CAS_NUMBER>
192820-78-3

>  <UNII>
1XI90I177M

$$$$
