
 OpenBabel10282417123D

 32 31  0  0  0  0  0  0  0  0999 V2000
    1.0156   -0.0927    0.1339 C   0  0  2  0  0  0  0  0  0  0  0  0
    0.5202    0.1791   -1.3259 C   0  0  0  0  0  0  0  0  0  0  0  0
    0.6364   -1.4893    0.6912 C   0  0  0  0  0  0  0  0  0  0  0  0
    0.5999    0.9524    1.0175 O   0  0  0  0  0  0  0  0  0  0  0  0
    1.0555   -0.8573   -2.3476 C   0  0  0  0  0  0  0  0  0  0  0  0
   -1.0190    0.2057   -1.3789 C   0  0  0  0  0  0  0  0  0  0  0  0
    1.0408    1.5620   -1.7926 C   0  0  0  0  0  0  0  0  0  0  0  0
   -0.3498   -1.5258    1.6494 N   0  0  0  0  0  0  0  0  0  0  0  0
    1.1552   -2.5168    0.2521 O   0  0  0  0  0  0  0  0  0  0  0  0
    0.5174   -2.1573   -2.1776 O   0  0  0  0  0  0  0  0  0  0  0  0
   -0.8245   -2.7872    2.2013 C   0  0  0  0  0  0  0  0  0  0  0  0
   -0.3155   -3.0662    3.6111 C   0  0  0  0  0  0  0  0  0  0  0  0
   -0.7941   -1.9852    4.5456 C   0  0  0  0  0  0  0  0  0  0  0  0
   -1.5589   -2.4113    5.5719 O   0  0  0  0  0  0  0  0  0  0  0  0
   -0.5431   -0.8011    4.3785 O   0  0  0  0  0  0  0  0  0  0  0  0
    2.1126   -0.0690    0.1451 H   0  0  0  0  0  0  0  0  0  0  0  0
   -0.3706    0.9929    0.9998 H   0  0  0  0  0  0  0  0  0  0  0  0
    0.7731   -0.5560   -3.3633 H   0  0  0  0  0  0  0  0  0  0  0  0
    2.1497   -0.9149   -2.3244 H   0  0  0  0  0  0  0  0  0  0  0  0
   -1.4331    0.9965   -0.7453 H   0  0  0  0  0  0  0  0  0  0  0  0
   -1.3753    0.3956   -2.3974 H   0  0  0  0  0  0  0  0  0  0  0  0
   -1.4458   -0.7464   -1.0493 H   0  0  0  0  0  0  0  0  0  0  0  0
    0.6900    2.3734   -1.1471 H   0  0  0  0  0  0  0  0  0  0  0  0
    2.1370    1.5884   -1.8020 H   0  0  0  0  0  0  0  0  0  0  0  0
    0.7014    1.7882   -2.8114 H   0  0  0  0  0  0  0  0  0  0  0  0
   -0.4775   -0.6879    2.2190 H   0  0  0  0  0  0  0  0  0  0  0  0
    0.9221   -2.5486   -1.3723 H   0  0  0  0  0  0  0  0  0  0  0  0
   -1.9187   -2.7512    2.1869 H   0  0  0  0  0  0  0  0  0  0  0  0
   -0.5163   -3.6099    1.5460 H   0  0  0  0  0  0  0  0  0  0  0  0
   -0.6732   -4.0481    3.9411 H   0  0  0  0  0  0  0  0  0  0  0  0
    0.7792   -3.0923    3.6453 H   0  0  0  0  0  0  0  0  0  0  0  0
   -1.7196   -3.3711    5.6243 H   0  0  0  0  0  0  0  0  0  0  0  0
  1  2  1  0  0  0  0
  1  3  1  0  0  0  0
  1  4  1  0  0  0  0
  1 16  1  6  0  0  0
  2  5  1  0  0  0  0
  2  6  1  0  0  0  0
  2  7  1  0  0  0  0
  3  8  1  0  0  0  0
  3  9  2  0  0  0  0
  4 17  1  0  0  0  0
  5 10  1  0  0  0  0
  5 18  1  0  0  0  0
  5 19  1  0  0  0  0
  6 20  1  0  0  0  0
  6 21  1  0  0  0  0
  6 22  1  0  0  0  0
  7 23  1  0  0  0  0
  7 24  1  0  0  0  0
  7 25  1  0  0  0  0
  8 11  1  0  0  0  0
  8 26  1  0  0  0  0
 10 27  1  0  0  0  0
 11 12  1  0  0  0  0
 11 28  1  0  0  0  0
 11 29  1  0  0  0  0
 12 13  1  0  0  0  0
 12 30  1  0  0  0  0
 12 31  1  0  0  0  0
 13 14  1  0  0  0  0
 13 15  2  0  0  0  0
 14 32  1  0  0  0  0
M  END
>  <DRUGBANK_ID>
DB01783

>  <SECONDARY_ACCESSION_NUMBERS>
EXPT02501

>  <COMMON_NAME>
Pantothenic acid

>  <CAS_NUMBER>
79-83-4

>  <UNII>
19F5HK2737

>  <SYNONYMS>
(+)-Pantothenic acid; D-pantothenic acid; Pantothenate; Vitamin B5

$$$$
