
 OpenBabel10282417233D

308312  0  0  1  0  0  0  0  0999 V2000
   -4.7936   -4.5938  -13.3343 H   0  0  0  0  0  0  0  0  0  0  0  0
   -4.7857   -4.9994  -12.3533 C   0  0  1  0  0  0  0  0  0  0  0  0
   -5.6702   -3.8483  -11.3816 N   0  0  0  0  0  0  0  0  0  0  0  0
   -4.8721   -2.4657  -10.9596 C   0  0  0  0  0  0  0  0  0  0  0  0
   -5.6654   -1.9516  -10.1885 O   0  0  0  0  0  0  0  0  0  0  0  0
   -3.2418   -1.6753  -11.6780 C   0  0  2  0  0  0  0  0  0  0  0  0
   -3.0149   -0.2591  -11.4701 C   0  0  0  0  0  0  0  0  0  0  0  0
   -4.1694    0.3869  -12.1949 C   0  0  0  0  0  0  0  0  0  0  0  0
   -5.4940    0.0381  -11.6083 C   0  0  0  0  0  0  0  0  0  0  0  0
   -5.4327    0.2408  -10.1390 N   0  0  0  0  0  0  0  0  0  0  0  0
   -6.4801    0.8191   -9.5103 C   0  0  0  0  0  0  0  0  0  0  0  0
   -6.4199    0.9711   -8.1694 N   0  0  0  0  0  0  0  0  0  0  0  0
   -7.3995    1.3305  -10.2514 N   0  0  0  0  0  0  0  0  0  0  0  0
   -2.5174   -1.4746  -13.1803 N   0  0  0  0  0  0  0  0  0  0  0  0
   -1.0818   -1.8758  -13.6649 C   0  0  0  0  0  0  0  0  0  0  0  0
   -1.0065   -1.8963  -14.9719 O   0  0  0  0  0  0  0  0  0  0  0  0
   -0.2620   -3.3877  -12.5882 C   0  0  2  0  0  0  0  0  0  0  0  0
    1.0042   -2.9288  -12.3966 C   0  0  0  0  0  0  0  0  0  0  0  0
    0.7294   -2.2953  -11.1170 C   0  0  0  0  0  0  0  0  0  0  0  0
    0.5195   -3.1651   -9.9379 C   0  0  0  0  0  0  0  0  0  0  0  0
    1.4502   -4.3564   -9.9720 N   0  0  0  0  0  0  0  0  0  0  0  0
    2.1999   -4.6247   -8.8425 C   0  0  0  0  0  0  0  0  0  0  0  0
    2.9077   -5.7674   -8.7515 N   0  0  0  0  0  0  0  0  0  0  0  0
    2.2020   -3.7578   -7.8870 N   0  0  0  0  0  0  0  0  0  0  0  0
    0.5768   -5.2430  -12.5759 N   0  0  0  0  0  0  0  0  0  0  0  0
   -0.3731   -6.6003  -12.0314 C   0  0  0  0  0  0  0  0  0  0  0  0
   -0.0777   -7.6951  -12.6676 O   0  0  0  0  0  0  0  0  0  0  0  0
   -2.0229   -5.9135  -10.8009 C   0  0  2  0  0  0  0  0  0  0  0  0
   -3.9804   -4.5432  -10.9124 C   0  0  0  0  0  0  0  0  0  0  0  0
   -3.6742   -3.6668  -12.8740 C   0  0  0  0  0  0  0  0  0  0  0  0
   -3.4852   -5.0302  -14.6129 C   0  0  0  0  0  0  0  0  0  0  0  0
   -5.0610   -2.8980  -13.1693 C   0  0  0  0  0  0  0  0  0  0  0  0
   -1.3157   -5.1597   -9.6890 N   0  0  0  0  0  0  0  0  0  0  0  0
   -0.7456   -5.4030   -8.5235 C   0  0  0  0  0  0  0  0  0  0  0  0
   -0.0002   -4.5478   -8.1421 O   0  0  0  0  0  0  0  0  0  0  0  0
   -0.8194   -6.6217   -7.6632 C   0  0  2  0  0  0  0  0  0  0  0  0
   -1.5709   -6.3004   -6.4337 C   0  0  0  0  0  0  0  0  0  0  0  0
   -0.8762   -5.1654   -5.7996 C   0  0  0  0  0  0  0  0  0  0  0  0
    0.0792   -5.4853   -4.8713 C   0  0  0  0  0  0  0  0  0  0  0  0
    0.9753   -4.5188   -4.4702 C   0  0  0  0  0  0  0  0  0  0  0  0
    0.9812   -3.2609   -5.0537 C   0  0  0  0  0  0  0  0  0  0  0  0
    0.0907   -2.9768   -6.0634 C   0  0  0  0  0  0  0  0  0  0  0  0
   -0.9707   -3.8469   -6.2911 C   0  0  0  0  0  0  0  0  0  0  0  0
    0.2849   -7.5182   -7.7650 N   0  0  0  0  0  0  0  0  0  0  0  0
    0.3306   -8.7942   -8.3120 C   0  0  0  0  0  0  0  0  0  0  0  0
    1.4036   -9.3581   -8.5070 O   0  0  0  0  0  0  0  0  0  0  0  0
   -0.9185   -9.5606   -8.7877 C   0  0  0  0  0  0  0  0  0  0  0  0
   -2.2172   -9.5769   -8.1874 N   0  0  0  0  0  0  0  0  0  0  0  0
   -3.4077   -8.9277   -8.4001 C   0  0  0  0  0  0  0  0  0  0  0  0
   -4.3485   -8.8848   -7.6235 O   0  0  0  0  0  0  0  0  0  0  0  0
   -3.5728   -8.1405   -9.5689 C   0  0  0  0  0  0  0  0  0  0  0  0
   -2.3673   -7.3520   -9.2572 N   0  0  0  0  0  0  0  0  0  0  0  0
   -0.9294   -7.3937  -10.0509 C   0  0  0  0  0  0  0  0  0  0  0  0
    0.1287   -6.7045  -10.0814 O   0  0  0  0  0  0  0  0  0  0  0  0
   -1.4402   -8.2208  -11.2372 C   0  0  1  0  0  0  0  0  0  0  0  0
   -1.4015   -9.6068  -11.2125 N   0  0  0  0  0  0  0  0  0  0  0  0
   -3.0492   -7.6986  -12.2268 C   0  0  0  0  0  0  0  0  0  0  0  0
   -3.5741   -6.0781  -13.1184 C   0  0  0  0  0  0  0  0  0  0  0  0
   -5.1151   -5.7639  -14.3708 C   0  0  0  0  0  0  0  0  0  0  0  0
   -5.0695   -4.2715  -15.3700 C   0  0  0  0  0  0  0  0  0  0  0  0
   -3.6473   -3.1721  -15.3269 C   0  0  0  0  0  0  0  0  0  0  0  0
   -3.7812   -1.8317  -15.3956 O   0  0  0  0  0  0  0  0  0  0  0  0
   -2.3447   -3.5314  -14.5213 C   0  0  0  0  0  0  0  0  0  0  0  0
   -2.2110   -4.7789  -13.6281 C   0  0  0  0  0  0  0  0  0  0  0  0
   -2.6595   -4.7199  -11.7316 C   0  0  1  0  0  0  0  0  0  0  0  0
   -3.4316   -5.4955   -9.6940 C   0  0  0  0  0  0  0  0  0  0  0  0
   -1.2194   -5.0394  -12.3258 C   0  0  0  0  0  0  0  0  0  0  0  0
   -0.3344   -4.7224  -14.3049 C   0  0  0  0  0  0  0  0  0  0  0  0
   -5.3556   -6.7880  -12.6792 C   0  0  0  0  0  0  0  0  0  0  0  0
   -6.5931   -6.6804  -12.5807 O   0  0  0  0  0  0  0  0  0  0  0  0
   -4.3524   -7.6160  -14.0390 N   0  0  0  0  0  0  0  0  0  0  0  0
   -2.6398   -7.4389  -15.0024 C   0  0  1  0  0  0  0  0  0  0  0  0
   -1.4542   -7.9353  -14.2496 C   0  0  0  0  0  0  0  0  0  0  0  0
   -1.6085   -9.3530  -13.9482 C   0  0  0  0  0  0  0  0  0  0  0  0
   -1.0593   -9.5465  -15.1942 C   0  0  0  0  0  0  0  0  0  0  0  0
    0.2467   -9.1303  -15.4829 N   0  0  0  0  0  0  0  0  0  0  0  0
    0.8757  -10.0604  -16.2046 C   0  0  0  0  0  0  0  0  0  0  0  0
    2.0160   -9.6759  -16.7116 N   0  0  0  0  0  0  0  0  0  0  0  0
    0.3912  -11.2342  -16.3545 N   0  0  0  0  0  0  0  0  0  0  0  0
   -2.4197   -6.9884  -16.4175 C   0  0  0  0  0  0  0  0  0  0  0  0
   -1.7618   -6.0360  -16.8411 O   0  0  0  0  0  0  0  0  0  0  0  0
   -2.7975   -8.1447  -16.9832 N   0  0  0  0  0  0  0  0  0  0  0  0
   -3.7565   -9.0880  -16.3016 C   0  0  0  0  0  0  0  0  0  0  0  0
   -3.1860  -10.4905  -16.2267 C   0  0  0  0  0  0  0  0  0  0  0  0
   -2.0825  -10.3721  -17.3413 C   0  0  0  0  0  0  0  0  0  0  0  0
   -1.6719   -8.8823  -17.5520 C   0  0  1  0  0  0  0  0  0  0  0  0
   -1.6173   -8.3098  -18.8699 C   0  0  0  0  0  0  0  0  0  0  0  0
   -0.7115   -7.5599  -19.2102 O   0  0  0  0  0  0  0  0  0  0  0  0
   -2.7082   -8.6044  -19.5892 N   0  0  0  0  0  0  0  0  0  0  0  0
   -3.8232   -9.4687  -19.2462 C   0  0  1  0  0  0  0  0  0  0  0  0
   -5.1441   -8.6956  -19.0722 C   0  0  0  0  0  0  0  0  0  0  0  0
   -5.6220   -8.2126  -20.3598 C   0  0  0  0  0  0  0  0  0  0  0  0
   -5.9688   -9.5582  -20.9268 C   0  0  0  0  0  0  0  0  0  0  0  0
   -6.9200  -10.5981  -20.7409 C   0  0  0  0  0  0  0  0  0  0  0  0
   -8.0562   -9.8030  -20.9589 N   0  0  0  0  0  0  0  0  0  0  0  0
   -3.6504  -10.8394  -20.0618 C   0  0  0  0  0  0  0  0  0  0  0  0
   -3.8051  -11.9386  -19.5164 O   0  0  0  0  0  0  0  0  0  0  0  0
   -3.6062  -10.6804  -21.5042 N   0  0  0  0  0  0  0  0  0  0  0  0
   -4.0847   -9.2242  -22.3032 C   0  0  1  0  0  0  0  0  0  0  0  0
   -2.9690   -8.8703  -23.1636 C   0  0  0  0  0  0  0  0  0  0  0  0
   -3.0594   -9.8397  -24.2386 C   0  0  0  0  0  0  0  0  0  0  0  0
   -4.2367   -9.1811  -24.8103 C   0  0  0  0  0  0  0  0  0  0  0  0
   -2.0634   -9.7035  -25.2548 C   0  0  0  0  0  0  0  0  0  0  0  0
   -5.8384   -8.7266  -23.0146 C   0  0  0  0  0  0  0  0  0  0  0  0
   -6.6511   -7.8608  -22.6961 O   0  0  0  0  0  0  0  0  0  0  0  0
   -6.4069  -10.1784  -23.5546 N   0  0  0  0  0  0  0  0  0  0  0  0
   -5.3465  -11.4093  -24.1068 C   0  0  1  0  0  0  0  0  0  0  0  0
   -5.7682  -12.7686  -23.7953 C   0  0  0  0  0  0  0  0  0  0  0  0
   -7.0016  -12.9700  -24.5228 C   0  0  0  0  0  0  0  0  0  0  0  0
   -6.4580  -13.0218  -25.9044 C   0  0  0  0  0  0  0  0  0  0  0  0
   -5.5241  -13.7558  -26.7124 C   0  0  0  0  0  0  0  0  0  0  0  0
   -6.2257  -14.9539  -26.6041 N   0  0  0  0  0  0  0  0  0  0  0  0
   -4.7689  -11.2721  -25.7491 C   0  0  0  0  0  0  0  0  0  0  0  0
   -3.8032  -11.0852  -26.4779 O   0  0  0  0  0  0  0  0  0  0  0  0
   -6.0591  -10.4108  -26.1089 N   0  0  0  0  0  0  0  0  0  0  0  0
   -7.8208  -10.9227  -26.0105 C   0  0  1  0  0  0  0  0  0  0  0  0
   -8.4035   -9.6517  -26.5576 C   0  0  0  0  0  0  0  0  0  0  0  0
   -7.6076   -9.6696  -27.8285 C   0  0  0  0  0  0  0  0  0  0  0  0
   -7.0286  -10.8943  -27.9044 C   0  0  0  0  0  0  0  0  0  0  0  0
   -5.8052  -11.2207  -28.2083 N   0  0  0  0  0  0  0  0  0  0  0  0
   -5.5476  -10.0096  -28.7455 C   0  0  0  0  0  0  0  0  0  0  0  0
   -4.3059   -9.6451  -28.9999 C   0  0  0  0  0  0  0  0  0  0  0  0
   -4.3210   -8.5323  -29.7508 C   0  0  0  0  0  0  0  0  0  0  0  0
   -5.4972   -7.8769  -30.1398 C   0  0  0  0  0  0  0  0  0  0  0  0
   -6.7485   -8.2821  -29.7515 C   0  0  0  0  0  0  0  0  0  0  0  0
   -6.6677   -9.1027  -28.6647 C   0  0  0  0  0  0  0  0  0  0  0  0
   -8.7210  -12.5013  -26.8440 C   0  0  0  0  0  0  0  0  0  0  0  0
   -8.8874  -13.5942  -26.2569 O   0  0  0  0  0  0  0  0  0  0  0  0
   -8.4107  -12.7651  -28.4820 N   0  0  0  0  0  0  0  0  0  0  0  0
   -7.7731  -11.7379  -29.7389 C   0  0  1  0  0  0  0  0  0  0  0  0
   -6.3530  -11.8715  -30.3297 C   0  0  0  0  0  0  0  0  0  0  0  0
   -6.3882  -12.9979  -31.1147 C   0  0  0  0  0  0  0  0  0  0  0  0
   -6.4031  -12.5037  -32.3502 O   0  0  0  0  0  0  0  0  0  0  0  0
   -6.6121  -14.1048  -30.6381 O   0  0  0  0  0  0  0  0  0  0  0  0
   -8.8810  -10.9413  -30.2630 C   0  0  0  0  0  0  0  0  0  0  0  0
   -9.2695   -9.8126  -29.9963 O   0  0  0  0  0  0  0  0  0  0  0  0
   -9.4428  -11.7781  -31.1102 N   0  0  0  0  0  0  0  0  0  0  0  0
   -9.0521  -13.1802  -31.3066 C   0  0  1  0  0  0  0  0  0  0  0  0
   -9.9075  -14.2376  -30.7261 C   0  0  0  0  0  0  0  0  0  0  0  0
  -11.1472  -14.2026  -31.4120 C   0  0  0  0  0  0  0  0  0  0  0  0
  -11.3745  -15.3282  -32.2401 N   0  0  0  0  0  0  0  0  0  0  0  0
  -11.8801  -13.2074  -31.3158 O   0  0  0  0  0  0  0  0  0  0  0  0
   -8.5192  -13.5376  -32.7410 C   0  0  0  0  0  0  0  0  0  0  0  0
   -7.5292  -14.1900  -33.0690 O   0  0  0  0  0  0  0  0  0  0  0  0
   -9.3115  -13.1378  -33.7620 N   0  0  0  0  0  0  0  0  0  0  0  0
  -10.7034  -12.7692  -33.6109 C   0  0  1  0  0  0  0  0  0  0  0  0
  -11.0573  -11.4648  -34.1765 C   0  0  0  0  0  0  0  0  0  0  0  0
  -10.8850  -11.6145  -35.6613 C   0  0  0  0  0  0  0  0  0  0  0  0
  -11.7627  -12.6382  -36.3772 C   0  0  0  0  0  0  0  0  0  0  0  0
  -12.8713  -12.3039  -37.0335 N   0  0  0  0  0  0  0  0  0  0  0  0
  -11.5059  -13.8242  -36.4967 O   0  0  0  0  0  0  0  0  0  0  0  0
  -11.8148  -13.8033  -33.9542 C   0  0  0  0  0  0  0  0  0  0  0  0
  -12.9721  -13.9736  -33.2026 O   0  0  0  0  0  0  0  0  0  0  0  0
  -11.5046  -14.8124  -34.5910 O   0  0  0  0  0  0  0  0  0  0  0  0
   -6.5465   -3.7642  -11.8654 H   0  0  0  0  0  0  0  0  0  0  0  0
   -2.4552   -2.1318  -11.0826 H   0  0  0  0  0  0  0  0  0  0  0  0
   -2.9413   -0.2161  -10.4057 H   0  0  0  0  0  0  0  0  0  0  0  0
   -2.0330    0.0030  -11.9298 H   0  0  0  0  0  0  0  0  0  0  0  0
   -4.0407    1.4306  -12.0572 H   0  0  0  0  0  0  0  0  0  0  0  0
   -4.1974    0.1369  -13.2725 H   0  0  0  0  0  0  0  0  0  0  0  0
   -6.3696    0.4464  -12.0817 H   0  0  0  0  0  0  0  0  0  0  0  0
   -5.7297   -0.8970  -12.0564 H   0  0  0  0  0  0  0  0  0  0  0  0
   -4.8743   -0.4409   -9.6080 H   0  0  0  0  0  0  0  0  0  0  0  0
   -7.1162    1.5267   -7.6888 H   0  0  0  0  0  0  0  0  0  0  0  0
   -5.7187    0.5568   -7.5703 H   0  0  0  0  0  0  0  0  0  0  0  0
   -8.0893    1.8626   -9.7437 H   0  0  0  0  0  0  0  0  0  0  0  0
   -3.2304   -1.4264  -13.9390 H   0  0  0  0  0  0  0  0  0  0  0  0
   -0.9551   -3.2696  -11.7067 H   0  0  0  0  0  0  0  0  0  0  0  0
    1.5935   -3.8143  -12.3685 H   0  0  0  0  0  0  0  0  0  0  0  0
    0.9585   -2.4834  -13.3589 H   0  0  0  0  0  0  0  0  0  0  0  0
    1.6803   -1.8967  -11.0141 H   0  0  0  0  0  0  0  0  0  0  0  0
   -0.1364   -1.6147  -11.1897 H   0  0  0  0  0  0  0  0  0  0  0  0
    0.5175   -2.6315   -9.0072 H   0  0  0  0  0  0  0  0  0  0  0  0
   -0.5881   -3.1566   -9.7746 H   0  0  0  0  0  0  0  0  0  0  0  0
    1.2279   -5.1423  -10.6074 H   0  0  0  0  0  0  0  0  0  0  0  0
    3.5413   -5.8871   -7.9701 H   0  0  0  0  0  0  0  0  0  0  0  0
    3.0168   -6.4162   -9.5160 H   0  0  0  0  0  0  0  0  0  0  0  0
    2.5992   -4.0502   -7.0060 H   0  0  0  0  0  0  0  0  0  0  0  0
    0.8407   -5.7074  -13.4545 H   0  0  0  0  0  0  0  0  0  0  0  0
   -2.5789   -6.7753  -10.8883 H   0  0  0  0  0  0  0  0  0  0  0  0
   -4.8150   -5.5046  -10.8714 H   0  0  0  0  0  0  0  0  0  0  0  0
   -3.8331   -3.7537  -10.1584 H   0  0  0  0  0  0  0  0  0  0  0  0
   -2.7387   -3.1621  -12.5627 H   0  0  0  0  0  0  0  0  0  0  0  0
   -3.5758   -5.9941  -14.9482 H   0  0  0  0  0  0  0  0  0  0  0  0
   -2.9939   -4.8788  -15.5349 H   0  0  0  0  0  0  0  0  0  0  0  0
   -2.5538   -6.1043  -14.1318 H   0  0  0  0  0  0  0  0  0  0  0  0
   -5.6706   -2.2885  -12.6169 H   0  0  0  0  0  0  0  0  0  0  0  0
   -4.8761   -2.3950  -13.9706 H   0  0  0  0  0  0  0  0  0  0  0  0
   -5.9209   -3.6605  -13.3499 H   0  0  0  0  0  0  0  0  0  0  0  0
   -0.9002   -4.4501  -10.1898 H   0  0  0  0  0  0  0  0  0  0  0  0
   -1.4508   -7.4096   -7.8420 H   0  0  0  0  0  0  0  0  0  0  0  0
   -2.6273   -6.0463   -6.6084 H   0  0  0  0  0  0  0  0  0  0  0  0
   -1.5229   -7.2454   -5.8988 H   0  0  0  0  0  0  0  0  0  0  0  0
    0.0651   -6.4719   -4.4333 H   0  0  0  0  0  0  0  0  0  0  0  0
    1.6845   -4.7585   -3.6991 H   0  0  0  0  0  0  0  0  0  0  0  0
    1.6624   -2.4879   -4.7329 H   0  0  0  0  0  0  0  0  0  0  0  0
    0.3263   -2.1691   -6.7583 H   0  0  0  0  0  0  0  0  0  0  0  0
   -1.6217   -3.6286   -7.1508 H   0  0  0  0  0  0  0  0  0  0  0  0
    1.1107   -7.0385   -7.4847 H   0  0  0  0  0  0  0  0  0  0  0  0
   -1.2607   -8.9318   -9.4735 H   0  0  0  0  0  0  0  0  0  0  0  0
   -0.6973  -10.3945   -9.4596 H   0  0  0  0  0  0  0  0  0  0  0  0
   -2.1122  -10.0593   -7.3552 H   0  0  0  0  0  0  0  0  0  0  0  0
   -3.4367   -8.6887  -10.4523 H   0  0  0  0  0  0  0  0  0  0  0  0
   -4.5668   -7.6115   -9.6314 H   0  0  0  0  0  0  0  0  0  0  0  0
   -2.5155   -6.5096   -8.6814 H   0  0  0  0  0  0  0  0  0  0  0  0
   -0.0081   -8.1343  -11.1686 H   0  0  0  0  0  0  0  0  0  0  0  0
   -1.4613   -9.8648  -12.1347 H   0  0  0  0  0  0  0  0  0  0  0  0
   -0.3787   -9.5512  -11.1565 H   0  0  0  0  0  0  0  0  0  0  0  0
   -3.0829   -8.3788  -13.0039 H   0  0  0  0  0  0  0  0  0  0  0  0
   -4.0042   -7.9821  -11.7958 H   0  0  0  0  0  0  0  0  0  0  0  0
   -5.8578   -6.4965  -14.5962 H   0  0  0  0  0  0  0  0  0  0  0  0
   -5.9355   -3.7817  -14.9872 H   0  0  0  0  0  0  0  0  0  0  0  0
   -4.7236   -1.7247  -15.2402 H   0  0  0  0  0  0  0  0  0  0  0  0
   -1.4776   -3.3887  -14.0311 H   0  0  0  0  0  0  0  0  0  0  0  0
   -1.2402   -5.8607  -13.8015 H   0  0  0  0  0  0  0  0  0  0  0  0
   -2.3701   -3.8085  -11.0744 H   0  0  0  0  0  0  0  0  0  0  0  0
   -3.8506   -6.3701  -10.2049 H   0  0  0  0  0  0  0  0  0  0  0  0
   -2.9502   -4.7863   -9.0807 H   0  0  0  0  0  0  0  0  0  0  0  0
   -4.5097   -5.1849   -9.2886 H   0  0  0  0  0  0  0  0  0  0  0  0
   -0.5921   -4.9768  -11.4546 H   0  0  0  0  0  0  0  0  0  0  0  0
   -1.8553   -6.1372  -12.4553 H   0  0  0  0  0  0  0  0  0  0  0  0
    0.1866   -3.7974  -14.4630 H   0  0  0  0  0  0  0  0  0  0  0  0
   -0.0242   -5.5441  -15.0150 H   0  0  0  0  0  0  0  0  0  0  0  0
   -1.1001   -4.6825  -15.2662 H   0  0  0  0  0  0  0  0  0  0  0  0
   -4.5949   -8.5465  -13.9474 H   0  0  0  0  0  0  0  0  0  0  0  0
   -1.9298   -6.5239  -15.1416 H   0  0  0  0  0  0  0  0  0  0  0  0
   -0.4138   -7.4565  -14.3509 H   0  0  0  0  0  0  0  0  0  0  0  0
   -1.7107   -7.5544  -13.3776 H   0  0  0  0  0  0  0  0  0  0  0  0
   -0.9125   -9.9798  -13.4803 H   0  0  0  0  0  0  0  0  0  0  0  0
   -2.6492   -9.7052  -13.7338 H   0  0  0  0  0  0  0  0  0  0  0  0
   -1.2455  -10.5176  -15.4529 H   0  0  0  0  0  0  0  0  0  0  0  0
   -1.8362   -9.0310  -15.6256 H   0  0  0  0  0  0  0  0  0  0  0  0
    0.3656   -8.1224  -15.6321 H   0  0  0  0  0  0  0  0  0  0  0  0
    2.5932  -10.4013  -17.0884 H   0  0  0  0  0  0  0  0  0  0  0  0
    2.4160   -8.7869  -16.4735 H   0  0  0  0  0  0  0  0  0  0  0  0
    0.8317  -11.8730  -16.9928 H   0  0  0  0  0  0  0  0  0  0  0  0
   -4.6358   -8.9513  -16.8525 H   0  0  0  0  0  0  0  0  0  0  0  0
   -4.1057   -8.9331  -15.3322 H   0  0  0  0  0  0  0  0  0  0  0  0
   -2.8827  -10.7942  -15.1863 H   0  0  0  0  0  0  0  0  0  0  0  0
   -3.8833  -11.2941  -16.3172 H   0  0  0  0  0  0  0  0  0  0  0  0
   -1.3175  -11.0970  -17.2466 H   0  0  0  0  0  0  0  0  0  0  0  0
   -2.3824  -10.7805  -18.2558 H   0  0  0  0  0  0  0  0  0  0  0  0
   -0.6543   -8.6205  -17.2494 H   0  0  0  0  0  0  0  0  0  0  0  0
   -2.6473   -8.1939  -20.4844 H   0  0  0  0  0  0  0  0  0  0  0  0
   -3.8003   -9.8123  -18.2512 H   0  0  0  0  0  0  0  0  0  0  0  0
   -5.9188   -9.3623  -18.6737 H   0  0  0  0  0  0  0  0  0  0  0  0
   -5.0640   -7.8254  -18.4386 H   0  0  0  0  0  0  0  0  0  0  0  0
   -6.4955   -7.6135  -20.4243 H   0  0  0  0  0  0  0  0  0  0  0  0
   -4.8633   -7.4967  -20.7675 H   0  0  0  0  0  0  0  0  0  0  0  0
   -5.7693   -9.9188  -21.8539 H   0  0  0  0  0  0  0  0  0  0  0  0
   -5.1309  -10.0736  -20.7909 H   0  0  0  0  0  0  0  0  0  0  0  0
   -6.7613  -11.3786  -21.5146 H   0  0  0  0  0  0  0  0  0  0  0  0
   -6.5840  -10.9582  -19.7940 H   0  0  0  0  0  0  0  0  0  0  0  0
   -8.8181  -10.3507  -20.6450 H   0  0  0  0  0  0  0  0  0  0  0  0
   -7.9572   -8.9265  -20.4459 H   0  0  0  0  0  0  0  0  0  0  0  0
   -4.0841  -11.5023  -21.8741 H   0  0  0  0  0  0  0  0  0  0  0  0
   -3.8884   -8.5586  -21.5236 H   0  0  0  0  0  0  0  0  0  0  0  0
   -3.2414   -7.8684  -23.5013 H   0  0  0  0  0  0  0  0  0  0  0  0
   -2.0809   -9.0026  -22.5875 H   0  0  0  0  0  0  0  0  0  0  0  0
   -2.9721  -10.8944  -23.8474 H   0  0  0  0  0  0  0  0  0  0  0  0
   -4.7172   -8.4158  -25.3737 H   0  0  0  0  0  0  0  0  0  0  0  0
   -4.9455   -9.7523  -25.1167 H   0  0  0  0  0  0  0  0  0  0  0  0
   -4.8458   -9.5298  -24.1015 H   0  0  0  0  0  0  0  0  0  0  0  0
   -1.1511   -9.8004  -24.7222 H   0  0  0  0  0  0  0  0  0  0  0  0
   -2.0463  -10.5183  -25.9569 H   0  0  0  0  0  0  0  0  0  0  0  0
   -2.3268   -8.7634  -25.7265 H   0  0  0  0  0  0  0  0  0  0  0  0
   -7.1795   -9.8695  -24.1108 H   0  0  0  0  0  0  0  0  0  0  0  0
   -4.5278  -11.3100  -23.4675 H   0  0  0  0  0  0  0  0  0  0  0  0
   -4.9618  -13.3817  -24.2022 H   0  0  0  0  0  0  0  0  0  0  0  0
   -5.9303  -12.7917  -22.7462 H   0  0  0  0  0  0  0  0  0  0  0  0
   -7.5281  -13.8652  -24.4347 H   0  0  0  0  0  0  0  0  0  0  0  0
   -7.7826  -12.2509  -24.1723 H   0  0  0  0  0  0  0  0  0  0  0  0
   -7.0590  -12.8593  -26.6839 H   0  0  0  0  0  0  0  0  0  0  0  0
   -6.2207  -12.0932  -26.0700 H   0  0  0  0  0  0  0  0  0  0  0  0
   -5.5075  -13.4901  -27.7800 H   0  0  0  0  0  0  0  0  0  0  0  0
   -4.5776  -13.5394  -26.2629 H   0  0  0  0  0  0  0  0  0  0  0  0
   -5.5837  -15.6297  -26.9306 H   0  0  0  0  0  0  0  0  0  0  0  0
   -6.4972  -15.0551  -25.6302 H   0  0  0  0  0  0  0  0  0  0  0  0
   -5.6184   -9.9467  -26.9061 H   0  0  0  0  0  0  0  0  0  0  0  0
   -7.6234  -10.9878  -25.0210 H   0  0  0  0  0  0  0  0  0  0  0  0
   -9.4121  -10.0285  -26.3287 H   0  0  0  0  0  0  0  0  0  0  0  0
   -7.9520   -8.8805  -25.9597 H   0  0  0  0  0  0  0  0  0  0  0  0
   -7.9256  -11.3333  -27.8085 H   0  0  0  0  0  0  0  0  0  0  0  0
   -5.0535  -11.8262  -27.8220 H   0  0  0  0  0  0  0  0  0  0  0  0
   -3.5062  -10.2475  -28.6217 H   0  0  0  0  0  0  0  0  0  0  0  0
   -3.3566   -8.2405  -30.0843 H   0  0  0  0  0  0  0  0  0  0  0  0
   -5.4354   -6.9824  -30.7196 H   0  0  0  0  0  0  0  0  0  0  0  0
   -7.6660   -7.9640  -30.2243 H   0  0  0  0  0  0  0  0  0  0  0  0
   -8.2755  -13.7266  -28.7629 H   0  0  0  0  0  0  0  0  0  0  0  0
   -7.4983  -10.7580  -29.5659 H   0  0  0  0  0  0  0  0  0  0  0  0
   -6.0527  -10.9414  -30.8460 H   0  0  0  0  0  0  0  0  0  0  0  0
   -5.4509  -12.2168  -29.8066 H   0  0  0  0  0  0  0  0  0  0  0  0
   -6.4063  -11.6242  -32.7729 H   0  0  0  0  0  0  0  0  0  0  0  0
  -10.2290  -11.3443  -31.5155 H   0  0  0  0  0  0  0  0  0  0  0  0
   -8.3523  -13.3313  -30.5480 H   0  0  0  0  0  0  0  0  0  0  0  0
   -9.4607  -15.2095  -30.8783 H   0  0  0  0  0  0  0  0  0  0  0  0
  -10.1961  -14.0467  -29.6985 H   0  0  0  0  0  0  0  0  0  0  0  0
  -12.0145  -15.3961  -33.0792 H   0  0  0  0  0  0  0  0  0  0  0  0
  -10.7609  -16.0866  -32.5044 H   0  0  0  0  0  0  0  0  0  0  0  0
   -8.9515  -13.4040  -34.6627 H   0  0  0  0  0  0  0  0  0  0  0  0
  -10.6672  -12.5091  -32.6078 H   0  0  0  0  0  0  0  0  0  0  0  0
  -12.0811  -11.2446  -33.8688 H   0  0  0  0  0  0  0  0  0  0  0  0
  -10.3916  -10.7079  -33.7295 H   0  0  0  0  0  0  0  0  0  0  0  0
  -11.0737  -10.6488  -36.0937 H   0  0  0  0  0  0  0  0  0  0  0  0
   -9.8392  -11.8950  -35.8475 H   0  0  0  0  0  0  0  0  0  0  0  0
  -13.3092  -13.1278  -37.4559 H   0  0  0  0  0  0  0  0  0  0  0  0
  -12.9044  -11.4263  -37.5132 H   0  0  0  0  0  0  0  0  0  0  0  0
  -12.8085  -14.2777  -32.2465 H   0  0  0  0  0  0  0  0  0  0  0  0
  2 65  1  0  0  0  0
  2 69  1  0  0  0  0
  2  3  1  0  0  0  0
  2  1  1  6  0  0  0
  3  4  1  0  0  0  0
  3155  1  0  0  0  0
  4  5  2  0  0  0  0
  6 14  1  0  0  0  0
  6156  1  1  0  0  0
  6  7  1  0  0  0  0
  6  4  1  0  0  0  0
  7  8  1  0  0  0  0
  7157  1  0  0  0  0
  7158  1  0  0  0  0
  8  9  1  0  0  0  0
  8159  1  0  0  0  0
  8160  1  0  0  0  0
  9 10  1  0  0  0  0
  9161  1  0  0  0  0
  9162  1  0  0  0  0
 10 11  1  0  0  0  0
 10163  1  0  0  0  0
 11 12  1  0  0  0  0
 11 13  2  0  0  0  0
 12164  1  0  0  0  0
 12165  1  0  0  0  0
 13166  1  0  0  0  0
 14 15  1  0  0  0  0
 14167  1  0  0  0  0
 15 16  2  0  0  0  0
 17 25  1  0  0  0  0
 17168  1  1  0  0  0
 17 18  1  0  0  0  0
 17 15  1  0  0  0  0
 18 19  1  0  0  0  0
 18169  1  0  0  0  0
 18170  1  0  0  0  0
 19 20  1  0  0  0  0
 19171  1  0  0  0  0
 19172  1  0  0  0  0
 20 21  1  0  0  0  0
 20173  1  0  0  0  0
 20174  1  0  0  0  0
 21 22  1  0  0  0  0
 21175  1  0  0  0  0
 22 23  1  0  0  0  0
 22 24  2  0  0  0  0
 23176  1  0  0  0  0
 23177  1  0  0  0  0
 24178  1  0  0  0  0
 25 26  1  0  0  0  0
 25179  1  0  0  0  0
 26 27  2  0  0  0  0
 28 33  1  0  0  0  0
 28180  1  1  0  0  0
 28 29  1  0  0  0  0
 28 26  1  0  0  0  0
 29 30  1  0  0  0  0
 29181  1  0  0  0  0
 29182  1  0  0  0  0
 30 31  1  0  0  0  0
 30 32  1  0  0  0  0
 30183  1  0  0  0  0
 31184  1  0  0  0  0
 31185  1  0  0  0  0
 31186  1  0  0  0  0
 32187  1  0  0  0  0
 32188  1  0  0  0  0
 32189  1  0  0  0  0
 33 34  1  0  0  0  0
 33190  1  0  0  0  0
 34 35  2  0  0  0  0
 36 44  1  0  0  0  0
 36191  1  6  0  0  0
 36 37  1  0  0  0  0
 36 34  1  0  0  0  0
 37 38  1  0  0  0  0
 37192  1  0  0  0  0
 37193  1  0  0  0  0
 38 39  2  0  0  0  0
 38 43  1  0  0  0  0
 39 40  1  0  0  0  0
 39194  1  0  0  0  0
 40 41  2  0  0  0  0
 40195  1  0  0  0  0
 41 42  1  0  0  0  0
 41196  1  0  0  0  0
 42 43  2  0  0  0  0
 42197  1  0  0  0  0
 43198  1  0  0  0  0
 44 45  1  0  0  0  0
 44199  1  0  0  0  0
 45 46  2  0  0  0  0
 45 47  1  0  0  0  0
 47 48  1  0  0  0  0
 47200  1  0  0  0  0
 47201  1  0  0  0  0
 48 49  1  0  0  0  0
 48202  1  0  0  0  0
 49 50  2  0  0  0  0
 49 51  1  0  0  0  0
 51 52  1  0  0  0  0
 51203  1  0  0  0  0
 51204  1  0  0  0  0
 52 53  1  0  0  0  0
 52205  1  0  0  0  0
 53 54  2  0  0  0  0
 55 53  1  0  0  0  0
 55 56  1  0  0  0  0
 55 57  1  0  0  0  0
 55206  1  6  0  0  0
 56207  1  0  0  0  0
 56208  1  0  0  0  0
 57 58  1  0  0  0  0
 57209  1  0  0  0  0
 57210  1  0  0  0  0
 58 59  2  0  0  0  0
 58 64  1  0  0  0  0
 59 60  1  0  0  0  0
 59211  1  0  0  0  0
 60 61  2  0  0  0  0
 60212  1  0  0  0  0
 61 62  1  0  0  0  0
 61 63  1  0  0  0  0
 62213  1  0  0  0  0
 63 64  2  0  0  0  0
 63214  1  0  0  0  0
 64215  1  0  0  0  0
 65 66  1  0  0  0  0
 65 67  1  0  0  0  0
 65216  1  1  0  0  0
 66217  1  0  0  0  0
 66218  1  0  0  0  0
 66219  1  0  0  0  0
 67 68  1  0  0  0  0
 67220  1  0  0  0  0
 67221  1  0  0  0  0
 68222  1  0  0  0  0
 68223  1  0  0  0  0
 68224  1  0  0  0  0
 69 70  2  0  0  0  0
 69 71  1  0  0  0  0
 71225  1  0  0  0  0
 72 71  1  0  0  0  0
 72 73  1  0  0  0  0
 72 80  1  0  0  0  0
 72226  1  1  0  0  0
 73 74  1  0  0  0  0
 73227  1  0  0  0  0
 73228  1  0  0  0  0
 74 75  1  0  0  0  0
 74229  1  0  0  0  0
 74230  1  0  0  0  0
 75 76  1  0  0  0  0
 75231  1  0  0  0  0
 75232  1  0  0  0  0
 76 77  1  0  0  0  0
 76233  1  0  0  0  0
 77 78  1  0  0  0  0
 77 79  2  0  0  0  0
 78234  1  0  0  0  0
 78235  1  0  0  0  0
 79236  1  0  0  0  0
 80 81  2  0  0  0  0
 80 82  1  0  0  0  0
 82 83  1  0  0  0  0
 83 84  1  0  0  0  0
 83237  1  0  0  0  0
 83238  1  0  0  0  0
 84 85  1  0  0  0  0
 84239  1  0  0  0  0
 84240  1  0  0  0  0
 85241  1  0  0  0  0
 85242  1  0  0  0  0
 86 85  1  0  0  0  0
 86 82  1  0  0  0  0
 86243  1  1  0  0  0
 86 87  1  0  0  0  0
 87 88  2  0  0  0  0
 87 89  1  0  0  0  0
 89244  1  0  0  0  0
 90 89  1  0  0  0  0
 90 91  1  0  0  0  0
 90 96  1  0  0  0  0
 90245  1  1  0  0  0
 91 92  1  0  0  0  0
 91246  1  0  0  0  0
 91247  1  0  0  0  0
 92 93  1  0  0  0  0
 92248  1  0  0  0  0
 92249  1  0  0  0  0
 93 94  1  0  0  0  0
 93250  1  0  0  0  0
 93251  1  0  0  0  0
 94 95  1  0  0  0  0
 94252  1  0  0  0  0
 94253  1  0  0  0  0
 95254  1  0  0  0  0
 95255  1  0  0  0  0
 96 97  2  0  0  0  0
 96 98  1  0  0  0  0
 98256  1  0  0  0  0
 99 98  1  0  0  0  0
 99100  1  0  0  0  0
 99104  1  0  0  0  0
 99257  1  1  0  0  0
100101  1  0  0  0  0
100258  1  0  0  0  0
100259  1  0  0  0  0
101102  1  0  0  0  0
101103  1  0  0  0  0
101260  1  0  0  0  0
102261  1  0  0  0  0
102262  1  0  0  0  0
102263  1  0  0  0  0
103264  1  0  0  0  0
103265  1  0  0  0  0
103266  1  0  0  0  0
104105  2  0  0  0  0
104106  1  0  0  0  0
106267  1  0  0  0  0
107106  1  0  0  0  0
107108  1  0  0  0  0
107113  1  0  0  0  0
107268  1  1  0  0  0
108109  1  0  0  0  0
108269  1  0  0  0  0
108270  1  0  0  0  0
109110  1  0  0  0  0
109271  1  0  0  0  0
109272  1  0  0  0  0
110111  1  0  0  0  0
110273  1  0  0  0  0
110274  1  0  0  0  0
111112  1  0  0  0  0
111275  1  0  0  0  0
111276  1  0  0  0  0
112277  1  0  0  0  0
112278  1  0  0  0  0
113114  2  0  0  0  0
113115  1  0  0  0  0
115279  1  0  0  0  0
116115  1  0  0  0  0
116117  1  0  0  0  0
116127  1  0  0  0  0
116280  1  1  0  0  0
117118  1  0  0  0  0
117281  1  0  0  0  0
117282  1  0  0  0  0
118119  2  0  0  0  0
118126  1  0  0  0  0
119120  1  0  0  0  0
119283  1  0  0  0  0
120121  1  0  0  0  0
120284  1  0  0  0  0
121122  2  0  0  0  0
121126  1  0  0  0  0
122123  1  0  0  0  0
122285  1  0  0  0  0
123124  2  0  0  0  0
123286  1  0  0  0  0
124125  1  0  0  0  0
124287  1  0  0  0  0
125126  2  0  0  0  0
125288  1  0  0  0  0
127128  2  0  0  0  0
127129  1  0  0  0  0
129289  1  0  0  0  0
130129  1  0  0  0  0
130131  1  0  0  0  0
130135  1  0  0  0  0
130290  1  1  0  0  0
131132  1  0  0  0  0
131291  1  0  0  0  0
131292  1  0  0  0  0
132133  1  0  0  0  0
132134  2  0  0  0  0
133293  1  0  0  0  0
135136  2  0  0  0  0
135137  1  0  0  0  0
137294  1  0  0  0  0
138137  1  0  0  0  0
138139  1  0  0  0  0
138143  1  0  0  0  0
138295  1  1  0  0  0
139140  1  0  0  0  0
139296  1  0  0  0  0
139297  1  0  0  0  0
140141  1  0  0  0  0
140142  2  0  0  0  0
141298  1  0  0  0  0
141299  1  0  0  0  0
143144  2  0  0  0  0
143145  1  0  0  0  0
145300  1  0  0  0  0
146145  1  0  0  0  0
146147  1  0  0  0  0
146152  1  0  0  0  0
146301  1  1  0  0  0
147148  1  0  0  0  0
147302  1  0  0  0  0
147303  1  0  0  0  0
148149  1  0  0  0  0
148304  1  0  0  0  0
148305  1  0  0  0  0
149150  1  0  0  0  0
149151  2  0  0  0  0
150306  1  0  0  0  0
150307  1  0  0  0  0
152153  1  0  0  0  0
152154  2  0  0  0  0
153308  1  0  0  0  0
M  END
>  <DRUGBANK_ID>
DB16146

>  <COMMON_NAME>
Dynorphin

>  <CAS_NUMBER>
80448-90-4

>  <UNII>
9M18T0TD14

>  <SYNONYMS>
Dynorphin; Dynorphin a; Dynorphin a (1-17); Dynorphin a (bos taurus); Dynorphin a (human); Dynorphin a (pig); Dynorphin a (porcine); Dynorphin a (rat); Dynorphin a (swine); Dynorphin a 1-17; Dynorphins; Porcine dynorphin a (1-17)

$$$$
