
 OpenBabel10282417133D

 24 23  0  0  0  0  0  0  0  0999 V2000
    0.9524    0.0532   -0.1285 N   0  0  0  0  0  0  0  0  0  0  0  0
    0.4179    1.4329   -0.2098 C   0  0  0  0  0  0  0  0  0  0  0  0
    0.5074   -0.8052   -1.2571 C   0  0  0  0  0  0  0  0  0  0  0  0
    2.4190   -0.0249    0.0790 C   0  0  0  0  0  0  0  0  0  0  0  0
    0.9640    2.2523   -1.3847 C   0  0  0  0  0  0  0  0  0  0  0  0
    0.9528   -0.4208   -2.6843 C   0  0  0  0  0  0  0  0  0  0  0  0
    2.9509    0.7562    1.2834 C   0  0  0  0  0  0  0  0  0  0  0  0
    0.0094    2.7145   -2.2312 O   0  0  0  0  0  0  0  0  0  0  0  0
    2.1480    2.4133   -1.6237 O   0  0  0  0  0  0  0  0  0  0  0  0
    2.3629   -0.4228   -2.8360 O   0  0  0  0  0  0  0  0  0  0  0  0
    2.4189    0.2460    2.4946 O   0  0  0  0  0  0  0  0  0  0  0  0
   -0.6769    1.3895   -0.2489 H   0  0  0  0  0  0  0  0  0  0  0  0
    0.6366    1.9913    0.7055 H   0  0  0  0  0  0  0  0  0  0  0  0
    0.8298   -1.8365   -1.0602 H   0  0  0  0  0  0  0  0  0  0  0  0
   -0.5912   -0.8416   -1.2409 H   0  0  0  0  0  0  0  0  0  0  0  0
    2.7080   -1.0798    0.1786 H   0  0  0  0  0  0  0  0  0  0  0  0
    2.9805    0.3740   -0.7566 H   0  0  0  0  0  0  0  0  0  0  0  0
    0.5366   -1.1140   -3.4166 H   0  0  0  0  0  0  0  0  0  0  0  0
    0.5707    0.5522   -2.9820 H   0  0  0  0  0  0  0  0  0  0  0  0
    4.0433    0.6891    1.3072 H   0  0  0  0  0  0  0  0  0  0  0  0
    2.7029    1.8184    1.2070 H   0  0  0  0  0  0  0  0  0  0  0  0
   -0.8964    2.3923   -2.0684 H   0  0  0  0  0  0  0  0  0  0  0  0
    2.6774    0.4612   -2.5560 H   0  0  0  0  0  0  0  0  0  0  0  0
    1.4698    0.1060    2.3244 H   0  0  0  0  0  0  0  0  0  0  0  0
  1  2  1  0  0  0  0
  1  3  1  0  0  0  0
  1  4  1  0  0  0  0
  2  5  1  0  0  0  0
  2 12  1  0  0  0  0
  2 13  1  0  0  0  0
  3  6  1  0  0  0  0
  3 14  1  0  0  0  0
  3 15  1  0  0  0  0
  4  7  1  0  0  0  0
  4 16  1  0  0  0  0
  4 17  1  0  0  0  0
  5  8  1  0  0  0  0
  5  9  2  0  0  0  0
  6 10  1  0  0  0  0
  6 18  1  0  0  0  0
  6 19  1  0  0  0  0
  7 11  1  0  0  0  0
  7 20  1  0  0  0  0
  7 21  1  0  0  0  0
  8 22  1  0  0  0  0
 10 23  1  0  0  0  0
 11 24  1  0  0  0  0
M  END
>  <DRUGBANK_ID>
DB03709

>  <SECONDARY_ACCESSION_NUMBERS>
EXPT00641

>  <COMMON_NAME>
Bicine

>  <CAS_NUMBER>
150-25-4

>  <UNII>
1J484QFI1O

>  <SYNONYMS>
Bicene; Diethanol glycine; Diethylolglycine; Dihydroxyethylglycine; N,N-Dihydroxyethyl glycine; N,N-Dihydroxyethylglycine

$$$$
