
 OpenBabel10282417193D

 14 14  0  0  1  0  0  0  0  0999 V2000
   -1.7461   -0.0772    0.2167 C   0  0  0  0  0  0  0  0  0  0  0  0
   -1.2774    1.3334   -0.1044 C   0  0  2  0  0  0  0  0  0  0  0  0
    0.1545    1.3819    0.0985 N   0  0  0  0  0  0  0  0  0  0  0  0
    0.8342    0.2046    0.0336 C   0  0  0  0  0  0  0  0  0  0  0  0
    2.0443    0.0872    0.0492 O   0  0  0  0  0  0  0  0  0  0  0  0
   -0.2932   -1.1244   -0.0883 S   0  0  0  0  0  0  0  0  0  0  0  0
   -1.9881    2.3633    0.7633 C   0  0  0  0  0  0  0  0  0  0  0  0
   -2.7468    3.2303    0.3594 O   0  0  0  0  0  0  0  0  0  0  0  0
   -1.7304    2.2362    2.0817 O   0  0  0  0  0  0  0  0  0  0  0  0
   -2.0576   -0.1980    1.2591 H   0  0  0  0  0  0  0  0  0  0  0  0
   -2.5750   -0.3857   -0.4265 H   0  0  0  0  0  0  0  0  0  0  0  0
   -1.4710    1.5745   -1.1566 H   0  0  0  0  0  0  0  0  0  0  0  0
    0.6880    2.2414    0.1103 H   0  0  0  0  0  0  0  0  0  0  0  0
   -2.2472    2.9415    2.5267 H   0  0  0  0  0  0  0  0  0  0  0  0
  1  2  1  0  0  0  0
  1  6  1  0  0  0  0
  1 10  1  0  0  0  0
  1 11  1  0  0  0  0
  2  3  1  0  0  0  0
  2  7  1  0  0  0  0
  2 12  1  6  0  0  0
  3  4  1  0  0  0  0
  3 13  1  0  0  0  0
  4  5  2  0  0  0  0
  4  6  1  0  0  0  0
  7  8  2  0  0  0  0
  7  9  1  0  0  0  0
  9 14  1  0  0  0  0
M  END
>  <DRUGBANK_ID>
DB12224

>  <COMMON_NAME>
Oxothiazolidinecarboxylic acid

>  <CAS_NUMBER>
19771-63-2

>  <UNII>
X7063P804E

>  <SYNONYMS>
(-)-2-OXO-4-THIAZOLIDINECARBOXYLIC ACID; (R)-2-OXOTHIAZOLIDINE-4-CARBOXYLIC ACID; 2-OXO-4-THIAZOLIDINECARBOXYLIC ACID, L-; 2-OXO-L-THIAZOLIDINE-4-CARBOXYLIC ACID; 4-THIAZOLIDINECARBOXYLIC ACID, 2-OXO-, (R)-; L-2-OXO-4-THIAZOLIDINECARBOXYLIC ACI; L-2-oxothiazolidine-4-carboxylic acid; Procysteine

$$$$
