SDT
 OpenBabel10282417173D

 47 49  0  0  0  0  0  0  0  0999 V2000
    2.4536   -0.6540   -1.3791 O   0  0  0  0  0  0  0  0  0  0  0  0
    3.1704   -0.2637   -0.4384 C   0  0  0  0  0  0  0  0  0  0  0  0
    3.5668   -1.3318    0.7230 C   0  0  0  0  0  0  0  0  0  0  0  0
    4.5602   -0.5551    1.5798 C   0  0  0  0  0  0  0  0  0  0  0  0
    4.6340    1.0085    1.1197 C   0  0  2  0  0  0  0  0  0  0  0  0
    3.7587    1.3474   -0.2466 C   0  0  1  0  0  0  0  0  0  0  0  0
    3.0852    2.6741   -1.1561 C   0  0  0  0  0  0  0  0  0  0  0  0
    3.0156    2.3023    0.6070 C   0  0  0  0  0  0  0  0  0  0  0  0
    3.7284    3.8268    0.8414 C   0  0  0  0  0  0  0  0  0  0  0  0
    4.2981    1.9487    2.4590 C   0  0  1  0  0  0  0  0  0  0  0  0
    4.3430    3.5089    2.1685 C   0  0  0  0  0  0  0  0  0  0  0  0
    4.6296    4.3247    2.9229 O   0  0  0  0  0  0  0  0  0  0  0  0
    2.9554    1.3943    3.1824 C   0  0  0  0  0  0  0  0  0  0  0  0
    1.4137    2.0201    2.9666 C   0  0  0  0  0  0  0  0  0  0  0  0
    0.3997    2.1708    1.5690 C   0  0  0  0  0  0  0  0  0  0  0  0
    0.1924    3.5127    1.0608 C   0  0  0  0  0  0  0  0  0  0  0  0
    0.5181    4.5324    1.9385 O   0  0  0  0  0  0  0  0  0  0  0  0
    0.0704    3.8407   -0.3565 C   0  0  0  0  0  0  0  0  0  0  0  0
    0.3400    5.1655   -0.7088 O   0  0  0  0  0  0  0  0  0  0  0  0
    0.1439    2.8395   -1.3466 C   0  0  0  0  0  0  0  0  0  0  0  0
    0.2714    1.4714   -0.8928 C   0  0  0  0  0  0  0  0  0  0  0  0
    0.3181    1.0959    0.5720 C   0  0  0  0  0  0  0  0  0  0  0  0
    0.8833   -0.2227    1.0769 C   0  0  0  0  0  0  0  0  0  0  0  0
    5.6657    1.1787    0.8088 H   0  0  0  0  0  0  0  0  0  0  0  0
    5.1213    1.8578    3.1478 H   0  0  0  0  0  0  0  0  0  0  0  0
    2.8670   -1.4243    1.5939 H   0  0  0  0  0  0  0  0  0  0  0  0
    2.9929   -2.3040    0.5866 H   0  0  0  0  0  0  0  0  0  0  0  0
    5.4480   -0.6044    2.2223 H   0  0  0  0  0  0  0  0  0  0  0  0
    4.1657   -0.9436    2.5438 H   0  0  0  0  0  0  0  0  0  0  0  0
    2.3730    3.5688   -0.6048 H   0  0  0  0  0  0  0  0  0  0  0  0
    3.6066    3.3391   -1.8128 H   0  0  0  0  0  0  0  0  0  0  0  0
    2.2966    2.1985   -1.6744 H   0  0  0  0  0  0  0  0  0  0  0  0
    2.0018    2.3318    0.3484 H   0  0  0  0  0  0  0  0  0  0  0  0
    2.6597    1.6756    1.3487 H   0  0  0  0  0  0  0  0  0  0  0  0
    3.1722    4.6474    1.3027 H   0  0  0  0  0  0  0  0  0  0  0  0
    3.7242    4.5928    0.0015 H   0  0  0  0  0  0  0  0  0  0  0  0
    2.8598    0.3319    2.9662 H   0  0  0  0  0  0  0  0  0  0  0  0
    3.2131    1.3692    4.2358 H   0  0  0  0  0  0  0  0  0  0  0  0
    0.8296    1.3715    3.6185 H   0  0  0  0  0  0  0  0  0  0  0  0
    1.5357    3.0090    3.4091 H   0  0  0  0  0  0  0  0  0  0  0  0
    0.5757    5.3655    1.4353 H   0  0  0  0  0  0  0  0  0  0  0  0
    0.4198    5.2713   -1.6783 H   0  0  0  0  0  0  0  0  0  0  0  0
    0.5460    3.1096   -2.3576 H   0  0  0  0  0  0  0  0  0  0  0  0
    0.7755    0.8398   -1.6718 H   0  0  0  0  0  0  0  0  0  0  0  0
    1.9087    0.0186    1.2790 H   0  0  0  0  0  0  0  0  0  0  0  0
    0.6175   -0.5460    2.0845 H   0  0  0  0  0  0  0  0  0  0  0  0
    0.8979   -1.0897    0.4125 H   0  0  0  0  0  0  0  0  0  0  0  0
  1  2  2  0  0  0  0
  2  3  1  0  0  0  0
  2  6  1  0  0  0  0
  3  4  1  0  0  0  0
  3 26  1  0  0  0  0
  3 27  1  0  0  0  0
  4  5  1  0  0  0  0
  4 28  1  0  0  0  0
  4 29  1  0  0  0  0
  5  6  1  0  0  0  0
  5 10  1  0  0  0  0
  5 24  1  1  0  0  0
  6  8  1  0  0  0  0
  6  7  1  6  0  0  0
  7 30  1  0  0  0  0
  7 31  1  0  0  0  0
  7 32  1  0  0  0  0
  8  9  1  0  0  0  0
  8 33  1  0  0  0  0
  8 34  1  0  0  0  0
  9 11  1  0  0  0  0
  9 35  1  0  0  0  0
  9 36  1  0  0  0  0
 10 11  1  0  0  0  0
 10 25  1  1  0  0  0
 10 13  1  0  0  0  0
 11 12  2  0  0  0  0
 13 14  1  0  0  0  0
 13 37  1  0  0  0  0
 13 38  1  0  0  0  0
 14 15  1  0  0  0  0
 14 39  1  0  0  0  0
 14 40  1  0  0  0  0
 15 16  2  0  0  0  0
 15 22  1  0  0  0  0
 16 17  1  0  0  0  0
 16 18  1  0  0  0  0
 17 41  1  0  0  0  0
 18 19  1  0  0  0  0
 18 20  2  0  0  0  0
 19 42  1  0  0  0  0
 20 21  1  0  0  0  0
 20 43  1  0  0  0  0
 21 22  2  0  0  0  0
 21 44  1  0  0  0  0
 22 23  1  0  0  0  0
 23 45  1  0  0  0  0
 23 46  1  0  0  0  0
 23 47  1  0  0  0  0
M  END
>  <DRUGBANK_ID>
DB08542

>  <COMMON_NAME>
3,4-dihydroxy-9,10-secoandrosta-1(10),2,4-triene-9,17-dione

$$$$
