
 OpenBabel10282417193D

184188  0  0  1  0  0  0  0  0999 V2000
   -9.7075   -2.2805   13.2540 C   0  0  0  0  0  0  0  0  0  0  0  0
   -7.8986   -0.7522   13.2769 C   0  0  2  0  0  0  0  0  0  0  0  0
   -5.2115    0.4232   13.5238 C   0  0  1  0  0  0  0  0  0  0  0  0
   -2.2658    1.3154   13.4086 C   0  0  0  0  0  0  0  0  0  0  0  0
   -0.3348    1.2547   12.9558 O   0  0  0  0  0  0  0  0  0  0  0  0
    0.4263    1.7029   12.9724 N   0  0  0  0  0  0  0  0  0  0  0  0
    2.9589    1.5863   12.8911 C   0  0  1  0  0  0  0  0  0  0  0  0
    3.6245    1.6434   14.1951 C   0  0  0  0  0  0  0  0  0  0  0  0
    2.2862    3.1662   14.2996 S   0  0  0  0  0  0  0  0  0  0  0  0
    2.1720    4.5782   13.3323 S   0  0  0  0  0  0  0  0  0  0  0  0
    0.5106    5.1204   13.1592 C   0  0  0  0  0  0  0  0  0  0  0  0
   -0.3399    4.5721   12.2483 C   0  0  1  0  0  0  0  0  0  0  0  0
   -0.6563    3.5292   12.5419 C   0  0  0  0  0  0  0  0  0  0  0  0
   -0.6700    2.5897   12.6827 O   0  0  0  0  0  0  0  0  0  0  0  0
   -1.8123    2.6876   13.1473 N   0  0  0  0  0  0  0  0  0  0  0  0
   -1.9217    0.1524   13.1500 C   0  0  2  0  0  0  0  0  0  0  0  0
   -2.6432    1.6271   14.9214 C   0  0  0  0  0  0  0  0  0  0  0  0
   -2.0858    1.7597   15.8928 O   0  0  0  0  0  0  0  0  0  0  0  0
   -3.7010    1.1934   15.1234 N   0  0  0  0  0  0  0  0  0  0  0  0
   -4.4608    0.2392   16.9028 C   0  0  1  0  0  0  0  0  0  0  0  0
   -6.4587    1.0570   16.4987 C   0  0  0  0  0  0  0  0  0  0  0  0
   -6.6174    2.6719   15.5869 O   0  0  0  0  0  0  0  0  0  0  0  0
   -7.3356    0.4856   16.8328 N   0  0  0  0  0  0  0  0  0  0  0  0
   -8.7530    1.0981   16.1072 C   0  0  2  0  0  0  0  0  0  0  0  0
   -9.5025    0.3724   15.0383 C   0  0  0  0  0  0  0  0  0  0  0  0
   -9.3204    0.4217   13.8949 O   0  0  0  0  0  0  0  0  0  0  0  0
   -7.7260   -0.1657   14.2062 N   0  0  0  0  0  0  0  0  0  0  0  0
   -8.5222    2.3456   15.5934 C   0  0  0  0  0  0  0  0  0  0  0  0
   -9.8184    2.9369   15.4138 C   0  0  0  0  0  0  0  0  0  0  0  0
  -10.5294    2.9506   16.7460 C   0  0  0  0  0  0  0  0  0  0  0  0
   -9.7166    3.7364   17.7537 C   0  0  0  0  0  0  0  0  0  0  0  0
   -9.5425    5.1051   17.2846 N   0  0  0  0  0  0  0  0  0  0  0  0
   -4.6340   -1.1459   17.3006 C   0  0  0  0  0  0  0  0  0  0  0  0
   -3.4257   -1.8543   17.4495 C   0  0  0  0  0  0  0  0  0  0  0  0
   -2.5492   -2.5093   16.0333 C   0  0  0  0  0  0  0  0  0  0  0  0
   -1.5118   -2.8620   16.4334 N   0  0  0  0  0  0  0  0  0  0  0  0
   -1.5660   -2.5562   17.7192 C   0  0  0  0  0  0  0  0  0  0  0  0
   -2.6063   -1.8813   18.2087 C   0  0  0  0  0  0  0  0  0  0  0  0
   -3.0706   -1.4829   19.3423 C   0  0  0  0  0  0  0  0  0  0  0  0
   -2.2143   -1.8170   20.2935 C   0  0  0  0  0  0  0  0  0  0  0  0
   -1.0435   -2.4937   20.0081 C   0  0  0  0  0  0  0  0  0  0  0  0
   -0.6924   -2.8620   18.7100 C   0  0  0  0  0  0  0  0  0  0  0  0
   -0.7742   -0.0888   13.4879 C   0  0  0  0  0  0  0  0  0  0  0  0
   -0.8534   -1.2147   13.9683 C   0  0  0  0  0  0  0  0  0  0  0  0
   -1.8346   -1.8616   13.6726 C   0  0  0  0  0  0  0  0  0  0  0  0
   -1.7863   -3.2081   13.7049 C   0  0  0  0  0  0  0  0  0  0  0  0
   -0.8966   -3.9083   14.2927 C   0  0  0  0  0  0  0  0  0  0  0  0
    0.1799   -3.2135   14.4497 C   0  0  0  0  0  0  0  0  0  0  0  0
    0.0578   -1.8538   14.3502 C   0  0  0  0  0  0  0  0  0  0  0  0
   -1.6825    4.9567   11.9936 N   0  0  0  0  0  0  0  0  0  0  0  0
   -2.7864    4.1348   11.5711 C   0  0  0  0  0  0  0  0  0  0  0  0
   -3.9192    4.5738   11.4745 O   0  0  0  0  0  0  0  0  0  0  0  0
   -2.6378    2.6212   11.1977 C   0  0  1  0  0  0  0  0  0  0  0  0
   -1.5612    2.2724   10.3612 C   0  0  0  0  0  0  0  0  0  0  0  0
   -0.2653    2.9147   10.4934 C   0  0  0  0  0  0  0  0  0  0  0  0
    0.8334    2.2179   10.9259 C   0  0  0  0  0  0  0  0  0  0  0  0
    2.0302    2.8375   11.0961 C   0  0  0  0  0  0  0  0  0  0  0  0
    2.2585    4.1553   10.9909 C   0  0  0  0  0  0  0  0  0  0  0  0
    1.2470    4.8694   10.4373 C   0  0  0  0  0  0  0  0  0  0  0  0
   -0.1872    4.3066   10.0973 C   0  0  0  0  0  0  0  0  0  0  0  0
   -2.6626    1.9286   12.1706 N   0  0  0  0  0  0  0  0  0  0  0  0
   -3.5204    1.1317   13.5150 C   0  0  0  0  0  0  0  0  0  0  0  0
   -2.2281    0.2805   14.6338 O   0  0  0  0  0  0  0  0  0  0  0  0
   -4.0179    0.7661   12.4739 C   0  0  0  0  0  0  0  0  0  0  0  0
   -5.0124    1.8649   12.5943 N   0  0  0  0  0  0  0  0  0  0  0  0
   -6.3234    1.2918   12.1367 C   0  0  0  0  0  0  0  0  0  0  0  0
   -6.8403    0.3685   12.7430 C   0  0  0  0  0  0  0  0  0  0  0  0
   -7.3951    1.1756   14.0695 N   0  0  0  0  0  0  0  0  0  0  0  0
   -7.9299   -0.7011   15.5381 C   0  0  0  0  0  0  0  0  0  0  0  0
   -6.9434   -1.7026   15.5232 C   0  0  0  0  0  0  0  0  0  0  0  0
   -6.1930   -1.2282   16.5156 N   0  0  0  0  0  0  0  0  0  0  0  0
   -4.5555   -2.7779   16.3377 C   0  0  0  0  0  0  0  0  0  0  0  0
   -4.4472   -3.1285   14.9122 C   0  0  0  0  0  0  0  0  0  0  0  0
   -3.5114   -3.1371   14.2853 O   0  0  0  0  0  0  0  0  0  0  0  0
   -5.4201   -3.3593   14.1723 O   0  0  0  0  0  0  0  0  0  0  0  0
   -5.5026   -0.5365   15.8106 C   0  0  0  0  0  0  0  0  0  0  0  0
   -5.1168   -1.3553   13.6744 C   0  0  0  0  0  0  0  0  0  0  0  0
   -5.3281   -0.7393   12.2970 O   0  0  0  0  0  0  0  0  0  0  0  0
   -4.0015   -1.7607   13.4443 O   0  0  0  0  0  0  0  0  0  0  0  0
   -6.3937    1.5108   14.6885 C   0  0  0  0  0  0  0  0  0  0  0  0
   -4.6179   -0.0564   14.7796 C   0  0  0  0  0  0  0  0  0  0  0  0
   -3.4576   -0.5831   14.6028 O   0  0  0  0  0  0  0  0  0  0  0  0
   -4.3825   -1.2899   15.1114 O   0  0  0  0  0  0  0  0  0  0  0  0
   -4.9786    2.7676   13.8127 C   0  0  0  0  0  0  0  0  0  0  0  0
   -5.1209    1.7473   15.4366 C   0  0  0  0  0  0  0  0  0  0  0  0
   -4.8955    1.6711   16.5434 O   0  0  0  0  0  0  0  0  0  0  0  0
   -6.4687    0.1276   14.9882 O   0  0  0  0  0  0  0  0  0  0  0  0
    3.3954    0.6526   11.8213 C   0  0  0  0  0  0  0  0  0  0  0  0
    3.6441    0.8306   10.6255 O   0  0  0  0  0  0  0  0  0  0  0  0
    2.5079   -0.2587   12.3436 N   0  0  0  0  0  0  0  0  0  0  0  0
    2.2563   -0.3912   13.7334 C   0  0  2  0  0  0  0  0  0  0  0  0
    2.0659   -1.8656   14.0546 C   0  0  0  0  0  0  0  0  0  0  0  0
    1.1137   -1.7400   15.7912 O   0  0  0  0  0  0  0  0  0  0  0  0
    1.2717    0.4296   14.3231 C   0  0  1  0  0  0  0  0  0  0  0  0
    0.8132    0.5374   15.7149 C   0  0  0  0  0  0  0  0  0  0  0  0
    1.2117    1.6212   14.4478 O   0  0  0  0  0  0  0  0  0  0  0  0
  -10.2116   -1.1164   12.6395 O   0  0  0  0  0  0  0  0  0  0  0  0
  -10.1327   -2.9914   14.1783 H   0  0  0  0  0  0  0  0  0  0  0  0
   -9.1228   -2.7221   12.6976 H   0  0  0  0  0  0  0  0  0  0  0  0
  -10.6992   -3.3838   12.5803 H   0  0  0  0  0  0  0  0  0  0  0  0
   -9.7071   -0.5467   12.9854 H   0  0  0  0  0  0  0  0  0  0  0  0
   -6.9372   -0.3989   13.9483 H   0  0  0  0  0  0  0  0  0  0  0  0
    2.0187    2.6207   12.6622 H   0  0  0  0  0  0  0  0  0  0  0  0
    4.8805    1.1578   12.9659 H   0  0  0  0  0  0  0  0  0  0  0  0
    4.1173    2.1450   14.9234 H   0  0  0  0  0  0  0  0  0  0  0  0
    3.5062    0.7829   14.6783 H   0  0  0  0  0  0  0  0  0  0  0  0
    0.6373    6.1144   12.7749 H   0  0  0  0  0  0  0  0  0  0  0  0
   -0.0000    5.1164   14.0780 H   0  0  0  0  0  0  0  0  0  0  0  0
    0.3106    4.2761   11.6112 H   0  0  0  0  0  0  0  0  0  0  0  0
   -2.6738    3.0123   12.8152 H   0  0  0  0  0  0  0  0  0  0  0  0
   -2.4763    0.1614   12.3550 H   0  0  0  0  0  0  0  0  0  0  0  0
   -3.7282    0.0418   13.9995 H   0  0  0  0  0  0  0  0  0  0  0  0
   -3.8473    0.8996   17.0792 H   0  0  0  0  0  0  0  0  0  0  0  0
   -7.1420   -0.6637   16.8269 H   0  0  0  0  0  0  0  0  0  0  0  0
   -9.1768    0.8907   17.0385 H   0  0  0  0  0  0  0  0  0  0  0  0
   -9.2403   -0.2195   15.2123 H   0  0  0  0  0  0  0  0  0  0  0  0
   -7.9118    2.8466   16.3125 H   0  0  0  0  0  0  0  0  0  0  0  0
   -8.0338    2.3740   14.6576 H   0  0  0  0  0  0  0  0  0  0  0  0
   -9.6833    3.9346   15.0510 H   0  0  0  0  0  0  0  0  0  0  0  0
  -10.3939    2.3760   14.6910 H   0  0  0  0  0  0  0  0  0  0  0  0
  -11.4992    3.4018   16.6273 H   0  0  0  0  0  0  0  0  0  0  0  0
  -10.6691    1.9345   17.1004 H   0  0  0  0  0  0  0  0  0  0  0  0
  -10.2243    3.7374   18.7054 H   0  0  0  0  0  0  0  0  0  0  0  0
   -8.7491    3.2671   17.8852 H   0  0  0  0  0  0  0  0  0  0  0  0
   -8.9863    5.6335   17.9535 H   0  0  0  0  0  0  0  0  0  0  0  0
   -9.0494    5.1005   16.3863 H   0  0  0  0  0  0  0  0  0  0  0  0
   -5.4234   -1.0117   17.8216 H   0  0  0  0  0  0  0  0  0  0  0  0
   -5.5305   -2.1211   16.0098 H   0  0  0  0  0  0  0  0  0  0  0  0
   -2.9329   -2.1156   15.1563 H   0  0  0  0  0  0  0  0  0  0  0  0
   -0.8433   -3.2871   15.8885 H   0  0  0  0  0  0  0  0  0  0  0  0
   -3.9971   -0.9639   19.5144 H   0  0  0  0  0  0  0  0  0  0  0  0
   -2.4537   -1.5374   21.2934 H   0  0  0  0  0  0  0  0  0  0  0  0
   -0.3865   -2.7380   20.8181 H   0  0  0  0  0  0  0  0  0  0  0  0
    0.2222   -3.3740   18.5023 H   0  0  0  0  0  0  0  0  0  0  0  0
   -0.2224    0.0539   12.4168 H   0  0  0  0  0  0  0  0  0  0  0  0
   -0.3806    0.9158   14.3540 H   0  0  0  0  0  0  0  0  0  0  0  0
   -2.6206   -1.2514   13.3846 H   0  0  0  0  0  0  0  0  0  0  0  0
   -2.7477   -3.8866   13.4089 H   0  0  0  0  0  0  0  0  0  0  0  0
   -1.0174   -4.8948   14.5759 H   0  0  0  0  0  0  0  0  0  0  0  0
    1.0751   -3.7488   14.6115 H   0  0  0  0  0  0  0  0  0  0  0  0
    0.9429   -1.0354   14.5419 H   0  0  0  0  0  0  0  0  0  0  0  0
   -1.7746    5.9505   12.0318 H   0  0  0  0  0  0  0  0  0  0  0  0
   -3.5193    2.1103   11.2097 H   0  0  0  0  0  0  0  0  0  0  0  0
   -1.4099    1.2163   10.2998 H   0  0  0  0  0  0  0  0  0  0  0  0
   -1.9393    2.6675    9.4549 H   0  0  0  0  0  0  0  0  0  0  0  0
    0.6759    1.1809   11.2837 H   0  0  0  0  0  0  0  0  0  0  0  0
    2.8391    2.2564   11.4231 H   0  0  0  0  0  0  0  0  0  0  0  0
    3.1613    4.6384   11.3140 H   0  0  0  0  0  0  0  0  0  0  0  0
    1.3831    5.8415   10.2118 H   0  0  0  0  0  0  0  0  0  0  0  0
   -0.9987    4.9905   10.3433 H   0  0  0  0  0  0  0  0  0  0  0  0
   -1.2218    2.0931   13.2571 H   0  0  0  0  0  0  0  0  0  0  0  0
   -3.9030    0.0567   11.8717 H   0  0  0  0  0  0  0  0  0  0  0  0
   -4.0906   -0.1483   12.9100 H   0  0  0  0  0  0  0  0  0  0  0  0
   -7.0394    1.9840   12.1872 H   0  0  0  0  0  0  0  0  0  0  0  0
   -6.1747    0.7092   11.2966 H   0  0  0  0  0  0  0  0  0  0  0  0
   -7.6145    0.1036   12.3171 H   0  0  0  0  0  0  0  0  0  0  0  0
   -6.3565   -0.8704   13.1974 H   0  0  0  0  0  0  0  0  0  0  0  0
   -8.4310   -0.3478   16.6317 H   0  0  0  0  0  0  0  0  0  0  0  0
   -8.5565   -1.2727   15.1514 H   0  0  0  0  0  0  0  0  0  0  0  0
   -7.1448   -2.2963   16.2814 H   0  0  0  0  0  0  0  0  0  0  0  0
   -6.5707   -1.9646   14.6238 H   0  0  0  0  0  0  0  0  0  0  0  0
   -3.5002   -1.4705   16.1351 H   0  0  0  0  0  0  0  0  0  0  0  0
   -5.0088   -2.9961   17.1195 H   0  0  0  0  0  0  0  0  0  0  0  0
   -5.1860   -3.6916   13.2872 H   0  0  0  0  0  0  0  0  0  0  0  0
   -5.5234    0.4634   15.5541 H   0  0  0  0  0  0  0  0  0  0  0  0
   -3.7440   -0.0084   15.8407 H   0  0  0  0  0  0  0  0  0  0  0  0
   -3.6260   -2.1563   12.7657 H   0  0  0  0  0  0  0  0  0  0  0  0
   -5.8140    1.6922   14.1616 H   0  0  0  0  0  0  0  0  0  0  0  0
   -6.0911    2.1960   16.4591 H   0  0  0  0  0  0  0  0  0  0  0  0
   -4.5890   -1.4560   15.9353 H   0  0  0  0  0  0  0  0  0  0  0  0
   -4.2842    2.7148   14.5338 H   0  0  0  0  0  0  0  0  0  0  0  0
   -5.9587    3.1458   14.0052 H   0  0  0  0  0  0  0  0  0  0  0  0
   -7.2402    0.3332   15.4228 H   0  0  0  0  0  0  0  0  0  0  0  0
    1.9845   -0.8492   11.7166 H   0  0  0  0  0  0  0  0  0  0  0  0
    3.0258   -0.3282   14.3081 H   0  0  0  0  0  0  0  0  0  0  0  0
    1.2838   -1.8978   13.2007 H   0  0  0  0  0  0  0  0  0  0  0  0
    2.3075   -2.7534   14.4156 H   0  0  0  0  0  0  0  0  0  0  0  0
    1.6844   -1.1819   16.1524 H   0  0  0  0  0  0  0  0  0  0  0  0
    0.6563    0.1798   13.6457 H   0  0  0  0  0  0  0  0  0  0  0  0
    1.6837    0.7725   16.2438 H   0  0  0  0  0  0  0  0  0  0  0  0
   -0.0095    1.1736   15.9593 H   0  0  0  0  0  0  0  0  0  0  0  0
    0.3898   -0.3228   16.0140 H   0  0  0  0  0  0  0  0  0  0  0  0
    2.1519    1.9213   14.5784 H   0  0  0  0  0  0  0  0  0  0  0  0
  -11.8188   -1.6497   12.3720 H   0  0  0  0  0  0  0  0  0  0  0  0
  1 98  1  0  0  0  0
  1 99  1  0  0  0  0
  1100  1  0  0  0  0
  2 97  1  0  0  0  0
  2101  1  6  0  0  0
  2  1  1  0  0  0  0
  3  4  1  0  0  0  0
  3 27  1  0  0  0  0
  3  2  1  0  0  0  0
  3102  1  1  0  0  0
  4  5  2  0  0  0  0
  4  6  1  0  0  0  0
  6  7  1  0  0  0  0
  6103  1  0  0  0  0
  7  8  1  0  0  0  0
  7104  1  6  0  0  0
  7 88  1  0  0  0  0
  8  9  1  0  0  0  0
  8105  1  0  0  0  0
  8106  1  0  0  0  0
  9 10  1  0  0  0  0
 10 11  1  0  0  0  0
 11 12  1  0  0  0  0
 11107  1  0  0  0  0
 11108  1  0  0  0  0
 12 13  1  0  0  0  0
 12109  1  6  0  0  0
 12 50  1  0  0  0  0
 13 14  2  0  0  0  0
 13 15  1  0  0  0  0
 15 16  1  0  0  0  0
 15110  1  0  0  0  0
 16 17  1  0  0  0  0
 16 43  1  0  0  0  0
 16111  1  6  0  0  0
 17 18  2  0  0  0  0
 17 19  1  0  0  0  0
 19 20  1  0  0  0  0
 19112  1  0  0  0  0
 20 21  1  0  0  0  0
 20113  1  1  0  0  0
 20 33  1  0  0  0  0
 21 22  2  0  0  0  0
 21 23  1  0  0  0  0
 23 24  1  0  0  0  0
 23114  1  0  0  0  0
 24 25  1  0  0  0  0
 24 28  1  0  0  0  0
 24115  1  1  0  0  0
 25 26  2  0  0  0  0
 25 27  1  0  0  0  0
 27116  1  0  0  0  0
 28 29  1  0  0  0  0
 28117  1  0  0  0  0
 28118  1  0  0  0  0
 29 30  1  0  0  0  0
 29119  1  0  0  0  0
 29120  1  0  0  0  0
 30 31  1  0  0  0  0
 30121  1  0  0  0  0
 30122  1  0  0  0  0
 31 32  1  0  0  0  0
 31123  1  0  0  0  0
 31124  1  0  0  0  0
 32125  1  0  0  0  0
 32126  1  0  0  0  0
 33 34  1  0  0  0  0
 33127  1  0  0  0  0
 33128  1  0  0  0  0
 34 35  2  0  0  0  0
 34 38  1  0  0  0  0
 35 36  1  0  0  0  0
 35129  1  0  0  0  0
 36 37  1  0  0  0  0
 36130  1  0  0  0  0
 37 38  1  0  0  0  0
 37 42  2  0  0  0  0
 38 39  2  0  0  0  0
 39 40  1  0  0  0  0
 39131  1  0  0  0  0
 40 41  2  0  0  0  0
 40132  1  0  0  0  0
 41 42  1  0  0  0  0
 41133  1  0  0  0  0
 42134  1  0  0  0  0
 43 44  1  0  0  0  0
 43135  1  0  0  0  0
 43136  1  0  0  0  0
 44 45  2  0  0  0  0
 44 49  1  0  0  0  0
 45 46  1  0  0  0  0
 45137  1  0  0  0  0
 46 47  2  0  0  0  0
 46138  1  0  0  0  0
 47 48  1  0  0  0  0
 47139  1  0  0  0  0
 48 49  2  0  0  0  0
 48140  1  0  0  0  0
 49141  1  0  0  0  0
 50 51  1  0  0  0  0
 50142  1  0  0  0  0
 51 52  2  0  0  0  0
 51 53  1  0  0  0  0
 53 54  1  0  0  0  0
 53 61  1  0  0  0  0
 53143  1  6  0  0  0
 54 55  1  0  0  0  0
 54144  1  0  0  0  0
 54145  1  0  0  0  0
 55 56  2  0  0  0  0
 55 60  1  0  0  0  0
 56 57  1  0  0  0  0
 56146  1  0  0  0  0
 57 58  2  0  0  0  0
 57147  1  0  0  0  0
 58 59  1  0  0  0  0
 58148  1  0  0  0  0
 59 60  2  0  0  0  0
 59149  1  0  0  0  0
 60150  1  0  0  0  0
 61 62  1  0  0  0  0
 61151  1  0  0  0  0
 62 63  2  0  0  0  0
 62 64  1  0  0  0  0
 64 65  1  0  0  0  0
 64152  1  0  0  0  0
 64153  1  0  0  0  0
 65 66  1  0  0  0  0
 65 84  1  0  0  0  0
 66 67  1  0  0  0  0
 66154  1  0  0  0  0
 66155  1  0  0  0  0
 67 68  1  0  0  0  0
 67156  1  0  0  0  0
 67157  1  0  0  0  0
 68 69  1  0  0  0  0
 68 80  1  0  0  0  0
 69 70  1  0  0  0  0
 69158  1  0  0  0  0
 69159  1  0  0  0  0
 70 71  1  0  0  0  0
 70160  1  0  0  0  0
 70161  1  0  0  0  0
 71 72  1  0  0  0  0
 71 76  1  0  0  0  0
 72 73  1  0  0  0  0
 72162  1  0  0  0  0
 72163  1  0  0  0  0
 73 74  2  0  0  0  0
 73 75  1  0  0  0  0
 75164  1  0  0  0  0
 76 77  1  0  0  0  0
 76165  1  0  0  0  0
 76166  1  0  0  0  0
 77 78  2  0  0  0  0
 77 79  1  0  0  0  0
 79167  1  0  0  0  0
 80 81  1  0  0  0  0
 80168  1  0  0  0  0
 80169  1  0  0  0  0
 81 82  2  0  0  0  0
 81 83  1  0  0  0  0
 83170  1  0  0  0  0
 84 85  1  0  0  0  0
 84171  1  0  0  0  0
 84172  1  0  0  0  0
 85 86  2  0  0  0  0
 85 87  1  0  0  0  0
 87173  1  0  0  0  0
 88 89  2  0  0  0  0
 88 90  1  0  0  0  0
 90174  1  0  0  0  0
 91 94  1  0  0  0  0
 91175  1  1  0  0  0
 91 92  1  0  0  0  0
 91 90  1  0  0  0  0
 92 93  1  0  0  0  0
 92176  1  0  0  0  0
 92177  1  0  0  0  0
 93178  1  0  0  0  0
 94 95  1  0  0  0  0
 94 96  1  0  0  0  0
 94179  1  6  0  0  0
 95180  1  0  0  0  0
 95181  1  0  0  0  0
 95182  1  0  0  0  0
 96183  1  0  0  0  0
 97184  1  0  0  0  0
M  END
>  <DRUGBANK_ID>
DB12602

>  <COMMON_NAME>
Pentetreotide

>  <CAS_NUMBER>
138661-02-6

>  <UNII>
G083B71P98

>  <SYNONYMS>
Pentetreotida; Pentetreotide

$$$$
