
 OpenBabel10282417203D

 51 54  0  0  1  0  0  0  0  0999 V2000
    2.0444   -0.4000   -0.4801 C   0  0  0  0  0  0  0  0  0  0  0  0
    0.5048   -0.6940   -1.3130 C   0  0  1  0  0  0  0  0  0  0  0  0
    0.2479   -0.0570    0.0290 C   0  0  1  0  0  0  0  0  0  0  0  0
    0.6547    1.4332   -0.6738 C   0  0  0  0  0  0  0  0  0  0  0  0
   -0.6552    1.9786   -0.7136 C   0  0  0  0  0  0  0  0  0  0  0  0
   -0.8124    3.2228   -0.0934 C   0  0  0  0  0  0  0  0  0  0  0  0
   -2.0501    3.5506    0.2575 C   0  0  0  0  0  0  0  0  0  0  0  0
   -3.1119    2.6579   -0.0155 C   0  0  0  0  0  0  0  0  0  0  0  0
   -2.9218    1.3844   -0.6172 C   0  0  0  0  0  0  0  0  0  0  0  0
   -1.6743    1.0246   -1.0070 C   0  0  0  0  0  0  0  0  0  0  0  0
   -1.1591   -0.4728   -1.3996 C   0  0  2  0  0  0  0  0  0  0  0  0
   -1.7241   -1.6788   -0.4939 C   0  0  0  0  0  0  0  0  0  0  0  0
   -1.2375   -1.6437    0.9950 C   0  0  0  0  0  0  0  0  0  0  0  0
   -0.5761   -0.3313    1.2364 N   0  0  0  0  0  0  0  0  0  0  0  0
    0.2261   -0.2732    2.5067 C   0  0  0  0  0  0  0  0  0  0  0  0
    1.3734   -1.2940    2.9610 C   0  0  0  0  0  0  0  0  0  0  0  0
    2.7864   -1.2623    2.3398 C   0  0  0  0  0  0  0  0  0  0  0  0
    3.4603   -0.0486    2.0829 C   0  0  0  0  0  0  0  0  0  0  0  0
    4.4053    0.0248    1.0257 C   0  0  0  0  0  0  0  0  0  0  0  0
    4.7932   -1.1281    0.3281 C   0  0  0  0  0  0  0  0  0  0  0  0
    4.2974   -2.3689    0.7352 C   0  0  0  0  0  0  0  0  0  0  0  0
    3.2995   -2.4389    1.7335 C   0  0  0  0  0  0  0  0  0  0  0  0
   -1.6760   -0.6640   -2.8294 C   0  0  0  0  0  0  0  0  0  0  0  0
   -4.3711    3.0198    0.3240 O   0  0  0  0  0  0  0  0  0  0  0  0
    2.2229   -1.3038    0.0797 H   0  0  0  0  0  0  0  0  0  0  0  0
    2.0551    0.3766    0.3776 H   0  0  0  0  0  0  0  0  0  0  0  0
    2.8482   -0.0413   -1.0908 H   0  0  0  0  0  0  0  0  0  0  0  0
    0.8662   -0.3065   -2.2756 H   0  0  0  0  0  0  0  0  0  0  0  0
    0.5542   -1.1079    0.2164 H   0  0  0  0  0  0  0  0  0  0  0  0
    1.4207    2.0543   -0.1880 H   0  0  0  0  0  0  0  0  0  0  0  0
    0.9901    1.4469   -1.7492 H   0  0  0  0  0  0  0  0  0  0  0  0
    0.0852    3.7761    0.2130 H   0  0  0  0  0  0  0  0  0  0  0  0
   -2.1904    4.4868    0.8056 H   0  0  0  0  0  0  0  0  0  0  0  0
   -3.7526    0.6865   -0.6798 H   0  0  0  0  0  0  0  0  0  0  0  0
   -1.3241   -2.6131   -0.9329 H   0  0  0  0  0  0  0  0  0  0  0  0
   -2.8121   -1.7608   -0.5347 H   0  0  0  0  0  0  0  0  0  0  0  0
   -0.5240   -2.4805    1.1383 H   0  0  0  0  0  0  0  0  0  0  0  0
   -2.0483   -1.8459    1.7004 H   0  0  0  0  0  0  0  0  0  0  0  0
    0.6169    0.7469    2.5973 H   0  0  0  0  0  0  0  0  0  0  0  0
   -0.5373   -0.3415    3.2950 H   0  0  0  0  0  0  0  0  0  0  0  0
    1.5176   -1.1539    4.0428 H   0  0  0  0  0  0  0  0  0  0  0  0
    0.9651   -2.3076    2.8630 H   0  0  0  0  0  0  0  0  0  0  0  0
    3.0353    0.8910    2.4369 H   0  0  0  0  0  0  0  0  0  0  0  0
    4.5949    0.9968    0.5572 H   0  0  0  0  0  0  0  0  0  0  0  0
    5.3164   -1.0406   -0.6274 H   0  0  0  0  0  0  0  0  0  0  0  0
    4.5453   -3.2550    0.1527 H   0  0  0  0  0  0  0  0  0  0  0  0
    2.7699   -3.3844    1.8461 H   0  0  0  0  0  0  0  0  0  0  0  0
   -1.3576    0.1661   -3.4713 H   0  0  0  0  0  0  0  0  0  0  0  0
   -1.3351   -1.6007   -3.2759 H   0  0  0  0  0  0  0  0  0  0  0  0
   -2.7735   -0.6659   -2.8265 H   0  0  0  0  0  0  0  0  0  0  0  0
   -4.3091    3.9548    0.5948 H   0  0  0  0  0  0  0  0  0  0  0  0
  1 25  1  0  0  0  0
  1 26  1  0  0  0  0
  1 27  1  0  0  0  0
  2  1  1  0  0  0  0
  2  3  1  0  0  0  0
  2 11  1  0  0  0  0
  2 28  1  1  0  0  0
  3  4  1  0  0  0  0
  3 14  1  0  0  0  0
  3 29  1  1  0  0  0
  4  5  1  0  0  0  0
  4 30  1  0  0  0  0
  4 31  1  0  0  0  0
  5  6  2  0  0  0  0
  5 10  1  0  0  0  0
  6  7  1  0  0  0  0
  6 32  1  0  0  0  0
  7  8  2  0  0  0  0
  7 33  1  0  0  0  0
  8  9  1  0  0  0  0
  8 24  1  0  0  0  0
  9 10  2  0  0  0  0
  9 34  1  0  0  0  0
 10 11  1  0  0  0  0
 11 12  1  0  0  0  0
 11 23  1  6  0  0  0
 12 13  1  0  0  0  0
 12 35  1  0  0  0  0
 12 36  1  0  0  0  0
 13 14  1  0  0  0  0
 13 37  1  0  0  0  0
 13 38  1  0  0  0  0
 14 15  1  0  0  0  0
 15 16  1  0  0  0  0
 15 39  1  0  0  0  0
 15 40  1  0  0  0  0
 16 17  1  0  0  0  0
 16 41  1  0  0  0  0
 16 42  1  0  0  0  0
 17 18  2  0  0  0  0
 17 22  1  0  0  0  0
 18 19  1  0  0  0  0
 18 43  1  0  0  0  0
 19 20  2  0  0  0  0
 19 44  1  0  0  0  0
 20 21  1  0  0  0  0
 20 45  1  0  0  0  0
 21 22  2  0  0  0  0
 21 46  1  0  0  0  0
 22 47  1  0  0  0  0
 23 48  1  0  0  0  0
 23 49  1  0  0  0  0
 23 50  1  0  0  0  0
 24 51  1  0  0  0  0
M  END
>  <DRUGBANK_ID>
DB13606

>  <COMMON_NAME>
Phenazocine

>  <CAS_NUMBER>
58073-76-0

>  <UNII>
J0ND6N0AQC

$$$$
