
 OpenBabel10282417103D

 36 38  0  0  0  0  0  0  0  0999 V2000
   -1.1193   -0.4659   -0.0006 C   0  0  0  0  0  0  0  0  0  0  0  0
   -2.5143   -0.3566    0.1235 C   0  0  0  0  0  0  0  0  0  0  0  0
   -3.1324    0.8938    0.2402 C   0  0  0  0  0  0  0  0  0  0  0  0
   -2.3644    2.0573    0.2476 C   0  0  0  0  0  0  0  0  0  0  0  0
   -0.9816    1.9755    0.0944 C   0  0  0  0  0  0  0  0  0  0  0  0
   -0.3869    0.7190   -0.0626 C   0  0  0  0  0  0  0  0  0  0  0  0
    1.3437    0.5678   -0.3504 S   0  0  0  0  0  0  0  0  0  0  0  0
    1.7144   -0.8619    0.5344 N   0  0  0  0  0  0  0  0  0  0  0  0
    0.8835   -1.9751    0.1261 C   0  0  0  0  0  0  0  0  0  0  0  0
   -0.4435   -1.7804   -0.0937 C   0  0  0  0  0  0  0  0  0  0  0  0
    1.4782   -3.3526   -0.0311 C   0  0  0  0  0  0  0  0  0  0  0  0
    2.8255   -3.5066    0.2208 N   0  0  0  0  0  0  0  0  0  0  0  0
    3.4591   -4.7601    0.1027 C   0  0  0  0  0  0  0  0  0  0  0  0
    4.8939   -6.3596    0.9490 C   0  0  0  0  0  0  0  0  0  0  0  0
    4.3700   -5.1046    1.0379 N   0  0  0  0  0  0  0  0  0  0  0  0
    3.1469   -5.5967   -0.9670 C   0  0  0  0  0  0  0  0  0  0  0  0
    3.7343   -6.8544   -1.0598 C   0  0  0  0  0  0  0  0  0  0  0  0
    4.6115   -7.2595   -0.0687 C   0  0  0  0  0  0  0  0  0  0  0  0
    1.8153   -0.6342    1.9984 C   0  0  0  0  0  0  0  0  0  0  0  0
   -1.3231   -2.8054   -0.4184 O   0  0  0  0  0  0  0  0  0  0  0  0
    0.7228   -4.2828   -0.3299 O   0  0  0  0  0  0  0  0  0  0  0  0
    2.0004    1.6814    0.2973 O   0  0  0  0  0  0  0  0  0  0  0  0
    1.5234    0.2950   -1.7623 O   0  0  0  0  0  0  0  0  0  0  0  0
   -3.1405   -1.2480    0.1254 H   0  0  0  0  0  0  0  0  0  0  0  0
   -4.2155    0.9548    0.3271 H   0  0  0  0  0  0  0  0  0  0  0  0
   -2.8483    3.0255    0.3558 H   0  0  0  0  0  0  0  0  0  0  0  0
   -0.3817    2.8824    0.0829 H   0  0  0  0  0  0  0  0  0  0  0  0
    3.3417   -2.7827    0.7012 H   0  0  0  0  0  0  0  0  0  0  0  0
    5.5717   -6.6466    1.7502 H   0  0  0  0  0  0  0  0  0  0  0  0
    2.4704   -5.2671   -1.7478 H   0  0  0  0  0  0  0  0  0  0  0  0
    3.4968   -7.5036   -1.8973 H   0  0  0  0  0  0  0  0  0  0  0  0
    5.0657   -8.2447   -0.0970 H   0  0  0  0  0  0  0  0  0  0  0  0
    2.6328    0.0626    2.2096 H   0  0  0  0  0  0  0  0  0  0  0  0
    0.8845   -0.2366    2.4143 H   0  0  0  0  0  0  0  0  0  0  0  0
    2.0527   -1.5713    2.5101 H   0  0  0  0  0  0  0  0  0  0  0  0
   -0.8249   -3.6529   -0.4663 H   0  0  0  0  0  0  0  0  0  0  0  0
  1  2  1  0  0  0  0
  1  6  2  0  0  0  0
  1 10  1  0  0  0  0
  2  3  2  0  0  0  0
  2 24  1  0  0  0  0
  3  4  1  0  0  0  0
  3 25  1  0  0  0  0
  4  5  2  0  0  0  0
  4 26  1  0  0  0  0
  5  6  1  0  0  0  0
  5 27  1  0  0  0  0
  6  7  1  0  0  0  0
  7  8  1  0  0  0  0
  7 22  2  0  0  0  0
  7 23  2  0  0  0  0
  8  9  1  0  0  0  0
  8 19  1  0  0  0  0
  9 10  2  0  0  0  0
  9 11  1  0  0  0  0
 10 20  1  0  0  0  0
 11 12  1  0  0  0  0
 11 21  2  0  0  0  0
 12 13  1  0  0  0  0
 12 28  1  0  0  0  0
 13 16  1  0  0  0  0
 14 15  1  0  0  0  0
 14 18  2  0  0  0  0
 14 29  1  0  0  0  0
 15 13  2  0  0  0  0
 16 17  2  0  0  0  0
 16 30  1  0  0  0  0
 17 18  1  0  0  0  0
 17 31  1  0  0  0  0
 18 32  1  0  0  0  0
 19 33  1  0  0  0  0
 19 34  1  0  0  0  0
 19 35  1  0  0  0  0
 20 36  1  0  0  0  0
M  END
>  <DRUGBANK_ID>
DB00554

>  <SECONDARY_ACCESSION_NUMBERS>
APRD01187

>  <COMMON_NAME>
Piroxicam

>  <CAS_NUMBER>
36322-90-4

>  <UNII>
13T4O6VMAM

>  <SYNONYMS>
4-Hydroxy-2-methyl-N-(2-pyridyl)-2H-1,2-benzothiazin-3-caboxyamid-1,1-dioxid; Piroxicam; Piroxicam betadex; Piroxicamum; Pyroxycam

$$$$
