
 OpenBabel10282417133D

 32 33  0  0  1  0  0  0  0  0999 V2000
   -0.8785    0.3477    1.9931 C   0  0  0  0  0  0  0  0  0  0  0  0
    1.4724    5.0560   -0.9711 C   0  0  0  0  0  0  0  0  0  0  0  0
   -0.0755    1.9276    0.2546 C   0  0  0  0  0  0  0  0  0  0  0  0
    2.0076    4.7852    2.0291 C   0  0  0  0  0  0  0  0  0  0  0  0
    0.3134    0.7341    1.1365 C   0  0  1  0  0  0  0  0  0  0  0  0
    1.4679    3.5426    1.5510 C   0  0  0  0  0  0  0  0  0  0  0  0
    0.4522    3.3545    0.4688 C   0  0  1  0  0  0  0  0  0  0  0  0
    3.0577    4.5936    2.9003 C   0  0  0  0  0  0  0  0  0  0  0  0
    2.0541    2.5078    2.2342 C   0  0  0  0  0  0  0  0  0  0  0  0
    3.7762    5.5134    5.3447 N   0  0  0  0  0  0  0  0  0  0  0  0
    1.0579    3.6784   -0.8256 N   0  0  0  0  0  0  0  0  0  0  0  0
    1.3857    0.4828    3.5554 O   0  0  0  0  0  0  0  0  0  0  0  0
    2.8926    0.2195    1.5269 O   0  0  0  0  0  0  0  0  0  0  0  0
    5.4923    5.1436    3.5068 O   0  0  0  0  0  0  0  0  0  0  0  0
    3.7685    6.9943    3.3129 O   0  0  0  0  0  0  0  0  0  0  0  0
    3.2630    2.9662    3.3111 S   0  0  0  0  0  0  0  0  0  0  0  0
    1.7465    0.8062    2.1909 S   0  0  0  0  0  0  0  0  0  0  0  0
    4.1621    5.6728    3.7205 S   0  0  0  0  0  0  0  0  0  0  0  0
    0.5658   -0.0782    0.4403 H   0  0  0  0  0  0  0  0  0  0  0  0
   -0.4157    4.0033    0.6618 H   0  0  0  0  0  0  0  0  0  0  0  0
   -1.8351    0.5489    1.5095 H   0  0  0  0  0  0  0  0  0  0  0  0
   -0.8789    0.9137    2.9307 H   0  0  0  0  0  0  0  0  0  0  0  0
   -0.8140   -0.7179    2.2213 H   0  0  0  0  0  0  0  0  0  0  0  0
    2.3334    5.2744   -0.3403 H   0  0  0  0  0  0  0  0  0  0  0  0
    1.8109    5.2396   -1.9908 H   0  0  0  0  0  0  0  0  0  0  0  0
    0.6473    5.7346   -0.7371 H   0  0  0  0  0  0  0  0  0  0  0  0
    0.1197    1.6038   -0.7817 H   0  0  0  0  0  0  0  0  0  0  0  0
   -1.1722    2.0170    0.2246 H   0  0  0  0  0  0  0  0  0  0  0  0
    1.7278    5.7742    1.6792 H   0  0  0  0  0  0  0  0  0  0  0  0
    4.4094    6.0642    5.9174 H   0  0  0  0  0  0  0  0  0  0  0  0
    2.7901    5.7035    5.5191 H   0  0  0  0  0  0  0  0  0  0  0  0
    1.8486    3.0587   -1.0031 H   0  0  0  0  0  0  0  0  0  0  0  0
  1 21  1  0  0  0  0
  1 22  1  0  0  0  0
  1 23  1  0  0  0  0
  2 24  1  0  0  0  0
  2 25  1  0  0  0  0
  2 26  1  0  0  0  0
  3 27  1  0  0  0  0
  3 28  1  0  0  0  0
  4 29  1  0  0  0  0
  5  3  1  0  0  0  0
  5 19  1  6  0  0  0
  5  1  1  0  0  0  0
  6  4  1  0  0  0  0
  7  3  1  0  0  0  0
  7  6  1  0  0  0  0
  7 11  1  0  0  0  0
  7 20  1  1  0  0  0
  8  4  2  0  0  0  0
  9  6  2  0  0  0  0
 10 30  1  0  0  0  0
 10 31  1  0  0  0  0
 11  2  1  0  0  0  0
 11 32  1  0  0  0  0
 16  8  1  0  0  0  0
 16  9  1  0  0  0  0
 17  5  1  0  0  0  0
 17  9  1  0  0  0  0
 17 12  2  0  0  0  0
 17 13  2  0  0  0  0
 18  8  1  0  0  0  0
 18 10  1  0  0  0  0
 18 14  2  0  0  0  0
 18 15  2  0  0  0  0
M  END
>  <DRUGBANK_ID>
DB04081

>  <SECONDARY_ACCESSION_NUMBERS>
EXPT02251

>  <COMMON_NAME>
(4s-Trans)-4-(Methylamino)-5,6-Dihydro-6-Methyl-4h-Thieno(2,3-B)Thiopyran-2-Sulfonamide-7,7-Dioxide

$$$$
