
 OpenBabel10282417223D

 78 79  0  0  1  0  0  0  0  0999 V2000
    1.1546    0.0020    0.0116 C   0  0  0  0  0  0  0  0  0  0  0  0
    0.5776   -0.3366    1.3824 C   0  0  0  0  0  0  0  0  0  0  0  0
    1.0717    0.6565    2.4288 C   0  0  0  0  0  0  0  0  0  0  0  0
   -0.9618   -0.3714    1.3467 C   0  0  0  0  0  0  0  0  0  0  0  0
   -1.5272   -1.4033    0.3577 C   0  0  0  0  0  0  0  0  0  0  0  0
   -1.0934   -2.8322    0.6794 C   0  0  0  0  0  0  0  0  0  0  0  0
   -1.5570   -3.3052    2.0661 C   0  0  1  0  0  0  0  0  0  0  0  0
   -3.0803   -3.3096    2.1755 C   0  0  0  0  0  0  0  0  0  0  0  0
   -0.9689   -4.6850    2.3999 C   0  0  0  0  0  0  0  0  0  0  0  0
    0.5692   -4.6908    2.4365 C   0  0  0  0  0  0  0  0  0  0  0  0
    1.1465   -3.7227    3.4686 C   0  0  0  0  0  0  0  0  0  0  0  0
    0.7190   -4.0489    4.9017 C   0  0  1  0  0  0  0  0  0  0  0  0
    1.2210   -5.4329    5.2668 C   0  0  0  0  0  0  0  0  0  0  0  0
    1.2266   -2.9767    5.8784 C   0  0  0  0  0  0  0  0  0  0  0  0
    0.5888   -1.6115    5.6078 C   0  0  0  0  0  0  0  0  0  0  0  0
   -0.9488   -1.6045    5.6839 C   0  0  0  0  0  0  0  0  0  0  0  0
   -1.5362   -1.9684    7.0741 C   0  0  2  0  0  0  0  0  0  0  0  0
   -3.0699   -1.8937    6.9673 C   0  0  0  0  0  0  0  0  0  0  0  0
   -0.9400   -0.9763    8.0769 C   0  0  0  0  0  0  0  0  0  0  0  0
   -1.5151   -1.2135    9.4462 C   0  0  0  0  0  0  0  0  0  0  0  0
   -1.4568   -2.6779    9.7686 C   0  0  0  0  0  0  0  0  0  0  0  0
   -1.3006   -3.6554    8.7808 C   0  0  0  0  0  0  0  0  0  0  0  0
   -1.2107   -3.3324    7.4393 O   0  0  0  0  0  0  0  0  0  0  0  0
   -1.2236   -5.0258    9.1434 C   0  0  0  0  0  0  0  0  0  0  0  0
   -0.9307   -6.0751    8.1126 C   0  0  0  0  0  0  0  0  0  0  0  0
   -1.3487   -5.3980   10.5044 C   0  0  0  0  0  0  0  0  0  0  0  0
   -1.2660   -6.8475   10.9156 C   0  0  0  0  0  0  0  0  0  0  0  0
   -1.5554   -4.4062   11.4561 C   0  0  0  0  0  0  0  0  0  0  0  0
   -1.7144   -4.7580   12.7688 O   0  0  0  0  0  0  0  0  0  0  0  0
   -1.6067   -3.0580   11.1061 C   0  0  0  0  0  0  0  0  0  0  0  0
    0.7910    0.9765   -0.3271 H   0  0  0  0  0  0  0  0  0  0  0  0
    0.8763   -0.7459   -0.7369 H   0  0  0  0  0  0  0  0  0  0  0  0
    2.2472    0.0236    0.0436 H   0  0  0  0  0  0  0  0  0  0  0  0
    0.9680   -1.3157    1.6695 H   0  0  0  0  0  0  0  0  0  0  0  0
    0.7531    1.6745    2.1927 H   0  0  0  0  0  0  0  0  0  0  0  0
    0.6787    0.4125    3.4180 H   0  0  0  0  0  0  0  0  0  0  0  0
    2.1651    0.6354    2.4898 H   0  0  0  0  0  0  0  0  0  0  0  0
   -1.3479   -0.5665    2.3553 H   0  0  0  0  0  0  0  0  0  0  0  0
   -1.3481    0.6179    1.0772 H   0  0  0  0  0  0  0  0  0  0  0  0
   -2.6183   -1.3344    0.3366 H   0  0  0  0  0  0  0  0  0  0  0  0
   -1.2111   -1.1638   -0.6622 H   0  0  0  0  0  0  0  0  0  0  0  0
   -1.4632   -3.5218   -0.0875 H   0  0  0  0  0  0  0  0  0  0  0  0
   -0.0035   -2.8748    0.5996 H   0  0  0  0  0  0  0  0  0  0  0  0
   -1.2047   -2.6013    2.8207 H   0  0  0  0  0  0  0  0  0  0  0  0
   -3.5206   -3.9883    1.4406 H   0  0  0  0  0  0  0  0  0  0  0  0
   -3.3991   -3.6120    3.1774 H   0  0  0  0  0  0  0  0  0  0  0  0
   -3.4929   -2.3093    2.0095 H   0  0  0  0  0  0  0  0  0  0  0  0
   -1.3672   -5.0203    3.3656 H   0  0  0  0  0  0  0  0  0  0  0  0
   -1.3101   -5.4231    1.6672 H   0  0  0  0  0  0  0  0  0  0  0  0
    0.9236   -5.7070    2.6261 H   0  0  0  0  0  0  0  0  0  0  0  0
    0.9837   -4.4373    1.4573 H   0  0  0  0  0  0  0  0  0  0  0  0
    2.2408   -3.7148    3.4073 H   0  0  0  0  0  0  0  0  0  0  0  0
    0.8387   -2.7124    3.2070 H   0  0  0  0  0  0  0  0  0  0  0  0
   -0.3722   -4.0834    4.9741 H   0  0  0  0  0  0  0  0  0  0  0  0
    2.3083   -5.4930    5.2134 H   0  0  0  0  0  0  0  0  0  0  0  0
    0.9288   -5.6796    6.2710 H   0  0  0  0  0  0  0  0  0  0  0  0
    0.7784   -6.2046    4.6311 H   0  0  0  0  0  0  0  0  0  0  0  0
    1.0352   -3.2776    6.9123 H   0  0  0  0  0  0  0  0  0  0  0  0
    2.3157   -2.8873    5.8080 H   0  0  0  0  0  0  0  0  0  0  0  0
    1.0131   -0.8617    6.2833 H   0  0  0  0  0  0  0  0  0  0  0  0
    0.8947   -1.2661    4.6201 H   0  0  0  0  0  0  0  0  0  0  0  0
   -1.2909   -0.5994    5.3948 H   0  0  0  0  0  0  0  0  0  0  0  0
   -1.3678   -2.2715    4.9266 H   0  0  0  0  0  0  0  0  0  0  0  0
   -3.4092   -0.8847    6.7184 H   0  0  0  0  0  0  0  0  0  0  0  0
   -3.4354   -2.5908    6.2037 H   0  0  0  0  0  0  0  0  0  0  0  0
   -3.5583   -2.2035    7.8967 H   0  0  0  0  0  0  0  0  0  0  0  0
    0.1452   -1.1263    8.1556 H   0  0  0  0  0  0  0  0  0  0  0  0
   -1.1030    0.0604    7.7598 H   0  0  0  0  0  0  0  0  0  0  0  0
   -0.9382   -0.6316   10.1724 H   0  0  0  0  0  0  0  0  0  0  0  0
   -2.5534   -0.8712    9.4853 H   0  0  0  0  0  0  0  0  0  0  0  0
   -1.5901   -5.9928    7.2449 H   0  0  0  0  0  0  0  0  0  0  0  0
    0.1139   -5.9608    7.8484 H   0  0  0  0  0  0  0  0  0  0  0  0
   -1.0113   -7.1039    8.4731 H   0  0  0  0  0  0  0  0  0  0  0  0
   -2.0429   -7.4243   10.4030 H   0  0  0  0  0  0  0  0  0  0  0  0
   -0.2800   -7.2563   10.6697 H   0  0  0  0  0  0  0  0  0  0  0  0
   -1.4188   -6.9948   11.9874 H   0  0  0  0  0  0  0  0  0  0  0  0
   -1.8755   -3.9603   13.2890 H   0  0  0  0  0  0  0  0  0  0  0  0
   -1.7648   -2.2947   11.8549 H   0  0  0  0  0  0  0  0  0  0  0  0
  1  2  1  0  0  0  0
  1 31  1  0  0  0  0
  1 32  1  0  0  0  0
  1 33  1  0  0  0  0
  2  3  1  0  0  0  0
  2  4  1  0  0  0  0
  2 34  1  0  0  0  0
  3 35  1  0  0  0  0
  3 36  1  0  0  0  0
  3 37  1  0  0  0  0
  4  5  1  0  0  0  0
  4 38  1  0  0  0  0
  4 39  1  0  0  0  0
  5  6  1  0  0  0  0
  5 40  1  0  0  0  0
  5 41  1  0  0  0  0
  6 42  1  0  0  0  0
  6 43  1  0  0  0  0
  7  6  1  0  0  0  0
  7  8  1  0  0  0  0
  7  9  1  0  0  0  0
  7 44  1  1  0  0  0
  8 45  1  0  0  0  0
  8 46  1  0  0  0  0
  8 47  1  0  0  0  0
  9 10  1  0  0  0  0
  9 48  1  0  0  0  0
  9 49  1  0  0  0  0
 10 11  1  0  0  0  0
 10 50  1  0  0  0  0
 10 51  1  0  0  0  0
 11 52  1  0  0  0  0
 11 53  1  0  0  0  0
 12 11  1  0  0  0  0
 12 13  1  0  0  0  0
 12 14  1  0  0  0  0
 12 54  1  1  0  0  0
 13 55  1  0  0  0  0
 13 56  1  0  0  0  0
 13 57  1  0  0  0  0
 14 15  1  0  0  0  0
 14 58  1  0  0  0  0
 14 59  1  0  0  0  0
 15 16  1  0  0  0  0
 15 60  1  0  0  0  0
 15 61  1  0  0  0  0
 16 62  1  0  0  0  0
 16 63  1  0  0  0  0
 17 16  1  6  0  0  0
 17 18  1  0  0  0  0
 17 19  1  0  0  0  0
 17 23  1  0  0  0  0
 18 64  1  0  0  0  0
 18 65  1  0  0  0  0
 18 66  1  0  0  0  0
 19 20  1  0  0  0  0
 19 67  1  0  0  0  0
 19 68  1  0  0  0  0
 20 21  1  0  0  0  0
 20 69  1  0  0  0  0
 20 70  1  0  0  0  0
 21 22  2  0  0  0  0
 21 30  1  0  0  0  0
 22 23  1  0  0  0  0
 22 24  1  0  0  0  0
 24 25  1  0  0  0  0
 24 26  2  0  0  0  0
 25 71  1  0  0  0  0
 25 72  1  0  0  0  0
 25 73  1  0  0  0  0
 26 27  1  0  0  0  0
 26 28  1  0  0  0  0
 27 74  1  0  0  0  0
 27 75  1  0  0  0  0
 27 76  1  0  0  0  0
 28 29  1  0  0  0  0
 28 30  2  0  0  0  0
 29 77  1  0  0  0  0
 30 78  1  0  0  0  0
M  END
>  <DRUGBANK_ID>
DB15394

>  <COMMON_NAME>
gamma-Tocopherol

>  <CAS_NUMBER>
54-28-4

>  <UNII>
8EF1Z1238F

>  <SYNONYMS>
D-gamma-Tocopherol

$$$$
