
 OpenBabel10282417203D

 59 62  0  0  0  0  0  0  0  0999 V2000
    0.9627    0.0612    0.1239 C   0  0  0  0  0  0  0  0  0  0  0  0
    0.4327   -0.2087    1.4428 N   0  0  0  0  0  0  0  0  0  0  0  0
   -0.3108    0.7676    2.0658 C   0  0  0  0  0  0  0  0  0  0  0  0
   -1.2606    1.3670    1.3427 N   0  0  0  0  0  0  0  0  0  0  0  0
   -2.0291    2.2906    1.9256 C   0  0  0  0  0  0  0  0  0  0  0  0
   -3.0516    2.8828    1.2013 C   0  0  0  0  0  0  0  0  0  0  0  0
   -3.8874    3.9212    1.6913 C   0  0  0  0  0  0  0  0  0  0  0  0
   -3.6609    4.3872    2.9982 C   0  0  0  0  0  0  0  0  0  0  0  0
   -2.6378    3.7598    3.7340 C   0  0  0  0  0  0  0  0  0  0  0  0
   -1.8589    2.6916    3.2361 C   0  0  0  0  0  0  0  0  0  0  0  0
   -0.9022    1.9698    3.9526 C   0  0  0  0  0  0  0  0  0  0  0  0
   -0.1172    1.0180    3.3670 N   0  0  0  0  0  0  0  0  0  0  0  0
   -0.6475    2.2012    5.3956 C   0  0  0  0  0  0  0  0  0  0  0  0
   -1.6090    2.2090    6.3986 C   0  0  0  0  0  0  0  0  0  0  0  0
   -1.2436    2.4327    7.7375 C   0  0  0  0  0  0  0  0  0  0  0  0
    0.0890    2.7060    8.0946 C   0  0  0  0  0  0  0  0  0  0  0  0
    1.0714    2.6945    7.1090 C   0  0  0  0  0  0  0  0  0  0  0  0
    0.6610    2.3946    5.8122 C   0  0  0  0  0  0  0  0  0  0  0  0
    2.4372    2.8941    7.4266 N   0  0  0  0  0  0  0  0  0  0  0  0
    3.5550    2.9509    6.5915 C   0  0  0  0  0  0  0  0  0  0  0  0
    4.6831    2.8412    7.0704 O   0  0  0  0  0  0  0  0  0  0  0  0
    3.4333    3.1673    5.1139 C   0  0  0  0  0  0  0  0  0  0  0  0
    2.5694    4.1553    4.6047 C   0  0  0  0  0  0  0  0  0  0  0  0
    2.1897    4.1427    3.2494 C   0  0  0  0  0  0  0  0  0  0  0  0
    2.8203    3.2800    2.3485 C   0  0  0  0  0  0  0  0  0  0  0  0
    3.8037    2.3998    2.8389 C   0  0  0  0  0  0  0  0  0  0  0  0
    4.0517    2.2832    4.2206 C   0  0  0  0  0  0  0  0  0  0  0  0
    2.4836    3.2355    0.8835 C   0  0  0  0  0  0  0  0  0  0  0  0
    3.1009    2.5634    0.0897 O   0  0  0  0  0  0  0  0  0  0  0  0
    1.4170    4.0334    0.5779 O   0  0  0  0  0  0  0  0  0  0  0  0
    1.0855    4.0605   -0.8200 C   0  0  0  0  0  0  0  0  0  0  0  0
   -4.1975    5.3368    3.8276 O   0  0  0  0  0  0  0  0  0  0  0  0
   -5.2566    6.1545    3.4221 C   0  0  0  0  0  0  0  0  0  0  0  0
   -4.7637    4.2346    0.6814 O   0  0  0  0  0  0  0  0  0  0  0  0
   -5.7073    5.2540    0.8465 C   0  0  0  0  0  0  0  0  0  0  0  0
    0.6553    1.0298   -0.2812 H   0  0  0  0  0  0  0  0  0  0  0  0
    0.6240   -0.7094   -0.5746 H   0  0  0  0  0  0  0  0  0  0  0  0
    2.0589    0.0438    0.1298 H   0  0  0  0  0  0  0  0  0  0  0  0
    0.9105   -0.8647    2.0394 H   0  0  0  0  0  0  0  0  0  0  0  0
   -3.2204    2.5099    0.1892 H   0  0  0  0  0  0  0  0  0  0  0  0
   -2.4469    4.1300    4.7419 H   0  0  0  0  0  0  0  0  0  0  0  0
   -2.6457    2.0039    6.1464 H   0  0  0  0  0  0  0  0  0  0  0  0
   -2.0093    2.3617    8.5064 H   0  0  0  0  0  0  0  0  0  0  0  0
    0.3280    2.8889    9.1405 H   0  0  0  0  0  0  0  0  0  0  0  0
    1.3670    2.2474    5.0210 H   0  0  0  0  0  0  0  0  0  0  0  0
    2.6874    2.8618    8.4109 H   0  0  0  0  0  0  0  0  0  0  0  0
    2.0307    4.7993    5.2974 H   0  0  0  0  0  0  0  0  0  0  0  0
    1.3551    4.7654    2.9345 H   0  0  0  0  0  0  0  0  0  0  0  0
    4.3621    1.7729    2.1456 H   0  0  0  0  0  0  0  0  0  0  0  0
    4.6798    1.4716    4.5871 H   0  0  0  0  0  0  0  0  0  0  0  0
    1.9256    4.4454   -1.4076 H   0  0  0  0  0  0  0  0  0  0  0  0
    0.7959    3.0696   -1.1827 H   0  0  0  0  0  0  0  0  0  0  0  0
    0.2327    4.7319   -0.9656 H   0  0  0  0  0  0  0  0  0  0  0  0
   -4.8987    6.7865    2.6156 H   0  0  0  0  0  0  0  0  0  0  0  0
   -6.1278    5.5241    3.2735 H   0  0  0  0  0  0  0  0  0  0  0  0
   -5.5918    6.8722    4.1729 H   0  0  0  0  0  0  0  0  0  0  0  0
   -6.4066    4.9364    1.6137 H   0  0  0  0  0  0  0  0  0  0  0  0
   -5.1694    6.1908    0.9562 H   0  0  0  0  0  0  0  0  0  0  0  0
   -6.3482    5.4323   -0.0185 H   0  0  0  0  0  0  0  0  0  0  0  0
  1  2  1  0  0  0  0
  1 36  1  0  0  0  0
  1 37  1  0  0  0  0
  1 38  1  0  0  0  0
  2  3  1  0  0  0  0
  2 39  1  0  0  0  0
  3  4  1  0  0  0  0
  3 12  2  0  0  0  0
  4  5  2  0  0  0  0
  5  6  1  0  0  0  0
  5 10  1  0  0  0  0
  6  7  2  0  0  0  0
  6 40  1  0  0  0  0
  7  8  1  0  0  0  0
  7 34  1  0  0  0  0
  8  9  2  0  0  0  0
  8 32  1  0  0  0  0
  9 10  1  0  0  0  0
  9 41  1  0  0  0  0
 10 11  2  0  0  0  0
 11 12  1  0  0  0  0
 11 13  1  0  0  0  0
 13 14  2  0  0  0  0
 13 18  1  0  0  0  0
 14 15  1  0  0  0  0
 14 42  1  0  0  0  0
 15 16  2  0  0  0  0
 15 43  1  0  0  0  0
 16 17  1  0  0  0  0
 16 44  1  0  0  0  0
 17 18  2  0  0  0  0
 17 19  1  0  0  0  0
 18 45  1  0  0  0  0
 19 20  1  0  0  0  0
 19 46  1  0  0  0  0
 20 21  2  0  0  0  0
 20 22  1  0  0  0  0
 22 23  2  0  0  0  0
 22 27  1  0  0  0  0
 23 24  1  0  0  0  0
 23 47  1  0  0  0  0
 24 25  2  0  0  0  0
 24 48  1  0  0  0  0
 25 26  1  0  0  0  0
 25 28  1  0  0  0  0
 26 27  2  0  0  0  0
 26 49  1  0  0  0  0
 27 50  1  0  0  0  0
 28 29  2  0  0  0  0
 28 30  1  0  0  0  0
 30 31  1  0  0  0  0
 31 51  1  0  0  0  0
 31 52  1  0  0  0  0
 31 53  1  0  0  0  0
 32 33  1  0  0  0  0
 33 54  1  0  0  0  0
 33 55  1  0  0  0  0
 33 56  1  0  0  0  0
 34 35  1  0  0  0  0
 35 57  1  0  0  0  0
 35 58  1  0  0  0  0
 35 59  1  0  0  0  0
M  END
>  <DRUGBANK_ID>
DB12776

>  <COMMON_NAME>
E-6005

>  <CAS_NUMBER>
947620-48-6

>  <UNII>
TO043KKB9C

$$$$
