
 OpenBabel10282417113D

 36 38  0  0  0  0  0  0  0  0999 V2000
   -1.1104   -0.4753   -0.0000 C   0  0  0  0  0  0  0  0  0  0  0  0
   -0.3814    0.7114   -0.0620 C   0  0  0  0  0  0  0  0  0  0  0  0
   -0.4296   -1.7919   -0.0963 C   0  0  0  0  0  0  0  0  0  0  0  0
   -2.5066   -0.3631    0.1240 C   0  0  0  0  0  0  0  0  0  0  0  0
    1.3486    0.5621   -0.3515 S   0  0  0  0  0  0  0  0  0  0  0  0
   -0.9778    1.9693    0.0946 C   0  0  0  0  0  0  0  0  0  0  0  0
    0.9000   -1.9917    0.1155 C   0  0  0  0  0  0  0  0  0  0  0  0
   -1.3126   -2.8165   -0.4119 O   0  0  0  0  0  0  0  0  0  0  0  0
   -3.1269    0.8881    0.2406 C   0  0  0  0  0  0  0  0  0  0  0  0
    1.7279   -0.8742    0.5310 N   0  0  0  0  0  0  0  0  0  0  0  0
    2.0045    1.6733    0.3011 O   0  0  0  0  0  0  0  0  0  0  0  0
    1.5300    0.2960   -1.7643 O   0  0  0  0  0  0  0  0  0  0  0  0
   -2.3607    2.0523    0.2479 C   0  0  0  0  0  0  0  0  0  0  0  0
    1.4979   -3.3817   -0.0275 C   0  0  0  0  0  0  0  0  0  0  0  0
    1.8146   -0.6393    1.9963 C   0  0  0  0  0  0  0  0  0  0  0  0
    2.8358   -3.5375    0.2758 N   0  0  0  0  0  0  0  0  0  0  0  0
    0.7337   -4.3059   -0.3188 O   0  0  0  0  0  0  0  0  0  0  0  0
    3.4265   -4.7709    0.0771 C   0  0  0  0  0  0  0  0  0  0  0  0
    3.1562   -5.6198   -0.8829 N   0  0  0  0  0  0  0  0  0  0  0  0
    4.6308   -5.2792    1.1892 S   0  0  0  0  0  0  0  0  0  0  0  0
    3.9330   -6.7527   -0.7484 C   0  0  0  0  0  0  0  0  0  0  0  0
    4.7476   -6.7972    0.3654 C   0  0  0  0  0  0  0  0  0  0  0  0
    5.6216   -7.9179    0.8264 C   0  0  0  0  0  0  0  0  0  0  0  0
   -3.1346   -1.2533    0.1242 H   0  0  0  0  0  0  0  0  0  0  0  0
   -0.3795    2.8774    0.0816 H   0  0  0  0  0  0  0  0  0  0  0  0
   -0.8123   -3.6623   -0.4818 H   0  0  0  0  0  0  0  0  0  0  0  0
   -4.2105    0.9494    0.3260 H   0  0  0  0  0  0  0  0  0  0  0  0
   -2.8454    3.0207    0.3547 H   0  0  0  0  0  0  0  0  0  0  0  0
    2.6299    0.0596    2.2104 H   0  0  0  0  0  0  0  0  0  0  0  0
    0.8813   -0.2405    2.4054 H   0  0  0  0  0  0  0  0  0  0  0  0
    2.0506   -1.5736    2.5133 H   0  0  0  0  0  0  0  0  0  0  0  0
    3.3753   -2.7937    0.6919 H   0  0  0  0  0  0  0  0  0  0  0  0
    3.8467   -7.5375   -1.4909 H   0  0  0  0  0  0  0  0  0  0  0  0
    6.6657   -7.6051    0.9190 H   0  0  0  0  0  0  0  0  0  0  0  0
    5.2873   -8.3171    1.7906 H   0  0  0  0  0  0  0  0  0  0  0  0
    5.5960   -8.7528    0.1127 H   0  0  0  0  0  0  0  0  0  0  0  0
  1  2  2  0  0  0  0
  1  3  1  0  0  0  0
  1  4  1  0  0  0  0
  2  5  1  0  0  0  0
  2  6  1  0  0  0  0
  3  7  2  0  0  0  0
  3  8  1  0  0  0  0
  4  9  2  0  0  0  0
  4 24  1  0  0  0  0
  5 10  1  0  0  0  0
  5 11  2  0  0  0  0
  5 12  2  0  0  0  0
  6 13  2  0  0  0  0
  6 25  1  0  0  0  0
  7 14  1  0  0  0  0
  7 10  1  0  0  0  0
  8 26  1  0  0  0  0
  9 13  1  0  0  0  0
  9 27  1  0  0  0  0
 10 15  1  0  0  0  0
 13 28  1  0  0  0  0
 14 16  1  0  0  0  0
 14 17  2  0  0  0  0
 15 29  1  0  0  0  0
 15 30  1  0  0  0  0
 15 31  1  0  0  0  0
 16 18  1  0  0  0  0
 16 32  1  0  0  0  0
 18 19  2  0  0  0  0
 18 20  1  0  0  0  0
 19 21  1  0  0  0  0
 20 22  1  0  0  0  0
 21 22  2  0  0  0  0
 21 33  1  0  0  0  0
 22 23  1  0  0  0  0
 23 34  1  0  0  0  0
 23 35  1  0  0  0  0
 23 36  1  0  0  0  0
M  END
>  <DRUGBANK_ID>
DB00814

>  <SECONDARY_ACCESSION_NUMBERS>
APRD00529

>  <COMMON_NAME>
Meloxicam

>  <CAS_NUMBER>
71125-38-7

>  <UNII>
VG2QF83CGL

>  <SYNONYMS>
MÃ©loxicam; Meloxicam; Meloxicamum

$$$$
