
 OpenBabel10282417243D

 60 63  0  0  0  0  0  0  0  0999 V2000
   -2.5844    0.5421    0.0043 C   0  0  0  0  0  0  0  0  0  0  0  0
   -1.2179   -0.0763   -0.0146 C   0  0  0  0  0  0  0  0  0  0  0  0
   -1.0945   -1.4746   -0.0428 C   0  0  0  0  0  0  0  0  0  0  0  0
    0.1652   -2.0859   -0.0439 C   0  0  0  0  0  0  0  0  0  0  0  0
    0.3043   -3.5879   -0.0169 C   0  0  0  0  0  0  0  0  0  0  0  0
    1.1488   -4.0331   -1.1182 N   0  0  0  0  0  0  0  0  0  0  0  0
    2.2051   -4.8600   -0.9122 C   0  0  0  0  0  0  0  0  0  0  0  0
    2.4664   -5.9310   -0.0561 C   0  0  0  0  0  0  0  0  0  0  0  0
    1.4796   -6.5242    0.8428 C   0  0  0  0  0  0  0  0  0  0  0  0
    1.8373   -7.5357    1.6805 N   0  0  0  0  0  0  0  0  0  0  0  0
    0.2964   -6.1749    0.9129 O   0  0  0  0  0  0  0  0  0  0  0  0
    3.8394   -6.2679   -0.3499 C   0  0  0  0  0  0  0  0  0  0  0  0
    4.5314   -7.3066    0.1828 N   0  0  0  0  0  0  0  0  0  0  0  0
    5.8980   -7.6176    0.0355 C   0  0  0  0  0  0  0  0  0  0  0  0
    6.9013   -6.6867    0.2967 C   0  0  0  0  0  0  0  0  0  0  0  0
    8.2541   -7.0442    0.1835 C   0  0  0  0  0  0  0  0  0  0  0  0
    8.6364   -8.3343   -0.2042 C   0  0  0  0  0  0  0  0  0  0  0  0
    7.6171   -9.2750   -0.3940 C   0  0  0  0  0  0  0  0  0  0  0  0
    6.2668   -8.9235   -0.2919 C   0  0  0  0  0  0  0  0  0  0  0  0
    9.9476   -8.6870   -0.4225 N   0  0  0  0  0  0  0  0  0  0  0  0
   11.0119   -8.4632    0.5537 C   0  0  0  0  0  0  0  0  0  0  0  0
   12.1156   -7.5837   -0.0501 C   0  0  0  0  0  0  0  0  0  0  0  0
   12.6082   -8.1253   -1.2894 O   0  0  0  0  0  0  0  0  0  0  0  0
   11.5359   -8.2181   -2.2461 C   0  0  0  0  0  0  0  0  0  0  0  0
   10.4076   -9.1416   -1.7435 C   0  0  0  0  0  0  0  0  0  0  0  0
    4.3552   -5.4599   -1.2831 N   0  0  0  0  0  0  0  0  0  0  0  0
    3.3484   -4.6614   -1.6315 N   0  0  0  0  0  0  0  0  0  0  0  0
    1.3117   -1.2823   -0.0005 C   0  0  0  0  0  0  0  0  0  0  0  0
    1.2161    0.1116   -0.0004 C   0  0  0  0  0  0  0  0  0  0  0  0
    2.4657    0.9399   -0.0204 C   0  0  0  0  0  0  0  0  0  0  0  0
   -0.0519    0.7034   -0.0018 C   0  0  0  0  0  0  0  0  0  0  0  0
   -0.1018    2.0717    0.0071 O   0  0  0  0  0  0  0  0  0  0  0  0
   -2.7145    1.1314    0.9180 H   0  0  0  0  0  0  0  0  0  0  0  0
   -2.7136    1.1887   -0.8694 H   0  0  0  0  0  0  0  0  0  0  0  0
   -3.3752   -0.2140   -0.0207 H   0  0  0  0  0  0  0  0  0  0  0  0
   -1.9877   -2.0971   -0.0544 H   0  0  0  0  0  0  0  0  0  0  0  0
    0.7465   -3.8295    0.9564 H   0  0  0  0  0  0  0  0  0  0  0  0
   -0.6764   -4.0700   -0.0860 H   0  0  0  0  0  0  0  0  0  0  0  0
    0.8174   -3.7746   -2.0456 H   0  0  0  0  0  0  0  0  0  0  0  0
    1.0982   -7.8924    2.2705 H   0  0  0  0  0  0  0  0  0  0  0  0
    2.7223   -7.9873    1.7423 H   0  0  0  0  0  0  0  0  0  0  0  0
    4.1618   -7.8668    0.9242 H   0  0  0  0  0  0  0  0  0  0  0  0
    6.6300   -5.6725    0.5794 H   0  0  0  0  0  0  0  0  0  0  0  0
    9.0018   -6.2776    0.3614 H   0  0  0  0  0  0  0  0  0  0  0  0
    7.8773  -10.3087   -0.6056 H   0  0  0  0  0  0  0  0  0  0  0  0
    5.5059   -9.6679   -0.5116 H   0  0  0  0  0  0  0  0  0  0  0  0
   11.4380   -9.4473    0.7877 H   0  0  0  0  0  0  0  0  0  0  0  0
   10.6408   -8.0347    1.4897 H   0  0  0  0  0  0  0  0  0  0  0  0
   11.7540   -6.5651   -0.2299 H   0  0  0  0  0  0  0  0  0  0  0  0
   12.9614   -7.5249    0.6421 H   0  0  0  0  0  0  0  0  0  0  0  0
   11.9594   -8.6099   -3.1770 H   0  0  0  0  0  0  0  0  0  0  0  0
   11.1604   -7.2082   -2.4500 H   0  0  0  0  0  0  0  0  0  0  0  0
   10.8062  -10.1567   -1.6293 H   0  0  0  0  0  0  0  0  0  0  0  0
    9.6026   -9.1744   -2.4863 H   0  0  0  0  0  0  0  0  0  0  0  0
    3.5249   -3.9455   -2.3262 H   0  0  0  0  0  0  0  0  0  0  0  0
    2.2902   -1.7593    0.0304 H   0  0  0  0  0  0  0  0  0  0  0  0
    2.4949    1.5457   -0.9315 H   0  0  0  0  0  0  0  0  0  0  0  0
    2.5111    1.5898    0.8583 H   0  0  0  0  0  0  0  0  0  0  0  0
    3.3603    0.3078   -0.0157 H   0  0  0  0  0  0  0  0  0  0  0  0
   -1.0261    2.3619    0.0073 H   0  0  0  0  0  0  0  0  0  0  0  0
  1  2  1  0  0  0  0
  1 33  1  0  0  0  0
  1 34  1  0  0  0  0
  1 35  1  0  0  0  0
  2  3  2  0  0  0  0
  2 31  1  0  0  0  0
  3  4  1  0  0  0  0
  3 36  1  0  0  0  0
  4  5  1  0  0  0  0
  4 28  2  0  0  0  0
  5  6  1  0  0  0  0
  5 37  1  0  0  0  0
  5 38  1  0  0  0  0
  6  7  1  0  0  0  0
  6 39  1  0  0  0  0
  7  8  2  0  0  0  0
  7 27  1  0  0  0  0
  8  9  1  0  0  0  0
  8 12  1  0  0  0  0
  9 10  1  0  0  0  0
  9 11  2  0  0  0  0
 10 40  1  0  0  0  0
 10 41  1  0  0  0  0
 12 13  1  0  0  0  0
 12 26  2  0  0  0  0
 13 14  1  0  0  0  0
 13 42  1  0  0  0  0
 14 15  2  0  0  0  0
 14 19  1  0  0  0  0
 15 16  1  0  0  0  0
 15 43  1  0  0  0  0
 16 17  2  0  0  0  0
 16 44  1  0  0  0  0
 17 18  1  0  0  0  0
 17 20  1  0  0  0  0
 18 19  2  0  0  0  0
 18 45  1  0  0  0  0
 19 46  1  0  0  0  0
 20 21  1  0  0  0  0
 20 25  1  0  0  0  0
 21 22  1  0  0  0  0
 21 47  1  0  0  0  0
 21 48  1  0  0  0  0
 22 23  1  0  0  0  0
 22 49  1  0  0  0  0
 22 50  1  0  0  0  0
 23 24  1  0  0  0  0
 24 25  1  0  0  0  0
 24 51  1  0  0  0  0
 24 52  1  0  0  0  0
 25 53  1  0  0  0  0
 25 54  1  0  0  0  0
 26 27  1  0  0  0  0
 27 55  1  0  0  0  0
 28 29  1  0  0  0  0
 28 56  1  0  0  0  0
 29 30  1  0  0  0  0
 29 31  2  0  0  0  0
 30 57  1  0  0  0  0
 30 58  1  0  0  0  0
 30 59  1  0  0  0  0
 31 32  1  0  0  0  0
 32 60  1  0  0  0  0
M  END
>  <DRUGBANK_ID>
DB18063

>  <COMMON_NAME>
MG-S-2525

>  <UNII>
I45A327R6A

>  <SYNONYMS>
5-(3,5-Dimethyl-4-hydroxybenzylamino)-3-(4-morpholin-4-yl-phenylamino)-1H-pyrazole-4-carboxylic acid amide

$$$$
