
 OpenBabel10282417183D

 35 35  0  0  0  0  0  0  0  0999 V2000
    3.7801    3.8513   -8.7944 S   0  0  0  0  0  0  0  0  0  0  0  0
    3.2250    2.9724   -9.8148 O   0  0  0  0  0  0  0  0  0  0  0  0
    5.0945    3.6202   -8.2427 O   0  0  0  0  0  0  0  0  0  0  0  0
    0.6906    4.3694   -5.4708 C   0  0  0  0  0  0  0  0  0  0  0  0
    2.0028    4.8780   -5.3330 C   0  0  0  0  0  0  0  0  0  0  0  0
    2.9781    4.6137   -6.2941 C   0  0  0  0  0  0  0  0  0  0  0  0
    2.6198    3.9271   -7.4530 C   0  0  0  0  0  0  0  0  0  0  0  0
    1.3338    3.4105   -7.6120 C   0  0  0  0  0  0  0  0  0  0  0  0
    0.3593    3.6713   -6.6452 C   0  0  0  0  0  0  0  0  0  0  0  0
   -0.1900    4.3382   -4.2269 C   0  0  2  0  0  0  0  0  0  0  0  0
    0.2181    3.2296   -3.1711 C   0  0  2  0  0  0  0  0  0  0  0  0
    0.0123    3.7369   -1.7612 N   0  0  0  0  0  0  0  0  0  0  0  0
    1.6480    2.6728   -3.3629 C   0  0  0  0  0  0  0  0  0  0  0  0
    1.9312    2.2960   -4.6279 F   0  0  0  0  0  0  0  0  0  0  0  0
    0.9703    3.5968   -0.7529 C   0  0  0  0  0  0  0  0  0  0  0  0
    0.7201    4.2491    0.5985 C   0  0  0  0  0  0  0  0  0  0  0  0
    2.0307    2.9934   -0.9280 O   0  0  0  0  0  0  0  0  0  0  0  0
    0.9719    3.0029    1.8480 Cl  0  0  0  0  0  0  0  0  0  0  0  0
    1.9142    5.5609    0.7867 Cl  0  0  0  0  0  0  0  0  0  0  0  0
   -1.5788    4.1798   -4.5633 O   0  0  0  0  0  0  0  0  0  0  0  0
    3.7121    5.5168   -9.4245 C   0  0  0  0  0  0  0  0  0  0  0  0
    2.3111    5.3515   -4.4009 H   0  0  0  0  0  0  0  0  0  0  0  0
    4.0142    4.8871   -6.1045 H   0  0  0  0  0  0  0  0  0  0  0  0
    1.0884    2.7806   -8.4651 H   0  0  0  0  0  0  0  0  0  0  0  0
   -0.6366    3.2703   -6.8072 H   0  0  0  0  0  0  0  0  0  0  0  0
   -0.1370    5.3275   -3.7555 H   0  0  0  0  0  0  0  0  0  0  0  0
   -0.4883    2.3940   -3.2818 H   0  0  0  0  0  0  0  0  0  0  0  0
   -0.9086    4.1084   -1.5429 H   0  0  0  0  0  0  0  0  0  0  0  0
    2.3756    3.4348   -3.0597 H   0  0  0  0  0  0  0  0  0  0  0  0
    1.7726    1.7620   -2.7776 H   0  0  0  0  0  0  0  0  0  0  0  0
   -0.2831    4.6612    0.6944 H   0  0  0  0  0  0  0  0  0  0  0  0
   -1.6772    3.3246   -5.0177 H   0  0  0  0  0  0  0  0  0  0  0  0
    4.3849    5.5899  -10.2804 H   0  0  0  0  0  0  0  0  0  0  0  0
    2.6898    5.7424   -9.7368 H   0  0  0  0  0  0  0  0  0  0  0  0
    4.0335    6.2105   -8.6440 H   0  0  0  0  0  0  0  0  0  0  0  0
  1 21  1  0  0  0  0
  2  1  2  0  0  0  0
  3  1  2  0  0  0  0
  4  5  1  0  0  0  0
  5  6  2  0  0  0  0
  5 22  1  0  0  0  0
  6  7  1  0  0  0  0
  6 23  1  0  0  0  0
  7  8  2  0  0  0  0
  7  1  1  0  0  0  0
  8  9  1  0  0  0  0
  8 24  1  0  0  0  0
  9  4  2  0  0  0  0
  9 25  1  0  0  0  0
 10 20  1  0  0  0  0
 10 26  1  1  0  0  0
 10 11  1  0  0  0  0
 10  4  1  0  0  0  0
 11 27  1  6  0  0  0
 11 13  1  0  0  0  0
 11 12  1  0  0  0  0
 12 15  1  0  0  0  0
 12 28  1  0  0  0  0
 13 14  1  0  0  0  0
 13 29  1  0  0  0  0
 13 30  1  0  0  0  0
 15 16  1  0  0  0  0
 15 17  2  0  0  0  0
 16 18  1  0  0  0  0
 16 19  1  0  0  0  0
 16 31  1  0  0  0  0
 20 32  1  0  0  0  0
 21 33  1  0  0  0  0
 21 34  1  0  0  0  0
 21 35  1  0  0  0  0
M  END
>  <DRUGBANK_ID>
DB11413

>  <COMMON_NAME>
Florfenicol

>  <CAS_NUMBER>
73231-34-2

>  <UNII>
9J97307Y1H

>  <SYNONYMS>
(-)-Florfenicol; D-threo-2,2-Dichloro-N-(alpha-(fluoromethyl)-beta-hydroxy-p-(methylsulfonyl)phenethyl)acetamide; Florfenicol

$$$$
