
 OpenBabel10282417193D

159159  0  0  0  0  0  0  0  0999 V2000
    1.0138    0.0382   -0.0716 O   0  0  0  0  0  0  0  0  0  0  0  0
    0.4807   -1.0679   -0.8018 C   0  0  2  0  0  0  0  0  0  0  0  0
   -0.6148   -1.6821    0.0982 C   0  0  1  0  0  0  0  0  0  0  0  0
    1.4426   -2.0426   -1.2239 O   0  0  0  0  0  0  0  0  0  0  0  0
    0.0736   -2.4108    1.2653 C   0  0  2  0  0  0  0  0  0  0  0  0
    2.0847   -2.7794   -0.1673 C   0  0  1  0  0  0  0  0  0  0  0  0
    1.0795   -3.4578    0.7434 C   0  0  2  0  0  0  0  0  0  0  0  0
   -1.5008   -0.6663    0.5905 O   0  0  0  0  0  0  0  0  0  0  0  0
   -0.8798   -3.0393    2.1198 O   0  0  0  0  0  0  0  0  0  0  0  0
    0.3868   -4.4840    0.0332 O   0  0  0  0  0  0  0  0  0  0  0  0
    3.1889   -3.6420   -0.7684 C   0  0  0  0  0  0  0  0  0  0  0  0
    4.0533   -2.8123   -1.5608 O   0  0  0  0  0  0  0  0  0  0  0  0
    8.9543    0.4600    9.3610 C   0  0  0  0  0  0  0  0  0  0  0  0
    8.4355   -0.7275    8.5452 C   0  0  0  0  0  0  0  0  0  0  0  0
   10.4824   -0.9837   11.4683 C   0  0  0  0  0  0  0  0  0  0  0  0
    4.3573   -0.3047    2.9210 C   0  0  0  0  0  0  0  0  0  0  0  0
    4.9701    0.8808    3.6705 C   0  0  0  0  0  0  0  0  0  0  0  0
    4.4869    0.8772    5.1166 C   0  0  0  0  0  0  0  0  0  0  0  0
    4.9119   -0.4545    5.7373 C   0  0  0  0  0  0  0  0  0  0  0  0
    6.4419   -0.4978    5.7106 C   0  0  0  0  0  0  0  0  0  0  0  0
    6.9625    0.7015    6.5094 C   0  0  0  0  0  0  0  0  0  0  0  0
    6.4166    0.6003    7.9368 C   0  0  0  0  0  0  0  0  0  0  0  0
    6.9043   -0.7152    8.5491 C   0  0  0  0  0  0  0  0  0  0  0  0
    8.4483    0.3588   10.8038 C   0  0  0  0  0  0  0  0  0  0  0  0
    8.9542   -0.9293   11.4619 C   0  0  0  0  0  0  0  0  0  0  0  0
    2.8358   -0.2186    2.7853 C   0  0  2  0  0  0  0  0  0  0  0  0
    2.2980    1.0985    2.1603 C   0  0  2  0  0  0  0  0  0  0  0  0
    2.8278    1.3854    0.7169 C   0  0  2  0  0  0  0  0  0  0  0  0
    2.3877    0.2907   -0.2311 C   0  0  0  0  0  0  0  0  0  0  0  0
   11.0493    0.1938   12.2443 C   0  0  0  0  0  0  0  0  0  0  0  0
    2.5370    2.2120    3.0306 O   0  0  0  0  0  0  0  0  0  0  0  0
    4.2890    1.4387    0.6506 N   0  0  0  0  0  0  0  0  0  0  0  0
    4.9721    2.5503    0.2819 C   0  0  0  0  0  0  0  0  0  0  0  0
    6.4791    2.3299    0.2296 C   0  0  0  0  0  0  0  0  0  0  0  0
   14.6846   12.7493   -4.6167 C   0  0  0  0  0  0  0  0  0  0  0  0
   15.1940   12.8684   -6.0560 C   0  0  0  0  0  0  0  0  0  0  0  0
   14.6805   14.1739   -6.6709 C   0  0  0  0  0  0  0  0  0  0  0  0
   15.1877   15.3620   -5.8485 C   0  0  0  0  0  0  0  0  0  0  0  0
   16.7191   15.3683   -5.8413 C   0  0  0  0  0  0  0  0  0  0  0  0
   17.2509   15.4891   -7.2738 C   0  0  0  0  0  0  0  0  0  0  0  0
   16.7811   16.7985   -7.9173 C   0  0  0  0  0  0  0  0  0  0  0  0
   17.2532   18.0117   -7.1149 C   0  0  0  0  0  0  0  0  0  0  0  0
   18.7714   18.0431   -7.0471 C   0  0  0  0  0  0  0  0  0  0  0  0
   11.1259   10.1564   -3.4051 C   0  0  0  0  0  0  0  0  0  0  0  0
   10.6190    8.9759   -4.2380 C   0  0  0  0  0  0  0  0  0  0  0  0
   11.1366    7.6704   -3.6278 C   0  0  0  0  0  0  0  0  0  0  0  0
   10.6302    7.5523   -2.1875 C   0  0  0  0  0  0  0  0  0  0  0  0
    9.0991    7.5577   -2.1895 C   0  0  0  0  0  0  0  0  0  0  0  0
    8.5922    6.3768   -3.0220 C   0  0  0  0  0  0  0  0  0  0  0  0
    9.1116    5.0696   -2.4150 C   0  0  0  0  0  0  0  0  0  0  0  0
    8.6023    4.9368   -0.9779 C   0  0  0  0  0  0  0  0  0  0  0  0
    7.0727    4.9419   -0.9799 C   0  0  0  0  0  0  0  0  0  0  0  0
    6.5541    3.7719   -1.8266 C   0  0  0  0  0  0  0  0  0  0  0  0
    6.9761    2.4384   -1.2068 C   0  0  0  0  0  0  0  0  0  0  0  0
    4.4023    3.5896    0.0293 O   0  0  0  0  0  0  0  0  0  0  0  0
    2.1872   -0.5115    4.0242 O   0  0  0  0  0  0  0  0  0  0  0  0
   12.6571   10.1495   -3.4018 C   0  0  0  0  0  0  0  0  0  0  0  0
   13.1640   10.2675   -4.8418 C   0  0  0  0  0  0  0  0  0  0  0  0
   12.6467   11.5729   -5.4524 C   0  0  0  0  0  0  0  0  0  0  0  0
   13.1534   12.7541   -4.6201 C   0  0  0  0  0  0  0  0  0  0  0  0
    0.0107   -0.6493   -1.7006 H   0  0  0  0  0  0  0  0  0  0  0  0
   -1.2310   -2.3880   -0.4667 H   0  0  0  0  0  0  0  0  0  0  0  0
    0.5751   -1.6672    1.8900 H   0  0  0  0  0  0  0  0  0  0  0  0
    2.6368   -2.1356    0.4941 H   0  0  0  0  0  0  0  0  0  0  0  0
    1.6017   -3.9207    1.5880 H   0  0  0  0  0  0  0  0  0  0  0  0
   -0.9554   -0.0498    1.1164 H   0  0  0  0  0  0  0  0  0  0  0  0
   -1.2967   -3.7499    1.6023 H   0  0  0  0  0  0  0  0  0  0  0  0
    0.1132   -4.1191   -0.8280 H   0  0  0  0  0  0  0  0  0  0  0  0
    3.8024   -4.0616    0.0343 H   0  0  0  0  0  0  0  0  0  0  0  0
    2.8057   -4.4422   -1.4016 H   0  0  0  0  0  0  0  0  0  0  0  0
    3.4998   -2.4493   -2.2793 H   0  0  0  0  0  0  0  0  0  0  0  0
   10.0444    0.4995    9.3034 H   0  0  0  0  0  0  0  0  0  0  0  0
    8.6492    1.4202    8.9319 H   0  0  0  0  0  0  0  0  0  0  0  0
    8.7999   -1.6857    8.9208 H   0  0  0  0  0  0  0  0  0  0  0  0
    8.8502   -0.6879    7.5329 H   0  0  0  0  0  0  0  0  0  0  0  0
   10.8148   -1.9270   11.9093 H   0  0  0  0  0  0  0  0  0  0  0  0
   10.8848   -0.9812   10.4480 H   0  0  0  0  0  0  0  0  0  0  0  0
    4.6275   -1.2582    3.3800 H   0  0  0  0  0  0  0  0  0  0  0  0
    4.8438   -0.4433    1.9622 H   0  0  0  0  0  0  0  0  0  0  0  0
    6.0591    0.8249    3.5930 H   0  0  0  0  0  0  0  0  0  0  0  0
    4.8047    1.8536    3.2185 H   0  0  0  0  0  0  0  0  0  0  0  0
    4.8741    1.7526    5.6418 H   0  0  0  0  0  0  0  0  0  0  0  0
    3.4224    1.0443    5.2406 H   0  0  0  0  0  0  0  0  0  0  0  0
    4.4831   -0.5683    6.7347 H   0  0  0  0  0  0  0  0  0  0  0  0
    4.5049   -1.3307    5.2300 H   0  0  0  0  0  0  0  0  0  0  0  0
    6.7970   -1.4601    6.0835 H   0  0  0  0  0  0  0  0  0  0  0  0
    6.8590   -0.4809    4.7010 H   0  0  0  0  0  0  0  0  0  0  0  0
    8.0516    0.7397    6.4597 H   0  0  0  0  0  0  0  0  0  0  0  0
    6.6908    1.6671    6.0757 H   0  0  0  0  0  0  0  0  0  0  0  0
    6.7131    1.4787    8.5132 H   0  0  0  0  0  0  0  0  0  0  0  0
    5.3246    0.6484    7.9838 H   0  0  0  0  0  0  0  0  0  0  0  0
    6.4819   -0.8403    9.5480 H   0  0  0  0  0  0  0  0  0  0  0  0
    6.5259   -1.5929    8.0168 H   0  0  0  0  0  0  0  0  0  0  0  0
    8.7511    1.2461   11.3640 H   0  0  0  0  0  0  0  0  0  0  0  0
    7.3546    0.3897   10.8536 H   0  0  0  0  0  0  0  0  0  0  0  0
    8.5637   -0.9981   12.4812 H   0  0  0  0  0  0  0  0  0  0  0  0
    8.5608   -1.8143   10.9463 H   0  0  0  0  0  0  0  0  0  0  0  0
    2.5496   -1.0624    2.1718 H   0  0  0  0  0  0  0  0  0  0  0  0
    1.2050    1.0268    2.1443 H   0  0  0  0  0  0  0  0  0  0  0  0
    2.4099    2.3399    0.3875 H   0  0  0  0  0  0  0  0  0  0  0  0
    2.9746   -0.5378    0.1226 H   0  0  0  0  0  0  0  0  0  0  0  0
    2.6875    0.4199   -1.2725 H   0  0  0  0  0  0  0  0  0  0  0  0
   10.6765    0.1726   13.2724 H   0  0  0  0  0  0  0  0  0  0  0  0
   12.1390    0.1640   12.2524 H   0  0  0  0  0  0  0  0  0  0  0  0
   10.7638    1.1546   11.8034 H   0  0  0  0  0  0  0  0  0  0  0  0
    3.2879    2.7114    2.6572 H   0  0  0  0  0  0  0  0  0  0  0  0
    4.8161    0.5807    0.5683 H   0  0  0  0  0  0  0  0  0  0  0  0
    6.9341    3.0709    0.8944 H   0  0  0  0  0  0  0  0  0  0  0  0
    6.7809    1.3622    0.6458 H   0  0  0  0  0  0  0  0  0  0  0  0
   15.0556   13.5509   -3.9730 H   0  0  0  0  0  0  0  0  0  0  0  0
   15.0997   11.8515   -4.1507 H   0  0  0  0  0  0  0  0  0  0  0  0
   16.2847   12.7999   -6.0690 H   0  0  0  0  0  0  0  0  0  0  0  0
   14.8897   12.0222   -6.6783 H   0  0  0  0  0  0  0  0  0  0  0  0
   14.9841   14.2336   -7.7189 H   0  0  0  0  0  0  0  0  0  0  0  0
   13.5887   14.2047   -6.7299 H   0  0  0  0  0  0  0  0  0  0  0  0
   14.7724   16.2915   -6.2459 H   0  0  0  0  0  0  0  0  0  0  0  0
   14.8144   15.3406   -4.8198 H   0  0  0  0  0  0  0  0  0  0  0  0
   17.0819   16.1727   -5.1966 H   0  0  0  0  0  0  0  0  0  0  0  0
   17.1297   14.4683   -5.3724 H   0  0  0  0  0  0  0  0  0  0  0  0
   18.3406   15.4098   -7.2705 H   0  0  0  0  0  0  0  0  0  0  0  0
   16.9369   14.6434   -7.8947 H   0  0  0  0  0  0  0  0  0  0  0  0
   17.1487   16.8540   -8.9462 H   0  0  0  0  0  0  0  0  0  0  0  0
   15.6877   16.8222   -8.0035 H   0  0  0  0  0  0  0  0  0  0  0  0
   16.8734   18.9276   -7.5755 H   0  0  0  0  0  0  0  0  0  0  0  0
   16.8387   18.0022   -6.0997 H   0  0  0  0  0  0  0  0  0  0  0  0
   19.1858   18.0889   -8.0584 H   0  0  0  0  0  0  0  0  0  0  0  0
   19.1160   18.9044   -6.4745 H   0  0  0  0  0  0  0  0  0  0  0  0
   19.1808   17.1541   -6.5562 H   0  0  0  0  0  0  0  0  0  0  0  0
   10.7103   11.0893   -3.7946 H   0  0  0  0  0  0  0  0  0  0  0  0
   10.7538   10.1367   -2.3775 H   0  0  0  0  0  0  0  0  0  0  0  0
   10.9222    9.0398   -5.2863 H   0  0  0  0  0  0  0  0  0  0  0  0
    9.5282    9.0080   -4.2996 H   0  0  0  0  0  0  0  0  0  0  0  0
   12.2276    7.6027   -3.6428 H   0  0  0  0  0  0  0  0  0  0  0  0
   10.8335    6.8252   -4.2511 H   0  0  0  0  0  0  0  0  0  0  0  0
   11.0021    8.3538   -1.5440 H   0  0  0  0  0  0  0  0  0  0  0  0
   11.0465    6.6555   -1.7216 H   0  0  0  0  0  0  0  0  0  0  0  0
    8.6832    8.4907   -2.5793 H   0  0  0  0  0  0  0  0  0  0  0  0
    8.7276    7.5367   -1.1617 H   0  0  0  0  0  0  0  0  0  0  0  0
    8.8947    6.4426   -4.0706 H   0  0  0  0  0  0  0  0  0  0  0  0
    7.5013    6.4092   -3.0830 H   0  0  0  0  0  0  0  0  0  0  0  0
   10.2028    5.0060   -2.4278 H   0  0  0  0  0  0  0  0  0  0  0  0
    8.8137    4.2264   -3.0425 H   0  0  0  0  0  0  0  0  0  0  0  0
    8.9730    5.7381   -0.3309 H   0  0  0  0  0  0  0  0  0  0  0  0
    9.0119    4.0327   -0.5199 H   0  0  0  0  0  0  0  0  0  0  0  0
    6.6607    5.8810   -1.3612 H   0  0  0  0  0  0  0  0  0  0  0  0
    6.7091    4.9181    0.0507 H   0  0  0  0  0  0  0  0  0  0  0  0
    6.8977    3.8238   -2.8629 H   0  0  0  0  0  0  0  0  0  0  0  0
    5.4705    3.8382   -1.9373 H   0  0  0  0  0  0  0  0  0  0  0  0
    8.0690    2.3318   -1.2204 H   0  0  0  0  0  0  0  0  0  0  0  0
    6.5994    1.6116   -1.8163 H   0  0  0  0  0  0  0  0  0  0  0  0
    1.9843    0.3404    4.4532 H   0  0  0  0  0  0  0  0  0  0  0  0
   13.0291   10.9506   -2.7579 H   0  0  0  0  0  0  0  0  0  0  0  0
   13.0727    9.2523   -2.9358 H   0  0  0  0  0  0  0  0  0  0  0  0
   14.2549   10.1996   -4.8566 H   0  0  0  0  0  0  0  0  0  0  0  0
   12.8607    9.4221   -5.4650 H   0  0  0  0  0  0  0  0  0  0  0  0
   12.9498   11.6365   -6.5006 H   0  0  0  0  0  0  0  0  0  0  0  0
   11.5557   11.6048   -5.5138 H   0  0  0  0  0  0  0  0  0  0  0  0
   12.7373   13.6867   -5.0099 H   0  0  0  0  0  0  0  0  0  0  0  0
   12.7812   12.7338   -3.5923 H   0  0  0  0  0  0  0  0  0  0  0  0
  2  3  1  0  0  0  0
  2  4  1  0  0  0  0
  2  1  1  0  0  0  0
  2 61  1  6  0  0  0
  3  5  1  0  0  0  0
  3  8  1  0  0  0  0
  3 62  1  6  0  0  0
  4  6  1  0  0  0  0
  5  7  1  0  0  0  0
  5  9  1  0  0  0  0
  5 63  1  1  0  0  0
  6  7  1  0  0  0  0
  6 11  1  0  0  0  0
  6 64  1  1  0  0  0
  7 10  1  0  0  0  0
  7 65  1  1  0  0  0
  8 66  1  0  0  0  0
  9 67  1  0  0  0  0
 10 68  1  0  0  0  0
 11 69  1  0  0  0  0
 11 70  1  0  0  0  0
 12 11  1  0  0  0  0
 12 71  1  0  0  0  0
 13 24  1  0  0  0  0
 13 72  1  0  0  0  0
 13 73  1  0  0  0  0
 14 13  1  0  0  0  0
 14 74  1  0  0  0  0
 14 75  1  0  0  0  0
 15 30  1  0  0  0  0
 15 76  1  0  0  0  0
 15 77  1  0  0  0  0
 16 17  1  0  0  0  0
 16 78  1  0  0  0  0
 16 79  1  0  0  0  0
 17 18  1  0  0  0  0
 17 80  1  0  0  0  0
 17 81  1  0  0  0  0
 18 19  1  0  0  0  0
 18 82  1  0  0  0  0
 18 83  1  0  0  0  0
 19 20  1  0  0  0  0
 19 84  1  0  0  0  0
 19 85  1  0  0  0  0
 20 21  1  0  0  0  0
 20 86  1  0  0  0  0
 20 87  1  0  0  0  0
 21 22  1  0  0  0  0
 21 88  1  0  0  0  0
 21 89  1  0  0  0  0
 22 23  1  0  0  0  0
 22 90  1  0  0  0  0
 22 91  1  0  0  0  0
 23 14  1  0  0  0  0
 23 92  1  0  0  0  0
 23 93  1  0  0  0  0
 24 25  1  0  0  0  0
 24 94  1  0  0  0  0
 24 95  1  0  0  0  0
 25 15  1  0  0  0  0
 25 96  1  0  0  0  0
 25 97  1  0  0  0  0
 26 16  1  0  0  0  0
 26 56  1  0  0  0  0
 26 98  1  6  0  0  0
 27 26  1  0  0  0  0
 27 31  1  0  0  0  0
 27 28  1  0  0  0  0
 27 99  1  6  0  0  0
 28 29  1  0  0  0  0
 28 32  1  0  0  0  0
 28100  1  6  0  0  0
 29  1  1  0  0  0  0
 29101  1  0  0  0  0
 29102  1  0  0  0  0
 30103  1  0  0  0  0
 30104  1  0  0  0  0
 30105  1  0  0  0  0
 31106  1  0  0  0  0
 32 33  1  0  0  0  0
 32107  1  0  0  0  0
 33 34  1  0  0  0  0
 33 55  2  0  0  0  0
 34108  1  0  0  0  0
 34109  1  0  0  0  0
 35 36  1  0  0  0  0
 35110  1  0  0  0  0
 35111  1  0  0  0  0
 36 37  1  0  0  0  0
 36112  1  0  0  0  0
 36113  1  0  0  0  0
 37 38  1  0  0  0  0
 37114  1  0  0  0  0
 37115  1  0  0  0  0
 38 39  1  0  0  0  0
 38116  1  0  0  0  0
 38117  1  0  0  0  0
 39 40  1  0  0  0  0
 39118  1  0  0  0  0
 39119  1  0  0  0  0
 40 41  1  0  0  0  0
 40120  1  0  0  0  0
 40121  1  0  0  0  0
 41 42  1  0  0  0  0
 41122  1  0  0  0  0
 41123  1  0  0  0  0
 42 43  1  0  0  0  0
 42124  1  0  0  0  0
 42125  1  0  0  0  0
 43126  1  0  0  0  0
 43127  1  0  0  0  0
 43128  1  0  0  0  0
 44 45  1  0  0  0  0
 44129  1  0  0  0  0
 44130  1  0  0  0  0
 45 46  1  0  0  0  0
 45131  1  0  0  0  0
 45132  1  0  0  0  0
 46 47  1  0  0  0  0
 46133  1  0  0  0  0
 46134  1  0  0  0  0
 47 48  1  0  0  0  0
 47135  1  0  0  0  0
 47136  1  0  0  0  0
 48 49  1  0  0  0  0
 48137  1  0  0  0  0
 48138  1  0  0  0  0
 49 50  1  0  0  0  0
 49139  1  0  0  0  0
 49140  1  0  0  0  0
 50 51  1  0  0  0  0
 50141  1  0  0  0  0
 50142  1  0  0  0  0
 51 52  1  0  0  0  0
 51143  1  0  0  0  0
 51144  1  0  0  0  0
 52 53  1  0  0  0  0
 52145  1  0  0  0  0
 52146  1  0  0  0  0
 53 54  1  0  0  0  0
 53147  1  0  0  0  0
 53148  1  0  0  0  0
 54 34  1  0  0  0  0
 54149  1  0  0  0  0
 54150  1  0  0  0  0
 56151  1  0  0  0  0
 57 44  1  0  0  0  0
 57 58  1  0  0  0  0
 57152  1  0  0  0  0
 57153  1  0  0  0  0
 58 59  1  0  0  0  0
 58154  1  0  0  0  0
 58155  1  0  0  0  0
 59 60  1  0  0  0  0
 59156  1  0  0  0  0
 59157  1  0  0  0  0
 60 35  1  0  0  0  0
 60158  1  0  0  0  0
 60159  1  0  0  0  0
M  END
>  <DRUGBANK_ID>
DB12232

>  <COMMON_NAME>
KRN-7000

>  <CAS_NUMBER>
158021-47-7

>  <UNII>
WX671898JF

>  <SYNONYMS>
1-O-(α-D-galactopyranosyl)-N-hexacosanoylphytosphingosine

$$$$
