
 OpenBabel10282417203D

 49 50  0  0  0  0  0  0  0  0999 V2000
   -0.8899   -0.8956    0.2122 C   0  0  0  0  0  0  0  0  0  0  0  0
   -0.4788   -0.2559    1.9657 C   0  0  0  0  0  0  0  0  0  0  0  0
    0.5731    1.2196    2.5443 C   0  0  0  0  0  0  0  0  0  0  0  0
   -0.0554    2.1739    2.8415 O   0  0  0  0  0  0  0  0  0  0  0  0
    2.4871    1.4091    2.4061 C   0  0  0  0  0  0  0  0  0  0  0  0
    3.2944    2.1749    1.1722 C   0  0  0  0  0  0  0  0  0  0  0  0
    3.7268    1.2632    0.0059 C   0  0  0  0  0  0  0  0  0  0  0  0
    4.0783   -0.1582    0.0898 N   0  0  0  0  0  0  0  0  0  0  0  0
    3.7187   -0.6875    1.4122 C   0  0  0  0  0  0  0  0  0  0  0  0
    3.3741    0.1411    2.6579 C   0  0  0  0  0  0  0  0  0  0  0  0
    3.5285   -1.0250   -1.1060 C   0  0  0  0  0  0  0  0  0  0  0  0
    2.0602   -1.3895   -1.7076 C   0  0  0  0  0  0  0  0  0  0  0  0
    1.1388   -0.3718   -2.1606 O   0  0  0  0  0  0  0  0  0  0  0  0
    1.1803    0.7898   -1.3800 C   0  0  0  0  0  0  0  0  0  0  0  0
    0.9059    0.5689    0.1111 C   0  0  0  0  0  0  0  0  0  0  0  0
    1.1966   -0.7634    0.8757 O   0  0  0  0  0  0  0  0  0  0  0  0
    2.7515    2.4790    3.4968 C   0  0  0  0  0  0  0  0  0  0  0  0
    2.2852    3.8030    3.3446 C   0  0  0  0  0  0  0  0  0  0  0  0
    2.3367    4.6796    4.4153 C   0  0  0  0  0  0  0  0  0  0  0  0
    2.8683    4.2401    5.6250 C   0  0  0  0  0  0  0  0  0  0  0  0
    3.3859    2.9561    5.7553 C   0  0  0  0  0  0  0  0  0  0  0  0
    3.4055    2.1121    4.6702 C   0  0  0  0  0  0  0  0  0  0  0  0
   -1.2658   -0.1233   -0.4906 H   0  0  0  0  0  0  0  0  0  0  0  0
   -0.9451   -1.9637   -0.0713 H   0  0  0  0  0  0  0  0  0  0  0  0
   -0.0181   -1.0109   -0.4527 H   0  0  0  0  0  0  0  0  0  0  0  0
   -1.4835   -0.0377    2.3279 H   0  0  0  0  0  0  0  0  0  0  0  0
   -0.0686   -1.0572    2.6056 H   0  0  0  0  0  0  0  0  0  0  0  0
    2.6300    2.9669    0.7645 H   0  0  0  0  0  0  0  0  0  0  0  0
    4.2207    2.6763    1.4739 H   0  0  0  0  0  0  0  0  0  0  0  0
    2.7421    1.1483   -0.1937 H   0  0  0  0  0  0  0  0  0  0  0  0
    3.9809    1.7553   -0.9412 H   0  0  0  0  0  0  0  0  0  0  0  0
    3.7989   -1.7688    1.5770 H   0  0  0  0  0  0  0  0  0  0  0  0
    2.7582   -0.6649    1.1747 H   0  0  0  0  0  0  0  0  0  0  0  0
    4.3646    0.3777    3.0418 H   0  0  0  0  0  0  0  0  0  0  0  0
    2.8047   -0.4581    3.3834 H   0  0  0  0  0  0  0  0  0  0  0  0
    4.0543   -0.6417   -1.9806 H   0  0  0  0  0  0  0  0  0  0  0  0
    3.9326   -2.0249   -0.8960 H   0  0  0  0  0  0  0  0  0  0  0  0
    2.1545   -2.0529   -2.5818 H   0  0  0  0  0  0  0  0  0  0  0  0
    1.5511   -2.0988   -1.0577 H   0  0  0  0  0  0  0  0  0  0  0  0
    2.1504    1.1391   -1.6798 H   0  0  0  0  0  0  0  0  0  0  0  0
    0.6303    1.7004   -1.6718 H   0  0  0  0  0  0  0  0  0  0  0  0
    1.4037    1.2580    0.7202 H   0  0  0  0  0  0  0  0  0  0  0  0
   -0.0670    1.0624    0.3663 H   0  0  0  0  0  0  0  0  0  0  0  0
    1.2325   -1.6878    0.5397 H   0  0  0  0  0  0  0  0  0  0  0  0
    1.8097    4.1395    2.4226 H   0  0  0  0  0  0  0  0  0  0  0  0
    1.8929    5.6667    4.3242 H   0  0  0  0  0  0  0  0  0  0  0  0
    2.8698    4.8949    6.4852 H   0  0  0  0  0  0  0  0  0  0  0  0
    3.7284    2.5672    6.7063 H   0  0  0  0  0  0  0  0  0  0  0  0
    3.8776    1.1455    4.7889 H   0  0  0  0  0  0  0  0  0  0  0  0
  1  2  1  0  0  0  0
  1 23  1  0  0  0  0
  1 24  1  0  0  0  0
  1 25  1  0  0  0  0
  2  3  1  0  0  0  0
  2 26  1  0  0  0  0
  2 27  1  0  0  0  0
  3  4  2  0  0  0  0
  3  5  1  0  0  0  0
  5  6  1  0  0  0  0
  5 10  1  0  0  0  0
  5 17  1  0  0  0  0
  6  7  1  0  0  0  0
  6 28  1  0  0  0  0
  6 29  1  0  0  0  0
  7  8  1  0  0  0  0
  7 30  1  0  0  0  0
  7 31  1  0  0  0  0
  8  9  1  0  0  0  0
  8 11  1  0  0  0  0
  9 10  1  0  0  0  0
  9 32  1  0  0  0  0
  9 33  1  0  0  0  0
 10 34  1  0  0  0  0
 10 35  1  0  0  0  0
 11 12  1  0  0  0  0
 11 36  1  0  0  0  0
 11 37  1  0  0  0  0
 12 13  1  0  0  0  0
 12 38  1  0  0  0  0
 12 39  1  0  0  0  0
 13 14  1  0  0  0  0
 14 15  1  0  0  0  0
 14 40  1  0  0  0  0
 14 41  1  0  0  0  0
 15 16  1  0  0  0  0
 15 42  1  0  0  0  0
 15 43  1  0  0  0  0
 16 44  1  0  0  0  0
 17 18  2  0  0  0  0
 17 22  1  0  0  0  0
 18 19  1  0  0  0  0
 18 45  1  0  0  0  0
 19 20  2  0  0  0  0
 19 46  1  0  0  0  0
 20 21  1  0  0  0  0
 20 47  1  0  0  0  0
 21 22  2  0  0  0  0
 21 48  1  0  0  0  0
 22 49  1  0  0  0  0
M  END
>  <DRUGBANK_ID>
DB13436

>  <COMMON_NAME>
Droxypropine

>  <CAS_NUMBER>
15599-26-5

>  <UNII>
94J1SMK20X

>  <SYNONYMS>
Droxypropine

$$$$
