
 OpenBabel10282417133D

 45 46  0  0  0  0  0  0  0  0999 V2000
    1.3497    0.1559    2.5943 O   0  0  0  0  0  0  0  0  0  0  0  0
    2.4150    0.3342   -0.3030 O   0  0  0  0  0  0  0  0  0  0  0  0
    0.8794   -0.5016   -2.0342 O   0  0  0  0  0  0  0  0  0  0  0  0
   -2.5243    1.0875   -0.6524 O   0  0  0  0  0  0  0  0  0  0  0  0
    1.2439    4.9170    0.9383 O   0  0  0  0  0  0  0  0  0  0  0  0
   -1.1984    3.2293   -4.7586 O   0  0  0  0  0  0  0  0  0  0  0  0
   -1.6330   -0.4716   -2.5499 O   0  0  0  0  0  0  0  0  0  0  0  0
    0.9095    7.2631   -4.7673 O   0  0  0  0  0  0  0  0  0  0  0  0
    1.2600    5.1170   -4.2573 O   0  0  0  0  0  0  0  0  0  0  0  0
    0.6107    2.9644   -0.1516 N   0  0  0  0  0  0  0  0  0  0  0  0
   -0.4322    1.3803   -1.5362 N   0  0  0  0  0  0  0  0  0  0  0  0
   -0.2687    4.6451   -2.3129 N   0  0  0  0  0  0  0  0  0  0  0  0
   -1.1363    1.2990   -3.7148 N   0  0  0  0  0  0  0  0  0  0  0  0
    0.7458    0.6723    1.3992 C   0  0  2  0  0  0  0  0  0  0  0  0
    1.2173   -0.2546    0.2904 C   0  0  1  0  0  0  0  0  0  0  0  0
    1.0045    2.1934    1.1388 C   0  0  0  0  0  0  0  0  0  0  0  0
    0.0844   -0.6821   -0.7154 C   0  0  1  0  0  0  0  0  0  0  0  0
    0.0904    2.5467   -1.4173 C   0  0  0  0  0  0  0  0  0  0  0  0
    0.8106    4.3423   -0.0417 C   0  0  0  0  0  0  0  0  0  0  0  0
    0.3476    5.1276   -1.2740 C   0  0  0  0  0  0  0  0  0  0  0  0
   -0.2808    3.3220   -2.4622 C   0  0  0  0  0  0  0  0  0  0  0  0
   -1.6893   -0.1107   -0.1720 C   0  0  0  0  0  0  0  0  0  0  0  0
    0.6595    6.5644   -1.3546 C   0  0  0  0  0  0  0  0  0  0  0  0
   -0.8825    2.6221   -3.7288 C   0  0  0  0  0  0  0  0  0  0  0  0
    1.6474    6.7726   -2.5058 C   0  0  0  0  0  0  0  0  0  0  0  0
   -1.1705    0.6636   -2.5616 C   0  0  0  0  0  0  0  0  0  0  0  0
    1.2247    6.2863   -3.8965 C   0  0  0  0  0  0  0  0  0  0  0  0
   -0.3806    1.1227   -0.5745 H   0  0  0  0  0  0  0  0  0  0  0  0
   -1.5966    0.7708   -4.4447 H   0  0  0  0  0  0  0  0  0  0  0  0
    1.3153    0.8131    3.3028 H   0  0  0  0  0  0  0  0  0  0  0  0
    2.3422    1.2936   -0.4358 H   0  0  0  0  0  0  0  0  0  0  0  0
    0.7144    0.2513   -2.6367 H   0  0  0  0  0  0  0  0  0  0  0  0
   -2.0525    1.9355   -0.7890 H   0  0  0  0  0  0  0  0  0  0  0  0
    1.0978    8.1697   -4.4751 H   0  0  0  0  0  0  0  0  0  0  0  0
   -0.2884    0.5733    1.6489 H   0  0  0  0  0  0  0  0  0  0  0  0
    1.5957   -1.2066    0.6662 H   0  0  0  0  0  0  0  0  0  0  0  0
    0.5565    2.7246    2.0004 H   0  0  0  0  0  0  0  0  0  0  0  0
    2.0791    2.3716    1.3180 H   0  0  0  0  0  0  0  0  0  0  0  0
   -0.0305   -1.7568   -0.8226 H   0  0  0  0  0  0  0  0  0  0  0  0
   -2.3973   -0.9174   -0.3033 H   0  0  0  0  0  0  0  0  0  0  0  0
   -1.7049    0.2240    0.8528 H   0  0  0  0  0  0  0  0  0  0  0  0
   -0.2947    7.0690   -1.5240 H   0  0  0  0  0  0  0  0  0  0  0  0
    1.0825    6.9024   -0.4065 H   0  0  0  0  0  0  0  0  0  0  0  0
    1.8844    7.8358   -2.5484 H   0  0  0  0  0  0  0  0  0  0  0  0
    2.5869    6.2470   -2.2855 H   0  0  0  0  0  0  0  0  0  0  0  0
  1 30  1  0  0  0  0
  2 31  1  0  0  0  0
  3 32  1  0  0  0  0
  4 22  1  0  0  0  0
  4 33  1  0  0  0  0
  5 19  2  0  0  0  0
  6 24  2  0  0  0  0
  7 26  2  0  0  0  0
  8 27  1  0  0  0  0
  8 34  1  0  0  0  0
  9 27  2  0  0  0  0
 10 16  1  0  0  0  0
 10 18  1  0  0  0  0
 10 19  1  0  0  0  0
 11 18  1  0  0  0  0
 11 26  1  0  0  0  0
 11 28  1  0  0  0  0
 12 20  2  0  0  0  0
 12 21  1  0  0  0  0
 13 24  1  0  0  0  0
 13 26  1  0  0  0  0
 13 29  1  0  0  0  0
 14 16  1  0  0  0  0
 14 35  1  1  0  0  0
 14 15  1  0  0  0  0
 14  1  1  0  0  0  0
 15 36  1  1  0  0  0
 15 17  1  0  0  0  0
 15  2  1  0  0  0  0
 16 37  1  0  0  0  0
 16 38  1  0  0  0  0
 17 39  1  1  0  0  0
 17 22  1  0  0  0  0
 17  3  1  0  0  0  0
 18 21  2  0  0  0  0
 19 20  1  0  0  0  0
 20 23  1  0  0  0  0
 21 24  1  0  0  0  0
 22 40  1  0  0  0  0
 22 41  1  0  0  0  0
 23 25  1  0  0  0  0
 23 42  1  0  0  0  0
 23 43  1  0  0  0  0
 25 27  1  0  0  0  0
 25 44  1  0  0  0  0
 25 45  1  0  0  0  0
M  END
>  <DRUGBANK_ID>
DB03883

>  <SECONDARY_ACCESSION_NUMBERS>
EXPT01023

>  <COMMON_NAME>
Carboxyethyllumazine

>  <CAS_NUMBER>
29161-67-9

$$$$
