
 OpenBabel10282417193D

 50 52  0  0  1  0  0  0  0  0999 V2000
   -1.8137   -3.8043    0.8929 C   0  0  0  0  0  0  0  0  0  0  0  0
   -1.2364   -3.7817    2.2611 C   0  0  0  0  0  0  0  0  0  0  0  0
   -1.9973   -3.8924    3.4360 C   0  0  0  0  0  0  0  0  0  0  0  0
   -1.3088   -4.3229    4.5426 C   0  0  0  0  0  0  0  0  0  0  0  0
    0.0759   -4.2841    4.6180 C   0  0  0  0  0  0  0  0  0  0  0  0
    0.8387   -4.0098    3.5180 C   0  0  0  0  0  0  0  0  0  0  0  0
    0.1828   -3.7952    2.3296 C   0  0  0  0  0  0  0  0  0  0  0  0
    0.9251   -3.5453    1.2403 F   0  0  0  0  0  0  0  0  0  0  0  0
   -3.3766   -3.5455    3.5982 N   0  0  0  0  0  0  0  0  0  0  0  0
   -4.1410   -3.3103    4.7307 C   0  0  0  0  0  0  0  0  0  0  0  0
   -5.3708   -3.3611    4.6232 O   0  0  0  0  0  0  0  0  0  0  0  0
   -3.6157   -2.9366    5.9637 N   0  0  0  0  0  0  0  0  0  0  0  0
   -2.3159   -2.4702    6.4003 C   0  0  0  0  0  0  0  0  0  0  0  0
   -1.6857   -3.1189    7.4715 C   0  0  0  0  0  0  0  0  0  0  0  0
   -0.2777   -2.9969    7.6257 C   0  0  0  0  0  0  0  0  0  0  0  0
    0.5225   -2.1592    6.7841 C   0  0  0  0  0  0  0  0  0  0  0  0
   -0.0835   -1.4857    5.7146 C   0  0  0  0  0  0  0  0  0  0  0  0
   -1.5002   -1.6723    5.5608 C   0  0  0  0  0  0  0  0  0  0  0  0
   -2.1163   -1.2893    4.4043 O   0  0  0  0  0  0  0  0  0  0  0  0
    0.9733   -0.6961    4.3500 S   0  0  0  0  0  0  0  0  0  0  0  0
    1.5457    0.5166    4.9451 O   0  0  0  0  0  0  0  0  0  0  0  0
    1.8908   -1.6295    3.7604 O   0  0  0  0  0  0  0  0  0  0  0  0
   -0.1925   -0.1747    3.0818 C   0  0  1  0  0  0  0  0  0  0  0  0
   -1.0463    0.8699    3.8038 C   0  0  0  0  0  0  0  0  0  0  0  0
   -2.1458    1.3893    2.9394 C   0  0  0  0  0  0  0  0  0  0  0  0
   -1.4652    2.0674    1.7747 C   0  0  0  0  0  0  0  0  0  0  0  0
   -0.6932    1.0913    0.9946 N   0  0  0  0  0  0  0  0  0  0  0  0
    0.3910    0.4702    1.8137 C   0  0  0  0  0  0  0  0  0  0  0  0
    2.2403   -2.3410    6.9252 Cl  0  0  0  0  0  0  0  0  0  0  0  0
   -1.4799   -2.9502    0.2992 H   0  0  0  0  0  0  0  0  0  0  0  0
   -1.4570   -4.7356    0.4349 H   0  0  0  0  0  0  0  0  0  0  0  0
   -2.9007   -3.8416    0.9179 H   0  0  0  0  0  0  0  0  0  0  0  0
   -1.8648   -4.5346    5.4377 H   0  0  0  0  0  0  0  0  0  0  0  0
    0.5555   -4.3016    5.5830 H   0  0  0  0  0  0  0  0  0  0  0  0
    1.9117   -3.8782    3.6367 H   0  0  0  0  0  0  0  0  0  0  0  0
   -3.9395   -3.5426    2.7521 H   0  0  0  0  0  0  0  0  0  0  0  0
   -4.3189   -3.0222    6.6970 H   0  0  0  0  0  0  0  0  0  0  0  0
   -2.1879   -3.9456    7.9839 H   0  0  0  0  0  0  0  0  0  0  0  0
    0.2252   -3.7467    8.2509 H   0  0  0  0  0  0  0  0  0  0  0  0
   -3.0592   -1.5075    4.4139 H   0  0  0  0  0  0  0  0  0  0  0  0
   -0.7218   -1.0657    2.7143 H   0  0  0  0  0  0  0  0  0  0  0  0
   -1.4814    0.5678    4.7487 H   0  0  0  0  0  0  0  0  0  0  0  0
   -0.3900    1.6716    4.1414 H   0  0  0  0  0  0  0  0  0  0  0  0
   -2.8302    0.5926    2.6152 H   0  0  0  0  0  0  0  0  0  0  0  0
   -2.7198    2.0891    3.5514 H   0  0  0  0  0  0  0  0  0  0  0  0
   -2.2251    2.5557    1.1637 H   0  0  0  0  0  0  0  0  0  0  0  0
   -0.7881    2.8416    2.1570 H   0  0  0  0  0  0  0  0  0  0  0  0
   -0.2823    1.5702    0.1925 H   0  0  0  0  0  0  0  0  0  0  0  0
    1.1325    1.2299    2.0724 H   0  0  0  0  0  0  0  0  0  0  0  0
    0.8992   -0.2659    1.1739 H   0  0  0  0  0  0  0  0  0  0  0  0
  1  2  1  0  0  0  0
  1 30  1  0  0  0  0
  1 31  1  0  0  0  0
  1 32  1  0  0  0  0
  2  3  2  0  0  0  0
  2  7  1  0  0  0  0
  3  4  1  0  0  0  0
  3  9  1  0  0  0  0
  4  5  2  0  0  0  0
  4 33  1  0  0  0  0
  5  6  1  0  0  0  0
  5 34  1  0  0  0  0
  6  7  2  0  0  0  0
  6 35  1  0  0  0  0
  7  8  1  0  0  0  0
  9 10  1  0  0  0  0
  9 36  1  0  0  0  0
 10 11  2  0  0  0  0
 10 12  1  0  0  0  0
 12 13  1  0  0  0  0
 12 37  1  0  0  0  0
 13 14  2  0  0  0  0
 13 18  1  0  0  0  0
 14 15  1  0  0  0  0
 14 38  1  0  0  0  0
 15 16  2  0  0  0  0
 15 39  1  0  0  0  0
 16 17  1  0  0  0  0
 16 29  1  0  0  0  0
 17 18  2  0  0  0  0
 17 20  1  0  0  0  0
 18 19  1  0  0  0  0
 19 40  1  0  0  0  0
 20 21  2  0  0  0  0
 20 22  2  0  0  0  0
 23 24  1  0  0  0  0
 23 28  1  0  0  0  0
 23 41  1  6  0  0  0
 23 20  1  0  0  0  0
 24 25  1  0  0  0  0
 24 42  1  0  0  0  0
 24 43  1  0  0  0  0
 25 26  1  0  0  0  0
 25 44  1  0  0  0  0
 25 45  1  0  0  0  0
 26 27  1  0  0  0  0
 26 46  1  0  0  0  0
 26 47  1  0  0  0  0
 27 28  1  0  0  0  0
 27 48  1  0  0  0  0
 28 49  1  0  0  0  0
 28 50  1  0  0  0  0
M  END
>  <DRUGBANK_ID>
DB11922

>  <COMMON_NAME>
Danirixin

>  <CAS_NUMBER>
954126-98-8

>  <UNII>
R318PGH5VP

>  <SYNONYMS>
Danirixin

$$$$
