
 OpenBabel10282417203D

 71 74  0  0  1  0  0  0  0  0999 V2000
    8.3036   -9.5888   -3.0138 C   0  0  0  0  0  0  0  0  0  0  0  0
    7.2002  -10.2843   -2.2606 C   0  0  0  0  0  0  0  0  0  0  0  0
    6.5928   -9.4145   -1.3267 N   0  0  0  0  0  0  0  0  0  0  0  0
    4.9086   -8.8827   -1.7070 C   0  0  0  0  0  0  0  0  0  0  0  0
    4.1503   -7.8872   -0.3820 C   0  0  0  0  0  0  0  0  0  0  0  0
    5.2054   -6.9528    0.9139 N   0  0  0  0  0  0  0  0  0  0  0  0
    7.0389   -7.1498    0.7478 C   0  0  0  0  0  0  0  0  0  0  0  0
    8.0291   -6.5678    1.2906 O   0  0  0  0  0  0  0  0  0  0  0  0
    7.6801   -8.6694   -0.2208 C   0  0  0  0  0  0  0  0  0  0  0  0
    8.8390   -9.0486   -0.0864 O   0  0  0  0  0  0  0  0  0  0  0  0
    4.3203   -6.3630    1.9902 C   0  0  0  0  0  0  0  0  0  0  0  0
    3.1121   -6.1537    2.0204 O   0  0  0  0  0  0  0  0  0  0  0  0
    5.0506   -5.9462    3.0507 N   0  0  0  0  0  0  0  0  0  0  0  0
    6.4145   -5.6649    2.7606 C   0  0  2  0  0  0  0  0  0  0  0  0
    6.5107   -4.6645    1.2841 C   0  0  2  0  0  0  0  0  0  0  0  0
    5.1297   -4.3146    0.6914 C   0  0  0  0  0  0  0  0  0  0  0  0
    7.2450   -4.9172    0.0608 O   0  0  0  0  0  0  0  0  0  0  0  0
    7.1340   -7.1771    3.2114 C   0  0  0  0  0  0  0  0  0  0  0  0
    8.0850   -7.1582    4.0127 O   0  0  0  0  0  0  0  0  0  0  0  0
    6.8693   -8.4643    2.5319 N   0  0  0  0  0  0  0  0  0  0  0  0
    5.9327   -8.8648    1.0863 C   0  0  1  0  0  0  0  0  0  0  0  0
    5.4772  -10.3372    0.9175 C   0  0  2  0  0  0  0  0  0  0  0  0
    4.0920  -10.1181    1.3584 N   0  0  0  0  0  0  0  0  0  0  0  0
    4.2368   -8.9486    1.9395 C   0  0  0  0  0  0  0  0  0  0  0  0
    3.2722   -8.4110    2.4048 O   0  0  0  0  0  0  0  0  0  0  0  0
    3.0056  -10.4959    0.5954 C   0  0  0  0  0  0  0  0  0  0  0  0
    3.2158  -11.7550    0.2134 C   0  0  0  0  0  0  0  0  0  0  0  0
    4.5859  -12.4866    0.3014 C   0  0  0  0  0  0  0  0  0  0  0  0
    5.8613  -11.8819    1.5867 S   0  0  0  0  0  0  0  0  0  0  0  0
    2.0203  -12.5552   -0.0885 C   0  0  0  0  0  0  0  0  0  0  0  0
    0.8168  -12.4715    1.3372 S   0  0  0  0  0  0  0  0  0  0  0  0
    1.7414  -12.6906    2.7779 C   0  0  0  0  0  0  0  0  0  0  0  0
    1.8690  -13.8838    3.3027 N   0  0  0  0  0  0  0  0  0  0  0  0
    2.4516  -13.7091    4.5247 N   0  0  0  0  0  0  0  0  0  0  0  0
    2.7032  -12.4344    4.7567 N   0  0  0  0  0  0  0  0  0  0  0  0
    2.2162  -11.7782    3.6918 N   0  0  0  0  0  0  0  0  0  0  0  0
    2.3444  -10.3591    3.7166 C   0  0  0  0  0  0  0  0  0  0  0  0
    1.6442   -9.5763    0.3205 C   0  0  0  0  0  0  0  0  0  0  0  0
    1.4460   -8.3812    0.4436 O   0  0  0  0  0  0  0  0  0  0  0  0
    0.6228  -10.2651   -0.2322 O   0  0  0  0  0  0  0  0  0  0  0  0
    5.9869   -7.7484   -0.5220 O   0  0  0  0  0  0  0  0  0  0  0  0
    6.8126   -7.1077   -1.7316 C   0  0  0  0  0  0  0  0  0  0  0  0
    7.9211   -8.7217   -3.5668 H   0  0  0  0  0  0  0  0  0  0  0  0
    8.7689  -10.2720   -3.7101 H   0  0  0  0  0  0  0  0  0  0  0  0
    9.0785   -9.2208   -2.3358 H   0  0  0  0  0  0  0  0  0  0  0  0
    6.4016  -10.5934   -2.9385 H   0  0  0  0  0  0  0  0  0  0  0  0
    7.5473  -11.1269   -1.6681 H   0  0  0  0  0  0  0  0  0  0  0  0
    4.3836   -9.8101   -1.9621 H   0  0  0  0  0  0  0  0  0  0  0  0
    4.7348   -8.1930   -2.5332 H   0  0  0  0  0  0  0  0  0  0  0  0
    4.1223   -8.8947   -0.0936 H   0  0  0  0  0  0  0  0  0  0  0  0
    3.1174   -7.6582   -0.4892 H   0  0  0  0  0  0  0  0  0  0  0  0
    4.5109   -5.3941    3.7086 H   0  0  0  0  0  0  0  0  0  0  0  0
    6.7217   -4.9488    3.5280 H   0  0  0  0  0  0  0  0  0  0  0  0
    7.0851   -3.8167    1.6269 H   0  0  0  0  0  0  0  0  0  0  0  0
    4.6673   -5.1301    0.1004 H   0  0  0  0  0  0  0  0  0  0  0  0
    4.4525   -4.0306    1.4840 H   0  0  0  0  0  0  0  0  0  0  0  0
    5.1947   -3.5852   -0.1053 H   0  0  0  0  0  0  0  0  0  0  0  0
    6.5986   -4.9730   -0.6580 H   0  0  0  0  0  0  0  0  0  0  0  0
    7.6970   -9.0634    2.6279 H   0  0  0  0  0  0  0  0  0  0  0  0
    5.6071  -10.5524   -0.1123 H   0  0  0  0  0  0  0  0  0  0  0  0
    5.0554  -12.3912   -0.6978 H   0  0  0  0  0  0  0  0  0  0  0  0
    4.4436  -13.4954    0.6212 H   0  0  0  0  0  0  0  0  0  0  0  0
    1.5832  -12.1896   -1.0312 H   0  0  0  0  0  0  0  0  0  0  0  0
    2.3397  -13.5767   -0.2373 H   0  0  0  0  0  0  0  0  0  0  0  0
    1.8533   -9.8909    4.5655 H   0  0  0  0  0  0  0  0  0  0  0  0
    3.4183  -10.1394    3.8149 H   0  0  0  0  0  0  0  0  0  0  0  0
    1.8770   -9.9653    2.8231 H   0  0  0  0  0  0  0  0  0  0  0  0
   -0.2024   -9.7501   -0.0611 H   0  0  0  0  0  0  0  0  0  0  0  0
    7.7606   -7.5715   -1.9376 H   0  0  0  0  0  0  0  0  0  0  0  0
    6.1620   -7.2001   -2.5922 H   0  0  0  0  0  0  0  0  0  0  0  0
    7.0235   -6.0563   -1.7888 H   0  0  0  0  0  0  0  0  0  0  0  0
  1  2  1  0  0  0  0
  1 43  1  0  0  0  0
  1 44  1  0  0  0  0
  1 45  1  0  0  0  0
  2  3  1  0  0  0  0
  2 46  1  0  0  0  0
  2 47  1  0  0  0  0
  3  4  1  0  0  0  0
  3  9  1  0  0  0  0
  4  5  1  0  0  0  0
  4 48  1  0  0  0  0
  4 49  1  0  0  0  0
  5  6  1  0  0  0  0
  5 50  1  0  0  0  0
  5 51  1  0  0  0  0
  6  7  1  0  0  0  0
  6 11  1  0  0  0  0
  7  8  2  0  0  0  0
  7  9  1  0  0  0  0
  9 10  2  0  0  0  0
 11 12  2  0  0  0  0
 11 13  1  0  0  0  0
 13 52  1  0  0  0  0
 14 18  1  0  0  0  0
 14 53  1  1  0  0  0
 14 15  1  0  0  0  0
 14 13  1  0  0  0  0
 15 54  1  1  0  0  0
 15 17  1  0  0  0  0
 15 16  1  0  0  0  0
 16 55  1  0  0  0  0
 16 56  1  0  0  0  0
 16 57  1  0  0  0  0
 17 58  1  0  0  0  0
 18 19  2  0  0  0  0
 18 20  1  0  0  0  0
 20 59  1  0  0  0  0
 21 22  1  0  0  0  0
 21 24  1  0  0  0  0
 21 41  1  6  0  0  0
 21 20  1  0  0  0  0
 22 23  1  0  0  0  0
 22 29  1  0  0  0  0
 22 60  1  6  0  0  0
 23 24  1  0  0  0  0
 23 26  1  0  0  0  0
 24 25  2  0  0  0  0
 26 27  2  0  0  0  0
 26 38  1  0  0  0  0
 27 28  1  0  0  0  0
 27 30  1  0  0  0  0
 28 29  1  0  0  0  0
 28 61  1  0  0  0  0
 28 62  1  0  0  0  0
 30 31  1  0  0  0  0
 30 63  1  0  0  0  0
 30 64  1  0  0  0  0
 31 32  1  0  0  0  0
 32 33  2  0  0  0  0
 32 36  1  0  0  0  0
 33 34  1  0  0  0  0
 34 35  2  0  0  0  0
 35 36  1  0  0  0  0
 36 37  1  0  0  0  0
 37 65  1  0  0  0  0
 37 66  1  0  0  0  0
 37 67  1  0  0  0  0
 38 39  2  0  0  0  0
 38 40  1  0  0  0  0
 40 68  1  0  0  0  0
 41 42  1  0  0  0  0
 42 69  1  0  0  0  0
 42 70  1  0  0  0  0
 42 71  1  0  0  0  0
M  END
>  <DRUGBANK_ID>
DB13638

>  <COMMON_NAME>
Cefbuperazone

>  <CAS_NUMBER>
76610-84-9

>  <UNII>
T0785J3X40

>  <SYNONYMS>
cefbuperazona; Cefbuperazone

$$$$
