
 OpenBabel10282417143D

 37 38  0  0  0  0  0  0  0  0999 V2000
   -1.7159   -0.0862    0.0231 Br  0  0  0  0  0  0  0  0  0  0  0  0
    7.8656   -0.0103    1.3134 Cl  0  0  0  0  0  0  0  0  0  0  0  0
    6.5428    1.8474    3.2425 Cl  0  0  0  0  0  0  0  0  0  0  0  0
    5.4685    3.9697    0.2031 S   0  0  2  0  0  0  0  0  0  0  0  0
    6.6900    2.0450   -1.9445 O   0  0  0  0  0  0  0  0  0  0  0  0
    4.1287    3.6204   -0.3706 O   0  0  0  0  0  0  0  0  0  0  0  0
    5.1662    0.6726   -1.0216 N   0  0  0  0  0  0  0  0  0  0  0  0
    6.4037    2.3672    0.3757 C   0  0  1  0  0  0  0  0  0  0  0  0
    7.8597    2.6680    0.8552 C   0  0  2  0  0  0  0  0  0  0  0  0
    7.0670    1.6377    1.5425 C   0  0  0  0  0  0  0  0  0  0  0  0
    8.3696    3.6993    1.7961 C   0  0  0  0  0  0  0  0  0  0  0  0
    6.1503    1.6484   -0.9330 C   0  0  0  0  0  0  0  0  0  0  0  0
    5.1295    4.7139    1.7689 C   0  0  0  0  0  0  0  0  0  0  0  0
    4.4255   -0.0693   -0.0064 C   0  0  3  0  0  0  0  0  0  0  0  0
    2.9405   -0.0897   -0.1993 C   0  0  0  0  0  0  0  0  0  0  0  0
    4.5440    0.4201    1.4083 C   0  0  0  0  0  0  0  0  0  0  0  0
    2.2589   -1.3028   -0.1247 C   0  0  0  0  0  0  0  0  0  0  0  0
    2.2159    1.1099   -0.1490 C   0  0  0  0  0  0  0  0  0  0  0  0
    0.8695   -1.3003   -0.0571 C   0  0  0  0  0  0  0  0  0  0  0  0
    0.8375    1.1210   -0.0674 C   0  0  0  0  0  0  0  0  0  0  0  0
    0.1677   -0.0910   -0.0418 C   0  0  0  0  0  0  0  0  0  0  0  0
    4.9881    0.4078   -1.9856 H   0  0  0  0  0  0  0  0  0  0  0  0
    8.6801    2.2807    0.2562 H   0  0  0  0  0  0  0  0  0  0  0  0
    9.1480    3.2521    2.4286 H   0  0  0  0  0  0  0  0  0  0  0  0
    8.7838    4.5367    1.2449 H   0  0  0  0  0  0  0  0  0  0  0  0
    7.6118    4.0789    2.4833 H   0  0  0  0  0  0  0  0  0  0  0  0
    4.7737    4.0228    2.5277 H   0  0  0  0  0  0  0  0  0  0  0  0
    5.9935    5.2957    2.0766 H   0  0  0  0  0  0  0  0  0  0  0  0
    4.3248    5.4413    1.5851 H   0  0  0  0  0  0  0  0  0  0  0  0
    4.8415   -1.0836   -0.0566 H   0  0  0  0  0  0  0  0  0  0  0  0
    3.9799   -0.0955    2.1837 H   0  0  0  0  0  0  0  0  0  0  0  0
    5.5356    0.1507    1.6661 H   0  0  0  0  0  0  0  0  0  0  0  0
    4.3456    1.4947    1.5017 H   0  0  0  0  0  0  0  0  0  0  0  0
    2.8114   -2.2384   -0.0537 H   0  0  0  0  0  0  0  0  0  0  0  0
    2.7283    2.0575   -0.0744 H   0  0  0  0  0  0  0  0  0  0  0  0
    0.3462   -2.2476    0.0036 H   0  0  0  0  0  0  0  0  0  0  0  0
    0.3284    2.0779   -0.0033 H   0  0  0  0  0  0  0  0  0  0  0  0
  1 21  1  0  0  0  0
  2 10  1  0  0  0  0
  3 10  1  0  0  0  0
  4  6  2  1  0  0  0
  4  8  1  0  0  0  0
  4 13  1  0  0  0  0
  5 12  2  0  0  0  0
  7 12  1  0  0  0  0
  7 22  1  0  0  0  0
  8  9  1  0  0  0  0
  8 10  1  0  0  0  0
  8 12  1  6  0  0  0
  9 10  1  0  0  0  0
  9 11  1  0  0  0  0
  9 23  1  6  0  0  0
 11 24  1  0  0  0  0
 11 25  1  0  0  0  0
 11 26  1  0  0  0  0
 13 27  1  0  0  0  0
 13 28  1  0  0  0  0
 13 29  1  0  0  0  0
 14  7  1  0  0  0  0
 14 15  1  0  0  0  0
 14 16  1  0  0  0  0
 14 30  1  0  0  0  0
 15 17  2  0  0  0  0
 15 18  1  0  0  0  0
 16 31  1  0  0  0  0
 16 32  1  0  0  0  0
 16 33  1  0  0  0  0
 17 19  1  0  0  0  0
 17 34  1  0  0  0  0
 18 20  2  0  0  0  0
 18 35  1  0  0  0  0
 19 21  2  0  0  0  0
 19 36  1  0  0  0  0
 20 21  1  0  0  0  0
 20 37  1  0  0  0  0
M  END
>  <DRUGBANK_ID>
DB04458

>  <SECONDARY_ACCESSION_NUMBERS>
EXPT02234

>  <COMMON_NAME>
2,2-Dichloro-1-methanesulfinyl-3-methyl-cyclopropanecarboxylic acid [1-(4-bromo-phenyl)-ethyl]-amide

$$$$
