
 OpenBabel10282417163D

 41 43  0  0  0  0  0  0  0  0999 V2000
    0.5435    0.1991   -0.9463 N   0  0  0  0  0  0  0  0  0  0  0  0
   -0.0888   -0.9453   -1.2566 C   0  0  0  0  0  0  0  0  0  0  0  0
    0.3442   -2.2781   -1.1158 N   0  0  0  0  0  0  0  0  0  0  0  0
   -0.6033   -3.0504   -1.7753 N   0  0  0  0  0  0  0  0  0  0  0  0
   -1.5562   -2.1818   -2.1240 C   0  0  0  0  0  0  0  0  0  0  0  0
   -1.2980   -0.9095   -1.7550 N   0  0  0  0  0  0  0  0  0  0  0  0
   -2.7210   -2.5017   -2.7413 N   0  0  0  0  0  0  0  0  0  0  0  0
   -3.7345   -1.6813   -3.2992 C   0  0  0  0  0  0  0  0  0  0  0  0
   -3.4538   -0.6061   -4.1507 C   0  0  0  0  0  0  0  0  0  0  0  0
   -4.4824    0.2057   -4.6697 C   0  0  0  0  0  0  0  0  0  0  0  0
   -5.8196   -0.0564   -4.3542 C   0  0  0  0  0  0  0  0  0  0  0  0
   -6.1326   -1.1740   -3.5801 C   0  0  0  0  0  0  0  0  0  0  0  0
   -5.0919   -1.9665   -3.0476 C   0  0  0  0  0  0  0  0  0  0  0  0
   -7.0780    1.1376   -4.7650 S   0  0  0  0  0  0  0  0  0  0  0  0
   -8.1702    0.3030   -5.7412 N   0  0  0  0  0  0  0  0  0  0  0  0
   -7.7822    1.4996   -3.5663 O   0  0  0  0  0  0  0  0  0  0  0  0
   -6.4990    2.1407   -5.6435 O   0  0  0  0  0  0  0  0  0  0  0  0
    1.4663   -2.9715   -0.5158 C   0  0  0  0  0  0  0  0  0  0  0  0
    1.7843   -4.6325   -0.7003 S   0  0  0  0  0  0  0  0  0  0  0  0
    2.4646   -2.2910    0.1946 N   0  0  0  0  0  0  0  0  0  0  0  0
    2.4762   -1.0667    0.8927 C   0  0  0  0  0  0  0  0  0  0  0  0
    1.3517   -0.5965    1.5668 C   0  0  0  0  0  0  0  0  0  0  0  0
    1.2384    0.7546    1.9003 C   0  0  0  0  0  0  0  0  0  0  0  0
    2.2953    1.6297    1.6477 C   0  0  0  0  0  0  0  0  0  0  0  0
    3.4988    1.1318    1.1480 C   0  0  0  0  0  0  0  0  0  0  0  0
    3.5816   -0.2083    0.7573 C   0  0  0  0  0  0  0  0  0  0  0  0
    4.6507   -0.5905    0.0407 F   0  0  0  0  0  0  0  0  0  0  0  0
    0.2639   -1.3737    1.6615 F   0  0  0  0  0  0  0  0  0  0  0  0
    0.0103    0.7485   -0.2710 H   0  0  0  0  0  0  0  0  0  0  0  0
    1.5314    0.2302   -0.7505 H   0  0  0  0  0  0  0  0  0  0  0  0
   -2.7790   -3.4596   -3.0637 H   0  0  0  0  0  0  0  0  0  0  0  0
   -2.4222   -0.3780   -4.4082 H   0  0  0  0  0  0  0  0  0  0  0  0
   -4.2191    1.0630   -5.2866 H   0  0  0  0  0  0  0  0  0  0  0  0
   -7.1702   -1.4113   -3.3527 H   0  0  0  0  0  0  0  0  0  0  0  0
   -5.3532   -2.7795   -2.3722 H   0  0  0  0  0  0  0  0  0  0  0  0
   -8.9682    0.9239   -5.9157 H   0  0  0  0  0  0  0  0  0  0  0  0
   -7.7455    0.0221   -6.6232 H   0  0  0  0  0  0  0  0  0  0  0  0
    3.2959   -2.8635    0.3592 H   0  0  0  0  0  0  0  0  0  0  0  0
    0.2663    1.1369    2.2019 H   0  0  0  0  0  0  0  0  0  0  0  0
    2.1554    2.7025    1.7742 H   0  0  0  0  0  0  0  0  0  0  0  0
    4.3352    1.8052    0.9730 H   0  0  0  0  0  0  0  0  0  0  0  0
  1  2  1  0  0  0  0
  1 29  1  0  0  0  0
  1 30  1  0  0  0  0
  2  3  1  0  0  0  0
  2  6  2  0  0  0  0
  3 18  1  0  0  0  0
  4  3  1  0  0  0  0
  5  4  2  0  0  0  0
  5  7  1  0  0  0  0
  6  5  1  0  0  0  0
  7  8  1  0  0  0  0
  7 31  1  0  0  0  0
  8  9  2  0  0  0  0
  8 13  1  0  0  0  0
  9 32  1  0  0  0  0
 10  9  1  0  0  0  0
 10 33  1  0  0  0  0
 11 10  2  0  0  0  0
 11 14  1  0  0  0  0
 12 11  1  0  0  0  0
 12 34  1  0  0  0  0
 13 12  2  0  0  0  0
 13 35  1  0  0  0  0
 14 15  1  0  0  0  0
 14 16  2  0  0  0  0
 14 17  2  0  0  0  0
 15 36  1  0  0  0  0
 15 37  1  0  0  0  0
 18 19  2  0  0  0  0
 18 20  1  0  0  0  0
 20 21  1  0  0  0  0
 20 38  1  0  0  0  0
 21 22  2  0  0  0  0
 21 26  1  0  0  0  0
 22 28  1  0  0  0  0
 23 22  1  0  0  0  0
 23 39  1  0  0  0  0
 24 23  2  0  0  0  0
 24 40  1  0  0  0  0
 25 24  1  0  0  0  0
 25 41  1  0  0  0  0
 26 25  2  0  0  0  0
 26 27  1  0  0  0  0
M  END
>  <DRUGBANK_ID>
DB07664

>  <COMMON_NAME>
K-00546

>  <CAS_NUMBER>
443798-47-8

>  <UNII>
LFR1253W75

>  <SYNONYMS>
CDK1/2 inhibitor III

$$$$
