1080
 OpenBabel10282417113D

 20 19  0  0  1  0  0  0  0  0999 V2000
    0.8562   -0.0341    0.1647 O   0  0  0  0  0  0  0  0  0  0  0  0
    0.9376    1.8485    1.3532 O   0  0  0  0  0  0  0  0  0  0  0  0
   -1.8595   -1.2790   -1.1657 N   0  0  0  0  0  0  0  0  0  0  0  0
   -1.7860    1.1416   -0.7040 C   0  0  0  0  0  0  0  0  0  0  0  0
   -1.3650    0.0062   -1.6504 C   0  0  3  0  0  0  0  0  0  0  0  0
   -1.2439    0.9715    0.7194 C   0  0  0  0  0  0  0  0  0  0  0  0
   -1.8322    0.2350   -3.0532 C   0  0  0  0  0  0  0  0  0  0  0  0
    0.2621    0.9998    0.7887 C   0  0  0  0  0  0  0  0  0  0  0  0
   -0.9753    0.4002   -4.0720 C   0  0  0  0  0  0  0  0  0  0  0  0
    1.8167    0.1619    0.1642 H   0  0  0  0  0  0  0  0  0  0  0  0
   -1.4617   -2.0131   -1.7502 H   0  0  0  0  0  0  0  0  0  0  0  0
   -1.4577   -1.4551   -0.2444 H   0  0  0  0  0  0  0  0  0  0  0  0
   -2.8833    1.2018   -0.6605 H   0  0  0  0  0  0  0  0  0  0  0  0
   -1.4439    2.1052   -1.1058 H   0  0  0  0  0  0  0  0  0  0  0  0
   -0.2766   -0.0385   -1.6989 H   0  0  0  0  0  0  0  0  0  0  0  0
   -1.6054    0.0513    1.1898 H   0  0  0  0  0  0  0  0  0  0  0  0
   -1.6221    1.7914    1.3409 H   0  0  0  0  0  0  0  0  0  0  0  0
   -2.9035    0.2619   -3.2321 H   0  0  0  0  0  0  0  0  0  0  0  0
   -1.3271    0.5578   -5.0843 H   0  0  0  0  0  0  0  0  0  0  0  0
    0.1005    0.3755   -3.9140 H   0  0  0  0  0  0  0  0  0  0  0  0
  1  8  1  0  0  0  0
  1 10  1  0  0  0  0
  2  8  2  0  0  0  0
  3  5  1  0  0  0  0
  3 11  1  0  0  0  0
  3 12  1  0  0  0  0
  4  5  1  0  0  0  0
  4  6  1  0  0  0  0
  4 13  1  0  0  0  0
  4 14  1  0  0  0  0
  5  7  1  0  0  0  0
  5 15  1  0  0  0  0
  6  8  1  0  0  0  0
  6 16  1  0  0  0  0
  6 17  1  0  0  0  0
  7  9  2  0  0  0  0
  7 18  1  0  0  0  0
  9 19  1  0  0  0  0
  9 20  1  0  0  0  0
M  END
>  <DRUGBANK_ID>
DB01080

>  <SECONDARY_ACCESSION_NUMBERS>
APRD00282

>  <COMMON_NAME>
Vigabatrin

>  <CAS_NUMBER>
68506-86-5

>  <UNII>
GR120KRT6K

>  <SYNONYMS>
4-Amino-5-hexenoic acid; Gamma vinyl GABA; gamma-Vinyl GABA; gamma-Vinyl-gamma-aminobutyric acid; GVG; Vigabatrin; Vigabatrina; Vigabatrine; Vigabatrinum; Vinyl gamma-aminobutyric acid

$$$$
