
 OpenBabel10282417163D

 59 64  0  0  0  0  0  0  0  0999 V2000
   -2.3337    0.2577    0.0132 O   0  0  0  0  0  0  0  0  0  0  0  0
    2.1192    0.3558    0.0105 O   0  0  0  0  0  0  0  0  0  0  0  0
   -3.9869  -10.2141   -2.2979 N   0  0  0  0  0  0  0  0  0  0  0  0
   -3.4574   -6.9998   -0.4797 N   0  0  0  0  0  0  0  0  0  0  0  0
   -0.1402    0.5552   -0.0103 N   0  0  0  0  0  0  0  0  0  0  0  0
    3.0473   -4.0692    0.5670 N   0  0  0  0  0  0  0  0  0  0  0  0
   -4.6453  -10.8506   -1.1762 C   0  0  2  0  0  0  0  0  0  0  0  0
   -4.5782  -12.3119   -1.5799 C   0  0  0  0  0  0  0  0  0  0  0  0
   -3.2109  -12.3404   -2.2984 C   0  0  0  0  0  0  0  0  0  0  0  0
   -5.7871   -9.9275   -1.0415 C   0  0  0  0  0  0  0  0  0  0  0  0
   -2.7297  -10.9001   -2.3447 C   0  0  0  0  0  0  0  0  0  0  0  0
   -4.8929   -8.3496   -0.0673 C   0  0  0  0  0  0  0  0  0  0  0  0
   -3.7940   -8.8260   -2.0558 C   0  0  0  0  0  0  0  0  0  0  0  0
   -3.7128   -5.7626    0.8012 C   0  0  0  0  0  0  0  0  0  0  0  0
   -1.9845   -5.7335   -0.0668 C   0  0  0  0  0  0  0  0  0  0  0  0
   -1.8741   -3.9500    0.1895 C   0  0  0  0  0  0  0  0  0  0  0  0
   -3.2233   -4.2069    0.6284 C   0  0  0  0  0  0  0  0  0  0  0  0
   -0.9569   -2.2415    0.0850 C   0  0  0  0  0  0  0  0  0  0  0  0
   -3.6597   -6.9494    1.2314 C   0  0  0  0  0  0  0  0  0  0  0  0
    0.4216   -1.7445    0.0496 C   0  0  0  0  0  0  0  0  0  0  0  0
   -4.1998   -3.4315    0.0330 C   0  0  0  0  0  0  0  0  0  0  0  0
    1.5012   -2.6301   -0.0134 C   0  0  0  0  0  0  0  0  0  0  0  0
   -1.2704   -0.3676    0.0287 C   0  0  0  0  0  0  0  0  0  0  0  0
   -4.7510   -5.8205    0.2819 C   0  0  0  0  0  0  0  0  0  0  0  0
   -4.3282   -4.5140   -0.7755 C   0  0  0  0  0  0  0  0  0  0  0  0
    0.9914   -0.1392    0.0071 C   0  0  0  0  0  0  0  0  0  0  0  0
    1.5996   -3.5566   -1.0458 C   0  0  0  0  0  0  0  0  0  0  0  0
    2.4756   -2.8667    0.9190 C   0  0  0  0  0  0  0  0  0  0  0  0
    2.5445   -4.4910   -0.6518 C   0  0  0  0  0  0  0  0  0  0  0  0
    0.8942   -3.6983   -2.2478 C   0  0  0  0  0  0  0  0  0  0  0  0
    2.8292   -5.5975   -1.4549 C   0  0  0  0  0  0  0  0  0  0  0  0
    1.1940   -4.7668   -3.0693 C   0  0  0  0  0  0  0  0  0  0  0  0
    2.1512   -5.6971   -2.6812 C   0  0  0  0  0  0  0  0  0  0  0  0
   -0.0892    1.6161   -0.0253 H   0  0  0  0  0  0  0  0  0  0  0  0
    3.7436   -4.5706    1.1036 H   0  0  0  0  0  0  0  0  0  0  0  0
   -4.2296  -10.7949   -0.1636 H   0  0  0  0  0  0  0  0  0  0  0  0
   -4.5795  -12.9961   -0.7180 H   0  0  0  0  0  0  0  0  0  0  0  0
   -5.3761  -12.6418   -2.2523 H   0  0  0  0  0  0  0  0  0  0  0  0
   -2.4821  -12.9661   -1.7819 H   0  0  0  0  0  0  0  0  0  0  0  0
   -3.3372  -12.7168   -3.3155 H   0  0  0  0  0  0  0  0  0  0  0  0
   -6.6234  -10.8002   -0.7748 H   0  0  0  0  0  0  0  0  0  0  0  0
   -6.3319   -9.6709   -1.9847 H   0  0  0  0  0  0  0  0  0  0  0  0
   -2.2079  -10.6131   -3.2509 H   0  0  0  0  0  0  0  0  0  0  0  0
   -2.1007  -10.6577   -1.4754 H   0  0  0  0  0  0  0  0  0  0  0  0
   -5.1213   -9.1828    0.9637 H   0  0  0  0  0  0  0  0  0  0  0  0
   -6.1786   -8.1099    0.0382 H   0  0  0  0  0  0  0  0  0  0  0  0
   -3.2416   -8.8925   -1.1048 H   0  0  0  0  0  0  0  0  0  0  0  0
   -3.2187   -8.2186   -2.7208 H   0  0  0  0  0  0  0  0  0  0  0  0
   -4.7549   -8.2522   -1.9914 H   0  0  0  0  0  0  0  0  0  0  0  0
   -0.8825   -5.8424   -0.1561 H   0  0  0  0  0  0  0  0  0  0  0  0
   -2.3546   -7.5051    0.7323 H   0  0  0  0  0  0  0  0  0  0  0  0
   -5.2676   -3.2437    0.1842 H   0  0  0  0  0  0  0  0  0  0  0  0
   -5.8386   -5.8167    0.1675 H   0  0  0  0  0  0  0  0  0  0  0  0
   -3.3277   -4.9601   -1.2662 H   0  0  0  0  0  0  0  0  0  0  0  0
    2.7419   -2.3380    1.8259 H   0  0  0  0  0  0  0  0  0  0  0  0
    0.1430   -2.9709   -2.5411 H   0  0  0  0  0  0  0  0  0  0  0  0
    3.5640   -6.3414   -1.1747 H   0  0  0  0  0  0  0  0  0  0  0  0
    0.6754   -4.8571   -4.0163 H   0  0  0  0  0  0  0  0  0  0  0  0
    2.3760   -6.5149   -3.3588 H   0  0  0  0  0  0  0  0  0  0  0  0
  1 23  2  0  0  0  0
  2 26  2  0  0  0  0
  3  7  1  0  0  0  0
  3 11  1  0  0  0  0
  3 13  1  0  0  0  0
  4 12  1  0  0  0  0
  4 14  1  0  0  0  0
  4 15  1  0  0  0  0
  5 23  1  0  0  0  0
  5 26  1  0  0  0  0
  5 34  1  0  0  0  0
  6 28  1  0  0  0  0
  6 29  1  0  0  0  0
  6 35  1  0  0  0  0
  7  8  1  0  0  0  0
  7 10  1  0  0  0  0
  7 36  1  1  0  0  0
  8  9  1  0  0  0  0
  8 37  1  0  0  0  0
  8 38  1  0  0  0  0
  9 11  1  0  0  0  0
  9 39  1  0  0  0  0
  9 40  1  0  0  0  0
 10 12  1  0  0  0  0
 10 41  1  0  0  0  0
 10 42  1  0  0  0  0
 11 43  1  0  0  0  0
 11 44  1  0  0  0  0
 12 45  1  0  0  0  0
 12 46  1  0  0  0  0
 13 47  1  0  0  0  0
 13 48  1  0  0  0  0
 13 49  1  0  0  0  0
 14 17  1  0  0  0  0
 14 19  2  0  0  0  0
 15 16  2  0  0  0  0
 15 50  1  0  0  0  0
 16 17  1  0  0  0  0
 16 18  1  0  0  0  0
 17 21  2  0  0  0  0
 18 20  2  0  0  0  0
 18 23  1  0  0  0  0
 19 24  1  0  0  0  0
 19 51  1  0  0  0  0
 20 22  1  0  0  0  0
 20 26  1  0  0  0  0
 21 25  1  0  0  0  0
 21 52  1  0  0  0  0
 22 27  1  0  0  0  0
 22 28  2  0  0  0  0
 24 25  2  0  0  0  0
 24 53  1  0  0  0  0
 25 54  1  0  0  0  0
 27 29  1  0  0  0  0
 27 30  2  0  0  0  0
 28 55  1  0  0  0  0
 29 31  2  0  0  0  0
 30 32  1  0  0  0  0
 30 56  1  0  0  0  0
 31 33  1  0  0  0  0
 31 57  1  0  0  0  0
 32 33  2  0  0  0  0
 32 58  1  0  0  0  0
 33 59  1  0  0  0  0
M  END
>  <DRUGBANK_ID>
DB07456

>  <COMMON_NAME>
3-(1H-indol-3-yl)-4-(1-{2-[(2S)-1-methylpyrrolidinyl]ethyl}-1H-indol-3-yl)-1H-pyrrole-2,5-dione

$$$$
