
 OpenBabel10282417133D

 27 26  0  0  0  0  0  0  0  0999 V2000
    0.9526   -0.0578   -0.0664 P   0  0  3  0  0  0  0  0  0  0  0  0
    0.9364   -0.6563   -1.7121 O   0  0  0  0  0  0  0  0  0  0  0  0
    1.1446   -1.4669    0.7412 O   0  0  0  0  0  0  0  0  0  0  0  0
   -0.5958   -0.0578   -0.0664 O   0  0  0  0  0  0  0  0  0  0  0  0
    2.6826   -0.0578   -0.0664 O   0  0  0  0  0  0  0  0  0  0  0  0
    3.5631    0.8783   -0.7771 C   0  0  0  0  0  0  0  0  0  0  0  0
    3.2170    0.8305   -2.2418 C   0  0  1  0  0  0  0  0  0  0  0  0
    2.0061    1.5303   -2.0580 O   0  0  0  0  0  0  0  0  0  0  0  0
    3.6660    1.6049   -3.4448 C   0  0  0  0  0  0  0  0  0  0  0  0
    5.0524    1.6183   -3.5764 O   0  0  0  0  0  0  0  0  0  0  0  0
    3.0980   -0.2311   -2.5406 H   0  0  0  0  0  0  0  0  0  0  0  0
    0.2191    0.0050   -2.9021 C   0  0  0  0  0  0  0  0  0  0  0  0
   -0.8168    1.1430   -2.6246 C   0  0  0  0  0  0  0  0  0  0  0  0
   -0.6006    1.9806   -1.4287 N   0  0  0  0  0  0  0  0  0  0  0  0
    1.7912   -1.3191    1.4569 H   0  0  0  0  0  0  0  0  0  0  0  0
    3.3732    1.8722   -0.3533 H   0  0  0  0  0  0  0  0  0  0  0  0
    4.6038    0.6060   -0.5902 H   0  0  0  0  0  0  0  0  0  0  0  0
    1.5045    0.7936   -1.8218 H   0  0  0  0  0  0  0  0  0  0  0  0
    3.1849    1.1643   -4.3388 H   0  0  0  0  0  0  0  0  0  0  0  0
    3.2621    2.6300   -3.4157 H   0  0  0  0  0  0  0  0  0  0  0  0
    5.3718    1.9307   -2.7158 H   0  0  0  0  0  0  0  0  0  0  0  0
    0.9821    0.5169   -3.5190 H   0  0  0  0  0  0  0  0  0  0  0  0
   -0.0351   -0.7419   -3.6656 H   0  0  0  0  0  0  0  0  0  0  0  0
   -0.7981    1.8432   -3.4703 H   0  0  0  0  0  0  0  0  0  0  0  0
   -1.8145    0.7070   -2.5734 H   0  0  0  0  0  0  0  0  0  0  0  0
   -1.3325    2.6879   -1.3634 H   0  0  0  0  0  0  0  0  0  0  0  0
   -0.8562    1.3647   -0.6404 H   0  0  0  0  0  0  0  0  0  0  0  0
  2  1  1  0  0  0  0
  3  1  1  0  0  0  0
  3 15  1  0  0  0  0
  4  1  2  0  0  0  0
  5  1  1  0  0  0  0
  6  5  1  0  0  0  0
  6 16  1  0  0  0  0
  6 17  1  0  0  0  0
  7  6  1  0  0  0  0
  7  8  1  0  0  0  0
  7 11  1  6  0  0  0
  8 18  1  0  0  0  0
  9  7  1  0  0  0  0
  9 19  1  0  0  0  0
  9 20  1  0  0  0  0
 10  9  1  0  0  0  0
 10 21  1  0  0  0  0
 12  2  1  0  0  0  0
 12 22  1  0  0  0  0
 12 23  1  0  0  0  0
 13 12  1  0  0  0  0
 13 24  1  0  0  0  0
 13 25  1  0  0  0  0
 14 13  1  0  0  0  0
 14 26  1  0  0  0  0
 14 27  1  0  0  0  0
M  END
>  <DRUGBANK_ID>
DB03484

>  <SECONDARY_ACCESSION_NUMBERS>
EXPT01637

>  <COMMON_NAME>
sn-glycero-3-phosphoethanolamine

>  <CAS_NUMBER>
59734-15-5

>  <UNII>
966T5WN0AC

>  <SYNONYMS>
Glycerophosphoethanolamine

$$$$
