
 OpenBabel10282417173D

 51 53  0  0  0  0  0  0  0  0999 V2000
    0.9813   -0.1203   -0.3185 C   0  0  0  0  0  0  0  0  0  0  0  0
   -1.4272   -3.3302   -0.9887 C   0  0  0  0  0  0  0  0  0  0  0  0
   -1.7134   -1.8207    0.4327 C   0  0  0  0  0  0  0  0  0  0  0  0
    2.1112   -8.6001    5.0716 C   0  0  0  0  0  0  0  0  0  0  0  0
    3.2100   -6.7828    3.8887 C   0  0  0  0  0  0  0  0  0  0  0  0
   -2.2089    1.4723    2.0751 C   0  0  0  0  0  0  0  0  0  0  0  0
   -1.6619    2.2333    3.0246 C   0  0  0  0  0  0  0  0  0  0  0  0
   -1.5602    0.2768    1.8901 C   0  0  0  0  0  0  0  0  0  0  0  0
   -0.5616    1.7201    3.7577 C   0  0  0  0  0  0  0  0  0  0  0  0
    1.3673   -3.9939    5.6825 C   0  0  0  0  0  0  0  0  0  0  0  0
    1.5293   -2.6022    5.6587 C   0  0  0  0  0  0  0  0  0  0  0  0
    0.6008   -3.9101    3.3800 C   0  0  0  0  0  0  0  0  0  0  0  0
    0.9258   -2.2406    0.9379 C   0  0  0  0  0  0  0  0  0  0  0  0
    0.4999   -1.6345   -0.4293 C   0  0  3  0  0  0  0  0  0  0  0  0
    0.9160   -4.6523    4.5382 C   0  0  0  0  0  0  0  0  0  0  0  0
   -0.3763   -0.3594    2.5223 C   0  0  0  0  0  0  0  0  0  0  0  0
    0.7371   -2.4869    3.3611 C   0  0  0  0  0  0  0  0  0  0  0  0
    0.0674    0.4436    3.5513 C   0  0  0  0  0  0  0  0  0  0  0  0
    1.2234   -1.8495    4.5156 C   0  0  0  0  0  0  0  0  0  0  0  0
   -0.9735   -1.9761   -0.7775 N   0  0  0  0  0  0  0  0  0  0  0  0
    2.1917   -7.1165    4.9076 N   0  0  0  0  0  0  0  0  0  0  0  0
    0.2670   -1.6628    2.2562 N   0  0  0  0  0  0  0  0  0  0  0  0
   -0.1825   -6.6925    5.7653 O   0  0  0  0  0  0  0  0  0  0  0  0
    0.2342   -6.8731    3.2859 O   0  0  0  0  0  0  0  0  0  0  0  0
    1.4410   -0.0666    4.5700 S   0  0  0  0  0  0  0  0  0  0  0  0
    0.6359   -6.4242    4.6274 S   0  0  0  0  0  0  0  0  0  0  0  0
    0.7316    0.3869    0.6161 H   0  0  0  0  0  0  0  0  0  0  0  0
    0.6079    0.5315   -1.1068 H   0  0  0  0  0  0  0  0  0  0  0  0
    2.0826   -0.0755   -0.3055 H   0  0  0  0  0  0  0  0  0  0  0  0
   -1.1718   -3.9896   -0.1476 H   0  0  0  0  0  0  0  0  0  0  0  0
   -2.5387   -3.2885   -0.9992 H   0  0  0  0  0  0  0  0  0  0  0  0
   -1.1050   -3.7054   -1.9398 H   0  0  0  0  0  0  0  0  0  0  0  0
   -1.5352   -2.4729    1.3010 H   0  0  0  0  0  0  0  0  0  0  0  0
   -1.1380   -0.9527    0.5026 H   0  0  0  0  0  0  0  0  0  0  0  0
   -2.7865   -1.6146    0.4040 H   0  0  0  0  0  0  0  0  0  0  0  0
    1.7640   -9.0678    4.1437 H   0  0  0  0  0  0  0  0  0  0  0  0
    3.1000   -9.0126    5.3046 H   0  0  0  0  0  0  0  0  0  0  0  0
    1.4430   -8.8751    5.8920 H   0  0  0  0  0  0  0  0  0  0  0  0
    2.9098   -7.1587    2.9066 H   0  0  0  0  0  0  0  0  0  0  0  0
    3.3699   -5.7037    3.8435 H   0  0  0  0  0  0  0  0  0  0  0  0
    4.1698   -7.2388    4.1534 H   0  0  0  0  0  0  0  0  0  0  0  0
   -3.0388    1.7294    1.4057 H   0  0  0  0  0  0  0  0  0  0  0  0
   -2.1030    3.2097    3.1470 H   0  0  0  0  0  0  0  0  0  0  0  0
   -2.1797    0.0211    1.0401 H   0  0  0  0  0  0  0  0  0  0  0  0
   -0.1794    2.3695    4.5284 H   0  0  0  0  0  0  0  0  0  0  0  0
    1.5736   -4.5448    6.5974 H   0  0  0  0  0  0  0  0  0  0  0  0
    1.8600   -2.0882    6.5573 H   0  0  0  0  0  0  0  0  0  0  0  0
    0.1735   -4.4491    2.5344 H   0  0  0  0  0  0  0  0  0  0  0  0
    0.6948   -3.3125    0.8457 H   0  0  0  0  0  0  0  0  0  0  0  0
    2.0277   -2.2221    1.0058 H   0  0  0  0  0  0  0  0  0  0  0  0
    1.0737   -2.0305   -1.2740 H   0  0  0  0  0  0  0  0  0  0  0  0
  1 27  1  0  0  0  0
  1 28  1  0  0  0  0
  1 29  1  0  0  0  0
  2 30  1  0  0  0  0
  2 31  1  0  0  0  0
  2 32  1  0  0  0  0
  3 33  1  0  0  0  0
  3 34  1  0  0  0  0
  3 35  1  0  0  0  0
  4 36  1  0  0  0  0
  4 37  1  0  0  0  0
  4 38  1  0  0  0  0
  5 39  1  0  0  0  0
  5 40  1  0  0  0  0
  5 41  1  0  0  0  0
  6 42  1  0  0  0  0
  7  6  2  0  0  0  0
  7 43  1  0  0  0  0
  8  6  1  0  0  0  0
  8 44  1  0  0  0  0
  9  7  1  0  0  0  0
  9 45  1  0  0  0  0
 10 46  1  0  0  0  0
 11 10  2  0  0  0  0
 11 47  1  0  0  0  0
 12 48  1  0  0  0  0
 13 49  1  0  0  0  0
 13 50  1  0  0  0  0
 14  1  1  0  0  0  0
 14 13  1  0  0  0  0
 14 51  1  0  0  0  0
 15 10  1  0  0  0  0
 15 12  2  0  0  0  0
 16  8  2  0  0  0  0
 17 12  1  0  0  0  0
 18  9  2  0  0  0  0
 18 16  1  0  0  0  0
 19 11  1  0  0  0  0
 19 17  2  0  0  0  0
 20  2  1  0  0  0  0
 20  3  1  0  0  0  0
 20 14  1  0  0  0  0
 21  4  1  0  0  0  0
 21  5  1  0  0  0  0
 22 13  1  0  0  0  0
 22 16  1  0  0  0  0
 22 17  1  0  0  0  0
 25 18  1  0  0  0  0
 25 19  1  0  0  0  0
 26 15  1  0  0  0  0
 26 21  1  0  0  0  0
 26 23  2  0  0  0  0
 26 24  2  0  0  0  0
M  END
>  <DRUGBANK_ID>
DB08967

>  <COMMON_NAME>
Dimetotiazine

>  <CAS_NUMBER>
7456-24-8

>  <UNII>
1FTA475ZDB

>  <SYNONYMS>
Dimetotiazine

$$$$
