861
 OpenBabel10282417113D

 26 27  0  0  0  0  0  0  0  0999 V2000
    2.3383    0.9420    0.0182 F   0  0  0  0  0  0  0  0  0  0  0  0
   -2.3605    0.8908   -0.0075 F   0  0  0  0  0  0  0  0  0  0  0  0
    6.0946   -4.0220    0.0252 O   0  0  0  0  0  0  0  0  0  0  0  0
    5.3342   -1.3339    3.2242 O   0  0  0  0  0  0  0  0  0  0  0  0
    6.6905   -2.8239    2.2378 O   0  0  0  0  0  0  0  0  0  0  0  0
    2.5096   -1.8891    0.0349 C   0  0  0  0  0  0  0  0  0  0  0  0
    1.2327   -1.1638    0.0114 C   0  0  0  0  0  0  0  0  0  0  0  0
    3.4215   -1.7004    1.0933 C   0  0  0  0  0  0  0  0  0  0  0  0
    2.8472   -2.7767   -0.9949 C   0  0  0  0  0  0  0  0  0  0  0  0
    4.6468   -2.3841    1.1360 C   0  0  0  0  0  0  0  0  0  0  0  0
    1.1936    0.2409    0.0102 C   0  0  0  0  0  0  0  0  0  0  0  0
    0.0100   -1.8575   -0.0023 C   0  0  0  0  0  0  0  0  0  0  0  0
    4.9451   -3.2776    0.0912 C   0  0  0  0  0  0  0  0  0  0  0  0
    4.0582   -3.4649   -0.9682 C   0  0  0  0  0  0  0  0  0  0  0  0
   -0.0072    0.9408    0.0030 C   0  0  0  0  0  0  0  0  0  0  0  0
   -1.2014   -1.1616   -0.0153 C   0  0  0  0  0  0  0  0  0  0  0  0
   -1.1968    0.2291   -0.0083 C   0  0  0  0  0  0  0  0  0  0  0  0
    5.6360   -2.1988    2.2370 C   0  0  0  0  0  0  0  0  0  0  0  0
    6.6474   -3.8255    0.8147 H   0  0  0  0  0  0  0  0  0  0  0  0
    4.4988   -0.8409    3.1863 H   0  0  0  0  0  0  0  0  0  0  0  0
    3.1314   -1.0044    1.8718 H   0  0  0  0  0  0  0  0  0  0  0  0
    2.1726   -2.9287   -1.8358 H   0  0  0  0  0  0  0  0  0  0  0  0
   -0.0050   -2.9464    0.0089 H   0  0  0  0  0  0  0  0  0  0  0  0
    4.3137   -4.1459   -1.7767 H   0  0  0  0  0  0  0  0  0  0  0  0
   -0.0116    2.0242    0.0054 H   0  0  0  0  0  0  0  0  0  0  0  0
   -2.1469   -1.6958   -0.0278 H   0  0  0  0  0  0  0  0  0  0  0  0
  1 11  1  0  0  0  0
  2 17  1  0  0  0  0
  3 13  1  0  0  0  0
  3 19  1  0  0  0  0
  4 18  1  0  0  0  0
  4 20  1  0  0  0  0
  5 18  2  0  0  0  0
  6  7  1  0  0  0  0
  6  8  2  0  0  0  0
  6  9  1  0  0  0  0
  7 11  2  0  0  0  0
  7 12  1  0  0  0  0
  8 10  1  0  0  0  0
  8 21  1  0  0  0  0
  9 14  2  0  0  0  0
  9 22  1  0  0  0  0
 10 13  2  0  0  0  0
 10 18  1  0  0  0  0
 11 15  1  0  0  0  0
 12 16  2  0  0  0  0
 12 23  1  0  0  0  0
 13 14  1  0  0  0  0
 14 24  1  0  0  0  0
 15 17  2  0  0  0  0
 15 25  1  0  0  0  0
 16 17  1  0  0  0  0
 16 26  1  0  0  0  0
M  END
>  <DRUGBANK_ID>
DB00861

>  <SECONDARY_ACCESSION_NUMBERS>
APRD00922; DB06895

>  <COMMON_NAME>
Diflunisal

>  <CAS_NUMBER>
22494-42-4

>  <UNII>
7C546U4DEN

>  <SYNONYMS>
2-(hydroxy)-5-(2,4-difluorophenyl)benzoic acid; 2',4'-difluoro-4-hydroxy-3-biphenylcarboxylic acid; 5-(2,4-difluorophenyl)salicylic acid; Diflunisal; Diflunisalum

$$$$
