
 OpenBabel10282417193D

 79 85  0  0  1  0  0  0  0  0999 V2000
    1.1212    0.1800   -0.1551 C   0  0  0  0  0  0  0  0  0  0  0  0
    0.4991    1.4227   -0.7196 C   0  0  0  0  0  0  0  0  0  0  0  0
    1.0482    1.5552   -2.1192 C   0  0  0  0  0  0  0  0  0  0  0  0
   -1.0126    1.3369   -0.5672 N   0  0  0  0  0  0  0  0  0  0  0  0
   -1.6757    2.4331    0.0769 C   0  0  0  0  0  0  0  0  0  0  0  0
   -2.4695    3.2638   -0.8940 C   0  0  0  0  0  0  0  0  0  0  0  0
   -3.5775    2.7198   -1.5360 C   0  0  0  0  0  0  0  0  0  0  0  0
   -4.3208    3.3716   -2.5057 C   0  0  0  0  0  0  0  0  0  0  0  0
   -4.1063    4.7217   -2.6513 C   0  0  0  0  0  0  0  0  0  0  0  0
   -3.1514    5.3468   -1.8466 C   0  0  0  0  0  0  0  0  0  0  0  0
   -2.2436    4.6094   -1.0824 C   0  0  0  0  0  0  0  0  0  0  0  0
   -1.7692    0.3513   -1.2022 C   0  0  0  0  0  0  0  0  0  0  0  0
   -1.2412    0.0293   -2.3197 O   0  0  0  0  0  0  0  0  0  0  0  0
   -3.3251   -0.7444   -0.4290 C   0  0  0  0  0  0  0  0  0  0  0  0
   -3.5764   -2.3916    0.7416 N   0  0  0  0  0  0  0  0  0  0  0  0
   -2.7388   -4.1853    1.5951 C   0  0  0  0  0  0  0  0  0  0  0  0
   -2.4645   -5.9357    1.6580 C   0  0  0  0  0  0  0  0  0  0  0  0
   -1.4869   -7.2618    0.9803 C   0  0  0  0  0  0  0  0  0  0  0  0
   -0.7057   -6.9283   -0.0128 C   0  0  0  0  0  0  0  0  0  0  0  0
   -0.4815   -5.6639    0.4438 C   0  0  0  0  0  0  0  0  0  0  0  0
   -1.1142   -4.6082    1.7964 C   0  0  0  0  0  0  0  0  0  0  0  0
   -0.2065   -3.1477    2.3919 N   0  0  0  0  0  0  0  0  0  0  0  0
    1.0235   -2.8127    2.8144 C   0  0  0  0  0  0  0  0  0  0  0  0
    1.1875   -1.4783    2.7286 N   0  0  0  0  0  0  0  0  0  0  0  0
    0.0595   -0.7342    2.2417 N   0  0  0  0  0  0  0  0  0  0  0  0
   -0.8064   -1.5801    1.8388 C   0  0  0  0  0  0  0  0  0  0  0  0
   -2.3018   -1.7810    0.5969 C   0  0  1  0  0  0  0  0  0  0  0  0
   -3.4365   -1.2042    1.4601 C   0  0  0  0  0  0  0  0  0  0  0  0
   -3.9488   -0.9401    2.5013 O   0  0  0  0  0  0  0  0  0  0  0  0
   -1.9873   -2.0025   -1.2514 C   0  0  0  0  0  0  0  0  0  0  0  0
   -0.9240   -2.7740   -1.0802 C   0  0  0  0  0  0  0  0  0  0  0  0
   -0.9122   -2.9762    0.5056 C   0  0  0  0  0  0  0  0  0  0  0  0
   -0.4361   -3.7191   -0.2852 N   0  0  0  0  0  0  0  0  0  0  0  0
    0.7290   -3.1560   -0.2757 C   0  0  0  0  0  0  0  0  0  0  0  0
    0.3496   -3.0671   -1.5238 C   0  0  0  0  0  0  0  0  0  0  0  0
    1.4008   -3.2365   -2.3223 C   0  0  0  0  0  0  0  0  0  0  0  0
    2.6506   -3.5521   -1.6677 C   0  0  0  0  0  0  0  0  0  0  0  0
    2.9264   -3.4885   -0.3192 C   0  0  0  0  0  0  0  0  0  0  0  0
    1.8392   -3.3787    0.3816 C   0  0  0  0  0  0  0  0  0  0  0  0
    1.8795   -3.8932    3.2963 C   0  0  0  0  0  0  0  0  0  0  0  0
    2.5159   -4.9934    2.5857 C   0  0  0  0  0  0  0  0  0  0  0  0
    3.6140   -5.6071    3.0791 C   0  0  0  0  0  0  0  0  0  0  0  0
    3.9027   -5.2894    4.3737 C   0  0  0  0  0  0  0  0  0  0  0  0
    3.1565   -4.3491    5.1069 C   0  0  0  0  0  0  0  0  0  0  0  0
    2.0351   -3.7602    4.6223 C   0  0  0  0  0  0  0  0  0  0  0  0
    0.7181   -0.7086   -0.6186 H   0  0  0  0  0  0  0  0  0  0  0  0
    0.8602    0.2580    0.8669 H   0  0  0  0  0  0  0  0  0  0  0  0
    2.2049    0.1092   -0.1293 H   0  0  0  0  0  0  0  0  0  0  0  0
    0.8708    2.2503   -0.0955 H   0  0  0  0  0  0  0  0  0  0  0  0
    0.7729    0.7072   -2.7453 H   0  0  0  0  0  0  0  0  0  0  0  0
    0.6762    2.4683   -2.5711 H   0  0  0  0  0  0  0  0  0  0  0  0
    2.1446    1.5455   -2.1026 H   0  0  0  0  0  0  0  0  0  0  0  0
   -2.3269    1.9812    0.8255 H   0  0  0  0  0  0  0  0  0  0  0  0
   -0.9528    3.0746    0.5873 H   0  0  0  0  0  0  0  0  0  0  0  0
   -3.9690    1.8236   -1.1071 H   0  0  0  0  0  0  0  0  0  0  0  0
   -5.1359    2.8657   -3.0141 H   0  0  0  0  0  0  0  0  0  0  0  0
   -4.7118    5.3023   -3.3379 H   0  0  0  0  0  0  0  0  0  0  0  0
   -3.1306    6.4271   -1.8060 H   0  0  0  0  0  0  0  0  0  0  0  0
   -1.4069    5.0866   -0.5862 H   0  0  0  0  0  0  0  0  0  0  0  0
   -3.6326    0.0484   -1.3414 H   0  0  0  0  0  0  0  0  0  0  0  0
   -3.9106   -1.0621   -1.3423 H   0  0  0  0  0  0  0  0  0  0  0  0
   -1.8391   -6.5360    2.7458 H   0  0  0  0  0  0  0  0  0  0  0  0
   -1.3191   -8.3698    1.2134 H   0  0  0  0  0  0  0  0  0  0  0  0
   -0.6107   -7.4121   -0.9955 H   0  0  0  0  0  0  0  0  0  0  0  0
   -0.8664   -5.3102   -0.6742 H   0  0  0  0  0  0  0  0  0  0  0  0
   -2.7273   -3.0503   -0.2940 H   0  0  0  0  0  0  0  0  0  0  0  0
   -2.7936   -2.1439   -2.0019 H   0  0  0  0  0  0  0  0  0  0  0  0
   -1.2767   -1.2907   -1.1464 H   0  0  0  0  0  0  0  0  0  0  0  0
   -1.7371   -2.9071    1.8078 H   0  0  0  0  0  0  0  0  0  0  0  0
   -1.4419   -3.8455    0.0436 H   0  0  0  0  0  0  0  0  0  0  0  0
    1.2008   -3.1923   -3.3480 H   0  0  0  0  0  0  0  0  0  0  0  0
    3.4689   -3.8927   -2.2367 H   0  0  0  0  0  0  0  0  0  0  0  0
    3.7823   -3.6759    0.2986 H   0  0  0  0  0  0  0  0  0  0  0  0
    1.6636   -3.9036    1.2330 H   0  0  0  0  0  0  0  0  0  0  0  0
    2.3323   -5.3660    1.5641 H   0  0  0  0  0  0  0  0  0  0  0  0
    4.2047   -6.2493    2.4343 H   0  0  0  0  0  0  0  0  0  0  0  0
    4.7014   -5.8146    4.8579 H   0  0  0  0  0  0  0  0  0  0  0  0
    3.4971   -4.0023    6.0598 H   0  0  0  0  0  0  0  0  0  0  0  0
    1.3498   -3.1018    5.1469 H   0  0  0  0  0  0  0  0  0  0  0  0
  1  2  1  0  0  0  0
  1 46  1  0  0  0  0
  1 47  1  0  0  0  0
  1 48  1  0  0  0  0
  2  3  1  0  0  0  0
  2  4  1  0  0  0  0
  2 49  1  0  0  0  0
  3 50  1  0  0  0  0
  3 51  1  0  0  0  0
  3 52  1  0  0  0  0
  4  5  1  0  0  0  0
  4 12  1  0  0  0  0
  5  6  1  0  0  0  0
  5 53  1  0  0  0  0
  5 54  1  0  0  0  0
  6  7  2  0  0  0  0
  6 11  1  0  0  0  0
  7  8  1  0  0  0  0
  7 55  1  0  0  0  0
  8  9  2  0  0  0  0
  8 56  1  0  0  0  0
  9 10  1  0  0  0  0
  9 57  1  0  0  0  0
 10 11  2  0  0  0  0
 10 58  1  0  0  0  0
 11 59  1  0  0  0  0
 12 13  2  0  0  0  0
 12 14  1  0  0  0  0
 14 15  1  0  0  0  0
 14 60  1  0  0  0  0
 14 61  1  0  0  0  0
 15 16  1  0  0  0  0
 15 28  1  0  0  0  0
 16 17  2  0  0  0  0
 16 21  1  0  0  0  0
 17 18  1  0  0  0  0
 17 62  1  0  0  0  0
 18 19  2  0  0  0  0
 18 63  1  0  0  0  0
 19 20  1  0  0  0  0
 19 64  1  0  0  0  0
 20 21  2  0  0  0  0
 20 65  1  0  0  0  0
 21 22  1  0  0  0  0
 22 23  1  0  0  0  0
 22 26  1  0  0  0  0
 23 24  2  0  0  0  0
 23 40  1  0  0  0  0
 24 25  1  0  0  0  0
 25 26  2  0  0  0  0
 26 27  1  0  0  0  0
 27 28  1  0  0  0  0
 27 66  1  1  0  0  0
 27 30  1  0  0  0  0
 28 29  2  0  0  0  0
 30 31  1  0  0  0  0
 30 67  1  0  0  0  0
 30 68  1  0  0  0  0
 31 32  2  0  0  0  0
 31 35  1  0  0  0  0
 32 33  1  0  0  0  0
 32 69  1  0  0  0  0
 33 34  1  0  0  0  0
 33 70  1  0  0  0  0
 34 35  1  0  0  0  0
 34 39  2  0  0  0  0
 35 36  2  0  0  0  0
 36 37  1  0  0  0  0
 36 71  1  0  0  0  0
 37 38  2  0  0  0  0
 37 72  1  0  0  0  0
 38 39  1  0  0  0  0
 38 73  1  0  0  0  0
 39 74  1  0  0  0  0
 40 41  2  0  0  0  0
 40 45  1  0  0  0  0
 41 42  1  0  0  0  0
 41 75  1  0  0  0  0
 42 43  2  0  0  0  0
 42 76  1  0  0  0  0
 43 44  1  0  0  0  0
 43 77  1  0  0  0  0
 44 45  2  0  0  0  0
 44 78  1  0  0  0  0
 45 79  1  0  0  0  0
M  END
>  <DRUGBANK_ID>
DB12694

>  <COMMON_NAME>
CE-326597

>  <CAS_NUMBER>
870615-40-0

>  <UNII>
1FGZ6L9SF2

$$$$
