369
 OpenBabel10282417103D

 32 32  0  0  1  0  0  0  0  0999 V2000
    0.9385    0.0262    0.0743 P   0  0  0  0  0  0  0  0  0  0  0  0
    3.1704   -1.2738   -0.2941 O   0  0  0  0  0  0  0  0  0  0  0  0
    0.7750   -2.7155   -0.6573 O   0  0  0  0  0  0  0  0  0  0  0  0
    0.9876    1.2297    1.1861 O   0  0  0  0  0  0  0  0  0  0  0  0
    0.9908    0.9476   -1.2936 O   0  0  0  0  0  0  0  0  0  0  0  0
   -0.6099    0.0262    0.0743 O   0  0  0  0  0  0  0  0  0  0  0  0
    4.9855    0.4000    1.7741 O   0  0  0  0  0  0  0  0  0  0  0  0
    3.1739   -0.6303    2.8251 N   0  0  0  0  0  0  0  0  0  0  0  0
    3.4735    1.7730    2.7739 N   0  0  0  0  0  0  0  0  0  0  0  0
    1.8943    3.1014    3.8069 N   0  0  0  0  0  0  0  0  0  0  0  0
    2.8064   -2.2607    0.6936 C   0  0  1  0  0  0  0  0  0  0  0  0
    3.3983   -1.9595    2.1379 C   0  0  0  0  0  0  0  0  0  0  0  0
    1.2964   -2.6162    0.6719 C   0  0  0  0  0  0  0  0  0  0  0  0
    2.7685    0.0262    0.0743 C   0  0  0  0  0  0  0  0  0  0  0  0
    2.1725   -0.4777    3.7647 C   0  0  0  0  0  0  0  0  0  0  0  0
    3.9886    0.5202    2.5161 C   0  0  0  0  0  0  0  0  0  0  0  0
    1.9619    0.7090    4.3383 C   0  0  0  0  0  0  0  0  0  0  0  0
    2.4919    1.8871    3.6178 C   0  0  0  0  0  0  0  0  0  0  0  0
    1.1895   -2.0855   -1.2773 H   0  0  0  0  0  0  0  0  0  0  0  0
    0.4781    0.9408    1.9668 H   0  0  0  0  0  0  0  0  0  0  0  0
    1.8243    1.0265   -1.7895 H   0  0  0  0  0  0  0  0  0  0  0  0
    1.3337    3.3175    4.6198 H   0  0  0  0  0  0  0  0  0  0  0  0
    2.1295    3.8753    3.1928 H   0  0  0  0  0  0  0  0  0  0  0  0
    3.2878   -3.1739    0.3160 H   0  0  0  0  0  0  0  0  0  0  0  0
    3.0359   -2.7496    2.8001 H   0  0  0  0  0  0  0  0  0  0  0  0
    4.4818   -2.0471    2.0301 H   0  0  0  0  0  0  0  0  0  0  0  0
    1.0704   -3.5538    1.1767 H   0  0  0  0  0  0  0  0  0  0  0  0
    0.7088   -1.8920    1.2388 H   0  0  0  0  0  0  0  0  0  0  0  0
    3.2792    0.8360   -0.4496 H   0  0  0  0  0  0  0  0  0  0  0  0
    2.7389    0.1797    1.0844 H   0  0  0  0  0  0  0  0  0  0  0  0
    1.6279   -1.3637    4.0711 H   0  0  0  0  0  0  0  0  0  0  0  0
    1.3371    0.8722    5.2019 H   0  0  0  0  0  0  0  0  0  0  0  0
  1  4  1  0  0  0  0
  1  5  1  0  0  0  0
  1  6  2  0  0  0  0
  1 14  1  0  0  0  0
  2 14  1  0  0  0  0
  3 13  1  0  0  0  0
  3 19  1  0  0  0  0
  4 20  1  0  0  0  0
  5 21  1  0  0  0  0
  7 16  2  0  0  0  0
  8 12  1  0  0  0  0
  8 15  1  0  0  0  0
  8 16  1  0  0  0  0
  9 16  1  0  0  0  0
  9 18  2  0  0  0  0
 10 18  1  0  0  0  0
 10 22  1  0  0  0  0
 10 23  1  0  0  0  0
 11  2  1  0  0  0  0
 11 12  1  0  0  0  0
 11 13  1  0  0  0  0
 11 24  1  6  0  0  0
 12 25  1  0  0  0  0
 12 26  1  0  0  0  0
 13 27  1  0  0  0  0
 13 28  1  0  0  0  0
 14 29  1  0  0  0  0
 14 30  1  0  0  0  0
 15 17  2  0  0  0  0
 15 31  1  0  0  0  0
 17 18  1  0  0  0  0
 17 32  1  0  0  0  0
M  END
>  <DRUGBANK_ID>
DB00369

>  <SECONDARY_ACCESSION_NUMBERS>
APRD00148

>  <COMMON_NAME>
Cidofovir

>  <CAS_NUMBER>
113852-37-2

>  <UNII>
768M1V522C

>  <SYNONYMS>
({[(S)-1-(4-amino-2-oxo-1,2-dihydropyrimidin-1-yl)-3-hydroxypropan-2-yl]oxy}methyl)phosphonic acid; (S)-(3-(4-amino-2-Oxopyrimidin-1(2H)-yl)-1-hydroxypropan-2-yloxy)methylphosphonic acid; (S)-1-(3-Hydroxy-2-phosphonomethoxypropyl)cytosine; (S)-1-[3-Hydroxy-2-(phosphonomethoxy)propyl]cytosine; (S)-1-[3-Hydroxy-2-(phosphonylmethoxy)propyl]cytosine; (S)-HPMPC; [(S)-2-(4-Amino-2-oxo-2H-pyrimidin-1-yl)-1-hydroxymethyl-ethoxymethyl]-phosphonic acid; [[(S)-2-(4-amino-2-oxo-1(2H)-pyrimidinyl)-1-(hydroxymethyl)ethoxy]methyl]phosphonic acid; 1-(S)-[3-Hydroxy-2-(phosphonomethoxy)propyl]cytosine; 1-[(S)-3-Hydroxy-2-(phosphonomethoxy)propyl]cytosine; CDV; Cidofovir; Cidofovir anhydrous; Cidofovirum

$$$$
