
 OpenBabel10282417203D

 47 51  0  0  1  0  0  0  0  0999 V2000
    0.9082    0.1042   -0.0628 C   0  0  0  0  0  0  0  0  0  0  0  0
    0.5604    0.3271   -1.4712 N   0  0  0  0  0  0  0  0  0  0  0  0
    1.5316    1.1612   -2.2046 C   0  0  2  0  0  0  0  0  0  0  0  0
    1.0885    0.9836   -3.6689 C   0  0  0  0  0  0  0  0  0  0  0  0
    0.4424   -0.3915   -3.7119 C   0  0  0  0  0  0  0  0  0  0  0  0
    0.5660   -0.9028   -2.2743 C   0  0  1  0  0  0  0  0  0  0  0  0
    1.8781   -1.6796   -2.1261 C   0  0  0  0  0  0  0  0  0  0  0  0
    3.1767   -0.8505   -2.0360 C   0  0  0  0  0  0  0  0  0  0  0  0
    4.3757   -1.4744   -1.7908 C   0  0  0  0  0  0  0  0  0  0  0  0
    4.3034   -2.9477   -1.6287 C   0  0  0  0  0  0  0  0  0  0  0  0
    3.9914   -3.7775   -2.7156 C   0  0  0  0  0  0  0  0  0  0  0  0
    3.8149   -5.1429   -2.5287 C   0  0  0  0  0  0  0  0  0  0  0  0
    4.0317   -5.7023   -1.2713 C   0  0  0  0  0  0  0  0  0  0  0  0
    4.3681   -4.8896   -0.1905 C   0  0  0  0  0  0  0  0  0  0  0  0
    4.4586   -3.5040   -0.3482 C   0  0  0  0  0  0  0  0  0  0  0  0
    4.7620   -2.6248    0.8282 C   0  0  0  0  0  0  0  0  0  0  0  0
    6.4982   -2.1631    0.8303 S   0  0  0  0  0  0  0  0  0  0  0  0
    6.5996   -1.0130   -0.5482 C   0  0  0  0  0  0  0  0  0  0  0  0
    5.6692   -0.7458   -1.5882 C   0  0  0  0  0  0  0  0  0  0  0  0
    6.0489    0.1888   -2.5737 C   0  0  0  0  0  0  0  0  0  0  0  0
    7.2600    0.8768   -2.5185 C   0  0  0  0  0  0  0  0  0  0  0  0
    8.1564    0.6120   -1.4962 C   0  0  0  0  0  0  0  0  0  0  0  0
    7.8292   -0.3286   -0.5293 C   0  0  0  0  0  0  0  0  0  0  0  0
    2.9946    0.6712   -2.0498 C   0  0  0  0  0  0  0  0  0  0  0  0
    0.4422   -0.8114    0.3198 H   0  0  0  0  0  0  0  0  0  0  0  0
    0.5504    0.9352    0.5503 H   0  0  0  0  0  0  0  0  0  0  0  0
    1.9792    0.0048    0.1434 H   0  0  0  0  0  0  0  0  0  0  0  0
    1.4573    2.2165   -1.9206 H   0  0  0  0  0  0  0  0  0  0  0  0
    1.9235    1.0450   -4.3768 H   0  0  0  0  0  0  0  0  0  0  0  0
    0.3544    1.7420   -3.9605 H   0  0  0  0  0  0  0  0  0  0  0  0
    0.9416   -1.0419   -4.4411 H   0  0  0  0  0  0  0  0  0  0  0  0
   -0.6064   -0.3102   -4.0173 H   0  0  0  0  0  0  0  0  0  0  0  0
   -0.2824   -1.5554   -2.0365 H   0  0  0  0  0  0  0  0  0  0  0  0
    1.9328   -2.3500   -2.9886 H   0  0  0  0  0  0  0  0  0  0  0  0
    1.7848   -2.2988   -1.2244 H   0  0  0  0  0  0  0  0  0  0  0  0
    3.8168   -3.3444   -3.6996 H   0  0  0  0  0  0  0  0  0  0  0  0
    3.5084   -5.7678   -3.3621 H   0  0  0  0  0  0  0  0  0  0  0  0
    3.9379   -6.7737   -1.1301 H   0  0  0  0  0  0  0  0  0  0  0  0
    4.5582   -5.3387    0.7818 H   0  0  0  0  0  0  0  0  0  0  0  0
    4.1253   -1.7338    0.8643 H   0  0  0  0  0  0  0  0  0  0  0  0
    4.5669   -3.1639    1.7615 H   0  0  0  0  0  0  0  0  0  0  0  0
    5.4063    0.3767   -3.4312 H   0  0  0  0  0  0  0  0  0  0  0  0
    7.5107    1.5989   -3.2894 H   0  0  0  0  0  0  0  0  0  0  0  0
    9.1168    1.1139   -1.4537 H   0  0  0  0  0  0  0  0  0  0  0  0
    8.5584   -0.5394    0.2529 H   0  0  0  0  0  0  0  0  0  0  0  0
    3.3956    1.0839   -1.1148 H   0  0  0  0  0  0  0  0  0  0  0  0
    3.5648    1.1200   -2.8659 H   0  0  0  0  0  0  0  0  0  0  0  0
  1  2  1  0  0  0  0
  1 25  1  0  0  0  0
  1 26  1  0  0  0  0
  1 27  1  0  0  0  0
  3  2  1  0  0  0  0
  3  4  1  0  0  0  0
  3 24  1  0  0  0  0
  3 28  1  1  0  0  0
  4  5  1  0  0  0  0
  4 29  1  0  0  0  0
  4 30  1  0  0  0  0
  5  6  1  0  0  0  0
  5 31  1  0  0  0  0
  5 32  1  0  0  0  0
  6  2  1  0  0  0  0
  6  7  1  0  0  0  0
  6 33  1  1  0  0  0
  7 34  1  0  0  0  0
  7 35  1  0  0  0  0
  8  7  1  0  0  0  0
  8  9  2  3  0  0  0
  8 24  1  0  0  0  0
  9 10  1  0  0  0  0
  9 19  1  0  0  0  0
 10 11  2  0  0  0  0
 10 15  1  0  0  0  0
 11 12  1  0  0  0  0
 11 36  1  0  0  0  0
 12 13  2  0  0  0  0
 12 37  1  0  0  0  0
 13 14  1  0  0  0  0
 13 38  1  0  0  0  0
 14 15  2  0  0  0  0
 14 39  1  0  0  0  0
 15 16  1  0  0  0  0
 16 17  1  0  0  0  0
 16 40  1  0  0  0  0
 16 41  1  0  0  0  0
 17 18  1  0  0  0  0
 18 19  2  0  0  0  0
 18 23  1  0  0  0  0
 19 20  1  0  0  0  0
 20 21  2  0  0  0  0
 20 42  1  0  0  0  0
 21 22  1  0  0  0  0
 21 43  1  0  0  0  0
 22 23  2  0  0  0  0
 22 44  1  0  0  0  0
 23 45  1  0  0  0  0
 24 46  1  0  0  0  0
 24 47  1  0  0  0  0
M  END
>  <DRUGBANK_ID>
DB13252

>  <COMMON_NAME>
Tropatepine

>  <CAS_NUMBER>
27574-24-9

>  <UNII>
C27HY5RFU5

>  <SYNONYMS>
Tropatepine

$$$$
