
 OpenBabel10282417223D

 81 85  0  0  1  0  0  0  0  0999 V2000
    1.0009    0.0703    0.1261 C   0  0  0  0  0  0  0  0  0  0  0  0
    0.5781   -1.2878    0.2292 O   0  0  0  0  0  0  0  0  0  0  0  0
    1.1293   -2.0714   -0.8339 C   0  0  2  0  0  0  0  0  0  0  0  0
    0.5718   -3.4735   -0.8359 C   0  0  2  0  0  0  0  0  0  0  0  0
   -0.9169   -3.5097   -0.5118 O   0  0  0  0  0  0  0  0  0  0  0  0
   -1.7548   -3.8300   -1.9910 P   0  0  3  0  0  0  0  0  0  0  0  0
   -1.1210   -5.1807   -2.2723 O   0  0  0  0  0  0  0  0  0  0  0  0
   -3.1842   -3.8323   -1.1306 O   0  0  0  0  0  0  0  0  0  0  0  0
   -3.1877   -3.5023    0.2663 C   0  0  0  0  0  0  0  0  0  0  0  0
   -2.5496   -4.6770    1.0773 C   0  0  1  0  0  0  0  0  0  0  0  0
   -3.4268   -5.4812    1.8642 O   0  0  0  0  0  0  0  0  0  0  0  0
   -3.0629   -6.8908    1.6355 C   0  0  2  0  0  0  0  0  0  0  0  0
   -1.7532   -6.9661    0.9629 C   0  0  0  0  0  0  0  0  0  0  0  0
   -1.9092   -5.7464    0.1975 C   0  0  2  0  0  0  0  0  0  0  0  0
   -0.5706   -5.5396    0.0452 O   0  0  0  0  0  0  0  0  0  0  0  0
   -4.0468   -7.5037    0.7807 N   0  0  0  0  0  0  0  0  0  0  0  0
   -5.1367   -6.8889    0.2356 C   0  0  0  0  0  0  0  0  0  0  0  0
   -5.8437   -7.7240   -0.4893 N   0  0  0  0  0  0  0  0  0  0  0  0
   -5.1084   -8.8939   -0.4841 C   0  0  0  0  0  0  0  0  0  0  0  0
   -3.9496   -8.7595    0.2490 C   0  0  0  0  0  0  0  0  0  0  0  0
   -2.9761   -9.6721    0.4184 N   0  0  0  0  0  0  0  0  0  0  0  0
   -3.2771  -10.8188   -0.2196 C   0  0  0  0  0  0  0  0  0  0  0  0
   -4.3991  -11.1142   -0.9119 N   0  0  0  0  0  0  0  0  0  0  0  0
   -5.3381  -10.1498   -1.0507 C   0  0  0  0  0  0  0  0  0  0  0  0
   -6.5036  -10.4266   -1.7218 N   0  0  0  0  0  0  0  0  0  0  0  0
   -2.7816   -4.2225   -3.8038 S   0  0  0  0  0  0  0  0  0  0  0  0
   -1.5564   -4.7154   -5.0239 C   0  0  0  0  0  0  0  0  0  0  0  0
   -0.5426   -3.7280   -5.2558 O   0  0  0  0  0  0  0  0  0  0  0  0
   -1.0142   -2.5912   -5.8087 C   0  0  0  0  0  0  0  0  0  0  0  0
   -2.2009   -2.3764   -6.0814 O   0  0  0  0  0  0  0  0  0  0  0  0
   -0.0126   -1.6915   -5.9389 O   0  0  0  0  0  0  0  0  0  0  0  0
   -0.3657   -0.3792   -6.4357 C   0  0  0  0  0  0  0  0  0  0  0  0
   -0.9903   -0.4307   -7.8294 C   0  0  0  0  0  0  0  0  0  0  0  0
   -1.2466    0.3745   -5.4400 C   0  0  0  0  0  0  0  0  0  0  0  0
    1.5326   -4.2582    0.1552 C   0  0  1  0  0  0  0  0  0  0  0  0
    1.8745   -5.7599   -0.2532 C   0  0  0  0  0  0  0  0  0  0  0  0
    1.3896   -6.8240    0.5850 O   0  0  0  0  0  0  0  0  0  0  0  0
    2.7426   -3.4936    0.2234 O   0  0  0  0  0  0  0  0  0  0  0  0
    2.6335   -2.3587   -0.6324 C   0  0  1  0  0  0  0  0  0  0  0  0
    3.3526   -2.5441   -1.9000 N   0  0  0  0  0  0  0  0  0  0  0  0
    3.3927   -1.4721   -2.7774 C   0  0  0  0  0  0  0  0  0  0  0  0
    4.0368   -1.5344   -3.9431 C   0  0  0  0  0  0  0  0  0  0  0  0
    4.7434   -2.7712   -4.3011 C   0  0  0  0  0  0  0  0  0  0  0  0
    5.3663   -2.8669   -5.3491 O   0  0  0  0  0  0  0  0  0  0  0  0
    4.6589   -3.7748   -3.3949 N   0  0  0  0  0  0  0  0  0  0  0  0
    4.0257   -3.7220   -2.1944 C   0  0  0  0  0  0  0  0  0  0  0  0
    4.1122   -4.7237   -1.4996 O   0  0  0  0  0  0  0  0  0  0  0  0
    0.6001    0.6308    0.9706 H   0  0  0  0  0  0  0  0  0  0  0  0
    0.6371    0.5043   -0.8102 H   0  0  0  0  0  0  0  0  0  0  0  0
    2.0904    0.1488    0.1556 H   0  0  0  0  0  0  0  0  0  0  0  0
    0.8761   -1.5732   -1.7783 H   0  0  0  0  0  0  0  0  0  0  0  0
    0.7312   -3.8703   -1.8483 H   0  0  0  0  0  0  0  0  0  0  0  0
   -2.6425   -2.5431    0.3796 H   0  0  0  0  0  0  0  0  0  0  0  0
   -4.1999   -3.2629    0.6008 H   0  0  0  0  0  0  0  0  0  0  0  0
   -1.8254   -4.2011    1.7618 H   0  0  0  0  0  0  0  0  0  0  0  0
   -2.9932   -7.4069    2.5856 H   0  0  0  0  0  0  0  0  0  0  0  0
   -1.4897   -7.7514    0.2369 H   0  0  0  0  0  0  0  0  0  0  0  0
   -0.9222   -6.8951    1.6700 H   0  0  0  0  0  0  0  0  0  0  0  0
   -2.4615   -5.9417   -0.7275 H   0  0  0  0  0  0  0  0  0  0  0  0
   -0.5097   -4.6499    0.4135 H   0  0  0  0  0  0  0  0  0  0  0  0
   -5.3613   -5.8433    0.4084 H   0  0  0  0  0  0  0  0  0  0  0  0
   -2.5370  -11.6124   -0.1514 H   0  0  0  0  0  0  0  0  0  0  0  0
   -7.1881   -9.6868   -1.8017 H   0  0  0  0  0  0  0  0  0  0  0  0
   -6.6446  -11.3496   -2.0908 H   0  0  0  0  0  0  0  0  0  0  0  0
   -1.0707   -5.6461   -4.7136 H   0  0  0  0  0  0  0  0  0  0  0  0
   -2.0679   -4.9540   -5.9666 H   0  0  0  0  0  0  0  0  0  0  0  0
    0.5802    0.1708   -6.5201 H   0  0  0  0  0  0  0  0  0  0  0  0
   -1.9263   -0.9938   -7.8456 H   0  0  0  0  0  0  0  0  0  0  0  0
   -1.2192    0.5737   -8.1958 H   0  0  0  0  0  0  0  0  0  0  0  0
   -0.3157   -0.9266   -8.5335 H   0  0  0  0  0  0  0  0  0  0  0  0
   -0.7472    0.4557   -4.4691 H   0  0  0  0  0  0  0  0  0  0  0  0
   -1.4813    1.3793   -5.8036 H   0  0  0  0  0  0  0  0  0  0  0  0
   -2.1952   -0.1391   -5.2615 H   0  0  0  0  0  0  0  0  0  0  0  0
    1.1268   -4.2290    1.1735 H   0  0  0  0  0  0  0  0  0  0  0  0
    1.5352   -5.9670   -1.2771 H   0  0  0  0  0  0  0  0  0  0  0  0
    2.9378   -5.9396   -0.1836 H   0  0  0  0  0  0  0  0  0  0  0  0
    1.0502   -6.4369    1.4022 H   0  0  0  0  0  0  0  0  0  0  0  0
    3.1471   -1.5606   -0.0942 H   0  0  0  0  0  0  0  0  0  0  0  0
    2.8753   -0.5605   -2.4885 H   0  0  0  0  0  0  0  0  0  0  0  0
    4.0793   -0.7158   -4.6463 H   0  0  0  0  0  0  0  0  0  0  0  0
    5.1380   -4.6416   -3.5831 H   0  0  0  0  0  0  0  0  0  0  0  0
  1  2  1  0  0  0  0
  1 48  1  0  0  0  0
  1 49  1  0  0  0  0
  1 50  1  0  0  0  0
  3  2  1  0  0  0  0
  3  4  1  0  0  0  0
  3 39  1  0  0  0  0
  3 51  1  6  0  0  0
  4 35  1  0  0  0  0
  4 52  1  6  0  0  0
  4  5  1  0  0  0  0
  5  6  1  0  0  0  0
  6  7  2  0  0  0  0
  6  8  1  0  0  0  0
  6 26  1  0  0  0  0
  8  9  1  0  0  0  0
  9 53  1  0  0  0  0
  9 54  1  0  0  0  0
 10  9  1  0  0  0  0
 10 11  1  0  0  0  0
 10 14  1  0  0  0  0
 10 55  1  1  0  0  0
 12 11  1  0  0  0  0
 12 13  1  0  0  0  0
 12 16  1  0  0  0  0
 12 56  1  1  0  0  0
 13 57  1  0  0  0  0
 13 58  1  0  0  0  0
 14 13  1  0  0  0  0
 14 59  1  6  0  0  0
 14 15  1  0  0  0  0
 15 60  1  0  0  0  0
 16 17  1  0  0  0  0
 16 20  1  0  0  0  0
 17 18  2  0  0  0  0
 17 61  1  0  0  0  0
 18 19  1  0  0  0  0
 19 20  2  0  0  0  0
 19 24  1  0  0  0  0
 20 21  1  0  0  0  0
 21 22  2  0  0  0  0
 22 23  1  0  0  0  0
 22 62  1  0  0  0  0
 23 24  2  0  0  0  0
 24 25  1  0  0  0  0
 25 63  1  0  0  0  0
 25 64  1  0  0  0  0
 26 27  1  0  0  0  0
 27 28  1  0  0  0  0
 27 65  1  0  0  0  0
 27 66  1  0  0  0  0
 28 29  1  0  0  0  0
 29 30  2  0  0  0  0
 29 31  1  0  0  0  0
 31 32  1  0  0  0  0
 32 33  1  0  0  0  0
 32 34  1  0  0  0  0
 32 67  1  0  0  0  0
 33 68  1  0  0  0  0
 33 69  1  0  0  0  0
 33 70  1  0  0  0  0
 34 71  1  0  0  0  0
 34 72  1  0  0  0  0
 34 73  1  0  0  0  0
 35 38  1  0  0  0  0
 35 74  1  1  0  0  0
 35 36  1  0  0  0  0
 36 37  1  0  0  0  0
 36 75  1  0  0  0  0
 36 76  1  0  0  0  0
 37 77  1  0  0  0  0
 39 38  1  0  0  0  0
 39 40  1  0  0  0  0
 39 78  1  1  0  0  0
 40 41  1  0  0  0  0
 40 46  1  0  0  0  0
 41 42  2  0  0  0  0
 41 79  1  0  0  0  0
 42 43  1  0  0  0  0
 42 80  1  0  0  0  0
 43 44  2  0  0  0  0
 43 45  1  0  0  0  0
 45 46  1  0  0  0  0
 45 81  1  0  0  0  0
 46 47  2  0  0  0  0
M  END
>  <DRUGBANK_ID>
DB15063

>  <COMMON_NAME>
Inarigivir soproxil

>  <CAS_NUMBER>
942123-43-5

>  <UNII>
365052M0DK

>  <SYNONYMS>
Inarigivir soproxil

$$$$
