
 OpenBabel10282417103D

 35 37  0  0  0  0  0  0  0  0999 V2000
    1.4812    0.1783   -0.0025 O   0  0  0  0  0  0  0  0  0  0  0  0
    1.7091    3.6164   -0.0187 N   0  0  0  0  0  0  0  0  0  0  0  0
   -0.5086    1.9710   -2.3432 N   0  0  0  0  0  0  0  0  0  0  0  0
   -1.6893    1.4689   -0.3082 N   0  0  0  0  0  0  0  0  0  0  0  0
    0.3482    2.7248   -1.6042 C   0  0  0  0  0  0  0  0  0  0  0  0
    0.9230    2.5291   -0.3613 C   0  0  0  0  0  0  0  0  0  0  0  0
    1.6256    4.4388   -1.0495 C   0  0  0  0  0  0  0  0  0  0  0  0
    0.7335    1.3086    0.4993 C   0  0  1  0  0  0  0  0  0  0  0  0
   -0.7383    0.8182    0.6034 C   0  0  0  0  0  0  0  0  0  0  0  0
   -1.4394    1.4012   -1.6614 C   0  0  0  0  0  0  0  0  0  0  0  0
    0.8154    3.9404   -2.0335 N   0  0  0  0  0  0  0  0  0  0  0  0
    0.4872    4.5301   -3.3129 C   0  0  1  0  0  0  0  0  0  0  0  0
    0.1444    6.4389   -4.6409 C   0  0  1  0  0  0  0  0  0  0  0  0
   -0.2241    5.8752   -3.2869 C   0  0  0  0  0  0  0  0  0  0  0  0
    1.5456    5.8976   -4.8929 C   0  0  2  0  0  0  0  0  0  0  0  0
    1.6848    4.6938   -4.0974 O   0  0  0  0  0  0  0  0  0  0  0  0
    2.6888    6.8124   -4.4658 C   0  0  0  0  0  0  0  0  0  0  0  0
    3.9101    6.2139   -4.9099 O   0  0  0  0  0  0  0  0  0  0  0  0
   -0.7694    5.9263   -5.6186 O   0  0  0  0  0  0  0  0  0  0  0  0
    2.4166    0.4363    0.0000 H   0  0  0  0  0  0  0  0  0  0  0  0
   -2.6518    1.3156   -0.0359 H   0  0  0  0  0  0  0  0  0  0  0  0
    2.1318    5.3936   -1.1374 H   0  0  0  0  0  0  0  0  0  0  0  0
    1.1114    1.4980    1.5108 H   0  0  0  0  0  0  0  0  0  0  0  0
   -1.0998    0.9517    1.6293 H   0  0  0  0  0  0  0  0  0  0  0  0
   -0.7799   -0.2649    0.4151 H   0  0  0  0  0  0  0  0  0  0  0  0
   -2.1772    0.7741   -2.1932 H   0  0  0  0  0  0  0  0  0  0  0  0
   -0.1316    3.8158   -3.8655 H   0  0  0  0  0  0  0  0  0  0  0  0
    0.0821    7.5293   -4.6918 H   0  0  0  0  0  0  0  0  0  0  0  0
    0.1569    6.5245   -2.4922 H   0  0  0  0  0  0  0  0  0  0  0  0
   -1.3038    5.7501   -3.1506 H   0  0  0  0  0  0  0  0  0  0  0  0
    1.6811    5.6042   -5.9401 H   0  0  0  0  0  0  0  0  0  0  0  0
    2.6134    7.8094   -4.9078 H   0  0  0  0  0  0  0  0  0  0  0  0
    2.7575    6.9020   -3.3768 H   0  0  0  0  0  0  0  0  0  0  0  0
    3.8101    5.2539   -4.7453 H   0  0  0  0  0  0  0  0  0  0  0  0
   -0.6336    4.9663   -5.7209 H   0  0  0  0  0  0  0  0  0  0  0  0
  1 20  1  0  0  0  0
  2  6  1  0  0  0  0
  2  7  2  0  0  0  0
  3  5  1  0  0  0  0
  3 10  2  0  0  0  0
  4  9  1  0  0  0  0
  4 10  1  0  0  0  0
  4 21  1  0  0  0  0
  5 11  1  0  0  0  0
  5  6  2  0  0  0  0
  6  8  1  0  0  0  0
  7 11  1  0  0  0  0
  7 22  1  0  0  0  0
  8  1  1  0  0  0  0
  8  9  1  0  0  0  0
  8 23  1  1  0  0  0
  9 24  1  0  0  0  0
  9 25  1  0  0  0  0
 10 26  1  0  0  0  0
 12 11  1  0  0  0  0
 12 14  1  0  0  0  0
 12 16  1  0  0  0  0
 12 27  1  6  0  0  0
 13 14  1  0  0  0  0
 13 15  1  0  0  0  0
 13 19  1  0  0  0  0
 13 28  1  1  0  0  0
 14 29  1  0  0  0  0
 14 30  1  0  0  0  0
 15 16  1  0  0  0  0
 15 31  1  6  0  0  0
 15 17  1  0  0  0  0
 17 18  1  0  0  0  0
 17 32  1  0  0  0  0
 17 33  1  0  0  0  0
 18 34  1  0  0  0  0
 19 35  1  0  0  0  0
M  END
>  <DRUGBANK_ID>
DB00552

>  <SECONDARY_ACCESSION_NUMBERS>
APRD00202

>  <COMMON_NAME>
Pentostatin

>  <CAS_NUMBER>
53910-25-1

>  <UNII>
395575MZO7

>  <SYNONYMS>
Co-vidarabine; Pentostatin; Pentostatina; Pentostatine; Pentostatinum

$$$$
