
 OpenBabel10282417233D

 45 48  0  0  1  0  0  0  0  0999 V2000
   -2.0156   -0.0524    0.0031 N   0  0  0  0  0  0  0  0  0  0  0  0
   -0.6807   -0.1014   -0.0033 C   0  0  0  0  0  0  0  0  0  0  0  0
    0.1206   -1.1332   -0.0088 N   0  0  0  0  0  0  0  0  0  0  0  0
    1.4052   -0.6289   -0.0294 N   0  0  0  0  0  0  0  0  0  0  0  0
    1.2827    0.6829   -0.0387 C   0  0  0  0  0  0  0  0  0  0  0  0
    2.3599    1.7132   -0.0159 C   0  0  0  0  0  0  0  0  0  0  0  0
    2.3694    2.6366   -1.1743 N   0  0  0  0  0  0  0  0  0  0  0  0
    3.6161    3.4476   -1.1777 C   0  0  2  0  0  0  0  0  0  0  0  0
    3.7529    4.8814   -1.6116 C   0  0  0  0  0  0  0  0  0  0  0  0
    4.1337    3.8044   -2.5629 C   0  0  1  0  0  0  0  0  0  0  0  0
    5.5134    3.4260   -3.0039 C   0  0  0  0  0  0  0  0  0  0  0  0
    5.7526    2.0809   -3.2761 C   0  0  0  0  0  0  0  0  0  0  0  0
    6.8482    1.6953   -4.0362 C   0  0  0  0  0  0  0  0  0  0  0  0
    7.8515    2.5792   -4.3910 C   0  0  0  0  0  0  0  0  0  0  0  0
    9.0460    2.2211   -4.9524 O   0  0  0  0  0  0  0  0  0  0  0  0
    9.3833    0.8195   -5.0291 C   0  0  0  0  0  0  0  0  0  0  0  0
    9.4653    0.0583   -3.7128 C   0  0  0  0  0  0  0  0  0  0  0  0
    8.4408   -0.8310   -3.3347 C   0  0  0  0  0  0  0  0  0  0  0  0
    8.4205   -1.4356   -2.0834 C   0  0  0  0  0  0  0  0  0  0  0  0
    9.5201   -1.3012   -1.2516 C   0  0  0  0  0  0  0  0  0  0  0  0
   10.6051   -0.5217   -1.6565 C   0  0  0  0  0  0  0  0  0  0  0  0
   10.5512    0.2119   -2.8474 C   0  0  0  0  0  0  0  0  0  0  0  0
    7.6278    3.9294   -4.1465 C   0  0  0  0  0  0  0  0  0  0  0  0
    6.4788    4.3461   -3.4452 C   0  0  0  0  0  0  0  0  0  0  0  0
   -0.0249    1.0956   -0.0087 O   0  0  0  0  0  0  0  0  0  0  0  0
   -2.5108    0.8236    0.0398 H   0  0  0  0  0  0  0  0  0  0  0  0
   -2.5520   -0.9085    0.0240 H   0  0  0  0  0  0  0  0  0  0  0  0
    2.2790    2.2984    0.9051 H   0  0  0  0  0  0  0  0  0  0  0  0
    3.3152    1.1727    0.0131 H   0  0  0  0  0  0  0  0  0  0  0  0
    2.3619    2.0436   -2.0102 H   0  0  0  0  0  0  0  0  0  0  0  0
    4.2804    3.2544   -0.3371 H   0  0  0  0  0  0  0  0  0  0  0  0
    2.8898    5.4767   -1.8803 H   0  0  0  0  0  0  0  0  0  0  0  0
    4.5429    5.4556   -1.1372 H   0  0  0  0  0  0  0  0  0  0  0  0
    3.4213    3.6826   -3.3798 H   0  0  0  0  0  0  0  0  0  0  0  0
    5.0305    1.3208   -2.9867 H   0  0  0  0  0  0  0  0  0  0  0  0
    6.8511    0.6803   -4.3830 H   0  0  0  0  0  0  0  0  0  0  0  0
    8.7079    0.3195   -5.7345 H   0  0  0  0  0  0  0  0  0  0  0  0
   10.3742    0.7654   -5.4996 H   0  0  0  0  0  0  0  0  0  0  0  0
    7.6086   -1.0446   -3.9986 H   0  0  0  0  0  0  0  0  0  0  0  0
    7.5564   -2.0216   -1.7818 H   0  0  0  0  0  0  0  0  0  0  0  0
    9.5357   -1.8169   -0.2963 H   0  0  0  0  0  0  0  0  0  0  0  0
   11.4959   -0.4837   -1.0362 H   0  0  0  0  0  0  0  0  0  0  0  0
   11.3685    0.8832   -3.1003 H   0  0  0  0  0  0  0  0  0  0  0  0
    8.3168    4.6699   -4.5454 H   0  0  0  0  0  0  0  0  0  0  0  0
    6.3135    5.4093   -3.2935 H   0  0  0  0  0  0  0  0  0  0  0  0
  1  2  1  0  0  0  0
  1 26  1  0  0  0  0
  1 27  1  0  0  0  0
  2  3  2  0  0  0  0
  2 25  1  0  0  0  0
  3  4  1  0  0  0  0
  4  5  2  0  0  0  0
  5  6  1  0  0  0  0
  5 25  1  0  0  0  0
  6  7  1  0  0  0  0
  6 28  1  0  0  0  0
  6 29  1  0  0  0  0
  7 30  1  0  0  0  0
  8  7  1  0  0  0  0
  8  9  1  0  0  0  0
  8 10  1  0  0  0  0
  8 31  1  1  0  0  0
  9 32  1  0  0  0  0
  9 33  1  0  0  0  0
 10  9  1  0  0  0  0
 10 11  1  0  0  0  0
 10 34  1  6  0  0  0
 11 12  2  0  0  0  0
 11 24  1  0  0  0  0
 12 13  1  0  0  0  0
 12 35  1  0  0  0  0
 13 14  2  0  0  0  0
 13 36  1  0  0  0  0
 14 15  1  0  0  0  0
 14 23  1  0  0  0  0
 15 16  1  0  0  0  0
 16 17  1  0  0  0  0
 16 37  1  0  0  0  0
 16 38  1  0  0  0  0
 17 18  2  0  0  0  0
 17 22  1  0  0  0  0
 18 19  1  0  0  0  0
 18 39  1  0  0  0  0
 19 20  2  0  0  0  0
 19 40  1  0  0  0  0
 20 21  1  0  0  0  0
 20 41  1  0  0  0  0
 21 22  2  0  0  0  0
 21 42  1  0  0  0  0
 22 43  1  0  0  0  0
 23 24  2  0  0  0  0
 23 44  1  0  0  0  0
 24 45  1  0  0  0  0
M  END
>  <DRUGBANK_ID>
DB16446

>  <COMMON_NAME>
Vafidemstat

>  <CAS_NUMBER>
1357362-02-7

>  <UNII>
LZ82JLT4UP

>  <SYNONYMS>
Vafidemstat

$$$$
