
 OpenBabel10282417163D

 47 49  0  0  0  0  0  0  0  0999 V2000
    0.9662   -0.1476    0.0184 C   0  0  0  0  0  0  0  0  0  0  0  0
    0.4531    1.2752   -0.2456 C   0  0  0  0  0  0  0  0  0  0  0  0
    0.9769    1.7362   -1.6234 C   0  0  0  0  0  0  0  0  0  0  0  0
   -1.0947    1.2380   -0.3280 C   0  0  0  0  0  0  0  0  0  0  0  0
    0.9722    2.2048    0.9155 C   0  0  3  0  0  0  0  0  0  0  0  0
    0.1555    1.9744    2.2062 C   0  0  0  0  0  0  0  0  0  0  0  0
    0.3915    3.0213    3.2782 C   0  0  0  0  0  0  0  0  0  0  0  0
    0.0928    4.4512    2.7416 C   0  0  3  0  0  0  0  0  0  0  0  0
    1.1370    4.6709    1.6424 C   0  0  0  0  0  0  0  0  0  0  0  0
    0.9326    3.6723    0.4946 C   0  0  0  0  0  0  0  0  0  0  0  0
   -1.3704    4.6904    2.2636 C   0  0  0  0  0  0  0  0  0  0  0  0
   -1.8251    5.1850    1.0794 C   0  0  0  0  0  0  0  0  0  0  0  0
   -3.2589    5.1280    0.6908 C   0  0  0  0  0  0  0  0  0  0  0  0
   -3.6201    5.4232   -0.4411 O   0  0  0  0  0  0  0  0  0  0  0  0
   -4.2327    4.6886    1.6689 C   0  0  0  0  0  0  0  0  0  0  0  0
   -5.5772    4.6831    1.2872 C   0  0  0  0  0  0  0  0  0  0  0  0
   -6.5508    4.3527    2.2157 C   0  0  0  0  0  0  0  0  0  0  0  0
   -6.1746    4.0158    3.5149 C   0  0  0  0  0  0  0  0  0  0  0  0
   -4.8231    4.0040    3.8842 C   0  0  0  0  0  0  0  0  0  0  0  0
   -3.8390    4.3432    2.9486 C   0  0  0  0  0  0  0  0  0  0  0  0
   -2.4091    4.3671    3.3202 C   0  0  0  0  0  0  0  0  0  0  0  0
   -2.0979    4.1669    4.4871 O   0  0  0  0  0  0  0  0  0  0  0  0
   -1.1047    5.7548    0.0482 O   0  0  0  0  0  0  0  0  0  0  0  0
    0.6284   -0.8373   -0.7603 H   0  0  0  0  0  0  0  0  0  0  0  0
    0.6094   -0.5322    0.9787 H   0  0  0  0  0  0  0  0  0  0  0  0
    2.0617   -0.1655    0.0382 H   0  0  0  0  0  0  0  0  0  0  0  0
    0.6537    1.0547   -2.4165 H   0  0  0  0  0  0  0  0  0  0  0  0
    0.5912    2.7253   -1.8993 H   0  0  0  0  0  0  0  0  0  0  0  0
    2.0705    1.7855   -1.6353 H   0  0  0  0  0  0  0  0  0  0  0  0
   -1.5484    0.8061    0.5700 H   0  0  0  0  0  0  0  0  0  0  0  0
   -1.5194    2.2384   -0.4696 H   0  0  0  0  0  0  0  0  0  0  0  0
   -1.4366    0.6148   -1.1589 H   0  0  0  0  0  0  0  0  0  0  0  0
    2.0276    1.9790    1.1256 H   0  0  0  0  0  0  0  0  0  0  0  0
   -0.9159    2.0194    2.0011 H   0  0  0  0  0  0  0  0  0  0  0  0
    0.3529    0.9744    2.6050 H   0  0  0  0  0  0  0  0  0  0  0  0
   -0.2231    2.7689    4.1469 H   0  0  0  0  0  0  0  0  0  0  0  0
    1.4330    2.9495    3.6204 H   0  0  0  0  0  0  0  0  0  0  0  0
    0.3006    5.1533    3.5596 H   0  0  0  0  0  0  0  0  0  0  0  0
    1.0994    5.7154    1.3162 H   0  0  0  0  0  0  0  0  0  0  0  0
    2.1550    4.5561    2.0310 H   0  0  0  0  0  0  0  0  0  0  0  0
    1.6509    3.9036   -0.2977 H   0  0  0  0  0  0  0  0  0  0  0  0
   -0.0458    3.7705    0.0314 H   0  0  0  0  0  0  0  0  0  0  0  0
   -5.8572    4.9595    0.2714 H   0  0  0  0  0  0  0  0  0  0  0  0
   -7.5965    4.3754    1.9222 H   0  0  0  0  0  0  0  0  0  0  0  0
   -6.9408    3.7685    4.2450 H   0  0  0  0  0  0  0  0  0  0  0  0
   -4.5496    3.7454    4.9055 H   0  0  0  0  0  0  0  0  0  0  0  0
   -0.1572    5.6231    0.0664 H   0  0  0  0  0  0  0  0  0  0  0  0
  1  2  1  0  0  0  0
  1 24  1  0  0  0  0
  1 25  1  0  0  0  0
  1 26  1  0  0  0  0
  2  3  1  0  0  0  0
  2  4  1  0  0  0  0
  2  5  1  0  0  0  0
  3 27  1  0  0  0  0
  3 28  1  0  0  0  0
  3 29  1  0  0  0  0
  4 30  1  0  0  0  0
  4 31  1  0  0  0  0
  4 32  1  0  0  0  0
  5  6  1  0  0  0  0
  5 10  1  0  0  0  0
  5 33  1  0  0  0  0
  6  7  1  0  0  0  0
  6 34  1  0  0  0  0
  6 35  1  0  0  0  0
  7  8  1  0  0  0  0
  7 36  1  0  0  0  0
  7 37  1  0  0  0  0
  8  9  1  0  0  0  0
  8 11  1  0  0  0  0
  8 38  1  0  0  0  0
  9 10  1  0  0  0  0
  9 39  1  0  0  0  0
  9 40  1  0  0  0  0
 10 41  1  0  0  0  0
 10 42  1  0  0  0  0
 11 12  2  0  0  0  0
 11 21  1  0  0  0  0
 12 13  1  0  0  0  0
 12 23  1  0  0  0  0
 13 14  2  0  0  0  0
 13 15  1  0  0  0  0
 15 16  2  0  0  0  0
 15 20  1  0  0  0  0
 16 17  1  0  0  0  0
 16 43  1  0  0  0  0
 17 18  2  0  0  0  0
 17 44  1  0  0  0  0
 18 19  1  0  0  0  0
 18 45  1  0  0  0  0
 19 20  2  0  0  0  0
 19 46  1  0  0  0  0
 20 21  1  0  0  0  0
 21 22  2  0  0  0  0
 23 47  1  0  0  0  0
M  END
>  <DRUGBANK_ID>
DB06740

>  <COMMON_NAME>
BW-A 58C

>  <CAS_NUMBER>
94015-46-0

>  <SYNONYMS>
2-(4-(1,1-Dimethylethyl)cyclohexyl)-3-hydroxy-1,4-naphthalenedione; 2-(4-tert-butylcyclohexyl)-3-hydroxy-1,4-naphthoquinone; 2-(4'-t-Butylcyclohexyl)-3-hydroxy-1,4-naphthoquinone; 2-[4-(1,1-Dimethylethyl)cyclohexyl]-3-hydroxy-1,4-naphthalenedione

$$$$
