998
 OpenBabel10282417123D

 70 72  0  0  0  0  0  0  0  0999 V2000
   -0.0158   -0.6821   -0.0258 C   0  0  0  0  0  0  0  0  0  0  0  0
    1.2740   -1.4879    0.0739 C   0  0  2  0  0  0  0  0  0  0  0  0
   -0.0354    0.7245   -0.0393 C   0  0  0  0  0  0  0  0  0  0  0  0
   -1.2427   -1.3645   -0.0601 C   0  0  0  0  0  0  0  0  0  0  0  0
    1.4437   -2.0499    1.4178 N   0  0  0  0  0  0  0  0  0  0  0  0
    2.5059   -0.6495   -0.3008 C   0  0  0  0  0  0  0  0  0  0  0  0
    1.2429    1.5223   -0.0834 C   0  0  0  0  0  0  0  0  0  0  0  0
   -1.2727    1.3996   -0.0662 C   0  0  0  0  0  0  0  0  0  0  0  0
   -2.4585   -0.6886   -0.0357 C   0  0  0  0  0  0  0  0  0  0  0  0
    0.7152   -3.1507    1.8286 C   0  0  0  0  0  0  0  0  0  0  0  0
    2.4631    0.7218    0.3718 C   0  0  0  0  0  0  0  0  0  0  0  0
   -2.4769    0.6954   -0.0351 C   0  0  0  0  0  0  0  0  0  0  0  0
    0.7300   -3.4314    3.3378 C   0  0  1  0  0  0  0  0  0  0  0  0
    0.1237   -3.9017    1.0429 O   0  0  0  0  0  0  0  0  0  0  0  0
   -0.5843   -3.7183    3.9553 N   0  0  0  0  0  0  0  0  0  0  0  0
    1.4580   -4.7704    3.5312 C   0  0  0  0  0  0  0  0  0  0  0  0
   -1.7105   -2.9544    3.6590 C   0  0  0  0  0  0  0  0  0  0  0  0
   -0.4133   -4.6614    5.0533 C   0  0  0  0  0  0  0  0  0  0  0  0
    1.0044   -5.2281    4.9070 C   0  0  0  0  0  0  0  0  0  0  0  0
   -3.1387   -3.3522    4.2149 C   0  0  1  0  0  0  0  0  0  0  0  0
   -1.5982   -1.9633    2.9328 O   0  0  0  0  0  0  0  0  0  0  0  0
   -3.8351   -2.1257    4.7511 N   0  0  0  0  0  0  0  0  0  0  0  0
   -4.0146   -4.1305    3.1760 C   0  0  0  0  0  0  0  0  0  0  0  0
   -5.0798   -1.6417    4.3641 C   0  0  0  0  0  0  0  0  0  0  0  0
   -3.3452   -5.4067    2.6461 C   0  0  0  0  0  0  0  0  0  0  0  0
   -5.3022   -4.6662    3.8993 C   0  0  0  0  0  0  0  0  0  0  0  0
   -4.2366   -3.2674    1.8918 C   0  0  0  0  0  0  0  0  0  0  0  0
   -5.5958   -0.3687    5.0050 C   0  0  1  0  0  0  0  0  0  0  0  0
   -5.8529   -2.1608    3.5565 O   0  0  0  0  0  0  0  0  0  0  0  0
   -5.8590    0.5621    3.8927 N   0  0  0  0  0  0  0  0  0  0  0  0
   -6.9038   -0.8026    5.6913 C   0  0  0  0  0  0  0  0  0  0  0  0
   -6.4739    1.7950    4.3085 C   0  0  0  0  0  0  0  0  0  0  0  0
    1.2142   -2.3276   -0.6294 H   0  0  0  0  0  0  0  0  0  0  0  0
    1.2320   -2.6359    3.9053 H   0  0  0  0  0  0  0  0  0  0  0  0
   -2.9781   -3.9881    5.0934 H   0  0  0  0  0  0  0  0  0  0  0  0
   -4.8702    0.0382    5.7134 H   0  0  0  0  0  0  0  0  0  0  0  0
   -1.2687   -2.4503   -0.0528 H   0  0  0  0  0  0  0  0  0  0  0  0
    1.8741   -1.4581    2.1152 H   0  0  0  0  0  0  0  0  0  0  0  0
    2.5478   -0.5164   -1.3900 H   0  0  0  0  0  0  0  0  0  0  0  0
    3.4239   -1.1761   -0.0110 H   0  0  0  0  0  0  0  0  0  0  0  0
    1.1481    2.4085    0.5557 H   0  0  0  0  0  0  0  0  0  0  0  0
    1.3952    1.8715   -1.1125 H   0  0  0  0  0  0  0  0  0  0  0  0
   -1.3102    2.4856   -0.0985 H   0  0  0  0  0  0  0  0  0  0  0  0
   -3.3838   -1.2545    0.0096 H   0  0  0  0  0  0  0  0  0  0  0  0
    2.4299    0.5965    1.4607 H   0  0  0  0  0  0  0  0  0  0  0  0
    3.3790    1.2799    0.1476 H   0  0  0  0  0  0  0  0  0  0  0  0
   -3.4308    1.2138   -0.0101 H   0  0  0  0  0  0  0  0  0  0  0  0
    1.1207   -5.5042    2.7851 H   0  0  0  0  0  0  0  0  0  0  0  0
    2.5460   -4.6948    3.4338 H   0  0  0  0  0  0  0  0  0  0  0  0
   -1.1798   -5.4355    5.0086 H   0  0  0  0  0  0  0  0  0  0  0  0
   -0.5000   -4.1239    6.0056 H   0  0  0  0  0  0  0  0  0  0  0  0
    1.0256   -6.3186    5.0054 H   0  0  0  0  0  0  0  0  0  0  0  0
    1.6754   -4.8172    5.6708 H   0  0  0  0  0  0  0  0  0  0  0  0
   -3.2695   -1.5396    5.3494 H   0  0  0  0  0  0  0  0  0  0  0  0
   -3.1372   -6.1136    3.4520 H   0  0  0  0  0  0  0  0  0  0  0  0
   -4.0219   -5.8994    1.9333 H   0  0  0  0  0  0  0  0  0  0  0  0
   -2.4159   -5.1896    2.1153 H   0  0  0  0  0  0  0  0  0  0  0  0
   -5.8303   -3.9729    4.5583 H   0  0  0  0  0  0  0  0  0  0  0  0
   -6.0380   -5.0405    3.1821 H   0  0  0  0  0  0  0  0  0  0  0  0
   -5.0415   -5.4683    4.5987 H   0  0  0  0  0  0  0  0  0  0  0  0
   -4.4385   -2.2038    2.0437 H   0  0  0  0  0  0  0  0  0  0  0  0
   -3.3205   -3.2381    1.2961 H   0  0  0  0  0  0  0  0  0  0  0  0
   -5.0399   -3.6637    1.2650 H   0  0  0  0  0  0  0  0  0  0  0  0
   -5.0207    0.7044    3.3303 H   0  0  0  0  0  0  0  0  0  0  0  0
   -6.7111   -1.5810    6.4373 H   0  0  0  0  0  0  0  0  0  0  0  0
   -7.4119    0.0259    6.1855 H   0  0  0  0  0  0  0  0  0  0  0  0
   -7.6129   -1.2356    4.9686 H   0  0  0  0  0  0  0  0  0  0  0  0
   -5.8425    2.3083    5.0352 H   0  0  0  0  0  0  0  0  0  0  0  0
   -6.6289    2.4422    3.4421 H   0  0  0  0  0  0  0  0  0  0  0  0
   -7.4626    1.6161    4.7401 H   0  0  0  0  0  0  0  0  0  0  0  0
  1  2  1  0  0  0  0
  1  3  2  0  0  0  0
  1  4  1  0  0  0  0
  2  6  1  0  0  0  0
  2 33  1  6  0  0  0
  2  5  1  0  0  0  0
  3  7  1  0  0  0  0
  3  8  1  0  0  0  0
  4  9  2  0  0  0  0
  4 37  1  0  0  0  0
  5 10  1  0  0  0  0
  5 38  1  0  0  0  0
  6 11  1  0  0  0  0
  6 39  1  0  0  0  0
  6 40  1  0  0  0  0
  7 11  1  0  0  0  0
  7 41  1  0  0  0  0
  7 42  1  0  0  0  0
  8 12  2  0  0  0  0
  8 43  1  0  0  0  0
  9 12  1  0  0  0  0
  9 44  1  0  0  0  0
 10 14  2  0  0  0  0
 11 45  1  0  0  0  0
 11 46  1  0  0  0  0
 12 47  1  0  0  0  0
 13 10  1  0  0  0  0
 13 15  1  0  0  0  0
 13 16  1  0  0  0  0
 13 34  1  1  0  0  0
 15 17  1  0  0  0  0
 15 18  1  0  0  0  0
 16 19  1  0  0  0  0
 16 48  1  0  0  0  0
 16 49  1  0  0  0  0
 17 20  1  0  0  0  0
 17 21  2  0  0  0  0
 18 19  1  0  0  0  0
 18 50  1  0  0  0  0
 18 51  1  0  0  0  0
 19 52  1  0  0  0  0
 19 53  1  0  0  0  0
 20 22  1  0  0  0  0
 20 23  1  0  0  0  0
 20 35  1  1  0  0  0
 22 24  1  0  0  0  0
 22 54  1  0  0  0  0
 23 25  1  0  0  0  0
 23 26  1  0  0  0  0
 23 27  1  0  0  0  0
 24 28  1  0  0  0  0
 24 29  2  0  0  0  0
 25 55  1  0  0  0  0
 25 56  1  0  0  0  0
 25 57  1  0  0  0  0
 26 58  1  0  0  0  0
 26 59  1  0  0  0  0
 26 60  1  0  0  0  0
 27 61  1  0  0  0  0
 27 62  1  0  0  0  0
 27 63  1  0  0  0  0
 28 30  1  0  0  0  0
 28 31  1  0  0  0  0
 28 36  1  1  0  0  0
 30 32  1  0  0  0  0
 30 64  1  0  0  0  0
 31 65  1  0  0  0  0
 31 66  1  0  0  0  0
 31 67  1  0  0  0  0
 32 68  1  0  0  0  0
 32 69  1  0  0  0  0
 32 70  1  0  0  0  0
M  END
>  <DRUGBANK_ID>
DB02628

>  <SECONDARY_ACCESSION_NUMBERS>
EXPT00351

>  <COMMON_NAME>
1-[3,3-Dimethyl-2-(2-Methylamino-Propionylamino)-Butyryl]-Pyrrolidine-2-Carboxylic Acid(1,2,3,4-Tetrahydro-Naphthalen-1-Yl)-Amide

$$$$
