
 OpenBabel10282417233D

 56 60  0  0  0  0  0  0  0  0999 V2000
    1.0871    0.0340    0.0671 N   0  0  0  0  0  0  0  0  0  0  0  0
    0.4995    1.0384    0.9570 C   0  0  0  0  0  0  0  0  0  0  0  0
   -0.9571    1.2430    0.5386 C   0  0  0  0  0  0  0  0  0  0  0  0
   -1.0635    1.9958   -0.8085 C   0  0  0  0  0  0  0  0  0  0  0  0
   -0.2611    3.2287   -0.7647 N   0  0  0  0  0  0  0  0  0  0  0  0
    1.1499    3.0559   -0.4142 C   0  0  0  0  0  0  0  0  0  0  0  0
    1.2341    2.3889    0.9527 C   0  0  0  0  0  0  0  0  0  0  0  0
   -0.7695    4.4921   -1.0924 C   0  0  0  0  0  0  0  0  0  0  0  0
   -0.1823    5.3054   -2.0910 C   0  0  0  0  0  0  0  0  0  0  0  0
   -0.7367    6.5712   -2.3119 C   0  0  0  0  0  0  0  0  0  0  0  0
   -1.7826    7.0970   -1.6394 N   0  0  0  0  0  0  0  0  0  0  0  0
   -2.3380    6.3418   -0.6894 C   0  0  0  0  0  0  0  0  0  0  0  0
   -3.4013    6.8627    0.0388 C   0  0  0  0  0  0  0  0  0  0  0  0
   -4.0274    6.1346    1.0515 C   0  0  0  0  0  0  0  0  0  0  0  0
   -3.5973    4.8506    1.3566 C   0  0  0  0  0  0  0  0  0  0  0  0
   -2.5220    4.3504    0.6446 C   0  0  0  0  0  0  0  0  0  0  0  0
   -1.8771    5.0420   -0.3885 C   0  0  0  0  0  0  0  0  0  0  0  0
   -4.2514    4.0564    2.3935 C   0  0  0  0  0  0  0  0  0  0  0  0
   -5.5918    3.6513    2.2823 C   0  0  0  0  0  0  0  0  0  0  0  0
   -6.3172    3.8804    1.1399 O   0  0  0  0  0  0  0  0  0  0  0  0
   -6.2298    3.0188    3.3510 C   0  0  0  0  0  0  0  0  0  0  0  0
   -5.5898    2.9732    4.5942 C   0  0  0  0  0  0  0  0  0  0  0  0
   -4.2816    3.4305    4.7234 C   0  0  0  0  0  0  0  0  0  0  0  0
   -3.5665    3.7890    3.5874 C   0  0  0  0  0  0  0  0  0  0  0  0
   -7.5273    2.4431    3.1949 C   0  0  0  0  0  0  0  0  0  0  0  0
   -8.5727    1.9334    3.0886 N   0  0  0  0  0  0  0  0  0  0  0  0
    0.9407    4.8605   -2.9245 C   0  0  0  0  0  0  0  0  0  0  0  0
    2.1591    5.5576   -2.9326 C   0  0  0  0  0  0  0  0  0  0  0  0
    3.2355    5.0673   -3.6662 C   0  0  0  0  0  0  0  0  0  0  0  0
    4.3980    5.7315   -3.6479 F   0  0  0  0  0  0  0  0  0  0  0  0
    3.1306    3.8946   -4.4002 C   0  0  0  0  0  0  0  0  0  0  0  0
    1.9240    3.2138   -4.4039 C   0  0  0  0  0  0  0  0  0  0  0  0
    1.8089    2.0698   -5.0893 F   0  0  0  0  0  0  0  0  0  0  0  0
    0.8332    3.6884   -3.6887 C   0  0  0  0  0  0  0  0  0  0  0  0
    0.8072    0.2054   -0.8977 H   0  0  0  0  0  0  0  0  0  0  0  0
    2.1017    0.0909    0.0720 H   0  0  0  0  0  0  0  0  0  0  0  0
    0.5385    0.6417    1.9788 H   0  0  0  0  0  0  0  0  0  0  0  0
   -1.4928    0.2892    0.4817 H   0  0  0  0  0  0  0  0  0  0  0  0
   -1.4360    1.7800    1.3602 H   0  0  0  0  0  0  0  0  0  0  0  0
   -0.6675    1.3627   -1.6126 H   0  0  0  0  0  0  0  0  0  0  0  0
   -2.1082    2.1744   -1.0842 H   0  0  0  0  0  0  0  0  0  0  0  0
    1.6375    2.4105   -1.1540 H   0  0  0  0  0  0  0  0  0  0  0  0
    1.7012    4.0005   -0.3808 H   0  0  0  0  0  0  0  0  0  0  0  0
    0.7784    3.0549    1.7016 H   0  0  0  0  0  0  0  0  0  0  0  0
    2.2823    2.2603    1.2428 H   0  0  0  0  0  0  0  0  0  0  0  0
   -0.3411    7.2272   -3.0858 H   0  0  0  0  0  0  0  0  0  0  0  0
   -3.7564    7.8664   -0.1792 H   0  0  0  0  0  0  0  0  0  0  0  0
   -4.8546    6.5733    1.6044 H   0  0  0  0  0  0  0  0  0  0  0  0
   -2.1846    3.3752    0.9158 H   0  0  0  0  0  0  0  0  0  0  0  0
   -5.7689    4.3410    0.4808 H   0  0  0  0  0  0  0  0  0  0  0  0
   -6.1002    2.5715    5.4662 H   0  0  0  0  0  0  0  0  0  0  0  0
   -3.8209    3.5253    5.7038 H   0  0  0  0  0  0  0  0  0  0  0  0
   -2.4889    3.9290    3.6598 H   0  0  0  0  0  0  0  0  0  0  0  0
    2.2909    6.4638   -2.3454 H   0  0  0  0  0  0  0  0  0  0  0  0
    3.9753    3.5138   -4.9598 H   0  0  0  0  0  0  0  0  0  0  0  0
   -0.0923    3.1177   -3.6963 H   0  0  0  0  0  0  0  0  0  0  0  0
  1  2  1  0  0  0  0
  1 35  1  0  0  0  0
  1 36  1  0  0  0  0
  2  3  1  0  0  0  0
  2  7  1  0  0  0  0
  2 37  1  0  0  0  0
  3  4  1  0  0  0  0
  3 38  1  0  0  0  0
  3 39  1  0  0  0  0
  4  5  1  0  0  0  0
  4 40  1  0  0  0  0
  4 41  1  0  0  0  0
  5  6  1  0  0  0  0
  5  8  1  0  0  0  0
  6  7  1  0  0  0  0
  6 42  1  0  0  0  0
  6 43  1  0  0  0  0
  7 44  1  0  0  0  0
  7 45  1  0  0  0  0
  8  9  2  0  0  0  0
  8 17  1  0  0  0  0
  9 10  1  0  0  0  0
  9 27  1  0  0  0  0
 10 11  2  0  0  0  0
 10 46  1  0  0  0  0
 11 12  1  0  0  0  0
 12 13  2  0  0  0  0
 12 17  1  0  0  0  0
 13 14  1  0  0  0  0
 13 47  1  0  0  0  0
 14 15  2  0  0  0  0
 14 48  1  0  0  0  0
 15 16  1  0  0  0  0
 15 18  1  0  0  0  0
 16 17  2  0  0  0  0
 16 49  1  0  0  0  0
 18 19  2  0  0  0  0
 18 24  1  0  0  0  0
 19 20  1  0  0  0  0
 19 21  1  0  0  0  0
 20 50  1  0  0  0  0
 21 22  2  0  0  0  0
 21 25  1  0  0  0  0
 22 23  1  0  0  0  0
 22 51  1  0  0  0  0
 23 24  2  0  0  0  0
 23 52  1  0  0  0  0
 24 53  1  0  0  0  0
 25 26  3  0  0  0  0
 27 28  2  0  0  0  0
 27 34  1  0  0  0  0
 28 29  1  0  0  0  0
 28 54  1  0  0  0  0
 29 30  1  0  0  0  0
 29 31  2  0  0  0  0
 31 32  1  0  0  0  0
 31 55  1  0  0  0  0
 32 33  1  0  0  0  0
 32 34  2  0  0  0  0
 34 56  1  0  0  0  0
M  END
>  <DRUGBANK_ID>
DB16277

>  <COMMON_NAME>
Paltusotine

>  <CAS_NUMBER>
2172870-89-0

>  <UNII>
F2IBD1GMD3

>  <SYNONYMS>
Paltusotine

$$$$
