
 OpenBabel10282417123D

 26 26  0  0  1  0  0  0  0  0999 V2000
    1.7768    0.0101   -0.7429 C   0  0  0  0  0  0  0  0  0  0  0  0
   -2.1939   -2.9637   -0.3635 C   0  0  0  0  0  0  0  0  0  0  0  0
   -0.0076   -1.1808    0.5834 C   0  0  0  0  0  0  0  0  0  0  0  0
    0.9037    0.0362    0.5188 C   0  0  2  0  0  0  0  0  0  0  0  0
   -1.1258   -0.8090   -0.3904 C   0  0  2  0  0  0  0  0  0  0  0  0
   -0.1153    1.1767    0.4622 C   0  0  2  0  0  0  0  0  0  0  0  0
   -0.5037    1.6973    1.8534 C   0  0  0  0  0  0  0  0  0  0  0  0
   -1.3030    0.6457   -0.2615 N   0  0  0  0  0  0  0  0  0  0  0  0
   -2.3986   -1.5183   -0.2466 N   0  0  0  0  0  0  0  0  0  0  0  0
   -0.3494    2.8525    2.2403 O   0  0  0  0  0  0  0  0  0  0  0  0
   -1.0283    0.7815    2.6894 O   0  0  0  0  0  0  0  0  0  0  0  0
   -2.8506   -1.3291    1.1278 O   0  0  0  0  0  0  0  0  0  0  0  0
    1.5500    0.0790    1.4024 H   0  0  0  0  0  0  0  0  0  0  0  0
   -0.7679   -1.0029   -1.4117 H   0  0  0  0  0  0  0  0  0  0  0  0
    0.2965    2.0386   -0.0776 H   0  0  0  0  0  0  0  0  0  0  0  0
    2.3809   -0.9017   -0.7825 H   0  0  0  0  0  0  0  0  0  0  0  0
    1.1838    0.0551   -1.6634 H   0  0  0  0  0  0  0  0  0  0  0  0
    2.4519    0.8711   -0.7560 H   0  0  0  0  0  0  0  0  0  0  0  0
   -1.5049   -3.3516    0.3947 H   0  0  0  0  0  0  0  0  0  0  0  0
   -3.1473   -3.4874   -0.2394 H   0  0  0  0  0  0  0  0  0  0  0  0
   -1.8076   -3.2212   -1.3547 H   0  0  0  0  0  0  0  0  0  0  0  0
    0.5010   -2.1125    0.3200 H   0  0  0  0  0  0  0  0  0  0  0  0
   -0.3938   -1.3022    1.6022 H   0  0  0  0  0  0  0  0  0  0  0  0
   -1.3226    1.0375   -1.2009 H   0  0  0  0  0  0  0  0  0  0  0  0
   -1.2773    1.2763    3.4946 H   0  0  0  0  0  0  0  0  0  0  0  0
   -3.7915   -1.5736    1.0655 H   0  0  0  0  0  0  0  0  0  0  0  0
  1 16  1  0  0  0  0
  1 17  1  0  0  0  0
  1 18  1  0  0  0  0
  2 19  1  0  0  0  0
  2 20  1  0  0  0  0
  2 21  1  0  0  0  0
  3 22  1  0  0  0  0
  3 23  1  0  0  0  0
  4  1  1  0  0  0  0
  4  3  1  0  0  0  0
  4 13  1  1  0  0  0
  5  3  1  0  0  0  0
  5  9  1  0  0  0  0
  5 14  1  6  0  0  0
  6  4  1  0  0  0  0
  6  7  1  0  0  0  0
  6 15  1  6  0  0  0
  8  5  1  0  0  0  0
  8  6  1  0  0  0  0
  8 24  1  0  0  0  0
  9  2  1  0  0  0  0
 10  7  2  0  0  0  0
 11  7  1  0  0  0  0
 11 25  1  0  0  0  0
 12  9  1  0  0  0  0
 12 26  1  0  0  0  0
M  END
>  <DRUGBANK_ID>
DB01855

>  <SECONDARY_ACCESSION_NUMBERS>
EXPT00682

>  <COMMON_NAME>
5-(Hydroxy-Methyl-Amino)-3-Methyl-Pyrrolidine-2-Carboxylic Acid

$$$$
