
 OpenBabel10282417133D

 27 28  0  0  0  0  0  0  0  0999 V2000
   -0.7103   -0.9511   -0.1521 O   0  0  0  0  0  0  0  0  0  0  0  0
    0.0784    2.5083    0.5161 O   0  0  0  0  0  0  0  0  0  0  0  0
    0.7799   -0.3988   -2.7258 O   0  0  0  0  0  0  0  0  0  0  0  0
    2.6521   -4.3054   -3.8911 O   0  0  0  0  0  0  0  0  0  0  0  0
    1.3517   -1.8533   -1.0074 N   0  0  0  0  0  0  0  0  0  0  0  0
    1.9683   -2.2336   -3.2317 N   0  0  0  0  0  0  0  0  0  0  0  0
    0.0329    1.2749   -0.1855 C   0  0  1  0  0  0  0  0  0  0  0  0
    0.7269   -1.0171    0.0252 C   0  0  1  0  0  0  0  0  0  0  0  0
    1.2524    0.4185    0.0844 C   0  0  0  0  0  0  0  0  0  0  0  0
   -1.1151    0.3740    0.2459 C   0  0  1  0  0  0  0  0  0  0  0  0
   -2.4512    0.8063   -0.3477 C   0  0  0  0  0  0  0  0  0  0  0  0
    1.3190   -1.4282   -2.3315 C   0  0  0  0  0  0  0  0  0  0  0  0
    1.9727   -3.0456   -0.6601 C   0  0  0  0  0  0  0  0  0  0  0  0
    2.4225   -3.9038   -1.5826 C   0  0  0  0  0  0  0  0  0  0  0  0
    2.3553   -3.5161   -2.9978 C   0  0  0  0  0  0  0  0  0  0  0  0
    1.9372   -1.9322   -4.1926 H   0  0  0  0  0  0  0  0  0  0  0  0
    0.1381    2.3292    1.4690 H   0  0  0  0  0  0  0  0  0  0  0  0
   -0.0396    1.5006   -1.2545 H   0  0  0  0  0  0  0  0  0  0  0  0
    0.8892   -1.4917    1.0027 H   0  0  0  0  0  0  0  0  0  0  0  0
    1.6847    0.6275    1.0695 H   0  0  0  0  0  0  0  0  0  0  0  0
    2.0482    0.6175   -0.6404 H   0  0  0  0  0  0  0  0  0  0  0  0
   -1.2225    0.3800    1.3387 H   0  0  0  0  0  0  0  0  0  0  0  0
   -3.2604    0.1420   -0.0270 H   0  0  0  0  0  0  0  0  0  0  0  0
   -2.7053    1.8245   -0.0274 H   0  0  0  0  0  0  0  0  0  0  0  0
   -2.4363    0.7881   -1.4423 H   0  0  0  0  0  0  0  0  0  0  0  0
    2.0689   -3.2838    0.3956 H   0  0  0  0  0  0  0  0  0  0  0  0
    2.8466   -4.8733   -1.3550 H   0  0  0  0  0  0  0  0  0  0  0  0
  1  8  1  0  0  0  0
  1 10  1  0  0  0  0
  2 17  1  0  0  0  0
  3 12  2  0  0  0  0
  4 15  2  0  0  0  0
  5 12  1  0  0  0  0
  5 13  1  0  0  0  0
  6 12  1  0  0  0  0
  6 15  1  0  0  0  0
  6 16  1  0  0  0  0
  7  2  1  0  0  0  0
  7  9  1  0  0  0  0
  7 10  1  0  0  0  0
  7 18  1  6  0  0  0
  8  9  1  0  0  0  0
  8 19  1  1  0  0  0
  8  5  1  0  0  0  0
  9 20  1  0  0  0  0
  9 21  1  0  0  0  0
 10 11  1  0  0  0  0
 10 22  1  1  0  0  0
 11 23  1  0  0  0  0
 11 24  1  0  0  0  0
 11 25  1  0  0  0  0
 13 14  2  0  0  0  0
 13 26  1  0  0  0  0
 14 15  1  0  0  0  0
 14 27  1  0  0  0  0
M  END
>  <DRUGBANK_ID>
DB03274

>  <SECONDARY_ACCESSION_NUMBERS>
EXPT01151

>  <COMMON_NAME>
2',5'-Dideoxyuridine

>  <CAS_NUMBER>
35959-50-3

$$$$
