
 OpenBabel10282417233D

 25 26  0  0  0  0  0  0  0  0999 V2000
    1.0691    0.0583   -0.0335 C   0  0  0  0  0  0  0  0  0  0  0  0
    0.5738    0.9903   -1.1270 C   0  0  0  0  0  0  0  0  0  0  0  0
    1.0411    0.5972   -2.4789 C   0  0  0  0  0  0  0  0  0  0  0  0
    0.9928   -0.6614   -2.9367 N   0  0  0  0  0  0  0  0  0  0  0  0
    1.4890   -0.5506   -4.2360 O   0  0  0  0  0  0  0  0  0  0  0  0
    1.7747    0.7694   -4.4252 C   0  0  0  0  0  0  0  0  0  0  0  0
    1.5317    1.5139   -3.3705 N   0  0  0  0  0  0  0  0  0  0  0  0
    2.2661    1.1705   -5.7621 C   0  0  3  0  0  0  0  0  0  0  0  0
    3.6254    1.8570   -5.6578 C   0  0  0  0  0  0  0  0  0  0  0  0
    3.9870    2.3692   -6.9620 N   0  0  0  0  0  0  0  0  0  0  0  0
    3.0301    2.7610   -7.8456 C   0  0  0  0  0  0  0  0  0  0  0  0
    1.7560    2.6745   -7.7066 N   0  0  0  0  0  0  0  0  0  0  0  0
    1.2819    2.1451   -6.4158 C   0  0  0  0  0  0  0  0  0  0  0  0
    0.7159   -0.9655   -0.1975 H   0  0  0  0  0  0  0  0  0  0  0  0
    0.7057    0.3877    0.9444 H   0  0  0  0  0  0  0  0  0  0  0  0
    2.1637    0.0362   -0.0053 H   0  0  0  0  0  0  0  0  0  0  0  0
   -0.5220    1.0195   -1.1196 H   0  0  0  0  0  0  0  0  0  0  0  0
    0.9180    2.0084   -0.9067 H   0  0  0  0  0  0  0  0  0  0  0  0
    2.3672    0.2860   -6.4065 H   0  0  0  0  0  0  0  0  0  0  0  0
    3.6065    2.6815   -4.9338 H   0  0  0  0  0  0  0  0  0  0  0  0
    4.3906    1.1487   -5.3202 H   0  0  0  0  0  0  0  0  0  0  0  0
    4.9632    2.5641   -7.1526 H   0  0  0  0  0  0  0  0  0  0  0  0
    3.4502    3.1714   -8.7785 H   0  0  0  0  0  0  0  0  0  0  0  0
    0.3262    1.6342   -6.5863 H   0  0  0  0  0  0  0  0  0  0  0  0
    1.0654    2.9937   -5.7535 H   0  0  0  0  0  0  0  0  0  0  0  0
  1  2  1  0  0  0  0
  1 14  1  0  0  0  0
  1 15  1  0  0  0  0
  1 16  1  0  0  0  0
  2  3  1  0  0  0  0
  2 17  1  0  0  0  0
  2 18  1  0  0  0  0
  3  4  2  0  0  0  0
  3  7  1  0  0  0  0
  4  5  1  0  0  0  0
  5  6  1  0  0  0  0
  6  7  2  0  0  0  0
  6  8  1  0  0  0  0
  8  9  1  0  0  0  0
  8 13  1  0  0  0  0
  8 19  1  0  0  0  0
  9 10  1  0  0  0  0
  9 20  1  0  0  0  0
  9 21  1  0  0  0  0
 10 11  1  0  0  0  0
 10 22  1  0  0  0  0
 11 12  2  0  0  0  0
 11 23  1  0  0  0  0
 12 13  1  0  0  0  0
 13 24  1  0  0  0  0
 13 25  1  0  0  0  0
M  END
>  <DRUGBANK_ID>
DB16945

>  <COMMON_NAME>
CDD-0102

>  <CAS_NUMBER>
146422-58-4

>  <UNII>
9F064NJ81D

>  <SYNONYMS>
5-(3-ethyl-1,2,4-oxadiazol-5-yl)-1,4,5,6-tetrahydropyrimidine; Cdd-0102 free base; Mcd-386cr free base; Pyrimidine, 5-(3-ethyl-1,2,4-oxadiazol-5-yl)-1,4,5,6-tetrahydro-

$$$$
