272
 OpenBabel10282417163D

 27 29  0  0  0  0  0  0  0  0999 V2000
   -2.1141   -0.7339    0.0013 C   0  0  0  0  0  0  0  0  0  0  0  0
   -0.8956   -1.4174    0.0016 C   0  0  0  0  0  0  0  0  0  0  0  0
    0.2477   -0.6239    0.0012 C   0  0  0  0  0  0  0  0  0  0  0  0
    0.2268    0.7609    0.0096 C   0  0  0  0  0  0  0  0  0  0  0  0
   -1.0127    1.4224   -0.0003 C   0  0  0  0  0  0  0  0  0  0  0  0
   -2.1853    0.6602   -0.0029 C   0  0  0  0  0  0  0  0  0  0  0  0
    1.5416   -1.0446   -0.0155 O   0  0  0  0  0  0  0  0  0  0  0  0
    2.3954    0.0550   -0.0319 N   0  0  0  0  0  0  0  0  0  0  0  0
    1.6006    1.1358    0.0163 C   0  0  0  0  0  0  0  0  0  0  0  0
    2.1101    2.5047    0.0109 C   0  0  0  0  0  0  0  0  0  0  0  0
    1.7771    3.4100    1.0326 C   0  0  0  0  0  0  0  0  0  0  0  0
    2.1498    4.7553    0.9550 C   0  0  0  0  0  0  0  0  0  0  0  0
    2.7832    5.2099   -0.1978 C   0  0  0  0  0  0  0  0  0  0  0  0
    3.1300    4.3297   -1.2169 C   0  0  0  0  0  0  0  0  0  0  0  0
    2.8346    2.9687   -1.0950 C   0  0  0  0  0  0  0  0  0  0  0  0
    3.0745    6.5298   -0.3836 O   0  0  0  0  0  0  0  0  0  0  0  0
    1.0471    2.9724    2.1071 O   0  0  0  0  0  0  0  0  0  0  0  0
   -3.2571   -1.4831    0.0030 O   0  0  0  0  0  0  0  0  0  0  0  0
   -0.8450   -2.4999   -0.0005 H   0  0  0  0  0  0  0  0  0  0  0  0
   -1.0554    2.5081   -0.0017 H   0  0  0  0  0  0  0  0  0  0  0  0
   -3.1407    1.1755   -0.0069 H   0  0  0  0  0  0  0  0  0  0  0  0
    1.9343    5.4365    1.7697 H   0  0  0  0  0  0  0  0  0  0  0  0
    3.6161    4.7046   -2.1139 H   0  0  0  0  0  0  0  0  0  0  0  0
    3.1315    2.2849   -1.8867 H   0  0  0  0  0  0  0  0  0  0  0  0
    2.7334    7.0475    0.3634 H   0  0  0  0  0  0  0  0  0  0  0  0
    0.8449    3.7156    2.6967 H   0  0  0  0  0  0  0  0  0  0  0  0
   -4.0240   -0.8863    0.0091 H   0  0  0  0  0  0  0  0  0  0  0  0
  1  2  2  0  0  0  0
  1  6  1  0  0  0  0
  1 18  1  0  0  0  0
  2  3  1  0  0  0  0
  2 19  1  0  0  0  0
  3  4  2  0  0  0  0
  3  7  1  0  0  0  0
  4  5  1  0  0  0  0
  4  9  1  0  0  0  0
  5  6  2  0  0  0  0
  5 20  1  0  0  0  0
  6 21  1  0  0  0  0
  7  8  1  0  0  0  0
  8  9  2  0  0  0  0
  9 10  1  0  0  0  0
 10 11  2  0  0  0  0
 10 15  1  0  0  0  0
 11 12  1  0  0  0  0
 11 17  1  0  0  0  0
 12 13  2  0  0  0  0
 12 22  1  0  0  0  0
 13 14  1  0  0  0  0
 13 16  1  0  0  0  0
 14 15  2  0  0  0  0
 14 23  1  0  0  0  0
 15 24  1  0  0  0  0
 16 25  1  0  0  0  0
 17 26  1  0  0  0  0
 18 27  1  0  0  0  0
M  END
>  <DRUGBANK_ID>
DB06937

>  <COMMON_NAME>
4-(6-HYDROXY-BENZO[D]ISOXAZOL-3-YL)BENZENE-1,3-DIOL

$$$$
