
 OpenBabel10282417123D

 24 23  0  0  1  0  0  0  0  0999 V2000
   -2.8997    0.7276   -2.4762 C   0  0  0  0  0  0  0  0  0  0  0  0
   -0.3850   -1.1884    0.8262 C   0  0  0  0  0  0  0  0  0  0  0  0
   -1.8994    0.2991   -1.4323 C   0  0  1  0  0  0  0  0  0  0  0  0
   -0.2922    0.3182    1.1206 C   0  0  2  0  0  0  0  0  0  0  0  0
   -0.6747    1.2385   -1.3356 C   0  0  2  0  0  0  0  0  0  0  0  0
    0.2104    1.1869   -0.0524 C   0  0  2  0  0  0  0  0  0  0  0  0
   -3.4797    1.8021   -2.4316 O   0  0  0  0  0  0  0  0  0  0  0  0
    0.8923   -1.7408    0.5251 O   0  0  0  0  0  0  0  0  0  0  0  0
   -2.6605    0.2435   -0.2262 O   0  0  0  0  0  0  0  0  0  0  0  0
    0.5841    0.4990    2.2424 O   0  0  0  0  0  0  0  0  0  0  0  0
   -1.0924    2.6096   -1.4438 O   0  0  0  0  0  0  0  0  0  0  0  0
    1.5826    0.8735   -0.3619 O   0  0  0  0  0  0  0  0  0  0  0  0
   -1.5890   -0.7169   -1.7035 H   0  0  0  0  0  0  0  0  0  0  0  0
   -1.2514    0.7123    1.4660 H   0  0  0  0  0  0  0  0  0  0  0  0
   -0.0495    1.0623   -2.2206 H   0  0  0  0  0  0  0  0  0  0  0  0
    0.2888    2.2123    0.3369 H   0  0  0  0  0  0  0  0  0  0  0  0
   -3.1556   -0.0438   -3.2245 H   0  0  0  0  0  0  0  0  0  0  0  0
   -0.7938   -1.7126    1.6923 H   0  0  0  0  0  0  0  0  0  0  0  0
   -1.0344   -1.4567   -0.0002 H   0  0  0  0  0  0  0  0  0  0  0  0
    1.0811   -1.5642   -0.4086 H   0  0  0  0  0  0  0  0  0  0  0  0
   -2.8070    1.1544    0.0904 H   0  0  0  0  0  0  0  0  0  0  0  0
    1.4370    0.1174    1.9586 H   0  0  0  0  0  0  0  0  0  0  0  0
   -1.9556    2.7239   -1.0046 H   0  0  0  0  0  0  0  0  0  0  0  0
    1.6341    0.1806   -1.0326 H   0  0  0  0  0  0  0  0  0  0  0  0
  1 17  1  0  0  0  0
  2 18  1  0  0  0  0
  2 19  1  0  0  0  0
  3  1  1  0  0  0  0
  3  9  1  0  0  0  0
  3 13  1  6  0  0  0
  4  2  1  0  0  0  0
  4 10  1  0  0  0  0
  4 14  1  1  0  0  0
  5 11  1  0  0  0  0
  5 15  1  6  0  0  0
  5  6  1  0  0  0  0
  5  3  1  0  0  0  0
  6  4  1  0  0  0  0
  6 12  1  0  0  0  0
  6 16  1  1  0  0  0
  7  1  2  0  0  0  0
  8  2  1  0  0  0  0
  8 20  1  0  0  0  0
  9 21  1  0  0  0  0
 10 22  1  0  0  0  0
 11 23  1  0  0  0  0
 12 24  1  0  0  0  0
M  END
>  <DRUGBANK_ID>
DB01914

>  <SECONDARY_ACCESSION_NUMBERS>
EXPT01609; DB11280

>  <COMMON_NAME>
D-glucose

>  <CAS_NUMBER>
50-99-7

>  <UNII>
5SL0G7R0OK

>  <SYNONYMS>
aldehydo-D-glucose; Anhydrous dextrose; D-Glucose in linear form; D-glucose, anhydrous; D(+)-Glucose; Dextrose anhydrous; Dextrose, anhydrous; Glucose anhydrous; Glucose, anhydrous

$$$$
