
 OpenBabel10282417203D

 53 54  0  0  0  0  0  0  0  0999 V2000
    1.4895   -0.2859   -0.6141 C   0  0  0  0  0  0  0  0  0  0  0  0
    1.5132    4.5123    1.3649 C   0  0  0  0  0  0  0  0  0  0  0  0
    0.8382    2.4178   -2.1225 C   0  0  0  0  0  0  0  0  0  0  0  0
    1.0712    1.1152   -0.2399 C   0  0  0  0  0  0  0  0  0  0  0  0
    1.0955    4.0912   -0.1582 C   0  0  0  0  0  0  0  0  0  0  0  0
   -2.2266   -0.1826   -1.5819 C   0  0  0  0  0  0  0  0  0  0  0  0
   -2.7383    4.1927    4.6972 C   0  0  0  0  0  0  0  0  0  0  0  0
   -2.4825    1.1745   -1.4685 C   0  0  0  0  0  0  0  0  0  0  0  0
   -1.7047   -0.8682   -0.4806 C   0  0  0  0  0  0  0  0  0  0  0  0
   -1.8410    4.9228    3.9515 C   0  0  0  0  0  0  0  0  0  0  0  0
   -2.8860    2.8014    4.5465 C   0  0  0  0  0  0  0  0  0  0  0  0
   -2.1888    1.8354   -0.2483 C   0  0  0  0  0  0  0  0  0  0  0  0
   -1.4889   -0.2494    0.7776 C   0  0  0  0  0  0  0  0  0  0  0  0
   -1.1566    4.2193    3.0101 C   0  0  0  0  0  0  0  0  0  0  0  0
   -2.0307    2.0752    3.7711 C   0  0  0  0  0  0  0  0  0  0  0  0
    2.9285    2.4032   -0.4434 C   0  0  0  0  0  0  0  0  0  0  0  0
    3.1809    2.3034    1.1616 C   0  0  0  0  0  0  0  0  0  0  0  0
   -1.6156    1.1368    0.9183 C   0  0  0  0  0  0  0  0  0  0  0  0
   -1.2001    2.7838    2.9576 C   0  0  0  0  0  0  0  0  0  0  0  0
    0.8600    1.1517    2.5817 C   0  0  0  0  0  0  0  0  0  0  0  0
   -0.5485    1.9103    1.9406 C   0  0  0  0  0  0  0  0  0  0  0  0
    1.4999    2.4748   -0.7534 N   0  3  0  0  0  0  0  0  0  0  0  0
    0.7679    0.1534    3.2353 O   0  0  0  0  0  0  0  0  0  0  0  0
   -0.2268    2.8591    1.0196 O   0  0  0  0  0  0  0  0  0  0  0  0
    2.1990    1.6220    2.2712 O   0  0  0  0  0  0  0  0  0  0  0  0
    1.0574   -0.6007   -1.5556 H   0  0  0  0  0  0  0  0  0  0  0  0
    1.0621   -0.9576    0.1626 H   0  0  0  0  0  0  0  0  0  0  0  0
    2.5591   -0.4508   -0.5130 H   0  0  0  0  0  0  0  0  0  0  0  0
    2.5471    4.8157    1.5091 H   0  0  0  0  0  0  0  0  0  0  0  0
    1.0076    5.4214    1.7132 H   0  0  0  0  0  0  0  0  0  0  0  0
    1.3189    3.7807    2.1689 H   0  0  0  0  0  0  0  0  0  0  0  0
   -0.2496    2.4822   -1.9640 H   0  0  0  0  0  0  0  0  0  0  0  0
    1.1379    3.2660   -2.7201 H   0  0  0  0  0  0  0  0  0  0  0  0
    1.0333    1.4515   -2.5970 H   0  0  0  0  0  0  0  0  0  0  0  0
    0.0395    1.1061   -0.2382 H   0  0  0  0  0  0  0  0  0  0  0  0
    1.4746    1.0495    0.6994 H   0  0  0  0  0  0  0  0  0  0  0  0
    1.5343    4.7946   -0.8648 H   0  0  0  0  0  0  0  0  0  0  0  0
    0.0219    4.2223   -0.3938 H   0  0  0  0  0  0  0  0  0  0  0  0
   -2.3781   -0.7009   -2.5302 H   0  0  0  0  0  0  0  0  0  0  0  0
   -3.3659    4.7201    5.3959 H   0  0  0  0  0  0  0  0  0  0  0  0
   -2.7778    1.7275   -2.3665 H   0  0  0  0  0  0  0  0  0  0  0  0
   -1.3039   -1.8699   -0.6459 H   0  0  0  0  0  0  0  0  0  0  0  0
   -1.7202    6.0026    4.0114 H   0  0  0  0  0  0  0  0  0  0  0  0
   -3.6887    2.2538    5.0136 H   0  0  0  0  0  0  0  0  0  0  0  0
   -2.1839    2.9275   -0.3400 H   0  0  0  0  0  0  0  0  0  0  0  0
   -0.9411   -0.8050    1.5306 H   0  0  0  0  0  0  0  0  0  0  0  0
   -0.6883    4.8742    2.2832 H   0  0  0  0  0  0  0  0  0  0  0  0
   -2.0733    0.9926    3.6710 H   0  0  0  0  0  0  0  0  0  0  0  0
    3.3194    1.5306   -0.9714 H   0  0  0  0  0  0  0  0  0  0  0  0
    3.3706    3.2942   -0.8939 H   0  0  0  0  0  0  0  0  0  0  0  0
    4.1591    1.8223    1.2705 H   0  0  0  0  0  0  0  0  0  0  0  0
    3.4022    3.2706    1.5796 H   0  0  0  0  0  0  0  0  0  0  0  0
   -0.9008    3.5475    1.0450 H   0  0  0  0  0  0  0  0  0  0  0  0
  1 26  1  0  0  0  0
  1 27  1  0  0  0  0
  1 28  1  0  0  0  0
  2 29  1  0  0  0  0
  2 30  1  0  0  0  0
  2 31  1  0  0  0  0
  3 32  1  0  0  0  0
  3 33  1  0  0  0  0
  3 34  1  0  0  0  0
  4  1  1  0  0  0  0
  4 35  1  0  0  0  0
  4 36  1  0  0  0  0
  5  2  1  0  0  0  0
  5 37  1  0  0  0  0
  5 38  1  0  0  0  0
  6 39  1  0  0  0  0
  7 40  1  0  0  0  0
  8  6  2  0  0  0  0
  8 41  1  0  0  0  0
  9  6  1  0  0  0  0
  9 42  1  0  0  0  0
 10  7  2  0  0  0  0
 10 43  1  0  0  0  0
 11  7  1  0  0  0  0
 11 44  1  0  0  0  0
 12  8  1  0  0  0  0
 12 45  1  0  0  0  0
 13  9  2  0  0  0  0
 13 46  1  0  0  0  0
 14 10  1  0  0  0  0
 14 47  1  0  0  0  0
 15 11  2  0  0  0  0
 15 48  1  0  0  0  0
 16 49  1  0  0  0  0
 16 50  1  0  0  0  0
 17 16  1  0  0  0  0
 17 51  1  0  0  0  0
 17 52  1  0  0  0  0
 18 12  2  0  0  0  0
 18 13  1  0  0  0  0
 19 14  2  0  0  0  0
 19 15  1  0  0  0  0
 21 18  1  0  0  0  0
 21 19  1  0  0  0  0
 21 20  1  0  0  0  0
 22  3  1  0  0  0  0
 22  4  1  0  0  0  0
 22  5  1  0  0  0  0
 22 16  1  0  0  0  0
 23 20  2  0  0  0  0
 24 21  1  0  0  0  0
 24 53  1  0  0  0  0
 25 17  1  0  0  0  0
 25 20  1  0  0  0  0
M  CHG  1  22   1
M  END
>  <DRUGBANK_ID>
DB13181

>  <COMMON_NAME>
Methylbenactyzium

>  <CAS_NUMBER>
13473-61-5

>  <UNII>
38C3R34UK2

$$$$
