
 OpenBabel10282417193D

 76 76  0  0  1  0  0  0  0  0999 V2000
    2.6465    1.8406    0.5365 C   0  0  0  0  0  0  0  0  0  0  0  0
    1.3313    1.1540    0.7489 C   0  0  0  0  0  0  0  0  0  0  0  0
    0.1396    1.7703    0.7465 C   0  0  0  0  0  0  0  0  0  0  0  0
   -1.1019    0.9180    0.8193 C   0  0  0  0  0  0  0  0  0  0  0  0
   -2.1252    1.4798    1.1637 O   0  0  0  0  0  0  0  0  0  0  0  0
   -1.0272   -0.6114    0.5602 C   0  0  0  0  0  0  0  0  0  0  0  0
    0.2041   -1.1705    0.6937 C   0  0  0  0  0  0  0  0  0  0  0  0
    1.4319   -0.3244    0.5827 C   0  0  0  0  0  0  0  0  0  0  0  0
    2.4857   -0.8124    0.2168 O   0  0  0  0  0  0  0  0  0  0  0  0
    0.6305   -2.6216    0.8827 C   0  0  0  0  0  0  0  0  0  0  0  0
   -2.3566   -1.4197    0.3330 C   0  0  0  0  0  0  0  0  0  0  0  0
   -2.5532   -2.2586   -0.9963 C   0  0  0  0  0  0  0  0  0  0  0  0
   -1.5934   -3.4031   -1.2171 C   0  0  1  0  0  0  0  0  0  0  0  0
   -1.7325   -4.3369   -0.0042 C   0  0  0  0  0  0  0  0  0  0  0  0
   -1.6881   -4.2199   -2.5081 C   0  0  0  0  0  0  0  0  0  0  0  0
   -1.5482   -3.4036   -3.8000 C   0  0  0  0  0  0  0  0  0  0  0  0
   -0.2015   -2.7582   -3.9740 C   0  0  0  0  0  0  0  0  0  0  0  0
    0.7487   -2.8906   -4.9054 C   0  0  0  0  0  0  0  0  0  0  0  0
    0.5394   -3.7954   -6.0565 C   0  0  0  0  0  0  0  0  0  0  0  0
    2.0650   -2.1177   -4.8403 C   0  0  0  0  0  0  0  0  0  0  0  0
    1.9284   -0.6065   -5.0107 C   0  0  0  0  0  0  0  0  0  0  0  0
    1.2594    0.0117   -3.8757 C   0  0  0  0  0  0  0  0  0  0  0  0
    1.6902    0.9744   -3.0485 C   0  0  0  0  0  0  0  0  0  0  0  0
    3.0702    1.5289   -3.0235 C   0  0  0  0  0  0  0  0  0  0  0  0
    0.6790    1.3838   -2.0533 C   0  0  0  0  0  0  0  0  0  0  0  0
   -0.7002    1.9845   -2.3966 C   0  0  0  0  0  0  0  0  0  0  0  0
   -1.6925    1.0501   -3.0120 C   0  0  0  0  0  0  0  0  0  0  0  0
   -2.9131    0.6894   -2.5710 C   0  0  0  0  0  0  0  0  0  0  0  0
   -3.6968   -0.3391   -3.3258 C   0  0  0  0  0  0  0  0  0  0  0  0
   -3.5781    1.1762   -1.3301 C   0  0  0  0  0  0  0  0  0  0  0  0
   -0.3864   -2.6844   -1.3635 O   0  0  0  0  0  0  0  0  0  0  0  0
   -0.0390    3.2696    0.4170 C   0  0  0  0  0  0  0  0  0  0  0  0
    3.3278    1.6362    1.3599 H   0  0  0  0  0  0  0  0  0  0  0  0
    3.1227    1.4620   -0.3653 H   0  0  0  0  0  0  0  0  0  0  0  0
    2.5421    2.9167    0.3912 H   0  0  0  0  0  0  0  0  0  0  0  0
    0.2921   -2.9730    1.8491 H   0  0  0  0  0  0  0  0  0  0  0  0
    0.3209   -3.4173    0.2321 H   0  0  0  0  0  0  0  0  0  0  0  0
    1.6988   -2.7753    0.7257 H   0  0  0  0  0  0  0  0  0  0  0  0
   -2.5182   -2.0486    1.2065 H   0  0  0  0  0  0  0  0  0  0  0  0
   -3.2581   -0.8009    0.3808 H   0  0  0  0  0  0  0  0  0  0  0  0
   -3.5831   -2.6314   -1.0844 H   0  0  0  0  0  0  0  0  0  0  0  0
   -2.3467   -1.5849   -1.8156 H   0  0  0  0  0  0  0  0  0  0  0  0
   -2.7034   -4.8384   -0.0124 H   0  0  0  0  0  0  0  0  0  0  0  0
   -0.9341   -5.0791    0.0467 H   0  0  0  0  0  0  0  0  0  0  0  0
   -1.6912   -3.7998    0.9474 H   0  0  0  0  0  0  0  0  0  0  0  0
   -0.8638   -4.9517   -2.4968 H   0  0  0  0  0  0  0  0  0  0  0  0
   -2.6237   -4.7829   -2.5265 H   0  0  0  0  0  0  0  0  0  0  0  0
   -1.7967   -4.0572   -4.6317 H   0  0  0  0  0  0  0  0  0  0  0  0
   -2.3020   -2.6212   -3.8062 H   0  0  0  0  0  0  0  0  0  0  0  0
    0.0373   -2.0454   -3.2056 H   0  0  0  0  0  0  0  0  0  0  0  0
    0.5528   -3.2085   -6.9751 H   0  0  0  0  0  0  0  0  0  0  0  0
    1.3059   -4.5694   -6.0543 H   0  0  0  0  0  0  0  0  0  0  0  0
   -0.4271   -4.2969   -6.0110 H   0  0  0  0  0  0  0  0  0  0  0  0
    2.5899   -2.3433   -3.8987 H   0  0  0  0  0  0  0  0  0  0  0  0
    2.7267   -2.4530   -5.6445 H   0  0  0  0  0  0  0  0  0  0  0  0
    2.9127   -0.1632   -5.1561 H   0  0  0  0  0  0  0  0  0  0  0  0
    1.3123   -0.3519   -5.8772 H   0  0  0  0  0  0  0  0  0  0  0  0
    0.2697   -0.3304   -3.6660 H   0  0  0  0  0  0  0  0  0  0  0  0
    3.0228    2.6175   -2.9479 H   0  0  0  0  0  0  0  0  0  0  0  0
    3.6591    1.1320   -2.1909 H   0  0  0  0  0  0  0  0  0  0  0  0
    3.6398    1.2762   -3.9153 H   0  0  0  0  0  0  0  0  0  0  0  0
    0.4794    0.4845   -1.4720 H   0  0  0  0  0  0  0  0  0  0  0  0
    1.2210    2.1266   -1.4863 H   0  0  0  0  0  0  0  0  0  0  0  0
   -1.1739    2.3255   -1.4803 H   0  0  0  0  0  0  0  0  0  0  0  0
   -0.5471    2.8772   -3.0017 H   0  0  0  0  0  0  0  0  0  0  0  0
   -1.3620    0.6116   -3.9438 H   0  0  0  0  0  0  0  0  0  0  0  0
   -4.0304   -1.1713   -2.6986 H   0  0  0  0  0  0  0  0  0  0  0  0
   -4.5956    0.1161   -3.7230 H   0  0  0  0  0  0  0  0  0  0  0  0
   -3.0945   -0.7578   -4.1345 H   0  0  0  0  0  0  0  0  0  0  0  0
   -3.0375    0.7507   -0.5216 H   0  0  0  0  0  0  0  0  0  0  0  0
   -3.5441    2.2552   -1.1969 H   0  0  0  0  0  0  0  0  0  0  0  0
   -4.5902    0.7879   -1.1822 H   0  0  0  0  0  0  0  0  0  0  0  0
    0.3447   -3.2394   -1.6844 H   0  0  0  0  0  0  0  0  0  0  0  0
    0.3861    3.9260    1.1727 H   0  0  0  0  0  0  0  0  0  0  0  0
    0.4561    3.5718   -0.5227 H   0  0  0  0  0  0  0  0  0  0  0  0
   -1.0824    3.5553    0.2377 H   0  0  0  0  0  0  0  0  0  0  0  0
  1  2  1  0  0  0  0
  1 33  1  0  0  0  0
  1 34  1  0  0  0  0
  1 35  1  0  0  0  0
  2  3  2  0  0  0  0
  2  8  1  0  0  0  0
  3  4  1  0  0  0  0
  3 32  1  0  0  0  0
  4  5  2  0  0  0  0
  4  6  1  0  0  0  0
  6  7  2  0  0  0  0
  6 11  1  0  0  0  0
  7  8  1  0  0  0  0
  7 10  1  0  0  0  0
  8  9  2  0  0  0  0
 10 36  1  0  0  0  0
 10 37  1  0  0  0  0
 10 38  1  0  0  0  0
 11 12  1  0  0  0  0
 11 39  1  0  0  0  0
 11 40  1  0  0  0  0
 12 13  1  0  0  0  0
 12 41  1  0  0  0  0
 12 42  1  0  0  0  0
 13 14  1  0  0  0  0
 13 15  1  0  0  0  0
 13 31  1  1  0  0  0
 14 43  1  0  0  0  0
 14 44  1  0  0  0  0
 14 45  1  0  0  0  0
 15 16  1  0  0  0  0
 15 46  1  0  0  0  0
 15 47  1  0  0  0  0
 16 17  1  0  0  0  0
 16 48  1  0  0  0  0
 16 49  1  0  0  0  0
 17 18  2  0  0  0  0
 17 50  1  0  0  0  0
 18 19  1  0  0  0  0
 18 20  1  0  0  0  0
 19 51  1  0  0  0  0
 19 52  1  0  0  0  0
 19 53  1  0  0  0  0
 20 21  1  0  0  0  0
 20 54  1  0  0  0  0
 20 55  1  0  0  0  0
 21 22  1  0  0  0  0
 21 56  1  0  0  0  0
 21 57  1  0  0  0  0
 22 23  2  0  0  0  0
 22 58  1  0  0  0  0
 23 24  1  0  0  0  0
 23 25  1  0  0  0  0
 24 59  1  0  0  0  0
 24 60  1  0  0  0  0
 24 61  1  0  0  0  0
 25 26  1  0  0  0  0
 25 62  1  0  0  0  0
 25 63  1  0  0  0  0
 26 27  1  0  0  0  0
 26 64  1  0  0  0  0
 26 65  1  0  0  0  0
 27 28  2  0  0  0  0
 27 66  1  0  0  0  0
 28 29  1  0  0  0  0
 28 30  1  0  0  0  0
 29 67  1  0  0  0  0
 29 68  1  0  0  0  0
 29 69  1  0  0  0  0
 30 70  1  0  0  0  0
 30 71  1  0  0  0  0
 30 72  1  0  0  0  0
 31 73  1  0  0  0  0
 32 74  1  0  0  0  0
 32 75  1  0  0  0  0
 32 76  1  0  0  0  0
M  END
>  <DRUGBANK_ID>
DB11917

>  <COMMON_NAME>
Vatiquinone

>  <CAS_NUMBER>
1213269-98-7

>  <UNII>
6O85FK9I0X

>  <SYNONYMS>
alpha-Tocotrienol quinone; Vatiquinone

$$$$
