Y12
 OpenBabel10282417173D

 48 49  0  0  0  0  0  0  0  0999 V2000
    1.4598   -0.2705    0.0099 C   0  0  0  0  0  0  0  0  0  0  0  0
    0.5664   -1.3449    0.0112 C   0  0  0  0  0  0  0  0  0  0  0  0
   -0.8023   -1.1156   -0.0492 C   0  0  0  0  0  0  0  0  0  0  0  0
   -1.2684    0.1960   -0.1357 C   0  0  0  0  0  0  0  0  0  0  0  0
   -2.7323    0.4775   -0.1864 C   0  0  0  0  0  0  0  0  0  0  0  0
   -3.1467    1.1434    1.1152 C   0  0  0  0  0  0  0  0  0  0  0  0
   -2.8079    2.5552    1.2281 N   0  0  0  0  0  0  0  0  0  0  0  0
   -3.4962    3.7074    1.0574 C   0  0  0  0  0  0  0  0  0  0  0  0
   -2.8839    4.7759    1.0866 O   0  0  0  0  0  0  0  0  0  0  0  0
   -4.9663    3.7343    0.9239 C   0  0  0  0  0  0  0  0  0  0  0  0
   -5.8014    2.6903    0.8930 C   0  0  0  0  0  0  0  0  0  0  0  0
   -7.2277    2.6828    0.7303 C   0  0  0  0  0  0  0  0  0  0  0  0
   -7.6812    3.4634   -0.2955 C   0  0  0  0  0  0  0  0  0  0  0  0
   -8.9739    3.3600   -0.7315 C   0  0  0  0  0  0  0  0  0  0  0  0
   -9.3228    4.1175   -1.8650 O   0  0  0  0  0  0  0  0  0  0  0  0
   -8.5652    5.1251   -2.4666 C   0  0  0  0  0  0  0  0  0  0  0  0
   -7.3892    5.4053   -2.2677 O   0  0  0  0  0  0  0  0  0  0  0  0
   -9.3915    5.8770   -3.4458 C   0  0  0  0  0  0  0  0  0  0  0  0
   -9.8571    2.4732   -0.0951 C   0  0  0  0  0  0  0  0  0  0  0  0
  -11.2591    2.4005   -0.3556 O   0  0  0  0  0  0  0  0  0  0  0  0
  -11.9647    3.3866   -1.0643 C   0  0  0  0  0  0  0  0  0  0  0  0
  -11.5458    4.3897   -1.5929 O   0  0  0  0  0  0  0  0  0  0  0  0
  -13.4328    3.1390   -1.0957 C   0  0  0  0  0  0  0  0  0  0  0  0
   -9.3599    1.5903    0.8919 C   0  0  0  0  0  0  0  0  0  0  0  0
   -8.0334    1.7059    1.3116 C   0  0  0  0  0  0  0  0  0  0  0  0
   -0.3663    1.2663   -0.1353 C   0  0  0  0  0  0  0  0  0  0  0  0
    0.9940    1.0369   -0.0643 C   0  0  0  0  0  0  0  0  0  0  0  0
    2.5275   -0.4510    0.0589 H   0  0  0  0  0  0  0  0  0  0  0  0
    0.9387   -2.3635    0.0484 H   0  0  0  0  0  0  0  0  0  0  0  0
   -1.4966   -1.9535   -0.0307 H   0  0  0  0  0  0  0  0  0  0  0  0
   -2.9745    1.0772   -1.0733 H   0  0  0  0  0  0  0  0  0  0  0  0
   -3.2975   -0.4595   -0.2939 H   0  0  0  0  0  0  0  0  0  0  0  0
   -4.1860    0.9573    1.1620 H   0  0  0  0  0  0  0  0  0  0  0  0
   -2.7906    0.6412    2.0155 H   0  0  0  0  0  0  0  0  0  0  0  0
   -1.8415    2.7576    1.4522 H   0  0  0  0  0  0  0  0  0  0  0  0
   -5.3533    4.7510    0.8653 H   0  0  0  0  0  0  0  0  0  0  0  0
   -5.5526    1.6652    0.8211 H   0  0  0  0  0  0  0  0  0  0  0  0
   -6.9546    4.0867   -0.7890 H   0  0  0  0  0  0  0  0  0  0  0  0
   -9.8084    5.1965   -4.1881 H   0  0  0  0  0  0  0  0  0  0  0  0
  -10.1662    6.4476   -2.9303 H   0  0  0  0  0  0  0  0  0  0  0  0
   -8.7190    6.5780   -3.9487 H   0  0  0  0  0  0  0  0  0  0  0  0
  -13.6738    2.1537   -1.4879 H   0  0  0  0  0  0  0  0  0  0  0  0
  -13.8699    3.3422   -0.1184 H   0  0  0  0  0  0  0  0  0  0  0  0
  -13.8310    3.8821   -1.8003 H   0  0  0  0  0  0  0  0  0  0  0  0
   -9.9656    0.7985    1.3277 H   0  0  0  0  0  0  0  0  0  0  0  0
   -7.6081    1.0292    2.0541 H   0  0  0  0  0  0  0  0  0  0  0  0
   -0.7173    2.2934   -0.1876 H   0  0  0  0  0  0  0  0  0  0  0  0
    1.6732    1.8830   -0.0863 H   0  0  0  0  0  0  0  0  0  0  0  0
  1  2  2  0  0  0  0
  1 27  1  0  0  0  0
  1 28  1  0  0  0  0
  2  3  1  0  0  0  0
  2 29  1  0  0  0  0
  3  4  2  0  0  0  0
  3 30  1  0  0  0  0
  4  5  1  0  0  0  0
  4 26  1  0  0  0  0
  5  6  1  0  0  0  0
  5 31  1  0  0  0  0
  5 32  1  0  0  0  0
  6  7  1  0  0  0  0
  6 33  1  0  0  0  0
  6 34  1  0  0  0  0
  7  8  1  0  0  0  0
  7 35  1  0  0  0  0
  8  9  2  0  0  0  0
  8 10  1  0  0  0  0
 10 11  2  0  0  0  0
 10 36  1  0  0  0  0
 11 12  1  0  0  0  0
 11 37  1  0  0  0  0
 12 13  1  0  0  0  0
 12 25  2  0  0  0  0
 13 14  2  0  0  0  0
 13 38  1  0  0  0  0
 14 15  1  0  0  0  0
 14 19  1  0  0  0  0
 15 16  1  0  0  0  0
 16 17  2  0  0  0  0
 16 18  1  0  0  0  0
 18 39  1  0  0  0  0
 18 40  1  0  0  0  0
 18 41  1  0  0  0  0
 19 20  1  0  0  0  0
 19 24  2  0  0  0  0
 20 21  1  0  0  0  0
 21 22  2  0  0  0  0
 21 23  1  0  0  0  0
 23 42  1  0  0  0  0
 23 43  1  0  0  0  0
 23 44  1  0  0  0  0
 24 25  1  0  0  0  0
 24 45  1  0  0  0  0
 25 46  1  0  0  0  0
 26 27  2  0  0  0  0
 26 47  1  0  0  0  0
 27 48  1  0  0  0  0
M  END
>  <DRUGBANK_ID>
DB08753

>  <COMMON_NAME>
4-{(1E)-3-OXO-3-[(2-PHENYLETHYL)AMINO]PROP-1-EN-1-YL}-1,2-PHENYLENE DIACETATE

$$$$
