HHG
 OpenBabel10282417133D

 36 35  0  0  0  0  0  0  0  0999 V2000
    0.9774   -0.0954   -0.0197 O   0  0  0  0  0  0  0  0  0  0  0  0
    0.4007    1.0832    1.1078 P   0  0  0  0  0  0  0  0  0  0  0  0
    1.7945    1.6986    0.9914 O   0  0  0  0  0  0  0  0  0  0  0  0
   -0.4871    1.7294   -0.0895 O   0  0  0  0  0  0  0  0  0  0  0  0
   -0.1760    2.2618    2.2353 O   0  0  0  0  0  0  0  0  0  0  0  0
    0.5453    2.2100    3.4214 C   0  0  0  0  0  0  0  0  0  0  0  0
    0.5518    0.8401    4.1048 C   0  0  1  0  0  0  0  0  0  0  0  0
    1.0737   -0.2024    3.2658 O   0  0  0  0  0  0  0  0  0  0  0  0
    1.4490    0.9388    5.3420 C   0  0  0  0  0  0  0  0  0  0  0  0
    0.9966    1.9560    6.2574 O   0  0  0  0  0  0  0  0  0  0  0  0
    1.2329    3.2669    5.9991 C   0  0  0  0  0  0  0  0  0  0  0  0
    1.9998    3.6876    5.1317 O   0  0  0  0  0  0  0  0  0  0  0  0
    0.4475    4.2019    6.8774 C   0  0  0  0  0  0  0  0  0  0  0  0
   -1.0113    3.8263    7.1607 C   0  0  0  0  0  0  0  0  0  0  0  0
   -1.1798    2.4962    7.9031 C   0  0  0  0  0  0  0  0  0  0  0  0
   -0.3113    2.4235    9.1612 C   0  0  0  0  0  0  0  0  0  0  0  0
   -0.7476    3.4708   10.1727 C   0  0  0  0  0  0  0  0  0  0  0  0
   -0.4768    0.5651    4.3663 H   0  0  0  0  0  0  0  0  0  0  0  0
    1.8859    0.2412   -0.1984 H   0  0  0  0  0  0  0  0  0  0  0  0
   -0.2684    1.2933   -0.9318 H   0  0  0  0  0  0  0  0  0  0  0  0
    1.5646    2.5362    3.2010 H   0  0  0  0  0  0  0  0  0  0  0  0
    0.0251    2.9364    4.0393 H   0  0  0  0  0  0  0  0  0  0  0  0
    0.3434   -0.6818    2.8365 H   0  0  0  0  0  0  0  0  0  0  0  0
    1.4065   -0.0264    5.8623 H   0  0  0  0  0  0  0  0  0  0  0  0
    2.4997    1.0897    5.0681 H   0  0  0  0  0  0  0  0  0  0  0  0
    1.0296    4.3230    7.7933 H   0  0  0  0  0  0  0  0  0  0  0  0
    0.4399    5.1824    6.3857 H   0  0  0  0  0  0  0  0  0  0  0  0
   -1.4512    4.6283    7.7694 H   0  0  0  0  0  0  0  0  0  0  0  0
   -1.6027    3.8125    6.2375 H   0  0  0  0  0  0  0  0  0  0  0  0
   -2.2333    2.3467    8.1642 H   0  0  0  0  0  0  0  0  0  0  0  0
   -0.9489    1.6587    7.2393 H   0  0  0  0  0  0  0  0  0  0  0  0
   -0.3827    1.4234    9.5987 H   0  0  0  0  0  0  0  0  0  0  0  0
    0.7500    2.5633    8.9248 H   0  0  0  0  0  0  0  0  0  0  0  0
   -1.7940    3.3092   10.4473 H   0  0  0  0  0  0  0  0  0  0  0  0
   -0.1303    3.4208   11.0714 H   0  0  0  0  0  0  0  0  0  0  0  0
   -0.6563    4.4868    9.7749 H   0  0  0  0  0  0  0  0  0  0  0  0
  1  2  1  0  0  0  0
  1 19  1  0  0  0  0
  2  3  2  0  0  0  0
  2  4  1  0  0  0  0
  2  5  1  0  0  0  0
  4 20  1  0  0  0  0
  5  6  1  0  0  0  0
  6  7  1  0  0  0  0
  6 21  1  0  0  0  0
  6 22  1  0  0  0  0
  7  8  1  0  0  0  0
  7  9  1  0  0  0  0
  7 18  1  1  0  0  0
  8 23  1  0  0  0  0
  9 10  1  0  0  0  0
  9 24  1  0  0  0  0
  9 25  1  0  0  0  0
 10 11  1  0  0  0  0
 11 12  2  0  0  0  0
 11 13  1  0  0  0  0
 13 14  1  0  0  0  0
 13 26  1  0  0  0  0
 13 27  1  0  0  0  0
 14 15  1  0  0  0  0
 14 28  1  0  0  0  0
 14 29  1  0  0  0  0
 15 16  1  0  0  0  0
 15 30  1  0  0  0  0
 15 31  1  0  0  0  0
 16 17  1  0  0  0  0
 16 32  1  0  0  0  0
 16 33  1  0  0  0  0
 17 34  1  0  0  0  0
 17 35  1  0  0  0  0
 17 36  1  0  0  0  0
M  END
>  <DRUGBANK_ID>
DB04199

>  <SECONDARY_ACCESSION_NUMBERS>
EXPT01744

>  <COMMON_NAME>
1-Monohexanoyl-2-Hydroxy-Sn-Glycero-3-Phosphate

$$$$
