
 OpenBabel10282417203D

 42 44  0  0  0  0  0  0  0  0999 V2000
    0.7684   -1.3131    0.3762 C   0  0  0  0  0  0  0  0  0  0  0  0
   -0.5580   -0.9666    0.3087 C   0  0  0  0  0  0  0  0  0  0  0  0
    1.5537   -2.5229    0.1149 N   0  0  0  0  0  0  0  0  0  0  0  0
    1.6553   -0.0309    0.3297 C   0  0  0  0  0  0  0  0  0  0  0  0
   -1.1100    0.4844    0.2460 C   0  0  0  0  0  0  0  0  0  0  0  0
   -1.6943   -1.9381    0.0049 C   0  0  3  0  0  0  0  0  0  0  0  0
    2.0037   -3.6236    0.9613 C   0  0  0  0  0  0  0  0  0  0  0  0
    1.3933   -3.9275   -0.3624 C   0  0  0  0  0  0  0  0  0  0  0  0
    1.0991    1.3958    0.1419 C   0  0  0  0  0  0  0  0  0  0  0  0
    2.8782   -0.1769    0.2742 O   0  0  0  0  0  0  0  0  0  0  0  0
   -0.2106    1.7009    0.1079 C   0  0  0  0  0  0  0  0  0  0  0  0
   -2.3272    0.6703    0.1432 O   0  0  0  0  0  0  0  0  0  0  0  0
   -1.6228   -2.5935   -1.4262 C   0  0  0  0  0  0  0  0  0  0  0  0
   -2.0221   -2.7805    1.1408 O   0  0  0  0  0  0  0  0  0  0  0  0
    2.1372    2.4631   -0.1050 C   0  0  0  0  0  0  0  0  0  0  0  0
   -0.9441    2.8456   -0.2361 N   0  0  0  0  0  0  0  0  0  0  0  0
   -0.3496   -3.0022   -2.0109 O   0  0  0  0  0  0  0  0  0  0  0  0
   -0.9322   -3.5405    1.5714 C   0  0  0  0  0  0  0  0  0  0  0  0
   -0.6729    4.1512   -0.7783 C   0  0  0  0  0  0  0  0  0  0  0  0
   -1.2757    3.9794    0.6080 C   0  0  0  0  0  0  0  0  0  0  0  0
    0.7134   -2.2539   -2.4571 C   0  0  0  0  0  0  0  0  0  0  0  0
    0.5711   -0.9033   -2.3948 N   0  0  0  0  0  0  0  0  0  0  0  0
    1.7880   -2.7100   -2.7519 O   0  0  0  0  0  0  0  0  0  0  0  0
   -2.6596   -1.4172   -0.0593 H   0  0  0  0  0  0  0  0  0  0  0  0
    3.0741   -3.7867    0.9828 H   0  0  0  0  0  0  0  0  0  0  0  0
    1.4664   -4.0562    1.7918 H   0  0  0  0  0  0  0  0  0  0  0  0
    0.4915   -4.5244   -0.4671 H   0  0  0  0  0  0  0  0  0  0  0  0
    2.0587   -4.2943   -1.1509 H   0  0  0  0  0  0  0  0  0  0  0  0
   -2.2285   -3.5070   -1.3936 H   0  0  0  0  0  0  0  0  0  0  0  0
   -2.0686   -1.9283   -2.1698 H   0  0  0  0  0  0  0  0  0  0  0  0
    1.9658    2.9833   -1.0551 H   0  0  0  0  0  0  0  0  0  0  0  0
    2.1102    3.1972    0.7061 H   0  0  0  0  0  0  0  0  0  0  0  0
    3.1591    2.0767   -0.1545 H   0  0  0  0  0  0  0  0  0  0  0  0
   -0.6823   -4.1360    0.7186 H   0  0  0  0  0  0  0  0  0  0  0  0
   -0.1615   -2.8677    1.9433 H   0  0  0  0  0  0  0  0  0  0  0  0
   -1.0890   -4.2539    2.3758 H   0  0  0  0  0  0  0  0  0  0  0  0
    0.2769    4.6693   -0.7917 H   0  0  0  0  0  0  0  0  0  0  0  0
   -1.3415    4.3987   -1.6002 H   0  0  0  0  0  0  0  0  0  0  0  0
   -2.3451    4.1208    0.7304 H   0  0  0  0  0  0  0  0  0  0  0  0
   -0.6521    4.3459    1.4140 H   0  0  0  0  0  0  0  0  0  0  0  0
    1.4750   -0.5245   -2.1116 H   0  0  0  0  0  0  0  0  0  0  0  0
   -0.2440   -0.5177   -1.9736 H   0  0  0  0  0  0  0  0  0  0  0  0
  1  2  2  0  0  0  0
  1  3  1  0  0  0  0
  1  4  1  0  0  0  0
  2  5  1  0  0  0  0
  2  6  1  0  0  0  0
  3  7  1  0  0  0  0
  3  8  1  0  0  0  0
  4  9  1  0  0  0  0
  4 10  2  0  0  0  0
  5 11  1  0  0  0  0
  5 12  2  0  0  0  0
  6 13  1  0  0  0  0
  6 14  1  0  0  0  0
  6 24  1  0  0  0  0
  7  8  1  0  0  0  0
  7 25  1  0  0  0  0
  7 26  1  0  0  0  0
  8 27  1  0  0  0  0
  8 28  1  0  0  0  0
  9 15  1  0  0  0  0
  9 11  2  0  0  0  0
 11 16  1  0  0  0  0
 13 17  1  0  0  0  0
 13 29  1  0  0  0  0
 13 30  1  0  0  0  0
 14 18  1  0  0  0  0
 15 31  1  0  0  0  0
 15 32  1  0  0  0  0
 15 33  1  0  0  0  0
 16 19  1  0  0  0  0
 16 20  1  0  0  0  0
 17 21  1  0  0  0  0
 18 34  1  0  0  0  0
 18 35  1  0  0  0  0
 18 36  1  0  0  0  0
 19 20  1  0  0  0  0
 19 37  1  0  0  0  0
 19 38  1  0  0  0  0
 20 39  1  0  0  0  0
 20 40  1  0  0  0  0
 21 22  1  0  0  0  0
 21 23  2  0  0  0  0
 22 41  1  0  0  0  0
 22 42  1  0  0  0  0
M  END
>  <DRUGBANK_ID>
DB13677

>  <COMMON_NAME>
Carboquone

>  <CAS_NUMBER>
24279-91-2

>  <UNII>
1CB0HBT12C

>  <SYNONYMS>
Carboquona; Carboquone; Carboquonum

$$$$
