
 OpenBabel10282417193D

 30 29  0  0  1  0  0  0  0  0999 V2000
   -4.1709   -0.4302   -9.2862 C   0  0  0  0  0  0  0  0  0  0  0  0
   -3.0204   -1.2193   -8.7551 C   0  0  0  0  0  0  0  0  0  0  0  0
   -2.9370   -2.4406   -8.8901 O   0  0  0  0  0  0  0  0  0  0  0  0
   -1.9911   -0.5421   -8.1734 N   0  0  0  0  0  0  0  0  0  0  0  0
   -2.0112    0.8099   -7.5589 C   0  0  2  0  0  0  0  0  0  0  0  0
   -2.2795    1.8915   -8.6066 C   0  0  0  0  0  0  0  0  0  0  0  0
   -1.6797    2.9630   -8.6859 O   0  0  0  0  0  0  0  0  0  0  0  0
   -0.6567    1.1613   -6.9165 C   0  0  1  0  0  0  0  0  0  0  0  0
   -0.6535    2.4815   -6.3582 O   0  0  0  0  0  0  0  0  0  0  0  0
   -0.3009    0.1018   -5.8439 C   0  0  2  0  0  0  0  0  0  0  0  0
   -0.4262    0.6296   -4.5220 O   0  0  0  0  0  0  0  0  0  0  0  0
    1.0169   -0.6696   -6.1155 C   0  0  2  0  0  0  0  0  0  0  0  0
    1.7206   -0.9459   -4.8996 O   0  0  0  0  0  0  0  0  0  0  0  0
    1.9747   -0.0464   -7.1389 C   0  0  0  0  0  0  0  0  0  0  0  0
    3.1402   -0.8538   -7.2701 O   0  0  0  0  0  0  0  0  0  0  0  0
   -2.8066    0.8399   -6.8051 H   0  0  0  0  0  0  0  0  0  0  0  0
    0.0610    1.1964   -7.7352 H   0  0  0  0  0  0  0  0  0  0  0  0
   -1.0686   -0.6795   -5.8572 H   0  0  0  0  0  0  0  0  0  0  0  0
    0.7369   -1.6460   -6.5341 H   0  0  0  0  0  0  0  0  0  0  0  0
   -4.9460   -1.0855   -9.6798 H   0  0  0  0  0  0  0  0  0  0  0  0
   -3.8130    0.1721  -10.1251 H   0  0  0  0  0  0  0  0  0  0  0  0
   -4.5969    0.1884   -8.4910 H   0  0  0  0  0  0  0  0  0  0  0  0
   -1.3315   -1.2286   -7.8168 H   0  0  0  0  0  0  0  0  0  0  0  0
   -3.1562    1.7573   -9.2377 H   0  0  0  0  0  0  0  0  0  0  0  0
   -0.8243    3.1084   -7.0961 H   0  0  0  0  0  0  0  0  0  0  0  0
   -0.5753   -0.1165   -3.9180 H   0  0  0  0  0  0  0  0  0  0  0  0
    1.5809   -1.8861   -4.6944 H   0  0  0  0  0  0  0  0  0  0  0  0
    1.5193   -0.0246   -8.1341 H   0  0  0  0  0  0  0  0  0  0  0  0
    2.2780    0.9650   -6.8520 H   0  0  0  0  0  0  0  0  0  0  0  0
    3.5399   -0.8632   -6.3808 H   0  0  0  0  0  0  0  0  0  0  0  0
  1  2  1  0  0  0  0
  1 20  1  0  0  0  0
  1 21  1  0  0  0  0
  1 22  1  0  0  0  0
  2  3  2  0  0  0  0
  2  4  1  0  0  0  0
  4 23  1  0  0  0  0
  5  8  1  0  0  0  0
  5 16  1  1  0  0  0
  5  6  1  0  0  0  0
  5  4  1  0  0  0  0
  6  7  2  0  0  0  0
  6 24  1  0  0  0  0
  8  9  1  0  0  0  0
  8 17  1  6  0  0  0
  9 25  1  0  0  0  0
 10 18  1  6  0  0  0
 10 11  1  0  0  0  0
 10  8  1  0  0  0  0
 11 26  1  0  0  0  0
 12 14  1  0  0  0  0
 12 19  1  6  0  0  0
 12 13  1  0  0  0  0
 12 10  1  0  0  0  0
 13 27  1  0  0  0  0
 14 15  1  0  0  0  0
 14 28  1  0  0  0  0
 14 29  1  0  0  0  0
 15 30  1  0  0  0  0
M  END
>  <DRUGBANK_ID>
DB12536

>  <COMMON_NAME>
N-acetylmannosamine

>  <CAS_NUMBER>
3615-17-6

>  <UNII>
X80PR7P73R

>  <SYNONYMS>
MANNAC

$$$$
