
 OpenBabel10282417113D

 43 41  0  0  0  0  0  0  0  0999 V2000
   -1.3134    0.4872   -0.5113 Na  0  3  0  0  0  0  0  0  0  0  0  0
    1.3775   -0.0145   -0.1161 C   0  0  0  0  0  0  0  0  0  0  0  0
    0.7919   -1.1581    0.7053 C   0  0  0  0  0  0  0  0  0  0  0  0
    1.1775   -0.9941    2.1700 C   0  0  0  0  0  0  0  0  0  0  0  0
    0.5779    0.2911    2.7595 C   0  0  0  0  0  0  0  0  0  0  0  0
   -0.9550    0.2545    2.7562 C   0  0  0  0  0  0  0  0  0  0  0  0
   -1.4467   -0.9343    3.5778 C   0  0  0  0  0  0  0  0  0  0  0  0
   -0.8760   -0.8276    4.9959 C   0  0  0  0  0  0  0  0  0  0  0  0
   -1.3604    0.4660    5.6411 C   0  0  0  0  0  0  0  0  0  0  0  0
   -2.8724    0.4086    5.7040 C   0  0  0  0  0  0  0  0  0  0  0  0
   -3.2456   -0.8218    6.5448 C   0  0  0  0  0  0  0  0  0  0  0  0
   -2.9317   -0.5998    8.0002 C   0  0  0  0  0  0  0  0  0  0  0  0
   -3.7032    0.6542    8.4412 C   0  0  0  0  0  0  0  0  0  0  0  0
   -5.1195    0.4905    8.2498 O   0  0  0  0  0  0  0  0  0  0  0  0
   -6.0049    0.8260    6.8804 S   0  0  0  0  0  0  0  0  0  0  0  0
   -5.3298    1.9669    6.2425 O   0  5  0  0  0  0  0  0  0  0  0  0
   -6.0054   -0.3792    6.0462 O   0  0  0  0  0  0  0  0  0  0  0  0
   -7.3205    1.1217    7.3880 O   0  0  0  0  0  0  0  0  0  0  0  0
    1.0511    0.9679    0.2409 H   0  0  0  0  0  0  0  0  0  0  0  0
    1.0749   -0.0825   -1.1618 H   0  0  0  0  0  0  0  0  0  0  0  0
    2.4695   -0.0300   -0.0617 H   0  0  0  0  0  0  0  0  0  0  0  0
   -0.2987   -1.2104    0.6190 H   0  0  0  0  0  0  0  0  0  0  0  0
    1.1459   -2.1176    0.3182 H   0  0  0  0  0  0  0  0  0  0  0  0
    0.8507   -1.8780    2.7316 H   0  0  0  0  0  0  0  0  0  0  0  0
    2.2660   -0.9767    2.2709 H   0  0  0  0  0  0  0  0  0  0  0  0
    0.9712    0.4340    3.7711 H   0  0  0  0  0  0  0  0  0  0  0  0
    0.9176    1.1855    2.2361 H   0  0  0  0  0  0  0  0  0  0  0  0
   -1.3455    1.2045    3.1397 H   0  0  0  0  0  0  0  0  0  0  0  0
   -1.3756    0.1974    1.7536 H   0  0  0  0  0  0  0  0  0  0  0  0
   -2.5421   -0.9689    3.5549 H   0  0  0  0  0  0  0  0  0  0  0  0
   -1.1613   -1.8907    3.1349 H   0  0  0  0  0  0  0  0  0  0  0  0
   -1.1508   -1.7153    5.5658 H   0  0  0  0  0  0  0  0  0  0  0  0
    0.2112   -0.8687    5.0341 H   0  0  0  0  0  0  0  0  0  0  0  0
   -0.9371    0.5866    6.6417 H   0  0  0  0  0  0  0  0  0  0  0  0
   -1.0394    1.3694    5.1118 H   0  0  0  0  0  0  0  0  0  0  0  0
   -3.1778    1.3747    6.0985 H   0  0  0  0  0  0  0  0  0  0  0  0
   -3.3644    0.3832    4.7256 H   0  0  0  0  0  0  0  0  0  0  0  0
   -4.2773   -1.0786    6.5598 H   0  0  0  0  0  0  0  0  0  0  0  0
   -2.8916   -1.7614    6.1247 H   0  0  0  0  0  0  0  0  0  0  0  0
   -3.2940   -1.4689    8.5585 H   0  0  0  0  0  0  0  0  0  0  0  0
   -1.8498   -0.5453    8.1806 H   0  0  0  0  0  0  0  0  0  0  0  0
   -3.5036    0.7678    9.5141 H   0  0  0  0  0  0  0  0  0  0  0  0
   -3.3107    1.5829    8.0079 H   0  0  0  0  0  0  0  0  0  0  0  0
  2  3  1  0  0  0  0
  2 19  1  0  0  0  0
  2 20  1  0  0  0  0
  2 21  1  0  0  0  0
  3  4  1  0  0  0  0
  3 22  1  0  0  0  0
  3 23  1  0  0  0  0
  4  5  1  0  0  0  0
  4 24  1  0  0  0  0
  4 25  1  0  0  0  0
  5  6  1  0  0  0  0
  5 26  1  0  0  0  0
  5 27  1  0  0  0  0
  6  7  1  0  0  0  0
  6 28  1  0  0  0  0
  6 29  1  0  0  0  0
  7  8  1  0  0  0  0
  7 30  1  0  0  0  0
  7 31  1  0  0  0  0
  8  9  1  0  0  0  0
  8 32  1  0  0  0  0
  8 33  1  0  0  0  0
  9 10  1  0  0  0  0
  9 34  1  0  0  0  0
  9 35  1  0  0  0  0
 10 11  1  0  0  0  0
 10 36  1  0  0  0  0
 10 37  1  0  0  0  0
 11 12  1  0  0  0  0
 11 38  1  0  0  0  0
 11 39  1  0  0  0  0
 12 13  1  0  0  0  0
 12 40  1  0  0  0  0
 12 41  1  0  0  0  0
 13 14  1  0  0  0  0
 13 42  1  0  0  0  0
 13 43  1  0  0  0  0
 14 15  1  0  0  0  0
 15 16  1  0  0  0  0
 15 17  2  0  0  0  0
 15 18  2  0  0  0  0
M  CHG  2   1   1  16  -1
M  END
>  <DRUGBANK_ID>
DB00815

>  <SECONDARY_ACCESSION_NUMBERS>
APRD01606

>  <COMMON_NAME>
Sodium lauryl sulfate

>  <CAS_NUMBER>
151-21-3

>  <UNII>
368GB5141J

>  <SYNONYMS>
Laurylsiran sodny; NaDS; Natrium laurylsulfuricum; SDS; SLS; Sodium dodecyl sulfate; Sodium dodecyl sulphate; Sodium dodecylsulfate; Sodium laurilsulfate; Sodium lauryl sulfate; Sodium lauryl sulphate

$$$$
