
 OpenBabel10282417133D

 12 12  0  0  0  0  0  0  0  0999 V2000
    0.0145    1.0975    0.0009 N   0  0  0  0  0  0  0  0  0  0  0  0
   -1.3621   -0.6358    0.0038 N   0  0  0  0  0  0  0  0  0  0  0  0
   -1.2448    0.7243    0.0025 C   0  0  0  0  0  0  0  0  0  0  0  0
    0.7440   -0.0683   -0.0018 C   0  0  0  0  0  0  0  0  0  0  0  0
   -0.0996   -1.1580   -0.0079 C   0  0  0  0  0  0  0  0  0  0  0  0
    2.2222   -0.0403    0.0054 C   0  0  0  0  0  0  0  0  0  0  0  0
   -2.2284   -1.1561    0.0128 H   0  0  0  0  0  0  0  0  0  0  0  0
   -2.1028    1.3828    0.0045 H   0  0  0  0  0  0  0  0  0  0  0  0
    0.0885   -2.2217   -0.0142 H   0  0  0  0  0  0  0  0  0  0  0  0
    2.6003    0.4822   -0.8783 H   0  0  0  0  0  0  0  0  0  0  0  0
    2.5893    0.4741    0.8987 H   0  0  0  0  0  0  0  0  0  0  0  0
    2.6332   -1.0549    0.0040 H   0  0  0  0  0  0  0  0  0  0  0  0
  2  7  1  0  0  0  0
  3  1  2  0  0  0  0
  3  2  1  0  0  0  0
  3  8  1  0  0  0  0
  4  1  1  0  0  0  0
  5  2  1  0  0  0  0
  5  4  2  0  0  0  0
  5  9  1  0  0  0  0
  6  4  1  0  0  0  0
  6 10  1  0  0  0  0
  6 11  1  0  0  0  0
  6 12  1  0  0  0  0
M  END
>  <DRUGBANK_ID>
DB03385

>  <SECONDARY_ACCESSION_NUMBERS>
EXPT00221

>  <COMMON_NAME>
4-Methylimidazole

>  <CAS_NUMBER>
822-36-6

>  <UNII>
Q64GF9FV4I

>  <SYNONYMS>
4-MEI; 4(5)-methylimidazole

$$$$
