
 OpenBabel10282417203D

 36 38  0  0  0  0  0  0  0  0999 V2000
    1.3753   -0.2332   -0.0133 C   0  0  0  0  0  0  0  0  0  0  0  0
    0.4689   -1.2970   -0.0194 C   0  0  0  0  0  0  0  0  0  0  0  0
   -0.9111   -1.0759   -0.0329 C   0  0  0  0  0  0  0  0  0  0  0  0
   -1.3951    0.2261   -0.0051 C   0  0  0  0  0  0  0  0  0  0  0  0
   -0.4881    1.2859    0.0536 C   0  0  0  0  0  0  0  0  0  0  0  0
    0.8912    1.0688   -0.0154 C   0  0  0  0  0  0  0  0  0  0  0  0
   -1.0035    2.6301    0.3417 C   0  0  0  0  0  0  0  0  0  0  0  0
   -0.2142    3.6414    0.4016 N   0  0  0  0  0  0  0  0  0  0  0  0
   -0.8025    4.9342    0.7656 C   0  0  3  0  0  0  0  0  0  0  0  0
   -2.0628    5.3109    0.0273 C   0  0  0  0  0  0  0  0  0  0  0  0
   -3.0259    4.6010   -0.2334 O   0  0  0  0  0  0  0  0  0  0  0  0
   -1.9939    6.6507   -0.2526 N   0  0  0  0  0  0  0  0  0  0  0  0
   -0.7189    7.1857    0.0346 O   0  0  0  0  0  0  0  0  0  0  0  0
    0.1131    6.0415    0.2594 C   0  0  0  0  0  0  0  0  0  0  0  0
    0.9995   -2.6661   -0.0322 C   0  0  0  0  0  0  0  0  0  0  0  0
    0.2251   -3.6801   -0.1547 N   0  0  0  0  0  0  0  0  0  0  0  0
    0.7934   -5.0339   -0.1651 C   0  0  3  0  0  0  0  0  0  0  0  0
    2.2006   -5.2084   -0.6834 C   0  0  0  0  0  0  0  0  0  0  0  0
    3.1893   -4.5220   -0.4562 O   0  0  0  0  0  0  0  0  0  0  0  0
    2.2337   -6.3645   -1.4170 N   0  0  0  0  0  0  0  0  0  0  0  0
    0.9476   -6.9127   -1.6053 O   0  0  0  0  0  0  0  0  0  0  0  0
    0.0493   -5.8722   -1.2007 C   0  0  0  0  0  0  0  0  0  0  0  0
    2.4487   -0.4037    0.0115 H   0  0  0  0  0  0  0  0  0  0  0  0
   -1.6039   -1.9136   -0.0373 H   0  0  0  0  0  0  0  0  0  0  0  0
   -2.4676    0.4007   -0.0093 H   0  0  0  0  0  0  0  0  0  0  0  0
    1.5834    1.9073   -0.0348 H   0  0  0  0  0  0  0  0  0  0  0  0
   -2.0853    2.6856    0.5461 H   0  0  0  0  0  0  0  0  0  0  0  0
   -0.9682    5.0224    1.8463 H   0  0  0  0  0  0  0  0  0  0  0  0
   -2.6351    7.1400   -0.8618 H   0  0  0  0  0  0  0  0  0  0  0  0
    0.9041    6.2863    0.9756 H   0  0  0  0  0  0  0  0  0  0  0  0
    0.5881    5.7772   -0.6939 H   0  0  0  0  0  0  0  0  0  0  0  0
    2.0918   -2.7250    0.0594 H   0  0  0  0  0  0  0  0  0  0  0  0
    0.7240   -5.4922    0.8278 H   0  0  0  0  0  0  0  0  0  0  0  0
    3.0177   -6.6689   -1.9777 H   0  0  0  0  0  0  0  0  0  0  0  0
   -0.8699   -6.3095   -0.7980 H   0  0  0  0  0  0  0  0  0  0  0  0
   -0.2128   -5.2914   -2.0941 H   0  0  0  0  0  0  0  0  0  0  0  0
  1  2  2  0  0  0  0
  1  6  1  0  0  0  0
  1 23  1  0  0  0  0
  2  3  1  0  0  0  0
  2 15  1  0  0  0  0
  3  4  2  0  0  0  0
  3 24  1  0  0  0  0
  4  5  1  0  0  0  0
  4 25  1  0  0  0  0
  5  6  2  0  0  0  0
  5  7  1  0  0  0  0
  6 26  1  0  0  0  0
  7  8  2  0  0  0  0
  7 27  1  0  0  0  0
  8  9  1  0  0  0  0
  9 10  1  0  0  0  0
  9 14  1  0  0  0  0
  9 28  1  0  0  0  0
 10 11  2  0  0  0  0
 10 12  1  0  0  0  0
 12 13  1  0  0  0  0
 12 29  1  0  0  0  0
 13 14  1  0  0  0  0
 14 30  1  0  0  0  0
 14 31  1  0  0  0  0
 15 16  2  0  0  0  0
 15 32  1  0  0  0  0
 16 17  1  0  0  0  0
 17 18  1  0  0  0  0
 17 22  1  0  0  0  0
 17 33  1  0  0  0  0
 18 19  2  0  0  0  0
 18 20  1  0  0  0  0
 20 21  1  0  0  0  0
 20 34  1  0  0  0  0
 21 22  1  0  0  0  0
 22 35  1  0  0  0  0
 22 36  1  0  0  0  0
M  END
>  <DRUGBANK_ID>
DB12954

>  <COMMON_NAME>
Terizidone

>  <CAS_NUMBER>
25683-71-0

>  <UNII>
1199LEX5N8

>  <SYNONYMS>
Terizidone

$$$$
