
 OpenBabel10282417113D

 43 43  0  0  0  0  0  0  0  0999 V2000
    1.4959   -0.0252    0.2166 N   0  3  0  0  0  0  0  0  0  0  0  0
    0.3767   -0.5087    1.0553 C   0  0  0  0  0  0  0  0  0  0  0  0
   -0.9796   -0.4188    1.0133 C   0  0  0  0  0  0  0  0  0  0  0  0
   -2.7234   -3.9371   -1.0001 C   0  0  0  0  0  0  0  0  0  0  0  0
   -2.6520   -2.5642   -1.0154 O   0  0  0  0  0  0  0  0  0  0  0  0
   -3.9124   -2.1065   -1.3264 C   0  0  0  0  0  0  0  0  0  0  0  0
   -4.0211   -4.3344   -1.2431 C   0  0  0  0  0  0  0  0  0  0  0  0
   -4.7778   -3.1695   -1.4293 C   0  0  0  0  0  0  0  0  0  0  0  0
    1.3721    0.5968   -0.8551 O   0  5  0  0  0  0  0  0  0  0  0  0
    2.6116   -0.2785    0.6577 O   0  0  0  0  0  0  0  0  0  0  0  0
   -1.4898   -4.7740   -0.8157 C   0  0  0  0  0  0  0  0  0  0  0  0
   -1.7301   -0.9949    2.0708 N   0  0  0  0  0  0  0  0  0  0  0  0
   -1.7717    0.1944    0.0818 N   0  0  0  0  0  0  0  0  0  0  0  0
   -0.4672   -4.6046   -1.8662 N   0  0  0  0  0  0  0  0  0  0  0  0
   -3.4189    0.1026   -2.9455 S   0  0  0  0  0  0  0  0  0  0  0  0
   -4.2086   -0.6618   -1.5132 C   0  0  0  0  0  0  0  0  0  0  0  0
   -1.4428    0.8308   -1.1568 C   0  0  0  0  0  0  0  0  0  0  0  0
   -1.6904    0.0357   -2.4204 C   0  0  0  0  0  0  0  0  0  0  0  0
    0.6387   -5.5427   -1.6410 C   0  0  0  0  0  0  0  0  0  0  0  0
   -1.0291   -4.8387   -3.2000 C   0  0  0  0  0  0  0  0  0  0  0  0
   -3.1778   -1.1554    2.2390 C   0  0  0  0  0  0  0  0  0  0  0  0
    0.8675   -1.0083    1.8774 H   0  0  0  0  0  0  0  0  0  0  0  0
   -4.3577   -5.3557   -1.3189 H   0  0  0  0  0  0  0  0  0  0  0  0
   -5.8260   -3.0775   -1.6628 H   0  0  0  0  0  0  0  0  0  0  0  0
   -1.0595   -4.5799    0.1745 H   0  0  0  0  0  0  0  0  0  0  0  0
   -1.8134   -5.8267   -0.8078 H   0  0  0  0  0  0  0  0  0  0  0  0
   -1.1951   -1.4916    2.7784 H   0  0  0  0  0  0  0  0  0  0  0  0
   -2.7056    0.3504    0.4141 H   0  0  0  0  0  0  0  0  0  0  0  0
   -4.1294   -0.0693   -0.6060 H   0  0  0  0  0  0  0  0  0  0  0  0
   -5.2789   -0.5769   -1.7266 H   0  0  0  0  0  0  0  0  0  0  0  0
   -1.7370    1.8822   -1.1826 H   0  0  0  0  0  0  0  0  0  0  0  0
   -0.4047    0.9026   -1.1623 H   0  0  0  0  0  0  0  0  0  0  0  0
   -1.0811    0.4919   -3.2122 H   0  0  0  0  0  0  0  0  0  0  0  0
   -1.3282   -0.9955   -2.3447 H   0  0  0  0  0  0  0  0  0  0  0  0
    0.3128   -6.5889   -1.7035 H   0  0  0  0  0  0  0  0  0  0  0  0
    1.4301   -5.3908   -2.3842 H   0  0  0  0  0  0  0  0  0  0  0  0
    1.0948   -5.3863   -0.6574 H   0  0  0  0  0  0  0  0  0  0  0  0
   -1.4232   -5.8566   -3.3054 H   0  0  0  0  0  0  0  0  0  0  0  0
   -1.8342   -4.1327   -3.4268 H   0  0  0  0  0  0  0  0  0  0  0  0
   -0.2669   -4.6804   -3.9702 H   0  0  0  0  0  0  0  0  0  0  0  0
   -3.4650   -2.2126    2.2863 H   0  0  0  0  0  0  0  0  0  0  0  0
   -3.5051   -0.6771    3.1699 H   0  0  0  0  0  0  0  0  0  0  0  0
   -3.7902   -0.7145    1.4513 H   0  0  0  0  0  0  0  0  0  0  0  0
  2  1  1  0  0  0  0
  2 22  1  0  0  0  0
  3  2  2  3  0  0  0
  4  5  1  0  0  0  0
  5  6  1  0  0  0  0
  6 16  1  0  0  0  0
  7  8  1  0  0  0  0
  7  4  2  0  0  0  0
  7 23  1  0  0  0  0
  8  6  2  0  0  0  0
  8 24  1  0  0  0  0
  9  1  1  0  0  0  0
 10  1  2  0  0  0  0
 11  4  1  0  0  0  0
 11 25  1  0  0  0  0
 11 26  1  0  0  0  0
 12  3  1  0  0  0  0
 12 27  1  0  0  0  0
 13  3  1  0  0  0  0
 13 28  1  0  0  0  0
 14 11  1  0  0  0  0
 15 18  1  0  0  0  0
 16 15  1  0  0  0  0
 16 29  1  0  0  0  0
 16 30  1  0  0  0  0
 17 13  1  0  0  0  0
 17 31  1  0  0  0  0
 17 32  1  0  0  0  0
 18 17  1  0  0  0  0
 18 33  1  0  0  0  0
 18 34  1  0  0  0  0
 19 14  1  0  0  0  0
 19 35  1  0  0  0  0
 19 36  1  0  0  0  0
 19 37  1  0  0  0  0
 20 14  1  0  0  0  0
 20 38  1  0  0  0  0
 20 39  1  0  0  0  0
 20 40  1  0  0  0  0
 21 12  1  0  0  0  0
 21 41  1  0  0  0  0
 21 42  1  0  0  0  0
 21 43  1  0  0  0  0
M  CHG  2   1   1   9  -1
M  END
>  <DRUGBANK_ID>
DB00863

>  <SECONDARY_ACCESSION_NUMBERS>
APRD00254

>  <COMMON_NAME>
Ranitidine

>  <CAS_NUMBER>
66357-35-5

>  <UNII>
884KT10YB7

>  <SYNONYMS>
Ranitidina; Ranitidine; Ranitidinum

$$$$
