
 OpenBabel10282417123D

  9  8  0  0  0  0  0  0  0  0999 V2000
    0.9499    0.0341    0.0777 C   0  0  0  0  0  0  0  0  0  0  0  0
    0.4634    1.3065   -0.5876 C   0  0  0  0  0  0  0  0  0  0  0  0
    0.8896    1.3681   -2.0151 N   0  0  0  0  0  0  0  0  0  0  0  0
    2.1154    1.4593   -2.1320 O   0  0  0  0  0  0  0  0  0  0  0  0
    0.5979   -0.8535   -0.4589 H   0  0  0  0  0  0  0  0  0  0  0  0
    0.5844   -0.0204    1.1076 H   0  0  0  0  0  0  0  0  0  0  0  0
    2.0445   -0.0062    0.1067 H   0  0  0  0  0  0  0  0  0  0  0  0
   -0.6301    1.3428   -0.5927 H   0  0  0  0  0  0  0  0  0  0  0  0
    0.8386    2.1987   -0.0765 H   0  0  0  0  0  0  0  0  0  0  0  0
  1  2  1  0  0  0  0
  1  5  1  0  0  0  0
  1  6  1  0  0  0  0
  1  7  1  0  0  0  0
  2  3  1  0  0  0  0
  2  8  1  0  0  0  0
  2  9  1  0  0  0  0
  3  4  2  0  0  0  0
M  END
>  <DRUGBANK_ID>
DB02646

>  <SECONDARY_ACCESSION_NUMBERS>
EXPT02372

>  <COMMON_NAME>
Nitrosoethane

>  <CAS_NUMBER>
925-91-7

>  <UNII>
EV3G0P128S

$$$$
