
 OpenBabel10282417133D

 71 75  0  0  1  0  0  0  0  0999 V2000
    1.4297    0.1001    0.0342 C   0  0  0  0  0  0  0  0  0  0  0  0
    0.7065    1.2739    0.0043 C   0  0  0  0  0  0  0  0  0  0  0  0
   -0.6850    1.1977    0.0052 C   0  0  0  0  0  0  0  0  0  0  0  0
   -1.3668    0.0166    0.0253 N   0  0  0  0  0  0  0  0  0  0  0  0
   -0.6531   -1.1315    0.0764 C   0  0  0  0  0  0  0  0  0  0  0  0
    0.7412   -1.0990    0.0973 C   0  0  0  0  0  0  0  0  0  0  0  0
   -1.4254   -2.4470    0.0383 C   0  0  1  0  0  0  0  0  0  0  0  0
   -1.1228   -3.2579   -1.2240 C   0  0  1  0  0  0  0  0  0  0  0  0
   -1.3037   -4.7042   -0.7636 C   0  0  1  0  0  0  0  0  0  0  0  0
   -0.9284   -4.6645    0.7155 C   0  0  2  0  0  0  0  0  0  0  0  0
   -1.1190   -3.2993    1.1694 O   0  0  0  0  0  0  0  0  0  0  0  0
    0.5461   -5.0336    0.8738 C   0  0  0  0  0  0  0  0  0  0  0  0
    1.2853   -4.1095    0.0959 O   0  0  0  0  0  0  0  0  0  0  0  0
    2.2248   -4.2312   -1.1878 P   0  0  3  0  0  0  0  0  0  0  0  0
    3.0652   -3.0219   -1.3949 O   0  0  0  0  0  0  0  0  0  0  0  0
    2.9993   -5.5801   -0.8912 O   0  0  0  0  0  0  0  0  0  0  0  0
    1.4311   -4.3865   -2.5260 O   0  0  0  0  0  0  0  0  0  0  0  0
    2.0749   -5.1109   -3.7611 P   0  0  3  0  0  0  0  0  0  0  0  0
    1.6509   -6.3524   -3.0645 O   0  0  0  0  0  0  0  0  0  0  0  0
    1.2232   -4.5031   -4.9709 O   0  0  0  0  0  0  0  0  0  0  0  0
    3.2661   -5.8742   -4.5090 O   0  0  0  0  0  0  0  0  0  0  0  0
    2.8681   -6.5708   -5.7543 C   0  0  0  0  0  0  0  0  0  0  0  0
    1.5968   -7.5515   -5.8767 C   0  0  2  0  0  0  0  0  0  0  0  0
    0.7717   -7.8703   -4.6364 C   0  0  2  0  0  0  0  0  0  0  0  0
    1.7117   -8.8491   -3.9176 C   0  0  2  0  0  0  0  0  0  0  0  0
    2.1385   -9.6964   -5.1256 C   0  0  1  0  0  0  0  0  0  0  0  0
    2.0714   -8.8552   -6.2977 O   0  0  0  0  0  0  0  0  0  0  0  0
    3.4302  -10.3394   -4.9847 N   0  0  0  0  0  0  0  0  0  0  0  0
    3.6888  -11.2909   -4.0247 C   0  0  0  0  0  0  0  0  0  0  0  0
    4.9093  -11.7695   -4.1137 N   0  0  0  0  0  0  0  0  0  0  0  0
    5.4668  -11.0978   -5.1815 C   0  0  0  0  0  0  0  0  0  0  0  0
    4.5632  -10.2057   -5.7405 C   0  0  0  0  0  0  0  0  0  0  0  0
    4.7864   -9.4016   -6.7934 N   0  0  0  0  0  0  0  0  0  0  0  0
    6.0352   -9.5533   -7.2727 C   0  0  0  0  0  0  0  0  0  0  0  0
    7.0109  -10.3741   -6.8291 N   0  0  0  0  0  0  0  0  0  0  0  0
    6.7416  -11.1673   -5.7683 C   0  0  0  0  0  0  0  0  0  0  0  0
    7.7250  -12.0104   -5.3032 N   0  0  0  0  0  0  0  0  0  0  0  0
    1.0538   -9.6524   -2.9322 O   0  0  0  0  0  0  0  0  0  0  0  0
   -0.5202   -8.4869   -4.7250 O   0  0  0  0  0  0  0  0  0  0  0  0
   -2.6576   -5.1243   -0.9323 O   0  0  0  0  0  0  0  0  0  0  0  0
   -1.8965   -2.9340   -2.3688 O   0  0  0  0  0  0  0  0  0  0  0  0
   -1.5110    2.4463   -0.0169 C   0  0  0  0  0  0  0  0  0  0  0  0
   -2.7666    2.4180   -0.0292 O   0  0  0  0  0  0  0  0  0  0  0  0
   -0.8876    3.6613   -0.0222 N   0  0  0  0  0  0  0  0  0  0  0  0
    2.5167    0.1054    0.0155 H   0  0  0  0  0  0  0  0  0  0  0  0
    1.2490    2.2056   -0.0100 H   0  0  0  0  0  0  0  0  0  0  0  0
    1.3334   -1.9910    0.1546 H   0  0  0  0  0  0  0  0  0  0  0  0
   -2.4975   -2.2316    0.0909 H   0  0  0  0  0  0  0  0  0  0  0  0
   -0.1013   -3.0465   -1.5192 H   0  0  0  0  0  0  0  0  0  0  0  0
   -0.6862   -5.4244   -1.3128 H   0  0  0  0  0  0  0  0  0  0  0  0
   -1.5594   -5.3091    1.3414 H   0  0  0  0  0  0  0  0  0  0  0  0
    0.8421   -4.8868    1.9231 H   0  0  0  0  0  0  0  0  0  0  0  0
    0.7305   -6.0861    0.6312 H   0  0  0  0  0  0  0  0  0  0  0  0
    2.4539   -6.2558   -0.4509 H   0  0  0  0  0  0  0  0  0  0  0  0
    1.2916   -3.5245   -5.0450 H   0  0  0  0  0  0  0  0  0  0  0  0
    2.7172   -5.7657   -6.4838 H   0  0  0  0  0  0  0  0  0  0  0  0
    3.7523   -7.1002   -6.1216 H   0  0  0  0  0  0  0  0  0  0  0  0
    0.9438   -7.1850   -6.6769 H   0  0  0  0  0  0  0  0  0  0  0  0
    0.4153   -6.9224   -4.2775 H   0  0  0  0  0  0  0  0  0  0  0  0
    2.6010   -8.4041   -3.4490 H   0  0  0  0  0  0  0  0  0  0  0  0
    1.4172  -10.5064   -5.2829 H   0  0  0  0  0  0  0  0  0  0  0  0
    2.9500  -11.5868   -3.2888 H   0  0  0  0  0  0  0  0  0  0  0  0
    6.2915   -8.9314   -8.1258 H   0  0  0  0  0  0  0  0  0  0  0  0
    7.5184  -12.6018   -4.5107 H   0  0  0  0  0  0  0  0  0  0  0  0
    8.6172  -12.0188   -5.7682 H   0  0  0  0  0  0  0  0  0  0  0  0
    0.1220   -9.7129   -3.2216 H   0  0  0  0  0  0  0  0  0  0  0  0
   -0.5478   -9.1315   -5.4372 H   0  0  0  0  0  0  0  0  0  0  0  0
   -3.2321   -4.5079   -0.4504 H   0  0  0  0  0  0  0  0  0  0  0  0
   -2.8070   -3.2329   -2.2076 H   0  0  0  0  0  0  0  0  0  0  0  0
    0.1128    3.8029   -0.0096 H   0  0  0  0  0  0  0  0  0  0  0  0
   -1.4717    4.4861   -0.0293 H   0  0  0  0  0  0  0  0  0  0  0  0
  1  2  2  0  0  0  0
  1  6  1  0  0  0  0
  1 45  1  0  0  0  0
  2  3  1  0  0  0  0
  2 46  1  0  0  0  0
  3  4  2  0  0  0  0
  3 42  1  0  0  0  0
  4  5  1  0  0  0  0
  5  6  2  0  0  0  0
  5  7  1  0  0  0  0
  6 47  1  0  0  0  0
  7  8  1  0  0  0  0
  7 11  1  0  0  0  0
  7 48  1  1  0  0  0
  8  9  1  0  0  0  0
  8 41  1  0  0  0  0
  8 49  1  6  0  0  0
  9 10  1  0  0  0  0
  9 40  1  0  0  0  0
  9 50  1  6  0  0  0
 10 11  1  0  0  0  0
 10 51  1  1  0  0  0
 10 12  1  0  0  0  0
 12 13  1  0  0  0  0
 12 52  1  0  0  0  0
 12 53  1  0  0  0  0
 13 14  1  0  0  0  0
 14 15  2  0  0  0  0
 14 16  1  0  0  0  0
 14 17  1  0  0  0  0
 16 54  1  0  0  0  0
 17 18  1  0  0  0  0
 18 19  2  0  0  0  0
 18 20  1  0  0  0  0
 18 21  1  0  0  0  0
 20 55  1  0  0  0  0
 21 22  1  0  0  0  0
 22 56  1  0  0  0  0
 22 57  1  0  0  0  0
 23 22  1  0  0  0  0
 23 24  1  0  0  0  0
 23 27  1  0  0  0  0
 23 58  1  6  0  0  0
 24 25  1  0  0  0  0
 24 39  1  0  0  0  0
 24 59  1  1  0  0  0
 25 26  1  0  0  0  0
 25 38  1  0  0  0  0
 25 60  1  1  0  0  0
 26 27  1  0  0  0  0
 26 61  1  6  0  0  0
 26 28  1  0  0  0  0
 28 29  1  0  0  0  0
 28 32  1  0  0  0  0
 29 30  2  0  0  0  0
 29 62  1  0  0  0  0
 30 31  1  0  0  0  0
 31 32  2  0  0  0  0
 31 36  1  0  0  0  0
 32 33  1  0  0  0  0
 33 34  2  0  0  0  0
 34 35  1  0  0  0  0
 34 63  1  0  0  0  0
 35 36  2  0  0  0  0
 36 37  1  0  0  0  0
 37 64  1  0  0  0  0
 37 65  1  0  0  0  0
 38 66  1  0  0  0  0
 39 67  1  0  0  0  0
 40 68  1  0  0  0  0
 41 69  1  0  0  0  0
 42 43  2  0  0  0  0
 42 44  1  0  0  0  0
 44 70  1  0  0  0  0
 44 71  1  0  0  0  0
M  END
>  <DRUGBANK_ID>
DB04071

>  <SECONDARY_ACCESSION_NUMBERS>
EXPT02487

>  <COMMON_NAME>
Cpad

$$$$
