
 OpenBabel10282417183D

 48 49  0  0  0  0  0  0  0  0999 V2000
    1.1248    0.0521    0.6236 C   0  0  0  0  0  0  0  0  0  0  0  0
    1.4643   -0.0240    2.0968 C   0  0  0  0  0  0  0  0  0  0  0  0
    2.7100    0.1125   -0.0093 C   0  0  0  0  0  0  0  0  0  0  0  0
    0.0167   -1.1809    0.4905 C   0  0  0  0  0  0  0  0  0  0  0  0
    0.2544    1.3024    0.3523 C   0  0  0  0  0  0  0  0  0  0  0  0
    2.1155   -1.1718    2.5777 C   0  0  0  0  0  0  0  0  0  0  0  0
    1.2760    1.0835    2.9128 C   0  0  0  0  0  0  0  0  0  0  0  0
    3.1123    1.0403   -0.9263 O   0  0  0  0  0  0  0  0  0  0  0  0
    3.5757   -0.7756    0.2551 O   0  0  0  0  0  0  0  0  0  0  0  0
   -1.3513   -0.5749    0.7577 C   0  0  0  0  0  0  0  0  0  0  0  0
   -1.2005    0.9365    0.6226 C   0  0  0  0  0  0  0  0  0  0  0  0
    2.5907   -1.1771    3.8670 C   0  0  0  0  0  0  0  0  0  0  0  0
    1.8103    1.1025    4.1681 C   0  0  0  0  0  0  0  0  0  0  0  0
    2.2864    1.9170   -1.7381 C   0  0  0  0  0  0  0  0  0  0  0  0
    2.4325   -0.0378    4.6547 C   0  0  0  0  0  0  0  0  0  0  0  0
    1.1172    1.3090   -2.6378 C   0  0  0  0  0  0  0  0  0  0  0  0
    0.4367    0.1135   -2.1157 N   0  0  0  0  0  0  0  0  0  0  0  0
   -0.9654   -0.0697   -2.4648 C   0  0  0  0  0  0  0  0  0  0  0  0
    1.3574   -0.9972   -1.9661 C   0  0  0  0  0  0  0  0  0  0  0  0
   -1.0642   -0.9578   -3.6541 C   0  0  0  0  0  0  0  0  0  0  0  0
    1.8536   -1.9987   -2.9118 C   0  0  0  0  0  0  0  0  0  0  0  0
   -0.1793   -1.7063   -0.4549 H   0  0  0  0  0  0  0  0  0  0  0  0
    0.2230   -2.0557    1.1215 H   0  0  0  0  0  0  0  0  0  0  0  0
    0.6143    2.2212    0.8168 H   0  0  0  0  0  0  0  0  0  0  0  0
    0.2335    1.7019   -0.6415 H   0  0  0  0  0  0  0  0  0  0  0  0
    2.3127   -2.0269    1.9239 H   0  0  0  0  0  0  0  0  0  0  0  0
    0.7483    1.9726    2.6000 H   0  0  0  0  0  0  0  0  0  0  0  0
   -2.1114   -0.9779    0.0677 H   0  0  0  0  0  0  0  0  0  0  0  0
   -1.7159   -0.8761    1.7367 H   0  0  0  0  0  0  0  0  0  0  0  0
   -1.8130    1.3277   -0.2008 H   0  0  0  0  0  0  0  0  0  0  0  0
   -1.5394    1.4115    1.5370 H   0  0  0  0  0  0  0  0  0  0  0  0
    3.1183   -2.0504    4.2301 H   0  0  0  0  0  0  0  0  0  0  0  0
    1.7348    2.0247    4.7282 H   0  0  0  0  0  0  0  0  0  0  0  0
    1.9605    2.6822   -1.0357 H   0  0  0  0  0  0  0  0  0  0  0  0
    2.9588    2.4410   -2.4312 H   0  0  0  0  0  0  0  0  0  0  0  0
    2.8017   -0.0287    5.6678 H   0  0  0  0  0  0  0  0  0  0  0  0
    0.4030    2.1320   -2.7841 H   0  0  0  0  0  0  0  0  0  0  0  0
    1.4886    1.0417   -3.6293 H   0  0  0  0  0  0  0  0  0  0  0  0
   -1.5316   -0.5947   -1.6994 H   0  0  0  0  0  0  0  0  0  0  0  0
   -1.5223    0.8776   -2.5595 H   0  0  0  0  0  0  0  0  0  0  0  0
    2.2774   -0.4768   -1.9242 H   0  0  0  0  0  0  0  0  0  0  0  0
    1.4011   -1.5415   -1.0299 H   0  0  0  0  0  0  0  0  0  0  0  0
   -0.7117   -1.9420   -3.3487 H   0  0  0  0  0  0  0  0  0  0  0  0
   -2.0955   -1.0997   -3.9672 H   0  0  0  0  0  0  0  0  0  0  0  0
   -0.4452   -0.5515   -4.4527 H   0  0  0  0  0  0  0  0  0  0  0  0
    2.3182   -1.4355   -3.7135 H   0  0  0  0  0  0  0  0  0  0  0  0
    2.6307   -2.5373   -2.3439 H   0  0  0  0  0  0  0  0  0  0  0  0
    1.0869   -2.7032   -3.1829 H   0  0  0  0  0  0  0  0  0  0  0  0
  1  2  1  0  0  0  0
  1  3  1  0  0  0  0
  1  4  1  0  0  0  0
  1  5  1  0  0  0  0
  2  6  2  0  0  0  0
  2  7  1  0  0  0  0
  3  8  1  0  0  0  0
  3  9  2  0  0  0  0
  4 10  1  0  0  0  0
  4 22  1  0  0  0  0
  4 23  1  0  0  0  0
  5 11  1  0  0  0  0
  5 24  1  0  0  0  0
  5 25  1  0  0  0  0
  6 12  1  0  0  0  0
  6 26  1  0  0  0  0
  7 13  2  0  0  0  0
  7 27  1  0  0  0  0
  8 14  1  0  0  0  0
 10 11  1  0  0  0  0
 10 28  1  0  0  0  0
 10 29  1  0  0  0  0
 11 30  1  0  0  0  0
 11 31  1  0  0  0  0
 12 15  2  0  0  0  0
 12 32  1  0  0  0  0
 13 15  1  0  0  0  0
 13 33  1  0  0  0  0
 14 16  1  0  0  0  0
 14 34  1  0  0  0  0
 14 35  1  0  0  0  0
 15 36  1  0  0  0  0
 16 17  1  0  0  0  0
 16 37  1  0  0  0  0
 16 38  1  0  0  0  0
 17 18  1  0  0  0  0
 17 19  1  0  0  0  0
 18 20  1  0  0  0  0
 18 39  1  0  0  0  0
 18 40  1  0  0  0  0
 19 21  1  0  0  0  0
 19 41  1  0  0  0  0
 19 42  1  0  0  0  0
 20 43  1  0  0  0  0
 20 44  1  0  0  0  0
 20 45  1  0  0  0  0
 21 46  1  0  0  0  0
 21 47  1  0  0  0  0
 21 48  1  0  0  0  0
M  END
>  <DRUGBANK_ID>
DB11504

>  <COMMON_NAME>
Caramiphen

>  <CAS_NUMBER>
77-22-5

>  <UNII>
97J7NP0XJY

>  <SYNONYMS>
Caramifenio; Caramiphen; Caramiphenum

$$$$
