
 OpenBabel10282417233D

 21 23  0  0  0  0  0  0  0  0999 V2000
   -0.0000    1.8070    0.0000 I   0  3  0  0  0  0  0  0  0  0  0  0
   -1.2060    0.8990   -0.0010 C   0  0  0  0  0  0  0  0  0  0  0  0
   -2.5600    1.1580   -0.0010 C   0  0  0  0  0  0  0  0  0  0  0  0
   -3.4650    0.1120   -0.0010 C   0  0  0  0  0  0  0  0  0  0  0  0
   -3.0140   -1.1950    0.0050 C   0  0  0  0  0  0  0  0  0  0  0  0
   -1.6620   -1.4640   -0.0030 C   0  0  0  0  0  0  0  0  0  0  0  0
   -0.7420   -0.4140   -0.0010 C   0  0  0  0  0  0  0  0  0  0  0  0
    0.7420   -0.4140    0.0000 C   0  0  0  0  0  0  0  0  0  0  0  0
    1.2050    0.8990    0.0000 C   0  0  0  0  0  0  0  0  0  0  0  0
    2.5600    1.1580    0.0010 C   0  0  0  0  0  0  0  0  0  0  0  0
    3.4650    0.1120    0.0010 C   0  0  0  0  0  0  0  0  0  0  0  0
    3.0150   -1.1950    0.0000 C   0  0  0  0  0  0  0  0  0  0  0  0
    1.6620   -1.4640   -0.0010 C   0  0  0  0  0  0  0  0  0  0  0  0
   -2.9110    2.1688   -0.0010 H   0  0  0  0  0  0  0  0  0  0  0  0
   -4.5156    0.3146   -0.0057 H   0  0  0  0  0  0  0  0  0  0  0  0
   -3.7175   -2.0012    0.0159 H   0  0  0  0  0  0  0  0  0  0  0  0
   -1.3179   -2.4771   -0.0107 H   0  0  0  0  0  0  0  0  0  0  0  0
    2.9111    2.1688    0.0018 H   0  0  0  0  0  0  0  0  0  0  0  0
    4.5156    0.3150    0.0018 H   0  0  0  0  0  0  0  0  0  0  0  0
    3.7187   -2.0010    0.0000 H   0  0  0  0  0  0  0  0  0  0  0  0
    1.3178   -2.4771   -0.0025 H   0  0  0  0  0  0  0  0  0  0  0  0
  1  2  1  0  0  0  0
  1  9  1  0  0  0  0
  2  3  2  0  0  0  0
  2  7  1  0  0  0  0
  3  4  1  0  0  0  0
  3 14  1  0  0  0  0
  4  5  2  0  0  0  0
  4 15  1  0  0  0  0
  5  6  1  0  0  0  0
  5 16  1  0  0  0  0
  6  7  2  0  0  0  0
  6 17  1  0  0  0  0
  7  8  1  0  0  0  0
  8  9  2  0  0  0  0
  8 13  1  0  0  0  0
  9 10  1  0  0  0  0
 10 11  2  0  0  0  0
 10 18  1  0  0  0  0
 11 12  1  0  0  0  0
 11 19  1  0  0  0  0
 12 13  2  0  0  0  0
 12 20  1  0  0  0  0
 13 21  1  0  0  0  0
M  CHG  1   1   1
M  END
>  <DRUGBANK_ID>
DB17025

>  <COMMON_NAME>
Diphenyleneiodonium

>  <CAS_NUMBER>
244-54-2

>  <UNII>
6HJ411TU98

>  <SYNONYMS>
Dibenziodolium

$$$$
