
 OpenBabel10282417123D

 38 39  0  0  0  0  0  0  0  0999 V2000
    0.9537   -0.2402   -0.0245 C   0  0  0  0  0  0  0  0  0  0  0  0
    0.6921    1.0055    0.6915 C   0  0  0  0  0  0  0  0  0  0  0  0
    1.4160    2.1676    0.4407 C   0  0  0  0  0  0  0  0  0  0  0  0
    1.9843    2.8656   -0.7655 C   0  0  0  0  0  0  0  0  0  0  0  0
    1.1304    3.9110   -1.5631 C   0  0  0  0  0  0  0  0  0  0  0  0
    0.6936    5.0769   -0.8266 O   0  0  0  0  0  0  0  0  0  0  0  0
   -0.2624    4.6269    0.5432 P   0  0  0  0  0  0  0  0  0  0  0  0
   -0.8050    3.4174   -0.2395 O   0  5  0  0  0  0  0  0  0  0  0  0
    1.0121    4.9194    1.3229 O   0  5  0  0  0  0  0  0  0  0  0  0
   -1.1181    4.2241    1.7692 O   0  0  0  0  0  0  0  0  0  0  0  0
    1.9438    2.5392    2.0754 S   0  0  0  0  0  0  0  0  0  0  0  0
    0.2934    2.2731    2.4561 C   0  0  0  0  0  0  0  0  0  0  0  0
    0.0063    1.0977    1.9063 N   0  3  0  0  0  0  0  0  0  0  0  0
   -0.8118    0.1477    2.6394 C   0  0  0  0  0  0  0  0  0  0  0  0
   -0.3293    0.0126    4.0764 C   0  0  0  0  0  0  0  0  0  0  0  0
    0.4132   -1.0867    4.4599 C   0  0  0  0  0  0  0  0  0  0  0  0
    0.8985   -1.2861    5.7003 N   0  0  0  0  0  0  0  0  0  0  0  0
    0.6800   -0.2945    6.5973 C   0  0  0  0  0  0  0  0  0  0  0  0
    0.0360    0.8402    6.2903 N   0  0  0  0  0  0  0  0  0  0  0  0
   -0.5039    0.9730    5.0734 C   0  0  0  0  0  0  0  0  0  0  0  0
   -1.1870    2.1335    4.9412 N   0  0  0  0  0  0  0  0  0  0  0  0
    1.0533   -0.4891    8.0648 C   0  0  0  0  0  0  0  0  0  0  0  0
    1.9390    0.4397    8.5332 F   0  0  0  0  0  0  0  0  0  0  0  0
   -0.0341   -0.4098    8.8946 F   0  0  0  0  0  0  0  0  0  0  0  0
    1.6179   -1.7038    8.3368 F   0  0  0  0  0  0  0  0  0  0  0  0
    0.6101   -0.2003   -1.0582 H   0  0  0  0  0  0  0  0  0  0  0  0
    0.6029   -1.1348    0.4818 H   0  0  0  0  0  0  0  0  0  0  0  0
    2.0526   -0.3133   -0.0504 H   0  0  0  0  0  0  0  0  0  0  0  0
    2.8870    3.3855   -0.4425 H   0  0  0  0  0  0  0  0  0  0  0  0
    2.2630    2.0803   -1.4745 H   0  0  0  0  0  0  0  0  0  0  0  0
    1.7402    4.2869   -2.3918 H   0  0  0  0  0  0  0  0  0  0  0  0
    0.2742    3.4484   -2.0794 H   0  0  0  0  0  0  0  0  0  0  0  0
   -0.2923    2.8629    3.1182 H   0  0  0  0  0  0  0  0  0  0  0  0
   -1.8833    0.3800    2.6256 H   0  0  0  0  0  0  0  0  0  0  0  0
   -0.7177   -0.8364    2.1574 H   0  0  0  0  0  0  0  0  0  0  0  0
    0.6463   -1.8920    3.7646 H   0  0  0  0  0  0  0  0  0  0  0  0
   -0.9719    2.8716    5.6091 H   0  0  0  0  0  0  0  0  0  0  0  0
   -1.8501    2.3878    4.2155 H   0  0  0  0  0  0  0  0  0  0  0  0
  1  2  1  0  0  0  0
  1 26  1  0  0  0  0
  1 27  1  0  0  0  0
  1 28  1  0  0  0  0
  2  3  2  0  0  0  0
  2 13  1  0  0  0  0
  3  4  1  0  0  0  0
  3 11  1  0  0  0  0
  4  5  1  0  0  0  0
  4 29  1  0  0  0  0
  4 30  1  0  0  0  0
  5  6  1  0  0  0  0
  5 31  1  0  0  0  0
  5 32  1  0  0  0  0
  6  7  1  0  0  0  0
  7  8  1  0  0  0  0
  7  9  1  0  0  0  0
  7 10  2  0  0  0  0
 11 12  1  0  0  0  0
 12 13  2  0  0  0  0
 12 33  1  0  0  0  0
 13 14  1  0  0  0  0
 14 15  1  0  0  0  0
 14 34  1  0  0  0  0
 14 35  1  0  0  0  0
 15 16  2  0  0  0  0
 15 20  1  0  0  0  0
 16 17  1  0  0  0  0
 16 36  1  0  0  0  0
 17 18  2  0  0  0  0
 18 19  1  0  0  0  0
 18 22  1  0  0  0  0
 19 20  2  0  0  0  0
 20 21  1  0  0  0  0
 21 37  1  0  0  0  0
 21 38  1  0  0  0  0
 22 23  1  0  0  0  0
 22 24  1  0  0  0  0
 22 25  1  0  0  0  0
M  CHG  3   8  -1   9  -1  13   1
M  END
>  <DRUGBANK_ID>
DB02254

>  <SECONDARY_ACCESSION_NUMBERS>
EXPT01504

>  <COMMON_NAME>
Trifluoro-thiamin phosphate

$$$$
