
 OpenBabel10282417163D

 90 92  0  0  0  0  0  0  0  0999 V2000
   -2.9587    1.0383   -0.6058 C   0  0  0  0  0  0  0  0  0  0  0  0
   -2.7358   -0.4669   -0.4060 C   0  0  0  0  0  0  0  0  0  0  0  0
   -2.0163   -0.8348    0.8090 N   0  0  0  0  0  0  0  0  0  0  0  0
   -1.6280   -2.2505    0.8290 C   0  0  0  0  0  0  0  0  0  0  0  0
   -0.4923   -2.6287   -0.1556 C   0  0  0  0  0  0  0  0  0  0  0  0
    0.7639   -1.9781    0.1838 N   0  0  0  0  0  0  0  0  0  0  0  0
    1.7227   -1.9627   -0.9026 C   0  0  0  0  0  0  0  0  0  0  0  0
    2.9419   -1.0921   -0.5920 C   0  0  0  0  0  0  0  0  0  0  0  0
    2.6235    0.4121   -0.4684 C   0  0  0  0  0  0  0  0  0  0  0  0
    1.9115    0.8084    0.7567 N   0  0  0  0  0  0  0  0  0  0  0  0
    1.5190    2.2290    0.7462 C   0  0  0  0  0  0  0  0  0  0  0  0
    0.3897    2.6650   -0.1748 C   0  0  0  0  0  0  0  0  0  0  0  0
   -0.8326    1.9763    0.1759 N   0  0  0  0  0  0  0  0  0  0  0  0
   -1.7061    1.8323   -0.9605 C   0  0  0  0  0  0  0  0  0  0  0  0
    2.6439    0.4813    1.9903 C   0  0  0  0  0  0  0  0  0  0  0  0
    3.9508    1.2231    2.1169 C   0  0  0  0  0  0  0  0  0  0  0  0
    3.9762    2.6124    2.3235 C   0  0  0  0  0  0  0  0  0  0  0  0
    5.1450    3.3367    2.2504 C   0  0  0  0  0  0  0  0  0  0  0  0
    6.3482    2.6593    2.0693 C   0  0  0  0  0  0  0  0  0  0  0  0
    6.3283    1.2697    1.8670 C   0  0  0  0  0  0  0  0  0  0  0  0
    5.1508    0.5488    1.9005 C   0  0  0  0  0  0  0  0  0  0  0  0
    7.6357    3.4246    2.2294 C   0  0  0  0  0  0  0  0  0  0  0  0
    8.3456    3.1242    3.4798 N   0  0  0  0  0  0  0  0  0  0  0  0
    8.8435    1.7462    3.5845 C   0  0  0  0  0  0  0  0  0  0  0  0
    9.7757    1.2653    2.4578 C   0  0  0  0  0  0  0  0  0  0  0  0
   11.2092    1.7546    2.6391 C   0  0  0  0  0  0  0  0  0  0  0  0
   11.3238    3.1800    2.4143 N   0  0  0  0  0  0  0  0  0  0  0  0
   12.6506    3.7001    2.7121 C   0  0  0  0  0  0  0  0  0  0  0  0
   12.6084    5.1893    3.1234 C   0  0  0  0  0  0  0  0  0  0  0  0
   11.8249    5.4744    4.3260 N   0  0  0  0  0  0  0  0  0  0  0  0
   12.4408    5.0102    5.5623 C   0  0  0  0  0  0  0  0  0  0  0  0
   11.5664    5.2896    6.7956 C   0  0  0  0  0  0  0  0  0  0  0  0
   10.3912    4.3232    6.9783 C   0  0  0  0  0  0  0  0  0  0  0  0
    9.3746    4.5213    5.9701 N   0  0  0  0  0  0  0  0  0  0  0  0
    8.3229    3.5192    5.9973 C   0  0  0  0  0  0  0  0  0  0  0  0
    7.5438    3.5053    4.6641 C   0  0  0  0  0  0  0  0  0  0  0  0
   -3.6464    1.1515   -1.4527 H   0  0  0  0  0  0  0  0  0  0  0  0
   -3.4588    1.4774    0.2651 H   0  0  0  0  0  0  0  0  0  0  0  0
   -3.7190   -0.9491   -0.3786 H   0  0  0  0  0  0  0  0  0  0  0  0
   -2.2199   -0.8383   -1.2959 H   0  0  0  0  0  0  0  0  0  0  0  0
   -2.5550   -0.5948    1.6357 H   0  0  0  0  0  0  0  0  0  0  0  0
   -1.3014   -2.5029    1.8458 H   0  0  0  0  0  0  0  0  0  0  0  0
   -2.5051   -2.8747    0.6232 H   0  0  0  0  0  0  0  0  0  0  0  0
   -0.3514   -3.7145   -0.1418 H   0  0  0  0  0  0  0  0  0  0  0  0
   -0.7914   -2.3648   -1.1752 H   0  0  0  0  0  0  0  0  0  0  0  0
    1.1538   -2.3193    1.0559 H   0  0  0  0  0  0  0  0  0  0  0  0
    2.0613   -2.9841   -1.1064 H   0  0  0  0  0  0  0  0  0  0  0  0
    1.2563   -1.5772   -1.8168 H   0  0  0  0  0  0  0  0  0  0  0  0
    3.4556   -1.4770    0.2943 H   0  0  0  0  0  0  0  0  0  0  0  0
    3.6636   -1.2146   -1.4098 H   0  0  0  0  0  0  0  0  0  0  0  0
    3.5646    0.9705   -0.5579 H   0  0  0  0  0  0  0  0  0  0  0  0
    2.0344    0.6938   -1.3494 H   0  0  0  0  0  0  0  0  0  0  0  0
    1.1972    2.5077    1.7596 H   0  0  0  0  0  0  0  0  0  0  0  0
    2.3714    2.8521    0.4596 H   0  0  0  0  0  0  0  0  0  0  0  0
    0.2433    3.7459   -0.0565 H   0  0  0  0  0  0  0  0  0  0  0  0
    0.6907    2.4945   -1.2128 H   0  0  0  0  0  0  0  0  0  0  0  0
   -1.2850    2.3742    0.9925 H   0  0  0  0  0  0  0  0  0  0  0  0
   -1.1746    1.3252   -1.7757 H   0  0  0  0  0  0  0  0  0  0  0  0
   -1.9940    2.8264   -1.3205 H   0  0  0  0  0  0  0  0  0  0  0  0
    2.0273    0.6923    2.8727 H   0  0  0  0  0  0  0  0  0  0  0  0
    2.8178   -0.5995    2.0617 H   0  0  0  0  0  0  0  0  0  0  0  0
    3.0598    3.1723    2.4895 H   0  0  0  0  0  0  0  0  0  0  0  0
    5.1158    4.4163    2.3639 H   0  0  0  0  0  0  0  0  0  0  0  0
    7.2486    0.7102    1.7283 H   0  0  0  0  0  0  0  0  0  0  0  0
    5.1737   -0.5259    1.7469 H   0  0  0  0  0  0  0  0  0  0  0  0
    8.2576    3.2687    1.3421 H   0  0  0  0  0  0  0  0  0  0  0  0
    7.4247    4.5041    2.2018 H   0  0  0  0  0  0  0  0  0  0  0  0
    8.0047    1.0505    3.6868 H   0  0  0  0  0  0  0  0  0  0  0  0
    9.3974    1.6060    4.5157 H   0  0  0  0  0  0  0  0  0  0  0  0
    9.7861    0.1684    2.4866 H   0  0  0  0  0  0  0  0  0  0  0  0
    9.4091    1.5211    1.4577 H   0  0  0  0  0  0  0  0  0  0  0  0
   11.5214    1.5102    3.6619 H   0  0  0  0  0  0  0  0  0  0  0  0
   11.8642    1.2102    1.9522 H   0  0  0  0  0  0  0  0  0  0  0  0
   10.9882    3.4687    1.5012 H   0  0  0  0  0  0  0  0  0  0  0  0
   13.2836    3.5853    1.8256 H   0  0  0  0  0  0  0  0  0  0  0  0
   13.1240    3.1234    3.5143 H   0  0  0  0  0  0  0  0  0  0  0  0
   12.1687    5.7604    2.2965 H   0  0  0  0  0  0  0  0  0  0  0  0
   13.6318    5.5604    3.2476 H   0  0  0  0  0  0  0  0  0  0  0  0
   11.5841    6.4578    4.3844 H   0  0  0  0  0  0  0  0  0  0  0  0
   13.3942    5.5343    5.6978 H   0  0  0  0  0  0  0  0  0  0  0  0
   12.6606    3.9376    5.5239 H   0  0  0  0  0  0  0  0  0  0  0  0
   11.2070    6.3263    6.7801 H   0  0  0  0  0  0  0  0  0  0  0  0
   12.2038    5.1994    7.6840 H   0  0  0  0  0  0  0  0  0  0  0  0
    9.9522    4.4752    7.9705 H   0  0  0  0  0  0  0  0  0  0  0  0
   10.7726    3.2953    6.9397 H   0  0  0  0  0  0  0  0  0  0  0  0
    9.0026    5.4651    5.9585 H   0  0  0  0  0  0  0  0  0  0  0  0
    7.6295    3.7306    6.8177 H   0  0  0  0  0  0  0  0  0  0  0  0
    8.7351    2.5248    6.1957 H   0  0  0  0  0  0  0  0  0  0  0  0
    7.1302    4.5128    4.5163 H   0  0  0  0  0  0  0  0  0  0  0  0
    6.6907    2.8264    4.7827 H   0  0  0  0  0  0  0  0  0  0  0  0
  1  2  1  0  0  0  0
  1 14  1  0  0  0  0
  1 37  1  0  0  0  0
  1 38  1  0  0  0  0
  2  3  1  0  0  0  0
  2 39  1  0  0  0  0
  2 40  1  0  0  0  0
  3  4  1  0  0  0  0
  3 41  1  0  0  0  0
  4  5  1  0  0  0  0
  4 42  1  0  0  0  0
  4 43  1  0  0  0  0
  5  6  1  0  0  0  0
  5 44  1  0  0  0  0
  5 45  1  0  0  0  0
  6  7  1  0  0  0  0
  6 46  1  0  0  0  0
  7  8  1  0  0  0  0
  7 47  1  0  0  0  0
  7 48  1  0  0  0  0
  8  9  1  0  0  0  0
  8 49  1  0  0  0  0
  8 50  1  0  0  0  0
  9 10  1  0  0  0  0
  9 51  1  0  0  0  0
  9 52  1  0  0  0  0
 10 11  1  0  0  0  0
 10 15  1  0  0  0  0
 11 12  1  0  0  0  0
 11 53  1  0  0  0  0
 11 54  1  0  0  0  0
 12 13  1  0  0  0  0
 12 55  1  0  0  0  0
 12 56  1  0  0  0  0
 13 14  1  0  0  0  0
 13 57  1  0  0  0  0
 14 58  1  0  0  0  0
 14 59  1  0  0  0  0
 15 16  1  0  0  0  0
 15 60  1  0  0  0  0
 15 61  1  0  0  0  0
 16 17  2  0  0  0  0
 16 21  1  0  0  0  0
 17 18  1  0  0  0  0
 17 62  1  0  0  0  0
 18 19  2  0  0  0  0
 18 63  1  0  0  0  0
 19 20  1  0  0  0  0
 19 22  1  0  0  0  0
 20 21  2  0  0  0  0
 20 64  1  0  0  0  0
 21 65  1  0  0  0  0
 22 23  1  0  0  0  0
 22 66  1  0  0  0  0
 22 67  1  0  0  0  0
 23 24  1  0  0  0  0
 23 36  1  0  0  0  0
 24 25  1  0  0  0  0
 24 68  1  0  0  0  0
 24 69  1  0  0  0  0
 25 26  1  0  0  0  0
 25 70  1  0  0  0  0
 25 71  1  0  0  0  0
 26 27  1  0  0  0  0
 26 72  1  0  0  0  0
 26 73  1  0  0  0  0
 27 28  1  0  0  0  0
 27 74  1  0  0  0  0
 28 29  1  0  0  0  0
 28 75  1  0  0  0  0
 28 76  1  0  0  0  0
 29 30  1  0  0  0  0
 29 77  1  0  0  0  0
 29 78  1  0  0  0  0
 30 31  1  0  0  0  0
 30 79  1  0  0  0  0
 31 32  1  0  0  0  0
 31 80  1  0  0  0  0
 31 81  1  0  0  0  0
 32 33  1  0  0  0  0
 32 82  1  0  0  0  0
 32 83  1  0  0  0  0
 33 34  1  0  0  0  0
 33 84  1  0  0  0  0
 33 85  1  0  0  0  0
 34 35  1  0  0  0  0
 34 86  1  0  0  0  0
 35 36  1  0  0  0  0
 35 87  1  0  0  0  0
 35 88  1  0  0  0  0
 36 89  1  0  0  0  0
 36 90  1  0  0  0  0
M  END
>  <DRUGBANK_ID>
DB06809

>  <COMMON_NAME>
Plerixafor

>  <CAS_NUMBER>
110078-46-1

>  <UNII>
S915P5499N

>  <SYNONYMS>
1,1'-(1,4-phenylenebis(methylene))bis-1,4,8,11-tetraazacyclotetradecane; 1,4,8,11-tetraazacyclotetradecane, 1,1'-(1,4-phenylenebis(methylene))bis-; Plerixafor

$$$$
