534
 OpenBabel10282417103D

 22 21  0  0  1  0  0  0  0  0999 V2000
    0.9175   -0.0179   -0.0535 Hg  0  0  0  0  0  0  0  0  0  0  0  0
   -1.4225   -0.0179   -0.0535 Cl  0  0  0  0  0  0  0  0  0  0  0  0
    3.0308    2.3718    0.1786 O   0  0  0  0  0  0  0  0  0  0  0  0
    6.7829   -0.5017   -3.3358 O   0  0  0  0  0  0  0  0  0  0  0  0
    5.5141    0.1864   -1.4487 N   0  0  0  0  0  0  0  0  0  0  0  0
    6.7144    1.8437   -2.9638 N   0  0  0  0  0  0  0  0  0  0  0  0
    3.5041    1.2980   -0.6210 C   0  0  3  0  0  0  0  0  0  0  0  0
    5.0241    1.2980   -0.6210 C   0  0  0  0  0  0  0  0  0  0  0  0
    2.9975   -0.0179   -0.0535 C   0  0  0  0  0  0  0  0  0  0  0  0
    6.3592    0.4593   -2.6201 C   0  0  0  0  0  0  0  0  0  0  0  0
    1.6108    2.3718    0.1786 C   0  0  0  0  0  0  0  0  0  0  0  0
    5.2677   -0.7742   -1.2103 H   0  0  0  0  0  0  0  0  0  0  0  0
    6.3744    2.6150   -2.3895 H   0  0  0  0  0  0  0  0  0  0  0  0
    7.3008    2.0331   -3.7766 H   0  0  0  0  0  0  0  0  0  0  0  0
    3.1475    1.4153   -1.6230 H   0  0  0  0  0  0  0  0  0  0  0  0
    5.3808    2.2244   -1.0204 H   0  0  0  0  0  0  0  0  0  0  0  0
    5.3808    1.1808    0.3810 H   0  0  0  0  0  0  0  0  0  0  0  0
    3.3541   -0.1351    0.9484 H   0  0  0  0  0  0  0  0  0  0  0  0
    3.3541   -0.8270   -0.6560 H   0  0  0  0  0  0  0  0  0  0  0  0
    1.2541    2.4890   -0.8234 H   0  0  0  0  0  0  0  0  0  0  0  0
    1.2541    1.4455    0.5781 H   0  0  0  0  0  0  0  0  0  0  0  0
    1.2541    3.1809    0.7811 H   0  0  0  0  0  0  0  0  0  0  0  0
  1  2  1  0  0  0  0
  1  9  1  0  0  0  0
  3  7  1  0  0  0  0
  3 11  1  0  0  0  0
  4 10  2  0  0  0  0
  5  8  1  0  0  0  0
  5 10  1  0  0  0  0
  5 12  1  0  0  0  0
  6 10  1  0  0  0  0
  6 13  1  0  0  0  0
  6 14  1  0  0  0  0
  7  8  1  0  0  0  0
  7  9  1  0  0  0  0
  7 15  1  0  0  0  0
  8 16  1  0  0  0  0
  8 17  1  0  0  0  0
  9 18  1  0  0  0  0
  9 19  1  0  0  0  0
 11 20  1  0  0  0  0
 11 21  1  0  0  0  0
 11 22  1  0  0  0  0
M  END
>  <DRUGBANK_ID>
DB00534

>  <SECONDARY_ACCESSION_NUMBERS>
APRD00864

>  <COMMON_NAME>
Chlormerodrin

>  <CAS_NUMBER>
62-37-3

>  <UNII>
99T5TWO621

>  <SYNONYMS>
{3-[(aminocarbonyl)amino]-2-methoxypropyl}chloromercury; 1-[3-(chloromercuri)-2-methoxypropyl]urea; Chlormerodrin; Chlormerodrina; Chlormerodrine; Chlormerodrinum

$$$$
