
 OpenBabel10282417183D

 22 21  0  0  0  0  0  0  0  0999 V2000
    0.9508   -0.0504   -0.3589 C   0  0  0  0  0  0  0  0  0  0  0  0
    0.3225   -1.2562   -0.0330 N   0  0  0  0  0  0  0  0  0  0  0  0
   -1.1711   -1.3332   -0.0671 C   0  0  0  0  0  0  0  0  0  0  0  0
   -1.7334   -2.1656   -1.2489 C   0  0  0  0  0  0  0  0  0  0  0  0
   -2.4174   -3.1645   -0.8951 O   0  5  0  0  0  0  0  0  0  0  0  0
   -1.3302   -1.8020   -2.3863 O   0  0  0  0  0  0  0  0  0  0  0  0
    0.3252    0.9832   -0.2734 O   0  0  0  0  0  0  0  0  0  0  0  0
    2.4689   -0.0415   -0.3929 C   0  0  0  0  0  0  0  0  0  0  0  0
    3.2276    1.1527   -0.3503 C   0  0  0  0  0  0  0  0  0  0  0  0
    2.4684    3.1277   -0.2839 I   0  0  0  0  0  0  0  0  0  0  0  0
    4.6331    1.1028   -0.2794 C   0  0  0  0  0  0  0  0  0  0  0  0
    5.3038   -0.1110   -0.3586 C   0  0  0  0  0  0  0  0  0  0  0  0
    4.5767   -1.2906   -0.3300 C   0  0  0  0  0  0  0  0  0  0  0  0
    3.1785   -1.2544   -0.2744 C   0  0  0  0  0  0  0  0  0  0  0  0
    1.1167   -0.4620    2.1258 Na  0  3  0  0  0  0  0  0  0  0  0  0
    0.7138   -2.1264   -0.3813 H   0  0  0  0  0  0  0  0  0  0  0  0
   -1.4645   -1.8019    0.8785 H   0  0  0  0  0  0  0  0  0  0  0  0
   -1.6223   -0.3358   -0.0991 H   0  0  0  0  0  0  0  0  0  0  0  0
    5.2242    2.0116   -0.1686 H   0  0  0  0  0  0  0  0  0  0  0  0
    6.3895   -0.1330   -0.4288 H   0  0  0  0  0  0  0  0  0  0  0  0
    5.1001   -2.2452   -0.3489 H   0  0  0  0  0  0  0  0  0  0  0  0
    2.6839   -2.2105   -0.1304 H   0  0  0  0  0  0  0  0  0  0  0  0
  1  2  1  0  0  0  0
  1  7  2  0  0  0  0
  1  8  1  0  0  0  0
  2  3  1  0  0  0  0
  2 16  1  0  0  0  0
  3  4  1  0  0  0  0
  3 17  1  0  0  0  0
  3 18  1  0  0  0  0
  4  5  1  0  0  0  0
  4  6  2  0  0  0  0
  8  9  2  0  0  0  0
  8 14  1  0  0  0  0
  9 10  1  0  0  0  0
  9 11  1  0  0  0  0
 11 12  2  0  0  0  0
 11 19  1  0  0  0  0
 12 20  1  0  0  0  0
 13 12  1  0  0  0  0
 13 21  1  0  0  0  0
 14 13  2  0  0  0  0
 14 22  1  0  0  0  0
M  ISO  1  10 131
M  CHG  2   5  -1  15   1
M  END
>  <DRUGBANK_ID>
DB09382

>  <COMMON_NAME>
Iodohippurate sodium I-131

>  <CAS_NUMBER>
881-17-4

>  <UNII>
9BRV734R3E

>  <SYNONYMS>
Iodohippurate sodium I 131; Iodohippurate sodium I131; Sodium iodohippurate (131 I); Sodium iodohippurate (131I)

$$$$
