
 OpenBabel10282417243D

 68 73  0  0  1  0  0  0  0  0999 V2000
    0.9965   -0.0680    2.4101 C   0  0  0  0  0  0  0  0  0  0  0  0
    0.4631   -0.7576    1.1254 C   0  0  2  0  0  0  0  0  0  0  0  0
    0.9519    0.0049   -0.0472 N   0  0  0  0  0  0  0  0  0  0  0  0
   -1.0973   -0.6414    1.2136 C   0  0  0  0  0  0  0  0  0  0  0  0
   -1.7971    0.4977    0.7734 C   0  0  0  0  0  0  0  0  0  0  0  0
   -3.1986    0.5245    0.7625 C   0  0  0  0  0  0  0  0  0  0  0  0
   -3.9164   -0.6077    1.1206 C   0  0  0  0  0  0  0  0  0  0  0  0
   -5.2522   -0.6106    1.0431 F   0  0  0  0  0  0  0  0  0  0  0  0
   -3.2660   -1.7146    1.6205 C   0  0  0  0  0  0  0  0  0  0  0  0
   -1.8867   -1.6556    1.7967 C   0  0  0  0  0  0  0  0  0  0  0  0
    1.0229   -2.1904    1.0130 C   0  0  0  0  0  0  0  0  0  0  0  0
    0.2631   -3.3277    0.8642 C   0  0  0  0  0  0  0  0  0  0  0  0
    0.6967   -4.5900    0.9570 N   0  0  0  0  0  0  0  0  0  0  0  0
    2.0085   -4.7962    1.0298 C   0  0  0  0  0  0  0  0  0  0  0  0
    2.8827   -3.7759    1.0516 N   0  0  0  0  0  0  0  0  0  0  0  0
    2.3709   -2.5111    1.0267 C   0  0  0  0  0  0  0  0  0  0  0  0
    2.4339   -6.0741    0.7942 N   0  0  0  0  0  0  0  0  0  0  0  0
    3.2949   -6.7740    1.7496 C   0  0  0  0  0  0  0  0  0  0  0  0
    4.0962   -7.8444    0.9576 C   0  0  0  0  0  0  0  0  0  0  0  0
    3.2081   -8.7145    0.1556 N   0  0  0  0  0  0  0  0  0  0  0  0
    2.2763   -7.9756   -0.7096 C   0  0  0  0  0  0  0  0  0  0  0  0
    1.4702   -6.9671    0.1311 C   0  0  0  0  0  0  0  0  0  0  0  0
    3.2480  -10.0913    0.1898 C   0  0  0  0  0  0  0  0  0  0  0  0
    3.0479  -10.7298    1.3161 N   0  0  0  0  0  0  0  0  0  0  0  0
    3.0239  -12.1027    1.3182 C   0  0  0  0  0  0  0  0  0  0  0  0
    3.2335  -12.9008    0.3125 N   0  0  0  0  0  0  0  0  0  0  0  0
    3.4885  -12.2545   -0.8317 N   0  0  0  0  0  0  0  0  0  0  0  0
    3.7616  -12.8443   -2.0365 C   0  0  0  0  0  0  0  0  0  0  0  0
    3.9674  -11.8417   -2.9580 C   0  0  0  0  0  0  0  0  0  0  0  0
    3.8110  -10.6037   -2.2871 C   0  0  0  0  0  0  0  0  0  0  0  0
    3.5000  -10.8987   -0.9706 C   0  0  0  0  0  0  0  0  0  0  0  0
    4.2258  -12.0117   -4.3734 C   0  0  0  0  0  0  0  0  0  0  0  0
    5.3324  -11.5559   -5.1128 C   0  0  0  0  0  0  0  0  0  0  0  0
    5.2384  -11.8822   -6.4099 N   0  0  0  0  0  0  0  0  0  0  0  0
    4.0772  -12.5742   -6.4792 N   0  0  0  0  0  0  0  0  0  0  0  0
    3.6093  -13.0918   -7.7544 C   0  0  0  0  0  0  0  0  0  0  0  0
    3.3852  -11.9842   -8.7785 C   0  0  0  0  0  0  0  0  0  0  0  0
    4.5959  -11.3231   -9.1350 O   0  0  0  0  0  0  0  0  0  0  0  0
    3.4340  -12.6707   -5.2817 C   0  0  0  0  0  0  0  0  0  0  0  0
    1.0716    1.0211    2.2868 H   0  0  0  0  0  0  0  0  0  0  0  0
    1.9866   -0.4221    2.7134 H   0  0  0  0  0  0  0  0  0  0  0  0
    0.3235   -0.2272    3.2624 H   0  0  0  0  0  0  0  0  0  0  0  0
    1.9675   -0.0266   -0.1006 H   0  0  0  0  0  0  0  0  0  0  0  0
    0.7378    0.9936    0.0705 H   0  0  0  0  0  0  0  0  0  0  0  0
   -1.2729    1.3901    0.4437 H   0  0  0  0  0  0  0  0  0  0  0  0
   -3.7331    1.4180    0.4597 H   0  0  0  0  0  0  0  0  0  0  0  0
   -3.8181   -2.6089    1.8917 H   0  0  0  0  0  0  0  0  0  0  0  0
   -1.4394   -2.4716    2.3599 H   0  0  0  0  0  0  0  0  0  0  0  0
   -0.7914   -3.3178    0.6285 H   0  0  0  0  0  0  0  0  0  0  0  0
    3.1308   -1.7336    0.9722 H   0  0  0  0  0  0  0  0  0  0  0  0
    3.9805   -6.0942    2.2672 H   0  0  0  0  0  0  0  0  0  0  0  0
    2.6812   -7.2738    2.5129 H   0  0  0  0  0  0  0  0  0  0  0  0
    4.7485   -7.3114    0.2524 H   0  0  0  0  0  0  0  0  0  0  0  0
    4.7424   -8.4247    1.6225 H   0  0  0  0  0  0  0  0  0  0  0  0
    2.8573   -7.4222   -1.4582 H   0  0  0  0  0  0  0  0  0  0  0  0
    1.5890   -8.6411   -1.2406 H   0  0  0  0  0  0  0  0  0  0  0  0
    0.8520   -7.4852    0.8778 H   0  0  0  0  0  0  0  0  0  0  0  0
    0.7991   -6.4266   -0.5477 H   0  0  0  0  0  0  0  0  0  0  0  0
    2.7909  -12.5803    2.2861 H   0  0  0  0  0  0  0  0  0  0  0  0
    3.7877  -13.9208   -2.1290 H   0  0  0  0  0  0  0  0  0  0  0  0
    3.8919   -9.6117   -2.7074 H   0  0  0  0  0  0  0  0  0  0  0  0
    6.2034  -11.0095   -4.7723 H   0  0  0  0  0  0  0  0  0  0  0  0
    4.3534  -13.8181   -8.0979 H   0  0  0  0  0  0  0  0  0  0  0  0
    2.6654  -13.6169   -7.5688 H   0  0  0  0  0  0  0  0  0  0  0  0
    2.9683  -12.4118   -9.6961 H   0  0  0  0  0  0  0  0  0  0  0  0
    2.6818  -11.2335   -8.4047 H   0  0  0  0  0  0  0  0  0  0  0  0
    5.0525  -11.1068   -8.2905 H   0  0  0  0  0  0  0  0  0  0  0  0
    2.4844  -13.1737   -5.1759 H   0  0  0  0  0  0  0  0  0  0  0  0
  1 40  1  0  0  0  0
  1 41  1  0  0  0  0
  1 42  1  0  0  0  0
  2  4  1  0  0  0  0
  2 11  1  0  0  0  0
  2  3  1  6  0  0  0
  2  1  1  0  0  0  0
  3 43  1  0  0  0  0
  3 44  1  0  0  0  0
  4  5  2  0  0  0  0
  4 10  1  0  0  0  0
  5  6  1  0  0  0  0
  5 45  1  0  0  0  0
  6  7  2  0  0  0  0
  6 46  1  0  0  0  0
  7  8  1  0  0  0  0
  7  9  1  0  0  0  0
  9 10  2  0  0  0  0
  9 47  1  0  0  0  0
 10 48  1  0  0  0  0
 11 12  2  0  0  0  0
 11 16  1  0  0  0  0
 12 13  1  0  0  0  0
 12 49  1  0  0  0  0
 13 14  2  0  0  0  0
 14 15  1  0  0  0  0
 14 17  1  0  0  0  0
 15 16  2  0  0  0  0
 16 50  1  0  0  0  0
 17 18  1  0  0  0  0
 17 22  1  0  0  0  0
 18 19  1  0  0  0  0
 18 51  1  0  0  0  0
 18 52  1  0  0  0  0
 19 20  1  0  0  0  0
 19 53  1  0  0  0  0
 19 54  1  0  0  0  0
 20 21  1  0  0  0  0
 20 23  1  0  0  0  0
 21 22  1  0  0  0  0
 21 55  1  0  0  0  0
 21 56  1  0  0  0  0
 22 57  1  0  0  0  0
 22 58  1  0  0  0  0
 23 24  2  0  0  0  0
 23 31  1  0  0  0  0
 24 25  1  0  0  0  0
 25 26  2  0  0  0  0
 25 59  1  0  0  0  0
 26 27  1  0  0  0  0
 27 28  1  0  0  0  0
 27 31  1  0  0  0  0
 28 29  2  0  0  0  0
 28 60  1  0  0  0  0
 29 30  1  0  0  0  0
 29 32  1  0  0  0  0
 30 31  2  0  0  0  0
 30 61  1  0  0  0  0
 32 33  1  0  0  0  0
 32 39  2  0  0  0  0
 33 34  2  0  0  0  0
 33 62  1  0  0  0  0
 34 35  1  0  0  0  0
 35 36  1  0  0  0  0
 35 39  1  0  0  0  0
 36 37  1  0  0  0  0
 36 63  1  0  0  0  0
 36 64  1  0  0  0  0
 37 38  1  0  0  0  0
 37 65  1  0  0  0  0
 37 66  1  0  0  0  0
 38 67  1  0  0  0  0
 39 68  1  0  0  0  0
M  END
>  <DRUGBANK_ID>
DB18489

>  <COMMON_NAME>
Elenestinib

>  <CAS_NUMBER>
2505078-08-8

>  <UNII>
6FBM4CP6RK

>  <SYNONYMS>
(S)-2-(4-(4-(4-(5-(1-amino-1-(4-fluorophenyl)ethyl)pyrimidin-2-yl)piperazin-1-yl)pyrrolo[2,1-f][1,2,4]triazin-6-yl)-1H-pyrazol-1-yl)ethan-1-ol; 1H-Pyrazole-1-ethanol, 4-[4-[4-[5-[(1S)-1-amino-1-(4-fluorophenyl)ethyl]-2-pyrimidinyl]-1-piperazinyl]pyrrolo[2,1-f][1,2,4]triazin-6-yl]-; 2-{4-[4-(4-{5-[(1S)-1-amino-1-(4- fluorophenyl)ethyl]pyrimidin-2-yl}piperazin-1- yl)pyrrolo[2,1-f][1,2,4]triazin-6-yl]-1H-pyrazol-1- yl}ethan-1-ol; 4-[4-[4-[5-[(1S)-1-Amino-1-(4-fluorophenyl)ethyl]-2-pyrimidinyl]-1-piperazinyl]pyrrolo[2,1-f][1,2,4]triazin-6-yl]-1H-pyrazole-1-ethanol

$$$$
