
 OpenBabel10282417203D

 61 63  0  0  0  0  0  0  0  0999 V2000
   -0.0771   -0.1774   -0.0713 C   0  0  0  0  0  0  0  0  0  0  0  0
    1.0513   -0.9696   -0.1096 C   0  0  0  0  0  0  0  0  0  0  0  0
   -0.0506    1.2130   -0.0217 C   0  0  0  0  0  0  0  0  0  0  0  0
   -1.3045   -0.7373   -0.1143 C   0  0  0  0  0  0  0  0  0  0  0  0
    0.9517   -2.4952    0.0177 C   0  0  0  0  0  0  0  0  0  0  0  0
    2.2737   -0.3355   -0.3779 C   0  0  0  0  0  0  0  0  0  0  0  0
    1.2286    1.7850    0.0136 C   0  0  0  0  0  0  0  0  0  0  0  0
   -1.3294    1.8314    0.0061 C   0  0  0  0  0  0  0  0  0  0  0  0
   -2.5597   -0.2239   -0.0693 C   0  0  0  0  0  0  0  0  0  0  0  0
    0.2399   -3.4363    1.3983 C   0  0  3  0  0  0  0  0  0  0  0  0
    2.3898    1.0328   -0.1699 C   0  0  0  0  0  0  0  0  0  0  0  0
   -2.5644    1.1368   -0.0143 C   0  0  0  0  0  0  0  0  0  0  0  0
   -1.2683   -3.2297    1.3858 C   0  0  0  0  0  0  0  0  0  0  0  0
    0.3993   -5.1598    1.8019 C   0  0  0  0  0  0  0  0  0  0  0  0
   -1.9817   -3.7138   -0.0153 C   0  0  3  0  0  0  0  0  0  0  0  0
    0.9676   -5.5315    2.9731 O   0  0  0  0  0  0  0  0  0  0  0  0
    0.1993   -6.1434    1.0837 O   0  0  0  0  0  0  0  0  0  0  0  0
   -1.6086   -5.1078   -0.3269 C   0  0  0  0  0  0  0  0  0  0  0  0
   -1.6065   -3.1047   -1.3094 O   0  0  0  0  0  0  0  0  0  0  0  0
    1.8762   -4.7557    3.7492 C   0  0  0  0  0  0  0  0  0  0  0  0
   -1.5273   -5.3356   -1.7999 C   0  0  0  0  0  0  0  0  0  0  0  0
   -1.0244   -4.0075   -2.2586 C   0  0  0  0  0  0  0  0  0  0  0  0
    3.1476   -4.1219    3.1129 C   0  0  0  0  0  0  0  0  0  0  0  0
    2.9225   -3.4423    1.8509 N   0  0  0  0  0  0  0  0  0  0  0  0
    3.8372   -2.3508    1.5947 C   0  0  0  0  0  0  0  0  0  0  0  0
    2.6517   -4.4366    0.8012 C   0  0  0  0  0  0  0  0  0  0  0  0
    4.9402   -2.8264    0.6979 C   0  0  0  0  0  0  0  0  0  0  0  0
    3.3398   -5.3132   -0.1601 C   0  0  0  0  0  0  0  0  0  0  0  0
   -1.2314   -1.7745   -0.1511 H   0  0  0  0  0  0  0  0  0  0  0  0
    0.5194   -2.8730   -0.8870 H   0  0  0  0  0  0  0  0  0  0  0  0
    1.9858   -2.7030   -0.2663 H   0  0  0  0  0  0  0  0  0  0  0  0
    3.1791   -0.8843   -0.6430 H   0  0  0  0  0  0  0  0  0  0  0  0
    1.3153    2.8563    0.1579 H   0  0  0  0  0  0  0  0  0  0  0  0
   -1.3580    2.9132    0.0271 H   0  0  0  0  0  0  0  0  0  0  0  0
   -3.4164   -0.8900   -0.0749 H   0  0  0  0  0  0  0  0  0  0  0  0
    0.6234   -2.9296    2.2921 H   0  0  0  0  0  0  0  0  0  0  0  0
    3.3784    1.4805   -0.1386 H   0  0  0  0  0  0  0  0  0  0  0  0
   -3.5240    1.6249    0.0059 H   0  0  0  0  0  0  0  0  0  0  0  0
   -1.7175   -3.7204    2.2596 H   0  0  0  0  0  0  0  0  0  0  0  0
   -1.3782   -2.1750    1.6770 H   0  0  0  0  0  0  0  0  0  0  0  0
   -3.0464   -3.5085    0.0988 H   0  0  0  0  0  0  0  0  0  0  0  0
   -0.5501   -5.0381   -0.1868 H   0  0  0  0  0  0  0  0  0  0  0  0
   -2.0823   -5.8518    0.3088 H   0  0  0  0  0  0  0  0  0  0  0  0
    1.2374   -4.0321    4.2408 H   0  0  0  0  0  0  0  0  0  0  0  0
    2.2635   -5.4692    4.4840 H   0  0  0  0  0  0  0  0  0  0  0  0
   -0.8067   -6.1281   -2.0300 H   0  0  0  0  0  0  0  0  0  0  0  0
   -2.5051   -5.5283   -2.2166 H   0  0  0  0  0  0  0  0  0  0  0  0
    0.0805   -3.9772   -2.2807 H   0  0  0  0  0  0  0  0  0  0  0  0
   -1.3287   -3.7096   -3.2600 H   0  0  0  0  0  0  0  0  0  0  0  0
    3.5568   -3.4438    3.8668 H   0  0  0  0  0  0  0  0  0  0  0  0
    3.9124   -4.8753    2.8967 H   0  0  0  0  0  0  0  0  0  0  0  0
    3.2600   -1.5804    1.1293 H   0  0  0  0  0  0  0  0  0  0  0  0
    4.1905   -1.7925    2.4734 H   0  0  0  0  0  0  0  0  0  0  0  0
    2.3517   -5.2359    1.4189 H   0  0  0  0  0  0  0  0  0  0  0  0
    1.7615   -4.3003    0.2081 H   0  0  0  0  0  0  0  0  0  0  0  0
    4.5295   -3.0901   -0.2768 H   0  0  0  0  0  0  0  0  0  0  0  0
    5.6875   -2.0693    0.4864 H   0  0  0  0  0  0  0  0  0  0  0  0
    5.3970   -3.7087    1.1553 H   0  0  0  0  0  0  0  0  0  0  0  0
    3.8874   -6.0226    0.4459 H   0  0  0  0  0  0  0  0  0  0  0  0
    2.5189   -5.8522   -0.6737 H   0  0  0  0  0  0  0  0  0  0  0  0
    3.8684   -4.7818   -0.9331 H   0  0  0  0  0  0  0  0  0  0  0  0
  1  2  1  0  0  0  0
  1  3  2  0  0  0  0
  1  4  1  0  0  0  0
  2  5  1  0  0  0  0
  2  6  2  0  0  0  0
  3  7  1  0  0  0  0
  3  8  1  0  0  0  0
  4  9  2  0  0  0  0
  4 29  1  0  0  0  0
  5 10  1  0  0  0  0
  5 30  1  0  0  0  0
  5 31  1  0  0  0  0
  6 11  1  0  0  0  0
  6 32  1  0  0  0  0
  7 11  2  0  0  0  0
  7 33  1  0  0  0  0
  8 12  2  0  0  0  0
  8 34  1  0  0  0  0
  9 12  1  0  0  0  0
  9 35  1  0  0  0  0
 10 13  1  0  0  0  0
 10 14  1  0  0  0  0
 10 36  1  0  0  0  0
 11 37  1  0  0  0  0
 12 38  1  0  0  0  0
 13 15  1  0  0  0  0
 13 39  1  0  0  0  0
 13 40  1  0  0  0  0
 14 16  1  0  0  0  0
 14 17  2  0  0  0  0
 15 18  1  0  0  0  0
 15 19  1  0  0  0  0
 15 41  1  0  0  0  0
 16 20  1  0  0  0  0
 18 21  1  0  0  0  0
 18 42  1  0  0  0  0
 18 43  1  0  0  0  0
 19 22  1  0  0  0  0
 20 23  1  0  0  0  0
 20 44  1  0  0  0  0
 20 45  1  0  0  0  0
 21 22  1  0  0  0  0
 21 46  1  0  0  0  0
 21 47  1  0  0  0  0
 22 48  1  0  0  0  0
 22 49  1  0  0  0  0
 23 24  1  0  0  0  0
 23 50  1  0  0  0  0
 23 51  1  0  0  0  0
 24 25  1  0  0  0  0
 24 26  1  0  0  0  0
 25 27  1  0  0  0  0
 25 52  1  0  0  0  0
 25 53  1  0  0  0  0
 26 28  1  0  0  0  0
 26 54  1  0  0  0  0
 26 55  1  0  0  0  0
 27 56  1  0  0  0  0
 27 57  1  0  0  0  0
 27 58  1  0  0  0  0
 28 59  1  0  0  0  0
 28 60  1  0  0  0  0
 28 61  1  0  0  0  0
M  END
>  <DRUGBANK_ID>
DB13588

>  <COMMON_NAME>
Naftidrofuryl

>  <CAS_NUMBER>
31329-57-4

>  <UNII>
42H8PQ0NMJ

>  <SYNONYMS>
Nafronyl; Naftidrofurilo; Naftidrofuryl; Naftidrofurylum

$$$$
