
 OpenBabel10282417143D

 19 20  0  0  0  0  0  0  0  0999 V2000
   -2.4086    0.6521   -0.1254 C   0  0  0  0  0  0  0  0  0  0  0  0
   -2.4024   -0.7393   -0.0456 C   0  0  0  0  0  0  0  0  0  0  0  0
   -1.1982   -1.4216    0.1068 C   0  0  0  0  0  0  0  0  0  0  0  0
   -1.2232    1.3618    0.0501 C   0  0  0  0  0  0  0  0  0  0  0  0
    0.0116    0.6834    0.0878 C   0  0  0  0  0  0  0  0  0  0  0  0
    0.0251   -0.7241    0.0875 C   0  0  0  0  0  0  0  0  0  0  0  0
    1.2516   -1.3848    0.0216 N   0  3  0  0  0  0  0  0  0  0  0  0
    2.4243   -0.6225   -0.0484 C   0  0  0  0  0  0  0  0  0  0  0  0
    2.4067    0.7170   -0.0088 N   0  0  0  0  0  0  0  0  0  0  0  0
    1.2366    1.3503    0.0662 N   0  3  0  0  0  0  0  0  0  0  0  0
    3.6394   -1.2620   -0.1719 N   0  0  0  0  0  0  0  0  0  0  0  0
    1.3080    2.6109    0.0715 O   0  5  0  0  0  0  0  0  0  0  0  0
    1.3113   -2.6691   -0.0195 O   0  5  0  0  0  0  0  0  0  0  0  0
   -3.3348    1.1825   -0.3344 H   0  0  0  0  0  0  0  0  0  0  0  0
   -3.3353   -1.2938   -0.1163 H   0  0  0  0  0  0  0  0  0  0  0  0
   -1.1990   -2.5101    0.1877 H   0  0  0  0  0  0  0  0  0  0  0  0
   -1.2481    2.4514    0.1064 H   0  0  0  0  0  0  0  0  0  0  0  0
    3.6104   -2.2774   -0.1956 H   0  0  0  0  0  0  0  0  0  0  0  0
    4.4929   -0.7311   -0.2218 H   0  0  0  0  0  0  0  0  0  0  0  0
  1  4  2  0  0  0  0
  1  2  1  0  0  0  0
  1 14  1  0  0  0  0
  2  3  2  0  0  0  0
  2 15  1  0  0  0  0
  3  6  1  0  0  0  0
  3 16  1  0  0  0  0
  4 17  1  0  0  0  0
  5  4  1  0  0  0  0
  5 10  1  0  0  0  0
  5  6  2  0  0  0  0
  6  7  1  0  0  0  0
  7  8  2  0  0  0  0
  7 13  1  0  0  0  0
  8  9  1  0  0  0  0
  8 11  1  0  0  0  0
  9 10  2  0  0  0  0
 10 12  1  0  0  0  0
 11 18  1  0  0  0  0
 11 19  1  0  0  0  0
M  CHG  4   7   1  10   1  12  -1  13  -1
M  END
>  <DRUGBANK_ID>
DB04858

>  <COMMON_NAME>
Tirapazamine

>  <CAS_NUMBER>
27314-97-2

>  <UNII>
1UD32YR59G

>  <SYNONYMS>
1,2,4-benzotriazin-3-amine, 1,4-dioxide; 3-Amino-1,2,4-benzotriazine 1,4-dioxide; Tirapazamine

$$$$
