497
 OpenBabel10282417103D

 44 48  0  0  1  0  0  0  0  0999 V2000
    0.6629   -0.6529   -0.3267 C   0  0  0  0  0  0  0  0  0  0  0  0
    0.9243    0.7028   -0.1851 C   0  0  0  0  0  0  0  0  0  0  0  0
    1.7305   -1.5636   -0.1419 C   0  0  0  0  0  0  0  0  0  0  0  0
    2.2555    1.1514   -0.0324 C   0  0  0  0  0  0  0  0  0  0  0  0
    3.0406   -1.1486   -0.0814 C   0  0  0  0  0  0  0  0  0  0  0  0
    3.3007    0.2046   -0.0253 C   0  0  0  0  0  0  0  0  0  0  0  0
   -1.1061   -1.1176   -0.5327 C   0  0  2  0  0  0  0  0  0  0  0  0
   -1.0852   -1.8497    0.6799 C   0  0  2  0  0  0  0  0  0  0  0  0
   -1.2502    0.4464    0.1926 C   0  0  1  0  0  0  0  0  0  0  0  0
    0.0396   -3.0372    1.1106 C   0  0  1  0  0  0  0  0  0  0  0  0
   -2.9424   -1.3141    0.7232 C   0  0  0  0  0  0  0  0  0  0  0  0
   -0.2204    1.4203   -0.1387 O   0  0  0  0  0  0  0  0  0  0  0  0
   -2.5222    1.0388   -0.2079 C   0  0  0  0  0  0  0  0  0  0  0  0
    1.4250   -2.9986    0.0358 C   0  0  0  0  0  0  0  0  0  0  0  0
   -0.4534   -4.4091    0.8554 N   0  0  0  0  0  0  0  0  0  0  0  0
   -3.4850   -0.0556   -0.2629 C   0  0  0  0  0  0  0  0  0  0  0  0
   -2.7541    2.2107   -0.4716 O   0  0  0  0  0  0  0  0  0  0  0  0
    2.7790    2.4023    0.1415 O   0  0  0  0  0  0  0  0  0  0  0  0
   -1.1618   -4.8837    2.0375 C   0  0  0  0  0  0  0  0  0  0  0  0
   -0.4809   -2.2562   -0.9286 O   0  0  0  0  0  0  0  0  0  0  0  0
   -1.2682   -4.5107   -0.3981 C   0  0  0  0  0  0  0  0  0  0  0  0
   -2.1720   -2.9414   -0.6931 C   0  0  0  0  0  0  0  0  0  0  0  0
    1.9146    3.5158    0.1737 C   0  0  0  0  0  0  0  0  0  0  0  0
    3.8323   -1.8875   -0.0443 H   0  0  0  0  0  0  0  0  0  0  0  0
    4.3387    0.5167    0.0641 H   0  0  0  0  0  0  0  0  0  0  0  0
   -1.2835    0.4217    1.3041 H   0  0  0  0  0  0  0  0  0  0  0  0
    0.5055   -2.8734    2.1031 H   0  0  0  0  0  0  0  0  0  0  0  0
   -3.3458   -1.2228    1.7292 H   0  0  0  0  0  0  0  0  0  0  0  0
   -3.6872   -1.9528    0.2131 H   0  0  0  0  0  0  0  0  0  0  0  0
    1.2606   -3.3193   -1.0290 H   0  0  0  0  0  0  0  0  0  0  0  0
    2.2331   -3.6940    0.2534 H   0  0  0  0  0  0  0  0  0  0  0  0
   -3.4906   -0.3292   -1.3339 H   0  0  0  0  0  0  0  0  0  0  0  0
   -4.4750    0.3056    0.0199 H   0  0  0  0  0  0  0  0  0  0  0  0
   -2.0578   -4.2860    2.2104 H   0  0  0  0  0  0  0  0  0  0  0  0
   -1.4351   -5.9390    1.9393 H   0  0  0  0  0  0  0  0  0  0  0  0
   -0.5263   -4.8146    2.9327 H   0  0  0  0  0  0  0  0  0  0  0  0
   -0.2446   -3.1565   -0.7797 H   0  0  0  0  0  0  0  0  0  0  0  0
   -0.5772   -4.6918   -1.2538 H   0  0  0  0  0  0  0  0  0  0  0  0
   -1.8519   -5.4474   -0.4146 H   0  0  0  0  0  0  0  0  0  0  0  0
   -2.6841   -3.0760   -1.6477 H   0  0  0  0  0  0  0  0  0  0  0  0
   -2.7948   -3.2779    0.1576 H   0  0  0  0  0  0  0  0  0  0  0  0
    1.3360    3.5884   -0.7477 H   0  0  0  0  0  0  0  0  0  0  0  0
    1.2885    3.4850    1.0670 H   0  0  0  0  0  0  0  0  0  0  0  0
    2.5401    4.4168    0.2423 H   0  0  0  0  0  0  0  0  0  0  0  0
  1  2  1  0  0  0  0
  1  3  2  0  0  0  0
  2 12  1  0  0  0  0
  2  4  2  0  0  0  0
  3 14  1  0  0  0  0
  3  5  1  0  0  0  0
  4 18  1  0  0  0  0
  4  6  1  0  0  0  0
  5  6  2  0  0  0  0
  5 24  1  0  0  0  0
  6 25  1  0  0  0  0
  7  1  1  1  0  0  0
  7  8  1  0  0  0  0
  7  9  1  0  0  0  0
  7 22  1  0  0  0  0
  8 10  1  0  0  0  0
  8 11  1  0  0  0  0
  8 20  1  1  0  0  0
  9 12  1  0  0  0  0
  9 13  1  0  0  0  0
  9 26  1  1  0  0  0
 10 15  1  0  0  0  0
 10 14  1  0  0  0  0
 10 27  1  6  0  0  0
 11 16  1  0  0  0  0
 11 28  1  0  0  0  0
 11 29  1  0  0  0  0
 13 17  2  0  0  0  0
 13 16  1  0  0  0  0
 14 30  1  0  0  0  0
 14 31  1  0  0  0  0
 15 19  1  0  0  0  0
 16 32  1  0  0  0  0
 16 33  1  0  0  0  0
 18 23  1  0  0  0  0
 19 34  1  0  0  0  0
 19 35  1  0  0  0  0
 19 36  1  0  0  0  0
 20 37  1  0  0  0  0
 21 15  1  0  0  0  0
 21 38  1  0  0  0  0
 21 39  1  0  0  0  0
 22 21  1  0  0  0  0
 22 40  1  0  0  0  0
 22 41  1  0  0  0  0
 23 42  1  0  0  0  0
 23 43  1  0  0  0  0
 23 44  1  0  0  0  0
M  END
>  <DRUGBANK_ID>
DB00497

>  <SECONDARY_ACCESSION_NUMBERS>
APRD00387

>  <COMMON_NAME>
Oxycodone

>  <CAS_NUMBER>
76-42-6

>  <UNII>
CD35PMG570

>  <SYNONYMS>
(-)-14-Hydroxydihydrocodeinone; 4,5-Epoxy-14-hydroxy-3-methoxy-17-methylmorphinan-6-one; 4,5alpha-Epoxy-14-hydroxy-3-methoxy-17-methylmorphinan-6-one; 4,5Î±-Epoxy-14-hydroxy-3-methoxy-17-methylmorphinan-6-one; Dihydro-14-hydroxycodeinone; Dihydrohydroxycodeinone; Dihydroxycodeinone; Oxicodona; Oxycodone; Oxycodonum

$$$$
