
 OpenBabel10282417223D

 69 74  0  0  1  0  0  0  0  0999 V2000
    0.8408   -0.0086   -2.5427 C   0  0  0  0  0  0  0  0  0  0  0  0
    0.2696    0.6488   -1.2305 C   0  0  2  0  0  0  0  0  0  0  0  0
    0.7398    0.0284    0.1453 C   0  0  0  0  0  0  0  0  0  0  0  0
    1.6376   -1.0569   -0.2491 N   0  0  0  0  0  0  0  0  0  0  0  0
    1.9613   -2.3548    0.3640 C   0  0  0  0  0  0  0  0  0  0  0  0
    2.8358   -2.2897    1.6233 C   0  0  0  0  0  0  0  0  0  0  0  0
    3.9454   -1.3826    1.4685 O   0  0  0  0  0  0  0  0  0  0  0  0
    3.4641   -0.1365    0.9843 C   0  0  0  0  0  0  0  0  0  0  0  0
    2.9122   -0.3433   -0.4220 C   0  0  0  0  0  0  0  0  0  0  0  0
   -1.1794    0.6947   -1.2572 N   0  0  0  0  0  0  0  0  0  0  0  0
   -1.9889   -0.3597   -0.8522 C   0  0  0  0  0  0  0  0  0  0  0  0
   -1.4916   -1.5974   -0.4052 N   0  0  0  0  0  0  0  0  0  0  0  0
   -2.2850   -2.5862    0.0600 C   0  0  0  0  0  0  0  0  0  0  0  0
   -1.6708   -3.7006    0.5308 N   0  0  0  0  0  0  0  0  0  0  0  0
   -3.5441   -2.5820    0.1068 O   0  0  0  0  0  0  0  0  0  0  0  0
   -3.2465    0.0312   -0.9454 N   0  0  0  0  0  0  0  0  0  0  0  0
   -3.2703    1.2880   -1.5401 C   0  0  0  0  0  0  0  0  0  0  0  0
   -1.9695    1.7542   -1.6897 C   0  0  0  0  0  0  0  0  0  0  0  0
   -1.7381    3.0417   -2.2002 C   0  0  0  0  0  0  0  0  0  0  0  0
   -2.8961    3.7631   -2.7234 C   0  0  0  0  0  0  0  0  0  0  0  0
   -4.2610    3.2527   -2.7855 C   0  0  0  0  0  0  0  0  0  0  0  0
   -5.4787    3.9801   -3.7672 C   0  0  0  0  0  0  0  0  0  0  0  0
   -6.8983    4.1234   -4.1352 C   0  0  0  0  0  0  0  0  0  0  0  0
   -7.6347    4.6253   -5.7347 C   0  0  0  0  0  0  0  0  0  0  0  0
   -8.9215    4.9186   -6.4391 C   0  0  0  0  0  0  0  0  0  0  0  0
   -9.1073    4.3233   -7.7134 C   0  0  0  0  0  0  0  0  0  0  0  0
   -7.9661    3.7083   -8.1539 C   0  0  0  0  0  0  0  0  0  0  0  0
   -6.7242    4.2064   -7.6461 C   0  0  0  0  0  0  0  0  0  0  0  0
   -6.6934    5.0641   -6.5556 C   0  0  0  0  0  0  0  0  0  0  0  0
   -5.8595    6.2119   -6.0699 C   0  0  0  0  0  0  0  0  0  0  0  0
   -5.9499    6.5327   -4.6366 O   0  0  0  0  0  0  0  0  0  0  0  0
   -7.1505    6.4068   -3.9427 C   0  0  0  0  0  0  0  0  0  0  0  0
   -8.2788    7.1256   -4.2222 C   0  0  0  0  0  0  0  0  0  0  0  0
   -9.3981    6.9785   -3.4049 C   0  0  0  0  0  0  0  0  0  0  0  0
  -10.4819    7.7095   -3.6842 F   0  0  0  0  0  0  0  0  0  0  0  0
   -9.4310    6.0728   -2.3436 C   0  0  0  0  0  0  0  0  0  0  0  0
   -8.4516    5.0871   -2.3054 C   0  0  0  0  0  0  0  0  0  0  0  0
   -7.3869    5.2205   -3.2166 C   0  0  0  0  0  0  0  0  0  0  0  0
   -4.3968    2.0652   -2.0323 C   0  0  0  0  0  0  0  0  0  0  0  0
    1.1911   -1.0435   -2.4328 H   0  0  0  0  0  0  0  0  0  0  0  0
    1.7146    0.5511   -2.9091 H   0  0  0  0  0  0  0  0  0  0  0  0
    0.1065   -0.0517   -3.3464 H   0  0  0  0  0  0  0  0  0  0  0  0
    0.6331    1.6885   -1.2413 H   0  0  0  0  0  0  0  0  0  0  0  0
    1.2366    0.8706    0.6546 H   0  0  0  0  0  0  0  0  0  0  0  0
   -0.0382   -0.1914    0.8894 H   0  0  0  0  0  0  0  0  0  0  0  0
    2.5663   -2.8746   -0.4025 H   0  0  0  0  0  0  0  0  0  0  0  0
    1.1256   -3.0476    0.5018 H   0  0  0  0  0  0  0  0  0  0  0  0
    2.2158   -1.9824    2.4704 H   0  0  0  0  0  0  0  0  0  0  0  0
    3.2669   -3.2716    1.8435 H   0  0  0  0  0  0  0  0  0  0  0  0
    4.2161    0.6477    0.9438 H   0  0  0  0  0  0  0  0  0  0  0  0
    2.7137    0.2080    1.7138 H   0  0  0  0  0  0  0  0  0  0  0  0
    3.5280   -0.9086   -1.1250 H   0  0  0  0  0  0  0  0  0  0  0  0
    2.7539    0.6353   -0.8887 H   0  0  0  0  0  0  0  0  0  0  0  0
   -0.4910   -1.7775   -0.3984 H   0  0  0  0  0  0  0  0  0  0  0  0
   -2.2950   -4.4350    0.8416 H   0  0  0  0  0  0  0  0  0  0  0  0
   -0.6826   -3.8923    0.5830 H   0  0  0  0  0  0  0  0  0  0  0  0
   -0.7234    3.4483   -2.2596 H   0  0  0  0  0  0  0  0  0  0  0  0
   -2.6500    4.7680   -3.0821 H   0  0  0  0  0  0  0  0  0  0  0  0
   -5.1246    4.9560   -3.3591 H   0  0  0  0  0  0  0  0  0  0  0  0
   -9.1451    6.0038   -6.7841 H   0  0  0  0  0  0  0  0  0  0  0  0
   -9.9542    4.4640   -8.4110 H   0  0  0  0  0  0  0  0  0  0  0  0
   -8.0545    2.8573   -8.8211 H   0  0  0  0  0  0  0  0  0  0  0  0
   -5.8215    3.6645   -7.8929 H   0  0  0  0  0  0  0  0  0  0  0  0
   -6.1163    7.1785   -6.5215 H   0  0  0  0  0  0  0  0  0  0  0  0
   -4.8164    6.0044   -6.3311 H   0  0  0  0  0  0  0  0  0  0  0  0
   -8.3614    7.6222   -5.1768 H   0  0  0  0  0  0  0  0  0  0  0  0
  -10.2655    6.0907   -1.6486 H   0  0  0  0  0  0  0  0  0  0  0  0
   -8.5447    4.2587   -1.6018 H   0  0  0  0  0  0  0  0  0  0  0  0
   -5.3683    1.6543   -1.8091 H   0  0  0  0  0  0  0  0  0  0  0  0
  1 40  1  0  0  0  0
  1 41  1  0  0  0  0
  1 42  1  0  0  0  0
  2 10  1  0  0  0  0
  2 43  1  6  0  0  0
  2  3  1  0  0  0  0
  2  1  1  0  0  0  0
  3  4  1  0  0  0  0
  3 44  1  0  0  0  0
  3 45  1  0  0  0  0
  4  5  1  0  0  0  0
  4  9  1  0  0  0  0
  5  6  1  0  0  0  0
  5 46  1  0  0  0  0
  5 47  1  0  0  0  0
  6  7  1  0  0  0  0
  6 48  1  0  0  0  0
  6 49  1  0  0  0  0
  7  8  1  0  0  0  0
  8  9  1  0  0  0  0
  8 50  1  0  0  0  0
  8 51  1  0  0  0  0
  9 52  1  0  0  0  0
  9 53  1  0  0  0  0
 10 11  1  0  0  0  0
 10 18  1  0  0  0  0
 11 12  1  0  0  0  0
 11 16  2  0  0  0  0
 12 13  1  0  0  0  0
 12 54  1  0  0  0  0
 13 14  1  0  0  0  0
 13 15  2  0  0  0  0
 14 55  1  0  0  0  0
 14 56  1  0  0  0  0
 16 17  1  0  0  0  0
 17 18  2  0  0  0  0
 17 39  1  0  0  0  0
 18 19  1  0  0  0  0
 19 20  2  0  0  0  0
 19 57  1  0  0  0  0
 20 21  1  0  0  0  0
 20 58  1  0  0  0  0
 21 22  1  0  0  0  0
 21 39  2  0  0  0  0
 22 23  2  0  0  0  0
 22 59  1  0  0  0  0
 23 24  1  0  0  0  0
 23 38  1  0  0  0  0
 24 25  2  0  0  0  0
 24 29  1  0  0  0  0
 25 26  1  0  0  0  0
 25 60  1  0  0  0  0
 26 27  2  0  0  0  0
 26 61  1  0  0  0  0
 27 28  1  0  0  0  0
 27 62  1  0  0  0  0
 28 29  2  0  0  0  0
 28 63  1  0  0  0  0
 29 30  1  0  0  0  0
 30 31  1  0  0  0  0
 30 64  1  0  0  0  0
 30 65  1  0  0  0  0
 31 32  1  0  0  0  0
 32 33  2  0  0  0  0
 32 38  1  0  0  0  0
 33 34  1  0  0  0  0
 33 66  1  0  0  0  0
 34 35  1  0  0  0  0
 34 36  2  0  0  0  0
 36 37  1  0  0  0  0
 36 67  1  0  0  0  0
 37 38  2  0  0  0  0
 37 68  1  0  0  0  0
 39 69  1  0  0  0  0
M  END
>  <DRUGBANK_ID>
DB15367

>  <COMMON_NAME>
LY-2623091

>  <CAS_NUMBER>
1162264-07-4

>  <UNII>
6FHZ595FNM

$$$$
