
 OpenBabel10282417183D

 68 71  0  0  0  0  0  0  0  0999 V2000
    1.0727   -0.1409   -0.0052 C   0  0  0  0  0  0  0  0  0  0  0  0
    0.4730    1.2294    0.0109 C   0  0  0  0  0  0  0  0  0  0  0  0
    0.8449    2.0965   -1.0711 N   0  0  0  0  0  0  0  0  0  0  0  0
   -0.0313    2.8222   -1.8434 C   0  0  0  0  0  0  0  0  0  0  0  0
    0.4238    3.5302   -2.7586 O   0  0  0  0  0  0  0  0  0  0  0  0
   -1.4651    2.7392   -1.5369 C   0  0  0  0  0  0  0  0  0  0  0  0
   -2.1052    2.8885   -0.2677 C   0  0  0  0  0  0  0  0  0  0  0  0
   -3.4305    2.6297   -0.5054 C   0  0  0  0  0  0  0  0  0  0  0  0
   -3.6062    2.3467   -1.8206 O   0  0  0  0  0  0  0  0  0  0  0  0
   -2.3802    2.4403   -2.4798 N   0  0  0  0  0  0  0  0  0  0  0  0
   -4.5746    2.6719    0.3909 C   0  0  0  0  0  0  0  0  0  0  0  0
   -5.3289    1.5170    0.6450 C   0  0  0  0  0  0  0  0  0  0  0  0
   -6.3266    1.4760    1.6573 C   0  0  0  0  0  0  0  0  0  0  0  0
   -6.5032    2.6441    2.4239 C   0  0  0  0  0  0  0  0  0  0  0  0
   -5.7493    3.7847    2.1931 C   0  0  0  0  0  0  0  0  0  0  0  0
   -4.8095    3.8043    1.1810 C   0  0  0  0  0  0  0  0  0  0  0  0
   -4.1314    4.9862    1.0529 O   0  0  0  0  0  0  0  0  0  0  0  0
   -7.3982    2.8015    3.4430 O   0  0  0  0  0  0  0  0  0  0  0  0
   -7.1715    0.2108    1.8802 C   0  0  0  0  0  0  0  0  0  0  0  0
   -6.9870   -0.3288    3.3178 C   0  0  0  0  0  0  0  0  0  0  0  0
   -8.6556    0.5300    1.5854 C   0  0  0  0  0  0  0  0  0  0  0  0
   -6.7768   -0.9461    0.9304 C   0  0  0  0  0  0  0  0  0  0  0  0
   -1.6218    3.1868    1.0659 C   0  0  0  0  0  0  0  0  0  0  0  0
   -1.7221    2.2338    2.0950 C   0  0  0  0  0  0  0  0  0  0  0  0
   -1.0611    2.4395    3.3082 C   0  0  0  0  0  0  0  0  0  0  0  0
   -0.3897    3.6474    3.5482 C   0  0  0  0  0  0  0  0  0  0  0  0
   -0.5477    4.6872    2.6106 C   0  0  0  0  0  0  0  0  0  0  0  0
   -1.0399    4.4173    1.3280 C   0  0  0  0  0  0  0  0  0  0  0  0
    0.6010    3.7708    4.7088 C   0  0  0  0  0  0  0  0  0  0  0  0
    2.0735    3.7463    4.4574 N   0  0  0  0  0  0  0  0  0  0  0  0
    2.5626    4.7714    3.5130 C   0  0  0  0  0  0  0  0  0  0  0  0
    2.3715    4.3692    2.0366 C   0  0  0  0  0  0  0  0  0  0  0  0
    2.9280    3.0866    1.7339 O   0  0  0  0  0  0  0  0  0  0  0  0
    2.3547    2.1076    2.6215 C   0  0  0  0  0  0  0  0  0  0  0  0
    2.6556    2.4431    4.0671 C   0  0  0  0  0  0  0  0  0  0  0  0
    0.7377   -0.6568   -0.9071 H   0  0  0  0  0  0  0  0  0  0  0  0
    0.7022   -0.6936    0.8667 H   0  0  0  0  0  0  0  0  0  0  0  0
    2.1613   -0.1130    0.0275 H   0  0  0  0  0  0  0  0  0  0  0  0
   -0.5942    1.0565    0.0412 H   0  0  0  0  0  0  0  0  0  0  0  0
    0.7480    1.7696    0.8924 H   0  0  0  0  0  0  0  0  0  0  0  0
    1.8218    2.3569   -1.1677 H   0  0  0  0  0  0  0  0  0  0  0  0
   -5.0894    0.6348    0.0533 H   0  0  0  0  0  0  0  0  0  0  0  0
   -5.8951    4.6642    2.8121 H   0  0  0  0  0  0  0  0  0  0  0  0
   -3.4993    4.9191    0.3212 H   0  0  0  0  0  0  0  0  0  0  0  0
   -7.9539    2.0208    3.5428 H   0  0  0  0  0  0  0  0  0  0  0  0
   -7.2686    0.3740    4.1043 H   0  0  0  0  0  0  0  0  0  0  0  0
   -7.5949   -1.2254    3.4805 H   0  0  0  0  0  0  0  0  0  0  0  0
   -5.9382   -0.5890    3.5046 H   0  0  0  0  0  0  0  0  0  0  0  0
   -8.7796    0.8748    0.5515 H   0  0  0  0  0  0  0  0  0  0  0  0
   -9.2855   -0.3535    1.7290 H   0  0  0  0  0  0  0  0  0  0  0  0
   -9.0782    1.3144    2.2172 H   0  0  0  0  0  0  0  0  0  0  0  0
   -6.8956   -0.6576   -0.1211 H   0  0  0  0  0  0  0  0  0  0  0  0
   -5.7347   -1.2509    1.0863 H   0  0  0  0  0  0  0  0  0  0  0  0
   -7.4016   -1.8302    1.0945 H   0  0  0  0  0  0  0  0  0  0  0  0
   -2.2071    1.2752    1.9150 H   0  0  0  0  0  0  0  0  0  0  0  0
   -0.9853    1.6103    4.0088 H   0  0  0  0  0  0  0  0  0  0  0  0
   -0.0422    5.6403    2.7585 H   0  0  0  0  0  0  0  0  0  0  0  0
   -0.8798    5.1376    0.5260 H   0  0  0  0  0  0  0  0  0  0  0  0
    0.3649    4.7063    5.2288 H   0  0  0  0  0  0  0  0  0  0  0  0
    0.3805    2.9794    5.4370 H   0  0  0  0  0  0  0  0  0  0  0  0
    3.6414    4.9029    3.6784 H   0  0  0  0  0  0  0  0  0  0  0  0
    2.1101    5.7415    3.7489 H   0  0  0  0  0  0  0  0  0  0  0  0
    1.3480    4.2321    1.7773 H   0  0  0  0  0  0  0  0  0  0  0  0
    2.6884    5.1562    1.3460 H   0  0  0  0  0  0  0  0  0  0  0  0
    2.6955    1.1173    2.3149 H   0  0  0  0  0  0  0  0  0  0  0  0
    1.2756    2.0794    2.5510 H   0  0  0  0  0  0  0  0  0  0  0  0
    3.7489    2.4938    4.1499 H   0  0  0  0  0  0  0  0  0  0  0  0
    2.3146    1.6419    4.7284 H   0  0  0  0  0  0  0  0  0  0  0  0
  1  2  1  0  0  0  0
  1 36  1  0  0  0  0
  1 37  1  0  0  0  0
  1 38  1  0  0  0  0
  2  3  1  0  0  0  0
  2 39  1  0  0  0  0
  2 40  1  0  0  0  0
  3  4  1  0  0  0  0
  3 41  1  0  0  0  0
  4  5  2  0  0  0  0
  4  6  1  0  0  0  0
  6  7  1  0  0  0  0
  6 10  2  0  0  0  0
  7  8  2  0  0  0  0
  7 23  1  0  0  0  0
  8  9  1  0  0  0  0
  8 11  1  0  0  0  0
  9 10  1  0  0  0  0
 11 12  2  0  0  0  0
 11 16  1  0  0  0  0
 12 13  1  0  0  0  0
 12 42  1  0  0  0  0
 13 14  2  0  0  0  0
 13 19  1  0  0  0  0
 14 15  1  0  0  0  0
 14 18  1  0  0  0  0
 15 16  2  0  0  0  0
 15 43  1  0  0  0  0
 16 17  1  0  0  0  0
 17 44  1  0  0  0  0
 18 45  1  0  0  0  0
 19 20  1  0  0  0  0
 19 21  1  0  0  0  0
 19 22  1  0  0  0  0
 20 46  1  0  0  0  0
 20 47  1  0  0  0  0
 20 48  1  0  0  0  0
 21 49  1  0  0  0  0
 21 50  1  0  0  0  0
 21 51  1  0  0  0  0
 22 52  1  0  0  0  0
 22 53  1  0  0  0  0
 22 54  1  0  0  0  0
 23 24  2  0  0  0  0
 23 28  1  0  0  0  0
 24 25  1  0  0  0  0
 24 55  1  0  0  0  0
 25 26  2  0  0  0  0
 25 56  1  0  0  0  0
 26 27  1  0  0  0  0
 26 29  1  0  0  0  0
 27 28  2  0  0  0  0
 27 57  1  0  0  0  0
 28 58  1  0  0  0  0
 29 30  1  0  0  0  0
 29 59  1  0  0  0  0
 29 60  1  0  0  0  0
 30 31  1  0  0  0  0
 30 35  1  0  0  0  0
 31 32  1  0  0  0  0
 31 61  1  0  0  0  0
 31 62  1  0  0  0  0
 32 33  1  0  0  0  0
 32 63  1  0  0  0  0
 32 64  1  0  0  0  0
 33 34  1  0  0  0  0
 34 35  1  0  0  0  0
 34 65  1  0  0  0  0
 34 66  1  0  0  0  0
 35 67  1  0  0  0  0
 35 68  1  0  0  0  0
M  END
>  <DRUGBANK_ID>
DB11881

>  <COMMON_NAME>
AUY922

>  <CAS_NUMBER>
747412-64-2

>  <UNII>
G1G66XE93W

$$$$
