
 OpenBabel10282417203D

 29 29  0  0  0  0  0  0  0  0999 V2000
    1.3850   -0.1889   -0.0143 C   0  0  0  0  0  0  0  0  0  0  0  0
    2.8895   -0.3896    0.1525 C   0  0  3  0  0  0  0  0  0  0  0  0
    3.6510    0.1012   -1.1001 C   0  0  0  0  0  0  0  0  0  0  0  0
    4.6145    1.0858   -0.9393 N   0  0  0  0  0  0  0  0  0  0  0  0
    5.3076    1.6196   -1.9909 C   0  0  0  0  0  0  0  0  0  0  0  0
    6.2192    2.5721   -1.6635 N   0  0  0  0  0  0  0  0  0  0  0  0
   -0.5276    1.3046    0.0067 C   0  0  0  0  0  0  0  0  0  0  0  0
   -1.3900    0.2117   -0.0124 C   0  0  0  0  0  0  0  0  0  0  0  0
   -0.8745   -1.0830   -0.0302 C   0  0  0  0  0  0  0  0  0  0  0  0
    0.5074   -1.2859   -0.0204 C   0  0  0  0  0  0  0  0  0  0  0  0
    0.8499    1.1071   -0.0462 C   0  0  0  0  0  0  0  0  0  0  0  0
    3.3497    0.2005    1.4992 C   0  0  0  0  0  0  0  0  0  0  0  0
    2.6034   -0.3786    2.6999 C   0  0  0  0  0  0  0  0  0  0  0  0
    3.3732   -0.4060   -2.1890 O   0  0  0  0  0  0  0  0  0  0  0  0
    5.1920    1.3342   -3.1783 O   0  0  0  0  0  0  0  0  0  0  0  0
    3.0938   -1.4708    0.1942 H   0  0  0  0  0  0  0  0  0  0  0  0
    4.8262    1.4505   -0.0273 H   0  0  0  0  0  0  0  0  0  0  0  0
    6.7243    2.9521   -2.4575 H   0  0  0  0  0  0  0  0  0  0  0  0
    6.4466    2.9237   -0.7488 H   0  0  0  0  0  0  0  0  0  0  0  0
   -0.9254    2.3129    0.0744 H   0  0  0  0  0  0  0  0  0  0  0  0
   -2.4645    0.3718   -0.0200 H   0  0  0  0  0  0  0  0  0  0  0  0
   -1.5507   -1.9344   -0.0316 H   0  0  0  0  0  0  0  0  0  0  0  0
    0.8889   -2.3049   -0.0009 H   0  0  0  0  0  0  0  0  0  0  0  0
    1.5049    1.9732   -0.0817 H   0  0  0  0  0  0  0  0  0  0  0  0
    4.4206    0.0115    1.6351 H   0  0  0  0  0  0  0  0  0  0  0  0
    3.2169    1.2890    1.5028 H   0  0  0  0  0  0  0  0  0  0  0  0
    2.7560   -1.4596    2.7725 H   0  0  0  0  0  0  0  0  0  0  0  0
    2.9622    0.0861    3.6226 H   0  0  0  0  0  0  0  0  0  0  0  0
    1.5263   -0.1892    2.6447 H   0  0  0  0  0  0  0  0  0  0  0  0
  1 11  2  0  0  0  0
  1  2  1  0  0  0  0
  2  3  1  0  0  0  0
  2 12  1  0  0  0  0
  2 16  1  0  0  0  0
  3  4  1  0  0  0  0
  3 14  2  0  0  0  0
  4  5  1  0  0  0  0
  4 17  1  0  0  0  0
  5  6  1  0  0  0  0
  5 15  2  0  0  0  0
  6 18  1  0  0  0  0
  6 19  1  0  0  0  0
  7  8  2  0  0  0  0
  7 20  1  0  0  0  0
  8  9  1  0  0  0  0
  8 21  1  0  0  0  0
  9 10  2  0  0  0  0
  9 22  1  0  0  0  0
 10  1  1  0  0  0  0
 10 23  1  0  0  0  0
 11  7  1  0  0  0  0
 11 24  1  0  0  0  0
 12 13  1  0  0  0  0
 12 25  1  0  0  0  0
 12 26  1  0  0  0  0
 13 27  1  0  0  0  0
 13 28  1  0  0  0  0
 13 29  1  0  0  0  0
M  END
>  <DRUGBANK_ID>
DB13362

>  <COMMON_NAME>
Pheneturide

>  <CAS_NUMBER>
90-49-3

>  <UNII>
878CEJ4HGX

>  <SYNONYMS>
Ethylphenacemide; Feneturida; Pheneturide; Pheneturidum; Phenylethylacetyluree

$$$$
