
 OpenBabel10282417193D

 63 65  0  0  1  0  0  0  0  0999 V2000
    1.0066    0.1884   -0.1705 C   0  0  0  0  0  0  0  0  0  0  0  0
    0.4713   -0.5411    1.0330 C   0  0  0  0  0  0  0  0  0  0  0  0
    1.0085   -0.0912    2.2739 O   0  0  0  0  0  0  0  0  0  0  0  0
    2.4247   -0.1671    2.3943 C   0  0  0  0  0  0  0  0  0  0  0  0
    2.9680   -1.5717    2.4217 C   0  0  0  0  0  0  0  0  0  0  0  0
    4.3370   -1.7336    2.6042 C   0  0  0  0  0  0  0  0  0  0  0  0
    4.8868   -3.0094    2.6709 C   0  0  0  0  0  0  0  0  0  0  0  0
    4.0753   -4.1521    2.4771 C   0  0  0  0  0  0  0  0  0  0  0  0
    2.6875   -4.0033    2.3636 C   0  0  0  0  0  0  0  0  0  0  0  0
    2.1685   -2.7190    2.3387 C   0  0  0  0  0  0  0  0  0  0  0  0
    1.6936   -4.9484    2.2885 O   0  0  0  0  0  0  0  0  0  0  0  0
    1.9688   -6.2742    2.7095 C   0  0  0  0  0  0  0  0  0  0  0  0
    4.7053   -5.4575    2.4069 C   0  0  0  0  0  0  0  0  0  0  0  0
    5.2305   -6.0366    3.5694 C   0  0  0  0  0  0  0  0  0  0  0  0
    5.6028   -7.3719    3.5748 C   0  0  0  0  0  0  0  0  0  0  0  0
    5.4964   -8.1198    2.3975 C   0  0  0  0  0  0  0  0  0  0  0  0
    5.0397   -7.5088    1.2231 C   0  0  0  0  0  0  0  0  0  0  0  0
    4.6505   -6.1855    1.2174 C   0  0  0  0  0  0  0  0  0  0  0  0
    5.8885   -9.5688    2.3520 C   0  0  0  0  0  0  0  0  0  0  0  0
    4.7131  -10.5320    2.2055 C   0  0  1  0  0  0  0  0  0  0  0  0
    3.9141  -10.4322    0.8855 C   0  0  0  0  0  0  0  0  0  0  0  0
    4.0683  -11.1031   -0.1136 O   0  0  0  0  0  0  0  0  0  0  0  0
    3.0057   -9.4248    0.8950 O   0  0  0  0  0  0  0  0  0  0  0  0
    5.1958  -11.9131    2.3418 N   0  0  0  0  0  0  0  0  0  0  0  0
    4.8104  -12.8781    3.2397 C   0  0  0  0  0  0  0  0  0  0  0  0
    5.3134  -13.9908    3.1888 O   0  0  0  0  0  0  0  0  0  0  0  0
    3.7929  -12.5775    4.2636 C   0  0  0  0  0  0  0  0  0  0  0  0
    2.5890  -11.9544    3.9360 C   0  0  0  0  0  0  0  0  0  0  0  0
    1.6388  -11.6481    4.9005 C   0  0  0  0  0  0  0  0  0  0  0  0
    1.8214  -12.0952    6.2016 C   0  0  0  0  0  0  0  0  0  0  0  0
    2.9762  -12.8071    6.5293 C   0  0  0  0  0  0  0  0  0  0  0  0
    3.9816  -12.9937    5.5774 C   0  0  0  0  0  0  0  0  0  0  0  0
    5.1350  -13.5497    5.9752 F   0  0  0  0  0  0  0  0  0  0  0  0
    2.3023  -11.6090    2.6746 F   0  0  0  0  0  0  0  0  0  0  0  0
    6.2089   -3.2531    2.9488 O   0  0  0  0  0  0  0  0  0  0  0  0
    7.0138   -2.1331    3.2706 C   0  0  0  0  0  0  0  0  0  0  0  0
    0.7346    1.2426   -0.1334 H   0  0  0  0  0  0  0  0  0  0  0  0
    0.6144   -0.2844   -1.0731 H   0  0  0  0  0  0  0  0  0  0  0  0
    2.0967    0.1156   -0.2273 H   0  0  0  0  0  0  0  0  0  0  0  0
   -0.6171   -0.4801    1.1174 H   0  0  0  0  0  0  0  0  0  0  0  0
    0.6761   -1.5893    0.8348 H   0  0  0  0  0  0  0  0  0  0  0  0
    2.9117    0.4302    1.6146 H   0  0  0  0  0  0  0  0  0  0  0  0
    2.7006    0.3163    3.3403 H   0  0  0  0  0  0  0  0  0  0  0  0
    4.9482   -0.8448    2.7192 H   0  0  0  0  0  0  0  0  0  0  0  0
    1.0878   -2.6664    2.2758 H   0  0  0  0  0  0  0  0  0  0  0  0
    2.4674   -6.8070    1.9057 H   0  0  0  0  0  0  0  0  0  0  0  0
    2.5133   -6.3036    3.6574 H   0  0  0  0  0  0  0  0  0  0  0  0
    1.0344   -6.8204    2.8522 H   0  0  0  0  0  0  0  0  0  0  0  0
    5.2893   -5.4433    4.4798 H   0  0  0  0  0  0  0  0  0  0  0  0
    5.9581   -7.8079    4.5046 H   0  0  0  0  0  0  0  0  0  0  0  0
    4.9020   -8.0771    0.3101 H   0  0  0  0  0  0  0  0  0  0  0  0
    4.1761   -5.7720    0.3285 H   0  0  0  0  0  0  0  0  0  0  0  0
    6.6173   -9.6997    1.5472 H   0  0  0  0  0  0  0  0  0  0  0  0
    6.4125   -9.8122    3.2871 H   0  0  0  0  0  0  0  0  0  0  0  0
    4.0382  -10.2973    3.0254 H   0  0  0  0  0  0  0  0  0  0  0  0
    2.7604   -9.2813   -0.0435 H   0  0  0  0  0  0  0  0  0  0  0  0
    5.7973  -12.2700    1.6033 H   0  0  0  0  0  0  0  0  0  0  0  0
    0.7535  -11.0918    4.6082 H   0  0  0  0  0  0  0  0  0  0  0  0
    1.0590  -11.9016    6.9508 H   0  0  0  0  0  0  0  0  0  0  0  0
    3.1000  -13.2219    7.5251 H   0  0  0  0  0  0  0  0  0  0  0  0
    7.1235   -1.4940    2.3905 H   0  0  0  0  0  0  0  0  0  0  0  0
    6.6099   -1.5758    4.1239 H   0  0  0  0  0  0  0  0  0  0  0  0
    8.0015   -2.5045    3.5516 H   0  0  0  0  0  0  0  0  0  0  0  0
  1  2  1  0  0  0  0
  1 37  1  0  0  0  0
  1 38  1  0  0  0  0
  1 39  1  0  0  0  0
  2  3  1  0  0  0  0
  2 40  1  0  0  0  0
  2 41  1  0  0  0  0
  3  4  1  0  0  0  0
  4  5  1  0  0  0  0
  4 42  1  0  0  0  0
  4 43  1  0  0  0  0
  5  6  2  0  0  0  0
  5 10  1  0  0  0  0
  6  7  1  0  0  0  0
  6 44  1  0  0  0  0
  7  8  2  0  0  0  0
  7 35  1  0  0  0  0
  8  9  1  0  0  0  0
  8 13  1  0  0  0  0
  9 10  2  0  0  0  0
  9 11  1  0  0  0  0
 10 45  1  0  0  0  0
 11 12  1  0  0  0  0
 12 46  1  0  0  0  0
 12 47  1  0  0  0  0
 12 48  1  0  0  0  0
 13 14  2  0  0  0  0
 13 18  1  0  0  0  0
 14 15  1  0  0  0  0
 14 49  1  0  0  0  0
 15 16  2  0  0  0  0
 15 50  1  0  0  0  0
 16 17  1  0  0  0  0
 16 19  1  0  0  0  0
 17 18  2  0  0  0  0
 17 51  1  0  0  0  0
 18 52  1  0  0  0  0
 19 20  1  0  0  0  0
 19 53  1  0  0  0  0
 19 54  1  0  0  0  0
 20 21  1  0  0  0  0
 20 24  1  0  0  0  0
 20 55  1  1  0  0  0
 21 22  2  0  0  0  0
 21 23  1  0  0  0  0
 23 56  1  0  0  0  0
 24 25  1  0  0  0  0
 24 57  1  0  0  0  0
 25 26  2  0  0  0  0
 25 27  1  0  0  0  0
 27 28  2  0  0  0  0
 27 32  1  0  0  0  0
 28 29  1  0  0  0  0
 28 34  1  0  0  0  0
 29 30  2  0  0  0  0
 29 58  1  0  0  0  0
 30 31  1  0  0  0  0
 30 59  1  0  0  0  0
 31 32  2  0  0  0  0
 31 60  1  0  0  0  0
 32 33  1  0  0  0  0
 35 36  1  0  0  0  0
 36 61  1  0  0  0  0
 36 62  1  0  0  0  0
 36 63  1  0  0  0  0
M  END
>  <DRUGBANK_ID>
DB12732

>  <COMMON_NAME>
Firategrast

>  <CAS_NUMBER>
402567-16-2

>  <UNII>
OJY3SK9H5F

>  <SYNONYMS>
Firategrast

$$$$
