
 OpenBabel10282417143D

 36 37  0  0  0  0  0  0  0  0999 V2000
    1.5053   -0.4634    0.0309 C   0  0  0  0  0  0  0  0  0  0  0  0
    1.0956    0.8249    0.3247 C   0  0  0  0  0  0  0  0  0  0  0  0
   -0.1789    1.0070    0.8236 C   0  0  0  0  0  0  0  0  0  0  0  0
   -1.0955   -0.0339    0.8108 C   0  0  0  0  0  0  0  0  0  0  0  0
   -0.7877   -1.2569    0.2614 C   0  0  0  0  0  0  0  0  0  0  0  0
    0.5656   -1.5100   -0.0049 C   0  0  0  0  0  0  0  0  0  0  0  0
   -1.8066   -2.1720   -0.1579 N   0  0  0  0  0  0  0  0  0  0  0  0
   -3.4994   -1.9394   -0.1079 S   0  0  0  0  0  0  0  0  0  0  0  0
   -4.0188   -0.2109   -0.3258 C   0  0  0  0  0  0  0  0  0  0  0  0
   -3.1938    0.7553   -0.9292 C   0  0  0  0  0  0  0  0  0  0  0  0
   -3.3724    2.1127   -0.6020 C   0  0  0  0  0  0  0  0  0  0  0  0
   -4.5634    2.5006    0.0408 C   0  0  0  0  0  0  0  0  0  0  0  0
   -5.4940    1.5537    0.4602 C   0  0  0  0  0  0  0  0  0  0  0  0
   -5.1933    0.1966    0.3361 C   0  0  0  0  0  0  0  0  0  0  0  0
   -4.0292   -2.6558   -1.2330 O   0  0  0  0  0  0  0  0  0  0  0  0
   -3.9094   -2.3104    1.2475 O   0  0  0  0  0  0  0  0  0  0  0  0
   -2.2879    3.1361   -0.5926 C   0  0  0  0  0  0  0  0  0  0  0  0
   -1.0383    3.1021   -1.0933 C   0  0  0  0  0  0  0  0  0  0  0  0
    0.1535    3.9993   -0.8431 C   0  0  0  0  0  0  0  0  0  0  0  0
    1.2758    3.5677   -1.1273 O   0  0  0  0  0  0  0  0  0  0  0  0
    0.0860    5.2386   -0.3179 N   0  0  0  0  0  0  0  0  0  0  0  0
   -1.0285    6.0130   -0.0194 O   0  0  0  0  0  0  0  0  0  0  0  0
    2.5633   -0.6294   -0.1525 H   0  0  0  0  0  0  0  0  0  0  0  0
    1.7737    1.6665    0.2097 H   0  0  0  0  0  0  0  0  0  0  0  0
   -0.5172    1.9769    1.1693 H   0  0  0  0  0  0  0  0  0  0  0  0
   -2.0869    0.1781    1.1753 H   0  0  0  0  0  0  0  0  0  0  0  0
    0.9259   -2.5083   -0.2343 H   0  0  0  0  0  0  0  0  0  0  0  0
   -1.5805   -3.1546    0.0270 H   0  0  0  0  0  0  0  0  0  0  0  0
   -2.3168    0.4366   -1.4817 H   0  0  0  0  0  0  0  0  0  0  0  0
   -4.7571    3.5507    0.2640 H   0  0  0  0  0  0  0  0  0  0  0  0
   -6.4121    1.8826    0.9438 H   0  0  0  0  0  0  0  0  0  0  0  0
   -5.8742   -0.5349    0.7707 H   0  0  0  0  0  0  0  0  0  0  0  0
   -2.5736    3.9204    0.0890 H   0  0  0  0  0  0  0  0  0  0  0  0
   -0.7154    2.2089   -1.6284 H   0  0  0  0  0  0  0  0  0  0  0  0
    0.9680    5.7443   -0.2776 H   0  0  0  0  0  0  0  0  0  0  0  0
   -1.7522    5.3876    0.0534 H   0  0  0  0  0  0  0  0  0  0  0  0
  1  2  2  0  0  0  0
  1 23  1  0  0  0  0
  2  3  1  0  0  0  0
  2 24  1  0  0  0  0
  3  4  2  0  0  0  0
  3 25  1  0  0  0  0
  4  5  1  0  0  0  0
  4 26  1  0  0  0  0
  5  6  2  0  0  0  0
  5  7  1  0  0  0  0
  6  1  1  0  0  0  0
  6 27  1  0  0  0  0
  7  8  1  0  0  0  0
  7 28  1  0  0  0  0
  8 15  2  0  0  0  0
  8 16  2  0  0  0  0
  8  9  1  0  0  0  0
  9 10  2  0  0  0  0
 10 11  1  0  0  0  0
 10 29  1  0  0  0  0
 11 12  2  0  0  0  0
 11 17  1  0  0  0  0
 12 13  1  0  0  0  0
 12 30  1  0  0  0  0
 13 14  2  0  0  0  0
 13 31  1  0  0  0  0
 14  9  1  0  0  0  0
 14 32  1  0  0  0  0
 17 18  2  0  0  0  0
 17 33  1  0  0  0  0
 18 19  1  0  0  0  0
 18 34  1  0  0  0  0
 19 20  2  0  0  0  0
 19 21  1  0  0  0  0
 21 22  1  0  0  0  0
 21 35  1  0  0  0  0
 22 36  1  0  0  0  0
M  END
>  <DRUGBANK_ID>
DB05015

>  <COMMON_NAME>
Belinostat

>  <CAS_NUMBER>
866323-14-0

>  <UNII>
F4H96P17NZ

>  <SYNONYMS>
Belinostat

$$$$
