
 OpenBabel10282417133D

 19 18  0  0  0  0  0  0  0  0999 V2000
    0.9975    0.0423    0.0906 Be  0  6  0  0  0  0  0  0  0  0  0  0
   -0.3112    0.3085   -0.8264 O   0  0  0  0  0  0  0  0  0  0  0  0
   -0.5218   -0.4583   -2.0028 C   0  0  0  0  0  0  0  0  0  0  0  0
    0.3165   -1.3534   -2.3364 O   0  0  0  0  0  0  0  0  0  0  0  0
   -1.7497   -0.2085   -2.8632 C   0  0  0  0  0  0  0  0  0  0  0  0
   -3.0037   -0.4494   -2.0386 C   0  0  1  0  0  0  0  0  0  0  0  0
   -3.0174    0.4969   -0.8491 C   0  0  0  0  0  0  0  0  0  0  0  0
   -3.9697    1.3266   -0.7082 O   0  0  0  0  0  0  0  0  0  0  0  0
   -1.9661    0.4539    0.1045 O   0  0  0  0  0  0  0  0  0  0  0  0
   -4.1912   -0.2078   -2.8706 N   0  0  0  0  0  0  0  0  0  0  0  0
      -nan      -nan      -nan F   0  0  0  0  0  0  0  0  0  0  0  0
   -0.5325    0.0423    0.0906 F   0  0  0  0  0  0  0  0  0  0  0  0
    2.5275    0.0423    0.0906 F   0  0  0  0  0  0  0  0  0  0  0  0
   -1.7410    0.8030   -3.2120 H   0  0  0  0  0  0  0  0  0  0  0  0
   -1.7400   -0.8747   -3.7005 H   0  0  0  0  0  0  0  0  0  0  0  0
   -3.0123   -1.4609   -1.6897 H   0  0  0  0  0  0  0  0  0  0  0  0
   -1.9752    1.0765    0.8870 H   0  0  0  0  0  0  0  0  0  0  0  0
   -5.0327   -0.3694   -2.3173 H   0  0  0  0  0  0  0  0  0  0  0  0
   -4.1829    0.7564   -3.2032 H   0  0  0  0  0  0  0  0  0  0  0  0
  1  2  1  0  0  0  0
  1 11  1  0  0  0  0
  1 12  1  0  0  0  0
  1 13  1  0  0  0  0
  2  3  1  0  0  0  0
  3  4  2  0  0  0  0
  3  5  1  0  0  0  0
  5 14  1  0  0  0  0
  5 15  1  0  0  0  0
  6  5  1  0  0  0  0
  6  7  1  0  0  0  0
  6 10  1  0  0  0  0
  6 16  1  1  0  0  0
  7  8  2  0  0  0  0
  7  9  1  0  0  0  0
  9 17  1  0  0  0  0
 10 18  1  0  0  0  0
 10 19  1  0  0  0  0
M  CHG  1   1  -2
M  END
>  <DRUGBANK_ID>
DB04156

>  <SECONDARY_ACCESSION_NUMBERS>
EXPT00678

>  <COMMON_NAME>
Aspartate beryllium trifluoride

$$$$
