
 OpenBabel10282417123D

 45 44  0  0  0  0  0  0  0  0999 V2000
    1.0358    0.3653   -0.0480 O   0  0  0  0  0  0  0  0  0  0  0  0
    0.4878    0.4162    1.2735 C   0  0  0  0  0  0  0  0  0  0  0  0
    1.0295   -0.6480    2.2729 C   0  0  0  0  0  0  0  0  0  0  0  0
    2.5640   -0.4849    2.5004 C   0  0  0  0  0  0  0  0  0  0  0  0
    2.9083    0.8173    2.9619 O   0  0  0  0  0  0  0  0  0  0  0  0
    0.4083   -0.3710    3.6929 C   0  0  0  0  0  0  0  0  0  0  0  0
   -1.0118   -0.4467    3.7402 O   0  0  0  0  0  0  0  0  0  0  0  0
    0.5938   -2.0058    1.8521 N   0  0  0  0  0  0  0  0  0  0  0  0
    0.9613   -2.5098    0.5298 C   0  0  0  0  0  0  0  0  0  0  0  0
    2.4560   -2.7341    0.2916 C   0  0  0  0  0  0  0  0  0  0  0  0
    3.0811   -3.5822    1.3871 C   0  0  0  0  0  0  0  0  0  0  0  0
    2.6007   -4.9474    1.2243 N   0  0  0  0  0  0  0  0  0  0  0  0
    3.0842   -5.8803    2.2734 C   0  0  0  0  0  0  0  0  0  0  0  0
    2.5363   -5.5139    3.6783 C   0  0  0  0  0  0  0  0  0  0  0  0
    1.1090   -5.4728    3.7003 O   0  0  0  0  0  0  0  0  0  0  0  0
    2.5200   -7.2644    1.8565 C   0  0  0  0  0  0  0  0  0  0  0  0
    2.9492   -7.6009    0.5310 O   0  0  0  0  0  0  0  0  0  0  0  0
    4.6403   -5.9205    2.2999 C   0  0  0  0  0  0  0  0  0  0  0  0
    5.2136   -6.2070    1.0231 O   0  0  0  0  0  0  0  0  0  0  0  0
    1.9415    0.0552   -0.0238 H   0  0  0  0  0  0  0  0  0  0  0  0
    0.6876    1.4216    1.6488 H   0  0  0  0  0  0  0  0  0  0  0  0
   -0.5963    0.3183    1.1648 H   0  0  0  0  0  0  0  0  0  0  0  0
    2.9250   -1.2027    3.2461 H   0  0  0  0  0  0  0  0  0  0  0  0
    3.1608   -0.6239    1.6077 H   0  0  0  0  0  0  0  0  0  0  0  0
    2.8845    1.4138    2.1925 H   0  0  0  0  0  0  0  0  0  0  0  0
    0.7880   -1.1019    4.4197 H   0  0  0  0  0  0  0  0  0  0  0  0
    0.7000    0.6191    4.0605 H   0  0  0  0  0  0  0  0  0  0  0  0
   -1.3713    0.2141    3.1273 H   0  0  0  0  0  0  0  0  0  0  0  0
    0.7490   -2.6815    2.5954 H   0  0  0  0  0  0  0  0  0  0  0  0
    0.4439   -3.4675    0.3929 H   0  0  0  0  0  0  0  0  0  0  0  0
    0.5432   -1.8919   -0.2668 H   0  0  0  0  0  0  0  0  0  0  0  0
    2.6180   -3.2109   -0.6816 H   0  0  0  0  0  0  0  0  0  0  0  0
    2.9920   -1.7918    0.1925 H   0  0  0  0  0  0  0  0  0  0  0  0
    4.1692   -3.5028    1.3149 H   0  0  0  0  0  0  0  0  0  0  0  0
    2.8111   -3.2017    2.3748 H   0  0  0  0  0  0  0  0  0  0  0  0
    1.5836   -4.9767    1.1874 H   0  0  0  0  0  0  0  0  0  0  0  0
    2.8499   -6.2592    4.4147 H   0  0  0  0  0  0  0  0  0  0  0  0
    2.9062   -4.5448    4.0304 H   0  0  0  0  0  0  0  0  0  0  0  0
    0.8070   -4.8082    3.0612 H   0  0  0  0  0  0  0  0  0  0  0  0
    2.8642   -8.0470    2.5375 H   0  0  0  0  0  0  0  0  0  0  0  0
    1.4234   -7.2716    1.8529 H   0  0  0  0  0  0  0  0  0  0  0  0
    2.7121   -6.8192   -0.0123 H   0  0  0  0  0  0  0  0  0  0  0  0
    5.0567   -4.9620    2.6288 H   0  0  0  0  0  0  0  0  0  0  0  0
    4.9959   -6.6785    3.0017 H   0  0  0  0  0  0  0  0  0  0  0  0
    4.7013   -6.9539    0.6479 H   0  0  0  0  0  0  0  0  0  0  0  0
  1  2  1  0  0  0  0
  1 20  1  0  0  0  0
  2  3  1  0  0  0  0
  2 21  1  0  0  0  0
  2 22  1  0  0  0  0
  3  4  1  0  0  0  0
  3  6  1  0  0  0  0
  3  8  1  0  0  0  0
  4  5  1  0  0  0  0
  4 23  1  0  0  0  0
  4 24  1  0  0  0  0
  5 25  1  0  0  0  0
  6  7  1  0  0  0  0
  6 26  1  0  0  0  0
  6 27  1  0  0  0  0
  7 28  1  0  0  0  0
  8  9  1  0  0  0  0
  8 29  1  0  0  0  0
  9 10  1  0  0  0  0
  9 30  1  0  0  0  0
  9 31  1  0  0  0  0
 10 11  1  0  0  0  0
 10 32  1  0  0  0  0
 10 33  1  0  0  0  0
 11 12  1  0  0  0  0
 11 34  1  0  0  0  0
 11 35  1  0  0  0  0
 12 13  1  0  0  0  0
 12 36  1  0  0  0  0
 13 14  1  0  0  0  0
 13 16  1  0  0  0  0
 13 18  1  0  0  0  0
 14 15  1  0  0  0  0
 14 37  1  0  0  0  0
 14 38  1  0  0  0  0
 15 39  1  0  0  0  0
 16 17  1  0  0  0  0
 16 40  1  0  0  0  0
 16 41  1  0  0  0  0
 17 42  1  0  0  0  0
 18 19  1  0  0  0  0
 18 43  1  0  0  0  0
 18 44  1  0  0  0  0
 19 45  1  0  0  0  0
M  END
>  <DRUGBANK_ID>
DB02676

>  <SECONDARY_ACCESSION_NUMBERS>
EXPT00612

>  <COMMON_NAME>
2-[3-(2-Hydroxy-1,1-Dihydroxymethyl-Ethylamino)-Propylamino]-2-Hydroxymethyl-Propane-1,3-Diol

>  <UNII>
N5YD0CS4DO

$$$$
