
 OpenBabel10282417243D

 67 72  0  0  0  0  0  0  0  0999 V2000
    1.4526   -0.7357    0.0754 C   0  0  0  0  0  0  0  0  0  0  0  0
    0.6555   -1.3409   -1.0028 N   0  0  0  0  0  0  0  0  0  0  0  0
   -0.8133   -1.3129   -0.8911 C   0  0  0  0  0  0  0  0  0  0  0  0
    1.0556   -0.7550   -2.2968 C   0  0  0  0  0  0  0  0  0  0  0  0
    0.4938    0.6660   -2.6608 C   0  0  0  0  0  0  0  0  0  0  0  0
    0.7354    1.7408   -1.6787 N   0  0  0  0  0  0  0  0  0  0  0  0
   -0.0665    1.6995   -0.4342 C   0  0  0  0  0  0  0  0  0  0  0  0
    0.7210    2.4580    0.6364 C   0  0  0  0  0  0  0  0  0  0  0  0
    0.7509    3.8802    0.1949 C   0  0  0  0  0  0  0  0  0  0  0  0
    0.6241    4.1462   -1.1809 C   0  0  0  0  0  0  0  0  0  0  0  0
    0.4675    3.0665   -2.2342 C   0  0  0  0  0  0  0  0  0  0  0  0
    0.5063    5.4613   -1.5510 C   0  0  0  0  0  0  0  0  0  0  0  0
    0.5669    6.4327   -0.5679 C   0  0  0  0  0  0  0  0  0  0  0  0
    0.7479    6.1066    0.7803 C   0  0  0  0  0  0  0  0  0  0  0  0
    0.8554    7.1112    1.7430 N   0  0  0  0  0  0  0  0  0  0  0  0
    0.7359    8.4727    1.5211 C   0  0  0  0  0  0  0  0  0  0  0  0
   -0.3892    8.8943    0.9001 N   0  0  0  0  0  0  0  0  0  0  0  0
   -0.4899   10.1931    0.5890 C   0  0  0  0  0  0  0  0  0  0  0  0
    0.5062   11.0882    0.8415 C   0  0  0  0  0  0  0  0  0  0  0  0
    0.3411   12.3861    0.5587 F   0  0  0  0  0  0  0  0  0  0  0  0
    1.6493   10.5962    1.4565 C   0  0  0  0  0  0  0  0  0  0  0  0
    1.7585    9.2953    1.8392 N   0  0  0  0  0  0  0  0  0  0  0  0
    2.6785   11.5443    1.9240 C   0  0  0  0  0  0  0  0  0  0  0  0
    2.1861   12.5703    2.7607 C   0  0  0  0  0  0  0  0  0  0  0  0
    2.9970   13.4364    3.3982 C   0  0  0  0  0  0  0  0  0  0  0  0
    2.6038   14.5122    4.0676 F   0  0  0  0  0  0  0  0  0  0  0  0
    4.3488   13.1455    3.3577 C   0  0  0  0  0  0  0  0  0  0  0  0
    5.2211   13.6866    4.1885 N   0  0  0  0  0  0  0  0  0  0  0  0
    5.9813   14.2503    3.2879 C   0  0  0  0  0  0  0  0  0  0  0  0
    6.7112   15.5407    3.6792 C   0  0  0  0  0  0  0  0  0  0  0  0
    6.0598   13.2262    2.2497 N   0  0  0  0  0  0  0  0  0  0  0  0
    7.2779   13.1003    1.4942 C   0  0  0  0  0  0  0  0  0  0  0  0
    8.4308   13.5250    2.3126 C   0  0  0  0  0  0  0  0  0  0  0  0
    7.8618   14.4249    1.1369 C   0  0  0  0  0  0  0  0  0  0  0  0
    4.8684   12.5078    2.2416 C   0  0  0  0  0  0  0  0  0  0  0  0
    4.0718   11.5527    1.5336 C   0  0  0  0  0  0  0  0  0  0  0  0
    0.8448    4.8247    1.1695 N   0  0  0  0  0  0  0  0  0  0  0  0
    0.9728   -0.7762    1.0606 H   0  0  0  0  0  0  0  0  0  0  0  0
    1.7003    0.2984   -0.1220 H   0  0  0  0  0  0  0  0  0  0  0  0
    2.4701   -1.1279    0.1436 H   0  0  0  0  0  0  0  0  0  0  0  0
   -1.3025   -0.3757   -1.1872 H   0  0  0  0  0  0  0  0  0  0  0  0
   -1.2434   -2.0469   -1.5804 H   0  0  0  0  0  0  0  0  0  0  0  0
   -1.1731   -1.5368    0.1165 H   0  0  0  0  0  0  0  0  0  0  0  0
    2.1527   -0.7459   -2.3596 H   0  0  0  0  0  0  0  0  0  0  0  0
    0.7335   -1.4559   -3.0782 H   0  0  0  0  0  0  0  0  0  0  0  0
    0.9740    0.9239   -3.6175 H   0  0  0  0  0  0  0  0  0  0  0  0
   -0.5754    0.6014   -2.8896 H   0  0  0  0  0  0  0  0  0  0  0  0
   -1.0817    2.0833   -0.5955 H   0  0  0  0  0  0  0  0  0  0  0  0
   -0.2536    0.7380    0.0022 H   0  0  0  0  0  0  0  0  0  0  0  0
    0.2429    2.3126    1.6109 H   0  0  0  0  0  0  0  0  0  0  0  0
    1.7597    2.1119    0.7447 H   0  0  0  0  0  0  0  0  0  0  0  0
    1.1291    3.2788   -3.0819 H   0  0  0  0  0  0  0  0  0  0  0  0
   -0.5692    3.0935   -2.5992 H   0  0  0  0  0  0  0  0  0  0  0  0
    0.3437    5.7311   -2.5865 H   0  0  0  0  0  0  0  0  0  0  0  0
    0.4861    7.4618   -0.8834 H   0  0  0  0  0  0  0  0  0  0  0  0
    1.1615    6.8105    2.6520 H   0  0  0  0  0  0  0  0  0  0  0  0
   -1.4149   10.5076    0.1199 H   0  0  0  0  0  0  0  0  0  0  0  0
    1.1343   12.6943    3.0032 H   0  0  0  0  0  0  0  0  0  0  0  0
    7.6247   15.3196    4.2400 H   0  0  0  0  0  0  0  0  0  0  0  0
    6.9414   16.2968    2.9223 H   0  0  0  0  0  0  0  0  0  0  0  0
    6.0860   16.1365    4.3666 H   0  0  0  0  0  0  0  0  0  0  0  0
    7.3983   12.3211    0.7470 H   0  0  0  0  0  0  0  0  0  0  0  0
    8.1441   13.2049    3.3335 H   0  0  0  0  0  0  0  0  0  0  0  0
    9.5030   13.4851    2.3213 H   0  0  0  0  0  0  0  0  0  0  0  0
    7.6583   15.4300    1.5450 H   0  0  0  0  0  0  0  0  0  0  0  0
    6.8983   14.7711    0.6397 H   0  0  0  0  0  0  0  0  0  0  0  0
    4.4214   10.8961    0.7325 H   0  0  0  0  0  0  0  0  0  0  0  0
  1  2  1  0  0  0  0
  1 38  1  0  0  0  0
  1 39  1  0  0  0  0
  1 40  1  0  0  0  0
  2  3  1  0  0  0  0
  2  4  1  0  0  0  0
  3 41  1  0  0  0  0
  3 42  1  0  0  0  0
  3 43  1  0  0  0  0
  4  5  1  0  0  0  0
  4 44  1  0  0  0  0
  4 45  1  0  0  0  0
  5  6  1  0  0  0  0
  5 46  1  0  0  0  0
  5 47  1  0  0  0  0
  6  7  1  0  0  0  0
  6 11  1  0  0  0  0
  7  8  1  0  0  0  0
  7 48  1  0  0  0  0
  7 49  1  0  0  0  0
  8  9  1  0  0  0  0
  8 50  1  0  0  0  0
  8 51  1  0  0  0  0
  9 10  2  0  0  0  0
  9 37  1  0  0  0  0
 10 11  1  0  0  0  0
 10 12  1  0  0  0  0
 11 52  1  0  0  0  0
 11 53  1  0  0  0  0
 12 13  2  0  0  0  0
 12 54  1  0  0  0  0
 13 14  1  0  0  0  0
 13 55  1  0  0  0  0
 14 15  1  0  0  0  0
 14 37  2  0  0  0  0
 15 16  1  0  0  0  0
 15 56  1  0  0  0  0
 16 17  2  0  0  0  0
 16 22  1  0  0  0  0
 17 18  1  0  0  0  0
 18 19  2  0  0  0  0
 18 57  1  0  0  0  0
 19 20  1  0  0  0  0
 19 21  1  0  0  0  0
 21 22  2  0  0  0  0
 21 23  1  0  0  0  0
 23 24  2  0  0  0  0
 23 36  1  0  0  0  0
 24 25  1  0  0  0  0
 24 58  1  0  0  0  0
 25 26  1  0  0  0  0
 25 27  2  0  0  0  0
 27 28  1  0  0  0  0
 27 35  1  0  0  0  0
 28 29  2  0  0  0  0
 29 30  1  0  0  0  0
 29 31  1  0  0  0  0
 30 59  1  0  0  0  0
 30 60  1  0  0  0  0
 30 61  1  0  0  0  0
 31 32  1  0  0  0  0
 31 35  1  0  0  0  0
 32 33  1  0  0  0  0
 32 34  1  0  0  0  0
 32 62  1  0  0  0  0
 33 34  1  0  0  0  0
 33 63  1  0  0  0  0
 33 64  1  0  0  0  0
 34 65  1  0  0  0  0
 34 66  1  0  0  0  0
 35 36  2  0  0  0  0
 36 67  1  0  0  0  0
M  END
>  <DRUGBANK_ID>
DB18299

>  <COMMON_NAME>
N-(4-(1-cyclopropyl-4-fluoro-2-methyl-1H-benzo(d)imidazol-6-yl)-5-fluoropyrimidin-2-yl)-6-(2-(dimethylamino)ethyl)-5,6,7,8-tetrahydro-l,6-naphthyridin-2-amine

>  <CAS_NUMBER>
2102887-41-0

>  <UNII>
484EDA7KEM

$$$$
