TSP
 OpenBabel10282417173D

 36 37  0  0  0  0  0  0  0  0999 V2000
    5.9660    0.4108   -1.3292 P   0  0  0  0  0  0  0  0  0  0  0  0
    7.3023   -0.1291   -1.6851 O   0  0  0  0  0  0  0  0  0  0  0  0
    5.8134    1.9878   -1.1941 O   0  0  0  0  0  0  0  0  0  0  0  0
    5.5294    0.0087    0.1529 O   0  0  0  0  0  0  0  0  0  0  0  0
    4.7695   -0.0446   -2.2684 O   0  0  0  0  0  0  0  0  0  0  0  0
    3.8902    0.8587   -2.9089 C   0  0  0  0  0  0  0  0  0  0  0  0
    2.5712    0.7665   -2.1554 C   0  0  1  0  0  0  0  0  0  0  0  0
    1.6061    1.6838   -2.7027 O   0  0  0  0  0  0  0  0  0  0  0  0
    2.0031   -0.6472   -2.2974 C   0  0  1  0  0  0  0  0  0  0  0  0
    0.9121   -1.0840   -0.8813 S   0  0  0  0  0  0  0  0  0  0  0  0
    1.1886   -0.5051   -3.5686 C   0  0  0  0  0  0  0  0  0  0  0  0
    0.6637    0.9245   -3.4842 C   0  0  2  0  0  0  0  0  0  0  0  0
    0.4396    1.5867   -4.7761 N   0  0  0  0  0  0  0  0  0  0  0  0
    1.4923    1.8113   -5.6479 C   0  0  0  0  0  0  0  0  0  0  0  0
    2.6775    1.5362   -5.4418 O   0  0  0  0  0  0  0  0  0  0  0  0
    1.1865    2.3855   -6.8417 N   0  0  0  0  0  0  0  0  0  0  0  0
    0.0441    3.0747   -7.0986 C   0  0  0  0  0  0  0  0  0  0  0  0
   -0.0597    3.8320   -8.0531 O   0  0  0  0  0  0  0  0  0  0  0  0
   -1.0632    2.8327   -6.1474 C   0  0  0  0  0  0  0  0  0  0  0  0
   -2.3517    3.5188   -6.4439 C   0  0  0  0  0  0  0  0  0  0  0  0
   -0.8294    2.0544   -5.0825 C   0  0  0  0  0  0  0  0  0  0  0  0
    2.7882    1.0338   -1.1144 H   0  0  0  0  0  0  0  0  0  0  0  0
    2.7689   -1.4265   -2.3934 H   0  0  0  0  0  0  0  0  0  0  0  0
   -0.2743    0.9228   -2.9123 H   0  0  0  0  0  0  0  0  0  0  0  0
    5.7833    2.4473   -2.0480 H   0  0  0  0  0  0  0  0  0  0  0  0
    6.3014    0.2228    0.7145 H   0  0  0  0  0  0  0  0  0  0  0  0
    4.2257    1.8999   -2.9786 H   0  0  0  0  0  0  0  0  0  0  0  0
    3.8245    0.5270   -3.9442 H   0  0  0  0  0  0  0  0  0  0  0  0
    1.7971   -1.7696   -0.1343 H   0  0  0  0  0  0  0  0  0  0  0  0
    0.3968   -1.2500   -3.6771 H   0  0  0  0  0  0  0  0  0  0  0  0
    1.8426   -0.6227   -4.4403 H   0  0  0  0  0  0  0  0  0  0  0  0
    1.9646    2.5499   -7.4595 H   0  0  0  0  0  0  0  0  0  0  0  0
   -2.2010    4.6046   -6.4353 H   0  0  0  0  0  0  0  0  0  0  0  0
   -2.7295    3.2291   -7.4286 H   0  0  0  0  0  0  0  0  0  0  0  0
   -3.1148    3.2849   -5.6963 H   0  0  0  0  0  0  0  0  0  0  0  0
   -1.6294    1.8069   -4.3888 H   0  0  0  0  0  0  0  0  0  0  0  0
  1  2  2  0  0  0  0
  1  3  1  0  0  0  0
  1  4  1  0  0  0  0
  1  5  1  0  0  0  0
  3 25  1  0  0  0  0
  4 26  1  0  0  0  0
  5  6  1  0  0  0  0
  6 27  1  0  0  0  0
  6 28  1  0  0  0  0
  7  8  1  0  0  0  0
  7  9  1  0  0  0  0
  7 22  1  1  0  0  0
  7  6  1  0  0  0  0
  8 12  1  0  0  0  0
  9 11  1  0  0  0  0
  9 23  1  6  0  0  0
  9 10  1  0  0  0  0
 10 29  1  0  0  0  0
 11 12  1  0  0  0  0
 11 30  1  0  0  0  0
 11 31  1  0  0  0  0
 12 24  1  1  0  0  0
 12 13  1  0  0  0  0
 13 14  1  0  0  0  0
 13 21  1  0  0  0  0
 14 15  2  0  0  0  0
 14 16  1  0  0  0  0
 16 17  1  0  0  0  0
 16 32  1  0  0  0  0
 17 18  2  0  0  0  0
 17 19  1  0  0  0  0
 19 20  1  0  0  0  0
 19 21  2  0  0  0  0
 20 33  1  0  0  0  0
 20 34  1  0  0  0  0
 20 35  1  0  0  0  0
 21 36  1  0  0  0  0
M  END
>  <DRUGBANK_ID>
DB08651

>  <COMMON_NAME>
3'-THIO-THYMIDINE-5'-PHOSPHATE

$$$$
