
 OpenBabel10282417153D

 68 69  0  0  1  0  0  0  0  0999 V2000
    1.1590    0.0588   -0.0122 C   0  0  0  0  0  0  0  0  0  0  0  0
    0.6005   -0.2488    1.3617 C   0  0  0  0  0  0  0  0  0  0  0  0
    1.2114    0.5887    2.5523 C   0  0  0  0  0  0  0  0  0  0  0  0
   -0.9733   -0.2485    1.3053 C   0  0  1  0  0  0  0  0  0  0  0  0
   -1.5392   -1.3666    0.3547 C   0  0  0  0  0  0  0  0  0  0  0  0
   -1.1033   -2.8224    0.6636 C   0  0  0  0  0  0  0  0  0  0  0  0
   -1.6185   -3.4186    1.9883 C   0  0  0  0  0  0  0  0  0  0  0  0
   -3.0630   -3.2376    2.1478 N   0  0  0  0  0  0  0  0  0  0  0  0
   -3.5305   -3.5464    3.5092 C   0  0  0  0  0  0  0  0  0  0  0  0
   -3.1819   -2.5178    4.6336 C   0  0  0  0  0  0  0  0  0  0  0  0
   -3.6959   -1.0872    4.4228 C   0  0  0  0  0  0  0  0  0  0  0  0
   -4.9381   -0.8933    3.8330 C   0  0  0  0  0  0  0  0  0  0  0  0
   -5.4021    0.3866    3.5367 C   0  0  0  0  0  0  0  0  0  0  0  0
   -4.6125    1.5168    3.7557 C   0  0  0  0  0  0  0  0  0  0  0  0
   -3.3828    1.3698    4.3946 C   0  0  0  0  0  0  0  0  0  0  0  0
   -2.9782    0.0834    4.7803 C   0  0  0  0  0  0  0  0  0  0  0  0
   -2.4663    2.3588    4.6704 O   0  0  0  0  0  0  0  0  0  0  0  0
   -2.9751    3.6875    4.6850 C   0  0  0  0  0  0  0  0  0  0  0  0
   -4.9683    2.7666    3.3489 O   0  0  0  0  0  0  0  0  0  0  0  0
   -6.2684    2.9614    2.8433 C   0  0  0  0  0  0  0  0  0  0  0  0
   -1.1903   -0.6398    2.6970 C   0  0  0  0  0  0  0  0  0  0  0  0
   -0.8729   -1.0666    3.7066 N   0  0  0  0  0  0  0  0  0  0  0  0
   -1.5775    1.1235    0.9944 C   0  0  0  0  0  0  0  0  0  0  0  0
   -2.9190    1.2882    0.6612 C   0  0  0  0  0  0  0  0  0  0  0  0
   -3.4315    2.5652    0.4380 C   0  0  0  0  0  0  0  0  0  0  0  0
   -2.6464    3.7056    0.6319 C   0  0  0  0  0  0  0  0  0  0  0  0
   -1.3452    3.5714    1.0736 C   0  0  0  0  0  0  0  0  0  0  0  0
   -0.8154    2.3002    1.0926 C   0  0  0  0  0  0  0  0  0  0  0  0
   -0.4652    4.5365    1.4885 O   0  0  0  0  0  0  0  0  0  0  0  0
   -1.0000    5.8448    1.6154 C   0  0  0  0  0  0  0  0  0  0  0  0
   -3.0470    4.9706    0.3504 O   0  0  0  0  0  0  0  0  0  0  0  0
   -4.3221    5.1453   -0.2069 C   0  0  0  0  0  0  0  0  0  0  0  0
    0.8156    1.0174   -0.3987 H   0  0  0  0  0  0  0  0  0  0  0  0
    0.8243   -0.6940   -0.7324 H   0  0  0  0  0  0  0  0  0  0  0  0
    2.2445    0.0550    0.0138 H   0  0  0  0  0  0  0  0  0  0  0  0
    0.9276   -1.2712    1.6077 H   0  0  0  0  0  0  0  0  0  0  0  0
    0.8915    1.6222    2.6509 H   0  0  0  0  0  0  0  0  0  0  0  0
    0.9370    0.2049    3.5401 H   0  0  0  0  0  0  0  0  0  0  0  0
    2.2941    0.5726    2.5171 H   0  0  0  0  0  0  0  0  0  0  0  0
   -2.6353   -1.3596    0.3319 H   0  0  0  0  0  0  0  0  0  0  0  0
   -1.2679   -1.1272   -0.6820 H   0  0  0  0  0  0  0  0  0  0  0  0
   -1.4433   -3.4680   -0.1530 H   0  0  0  0  0  0  0  0  0  0  0  0
   -0.0099   -2.8785    0.6546 H   0  0  0  0  0  0  0  0  0  0  0  0
   -1.3407   -4.4723    2.0717 H   0  0  0  0  0  0  0  0  0  0  0  0
   -1.0482   -2.9971    2.8035 H   0  0  0  0  0  0  0  0  0  0  0  0
   -3.3404   -2.2782    1.9516 H   0  0  0  0  0  0  0  0  0  0  0  0
   -4.6203   -3.6397    3.4476 H   0  0  0  0  0  0  0  0  0  0  0  0
   -3.1736   -4.5442    3.7845 H   0  0  0  0  0  0  0  0  0  0  0  0
   -3.6052   -2.8727    5.5774 H   0  0  0  0  0  0  0  0  0  0  0  0
   -2.1029   -2.5812    4.7995 H   0  0  0  0  0  0  0  0  0  0  0  0
   -5.5669   -1.7381    3.5760 H   0  0  0  0  0  0  0  0  0  0  0  0
   -6.3964    0.4624    3.1177 H   0  0  0  0  0  0  0  0  0  0  0  0
   -1.9899    0.0356    5.2427 H   0  0  0  0  0  0  0  0  0  0  0  0
   -3.1384    4.0516    3.6662 H   0  0  0  0  0  0  0  0  0  0  0  0
   -3.8852    3.7446    5.2935 H   0  0  0  0  0  0  0  0  0  0  0  0
   -2.2377    4.3535    5.1379 H   0  0  0  0  0  0  0  0  0  0  0  0
   -6.3907    2.4313    1.8953 H   0  0  0  0  0  0  0  0  0  0  0  0
   -7.0162    2.6623    3.5819 H   0  0  0  0  0  0  0  0  0  0  0  0
   -6.3799    4.0317    2.6554 H   0  0  0  0  0  0  0  0  0  0  0  0
   -3.5945    0.4464    0.5482 H   0  0  0  0  0  0  0  0  0  0  0  0
   -4.4688    2.6410    0.1405 H   0  0  0  0  0  0  0  0  0  0  0  0
    0.2617    2.3014    1.1507 H   0  0  0  0  0  0  0  0  0  0  0  0
   -1.1795    6.2450    0.6144 H   0  0  0  0  0  0  0  0  0  0  0  0
   -1.9010    5.8598    2.2423 H   0  0  0  0  0  0  0  0  0  0  0  0
   -0.2641    6.4957    2.0905 H   0  0  0  0  0  0  0  0  0  0  0  0
   -4.4116    4.6070   -1.1545 H   0  0  0  0  0  0  0  0  0  0  0  0
   -5.0790    4.8419    0.5179 H   0  0  0  0  0  0  0  0  0  0  0  0
   -4.4276    6.2132   -0.4011 H   0  0  0  0  0  0  0  0  0  0  0  0
  1  2  1  0  0  0  0
  1 33  1  0  0  0  0
  1 34  1  0  0  0  0
  1 35  1  0  0  0  0
  2  3  1  0  0  0  0
  2  4  1  0  0  0  0
  2 36  1  0  0  0  0
  3 37  1  0  0  0  0
  3 38  1  0  0  0  0
  3 39  1  0  0  0  0
  4  5  1  0  0  0  0
  4 21  1  1  0  0  0
  4 23  1  0  0  0  0
  5  6  1  0  0  0  0
  5 40  1  0  0  0  0
  5 41  1  0  0  0  0
  6  7  1  0  0  0  0
  6 42  1  0  0  0  0
  6 43  1  0  0  0  0
  7  8  1  0  0  0  0
  7 44  1  0  0  0  0
  7 45  1  0  0  0  0
  8  9  1  0  0  0  0
  8 46  1  0  0  0  0
  9 10  1  0  0  0  0
  9 47  1  0  0  0  0
  9 48  1  0  0  0  0
 10 11  1  0  0  0  0
 10 49  1  0  0  0  0
 10 50  1  0  0  0  0
 11 12  2  0  0  0  0
 11 16  1  0  0  0  0
 12 13  1  0  0  0  0
 12 51  1  0  0  0  0
 13 14  2  0  0  0  0
 13 52  1  0  0  0  0
 14 15  1  0  0  0  0
 14 19  1  0  0  0  0
 15 16  2  0  0  0  0
 15 17  1  0  0  0  0
 16 53  1  0  0  0  0
 17 18  1  0  0  0  0
 18 54  1  0  0  0  0
 18 55  1  0  0  0  0
 18 56  1  0  0  0  0
 19 20  1  0  0  0  0
 20 57  1  0  0  0  0
 20 58  1  0  0  0  0
 20 59  1  0  0  0  0
 21 22  3  0  0  0  0
 23 24  2  0  0  0  0
 23 28  1  0  0  0  0
 24 25  1  0  0  0  0
 24 60  1  0  0  0  0
 25 26  2  0  0  0  0
 25 61  1  0  0  0  0
 26 27  1  0  0  0  0
 26 31  1  0  0  0  0
 27 28  2  0  0  0  0
 27 29  1  0  0  0  0
 28 62  1  0  0  0  0
 29 30  1  0  0  0  0
 30 63  1  0  0  0  0
 30 64  1  0  0  0  0
 30 65  1  0  0  0  0
 31 32  1  0  0  0  0
 32 66  1  0  0  0  0
 32 67  1  0  0  0  0
 32 68  1  0  0  0  0
M  END
>  <DRUGBANK_ID>
DB06669

>  <COMMON_NAME>
Arverapamil

>  <CAS_NUMBER>
123932-43-4

>  <UNII>
3J8P56R04P

>  <SYNONYMS>
(R)-norverapamil

$$$$
