
 OpenBabel10282417133D

 16 17  0  0  0  0  0  0  0  0999 V2000
    0.9609   -0.0413   -0.0539 Cl  0  0  0  0  0  0  0  0  0  0  0  0
    2.7009   -0.0470   -0.0484 C   0  0  0  0  0  0  0  0  0  0  0  0
    3.4150   -1.2714   -0.0722 C   0  0  0  0  0  0  0  0  0  0  0  0
    2.5467   -2.7810   -0.1172 Cl  0  0  0  0  0  0  0  0  0  0  0  0
    4.8240   -1.2745   -0.0646 C   0  0  0  0  0  0  0  0  0  0  0  0
    5.7264   -2.7466   -0.1080 Cl  0  0  0  0  0  0  0  0  0  0  0  0
    5.4743   -0.0485   -0.0390 C   0  0  0  0  0  0  0  0  0  0  0  0
    6.9043    0.2608   -0.0375 C   0  0  0  0  0  0  0  0  0  0  0  0
    7.8358   -0.5039    0.1000 O   0  0  0  0  0  0  0  0  0  0  0  0
    7.0077    1.6119   -0.2085 O   0  0  0  0  0  0  0  0  0  0  0  0
    5.7494    2.2692    0.0123 C   0  0  0  0  0  0  0  0  0  0  0  0
    4.7848    1.1506   -0.0231 C   0  0  0  0  0  0  0  0  0  0  0  0
    3.3992    1.1738   -0.0213 C   0  0  0  0  0  0  0  0  0  0  0  0
    2.5992    2.7043    0.0082 Cl  0  0  0  0  0  0  0  0  0  0  0  0
    5.7967    2.7454    0.9957 H   0  0  0  0  0  0  0  0  0  0  0  0
    5.5765    3.0103   -0.7724 H   0  0  0  0  0  0  0  0  0  0  0  0
  1  2  1  0  0  0  0
  2  3  2  0  0  0  0
  2 13  1  0  0  0  0
  3  4  1  0  0  0  0
  3  5  1  0  0  0  0
  5  6  1  0  0  0  0
  5  7  2  0  0  0  0
  7  8  1  0  0  0  0
  7 12  1  0  0  0  0
  8  9  2  0  0  0  0
  8 10  1  0  0  0  0
 10 11  1  0  0  0  0
 11 12  1  0  0  0  0
 11 15  1  0  0  0  0
 11 16  1  0  0  0  0
 12 13  2  0  0  0  0
 13 14  1  0  0  0  0
M  END
>  <DRUGBANK_ID>
DB03302

>  <SECONDARY_ACCESSION_NUMBERS>
EXPT02586

>  <COMMON_NAME>
4,5,6,7-Tetrachloro-3h-Isobenzofuran-1-One

>  <UNII>
44IHE2M2T4

$$$$
