
 OpenBabel10282417123D

 42 44  0  0  0  0  0  0  0  0999 V2000
    0.2631    0.6476   -0.7336 C   0  0  0  0  0  0  0  0  0  0  0  0
    0.5960   -1.0267   -0.2797 C   0  0  0  0  0  0  0  0  0  0  0  0
   -0.6552   -1.7040   -0.0306 C   0  0  0  0  0  0  0  0  0  0  0  0
   -1.8339   -1.0439   -0.0071 C   0  0  0  0  0  0  0  0  0  0  0  0
   -2.0456    0.4254   -0.0563 C   0  0  0  0  0  0  0  0  0  0  0  0
   -0.9341    1.2275   -0.2307 O   0  0  0  0  0  0  0  0  0  0  0  0
    3.8431    3.4748    0.0695 C   0  0  2  0  0  0  0  0  0  0  0  0
    3.0229    4.3209    1.2225 C   0  0  1  0  0  0  0  0  0  0  0  0
    2.7937    3.5140    2.5911 C   0  0  2  0  0  0  0  0  0  0  0  0
    2.7120    2.7382    0.4018 O   0  0  0  0  0  0  0  0  0  0  0  0
    2.3229   -1.6520   -0.2287 C   0  0  0  0  0  0  0  0  0  0  0  0
    2.2243    2.1009    2.3905 C   0  0  1  0  0  0  0  0  0  0  0  0
    2.9635    1.6112    1.2194 C   0  0  1  0  0  0  0  0  0  0  0  0
    4.3582    2.2676   -0.6270 O   0  0  0  0  0  0  0  0  0  0  0  0
    3.7138   -0.4967   -0.5552 C   0  0  0  0  0  0  0  0  0  0  0  0
    3.3573    1.2264   -1.0691 C   0  0  0  0  0  0  0  0  0  0  0  0
    3.5370    5.6256    1.4534 O   0  0  0  0  0  0  0  0  0  0  0  0
    1.8668    4.1825    3.4371 O   0  0  0  0  0  0  0  0  0  0  0  0
    2.3554    1.1878    3.4573 O   0  0  0  0  0  0  0  0  0  0  0  0
    1.5663    1.7743   -1.1570 C   0  0  0  0  0  0  0  0  0  0  0  0
    2.1740    0.3884    0.6722 C   0  0  0  0  0  0  0  0  0  0  0  0
    1.9681   -0.0877   -1.2165 O   0  0  0  0  0  0  0  0  0  0  0  0
   -3.1748    0.9011    0.0527 O   0  0  0  0  0  0  0  0  0  0  0  0
   -0.4851   -3.1639   -0.0074 C   0  0  0  0  0  0  0  0  0  0  0  0
   -2.7772   -1.5843    0.0275 H   0  0  0  0  0  0  0  0  0  0  0  0
    3.8629    4.2359   -0.7258 H   0  0  0  0  0  0  0  0  0  0  0  0
    1.9938    4.5554    0.8258 H   0  0  0  0  0  0  0  0  0  0  0  0
    3.7700    3.4300    3.0671 H   0  0  0  0  0  0  0  0  0  0  0  0
    2.4654   -2.6680    0.1400 H   0  0  0  0  0  0  0  0  0  0  0  0
    1.1578    2.1772    2.1143 H   0  0  0  0  0  0  0  0  0  0  0  0
    4.0354    1.4118    1.4374 H   0  0  0  0  0  0  0  0  0  0  0  0
    4.7217   -0.7972   -0.1999 H   0  0  0  0  0  0  0  0  0  0  0  0
    4.4194    5.5013    1.8227 H   0  0  0  0  0  0  0  0  0  0  0  0
    0.9957    4.0996    2.9991 H   0  0  0  0  0  0  0  0  0  0  0  0
    3.2923    0.9380    3.5173 H   0  0  0  0  0  0  0  0  0  0  0  0
    1.2190    2.7681   -0.8832 H   0  0  0  0  0  0  0  0  0  0  0  0
    2.4692   -0.4618    1.3379 H   0  0  0  0  0  0  0  0  0  0  0  0
    1.1685    0.5576    1.0498 H   0  0  0  0  0  0  0  0  0  0  0  0
    2.6065   -0.2872   -1.9305 H   0  0  0  0  0  0  0  0  0  0  0  0
    0.0863   -3.4477   -0.8983 H   0  0  0  0  0  0  0  0  0  0  0  0
    0.0809   -3.4408    0.8861 H   0  0  0  0  0  0  0  0  0  0  0  0
   -1.4402   -3.6842   -0.0232 H   0  0  0  0  0  0  0  0  0  0  0  0
  1  2  2  0  0  0  0
  1 20  1  0  0  0  0
  2  3  1  0  0  0  0
  3  4  2  0  0  0  0
  3 24  1  0  0  0  0
  4  5  1  0  0  0  0
  4 25  1  0  0  0  0
  5  6  1  0  0  0  0
  5 23  2  0  0  0  0
  6  1  1  0  0  0  0
  7 14  1  0  0  0  0
  7 26  1  6  0  0  0
  8  7  1  0  0  0  0
  8 17  1  0  0  0  0
  8 27  1  6  0  0  0
  9  8  1  0  0  0  0
  9 18  1  0  0  0  0
  9 12  1  0  0  0  0
  9 28  1  1  0  0  0
 10  7  1  0  0  0  0
 11 15  2  0  0  0  0
 11  2  1  0  0  0  0
 11 29  1  0  0  0  0
 12 13  1  0  0  0  0
 12 19  1  0  0  0  0
 12 30  1  6  0  0  0
 13 10  1  0  0  0  0
 13 21  1  0  0  0  0
 13 31  1  1  0  0  0
 15 16  1  0  0  0  0
 15 32  1  0  0  0  0
 16 14  1  0  0  0  0
 17 33  1  0  0  0  0
 18 34  1  0  0  0  0
 19 35  1  0  0  0  0
 20 16  2  0  0  0  0
 20 36  1  0  0  0  0
 21 37  1  0  0  0  0
 21 38  1  0  0  0  0
 22 21  1  0  0  0  0
 22 39  1  0  0  0  0
 24 40  1  0  0  0  0
 24 41  1  0  0  0  0
 24 42  1  0  0  0  0
M  END
>  <DRUGBANK_ID>
DB02639

>  <SECONDARY_ACCESSION_NUMBERS>
EXPT02256

>  <COMMON_NAME>
7-(alpha-D-Glucopyranosyloxy)-4-methyl-2H-1-benzopyran-2-one

>  <CAS_NUMBER>
17833-43-1

>  <SYNONYMS>
4-Methylumbelliferyl a-D-glucopyranoside; 4-Methylumbelliferyl α-D-glucoside; 7-(alpha-D-Glucopyranosyloxy)-4-methyl-2H-1-benzopyran-2-one; 7-(α-D-glucopyranosyloxy)-4-methyl-2H-1-benzopyran-2-one

$$$$
