
 OpenBabel10282417183D

183193  0  0  0  0  0  0  0  0999 V2000
    3.5689   -4.8451   -1.7852 Cl  0  0  0  0  0  0  0  0  0  0  0  0
    7.7406   -1.2215   -1.9989 Cl  0  0  0  0  0  0  0  0  0  0  0  0
    5.2247   -0.7556    1.8601 O   0  0  0  0  0  0  0  0  0  0  0  0
    4.6820   -3.2478    1.1388 O   0  0  0  0  0  0  0  0  0  0  0  0
    8.8608   -3.4449    8.0878 O   0  0  0  0  0  0  0  0  0  0  0  0
    8.9530   -3.8563   10.0107 O   0  0  0  0  0  0  0  0  0  0  0  0
    8.0747   -1.9788    9.6834 O   0  0  0  0  0  0  0  0  0  0  0  0
    6.6148   -4.1700    5.1658 O   0  0  0  0  0  0  0  0  0  0  0  0
    7.1646   -2.0198    0.3538 O   0  0  0  0  0  0  0  0  0  0  0  0
   11.6212   -1.6633    9.2745 O   0  0  0  0  0  0  0  0  0  0  0  0
   11.4310   -0.6192    7.1686 O   0  0  0  0  0  0  0  0  0  0  0  0
    8.3642   -3.2263    6.2376 O   0  0  0  0  0  0  0  0  0  0  0  0
    6.3746   -4.2107    7.4311 O   0  0  0  0  0  0  0  0  0  0  0  0
    8.6132    1.1952    9.5952 O   0  0  0  0  0  0  0  0  0  0  0  0
    7.1224   -0.8433    2.3830 O   0  0  0  0  0  0  0  0  0  0  0  0
    5.1720   -1.4748    7.6093 O   0  0  0  0  0  0  0  0  0  0  0  0
    5.7145   -4.1773    9.9934 O   0  0  0  0  0  0  0  0  0  0  0  0
   10.7347   -1.1782    1.1994 O   0  0  0  0  0  0  0  0  0  0  0  0
    7.8197   -4.4199    3.3126 O   0  0  0  0  0  0  0  0  0  0  0  0
    7.2851   -1.9611    3.9412 O   0  0  0  0  0  0  0  0  0  0  0  0
    4.4220   -0.3430    5.7223 O   0  0  0  0  0  0  0  0  0  0  0  0
    8.8545   -5.8117    6.0969 O   0  0  0  0  0  0  0  0  0  0  0  0
   11.1450   -2.4406    4.8282 O   0  0  0  0  0  0  0  0  0  0  0  0
   10.0611    2.4110    8.1986 O   0  0  0  0  0  0  0  0  0  0  0  0
    8.0225   -3.4147    4.3116 O   0  0  0  0  0  0  0  0  0  0  0  0
    8.2979   -0.2033    7.0155 O   0  0  0  0  0  0  0  0  0  0  0  0
    7.3128   -2.5110    7.3968 O   0  0  0  0  0  0  0  0  0  0  0  0
    2.8608   -2.5885    7.2592 O   0  0  0  0  0  0  0  0  0  0  0  0
    9.3279   -3.1004   -0.9024 O   0  0  0  0  0  0  0  0  0  0  0  0
    9.0924   -6.5417    2.6224 O   0  0  0  0  0  0  0  0  0  0  0  0
    5.9411   -5.3840   11.6284 O   0  0  0  0  0  0  0  0  0  0  0  0
    7.0260   -7.7062    1.8571 O   0  0  0  0  0  0  0  0  0  0  0  0
    9.3737   -3.4529    0.6417 O   0  0  0  0  0  0  0  0  0  0  0  0
    5.2993   -2.4431   -2.3928 O   0  0  0  0  0  0  0  0  0  0  0  0
    5.1603   -1.4193    2.9868 C   0  0  1  0  0  0  0  0  0  0  0  0
    4.9113   -3.4928    2.4373 C   0  0  1  0  0  0  0  0  0  0  0  0
    5.6046   -1.8336    1.0623 C   0  0  3  0  0  0  0  0  0  0  0  0
    9.0764   -2.7562    9.1990 C   0  0  1  0  0  0  0  0  0  0  0  0
    6.2539   -0.9816    4.4756 C   0  0  0  0  0  0  0  0  0  0  0  0
   10.4334   -2.2416    8.6232 C   0  0  1  0  0  0  0  0  0  0  0  0
    5.6715   -4.6406    3.4698 C   0  0  1  0  0  0  0  0  0  0  0  0
   10.1612   -1.0533    7.7159 C   0  0  2  0  0  0  0  0  0  0  0  0
    9.4049   -0.0842    8.9930 C   0  0  2  0  0  0  0  0  0  0  0  0
    7.6512   -4.5195    8.3586 C   0  0  2  0  0  0  0  0  0  0  0  0
    6.9688   -2.9473    5.5029 C   0  0  1  0  0  0  0  0  0  0  0  0
    8.3967   -4.9585    9.4126 C   0  0  2  0  0  0  0  0  0  0  0  0
    6.8401   -0.9764    0.4780 C   0  0  0  0  0  0  0  0  0  0  0  0
    8.1043   -0.7056    9.3010 C   0  0  1  0  0  0  0  0  0  0  0  0
    6.1666   -0.4382    4.5110 C   0  0  0  0  0  0  0  0  0  0  0  0
    8.8098   -1.2032    1.4894 C   0  0  2  0  0  0  0  0  0  0  0  0
    5.8115   -4.1537    8.6782 C   0  0  2  0  0  0  0  0  0  0  0  0
    8.1467   -0.2030    1.1055 C   0  0  1  0  0  0  0  0  0  0  0  0
    8.3720   -2.0711    0.9217 C   0  0  1  0  0  0  0  0  0  0  0  0
    8.1795   -5.1327    8.0020 C   0  0  0  0  0  0  0  0  0  0  0  0
    5.8076   -2.7620    8.4246 C   0  0  3  0  0  0  0  0  0  0  0  0
    5.6961   -6.1504    3.2042 C   0  0  0  0  0  0  0  0  0  0  0  0
    9.5049   -3.2804    5.6757 C   0  0  2  0  0  0  0  0  0  0  0  0
   12.1167   -0.5985    8.3576 C   0  0  0  0  0  0  0  0  0  0  0  0
   10.1833    1.4107    8.9374 C   0  0  0  0  0  0  0  0  0  0  0  0
    6.7104   -0.7464    8.9947 C   0  0  0  0  0  0  0  0  0  0  0  0
    9.6011   -2.0493    4.8536 C   0  0  2  0  0  0  0  0  0  0  0  0
    8.9237   -4.7763    5.3219 C   0  0  2  0  0  0  0  0  0  0  0  0
    8.2588   -3.9908    1.7404 C   0  0  0  0  0  0  0  0  0  0  0  0
    8.4528   -2.3325    3.4639 C   0  0  1  0  0  0  0  0  0  0  0  0
    7.5622   -5.3024    4.4167 C   0  0  1  0  0  0  0  0  0  0  0  0
    5.6190   -0.1713    6.8212 C   0  0  2  0  0  0  0  0  0  0  0  0
    5.5975   -2.4644    4.9006 C   0  0  1  0  0  0  0  0  0  0  0  0
    7.1489   -0.2209    6.4123 C   0  0  2  0  0  0  0  0  0  0  0  0
    7.0468   -1.5615    6.3265 C   0  0  1  0  0  0  0  0  0  0  0  0
    4.2153   -2.0987    5.3319 C   0  0  1  0  0  0  0  0  0  0  0  0
    6.8109   -2.7936    2.6624 C   0  0  2  0  0  0  0  0  0  0  0  0
   11.1275    1.3542   10.0698 C   0  0  0  0  0  0  0  0  0  0  0  0
    6.8386   -3.7967    1.0255 C   0  0  0  0  0  0  0  0  0  0  0  0
    5.5344   -5.4549    5.2187 C   0  0  0  0  0  0  0  0  0  0  0  0
    8.8491   -4.6687    0.3730 C   0  0  2  0  0  0  0  0  0  0  0  0
    5.7952   -5.3887   10.4252 C   0  0  0  0  0  0  0  0  0  0  0  0
    3.8281   -3.0400    6.4148 C   0  0  0  0  0  0  0  0  0  0  0  0
    9.8051   -4.7401    2.3617 C   0  0  1  0  0  0  0  0  0  0  0  0
    9.7316   -3.6774    3.4613 C   0  0  1  0  0  0  0  0  0  0  0  0
    5.9041   -6.6683    9.5527 C   0  0  0  0  0  0  0  0  0  0  0  0
    7.7991   -6.6662    5.9246 C   0  0  0  0  0  0  0  0  0  0  0  0
   10.4085   -2.2568    2.9579 C   0  0  0  0  0  0  0  0  0  0  0  0
    8.1455    1.1240    7.0936 C   0  0  0  0  0  0  0  0  0  0  0  0
    4.7404   -6.8057    8.6107 C   0  0  0  0  0  0  0  0  0  0  0  0
    7.1155   -7.1009    8.8303 C   0  0  0  0  0  0  0  0  0  0  0  0
    3.0019   -1.2095    7.4912 C   0  0  0  0  0  0  0  0  0  0  0  0
    7.7244   -6.7900    1.4095 C   0  0  0  0  0  0  0  0  0  0  0  0
    7.0066   -5.5680   -0.0522 C   0  0  0  0  0  0  0  0  0  0  0  0
    5.6260   -5.6201   -0.2770 C   0  0  0  0  0  0  0  0  0  0  0  0
    7.7574   -3.8476   -0.5430 C   0  0  0  0  0  0  0  0  0  0  0  0
    5.0954   -4.5849   -1.0951 C   0  0  0  0  0  0  0  0  0  0  0  0
    7.1384   -3.0540   -1.5039 C   0  0  0  0  0  0  0  0  0  0  0  0
    4.8526   -6.7197    0.2839 C   0  0  0  0  0  0  0  0  0  0  0  0
    5.8222   -3.4330   -1.6441 C   0  0  0  0  0  0  0  0  0  0  0  0
   10.4288   -5.0229    0.8158 C   0  0  0  0  0  0  0  0  0  0  0  0
    6.1006   -4.2532    2.6887 H   0  0  0  0  0  0  0  0  0  0  0  0
    7.6354   -5.4015    9.8954 H   0  0  0  0  0  0  0  0  0  0  0  0
    7.0963   -5.3726    7.0617 H   0  0  0  0  0  0  0  0  0  0  0  0
   10.7560   -3.2450    8.2932 H   0  0  0  0  0  0  0  0  0  0  0  0
    9.7637   -1.2230    6.7469 H   0  0  0  0  0  0  0  0  0  0  0  0
    7.9643    1.5827    8.9694 H   0  0  0  0  0  0  0  0  0  0  0  0
   11.2773   -2.2294    1.3923 H   0  0  0  0  0  0  0  0  0  0  0  0
   11.4071   -2.9604    4.0214 H   0  0  0  0  0  0  0  0  0  0  0  0
    7.3331   -3.5486    6.9695 H   0  0  0  0  0  0  0  0  0  0  0  0
    8.5683   -2.2269   -0.7457 H   0  0  0  0  0  0  0  0  0  0  0  0
    4.4081   -2.6538   -2.6253 H   0  0  0  0  0  0  0  0  0  0  0  0
    4.7840   -0.9101    4.0657 H   0  0  0  0  0  0  0  0  0  0  0  0
    7.4467   -0.0008    3.8603 H   0  0  0  0  0  0  0  0  0  0  0  0
    4.5864   -4.4236    3.4998 H   0  0  0  0  0  0  0  0  0  0  0  0
    6.0264   -2.9952    6.3285 H   0  0  0  0  0  0  0  0  0  0  0  0
    6.0804   -1.4324   -0.5846 H   0  0  0  0  0  0  0  0  0  0  0  0
    5.5007   -0.9458    0.2194 H   0  0  0  0  0  0  0  0  0  0  0  0
    7.5513    0.0818    8.8278 H   0  0  0  0  0  0  0  0  0  0  0  0
    5.6383   -1.2515    5.7717 H   0  0  0  0  0  0  0  0  0  0  0  0
    7.7581   -0.7946    4.7594 H   0  0  0  0  0  0  0  0  0  0  0  0
    6.1722    0.7147    4.1271 H   0  0  0  0  0  0  0  0  0  0  0  0
    8.8620   -0.6057    2.8525 H   0  0  0  0  0  0  0  0  0  0  0  0
    4.8429   -4.5513    8.1142 H   0  0  0  0  0  0  0  0  0  0  0  0
    9.0440    0.1803    1.5857 H   0  0  0  0  0  0  0  0  0  0  0  0
    9.8114   -2.0455    0.3586 H   0  0  0  0  0  0  0  0  0  0  0  0
    9.4406   -5.3725    7.6529 H   0  0  0  0  0  0  0  0  0  0  0  0
    8.6526   -6.3050    7.7503 H   0  0  0  0  0  0  0  0  0  0  0  0
    5.0196   -2.6761    9.1680 H   0  0  0  0  0  0  0  0  0  0  0  0
    5.2726   -6.7932    3.9418 H   0  0  0  0  0  0  0  0  0  0  0  0
    5.2989   -6.1549    2.2673 H   0  0  0  0  0  0  0  0  0  0  0  0
    6.6968   -6.4364    3.1997 H   0  0  0  0  0  0  0  0  0  0  0  0
   10.1063   -2.9531    6.4577 H   0  0  0  0  0  0  0  0  0  0  0  0
   12.8084    0.2841    8.5719 H   0  0  0  0  0  0  0  0  0  0  0  0
   11.4019    0.0756    8.6339 H   0  0  0  0  0  0  0  0  0  0  0  0
    6.0523   -1.2343    9.6296 H   0  0  0  0  0  0  0  0  0  0  0  0
    6.0788   -0.0313    8.5100 H   0  0  0  0  0  0  0  0  0  0  0  0
    6.9109   -1.2610    8.1535 H   0  0  0  0  0  0  0  0  0  0  0  0
    9.4370   -0.9327    4.9948 H   0  0  0  0  0  0  0  0  0  0  0  0
    9.7807   -5.1333    4.9072 H   0  0  0  0  0  0  0  0  0  0  0  0
    8.4225   -3.4125    2.3703 H   0  0  0  0  0  0  0  0  0  0  0  0
    7.5262   -4.9548    1.7218 H   0  0  0  0  0  0  0  0  0  0  0  0
    7.9653   -5.1295    1.3696 H   0  0  0  0  0  0  0  0  0  0  0  0
    8.1778   -2.0365    2.6257 H   0  0  0  0  0  0  0  0  0  0  0  0
    7.9695   -6.1582    4.0207 H   0  0  0  0  0  0  0  0  0  0  0  0
    5.6735    0.8733    6.9066 H   0  0  0  0  0  0  0  0  0  0  0  0
    5.9204   -3.2520    4.3442 H   0  0  0  0  0  0  0  0  0  0  0  0
    7.6688    0.2758    5.5883 H   0  0  0  0  0  0  0  0  0  0  0  0
    7.9941   -1.7022    5.7844 H   0  0  0  0  0  0  0  0  0  0  0  0
    3.7711   -2.4030    4.4085 H   0  0  0  0  0  0  0  0  0  0  0  0
    5.6522   -2.7156    3.3141 H   0  0  0  0  0  0  0  0  0  0  0  0
   10.5394    0.8645   10.8288 H   0  0  0  0  0  0  0  0  0  0  0  0
   11.9154    0.6133   10.0932 H   0  0  0  0  0  0  0  0  0  0  0  0
   11.6595    2.2640    9.9907 H   0  0  0  0  0  0  0  0  0  0  0  0
    6.1726   -4.7063    1.3838 H   0  0  0  0  0  0  0  0  0  0  0  0
    6.1214   -3.4813    0.4442 H   0  0  0  0  0  0  0  0  0  0  0  0
    4.6361   -4.7845    4.8626 H   0  0  0  0  0  0  0  0  0  0  0  0
    5.5208   -5.3731    6.2458 H   0  0  0  0  0  0  0  0  0  0  0  0
    5.1465   -4.3606    5.4263 H   0  0  0  0  0  0  0  0  0  0  0  0
    8.7970   -5.3324   -0.5598 H   0  0  0  0  0  0  0  0  0  0  0  0
    4.0737   -4.0884    6.4577 H   0  0  0  0  0  0  0  0  0  0  0  0
    4.5819   -3.0047    7.0765 H   0  0  0  0  0  0  0  0  0  0  0  0
   11.1882   -5.1043    2.3844 H   0  0  0  0  0  0  0  0  0  0  0  0
   10.4137   -4.1831    4.0129 H   0  0  0  0  0  0  0  0  0  0  0  0
    6.0041   -7.4514   10.2473 H   0  0  0  0  0  0  0  0  0  0  0  0
    6.8150   -6.3813    5.7449 H   0  0  0  0  0  0  0  0  0  0  0  0
    8.0632   -7.3564    5.2406 H   0  0  0  0  0  0  0  0  0  0  0  0
    7.4809   -7.0114    6.7962 H   0  0  0  0  0  0  0  0  0  0  0  0
   10.6826   -1.3618    3.5335 H   0  0  0  0  0  0  0  0  0  0  0  0
   10.0391   -2.5210    2.0948 H   0  0  0  0  0  0  0  0  0  0  0  0
   10.1524   -1.2048    2.8125 H   0  0  0  0  0  0  0  0  0  0  0  0
    8.5267    1.6889    6.3215 H   0  0  0  0  0  0  0  0  0  0  0  0
    7.2021    1.3614    7.5674 H   0  0  0  0  0  0  0  0  0  0  0  0
    8.9577    1.1507    7.6235 H   0  0  0  0  0  0  0  0  0  0  0  0
    4.6477   -6.0795    7.8235 H   0  0  0  0  0  0  0  0  0  0  0  0
    4.8459   -7.6835    7.9926 H   0  0  0  0  0  0  0  0  0  0  0  0
    3.8480   -6.7396    9.1962 H   0  0  0  0  0  0  0  0  0  0  0  0
    8.1464   -6.9445    9.2194 H   0  0  0  0  0  0  0  0  0  0  0  0
    7.2682   -7.8662    8.0985 H   0  0  0  0  0  0  0  0  0  0  0  0
    6.7687   -6.3893    8.1368 H   0  0  0  0  0  0  0  0  0  0  0  0
    3.6458   -0.8498    8.2999 H   0  0  0  0  0  0  0  0  0  0  0  0
    3.1101   -0.6306    6.6193 H   0  0  0  0  0  0  0  0  0  0  0  0
    2.0815   -0.8533    7.7718 H   0  0  0  0  0  0  0  0  0  0  0  0
    3.9096   -6.4327    0.7427 H   0  0  0  0  0  0  0  0  0  0  0  0
    4.8478   -7.3617   -0.5583 H   0  0  0  0  0  0  0  0  0  0  0  0
    5.3630   -7.2895    1.0311 H   0  0  0  0  0  0  0  0  0  0  0  0
    9.1536   -5.5584    1.6046 H   0  0  0  0  0  0  0  0  0  0  0  0
   10.1056   -6.1032    1.2010 H   0  0  0  0  0  0  0  0  0  0  0  0
   11.0376   -3.9582    1.5166 H   0  0  0  0  0  0  0  0  0  0  0  0
  1 91  1  0  0  0  0
  2 92  1  0  0  0  0
  3 35  1  0  0  0  0
  3 37  1  0  0  0  0
  4 37  1  0  0  0  0
  7 48  1  0  0  0  0
  8 41  1  0  0  0  0
  8 45  1  0  0  0  0
  9 37  1  0  0  0  0
  9 53  1  0  0  0  0
 10 58  1  0  0  0  0
 11 58  1  0  0  0  0
 13 54  1  0  0  0  0
 13 55  1  0  0  0  0
 14101  1  0  0  0  0
 16 55  1  0  0  0  0
 17 76  1  0  0  0  0
 18102  1  0  0  0  0
 19 64  1  0  0  0  0
 19 65  1  0  0  0  0
 21 66  1  0  0  0  0
 21 70  1  0  0  0  0
 22 81  1  0  0  0  0
 23103  1  0  0  0  0
 24 59  2  0  0  0  0
 25 71  1  0  0  0  0
 25 79  1  0  0  0  0
 26 83  1  0  0  0  0
 27104  1  0  0  0  0
 28 77  1  0  0  0  0
 28 86  1  0  0  0  0
 29105  1  0  0  0  0
 30 87  1  0  0  0  0
 31 76  2  0  0  0  0
 32 87  2  0  0  0  0
 33 90  1  0  0  0  0
 33 95  1  0  0  0  0
 34 94  1  0  0  0  0
 34106  1  0  0  0  0
 35 36  1  0  0  0  0
 35 39  1  0  0  0  0
 35 49  1  1  0  0  0
 36  4  1  0  0  0  0
 36 41  1  0  0  0  0
 36 96  1  6  0  0  0
 37 47  1  0  0  0  0
 38  5  1  1  0  0  0
 38  7  1  0  0  0  0
 38 40  1  0  0  0  0
 38  6  1  0  0  0  0
 39 45  1  0  0  0  0
 39107  1  0  0  0  0
 39108  1  0  0  0  0
 40 10  1  0  0  0  0
 40 42  1  0  0  0  0
 40 99  1  6  0  0  0
 41 56  1  0  0  0  0
 41109  1  1  0  0  0
 42 11  1  0  0  0  0
 42 43  1  0  0  0  0
 42100  1  1  0  0  0
 43 48  1  0  0  0  0
 43 59  1  1  0  0  0
 43 14  1  0  0  0  0
 44  5  1  0  0  0  0
 44 46  1  0  0  0  0
 44 51  1  0  0  0  0
 44 98  1  1  0  0  0
 45110  1  1  0  0  0
 45 12  1  0  0  0  0
 46 54  1  0  0  0  0
 46  6  1  0  0  0  0
 46 97  1  6  0  0  0
 47 50  1  0  0  0  0
 47111  1  0  0  0  0
 47112  1  0  0  0  0
 48113  1  1  0  0  0
 48 60  1  0  0  0  0
 49114  1  0  0  0  0
 49115  1  0  0  0  0
 49116  1  0  0  0  0
 50 18  1  0  0  0  0
 50 52  1  0  0  0  0
 50117  1  1  0  0  0
 51 55  1  0  0  0  0
 51 17  1  0  0  0  0
 51118  1  6  0  0  0
 52 15  1  0  0  0  0
 52 53  1  0  0  0  0
 52119  1  6  0  0  0
 53120  1  6  0  0  0
 53 63  1  0  0  0  0
 54121  1  0  0  0  0
 54122  1  0  0  0  0
 55123  1  0  0  0  0
 56124  1  0  0  0  0
 56125  1  0  0  0  0
 56126  1  0  0  0  0
 57 12  1  0  0  0  0
 57 61  1  0  0  0  0
 57 62  1  0  0  0  0
 57127  1  1  0  0  0
 58128  1  0  0  0  0
 58129  1  0  0  0  0
 59 72  1  0  0  0  0
 60130  1  0  0  0  0
 60131  1  0  0  0  0
 60132  1  0  0  0  0
 61 23  1  0  0  0  0
 61 64  1  0  0  0  0
 61133  1  1  0  0  0
 62 65  1  0  0  0  0
 62134  1  6  0  0  0
 62 22  1  0  0  0  0
 63135  1  0  0  0  0
 63136  1  0  0  0  0
 63137  1  0  0  0  0
 64138  1  6  0  0  0
 64 20  1  0  0  0  0
 65 74  1  0  0  0  0
 65139  1  6  0  0  0
 66 68  1  0  0  0  0
 66140  1  1  0  0  0
 66 16  1  0  0  0  0
 67 69  1  0  0  0  0
 67 70  1  0  0  0  0
 67141  1  1  0  0  0
 67 20  1  0  0  0  0
 68 69  1  0  0  0  0
 68142  1  6  0  0  0
 68 26  1  0  0  0  0
 69143  1  6  0  0  0
 69 27  1  0  0  0  0
 70 77  1  0  0  0  0
 70144  1  6  0  0  0
 71 73  1  0  0  0  0
 71145  1  1  0  0  0
 71 15  1  0  0  0  0
 72146  1  0  0  0  0
 72147  1  0  0  0  0
 72148  1  0  0  0  0
 73 75  1  0  0  0  0
 73149  1  0  0  0  0
 73150  1  0  0  0  0
 74151  1  0  0  0  0
 74152  1  0  0  0  0
 74153  1  0  0  0  0
 75 78  1  0  0  0  0
 75154  1  6  0  0  0
 75 29  1  0  0  0  0
 76 80  1  0  0  0  0
 77155  1  0  0  0  0
 77156  1  0  0  0  0
 78 79  1  0  0  0  0
 78157  1  6  0  0  0
 78 30  1  0  0  0  0
 79 82  1  0  0  0  0
 79158  1  1  0  0  0
 80 84  1  0  0  0  0
 80 85  1  0  0  0  0
 80159  1  0  0  0  0
 81160  1  0  0  0  0
 81161  1  0  0  0  0
 81162  1  0  0  0  0
 82163  1  0  0  0  0
 82164  1  0  0  0  0
 82165  1  0  0  0  0
 83166  1  0  0  0  0
 83167  1  0  0  0  0
 83168  1  0  0  0  0
 84169  1  0  0  0  0
 84170  1  0  0  0  0
 84171  1  0  0  0  0
 85172  1  0  0  0  0
 85173  1  0  0  0  0
 85174  1  0  0  0  0
 86175  1  0  0  0  0
 86176  1  0  0  0  0
 86177  1  0  0  0  0
 87 88  1  0  0  0  0
 88 89  2  0  0  0  0
 88 90  1  0  0  0  0
 89 91  1  0  0  0  0
 89 93  1  0  0  0  0
 90 92  2  0  0  0  0
 91 94  2  0  0  0  0
 92 94  1  0  0  0  0
 93178  1  0  0  0  0
 93179  1  0  0  0  0
 93180  1  0  0  0  0
 95181  1  0  0  0  0
 95182  1  0  0  0  0
 95183  1  0  0  0  0
M  END
>  <DRUGBANK_ID>
DB11375

>  <COMMON_NAME>
Avilamycin

>  <CAS_NUMBER>
11051-71-1

>  <UNII>
720WDX56D3

>  <SYNONYMS>
Avilamycin; Avilamycina; Avilamycine; Avilamycinum

$$$$
