
 OpenBabel10282417123D

  5  4  0  0  0  0  0  0  0  0999 V2000
    1.4753   -0.2953   -0.3504 O   0  5  0  0  0  0  0  0  0  0  0  0
    2.7772    0.2567    0.2121 P   0  0  0  0  0  0  0  0  0  0  0  0
    2.7942    1.7511    0.4996 O   0  5  0  0  0  0  0  0  0  0  0  0
    2.7915   -0.3627    1.6808 F   0  0  0  0  0  0  0  0  0  0  0  0
    4.0537   -0.3179   -0.3850 O   0  0  0  0  0  0  0  0  0  0  0  0
  1  2  1  0  0  0  0
  2  3  1  0  0  0  0
  2  4  1  0  0  0  0
  2  5  2  0  0  0  0
M  CHG  2   1  -1   3  -1
M  END
>  <DRUGBANK_ID>
DB02348

>  <SECONDARY_ACCESSION_NUMBERS>
EXPT01478

>  <COMMON_NAME>
Monofluorophosphate ion

>  <CAS_NUMBER>
15181-43-8

>  <UNII>
4964UZ79MI

>  <SYNONYMS>
Fluoridophosphate; Fluorophosphate; Phosphorofluoridate

$$$$
