
 OpenBabel10282417213D

 11  9  0  0  0  0  0  0  0  0999 V2000
    1.0701   -0.8276   -0.0102 C   0  0  0  0  0  0  0  0  0  0  0  0
    0.3218   -0.8934    1.1163 C   0  0  0  0  0  0  0  0  0  0  0  0
    2.5025   -0.2607    0.0774 C   0  0  0  0  0  0  0  0  0  0  0  0
   -1.1456   -0.4703    1.0796 C   0  0  0  0  0  0  0  0  0  0  0  0
    2.4645    0.7573   -0.6969 O   0  0  0  0  0  0  0  0  0  0  0  0
    3.0504   -0.3173    1.2186 O   0  5  0  0  0  0  0  0  0  0  0  0
   -1.8373   -0.7393    2.1007 O   0  0  0  0  0  0  0  0  0  0  0  0
   -1.2043    0.5409    0.2807 O   0  5  0  0  0  0  0  0  0  0  0  0
    0.5201    1.4701    0.1604 Fe  0  2  0  0  0  0  0  0  0  0  0  0
    0.5948   -0.7157   -0.9926 H   0  0  0  0  0  0  0  0  0  0  0  0
    0.7784   -0.9225    2.1091 H   0  0  0  0  0  0  0  0  0  0  0  0
  2  1  2  0  0  0  0
  3  1  1  0  0  0  0
  4  2  1  0  0  0  0
  5  3  2  0  0  0  0
  6  3  1  0  0  0  0
  7  4  2  0  0  0  0
  8  4  1  0  0  0  0
 10  1  1  0  0  0  0
 11  2  1  0  0  0  0
M  CHG  3   6  -1   8  -1   9   2
M  END
>  <DRUGBANK_ID>
DB14491

>  <SECONDARY_ACCESSION_NUMBERS>
DBSALT000079

>  <COMMON_NAME>
Ferrous fumarate

>  <CAS_NUMBER>
141-01-5

>  <UNII>
R5L488RY0Q

>  <SYNONYMS>
Ferrous fumarate; Iron(2+) fumarate

$$$$
