
 OpenBabel10282417143D

 71 73  0  0  0  0  0  0  0  0999 V2000
    4.7070    6.3659   -0.1270 O   0  0  0  0  0  0  0  0  0  0  0  0
    4.7335    4.0476   -0.1127 C   0  0  1  0  0  0  0  0  0  0  0  0
    3.9968    3.9695    1.4198 C   0  0  2  0  0  0  0  0  0  0  0  0
    4.7706    2.9619   -1.3145 O   0  0  0  0  0  0  0  0  0  0  0  0
    4.2367    5.2220   -0.8386 C   0  0  1  0  0  0  0  0  0  0  0  0
    2.5646    4.4578    1.6029 C   0  0  1  0  0  0  0  0  0  0  0  0
    2.6952    5.0726   -0.7632 C   0  0  2  0  0  0  0  0  0  0  0  0
    2.4360    5.5186    0.7062 O   0  0  0  0  0  0  0  0  0  0  0  0
    1.3468    3.8863    1.4301 O   0  0  0  0  0  0  0  0  0  0  0  0
    2.0149    3.4825   -0.9132 C   0  0  0  0  0  0  0  0  0  0  0  0
    4.6939    4.8426    2.3861 N   0  0  0  0  0  0  0  0  0  0  0  0
   -0.0016    3.7363   -0.9801 C   0  0  2  0  0  0  0  0  0  0  0  0
    0.4181    2.0845    0.0461 C   0  0  1  0  0  0  0  0  0  0  0  0
    3.4580    2.1876   -1.6325 C   0  0  2  0  0  0  0  0  0  0  0  0
    2.9154    3.6927   -2.7353 O   0  0  0  0  0  0  0  0  0  0  0  0
    2.3346    1.4902   -0.0909 C   0  0  2  0  0  0  0  0  0  0  0  0
    1.0647    4.1034   -2.6263 C   0  0  2  0  0  0  0  0  0  0  0  0
    2.6546    0.3595    0.9478 O   0  0  0  0  0  0  0  0  0  0  0  0
   -0.1237    2.1288    1.3764 O   0  0  0  0  0  0  0  0  0  0  0  0
   -0.0226    4.9607   -0.1918 O   0  0  0  0  0  0  0  0  0  0  0  0
    0.8302    5.4851   -3.1298 C   0  0  0  0  0  0  0  0  0  0  0  0
    4.5695    1.4032    2.3921 O   0  0  0  0  0  0  0  0  0  0  0  0
    6.0244    1.7633    2.3175 C   0  0  2  0  0  0  0  0  0  0  0  0
    4.0969    0.3134    1.5055 C   0  0  2  0  0  0  0  0  0  0  0  0
    4.8620    0.4190    0.2548 C   0  0  2  0  0  0  0  0  0  0  0  0
    6.3418    0.5471    0.1659 C   0  0  1  0  0  0  0  0  0  0  0  0
    6.8269    1.7598    0.9896 C   0  0  2  0  0  0  0  0  0  0  0  0
    4.5714    1.7545    0.2153 O   0  0  0  0  0  0  0  0  0  0  0  0
    6.8073   -0.6855    0.5985 O   0  0  0  0  0  0  0  0  0  0  0  0
    8.2389    1.8853    1.1469 O   0  0  0  0  0  0  0  0  0  0  0  0
    6.5625    0.7884    3.2915 C   0  0  0  0  0  0  0  0  0  0  0  0
    2.0121    6.1161   -3.5741 O   0  0  0  0  0  0  0  0  0  0  0  0
    1.2723    2.0978   -1.7159 O   0  0  0  0  0  0  0  0  0  0  0  0
    5.0631    4.4810    3.6668 C   0  0  0  0  0  0  0  0  0  0  0  0
    5.6311    5.6335    4.3969 C   0  0  0  0  0  0  0  0  0  0  0  0
    5.0226    3.3888    4.2083 O   0  0  0  0  0  0  0  0  0  0  0  0
    4.1725    6.3905    0.6857 H   0  0  0  0  0  0  0  0  0  0  0  0
    5.7909    4.2098    0.1137 H   0  0  0  0  0  0  0  0  0  0  0  0
    3.9317    3.0239    1.8533 H   0  0  0  0  0  0  0  0  0  0  0  0
    4.7158    5.2045   -1.8220 H   0  0  0  0  0  0  0  0  0  0  0  0
    2.3760    4.4337    2.6795 H   0  0  0  0  0  0  0  0  0  0  0  0
    2.2147    5.8986   -1.2399 H   0  0  0  0  0  0  0  0  0  0  0  0
    1.5672    3.2072    0.8372 H   0  0  0  0  0  0  0  0  0  0  0  0
    1.9726    2.7932   -1.9925 H   0  0  0  0  0  0  0  0  0  0  0  0
    2.8340    3.2052   -0.3437 H   0  0  0  0  0  0  0  0  0  0  0  0
    4.2601    5.7589    2.4162 H   0  0  0  0  0  0  0  0  0  0  0  0
   -1.0556    3.6736   -1.2388 H   0  0  0  0  0  0  0  0  0  0  0  0
   -0.1361    1.2445   -0.4016 H   0  0  0  0  0  0  0  0  0  0  0  0
    3.5079    1.3809   -2.4092 H   0  0  0  0  0  0  0  0  0  0  0  0
    2.6372    2.0834    0.7733 H   0  0  0  0  0  0  0  0  0  0  0  0
    0.7251    3.3848   -3.3738 H   0  0  0  0  0  0  0  0  0  0  0  0
    0.1186    2.9866    1.7922 H   0  0  0  0  0  0  0  0  0  0  0  0
    0.7786    5.0478    0.3672 H   0  0  0  0  0  0  0  0  0  0  0  0
    0.1619    5.3158   -3.9712 H   0  0  0  0  0  0  0  0  0  0  0  0
    0.3160    6.0735   -2.3646 H   0  0  0  0  0  0  0  0  0  0  0  0
    6.2555    2.7844    2.6467 H   0  0  0  0  0  0  0  0  0  0  0  0
    4.2036   -0.6072    2.0625 H   0  0  0  0  0  0  0  0  0  0  0  0
    4.3827   -0.0662   -0.5942 H   0  0  0  0  0  0  0  0  0  0  0  0
    6.6119    0.7578   -0.8836 H   0  0  0  0  0  0  0  0  0  0  0  0
    6.6638    2.6732    0.4141 H   0  0  0  0  0  0  0  0  0  0  0  0
    5.1813    2.1199   -0.4368 H   0  0  0  0  0  0  0  0  0  0  0  0
    7.7564   -0.5395    0.6953 H   0  0  0  0  0  0  0  0  0  0  0  0
    8.4001    2.8238    1.3936 H   0  0  0  0  0  0  0  0  0  0  0  0
    6.8247    1.2990    4.2127 H   0  0  0  0  0  0  0  0  0  0  0  0
    5.7760    0.0704    3.5275 H   0  0  0  0  0  0  0  0  0  0  0  0
    7.3947    0.2625    2.8464 H   0  0  0  0  0  0  0  0  0  0  0  0
    2.7454    5.9157   -2.9670 H   0  0  0  0  0  0  0  0  0  0  0  0
    0.3381    2.2141   -1.9826 H   0  0  0  0  0  0  0  0  0  0  0  0
    5.2955    5.5264    5.4271 H   0  0  0  0  0  0  0  0  0  0  0  0
    6.7188    5.5815    4.3206 H   0  0  0  0  0  0  0  0  0  0  0  0
    5.2590    6.5666    3.9726 H   0  0  0  0  0  0  0  0  0  0  0  0
  1 37  1  0  0  0  0
  2  3  1  0  0  0  0
  2  5  1  0  0  0  0
  2 38  1  1  0  0  0
  2  4  1  0  0  0  0
  3  6  1  0  0  0  0
  3 39  1  1  0  0  0
  3 11  1  0  0  0  0
  5  7  1  0  0  0  0
  5 40  1  6  0  0  0
  5  1  1  0  0  0  0
  6  8  1  0  0  0  0
  6  9  1  0  0  0  0
  6 41  1  1  0  0  0
  7 10  1  0  0  0  0
  7  8  1  0  0  0  0
  7 42  1  6  0  0  0
  9 43  1  0  0  0  0
 10 33  1  0  0  0  0
 10 44  1  0  0  0  0
 10 45  1  0  0  0  0
 11 34  1  0  0  0  0
 11 46  1  0  0  0  0
 12 47  1  6  0  0  0
 12 20  1  0  0  0  0
 13 12  1  0  0  0  0
 13 19  1  0  0  0  0
 13 48  1  6  0  0  0
 14 15  1  0  0  0  0
 14 16  1  0  0  0  0
 14 49  1  6  0  0  0
 14  4  1  0  0  0  0
 15 17  1  0  0  0  0
 16 13  1  0  0  0  0
 16 50  1  1  0  0  0
 16 18  1  0  0  0  0
 17 12  1  0  0  0  0
 17 51  1  6  0  0  0
 17 21  1  0  0  0  0
 19 52  1  0  0  0  0
 20 53  1  0  0  0  0
 21 32  1  0  0  0  0
 21 54  1  0  0  0  0
 21 55  1  0  0  0  0
 23 22  1  0  0  0  0
 23 56  1  1  0  0  0
 23 31  1  0  0  0  0
 24 22  1  0  0  0  0
 24 25  1  0  0  0  0
 24 18  1  0  0  0  0
 24 57  1  1  0  0  0
 25 28  1  0  0  0  0
 25 26  1  0  0  0  0
 25 58  1  6  0  0  0
 26 27  1  0  0  0  0
 26 59  1  6  0  0  0
 26 29  1  0  0  0  0
 27 23  1  0  0  0  0
 27 60  1  6  0  0  0
 27 30  1  0  0  0  0
 28 61  1  0  0  0  0
 29 62  1  0  0  0  0
 30 63  1  0  0  0  0
 31 64  1  0  0  0  0
 31 65  1  0  0  0  0
 31 66  1  0  0  0  0
 32 67  1  0  0  0  0
 33 68  1  0  0  0  0
 34 35  1  0  0  0  0
 34 36  2  0  0  0  0
 35 69  1  0  0  0  0
 35 70  1  0  0  0  0
 35 71  1  0  0  0  0
M  END
>  <DRUGBANK_ID>
DB04679

>  <COMMON_NAME>
Human blood group H type 1 trisaccharide

>  <SYNONYMS>
alpha-L-Fucp-(1->2)-beta-D-Galp-(1->3)-beta-D-GlcpNAc; globo-H; H type I; H type I epitope; H type I trisaccharide; α-L-Fuc-(1→2)-β-D-Gal-(1→3)-β-D-GlcNAc; αLFuc(1-2)βDGal(1-3)βDGlcNAc

$$$$
