789
 OpenBabel10282417163D

 28 30  0  0  0  0  0  0  0  0999 V2000
    2.1387   -0.6956    0.0019 C   0  0  0  0  0  0  0  0  0  0  0  0
    0.9505   -1.4182    0.0036 C   0  0  0  0  0  0  0  0  0  0  0  0
   -0.2320   -0.6976    0.0012 C   0  0  0  0  0  0  0  0  0  0  0  0
   -0.2789    0.6885   -0.0036 C   0  0  0  0  0  0  0  0  0  0  0  0
    0.9137    1.4070    0.0001 C   0  0  0  0  0  0  0  0  0  0  0  0
    2.1333    0.7061    0.0014 C   0  0  0  0  0  0  0  0  0  0  0  0
   -1.6104   -1.1766   -0.0037 C   0  0  0  0  0  0  0  0  0  0  0  0
   -2.4963    0.0198   -0.0421 C   0  0  0  0  0  0  0  0  0  0  0  0
   -1.6839    1.0994   -0.0201 C   0  0  0  0  0  0  0  0  0  0  0  0
   -3.9671   -0.0059   -0.0538 C   0  0  0  0  0  0  0  0  0  0  0  0
   -4.6784    0.6502   -1.0694 C   0  0  0  0  0  0  0  0  0  0  0  0
   -6.0632    0.8204   -0.9784 C   0  0  0  0  0  0  0  0  0  0  0  0
   -6.7651    0.2283    0.0613 C   0  0  0  0  0  0  0  0  0  0  0  0
   -6.1016   -0.5571    0.9968 C   0  0  0  0  0  0  0  0  0  0  0  0
   -4.6993   -0.6338    0.9655 C   0  0  0  0  0  0  0  0  0  0  0  0
   -8.1087    0.4530    0.1219 O   0  0  0  0  0  0  0  0  0  0  0  0
   -1.9501   -2.3465    0.0212 O   0  0  0  0  0  0  0  0  0  0  0  0
    3.3024   -1.4082   -0.0009 O   0  0  0  0  0  0  0  0  0  0  0  0
   -2.1756    2.8829    0.0193 Br  0  0  0  0  0  0  0  0  0  0  0  0
    0.9510   -2.5021    0.0020 H   0  0  0  0  0  0  0  0  0  0  0  0
    0.9206    2.4939   -0.0021 H   0  0  0  0  0  0  0  0  0  0  0  0
    3.0663    1.2654   -0.0005 H   0  0  0  0  0  0  0  0  0  0  0  0
   -4.1601    1.0599   -1.9329 H   0  0  0  0  0  0  0  0  0  0  0  0
   -6.5905    1.4211   -1.7140 H   0  0  0  0  0  0  0  0  0  0  0  0
   -6.6497   -1.1027    1.7591 H   0  0  0  0  0  0  0  0  0  0  0  0
   -4.1863   -1.1780    1.7562 H   0  0  0  0  0  0  0  0  0  0  0  0
   -8.4644    0.0541    0.9327 H   0  0  0  0  0  0  0  0  0  0  0  0
    4.0633   -0.8043   -0.0031 H   0  0  0  0  0  0  0  0  0  0  0  0
  1  2  2  0  0  0  0
  1  6  1  0  0  0  0
  1 18  1  0  0  0  0
  2  3  1  0  0  0  0
  2 20  1  0  0  0  0
  3  4  2  0  0  0  0
  3  7  1  0  0  0  0
  4  5  1  0  0  0  0
  4  9  1  0  0  0  0
  5  6  2  0  0  0  0
  5 21  1  0  0  0  0
  6 22  1  0  0  0  0
  7  8  1  0  0  0  0
  7 17  2  0  0  0  0
  8  9  2  0  0  0  0
  8 10  1  0  0  0  0
  9 19  1  0  0  0  0
 10 11  1  0  0  0  0
 10 15  2  0  0  0  0
 11 12  2  0  0  0  0
 11 23  1  0  0  0  0
 12 13  1  0  0  0  0
 12 24  1  0  0  0  0
 13 14  2  0  0  0  0
 13 16  1  0  0  0  0
 14 15  1  0  0  0  0
 14 25  1  0  0  0  0
 15 26  1  0  0  0  0
 16 27  1  0  0  0  0
 18 28  1  0  0  0  0
M  END
>  <DRUGBANK_ID>
DB07230

>  <COMMON_NAME>
3-BROMO-6-HYDROXY-2-(4-HYDROXYPHENYL)-1H-INDEN-1-ONE

$$$$
