458
 OpenBabel10282417163D

 39 41  0  0  0  0  0  0  0  0999 V2000
   -1.2449    0.7385    1.2205 C   0  0  0  0  0  0  0  0  0  0  0  0
   -1.4631    1.5249    2.8980 C   0  0  1  0  0  0  0  0  0  0  0  0
   -1.2437    0.5850    4.2286 C   0  0  0  0  0  0  0  0  0  0  0  0
   -0.3670    0.8854    5.4605 C   0  0  0  0  0  0  0  0  0  0  0  0
   -1.3382   -0.6892    3.9718 C   0  0  0  0  0  0  0  0  0  0  0  0
   -1.5608   -0.8169    2.5449 C   0  0  0  0  0  0  0  0  0  0  0  0
   -0.2546   -0.0686    1.8386 C   0  0  1  0  0  0  0  0  0  0  0  0
    0.6787   -1.1982    1.5031 C   0  0  0  0  0  0  0  0  0  0  0  0
    1.6628   -1.2760    2.5430 O   0  0  0  0  0  0  0  0  0  0  0  0
    0.6229    1.4887    1.8687 C   0  0  0  0  0  0  0  0  0  0  0  0
   -0.3150    2.9385    1.6998 O   0  0  0  0  0  0  0  0  0  0  0  0
   -1.7602    2.7591    2.1915 C   0  0  2  0  0  0  0  0  0  0  0  0
   -2.8662    3.5245    2.9023 C   0  0  0  0  0  0  0  0  0  0  0  0
   -2.7518    4.7088    3.6128 C   0  0  0  0  0  0  0  0  0  0  0  0
   -3.9176    5.3854    4.0420 C   0  0  0  0  0  0  0  0  0  0  0  0
   -5.1904    4.8683    3.7809 C   0  0  0  0  0  0  0  0  0  0  0  0
   -6.3399    5.5342    4.0898 O   0  0  0  0  0  0  0  0  0  0  0  0
   -5.3276    3.6359    3.1779 C   0  0  0  0  0  0  0  0  0  0  0  0
   -4.1774    2.9627    2.7711 C   0  0  0  0  0  0  0  0  0  0  0  0
   -0.6020    2.0525    3.3729 H   0  0  0  0  0  0  0  0  0  0  0  0
   -2.3067    2.5615    1.2518 H   0  0  0  0  0  0  0  0  0  0  0  0
   -2.1932    0.3942    0.7911 H   0  0  0  0  0  0  0  0  0  0  0  0
   -0.7777    1.2380    0.3419 H   0  0  0  0  0  0  0  0  0  0  0  0
   -0.8211    0.4042    6.3367 H   0  0  0  0  0  0  0  0  0  0  0  0
    0.6219    0.3995    5.3468 H   0  0  0  0  0  0  0  0  0  0  0  0
   -0.1735    1.9282    5.7057 H   0  0  0  0  0  0  0  0  0  0  0  0
   -1.0083   -1.5231    4.6059 H   0  0  0  0  0  0  0  0  0  0  0  0
   -2.5538   -0.2807    2.5661 H   0  0  0  0  0  0  0  0  0  0  0  0
   -2.0076   -1.5917    1.9108 H   0  0  0  0  0  0  0  0  0  0  0  0
    0.1714   -2.1718    1.5193 H   0  0  0  0  0  0  0  0  0  0  0  0
    1.1862   -1.0947    0.5477 H   0  0  0  0  0  0  0  0  0  0  0  0
    2.0318   -0.3904    2.6954 H   0  0  0  0  0  0  0  0  0  0  0  0
    1.2087    1.6548    2.7785 H   0  0  0  0  0  0  0  0  0  0  0  0
    1.2872    1.5379    0.9926 H   0  0  0  0  0  0  0  0  0  0  0  0
   -1.7743    5.1272    3.8268 H   0  0  0  0  0  0  0  0  0  0  0  0
   -3.8152    6.3325    4.5622 H   0  0  0  0  0  0  0  0  0  0  0  0
   -6.1190    6.4119    4.4382 H   0  0  0  0  0  0  0  0  0  0  0  0
   -6.3139    3.2159    2.9939 H   0  0  0  0  0  0  0  0  0  0  0  0
   -4.3193    1.9891    2.2986 H   0  0  0  0  0  0  0  0  0  0  0  0
  1  2  1  0  0  0  0
  1  7  1  0  0  0  0
  1 22  1  0  0  0  0
  1 23  1  0  0  0  0
  2  3  1  0  0  0  0
  2 12  1  0  0  0  0
  2 20  1  6  0  0  0
  3  5  2  0  0  0  0
  3  4  1  0  0  0  0
  4 24  1  0  0  0  0
  4 25  1  0  0  0  0
  4 26  1  0  0  0  0
  5  6  1  0  0  0  0
  5 27  1  0  0  0  0
  6  7  1  0  0  0  0
  6 28  1  0  0  0  0
  6 29  1  0  0  0  0
  7 10  1  0  0  0  0
  7  8  1  6  0  0  0
  8  9  1  0  0  0  0
  8 30  1  0  0  0  0
  8 31  1  0  0  0  0
  9 32  1  0  0  0  0
 10 11  1  0  0  0  0
 10 33  1  0  0  0  0
 10 34  1  0  0  0  0
 11 12  1  0  0  0  0
 12 13  1  0  0  0  0
 12 21  1  6  0  0  0
 13 14  1  0  0  0  0
 13 19  2  0  0  0  0
 14 15  2  0  0  0  0
 14 35  1  0  0  0  0
 15 16  1  0  0  0  0
 15 36  1  0  0  0  0
 16 17  1  0  0  0  0
 16 18  2  0  0  0  0
 17 37  1  0  0  0  0
 18 19  1  0  0  0  0
 18 38  1  0  0  0  0
 19 39  1  0  0  0  0
M  END
>  <DRUGBANK_ID>
DB07086

>  <COMMON_NAME>
4-[(1S,2S,5S)-5-(HYDROXYMETHYL)-8-METHYL-3-OXABICYCLO[3.3.1]NON-7-EN-2-YL]PHENOL

$$$$
