
 OpenBabel10282417143D

 60 63  0  0  1  0  0  0  0  0999 V2000
   11.1152   14.1139   -0.6604 C   0  0  0  0  0  0  0  0  0  0  0  0
   12.5247   14.2238   -1.2247 C   0  0  0  0  0  0  0  0  0  0  0  0
   16.6794    7.6670    1.1727 C   0  0  0  0  0  0  0  0  0  0  0  0
   16.6515    8.2429    2.4346 C   0  0  0  0  0  0  0  0  0  0  0  0
   15.9040    6.5410    0.9697 C   0  0  0  0  0  0  0  0  0  0  0  0
   15.8036    7.7509    3.4570 C   0  0  0  0  0  0  0  0  0  0  0  0
   11.6978    7.0459   -2.0064 C   0  0  0  0  0  0  0  0  0  0  0  0
   13.8351    7.0510   -1.0491 C   0  0  0  0  0  0  0  0  0  0  0  0
   11.5930    5.6408   -1.8207 C   0  0  0  0  0  0  0  0  0  0  0  0
   13.8122    5.6420   -1.0706 C   0  0  0  0  0  0  0  0  0  0  0  0
   11.8796   10.0047   -1.0411 C   0  0  0  0  0  0  0  0  0  0  0  0
   14.0118    9.8917   -2.1377 C   0  0  0  0  0  0  0  0  0  0  0  0
   11.8263   11.3446   -1.3661 C   0  0  0  0  0  0  0  0  0  0  0  0
   13.9743   11.2628   -2.4131 C   0  0  0  0  0  0  0  0  0  0  0  0
   11.6932    3.2439    2.1193 C   0  0  0  0  0  0  0  0  0  0  0  0
   12.0884    4.2147    3.3293 C   0  0  0  0  0  0  0  0  0  0  0  0
   13.4847    2.6876    0.1705 C   0  0  0  0  0  0  0  0  0  0  0  0
   12.7871    7.7811   -1.5240 C   0  0  0  0  0  0  0  0  0  0  0  0
   12.9070    9.2365   -1.5508 C   0  0  0  0  0  0  0  0  0  0  0  0
   12.6583    4.9050   -1.3123 C   0  0  0  0  0  0  0  0  0  0  0  0
   12.7671    2.2579    1.5149 C   0  0  1  0  0  0  0  0  0  0  0  0
   12.8762   12.0050   -1.9997 C   0  0  0  0  0  0  0  0  0  0  0  0
   14.9608    6.1702    1.9505 C   0  0  0  0  0  0  0  0  0  0  0  0
   14.9190    6.7324    3.1871 C   0  0  0  0  0  0  0  0  0  0  0  0
   12.5063    3.4275   -0.8462 C   0  0  0  0  0  0  0  0  0  0  0  0
   13.7789    5.3274    1.9703 C   0  0  0  0  0  0  0  0  0  0  0  0
   13.8525    6.0480    3.9896 C   0  0  0  0  0  0  0  0  0  0  0  0
   13.7480    1.8222    2.5995 C   0  0  0  0  0  0  0  0  0  0  0  0
   13.2269    5.1718    3.1732 N   0  0  0  0  0  0  0  0  0  0  0  0
   11.4901    2.8301   -1.2148 O   0  0  0  0  0  0  0  0  0  0  0  0
   13.1972    4.9061    1.0372 O   0  0  0  0  0  0  0  0  0  0  0  0
   13.6466    6.2547    5.1683 O   0  0  0  0  0  0  0  0  0  0  0  0
   13.8043    0.7141    3.1086 O   0  0  0  0  0  0  0  0  0  0  0  0
   14.5497    2.8049    3.0580 O   0  0  0  0  0  0  0  0  0  0  0  0
   12.8212   13.3330   -2.3180 O   0  0  0  0  0  0  0  0  0  0  0  0
   12.2157    1.3443    1.2393 H   0  0  0  0  0  0  0  0  0  0  0  0
   10.3800   14.0551   -1.4714 H   0  0  0  0  0  0  0  0  0  0  0  0
   10.8672   14.9305    0.0158 H   0  0  0  0  0  0  0  0  0  0  0  0
   11.0201   13.2326   -0.0233 H   0  0  0  0  0  0  0  0  0  0  0  0
   12.6296   15.2369   -1.6303 H   0  0  0  0  0  0  0  0  0  0  0  0
   13.2753   14.1206   -0.4322 H   0  0  0  0  0  0  0  0  0  0  0  0
   17.2650    8.0853    0.3491 H   0  0  0  0  0  0  0  0  0  0  0  0
   17.3175    9.0775    2.6238 H   0  0  0  0  0  0  0  0  0  0  0  0
   16.0197    6.1124   -0.0211 H   0  0  0  0  0  0  0  0  0  0  0  0
   15.8233    8.1770    4.4460 H   0  0  0  0  0  0  0  0  0  0  0  0
   10.9252    7.5628   -2.5668 H   0  0  0  0  0  0  0  0  0  0  0  0
   14.6472    7.6419   -0.6384 H   0  0  0  0  0  0  0  0  0  0  0  0
   10.6729    5.1305   -2.0801 H   0  0  0  0  0  0  0  0  0  0  0  0
   14.6236    5.0857   -0.6312 H   0  0  0  0  0  0  0  0  0  0  0  0
   11.0757    9.5675   -0.4557 H   0  0  0  0  0  0  0  0  0  0  0  0
   14.8990    9.3275   -2.4184 H   0  0  0  0  0  0  0  0  0  0  0  0
   10.8718   11.8068   -1.1825 H   0  0  0  0  0  0  0  0  0  0  0  0
   14.7730   11.7175   -2.9939 H   0  0  0  0  0  0  0  0  0  0  0  0
   11.2304    3.8348    1.3159 H   0  0  0  0  0  0  0  0  0  0  0  0
   10.8474    2.6232    2.4551 H   0  0  0  0  0  0  0  0  0  0  0  0
   11.1953    4.8054    3.5674 H   0  0  0  0  0  0  0  0  0  0  0  0
   12.3110    3.5986    4.2027 H   0  0  0  0  0  0  0  0  0  0  0  0
   13.8786    1.7981   -0.3427 H   0  0  0  0  0  0  0  0  0  0  0  0
   14.4138    3.2233    0.4005 H   0  0  0  0  0  0  0  0  0  0  0  0
   14.9935    2.4620    3.8642 H   0  0  0  0  0  0  0  0  0  0  0  0
  1 37  1  0  0  0  0
  1 38  1  0  0  0  0
  1 39  1  0  0  0  0
  2  1  1  0  0  0  0
  2 40  1  0  0  0  0
  2 41  1  0  0  0  0
  3 42  1  0  0  0  0
  4  3  2  0  0  0  0
  4 43  1  0  0  0  0
  5  3  1  0  0  0  0
  5 44  1  0  0  0  0
  6  4  1  0  0  0  0
  6 45  1  0  0  0  0
  7 46  1  0  0  0  0
  8 47  1  0  0  0  0
  9  7  1  0  0  0  0
  9 48  1  0  0  0  0
 10  8  2  0  0  0  0
 10 49  1  0  0  0  0
 11 50  1  0  0  0  0
 12 51  1  0  0  0  0
 13 11  1  0  0  0  0
 13 52  1  0  0  0  0
 14 12  2  0  0  0  0
 14 53  1  0  0  0  0
 15 54  1  0  0  0  0
 15 55  1  0  0  0  0
 16 15  1  0  0  0  0
 16 56  1  0  0  0  0
 16 57  1  0  0  0  0
 17 58  1  0  0  0  0
 17 59  1  0  0  0  0
 18  7  2  0  0  0  0
 18  8  1  0  0  0  0
 19 11  2  0  0  0  0
 19 12  1  0  0  0  0
 19 18  1  0  0  0  0
 20  9  2  0  0  0  0
 20 10  1  0  0  0  0
 21 28  1  0  0  0  0
 21 36  1  6  0  0  0
 21 17  1  0  0  0  0
 21 15  1  0  0  0  0
 22 13  2  0  0  0  0
 22 14  1  0  0  0  0
 23  5  2  0  0  0  0
 24  6  2  0  0  0  0
 24 23  1  0  0  0  0
 25 17  1  0  0  0  0
 25 20  1  0  0  0  0
 26 23  1  0  0  0  0
 27 24  1  0  0  0  0
 29 16  1  0  0  0  0
 29 26  1  0  0  0  0
 29 27  1  0  0  0  0
 30 25  2  0  0  0  0
 31 26  2  0  0  0  0
 32 27  2  0  0  0  0
 33 28  2  0  0  0  0
 34 28  1  0  0  0  0
 34 60  1  0  0  0  0
 35  2  1  0  0  0  0
 35 22  1  0  0  0  0
M  END
>  <DRUGBANK_ID>
DB04405

>  <SECONDARY_ACCESSION_NUMBERS>
EXPT01160

>  <COMMON_NAME>
2-[2-(1,3-Dioxo-1,3-Dihydro-2h-Isoindol-2-Yl)Ethyl]-4-(4'-Ethoxy-1,1'-Biphenyl-4-Yl)-4-Oxobutanoic Acid

$$$$
