
 OpenBabel10282417133D

 25 24  0  0  0  0  0  0  0  0999 V2000
    0.9782   -0.0000   -0.1037 C   0  0  0  0  0  0  0  0  0  0  0  0
    0.4122    1.1502    0.3474 O   0  0  0  0  0  0  0  0  0  0  0  0
    0.3037   -0.9236   -0.5171 O   0  0  0  0  0  0  0  0  0  0  0  0
    2.5358    0.0230   -0.0698 C   0  0  1  0  0  0  0  0  0  0  0  0
    3.0043    1.3494    0.4612 N   0  0  0  0  0  0  0  0  0  0  0  0
    3.0654   -1.1198    0.8483 C   0  0  0  0  0  0  0  0  0  0  0  0
    2.6337   -2.5642    0.4663 C   0  0  0  0  0  0  0  0  0  0  0  0
    3.1179   -3.0388   -0.9025 C   0  0  0  0  0  0  0  0  0  0  0  0
    3.1332   -3.5826    1.4872 C   0  0  0  0  0  0  0  0  0  0  0  0
    3.0814   -0.0469   -1.4990 C   0  0  0  0  0  0  0  0  0  0  0  0
    1.1185    1.7371    0.6934 H   0  0  0  0  0  0  0  0  0  0  0  0
    4.0305    1.3057    0.4996 H   0  0  0  0  0  0  0  0  0  0  0  0
    2.8440    2.0585   -0.2629 H   0  0  0  0  0  0  0  0  0  0  0  0
    4.1643   -1.0812    0.8959 H   0  0  0  0  0  0  0  0  0  0  0  0
    2.7258   -0.9289    1.8794 H   0  0  0  0  0  0  0  0  0  0  0  0
    1.5422   -2.6254    0.4925 H   0  0  0  0  0  0  0  0  0  0  0  0
    4.1938   -2.8710   -1.0184 H   0  0  0  0  0  0  0  0  0  0  0  0
    2.9077   -4.1004   -1.0551 H   0  0  0  0  0  0  0  0  0  0  0  0
    2.5839   -2.5660   -1.7191 H   0  0  0  0  0  0  0  0  0  0  0  0
    2.7568   -3.3615    2.4887 H   0  0  0  0  0  0  0  0  0  0  0  0
    2.7761   -4.5818    1.2092 H   0  0  0  0  0  0  0  0  0  0  0  0
    4.2267   -3.6087    1.5107 H   0  0  0  0  0  0  0  0  0  0  0  0
    2.5819   -0.8013   -2.0977 H   0  0  0  0  0  0  0  0  0  0  0  0
    2.8800    0.8668   -2.0651 H   0  0  0  0  0  0  0  0  0  0  0  0
    4.1623   -0.2338   -1.5060 H   0  0  0  0  0  0  0  0  0  0  0  0
  2  1  1  0  0  0  0
  2 11  1  0  0  0  0
  3  1  2  0  0  0  0
  4  1  1  6  0  0  0
  4  5  1  0  0  0  0
  4 10  1  0  0  0  0
  5 12  1  0  0  0  0
  5 13  1  0  0  0  0
  6  4  1  0  0  0  0
  6 14  1  0  0  0  0
  6 15  1  0  0  0  0
  7  6  1  0  0  0  0
  7 16  1  0  0  0  0
  8  7  1  0  0  0  0
  8 17  1  0  0  0  0
  8 18  1  0  0  0  0
  8 19  1  0  0  0  0
  9  7  1  0  0  0  0
  9 20  1  0  0  0  0
  9 21  1  0  0  0  0
  9 22  1  0  0  0  0
 10 23  1  0  0  0  0
 10 24  1  0  0  0  0
 10 25  1  0  0  0  0
M  END
>  <DRUGBANK_ID>
DB04063

>  <SECONDARY_ACCESSION_NUMBERS>
EXPT00130

>  <COMMON_NAME>
alpha-Methylleucine

>  <CAS_NUMBER>
105743-53-1

>  <UNII>
83ASW57LTZ

>  <SYNONYMS>
(S)-2-Methylleucine; 2-Methyl-L-leucine

$$$$
