1393
 OpenBabel10282417113D

 45 46  0  0  0  0  0  0  0  0999 V2000
   -2.2324   -0.2303   -0.0085 Cl  0  0  0  0  0  0  0  0  0  0  0  0
    9.8248    4.4695    1.6983 O   0  0  0  0  0  0  0  0  0  0  0  0
   12.4260    4.6175    1.7140 O   0  0  0  0  0  0  0  0  0  0  0  0
   12.4969    6.8588    1.5938 O   0  0  0  0  0  0  0  0  0  0  0  0
    4.4479   -0.9717    0.0591 O   0  0  0  0  0  0  0  0  0  0  0  0
    4.5254    1.2369   -0.1046 N   0  0  0  0  0  0  0  0  0  0  0  0
   10.2884    5.8265    1.6051 C   0  0  0  0  0  0  0  0  0  0  0  0
    4.3376    3.2869    1.3026 C   0  0  0  0  0  0  0  0  0  0  0  0
    5.7786    3.6024    1.4680 C   0  0  0  0  0  0  0  0  0  0  0  0
    4.1614    2.6368   -0.0534 C   0  0  0  0  0  0  0  0  0  0  0  0
    8.4732    4.2476    1.6467 C   0  0  0  0  0  0  0  0  0  0  0  0
    9.9264    6.4716    0.2493 C   0  0  0  0  0  0  0  0  0  0  0  0
    9.8628    6.6319    2.8479 C   0  0  0  0  0  0  0  0  0  0  0  0
    6.1504    4.9287    1.4203 C   0  0  0  0  0  0  0  0  0  0  0  0
    6.7422    2.5946    1.6037 C   0  0  0  0  0  0  0  0  0  0  0  0
    7.4843    5.2340    1.5298 C   0  0  0  0  0  0  0  0  0  0  0  0
    8.0876    2.9151    1.7028 C   0  0  0  0  0  0  0  0  0  0  0  0
   11.8376    5.8383    1.6375 C   0  0  0  0  0  0  0  0  0  0  0  0
    3.8086    0.0701    0.0044 C   0  0  0  0  0  0  0  0  0  0  0  0
    2.3037    0.0336    0.0161 C   0  0  0  0  0  0  0  0  0  0  0  0
    1.4541    1.1427   -0.0019 C   0  0  0  0  0  0  0  0  0  0  0  0
    1.6773   -1.2189    0.0122 C   0  0  0  0  0  0  0  0  0  0  0  0
    0.0733    1.0654   -0.0111 C   0  0  0  0  0  0  0  0  0  0  0  0
    0.2712   -1.3135   -0.0047 C   0  0  0  0  0  0  0  0  0  0  0  0
   -0.5220   -0.1676   -0.0071 C   0  0  0  0  0  0  0  0  0  0  0  0
   11.7746    3.8887    1.7424 H   0  0  0  0  0  0  0  0  0  0  0  0
    5.5192    1.0446   -0.1836 H   0  0  0  0  0  0  0  0  0  0  0  0
    3.7481    4.2165    1.3163 H   0  0  0  0  0  0  0  0  0  0  0  0
    3.9816    2.6915    2.1494 H   0  0  0  0  0  0  0  0  0  0  0  0
    4.6546    3.1538   -0.8795 H   0  0  0  0  0  0  0  0  0  0  0  0
    3.1456    2.7975   -0.2881 H   0  0  0  0  0  0  0  0  0  0  0  0
    8.8614    6.5355    0.0281 H   0  0  0  0  0  0  0  0  0  0  0  0
   10.3010    7.4959    0.1883 H   0  0  0  0  0  0  0  0  0  0  0  0
   10.3350    5.8853   -0.5815 H   0  0  0  0  0  0  0  0  0  0  0  0
   10.2306    6.1488    3.7601 H   0  0  0  0  0  0  0  0  0  0  0  0
   10.2344    7.6573    2.8019 H   0  0  0  0  0  0  0  0  0  0  0  0
    8.7871    6.7075    3.0062 H   0  0  0  0  0  0  0  0  0  0  0  0
    5.4276    5.7313    1.2893 H   0  0  0  0  0  0  0  0  0  0  0  0
    6.4530    1.5474    1.6164 H   0  0  0  0  0  0  0  0  0  0  0  0
    7.6728    6.2964    1.5090 H   0  0  0  0  0  0  0  0  0  0  0  0
    8.8120    2.1163    1.8283 H   0  0  0  0  0  0  0  0  0  0  0  0
    1.7184    2.1700   -0.0102 H   0  0  0  0  0  0  0  0  0  0  0  0
    2.2717   -2.1330    0.0115 H   0  0  0  0  0  0  0  0  0  0  0  0
   -0.4855    1.9975   -0.0260 H   0  0  0  0  0  0  0  0  0  0  0  0
   -0.2017   -2.2888   -0.0220 H   0  0  0  0  0  0  0  0  0  0  0  0
  1 25  1  0  0  0  0
  2  7  1  0  0  0  0
  2 11  1  0  0  0  0
  3 18  1  0  0  0  0
  3 26  1  0  0  0  0
  4 18  2  0  0  0  0
  5 19  2  0  0  0  0
  6 10  1  0  0  0  0
  6 19  1  0  0  0  0
  6 27  1  0  0  0  0
  7 12  1  0  0  0  0
  7 13  1  0  0  0  0
  7 18  1  0  0  0  0
  8  9  1  0  0  0  0
  8 10  1  0  0  0  0
  8 28  1  0  0  0  0
  8 29  1  0  0  0  0
  9 14  2  0  0  0  0
  9 15  1  0  0  0  0
 10 30  1  0  0  0  0
 10 31  1  0  0  0  0
 11 16  2  0  0  0  0
 11 17  1  0  0  0  0
 12 32  1  0  0  0  0
 12 33  1  0  0  0  0
 12 34  1  0  0  0  0
 13 35  1  0  0  0  0
 13 36  1  0  0  0  0
 13 37  1  0  0  0  0
 14 16  1  0  0  0  0
 14 38  1  0  0  0  0
 15 17  2  0  0  0  0
 15 39  1  0  0  0  0
 16 40  1  0  0  0  0
 17 41  1  0  0  0  0
 19 20  1  0  0  0  0
 20 21  2  0  0  0  0
 20 22  1  0  0  0  0
 21 23  1  0  0  0  0
 21 42  1  0  0  0  0
 22 24  2  0  0  0  0
 22 43  1  0  0  0  0
 23 25  2  0  0  0  0
 23 44  1  0  0  0  0
 24 25  1  0  0  0  0
 24 45  1  0  0  0  0
M  END
>  <DRUGBANK_ID>
DB01393

>  <SECONDARY_ACCESSION_NUMBERS>
DB08380

>  <COMMON_NAME>
Bezafibrate

>  <CAS_NUMBER>
41859-67-0

>  <UNII>
Y9449Q51XH

>  <SYNONYMS>
2-(p-(2-(p-Chlorobenzamido)ethyl)phenoxy)-2-methylpropionic acid; Bezafibrate; Bezafibrato; Bezafibratum

$$$$
