
 OpenBabel10282417223D

101105  0  0  0  0  0  0  0  0999 V2000
   -8.2780   -2.6203    2.1081 C   0  0  0  0  0  0  0  0  0  0  0  0
   -8.4354    3.7283   -4.3294 C   0  0  0  0  0  0  0  0  0  0  0  0
   -4.2775   -3.7614   -3.9871 C   0  0  0  0  0  0  0  0  0  0  0  0
   -6.3507    3.8512   -2.9430 C   0  0  0  0  0  0  0  0  0  0  0  0
   -9.3112    4.1970   -5.3171 C   0  0  0  0  0  0  0  0  0  0  0  0
   -3.2206   -2.8256   -3.1398 C   0  0  0  0  0  0  0  0  0  0  0  0
   -6.2475    2.5313   -2.7263 C   0  0  0  0  0  0  0  0  0  0  0  0
   -6.4106   -3.8740   -5.7723 C   0  0  0  0  0  0  0  0  0  0  0  0
   -7.9772   -3.5219   -5.6558 C   0  0  0  0  0  0  0  0  0  0  0  0
   -6.8682    5.4274   -4.9557 C   0  0  0  0  0  0  0  0  0  0  0  0
   -5.1078   -2.1041   -4.5354 C   0  0  0  0  0  0  0  0  0  0  0  0
   -4.6553    3.3665   -5.0027 C   0  0  0  0  0  0  0  0  0  0  0  0
   -3.9179   -0.6609   -6.0384 C   0  0  0  0  0  0  0  0  0  0  0  0
   -8.1574   -2.4678    0.6143 C   0  0  1  0  0  0  0  0  0  0  0  0
   -7.2272    4.3798   -4.0617 C   0  0  0  0  0  0  0  0  0  0  0  0
   -5.2755   -3.3828   -4.8148 C   0  0  0  0  0  0  0  0  0  0  0  0
   -8.9556    5.2742   -6.1262 C   0  0  0  0  0  0  0  0  0  0  0  0
   -3.0216   -1.4746   -3.1547 C   0  0  0  0  0  0  0  0  0  0  0  0
   -7.7117    5.8530   -5.9840 C   0  0  0  0  0  0  0  0  0  0  0  0
   -3.9917   -1.0432   -3.8301 C   0  0  0  0  0  0  0  0  0  0  0  0
   -4.3448    2.9307   -6.3664 C   0  0  2  0  0  0  0  0  0  0  0  0
   -5.6556   -0.0689   -5.3278 C   0  0  2  0  0  0  0  0  0  0  0  0
   -5.2019    1.7770   -2.0048 C   0  0  0  0  0  0  0  0  0  0  0  0
   -9.0809   -3.5025   -0.0678 C   0  0  1  0  0  0  0  0  0  0  0  0
   -5.5614    3.0911   -7.2755 C   0  0  2  0  0  0  0  0  0  0  0  0
   -9.0744   -3.2352   -1.5345 C   0  0  2  0  0  0  0  0  0  0  0  0
   -5.2316    2.4154   -8.5890 C   0  0  1  0  0  0  0  0  0  0  0  0
   -4.9078    0.9715   -8.3950 C   0  0  2  0  0  0  0  0  0  0  0  0
   -9.5329   -1.8069   -1.6940 C   0  0  2  0  0  0  0  0  0  0  0  0
   -8.1321   -1.0917   -4.1126 C   0  0  2  0  0  0  0  0  0  0  0  0
   -6.0788   -0.1831   -3.4048 C   0  0  2  0  0  0  0  0  0  0  0  0
   -7.4630   -0.2940   -3.0371 C   0  0  2  0  0  0  0  0  0  0  0  0
   -3.7541    0.9692   -7.4377 C   0  0  2  0  0  0  0  0  0  0  0  0
   -7.8593   -1.0419   -5.6144 C   0  0  2  0  0  0  0  0  0  0  0  0
   -8.6047   -0.8170   -1.0349 C   0  0  1  0  0  0  0  0  0  0  0  0
   -3.5788    3.1480   -4.1203 O   0  0  0  0  0  0  0  0  0  0  0  0
   -9.8106    5.8027   -7.0465 O   0  0  0  0  0  0  0  0  0  0  0  0
   -2.1572   -0.5457   -2.6576 O   0  0  0  0  0  0  0  0  0  0  0  0
   -7.2655    6.8379   -6.8262 O   0  0  0  0  0  0  0  0  0  0  0  0
   -4.0103    0.4425   -3.8721 O   0  0  0  0  0  0  0  0  0  0  0  0
   -4.1921    2.2290   -1.5360 O   0  0  0  0  0  0  0  0  0  0  0  0
   -8.6505   -4.8345    0.1674 O   0  0  0  0  0  0  0  0  0  0  0  0
   -5.7756    4.4588   -7.5236 O   0  0  0  0  0  0  0  0  0  0  0  0
   -9.9438   -4.0773   -2.2926 O   0  0  0  0  0  0  0  0  0  0  0  0
   -6.2841    2.5533   -9.5211 O   0  0  0  0  0  0  0  0  0  0  0  0
   -4.4480    0.3811   -9.6108 O   0  0  0  0  0  0  0  0  0  0  0  0
  -10.8957   -1.4877   -1.5509 O   0  0  0  0  0  0  0  0  0  0  0  0
   -9.4916   -0.6227   -4.1057 O   0  0  0  0  0  0  0  0  0  0  0  0
   -8.4393   -2.2370   -6.1725 O   0  0  0  0  0  0  0  0  0  0  0  0
   -3.5494   -0.3940   -7.3365 O   0  0  0  0  0  0  0  0  0  0  0  0
   -8.5111   -1.1074    0.3462 O   0  0  0  0  0  0  0  0  0  0  0  0
   -4.0330    1.5878   -6.2069 O   0  0  0  0  0  0  0  0  0  0  0  0
   -6.5845   -0.8383   -6.1731 O   0  0  0  0  0  0  0  0  0  0  0  0
   -5.4030    0.4638   -2.1972 O   0  0  0  0  0  0  0  0  0  0  0  0
   -7.3868   -0.9368   -1.7081 O   0  0  0  0  0  0  0  0  0  0  0  0
   -9.3095   -2.4060    2.4110 H   0  0  0  0  0  0  0  0  0  0  0  0
   -8.0084   -3.6313    2.4146 H   0  0  0  0  0  0  0  0  0  0  0  0
   -7.6347   -1.8924    2.6076 H   0  0  0  0  0  0  0  0  0  0  0  0
   -8.7184    2.8466   -3.7629 H   0  0  0  0  0  0  0  0  0  0  0  0
   -4.1986   -4.8177   -3.8457 H   0  0  0  0  0  0  0  0  0  0  0  0
   -5.5398    4.4569   -2.5530 H   0  0  0  0  0  0  0  0  0  0  0  0
  -10.2781    3.7166   -5.4066 H   0  0  0  0  0  0  0  0  0  0  0  0
   -2.6138   -3.3497   -2.4411 H   0  0  0  0  0  0  0  0  0  0  0  0
   -6.7338    1.9302   -3.4683 H   0  0  0  0  0  0  0  0  0  0  0  0
   -6.3682   -4.9610   -5.7445 H   0  0  0  0  0  0  0  0  0  0  0  0
   -6.1910   -3.5800   -6.8196 H   0  0  0  0  0  0  0  0  0  0  0  0
   -8.3355   -3.7230   -4.6407 H   0  0  0  0  0  0  0  0  0  0  0  0
   -8.5652   -4.2459   -6.2530 H   0  0  0  0  0  0  0  0  0  0  0  0
   -5.8857    5.8955   -4.9921 H   0  0  0  0  0  0  0  0  0  0  0  0
   -6.1159   -1.8374   -4.6695 H   0  0  0  0  0  0  0  0  0  0  0  0
   -4.7998    4.4220   -4.9952 H   0  0  0  0  0  0  0  0  0  0  0  0
   -5.5582    2.7929   -4.8078 H   0  0  0  0  0  0  0  0  0  0  0  0
   -3.0201   -0.2048   -5.5328 H   0  0  0  0  0  0  0  0  0  0  0  0
   -3.6101   -1.7189   -5.9433 H   0  0  0  0  0  0  0  0  0  0  0  0
   -7.1123   -2.6229    0.3131 H   0  0  0  0  0  0  0  0  0  0  0  0
   -3.4412    3.4556   -6.6454 H   0  0  0  0  0  0  0  0  0  0  0  0
   -5.9520    0.9250   -5.6164 H   0  0  0  0  0  0  0  0  0  0  0  0
  -10.1190   -3.3930    0.2628 H   0  0  0  0  0  0  0  0  0  0  0  0
   -6.4979    2.6644   -6.8667 H   0  0  0  0  0  0  0  0  0  0  0  0
   -8.0616   -3.4063   -1.9425 H   0  0  0  0  0  0  0  0  0  0  0  0
   -4.3353    2.9024   -8.9805 H   0  0  0  0  0  0  0  0  0  0  0  0
   -5.7815    0.3918   -8.0534 H   0  0  0  0  0  0  0  0  0  0  0  0
   -9.4606   -1.8576   -2.7289 H   0  0  0  0  0  0  0  0  0  0  0  0
   -7.9789   -2.1283   -3.7630 H   0  0  0  0  0  0  0  0  0  0  0  0
   -5.8546   -1.1930   -2.9877 H   0  0  0  0  0  0  0  0  0  0  0  0
   -7.8822    0.6726   -2.8466 H   0  0  0  0  0  0  0  0  0  0  0  0
   -2.8239    1.4167   -7.7665 H   0  0  0  0  0  0  0  0  0  0  0  0
   -8.3921   -0.1516   -5.9435 H   0  0  0  0  0  0  0  0  0  0  0  0
   -8.9038    0.2339   -1.1038 H   0  0  0  0  0  0  0  0  0  0  0  0
   -3.7556    2.4789   -3.4333 H   0  0  0  0  0  0  0  0  0  0  0  0
  -10.6812    5.3896   -6.9215 H   0  0  0  0  0  0  0  0  0  0  0  0
   -2.3855   -0.3299   -1.7453 H   0  0  0  0  0  0  0  0  0  0  0  0
   -7.9937    7.0310   -7.4478 H   0  0  0  0  0  0  0  0  0  0  0  0
   -3.8333    1.0060   -4.6656 H   0  0  0  0  0  0  0  0  0  0  0  0
   -7.8051   -4.9587   -0.3004 H   0  0  0  0  0  0  0  0  0  0  0  0
   -4.9172    4.9085   -7.5745 H   0  0  0  0  0  0  0  0  0  0  0  0
  -10.8396   -3.6982   -2.1962 H   0  0  0  0  0  0  0  0  0  0  0  0
   -7.0364    2.0380   -9.1841 H   0  0  0  0  0  0  0  0  0  0  0  0
   -3.4955    0.5862   -9.6441 H   0  0  0  0  0  0  0  0  0  0  0  0
  -11.0932   -1.4643   -0.6074 H   0  0  0  0  0  0  0  0  0  0  0  0
   -9.5289    0.2083   -3.6101 H   0  0  0  0  0  0  0  0  0  0  0  0
  1 56  1  0  0  0  0
  1 57  1  0  0  0  0
  1 58  1  0  0  0  0
  2 59  1  0  0  0  0
  3 60  1  0  0  0  0
  4 61  1  0  0  0  0
  5  2  2  0  0  0  0
  5 62  1  0  0  0  0
  6  3  2  0  0  0  0
  6 63  1  0  0  0  0
  7  4  2  0  0  0  0
  7 64  1  0  0  0  0
  8 65  1  0  0  0  0
  8 66  1  0  0  0  0
  9  8  1  0  0  0  0
  9 67  1  0  0  0  0
  9 68  1  0  0  0  0
 10 69  1  0  0  0  0
 11 70  1  0  0  0  0
 12 71  1  0  0  0  0
 12 72  1  0  0  0  0
 13 73  1  0  0  0  0
 13 74  1  0  0  0  0
 14  1  1  0  0  0  0
 14 51  1  0  0  0  0
 14 75  1  6  0  0  0
 15  2  1  0  0  0  0
 15  4  1  0  0  0  0
 15 10  2  0  0  0  0
 16  3  1  0  0  0  0
 16  8  1  0  0  0  0
 16 11  2  0  0  0  0
 17  5  1  0  0  0  0
 18  6  1  0  0  0  0
 19 10  1  0  0  0  0
 19 17  2  0  0  0  0
 20 11  1  0  0  0  0
 20 18  2  0  0  0  0
 21 12  1  0  0  0  0
 21 52  1  0  0  0  0
 21 76  1  6  0  0  0
 22 13  1  0  0  0  0
 22 53  1  0  0  0  0
 22 77  1  6  0  0  0
 23  7  1  0  0  0  0
 24 14  1  0  0  0  0
 24 26  1  0  0  0  0
 24 42  1  0  0  0  0
 24 78  1  1  0  0  0
 25 21  1  0  0  0  0
 25 27  1  0  0  0  0
 25 43  1  0  0  0  0
 25 79  1  1  0  0  0
 26 29  1  0  0  0  0
 26 44  1  0  0  0  0
 26 80  1  6  0  0  0
 27 28  1  0  0  0  0
 27 45  1  0  0  0  0
 27 81  1  6  0  0  0
 28 33  1  0  0  0  0
 28 46  1  0  0  0  0
 28 82  1  1  0  0  0
 29 35  1  0  0  0  0
 29 47  1  0  0  0  0
 29 83  1  6  0  0  0
 30 32  1  0  0  0  0
 30 34  1  0  0  0  0
 30 48  1  0  0  0  0
 30 84  1  1  0  0  0
 31 22  1  0  0  0  0
 31 54  1  0  0  0  0
 31 85  1  1  0  0  0
 32 31  1  0  0  0  0
 32 55  1  0  0  0  0
 32 86  1  1  0  0  0
 33 52  1  0  0  0  0
 33 87  1  6  0  0  0
 33 50  1  0  0  0  0
 34 49  1  0  0  0  0
 34 53  1  0  0  0  0
 34 88  1  6  0  0  0
 35 51  1  0  0  0  0
 35 55  1  0  0  0  0
 35 89  1  6  0  0  0
 36 12  1  0  0  0  0
 36 90  1  0  0  0  0
 37 17  1  0  0  0  0
 37 91  1  0  0  0  0
 38 18  1  0  0  0  0
 38 92  1  0  0  0  0
 39 19  1  0  0  0  0
 39 93  1  0  0  0  0
 40 20  1  0  0  0  0
 40 94  1  0  0  0  0
 41 23  2  0  0  0  0
 42 95  1  0  0  0  0
 43 96  1  0  0  0  0
 44 97  1  0  0  0  0
 45 98  1  0  0  0  0
 46 99  1  0  0  0  0
 47100  1  0  0  0  0
 48101  1  0  0  0  0
 49  9  1  0  0  0  0
 50 13  1  0  0  0  0
 54 23  1  0  0  0  0
M  END
>  <DRUGBANK_ID>
DB15488

>  <COMMON_NAME>
Echinacoside

>  <CAS_NUMBER>
82854-37-3

>  <UNII>
I04O1DT48T

$$$$
