80A
 OpenBabel10282417163D

 44 46  0  0  0  0  0  0  0  0999 V2000
    1.8055   -0.1990   -0.0140 C   0  0  0  0  0  0  0  0  0  0  0  0
    1.2313    1.1333    0.0904 C   0  0  0  0  0  0  0  0  0  0  0  0
   -0.1112    1.2666    0.0802 C   0  0  0  0  0  0  0  0  0  0  0  0
   -0.6665   -0.0225   -0.2342 C   0  0  0  0  0  0  0  0  0  0  0  0
   -0.2740   -1.3139    0.0178 C   0  0  0  0  0  0  0  0  0  0  0  0
    0.9923   -1.4214    0.0058 C   0  0  0  0  0  0  0  0  0  0  0  0
    1.3706   -2.8890   -0.0412 C   0  0  1  0  0  0  0  0  0  0  0  0
    0.8427   -3.5489   -1.2125 O   0  0  0  0  0  0  0  0  0  0  0  0
    2.8308   -2.9706    0.0209 C   0  0  0  0  0  0  0  0  0  0  0  0
    3.4744   -2.3846    1.1228 C   0  0  0  0  0  0  0  0  0  0  0  0
    4.8185   -2.1742    1.0152 C   0  0  0  0  0  0  0  0  0  0  0  0
    5.5402   -2.5673   -0.0561 N   0  0  0  0  0  0  0  0  0  0  0  0
    4.8777   -3.1509   -1.0853 C   0  0  0  0  0  0  0  0  0  0  0  0
    3.5291   -3.3475   -1.1112 C   0  0  0  0  0  0  0  0  0  0  0  0
   -0.7500    2.5547    0.1251 O   0  0  0  0  0  0  0  0  0  0  0  0
   -2.2727    3.1006    0.2910 C   0  0  0  0  0  0  0  0  0  0  0  0
   -3.4174    2.5400   -0.8286 C   0  0  0  0  0  0  0  0  0  0  0  0
   -3.6969    1.1315   -0.5674 N   0  0  0  0  0  0  0  0  0  0  0  0
   -4.0951   -0.1402   -1.1446 C   0  0  0  0  0  0  0  0  0  0  0  0
   -4.3304   -0.8556    0.2318 C   0  0  0  0  0  0  0  0  0  0  0  0
   -3.1628   -0.5028    1.0928 C   0  0  0  0  0  0  0  0  0  0  0  0
   -2.8472    0.7807    0.4961 C   0  0  0  0  0  0  0  0  0  0  0  0
    0.9197   -3.4068    0.8199 H   0  0  0  0  0  0  0  0  0  0  0  0
    2.8714   -0.2409   -0.1414 H   0  0  0  0  0  0  0  0  0  0  0  0
    1.8709    2.0135    0.0277 H   0  0  0  0  0  0  0  0  0  0  0  0
   -1.4359   -0.2018   -0.9645 H   0  0  0  0  0  0  0  0  0  0  0  0
   -1.0003   -2.1368   -0.1451 H   0  0  0  0  0  0  0  0  0  0  0  0
   -0.1183   -3.4303   -1.2670 H   0  0  0  0  0  0  0  0  0  0  0  0
    2.8997   -1.9255    1.9309 H   0  0  0  0  0  0  0  0  0  0  0  0
    5.3452   -1.6221    1.7850 H   0  0  0  0  0  0  0  0  0  0  0  0
    5.4686   -3.4473   -1.9407 H   0  0  0  0  0  0  0  0  0  0  0  0
    3.0093   -3.7034   -1.9972 H   0  0  0  0  0  0  0  0  0  0  0  0
   -2.6645    2.9233    1.3293 H   0  0  0  0  0  0  0  0  0  0  0  0
   -2.2537    4.1971    0.3330 H   0  0  0  0  0  0  0  0  0  0  0  0
   -4.4070    2.9666   -0.6198 H   0  0  0  0  0  0  0  0  0  0  0  0
   -3.0528    2.8950   -1.7979 H   0  0  0  0  0  0  0  0  0  0  0  0
   -3.3434   -0.7556   -1.6843 H   0  0  0  0  0  0  0  0  0  0  0  0
   -4.9917   -0.1224   -1.7627 H   0  0  0  0  0  0  0  0  0  0  0  0
   -5.1925   -0.4031    0.7310 H   0  0  0  0  0  0  0  0  0  0  0  0
   -4.3907   -1.9380    0.2052 H   0  0  0  0  0  0  0  0  0  0  0  0
   -3.3446   -0.2425    2.1390 H   0  0  0  0  0  0  0  0  0  0  0  0
   -2.3888   -1.2605    1.1350 H   0  0  0  0  0  0  0  0  0  0  0  0
   -2.3334    1.2789    1.3016 H   0  0  0  0  0  0  0  0  0  0  0  0
   -2.1540    1.0047   -0.2613 H   0  0  0  0  0  0  0  0  0  0  0  0
  1  6  2  0  0  0  0
  1  2  1  0  0  0  0
  1 24  1  0  0  0  0
  2  3  2  0  0  0  0
  2 25  1  0  0  0  0
  3  4  1  0  0  0  0
  3 15  1  0  0  0  0
  4 26  1  0  0  0  0
  5  4  2  0  0  0  0
  5 27  1  0  0  0  0
  6  5  1  0  0  0  0
  7  6  1  0  0  0  0
  7 23  1  1  0  0  0
  7  8  1  0  0  0  0
  8 28  1  0  0  0  0
  9  7  1  0  0  0  0
  9 14  1  0  0  0  0
 10  9  2  0  0  0  0
 10 29  1  0  0  0  0
 11 10  1  0  0  0  0
 11 12  2  0  0  0  0
 11 30  1  0  0  0  0
 12 13  1  0  0  0  0
 13 14  2  0  0  0  0
 13 31  1  0  0  0  0
 14 32  1  0  0  0  0
 16 15  1  0  0  0  0
 16 17  1  0  0  0  0
 16 33  1  0  0  0  0
 16 34  1  0  0  0  0
 17 35  1  0  0  0  0
 17 36  1  0  0  0  0
 18 17  1  0  0  0  0
 18 19  1  0  0  0  0
 19 37  1  0  0  0  0
 19 38  1  0  0  0  0
 20 19  1  0  0  0  0
 20 39  1  0  0  0  0
 20 40  1  0  0  0  0
 21 20  1  0  0  0  0
 21 22  1  0  0  0  0
 21 41  1  0  0  0  0
 21 42  1  0  0  0  0
 22 18  1  0  0  0  0
 22 43  1  0  0  0  0
 22 44  1  0  0  0  0
M  END
>  <DRUGBANK_ID>
DB07258

>  <COMMON_NAME>
(R)-pyridin-4-yl[4-(2-pyrrolidin-1-ylethoxy)phenyl]methanol

$$$$
