451
 OpenBabel10282417103D

 35 36  0  0  1  0  0  0  0  0999 V2000
    4.4941   -4.0455   -6.0891 I   0  0  0  0  0  0  0  0  0  0  0  0
    3.3789   -9.3596   -2.8857 I   0  0  0  0  0  0  0  0  0  0  0  0
    8.9675   -4.4119   -6.3974 I   0  0  0  0  0  0  0  0  0  0  0  0
    5.4447   -7.4691  -10.3371 I   0  0  0  0  0  0  0  0  0  0  0  0
    4.8149   -7.6061   -5.0845 O   0  0  0  0  0  0  0  0  0  0  0  0
   -0.0823   -6.7831   -2.4019 O   0  0  0  0  0  0  0  0  0  0  0  0
    0.5841   -6.9134   -0.2593 O   0  0  0  0  0  0  0  0  0  0  0  0
    7.8377   -5.6196   -9.2035 O   0  0  0  0  0  0  0  0  0  0  0  0
   -0.0408   -4.1026   -0.1452 N   0  0  0  0  0  0  0  0  0  0  0  0
    2.1134   -4.3062   -1.3165 C   0  0  0  0  0  0  0  0  0  0  0  0
    0.6146   -4.6977   -1.3202 C   0  0  1  0  0  0  0  0  0  0  0  0
    2.9459   -5.1088   -2.2796 C   0  0  0  0  0  0  0  0  0  0  0  0
    3.0755   -6.4883   -2.1286 C   0  0  0  0  0  0  0  0  0  0  0  0
    3.5247   -4.5068   -3.3848 C   0  0  0  0  0  0  0  0  0  0  0  0
    4.2231   -6.6842   -4.2553 C   0  0  0  0  0  0  0  0  0  0  0  0
    4.1164   -5.2795   -4.3947 C   0  0  0  0  0  0  0  0  0  0  0  0
    3.6365   -7.2739   -3.1254 C   0  0  0  0  0  0  0  0  0  0  0  0
    0.3676   -6.2227   -1.2555 C   0  0  0  0  0  0  0  0  0  0  0  0
    5.6936   -7.2006   -6.0401 C   0  0  0  0  0  0  0  0  0  0  0  0
    5.3455   -7.5421   -7.3438 C   0  0  0  0  0  0  0  0  0  0  0  0
    6.8252   -6.4346   -5.7560 C   0  0  0  0  0  0  0  0  0  0  0  0
    7.5325   -5.8782   -6.8226 C   0  0  0  0  0  0  0  0  0  0  0  0
    6.0839   -7.0232   -8.4009 C   0  0  0  0  0  0  0  0  0  0  0  0
    7.1694   -6.1761   -8.1459 C   0  0  0  0  0  0  0  0  0  0  0  0
   -0.2255   -6.1797   -3.1538 H   0  0  0  0  0  0  0  0  0  0  0  0
    8.5527   -5.0626   -8.8498 H   0  0  0  0  0  0  0  0  0  0  0  0
   -1.0186   -4.3837   -0.1056 H   0  0  0  0  0  0  0  0  0  0  0  0
    0.0290   -3.0923   -0.1228 H   0  0  0  0  0  0  0  0  0  0  0  0
    2.5600   -4.4001   -0.3205 H   0  0  0  0  0  0  0  0  0  0  0  0
    2.1911   -3.2370   -1.5742 H   0  0  0  0  0  0  0  0  0  0  0  0
    0.1369   -4.3053   -2.2278 H   0  0  0  0  0  0  0  0  0  0  0  0
    2.6823   -6.9806   -1.2440 H   0  0  0  0  0  0  0  0  0  0  0  0
    3.4782   -3.4233   -3.4837 H   0  0  0  0  0  0  0  0  0  0  0  0
    4.4583   -8.1497   -7.5085 H   0  0  0  0  0  0  0  0  0  0  0  0
    7.0470   -6.1616   -4.7265 H   0  0  0  0  0  0  0  0  0  0  0  0
  1 16  1  0  0  0  0
  2 17  1  0  0  0  0
  3 22  1  0  0  0  0
  4 23  1  0  0  0  0
  5 15  1  0  0  0  0
  5 19  1  0  0  0  0
  6 18  1  0  0  0  0
  6 25  1  0  0  0  0
  7 18  2  0  0  0  0
  8 24  1  0  0  0  0
  8 26  1  0  0  0  0
  9 27  1  0  0  0  0
  9 28  1  0  0  0  0
 10 12  1  0  0  0  0
 10 29  1  0  0  0  0
 10 30  1  0  0  0  0
 11 18  1  0  0  0  0
 11 31  1  6  0  0  0
 11 10  1  0  0  0  0
 11  9  1  0  0  0  0
 12 13  2  0  0  0  0
 12 14  1  0  0  0  0
 13 17  1  0  0  0  0
 13 32  1  0  0  0  0
 14 16  2  0  0  0  0
 14 33  1  0  0  0  0
 15 16  1  0  0  0  0
 15 17  2  0  0  0  0
 19 20  2  0  0  0  0
 19 21  1  0  0  0  0
 20 23  1  0  0  0  0
 20 34  1  0  0  0  0
 21 22  2  0  0  0  0
 21 35  1  0  0  0  0
 22 24  1  0  0  0  0
 23 24  2  0  0  0  0
M  END
>  <DRUGBANK_ID>
DB00451

>  <SECONDARY_ACCESSION_NUMBERS>
APRD00235; EXPT02993

>  <COMMON_NAME>
Levothyroxine

>  <CAS_NUMBER>
51-48-9

>  <UNII>
Q51BO43MG4

>  <SYNONYMS>
3,3',5,5'-Tetraiodo-L-thyronine; 3,5,3',5'-Tetraiodo-L-thyronine; 4-(4-Hydroxy-3,5-diiodophenoxy)-3,5-diiodo-L-phenylalanine; L-T4; L-Thyroxine; Levothyroxin; LT4; O-(4-Hydroxy-3,5-diidophenyl)-3,5-diiodo-L-tyrosine; O-(4-Hydroxy-3,5-diiodophenyl)-3,5-diiodo-L-tyrosine; T4; Thyroxine

$$$$
