
 OpenBabel10282417133D

 59 60  0  0  0  0  0  0  0  0999 V2000
    0.6048   -1.2136    0.0144 C   0  0  0  0  0  0  0  0  0  0  0  0
   -0.8619   -0.9556   -0.3016 C   0  0  0  0  0  0  0  0  0  0  0  0
   -1.1520    0.4295    0.2103 N   0  0  0  0  0  0  0  0  0  0  0  0
    0.1447    1.3285   -0.1372 C   0  0  2  0  0  0  0  0  0  0  0  0
    1.2774    0.1728   -0.2908 C   0  0  0  0  0  0  0  0  0  0  0  0
    0.4775    2.5671    0.8173 C   0  0  0  0  0  0  0  0  0  0  0  0
    0.6655    3.7253    0.5583 O   0  0  0  0  0  0  0  0  0  0  0  0
    0.7888    2.2080    2.0709 N   0  0  0  0  0  0  0  0  0  0  0  0
   -1.9792    0.4120    1.9525 S   0  0  0  0  0  0  0  0  0  0  0  0
   -0.7834   -0.5768    3.4586 C   0  0  0  0  0  0  0  0  0  0  0  0
   -2.1411    1.7953    2.3131 O   0  0  0  0  0  0  0  0  0  0  0  0
   -3.1487   -0.4594    1.8414 O   0  0  0  0  0  0  0  0  0  0  0  0
    0.3168   -0.0679    4.2002 C   0  0  0  0  0  0  0  0  0  0  0  0
    1.3684   -1.0392    4.4529 C   0  0  0  0  0  0  0  0  0  0  0  0
    1.2305   -2.2321    4.7977 C   0  0  0  0  0  0  0  0  0  0  0  0
   -0.1457   -2.4139    4.8652 C   0  0  0  0  0  0  0  0  0  0  0  0
   -1.0551   -1.8172    3.8852 C   0  0  0  0  0  0  0  0  0  0  0  0
    2.4848   -2.4549    5.6299 C   0  0  0  0  0  0  0  0  0  0  0  0
    2.0996   -3.0434    6.7256 N   0  0  0  0  0  0  0  0  0  0  0  0
    3.1021   -3.6019    7.5487 C   0  0  1  0  0  0  0  0  0  0  0  0
    2.5912   -3.4076    8.9642 C   0  0  0  0  0  0  0  0  0  0  0  0
    1.2087   -4.0237    9.2462 C   0  0  0  0  0  0  0  0  0  0  0  0
    1.1011   -5.5226    9.0624 C   0  0  0  0  0  0  0  0  0  0  0  0
    3.6094   -1.9272    5.5219 O   0  0  0  0  0  0  0  0  0  0  0  0
    3.4727   -4.9909    6.9905 C   0  0  0  0  0  0  0  0  0  0  0  0
    4.5812   -5.4848    7.0935 O   0  0  0  0  0  0  0  0  0  0  0  0
    2.4726   -5.6658    6.3838 O   0  0  0  0  0  0  0  0  0  0  0  0
    1.1332   -6.3065   10.1397 O   0  0  0  0  0  0  0  0  0  0  0  0
    0.9621   -6.0620    7.9761 O   0  0  0  0  0  0  0  0  0  0  0  0
    0.8797    0.8802    2.2148 C   0  0  0  0  0  0  0  0  0  0  0  0
    2.2996    0.2580    2.8263 C   0  0  0  0  0  0  0  0  0  0  0  0
    2.6403    1.0516    4.5899 C   0  0  0  0  0  0  0  0  0  0  0  0
    2.3193    0.4364    5.9456 O   0  0  0  0  0  0  0  0  0  0  0  0
    2.5720    2.2442    4.6774 O   0  0  0  0  0  0  0  0  0  0  0  0
    0.6819   -1.5705    1.0560 H   0  0  0  0  0  0  0  0  0  0  0  0
    1.0612   -2.0527   -0.5166 H   0  0  0  0  0  0  0  0  0  0  0  0
   -0.9995   -1.0086   -1.3870 H   0  0  0  0  0  0  0  0  0  0  0  0
   -1.5396   -1.6652    0.1730 H   0  0  0  0  0  0  0  0  0  0  0  0
    0.0643    1.8318   -1.1055 H   0  0  0  0  0  0  0  0  0  0  0  0
    2.1609    0.3508    0.3358 H   0  0  0  0  0  0  0  0  0  0  0  0
    1.6671    0.1530   -1.3053 H   0  0  0  0  0  0  0  0  0  0  0  0
    0.6710    2.7810    2.9152 H   0  0  0  0  0  0  0  0  0  0  0  0
    0.7129    0.9761    4.1513 H   0  0  0  0  0  0  0  0  0  0  0  0
    2.5111   -0.8853    4.3427 H   0  0  0  0  0  0  0  0  0  0  0  0
   -0.5533   -2.5855    5.8488 H   0  0  0  0  0  0  0  0  0  0  0  0
   -2.0687   -2.1285    3.7148 H   0  0  0  0  0  0  0  0  0  0  0  0
    1.1767   -3.4439    6.6613 H   0  0  0  0  0  0  0  0  0  0  0  0
    4.0233   -3.0143    7.4333 H   0  0  0  0  0  0  0  0  0  0  0  0
    3.3428   -3.7675    9.6583 H   0  0  0  0  0  0  0  0  0  0  0  0
    2.5010   -2.3114    9.1404 H   0  0  0  0  0  0  0  0  0  0  0  0
    0.8881   -3.7556   10.2535 H   0  0  0  0  0  0  0  0  0  0  0  0
    0.4641   -3.5677    8.5757 H   0  0  0  0  0  0  0  0  0  0  0  0
    2.2459   -6.4542    6.9528 H   0  0  0  0  0  0  0  0  0  0  0  0
    0.7949   -5.9257   10.9654 H   0  0  0  0  0  0  0  0  0  0  0  0
   -0.0673    1.1425    2.7671 H   0  0  0  0  0  0  0  0  0  0  0  0
    0.3510    0.1174    1.6460 H   0  0  0  0  0  0  0  0  0  0  0  0
    2.0672   -0.9401    2.6416 H   0  0  0  0  0  0  0  0  0  0  0  0
    3.1707    0.1048    2.1712 H   0  0  0  0  0  0  0  0  0  0  0  0
    1.8774   -0.3905    6.3306 H   0  0  0  0  0  0  0  0  0  0  0  0
  1  2  1  0  0  0  0
  1  5  1  0  0  0  0
  1 35  1  0  0  0  0
  1 36  1  0  0  0  0
  2  3  1  0  0  0  0
  2 37  1  0  0  0  0
  2 38  1  0  0  0  0
  3  9  1  0  0  0  0
  4  3  1  0  0  0  0
  4  5  1  0  0  0  0
  4  6  1  0  0  0  0
  4 39  1  6  0  0  0
  5 40  1  0  0  0  0
  5 41  1  0  0  0  0
  6  7  2  0  0  0  0
  6  8  1  0  0  0  0
  8 42  1  0  0  0  0
 10  9  1  0  0  0  0
 10 13  2  0  0  0  0
 10 17  1  0  0  0  0
 11  9  2  0  0  0  0
 12  9  2  0  0  0  0
 13 14  1  0  0  0  0
 13 43  1  0  0  0  0
 14 15  2  0  0  0  0
 14 44  1  0  0  0  0
 15 16  1  0  0  0  0
 15 18  1  0  0  0  0
 16 17  2  0  0  0  0
 16 45  1  0  0  0  0
 17 46  1  0  0  0  0
 18 19  1  0  0  0  0
 18 24  2  0  0  0  0
 19 47  1  0  0  0  0
 20 19  1  0  0  0  0
 20 21  1  0  0  0  0
 20 25  1  0  0  0  0
 20 48  1  6  0  0  0
 21 22  1  0  0  0  0
 21 49  1  0  0  0  0
 21 50  1  0  0  0  0
 22 23  1  0  0  0  0
 22 51  1  0  0  0  0
 22 52  1  0  0  0  0
 23 28  1  0  0  0  0
 23 29  2  0  0  0  0
 25 26  2  0  0  0  0
 25 27  1  0  0  0  0
 27 53  1  0  0  0  0
 28 54  1  0  0  0  0
 30  8  1  0  0  0  0
 30 31  1  0  0  0  0
 30 55  1  0  0  0  0
 30 56  1  0  0  0  0
 31 32  1  0  0  0  0
 31 57  1  0  0  0  0
 31 58  1  0  0  0  0
 32 33  1  0  0  0  0
 32 34  2  0  0  0  0
 33 59  1  0  0  0  0
M  END
>  <DRUGBANK_ID>
DB03558

>  <SECONDARY_ACCESSION_NUMBERS>
EXPT03087

>  <COMMON_NAME>
SP-876

>  <SYNONYMS>
1-[(4-{[(1S)-1,3-Dicarboxypropyl]carbamoyl}phenyl)sulfonyl]-D-prolyl-Î²-alanine

$$$$
