
 OpenBabel10282417133D

 31 31  0  0  1  0  0  0  0  0999 V2000
    0.9851   -0.0174   -0.0212 C   0  0  0  0  0  0  0  0  0  0  0  0
    0.9311    1.9731    1.5101 C   0  0  0  0  0  0  0  0  0  0  0  0
   -1.0625    0.4557    1.3607 C   0  0  0  0  0  0  0  0  0  0  0  0
   -6.4689    0.4915    1.1421 C   0  0  0  0  0  0  0  0  0  0  0  0
   -3.9212    0.2134    1.1321 C   0  0  0  0  0  0  0  0  0  0  0  0
    0.4646    0.5379    1.3017 C   0  0  0  0  0  0  0  0  0  0  0  0
   -5.2031   -0.2806    1.1184 C   0  0  0  0  0  0  0  0  0  0  0  0
   -1.6650   -0.9634    1.2175 C   0  0  1  0  0  0  0  0  0  0  0  0
   -1.1881   -1.8879    2.3342 C   0  0  0  0  0  0  0  0  0  0  0  0
   -7.2538    0.2108   -0.0516 N   0  0  0  0  0  0  0  0  0  0  0  0
   -5.1464   -1.6497    1.0942 N   0  0  0  0  0  0  0  0  0  0  0  0
   -3.8687   -2.0124    1.0637 N   0  0  0  0  0  0  0  0  0  0  0  0
   -3.1269   -0.8959    1.1780 N   0  0  0  0  0  0  0  0  0  0  0  0
   -1.8423   -2.4040    3.2288 O   0  0  0  0  0  0  0  0  0  0  0  0
    0.1479   -2.1052    2.3174 O   0  0  0  0  0  0  0  0  0  0  0  0
   -1.3910   -1.4083    0.2532 H   0  0  0  0  0  0  0  0  0  0  0  0
    0.6089    0.5718   -0.8644 H   0  0  0  0  0  0  0  0  0  0  0  0
    0.6767   -1.0553   -0.1792 H   0  0  0  0  0  0  0  0  0  0  0  0
    2.0771   -0.0036   -0.0420 H   0  0  0  0  0  0  0  0  0  0  0  0
    0.5708    2.6319    0.7153 H   0  0  0  0  0  0  0  0  0  0  0  0
    0.5694    2.3571    2.4704 H   0  0  0  0  0  0  0  0  0  0  0  0
    2.0248    2.0077    1.5272 H   0  0  0  0  0  0  0  0  0  0  0  0
   -1.4115    0.8995    2.3040 H   0  0  0  0  0  0  0  0  0  0  0  0
   -1.4516    1.0970    0.5556 H   0  0  0  0  0  0  0  0  0  0  0  0
   -7.0384    0.2531    2.0447 H   0  0  0  0  0  0  0  0  0  0  0  0
   -6.2398    1.5643    1.1701 H   0  0  0  0  0  0  0  0  0  0  0  0
   -3.5545    1.2277    1.1397 H   0  0  0  0  0  0  0  0  0  0  0  0
    0.8966   -0.0220    2.1330 H   0  0  0  0  0  0  0  0  0  0  0  0
   -8.0788    0.8031   -0.0598 H   0  0  0  0  0  0  0  0  0  0  0  0
   -6.7061    0.4383   -0.8785 H   0  0  0  0  0  0  0  0  0  0  0  0
    0.3432   -2.5930    3.1467 H   0  0  0  0  0  0  0  0  0  0  0  0
  1 17  1  0  0  0  0
  1 18  1  0  0  0  0
  1 19  1  0  0  0  0
  2 20  1  0  0  0  0
  2 21  1  0  0  0  0
  2 22  1  0  0  0  0
  3 23  1  0  0  0  0
  3 24  1  0  0  0  0
  4 25  1  0  0  0  0
  4 26  1  0  0  0  0
  5 27  1  0  0  0  0
  6  1  1  0  0  0  0
  6  2  1  0  0  0  0
  6  3  1  0  0  0  0
  6 28  1  0  0  0  0
  7  4  1  0  0  0  0
  7  5  2  0  0  0  0
  8  3  1  0  0  0  0
  8 13  1  0  0  0  0
  8 16  1  6  0  0  0
  9  8  1  0  0  0  0
 10  4  1  0  0  0  0
 10 29  1  0  0  0  0
 10 30  1  0  0  0  0
 11  7  1  0  0  0  0
 12 11  2  0  0  0  0
 13  5  1  0  0  0  0
 13 12  1  0  0  0  0
 14  9  2  0  0  0  0
 15  9  1  0  0  0  0
 15 31  1  0  0  0  0
M  END
>  <DRUGBANK_ID>
DB03244

>  <SECONDARY_ACCESSION_NUMBERS>
EXPT03000

>  <COMMON_NAME>
(S)-2-[4-(Aminomethyl)-1h-1,2,3-Triazol-1-Yl]-4-Methylpentanoic Acid

$$$$
