
 OpenBabel10282417133D

 29 29  0  0  0  0  0  0  0  0999 V2000
    0.8268    0.2426   -0.0790 C   0  0  0  0  0  0  0  0  0  0  0  0
    0.3019    0.0612    1.3582 C   0  0  0  0  0  0  0  0  0  0  0  0
    1.0742    0.7964    2.3639 N   0  0  0  0  0  0  0  0  0  0  0  0
    0.5533    0.5097    3.7093 C   0  0  0  0  0  0  0  0  0  0  0  0
    2.5429    0.5643    2.3087 C   0  0  0  0  0  0  0  0  0  0  0  0
    3.0571   -0.8139    2.6766 C   0  0  0  0  0  0  0  0  0  0  0  0
    4.0500   -0.9075    3.6451 C   0  0  0  0  0  0  0  0  0  0  0  0
    4.5029   -2.0682    4.1616 N   0  0  0  0  0  0  0  0  0  0  0  0
    3.8814   -3.1722    3.7342 C   0  0  0  0  0  0  0  0  0  0  0  0
    4.3036   -4.5273    4.1688 C   0  0  0  0  0  0  0  0  0  0  0  0
    2.9161   -3.1901    2.8183 N   0  0  0  0  0  0  0  0  0  0  0  0
    2.6218   -2.0448    2.2291 C   0  0  0  0  0  0  0  0  0  0  0  0
    1.9536   -2.3303    1.0663 N   0  0  0  0  0  0  0  0  0  0  0  0
    0.5590    1.2165   -0.4849 H   0  0  0  0  0  0  0  0  0  0  0  0
    0.4224   -0.5403   -0.7322 H   0  0  0  0  0  0  0  0  0  0  0  0
    1.9176    0.1611   -0.1719 H   0  0  0  0  0  0  0  0  0  0  0  0
   -0.7554    0.3474    1.3603 H   0  0  0  0  0  0  0  0  0  0  0  0
    0.2481   -0.9860    1.6652 H   0  0  0  0  0  0  0  0  0  0  0  0
    0.8324   -0.4896    4.0618 H   0  0  0  0  0  0  0  0  0  0  0  0
    0.9278    1.2432    4.4311 H   0  0  0  0  0  0  0  0  0  0  0  0
   -0.5411    0.5626    3.7358 H   0  0  0  0  0  0  0  0  0  0  0  0
    2.9691    0.8892    1.3541 H   0  0  0  0  0  0  0  0  0  0  0  0
    2.9664    1.3011    3.0103 H   0  0  0  0  0  0  0  0  0  0  0  0
    4.5297   -0.0194    4.0473 H   0  0  0  0  0  0  0  0  0  0  0  0
    3.4475   -5.0356    4.6232 H   0  0  0  0  0  0  0  0  0  0  0  0
    4.6058   -5.1002    3.2835 H   0  0  0  0  0  0  0  0  0  0  0  0
    5.1324   -4.4815    4.8723 H   0  0  0  0  0  0  0  0  0  0  0  0
    1.3289   -3.1179    1.1861 H   0  0  0  0  0  0  0  0  0  0  0  0
    1.6854   -1.6204    0.4442 H   0  0  0  0  0  0  0  0  0  0  0  0
  1  2  1  0  0  0  0
  1 14  1  0  0  0  0
  1 15  1  0  0  0  0
  1 16  1  0  0  0  0
  2  3  1  0  0  0  0
  2 17  1  0  0  0  0
  2 18  1  0  0  0  0
  3  4  1  0  0  0  0
  3  5  1  0  0  0  0
  4 19  1  0  0  0  0
  4 20  1  0  0  0  0
  4 21  1  0  0  0  0
  5  6  1  0  0  0  0
  5 22  1  0  0  0  0
  5 23  1  0  0  0  0
  6  7  2  0  0  0  0
  6 12  1  0  0  0  0
  7  8  1  0  0  0  0
  7 24  1  0  0  0  0
  8  9  2  0  0  0  0
  9 10  1  0  0  0  0
  9 11  1  0  0  0  0
 10 25  1  0  0  0  0
 10 26  1  0  0  0  0
 10 27  1  0  0  0  0
 11 12  2  0  0  0  0
 12 13  1  0  0  0  0
 13 28  1  0  0  0  0
 13 29  1  0  0  0  0
M  END
>  <DRUGBANK_ID>
DB03653

>  <SECONDARY_ACCESSION_NUMBERS>
EXPT03273

>  <COMMON_NAME>
5-{[Ethyl(Methyl)Amino]Methyl}-2-Methyl-5,6-Dihydropyrimidin-4-Amine

$$$$
