1557
 OpenBabel10282417113D

 56 58  0  0  1  0  0  0  0  0999 V2000
    0.9893    0.0569   -0.1453 O   0  0  0  0  0  0  0  0  0  0  0  0
    5.7240   -2.2082   -1.4572 N   0  0  0  0  0  0  0  0  0  0  0  0
    3.1006    0.7459   -0.9183 N   0  0  0  0  0  0  0  0  0  0  0  0
    4.6639    0.6946   -0.9827 C   0  0  3  0  0  0  0  0  0  0  0  0
    5.4559    0.2449   -2.2508 C   0  0  0  0  0  0  0  0  0  0  0  0
    5.3637   -0.1688    0.0816 C   0  0  0  0  0  0  0  0  0  0  0  0
    5.3467   -1.2403   -2.4720 C   0  0  0  0  0  0  0  0  0  0  0  0
    5.1650   -1.7105   -0.1894 C   0  0  0  0  0  0  0  0  0  0  0  0
    5.0395   -3.5296   -1.8403 C   0  0  3  0  0  0  0  0  0  0  0  0
    3.4179   -3.6547   -1.9708 C   0  0  0  0  0  0  0  0  0  0  0  0
    5.6600   -4.0286   -3.1546 C   0  0  0  0  0  0  0  0  0  0  0  0
    2.4294    1.6901   -1.8874 C   0  0  0  0  0  0  0  0  0  0  0  0
    2.2251    0.0471   -0.0128 C   0  0  0  0  0  0  0  0  0  0  0  0
    2.6450   -2.9379   -3.0985 C   0  0  0  0  0  0  0  0  0  0  0  0
    2.6910   -0.8454    1.1519 C   0  0  0  0  0  0  0  0  0  0  0  0
    1.2251    2.3550   -1.6129 C   0  0  0  0  0  0  0  0  0  0  0  0
    2.8858    1.8890   -3.1980 C   0  0  0  0  0  0  0  0  0  0  0  0
    1.9104   -3.6108   -4.0734 C   0  0  0  0  0  0  0  0  0  0  0  0
    2.5096   -1.5657   -3.2161 C   0  0  0  0  0  0  0  0  0  0  0  0
    2.4447   -0.3249    2.5374 C   0  0  0  0  0  0  0  0  0  0  0  0
    0.5151    3.0784   -2.6063 C   0  0  0  0  0  0  0  0  0  0  0  0
    2.1583    2.5384   -4.2176 C   0  0  0  0  0  0  0  0  0  0  0  0
    1.3296   -2.9171   -5.1674 C   0  0  0  0  0  0  0  0  0  0  0  0
    2.1182   -0.8975   -4.3590 C   0  0  0  0  0  0  0  0  0  0  0  0
    0.9474    3.1146   -3.9263 C   0  0  0  0  0  0  0  0  0  0  0  0
    1.5338   -1.5773   -5.3876 C   0  0  0  0  0  0  0  0  0  0  0  0
    4.9260    1.7460   -0.8145 H   0  0  0  0  0  0  0  0  0  0  0  0
    5.1942    0.7361   -3.1726 H   0  0  0  0  0  0  0  0  0  0  0  0
    6.5130    0.4985   -2.1470 H   0  0  0  0  0  0  0  0  0  0  0  0
    6.4401    0.0273    0.0732 H   0  0  0  0  0  0  0  0  0  0  0  0
    5.0481    0.2005    1.0619 H   0  0  0  0  0  0  0  0  0  0  0  0
    4.3263   -1.3539   -2.3251 H   0  0  0  0  0  0  0  0  0  0  0  0
    5.5279   -1.5136   -3.5113 H   0  0  0  0  0  0  0  0  0  0  0  0
    5.4831   -2.3089    0.6713 H   0  0  0  0  0  0  0  0  0  0  0  0
    4.1001   -1.9011   -0.3002 H   0  0  0  0  0  0  0  0  0  0  0  0
    5.3474   -4.2392   -1.0539 H   0  0  0  0  0  0  0  0  0  0  0  0
    3.2343   -4.7337   -2.0891 H   0  0  0  0  0  0  0  0  0  0  0  0
    2.9480   -3.4218   -1.0065 H   0  0  0  0  0  0  0  0  0  0  0  0
    6.7452   -3.8817   -3.1607 H   0  0  0  0  0  0  0  0  0  0  0  0
    5.4503   -5.0896   -3.3079 H   0  0  0  0  0  0  0  0  0  0  0  0
    5.2458   -3.4961   -4.0166 H   0  0  0  0  0  0  0  0  0  0  0  0
    2.2869   -1.8588    1.0105 H   0  0  0  0  0  0  0  0  0  0  0  0
    3.7317   -1.0103    1.2429 H   0  0  0  0  0  0  0  0  0  0  0  0
    0.7874    2.3255   -0.6190 H   0  0  0  0  0  0  0  0  0  0  0  0
    3.6950    1.3310   -3.6122 H   0  0  0  0  0  0  0  0  0  0  0  0
    1.7238   -4.6682   -3.9623 H   0  0  0  0  0  0  0  0  0  0  0  0
    2.7341   -0.8926   -2.4068 H   0  0  0  0  0  0  0  0  0  0  0  0
    1.3953   -0.4068    2.8055 H   0  0  0  0  0  0  0  0  0  0  0  0
    3.0386   -0.9258    3.2431 H   0  0  0  0  0  0  0  0  0  0  0  0
    2.7961    0.7065    2.6124 H   0  0  0  0  0  0  0  0  0  0  0  0
   -0.4022    3.5982   -2.3456 H   0  0  0  0  0  0  0  0  0  0  0  0
    2.5041    2.4590   -5.2497 H   0  0  0  0  0  0  0  0  0  0  0  0
    0.6577   -3.4258   -5.8501 H   0  0  0  0  0  0  0  0  0  0  0  0
    2.1404    0.1582   -4.4376 H   0  0  0  0  0  0  0  0  0  0  0  0
    0.3514    3.5583   -4.7191 H   0  0  0  0  0  0  0  0  0  0  0  0
    1.1564   -0.9847   -6.2081 H   0  0  0  0  0  0  0  0  0  0  0  0
  1 13  2  0  0  0  0
  2  7  1  0  0  0  0
  2  8  1  0  0  0  0
  2  9  1  0  0  0  0
  3  4  1  0  0  0  0
  3 12  1  0  0  0  0
  3 13  1  0  0  0  0
  4  5  1  0  0  0  0
  4  6  1  0  0  0  0
  4 27  1  0  0  0  0
  5  7  1  0  0  0  0
  5 28  1  0  0  0  0
  5 29  1  0  0  0  0
  6  8  1  0  0  0  0
  6 30  1  0  0  0  0
  6 31  1  0  0  0  0
  7 32  1  0  0  0  0
  7 33  1  0  0  0  0
  8 34  1  0  0  0  0
  8 35  1  0  0  0  0
  9 10  1  0  0  0  0
  9 11  1  0  0  0  0
  9 36  1  0  0  0  0
 10 14  1  0  0  0  0
 10 37  1  0  0  0  0
 10 38  1  0  0  0  0
 11 39  1  0  0  0  0
 11 40  1  0  0  0  0
 11 41  1  0  0  0  0
 12 16  2  0  0  0  0
 12 17  1  0  0  0  0
 13 15  1  0  0  0  0
 14 18  2  0  0  0  0
 14 19  1  0  0  0  0
 15 20  1  0  0  0  0
 15 42  1  0  0  0  0
 15 43  1  0  0  0  0
 16 21  1  0  0  0  0
 16 44  1  0  0  0  0
 17 22  2  0  0  0  0
 17 45  1  0  0  0  0
 18 23  1  0  0  0  0
 18 46  1  0  0  0  0
 19 24  2  0  0  0  0
 19 47  1  0  0  0  0
 20 48  1  0  0  0  0
 20 49  1  0  0  0  0
 20 50  1  0  0  0  0
 21 25  2  0  0  0  0
 21 51  1  0  0  0  0
 22 25  1  0  0  0  0
 22 52  1  0  0  0  0
 23 26  2  0  0  0  0
 23 53  1  0  0  0  0
 24 26  1  0  0  0  0
 24 54  1  0  0  0  0
 25 55  1  0  0  0  0
 26 56  1  0  0  0  0
M  END
>  <DRUGBANK_ID>
DB01557

>  <COMMON_NAME>
Î±-Methylfentanyl

>  <CAS_NUMBER>
79704-88-4

>  <UNII>
8FU589W85C

>  <SYNONYMS>
alpha-methylfentanyl

$$$$
