FSE
 OpenBabel10282417163D

 31 33  0  0  0  0  0  0  0  0999 V2000
   -2.2816    1.3078   -0.0105 C   0  0  0  0  0  0  0  0  0  0  0  0
   -0.9119    1.5796   -0.0317 C   0  0  0  0  0  0  0  0  0  0  0  0
    0.0144    0.5228   -0.0351 C   0  0  0  0  0  0  0  0  0  0  0  0
   -0.4158   -0.8004   -0.0385 C   0  0  0  0  0  0  0  0  0  0  0  0
   -1.7862   -1.0695   -0.0172 C   0  0  0  0  0  0  0  0  0  0  0  0
   -2.7057   -0.0181    0.0054 C   0  0  0  0  0  0  0  0  0  0  0  0
    1.4564    0.7940   -0.0197 C   0  0  0  0  0  0  0  0  0  0  0  0
    2.3656   -0.3886    0.0125 C   0  0  0  0  0  0  0  0  0  0  0  0
    1.8187   -1.6254   -0.0040 C   0  0  0  0  0  0  0  0  0  0  0  0
    2.6562   -2.8541    0.0583 C   0  0  0  0  0  0  0  0  0  0  0  0
    3.5161   -3.0507    1.1574 C   0  0  0  0  0  0  0  0  0  0  0  0
    4.3928   -4.1380    1.2067 C   0  0  0  0  0  0  0  0  0  0  0  0
    4.4036   -5.0530    0.1678 C   0  0  0  0  0  0  0  0  0  0  0  0
    3.5398   -4.9009   -0.9149 C   0  0  0  0  0  0  0  0  0  0  0  0
    2.6627   -3.8089   -0.9774 C   0  0  0  0  0  0  0  0  0  0  0  0
    0.4497   -1.8719   -0.0603 O   0  0  0  0  0  0  0  0  0  0  0  0
    1.8755    1.9490   -0.0200 O   0  0  0  0  0  0  0  0  0  0  0  0
    3.6033   -5.8466   -1.9032 O   0  0  0  0  0  0  0  0  0  0  0  0
    5.2834   -6.0955    0.2359 O   0  0  0  0  0  0  0  0  0  0  0  0
    3.7241   -0.1237    0.0614 O   0  0  0  0  0  0  0  0  0  0  0  0
   -4.0307   -0.3412    0.0460 O   0  0  0  0  0  0  0  0  0  0  0  0
   -2.9891    2.1329   -0.0034 H   0  0  0  0  0  0  0  0  0  0  0  0
   -0.5652    2.6124   -0.0397 H   0  0  0  0  0  0  0  0  0  0  0  0
   -2.1466   -2.0936   -0.0104 H   0  0  0  0  0  0  0  0  0  0  0  0
    3.5299   -2.3398    1.9824 H   0  0  0  0  0  0  0  0  0  0  0  0
    5.0686   -4.2670    2.0471 H   0  0  0  0  0  0  0  0  0  0  0  0
    2.0034   -3.6821   -1.8315 H   0  0  0  0  0  0  0  0  0  0  0  0
    2.9470   -5.6337   -2.5886 H   0  0  0  0  0  0  0  0  0  0  0  0
    5.1406   -6.6200   -0.5753 H   0  0  0  0  0  0  0  0  0  0  0  0
    4.2250   -0.9538    0.0334 H   0  0  0  0  0  0  0  0  0  0  0  0
   -4.5626    0.4715    0.0886 H   0  0  0  0  0  0  0  0  0  0  0  0
  1  2  2  0  0  0  0
  1  6  1  0  0  0  0
  1 22  1  0  0  0  0
  2  3  1  0  0  0  0
  2 23  1  0  0  0  0
  3  4  2  0  0  0  0
  3  7  1  0  0  0  0
  4  5  1  0  0  0  0
  4 16  1  0  0  0  0
  5  6  2  0  0  0  0
  5 24  1  0  0  0  0
  6 21  1  0  0  0  0
  7  8  1  0  0  0  0
  7 17  2  0  0  0  0
  8  9  2  0  0  0  0
  8 20  1  0  0  0  0
  9 10  1  0  0  0  0
  9 16  1  0  0  0  0
 10 11  2  0  0  0  0
 10 15  1  0  0  0  0
 11 12  1  0  0  0  0
 11 25  1  0  0  0  0
 12 13  2  0  0  0  0
 12 26  1  0  0  0  0
 13 14  1  0  0  0  0
 13 19  1  0  0  0  0
 14 15  2  0  0  0  0
 14 18  1  0  0  0  0
 15 27  1  0  0  0  0
 18 28  1  0  0  0  0
 19 29  1  0  0  0  0
 20 30  1  0  0  0  0
 21 31  1  0  0  0  0
M  END
>  <DRUGBANK_ID>
DB07795

>  <COMMON_NAME>
Fisetin

>  <CAS_NUMBER>
528-48-3

>  <UNII>
OO2ABO9578

>  <SYNONYMS>
2-(3,4-Dihydroxyphenyl)-3,7-dihydroxy-4H-1-benzopyran-4-one; 3,3',4',7-Tetrahydroxyflavone; 3,7,3',4'-tetrahydroxyflavone; 5-Desoxyquercetin; 7,3',4'-Trihydroxyflavonol

$$$$
