
 OpenBabel10282417143D

 64 68  0  0  1  0  0  0  0  0999 V2000
   -1.3408   -1.5008    3.5487 C   0  0  0  0  0  0  0  0  0  0  0  0
   -1.4125    1.5033    5.1564 C   0  0  0  0  0  0  0  0  0  0  0  0
    3.8999   -0.9429    4.0834 C   0  0  0  0  0  0  0  0  0  0  0  0
    2.8088   -1.4366    4.8031 C   0  0  0  0  0  0  0  0  0  0  0  0
    0.4911    3.2517   -4.9951 C   0  0  0  0  0  0  0  0  0  0  0  0
    2.7504    2.8437   -4.2896 C   0  0  0  0  0  0  0  0  0  0  0  0
    0.9868    4.2514   -5.8143 C   0  0  0  0  0  0  0  0  0  0  0  0
    3.1501    3.8468   -5.1496 C   0  0  0  0  0  0  0  0  0  0  0  0
   -3.1509   -2.1120    1.8206 C   0  0  0  0  0  0  0  0  0  0  0  0
   -1.5856   -2.0778    1.2645 C   0  0  0  0  0  0  0  0  0  0  0  0
   -1.0406    0.9647    2.0451 C   0  0  0  0  0  0  0  0  0  0  0  0
    2.6080    0.5753    2.7289 C   0  0  0  0  0  0  0  0  0  0  0  0
    0.4762    0.8147    4.0353 C   0  0  0  0  0  0  0  0  0  0  0  0
    0.1519    0.4992   -3.5161 C   0  0  0  0  0  0  0  0  0  0  0  0
    1.2737    1.6975   -1.8488 C   0  0  0  0  0  0  0  0  0  0  0  0
   -3.2444    0.3661    1.3683 C   0  0  0  0  0  0  0  0  0  0  0  0
   -1.5941    0.5118    3.3896 C   0  0  0  0  0  0  0  0  0  0  0  0
    1.3882    2.5540   -4.1811 C   0  0  0  0  0  0  0  0  0  0  0  0
    1.6111    0.2005    3.6475 C   0  0  0  0  0  0  0  0  0  0  0  0
    0.9334    1.5895   -3.1937 C   0  0  0  0  0  0  0  0  0  0  0  0
    3.8100   -0.0021    3.0411 C   0  0  0  0  0  0  0  0  0  0  0  0
   -1.7738    0.3661    0.8929 C   0  0  2  0  0  0  0  0  0  0  0  0
    1.6295   -0.8198    4.5816 C   0  0  0  0  0  0  0  0  0  0  0  0
   -0.5495   -0.2417    4.8625 C   0  0  0  0  0  0  0  0  0  0  0  0
    0.1791   -0.2114   -1.3703 C   0  0  0  0  0  0  0  0  0  0  0  0
   -0.2550   -1.2628   -0.4521 C   0  0  0  0  0  0  0  0  0  0  0  0
    5.2257    0.5254    2.2270 Cl  0  0  0  0  0  0  0  0  0  0  0  0
    2.2954    4.5683   -5.9017 N   0  0  0  0  0  0  0  0  0  0  0  0
   -0.2510   -0.4074   -2.6275 N   0  0  0  0  0  0  0  0  0  0  0  0
    0.8985    0.8251   -0.8980 N   0  0  0  0  0  0  0  0  0  0  0  0
    0.4444   -1.0899    5.2844 N   0  0  0  0  0  0  0  0  0  0  0  0
   -3.5632   -0.7713    2.6344 N   0  0  0  0  0  0  0  0  0  0  0  0
   -1.3161   -0.9792    0.4093 N   0  0  0  0  0  0  0  0  0  0  0  0
    0.2148   -2.3965   -0.5840 O   0  0  0  0  0  0  0  0  0  0  0  0
   -3.5958    0.7933    5.0437 O   0  0  0  0  0  0  0  0  0  0  0  0
   -3.2616   -1.6410    5.5713 O   0  0  0  0  0  0  0  0  0  0  0  0
   -2.9000   -0.4757    4.7520 S   0  0  0  0  0  0  0  0  0  0  0  0
   -1.5113    1.0902    0.1157 H   0  0  0  0  0  0  0  0  0  0  0  0
   -0.3571   -1.9990    3.4406 H   0  0  0  0  0  0  0  0  0  0  0  0
   -2.0622   -2.1777    3.2252 H   0  0  0  0  0  0  0  0  0  0  0  0
   -1.5601   -2.0780    4.5235 H   0  0  0  0  0  0  0  0  0  0  0  0
   -0.3927    1.5281    5.7020 H   0  0  0  0  0  0  0  0  0  0  0  0
   -1.7008    2.5238    5.2434 H   0  0  0  0  0  0  0  0  0  0  0  0
   -1.7425    0.8278    6.0794 H   0  0  0  0  0  0  0  0  0  0  0  0
    4.8599   -1.3076    4.3949 H   0  0  0  0  0  0  0  0  0  0  0  0
    2.8288   -2.1408    5.6107 H   0  0  0  0  0  0  0  0  0  0  0  0
   -0.5770    3.0579   -4.9729 H   0  0  0  0  0  0  0  0  0  0  0  0
    3.4906    2.3054   -3.7050 H   0  0  0  0  0  0  0  0  0  0  0  0
    0.3210    4.8528   -6.4267 H   0  0  0  0  0  0  0  0  0  0  0  0
    4.1997    4.1065   -5.2432 H   0  0  0  0  0  0  0  0  0  0  0  0
   -3.4164   -2.9287    2.5141 H   0  0  0  0  0  0  0  0  0  0  0  0
   -3.7771   -2.2543    0.9374 H   0  0  0  0  0  0  0  0  0  0  0  0
   -0.6966   -1.7907    1.8365 H   0  0  0  0  0  0  0  0  0  0  0  0
   -1.1925   -3.0992    1.1336 H   0  0  0  0  0  0  0  0  0  0  0  0
   -1.2151    2.0461    2.1137 H   0  0  0  0  0  0  0  0  0  0  0  0
   -0.0174    0.6968    1.8380 H   0  0  0  0  0  0  0  0  0  0  0  0
    2.4937    1.3581    1.9624 H   0  0  0  0  0  0  0  0  0  0  0  0
    0.2706    1.7936    3.5138 H   0  0  0  0  0  0  0  0  0  0  0  0
   -0.1654    0.2900   -4.5314 H   0  0  0  0  0  0  0  0  0  0  0  0
    1.8938    2.5205   -1.4981 H   0  0  0  0  0  0  0  0  0  0  0  0
   -3.8004    0.0552    0.4733 H   0  0  0  0  0  0  0  0  0  0  0  0
   -3.5752    1.3741    1.6371 H   0  0  0  0  0  0  0  0  0  0  0  0
   -2.5869    0.9605    3.2368 H   0  0  0  0  0  0  0  0  0  0  0  0
    0.1766   -1.9013    5.7852 H   0  0  0  0  0  0  0  0  0  0  0  0
  1 39  1  0  0  0  0
  1 40  1  0  0  0  0
  1 41  1  0  0  0  0
  2 42  1  0  0  0  0
  2 43  1  0  0  0  0
  2 44  1  0  0  0  0
  3 45  1  0  0  0  0
  4  3  1  0  0  0  0
  4 46  1  0  0  0  0
  5 47  1  0  0  0  0
  6 48  1  0  0  0  0
  7  5  1  0  0  0  0
  7 49  1  0  0  0  0
  8  6  2  0  0  0  0
  8 50  1  0  0  0  0
  9 51  1  0  0  0  0
  9 52  1  0  0  0  0
 10  9  1  0  0  0  0
 10 53  1  0  0  0  0
 10 54  1  0  0  0  0
 11 55  1  0  0  0  0
 11 56  1  0  0  0  0
 12 57  1  0  0  0  0
 13 58  1  0  0  0  0
 14 59  1  0  0  0  0
 15 60  1  0  0  0  0
 16 61  1  0  0  0  0
 16 62  1  0  0  0  0
 17  1  1  0  0  0  0
 17  2  1  0  0  0  0
 17 11  1  0  0  0  0
 17 63  1  0  0  0  0
 18  5  2  0  0  0  0
 18  6  1  0  0  0  0
 19 12  2  0  0  0  0
 19 13  1  0  0  0  0
 20 14  2  0  0  0  0
 20 15  1  0  0  0  0
 20 18  1  0  0  0  0
 21  3  2  0  0  0  0
 21 12  1  0  0  0  0
 22 16  1  0  0  0  0
 22 38  1  6  0  0  0
 22 11  1  0  0  0  0
 23  4  2  0  0  0  0
 23 19  1  0  0  0  0
 24 13  2  0  0  0  0
 26 25  1  0  0  0  0
 27 21  1  0  0  0  0
 28  7  2  0  0  0  0
 28  8  1  0  0  0  0
 29 14  1  0  0  0  0
 29 25  2  0  0  0  0
 30 15  2  0  0  0  0
 30 25  1  0  0  0  0
 31 23  1  0  0  0  0
 31 24  1  0  0  0  0
 31 64  1  0  0  0  0
 32  9  1  0  0  0  0
 32 16  1  0  0  0  0
 33 10  1  0  0  0  0
 33 22  1  0  0  0  0
 33 26  1  0  0  0  0
 34 26  2  0  0  0  0
 37 24  1  0  0  0  0
 37 32  1  0  0  0  0
 37 35  2  0  0  0  0
 37 36  2  0  0  0  0
M  END
>  <DRUGBANK_ID>
DB04673

>  <COMMON_NAME>
4-[(5-CHLOROINDOL-2-YL)SULFONYL]-2-(2-METHYLPROPYL)-1-[[5-(PYRIDIN-4-YL)PYRIMIDIN-2-YL]CARBONYL]PIPERAZINE

$$$$
