AN1
 OpenBabel10282417163D

 36 38  0  0  0  0  0  0  0  0999 V2000
    0.8899    0.0052   -0.3189 O   0  0  0  0  0  0  0  0  0  0  0  0
    0.2946    0.2430   -1.5021 C   0  0  0  0  0  0  0  0  0  0  0  0
    0.9680    0.5504   -2.4603 O   0  0  0  0  0  0  0  0  0  0  0  0
   -1.2320    0.1268   -1.5185 C   0  0  0  0  0  0  0  0  0  0  0  0
   -1.7676   -1.0641   -0.7327 C   0  0  0  0  0  0  0  0  0  0  0  0
   -1.3652   -1.2606    0.7413 C   0  0  0  0  0  0  0  0  0  0  0  0
   -1.0250   -0.1542    1.6143 C   0  0  0  0  0  0  0  0  0  0  0  0
   -1.0540    1.2199    1.2465 C   0  0  0  0  0  0  0  0  0  0  0  0
   -0.5839    2.2798    2.0006 C   0  0  0  0  0  0  0  0  0  0  0  0
   -0.1204    2.0216    3.2526 C   0  0  0  0  0  0  0  0  0  0  0  0
   -0.1077    0.7052    3.6983 C   0  0  0  0  0  0  0  0  0  0  0  0
   -0.5344   -0.4042    2.9139 C   0  0  0  0  0  0  0  0  0  0  0  0
   -0.4536   -1.7381    3.3852 C   0  0  0  0  0  0  0  0  0  0  0  0
   -0.8413   -2.8281    2.5560 C   0  0  0  0  0  0  0  0  0  0  0  0
   -1.2936   -2.6027    1.2308 C   0  0  0  0  0  0  0  0  0  0  0  0
   -1.6535   -3.7402    0.4563 C   0  0  0  0  0  0  0  0  0  0  0  0
   -1.5884   -5.0384    0.9563 C   0  0  0  0  0  0  0  0  0  0  0  0
   -1.1592   -5.2453    2.2508 C   0  0  0  0  0  0  0  0  0  0  0  0
   -0.7870   -4.1568    3.0311 C   0  0  0  0  0  0  0  0  0  0  0  0
    0.0324   -2.0328    4.7921 C   0  0  0  0  0  0  0  0  0  0  0  0
    1.8563    0.1283   -0.3731 H   0  0  0  0  0  0  0  0  0  0  0  0
   -1.7794    1.0312   -1.2578 H   0  0  0  0  0  0  0  0  0  0  0  0
   -1.5246    0.0380   -2.5688 H   0  0  0  0  0  0  0  0  0  0  0  0
   -2.8660   -1.0713   -0.7724 H   0  0  0  0  0  0  0  0  0  0  0  0
   -1.4272   -1.9146   -1.3354 H   0  0  0  0  0  0  0  0  0  0  0  0
   -1.3507    1.5721    0.2872 H   0  0  0  0  0  0  0  0  0  0  0  0
   -0.5728    3.2714    1.5618 H   0  0  0  0  0  0  0  0  0  0  0  0
    0.2388    2.8288    3.8761 H   0  0  0  0  0  0  0  0  0  0  0  0
    0.2865    0.5789    4.6968 H   0  0  0  0  0  0  0  0  0  0  0  0
   -2.0129   -3.6444   -0.5648 H   0  0  0  0  0  0  0  0  0  0  0  0
   -1.8824   -5.8772    0.3331 H   0  0  0  0  0  0  0  0  0  0  0  0
   -1.1142   -6.2459    2.6668 H   0  0  0  0  0  0  0  0  0  0  0  0
   -0.4552   -4.3717    4.0434 H   0  0  0  0  0  0  0  0  0  0  0  0
   -0.7715   -2.5062    5.3637 H   0  0  0  0  0  0  0  0  0  0  0  0
    0.9186   -2.6747    4.7618 H   0  0  0  0  0  0  0  0  0  0  0  0
    0.3260   -1.1625    5.3737 H   0  0  0  0  0  0  0  0  0  0  0  0
  1  2  1  0  0  0  0
  1 21  1  0  0  0  0
  2  3  2  0  0  0  0
  2  4  1  0  0  0  0
  4  5  1  0  0  0  0
  4 22  1  0  0  0  0
  4 23  1  0  0  0  0
  5  6  1  0  0  0  0
  5 24  1  0  0  0  0
  5 25  1  0  0  0  0
  6  7  2  0  0  0  0
  6 15  1  0  0  0  0
  7  8  1  0  0  0  0
  7 12  1  0  0  0  0
  8  9  2  0  0  0  0
  8 26  1  0  0  0  0
  9 10  1  0  0  0  0
  9 27  1  0  0  0  0
 10 11  2  0  0  0  0
 10 28  1  0  0  0  0
 11 12  1  0  0  0  0
 11 29  1  0  0  0  0
 12 13  2  0  0  0  0
 13 14  1  0  0  0  0
 13 20  1  0  0  0  0
 14 15  2  0  0  0  0
 14 19  1  0  0  0  0
 15 16  1  0  0  0  0
 16 17  2  0  0  0  0
 16 30  1  0  0  0  0
 17 18  1  0  0  0  0
 17 31  1  0  0  0  0
 18 19  2  0  0  0  0
 18 32  1  0  0  0  0
 19 33  1  0  0  0  0
 20 34  1  0  0  0  0
 20 35  1  0  0  0  0
 20 36  1  0  0  0  0
M  END
>  <DRUGBANK_ID>
DB07371

>  <COMMON_NAME>
3-(10-methyl-9-anthryl)propanoic acid

>  <SYNONYMS>
3-(10-methyl-9-anthryl)propionic acid; 3-(10-METHYL-ANTHRACEN-9-YL)-PROPIONIC ACID

$$$$
