
 OpenBabel10282417233D

 59 62  0  0  0  0  0  0  0  0999 V2000
    2.3745    0.6745   -0.0117 C   0  0  0  0  0  0  0  0  0  0  0  0
    1.0264    0.1714    0.0866 N   0  0  0  0  0  0  0  0  0  0  0  0
    0.6876   -1.1274    0.2743 C   0  0  0  0  0  0  0  0  0  0  0  0
   -0.6880   -1.2095    0.1447 C   0  0  0  0  0  0  0  0  0  0  0  0
   -1.5513   -2.4369    0.0560 C   0  0  0  0  0  0  0  0  0  0  0  0
   -1.2574   -3.2250   -1.1556 N   0  0  0  0  0  0  0  0  0  0  0  0
   -1.5292   -2.4667   -2.3845 C   0  0  0  0  0  0  0  0  0  0  0  0
   -1.1823   -3.2751   -3.6276 C   0  0  0  0  0  0  0  0  0  0  0  0
    0.2652   -3.8003   -3.5572 C   0  0  0  0  0  0  0  0  0  0  0  0
    0.5014   -4.5460   -2.2557 C   0  0  0  0  0  0  0  0  0  0  0  0
    0.1220   -3.6976   -1.1000 C   0  0  0  0  0  0  0  0  0  0  0  0
    0.5781   -4.7252   -4.6949 C   0  0  0  0  0  0  0  0  0  0  0  0
    0.3520   -4.2570   -5.9649 C   0  0  0  0  0  0  0  0  0  0  0  0
    0.3723   -5.1744   -6.9864 C   0  0  0  0  0  0  0  0  0  0  0  0
    0.9554   -6.4384   -6.8788 C   0  0  0  0  0  0  0  0  0  0  0  0
    1.2689   -6.8845   -5.6037 C   0  0  0  0  0  0  0  0  0  0  0  0
    0.9945   -6.0604   -4.5218 C   0  0  0  0  0  0  0  0  0  0  0  0
    1.1701   -7.3617   -8.0398 C   0  0  0  0  0  0  0  0  0  0  0  0
    1.4682   -8.5277   -7.8152 O   0  0  0  0  0  0  0  0  0  0  0  0
    0.9596   -6.9637   -9.3547 N   0  0  0  0  0  0  0  0  0  0  0  0
    0.7240   -5.6786   -9.8793 C   0  0  0  0  0  0  0  0  0  0  0  0
    1.5096   -4.5887   -9.4598 C   0  0  0  0  0  0  0  0  0  0  0  0
    1.0879   -3.2839   -9.7089 C   0  0  0  0  0  0  0  0  0  0  0  0
    0.0001   -3.0685  -10.5457 C   0  0  0  0  0  0  0  0  0  0  0  0
   -0.6817   -4.1567  -11.1063 C   0  0  0  0  0  0  0  0  0  0  0  0
   -0.4032   -5.4681  -10.6990 C   0  0  0  0  0  0  0  0  0  0  0  0
   -1.1772   -6.5345  -11.1938 N   0  0  0  0  0  0  0  0  0  0  0  0
   -1.0881    0.1494    0.0492 C   0  0  0  0  0  0  0  0  0  0  0  0
   -2.4689    0.6821   -0.0239 C   0  0  0  0  0  0  0  0  0  0  0  0
   -0.0372    0.9850    0.0055 N   0  0  0  0  0  0  0  0  0  0  0  0
    2.4778    1.2459   -0.9366 H   0  0  0  0  0  0  0  0  0  0  0  0
    2.5694    1.2908    0.8663 H   0  0  0  0  0  0  0  0  0  0  0  0
    3.0732   -0.1697   -0.0315 H   0  0  0  0  0  0  0  0  0  0  0  0
    1.4581   -1.8803    0.3657 H   0  0  0  0  0  0  0  0  0  0  0  0
   -1.3973   -3.0663    0.9407 H   0  0  0  0  0  0  0  0  0  0  0  0
   -2.6183   -2.1916    0.0545 H   0  0  0  0  0  0  0  0  0  0  0  0
   -0.9470   -1.5382   -2.4225 H   0  0  0  0  0  0  0  0  0  0  0  0
   -2.5886   -2.1859   -2.4347 H   0  0  0  0  0  0  0  0  0  0  0  0
   -1.3245   -2.6254   -4.5027 H   0  0  0  0  0  0  0  0  0  0  0  0
   -1.8826   -4.1112   -3.7465 H   0  0  0  0  0  0  0  0  0  0  0  0
    0.9467   -2.9351   -3.6191 H   0  0  0  0  0  0  0  0  0  0  0  0
   -0.0769   -5.4729   -2.2030 H   0  0  0  0  0  0  0  0  0  0  0  0
    1.5717   -4.7833   -2.1676 H   0  0  0  0  0  0  0  0  0  0  0  0
    0.3108   -4.2556   -0.1773 H   0  0  0  0  0  0  0  0  0  0  0  0
    0.8286   -2.8804   -1.1871 H   0  0  0  0  0  0  0  0  0  0  0  0
    0.0405   -3.2357   -6.1690 H   0  0  0  0  0  0  0  0  0  0  0  0
   -0.1179   -4.8301   -7.8770 H   0  0  0  0  0  0  0  0  0  0  0  0
    1.6526   -7.8837   -5.4165 H   0  0  0  0  0  0  0  0  0  0  0  0
    1.0871   -6.5121   -3.5390 H   0  0  0  0  0  0  0  0  0  0  0  0
    0.8415   -7.7405   -9.9927 H   0  0  0  0  0  0  0  0  0  0  0  0
    2.3507   -4.7482   -8.7872 H   0  0  0  0  0  0  0  0  0  0  0  0
    1.5786   -2.4520   -9.2085 H   0  0  0  0  0  0  0  0  0  0  0  0
   -0.3233   -2.0523  -10.7574 H   0  0  0  0  0  0  0  0  0  0  0  0
   -1.4760   -3.9593  -11.8201 H   0  0  0  0  0  0  0  0  0  0  0  0
   -2.0966   -6.2600  -11.5314 H   0  0  0  0  0  0  0  0  0  0  0  0
   -1.2364   -7.3259  -10.5574 H   0  0  0  0  0  0  0  0  0  0  0  0
   -2.6743    1.2975    0.8565 H   0  0  0  0  0  0  0  0  0  0  0  0
   -2.6058    1.2841   -0.9258 H   0  0  0  0  0  0  0  0  0  0  0  0
   -3.2148   -0.1179   -0.0447 H   0  0  0  0  0  0  0  0  0  0  0  0
  1  2  1  0  0  0  0
  1 31  1  0  0  0  0
  1 32  1  0  0  0  0
  1 33  1  0  0  0  0
  2  3  1  0  0  0  0
  2 30  1  0  0  0  0
  3  4  2  0  0  0  0
  3 34  1  0  0  0  0
  4  5  1  0  0  0  0
  4 28  1  0  0  0  0
  5  6  1  0  0  0  0
  5 35  1  0  0  0  0
  5 36  1  0  0  0  0
  6  7  1  0  0  0  0
  6 11  1  0  0  0  0
  7  8  1  0  0  0  0
  7 37  1  0  0  0  0
  7 38  1  0  0  0  0
  8  9  1  0  0  0  0
  8 39  1  0  0  0  0
  8 40  1  0  0  0  0
  9 10  1  0  0  0  0
  9 12  1  0  0  0  0
  9 41  1  0  0  0  0
 10 11  1  0  0  0  0
 10 42  1  0  0  0  0
 10 43  1  0  0  0  0
 11 44  1  0  0  0  0
 11 45  1  0  0  0  0
 12 13  2  0  0  0  0
 12 17  1  0  0  0  0
 13 14  1  0  0  0  0
 13 46  1  0  0  0  0
 14 15  2  0  0  0  0
 14 47  1  0  0  0  0
 15 16  1  0  0  0  0
 15 18  1  0  0  0  0
 16 17  2  0  0  0  0
 16 48  1  0  0  0  0
 17 49  1  0  0  0  0
 18 19  2  0  0  0  0
 18 20  1  0  0  0  0
 20 21  1  0  0  0  0
 20 50  1  0  0  0  0
 21 22  2  0  0  0  0
 21 26  1  0  0  0  0
 22 23  1  0  0  0  0
 22 51  1  0  0  0  0
 23 24  2  0  0  0  0
 23 52  1  0  0  0  0
 24 25  1  0  0  0  0
 24 53  1  0  0  0  0
 25 26  2  0  0  0  0
 25 54  1  0  0  0  0
 26 27  1  0  0  0  0
 27 55  1  0  0  0  0
 27 56  1  0  0  0  0
 28 29  1  0  0  0  0
 28 30  2  0  0  0  0
 29 57  1  0  0  0  0
 29 58  1  0  0  0  0
 29 59  1  0  0  0  0
M  END
>  <DRUGBANK_ID>
DB16182

>  <COMMON_NAME>
CXD101

>  <CAS_NUMBER>
934828-12-3

>  <UNII>
5TNV87ICD2

>  <SYNONYMS>
Hdac inhibitor cxd101; Hdac-in-4

$$$$
