KMB
 OpenBabel10282417143D

 38 40  0  0  0  0  0  0  0  0999 V2000
    0.9535    0.0950   -0.0825 C   0  0  0  0  0  0  0  0  0  0  0  0
    0.4876    1.4569    0.1615 N   0  0  0  0  0  0  0  0  0  0  0  0
    0.4880   -0.4627   -1.4067 C   0  0  0  0  0  0  0  0  0  0  0  0
    0.0026    0.3580   -2.4353 C   0  0  0  0  0  0  0  0  0  0  0  0
   -0.3531   -0.1573   -3.6968 C   0  0  0  0  0  0  0  0  0  0  0  0
   -0.2473   -1.5376   -3.9335 C   0  0  0  0  0  0  0  0  0  0  0  0
   -0.6160   -2.0710   -5.1834 N   0  0  0  0  0  0  0  0  0  0  0  0
   -0.4467   -3.3321   -5.4071 C   0  0  0  0  0  0  0  0  0  0  0  0
   -0.7669   -3.8618   -6.6062 N   0  0  0  0  0  0  0  0  0  0  0  0
    0.0496   -4.1797   -4.4631 N   0  0  0  0  0  0  0  0  0  0  0  0
    0.4050   -3.7814   -3.2020 C   0  0  0  0  0  0  0  0  0  0  0  0
    0.8347   -4.5722   -2.3633 O   0  0  0  0  0  0  0  0  0  0  0  0
    0.2487   -2.3496   -2.9101 C   0  0  0  0  0  0  0  0  0  0  0  0
    0.6131   -1.8316   -1.6608 C   0  0  0  0  0  0  0  0  0  0  0  0
   -0.8394    0.8044   -4.7508 C   0  0  0  0  0  0  0  0  0  0  0  0
    0.1829    0.8694   -6.2605 S   0  0  0  0  0  0  0  0  0  0  0  0
    1.7782    1.3657   -5.6315 C   0  0  0  0  0  0  0  0  0  0  0  0
    2.0683    2.7243   -5.4898 C   0  0  0  0  0  0  0  0  0  0  0  0
    3.3889    3.1471   -5.3193 C   0  0  0  0  0  0  0  0  0  0  0  0
    4.4098    2.2108   -5.1700 C   0  0  0  0  0  0  0  0  0  0  0  0
    4.1075    0.8506   -5.1793 C   0  0  0  0  0  0  0  0  0  0  0  0
    2.8054    0.4284   -5.4677 C   0  0  0  0  0  0  0  0  0  0  0  0
    0.5966   -0.5476    0.7307 H   0  0  0  0  0  0  0  0  0  0  0  0
    2.0492    0.0839   -0.0693 H   0  0  0  0  0  0  0  0  0  0  0  0
   -0.5302    1.4508    0.1992 H   0  0  0  0  0  0  0  0  0  0  0  0
    0.8131    1.7692    1.0729 H   0  0  0  0  0  0  0  0  0  0  0  0
   -0.0857    1.4304   -2.2618 H   0  0  0  0  0  0  0  0  0  0  0  0
   -0.6430   -4.8308   -6.8509 H   0  0  0  0  0  0  0  0  0  0  0  0
   -1.0919   -3.2238   -7.3233 H   0  0  0  0  0  0  0  0  0  0  0  0
    0.1577   -5.1591   -4.6637 H   0  0  0  0  0  0  0  0  0  0  0  0
    1.0065   -2.4994   -0.8969 H   0  0  0  0  0  0  0  0  0  0  0  0
   -1.8611    0.5221   -5.0331 H   0  0  0  0  0  0  0  0  0  0  0  0
   -0.9154    1.8216   -4.3471 H   0  0  0  0  0  0  0  0  0  0  0  0
    1.2779    3.4653   -5.5633 H   0  0  0  0  0  0  0  0  0  0  0  0
    3.6218    4.2085   -5.3228 H   0  0  0  0  0  0  0  0  0  0  0  0
    5.4386    2.5419   -5.0513 H   0  0  0  0  0  0  0  0  0  0  0  0
    4.8918    0.1205   -4.9965 H   0  0  0  0  0  0  0  0  0  0  0  0
    2.6082   -0.6341   -5.5910 H   0  0  0  0  0  0  0  0  0  0  0  0
  1  2  1  0  0  0  0
  1  3  1  0  0  0  0
  1 23  1  0  0  0  0
  1 24  1  0  0  0  0
  2 25  1  0  0  0  0
  2 26  1  0  0  0  0
  3  4  2  0  0  0  0
  3 14  1  0  0  0  0
  4  5  1  0  0  0  0
  4 27  1  0  0  0  0
  5  6  2  0  0  0  0
  5 15  1  0  0  0  0
  6  7  1  0  0  0  0
  6 13  1  0  0  0  0
  7  8  2  0  0  0  0
  8  9  1  0  0  0  0
  8 10  1  0  0  0  0
  9 28  1  0  0  0  0
  9 29  1  0  0  0  0
 10 11  1  0  0  0  0
 10 30  1  0  0  0  0
 11 12  2  0  0  0  0
 11 13  1  0  0  0  0
 13 14  2  0  0  0  0
 14 31  1  0  0  0  0
 15 16  1  0  0  0  0
 15 32  1  0  0  0  0
 15 33  1  0  0  0  0
 16 17  1  0  0  0  0
 17 18  2  0  0  0  0
 17 22  1  0  0  0  0
 18 19  1  0  0  0  0
 18 34  1  0  0  0  0
 19 20  2  0  0  0  0
 19 35  1  0  0  0  0
 20 21  1  0  0  0  0
 20 36  1  0  0  0  0
 21 22  2  0  0  0  0
 21 37  1  0  0  0  0
 22 38  1  0  0  0  0
M  END
>  <DRUGBANK_ID>
DB04239

>  <SECONDARY_ACCESSION_NUMBERS>
EXPT01975

>  <COMMON_NAME>
2-Amino-6-Aminomethyl-8-Phenylsulfanylmethyl-3h-Quinazolin-4-One

$$$$
