753
 OpenBabel10282417113D

 12 11  0  0  1  0  0  0  0  0999 V2000
    0.9848   -0.0466    0.1544 Cl  0  0  0  0  0  0  0  0  0  0  0  0
    2.9966   -0.8418    2.2207 F   0  0  0  0  0  0  0  0  0  0  0  0
    4.7200    0.1980    1.3985 F   0  0  0  0  0  0  0  0  0  0  0  0
    2.9820    1.3372    2.0632 F   0  0  0  0  0  0  0  0  0  0  0  0
    3.3328   -0.1209   -2.5616 F   0  0  0  0  0  0  0  0  0  0  0  0
    1.5340    1.1035   -2.3472 F   0  0  0  0  0  0  0  0  0  0  0  0
    3.1348    1.2276   -0.7647 O   0  0  0  0  0  0  0  0  0  0  0  0
    2.7685    0.0851    0.0210 C   0  0  3  0  0  0  0  0  0  0  0  0
    3.3643    0.2002    1.4360 C   0  0  0  0  0  0  0  0  0  0  0  0
    2.8687    1.0745   -2.1426 C   0  0  0  0  0  0  0  0  0  0  0  0
    3.1452   -0.8383   -0.4329 H   0  0  0  0  0  0  0  0  0  0  0  0
    3.3347    1.8810   -2.7170 H   0  0  0  0  0  0  0  0  0  0  0  0
  1  8  1  0  0  0  0
  2  9  1  0  0  0  0
  3  9  1  0  0  0  0
  4  9  1  0  0  0  0
  5 10  1  0  0  0  0
  6 10  1  0  0  0  0
  7  8  1  0  0  0  0
  7 10  1  0  0  0  0
  8  9  1  0  0  0  0
  8 11  1  0  0  0  0
 10 12  1  0  0  0  0
M  END
>  <DRUGBANK_ID>
DB00753

>  <SECONDARY_ACCESSION_NUMBERS>
APRD00212

>  <COMMON_NAME>
Isoflurane

>  <CAS_NUMBER>
26675-46-7

>  <UNII>
CYS9AKD70P

>  <SYNONYMS>
1-chloro-2,2,2-trifluoroethyl difluoromethyl ether; Isoflurane; Isoflurano; Isofluranum

$$$$
