
 OpenBabel10282417123D

 27 26  0  0  1  0  0  0  0  0999 V2000
   -1.4434   -2.1636   -0.7185 C   0  0  0  0  0  0  0  0  0  0  0  0
   -0.0190   -1.6257   -0.7500 N   0  3  0  0  0  0  0  0  0  0  0  0
    0.5265   -1.7763   -2.1710 C   0  0  0  0  0  0  0  0  0  0  0  0
   -0.0269   -0.1356   -0.4298 C   0  0  0  0  0  0  0  0  0  0  0  0
    0.8942   -2.4535    0.2056 C   0  0  0  0  0  0  0  0  0  0  0  0
    0.4695   -2.3343    1.6835 C   0  0  2  0  0  0  0  0  0  0  0  0
    1.1028   -1.1624    2.1895 O   0  0  0  0  0  0  0  0  0  0  0  0
    0.9360   -3.5296    2.5155 C   0  0  0  0  0  0  0  0  0  0  0  0
    0.4202   -3.3711    3.9293 C   0  0  0  0  0  0  0  0  0  0  0  0
   -0.4037   -4.3495    4.3485 O   0  0  0  0  0  0  0  0  0  0  0  0
    0.6739   -2.4086    4.6440 O   0  0  0  0  0  0  0  0  0  0  0  0
   -2.0438   -1.5973   -1.4328 H   0  0  0  0  0  0  0  0  0  0  0  0
   -1.8605   -2.0268    0.2810 H   0  0  0  0  0  0  0  0  0  0  0  0
   -1.4118   -3.2260   -0.9744 H   0  0  0  0  0  0  0  0  0  0  0  0
   -0.1197   -1.2054   -2.8443 H   0  0  0  0  0  0  0  0  0  0  0  0
    1.5468   -1.3817   -2.1937 H   0  0  0  0  0  0  0  0  0  0  0  0
    0.5136   -2.8368   -2.4351 H   0  0  0  0  0  0  0  0  0  0  0  0
   -0.5579    0.0202    0.5106 H   0  0  0  0  0  0  0  0  0  0  0  0
    1.0078    0.2169   -0.3794 H   0  0  0  0  0  0  0  0  0  0  0  0
   -0.5763    0.3888   -1.2166 H   0  0  0  0  0  0  0  0  0  0  0  0
    0.8593   -3.4873   -0.1554 H   0  0  0  0  0  0  0  0  0  0  0  0
    1.9113   -2.0611    0.0707 H   0  0  0  0  0  0  0  0  0  0  0  0
   -0.6133   -2.2513    1.8098 H   0  0  0  0  0  0  0  0  0  0  0  0
    0.6141   -0.3618    1.9556 H   0  0  0  0  0  0  0  0  0  0  0  0
    0.5632   -4.4650    2.0818 H   0  0  0  0  0  0  0  0  0  0  0  0
    2.0284   -3.5815    2.5520 H   0  0  0  0  0  0  0  0  0  0  0  0
   -0.5357   -5.1217    3.7707 H   0  0  0  0  0  0  0  0  0  0  0  0
  1  2  1  0  0  0  0
  1 12  1  0  0  0  0
  1 13  1  0  0  0  0
  1 14  1  0  0  0  0
  2  3  1  0  0  0  0
  2  4  1  0  0  0  0
  2  5  1  0  0  0  0
  3 15  1  0  0  0  0
  3 16  1  0  0  0  0
  3 17  1  0  0  0  0
  4 18  1  0  0  0  0
  4 19  1  0  0  0  0
  4 20  1  0  0  0  0
  5 21  1  0  0  0  0
  5 22  1  0  0  0  0
  6  8  1  0  0  0  0
  6 23  1  1  0  0  0
  6  7  1  0  0  0  0
  6  5  1  0  0  0  0
  7 24  1  0  0  0  0
  8  9  1  0  0  0  0
  8 25  1  0  0  0  0
  8 26  1  0  0  0  0
  9 10  1  0  0  0  0
  9 11  2  0  0  0  0
 10 27  1  0  0  0  0
M  CHG  1   2   1
M  END
>  <DRUGBANK_ID>
DB02648

>  <SECONDARY_ACCESSION_NUMBERS>
EXPT00038

>  <COMMON_NAME>
(3-Carboxy-2-(R)-Hydroxy-Propyl)-Trimethyl-Ammonium

>  <CAS_NUMBER>
461-06-3

$$$$
