
 OpenBabel10282417133D

 24 23  0  0  1  0  0  0  0  0999 V2000
   -2.5959   -4.4927   -0.2596 C   0  0  0  0  0  0  0  0  0  0  0  0
   -1.6143   -4.0645    0.8272 C   0  0  0  0  0  0  0  0  0  0  0  0
   -0.5865   -5.1814    1.0525 C   0  0  0  0  0  0  0  0  0  0  0  0
   -0.8342   -2.7745    0.4908 C   0  0  0  0  0  0  0  0  0  0  0  0
   -1.5203   -1.3959    0.3475 C   0  0  2  0  0  0  0  0  0  0  0  0
   -1.0126   -0.4413    1.3629 N   0  0  0  0  0  0  0  0  0  0  0  0
   -3.0565   -1.3648    0.3332 C   0  0  0  0  0  0  0  0  0  0  0  0
   -3.6862   -1.0296   -0.6762 O   0  0  0  0  0  0  0  0  0  0  0  0
   -3.7279   -1.7103    1.4641 N   0  0  0  0  0  0  0  0  0  0  0  0
   -3.1394   -2.0357    2.6933 O   0  0  0  0  0  0  0  0  0  0  0  0
   -2.0838   -4.6358   -1.2152 H   0  0  0  0  0  0  0  0  0  0  0  0
   -3.3956   -3.7663   -0.4102 H   0  0  0  0  0  0  0  0  0  0  0  0
   -3.0797   -5.4373    0.0137 H   0  0  0  0  0  0  0  0  0  0  0  0
   -2.1587   -3.9720    1.7694 H   0  0  0  0  0  0  0  0  0  0  0  0
    0.0056   -5.3519    0.1475 H   0  0  0  0  0  0  0  0  0  0  0  0
    0.1017   -4.9122    1.8621 H   0  0  0  0  0  0  0  0  0  0  0  0
   -1.0754   -6.1196    1.3304 H   0  0  0  0  0  0  0  0  0  0  0  0
   -0.0439   -2.6855    1.2484 H   0  0  0  0  0  0  0  0  0  0  0  0
   -0.2846   -2.9537   -0.4432 H   0  0  0  0  0  0  0  0  0  0  0  0
   -1.2027   -0.9786   -0.6188 H   0  0  0  0  0  0  0  0  0  0  0  0
   -0.3639   -0.8643    2.0199 H   0  0  0  0  0  0  0  0  0  0  0  0
   -1.7783   -0.0149    1.8862 H   0  0  0  0  0  0  0  0  0  0  0  0
   -4.7417   -1.7370    1.4294 H   0  0  0  0  0  0  0  0  0  0  0  0
   -2.1798   -2.0390    2.5316 H   0  0  0  0  0  0  0  0  0  0  0  0
  1  2  1  0  0  0  0
  1 11  1  0  0  0  0
  1 12  1  0  0  0  0
  1 13  1  0  0  0  0
  2  3  1  0  0  0  0
  2  4  1  0  0  0  0
  2 14  1  0  0  0  0
  3 15  1  0  0  0  0
  3 16  1  0  0  0  0
  3 17  1  0  0  0  0
  4 18  1  0  0  0  0
  4 19  1  0  0  0  0
  5  7  1  0  0  0  0
  5 20  1  6  0  0  0
  5  6  1  0  0  0  0
  5  4  1  0  0  0  0
  6 21  1  0  0  0  0
  6 22  1  0  0  0  0
  7  8  2  0  0  0  0
  7  9  1  0  0  0  0
  9 10  1  0  0  0  0
  9 23  1  0  0  0  0
 10 24  1  0  0  0  0
M  END
>  <DRUGBANK_ID>
DB03308

>  <SECONDARY_ACCESSION_NUMBERS>
EXPT02048

>  <COMMON_NAME>
L-Leucyl-Hydroxylamine

$$$$
