
 OpenBabel10282417183D

 43 46  0  0  0  0  0  0  0  0999 V2000
    1.0629   -0.0170    0.0853 C   0  0  0  0  0  0  0  0  0  0  0  0
    0.6178    0.9826   -0.8874 C   0  0  0  0  0  0  0  0  0  0  0  0
   -0.0536    0.7726   -2.0588 C   0  0  0  0  0  0  0  0  0  0  0  0
   -0.1418    1.9993   -2.7304 C   0  0  0  0  0  0  0  0  0  0  0  0
   -0.6842    2.3651   -3.9634 C   0  0  0  0  0  0  0  0  0  0  0  0
   -0.6264    3.6904   -4.3276 C   0  0  0  0  0  0  0  0  0  0  0  0
   -0.0555    4.6353   -3.5045 C   0  0  0  0  0  0  0  0  0  0  0  0
    0.4744    4.2913   -2.2698 C   0  0  0  0  0  0  0  0  0  0  0  0
    0.4247    2.9580   -1.8927 C   0  0  0  0  0  0  0  0  0  0  0  0
    0.8508    2.3164   -0.7574 N   0  0  0  0  0  0  0  0  0  0  0  0
    1.4714    2.9130    0.4084 C   0  0  0  0  0  0  0  0  0  0  0  0
    0.6657    2.6644    1.6764 C   0  0  0  0  0  0  0  0  0  0  0  0
    1.1345    2.0474    2.6266 O   0  0  0  0  0  0  0  0  0  0  0  0
   -0.6005    3.1629    1.6881 O   0  0  0  0  0  0  0  0  0  0  0  0
   -1.1334    4.0671   -5.5031 F   0  0  0  0  0  0  0  0  0  0  0  0
   -0.6958   -0.4964   -2.4332 C   0  0  0  0  0  0  0  0  0  0  0  0
   -2.0334   -0.2527   -1.6975 C   0  0  0  0  0  0  0  0  0  0  0  0
   -2.7620    0.0773   -0.4269 C   0  0  0  0  0  0  0  0  0  0  0  0
   -4.3560    0.3268    0.1331 C   0  0  0  0  0  0  0  0  0  0  0  0
   -5.1463    0.1386   -0.9909 C   0  0  0  0  0  0  0  0  0  0  0  0
   -6.4775    0.1866   -1.2146 C   0  0  0  0  0  0  0  0  0  0  0  0
   -6.9528   -0.3323   -2.4145 C   0  0  0  0  0  0  0  0  0  0  0  0
   -6.1014   -0.6311   -3.4733 C   0  0  0  0  0  0  0  0  0  0  0  0
   -4.7949   -0.3893   -3.3838 C   0  0  0  0  0  0  0  0  0  0  0  0
   -4.4562   -0.1343   -2.1343 C   0  0  0  0  0  0  0  0  0  0  0  0
   -3.2550   -0.1897   -1.8922 N   0  0  0  0  0  0  0  0  0  0  0  0
    0.7104   -1.0084   -0.1878 H   0  0  0  0  0  0  0  0  0  0  0  0
    0.6930    0.2041    1.0788 H   0  0  0  0  0  0  0  0  0  0  0  0
    2.1504   -0.0263    0.0852 H   0  0  0  0  0  0  0  0  0  0  0  0
   -1.1323    1.6445   -4.6294 H   0  0  0  0  0  0  0  0  0  0  0  0
   -0.0232    5.6614   -3.8287 H   0  0  0  0  0  0  0  0  0  0  0  0
    0.9050    5.0541   -1.6462 H   0  0  0  0  0  0  0  0  0  0  0  0
    2.4747    2.4589    0.5129 H   0  0  0  0  0  0  0  0  0  0  0  0
    1.6232    3.9761    0.2396 H   0  0  0  0  0  0  0  0  0  0  0  0
   -1.1303    2.9843    2.5032 H   0  0  0  0  0  0  0  0  0  0  0  0
   -0.1812   -0.7535   -3.4678 H   0  0  0  0  0  0  0  0  0  0  0  0
   -0.2929   -1.3310   -1.8642 H   0  0  0  0  0  0  0  0  0  0  0  0
   -1.9239    0.1533    0.1613 H   0  0  0  0  0  0  0  0  0  0  0  0
   -5.0067    0.5716    1.0891 H   0  0  0  0  0  0  0  0  0  0  0  0
   -7.1293    0.5972   -0.4864 H   0  0  0  0  0  0  0  0  0  0  0  0
   -8.0003   -0.5044   -2.5623 H   0  0  0  0  0  0  0  0  0  0  0  0
   -6.4844   -1.0242   -4.3834 H   0  0  0  0  0  0  0  0  0  0  0  0
   -4.0586   -0.4081   -4.1556 H   0  0  0  0  0  0  0  0  0  0  0  0
  1  2  1  0  0  0  0
  1 27  1  0  0  0  0
  1 28  1  0  0  0  0
  1 29  1  0  0  0  0
  2  3  2  0  0  0  0
  2 10  1  0  0  0  0
  3  4  1  0  0  0  0
  3 16  1  0  0  0  0
  4  5  2  0  0  0  0
  4  9  1  0  0  0  0
  5  6  1  0  0  0  0
  5 30  1  0  0  0  0
  6  7  2  0  0  0  0
  6 15  1  0  0  0  0
  7  8  1  0  0  0  0
  7 31  1  0  0  0  0
  8  9  2  0  0  0  0
  8 32  1  0  0  0  0
  9 10  1  0  0  0  0
 10 11  1  0  0  0  0
 11 12  1  0  0  0  0
 11 33  1  0  0  0  0
 11 34  1  0  0  0  0
 12 13  2  0  0  0  0
 12 14  1  0  0  0  0
 14 35  1  0  0  0  0
 16 17  1  0  0  0  0
 16 36  1  0  0  0  0
 16 37  1  0  0  0  0
 17 18  2  0  0  0  0
 17 26  1  0  0  0  0
 18 19  1  0  0  0  0
 18 38  1  0  0  0  0
 19 20  2  0  0  0  0
 19 39  1  0  0  0  0
 20 21  1  0  0  0  0
 20 25  1  0  0  0  0
 21 22  2  0  0  0  0
 21 40  1  0  0  0  0
 22 23  1  0  0  0  0
 22 41  1  0  0  0  0
 23 24  2  0  0  0  0
 23 42  1  0  0  0  0
 24 25  1  0  0  0  0
 24 43  1  0  0  0  0
 25 26  2  0  0  0  0
M  END
>  <DRUGBANK_ID>
DB11900

>  <COMMON_NAME>
OC-459

>  <CAS_NUMBER>
851723-84-7

>  <UNII>
04XB9TB8OL

$$$$
