
 OpenBabel10282417203D

 48 51  0  0  0  0  0  0  0  0999 V2000
    0.8509   -0.2952    0.2726 C   0  0  0  0  0  0  0  0  0  0  0  0
    0.3607    0.1683    1.6249 C   0  0  0  0  0  0  0  0  0  0  0  0
   -0.0762   -0.5810    2.6381 N   0  0  0  0  0  0  0  0  0  0  0  0
   -0.3734    0.2921    3.6942 C   0  0  0  0  0  0  0  0  0  0  0  0
   -0.8480    0.1662    5.0209 C   0  0  0  0  0  0  0  0  0  0  0  0
   -0.9484    1.3136    5.7928 N   0  0  0  0  0  0  0  0  0  0  0  0
   -0.6648    2.5355    5.2754 C   0  0  0  0  0  0  0  0  0  0  0  0
   -0.2738    2.7236    4.0078 N   0  0  0  0  0  0  0  0  0  0  0  0
   -0.1179    1.5922    3.2940 C   0  0  0  0  0  0  0  0  0  0  0  0
    0.3489    1.5013    2.0009 N   0  0  0  0  0  0  0  0  0  0  0  0
    0.7803    2.6562    1.2216 C   0  0  0  0  0  0  0  0  0  0  0  0
    2.2589    2.5810    0.8399 C   0  0  0  0  0  0  0  0  0  0  0  0
   -0.1411    2.9333    0.0334 C   0  0  0  0  0  0  0  0  0  0  0  0
   -0.8258    3.6460    6.0669 N   0  0  0  0  0  0  0  0  0  0  0  0
   -0.0824    3.8693    7.3067 C   0  0  0  0  0  0  0  0  0  0  0  0
   -1.0700    4.2771    8.4183 C   0  0  0  0  0  0  0  0  0  0  0  0
   -1.8568    5.4224    8.0302 O   0  0  0  0  0  0  0  0  0  0  0  0
   -2.5912    5.1384    6.8226 C   0  0  0  0  0  0  0  0  0  0  0  0
   -1.6394    4.7887    5.6542 C   0  0  0  0  0  0  0  0  0  0  0  0
   -1.1513   -1.1128    5.6774 C   0  0  0  0  0  0  0  0  0  0  0  0
   -2.3809   -1.4631    6.2104 C   0  0  0  0  0  0  0  0  0  0  0  0
   -2.6485   -2.6281    6.8782 N   0  0  0  0  0  0  0  0  0  0  0  0
   -1.6291   -3.4718    7.0365 C   0  0  0  0  0  0  0  0  0  0  0  0
   -0.3981   -3.2466    6.5835 N   0  0  0  0  0  0  0  0  0  0  0  0
   -0.1940   -2.0772    5.9140 C   0  0  0  0  0  0  0  0  0  0  0  0
   -1.8401   -4.6497    7.7123 N   0  0  0  0  0  0  0  0  0  0  0  0
    0.5608    0.3785   -0.5363 H   0  0  0  0  0  0  0  0  0  0  0  0
    0.4628   -1.2720   -0.0242 H   0  0  0  0  0  0  0  0  0  0  0  0
    1.9457   -0.3428    0.2439 H   0  0  0  0  0  0  0  0  0  0  0  0
    0.6852    3.5235    1.8858 H   0  0  0  0  0  0  0  0  0  0  0  0
    2.4748    1.7761    0.1344 H   0  0  0  0  0  0  0  0  0  0  0  0
    2.5819    3.5132    0.3683 H   0  0  0  0  0  0  0  0  0  0  0  0
    2.8797    2.4130    1.7281 H   0  0  0  0  0  0  0  0  0  0  0  0
   -1.1851    2.9933    0.3599 H   0  0  0  0  0  0  0  0  0  0  0  0
    0.1302    3.8761   -0.4484 H   0  0  0  0  0  0  0  0  0  0  0  0
   -0.0990    2.1698   -0.7432 H   0  0  0  0  0  0  0  0  0  0  0  0
    0.6050    4.7151    7.1491 H   0  0  0  0  0  0  0  0  0  0  0  0
    0.5203    3.0106    7.6140 H   0  0  0  0  0  0  0  0  0  0  0  0
   -1.7473    3.4515    8.6617 H   0  0  0  0  0  0  0  0  0  0  0  0
   -0.5293    4.5514    9.3305 H   0  0  0  0  0  0  0  0  0  0  0  0
   -3.1866    6.0258    6.5852 H   0  0  0  0  0  0  0  0  0  0  0  0
   -3.2847    4.3133    7.0247 H   0  0  0  0  0  0  0  0  0  0  0  0
   -0.9895    5.6542    5.4654 H   0  0  0  0  0  0  0  0  0  0  0  0
   -2.2219    4.5921    4.7491 H   0  0  0  0  0  0  0  0  0  0  0  0
   -3.2440   -0.8066    6.1298 H   0  0  0  0  0  0  0  0  0  0  0  0
    0.8317   -1.9339    5.5898 H   0  0  0  0  0  0  0  0  0  0  0  0
   -1.0560   -5.2687    7.8130 H   0  0  0  0  0  0  0  0  0  0  0  0
   -2.7573   -4.8632    8.0534 H   0  0  0  0  0  0  0  0  0  0  0  0
  1  2  1  0  0  0  0
  1 27  1  0  0  0  0
  1 28  1  0  0  0  0
  1 29  1  0  0  0  0
  2  3  2  0  0  0  0
  2 10  1  0  0  0  0
  3  4  1  0  0  0  0
  4  5  2  0  0  0  0
  4  9  1  0  0  0  0
  5  6  1  0  0  0  0
  5 20  1  0  0  0  0
  6  7  2  0  0  0  0
  7  8  1  0  0  0  0
  7 14  1  0  0  0  0
  8  9  2  0  0  0  0
  9 10  1  0  0  0  0
 10 11  1  0  0  0  0
 11 12  1  0  0  0  0
 11 13  1  0  0  0  0
 11 30  1  0  0  0  0
 12 31  1  0  0  0  0
 12 32  1  0  0  0  0
 12 33  1  0  0  0  0
 13 34  1  0  0  0  0
 13 35  1  0  0  0  0
 13 36  1  0  0  0  0
 14 15  1  0  0  0  0
 14 19  1  0  0  0  0
 15 16  1  0  0  0  0
 15 37  1  0  0  0  0
 15 38  1  0  0  0  0
 16 17  1  0  0  0  0
 16 39  1  0  0  0  0
 16 40  1  0  0  0  0
 17 18  1  0  0  0  0
 18 19  1  0  0  0  0
 18 41  1  0  0  0  0
 18 42  1  0  0  0  0
 19 43  1  0  0  0  0
 19 44  1  0  0  0  0
 20 21  2  0  0  0  0
 20 25  1  0  0  0  0
 21 22  1  0  0  0  0
 21 45  1  0  0  0  0
 22 23  2  0  0  0  0
 23 24  1  0  0  0  0
 23 26  1  0  0  0  0
 24 25  2  0  0  0  0
 25 46  1  0  0  0  0
 26 47  1  0  0  0  0
 26 48  1  0  0  0  0
M  END
>  <DRUGBANK_ID>
DB12986

>  <COMMON_NAME>
VS-5584

>  <CAS_NUMBER>
1246560-33-7

>  <UNII>
W71J4X250V

>  <SYNONYMS>
2-pyrimidinamine, 5-(8-methyl-9-(1-methylethyl)-2-(4-morpholinyl)-9H-purin-6-yl)-; 5-[8-methyl-9-(1-methylethyl)-2-(4-morpholinyl)-9H-purin-6yl]-2-pyrimidinamine

$$$$
