
 OpenBabel10282417203D

 31 33  0  0  0  0  0  0  0  0999 V2000
    0.8339   -0.1543   -0.3955 C   0  0  0  0  0  0  0  0  0  0  0  0
   -1.0809    4.9662   -2.7498 C   0  0  0  0  0  0  0  0  0  0  0  0
   -0.1996    5.5775   -1.8572 C   0  0  0  0  0  0  0  0  0  0  0  0
   -1.2349    3.5793   -2.7527 C   0  0  0  0  0  0  0  0  0  0  0  0
    0.5457    4.8304   -0.9324 C   0  0  0  0  0  0  0  0  0  0  0  0
    1.2941    0.6977    2.5259 C   0  0  0  0  0  0  0  0  0  0  0  0
    1.0440    2.9733    3.2164 C   0  0  0  0  0  0  0  0  0  0  0  0
    0.7204    0.2382    3.7071 C   0  0  0  0  0  0  0  0  0  0  0  0
    0.5207    2.5199    4.4370 C   0  0  0  0  0  0  0  0  0  0  0  0
    1.9040    2.5280    0.8621 C   0  0  0  0  0  0  0  0  0  0  0  0
    0.4432    1.2185   -0.7842 C   0  0  0  0  0  0  0  0  0  0  0  0
    1.4021    2.0596    2.2154 C   0  0  0  0  0  0  0  0  0  0  0  0
    0.3559    1.1582    4.6758 C   0  0  0  0  0  0  0  0  0  0  0  0
   -0.4830    2.8176   -1.8509 C   0  0  0  0  0  0  0  0  0  0  0  0
    0.3795    3.4371   -0.9491 C   0  0  0  0  0  0  0  0  0  0  0  0
   -0.2037    0.5917    6.1979 Cl  0  0  0  0  0  0  0  0  0  0  0  0
   -0.4401    1.4620   -1.7208 N   0  0  0  0  0  0  0  0  0  0  0  0
    0.9208    2.3924   -0.2169 N   0  0  0  0  0  0  0  0  0  0  0  0
    0.6327   -0.8750   -1.1908 H   0  0  0  0  0  0  0  0  0  0  0  0
    0.2251   -0.4716    0.4560 H   0  0  0  0  0  0  0  0  0  0  0  0
    1.9028   -0.2130   -0.1732 H   0  0  0  0  0  0  0  0  0  0  0  0
   -1.6496    5.5658   -3.4554 H   0  0  0  0  0  0  0  0  0  0  0  0
   -0.0904    6.6600   -1.8812 H   0  0  0  0  0  0  0  0  0  0  0  0
   -1.9077    3.0840   -3.4445 H   0  0  0  0  0  0  0  0  0  0  0  0
    1.2247    5.3259   -0.2487 H   0  0  0  0  0  0  0  0  0  0  0  0
    1.6747   -0.0641    1.8598 H   0  0  0  0  0  0  0  0  0  0  0  0
    1.1949    4.0402    3.0721 H   0  0  0  0  0  0  0  0  0  0  0  0
    0.5931   -0.8290    3.8609 H   0  0  0  0  0  0  0  0  0  0  0  0
    0.2457    3.2397    5.2044 H   0  0  0  0  0  0  0  0  0  0  0  0
    2.8064    1.9822    0.5638 H   0  0  0  0  0  0  0  0  0  0  0  0
    2.1909    3.5848    0.9232 H   0  0  0  0  0  0  0  0  0  0  0  0
  1 19  1  0  0  0  0
  1 20  1  0  0  0  0
  1 21  1  0  0  0  0
  2 22  1  0  0  0  0
  3  2  2  0  0  0  0
  3 23  1  0  0  0  0
  4  2  1  0  0  0  0
  4 24  1  0  0  0  0
  5  3  1  0  0  0  0
  5 25  1  0  0  0  0
  6 26  1  0  0  0  0
  7 27  1  0  0  0  0
  8  6  1  0  0  0  0
  8 28  1  0  0  0  0
  9  7  2  0  0  0  0
  9 29  1  0  0  0  0
 10 30  1  0  0  0  0
 10 31  1  0  0  0  0
 11  1  1  0  0  0  0
 12  6  2  0  0  0  0
 12  7  1  0  0  0  0
 12 10  1  0  0  0  0
 13  8  2  0  0  0  0
 13  9  1  0  0  0  0
 14  4  2  0  0  0  0
 15  5  2  0  0  0  0
 15 14  1  0  0  0  0
 16 13  1  0  0  0  0
 17 11  2  0  0  0  0
 17 14  1  0  0  0  0
 18 10  1  0  0  0  0
 18 11  1  0  0  0  0
 18 15  1  0  0  0  0
M  END
>  <DRUGBANK_ID>
DB13611

>  <COMMON_NAME>
Chlormidazole

>  <CAS_NUMBER>
3689-76-7

>  <UNII>
8IKK64FJVX

>  <SYNONYMS>
Chlormidazole

$$$$
