561
 OpenBabel10282417103D

 58 61  0  0  1  0  0  0  0  0999 V2000
    1.9647   -0.1598    0.0832 O   0  0  0  0  0  0  0  0  0  0  0  0
   -2.6765    6.1261   -1.8101 O   0  0  0  0  0  0  0  0  0  0  0  0
   -0.1219   -1.1490    0.0096 N   0  0  0  0  0  0  0  0  0  0  0  0
   -2.8197    3.1917   -1.5640 N   0  0  0  0  0  0  0  0  0  0  0  0
   -1.4895    0.7228   -0.2632 C   0  0  3  0  0  0  0  0  0  0  0  0
   -0.0754    1.2009    0.3345 C   0  0  0  0  0  0  0  0  0  0  0  0
   -1.5136   -0.7683    0.0702 C   0  0  0  0  0  0  0  0  0  0  0  0
   -2.8116    1.4471    0.0927 C   0  0  0  0  0  0  0  0  0  0  0  0
    0.7571   -0.0846    0.1375 C   0  0  0  0  0  0  0  0  0  0  0  0
   -0.0913    1.5509    1.8481 C   0  0  0  0  0  0  0  0  0  0  0  0
    0.6479    2.2801   -0.5479 C   0  0  0  0  0  0  0  0  0  0  0  0
   -2.7354    2.9461   -0.1189 C   0  0  0  0  0  0  0  0  0  0  0  0
    0.3539   -2.5112   -0.0037 C   0  0  0  0  0  0  0  0  0  0  0  0
    1.0989    1.9533    2.4616 C   0  0  0  0  0  0  0  0  0  0  0  0
    0.8072    2.0607   -1.9435 C   0  0  0  0  0  0  0  0  0  0  0  0
   -1.2402    1.6281    2.6438 C   0  0  0  0  0  0  0  0  0  0  0  0
    1.0267    3.5510   -0.0493 C   0  0  0  0  0  0  0  0  0  0  0  0
   -1.6698    3.9624   -2.0301 C   0  0  0  0  0  0  0  0  0  0  0  0
   -3.9727    4.0114   -1.9151 C   0  0  0  0  0  0  0  0  0  0  0  0
   -0.0697   -3.2522    1.2456 C   0  0  0  0  0  0  0  0  0  0  0  0
   -1.5228    5.3717   -1.4685 C   0  0  0  0  0  0  0  0  0  0  0  0
   -3.8439    5.4386   -1.3416 C   0  0  0  0  0  0  0  0  0  0  0  0
    1.0821    2.6167    3.6874 C   0  0  0  0  0  0  0  0  0  0  0  0
    1.2074    3.1060   -2.7940 C   0  0  0  0  0  0  0  0  0  0  0  0
   -1.3007    2.4067    3.7921 C   0  0  0  0  0  0  0  0  0  0  0  0
    1.4682    4.5718   -0.8929 C   0  0  0  0  0  0  0  0  0  0  0  0
   -0.1226    2.8769    4.3342 C   0  0  0  0  0  0  0  0  0  0  0  0
    1.5423    4.3554   -2.2664 C   0  0  0  0  0  0  0  0  0  0  0  0
   -1.4462    0.7675   -1.3598 H   0  0  0  0  0  0  0  0  0  0  0  0
   -1.9033   -0.9691    1.0729 H   0  0  0  0  0  0  0  0  0  0  0  0
   -2.0835   -1.3405   -0.6686 H   0  0  0  0  0  0  0  0  0  0  0  0
   -3.6451    1.0210   -0.4797 H   0  0  0  0  0  0  0  0  0  0  0  0
   -3.1779    1.2876    1.1010 H   0  0  0  0  0  0  0  0  0  0  0  0
   -3.5499    3.4197    0.4376 H   0  0  0  0  0  0  0  0  0  0  0  0
   -1.8249    3.3392    0.3483 H   0  0  0  0  0  0  0  0  0  0  0  0
   -0.0230   -2.9908   -0.9104 H   0  0  0  0  0  0  0  0  0  0  0  0
    1.4492   -2.5085   -0.0605 H   0  0  0  0  0  0  0  0  0  0  0  0
    2.0426    1.8495    1.9249 H   0  0  0  0  0  0  0  0  0  0  0  0
    0.4070    1.1586   -2.4062 H   0  0  0  0  0  0  0  0  0  0  0  0
   -2.1272    1.0559    2.4458 H   0  0  0  0  0  0  0  0  0  0  0  0
    0.8762    3.8354    0.9877 H   0  0  0  0  0  0  0  0  0  0  0  0
   -1.5861    3.9401   -3.1225 H   0  0  0  0  0  0  0  0  0  0  0  0
   -0.8685    3.4053   -1.6595 H   0  0  0  0  0  0  0  0  0  0  0  0
   -4.0105    4.0401   -3.0116 H   0  0  0  0  0  0  0  0  0  0  0  0
   -4.8790    3.5107   -1.5683 H   0  0  0  0  0  0  0  0  0  0  0  0
   -1.1603   -3.2930    1.3189 H   0  0  0  0  0  0  0  0  0  0  0  0
    0.3162   -4.2738    1.2286 H   0  0  0  0  0  0  0  0  0  0  0  0
    0.3075   -2.7490    2.1430 H   0  0  0  0  0  0  0  0  0  0  0  0
   -1.3855    5.3553   -0.3775 H   0  0  0  0  0  0  0  0  0  0  0  0
   -0.6453    5.8737   -1.8829 H   0  0  0  0  0  0  0  0  0  0  0  0
   -4.7033    6.0277   -1.6461 H   0  0  0  0  0  0  0  0  0  0  0  0
   -3.8006    5.4238   -0.2469 H   0  0  0  0  0  0  0  0  0  0  0  0
    2.0157    2.9785    4.1016 H   0  0  0  0  0  0  0  0  0  0  0  0
    1.0679    2.9982   -3.8685 H   0  0  0  0  0  0  0  0  0  0  0  0
   -2.2616    2.6064    4.2612 H   0  0  0  0  0  0  0  0  0  0  0  0
    1.5859    5.5741   -0.4835 H   0  0  0  0  0  0  0  0  0  0  0  0
   -0.1416    3.3963    5.2848 H   0  0  0  0  0  0  0  0  0  0  0  0
    1.7186    5.1995   -2.9282 H   0  0  0  0  0  0  0  0  0  0  0  0
  1  9  2  0  0  0  0
  2 21  1  0  0  0  0
  2 22  1  0  0  0  0
  3  7  1  0  0  0  0
  3  9  1  0  0  0  0
  3 13  1  0  0  0  0
  4 12  1  0  0  0  0
  4 18  1  0  0  0  0
  4 19  1  0  0  0  0
  5  6  1  0  0  0  0
  5  7  1  0  0  0  0
  5  8  1  0  0  0  0
  5 29  1  0  0  0  0
  6  9  1  0  0  0  0
  6 10  1  0  0  0  0
  6 11  1  0  0  0  0
  7 30  1  0  0  0  0
  7 31  1  0  0  0  0
  8 12  1  0  0  0  0
  8 32  1  0  0  0  0
  8 33  1  0  0  0  0
 10 14  2  0  0  0  0
 10 16  1  0  0  0  0
 11 15  2  0  0  0  0
 11 17  1  0  0  0  0
 12 34  1  0  0  0  0
 12 35  1  0  0  0  0
 13 20  1  0  0  0  0
 13 36  1  0  0  0  0
 13 37  1  0  0  0  0
 14 23  1  0  0  0  0
 14 38  1  0  0  0  0
 15 24  1  0  0  0  0
 15 39  1  0  0  0  0
 16 25  2  0  0  0  0
 16 40  1  0  0  0  0
 17 26  2  0  0  0  0
 17 41  1  0  0  0  0
 18 21  1  0  0  0  0
 18 42  1  0  0  0  0
 18 43  1  0  0  0  0
 19 22  1  0  0  0  0
 19 44  1  0  0  0  0
 19 45  1  0  0  0  0
 20 46  1  0  0  0  0
 20 47  1  0  0  0  0
 20 48  1  0  0  0  0
 21 49  1  0  0  0  0
 21 50  1  0  0  0  0
 22 51  1  0  0  0  0
 22 52  1  0  0  0  0
 23 27  2  0  0  0  0
 23 53  1  0  0  0  0
 24 28  2  0  0  0  0
 24 54  1  0  0  0  0
 25 27  1  0  0  0  0
 25 55  1  0  0  0  0
 26 28  1  0  0  0  0
 26 56  1  0  0  0  0
 27 57  1  0  0  0  0
 28 58  1  0  0  0  0
M  END
>  <DRUGBANK_ID>
DB00561

>  <SECONDARY_ACCESSION_NUMBERS>
APRD00935

>  <COMMON_NAME>
Doxapram

>  <CAS_NUMBER>
309-29-5

>  <UNII>
94F3830Q73

>  <SYNONYMS>
(Â±)-doxapram; 1-ethyl-4-(2-morpholinoethyl)-3,3-diphenyl-2-pyrrolidinone; Doxapram; Doxapramum

$$$$
