
 OpenBabel10282417193D

 54 57  0  0  0  0  0  0  0  0999 V2000
    1.1364    0.0957   -0.0008 C   0  0  0  0  0  0  0  0  0  0  0  0
   -1.6917    2.4110   -0.3682 C   0  0  0  0  0  0  0  0  0  0  0  0
    2.5054    3.3620    2.3399 C   0  0  0  0  0  0  0  0  0  0  0  0
   -6.7682    9.3726    4.1700 C   0  0  0  0  0  0  0  0  0  0  0  0
   -3.3369    7.9652    6.3239 C   0  0  0  0  0  0  0  0  0  0  0  0
   -4.4192    8.6376    6.9173 C   0  0  0  0  0  0  0  0  0  0  0  0
    2.2758    2.4748    1.2719 C   0  0  0  0  0  0  0  0  0  0  0  0
   -7.8378   10.1450    5.0875 C   0  0  0  0  0  0  0  0  0  0  0  0
   -1.8516    5.8578    4.6602 C   0  0  0  0  0  0  0  0  0  0  0  0
   -0.8242    7.8958    3.6815 C   0  0  0  0  0  0  0  0  0  0  0  0
   -0.4506    5.4102    5.1726 C   0  0  0  0  0  0  0  0  0  0  0  0
    0.5696    7.4348    4.2659 C   0  0  0  0  0  0  0  0  0  0  0  0
   -4.0975    8.6568    4.1548 C   0  0  0  0  0  0  0  0  0  0  0  0
    0.1697    3.8573    2.3797 C   0  0  0  0  0  0  0  0  0  0  0  0
   -5.3026    9.2021    4.7601 C   0  0  0  0  0  0  0  0  0  0  0  0
    1.4460    4.0839    2.9063 C   0  0  0  0  0  0  0  0  0  0  0  0
   -3.0826    8.0086    4.9413 C   0  0  0  0  0  0  0  0  0  0  0  0
   -5.2912    9.3779    6.1359 C   0  0  0  0  0  0  0  0  0  0  0  0
    0.9881    2.2865    0.7538 C   0  0  0  0  0  0  0  0  0  0  0  0
   -0.0730    3.0172    1.2823 C   0  0  0  0  0  0  0  0  0  0  0  0
   -6.9224   11.0680    5.7652 C   0  0  0  0  0  0  0  0  0  0  0  0
    1.7060    5.2136    3.8876 C   0  0  0  0  0  0  0  0  0  0  0  0
   -6.1830   10.3378    6.7015 N   0  0  0  0  0  0  0  0  0  0  0  0
   -1.9450    7.3346    4.4859 N   0  0  0  0  0  0  0  0  0  0  0  0
    0.6143    5.9619    4.3315 N   0  0  0  0  0  0  0  0  0  0  0  0
   -6.6316   12.1934    5.2924 O   0  0  0  0  0  0  0  0  0  0  0  0
    2.8759    5.5401    4.1176 O   0  0  0  0  0  0  0  0  0  0  0  0
    0.8013    1.4473   -0.3109 O   0  0  0  0  0  0  0  0  0  0  0  0
   -1.3783    3.0508    0.8626 O   0  0  0  0  0  0  0  0  0  0  0  0
    0.7228   -0.5400   -0.7902 H   0  0  0  0  0  0  0  0  0  0  0  0
    0.7012   -0.2274    0.9523 H   0  0  0  0  0  0  0  0  0  0  0  0
    2.2214   -0.0355    0.0025 H   0  0  0  0  0  0  0  0  0  0  0  0
   -1.0786    2.7908   -1.1932 H   0  0  0  0  0  0  0  0  0  0  0  0
   -1.6121    1.3258   -0.2604 H   0  0  0  0  0  0  0  0  0  0  0  0
   -2.7349    2.6309   -0.6147 H   0  0  0  0  0  0  0  0  0  0  0  0
    3.5260    3.5039    2.6913 H   0  0  0  0  0  0  0  0  0  0  0  0
   -6.7290    9.8786    3.2000 H   0  0  0  0  0  0  0  0  0  0  0  0
   -7.1700    8.3636    4.0243 H   0  0  0  0  0  0  0  0  0  0  0  0
   -2.6313    7.4547    6.9769 H   0  0  0  0  0  0  0  0  0  0  0  0
   -4.5467    8.5918    7.9919 H   0  0  0  0  0  0  0  0  0  0  0  0
    3.1172    1.9646    0.8092 H   0  0  0  0  0  0  0  0  0  0  0  0
   -8.6757   10.6041    4.5363 H   0  0  0  0  0  0  0  0  0  0  0  0
   -8.3457    9.6561    5.9462 H   0  0  0  0  0  0  0  0  0  0  0  0
   -2.6259    5.4455    5.3118 H   0  0  0  0  0  0  0  0  0  0  0  0
   -2.0257    5.4292    3.6704 H   0  0  0  0  0  0  0  0  0  0  0  0
   -0.8916    7.4889    2.6627 H   0  0  0  0  0  0  0  0  0  0  0  0
   -0.8663    8.9856    3.6222 H   0  0  0  0  0  0  0  0  0  0  0  0
   -0.2903    5.8029    6.1870 H   0  0  0  0  0  0  0  0  0  0  0  0
   -0.3477    4.3217    5.2392 H   0  0  0  0  0  0  0  0  0  0  0  0
    0.6953    7.8264    5.2844 H   0  0  0  0  0  0  0  0  0  0  0  0
    1.4024    7.8056    3.6570 H   0  0  0  0  0  0  0  0  0  0  0  0
   -3.9396    8.7337    3.0793 H   0  0  0  0  0  0  0  0  0  0  0  0
   -0.6816    4.3696    2.7836 H   0  0  0  0  0  0  0  0  0  0  0  0
   -6.7235    9.8911    7.4376 H   0  0  0  0  0  0  0  0  0  0  0  0
  1 30  1  0  0  0  0
  1 31  1  0  0  0  0
  1 32  1  0  0  0  0
  2 33  1  0  0  0  0
  2 34  1  0  0  0  0
  2 35  1  0  0  0  0
  3 36  1  0  0  0  0
  4 37  1  0  0  0  0
  4 38  1  0  0  0  0
  5 39  1  0  0  0  0
  6  5  1  0  0  0  0
  6 40  1  0  0  0  0
  7  3  2  0  0  0  0
  7 41  1  0  0  0  0
  8  4  1  0  0  0  0
  8 42  1  0  0  0  0
  8 43  1  0  0  0  0
  9 44  1  0  0  0  0
  9 45  1  0  0  0  0
 10 46  1  0  0  0  0
 10 47  1  0  0  0  0
 11  9  1  0  0  0  0
 11 48  1  0  0  0  0
 11 49  1  0  0  0  0
 12 10  1  0  0  0  0
 12 50  1  0  0  0  0
 12 51  1  0  0  0  0
 13 52  1  0  0  0  0
 14 53  1  0  0  0  0
 15  4  1  0  0  0  0
 15 13  2  0  0  0  0
 16  3  1  0  0  0  0
 16 14  2  0  0  0  0
 17  5  2  0  0  0  0
 17 13  1  0  0  0  0
 18  6  2  0  0  0  0
 18 15  1  0  0  0  0
 19  7  1  0  0  0  0
 20 14  1  0  0  0  0
 20 19  2  0  0  0  0
 21  8  1  0  0  0  0
 22 16  1  0  0  0  0
 23 18  1  0  0  0  0
 23 21  1  0  0  0  0
 23 54  1  0  0  0  0
 24  9  1  0  0  0  0
 24 10  1  0  0  0  0
 24 17  1  0  0  0  0
 25 11  1  0  0  0  0
 25 12  1  0  0  0  0
 25 22  1  0  0  0  0
 26 21  2  0  0  0  0
 27 22  2  0  0  0  0
 28  1  1  0  0  0  0
 28 19  1  0  0  0  0
 29  2  1  0  0  0  0
 29 20  1  0  0  0  0
M  END
>  <DRUGBANK_ID>
DB12082

>  <COMMON_NAME>
Vesnarinone

>  <CAS_NUMBER>
81840-15-5

>  <UNII>
5COW40EV8M

>  <SYNONYMS>
Vesnarinone

$$$$
