
 OpenBabel10282417193D

123130  0  0  1  0  0  0  0  0999 V2000
    0.9923    7.8812   -0.8330 C   0  0  0  0  0  0  0  0  0  0  0  0
    0.0722    8.7251   -1.5411 C   0  0  0  0  0  0  0  0  0  0  0  0
   -0.8202    9.6687   -0.6321 C   0  0  2  0  0  0  0  0  0  0  0  0
   -0.9474   10.6658    0.5805 C   0  0  0  0  0  0  0  0  0  0  0  0
   -0.5733    9.3248    1.3386 C   0  0  2  0  0  0  0  0  0  0  0  0
    0.6988    8.8892    1.4619 C   0  0  0  0  0  0  0  0  0  0  0  0
    1.5601    9.6422    1.6109 O   0  0  0  0  0  0  0  0  0  0  0  0
    0.0929    7.7278    1.5269 O   0  0  0  0  0  0  0  0  0  0  0  0
   -1.3255    8.3176    2.6453 N   0  0  0  0  0  0  0  0  0  0  0  0
   -0.7612    7.2577    3.5516 C   0  0  0  0  0  0  0  0  0  0  0  0
   -1.3489    6.3588    4.1504 O   0  0  0  0  0  0  0  0  0  0  0  0
    0.8736    7.1263    3.3421 C   0  0  2  0  0  0  0  0  0  0  0  0
    1.5309    8.3961    3.7920 C   0  0  0  0  0  0  0  0  0  0  0  0
    2.9041    8.3421    3.0113 C   0  0  2  0  0  0  0  0  0  0  0  0
    2.9060    7.6800    1.5227 C   0  0  0  0  0  0  0  0  0  0  0  0
    1.6571    6.7560    1.6173 N   0  0  0  0  0  0  0  0  0  0  0  0
    0.7660    5.8782    0.3767 C   0  0  0  0  0  0  0  0  0  0  0  0
    1.0350    5.5167   -0.7907 O   0  0  0  0  0  0  0  0  0  0  0  0
   -0.9944    5.9919    0.5594 C   0  0  2  0  0  0  0  0  0  0  0  0
   -2.3080    7.0011    0.7104 C   0  0  0  0  0  0  0  0  0  0  0  0
   -3.2684    6.6218    1.7785 C   0  0  0  0  0  0  0  0  0  0  0  0
   -2.0784    8.4884    1.0464 C   0  0  0  0  0  0  0  0  0  0  0  0
   -3.1400    7.2795   -0.5643 C   0  0  0  0  0  0  0  0  0  0  0  0
   -1.0280    5.0474    1.5177 N   0  0  0  0  0  0  0  0  0  0  0  0
   -1.8834    4.0191    1.2964 C   0  0  0  0  0  0  0  0  0  0  0  0
   -2.3104    3.7191    2.4125 O   0  0  0  0  0  0  0  0  0  0  0  0
   -2.1965    3.3687   -0.0407 O   0  0  0  0  0  0  0  0  0  0  0  0
   -1.6512    3.5768   -1.6934 C   0  0  1  0  0  0  0  0  0  0  0  0
   -2.0926    2.6489   -3.3649 C   0  0  0  0  0  0  0  0  0  0  0  0
   -3.2972    3.4669   -3.5137 C   0  0  1  0  0  0  0  0  0  0  0  0
   -4.0204    4.7934   -3.7845 C   0  0  0  0  0  0  0  0  0  0  0  0
   -2.6859    4.8596   -3.2469 C   0  0  1  0  0  0  0  0  0  0  0  0
   -2.3363    4.9331   -1.8878 C   0  0  0  0  0  0  0  0  0  0  0  0
    3.7762    7.5520    3.7805 O   0  0  0  0  0  0  0  0  0  0  0  0
    3.5682    6.2053    3.8572 C   0  0  0  0  0  0  0  0  0  0  0  0
    2.6224    5.3491    3.2873 C   0  0  0  0  0  0  0  0  0  0  0  0
    2.2637    4.0715    3.4951 C   0  0  0  0  0  0  0  0  0  0  0  0
    3.2676    3.4291    3.9204 N   0  0  0  0  0  0  0  0  0  0  0  0
    4.4501    4.0970    4.0836 C   0  0  0  0  0  0  0  0  0  0  0  0
    4.5823    5.4836    4.3502 C   0  0  0  0  0  0  0  0  0  0  0  0
    5.7535    6.0847    4.8945 C   0  0  0  0  0  0  0  0  0  0  0  0
    6.8637    5.2707    5.2720 C   0  0  0  0  0  0  0  0  0  0  0  0
    6.7817    3.8263    4.9996 C   0  0  0  0  0  0  0  0  0  0  0  0
    5.5911    3.3067    4.1725 C   0  0  0  0  0  0  0  0  0  0  0  0
    4.9554    1.3956    4.0917 Cl  0  0  0  0  0  0  0  0  0  0  0  0
    7.4260    3.0235    6.2010 O   0  0  0  0  0  0  0  0  0  0  0  0
    6.9733    1.5776    6.7129 C   0  0  0  0  0  0  0  0  0  0  0  0
    5.5424    1.2998    7.5973 C   0  0  0  0  0  0  0  0  0  0  0  0
    4.3118    1.8661    7.0589 N   0  0  0  0  0  0  0  0  0  0  0  0
    4.8398    3.0327    6.4970 C   0  0  0  0  0  0  0  0  0  0  0  0
    5.3965    4.1644    7.3275 C   0  0  0  0  0  0  0  0  0  0  0  0
    4.3382    4.7352    8.0108 O   0  0  0  0  0  0  0  0  0  0  0  0
    3.8231    3.6291    8.6994 C   0  0  0  0  0  0  0  0  0  0  0  0
    3.2503    2.5327    7.7956 C   0  0  0  0  0  0  0  0  0  0  0  0
    1.1701    3.3690    2.8164 C   0  0  0  0  0  0  0  0  0  0  0  0
    1.0361    3.3054    1.4404 C   0  0  0  0  0  0  0  0  0  0  0  0
    0.0659    1.9193    1.0851 S   0  0  0  0  0  0  0  0  0  0  0  0
   -0.5807    1.9529    2.7357 C   0  0  0  0  0  0  0  0  0  0  0  0
    0.1986    2.6725    3.5280 N   0  0  0  0  0  0  0  0  0  0  0  0
   -1.7797    1.3934    3.1525 N   0  0  0  0  0  0  0  0  0  0  0  0
   -2.9516    1.1336    2.2792 C   0  0  0  0  0  0  0  0  0  0  0  0
   -3.0966   -0.3697    2.2924 C   0  0  0  0  0  0  0  0  0  0  0  0
   -4.3111    1.7428    2.7097 C   0  0  0  0  0  0  0  0  0  0  0  0
    1.5071    8.4013   -0.1124 H   0  0  0  0  0  0  0  0  0  0  0  0
    1.8542    7.2311   -1.0268 H   0  0  0  0  0  0  0  0  0  0  0  0
    0.1503    7.4063   -0.4012 H   0  0  0  0  0  0  0  0  0  0  0  0
    0.8195    9.2085   -2.1065 H   0  0  0  0  0  0  0  0  0  0  0  0
   -0.5644    7.9354   -2.0385 H   0  0  0  0  0  0  0  0  0  0  0  0
   -1.8008    9.4701   -1.1369 H   0  0  0  0  0  0  0  0  0  0  0  0
   -0.2525   11.4520    0.8074 H   0  0  0  0  0  0  0  0  0  0  0  0
   -1.9758   10.9650    0.9058 H   0  0  0  0  0  0  0  0  0  0  0  0
    0.4642    6.8472    1.7766 H   0  0  0  0  0  0  0  0  0  0  0  0
   -2.5240    8.4265    2.7705 H   0  0  0  0  0  0  0  0  0  0  0  0
    0.9220    6.2239    3.9144 H   0  0  0  0  0  0  0  0  0  0  0  0
    0.8434    9.2521    3.5929 H   0  0  0  0  0  0  0  0  0  0  0  0
    1.5332    8.3681    4.8780 H   0  0  0  0  0  0  0  0  0  0  0  0
    3.2632    9.3914    2.9611 H   0  0  0  0  0  0  0  0  0  0  0  0
    2.9698    8.4795    0.7439 H   0  0  0  0  0  0  0  0  0  0  0  0
    3.7144    7.0270    1.2419 H   0  0  0  0  0  0  0  0  0  0  0  0
   -1.1976    5.5213   -0.3472 H   0  0  0  0  0  0  0  0  0  0  0  0
   -2.7904    6.5198    2.7237 H   0  0  0  0  0  0  0  0  0  0  0  0
   -3.9703    7.4510    1.9030 H   0  0  0  0  0  0  0  0  0  0  0  0
   -3.6591    5.6371    1.6825 H   0  0  0  0  0  0  0  0  0  0  0  0
   -1.3522    8.1612    0.1961 H   0  0  0  0  0  0  0  0  0  0  0  0
   -2.7767    9.1641    0.7259 H   0  0  0  0  0  0  0  0  0  0  0  0
   -1.7044    9.5180    2.1037 H   0  0  0  0  0  0  0  0  0  0  0  0
   -2.5720    7.5720   -1.4579 H   0  0  0  0  0  0  0  0  0  0  0  0
   -3.7970    6.4562   -0.6972 H   0  0  0  0  0  0  0  0  0  0  0  0
   -3.8383    8.1109   -0.4253 H   0  0  0  0  0  0  0  0  0  0  0  0
   -0.9510    5.3636    2.4884 H   0  0  0  0  0  0  0  0  0  0  0  0
   -0.6369    3.8075   -1.3750 H   0  0  0  0  0  0  0  0  0  0  0  0
   -1.9044    2.7078   -4.5278 H   0  0  0  0  0  0  0  0  0  0  0  0
   -2.5389    1.5924   -3.5689 H   0  0  0  0  0  0  0  0  0  0  0  0
   -3.7671    2.8680   -2.7258 H   0  0  0  0  0  0  0  0  0  0  0  0
   -4.2779    5.4676   -4.5781 H   0  0  0  0  0  0  0  0  0  0  0  0
   -4.9926    4.7926   -3.3206 H   0  0  0  0  0  0  0  0  0  0  0  0
   -1.7751    5.2216   -3.7578 H   0  0  0  0  0  0  0  0  0  0  0  0
   -1.8144    5.9018   -1.8868 H   0  0  0  0  0  0  0  0  0  0  0  0
   -3.0780    4.9718   -1.1009 H   0  0  0  0  0  0  0  0  0  0  0  0
    1.9939    5.4258    2.4869 H   0  0  0  0  0  0  0  0  0  0  0  0
    5.7188    7.1550    5.1466 H   0  0  0  0  0  0  0  0  0  0  0  0
    7.4404    5.6876    6.1342 H   0  0  0  0  0  0  0  0  0  0  0  0
    6.9436    1.0018    5.7986 H   0  0  0  0  0  0  0  0  0  0  0  0
    7.7466    1.1733    7.3773 H   0  0  0  0  0  0  0  0  0  0  0  0
    5.3598    0.2247    7.6072 H   0  0  0  0  0  0  0  0  0  0  0  0
    5.6788    1.6799    8.6002 H   0  0  0  0  0  0  0  0  0  0  0  0
    5.5313    2.5321    5.8990 H   0  0  0  0  0  0  0  0  0  0  0  0
    4.0164    3.3870    5.9429 H   0  0  0  0  0  0  0  0  0  0  0  0
    6.2960    3.9126    7.8995 H   0  0  0  0  0  0  0  0  0  0  0  0
    5.6442    5.0291    6.8061 H   0  0  0  0  0  0  0  0  0  0  0  0
    4.6727    3.2172    9.2407 H   0  0  0  0  0  0  0  0  0  0  0  0
    3.0734    4.0540    9.3173 H   0  0  0  0  0  0  0  0  0  0  0  0
    2.5392    3.0070    7.0683 H   0  0  0  0  0  0  0  0  0  0  0  0
    2.7459    1.7738    8.3460 H   0  0  0  0  0  0  0  0  0  0  0  0
    1.5275    3.8857    0.6659 H   0  0  0  0  0  0  0  0  0  0  0  0
   -2.0131    1.4962    4.1369 H   0  0  0  0  0  0  0  0  0  0  0  0
   -2.7922    1.4608    1.2500 H   0  0  0  0  0  0  0  0  0  0  0  0
   -3.3283   -0.7093    3.3080 H   0  0  0  0  0  0  0  0  0  0  0  0
   -3.8840   -0.7067    1.6166 H   0  0  0  0  0  0  0  0  0  0  0  0
   -2.1454   -0.8106    1.9881 H   0  0  0  0  0  0  0  0  0  0  0  0
   -4.3284    2.8357    2.6727 H   0  0  0  0  0  0  0  0  0  0  0  0
   -5.1193    1.4129    2.0317 H   0  0  0  0  0  0  0  0  0  0  0  0
   -4.6001    1.4363    3.7181 H   0  0  0  0  0  0  0  0  0  0  0  0
  1  2  1  0  0  0  0
  1 64  1  0  0  0  0
  1 65  1  0  0  0  0
  1 66  1  0  0  0  0
  2 67  1  0  0  0  0
  2 68  1  0  0  0  0
  3  2  1  0  0  0  0
  3  4  1  0  0  0  0
  3  5  1  0  0  0  0
  3 69  1  6  0  0  0
  4  5  1  0  0  0  0
  4 70  1  0  0  0  0
  4 71  1  0  0  0  0
  5  9  1  0  0  0  0
  5  6  1  1  0  0  0
  6  7  2  0  0  0  0
  6  8  1  0  0  0  0
  8 72  1  0  0  0  0
  9 10  1  0  0  0  0
  9 73  1  0  0  0  0
 10 11  2  0  0  0  0
 12 10  1  0  0  0  0
 12 13  1  0  0  0  0
 12 16  1  0  0  0  0
 12 74  1  1  0  0  0
 13 14  1  0  0  0  0
 13 75  1  0  0  0  0
 13 76  1  0  0  0  0
 14 15  1  0  0  0  0
 14 77  1  6  0  0  0
 14 34  1  0  0  0  0
 15 16  1  0  0  0  0
 15 78  1  0  0  0  0
 15 79  1  0  0  0  0
 16 17  1  0  0  0  0
 17 18  2  0  0  0  0
 19 24  1  0  0  0  0
 19 80  1  6  0  0  0
 19 20  1  0  0  0  0
 19 17  1  0  0  0  0
 20 21  1  0  0  0  0
 20 22  1  0  0  0  0
 20 23  1  0  0  0  0
 21 81  1  0  0  0  0
 21 82  1  0  0  0  0
 21 83  1  0  0  0  0
 22 84  1  0  0  0  0
 22 85  1  0  0  0  0
 22 86  1  0  0  0  0
 23 87  1  0  0  0  0
 23 88  1  0  0  0  0
 23 89  1  0  0  0  0
 24 25  1  0  0  0  0
 24 90  1  0  0  0  0
 25 26  2  0  0  0  0
 25 27  1  0  0  0  0
 28 29  1  0  0  0  0
 28 33  1  0  0  0  0
 28 91  1  1  0  0  0
 28 27  1  0  0  0  0
 29 30  1  0  0  0  0
 29 92  1  0  0  0  0
 29 93  1  0  0  0  0
 30 31  1  0  0  0  0
 30 32  1  0  0  0  0
 30 94  1  6  0  0  0
 31 95  1  0  0  0  0
 31 96  1  0  0  0  0
 32 31  1  0  0  0  0
 32 33  1  0  0  0  0
 32 97  1  6  0  0  0
 33 98  1  0  0  0  0
 33 99  1  0  0  0  0
 34 35  1  0  0  0  0
 35 36  1  0  0  0  0
 35 40  2  0  0  0  0
 36 37  2  0  0  0  0
 36100  1  0  0  0  0
 37 38  1  0  0  0  0
 37 55  1  0  0  0  0
 38 39  2  0  0  0  0
 39 40  1  0  0  0  0
 39 44  1  0  0  0  0
 40 41  1  0  0  0  0
 41 42  2  0  0  0  0
 41101  1  0  0  0  0
 42 43  1  0  0  0  0
 42102  1  0  0  0  0
 43 44  2  0  0  0  0
 43 46  1  0  0  0  0
 44 45  1  0  0  0  0
 46 47  1  0  0  0  0
 47 48  1  0  0  0  0
 47103  1  0  0  0  0
 47104  1  0  0  0  0
 48 49  1  0  0  0  0
 48105  1  0  0  0  0
 48106  1  0  0  0  0
 49 50  1  0  0  0  0
 49 54  1  0  0  0  0
 50 51  1  0  0  0  0
 50107  1  0  0  0  0
 50108  1  0  0  0  0
 51 52  1  0  0  0  0
 51109  1  0  0  0  0
 51110  1  0  0  0  0
 52 53  1  0  0  0  0
 53 54  1  0  0  0  0
 53111  1  0  0  0  0
 53112  1  0  0  0  0
 54113  1  0  0  0  0
 54114  1  0  0  0  0
 55 56  2  0  0  0  0
 55 59  1  0  0  0  0
 56 57  1  0  0  0  0
 56115  1  0  0  0  0
 57 58  1  0  0  0  0
 58 59  2  0  0  0  0
 58 60  1  0  0  0  0
 60 61  1  0  0  0  0
 60116  1  0  0  0  0
 61 62  1  0  0  0  0
 61 63  1  0  0  0  0
 61117  1  0  0  0  0
 62118  1  0  0  0  0
 62119  1  0  0  0  0
 62120  1  0  0  0  0
 63121  1  0  0  0  0
 63122  1  0  0  0  0
 63123  1  0  0  0  0
M  END
>  <DRUGBANK_ID>
DB12037

>  <COMMON_NAME>
Vedroprevir

>  <CAS_NUMBER>
1098189-15-1

>  <UNII>
KGD958X2B9

>  <SYNONYMS>
Vedroprevir

$$$$
