982
 OpenBabel10282417163D

 24 25  0  0  0  0  0  0  0  0999 V2000
    1.6176    1.2265   -0.2260 C   0  0  0  0  0  0  0  0  0  0  0  0
    2.5798    0.2547   -0.0505 C   0  0  0  0  0  0  0  0  0  0  0  0
    2.1454   -1.0427    0.0463 C   0  0  0  0  0  0  0  0  0  0  0  0
    0.8515   -1.4397    0.0355 N   0  0  0  0  0  0  0  0  0  0  0  0
   -0.0499   -0.4276   -0.0079 C   0  0  0  0  0  0  0  0  0  0  0  0
    0.2439    0.9276   -0.1057 C   0  0  0  0  0  0  0  0  0  0  0  0
   -1.7267   -0.7204    0.0304 S   0  0  0  0  0  0  0  0  0  0  0  0
   -2.1100    0.9601    0.0237 C   0  0  0  0  0  0  0  0  0  0  0  0
   -0.9548    1.7325   -0.0314 C   0  0  0  0  0  0  0  0  0  0  0  0
   -3.5056    1.3552    0.0848 C   0  0  0  0  0  0  0  0  0  0  0  0
   -4.5017    0.6357    0.1278 O   0  0  0  0  0  0  0  0  0  0  0  0
   -1.0710    3.0912    0.0164 O   0  0  0  0  0  0  0  0  0  0  0  0
    0.1157    3.8588    0.0670 C   0  0  0  0  0  0  0  0  0  0  0  0
    0.9942    3.7376    1.3197 C   0  0  0  0  0  0  0  0  0  0  0  0
    2.2120    3.6260    1.3468 O   0  0  0  0  0  0  0  0  0  0  0  0
   -3.6703    2.6980    0.0880 O   0  0  0  0  0  0  0  0  0  0  0  0
    0.3088    3.7632    2.4756 O   0  0  0  0  0  0  0  0  0  0  0  0
    1.9844    2.2195   -0.4298 H   0  0  0  0  0  0  0  0  0  0  0  0
    3.6265    0.5365   -0.0135 H   0  0  0  0  0  0  0  0  0  0  0  0
    2.8852   -1.8360    0.1142 H   0  0  0  0  0  0  0  0  0  0  0  0
    0.6917    3.6981   -0.8521 H   0  0  0  0  0  0  0  0  0  0  0  0
   -0.1746    4.9128    0.0126 H   0  0  0  0  0  0  0  0  0  0  0  0
   -4.6350    2.8479    0.1358 H   0  0  0  0  0  0  0  0  0  0  0  0
    0.9989    3.5952    3.1523 H   0  0  0  0  0  0  0  0  0  0  0  0
  1  2  1  0  0  0  0
  1  6  2  0  0  0  0
  1 18  1  0  0  0  0
  2  3  2  0  0  0  0
  2 19  1  0  0  0  0
  3  4  1  0  0  0  0
  3 20  1  0  0  0  0
  4  5  2  0  0  0  0
  5  6  1  0  0  0  0
  5  7  1  0  0  0  0
  6  9  1  0  0  0  0
  7  8  1  0  0  0  0
  8  9  2  0  0  0  0
  8 10  1  0  0  0  0
  9 12  1  0  0  0  0
 10 11  2  0  0  0  0
 10 16  1  0  0  0  0
 12 13  1  0  0  0  0
 13 14  1  0  0  0  0
 13 21  1  0  0  0  0
 13 22  1  0  0  0  0
 14 15  2  0  0  0  0
 14 17  1  0  0  0  0
 16 23  1  0  0  0  0
 17 24  1  0  0  0  0
M  END
>  <DRUGBANK_ID>
DB07298

>  <COMMON_NAME>
3-(CARBOXYMETHOXY)THIENO[2,3-B]PYRIDINE-2-CARBOXYLIC ACID

$$$$
