
 OpenBabel10282417103D

 88 91  0  0  0  0  0  0  0  0999 V2000
   -4.0715   -1.4713    5.7179 C   0  0  1  0  0  0  0  0  0  0  0  0
   -3.4883   -0.2374    6.5041 C   0  0  2  0  0  0  0  0  0  0  0  0
   -4.0196    1.0659    5.8567 C   0  0  1  0  0  0  0  0  0  0  0  0
   -3.7156    0.9486    4.4147 C   0  0  2  0  0  0  0  0  0  0  0  0
   -4.4811   -0.1902    3.7316 C   0  0  2  0  0  0  0  0  0  0  0  0
   -4.0918   -1.4323    4.2787 O   0  0  0  0  0  0  0  0  0  0  0  0
   -4.1919   -0.1012    2.3460 O   0  0  0  0  0  0  0  0  0  0  0  0
   -1.8967    1.3784    2.3550 C   0  0  1  0  0  0  0  0  0  0  0  0
   -0.5524    0.6792    2.4043 C   0  0  1  0  0  0  0  0  0  0  0  0
   -0.6242   -0.7612    2.6191 O   0  0  0  0  0  0  0  0  0  0  0  0
   -1.9782   -1.2579    2.6160 C   0  0  1  0  0  0  0  0  0  0  0  0
   -2.8025   -0.0288    2.1503 C   0  0  1  0  0  0  0  0  0  0  0  0
    0.0277    0.9827    1.1710 O   0  0  0  0  0  0  0  0  0  0  0  0
   -2.0800    2.7239   -0.7184 O   0  0  0  0  0  0  0  0  0  0  0  0
   -2.2247    1.3332   -0.3799 C   0  0  1  0  0  0  0  0  0  0  0  0
   -3.1660    0.5636   -1.3225 C   0  0  1  0  0  0  0  0  0  0  0  0
   -3.1885   -0.9727   -1.1343 C   0  0  0  0  0  0  0  0  0  0  0  0
   -1.7807   -1.5170   -1.0852 C   0  0  1  0  0  0  0  0  0  0  0  0
   -0.6319   -0.8698   -0.2677 C   0  0  2  0  0  0  0  0  0  0  0  0
   -0.7761    0.6663    0.0180 C   0  0  2  0  0  0  0  0  0  0  0  0
   -4.5604    1.0036   -1.1760 N   0  0  0  0  0  0  0  0  0  0  0  0
   -1.6348   -2.9919   -1.2280 N   0  0  0  0  0  0  0  0  0  0  0  0
    0.6610   -1.4690   -0.5183 O   0  0  0  0  0  0  0  0  0  0  0  0
    1.5517   -1.1565   -1.6013 C   0  0  1  0  0  0  0  0  0  0  0  0
    1.3383   -1.8607   -2.8691 O   0  0  0  0  0  0  0  0  0  0  0  0
    0.0768   -1.5136   -3.4297 C   0  0  1  0  0  0  0  0  0  0  0  0
   -0.0770   -0.0151   -3.7557 C   0  0  2  0  0  0  0  0  0  0  0  0
    0.3962    0.8205   -2.5853 C   0  0  1  0  0  0  0  0  0  0  0  0
    1.7022    0.3505   -1.8732 C   0  0  1  0  0  0  0  0  0  0  0  0
   -0.7795   -2.3933   -4.3463 C   0  0  0  0  0  0  0  0  0  0  0  0
    0.0952   -3.0415   -5.2700 N   0  0  0  0  0  0  0  0  0  0  0  0
    2.2039    1.0681   -0.6706 N   0  0  0  0  0  0  0  0  0  0  0  0
    0.2589    2.2298   -2.7458 O   0  0  0  0  0  0  0  0  0  0  0  0
   -1.4366    0.4137   -4.0276 O   0  0  0  0  0  0  0  0  0  0  0  0
   -2.3111   -2.5819    1.8730 C   0  0  0  0  0  0  0  0  0  0  0  0
   -1.9445    2.5792    3.2126 O   0  0  0  0  0  0  0  0  0  0  0  0
   -1.4241   -3.6549    2.1508 O   0  0  0  0  0  0  0  0  0  0  0  0
   -3.2925   -2.7317    6.1003 C   0  0  0  0  0  0  0  0  0  0  0  0
   -2.0367   -0.4030    6.6429 O   0  0  0  0  0  0  0  0  0  0  0  0
   -2.2603    0.7496    4.5822 N   0  0  0  0  0  0  0  0  0  0  0  0
   -5.4070    1.2761    6.0427 O   0  0  0  0  0  0  0  0  0  0  0  0
   -3.3502   -2.8745    7.5532 N   0  0  0  0  0  0  0  0  0  0  0  0
   -5.1210   -1.5567    5.9962 H   0  0  0  0  0  0  0  0  0  0  0  0
   -3.8164   -0.2190    7.5335 H   0  0  0  0  0  0  0  0  0  0  0  0
   -3.4921    1.9624    6.2091 H   0  0  0  0  0  0  0  0  0  0  0  0
   -4.0281    1.8328    3.8322 H   0  0  0  0  0  0  0  0  0  0  0  0
   -5.5708   -0.1151    3.7878 H   0  0  0  0  0  0  0  0  0  0  0  0
   -1.9304    2.0565    1.5339 H   0  0  0  0  0  0  0  0  0  0  0  0
    0.1047    1.0909    3.1772 H   0  0  0  0  0  0  0  0  0  0  0  0
   -2.1166   -1.6392    3.6132 H   0  0  0  0  0  0  0  0  0  0  0  0
   -2.7717   -0.2411    1.1010 H   0  0  0  0  0  0  0  0  0  0  0  0
   -1.3346    2.8707   -1.3188 H   0  0  0  0  0  0  0  0  0  0  0  0
   -2.9380    1.4359    0.4193 H   0  0  0  0  0  0  0  0  0  0  0  0
   -2.8888    0.8835   -2.3180 H   0  0  0  0  0  0  0  0  0  0  0  0
   -3.8039   -1.3263   -0.3039 H   0  0  0  0  0  0  0  0  0  0  0  0
   -3.6632   -1.3956   -2.0343 H   0  0  0  0  0  0  0  0  0  0  0  0
   -1.6128   -1.0823   -2.0337 H   0  0  0  0  0  0  0  0  0  0  0  0
   -0.7280   -1.3142    0.6886 H   0  0  0  0  0  0  0  0  0  0  0  0
   -0.1521    1.3248   -0.5450 H   0  0  0  0  0  0  0  0  0  0  0  0
   -5.1340    0.5537   -1.8849 H   0  0  0  0  0  0  0  0  0  0  0  0
   -4.9297    0.6983   -0.2714 H   0  0  0  0  0  0  0  0  0  0  0  0
   -0.6304   -3.2272   -1.1273 H   0  0  0  0  0  0  0  0  0  0  0  0
   -2.0484   -3.5711   -0.4944 H   0  0  0  0  0  0  0  0  0  0  0  0
    2.5118   -1.5458   -1.2407 H   0  0  0  0  0  0  0  0  0  0  0  0
   -0.3992   -1.8747   -2.5854 H   0  0  0  0  0  0  0  0  0  0  0  0
    0.4930    0.2544   -4.6340 H   0  0  0  0  0  0  0  0  0  0  0  0
   -0.4668    0.6052   -2.0069 H   0  0  0  0  0  0  0  0  0  0  0  0
    2.4892    0.4718   -2.6149 H   0  0  0  0  0  0  0  0  0  0  0  0
   -1.3929   -3.1223   -3.7891 H   0  0  0  0  0  0  0  0  0  0  0  0
   -1.5446   -1.7888   -4.8551 H   0  0  0  0  0  0  0  0  0  0  0  0
   -0.4491   -3.3939   -6.0458 H   0  0  0  0  0  0  0  0  0  0  0  0
    0.7475   -2.3377   -5.6044 H   0  0  0  0  0  0  0  0  0  0  0  0
    2.0085    2.0661   -0.7397 H   0  0  0  0  0  0  0  0  0  0  0  0
    1.7329    0.7599    0.1940 H   0  0  0  0  0  0  0  0  0  0  0  0
   -0.6266    2.3570   -3.1485 H   0  0  0  0  0  0  0  0  0  0  0  0
   -2.0905   -0.2033   -3.6507 H   0  0  0  0  0  0  0  0  0  0  0  0
   -3.3484   -2.9253    1.9599 H   0  0  0  0  0  0  0  0  0  0  0  0
   -2.2401   -2.4189    0.8366 H   0  0  0  0  0  0  0  0  0  0  0  0
   -2.4212    2.5435    3.9864 H   0  0  0  0  0  0  0  0  0  0  0  0
   -0.5180   -3.3438    1.9622 H   0  0  0  0  0  0  0  0  0  0  0  0
   -3.7059   -3.6040    5.5863 H   0  0  0  0  0  0  0  0  0  0  0  0
   -2.2452   -2.6690    5.7615 H   0  0  0  0  0  0  0  0  0  0  0  0
   -1.5998    0.4668    6.6477 H   0  0  0  0  0  0  0  0  0  0  0  0
   -1.5073    1.4126    4.5815 H   0  0  0  0  0  0  0  0  0  0  0  0
   -1.8920   -0.1992    4.4727 H   0  0  0  0  0  0  0  0  0  0  0  0
   -5.9053    0.5203    5.6875 H   0  0  0  0  0  0  0  0  0  0  0  0
   -2.7888   -3.6723    7.8300 H   0  0  0  0  0  0  0  0  0  0  0  0
   -2.8438   -2.0674    7.9392 H   0  0  0  0  0  0  0  0  0  0  0  0
  1  2  1  0  0  0  0
  1 38  1  0  0  0  0
  1 43  1  1  0  0  0
  2  3  1  0  0  0  0
  2 44  1  1  0  0  0
  2 39  1  0  0  0  0
  3  4  1  0  0  0  0
  3 41  1  0  0  0  0
  3 45  1  1  0  0  0
  4  5  1  0  0  0  0
  4 46  1  6  0  0  0
  4 40  1  0  0  0  0
  5  6  1  0  0  0  0
  5 47  1  1  0  0  0
  5  7  1  0  0  0  0
  6  1  1  0  0  0  0
  8 36  1  0  0  0  0
  8  9  1  0  0  0  0
  8 48  1  6  0  0  0
  9 10  1  0  0  0  0
  9 13  1  0  0  0  0
  9 49  1  1  0  0  0
 10 11  1  0  0  0  0
 11 35  1  0  0  0  0
 11 12  1  0  0  0  0
 11 50  1  1  0  0  0
 12  8  1  0  0  0  0
 12 51  1  6  0  0  0
 12  7  1  0  0  0  0
 14 52  1  0  0  0  0
 15 14  1  0  0  0  0
 15 16  1  0  0  0  0
 15 53  1  1  0  0  0
 16 17  1  0  0  0  0
 16 21  1  0  0  0  0
 16 54  1  6  0  0  0
 17 18  1  0  0  0  0
 17 55  1  0  0  0  0
 17 56  1  0  0  0  0
 18 19  1  0  0  0  0
 18 22  1  0  0  0  0
 18 57  1  6  0  0  0
 19 20  1  0  0  0  0
 19 58  1  1  0  0  0
 19 23  1  0  0  0  0
 20 15  1  0  0  0  0
 20 13  1  0  0  0  0
 20 59  1  6  0  0  0
 21 60  1  0  0  0  0
 21 61  1  0  0  0  0
 22 62  1  0  0  0  0
 22 63  1  0  0  0  0
 24 23  1  0  0  0  0
 24 25  1  0  0  0  0
 24 64  1  1  0  0  0
 25 26  1  0  0  0  0
 26 27  1  0  0  0  0
 26 65  1  1  0  0  0
 26 30  1  0  0  0  0
 27 28  1  0  0  0  0
 27 34  1  0  0  0  0
 27 66  1  6  0  0  0
 28 29  1  0  0  0  0
 28 67  1  1  0  0  0
 28 33  1  0  0  0  0
 29 24  1  0  0  0  0
 29 32  1  0  0  0  0
 29 68  1  6  0  0  0
 30 31  1  0  0  0  0
 30 69  1  0  0  0  0
 30 70  1  0  0  0  0
 31 71  1  0  0  0  0
 31 72  1  0  0  0  0
 32 73  1  0  0  0  0
 32 74  1  0  0  0  0
 33 75  1  0  0  0  0
 34 76  1  0  0  0  0
 35 37  1  0  0  0  0
 35 77  1  0  0  0  0
 35 78  1  0  0  0  0
 36 79  1  0  0  0  0
 37 80  1  0  0  0  0
 38 42  1  0  0  0  0
 38 81  1  0  0  0  0
 38 82  1  0  0  0  0
 39 83  1  0  0  0  0
 40 84  1  0  0  0  0
 40 85  1  0  0  0  0
 41 86  1  0  0  0  0
 42 87  1  0  0  0  0
 42 88  1  0  0  0  0
M  END
>  <DRUGBANK_ID>
DB00452

>  <SECONDARY_ACCESSION_NUMBERS>
APRD00618

>  <COMMON_NAME>
Framycetin

>  <CAS_NUMBER>
119-04-0

>  <UNII>
4BOC774388

>  <SYNONYMS>
Fradiomycin B; Framicetina; Framycetin; Framyc√©tine; Framycetinum; Neomycin B

$$$$
