
 OpenBabel10282417153D

 57 60  0  0  1  0  0  0  0  0999 V2000
    1.0762   -0.1205   -0.0808 Cl  0  0  0  0  0  0  0  0  0  0  0  0
    6.5652   -2.5836    1.0272 O   0  0  0  0  0  0  0  0  0  0  0  0
    9.1043    0.2774    0.8243 O   0  0  0  0  0  0  0  0  0  0  0  0
    3.6427    1.3007    7.4779 O   0  0  0  0  0  0  0  0  0  0  0  0
    6.9914    0.0636   -0.1188 N   0  0  0  0  0  0  0  0  0  0  0  0
    5.2076    1.6146    5.8630 N   0  0  0  0  0  0  0  0  0  0  0  0
    6.4987   -2.6713   -1.4556 C   0  0  0  0  0  0  0  0  0  0  0  0
    7.7807   -1.8353   -1.5292 C   0  0  0  0  0  0  0  0  0  0  0  0
    5.7305   -2.5619   -0.1246 C   0  0  2  0  0  0  0  0  0  0  0  0
    7.5250   -0.3364   -1.4176 C   0  0  0  0  0  0  0  0  0  0  0  0
    4.9273   -1.2715   -0.0737 C   0  0  0  0  0  0  0  0  0  0  0  0
    5.5797   -0.0173   -0.0177 C   0  0  0  0  0  0  0  0  0  0  0  0
    7.8714    0.3368    0.9479 C   0  0  0  0  0  0  0  0  0  0  0  0
    3.5194   -1.2928   -0.0729 C   0  0  0  0  0  0  0  0  0  0  0  0
    4.8481    1.1730   -0.0138 C   0  0  0  0  0  0  0  0  0  0  0  0
    7.3406    0.7134    2.2892 C   0  0  0  0  0  0  0  0  0  0  0  0
    2.7983   -0.0930   -0.0604 C   0  0  0  0  0  0  0  0  0  0  0  0
    3.4560    1.1356   -0.0450 C   0  0  0  0  0  0  0  0  0  0  0  0
    7.6152    1.9183    2.9643 C   0  0  0  0  0  0  0  0  0  0  0  0
    6.4563   -0.1472    2.8727 C   0  0  0  0  0  0  0  0  0  0  0  0
    6.9947    2.1966    4.2282 C   0  0  0  0  0  0  0  0  0  0  0  0
    5.9530    1.3877    4.6798 C   0  0  0  0  0  0  0  0  0  0  0  0
    5.6377    0.3367    3.8593 C   0  0  0  0  0  0  0  0  0  0  0  0
    8.4862    2.9560    2.3277 C   0  0  0  0  0  0  0  0  0  0  0  0
    4.2120    0.8390    6.4954 C   0  0  0  0  0  0  0  0  0  0  0  0
    3.7885   -0.5248    5.9893 C   0  0  0  0  0  0  0  0  0  0  0  0
    2.4755   -0.7388    5.5105 C   0  0  0  0  0  0  0  0  0  0  0  0
    4.7697   -1.5091    5.7438 C   0  0  0  0  0  0  0  0  0  0  0  0
    2.2198   -1.8581    4.6859 C   0  0  0  0  0  0  0  0  0  0  0  0
    1.3301    0.2017    5.7615 C   0  0  0  0  0  0  0  0  0  0  0  0
    4.5340   -2.4974    4.7690 C   0  0  0  0  0  0  0  0  0  0  0  0
    3.2632   -2.6604    4.2282 C   0  0  0  0  0  0  0  0  0  0  0  0
    7.2255   -3.2890    1.0001 H   0  0  0  0  0  0  0  0  0  0  0  0
    5.3728    2.4877    6.3535 H   0  0  0  0  0  0  0  0  0  0  0  0
    5.8340   -2.3970   -2.2877 H   0  0  0  0  0  0  0  0  0  0  0  0
    6.7808   -3.7169   -1.6332 H   0  0  0  0  0  0  0  0  0  0  0  0
    8.4789   -2.1613   -0.7514 H   0  0  0  0  0  0  0  0  0  0  0  0
    8.2687   -2.0288   -2.4931 H   0  0  0  0  0  0  0  0  0  0  0  0
    5.0688   -3.4296   -0.0241 H   0  0  0  0  0  0  0  0  0  0  0  0
    8.4592    0.2078   -1.5923 H   0  0  0  0  0  0  0  0  0  0  0  0
    6.8273   -0.0125   -2.2030 H   0  0  0  0  0  0  0  0  0  0  0  0
    2.9768   -2.2359   -0.0900 H   0  0  0  0  0  0  0  0  0  0  0  0
    5.3637    2.1287   -0.0340 H   0  0  0  0  0  0  0  0  0  0  0  0
    2.8952    2.0663   -0.0701 H   0  0  0  0  0  0  0  0  0  0  0  0
    6.2421   -1.1312    2.5014 H   0  0  0  0  0  0  0  0  0  0  0  0
    7.2951    3.0805    4.7872 H   0  0  0  0  0  0  0  0  0  0  0  0
    4.6856   -0.1480    3.9101 H   0  0  0  0  0  0  0  0  0  0  0  0
    7.9040    3.8727    2.1948 H   0  0  0  0  0  0  0  0  0  0  0  0
    9.3665    3.1441    2.9434 H   0  0  0  0  0  0  0  0  0  0  0  0
    8.8225    2.6605    1.3308 H   0  0  0  0  0  0  0  0  0  0  0  0
    5.7913   -1.3528    6.0867 H   0  0  0  0  0  0  0  0  0  0  0  0
    1.2105   -2.0597    4.3294 H   0  0  0  0  0  0  0  0  0  0  0  0
    0.8868    0.5191    4.8107 H   0  0  0  0  0  0  0  0  0  0  0  0
    0.5676   -0.3044    6.3615 H   0  0  0  0  0  0  0  0  0  0  0  0
    1.6182    1.1112    6.2876 H   0  0  0  0  0  0  0  0  0  0  0  0
    5.3743   -3.0342    4.3281 H   0  0  0  0  0  0  0  0  0  0  0  0
    3.0925   -3.3803    3.4296 H   0  0  0  0  0  0  0  0  0  0  0  0
  1 17  1  0  0  0  0
  2 33  1  0  0  0  0
  3 13  2  0  0  0  0
  4 25  2  0  0  0  0
  5 10  1  0  0  0  0
  5 12  1  0  0  0  0
  5 13  1  0  0  0  0
  6 22  1  0  0  0  0
  6 25  1  0  0  0  0
  6 34  1  0  0  0  0
  7  8  1  0  0  0  0
  7  9  1  0  0  0  0
  7 35  1  0  0  0  0
  7 36  1  0  0  0  0
  8 10  1  0  0  0  0
  8 37  1  0  0  0  0
  8 38  1  0  0  0  0
  9 11  1  0  0  0  0
  9 39  1  1  0  0  0
  9  2  1  0  0  0  0
 10 40  1  0  0  0  0
 10 41  1  0  0  0  0
 11 12  2  0  0  0  0
 11 14  1  0  0  0  0
 12 15  1  0  0  0  0
 13 16  1  0  0  0  0
 14 17  2  0  0  0  0
 14 42  1  0  0  0  0
 15 18  2  0  0  0  0
 15 43  1  0  0  0  0
 16 19  2  0  0  0  0
 16 20  1  0  0  0  0
 17 18  1  0  0  0  0
 18 44  1  0  0  0  0
 19 21  1  0  0  0  0
 19 24  1  0  0  0  0
 20 23  2  0  0  0  0
 20 45  1  0  0  0  0
 21 22  2  0  0  0  0
 21 46  1  0  0  0  0
 22 23  1  0  0  0  0
 23 47  1  0  0  0  0
 24 48  1  0  0  0  0
 24 49  1  0  0  0  0
 24 50  1  0  0  0  0
 25 26  1  0  0  0  0
 26 27  1  0  0  0  0
 26 28  2  0  0  0  0
 27 29  2  0  0  0  0
 27 30  1  0  0  0  0
 28 31  1  0  0  0  0
 28 51  1  0  0  0  0
 29 32  1  0  0  0  0
 29 52  1  0  0  0  0
 30 53  1  0  0  0  0
 30 54  1  0  0  0  0
 30 55  1  0  0  0  0
 31 32  2  0  0  0  0
 31 56  1  0  0  0  0
 32 57  1  0  0  0  0
M  END
>  <DRUGBANK_ID>
DB06212

>  <COMMON_NAME>
Tolvaptan

>  <CAS_NUMBER>
150683-30-0

>  <UNII>
1E2497LPNY

$$$$
