LEG
 OpenBabel10282417173D

 36 36  0  0  0  0  0  0  0  0999 V2000
    0.9500    0.0144    0.1753 C   0  0  0  0  0  0  0  0  0  0  0  0
    0.4958    1.1882   -0.6785 C   0  0  0  0  0  0  0  0  0  0  0  0
    0.9733    1.0292   -2.1209 C   0  0  0  0  0  0  0  0  0  0  0  0
    0.4228   -0.2460   -2.7678 C   0  0  0  0  0  0  0  0  0  0  0  0
   -1.1199   -0.2978   -2.7643 C   0  0  0  0  0  0  0  0  0  0  0  0
   -1.7362    0.8240   -3.6005 C   0  0  0  0  0  0  0  0  0  0  0  0
   -1.2441    0.7464   -5.0199 C   0  0  0  0  0  0  0  0  0  0  0  0
   -1.0611   -0.4712   -5.6971 C   0  0  0  0  0  0  0  0  0  0  0  0
   -0.3932   -0.5156   -6.9226 C   0  0  0  0  0  0  0  0  0  0  0  0
   -0.7909    1.9147   -5.6030 C   0  0  0  0  0  0  0  0  0  0  0  0
   -0.1094    1.8515   -6.8053 C   0  0  0  0  0  0  0  0  0  0  0  0
    0.0250    0.6700   -7.5330 C   0  0  0  0  0  0  0  0  0  0  0  0
    0.5505    0.6014   -8.9297 C   0  0  0  0  0  0  0  0  0  0  0  0
    0.6954   -0.4936   -9.4631 O   0  0  0  0  0  0  0  0  0  0  0  0
    0.8684    1.8168   -9.7531 C   0  0  0  0  0  0  0  0  0  0  0  0
    0.7211    3.1251   -9.5174 C   0  0  0  0  0  0  0  0  0  0  0  0
    0.5554   -0.9383   -0.1922 H   0  0  0  0  0  0  0  0  0  0  0  0
    0.6003    0.1263    1.2026 H   0  0  0  0  0  0  0  0  0  0  0  0
    2.0422   -0.0506    0.1722 H   0  0  0  0  0  0  0  0  0  0  0  0
   -0.5958    1.2749   -0.6384 H   0  0  0  0  0  0  0  0  0  0  0  0
    0.8830    2.1245   -0.2655 H   0  0  0  0  0  0  0  0  0  0  0  0
    0.6830    1.9118   -2.7034 H   0  0  0  0  0  0  0  0  0  0  0  0
    2.0692    1.0067   -2.1504 H   0  0  0  0  0  0  0  0  0  0  0  0
    0.8312   -0.3214   -3.7819 H   0  0  0  0  0  0  0  0  0  0  0  0
    0.8078   -1.1362   -2.2609 H   0  0  0  0  0  0  0  0  0  0  0  0
   -1.4487   -1.2734   -3.1349 H   0  0  0  0  0  0  0  0  0  0  0  0
   -1.5151   -0.2427   -1.7464 H   0  0  0  0  0  0  0  0  0  0  0  0
   -2.8288    0.8051   -3.5791 H   0  0  0  0  0  0  0  0  0  0  0  0
   -1.4467    1.7911   -3.1627 H   0  0  0  0  0  0  0  0  0  0  0  0
   -1.3744   -1.4103   -5.2483 H   0  0  0  0  0  0  0  0  0  0  0  0
   -0.1789   -1.4847   -7.3718 H   0  0  0  0  0  0  0  0  0  0  0  0
   -0.8866    2.8755   -5.1030 H   0  0  0  0  0  0  0  0  0  0  0  0
    0.3637    2.7730   -7.0769 H   0  0  0  0  0  0  0  0  0  0  0  0
    1.2698    1.5355  -10.7268 H   0  0  0  0  0  0  0  0  0  0  0  0
    1.0495    3.8686  -10.2330 H   0  0  0  0  0  0  0  0  0  0  0  0
    0.2705    3.5693   -8.6486 H   0  0  0  0  0  0  0  0  0  0  0  0
  1  2  1  0  0  0  0
  1 17  1  0  0  0  0
  1 18  1  0  0  0  0
  1 19  1  0  0  0  0
  2  3  1  0  0  0  0
  2 20  1  0  0  0  0
  2 21  1  0  0  0  0
  3  4  1  0  0  0  0
  3 22  1  0  0  0  0
  3 23  1  0  0  0  0
  4  5  1  0  0  0  0
  4 24  1  0  0  0  0
  4 25  1  0  0  0  0
  5  6  1  0  0  0  0
  5 26  1  0  0  0  0
  5 27  1  0  0  0  0
  6  7  1  0  0  0  0
  6 28  1  0  0  0  0
  6 29  1  0  0  0  0
  7 10  1  0  0  0  0
  7  8  2  0  0  0  0
  8  9  1  0  0  0  0
  8 30  1  0  0  0  0
  9 12  2  0  0  0  0
  9 31  1  0  0  0  0
 10 11  2  0  0  0  0
 10 32  1  0  0  0  0
 11 12  1  0  0  0  0
 11 33  1  0  0  0  0
 12 13  1  0  0  0  0
 13 14  2  0  0  0  0
 13 15  1  0  0  0  0
 15 16  2  0  0  0  0
 15 34  1  0  0  0  0
 16 35  1  0  0  0  0
 16 36  1  0  0  0  0
M  END
>  <DRUGBANK_ID>
DB08085

>  <COMMON_NAME>
1-(4-HEXYLPHENYL)PROP-2-EN-1-ONE

>  <UNII>
MA965OF9ZR

$$$$
