
 OpenBabel10282417193D

 30 31  0  0  0  0  0  0  0  0999 V2000
    1.1910   -0.1039   -0.0763 C   0  0  0  0  0  0  0  0  0  0  0  0
    0.7508   -0.1307   -1.6550 C   0  0  0  0  0  0  0  0  0  0  0  0
    0.9808   -2.3223    1.0312 C   0  0  0  0  0  0  0  0  0  0  0  0
   -0.9343   -0.8418    0.8347 C   0  0  0  0  0  0  0  0  0  0  0  0
    0.5947   -2.9155   -0.2671 C   0  0  0  0  0  0  0  0  0  0  0  0
   -1.4183   -1.4559   -0.4608 C   0  0  0  0  0  0  0  0  0  0  0  0
    2.1856   -2.8066   -3.6879 C   0  0  0  0  0  0  0  0  0  0  0  0
    0.2765   -2.5247   -2.8473 C   0  0  0  0  0  0  0  0  0  0  0  0
    2.0407   -1.4627   -3.4160 C   0  0  0  0  0  0  0  0  0  0  0  0
    1.0890   -3.4709   -3.2936 N   0  0  0  0  0  0  0  0  0  0  0  0
    0.5375   -0.9058    1.0049 N   0  0  0  0  0  0  0  0  0  0  0  0
    0.9267   -1.2801   -2.6279 N   0  0  0  0  0  0  0  0  0  0  0  0
    2.8707   -0.4599   -3.9439 N   0  0  0  0  0  0  0  0  0  0  0  0
    2.7258    0.7079   -3.5095 O   0  0  0  0  0  0  0  0  0  0  0  0
    3.6485   -0.7981   -4.8069 O   0  0  0  0  0  0  0  0  0  0  0  0
   -0.8438   -2.7769   -0.5033 O   0  0  0  0  0  0  0  0  0  0  0  0
    0.9722    0.9265    0.2625 H   0  0  0  0  0  0  0  0  0  0  0  0
    2.2847   -0.1604    0.0237 H   0  0  0  0  0  0  0  0  0  0  0  0
   -0.2235    0.3592   -1.7602 H   0  0  0  0  0  0  0  0  0  0  0  0
    1.3171    0.7019   -2.0505 H   0  0  0  0  0  0  0  0  0  0  0  0
    0.4967   -2.9581    1.7756 H   0  0  0  0  0  0  0  0  0  0  0  0
    2.0712   -2.4086    1.1568 H   0  0  0  0  0  0  0  0  0  0  0  0
   -1.4013   -1.4719    1.5985 H   0  0  0  0  0  0  0  0  0  0  0  0
   -1.2917    0.1795    0.9978 H   0  0  0  0  0  0  0  0  0  0  0  0
    1.3193   -2.4011   -0.8986 H   0  0  0  0  0  0  0  0  0  0  0  0
    0.8723   -3.9545   -0.4322 H   0  0  0  0  0  0  0  0  0  0  0  0
   -2.5135   -1.4535   -0.5073 H   0  0  0  0  0  0  0  0  0  0  0  0
   -1.2705   -0.9456   -1.4089 H   0  0  0  0  0  0  0  0  0  0  0  0
    2.9825   -3.3175   -4.2045 H   0  0  0  0  0  0  0  0  0  0  0  0
   -0.6852   -2.8945   -2.4956 H   0  0  0  0  0  0  0  0  0  0  0  0
  1 17  1  0  0  0  0
  1 18  1  0  0  0  0
  2  1  1  0  0  0  0
  2 19  1  0  0  0  0
  2 20  1  0  0  0  0
  3 21  1  0  0  0  0
  3 22  1  0  0  0  0
  4 23  1  0  0  0  0
  4 24  1  0  0  0  0
  5  3  1  0  0  0  0
  5 25  1  0  0  0  0
  5 26  1  0  0  0  0
  6  4  1  0  0  0  0
  6 27  1  0  0  0  0
  6 28  1  0  0  0  0
  7 29  1  0  0  0  0
  8 30  1  0  0  0  0
  9  7  2  0  0  0  0
 10  7  1  0  0  0  0
 10  8  2  0  0  0  0
 11  1  1  0  0  0  0
 11  3  1  0  0  0  0
 11  4  1  0  0  0  0
 12  2  1  0  0  0  0
 12  8  1  0  0  0  0
 12  9  1  0  0  0  0
 13  9  1  0  0  0  0
 14 13  2  0  0  0  0
 15 13  2  0  0  0  0
 16  5  1  0  0  0  0
 16  6  1  0  0  0  0
M  END
>  <DRUGBANK_ID>
DB12172

>  <COMMON_NAME>
Nimorazole

>  <CAS_NUMBER>
6506-37-2

>  <UNII>
469ULX0H4G

>  <SYNONYMS>
Nimorazole

$$$$
