2361
 OpenBabel10282417163D

 33 36  0  0  0  0  0  0  0  0999 V2000
    2.8128    0.8827   -0.0021 O   0  0  0  0  0  0  0  0  0  0  0  0
    1.0292   -2.7762    0.0057 O   0  0  0  0  0  0  0  0  0  0  0  0
    0.7079   -0.3856    0.0012 C   0  0  0  0  0  0  0  0  0  0  0  0
   -0.7193   -0.3901    0.0005 C   0  0  0  0  0  0  0  0  0  0  0  0
    1.4298    0.8196    0.0008 C   0  0  0  0  0  0  0  0  0  0  0  0
   -1.3960    0.8548    0.0002 C   0  0  0  0  0  0  0  0  0  0  0  0
    1.4964   -1.6408    0.0014 C   0  0  0  0  0  0  0  0  0  0  0  0
    3.5144   -0.3100   -0.0407 C   0  0  0  0  0  0  0  0  0  0  0  0
    0.7443    2.0351    0.0018 C   0  0  0  0  0  0  0  0  0  0  0  0
   -0.6549    2.0497    0.0011 C   0  0  0  0  0  0  0  0  0  0  0  0
   -1.5232   -1.5576   -0.0001 C   0  0  0  0  0  0  0  0  0  0  0  0
    2.9480   -1.5198   -0.0151 C   0  0  0  0  0  0  0  0  0  0  0  0
   -2.8053    0.8862   -0.0010 C   0  0  0  0  0  0  0  0  0  0  0  0
    4.9861   -0.2471   -0.0606 C   0  0  0  0  0  0  0  0  0  0  0  0
   -2.9142   -1.5133    0.0019 C   0  0  0  0  0  0  0  0  0  0  0  0
   -3.5576   -0.2894    0.0002 C   0  0  0  0  0  0  0  0  0  0  0  0
    5.7033   -0.9272   -1.0617 C   0  0  0  0  0  0  0  0  0  0  0  0
    5.6996    0.3627    0.9761 C   0  0  0  0  0  0  0  0  0  0  0  0
    7.0842   -1.1050   -0.9570 C   0  0  0  0  0  0  0  0  0  0  0  0
    7.0961    0.2755    1.0182 C   0  0  0  0  0  0  0  0  0  0  0  0
    7.7807   -0.5053    0.0871 C   0  0  0  0  0  0  0  0  0  0  0  0
    1.2877    2.9774    0.0009 H   0  0  0  0  0  0  0  0  0  0  0  0
   -1.1710    3.0098    0.0010 H   0  0  0  0  0  0  0  0  0  0  0  0
   -1.0848   -2.5504   -0.0017 H   0  0  0  0  0  0  0  0  0  0  0  0
    3.5009   -2.4507   -0.0083 H   0  0  0  0  0  0  0  0  0  0  0  0
   -3.3374    1.8354   -0.0022 H   0  0  0  0  0  0  0  0  0  0  0  0
   -3.4747   -2.4443    0.0047 H   0  0  0  0  0  0  0  0  0  0  0  0
   -4.6430   -0.2531   -0.0002 H   0  0  0  0  0  0  0  0  0  0  0  0
    5.1835   -1.3571   -1.9159 H   0  0  0  0  0  0  0  0  0  0  0  0
    5.1759    0.8780    1.7773 H   0  0  0  0  0  0  0  0  0  0  0  0
    7.6122   -1.7153   -1.6856 H   0  0  0  0  0  0  0  0  0  0  0  0
    7.6507    0.7979    1.7933 H   0  0  0  0  0  0  0  0  0  0  0  0
    8.8558   -0.6439    0.1728 H   0  0  0  0  0  0  0  0  0  0  0  0
  1  5  1  0  0  0  0
  1  8  1  0  0  0  0
  2  7  2  0  0  0  0
  3  4  1  0  0  0  0
  3  5  2  0  0  0  0
  3  7  1  0  0  0  0
  4  6  1  0  0  0  0
  4 11  2  0  0  0  0
  5  9  1  0  0  0  0
  6 10  1  0  0  0  0
  6 13  2  0  0  0  0
  7 12  1  0  0  0  0
  8 12  2  0  0  0  0
  8 14  1  0  0  0  0
  9 10  2  0  0  0  0
  9 22  1  0  0  0  0
 10 23  1  0  0  0  0
 11 15  1  0  0  0  0
 11 24  1  0  0  0  0
 12 25  1  0  0  0  0
 13 16  1  0  0  0  0
 13 26  1  0  0  0  0
 14 17  2  0  0  0  0
 14 18  1  0  0  0  0
 15 16  2  0  0  0  0
 15 27  1  0  0  0  0
 16 28  1  0  0  0  0
 17 19  1  0  0  0  0
 17 29  1  0  0  0  0
 18 20  2  0  0  0  0
 18 30  1  0  0  0  0
 19 21  2  0  0  0  0
 19 31  1  0  0  0  0
 20 21  1  0  0  0  0
 20 32  1  0  0  0  0
 21 33  1  0  0  0  0
M  END
>  <DRUGBANK_ID>
DB06732

>  <COMMON_NAME>
beta-Naphthoflavone

>  <CAS_NUMBER>
6051-87-2

>  <UNII>
1BT0256Y8O

>  <SYNONYMS>
3-phenyl-1H-naphtho(2,1-b)pyran-1-one; 5,6-benzoflavone; beta-NF; Î²-NF

$$$$
