
 OpenBabel10282417203D

 46 48  0  0  1  0  0  0  0  0999 V2000
    1.0357    0.0408   -0.0491 C   0  0  0  0  0  0  0  0  0  0  0  0
    0.6054    1.2016   -0.9004 C   0  0  0  0  0  0  0  0  0  0  0  0
    0.1970    0.9948   -2.2221 C   0  0  0  0  0  0  0  0  0  0  0  0
   -0.0362    2.0858   -3.0583 C   0  0  0  0  0  0  0  0  0  0  0  0
    0.2585    3.3808   -2.6189 C   0  0  0  0  0  0  0  0  0  0  0  0
    0.6633    3.6056   -1.3017 C   0  0  0  0  0  0  0  0  0  0  0  0
    0.7482    2.5180   -0.4236 C   0  0  0  0  0  0  0  0  0  0  0  0
    1.0516    4.9280   -0.8794 C   0  0  0  0  0  0  0  0  0  0  0  0
    1.4021    6.1173   -0.4761 C   0  0  0  0  0  0  0  0  0  0  0  0
    1.8107    7.5038   -0.0060 C   0  0  2  0  0  0  0  0  0  0  0  0
    2.5796    7.2053    1.3024 C   0  0  0  0  0  0  0  0  0  0  0  0
    1.6429    7.0911    2.5048 C   0  0  0  0  0  0  0  0  0  0  0  0
    0.6826    8.2727    2.6583 C   0  0  0  0  0  0  0  0  0  0  0  0
   -0.0388    8.7437    1.3771 C   0  0  2  0  0  0  0  0  0  0  0  0
    0.8932    8.7154    0.1553 C   0  0  1  0  0  0  0  0  0  0  0  0
    1.7184   10.0187    0.4406 C   0  0  0  0  0  0  0  0  0  0  0  0
    0.7058   11.0147    0.9760 C   0  0  0  0  0  0  0  0  0  0  0  0
   -0.3659   10.1928    1.5091 N   0  0  0  0  0  0  0  0  0  0  0  0
   -1.5014   10.6998    2.1193 C   0  0  0  0  0  0  0  0  0  0  0  0
   -2.3927    9.9887    2.5838 O   0  0  0  0  0  0  0  0  0  0  0  0
   -1.5458   12.0689    2.1533 O   0  0  0  0  0  0  0  0  0  0  0  0
   -2.7204   12.6501    2.7590 C   0  0  0  0  0  0  0  0  0  0  0  0
    2.8041    7.8279   -1.0045 O   0  0  0  0  0  0  0  0  0  0  0  0
    0.6675   -0.9130   -0.4421 H   0  0  0  0  0  0  0  0  0  0  0  0
    0.6770    0.1456    0.9783 H   0  0  0  0  0  0  0  0  0  0  0  0
    2.1315   -0.0039   -0.0403 H   0  0  0  0  0  0  0  0  0  0  0  0
    0.0806   -0.0140   -2.6145 H   0  0  0  0  0  0  0  0  0  0  0  0
   -0.4044    1.9238   -4.0681 H   0  0  0  0  0  0  0  0  0  0  0  0
    0.1858    4.2092   -3.3183 H   0  0  0  0  0  0  0  0  0  0  0  0
    0.9728    2.6842    0.6274 H   0  0  0  0  0  0  0  0  0  0  0  0
    3.3597    7.9537    1.4792 H   0  0  0  0  0  0  0  0  0  0  0  0
    3.1478    6.2654    1.2059 H   0  0  0  0  0  0  0  0  0  0  0  0
    2.2624    7.0262    3.4083 H   0  0  0  0  0  0  0  0  0  0  0  0
    1.0774    6.1530    2.4574 H   0  0  0  0  0  0  0  0  0  0  0  0
    1.2760    9.1044    3.0596 H   0  0  0  0  0  0  0  0  0  0  0  0
   -0.0617    8.0519    3.4314 H   0  0  0  0  0  0  0  0  0  0  0  0
   -0.9503    8.1601    1.2048 H   0  0  0  0  0  0  0  0  0  0  0  0
    0.3223    8.8841   -0.7672 H   0  0  0  0  0  0  0  0  0  0  0  0
    2.2438   10.4247   -0.4261 H   0  0  0  0  0  0  0  0  0  0  0  0
    2.4823    9.8439    1.2098 H   0  0  0  0  0  0  0  0  0  0  0  0
    0.3323   11.6538    0.1727 H   0  0  0  0  0  0  0  0  0  0  0  0
    1.1469   11.6344    1.7648 H   0  0  0  0  0  0  0  0  0  0  0  0
   -3.6266   12.3762    2.2075 H   0  0  0  0  0  0  0  0  0  0  0  0
   -2.8121   12.3599    3.8116 H   0  0  0  0  0  0  0  0  0  0  0  0
   -2.6333   13.7438    2.7256 H   0  0  0  0  0  0  0  0  0  0  0  0
    2.8769    8.7812   -1.1344 H   0  0  0  0  0  0  0  0  0  0  0  0
  1  2  1  0  0  0  0
  1 24  1  0  0  0  0
  1 25  1  0  0  0  0
  1 26  1  0  0  0  0
  2  3  2  0  0  0  0
  2  7  1  0  0  0  0
  3  4  1  0  0  0  0
  3 27  1  0  0  0  0
  4  5  2  0  0  0  0
  4 28  1  0  0  0  0
  5  6  1  0  0  0  0
  5 29  1  0  0  0  0
  6  7  2  0  0  0  0
  6  8  1  0  0  0  0
  7 30  1  0  0  0  0
  8  9  3  0  0  0  0
 10  9  1  6  0  0  0
 10 11  1  0  0  0  0
 10 15  1  0  0  0  0
 10 23  1  0  0  0  0
 11 12  1  0  0  0  0
 11 31  1  0  0  0  0
 11 32  1  0  0  0  0
 12 13  1  0  0  0  0
 12 33  1  0  0  0  0
 12 34  1  0  0  0  0
 13 14  1  0  0  0  0
 13 35  1  0  0  0  0
 13 36  1  0  0  0  0
 14 15  1  0  0  0  0
 14 18  1  0  0  0  0
 14 37  1  6  0  0  0
 15 16  1  0  0  0  0
 15 38  1  6  0  0  0
 16 17  1  0  0  0  0
 16 39  1  0  0  0  0
 16 40  1  0  0  0  0
 17 18  1  0  0  0  0
 17 41  1  0  0  0  0
 17 42  1  0  0  0  0
 18 19  1  0  0  0  0
 19 20  2  0  0  0  0
 19 21  1  0  0  0  0
 21 22  1  0  0  0  0
 22 43  1  0  0  0  0
 22 44  1  0  0  0  0
 22 45  1  0  0  0  0
 23 46  1  0  0  0  0
M  END
>  <DRUGBANK_ID>
DB13004

>  <COMMON_NAME>
Mavoglurant

>  <CAS_NUMBER>
543906-09-8

>  <UNII>
GT0I9SV4F6

>  <SYNONYMS>
Mavoglurant

$$$$
