609
 OpenBabel10282417103D

 21 21  0  0  0  0  0  0  0  0999 V2000
    1.0004   -0.0117    0.1592 S   0  0  0  0  0  0  0  0  0  0  0  0
    4.8086   -2.9216   -2.3453 N   0  0  0  0  0  0  0  0  0  0  0  0
    3.4170    0.7962    0.7558 N   0  0  0  0  0  0  0  0  0  0  0  0
    3.2640   -2.6347   -4.2236 C   0  0  0  0  0  0  0  0  0  0  0  0
    3.6969   -2.3115   -2.8159 C   0  0  0  0  0  0  0  0  0  0  0  0
    2.9668   -1.4063   -2.0554 C   0  0  0  0  0  0  0  0  0  0  0  0
    3.4130   -1.0959   -0.7678 C   0  0  0  0  0  0  0  0  0  0  0  0
    4.3153   -2.2145   -5.2393 C   0  0  0  0  0  0  0  0  0  0  0  0
    4.5628   -1.7070   -0.2754 C   0  0  0  0  0  0  0  0  0  0  0  0
    5.2155   -2.6123   -1.0934 C   0  0  0  0  0  0  0  0  0  0  0  0
    2.6653   -0.1109    0.0543 C   0  0  0  0  0  0  0  0  0  0  0  0
    4.4200    0.8840    0.6663 H   0  0  0  0  0  0  0  0  0  0  0  0
    2.9270    1.5352    1.2507 H   0  0  0  0  0  0  0  0  0  0  0  0
    3.0709   -3.7106   -4.3003 H   0  0  0  0  0  0  0  0  0  0  0  0
    2.3212   -2.1259   -4.4578 H   0  0  0  0  0  0  0  0  0  0  0  0
    2.0801   -0.9404   -2.4681 H   0  0  0  0  0  0  0  0  0  0  0  0
    5.2546   -2.7567   -5.0877 H   0  0  0  0  0  0  0  0  0  0  0  0
    3.9655   -2.4213   -6.2554 H   0  0  0  0  0  0  0  0  0  0  0  0
    4.5302   -1.1429   -5.1633 H   0  0  0  0  0  0  0  0  0  0  0  0
    4.9362   -1.5127    0.7243 H   0  0  0  0  0  0  0  0  0  0  0  0
    6.1091   -3.1317   -0.7609 H   0  0  0  0  0  0  0  0  0  0  0  0
  1 11  2  0  0  0  0
  2  5  2  0  0  0  0
  2 10  1  0  0  0  0
  3 11  1  0  0  0  0
  3 12  1  0  0  0  0
  3 13  1  0  0  0  0
  4  5  1  0  0  0  0
  4  8  1  0  0  0  0
  4 14  1  0  0  0  0
  4 15  1  0  0  0  0
  5  6  1  0  0  0  0
  6  7  2  0  0  0  0
  6 16  1  0  0  0  0
  7  9  1  0  0  0  0
  7 11  1  0  0  0  0
  8 17  1  0  0  0  0
  8 18  1  0  0  0  0
  8 19  1  0  0  0  0
  9 10  2  0  0  0  0
  9 20  1  0  0  0  0
 10 21  1  0  0  0  0
M  END
>  <DRUGBANK_ID>
DB00609

>  <SECONDARY_ACCESSION_NUMBERS>
APRD00961

>  <COMMON_NAME>
Ethionamide

>  <CAS_NUMBER>
536-33-4

>  <UNII>
OAY8ORS3CQ

>  <SYNONYMS>
2-ethyl-4-thiopyridylamide; 2-ethylthioisonicotinamide; ETH; Ethinamide; Ethionamide; Ethionamidum; Ethioniamide; Ethylisothiamide; Ethyonomide; Etionamid; Etionamida; Etionamide; Etioniamid; ETP

$$$$
