543
 OpenBabel10282417103D

 38 41  0  0  0  0  0  0  0  0999 V2000
   -4.3860   -0.0598   -0.7686 Cl  0  0  0  0  0  0  0  0  0  0  0  0
    1.0304    0.8373    1.2889 O   0  0  0  0  0  0  0  0  0  0  0  0
   -0.3216   -3.0549    1.4474 N   0  0  0  0  0  0  0  0  0  0  0  0
   -2.0131   -4.6186    3.2325 N   0  0  0  0  0  0  0  0  0  0  0  0
    1.5193   -1.9390    0.6037 N   0  0  0  0  0  0  0  0  0  0  0  0
   -1.3572   -3.9334    0.9056 C   0  0  0  0  0  0  0  0  0  0  0  0
    0.2598   -3.6084    2.6817 C   0  0  0  0  0  0  0  0  0  0  0  0
   -2.4925   -4.0526    1.9494 C   0  0  0  0  0  0  0  0  0  0  0  0
   -0.8775   -3.7964    3.7236 C   0  0  0  0  0  0  0  0  0  0  0  0
    0.2338   -1.9329    0.8248 C   0  0  0  0  0  0  0  0  0  0  0  0
   -0.6599   -0.7446    0.5312 C   0  0  0  0  0  0  0  0  0  0  0  0
   -0.2228    0.5585    0.8026 C   0  0  0  0  0  0  0  0  0  0  0  0
    2.2295   -0.8524    0.0451 C   0  0  0  0  0  0  0  0  0  0  0  0
   -1.9578   -0.9005    0.0359 C   0  0  0  0  0  0  0  0  0  0  0  0
    2.0252    0.4829    0.4099 C   0  0  0  0  0  0  0  0  0  0  0  0
   -1.0663    1.6632    0.6110 C   0  0  0  0  0  0  0  0  0  0  0  0
   -2.7959    0.1965   -0.1615 C   0  0  0  0  0  0  0  0  0  0  0  0
   -2.3583    1.4811    0.1262 C   0  0  0  0  0  0  0  0  0  0  0  0
    3.2750   -1.1237   -0.8449 C   0  0  0  0  0  0  0  0  0  0  0  0
    2.8365    1.5159   -0.0801 C   0  0  0  0  0  0  0  0  0  0  0  0
    4.0879   -0.0976   -1.3508 C   0  0  0  0  0  0  0  0  0  0  0  0
    3.8700    1.2230   -0.9647 C   0  0  0  0  0  0  0  0  0  0  0  0
   -1.6607   -5.5587    3.0481 H   0  0  0  0  0  0  0  0  0  0  0  0
   -1.7340   -3.6210   -0.0667 H   0  0  0  0  0  0  0  0  0  0  0  0
   -0.9300   -4.9275    0.7206 H   0  0  0  0  0  0  0  0  0  0  0  0
    0.7197   -4.5821    2.4661 H   0  0  0  0  0  0  0  0  0  0  0  0
    1.0353   -2.9591    3.1004 H   0  0  0  0  0  0  0  0  0  0  0  0
   -2.9359   -3.0676    2.1456 H   0  0  0  0  0  0  0  0  0  0  0  0
   -3.2927   -4.6892    1.5584 H   0  0  0  0  0  0  0  0  0  0  0  0
   -1.2670   -2.8141    4.0193 H   0  0  0  0  0  0  0  0  0  0  0  0
   -0.4770   -4.2645    4.6294 H   0  0  0  0  0  0  0  0  0  0  0  0
   -2.3549   -1.8636   -0.2314 H   0  0  0  0  0  0  0  0  0  0  0  0
   -0.7060    2.6654    0.8282 H   0  0  0  0  0  0  0  0  0  0  0  0
   -3.0112    2.3344   -0.0306 H   0  0  0  0  0  0  0  0  0  0  0  0
    3.4723   -2.1521   -1.1363 H   0  0  0  0  0  0  0  0  0  0  0  0
    2.6579    2.5419    0.2283 H   0  0  0  0  0  0  0  0  0  0  0  0
    4.9013   -0.3349   -2.0322 H   0  0  0  0  0  0  0  0  0  0  0  0
    4.5072    2.0186   -1.3440 H   0  0  0  0  0  0  0  0  0  0  0  0
  1 17  1  0  0  0  0
  2 12  1  0  0  0  0
  2 15  1  0  0  0  0
  3  6  1  0  0  0  0
  3  7  1  0  0  0  0
  3 10  1  0  0  0  0
  4  8  1  0  0  0  0
  4  9  1  0  0  0  0
  4 23  1  0  0  0  0
  5 10  2  0  0  0  0
  5 13  1  0  0  0  0
  6  8  1  0  0  0  0
  6 24  1  0  0  0  0
  6 25  1  0  0  0  0
  7  9  1  0  0  0  0
  7 26  1  0  0  0  0
  7 27  1  0  0  0  0
  8 28  1  0  0  0  0
  8 29  1  0  0  0  0
  9 30  1  0  0  0  0
  9 31  1  0  0  0  0
 10 11  1  0  0  0  0
 11 12  2  0  0  0  0
 11 14  1  0  0  0  0
 12 16  1  0  0  0  0
 13 15  1  0  0  0  0
 13 19  2  0  0  0  0
 14 17  2  0  0  0  0
 14 32  1  0  0  0  0
 15 20  2  0  0  0  0
 16 18  2  0  0  0  0
 16 33  1  0  0  0  0
 17 18  1  0  0  0  0
 18 34  1  0  0  0  0
 19 21  1  0  0  0  0
 19 35  1  0  0  0  0
 20 22  1  0  0  0  0
 20 36  1  0  0  0  0
 21 22  2  0  0  0  0
 21 37  1  0  0  0  0
 22 38  1  0  0  0  0
M  END
>  <DRUGBANK_ID>
DB00543

>  <SECONDARY_ACCESSION_NUMBERS>
APRD00142

>  <COMMON_NAME>
Amoxapine

>  <CAS_NUMBER>
14028-44-5

>  <UNII>
R63VQ857OT

>  <SYNONYMS>
2-Chloro-11-(1-piperazinyl)dibenz(b,f)(1,4)oxazepine; Amoxapin; Amoxapina; Amoxapine; Amoxapinum; Amoxepine; Desmethylloxapin

$$$$
