
 OpenBabel10282417233D

 69 74  0  0  1  0  0  0  0  0999 V2000
   -1.6260   -5.7781    0.3672 H   0  0  0  0  0  0  0  0  0  0  0  0
   -2.5736   -5.8711   -0.1722 C   0  0  2  0  0  0  0  0  0  0  0  0
   -3.0583   -7.8127   -0.3592 C   0  0  0  0  0  0  0  0  0  0  0  0
   -2.0843   -8.3494   -1.5969 C   0  0  0  0  0  0  0  0  0  0  0  0
   -1.4009   -7.6531   -0.5652 C   0  0  2  0  0  0  0  0  0  0  0  0
   -0.9693   -8.8699    0.3793 C   0  0  0  0  0  0  0  0  0  0  0  0
   -0.1927   -8.5973    1.3089 O   0  0  0  0  0  0  0  0  0  0  0  0
   -1.2254  -10.2068    0.1832 N   0  0  0  0  0  0  0  0  0  0  0  0
   -2.1247  -11.0069   -0.6689 C   0  0  0  0  0  0  0  0  0  0  0  0
   -1.4322  -11.5461   -1.9132 C   0  0  0  0  0  0  0  0  0  0  0  0
   -0.6937  -10.9222   -2.8306 N   0  0  0  0  0  0  0  0  0  0  0  0
   -0.4170  -11.8533   -3.8169 C   0  0  0  0  0  0  0  0  0  0  0  0
   -1.0041  -13.0662   -3.4949 C   0  0  0  0  0  0  0  0  0  0  0  0
   -1.6520  -12.8411   -2.3123 N   0  0  0  0  0  0  0  0  0  0  0  0
   -0.8746  -14.1955   -4.2944 C   0  0  0  0  0  0  0  0  0  0  0  0
   -0.1108  -14.0351   -5.4447 C   0  0  0  0  0  0  0  0  0  0  0  0
    0.4470  -12.7906   -5.7177 C   0  0  0  0  0  0  0  0  0  0  0  0
    0.3196  -11.6761   -4.9470 N   0  0  0  0  0  0  0  0  0  0  0  0
   -2.5459   -6.5278   -1.4129 C   0  0  2  0  0  0  0  0  0  0  0  0
   -4.2970   -6.0969   -1.2348 C   0  0  0  0  0  0  0  0  0  0  0  0
   -1.8769   -6.2686   -2.7506 C   0  0  0  0  0  0  0  0  0  0  0  0
   -2.4823   -5.1650   -3.4442 C   0  0  0  0  0  0  0  0  0  0  0  0
   -2.1765   -3.9014   -2.6479 C   0  0  1  0  0  0  0  0  0  0  0  0
   -1.0912   -3.7000   -2.6907 H   0  0  0  0  0  0  0  0  0  0  0  0
   -2.4962   -4.1708   -1.0774 C   0  0  1  0  0  0  0  0  0  0  0  0
   -3.5110   -3.8955   -0.8656 H   0  0  0  0  0  0  0  0  0  0  0  0
   -2.0851   -2.7577   -0.5408 C   0  0  0  0  0  0  0  0  0  0  0  0
   -3.0832   -1.4287   -1.3554 C   0  0  0  0  0  0  0  0  0  0  0  0
   -3.8995   -1.4181   -3.0892 C   0  0  1  0  0  0  0  0  0  0  0  0
   -3.4624   -0.5372   -3.6036 H   0  0  0  0  0  0  0  0  0  0  0  0
   -5.7729   -1.5833   -3.6144 N   0  0  0  0  0  0  0  0  0  0  0  0
   -6.9992   -1.8525   -4.9377 C   0  0  0  0  0  0  0  0  0  0  0  0
   -6.1156   -2.9063   -3.2869 C   0  0  0  0  0  0  0  0  0  0  0  0
   -7.1013   -3.4129   -2.6534 O   0  0  0  0  0  0  0  0  0  0  0  0
   -5.1424   -3.6460   -4.0106 C   0  0  0  0  0  0  0  0  0  0  0  0
   -4.8516   -3.2300   -5.2806 F   0  0  0  0  0  0  0  0  0  0  0  0
   -4.2807   -3.3306   -3.0607 C   0  0  0  0  0  0  0  0  0  0  0  0
   -3.0081   -2.7238   -3.4168 C   0  0  2  0  0  0  0  0  0  0  0  0
   -2.3186   -2.5546   -4.7757 C   0  0  0  0  0  0  0  0  0  0  0  0
   -3.6765   -8.7249   -0.6724 H   0  0  0  0  0  0  0  0  0  0  0  0
   -4.1766   -7.8479   -0.4505 H   0  0  0  0  0  0  0  0  0  0  0  0
   -2.3303   -9.3144   -1.9691 H   0  0  0  0  0  0  0  0  0  0  0  0
   -1.0698   -8.3589   -2.0352 H   0  0  0  0  0  0  0  0  0  0  0  0
   -0.4887   -7.0547   -0.5605 H   0  0  0  0  0  0  0  0  0  0  0  0
   -0.5413  -10.7536    0.6905 H   0  0  0  0  0  0  0  0  0  0  0  0
   -2.5730  -11.7879   -0.0479 H   0  0  0  0  0  0  0  0  0  0  0  0
   -3.0416  -10.4925   -0.9508 H   0  0  0  0  0  0  0  0  0  0  0  0
   -2.2108  -13.5134   -1.8125 H   0  0  0  0  0  0  0  0  0  0  0  0
   -1.3267  -15.1414   -4.0304 H   0  0  0  0  0  0  0  0  0  0  0  0
    0.0466  -14.8754   -6.1153 H   0  0  0  0  0  0  0  0  0  0  0  0
    1.0490  -12.6708   -6.6203 H   0  0  0  0  0  0  0  0  0  0  0  0
   -4.5404   -5.1336   -0.7834 H   0  0  0  0  0  0  0  0  0  0  0  0
   -4.8343   -6.3051   -2.1371 H   0  0  0  0  0  0  0  0  0  0  0  0
   -4.8377   -6.4934   -0.3388 H   0  0  0  0  0  0  0  0  0  0  0  0
   -2.0189   -7.1322   -3.4189 H   0  0  0  0  0  0  0  0  0  0  0  0
   -0.7943   -6.1508   -2.6650 H   0  0  0  0  0  0  0  0  0  0  0  0
   -2.8967   -5.5402   -4.3935 H   0  0  0  0  0  0  0  0  0  0  0  0
   -3.5178   -5.1229   -3.2538 H   0  0  0  0  0  0  0  0  0  0  0  0
   -2.0899   -2.9144    0.5514 H   0  0  0  0  0  0  0  0  0  0  0  0
   -1.0365   -2.3763   -0.5652 H   0  0  0  0  0  0  0  0  0  0  0  0
   -3.7600   -1.0424   -0.6014 H   0  0  0  0  0  0  0  0  0  0  0  0
   -2.2539   -0.6802   -1.4335 H   0  0  0  0  0  0  0  0  0  0  0  0
   -7.2394   -1.2225   -5.8207 H   0  0  0  0  0  0  0  0  0  0  0  0
   -7.0845   -2.9283   -5.3604 H   0  0  0  0  0  0  0  0  0  0  0  0
   -8.0210   -1.9370   -4.4434 H   0  0  0  0  0  0  0  0  0  0  0  0
   -4.6348   -3.1051   -2.0112 H   0  0  0  0  0  0  0  0  0  0  0  0
   -3.0177   -2.4893   -5.5949 H   0  0  0  0  0  0  0  0  0  0  0  0
   -1.6942   -1.6522   -4.8216 H   0  0  0  0  0  0  0  0  0  0  0  0
   -1.6495   -3.3942   -4.9988 H   0  0  0  0  0  0  0  0  0  0  0  0
  2  3  1  0  0  0  0
  2 19  1  0  0  0  0
  2 25  1  0  0  0  0
  2  1  1  6  0  0  0
  3  4  1  0  0  0  0
  3 40  1  0  0  0  0
  3 41  1  0  0  0  0
  4 42  1  0  0  0  0
  4 43  1  0  0  0  0
  5  4  1  0  0  0  0
  5  6  1  0  0  0  0
  5 44  1  6  0  0  0
  6  7  2  0  0  0  0
  6  8  1  0  0  0  0
  8  9  1  0  0  0  0
  8 45  1  0  0  0  0
  9 10  1  0  0  0  0
  9 46  1  0  0  0  0
  9 47  1  0  0  0  0
 10 11  2  0  0  0  0
 10 14  1  0  0  0  0
 11 12  1  0  0  0  0
 12 13  2  0  0  0  0
 12 18  1  0  0  0  0
 13 14  1  0  0  0  0
 13 15  1  0  0  0  0
 14 48  1  0  0  0  0
 15 16  2  0  0  0  0
 15 49  1  0  0  0  0
 16 17  1  0  0  0  0
 16 50  1  0  0  0  0
 17 18  2  0  0  0  0
 17 51  1  0  0  0  0
 19  5  1  0  0  0  0
 19 21  1  0  0  0  0
 19 20  1  1  0  0  0
 20 52  1  0  0  0  0
 20 53  1  0  0  0  0
 20 54  1  0  0  0  0
 21 22  1  0  0  0  0
 21 55  1  0  0  0  0
 21 56  1  0  0  0  0
 22 57  1  0  0  0  0
 22 58  1  0  0  0  0
 23 22  1  0  0  0  0
 23 38  1  0  0  0  0
 23 24  1  1  0  0  0
 25 23  1  0  0  0  0
 25 27  1  0  0  0  0
 25 26  1  1  0  0  0
 27 28  1  0  0  0  0
 27 59  1  0  0  0  0
 27 60  1  0  0  0  0
 28 61  1  0  0  0  0
 28 62  1  0  0  0  0
 29 28  1  0  0  0  0
 29 31  1  0  0  0  0
 29 30  1  1  0  0  0
 31 33  1  0  0  0  0
 31 32  1  0  0  0  0
 32 63  1  0  0  0  0
 32 64  1  0  0  0  0
 32 65  1  0  0  0  0
 33 35  1  0  0  0  0
 33 34  2  0  0  0  0
 35 37  2  0  0  0  0
 35 36  1  0  0  0  0
 37 66  1  0  0  0  0
 38 37  1  0  0  0  0
 38 29  1  0  0  0  0
 38 39  1  6  0  0  0
 39 67  1  0  0  0  0
 39 68  1  0  0  0  0
 39 69  1  0  0  0  0
M  END
>  <DRUGBANK_ID>
DB16244

>  <COMMON_NAME>
MK-0773

>  <CAS_NUMBER>
606101-58-0

>  <UNII>
5730VNW22X

$$$$
