
 OpenBabel10282417193D

 43 45  0  0  0  0  0  0  0  0999 V2000
    1.1930   -1.4080    0.0237 C   0  0  0  0  0  0  0  0  0  0  0  0
    2.3369   -0.6399   -0.1617 C   0  0  0  0  0  0  0  0  0  0  0  0
    2.2068    0.7166   -0.3933 C   0  0  0  0  0  0  0  0  0  0  0  0
    1.0516    1.3952   -0.1033 C   0  0  0  0  0  0  0  0  0  0  0  0
   -0.0600   -0.7515    0.0432 C   0  0  0  0  0  0  0  0  0  0  0  0
   -0.1003    0.6669    0.0303 C   0  0  0  0  0  0  0  0  0  0  0  0
   -1.2865    1.3848    0.0392 C   0  0  0  0  0  0  0  0  0  0  0  0
   -2.4954    0.7096    0.0178 C   0  0  0  0  0  0  0  0  0  0  0  0
   -2.4891   -0.6945    0.0145 C   0  0  0  0  0  0  0  0  0  0  0  0
   -1.2870   -1.4216    0.0439 C   0  0  0  0  0  0  0  0  0  0  0  0
   -3.7802    1.4734   -0.0102 C   0  0  0  0  0  0  0  0  0  0  0  0
   -4.8909    0.8127   -0.0171 N   0  0  0  0  0  0  0  0  0  0  0  0
   -3.8044    2.8366   -0.0200 N   0  0  0  0  0  0  0  0  0  0  0  0
    3.6225   -1.2492   -0.1166 O   0  0  0  0  0  0  0  0  0  0  0  0
    4.9280   -0.7009   -0.0337 C   0  0  0  0  0  0  0  0  0  0  0  0
    5.0841    0.7778    0.1015 C   0  0  0  0  0  0  0  0  0  0  0  0
    5.9186   -1.3949   -0.1738 O   0  0  0  0  0  0  0  0  0  0  0  0
    4.4363    1.5707    1.0672 C   0  0  0  0  0  0  0  0  0  0  0  0
    4.3968    2.9845    0.9322 C   0  0  0  0  0  0  0  0  0  0  0  0
    5.1577    3.6324   -0.0532 C   0  0  0  0  0  0  0  0  0  0  0  0
    5.9197    2.7974   -0.8852 C   0  0  0  0  0  0  0  0  0  0  0  0
    5.8237    1.4085   -0.8844 C   0  0  0  0  0  0  0  0  0  0  0  0
    5.1780    5.0454   -0.1911 N   0  0  0  0  0  0  0  0  0  0  0  0
    5.9551    5.7542   -1.0744 C   0  0  0  0  0  0  0  0  0  0  0  0
    5.8432    7.0955   -1.0447 N   0  0  0  0  0  0  0  0  0  0  0  0
    6.7907    5.2482   -1.9143 N   0  0  0  0  0  0  0  0  0  0  0  0
    1.2606   -2.4917    0.0868 H   0  0  0  0  0  0  0  0  0  0  0  0
    3.0052    1.3162   -0.7886 H   0  0  0  0  0  0  0  0  0  0  0  0
    1.0737    2.4800   -0.0917 H   0  0  0  0  0  0  0  0  0  0  0  0
   -1.2391    2.4665    0.0011 H   0  0  0  0  0  0  0  0  0  0  0  0
   -3.4320   -1.2342   -0.0185 H   0  0  0  0  0  0  0  0  0  0  0  0
   -1.3209   -2.5079    0.0293 H   0  0  0  0  0  0  0  0  0  0  0  0
   -5.6800    1.4577   -0.0271 H   0  0  0  0  0  0  0  0  0  0  0  0
   -4.6751    3.3473   -0.0248 H   0  0  0  0  0  0  0  0  0  0  0  0
   -2.9694    3.4040   -0.0209 H   0  0  0  0  0  0  0  0  0  0  0  0
    3.8064    1.0897    1.8142 H   0  0  0  0  0  0  0  0  0  0  0  0
    3.7238    3.5417    1.5824 H   0  0  0  0  0  0  0  0  0  0  0  0
    6.6214    3.1955   -1.6035 H   0  0  0  0  0  0  0  0  0  0  0  0
    6.3126    0.8582   -1.6853 H   0  0  0  0  0  0  0  0  0  0  0  0
    4.5220    5.5532    0.3832 H   0  0  0  0  0  0  0  0  0  0  0  0
    6.4291    7.6400   -1.6641 H   0  0  0  0  0  0  0  0  0  0  0  0
    5.2253    7.6117   -0.4413 H   0  0  0  0  0  0  0  0  0  0  0  0
    7.2798    5.9470   -2.4605 H   0  0  0  0  0  0  0  0  0  0  0  0
  1  2  2  0  0  0  0
  1 27  1  0  0  0  0
  2 14  1  0  0  0  0
  2  3  1  0  0  0  0
  3  4  2  0  0  0  0
  3 28  1  0  0  0  0
  4 29  1  0  0  0  0
  5  6  2  0  0  0  0
  5  1  1  0  0  0  0
  6  7  1  0  0  0  0
  6  4  1  0  0  0  0
  7  8  2  0  0  0  0
  7 30  1  0  0  0  0
  8  9  1  0  0  0  0
  8 11  1  0  0  0  0
  9 10  2  0  0  0  0
  9 31  1  0  0  0  0
 10  5  1  0  0  0  0
 10 32  1  0  0  0  0
 11 13  1  0  0  0  0
 11 12  2  0  0  0  0
 12 33  1  0  0  0  0
 13 34  1  0  0  0  0
 13 35  1  0  0  0  0
 14 15  1  0  0  0  0
 15 16  1  0  0  0  0
 15 17  2  0  0  0  0
 16 18  2  0  0  0  0
 18 19  1  0  0  0  0
 18 36  1  0  0  0  0
 19 20  2  0  0  0  0
 19 37  1  0  0  0  0
 20 21  1  0  0  0  0
 20 23  1  0  0  0  0
 21 22  2  0  0  0  0
 21 38  1  0  0  0  0
 22 16  1  0  0  0  0
 22 39  1  0  0  0  0
 23 24  1  0  0  0  0
 23 40  1  0  0  0  0
 24 25  1  0  0  0  0
 24 26  2  0  0  0  0
 25 41  1  0  0  0  0
 25 42  1  0  0  0  0
 26 43  1  0  0  0  0
M  END
>  <DRUGBANK_ID>
DB12598

>  <COMMON_NAME>
Nafamostat

>  <CAS_NUMBER>
81525-10-2

>  <UNII>
Y25LQ0H97D

>  <SYNONYMS>
Nafamostat; Nafamostatum; p-Guanidinobenzoic acid ester with 6-hydroxy-2-naphthamidine

$$$$
