153
 OpenBabel10282417103D

 73 75  0  0  1  0  0  0  0  0999 V2000
    1.6347    2.5130    1.4406 O   0  0  0  0  0  0  0  0  0  0  0  0
   -1.1569   -5.4564   -2.4747 C   0  0  2  0  0  0  0  0  0  0  0  0
   -1.7507   -6.8378   -2.1206 C   0  0  2  0  0  0  0  0  0  0  0  0
   -0.7772   -4.9593   -1.0550 C   0  0  1  0  0  0  0  0  0  0  0  0
   -0.9313   -7.2917   -0.8674 C   0  0  0  0  0  0  0  0  0  0  0  0
   -0.1108   -6.1189   -0.3693 C   0  0  0  0  0  0  0  0  0  0  0  0
   -2.1792   -4.4937   -3.1323 C   0  0  0  0  0  0  0  0  0  0  0  0
   -1.8397   -7.7941   -3.3427 C   0  0  2  0  0  0  0  0  0  0  0  0
   -0.0782   -3.6534   -1.1560 C   0  0  0  0  0  0  0  0  0  0  0  0
    0.0994   -5.5262   -3.3851 C   0  0  0  0  0  0  0  0  0  0  0  0
   -1.5748   -3.1059   -3.2676 C   0  0  0  0  0  0  0  0  0  0  0  0
   -0.9514   -2.7321   -1.9507 C   0  0  0  0  0  0  0  0  0  0  0  0
   -3.1767   -7.6569   -4.0781 C   0  0  0  0  0  0  0  0  0  0  0  0
   -1.5293   -9.2173   -2.9876 C   0  0  0  0  0  0  0  0  0  0  0  0
    1.0529   -3.2897   -0.5258 C   0  0  0  0  0  0  0  0  0  0  0  0
   -0.2684   -9.5401   -2.6728 C   0  0  0  0  0  0  0  0  0  0  0  0
    1.5030   -1.9109   -0.4294 C   0  0  0  0  0  0  0  0  0  0  0  0
    0.1941  -10.8357   -2.0945 C   0  0  1  0  0  0  0  0  0  0  0  0
    0.8024   -0.8693    0.0764 C   0  0  0  0  0  0  0  0  0  0  0  0
    1.3878  -11.3016   -2.9486 C   0  0  0  0  0  0  0  0  0  0  0  0
    1.3884    0.5209    0.1051 C   0  0  0  0  0  0  0  0  0  0  0  0
    0.5449  -10.7130   -0.5988 C   0  0  0  0  0  0  0  0  0  0  0  0
   -0.5475   -0.9403    0.6887 C   0  0  0  0  0  0  0  0  0  0  0  0
    1.2073    1.1574    1.4880 C   0  0  2  0  0  0  0  0  0  0  0  0
   -0.7212   -0.3478    2.0524 C   0  0  0  0  0  0  0  0  0  0  0  0
   -0.2522    1.0999    1.9445 C   0  0  0  0  0  0  0  0  0  0  0  0
    2.6097  -10.3708   -2.8456 C   0  0  0  0  0  0  0  0  0  0  0  0
    1.7757  -12.7213   -2.5600 C   0  0  0  0  0  0  0  0  0  0  0  0
   -1.7033   -1.0422    0.0598 C   0  0  0  0  0  0  0  0  0  0  0  0
   -2.7747   -6.6823   -1.7425 H   0  0  0  0  0  0  0  0  0  0  0  0
   -1.6991   -4.7778   -0.4737 H   0  0  0  0  0  0  0  0  0  0  0  0
    1.4812    2.8878    2.3243 H   0  0  0  0  0  0  0  0  0  0  0  0
   -0.1857   -8.0509   -1.0244 H   0  0  0  0  0  0  0  0  0  0  0  0
   -1.6089   -7.6853   -0.1025 H   0  0  0  0  0  0  0  0  0  0  0  0
    0.9360   -6.2295   -0.6772 H   0  0  0  0  0  0  0  0  0  0  0  0
   -0.1264   -6.0576    0.7236 H   0  0  0  0  0  0  0  0  0  0  0  0
   -3.0828   -4.4223   -2.5070 H   0  0  0  0  0  0  0  0  0  0  0  0
   -2.5037   -4.8249   -4.1212 H   0  0  0  0  0  0  0  0  0  0  0  0
   -1.0870   -7.5261   -4.0880 H   0  0  0  0  0  0  0  0  0  0  0  0
    0.8618   -6.1886   -2.9722 H   0  0  0  0  0  0  0  0  0  0  0  0
   -0.1536   -5.8543   -4.3960 H   0  0  0  0  0  0  0  0  0  0  0  0
    0.5765   -4.5514   -3.5267 H   0  0  0  0  0  0  0  0  0  0  0  0
   -2.3608   -2.3675   -3.4804 H   0  0  0  0  0  0  0  0  0  0  0  0
   -0.8378   -3.0228   -4.0681 H   0  0  0  0  0  0  0  0  0  0  0  0
   -1.8539   -2.7111   -1.3348 H   0  0  0  0  0  0  0  0  0  0  0  0
   -0.4625   -1.7736   -2.1103 H   0  0  0  0  0  0  0  0  0  0  0  0
   -3.7510   -6.7869   -3.7461 H   0  0  0  0  0  0  0  0  0  0  0  0
   -2.9996   -7.5275   -5.1524 H   0  0  0  0  0  0  0  0  0  0  0  0
   -3.8087   -8.5388   -3.9477 H   0  0  0  0  0  0  0  0  0  0  0  0
   -2.3256   -9.9463   -2.9142 H   0  0  0  0  0  0  0  0  0  0  0  0
    1.6730   -4.0234   -0.0123 H   0  0  0  0  0  0  0  0  0  0  0  0
    0.4855   -8.7548   -2.7501 H   0  0  0  0  0  0  0  0  0  0  0  0
    2.5251   -1.7616   -0.7887 H   0  0  0  0  0  0  0  0  0  0  0  0
   -0.6292  -11.5567   -2.1772 H   0  0  0  0  0  0  0  0  0  0  0  0
    1.0668  -11.3149   -4.0005 H   0  0  0  0  0  0  0  0  0  0  0  0
    0.8918    1.1306   -0.6633 H   0  0  0  0  0  0  0  0  0  0  0  0
    2.4528    0.5322   -0.1672 H   0  0  0  0  0  0  0  0  0  0  0  0
   -0.3025  -10.3551   -0.0052 H   0  0  0  0  0  0  0  0  0  0  0  0
    0.8277  -11.6873   -0.1870 H   0  0  0  0  0  0  0  0  0  0  0  0
    1.3772  -10.0249   -0.4154 H   0  0  0  0  0  0  0  0  0  0  0  0
    1.8322    0.6265    2.2150 H   0  0  0  0  0  0  0  0  0  0  0  0
   -0.2101   -0.9252    2.8214 H   0  0  0  0  0  0  0  0  0  0  0  0
   -1.7892   -0.3251    2.3166 H   0  0  0  0  0  0  0  0  0  0  0  0
   -0.3944    1.6042    2.9018 H   0  0  0  0  0  0  0  0  0  0  0  0
   -0.8737    1.6547    1.2203 H   0  0  0  0  0  0  0  0  0  0  0  0
    2.9898  -10.3157   -1.8214 H   0  0  0  0  0  0  0  0  0  0  0  0
    3.4206  -10.7254   -3.4848 H   0  0  0  0  0  0  0  0  0  0  0  0
    2.3866   -9.3482   -3.1670 H   0  0  0  0  0  0  0  0  0  0  0  0
    0.9117  -13.3887   -2.6460 H   0  0  0  0  0  0  0  0  0  0  0  0
    2.5688  -13.0919   -3.2123 H   0  0  0  0  0  0  0  0  0  0  0  0
    2.1417  -12.7676   -1.5305 H   0  0  0  0  0  0  0  0  0  0  0  0
   -1.7797   -0.8637   -1.0052 H   0  0  0  0  0  0  0  0  0  0  0  0
   -2.6426   -1.2737    0.5629 H   0  0  0  0  0  0  0  0  0  0  0  0
  1 32  1  0  0  0  0
  2  3  1  0  0  0  0
  2  4  1  0  0  0  0
  2  7  1  0  0  0  0
  2 10  1  6  0  0  0
  3  5  1  0  0  0  0
  3 30  1  1  0  0  0
  3  8  1  0  0  0  0
  4  6  1  0  0  0  0
  4  9  1  0  0  0  0
  4 31  1  1  0  0  0
  5  6  1  0  0  0  0
  5 33  1  0  0  0  0
  5 34  1  0  0  0  0
  6 35  1  0  0  0  0
  6 36  1  0  0  0  0
  7 11  1  0  0  0  0
  7 37  1  0  0  0  0
  7 38  1  0  0  0  0
  8 39  1  6  0  0  0
  8 14  1  0  0  0  0
  8 13  1  0  0  0  0
  9 12  1  0  0  0  0
  9 15  2  0  0  0  0
 10 40  1  0  0  0  0
 10 41  1  0  0  0  0
 10 42  1  0  0  0  0
 11 12  1  0  0  0  0
 11 43  1  0  0  0  0
 11 44  1  0  0  0  0
 12 45  1  0  0  0  0
 12 46  1  0  0  0  0
 13 47  1  0  0  0  0
 13 48  1  0  0  0  0
 13 49  1  0  0  0  0
 14 16  2  0  0  0  0
 14 50  1  0  0  0  0
 15 17  1  0  0  0  0
 15 51  1  0  0  0  0
 16 18  1  0  0  0  0
 16 52  1  0  0  0  0
 17 19  2  0  0  0  0
 17 53  1  0  0  0  0
 18 20  1  0  0  0  0
 18 22  1  0  0  0  0
 18 54  1  6  0  0  0
 19 21  1  0  0  0  0
 19 23  1  0  0  0  0
 20 27  1  0  0  0  0
 20 28  1  0  0  0  0
 20 55  1  0  0  0  0
 21 24  1  0  0  0  0
 21 56  1  0  0  0  0
 21 57  1  0  0  0  0
 22 58  1  0  0  0  0
 22 59  1  0  0  0  0
 22 60  1  0  0  0  0
 23 25  1  0  0  0  0
 23 29  2  0  0  0  0
 24  1  1  0  0  0  0
 24 26  1  0  0  0  0
 24 61  1  1  0  0  0
 25 26  1  0  0  0  0
 25 62  1  0  0  0  0
 25 63  1  0  0  0  0
 26 64  1  0  0  0  0
 26 65  1  0  0  0  0
 27 66  1  0  0  0  0
 27 67  1  0  0  0  0
 27 68  1  0  0  0  0
 28 69  1  0  0  0  0
 28 70  1  0  0  0  0
 28 71  1  0  0  0  0
 29 72  1  0  0  0  0
 29 73  1  0  0  0  0
M  END
>  <DRUGBANK_ID>
DB00153

>  <SECONDARY_ACCESSION_NUMBERS>
NUTR00005; APRD00426

>  <COMMON_NAME>
Ergocalciferol

>  <CAS_NUMBER>
50-14-6

>  <UNII>
VS041H42XC

>  <SYNONYMS>
(3β,5Z,7E,22E)-9,10-secoergosta-5,7,10(19),22-tetraen-3-ol; (5Z,7E,22E)-(3S)-9,10-seco-5,7,10(19),22-ergostatetraen-3-ol; (5Z,7E,22E)-(3S)-9,10-secoergosta-5,7,10(19),22-tetraen-3-ol; Activated ergosterol; Ercalciol; Ergocalciférol; Ergocalciferol; Ergocalciferolum; Oleovitamin D2; Viosterol; Vitamin D2; Vitamina D2

$$$$
