
 OpenBabel10282417123D

 22 22  0  0  0  0  0  0  0  0999 V2000
    1.2974    0.1240    0.2905 C   0  0  0  0  0  0  0  0  0  0  0  0
    0.3868    1.3540    0.4180 C   0  0  2  0  0  0  0  0  0  0  0  0
   -0.1181    2.8748   -2.0416 C   0  0  1  0  0  0  0  0  0  0  0  0
   -0.9251    1.1978   -0.3898 C   0  0  2  0  0  0  0  0  0  0  0  0
   -0.7980    1.5147   -1.9111 C   0  0  2  0  0  0  0  0  0  0  0  0
    1.1909    2.9030   -1.2592 C   0  0  3  0  0  0  0  0  0  0  0  0
    0.1137    3.1781   -3.3482 F   0  0  0  0  0  0  0  0  0  0  0  0
    2.0771    1.9963   -1.7496 F   0  0  0  0  0  0  0  0  0  0  0  0
    1.3683   -0.3167   -1.0571 O   0  0  0  0  0  0  0  0  0  0  0  0
   -1.8822    2.1595    0.1179 O   0  0  0  0  0  0  0  0  0  0  0  0
   -0.1654    0.5655   -2.7892 O   0  0  0  0  0  0  0  0  0  0  0  0
    1.0411    2.6003    0.1266 O   0  0  0  0  0  0  0  0  0  0  0  0
    0.1548    1.4410    1.4895 H   0  0  0  0  0  0  0  0  0  0  0  0
   -0.7932    3.6426   -1.6490 H   0  0  0  0  0  0  0  0  0  0  0  0
   -1.3462    0.2028   -0.2148 H   0  0  0  0  0  0  0  0  0  0  0  0
   -1.8098    1.5945   -2.3143 H   0  0  0  0  0  0  0  0  0  0  0  0
    1.6556    3.8888   -1.3490 H   0  0  0  0  0  0  0  0  0  0  0  0
    0.8860   -0.7019    0.8831 H   0  0  0  0  0  0  0  0  0  0  0  0
    2.3191    0.3201    0.6247 H   0  0  0  0  0  0  0  0  0  0  0  0
    1.7861    0.4334   -1.5395 H   0  0  0  0  0  0  0  0  0  0  0  0
   -1.6866    2.3652    1.0499 H   0  0  0  0  0  0  0  0  0  0  0  0
    0.2577   -0.1568   -2.3223 H   0  0  0  0  0  0  0  0  0  0  0  0
  1 18  1  0  0  0  0
  1 19  1  0  0  0  0
  2  1  1  0  0  0  0
  2 12  1  0  0  0  0
  2 13  1  1  0  0  0
  3  5  1  0  0  0  0
  3  6  1  0  0  0  0
  3  7  1  0  0  0  0
  3 14  1  1  0  0  0
  4  2  1  0  0  0  0
  4 15  1  1  0  0  0
  4 10  1  0  0  0  0
  5  4  1  0  0  0  0
  5 11  1  0  0  0  0
  5 16  1  6  0  0  0
  8  6  1  0  0  0  0
  9  1  1  0  0  0  0
  9 20  1  0  0  0  0
 10 21  1  0  0  0  0
 11 22  1  0  0  0  0
 12  6  1  0  0  0  0
 17  6  1  0  0  0  0
M  END
>  <DRUGBANK_ID>
DB02318

>  <SECONDARY_ACCESSION_NUMBERS>
EXPT01456

>  <COMMON_NAME>
2-deoxy-2-fluoro-alpha-D-mannosyl fluoride

$$$$
