
 OpenBabel10282417213D

 39 38  0  0  0  0  0  0  0  0999 V2000
    3.1795    2.2882   -1.5837 Zn  0  2  0  0  0  0  0  0  0  0  0  0
    1.0240   -0.6530   -0.0550 C   0  0  0  0  0  0  0  0  0  0  0  0
    2.1839   -1.4566   -0.2138 O   0  0  0  0  0  0  0  0  0  0  0  0
    1.0250    0.6520   -0.0550 C   0  0  0  0  0  0  0  0  0  0  0  0
    2.1857    1.4545   -0.2136 O   0  5  0  0  0  0  0  0  0  0  0  0
   -0.3720    1.1970    0.1360 C   0  0  1  0  0  0  0  0  0  0  0  0
   -0.5090    1.5405    1.1401 H   0  0  0  0  0  0  0  0  0  0  0  0
   -0.6540    2.3857   -0.7683 C   0  0  1  0  0  0  0  0  0  0  0  0
   -1.0309    1.8948   -2.0463 O   0  0  0  0  0  0  0  0  0  0  0  0
   -1.8351    3.0999   -0.1315 C   0  0  0  0  0  0  0  0  0  0  0  0
   -1.4582    3.5909    1.1465 O   0  0  0  0  0  0  0  0  0  0  0  0
   -1.3050    0.0000   -0.1630 O   0  0  0  0  0  0  0  0  0  0  0  0
   -0.3720   -1.1970    0.1360 C   0  0  0  0  0  0  0  0  0  0  0  0
   -0.7062   -2.3772    0.4688 O   0  0  0  0  0  0  0  0  0  0  0  0
    1.0240   -0.6530   -0.0550 C   0  0  0  0  0  0  0  0  0  0  0  0
    2.1839   -1.4566   -0.2138 O   0  0  0  0  0  0  0  0  0  0  0  0
    1.0250    0.6520   -0.0550 C   0  0  0  0  0  0  0  0  0  0  0  0
    2.1857    1.4545   -0.2136 O   0  5  0  0  0  0  0  0  0  0  0  0
   -0.3720    1.1970    0.1360 C   0  0  1  0  0  0  0  0  0  0  0  0
   -0.5090    1.5405    1.1401 H   0  0  0  0  0  0  0  0  0  0  0  0
   -0.6540    2.3857   -0.7683 C   0  0  1  0  0  0  0  0  0  0  0  0
   -1.0309    1.8948   -2.0463 O   0  0  0  0  0  0  0  0  0  0  0  0
   -1.8351    3.0999   -0.1315 C   0  0  0  0  0  0  0  0  0  0  0  0
   -1.4582    3.5909    1.1465 O   0  0  0  0  0  0  0  0  0  0  0  0
   -1.3050    0.0000   -0.1630 O   0  0  0  0  0  0  0  0  0  0  0  0
   -0.3720   -1.1970    0.1360 C   0  0  0  0  0  0  0  0  0  0  0  0
   -0.7062   -2.3772    0.4688 O   0  0  0  0  0  0  0  0  0  0  0  0
    3.0779   -1.0256   -0.3361 H   0  0  0  0  0  0  0  0  0  0  0  0
    0.1613    3.0704   -0.8754 H   0  0  0  0  0  0  0  0  0  0  0  0
   -0.2539    1.4249   -2.4653 H   0  0  0  0  0  0  0  0  0  0  0  0
   -2.1351    3.9174   -0.7533 H   0  0  0  0  0  0  0  0  0  0  0  0
   -2.6503    2.4153   -0.0244 H   0  0  0  0  0  0  0  0  0  0  0  0
   -1.1778    2.8269    1.7277 H   0  0  0  0  0  0  0  0  0  0  0  0
    3.0779   -1.0256   -0.3361 H   0  0  0  0  0  0  0  0  0  0  0  0
    0.1613    3.0704   -0.8754 H   0  0  0  0  0  0  0  0  0  0  0  0
   -0.2539    1.4249   -2.4653 H   0  0  0  0  0  0  0  0  0  0  0  0
   -2.1351    3.9174   -0.7533 H   0  0  0  0  0  0  0  0  0  0  0  0
   -2.6503    2.4153   -0.0244 H   0  0  0  0  0  0  0  0  0  0  0  0
   -1.1778    2.8269    1.7277 H   0  0  0  0  0  0  0  0  0  0  0  0
  2  3  1  0  0  0  0
  2  4  2  0  0  0  0
  2 13  1  0  0  0  0
  3 28  1  0  0  0  0
  4  5  1  0  0  0  0
  4  6  1  0  0  0  0
  6 12  1  0  0  0  0
  6  8  1  0  0  0  0
  6  7  1  1  0  0  0
  8  9  1  0  0  0  0
  8 10  1  0  0  0  0
  8 29  1  6  0  0  0
  9 30  1  0  0  0  0
 10 11  1  0  0  0  0
 10 31  1  0  0  0  0
 10 32  1  0  0  0  0
 11 33  1  0  0  0  0
 12 13  1  0  0  0  0
 13 14  2  0  0  0  0
 15 16  1  0  0  0  0
 15 17  2  0  0  0  0
 15 26  1  0  0  0  0
 16 34  1  0  0  0  0
 17 18  1  0  0  0  0
 17 19  1  0  0  0  0
 19 25  1  0  0  0  0
 19 21  1  0  0  0  0
 19 20  1  1  0  0  0
 21 22  1  0  0  0  0
 21 23  1  0  0  0  0
 21 35  1  6  0  0  0
 22 36  1  0  0  0  0
 23 24  1  0  0  0  0
 23 37  1  0  0  0  0
 23 38  1  0  0  0  0
 24 39  1  0  0  0  0
 25 26  1  0  0  0  0
 26 27  2  0  0  0  0
M  CHG  3   1   2   5  -1  18  -1
M  END
>  <DRUGBANK_ID>
DB14485

>  <SECONDARY_ACCESSION_NUMBERS>
DBSALT002424

>  <COMMON_NAME>
Zinc ascorbate

>  <CAS_NUMBER>
331242-75-2

>  <UNII>
9TI35313XW

>  <SYNONYMS>
(-)-ascorbic acid, zinc salt; L-ascorbic acid, zinc salt; L-ascorbic acid, zinc salt (2:1)

$$$$
