1030
 OpenBabel10282417113D

 54 58  0  0  1  0  0  0  0  0999 V2000
    2.1405   -1.4288   -0.5795 O   0  0  0  0  0  0  0  0  0  0  0  0
    2.8883    0.5166    2.3575 O   0  0  0  0  0  0  0  0  0  0  0  0
    3.8237   -5.0858    0.8130 O   0  0  0  0  0  0  0  0  0  0  0  0
    2.6827    0.7826   -0.7070 O   0  0  0  0  0  0  0  0  0  0  0  0
   -3.3268   -6.5744    8.0917 O   0  0  0  0  0  0  0  0  0  0  0  0
    2.3508   -4.4557    2.4614 N   0  0  0  0  0  0  0  0  0  0  0  0
   -0.1526   -3.4486    4.8272 N   0  0  0  0  0  0  0  0  0  0  0  0
   -1.0217   -8.4789    7.7522 N   0  0  0  0  0  0  0  0  0  0  0  0
    3.3220   -0.4181    1.3677 C   0  0  2  0  0  0  0  0  0  0  0  0
    2.9750   -1.8250    1.8724 C   0  0  0  0  0  0  0  0  0  0  0  0
    1.6965   -3.4354    3.1386 C   0  0  0  0  0  0  0  0  0  0  0  0
    1.9524   -5.7751    2.9157 C   0  0  0  0  0  0  0  0  0  0  0  0
    3.2230   -2.8253    1.0067 C   0  0  0  0  0  0  0  0  0  0  0  0
    0.9009   -5.4253    3.9066 C   0  0  0  0  0  0  0  0  0  0  0  0
    0.7255   -4.0577    4.0244 C   0  0  0  0  0  0  0  0  0  0  0  0
    1.9893   -2.1435    2.9102 C   0  0  0  0  0  0  0  0  0  0  0  0
    3.1928   -4.2502    1.3976 C   0  0  0  0  0  0  0  0  0  0  0  0
    4.8981   -0.1872    1.1676 C   0  0  0  0  0  0  0  0  0  0  0  0
    3.1271   -2.4547   -0.4157 C   0  0  0  0  0  0  0  0  0  0  0  0
    2.6395   -0.2513   -0.0481 C   0  0  0  0  0  0  0  0  0  0  0  0
    0.1482   -6.2573    4.6805 C   0  0  0  0  0  0  0  0  0  0  0  0
   -0.7975   -5.6943    5.5514 C   0  0  0  0  0  0  0  0  0  0  0  0
   -0.9069   -4.2678    5.5868 C   0  0  0  0  0  0  0  0  0  0  0  0
   -1.6098   -6.4978    6.3869 C   0  0  0  0  0  0  0  0  0  0  0  0
    5.6651   -0.9413    0.0588 C   0  0  0  0  0  0  0  0  0  0  0  0
   -1.4554   -8.0042    6.4251 C   0  0  0  0  0  0  0  0  0  0  0  0
   -1.8204   -3.7005    6.4613 C   0  0  0  0  0  0  0  0  0  0  0  0
   -2.5210   -5.8659    7.2440 C   0  0  0  0  0  0  0  0  0  0  0  0
   -2.6252   -4.4839    7.2897 C   0  0  0  0  0  0  0  0  0  0  0  0
   -0.8910   -9.9381    7.7168 C   0  0  0  0  0  0  0  0  0  0  0  0
    0.2798   -7.8915    8.1199 C   0  0  0  0  0  0  0  0  0  0  0  0
    3.1571    1.4104    2.0806 H   0  0  0  0  0  0  0  0  0  0  0  0
   -2.9857   -7.4895    8.1360 H   0  0  0  0  0  0  0  0  0  0  0  0
    1.5611   -6.3659    2.0803 H   0  0  0  0  0  0  0  0  0  0  0  0
    2.8068   -6.2831    3.3740 H   0  0  0  0  0  0  0  0  0  0  0  0
    1.3937   -1.3530    3.3596 H   0  0  0  0  0  0  0  0  0  0  0  0
    5.0684    0.8819    0.9860 H   0  0  0  0  0  0  0  0  0  0  0  0
    5.4004   -0.4218    2.1127 H   0  0  0  0  0  0  0  0  0  0  0  0
    3.1964   -3.2172   -1.1890 H   0  0  0  0  0  0  0  0  0  0  0  0
    4.0025   -1.9370   -0.6744 H   0  0  0  0  0  0  0  0  0  0  0  0
    0.3361   -7.3169    4.5854 H   0  0  0  0  0  0  0  0  0  0  0  0
    5.2623   -0.6963   -0.9371 H   0  0  0  0  0  0  0  0  0  0  0  0
    6.7274   -0.7152   -0.0284 H   0  0  0  0  0  0  0  0  0  0  0  0
    5.6387   -2.0226    0.2503 H   0  0  0  0  0  0  0  0  0  0  0  0
   -2.4277   -8.4361    6.1552 H   0  0  0  0  0  0  0  0  0  0  0  0
   -0.7688   -8.3927    5.6719 H   0  0  0  0  0  0  0  0  0  0  0  0
   -1.9081   -2.6173    6.5071 H   0  0  0  0  0  0  0  0  0  0  0  0
   -3.3206   -4.0152    7.9802 H   0  0  0  0  0  0  0  0  0  0  0  0
   -0.1379  -10.2648    6.9891 H   0  0  0  0  0  0  0  0  0  0  0  0
   -0.6080  -10.3191    8.7027 H   0  0  0  0  0  0  0  0  0  0  0  0
   -1.8478  -10.4005    7.4528 H   0  0  0  0  0  0  0  0  0  0  0  0
    1.0650   -8.1438    7.3969 H   0  0  0  0  0  0  0  0  0  0  0  0
    0.2286   -6.7994    8.1946 H   0  0  0  0  0  0  0  0  0  0  0  0
    0.5910   -8.2400    9.1098 H   0  0  0  0  0  0  0  0  0  0  0  0
  1 19  1  0  0  0  0
  1 20  1  0  0  0  0
  2 32  1  0  0  0  0
  3 17  2  0  0  0  0
  4 20  2  0  0  0  0
  5 28  1  0  0  0  0
  5 33  1  0  0  0  0
  6 11  1  0  0  0  0
  6 12  1  0  0  0  0
  6 17  1  0  0  0  0
  7 15  2  0  0  0  0
  7 23  1  0  0  0  0
  8 26  1  0  0  0  0
  8 30  1  0  0  0  0
  8 31  1  0  0  0  0
  9  2  1  1  0  0  0
  9 10  1  0  0  0  0
  9 18  1  0  0  0  0
  9 20  1  0  0  0  0
 10 13  2  0  0  0  0
 10 16  1  0  0  0  0
 11 15  1  0  0  0  0
 11 16  2  0  0  0  0
 12 14  1  0  0  0  0
 12 34  1  0  0  0  0
 12 35  1  0  0  0  0
 13 17  1  0  0  0  0
 13 19  1  0  0  0  0
 14 15  1  0  0  0  0
 14 21  2  0  0  0  0
 16 36  1  0  0  0  0
 18 25  1  0  0  0  0
 18 37  1  0  0  0  0
 18 38  1  0  0  0  0
 19 39  1  0  0  0  0
 19 40  1  0  0  0  0
 21 22  1  0  0  0  0
 21 41  1  0  0  0  0
 22 23  2  0  0  0  0
 22 24  1  0  0  0  0
 23 27  1  0  0  0  0
 24 26  1  0  0  0  0
 24 28  2  0  0  0  0
 25 42  1  0  0  0  0
 25 43  1  0  0  0  0
 25 44  1  0  0  0  0
 26 45  1  0  0  0  0
 26 46  1  0  0  0  0
 27 29  2  0  0  0  0
 27 47  1  0  0  0  0
 28 29  1  0  0  0  0
 29 48  1  0  0  0  0
 30 49  1  0  0  0  0
 30 50  1  0  0  0  0
 30 51  1  0  0  0  0
 31 52  1  0  0  0  0
 31 53  1  0  0  0  0
 31 54  1  0  0  0  0
M  END
>  <DRUGBANK_ID>
DB01030

>  <SECONDARY_ACCESSION_NUMBERS>
APRD00687

>  <COMMON_NAME>
Topotecan

>  <CAS_NUMBER>
123948-87-8

>  <UNII>
7M7YKX2N15

>  <SYNONYMS>
9-[(dimethylamino)methyl]-10-hydroxy-(4S)-camptothecin; Topotecan; Topotecane; Topotecanum

$$$$
