
 OpenBabel10282417183D

 45 46  0  0  0  0  0  0  0  0999 V2000
   -1.1410   -0.3030    0.0050 C   0  0  0  0  0  0  0  0  0  0  0  0
   -1.1880    1.0470    0.0200 N   0  0  0  0  0  0  0  0  0  0  0  0
    0.0110    1.6450    0.0020 C   0  0  0  0  0  0  0  0  0  0  0  0
    1.1960    1.0370   -0.0250 N   0  0  0  0  0  0  0  0  0  0  0  0
    1.1340   -0.3100    0.0060 C   0  0  0  0  0  0  0  0  0  0  0  0
   -0.0070   -1.0210    0.0290 N   0  0  0  0  0  0  0  0  0  0  0  0
   -2.2920   -0.9690   -0.0290 N   0  0  0  0  0  0  0  0  0  0  0  0
    0.0196    3.1149    0.0131 N   0  0  0  0  0  0  0  0  0  0  0  0
    2.2870   -0.9780   -0.0060 N   0  0  0  0  0  0  0  0  0  0  0  0
    2.2850   -2.4480    0.0059 C   0  0  0  0  0  0  0  0  0  0  0  0
    2.8935   -3.1396    1.0403 C   0  0  0  0  0  0  0  0  0  0  0  0
    3.0676   -4.5199    0.7826 C   0  0  0  0  0  0  0  0  0  0  0  0
    2.4218   -5.1948   -0.1509 C   0  0  0  0  0  0  0  0  0  0  0  0
    1.7837   -4.4532   -1.1060 C   0  0  0  0  0  0  0  0  0  0  0  0
    1.6851   -3.0875   -0.9912 C   0  0  0  0  0  0  0  0  0  0  0  0
    2.3804   -7.1443   -0.1663 As  0  0  0  0  0  0  0  0  0  0  0  0
    1.4463   -7.8863    1.7296 S   0  0  0  0  0  0  0  0  0  0  0  0
    2.4186   -7.3147    3.1452 C   0  0  0  0  0  0  0  0  0  0  0  0
    3.8367   -7.8507    3.0355 C   0  0  0  0  0  0  0  0  0  0  0  0
    4.4497   -7.3638    1.7913 N   0  0  0  0  0  0  0  0  0  0  0  0
    1.1771   -7.8518   -1.9182 S   0  0  0  0  0  0  0  0  0  0  0  0
    1.1387   -9.6614   -1.9325 C   0  0  0  0  0  0  0  0  0  0  0  0
    2.5568  -10.1974   -2.0422 C   0  0  0  0  0  0  0  0  0  0  0  0
    3.3465   -9.7331   -0.8925 N   0  0  0  0  0  0  0  0  0  0  0  0
   -2.2910   -1.9890   -0.0360 H   0  0  0  0  0  0  0  0  0  0  0  0
   -3.1755   -0.4597   -0.0480 H   0  0  0  0  0  0  0  0  0  0  0  0
    0.9057    3.6199    0.0003 H   0  0  0  0  0  0  0  0  0  0  0  0
   -0.8607    3.6299    0.0337 H   0  0  0  0  0  0  0  0  0  0  0  0
    3.1709   -0.4693   -0.0235 H   0  0  0  0  0  0  0  0  0  0  0  0
    3.2036   -2.6725    1.9516 H   0  0  0  0  0  0  0  0  0  0  0  0
    3.7716   -5.0540    1.3859 H   0  0  0  0  0  0  0  0  0  0  0  0
    1.3549   -4.9433   -1.9550 H   0  0  0  0  0  0  0  0  0  0  0  0
    1.1197   -2.5344   -1.7118 H   0  0  0  0  0  0  0  0  0  0  0  0
    2.4413   -6.2449    3.1537 H   0  0  0  0  0  0  0  0  0  0  0  0
    1.9724   -7.6691    4.0509 H   0  0  0  0  0  0  0  0  0  0  0  0
    4.4115   -7.5127    3.8724 H   0  0  0  0  0  0  0  0  0  0  0  0
    3.8140   -8.9204    3.0271 H   0  0  0  0  0  0  0  0  0  0  0  0
    5.4013   -7.7235    1.7177 H   0  0  0  0  0  0  0  0  0  0  0  0
    3.9018   -7.6859    0.9936 H   0  0  0  0  0  0  0  0  0  0  0  0
    0.6925  -10.0158   -1.0268 H   0  0  0  0  0  0  0  0  0  0  0  0
    0.5639   -9.9993   -2.7693 H   0  0  0  0  0  0  0  0  0  0  0  0
    2.5341  -11.2671   -2.0506 H   0  0  0  0  0  0  0  0  0  0  0  0
    3.0030   -9.8430   -2.9478 H   0  0  0  0  0  0  0  0  0  0  0  0
    4.2981  -10.0928   -0.9661 H   0  0  0  0  0  0  0  0  0  0  0  0
    3.3681   -8.7134   -0.8844 H   0  0  0  0  0  0  0  0  0  0  0  0
  1  7  1  0  0  0  0
  1  2  1  0  0  0  0
  1  6  2  0  0  0  0
  2  3  2  0  0  0  0
  3  8  1  0  0  0  0
  3  4  1  0  0  0  0
  4  5  2  0  0  0  0
  5  6  1  0  0  0  0
  5  9  1  0  0  0  0
  7 25  1  0  0  0  0
  7 26  1  0  0  0  0
  8 27  1  0  0  0  0
  8 28  1  0  0  0  0
  9 10  1  0  0  0  0
  9 29  1  0  0  0  0
 10 11  2  0  0  0  0
 11 12  1  0  0  0  0
 11 30  1  0  0  0  0
 12 13  2  0  0  0  0
 12 31  1  0  0  0  0
 13 14  1  0  0  0  0
 13 16  1  0  0  0  0
 14 15  2  0  0  0  0
 14 32  1  0  0  0  0
 15 10  1  0  0  0  0
 15 33  1  0  0  0  0
 16 17  1  0  0  0  0
 16 21  1  0  0  0  0
 17 18  1  0  0  0  0
 18 19  1  0  0  0  0
 18 34  1  0  0  0  0
 18 35  1  0  0  0  0
 19 20  1  0  0  0  0
 19 36  1  0  0  0  0
 19 37  1  0  0  0  0
 20 38  1  0  0  0  0
 20 39  1  0  0  0  0
 21 22  1  0  0  0  0
 22 23  1  0  0  0  0
 22 40  1  0  0  0  0
 22 41  1  0  0  0  0
 23 24  1  0  0  0  0
 23 42  1  0  0  0  0
 23 43  1  0  0  0  0
 24 44  1  0  0  0  0
 24 45  1  0  0  0  0
M  END
>  <DRUGBANK_ID>
DB11528

>  <COMMON_NAME>
Melarsomine

>  <CAS_NUMBER>
128470-15-5

>  <UNII>
374GJ0S41A

>  <SYNONYMS>
Melarsomina; Melarsomine; Melarsominum

$$$$
