ME1
 OpenBabel10282417173D

 43 45  0  0  0  0  0  0  0  0999 V2000
    0.3867    0.1113    0.0322 C   0  0  0  0  0  0  0  0  0  0  0  0
   -0.1446    1.3620    0.0245 C   0  0  0  0  0  0  0  0  0  0  0  0
   -1.5508    1.2987   -0.0884 C   0  0  0  0  0  0  0  0  0  0  0  0
   -4.6233    1.8289    0.0588 C   0  0  0  0  0  0  0  0  0  0  0  0
   -5.1311    2.4175   -1.2479 C   0  0  0  0  0  0  0  0  0  0  0  0
   -7.3797    3.3843   -1.3034 C   0  0  0  0  0  0  0  0  0  0  0  0
   -8.8339    3.1267   -1.2246 C   0  0  0  0  0  0  0  0  0  0  0  0
   -9.3591    2.2152   -0.3001 C   0  0  0  0  0  0  0  0  0  0  0  0
  -10.7461    2.0918   -0.1510 C   0  0  0  0  0  0  0  0  0  0  0  0
   -9.6852    3.9085   -2.0057 C   0  0  0  0  0  0  0  0  0  0  0  0
  -13.7538    2.8493    0.2493 C   0  0  0  0  0  0  0  0  0  0  0  0
  -15.0950    2.8493    0.2286 C   0  0  0  0  0  0  0  0  0  0  0  0
  -15.1206    2.1264   -2.0676 C   0  0  0  0  0  0  0  0  0  0  0  0
   -2.0945    0.0255   -0.0122 C   0  0  0  0  0  0  0  0  0  0  0  0
   -0.7787   -1.1180    0.0279 S   0  0  0  0  0  0  0  0  0  0  0  0
   -3.4772   -0.4821    0.0160 C   0  0  0  0  0  0  0  0  0  0  0  0
   -3.7688   -1.6787    0.0339 O   0  0  0  0  0  0  0  0  0  0  0  0
   -4.5601    0.3797    0.0434 N   0  0  0  0  0  0  0  0  0  0  0  0
   -6.5666    2.2729   -1.3180 N   0  0  0  0  0  0  0  0  0  0  0  0
   -6.9687    4.5321   -1.3281 O   0  0  0  0  0  0  0  0  0  0  0  0
  -11.6051    2.8568   -0.9470 C   0  0  0  0  0  0  0  0  0  0  0  0
  -11.0655    3.7880   -1.8484 C   0  0  0  0  0  0  0  0  0  0  0  0
  -13.0157    2.6469   -0.9114 N   0  0  0  0  0  0  0  0  0  0  0  0
  -15.7997    2.4796   -0.9715 C   0  0  0  0  0  0  0  0  0  0  0  0
  -13.6439    2.3018   -2.1235 C   0  0  0  0  0  0  0  0  0  0  0  0
  -13.0839    2.1112   -3.2007 O   0  0  0  0  0  0  0  0  0  0  0  0
    2.0666   -0.2262    0.0246 Cl  0  0  0  0  0  0  0  0  0  0  0  0
    0.4033    2.2946    0.0395 H   0  0  0  0  0  0  0  0  0  0  0  0
   -2.0476    2.2385   -0.2058 H   0  0  0  0  0  0  0  0  0  0  0  0
   -5.2009    2.1462    0.9302 H   0  0  0  0  0  0  0  0  0  0  0  0
   -3.6653    2.2521    0.2425 H   0  0  0  0  0  0  0  0  0  0  0  0
   -4.8476    3.4758   -1.2897 H   0  0  0  0  0  0  0  0  0  0  0  0
   -4.6908    1.9257   -2.1224 H   0  0  0  0  0  0  0  0  0  0  0  0
   -8.7006    1.6141    0.3200 H   0  0  0  0  0  0  0  0  0  0  0  0
  -11.1462    1.3644    0.5492 H   0  0  0  0  0  0  0  0  0  0  0  0
   -9.2792    4.6053   -2.7361 H   0  0  0  0  0  0  0  0  0  0  0  0
  -13.2064    3.0721    1.1601 H   0  0  0  0  0  0  0  0  0  0  0  0
  -15.6788    3.0851    1.1127 H   0  0  0  0  0  0  0  0  0  0  0  0
  -15.5931    1.7370   -2.9598 H   0  0  0  0  0  0  0  0  0  0  0  0
   -5.4409   -0.1206    0.0859 H   0  0  0  0  0  0  0  0  0  0  0  0
   -6.9597    1.3425   -1.3315 H   0  0  0  0  0  0  0  0  0  0  0  0
  -11.7216    4.4393   -2.4221 H   0  0  0  0  0  0  0  0  0  0  0  0
  -16.8833    2.4255   -0.9473 H   0  0  0  0  0  0  0  0  0  0  0  0
  1  2  2  0  0  0  0
  1 27  1  0  0  0  0
  1 15  1  0  0  0  0
  2  3  1  0  0  0  0
  2 28  1  0  0  0  0
  3 14  2  0  0  0  0
  3 29  1  0  0  0  0
  4  5  1  0  0  0  0
  4 18  1  0  0  0  0
  4 30  1  0  0  0  0
  4 31  1  0  0  0  0
  5 19  1  0  0  0  0
  5 32  1  0  0  0  0
  5 33  1  0  0  0  0
  6  7  1  0  0  0  0
  6 20  2  0  0  0  0
  6 19  1  0  0  0  0
  7  8  2  0  0  0  0
  7 10  1  0  0  0  0
  8  9  1  0  0  0  0
  8 34  1  0  0  0  0
  9 21  2  0  0  0  0
  9 35  1  0  0  0  0
 10 22  2  0  0  0  0
 10 36  1  0  0  0  0
 11 12  2  0  0  0  0
 11 23  1  0  0  0  0
 11 37  1  0  0  0  0
 12 24  1  0  0  0  0
 12 38  1  0  0  0  0
 13 24  2  0  0  0  0
 13 25  1  0  0  0  0
 13 39  1  0  0  0  0
 14 16  1  0  0  0  0
 14 15  1  0  0  0  0
 16 17  2  0  0  0  0
 16 18  1  0  0  0  0
 18 40  1  0  0  0  0
 19 41  1  0  0  0  0
 21 23  1  0  0  0  0
 21 22  1  0  0  0  0
 22 42  1  0  0  0  0
 23 25  1  0  0  0  0
 24 43  1  0  0  0  0
 25 26  2  0  0  0  0
M  END
>  <DRUGBANK_ID>
DB08173

>  <COMMON_NAME>
5-CHLORO-N-(2-(4-(2-OXOPYRIDIN-1(2H)-YL)BENZAMIDO)ETHYL)THIOPHENE-2-CARBOXAMIDE

$$$$
