
 OpenBabel10282417193D

 54 56  0  0  0  0  0  0  0  0999 V2000
   -0.3495   -0.9163   -0.0570 C   0  0  0  0  0  0  0  0  0  0  0  0
   -0.0235    0.4375   -0.0262 C   0  0  0  0  0  0  0  0  0  0  0  0
    0.6078   -1.8866   -0.1105 N   0  0  0  0  0  0  0  0  0  0  0  0
   -1.7241   -1.2147   -0.0165 C   0  0  0  0  0  0  0  0  0  0  0  0
   -1.0429    1.4387   -0.0036 C   0  0  0  0  0  0  0  0  0  0  0  0
    1.3474    0.7124   -0.0331 C   0  0  0  0  0  0  0  0  0  0  0  0
    1.9135   -1.5397   -0.0985 C   0  0  0  0  0  0  0  0  0  0  0  0
   -2.7497   -0.2302    0.0054 C   0  0  0  0  0  0  0  0  0  0  0  0
   -2.3978    1.1238    0.0009 C   0  0  0  0  0  0  0  0  0  0  0  0
    2.2956   -0.2494   -0.0555 N   0  0  0  0  0  0  0  0  0  0  0  0
    1.8108    2.0161    0.1519 N   0  0  0  0  0  0  0  0  0  0  0  0
    2.8599   -2.5414    0.1031 N   0  0  0  0  0  0  0  0  0  0  0  0
   -4.0291   -0.7443    0.0212 O   0  0  0  0  0  0  0  0  0  0  0  0
   -3.3839    2.0678   -0.0002 O   0  0  0  0  0  0  0  0  0  0  0  0
    3.3421   -3.4203   -0.9803 C   0  0  0  0  0  0  0  0  0  0  0  0
    3.8388   -2.3139    1.1558 C   0  0  0  0  0  0  0  0  0  0  0  0
   -5.1195    0.1793    0.0184 C   0  0  0  0  0  0  0  0  0  0  0  0
   -3.0660    3.4502   -0.0136 C   0  0  0  0  0  0  0  0  0  0  0  0
    3.3849   -4.9040   -0.5106 C   0  0  0  0  0  0  0  0  0  0  0  0
    3.5998   -3.3077    2.2917 C   0  0  0  0  0  0  0  0  0  0  0  0
    4.2081   -5.1697    0.7003 N   0  0  0  0  0  0  0  0  0  0  0  0
    3.5651   -4.7995    1.9506 C   0  0  0  0  0  0  0  0  0  0  0  0
    5.4778   -5.7130    0.5775 C   0  0  0  0  0  0  0  0  0  0  0  0
    6.3174   -6.0400    1.8246 C   0  0  0  0  0  0  0  0  0  0  0  0
    5.9594   -5.9309   -0.5475 O   0  0  0  0  0  0  0  0  0  0  0  0
    6.6230   -7.5344    1.9962 C   0  0  0  0  0  0  0  0  0  0  0  0
    7.4857   -8.1000    0.8771 C   0  0  0  0  0  0  0  0  0  0  0  0
   -2.0159   -2.2645   -0.0035 H   0  0  0  0  0  0  0  0  0  0  0  0
   -0.7532    2.4817   -0.0031 H   0  0  0  0  0  0  0  0  0  0  0  0
    1.2401    2.8014   -0.1189 H   0  0  0  0  0  0  0  0  0  0  0  0
    2.8079    2.1097    0.0050 H   0  0  0  0  0  0  0  0  0  0  0  0
    2.7255   -3.3446   -1.8831 H   0  0  0  0  0  0  0  0  0  0  0  0
    4.3634   -3.1334   -1.2754 H   0  0  0  0  0  0  0  0  0  0  0  0
    3.7898   -1.3016    1.5733 H   0  0  0  0  0  0  0  0  0  0  0  0
    4.8647   -2.4216    0.7763 H   0  0  0  0  0  0  0  0  0  0  0  0
   -5.1150    0.7987    0.9234 H   0  0  0  0  0  0  0  0  0  0  0  0
   -5.1225    0.7854   -0.8958 H   0  0  0  0  0  0  0  0  0  0  0  0
   -6.0614   -0.3762    0.0260 H   0  0  0  0  0  0  0  0  0  0  0  0
   -2.5151    3.7357    0.8869 H   0  0  0  0  0  0  0  0  0  0  0  0
   -2.5237    3.7219   -0.9239 H   0  0  0  0  0  0  0  0  0  0  0  0
   -4.0105    4.0059   -0.0135 H   0  0  0  0  0  0  0  0  0  0  0  0
    2.3625   -5.2269   -0.2819 H   0  0  0  0  0  0  0  0  0  0  0  0
    3.7329   -5.5426   -1.3314 H   0  0  0  0  0  0  0  0  0  0  0  0
    4.3781   -3.1424    3.0432 H   0  0  0  0  0  0  0  0  0  0  0  0
    2.6429   -3.0672    2.7709 H   0  0  0  0  0  0  0  0  0  0  0  0
    3.9816   -5.3616    2.7875 H   0  0  0  0  0  0  0  0  0  0  0  0
    2.5279   -5.1496    1.8920 H   0  0  0  0  0  0  0  0  0  0  0  0
    7.2582   -5.4809    1.7465 H   0  0  0  0  0  0  0  0  0  0  0  0
    5.8613   -5.6852    2.7481 H   0  0  0  0  0  0  0  0  0  0  0  0
    7.1603   -7.6819    2.9437 H   0  0  0  0  0  0  0  0  0  0  0  0
    5.6924   -8.1081    2.0702 H   0  0  0  0  0  0  0  0  0  0  0  0
    8.4300   -7.5517    0.8003 H   0  0  0  0  0  0  0  0  0  0  0  0
    7.7140   -9.1547    1.0575 H   0  0  0  0  0  0  0  0  0  0  0  0
    6.9743   -8.0465   -0.0864 H   0  0  0  0  0  0  0  0  0  0  0  0
  1  2  1  0  0  0  0
  1  3  2  0  0  0  0
  1  4  1  0  0  0  0
  2  5  1  0  0  0  0
  2  6  2  0  0  0  0
  3  7  1  0  0  0  0
  4  8  2  0  0  0  0
  4 28  1  0  0  0  0
  5  9  2  0  0  0  0
  5 29  1  0  0  0  0
  6 10  1  0  0  0  0
  6 11  1  0  0  0  0
  7 12  1  0  0  0  0
  7 10  2  0  0  0  0
  8 13  1  0  0  0  0
  8  9  1  0  0  0  0
  9 14  1  0  0  0  0
 11 30  1  0  0  0  0
 11 31  1  0  0  0  0
 12 15  1  0  0  0  0
 12 16  1  0  0  0  0
 13 17  1  0  0  0  0
 14 18  1  0  0  0  0
 15 19  1  0  0  0  0
 15 32  1  0  0  0  0
 15 33  1  0  0  0  0
 16 20  1  0  0  0  0
 16 34  1  0  0  0  0
 16 35  1  0  0  0  0
 17 36  1  0  0  0  0
 17 37  1  0  0  0  0
 17 38  1  0  0  0  0
 18 39  1  0  0  0  0
 18 40  1  0  0  0  0
 18 41  1  0  0  0  0
 19 21  1  0  0  0  0
 19 42  1  0  0  0  0
 19 43  1  0  0  0  0
 20 22  1  0  0  0  0
 20 44  1  0  0  0  0
 20 45  1  0  0  0  0
 21 23  1  0  0  0  0
 21 22  1  0  0  0  0
 22 46  1  0  0  0  0
 22 47  1  0  0  0  0
 23 24  1  0  0  0  0
 23 25  2  0  0  0  0
 24 26  1  0  0  0  0
 24 48  1  0  0  0  0
 24 49  1  0  0  0  0
 26 27  1  0  0  0  0
 26 50  1  0  0  0  0
 26 51  1  0  0  0  0
 27 52  1  0  0  0  0
 27 53  1  0  0  0  0
 27 54  1  0  0  0  0
M  END
>  <DRUGBANK_ID>
DB12230

>  <COMMON_NAME>
Bunazosin

>  <CAS_NUMBER>
80755-51-7

>  <UNII>
9UUW4V7G2H

>  <SYNONYMS>
Bunazosin

$$$$
