
 OpenBabel10282417133D

 41 41  0  0  1  0  0  0  0  0999 V2000
    1.1466    0.0468   -0.0867 C   0  0  0  0  0  0  0  0  0  0  0  0
    0.5986   -1.1557   -0.8201 N   0  3  1  0  0  0  0  0  0  0  0  0
    1.0852   -2.4373   -0.1338 C   0  0  0  0  0  0  0  0  0  0  0  0
    0.5955   -2.5908    1.3324 C   0  0  0  0  0  0  0  0  0  0  0  0
   -0.9006   -2.6592    1.5525 C   0  0  0  0  0  0  0  0  0  0  0  0
   -1.6259   -3.7322    1.8703 C   0  0  0  0  0  0  0  0  0  0  0  0
   -3.1353   -3.6965    1.8119 C   0  0  0  0  0  0  0  0  0  0  0  0
   -0.9522   -4.9774    2.3423 C   0  0  0  0  0  0  0  0  0  0  0  0
   -0.9086   -1.1141   -1.0147 C   0  0  1  0  0  0  0  0  0  0  0  0
   -1.3954    0.0902   -1.8015 C   0  0  0  0  0  0  0  0  0  0  0  0
   -2.9297    0.1128   -1.7553 C   0  0  0  0  0  0  0  0  0  0  0  0
   -3.5866   -1.2288   -1.9508 C   0  0  0  0  0  0  0  0  0  0  0  0
   -5.0591   -1.1826   -2.2214 C   0  0  0  0  0  0  0  0  0  0  0  0
   -2.9095   -2.3852   -1.8942 C   0  0  0  0  0  0  0  0  0  0  0  0
   -1.4486   -2.4395   -1.6022 C   0  0  0  0  0  0  0  0  0  0  0  0
    0.7238    0.0667    0.9204 H   0  0  0  0  0  0  0  0  0  0  0  0
    0.8745    0.9551   -0.6213 H   0  0  0  0  0  0  0  0  0  0  0  0
    2.2351   -0.0445   -0.0544 H   0  0  0  0  0  0  0  0  0  0  0  0
    1.0123   -1.1489   -1.7632 H   0  0  0  0  0  0  0  0  0  0  0  0
    0.8011   -3.2863   -0.7662 H   0  0  0  0  0  0  0  0  0  0  0  0
    2.1811   -2.4001   -0.1654 H   0  0  0  0  0  0  0  0  0  0  0  0
    1.0750   -3.4946    1.7180 H   0  0  0  0  0  0  0  0  0  0  0  0
    0.9849   -1.7740    1.9438 H   0  0  0  0  0  0  0  0  0  0  0  0
   -1.4850   -1.7495    1.4759 H   0  0  0  0  0  0  0  0  0  0  0  0
   -3.5154   -4.5201    1.1973 H   0  0  0  0  0  0  0  0  0  0  0  0
   -3.5685   -3.7596    2.8116 H   0  0  0  0  0  0  0  0  0  0  0  0
   -3.5056   -2.7728    1.3450 H   0  0  0  0  0  0  0  0  0  0  0  0
   -0.3424   -5.4132    1.5462 H   0  0  0  0  0  0  0  0  0  0  0  0
   -0.2983   -4.7099    3.1828 H   0  0  0  0  0  0  0  0  0  0  0  0
   -1.6647   -5.7172    2.7053 H   0  0  0  0  0  0  0  0  0  0  0  0
   -1.3131   -0.9007   -0.0380 H   0  0  0  0  0  0  0  0  0  0  0  0
   -1.0595    1.0232   -1.3373 H   0  0  0  0  0  0  0  0  0  0  0  0
   -1.0191    0.0693   -2.8271 H   0  0  0  0  0  0  0  0  0  0  0  0
   -3.2838    0.8210   -2.5083 H   0  0  0  0  0  0  0  0  0  0  0  0
   -3.2510    0.4920   -0.7739 H   0  0  0  0  0  0  0  0  0  0  0  0
   -5.5825   -0.7225   -1.3776 H   0  0  0  0  0  0  0  0  0  0  0  0
   -5.2397   -0.5834   -3.1185 H   0  0  0  0  0  0  0  0  0  0  0  0
   -5.4827   -2.1777   -2.3872 H   0  0  0  0  0  0  0  0  0  0  0  0
   -3.4199   -3.3386   -2.0338 H   0  0  0  0  0  0  0  0  0  0  0  0
   -1.3055   -3.2777   -0.9143 H   0  0  0  0  0  0  0  0  0  0  0  0
   -0.9090   -2.7048   -2.5176 H   0  0  0  0  0  0  0  0  0  0  0  0
  1 16  1  0  0  0  0
  1 17  1  0  0  0  0
  1 18  1  0  0  0  0
  2  1  1  0  0  0  0
  2  3  1  0  0  0  0
  2 19  1  6  0  0  0
  3  4  1  0  0  0  0
  3 20  1  0  0  0  0
  3 21  1  0  0  0  0
  4  5  1  0  0  0  0
  4 22  1  0  0  0  0
  4 23  1  0  0  0  0
  5  6  2  0  0  0  0
  5 24  1  0  0  0  0
  6  7  1  0  0  0  0
  6  8  1  0  0  0  0
  7 25  1  0  0  0  0
  7 26  1  0  0  0  0
  7 27  1  0  0  0  0
  8 28  1  0  0  0  0
  8 29  1  0  0  0  0
  8 30  1  0  0  0  0
  9  2  1  0  0  0  0
  9 10  1  0  0  0  0
  9 15  1  0  0  0  0
  9 31  1  1  0  0  0
 10 11  1  0  0  0  0
 10 32  1  0  0  0  0
 10 33  1  0  0  0  0
 11 12  1  0  0  0  0
 11 34  1  0  0  0  0
 11 35  1  0  0  0  0
 12 13  1  0  0  0  0
 12 14  2  0  0  0  0
 13 36  1  0  0  0  0
 13 37  1  0  0  0  0
 13 38  1  0  0  0  0
 14 15  1  0  0  0  0
 14 39  1  0  0  0  0
 15 40  1  0  0  0  0
 15 41  1  0  0  0  0
M  CHG  1   2   1
M  END
>  <DRUGBANK_ID>
DB03985

>  <SECONDARY_ACCESSION_NUMBERS>
EXPT02759

>  <COMMON_NAME>
R-azabisabolene

$$$$
