1450
 OpenBabel10282417113D

 65 70  0  0  1  0  0  0  0  0999 V2000
    1.0254   -1.0667   -1.1088 O   0  0  0  0  0  0  0  0  0  0  0  0
    1.5206   -5.1509   -2.7271 O   0  0  0  0  0  0  0  0  0  0  0  0
    3.3385   -7.0594   -0.6605 O   0  0  0  0  0  0  0  0  0  0  0  0
    2.0128    1.9940   -0.4198 O   0  0  0  0  0  0  0  0  0  0  0  0
    4.3396   -2.5472    2.1915 N   0  0  0  0  0  0  0  0  0  0  0  0
    3.2823   -3.6635    0.0170 C   0  0  2  0  0  0  0  0  0  0  0  0
    2.3444   -2.5135    0.1811 C   0  0  1  0  0  0  0  0  0  0  0  0
    1.2315   -4.1239   -1.7827 C   0  0  1  0  0  0  0  0  0  0  0  0
    1.1176   -2.6024   -0.7457 C   0  0  2  0  0  0  0  0  0  0  0  0
    2.4368   -4.8141    0.5458 C   0  0  0  0  0  0  0  0  0  0  0  0
    1.4665   -5.3111   -0.5290 C   0  0  2  0  0  0  0  0  0  0  0  0
    4.5672   -3.2665    0.8671 C   0  0  1  0  0  0  0  0  0  0  0  0
    3.6138   -3.7954   -1.5514 C   0  0  0  0  0  0  0  0  0  0  0  0
    2.4443   -3.4137   -2.4079 C   0  0  0  0  0  0  0  0  0  0  0  0
    1.8995   -2.2968    1.6786 C   0  0  0  0  0  0  0  0  0  0  0  0
    3.1304   -1.3857   -0.4028 C   0  0  0  0  0  0  0  0  0  0  0  0
    5.4468   -2.4269   -0.0887 C   0  0  0  0  0  0  0  0  0  0  0  0
    1.8934   -6.8950   -0.6755 C   0  0  1  0  0  0  0  0  0  0  0  0
    2.9826   -2.7355    2.6870 C   0  0  0  0  0  0  0  0  0  0  0  0
    4.5436   -1.2468   -0.5388 C   0  0  0  0  0  0  0  0  0  0  0  0
    2.2315   -0.4083   -0.7698 C   0  0  0  0  0  0  0  0  0  0  0  0
    1.4894   -7.7741   -1.8696 C   0  0  0  0  0  0  0  0  0  0  0  0
    4.7336   -1.1296    2.2988 C   0  0  0  0  0  0  0  0  0  0  0  0
    1.4509   -7.6507    0.6178 C   0  0  0  0  0  0  0  0  0  0  0  0
    5.0826   -0.0010   -0.7051 C   0  0  0  0  0  0  0  0  0  0  0  0
    2.7697    0.8574   -0.6419 C   0  0  0  0  0  0  0  0  0  0  0  0
    1.3372   -5.2655   -4.1254 C   0  0  0  0  0  0  0  0  0  0  0  0
    4.1876    1.0771   -0.5693 C   0  0  0  0  0  0  0  0  0  0  0  0
    0.1070   -8.3980   -1.8886 C   0  0  0  0  0  0  0  0  0  0  0  0
   -1.0164   -7.3983   -1.7068 C   0  0  0  0  0  0  0  0  0  0  0  0
    0.1708   -2.7692   -0.2107 H   0  0  0  0  0  0  0  0  0  0  0  0
    0.4527   -5.3427   -0.0949 H   0  0  0  0  0  0  0  0  0  0  0  0
    5.0862   -4.1999    1.1129 H   0  0  0  0  0  0  0  0  0  0  0  0
    3.7753   -6.2020   -0.7082 H   0  0  0  0  0  0  0  0  0  0  0  0
    2.6245    2.7273   -0.2314 H   0  0  0  0  0  0  0  0  0  0  0  0
    3.1010   -5.5541    0.9947 H   0  0  0  0  0  0  0  0  0  0  0  0
    1.7832   -4.6158    1.3972 H   0  0  0  0  0  0  0  0  0  0  0  0
    4.0143   -4.7710   -1.8130 H   0  0  0  0  0  0  0  0  0  0  0  0
    4.3407   -3.1100   -1.9768 H   0  0  0  0  0  0  0  0  0  0  0  0
    2.7436   -3.5946   -3.4411 H   0  0  0  0  0  0  0  0  0  0  0  0
    2.2428   -2.3479   -2.5710 H   0  0  0  0  0  0  0  0  0  0  0  0
    1.5659   -1.2706    1.8671 H   0  0  0  0  0  0  0  0  0  0  0  0
    1.0044   -2.9007    1.9060 H   0  0  0  0  0  0  0  0  0  0  0  0
    6.3614   -2.1001    0.4135 H   0  0  0  0  0  0  0  0  0  0  0  0
    5.8351   -3.0187   -0.9281 H   0  0  0  0  0  0  0  0  0  0  0  0
    2.8159   -2.2497    3.6572 H   0  0  0  0  0  0  0  0  0  0  0  0
    2.8902   -3.8019    2.9231 H   0  0  0  0  0  0  0  0  0  0  0  0
    1.6380   -7.2730   -2.8058 H   0  0  0  0  0  0  0  0  0  0  0  0
    2.2264   -8.5873   -1.9675 H   0  0  0  0  0  0  0  0  0  0  0  0
    5.1489   -0.7507    1.4008 H   0  0  0  0  0  0  0  0  0  0  0  0
    5.6215   -0.9464    2.9063 H   0  0  0  0  0  0  0  0  0  0  0  0
    3.9257   -0.4029    2.4692 H   0  0  0  0  0  0  0  0  0  0  0  0
    1.7798   -7.1603    1.5382 H   0  0  0  0  0  0  0  0  0  0  0  0
    0.3664   -7.7578    0.6955 H   0  0  0  0  0  0  0  0  0  0  0  0
    1.8954   -8.6534    0.6410 H   0  0  0  0  0  0  0  0  0  0  0  0
    6.1552    0.1526   -0.5943 H   0  0  0  0  0  0  0  0  0  0  0  0
    0.2990   -5.1107   -4.3810 H   0  0  0  0  0  0  0  0  0  0  0  0
    2.0276   -4.6768   -4.7341 H   0  0  0  0  0  0  0  0  0  0  0  0
    1.6133   -6.2909   -4.4247 H   0  0  0  0  0  0  0  0  0  0  0  0
    4.6323    2.0338   -0.3260 H   0  0  0  0  0  0  0  0  0  0  0  0
   -0.0162   -8.8989   -2.8560 H   0  0  0  0  0  0  0  0  0  0  0  0
    0.0523   -9.1873   -1.1305 H   0  0  0  0  0  0  0  0  0  0  0  0
   -0.9970   -6.6416   -2.4953 H   0  0  0  0  0  0  0  0  0  0  0  0
   -1.9773   -7.9162   -1.7391 H   0  0  0  0  0  0  0  0  0  0  0  0
   -0.9648   -6.8828   -0.7464 H   0  0  0  0  0  0  0  0  0  0  0  0
  1  9  1  0  0  0  0
  1 21  1  0  0  0  0
  2 27  1  0  0  0  0
  3 34  1  0  0  0  0
  4 26  1  0  0  0  0
  4 35  1  0  0  0  0
  5 12  1  0  0  0  0
  5 19  1  0  0  0  0
  5 23  1  0  0  0  0
  6  7  1  0  0  0  0
  6 10  1  1  0  0  0
  6 12  1  0  0  0  0
  6 13  1  0  0  0  0
  7  9  1  0  0  0  0
  7 15  1  0  0  0  0
  7 16  1  6  0  0  0
  8  2  1  6  0  0  0
  8  9  1  0  0  0  0
  8 11  1  0  0  0  0
  8 14  1  0  0  0  0
  9 31  1  1  0  0  0
 10 11  1  0  0  0  0
 10 36  1  0  0  0  0
 10 37  1  0  0  0  0
 11 32  1  1  0  0  0
 11 18  1  0  0  0  0
 12 17  1  0  0  0  0
 12 33  1  1  0  0  0
 13 14  1  0  0  0  0
 13 38  1  0  0  0  0
 13 39  1  0  0  0  0
 14 40  1  0  0  0  0
 14 41  1  0  0  0  0
 15 19  1  0  0  0  0
 15 42  1  0  0  0  0
 15 43  1  0  0  0  0
 16 20  2  0  0  0  0
 16 21  1  0  0  0  0
 17 20  1  0  0  0  0
 17 44  1  0  0  0  0
 17 45  1  0  0  0  0
 18 24  1  0  0  0  0
 18 22  1  0  0  0  0
 18  3  1  1  0  0  0
 19 46  1  0  0  0  0
 19 47  1  0  0  0  0
 20 25  1  0  0  0  0
 21 26  2  0  0  0  0
 22 29  1  0  0  0  0
 22 48  1  0  0  0  0
 22 49  1  0  0  0  0
 23 50  1  0  0  0  0
 23 51  1  0  0  0  0
 23 52  1  0  0  0  0
 24 53  1  0  0  0  0
 24 54  1  0  0  0  0
 24 55  1  0  0  0  0
 25 28  2  0  0  0  0
 25 56  1  0  0  0  0
 26 28  1  0  0  0  0
 27 57  1  0  0  0  0
 27 58  1  0  0  0  0
 27 59  1  0  0  0  0
 28 60  1  0  0  0  0
 29 30  1  0  0  0  0
 29 61  1  0  0  0  0
 29 62  1  0  0  0  0
 30 63  1  0  0  0  0
 30 64  1  0  0  0  0
 30 65  1  0  0  0  0
M  END
>  <DRUGBANK_ID>
DB01450

>  <COMMON_NAME>
Dihydroetorphine

>  <CAS_NUMBER>
14357-76-7

>  <UNII>
QQX8S479YV

$$$$
