LZ9
 OpenBabel10282417173D

 37 39  0  0  0  0  0  0  0  0999 V2000
    2.3295    0.1637    0.2246 F   0  0  0  0  0  0  0  0  0  0  0  0
    1.0171    0.0627   -0.0114 C   0  0  0  0  0  0  0  0  0  0  0  0
    0.2338    1.2000   -0.1669 C   0  0  0  0  0  0  0  0  0  0  0  0
   -1.1256    1.0736   -0.5144 C   0  0  0  0  0  0  0  0  0  0  0  0
   -1.6864   -0.1998   -0.7156 C   0  0  0  0  0  0  0  0  0  0  0  0
   -3.0609   -0.4187   -0.9665 N   0  0  0  0  0  0  0  0  0  0  0  0
   -3.8688   -1.5715   -0.8661 C   0  0  0  0  0  0  0  0  0  0  0  0
   -4.9842   -1.5441   -1.3367 O   0  0  0  0  0  0  0  0  0  0  0  0
   -3.3752   -2.7676   -0.1635 C   0  0  0  0  0  0  0  0  0  0  0  0
   -3.5656   -3.9432   -0.7916 N   0  0  0  0  0  0  0  0  0  0  0  0
   -2.6725   -4.7557   -0.2427 N   0  0  0  0  0  0  0  0  0  0  0  0
   -1.9924   -4.1749    0.7983 C   0  0  0  0  0  0  0  0  0  0  0  0
   -2.5506   -2.9118    1.0059 C   0  0  0  0  0  0  0  0  0  0  0  0
   -2.1099   -1.9899    1.9839 N   0  0  0  0  0  0  0  0  0  0  0  0
   -2.4568   -0.6514    2.2974 C   0  0  0  0  0  0  0  0  0  0  0  0
   -1.6408   -0.0057    2.9628 O   0  0  0  0  0  0  0  0  0  0  0  0
   -3.7105    0.0604    1.8549 C   0  0  0  0  0  0  0  0  0  0  0  0
   -4.8983   -0.6358    1.6986 C   0  0  0  0  0  0  0  0  0  0  0  0
   -5.0027   -1.8925    2.1469 F   0  0  0  0  0  0  0  0  0  0  0  0
   -5.9170   -0.1551    0.8579 C   0  0  0  0  0  0  0  0  0  0  0  0
   -5.7488    1.0258    0.1325 C   0  0  0  0  0  0  0  0  0  0  0  0
   -4.6504    1.8274    0.4177 C   0  0  0  0  0  0  0  0  0  0  0  0
   -3.6818    1.3798    1.3452 C   0  0  0  0  0  0  0  0  0  0  0  0
   -2.6292    2.1883    1.5395 F   0  0  0  0  0  0  0  0  0  0  0  0
   -0.8310   -1.2856   -0.6388 C   0  0  0  0  0  0  0  0  0  0  0  0
    0.4729   -1.1870   -0.1919 C   0  0  0  0  0  0  0  0  0  0  0  0
    0.6908    2.1732   -0.0101 H   0  0  0  0  0  0  0  0  0  0  0  0
   -1.7032    1.9948   -0.5723 H   0  0  0  0  0  0  0  0  0  0  0  0
   -3.6394    0.3786   -1.1887 H   0  0  0  0  0  0  0  0  0  0  0  0
   -2.5369   -5.6575   -0.6955 H   0  0  0  0  0  0  0  0  0  0  0  0
   -1.1509   -4.7118    1.2173 H   0  0  0  0  0  0  0  0  0  0  0  0
   -1.2315   -2.2524    2.4284 H   0  0  0  0  0  0  0  0  0  0  0  0
   -6.7187   -0.8385    0.5823 H   0  0  0  0  0  0  0  0  0  0  0  0
   -6.3906    1.2279   -0.7281 H   0  0  0  0  0  0  0  0  0  0  0  0
   -4.4496    2.7026   -0.2043 H   0  0  0  0  0  0  0  0  0  0  0  0
   -1.1749   -2.2677   -0.9092 H   0  0  0  0  0  0  0  0  0  0  0  0
    1.0429   -2.0923   -0.0319 H   0  0  0  0  0  0  0  0  0  0  0  0
  1  2  1  0  0  0  0
  2  3  1  0  0  0  0
  2 26  2  0  0  0  0
  3  4  2  0  0  0  0
  3 27  1  0  0  0  0
  4  5  1  0  0  0  0
  4 28  1  0  0  0  0
  5  6  1  0  0  0  0
  5 25  2  0  0  0  0
  6  7  1  0  0  0  0
  6 29  1  0  0  0  0
  7  8  2  0  0  0  0
  7  9  1  0  0  0  0
  9 10  2  0  0  0  0
  9 13  1  0  0  0  0
 10 11  1  0  0  0  0
 11 12  1  0  0  0  0
 11 30  1  0  0  0  0
 12 13  2  0  0  0  0
 12 31  1  0  0  0  0
 13 14  1  0  0  0  0
 14 15  1  0  0  0  0
 14 32  1  0  0  0  0
 15 16  2  0  0  0  0
 15 17  1  0  0  0  0
 17 18  1  0  0  0  0
 17 23  2  0  0  0  0
 18 19  1  0  0  0  0
 18 20  2  0  0  0  0
 20 21  1  0  0  0  0
 20 33  1  0  0  0  0
 21 22  2  0  0  0  0
 21 34  1  0  0  0  0
 22 23  1  0  0  0  0
 22 35  1  0  0  0  0
 23 24  1  0  0  0  0
 25 26  1  0  0  0  0
 25 36  1  0  0  0  0
 26 37  1  0  0  0  0
M  END
>  <DRUGBANK_ID>
DB08138

>  <COMMON_NAME>
{[(2,6-difluorophenyl)carbonyl]amino}-N-(4-fluorophenyl)-1H-pyrazole-3-carboxamide

$$$$
