
 OpenBabel10282417223D

  8  7  0  0  0  0  0  0  0  0999 V2000
    0.9983    0.0975   -0.0322 C   0  0  0  0  0  0  0  0  0  0  0  0
    0.5282    0.1468    1.3912 C   0  0  0  0  0  0  0  0  0  0  0  0
   -0.2431    1.2101    1.6982 O   0  0  0  0  0  0  0  0  0  0  0  0
    0.8168   -0.7072    2.2180 O   0  0  0  0  0  0  0  0  0  0  0  0
    0.6368    0.9481   -0.6151 H   0  0  0  0  0  0  0  0  0  0  0  0
    0.6303   -0.8211   -0.4976 H   0  0  0  0  0  0  0  0  0  0  0  0
    2.0917    0.1089   -0.0471 H   0  0  0  0  0  0  0  0  0  0  0  0
   -0.4148    1.8334    0.9686 H   0  0  0  0  0  0  0  0  0  0  0  0
  1  2  1  0  0  0  0
  1  5  1  0  0  0  0
  1  6  1  0  0  0  0
  1  7  1  0  0  0  0
  2  3  1  0  0  0  0
  2  4  2  0  0  0  0
  3  8  1  0  0  0  0
M  ISO  1   2  11
M  END
>  <DRUGBANK_ID>
DB15111

>  <COMMON_NAME>
Acetic acid C-11

>  <CAS_NUMBER>
78887-71-5

>  <UNII>
2A9OM7IPNW

>  <SYNONYMS>
[11C]Acetic Acid; 11C-ACETATE

$$$$
