
 OpenBabel10282417203D

 51 55  0  0  0  0  0  0  0  0999 V2000
    1.1001   -0.0563    0.2221 C   0  0  0  0  0  0  0  0  0  0  0  0
    0.6276   -0.2317   -1.2003 C   0  0  0  0  0  0  0  0  0  0  0  0
    1.0764   -1.4666   -1.8361 N   0  0  0  0  0  0  0  0  0  0  0  0
    0.5433   -1.6323   -3.2000 C   0  0  0  0  0  0  0  0  0  0  0  0
    0.9431   -0.5572   -4.1891 C   0  0  0  0  0  0  0  0  0  0  0  0
    0.4526    0.7462   -4.0241 C   0  0  0  0  0  0  0  0  0  0  0  0
    0.7896    1.8232   -4.7550 N   0  0  0  0  0  0  0  0  0  0  0  0
    1.5970    1.5764   -5.7933 C   0  0  0  0  0  0  0  0  0  0  0  0
    2.0700    0.3069   -6.1439 C   0  0  0  0  0  0  0  0  0  0  0  0
    1.7537   -0.7923   -5.3121 C   0  0  0  0  0  0  0  0  0  0  0  0
    2.2301   -2.1900   -5.6368 C   0  0  0  0  0  0  0  0  0  0  0  0
    2.8459    0.1679   -7.3680 C   0  0  0  0  0  0  0  0  0  0  0  0
    2.3662   -0.6320   -8.4196 C   0  0  0  0  0  0  0  0  0  0  0  0
    3.1039   -0.8301   -9.5842 C   0  0  0  0  0  0  0  0  0  0  0  0
    4.3102   -0.1342   -9.6784 C   0  0  0  0  0  0  0  0  0  0  0  0
    4.8141    0.6728   -8.6650 C   0  0  0  0  0  0  0  0  0  0  0  0
    4.0773    0.8282   -7.4863 C   0  0  0  0  0  0  0  0  0  0  0  0
    6.0080    1.2248   -9.1896 C   0  0  0  0  0  0  0  0  0  0  0  0
    6.1947    0.8759  -10.4700 N   0  0  0  0  0  0  0  0  0  0  0  0
    5.2331   -0.0475  -10.6838 N   0  0  0  0  0  0  0  0  0  0  0  0
    6.8700    2.2205   -8.4799 C   0  0  0  0  0  0  0  0  0  0  0  0
    7.1480    3.4577   -9.0101 N   0  0  0  0  0  0  0  0  0  0  0  0
    7.8712    4.1676   -8.0818 C   0  0  0  0  0  0  0  0  0  0  0  0
    8.3598    5.4783   -8.0720 C   0  0  0  0  0  0  0  0  0  0  0  0
    9.1211    5.8550   -6.9614 C   0  0  0  0  0  0  0  0  0  0  0  0
    9.3905    4.9805   -5.9165 C   0  0  0  0  0  0  0  0  0  0  0  0
    8.8628    3.6870   -5.9435 C   0  0  0  0  0  0  0  0  0  0  0  0
    8.0670    3.2735   -7.0320 C   0  0  0  0  0  0  0  0  0  0  0  0
    7.3774    2.0989   -7.2714 N   0  0  0  0  0  0  0  0  0  0  0  0
    9.1279    2.8596   -4.9221 F   0  0  0  0  0  0  0  0  0  0  0  0
    9.6128    7.1010   -6.9106 F   0  0  0  0  0  0  0  0  0  0  0  0
    0.7258   -0.8428    0.8782 H   0  0  0  0  0  0  0  0  0  0  0  0
    0.7356    0.9112    0.5882 H   0  0  0  0  0  0  0  0  0  0  0  0
    2.1932   -0.0311    0.2569 H   0  0  0  0  0  0  0  0  0  0  0  0
   -0.4665   -0.1640   -1.2348 H   0  0  0  0  0  0  0  0  0  0  0  0
    1.0648    0.6251   -1.7134 H   0  0  0  0  0  0  0  0  0  0  0  0
    2.0953   -1.4858   -1.8693 H   0  0  0  0  0  0  0  0  0  0  0  0
    0.8813   -2.6165   -3.5435 H   0  0  0  0  0  0  0  0  0  0  0  0
   -0.5505   -1.7068   -3.1822 H   0  0  0  0  0  0  0  0  0  0  0  0
   -0.2589    0.9865   -3.2406 H   0  0  0  0  0  0  0  0  0  0  0  0
    1.8347    2.4545   -6.3891 H   0  0  0  0  0  0  0  0  0  0  0  0
    2.8511   -2.5887   -4.8305 H   0  0  0  0  0  0  0  0  0  0  0  0
    1.3658   -2.8420   -5.8058 H   0  0  0  0  0  0  0  0  0  0  0  0
    2.8419   -2.2553   -6.5389 H   0  0  0  0  0  0  0  0  0  0  0  0
    1.4082   -1.1424   -8.3097 H   0  0  0  0  0  0  0  0  0  0  0  0
    2.7351   -1.4790  -10.3710 H   0  0  0  0  0  0  0  0  0  0  0  0
    4.4504    1.4692   -6.6897 H   0  0  0  0  0  0  0  0  0  0  0  0
    5.2160   -0.5434  -11.5673 H   0  0  0  0  0  0  0  0  0  0  0  0
    6.7840    3.7954   -9.8828 H   0  0  0  0  0  0  0  0  0  0  0  0
    8.1703    6.1785   -8.8763 H   0  0  0  0  0  0  0  0  0  0  0  0
    9.9991    5.3039   -5.0786 H   0  0  0  0  0  0  0  0  0  0  0  0
  1  2  1  0  0  0  0
  1 32  1  0  0  0  0
  1 33  1  0  0  0  0
  1 34  1  0  0  0  0
  2  3  1  0  0  0  0
  2 35  1  0  0  0  0
  2 36  1  0  0  0  0
  3  4  1  0  0  0  0
  3 37  1  0  0  0  0
  4  5  1  0  0  0  0
  4 38  1  0  0  0  0
  4 39  1  0  0  0  0
  5  6  2  0  0  0  0
  5 10  1  0  0  0  0
  6  7  1  0  0  0  0
  6 40  1  0  0  0  0
  7  8  2  0  0  0  0
  8  9  1  0  0  0  0
  8 41  1  0  0  0  0
  9 10  2  0  0  0  0
  9 12  1  0  0  0  0
 10 11  1  0  0  0  0
 11 42  1  0  0  0  0
 11 43  1  0  0  0  0
 11 44  1  0  0  0  0
 12 13  2  0  0  0  0
 12 17  1  0  0  0  0
 13 14  1  0  0  0  0
 13 45  1  0  0  0  0
 14 15  2  0  0  0  0
 14 46  1  0  0  0  0
 15 16  1  0  0  0  0
 15 20  1  0  0  0  0
 16 17  2  0  0  0  0
 16 18  1  0  0  0  0
 17 47  1  0  0  0  0
 18 19  2  0  0  0  0
 18 21  1  0  0  0  0
 19 20  1  0  0  0  0
 20 48  1  0  0  0  0
 21 22  1  0  0  0  0
 21 29  2  0  0  0  0
 22 23  1  0  0  0  0
 22 49  1  0  0  0  0
 23 24  2  0  0  0  0
 23 28  1  0  0  0  0
 24 25  1  0  0  0  0
 24 50  1  0  0  0  0
 25 26  2  0  0  0  0
 25 31  1  0  0  0  0
 26 27  1  0  0  0  0
 26 51  1  0  0  0  0
 27 28  2  0  0  0  0
 27 30  1  0  0  0  0
 28 29  1  0  0  0  0
M  END
>  <DRUGBANK_ID>
DB13035

>  <COMMON_NAME>
AG-24322

>  <CAS_NUMBER>
837364-57-5

>  <UNII>
926F8X7TNO

$$$$
