
 OpenBabel10282417153D

 33 34  0  0  0  0  0  0  0  0999 V2000
    2.4515   -0.0186   -0.0126 C   0  0  0  0  0  0  0  0  0  0  0  0
    0.9485   -0.0275   -0.0016 C   0  0  0  0  0  0  0  0  0  0  0  0
    0.2304    1.1644   -0.0125 C   0  0  0  0  0  0  0  0  0  0  0  0
   -1.1731    1.1455   -0.0277 C   0  0  0  0  0  0  0  0  0  0  0  0
   -1.9270   -0.0515   -0.0172 C   0  0  0  0  0  0  0  0  0  0  0  0
   -1.1912   -1.2455   -0.0013 C   0  0  0  0  0  0  0  0  0  0  0  0
    0.2291   -1.2300    0.0039 C   0  0  0  0  0  0  0  0  0  0  0  0
   -1.9245   -2.8683   -0.0559 S   0  0  0  0  0  0  0  0  0  0  0  0
   -1.4504   -3.5307   -1.2571 O   0  0  0  0  0  0  0  0  0  0  0  0
   -1.7390   -3.4698    1.2453 O   0  0  0  0  0  0  0  0  0  0  0  0
   -3.5148   -2.7569   -0.2608 O   0  0  0  0  0  0  0  0  0  0  0  0
   -3.2987    0.0497    0.0019 N   0  0  0  0  0  0  0  0  0  0  0  0
   -4.0479    0.6642   -1.0970 C   0  0  0  0  0  0  0  0  0  0  0  0
   -5.0459    1.6900   -0.5067 C   0  0  0  0  0  0  0  0  0  0  0  0
   -5.9401    1.1313    0.5394 N   0  0  0  0  0  0  0  0  0  0  0  0
   -5.1004    0.5398    1.6109 C   0  0  0  0  0  0  0  0  0  0  0  0
   -4.1362   -0.5205    1.0626 C   0  0  0  0  0  0  0  0  0  0  0  0
    2.8484   -0.5364    0.8665 H   0  0  0  0  0  0  0  0  0  0  0  0
    2.8285   -0.5041   -0.9186 H   0  0  0  0  0  0  0  0  0  0  0  0
    2.8487    1.0035    0.0011 H   0  0  0  0  0  0  0  0  0  0  0  0
    0.7515    2.1207   -0.0040 H   0  0  0  0  0  0  0  0  0  0  0  0
   -1.6887    2.1052   -0.0126 H   0  0  0  0  0  0  0  0  0  0  0  0
    0.7758   -2.1735    0.0048 H   0  0  0  0  0  0  0  0  0  0  0  0
   -3.9440   -3.5842    0.0302 H   0  0  0  0  0  0  0  0  0  0  0  0
   -3.4006    1.1433   -1.8406 H   0  0  0  0  0  0  0  0  0  0  0  0
   -4.6036   -0.1262   -1.6207 H   0  0  0  0  0  0  0  0  0  0  0  0
   -4.4838    2.5215   -0.0662 H   0  0  0  0  0  0  0  0  0  0  0  0
   -5.6635    2.1029   -1.3103 H   0  0  0  0  0  0  0  0  0  0  0  0
   -6.4747    0.3725    0.1118 H   0  0  0  0  0  0  0  0  0  0  0  0
   -4.5409    1.3269    2.1259 H   0  0  0  0  0  0  0  0  0  0  0  0
   -5.7562    0.0603    2.3463 H   0  0  0  0  0  0  0  0  0  0  0  0
   -4.7938   -1.2860    0.6388 H   0  0  0  0  0  0  0  0  0  0  0  0
   -3.5441   -0.9720    1.8645 H   0  0  0  0  0  0  0  0  0  0  0  0
  1  2  1  0  0  0  0
  1 18  1  0  0  0  0
  1 19  1  0  0  0  0
  1 20  1  0  0  0  0
  2  3  2  0  0  0  0
  2  7  1  0  0  0  0
  3  4  1  0  0  0  0
  3 21  1  0  0  0  0
  4  5  2  0  0  0  0
  4 22  1  0  0  0  0
  5  6  1  0  0  0  0
  5 12  1  0  0  0  0
  6  7  2  0  0  0  0
  6  8  1  0  0  0  0
  7 23  1  0  0  0  0
  8  9  2  0  0  0  0
  8 10  2  0  0  0  0
  8 11  1  0  0  0  0
 11 24  1  0  0  0  0
 12 13  1  0  0  0  0
 12 17  1  0  0  0  0
 13 14  1  0  0  0  0
 13 25  1  0  0  0  0
 13 26  1  0  0  0  0
 14 15  1  0  0  0  0
 14 27  1  0  0  0  0
 14 28  1  0  0  0  0
 15 16  1  0  0  0  0
 15 29  1  0  0  0  0
 16 17  1  0  0  0  0
 16 30  1  0  0  0  0
 16 31  1  0  0  0  0
 17 32  1  0  0  0  0
 17 33  1  0  0  0  0
M  END
>  <DRUGBANK_ID>
DB06231

>  <COMMON_NAME>
Caldaret

>  <CAS_NUMBER>
133804-44-1

>  <UNII>
9L3Y3IJ2HI

>  <SYNONYMS>
Caldaret

$$$$
