
 OpenBabel10282417113D

 51 54  0  0  0  0  0  0  0  0999 V2000
    0.1418    1.2134   -0.0245 C   0  0  0  0  0  0  0  0  0  0  0  0
   -1.2574    1.2352   -0.0349 C   0  0  0  0  0  0  0  0  0  0  0  0
   -1.2862   -1.1663    0.0603 C   0  0  0  0  0  0  0  0  0  0  0  0
    0.1128   -1.1922    0.0275 C   0  0  0  0  0  0  0  0  0  0  0  0
    0.8149    0.0008   -0.0002 C   0  0  0  0  0  0  0  0  0  0  0  0
    2.1537   -0.0159   -0.0038 F   0  0  0  0  0  0  0  0  0  0  0  0
   -1.9914    0.0496    0.0295 C   0  0  0  0  0  0  0  0  0  0  0  0
   -4.3110   -0.2607    0.9621 C   0  0  0  0  0  0  0  0  0  0  0  0
   -4.2080   -0.6052    2.1197 O   0  0  0  0  0  0  0  0  0  0  0  0
   -3.3901    0.0628    0.0183 N   0  0  0  0  0  0  0  0  0  0  0  0
   -5.4772    0.0328   -0.0157 C   0  0  1  0  0  0  0  0  0  0  0  0
   -4.2503    0.1812   -1.8962 H   0  0  0  0  0  0  0  0  0  0  0  0
   -4.1598    4.3811   -0.0478 C   0  0  0  0  0  0  0  0  0  0  0  0
   -4.5364    4.1542   -2.4332 C   0  0  0  0  0  0  0  0  0  0  0  0
   -4.5720    2.7779   -2.3029 C   0  0  0  0  0  0  0  0  0  0  0  0
   -4.2176    3.0072    0.0761 C   0  0  0  0  0  0  0  0  0  0  0  0
   -4.3148    4.9392   -1.3093 C   0  0  0  0  0  0  0  0  0  0  0  0
   -4.2507    6.2850   -1.4945 O   0  0  0  0  0  0  0  0  0  0  0  0
   -4.3856    2.1808   -1.0499 C   0  0  0  0  0  0  0  0  0  0  0  0
   -4.3524    0.6512   -0.9126 C   0  0  1  0  0  0  0  0  0  0  0  0
   -6.3236   -1.0970   -0.6073 C   0  0  0  0  0  0  0  0  0  0  0  0
   -5.0596   -3.9895    2.8622 C   0  0  0  0  0  0  0  0  0  0  0  0
   -6.2013   -4.7534    2.6821 C   0  0  0  0  0  0  0  0  0  0  0  0
   -4.9791   -3.6055    0.4601 C   0  0  0  0  0  0  0  0  0  0  0  0
   -4.4281   -3.4475    1.7460 C   0  0  0  0  0  0  0  0  0  0  0  0
   -6.7320   -4.9636    1.4151 C   0  0  0  0  0  0  0  0  0  0  0  0
   -6.1243   -4.3894    0.3062 C   0  0  0  0  0  0  0  0  0  0  0  0
   -5.5268   -2.0699   -1.4880 C   0  0  0  0  0  0  0  0  0  0  0  0
   -6.7986   -5.3091    3.7426 F   0  0  0  0  0  0  0  0  0  0  0  0
   -4.4405   -2.8285   -0.7124 C   0  0  2  0  0  0  0  0  0  0  0  0
   -3.6466   -3.6098   -1.5821 O   0  0  0  0  0  0  0  0  0  0  0  0
   -6.1676    0.7632    0.4338 H   0  0  0  0  0  0  0  0  0  0  0  0
    0.7068    2.1393   -0.0291 H   0  0  0  0  0  0  0  0  0  0  0  0
   -1.7461    2.2005   -0.0364 H   0  0  0  0  0  0  0  0  0  0  0  0
   -1.7886   -2.1275    0.0555 H   0  0  0  0  0  0  0  0  0  0  0  0
    0.6508   -2.1354    0.0215 H   0  0  0  0  0  0  0  0  0  0  0  0
   -3.9819    4.9723    0.8426 H   0  0  0  0  0  0  0  0  0  0  0  0
   -4.6669    4.6069   -3.4094 H   0  0  0  0  0  0  0  0  0  0  0  0
   -4.7273    2.1532   -3.1822 H   0  0  0  0  0  0  0  0  0  0  0  0
   -4.0771    2.5492    1.0566 H   0  0  0  0  0  0  0  0  0  0  0  0
   -4.0710    6.6978   -0.6352 H   0  0  0  0  0  0  0  0  0  0  0  0
   -6.8464   -1.6276    0.1972 H   0  0  0  0  0  0  0  0  0  0  0  0
   -7.1217   -0.6577   -1.2225 H   0  0  0  0  0  0  0  0  0  0  0  0
   -4.6740   -3.8031    3.8601 H   0  0  0  0  0  0  0  0  0  0  0  0
   -3.5365   -2.8427    1.9090 H   0  0  0  0  0  0  0  0  0  0  0  0
   -7.6275   -5.5598    1.2933 H   0  0  0  0  0  0  0  0  0  0  0  0
   -6.5751   -4.5153   -0.6734 H   0  0  0  0  0  0  0  0  0  0  0  0
   -6.2123   -2.7761   -1.9689 H   0  0  0  0  0  0  0  0  0  0  0  0
   -5.0800   -1.5470   -2.3403 H   0  0  0  0  0  0  0  0  0  0  0  0
   -3.7440   -2.1174   -0.3248 H   0  0  0  0  0  0  0  0  0  0  0  0
   -4.1976   -4.3392   -1.8954 H   0  0  0  0  0  0  0  0  0  0  0  0
  1  2  1  0  0  0  0
  1  5  2  0  0  0  0
  1 33  1  0  0  0  0
  2  7  2  0  0  0  0
  2 34  1  0  0  0  0
  3  4  2  0  0  0  0
  3 35  1  0  0  0  0
  4  5  1  0  0  0  0
  4 36  1  0  0  0  0
  5  6  1  0  0  0  0
  7  3  1  0  0  0  0
  7 10  1  0  0  0  0
  8 10  1  0  0  0  0
  8  9  2  0  0  0  0
 10 20  1  0  0  0  0
 11  8  1  0  0  0  0
 11 32  1  1  0  0  0
 11 21  1  0  0  0  0
 13 17  2  0  0  0  0
 13 16  1  0  0  0  0
 13 37  1  0  0  0  0
 14 15  2  0  0  0  0
 14 38  1  0  0  0  0
 15 19  1  0  0  0  0
 15 39  1  0  0  0  0
 16 40  1  0  0  0  0
 17 14  1  0  0  0  0
 17 18  1  0  0  0  0
 18 41  1  0  0  0  0
 19 16  2  0  0  0  0
 19 20  1  0  0  0  0
 20 11  1  0  0  0  0
 20 12  1  6  0  0  0
 21 28  1  0  0  0  0
 21 42  1  0  0  0  0
 21 43  1  0  0  0  0
 22 23  1  0  0  0  0
 22 44  1  0  0  0  0
 23 29  1  0  0  0  0
 23 26  2  0  0  0  0
 25 24  1  0  0  0  0
 25 22  2  0  0  0  0
 25 45  1  0  0  0  0
 26 27  1  0  0  0  0
 26 46  1  0  0  0  0
 27 24  2  0  0  0  0
 27 47  1  0  0  0  0
 28 30  1  0  0  0  0
 28 48  1  0  0  0  0
 28 49  1  0  0  0  0
 30 24  1  0  0  0  0
 30 31  1  0  0  0  0
 30 50  1  1  0  0  0
 31 51  1  0  0  0  0
M  END
>  <DRUGBANK_ID>
DB00973

>  <SECONDARY_ACCESSION_NUMBERS>
APRD00619

>  <COMMON_NAME>
Ezetimibe

>  <CAS_NUMBER>
163222-33-1

>  <UNII>
EOR26LQQ24

>  <SYNONYMS>
Ezetimiba; ézétimibe; Ezetimibe; Ezetimibum

$$$$
