
 OpenBabel10282417193D

 49 51  0  0  0  0  0  0  0  0999 V2000
    2.7151    0.7918   -0.4755 C   0  0  0  0  0  0  0  0  0  0  0  0
   -2.4845    1.0575   -0.0175 C   0  0  0  0  0  0  0  0  0  0  0  0
    1.7370   -9.5451    3.0849 C   0  0  0  0  0  0  0  0  0  0  0  0
   -0.6842   -9.5512   -1.1041 C   0  0  0  0  0  0  0  0  0  0  0  0
    1.8471    2.9921    1.5234 C   0  0  0  0  0  0  0  0  0  0  0  0
    1.1618    3.1353    0.1338 C   0  0  0  0  0  0  0  0  0  0  0  0
    1.2263   -1.1415   -0.1156 C   0  0  0  0  0  0  0  0  0  0  0  0
   -1.1887   -1.0777   -0.0400 C   0  0  0  0  0  0  0  0  0  0  0  0
    1.1515   -6.0922    2.0547 C   0  0  0  0  0  0  0  0  0  0  0  0
    0.5276   -8.1640    0.9930 C   0  0  0  0  0  0  0  0  0  0  0  0
    1.3062    0.2587   -0.2508 C   0  0  0  0  0  0  0  0  0  0  0  0
   -1.1599    0.3257   -0.0737 C   0  0  0  0  0  0  0  0  0  0  0  0
   -0.0002   -1.8014   -0.0326 C   0  0  0  0  0  0  0  0  0  0  0  0
    1.1389   -7.4905    2.0491 C   0  0  0  0  0  0  0  0  0  0  0  0
    0.5557   -5.3701    1.0094 C   0  0  0  0  0  0  0  0  0  0  0  0
   -0.0763   -7.4745   -0.0619 C   0  0  0  0  0  0  0  0  0  0  0  0
   -0.0614   -6.0658   -0.0485 C   0  0  0  0  0  0  0  0  0  0  0  0
    0.0933    1.0018   -0.1587 C   0  0  0  0  0  0  0  0  0  0  0  0
   -0.0322   -3.2909   -0.0337 C   0  0  0  0  0  0  0  0  0  0  0  0
   -0.6836   -5.2265   -1.1185 C   0  0  0  0  0  0  0  0  0  0  0  0
    0.5951   -3.9690    0.9794 N   0  0  0  0  0  0  0  0  0  0  0  0
   -0.6520   -3.8535   -1.0243 N   0  0  0  0  0  0  0  0  0  0  0  0
    2.0106    1.6946    2.1070 O   0  0  0  0  0  0  0  0  0  0  0  0
   -1.2283   -5.7662   -2.0861 O   0  0  0  0  0  0  0  0  0  0  0  0
    1.7478   -8.1150    3.1078 O   0  0  0  0  0  0  0  0  0  0  0  0
   -0.6785   -8.1269   -1.1053 O   0  0  0  0  0  0  0  0  0  0  0  0
   -0.0217    2.3656   -0.0259 O   0  0  0  0  0  0  0  0  0  0  0  0
    2.8080    1.2461   -1.4637 H   0  0  0  0  0  0  0  0  0  0  0  0
    3.0940    1.5228    0.2329 H   0  0  0  0  0  0  0  0  0  0  0  0
    3.4603   -0.0005   -0.3655 H   0  0  0  0  0  0  0  0  0  0  0  0
   -2.5594    1.6871    0.8754 H   0  0  0  0  0  0  0  0  0  0  0  0
   -2.6268    1.6700   -0.9132 H   0  0  0  0  0  0  0  0  0  0  0  0
   -3.3269    0.3533    0.0215 H   0  0  0  0  0  0  0  0  0  0  0  0
    0.7112   -9.9322    3.1140 H   0  0  0  0  0  0  0  0  0  0  0  0
    2.2733   -9.9304    2.2090 H   0  0  0  0  0  0  0  0  0  0  0  0
    2.2533   -9.9132    3.9751 H   0  0  0  0  0  0  0  0  0  0  0  0
    0.3357   -9.9514   -1.1375 H   0  0  0  0  0  0  0  0  0  0  0  0
   -1.2308   -9.9432   -0.2387 H   0  0  0  0  0  0  0  0  0  0  0  0
   -1.2022   -9.8935   -2.0041 H   0  0  0  0  0  0  0  0  0  0  0  0
    2.8556    3.4126    1.4409 H   0  0  0  0  0  0  0  0  0  0  0  0
    1.2872    3.5583    2.2616 H   0  0  0  0  0  0  0  0  0  0  0  0
    1.8052    3.0001   -0.7428 H   0  0  0  0  0  0  0  0  0  0  0  0
    0.8826    4.1933    0.0395 H   0  0  0  0  0  0  0  0  0  0  0  0
    2.1425   -1.7263   -0.1051 H   0  0  0  0  0  0  0  0  0  0  0  0
   -2.1375   -1.6105   -0.0077 H   0  0  0  0  0  0  0  0  0  0  0  0
    1.6297   -5.5731    2.8821 H   0  0  0  0  0  0  0  0  0  0  0  0
    0.5197   -9.2448    0.9894 H   0  0  0  0  0  0  0  0  0  0  0  0
    0.9857   -3.4700    1.7684 H   0  0  0  0  0  0  0  0  0  0  0  0
    1.2405    1.1460    1.8817 H   0  0  0  0  0  0  0  0  0  0  0  0
  1 28  1  0  0  0  0
  1 29  1  0  0  0  0
  1 30  1  0  0  0  0
  2 31  1  0  0  0  0
  2 32  1  0  0  0  0
  2 33  1  0  0  0  0
  3 34  1  0  0  0  0
  3 35  1  0  0  0  0
  3 36  1  0  0  0  0
  4 37  1  0  0  0  0
  4 38  1  0  0  0  0
  4 39  1  0  0  0  0
  5 40  1  0  0  0  0
  5 41  1  0  0  0  0
  6  5  1  0  0  0  0
  6 42  1  0  0  0  0
  6 43  1  0  0  0  0
  7 44  1  0  0  0  0
  8 45  1  0  0  0  0
  9 46  1  0  0  0  0
 10 47  1  0  0  0  0
 11  1  1  0  0  0  0
 11  7  1  0  0  0  0
 12  2  1  0  0  0  0
 12  8  2  0  0  0  0
 13  7  2  0  0  0  0
 13  8  1  0  0  0  0
 14  9  2  0  0  0  0
 14 10  1  0  0  0  0
 15  9  1  0  0  0  0
 16 10  2  0  0  0  0
 17 15  2  0  0  0  0
 17 16  1  0  0  0  0
 18 11  2  0  0  0  0
 18 12  1  0  0  0  0
 19 13  1  0  0  0  0
 20 17  1  0  0  0  0
 21 15  1  0  0  0  0
 21 19  1  0  0  0  0
 21 48  1  0  0  0  0
 22 19  2  0  0  0  0
 22 20  1  0  0  0  0
 23  5  1  0  0  0  0
 23 49  1  0  0  0  0
 24 20  2  0  0  0  0
 25  3  1  0  0  0  0
 25 14  1  0  0  0  0
 26  4  1  0  0  0  0
 26 16  1  0  0  0  0
 27  6  1  0  0  0  0
 27 18  1  0  0  0  0
M  END
>  <DRUGBANK_ID>
DB12000

>  <COMMON_NAME>
Apabetalone

>  <CAS_NUMBER>
1044870-39-4

>  <UNII>
8R4A7GDZ1D

>  <SYNONYMS>
Apabetalone

$$$$
