
 OpenBabel10282417243D

 54 56  0  0  0  0  0  0  0  0999 V2000
    2.5361    1.0953    0.2416 C   0  0  0  0  0  0  0  0  0  0  0  0
    1.1803    0.4159    0.3033 C   0  0  0  0  0  0  0  0  0  0  0  0
    1.1563   -0.9674    0.5322 C   0  0  0  0  0  0  0  0  0  0  0  0
    0.0459   -1.7450    0.2362 C   0  0  0  0  0  0  0  0  0  0  0  0
    0.0256   -3.1143    0.1429 O   0  0  0  0  0  0  0  0  0  0  0  0
    1.2357   -3.8929   -0.0725 C   0  0  0  0  0  0  0  0  0  0  0  0
    1.9975   -3.5607   -1.6745 P   0  0  0  0  0  0  0  0  0  0  0  0
    0.7451   -3.4113   -2.6699 O   0  0  0  0  0  0  0  0  0  0  0  0
    2.5766   -2.0743   -1.5098 O   0  0  0  0  0  0  0  0  0  0  0  0
    3.0464   -4.4538   -2.2024 O   0  0  0  0  0  0  0  0  0  0  0  0
   -1.1671   -1.0768    0.0424 C   0  0  0  0  0  0  0  0  0  0  0  0
   -1.2387    0.3367    0.0374 C   0  0  0  0  0  0  0  0  0  0  0  0
   -2.5846    1.0141   -0.0228 C   0  0  0  0  0  0  0  0  0  0  0  0
   -0.0408    1.0888    0.0909 C   0  0  0  0  0  0  0  0  0  0  0  0
   -0.0179    2.5869   -0.1332 C   0  0  0  0  0  0  0  0  0  0  0  0
    0.6542    3.0097   -1.4275 C   0  0  0  0  0  0  0  0  0  0  0  0
    1.0578    2.1138   -2.4282 C   0  0  0  0  0  0  0  0  0  0  0  0
    1.8039    2.5430   -3.5208 C   0  0  0  0  0  0  0  0  0  0  0  0
    2.0226    3.9004   -3.7077 C   0  0  0  0  0  0  0  0  0  0  0  0
    2.7060    4.3277   -4.8095 O   0  0  0  0  0  0  0  0  0  0  0  0
    1.5613    4.8341   -2.7784 C   0  0  0  0  0  0  0  0  0  0  0  0
    1.6972    6.3183   -3.0234 C   0  0  0  0  0  0  0  0  0  0  0  0
    0.3764    7.0627   -3.0890 C   0  0  0  0  0  0  0  0  0  0  0  0
   -0.4489    7.1705   -1.9588 C   0  0  0  0  0  0  0  0  0  0  0  0
   -1.6564    7.8544   -1.9980 C   0  0  0  0  0  0  0  0  0  0  0  0
   -2.0190    8.5273   -3.1543 C   0  0  0  0  0  0  0  0  0  0  0  0
   -1.1935    8.4745   -4.2779 C   0  0  0  0  0  0  0  0  0  0  0  0
   -0.0271    7.7047   -4.2650 C   0  0  0  0  0  0  0  0  0  0  0  0
    0.9589    4.3566   -1.6014 C   0  0  0  0  0  0  0  0  0  0  0  0
    2.7046    1.6773   -0.6682 H   0  0  0  0  0  0  0  0  0  0  0  0
    2.6872    1.7508    1.0983 H   0  0  0  0  0  0  0  0  0  0  0  0
    3.3383    0.3512    0.2034 H   0  0  0  0  0  0  0  0  0  0  0  0
    2.0681   -1.4051    0.9049 H   0  0  0  0  0  0  0  0  0  0  0  0
    1.9246   -3.7802    0.7700 H   0  0  0  0  0  0  0  0  0  0  0  0
    0.9260   -4.9466   -0.0952 H   0  0  0  0  0  0  0  0  0  0  0  0
    0.5298   -4.2791   -3.0576 H   0  0  0  0  0  0  0  0  0  0  0  0
    2.9536   -1.9986   -0.6181 H   0  0  0  0  0  0  0  0  0  0  0  0
   -2.0767   -1.6614   -0.0871 H   0  0  0  0  0  0  0  0  0  0  0  0
   -2.7044    1.6662    0.8515 H   0  0  0  0  0  0  0  0  0  0  0  0
   -2.6871    1.6115   -0.9339 H   0  0  0  0  0  0  0  0  0  0  0  0
   -3.4090    0.2941    0.0041 H   0  0  0  0  0  0  0  0  0  0  0  0
    0.5201    3.0278    0.7199 H   0  0  0  0  0  0  0  0  0  0  0  0
   -1.0192    3.0327   -0.0929 H   0  0  0  0  0  0  0  0  0  0  0  0
    0.8979    1.0431   -2.3212 H   0  0  0  0  0  0  0  0  0  0  0  0
    2.2032    1.7978   -4.2003 H   0  0  0  0  0  0  0  0  0  0  0  0
    2.9447    3.5501   -5.3399 H   0  0  0  0  0  0  0  0  0  0  0  0
    2.3226    6.7622   -2.2399 H   0  0  0  0  0  0  0  0  0  0  0  0
    2.2433    6.4954   -3.9583 H   0  0  0  0  0  0  0  0  0  0  0  0
   -0.1674    6.7317   -1.0119 H   0  0  0  0  0  0  0  0  0  0  0  0
   -2.2845    7.8768   -1.1126 H   0  0  0  0  0  0  0  0  0  0  0  0
   -2.9394    9.1012   -3.1728 H   0  0  0  0  0  0  0  0  0  0  0  0
   -1.4556    9.0436   -5.1648 H   0  0  0  0  0  0  0  0  0  0  0  0
    0.5727    7.6299   -5.1698 H   0  0  0  0  0  0  0  0  0  0  0  0
    0.7114    5.0286   -0.7886 H   0  0  0  0  0  0  0  0  0  0  0  0
  1  2  1  0  0  0  0
  1 30  1  0  0  0  0
  1 31  1  0  0  0  0
  1 32  1  0  0  0  0
  2  3  2  0  0  0  0
  2 14  1  0  0  0  0
  3  4  1  0  0  0  0
  3 33  1  0  0  0  0
  4  5  1  0  0  0  0
  4 11  2  0  0  0  0
  5  6  1  0  0  0  0
  6  7  1  0  0  0  0
  6 34  1  0  0  0  0
  6 35  1  0  0  0  0
  7  8  1  0  0  0  0
  7  9  1  0  0  0  0
  7 10  2  0  0  0  0
  8 36  1  0  0  0  0
  9 37  1  0  0  0  0
 11 12  1  0  0  0  0
 11 38  1  0  0  0  0
 12 13  1  0  0  0  0
 12 14  2  0  0  0  0
 13 39  1  0  0  0  0
 13 40  1  0  0  0  0
 13 41  1  0  0  0  0
 14 15  1  0  0  0  0
 15 16  1  0  0  0  0
 15 42  1  0  0  0  0
 15 43  1  0  0  0  0
 16 17  2  0  0  0  0
 16 29  1  0  0  0  0
 17 18  1  0  0  0  0
 17 44  1  0  0  0  0
 18 19  2  0  0  0  0
 18 45  1  0  0  0  0
 19 20  1  0  0  0  0
 19 21  1  0  0  0  0
 20 46  1  0  0  0  0
 21 22  1  0  0  0  0
 21 29  2  0  0  0  0
 22 23  1  0  0  0  0
 22 47  1  0  0  0  0
 22 48  1  0  0  0  0
 23 24  2  0  0  0  0
 23 28  1  0  0  0  0
 24 25  1  0  0  0  0
 24 49  1  0  0  0  0
 25 26  2  0  0  0  0
 25 50  1  0  0  0  0
 26 27  1  0  0  0  0
 26 51  1  0  0  0  0
 27 28  2  0  0  0  0
 27 52  1  0  0  0  0
 28 53  1  0  0  0  0
 29 54  1  0  0  0  0
M  END
>  <DRUGBANK_ID>
DB17670

>  <COMMON_NAME>
VK-0214

>  <CAS_NUMBER>
852949-30-5

>  <UNII>
6FGG71NJ3Y

>  <SYNONYMS>
(((4-(3-benzyl-4-hydroxybenzyl)-3,5-dimethylphenyl)oxy)methyl)phosphonic acid; ((4-(3-benzyl-4-hydroxybenzyl)-3,5-dimethylphenoxy)methyl)phosphonic acid; Phosphonic acid, p-((4-((4-hydroxy-3-(phenylmethyl)phenyl)methyl)-3,5-dimethylphenoxy)methyl)-; VK-0214; VK0214

$$$$
