
 OpenBabel10282417153D

 49 52  0  0  0  0  0  0  0  0999 V2000
    0.3866    0.4917    0.6230 O   0  0  0  0  0  0  0  0  0  0  0  0
   -6.0938   -6.4485   -2.8966 O   0  0  0  0  0  0  0  0  0  0  0  0
   -0.8616   -2.3358    1.1374 C   0  0  2  0  0  0  0  0  0  0  0  0
    0.5883   -2.0409    0.6933 C   0  0  2  0  0  0  0  0  0  0  0  0
   -1.6427   -2.7518   -0.0810 C   0  0  1  0  0  0  0  0  0  0  0  0
   -1.3849   -4.2268   -0.4559 C   0  0  2  0  0  0  0  0  0  0  0  0
    1.0616   -3.5885    0.5189 C   0  0  0  0  0  0  0  0  0  0  0  0
    0.1921   -4.2688   -0.8010 C   0  0  0  0  0  0  0  0  0  0  0  0
    0.7993   -0.6440    1.4971 C   0  0  2  0  0  0  0  0  0  0  0  0
   -3.1174   -2.6523    0.0802 C   0  0  1  0  0  0  0  0  0  0  0  0
   -1.4195   -1.1474    1.9158 C   0  0  0  0  0  0  0  0  0  0  0  0
   -2.8602   -4.8995   -1.1614 C   0  0  2  0  0  0  0  0  0  0  0  0
   -0.2182   -0.5403    2.5993 C   0  0  0  0  0  0  0  0  0  0  0  0
   -3.5900   -2.7591   -1.5792 C   0  0  0  0  0  0  0  0  0  0  0  0
    1.1308   -1.5365   -0.6470 C   0  0  0  0  0  0  0  0  0  0  0  0
   -3.3384   -4.1463   -2.3265 C   0  0  0  0  0  0  0  0  0  0  0  0
   -4.6376   -4.8040   -0.5546 C   0  0  0  0  0  0  0  0  0  0  0  0
   -3.3816   -3.6536    1.3775 C   0  0  0  0  0  0  0  0  0  0  0  0
   -5.8682   -4.5242   -1.5713 C   0  0  0  0  0  0  0  0  0  0  0  0
   -4.0527   -5.0664   -3.0936 C   0  0  0  0  0  0  0  0  0  0  0  0
   -5.4641   -5.3998   -2.6292 C   0  0  0  0  0  0  0  0  0  0  0  0
   -0.8693   -3.1568    1.8849 H   0  0  0  0  0  0  0  0  0  0  0  0
   -1.3472   -2.0731   -0.8898 H   0  0  0  0  0  0  0  0  0  0  0  0
   -1.2864   -4.9012    0.3965 H   0  0  0  0  0  0  0  0  0  0  0  0
   -2.5173   -5.8777   -1.5138 H   0  0  0  0  0  0  0  0  0  0  0  0
   -0.0411    1.2407    1.0683 H   0  0  0  0  0  0  0  0  0  0  0  0
    2.1453   -3.6831    0.3475 H   0  0  0  0  0  0  0  0  0  0  0  0
    0.8528   -4.2627    1.3687 H   0  0  0  0  0  0  0  0  0  0  0  0
    0.4447   -3.7318   -1.7203 H   0  0  0  0  0  0  0  0  0  0  0  0
    0.5864   -5.2712   -1.0047 H   0  0  0  0  0  0  0  0  0  0  0  0
    1.8316   -0.4239    1.7637 H   0  0  0  0  0  0  0  0  0  0  0  0
   -3.4699   -1.6694    0.3895 H   0  0  0  0  0  0  0  0  0  0  0  0
   -2.1714   -1.4157    2.6623 H   0  0  0  0  0  0  0  0  0  0  0  0
   -1.8858   -0.4534    1.2102 H   0  0  0  0  0  0  0  0  0  0  0  0
    0.1216   -1.0852    3.4770 H   0  0  0  0  0  0  0  0  0  0  0  0
   -0.4669    0.4931    2.8819 H   0  0  0  0  0  0  0  0  0  0  0  0
   -3.0288   -2.0143   -2.1579 H   0  0  0  0  0  0  0  0  0  0  0  0
   -4.6095   -2.3827   -1.5984 H   0  0  0  0  0  0  0  0  0  0  0  0
    0.7850   -2.0316   -1.5306 H   0  0  0  0  0  0  0  0  0  0  0  0
    0.8706   -0.5322   -0.9278 H   0  0  0  0  0  0  0  0  0  0  0  0
    2.2277   -1.5670   -0.5641 H   0  0  0  0  0  0  0  0  0  0  0  0
   -4.8955   -3.8741   -0.0424 H   0  0  0  0  0  0  0  0  0  0  0  0
   -4.8855   -5.6249    0.1165 H   0  0  0  0  0  0  0  0  0  0  0  0
   -2.7568   -4.5566    1.3945 H   0  0  0  0  0  0  0  0  0  0  0  0
   -3.1459   -3.1489    2.3083 H   0  0  0  0  0  0  0  0  0  0  0  0
   -4.3754   -4.0474    1.5893 H   0  0  0  0  0  0  0  0  0  0  0  0
   -5.9533   -3.5335   -2.0603 H   0  0  0  0  0  0  0  0  0  0  0  0
   -6.8705   -4.6577   -1.1459 H   0  0  0  0  0  0  0  0  0  0  0  0
   -3.6373   -6.0896   -3.1955 H   0  0  0  0  0  0  0  0  0  0  0  0
  1 26  1  0  0  0  0
  2 21  2  0  0  0  0
  3  4  1  0  0  0  0
  3  5  1  0  0  0  0
  3 11  1  0  0  0  0
  3 22  1  1  0  0  0
  4  7  1  0  0  0  0
  4  9  1  0  0  0  0
  4 15  1  6  0  0  0
  5  6  1  0  0  0  0
  5 10  1  0  0  0  0
  5 23  1  6  0  0  0
  6  8  1  0  0  0  0
  6 12  1  0  0  0  0
  6 24  1  1  0  0  0
  7  8  1  0  0  0  0
  7 27  1  0  0  0  0
  7 28  1  0  0  0  0
  8 29  1  0  0  0  0
  8 30  1  0  0  0  0
  9  1  1  0  0  0  0
  9 13  1  0  0  0  0
  9 31  1  1  0  0  0
 10 14  1  0  0  0  0
 10 32  1  1  0  0  0
 10 18  1  0  0  0  0
 11 13  1  0  0  0  0
 11 33  1  0  0  0  0
 11 34  1  0  0  0  0
 12 16  1  0  0  0  0
 12 17  1  0  0  0  0
 12 25  1  6  0  0  0
 13 35  1  0  0  0  0
 13 36  1  0  0  0  0
 14 16  1  0  0  0  0
 14 37  1  0  0  0  0
 14 38  1  0  0  0  0
 15 39  1  0  0  0  0
 15 40  1  0  0  0  0
 15 41  1  0  0  0  0
 16 20  2  0  0  0  0
 17 19  1  0  0  0  0
 17 42  1  0  0  0  0
 17 43  1  0  0  0  0
 18 44  1  0  0  0  0
 18 45  1  0  0  0  0
 18 46  1  0  0  0  0
 19 21  1  0  0  0  0
 19 47  1  0  0  0  0
 19 48  1  0  0  0  0
 20 21  1  0  0  0  0
 20 49  1  0  0  0  0
M  END
>  <DRUGBANK_ID>
DB05830

>  <COMMON_NAME>
Trestolone

>  <CAS_NUMBER>
3764-87-2

>  <UNII>
40P3287I94

>  <SYNONYMS>
17beta-Hydroxy-7alpha-methylestr-4-en-3-one; 17beta-Hydroxy-7alpha-methylestr-4-enone; 19-Nor-7alpha-methyltestosterone; 19-Nor-methyltestosterone; 7alpha-Methyl-17beta-hydroxy-4-estren-3-one; 7alpha-Methyl-19-nortestosterone; 7alpha-Methyl-3-oxo-4-estren-17beta-ol; 7alpha-Methylnandrolone; 7Î±-methyl-19-nortestosterone; MENT; Trestolona; Trestolone; Trestolonum

$$$$
