LPF
 OpenBabel10282417173D

 49 49  0  0  0  0  0  0  0  0999 V2000
    3.0378    3.5704   -1.0716 C   0  0  0  0  0  0  0  0  0  0  0  0
    4.0284    3.8644   -1.9571 F   0  0  0  0  0  0  0  0  0  0  0  0
    1.9919    4.3772   -1.3877 F   0  0  0  0  0  0  0  0  0  0  0  0
    3.4561    4.0012    0.1353 F   0  0  0  0  0  0  0  0  0  0  0  0
    2.6933    2.1002   -1.1172 C   0  0  0  0  0  0  0  0  0  0  0  0
    2.3372    1.5864   -2.1875 O   0  0  0  0  0  0  0  0  0  0  0  0
    3.0020    1.2078    0.1040 C   0  0  2  0  0  0  0  0  0  0  0  0
    2.1470   -0.0749    0.0598 C   0  0  0  0  0  0  0  0  0  0  0  0
    2.7902   -1.3980   -0.3231 C   0  0  0  0  0  0  0  0  0  0  0  0
    3.5815   -1.5913   -1.4654 C   0  0  0  0  0  0  0  0  0  0  0  0
    4.0543   -2.8725   -1.7968 C   0  0  0  0  0  0  0  0  0  0  0  0
    3.7515   -3.9704   -0.9923 C   0  0  0  0  0  0  0  0  0  0  0  0
    2.9768   -3.7920    0.1466 C   0  0  0  0  0  0  0  0  0  0  0  0
    2.4742   -2.5267    0.4547 C   0  0  0  0  0  0  0  0  0  0  0  0
    2.8850    1.8574    1.4217 N   0  0  0  0  0  0  0  0  0  0  0  0
    3.8450    2.1127    2.3673 C   0  0  0  0  0  0  0  0  0  0  0  0
    3.4971    2.7057    3.3922 O   0  0  0  0  0  0  0  0  0  0  0  0
    5.3356    1.8006    2.1002 C   0  0  1  0  0  0  0  0  0  0  0  0
    5.5456    0.3729    1.7768 N   0  0  0  0  0  0  0  0  0  0  0  0
    6.0499   -0.2796    0.6887 C   0  0  0  0  0  0  0  0  0  0  0  0
    6.0993   -1.5156    0.7336 O   0  0  0  0  0  0  0  0  0  0  0  0
    6.5275    0.4475   -0.5526 C   0  0  0  0  0  0  0  0  0  0  0  0
    5.8899    2.7326    1.0386 C   0  0  0  0  0  0  0  0  0  0  0  0
    5.8571    4.2334    1.2432 C   0  0  0  0  0  0  0  0  0  0  0  0
    6.7469    4.6108    2.3997 C   0  0  0  0  0  0  0  0  0  0  0  0
    6.3308    4.8710   -0.0718 C   0  0  0  0  0  0  0  0  0  0  0  0
    4.0315    0.9291   -0.0168 H   0  0  0  0  0  0  0  0  0  0  0  0
    5.8686    1.9460    3.0491 H   0  0  0  0  0  0  0  0  0  0  0  0
    1.7181   -0.2079    1.0601 H   0  0  0  0  0  0  0  0  0  0  0  0
    1.3008    0.0655   -0.6176 H   0  0  0  0  0  0  0  0  0  0  0  0
    3.8316   -0.7680   -2.1294 H   0  0  0  0  0  0  0  0  0  0  0  0
    4.6654   -3.0208   -2.6847 H   0  0  0  0  0  0  0  0  0  0  0  0
    4.1132   -4.9624   -1.2519 H   0  0  0  0  0  0  0  0  0  0  0  0
    2.7577   -4.6355    0.7956 H   0  0  0  0  0  0  0  0  0  0  0  0
    1.8090   -2.4327    1.3097 H   0  0  0  0  0  0  0  0  0  0  0  0
    1.9692    2.1781    1.7240 H   0  0  0  0  0  0  0  0  0  0  0  0
    5.2628   -0.2796    2.5037 H   0  0  0  0  0  0  0  0  0  0  0  0
    5.7501    1.0562   -1.0174 H   0  0  0  0  0  0  0  0  0  0  0  0
    7.4097    1.0493   -0.3348 H   0  0  0  0  0  0  0  0  0  0  0  0
    6.8135   -0.2642   -1.3269 H   0  0  0  0  0  0  0  0  0  0  0  0
    6.9395    2.4752    0.8908 H   0  0  0  0  0  0  0  0  0  0  0  0
    5.3469    2.5609    0.1144 H   0  0  0  0  0  0  0  0  0  0  0  0
    4.8523    4.5828    1.4872 H   0  0  0  0  0  0  0  0  0  0  0  0
    7.7750    4.2900    2.2111 H   0  0  0  0  0  0  0  0  0  0  0  0
    6.7178    5.6908    2.5449 H   0  0  0  0  0  0  0  0  0  0  0  0
    6.3927    4.1283    3.3149 H   0  0  0  0  0  0  0  0  0  0  0  0
    5.7358    4.5363   -0.9235 H   0  0  0  0  0  0  0  0  0  0  0  0
    6.2571    5.9579   -0.0366 H   0  0  0  0  0  0  0  0  0  0  0  0
    7.3601    4.5799   -0.3077 H   0  0  0  0  0  0  0  0  0  0  0  0
  1  2  1  0  0  0  0
  1  3  1  0  0  0  0
  1  4  1  0  0  0  0
  1  5  1  0  0  0  0
  5  6  2  0  0  0  0
  7 15  1  0  0  0  0
  7 27  1  6  0  0  0
  7  8  1  0  0  0  0
  7  5  1  0  0  0  0
  8  9  1  0  0  0  0
  8 29  1  0  0  0  0
  8 30  1  0  0  0  0
  9 10  2  0  0  0  0
  9 14  1  0  0  0  0
 10 11  1  0  0  0  0
 10 31  1  0  0  0  0
 11 12  2  0  0  0  0
 11 32  1  0  0  0  0
 12 13  1  0  0  0  0
 12 33  1  0  0  0  0
 13 14  2  0  0  0  0
 13 34  1  0  0  0  0
 14 35  1  0  0  0  0
 15 16  1  0  0  0  0
 15 36  1  0  0  0  0
 16 17  2  0  0  0  0
 16 18  1  0  0  0  0
 18 19  1  0  0  0  0
 18 23  1  0  0  0  0
 18 28  1  1  0  0  0
 19 20  1  0  0  0  0
 19 37  1  0  0  0  0
 20 21  2  0  0  0  0
 20 22  1  0  0  0  0
 22 38  1  0  0  0  0
 22 39  1  0  0  0  0
 22 40  1  0  0  0  0
 23 24  1  0  0  0  0
 23 41  1  0  0  0  0
 23 42  1  0  0  0  0
 24 25  1  0  0  0  0
 24 26  1  0  0  0  0
 24 43  1  0  0  0  0
 25 44  1  0  0  0  0
 25 45  1  0  0  0  0
 25 46  1  0  0  0  0
 26 47  1  0  0  0  0
 26 48  1  0  0  0  0
 26 49  1  0  0  0  0
M  END
>  <DRUGBANK_ID>
DB08119

>  <COMMON_NAME>
1,1,1-TRIFLUORO-3-((N-ACETYL)-L-LEUCYLAMIDO)-4-PHENYL-BUTAN-2-ONE(N-ACETYL-L-LEUCYL-L-PHENYLALANYL TRIFLUOROMETHYL KETONE)

$$$$
