
 OpenBabel10282417103D

 32 32  0  0  0  0  0  0  0  0999 V2000
    1.3518    0.0058    0.1815 C   0  0  0  0  0  0  0  0  0  0  0  0
   -1.8083    1.1553   -1.1681 O   0  0  0  0  0  0  0  0  0  0  0  0
    0.7443    0.4620   -0.7983 O   0  0  0  0  0  0  0  0  0  0  0  0
   -1.5305   -0.1038   -1.7762 C   0  0  0  0  0  0  0  0  0  0  0  0
    0.8901   -0.3544    1.3985 O   0  0  0  0  0  0  0  0  0  0  0  0
   -1.8246   -1.4388   -1.3035 C   0  0  0  0  0  0  0  0  0  0  0  0
    2.6646   -0.0737    0.0690 N   0  0  0  0  0  0  0  0  0  0  0  0
   -1.4579    1.0294    1.5784 C   0  0  3  0  0  0  0  0  0  0  0  0
   -1.2784    1.7715    0.1675 C   0  0  0  0  0  0  0  0  0  0  0  0
   -0.5422   -0.4696    1.5574 C   0  0  0  0  0  0  0  0  0  0  0  0
   -2.7116   -1.8737   -0.3371 O   0  0  0  0  0  0  0  0  0  0  0  0
   -2.9048    1.1232    1.9839 O   0  0  0  0  0  0  0  0  0  0  0  0
   -0.9840   -0.1038   -3.0588 C   0  0  0  0  0  0  0  0  0  0  0  0
   -1.2322   -2.5973   -1.7810 C   0  0  0  0  0  0  0  0  0  0  0  0
   -3.0329   -0.7778    0.3971 C   0  0  0  0  0  0  0  0  0  0  0  0
   -0.6662   -1.3338   -3.6996 C   0  0  0  0  0  0  0  0  0  0  0  0
   -0.6859   -2.5574   -3.0239 C   0  0  0  0  0  0  0  0  0  0  0  0
    3.0684    0.4623   -0.6868 H   0  0  0  0  0  0  0  0  0  0  0  0
    3.1762   -0.5892    0.7590 H   0  0  0  0  0  0  0  0  0  0  0  0
   -1.0635    1.5397    2.4594 H   0  0  0  0  0  0  0  0  0  0  0  0
   -1.7955    2.7459    0.2323 H   0  0  0  0  0  0  0  0  0  0  0  0
   -0.2317    2.0744    0.0863 H   0  0  0  0  0  0  0  0  0  0  0  0
   -0.7023   -1.1284    0.7070 H   0  0  0  0  0  0  0  0  0  0  0  0
   -0.8559   -1.2015    2.3283 H   0  0  0  0  0  0  0  0  0  0  0  0
   -3.5750    1.1284    1.2610 H   0  0  0  0  0  0  0  0  0  0  0  0
   -0.7704    0.8267   -3.5760 H   0  0  0  0  0  0  0  0  0  0  0  0
   -1.2957   -3.5050   -1.1810 H   0  0  0  0  0  0  0  0  0  0  0  0
   -2.1398   -0.2378    0.3257 H   0  0  0  0  0  0  0  0  0  0  0  0
   -3.6597   -0.0487   -0.1039 H   0  0  0  0  0  0  0  0  0  0  0  0
   -3.0744   -0.9699    1.4717 H   0  0  0  0  0  0  0  0  0  0  0  0
   -0.3820   -1.3483   -4.7452 H   0  0  0  0  0  0  0  0  0  0  0  0
   -0.3483   -3.4892   -3.4591 H   0  0  0  0  0  0  0  0  0  0  0  0
  2  9  1  0  0  0  0
  3  1  2  0  0  0  0
  4  2  1  0  0  0  0
  5  1  1  0  0  0  0
  6  4  2  0  0  0  0
  7  1  1  0  0  0  0
  7 18  1  0  0  0  0
  7 19  1  0  0  0  0
  8 10  1  0  0  0  0
  8 20  1  0  0  0  0
  9  8  1  0  0  0  0
  9 21  1  0  0  0  0
  9 22  1  0  0  0  0
 10  5  1  0  0  0  0
 10 23  1  0  0  0  0
 10 24  1  0  0  0  0
 11  6  1  0  0  0  0
 12  8  1  0  0  0  0
 12 25  1  0  0  0  0
 13  4  1  0  0  0  0
 13 26  1  0  0  0  0
 14  6  1  0  0  0  0
 14 27  1  0  0  0  0
 15 11  1  0  0  0  0
 15 28  1  0  0  0  0
 15 29  1  0  0  0  0
 15 30  1  0  0  0  0
 16 13  2  0  0  0  0
 16 31  1  0  0  0  0
 17 16  1  0  0  0  0
 17 14  2  0  0  0  0
 17 32  1  0  0  0  0
M  END
>  <DRUGBANK_ID>
DB00423

>  <SECONDARY_ACCESSION_NUMBERS>
APRD01102

>  <COMMON_NAME>
Methocarbamol

>  <CAS_NUMBER>
532-03-6

>  <UNII>
125OD7737X

>  <SYNONYMS>
(RS)-2-hydroxy-3-(2-methoxyphenoxy)propyl carbamate; Methocarbamol; MÃ©thocarbamol; Methocarbamolum; Metocarbamol; Metocarbamolo

$$$$
