
 OpenBabel10282417133D

 23 24  0  0  0  0  0  0  0  0999 V2000
   -0.6129    1.2391    0.0074 C   0  0  0  0  0  0  0  0  0  0  0  0
   -1.3977   -0.0491    0.0134 C   0  0  0  0  0  0  0  0  0  0  0  0
   -0.6861   -1.1976   -0.0050 C   0  0  0  0  0  0  0  0  0  0  0  0
    0.6906   -1.1582    0.0125 N   0  0  0  0  0  0  0  0  0  0  0  0
    1.3467    0.0281    0.0033 C   0  0  0  0  0  0  0  0  0  0  0  0
    0.7652    1.1838   -0.0006 N   0  0  0  0  0  0  0  0  0  0  0  0
   -1.2084    2.3202    0.0040 O   0  0  0  0  0  0  0  0  0  0  0  0
   -3.2690    0.0946    0.0615 Br  0  0  0  0  0  0  0  0  0  0  0  0
   -1.3508   -2.5182   -0.0200 C   0  0  0  0  0  0  0  0  0  0  0  0
   -2.1810   -2.8749   -1.0948 C   0  0  0  0  0  0  0  0  0  0  0  0
   -2.9215   -4.0563   -1.0649 C   0  0  0  0  0  0  0  0  0  0  0  0
   -2.9417   -4.8256    0.0935 C   0  0  0  0  0  0  0  0  0  0  0  0
   -2.1607   -4.4534    1.1862 C   0  0  0  0  0  0  0  0  0  0  0  0
   -1.2781   -3.3741    1.0851 C   0  0  0  0  0  0  0  0  0  0  0  0
    2.6913   -0.0444    0.0023 N   0  0  0  0  0  0  0  0  0  0  0  0
    1.1941   -2.0336   -0.0168 H   0  0  0  0  0  0  0  0  0  0  0  0
   -2.2961   -2.2079   -1.9472 H   0  0  0  0  0  0  0  0  0  0  0  0
   -3.5197   -4.3442   -1.9251 H   0  0  0  0  0  0  0  0  0  0  0  0
   -3.5705   -5.7109    0.1472 H   0  0  0  0  0  0  0  0  0  0  0  0
   -2.2575   -4.9910    2.1267 H   0  0  0  0  0  0  0  0  0  0  0  0
   -0.5830   -3.1840    1.8987 H   0  0  0  0  0  0  0  0  0  0  0  0
    3.2001    0.8331   -0.0141 H   0  0  0  0  0  0  0  0  0  0  0  0
    3.2242   -0.8981   -0.0145 H   0  0  0  0  0  0  0  0  0  0  0  0
  1  2  1  0  0  0  0
  1  6  1  0  0  0  0
  1  7  2  0  0  0  0
  2  8  1  0  0  0  0
  2  3  2  0  0  0  0
  3  9  1  0  0  0  0
  3  4  1  0  0  0  0
  4  5  1  0  0  0  0
  4 16  1  0  0  0  0
  5  6  2  0  0  0  0
  5 15  1  0  0  0  0
  9 10  2  0  0  0  0
 10 11  1  0  0  0  0
 10 17  1  0  0  0  0
 11 12  2  0  0  0  0
 11 18  1  0  0  0  0
 12 13  1  0  0  0  0
 12 19  1  0  0  0  0
 13 14  2  0  0  0  0
 13 20  1  0  0  0  0
 14  9  1  0  0  0  0
 14 21  1  0  0  0  0
 15 22  1  0  0  0  0
 15 23  1  0  0  0  0
M  END
>  <DRUGBANK_ID>
DB04168

>  <SECONDARY_ACCESSION_NUMBERS>
EXPT00347

>  <COMMON_NAME>
Bropirimine

>  <CAS_NUMBER>
56741-95-8

>  <UNII>
J57CTF25XJ

>  <SYNONYMS>
Bropirimina; Bropirimine; Bropiriminum

$$$$
