
 OpenBabel10282417203D

 44 46  0  0  0  0  0  0  0  0999 V2000
    1.2605   -0.7418    0.3517 C   0  0  0  0  0  0  0  0  0  0  0  0
    2.3546   -1.5847    0.0984 C   0  0  0  0  0  0  0  0  0  0  0  0
    3.5307   -1.0748   -0.4476 C   0  0  0  0  0  0  0  0  0  0  0  0
    3.6403    0.2866   -0.7250 C   0  0  0  0  0  0  0  0  0  0  0  0
    2.5756    1.1444   -0.4508 C   0  0  0  0  0  0  0  0  0  0  0  0
    1.3871    0.6344    0.0697 C   0  0  0  0  0  0  0  0  0  0  0  0
    0.0054    1.7407    0.3271 S   0  0  0  0  0  0  0  0  0  0  0  0
    0.0090   -1.2854    0.7016 N   0  0  0  0  0  0  0  0  0  0  0  0
   -2.2646   -1.6251   -0.1359 C   0  0  0  0  0  0  0  0  0  0  0  0
   -1.1852   -0.7766    0.1555 C   0  0  0  0  0  0  0  0  0  0  0  0
   -1.3244    0.6101   -0.0700 C   0  0  0  0  0  0  0  0  0  0  0  0
   -2.5414    1.1303   -0.5186 C   0  0  0  0  0  0  0  0  0  0  0  0
   -3.6137    0.2749   -0.7668 C   0  0  0  0  0  0  0  0  0  0  0  0
   -3.4795   -1.0975   -0.5779 C   0  0  0  0  0  0  0  0  0  0  0  0
   -0.0570   -2.1828    1.8642 C   0  0  0  0  0  0  0  0  0  0  0  0
   -0.7773   -1.5880    3.1383 C   0  0  3  0  0  0  0  0  0  0  0  0
   -2.2412   -1.1810    2.9085 C   0  0  0  0  0  0  0  0  0  0  0  0
   -0.7397   -2.6294    4.3570 N   0  3  0  0  0  0  0  0  0  0  0  0
    0.7054   -2.9262    4.7674 C   0  0  0  0  0  0  0  0  0  0  0  0
   -1.4237   -2.0272    5.5949 C   0  0  0  0  0  0  0  0  0  0  0  0
   -1.4385   -3.9387    3.9978 C   0  0  0  0  0  0  0  0  0  0  0  0
    2.2659   -2.6601    0.2303 H   0  0  0  0  0  0  0  0  0  0  0  0
    4.3482   -1.7467   -0.7007 H   0  0  0  0  0  0  0  0  0  0  0  0
    4.5438    0.6781   -1.1834 H   0  0  0  0  0  0  0  0  0  0  0  0
    2.6626    2.2019   -0.6897 H   0  0  0  0  0  0  0  0  0  0  0  0
   -2.1805   -2.6986    0.0003 H   0  0  0  0  0  0  0  0  0  0  0  0
   -2.6592    2.2001   -0.6669 H   0  0  0  0  0  0  0  0  0  0  0  0
   -4.5588    0.6855   -1.1174 H   0  0  0  0  0  0  0  0  0  0  0  0
   -4.3201   -1.7591   -0.7696 H   0  0  0  0  0  0  0  0  0  0  0  0
   -0.5176   -3.1240    1.5542 H   0  0  0  0  0  0  0  0  0  0  0  0
    0.9634   -2.4423    2.1654 H   0  0  0  0  0  0  0  0  0  0  0  0
   -0.2190   -0.7118    3.4934 H   0  0  0  0  0  0  0  0  0  0  0  0
   -2.8258   -2.0089    2.4971 H   0  0  0  0  0  0  0  0  0  0  0  0
   -2.7503   -0.8170    3.7991 H   0  0  0  0  0  0  0  0  0  0  0  0
   -2.3186   -0.3260    2.2426 H   0  0  0  0  0  0  0  0  0  0  0  0
    1.1933   -1.9813    5.0225 H   0  0  0  0  0  0  0  0  0  0  0  0
    0.6833   -3.5949    5.6332 H   0  0  0  0  0  0  0  0  0  0  0  0
    1.2202   -3.4268    3.9460 H   0  0  0  0  0  0  0  0  0  0  0  0
   -2.4873   -1.8873    5.3959 H   0  0  0  0  0  0  0  0  0  0  0  0
   -1.3262   -2.7349    6.4219 H   0  0  0  0  0  0  0  0  0  0  0  0
   -0.9345   -1.0775    5.8295 H   0  0  0  0  0  0  0  0  0  0  0  0
   -2.4772   -3.7294    3.7335 H   0  0  0  0  0  0  0  0  0  0  0  0
   -0.9129   -4.4044    3.1616 H   0  0  0  0  0  0  0  0  0  0  0  0
   -1.4024   -4.6006    4.8660 H   0  0  0  0  0  0  0  0  0  0  0  0
  1  2  2  0  0  0  0
  1  8  1  0  0  0  0
  2  3  1  0  0  0  0
  2 22  1  0  0  0  0
  3  4  2  0  0  0  0
  3 23  1  0  0  0  0
  4  5  1  0  0  0  0
  4 24  1  0  0  0  0
  5  6  2  0  0  0  0
  5 25  1  0  0  0  0
  6  1  1  0  0  0  0
  6  7  1  0  0  0  0
  7 11  1  0  0  0  0
  8 15  1  0  0  0  0
  9 10  2  0  0  0  0
  9 26  1  0  0  0  0
 10 11  1  0  0  0  0
 10  8  1  0  0  0  0
 11 12  2  0  0  0  0
 12 13  1  0  0  0  0
 12 27  1  0  0  0  0
 13 14  2  0  0  0  0
 13 28  1  0  0  0  0
 14  9  1  0  0  0  0
 14 29  1  0  0  0  0
 15 16  1  0  0  0  0
 15 30  1  0  0  0  0
 15 31  1  0  0  0  0
 16 17  1  0  0  0  0
 16 18  1  0  0  0  0
 16 32  1  0  0  0  0
 17 33  1  0  0  0  0
 17 34  1  0  0  0  0
 17 35  1  0  0  0  0
 18 19  1  0  0  0  0
 18 20  1  0  0  0  0
 18 21  1  0  0  0  0
 19 36  1  0  0  0  0
 19 37  1  0  0  0  0
 19 38  1  0  0  0  0
 20 39  1  0  0  0  0
 20 40  1  0  0  0  0
 20 41  1  0  0  0  0
 21 42  1  0  0  0  0
 21 43  1  0  0  0  0
 21 44  1  0  0  0  0
M  CHG  1  18   1
M  END
>  <DRUGBANK_ID>
DB13420

>  <COMMON_NAME>
Thiazinam

>  <CAS_NUMBER>
2338-21-8

>  <UNII>
666W2P28N2

>  <SYNONYMS>
Thiazinamium

$$$$
