
 OpenBabel10282417203D

 34 36  0  0  0  0  0  0  0  0999 V2000
    1.3491   -0.2142    0.0043 C   0  0  0  0  0  0  0  0  0  0  0  0
    0.4663   -1.2924    0.0102 C   0  0  0  0  0  0  0  0  0  0  0  0
    0.8484    1.0851   -0.0121 C   0  0  0  0  0  0  0  0  0  0  0  0
   -0.9187   -1.0712   -0.0153 C   0  0  0  0  0  0  0  0  0  0  0  0
   -0.5348    1.3056    0.0068 C   0  0  0  0  0  0  0  0  0  0  0  0
   -6.3382    0.4277    2.4491 C   0  0  0  0  0  0  0  0  0  0  0  0
   -7.2513   -0.7747    0.5608 C   0  0  0  0  0  0  0  0  0  0  0  0
   -7.3816   -0.0459    3.2504 C   0  0  0  0  0  0  0  0  0  0  0  0
   -8.2796   -1.2691    1.3680 C   0  0  0  0  0  0  0  0  0  0  0  0
   -6.3431    1.7155   -1.5263 C   0  0  0  0  0  0  0  0  0  0  0  0
   -6.2418    0.0308    1.1115 C   0  0  0  0  0  0  0  0  0  0  0  0
   -1.4398    0.2323   -0.0407 C   0  0  0  0  0  0  0  0  0  0  0  0
   -8.3352   -0.9085    2.7122 C   0  0  0  0  0  0  0  0  0  0  0  0
   -5.1394    1.1513   -0.8368 C   0  0  0  0  0  0  0  0  0  0  0  0
   -6.2885    3.2114   -1.6318 C   0  0  0  0  0  0  0  0  0  0  0  0
   -5.0740    0.4118    0.3292 C   0  0  0  0  0  0  0  0  0  0  0  0
   -2.8948    0.4628   -0.1292 C   0  0  0  0  0  0  0  0  0  0  0  0
   -9.6022   -1.5135    3.7063 Cl  0  0  0  0  0  0  0  0  0  0  0  0
   -3.7986    0.0186    0.7216 N   0  0  0  0  0  0  0  0  0  0  0  0
   -6.4058    3.8577   -2.6665 O   0  0  0  0  0  0  0  0  0  0  0  0
   -6.1748    3.8371   -0.4440 O   0  0  0  0  0  0  0  0  0  0  0  0
   -3.5492    1.3362   -1.4716 S   0  0  0  0  0  0  0  0  0  0  0  0
    2.4235   -0.3857    0.0259 H   0  0  0  0  0  0  0  0  0  0  0  0
    0.8579   -2.3072    0.0258 H   0  0  0  0  0  0  0  0  0  0  0  0
    1.5343    1.9286   -0.0400 H   0  0  0  0  0  0  0  0  0  0  0  0
   -1.5893   -1.9279   -0.0190 H   0  0  0  0  0  0  0  0  0  0  0  0
   -0.9006    2.3275    0.0721 H   0  0  0  0  0  0  0  0  0  0  0  0
   -5.5992    1.1053    2.8714 H   0  0  0  0  0  0  0  0  0  0  0  0
   -7.2438   -1.0339   -0.4954 H   0  0  0  0  0  0  0  0  0  0  0  0
   -7.4321    0.2476    4.2950 H   0  0  0  0  0  0  0  0  0  0  0  0
   -9.0199   -1.9442    0.9466 H   0  0  0  0  0  0  0  0  0  0  0  0
   -6.4512    1.2773   -2.5242 H   0  0  0  0  0  0  0  0  0  0  0  0
   -7.2660    1.4821   -0.9846 H   0  0  0  0  0  0  0  0  0  0  0  0
   -6.1703    4.7934   -0.6582 H   0  0  0  0  0  0  0  0  0  0  0  0
  1 23  1  0  0  0  0
  2  1  2  0  0  0  0
  2 24  1  0  0  0  0
  3  1  1  0  0  0  0
  3 25  1  0  0  0  0
  4  2  1  0  0  0  0
  4 26  1  0  0  0  0
  5  3  2  0  0  0  0
  5 27  1  0  0  0  0
  6 28  1  0  0  0  0
  7 29  1  0  0  0  0
  8  6  1  0  0  0  0
  8 30  1  0  0  0  0
  9  7  2  0  0  0  0
  9 31  1  0  0  0  0
 10 32  1  0  0  0  0
 10 33  1  0  0  0  0
 11  6  2  0  0  0  0
 11  7  1  0  0  0  0
 12  4  2  0  0  0  0
 12  5  1  0  0  0  0
 13  8  2  0  0  0  0
 13  9  1  0  0  0  0
 14 10  1  0  0  0  0
 15 10  1  0  0  0  0
 16 11  1  0  0  0  0
 16 14  2  0  0  0  0
 17 12  1  0  0  0  0
 18 13  1  0  0  0  0
 19 16  1  0  0  0  0
 19 17  2  0  0  0  0
 20 15  2  0  0  0  0
 21 15  1  0  0  0  0
 21 34  1  0  0  0  0
 22 14  1  0  0  0  0
 22 17  1  0  0  0  0
M  END
>  <DRUGBANK_ID>
DB13217

>  <COMMON_NAME>
Fentiazac

>  <CAS_NUMBER>
18046-21-4

>  <UNII>
0YHF6E6NLS

>  <SYNONYMS>
4-(4-Chlorophenyl)-2-phenyl-5-thiazoleacetic acid; 4-(p-Chlorophenyl)-2-phenyl-5-thiazoleacetic acid; Fentiazac; Fentiazaco; Fentiazacum

$$$$
