
 OpenBabel10282417163D

 55 57  0  0  0  0  0  0  0  0999 V2000
    2.1918    0.0036   -0.0132 F   0  0  0  0  0  0  0  0  0  0  0  0
   -1.9983    3.6127   -1.1484 O   0  0  0  0  0  0  0  0  0  0  0  0
    1.0424    4.6079   -0.0554 O   0  0  0  0  0  0  0  0  0  0  0  0
   -1.3295   -3.7775    0.0413 O   0  0  0  0  0  0  0  0  0  0  0  0
   -3.2233   -2.5768    0.0398 O   0  0  0  0  0  0  0  0  0  0  0  0
    0.8002    2.3815   -0.4001 N   0  0  0  0  0  0  0  0  0  0  0  0
   -3.5151    4.0726    4.5147 C   0  0  0  0  0  0  0  0  0  0  0  0
   -3.0530    1.0300    4.9053 C   0  0  0  0  0  0  0  0  0  0  0  0
   -3.7113    3.3651    5.8644 C   0  0  0  0  0  0  0  0  0  0  0  0
   -3.8559    1.8577    5.9032 C   0  0  0  0  0  0  0  0  0  0  0  0
   -2.8799    3.2016    3.4694 C   0  0  0  0  0  0  0  0  0  0  0  0
   -2.6386    1.8365    3.7024 C   0  0  0  0  0  0  0  0  0  0  0  0
   -4.8562    4.5630    3.9488 C   0  0  0  0  0  0  0  0  0  0  0  0
   -2.5705    5.2645    4.8157 C   0  0  0  0  0  0  0  0  0  0  0  0
   -3.9683   -0.1319    4.4403 C   0  0  0  0  0  0  0  0  0  0  0  0
   -1.8137    0.4043    5.6095 C   0  0  0  0  0  0  0  0  0  0  0  0
   -2.5062    3.8263    2.2418 C   0  0  0  0  0  0  0  0  0  0  0  0
   -1.8762    1.1807    2.7863 C   0  0  0  0  0  0  0  0  0  0  0  0
   -1.7096    3.1766    1.3378 C   0  0  0  0  0  0  0  0  0  0  0  0
   -1.2966    1.9216    1.7918 C   0  0  0  0  0  0  0  0  0  0  0  0
   -1.2363    3.8648    0.0419 C   0  0  1  0  0  0  0  0  0  0  0  0
    0.2748    3.6430   -0.1585 C   0  0  0  0  0  0  0  0  0  0  0  0
    0.1680    1.1006   -0.5959 C   0  0  0  0  0  0  0  0  0  0  0  0
    0.8806   -0.0659   -0.2937 C   0  0  0  0  0  0  0  0  0  0  0  0
   -1.2154    0.9230   -0.7535 C   0  0  0  0  0  0  0  0  0  0  0  0
    0.2273   -1.3074   -0.1172 C   0  0  0  0  0  0  0  0  0  0  0  0
   -1.8845   -0.2564   -0.4398 C   0  0  0  0  0  0  0  0  0  0  0  0
   -1.1710   -1.4036   -0.1789 C   0  0  0  0  0  0  0  0  0  0  0  0
   -2.0171   -2.6192   -0.0020 C   0  0  0  0  0  0  0  0  0  0  0  0
   -1.3986    3.7202   -1.9130 H   0  0  0  0  0  0  0  0  0  0  0  0
   -0.3682   -3.7183   -0.0464 H   0  0  0  0  0  0  0  0  0  0  0  0
    1.7975    2.3713   -0.1871 H   0  0  0  0  0  0  0  0  0  0  0  0
   -2.8766    3.6131    6.5301 H   0  0  0  0  0  0  0  0  0  0  0  0
   -4.6052    3.7798    6.3424 H   0  0  0  0  0  0  0  0  0  0  0  0
   -3.5770    1.5454    6.9173 H   0  0  0  0  0  0  0  0  0  0  0  0
   -4.9184    1.6199    5.8016 H   0  0  0  0  0  0  0  0  0  0  0  0
   -4.7375    5.1376    3.0209 H   0  0  0  0  0  0  0  0  0  0  0  0
   -5.5122    3.7156    3.7152 H   0  0  0  0  0  0  0  0  0  0  0  0
   -5.3627    5.2143    4.6631 H   0  0  0  0  0  0  0  0  0  0  0  0
   -1.6075    4.8994    5.2038 H   0  0  0  0  0  0  0  0  0  0  0  0
   -2.3367    5.8839    3.9447 H   0  0  0  0  0  0  0  0  0  0  0  0
   -3.0139    5.9141    5.5751 H   0  0  0  0  0  0  0  0  0  0  0  0
   -3.4448   -0.8859    3.8401 H   0  0  0  0  0  0  0  0  0  0  0  0
   -4.3967   -0.6483    5.3053 H   0  0  0  0  0  0  0  0  0  0  0  0
   -4.7927    0.2535    3.8274 H   0  0  0  0  0  0  0  0  0  0  0  0
   -2.1073   -0.1009    6.5355 H   0  0  0  0  0  0  0  0  0  0  0  0
   -1.3128   -0.3602    4.9988 H   0  0  0  0  0  0  0  0  0  0  0  0
   -1.0610    1.1625    5.8543 H   0  0  0  0  0  0  0  0  0  0  0  0
   -2.7568    4.8670    2.0463 H   0  0  0  0  0  0  0  0  0  0  0  0
   -1.6132    0.1299    2.8800 H   0  0  0  0  0  0  0  0  0  0  0  0
   -0.4584    1.3809    1.4228 H   0  0  0  0  0  0  0  0  0  0  0  0
   -1.4020    4.9406    0.1616 H   0  0  0  0  0  0  0  0  0  0  0  0
   -1.9345    1.7111   -0.8135 H   0  0  0  0  0  0  0  0  0  0  0  0
    0.8482   -2.1579    0.1283 H   0  0  0  0  0  0  0  0  0  0  0  0
   -2.9691   -0.2027   -0.3000 H   0  0  0  0  0  0  0  0  0  0  0  0
  1 24  1  0  0  0  0
  2 30  1  0  0  0  0
  3 22  2  0  0  0  0
  4 29  1  0  0  0  0
  4 31  1  0  0  0  0
  5 29  2  0  0  0  0
  6 22  1  0  0  0  0
  6 23  1  0  0  0  0
  6 32  1  0  0  0  0
  7  9  1  0  0  0  0
  7 11  1  0  0  0  0
  7 13  1  0  0  0  0
  7 14  1  0  0  0  0
  8 10  1  0  0  0  0
  8 12  1  0  0  0  0
  8 15  1  0  0  0  0
  8 16  1  0  0  0  0
  9 10  1  0  0  0  0
  9 33  1  0  0  0  0
  9 34  1  0  0  0  0
 10 35  1  0  0  0  0
 10 36  1  0  0  0  0
 11 12  2  0  0  0  0
 11 17  1  0  0  0  0
 12 18  1  0  0  0  0
 13 37  1  0  0  0  0
 13 38  1  0  0  0  0
 13 39  1  0  0  0  0
 14 40  1  0  0  0  0
 14 41  1  0  0  0  0
 14 42  1  0  0  0  0
 15 43  1  0  0  0  0
 15 44  1  0  0  0  0
 15 45  1  0  0  0  0
 16 46  1  0  0  0  0
 16 47  1  0  0  0  0
 16 48  1  0  0  0  0
 17 19  2  0  0  0  0
 17 49  1  0  0  0  0
 18 20  2  0  0  0  0
 18 50  1  0  0  0  0
 19 20  1  0  0  0  0
 19 21  1  0  0  0  0
 20 51  1  0  0  0  0
 21  2  1  0  0  0  0
 21 22  1  0  0  0  0
 21 52  1  1  0  0  0
 23 24  2  0  0  0  0
 23 25  1  0  0  0  0
 24 26  1  0  0  0  0
 25 27  2  0  0  0  0
 25 53  1  0  0  0  0
 26 28  2  0  0  0  0
 26 54  1  0  0  0  0
 27 28  1  0  0  0  0
 27 55  1  0  0  0  0
 28 29  1  0  0  0  0
M  END
>  <DRUGBANK_ID>
DB07294

>  <COMMON_NAME>
3-fluoro-4-[2-hydroxy-2-(5,5,8,8-tetramethyl-5,6,7,8,-tetrahydro-naphtalen-2-yl)-acetylamino]-benzoic acid

$$$$
