1176
 OpenBabel10282417113D

 42 44  0  0  0  0  0  0  0  0999 V2000
    0.9674    0.0153   -0.2923 N   0  0  0  0  0  0  0  0  0  0  0  0
   -2.0093   -0.0682    0.1844 N   0  0  0  0  0  0  0  0  0  0  0  0
    0.2568   -1.2027    0.1298 C   0  0  0  0  0  0  0  0  0  0  0  0
    0.1819    1.1808    0.1432 C   0  0  0  0  0  0  0  0  0  0  0  0
    2.4227    0.0790    0.0923 C   0  0  0  0  0  0  0  0  0  0  0  0
   -1.2295   -1.2348   -0.2870 C   0  0  0  0  0  0  0  0  0  0  0  0
   -1.3050    1.1492   -0.2329 C   0  0  0  0  0  0  0  0  0  0  0  0
    3.0961    1.3303   -0.5420 C   0  0  0  0  0  0  0  0  0  0  0  0
    2.7393   -0.0521    1.6093 C   0  0  0  0  0  0  0  0  0  0  0  0
   -2.1783   -0.0658    1.6403 C   0  0  0  0  0  0  0  0  0  0  0  0
    2.7378    2.6232   -0.0875 C   0  0  0  0  0  0  0  0  0  0  0  0
    2.3353   -1.1697    2.3567 C   0  0  0  0  0  0  0  0  0  0  0  0
    4.1240    1.2463   -1.4827 C   0  0  0  0  0  0  0  0  0  0  0  0
    3.4706    0.9240    2.3130 C   0  0  0  0  0  0  0  0  0  0  0  0
    3.3063    3.7866   -0.5817 C   0  0  0  0  0  0  0  0  0  0  0  0
    2.4606   -1.2087    3.7477 C   0  0  0  0  0  0  0  0  0  0  0  0
    4.7665    2.4192   -1.9193 C   0  0  0  0  0  0  0  0  0  0  0  0
    3.6788    0.8514    3.6883 C   0  0  0  0  0  0  0  0  0  0  0  0
    4.3367    3.6798   -1.4889 C   0  0  0  0  0  0  0  0  0  0  0  0
    3.1355   -0.1947    4.4126 C   0  0  0  0  0  0  0  0  0  0  0  0
    0.7629   -2.1013   -0.2407 H   0  0  0  0  0  0  0  0  0  0  0  0
    0.2181   -1.2613    1.2165 H   0  0  0  0  0  0  0  0  0  0  0  0
    0.2909    1.3219    1.2260 H   0  0  0  0  0  0  0  0  0  0  0  0
    0.5129    2.0785   -0.3719 H   0  0  0  0  0  0  0  0  0  0  0  0
    2.9017   -0.7940   -0.3805 H   0  0  0  0  0  0  0  0  0  0  0  0
   -1.2907   -1.2949   -1.3807 H   0  0  0  0  0  0  0  0  0  0  0  0
   -1.6877   -2.1539    0.0974 H   0  0  0  0  0  0  0  0  0  0  0  0
   -1.3844    1.2593   -1.3221 H   0  0  0  0  0  0  0  0  0  0  0  0
   -1.7836    2.0415    0.1911 H   0  0  0  0  0  0  0  0  0  0  0  0
   -1.2389   -0.0078    2.2015 H   0  0  0  0  0  0  0  0  0  0  0  0
   -2.7852    0.7947    1.9442 H   0  0  0  0  0  0  0  0  0  0  0  0
   -2.7086   -0.9650    1.9642 H   0  0  0  0  0  0  0  0  0  0  0  0
    2.0302    2.7388    0.7278 H   0  0  0  0  0  0  0  0  0  0  0  0
    1.8902   -2.0375    1.8811 H   0  0  0  0  0  0  0  0  0  0  0  0
    4.4660    0.2851   -1.8600 H   0  0  0  0  0  0  0  0  0  0  0  0
    3.9141    1.7808    1.8188 H   0  0  0  0  0  0  0  0  0  0  0  0
    2.9544    4.7430   -0.2081 H   0  0  0  0  0  0  0  0  0  0  0  0
    2.0361   -2.0398    4.3024 H   0  0  0  0  0  0  0  0  0  0  0  0
    5.6188    2.3534   -2.5874 H   0  0  0  0  0  0  0  0  0  0  0  0
    4.2631    1.6264    4.1754 H   0  0  0  0  0  0  0  0  0  0  0  0
    4.8237    4.5848   -1.8429 H   0  0  0  0  0  0  0  0  0  0  0  0
    3.2646   -0.2342    5.4887 H   0  0  0  0  0  0  0  0  0  0  0  0
  1  3  1  0  0  0  0
  1  4  1  0  0  0  0
  1  5  1  0  0  0  0
  2  6  1  0  0  0  0
  2  7  1  0  0  0  0
  2 10  1  0  0  0  0
  3  6  1  0  0  0  0
  3 21  1  0  0  0  0
  3 22  1  0  0  0  0
  4  7  1  0  0  0  0
  4 23  1  0  0  0  0
  4 24  1  0  0  0  0
  5  8  1  0  0  0  0
  5  9  1  0  0  0  0
  5 25  1  0  0  0  0
  6 26  1  0  0  0  0
  6 27  1  0  0  0  0
  7 28  1  0  0  0  0
  7 29  1  0  0  0  0
  8 11  2  0  0  0  0
  8 13  1  0  0  0  0
  9 12  2  0  0  0  0
  9 14  1  0  0  0  0
 10 30  1  0  0  0  0
 10 31  1  0  0  0  0
 10 32  1  0  0  0  0
 11 15  1  0  0  0  0
 11 33  1  0  0  0  0
 12 16  1  0  0  0  0
 12 34  1  0  0  0  0
 13 17  2  0  0  0  0
 13 35  1  0  0  0  0
 14 18  2  0  0  0  0
 14 36  1  0  0  0  0
 15 19  2  0  0  0  0
 15 37  1  0  0  0  0
 16 20  2  0  0  0  0
 16 38  1  0  0  0  0
 17 19  1  0  0  0  0
 17 39  1  0  0  0  0
 18 20  1  0  0  0  0
 18 40  1  0  0  0  0
 19 41  1  0  0  0  0
 20 42  1  0  0  0  0
M  END
>  <DRUGBANK_ID>
DB01176

>  <SECONDARY_ACCESSION_NUMBERS>
APRD00061

>  <COMMON_NAME>
Cyclizine

>  <CAS_NUMBER>
82-92-8

>  <UNII>
QRW9FCR9P2

>  <SYNONYMS>
(Â±)-1-diphenylmethyl-4-methylpiperazine; (N-Benzhydryl)(N'-methyl)diethylenediamine; 1-(Diphenylmethyl)-4-methylpiperazine; 1-Benzhydryl-4-methylpiperazin; Ciclizina; Cyclizine; Cyclizinum; N-Benzhydryl-N'-methylpiperazine; N-methyl-N'-benzhydrylpiperazine

$$$$
