
 OpenBabel10282417153D

 55 58  0  0  0  0  0  0  0  0999 V2000
   -1.1797   -1.2136   -0.0609 C   0  0  0  0  0  0  0  0  0  0  0  0
    0.2302   -1.2289   -0.0513 C   0  0  0  0  0  0  0  0  0  0  0  0
   -1.8816   -0.0217   -0.1513 C   0  0  0  0  0  0  0  0  0  0  0  0
    0.9141    0.0064   -0.0637 C   0  0  0  0  0  0  0  0  0  0  0  0
   -1.1828    1.1736   -0.2552 C   0  0  0  0  0  0  0  0  0  0  0  0
    0.2159    1.2264   -0.1364 C   0  0  0  0  0  0  0  0  0  0  0  0
    0.9060   -2.5283    0.0460 C   0  0  0  0  0  0  0  0  0  0  0  0
    1.7176   -2.8269    1.1513 C   0  0  0  0  0  0  0  0  0  0  0  0
    0.6913   -3.5219   -0.9223 C   0  0  0  0  0  0  0  0  0  0  0  0
    2.3024   -4.0892    1.2912 C   0  0  0  0  0  0  0  0  0  0  0  0
    1.2264   -4.7991   -0.7605 C   0  0  0  0  0  0  0  0  0  0  0  0
    2.0591   -5.0725    0.3254 C   0  0  0  0  0  0  0  0  0  0  0  0
    3.1354   -4.4283    2.4708 C   0  0  0  0  0  0  0  0  0  0  0  0
    3.6575   -5.5060    2.6855 O   0  0  0  0  0  0  0  0  0  0  0  0
    3.2553   -3.3988    3.3295 O   0  0  0  0  0  0  0  0  0  0  0  0
    2.2899    0.0827   -0.0043 O   0  0  0  0  0  0  0  0  0  0  0  0
    0.9054    2.4444    0.1460 N   0  0  0  0  0  0  0  0  0  0  0  0
    0.2938    3.6668    0.1049 N   0  0  0  0  0  0  0  0  0  0  0  0
   -0.6285    3.8772    0.9981 C   0  0  0  0  0  0  0  0  0  0  0  0
   -1.5395    5.0651    1.0124 C   0  0  0  0  0  0  0  0  0  0  0  0
   -1.1692    2.9794    2.0825 C   0  0  0  0  0  0  0  0  0  0  0  0
   -2.5529    4.8608    1.8081 N   0  0  0  0  0  0  0  0  0  0  0  0
   -2.3502    3.6133    2.4069 N   0  0  0  0  0  0  0  0  0  0  0  0
   -0.7030    1.9343    2.5004 O   0  0  0  0  0  0  0  0  0  0  0  0
   -1.3020    6.2764    0.1853 C   0  0  0  0  0  0  0  0  0  0  0  0
   -3.1755    3.2132    3.4665 C   0  0  0  0  0  0  0  0  0  0  0  0
   -2.5881    2.7470    4.6477 C   0  0  0  0  0  0  0  0  0  0  0  0
   -4.5613    3.2740    3.3645 C   0  0  0  0  0  0  0  0  0  0  0  0
   -3.3648    2.4102    5.7591 C   0  0  0  0  0  0  0  0  0  0  0  0
   -5.3487    2.9336    4.4670 C   0  0  0  0  0  0  0  0  0  0  0  0
   -4.7634    2.4740    5.6602 C   0  0  0  0  0  0  0  0  0  0  0  0
   -5.6588    2.0235    6.7801 C   0  0  0  0  0  0  0  0  0  0  0  0
   -2.6739    2.0532    7.0423 C   0  0  0  0  0  0  0  0  0  0  0  0
   -1.7471   -2.1391    0.0241 H   0  0  0  0  0  0  0  0  0  0  0  0
   -2.9667   -0.0059   -0.0957 H   0  0  0  0  0  0  0  0  0  0  0  0
   -1.7711    2.0794   -0.3209 H   0  0  0  0  0  0  0  0  0  0  0  0
    1.8734   -2.0662    1.9157 H   0  0  0  0  0  0  0  0  0  0  0  0
    0.0909   -3.3044   -1.8056 H   0  0  0  0  0  0  0  0  0  0  0  0
    0.9798   -5.5838   -1.4717 H   0  0  0  0  0  0  0  0  0  0  0  0
    2.5083   -6.0588    0.4189 H   0  0  0  0  0  0  0  0  0  0  0  0
    3.7879   -3.7414    4.0770 H   0  0  0  0  0  0  0  0  0  0  0  0
    2.6528   -0.8174   -0.0592 H   0  0  0  0  0  0  0  0  0  0  0  0
    1.9051    2.3690   -0.0622 H   0  0  0  0  0  0  0  0  0  0  0  0
   -0.2921    6.6610    0.3510 H   0  0  0  0  0  0  0  0  0  0  0  0
   -1.4318    6.0375   -0.8729 H   0  0  0  0  0  0  0  0  0  0  0  0
   -2.0205    7.0560    0.4589 H   0  0  0  0  0  0  0  0  0  0  0  0
   -1.5039    2.6848    4.7247 H   0  0  0  0  0  0  0  0  0  0  0  0
   -5.0322    3.5182    2.4159 H   0  0  0  0  0  0  0  0  0  0  0  0
   -6.4295    3.0312    4.3946 H   0  0  0  0  0  0  0  0  0  0  0  0
   -6.2908    2.8466    7.1223 H   0  0  0  0  0  0  0  0  0  0  0  0
   -6.2837    1.1940    6.4336 H   0  0  0  0  0  0  0  0  0  0  0  0
   -5.1009    1.6546    7.6448 H   0  0  0  0  0  0  0  0  0  0  0  0
   -2.9557    2.7782    7.8137 H   0  0  0  0  0  0  0  0  0  0  0  0
   -2.9487    1.0440    7.3594 H   0  0  0  0  0  0  0  0  0  0  0  0
   -1.5845    2.0896    6.9426 H   0  0  0  0  0  0  0  0  0  0  0  0
  1 34  1  0  0  0  0
  2  1  1  0  0  0  0
  2  7  1  0  0  0  0
  3  1  2  0  0  0  0
  3 35  1  0  0  0  0
  4  2  2  0  0  0  0
  4 16  1  0  0  0  0
  5  3  1  0  0  0  0
  5 36  1  0  0  0  0
  6  4  1  0  0  0  0
  6  5  2  0  0  0  0
  6 17  1  0  0  0  0
  8  7  1  0  0  0  0
  8 37  1  0  0  0  0
  9  7  2  0  0  0  0
  9 38  1  0  0  0  0
 10  8  2  0  0  0  0
 10 13  1  0  0  0  0
 11  9  1  0  0  0  0
 11 39  1  0  0  0  0
 12 10  1  0  0  0  0
 12 11  2  0  0  0  0
 12 40  1  0  0  0  0
 14 13  2  0  0  0  0
 15 13  1  0  0  0  0
 15 41  1  0  0  0  0
 16 42  1  0  0  0  0
 17 18  1  0  0  0  0
 17 43  1  0  0  0  0
 18 19  2  0  0  0  0
 20 19  1  0  0  0  0
 20 25  1  0  0  0  0
 21 19  1  0  0  0  0
 21 24  2  0  0  0  0
 22 20  2  0  0  0  0
 23 21  1  0  0  0  0
 23 22  1  0  0  0  0
 23 26  1  0  0  0  0
 25 44  1  0  0  0  0
 25 45  1  0  0  0  0
 25 46  1  0  0  0  0
 27 26  1  0  0  0  0
 27 47  1  0  0  0  0
 28 26  2  0  0  0  0
 28 48  1  0  0  0  0
 29 27  2  0  0  0  0
 29 33  1  0  0  0  0
 30 28  1  0  0  0  0
 30 49  1  0  0  0  0
 31 29  1  0  0  0  0
 31 30  2  0  0  0  0
 31 32  1  0  0  0  0
 32 50  1  0  0  0  0
 32 51  1  0  0  0  0
 32 52  1  0  0  0  0
 33 53  1  0  0  0  0
 33 54  1  0  0  0  0
 33 55  1  0  0  0  0
M  END
>  <DRUGBANK_ID>
DB06210

>  <COMMON_NAME>
Eltrombopag

>  <CAS_NUMBER>
496775-61-2

>  <UNII>
S56D65XJ9G

>  <SYNONYMS>
Eltrombopag; Eltrombopagum

$$$$
