
 OpenBabel10282417143D

108112  0  0  1  0  0  0  0  0999 V2000
    1.2519    0.2971    0.1317 C   0  0  0  0  0  0  0  0  0  0  0  0
   -1.1922   -2.8234   -0.8921 C   0  0  0  0  0  0  0  0  0  0  0  0
   -2.5798   -3.1500   -4.1431 C   0  0  0  0  0  0  0  0  0  0  0  0
   -2.4286   -0.4713   -1.7853 C   0  0  0  0  0  0  0  0  0  0  0  0
   -4.8885   -1.5294    2.3193 C   0  0  0  0  0  0  0  0  0  0  0  0
    0.3295   -7.0168   -2.4635 C   0  0  0  0  0  0  0  0  0  0  0  0
    0.7471   -0.8388    0.7607 C   0  0  2  0  0  0  0  0  0  0  0  0
   -2.2584   -3.9704   -2.2557 C   0  0  0  0  0  0  0  0  0  0  0  0
   -1.1628   -2.6209    1.2552 C   0  0  1  0  0  0  0  0  0  0  0  0
   -2.2479   -2.3805   -2.1272 C   0  0  2  0  0  0  0  0  0  0  0  0
   -3.7148   -0.6926    1.7133 C   0  0  2  0  0  0  0  0  0  0  0  0
    0.2855   -5.7930   -1.7976 C   0  0  2  0  0  0  0  0  0  0  0  0
    1.4264   -2.0885    0.0389 C   0  0  2  0  0  0  0  0  0  0  0  0
   -2.9341   -3.8239    2.2360 C   0  0  1  0  0  0  0  0  0  0  0  0
   -4.1248   -3.3850   -1.1972 C   0  0  2  0  0  0  0  0  0  0  0  0
    0.9305   -2.1091   -1.6421 C   0  0  1  0  0  0  0  0  0  0  0  0
   -3.5514   -3.2903    0.8681 C   0  0  1  0  0  0  0  0  0  0  0  0
   -4.2907   -4.7764    0.6328 C   0  0  2  0  0  0  0  0  0  0  0  0
   -4.2292   -1.6902   -1.0754 C   0  0  2  0  0  0  0  0  0  0  0  0
   -0.5496   -6.9801    0.3558 C   0  0  2  0  0  0  0  0  0  0  0  0
   -2.5802   -3.3559   -0.8816 C   0  0  2  0  0  0  0  0  0  0  0  0
   -0.7694   -1.0530   -1.5029 C   0  0  2  0  0  0  0  0  0  0  0  0
   -1.4801   -4.1644    1.7417 C   0  0  2  0  0  0  0  0  0  0  0  0
   -2.1454   -6.8834   -0.2889 C   0  0  2  0  0  0  0  0  0  0  0  0
   -3.9128   -5.0865   -1.3245 C   0  0  2  0  0  0  0  0  0  0  0  0
   -3.9733   -0.2610    0.0357 C   0  0  2  0  0  0  0  0  0  0  0  0
    0.6051   -6.0056   -0.3864 C   0  0  2  0  0  0  0  0  0  0  0  0
   -2.1261   -3.6981    0.3465 C   0  0  1  0  0  0  0  0  0  0  0  0
   -1.0011    0.4554   -0.4131 C   0  0  2  0  0  0  0  0  0  0  0  0
   -0.0236   -3.8212    0.1206 C   0  0  2  0  0  0  0  0  0  0  0  0
   -2.1725   -6.3494   -1.6230 C   0  0  2  0  0  0  0  0  0  0  0  0
    0.6494   -2.8642    1.6766 N   0  0  0  0  0  0  0  0  0  0  0  0
   -2.7359   -1.2991   -4.2555 O   0  0  0  0  0  0  0  0  0  0  0  0
   -1.8135    0.3522   -2.6880 O   0  0  0  0  0  0  0  0  0  0  0  0
   -4.6759   -2.1175    3.5700 O   0  0  0  0  0  0  0  0  0  0  0  0
   -0.0263   -6.6954   -3.7887 O   0  0  0  0  0  0  0  0  0  0  0  0
   -2.8339   -4.9905    3.0449 O   0  0  0  0  0  0  0  0  0  0  0  0
   -4.0680   -4.1606   -2.8243 O   0  0  0  0  0  0  0  0  0  0  0  0
    1.4094   -1.2095   -2.5073 O   0  0  0  0  0  0  0  0  0  0  0  0
   -3.8968   -2.1158    0.6328 O   0  0  0  0  0  0  0  0  0  0  0  0
   -5.5216   -3.8139    0.6837 O   0  0  0  0  0  0  0  0  0  0  0  0
   -5.8924   -2.2134   -0.6067 O   0  0  0  0  0  0  0  0  0  0  0  0
   -0.6466   -8.2598    0.0179 O   0  0  0  0  0  0  0  0  0  0  0  0
   -0.9850   -3.0097   -2.5055 O   0  0  0  0  0  0  0  0  0  0  0  0
   -2.5186   -1.7474   -0.6408 O   0  0  0  0  0  0  0  0  0  0  0  0
   -1.8561   -6.0294    1.9121 O   0  0  0  0  0  0  0  0  0  0  0  0
   -2.4101   -5.7266    0.0625 O   0  0  0  0  0  0  0  0  0  0  0  0
   -0.8208   -5.1032    0.6316 O   0  0  0  0  0  0  0  0  0  0  0  0
   -0.5661   -0.1445    0.8137 O   0  0  0  0  0  0  0  0  0  0  0  0
   -2.5366   -2.0869    1.7285 O   0  0  0  0  0  0  0  0  0  0  0  0
   -0.9070   -4.1169   -1.4752 O   0  0  0  0  0  0  0  0  0  0  0  0
   -1.1197   -5.7216   -2.3036 O   0  0  0  0  0  0  0  0  0  0  0  0
   -3.5373   -6.2118   -1.8976 O   0  0  0  0  0  0  0  0  0  0  0  0
   -2.7730    0.8675   -0.2979 O   0  0  0  0  0  0  0  0  0  0  0  0
    1.0519   -4.6708   -0.0013 O   0  0  0  0  0  0  0  0  0  0  0  0
    0.9397   -1.1020    1.7752 H   0  0  0  0  0  0  0  0  0  0  0  0
   -1.2409   -1.6118    0.9411 H   0  0  0  0  0  0  0  0  0  0  0  0
   -2.5477   -2.1403   -2.9720 H   0  0  0  0  0  0  0  0  0  0  0  0
   -2.9542   -0.0535    2.0379 H   0  0  0  0  0  0  0  0  0  0  0  0
    0.9421   -4.9891   -2.1701 H   0  0  0  0  0  0  0  0  0  0  0  0
    2.1578   -2.8334    0.0262 H   0  0  0  0  0  0  0  0  0  0  0  0
   -3.4452   -3.0348    2.5898 H   0  0  0  0  0  0  0  0  0  0  0  0
   -4.9931   -3.1006   -1.5424 H   0  0  0  0  0  0  0  0  0  0  0  0
    0.8358   -3.1445   -2.1167 H   0  0  0  0  0  0  0  0  0  0  0  0
   -4.4185   -4.0766    1.9453 H   0  0  0  0  0  0  0  0  0  0  0  0
   -4.3575   -5.7740    0.4870 H   0  0  0  0  0  0  0  0  0  0  0  0
   -4.3378   -1.8183   -2.4058 H   0  0  0  0  0  0  0  0  0  0  0  0
   -0.3251   -6.8022    1.4941 H   0  0  0  0  0  0  0  0  0  0  0  0
   -2.5737   -4.4334   -0.8584 H   0  0  0  0  0  0  0  0  0  0  0  0
   -0.9727   -1.2765   -2.8455 H   0  0  0  0  0  0  0  0  0  0  0  0
   -1.1108   -3.9061    2.7824 H   0  0  0  0  0  0  0  0  0  0  0  0
   -3.1602   -7.0663    0.1428 H   0  0  0  0  0  0  0  0  0  0  0  0
   -5.2173   -4.5690   -1.7604 H   0  0  0  0  0  0  0  0  0  0  0  0
   -4.9549   -0.1943   -0.4455 H   0  0  0  0  0  0  0  0  0  0  0  0
    1.4676   -6.3493    0.0653 H   0  0  0  0  0  0  0  0  0  0  0  0
   -2.7900   -4.5865    0.8954 H   0  0  0  0  0  0  0  0  0  0  0  0
   -0.5519    0.7377   -1.3118 H   0  0  0  0  0  0  0  0  0  0  0  0
    0.0100   -2.5553    0.2908 H   0  0  0  0  0  0  0  0  0  0  0  0
   -2.1281   -7.2130   -2.0688 H   0  0  0  0  0  0  0  0  0  0  0  0
    0.7526    1.1313    0.5820 H   0  0  0  0  0  0  0  0  0  0  0  0
    0.8784    0.3789   -0.8414 H   0  0  0  0  0  0  0  0  0  0  0  0
    2.2512    0.1393    0.0011 H   0  0  0  0  0  0  0  0  0  0  0  0
   -0.3687   -2.3320   -0.8877 H   0  0  0  0  0  0  0  0  0  0  0  0
   -1.5447   -3.2993   -4.2166 H   0  0  0  0  0  0  0  0  0  0  0  0
   -3.6105   -3.1496   -4.0299 H   0  0  0  0  0  0  0  0  0  0  0  0
   -3.3859   -0.3030   -1.6668 H   0  0  0  0  0  0  0  0  0  0  0  0
   -1.9985   -0.5860   -0.3276 H   0  0  0  0  0  0  0  0  0  0  0  0
   -5.7457   -1.2459    1.7198 H   0  0  0  0  0  0  0  0  0  0  0  0
   -5.1494   -2.5226    1.9852 H   0  0  0  0  0  0  0  0  0  0  0  0
    1.1855   -7.5561   -2.1979 H   0  0  0  0  0  0  0  0  0  0  0  0
   -0.4985   -7.5941   -2.1656 H   0  0  0  0  0  0  0  0  0  0  0  0
    0.3770   -3.8660    1.8129 H   0  0  0  0  0  0  0  0  0  0  0  0
   -3.2210   -0.8817   -3.4424 H   0  0  0  0  0  0  0  0  0  0  0  0
   -0.8475    0.1211   -2.8558 H   0  0  0  0  0  0  0  0  0  0  0  0
   -3.9737   -2.7964    3.7163 H   0  0  0  0  0  0  0  0  0  0  0  0
   -0.8410   -6.1061   -3.6941 H   0  0  0  0  0  0  0  0  0  0  0  0
   -1.8611   -5.4134    2.8657 H   0  0  0  0  0  0  0  0  0  0  0  0
   -3.3024   -5.0570   -2.7701 H   0  0  0  0  0  0  0  0  0  0  0  0
    1.1448   -0.4991   -1.9457 H   0  0  0  0  0  0  0  0  0  0  0  0
   -2.8948   -1.7321    0.6279 H   0  0  0  0  0  0  0  0  0  0  0  0
   -5.1655   -2.6621    0.5053 H   0  0  0  0  0  0  0  0  0  0  0  0
   -5.9513   -3.2748   -0.3257 H   0  0  0  0  0  0  0  0  0  0  0  0
   -1.0124   -8.0630   -0.8452 H   0  0  0  0  0  0  0  0  0  0  0  0
   -0.5268   -3.8664   -2.6295 H   0  0  0  0  0  0  0  0  0  0  0  0
   -3.3409   -2.4109   -1.6309 H   0  0  0  0  0  0  0  0  0  0  0  0
   -2.8088   -6.0848    1.5017 H   0  0  0  0  0  0  0  0  0  0  0  0
   -1.8025   -5.5546    0.8538 H   0  0  0  0  0  0  0  0  0  0  0  0
   -1.1129   -5.2159   -0.2701 H   0  0  0  0  0  0  0  0  0  0  0  0
  1 80  1  0  0  0  0
  1 81  1  0  0  0  0
  1 82  1  0  0  0  0
  2 83  1  0  0  0  0
  3 84  1  0  0  0  0
  3 85  1  0  0  0  0
  4 86  1  0  0  0  0
  4 87  1  0  0  0  0
  5 88  1  0  0  0  0
  5 89  1  0  0  0  0
  6 90  1  0  0  0  0
  6 91  1  0  0  0  0
  7  1  1  0  0  0  0
  7 56  1  1  0  0  0
  8  2  2  0  0  0  0
  8  3  1  0  0  0  0
  9  2  1  0  0  0  0
  9 32  1  0  0  0  0
  9 57  1  1  0  0  0
 10 58  1  6  0  0  0
 10  4  1  0  0  0  0
 11 59  1  1  0  0  0
 11  5  1  0  0  0  0
 12 60  1  6  0  0  0
 12  6  1  0  0  0  0
 13  7  1  0  0  0  0
 13 61  1  1  0  0  0
 13 32  1  0  0  0  0
 14  9  1  0  0  0  0
 14 62  1  1  0  0  0
 14 37  1  0  0  0  0
 15 10  1  0  0  0  0
 15 63  1  6  0  0  0
 15 38  1  0  0  0  0
 16 13  1  0  0  0  0
 16 39  1  0  0  0  0
 16 64  1  6  0  0  0
 17 15  1  0  0  0  0
 17 40  1  0  0  0  0
 17 65  1  1  0  0  0
 18 14  1  0  0  0  0
 18 66  1  1  0  0  0
 18 41  1  0  0  0  0
 19 42  1  0  0  0  0
 19 67  1  6  0  0  0
 20 43  1  0  0  0  0
 20 68  1  1  0  0  0
 21 19  1  0  0  0  0
 21 69  1  6  0  0  0
 21 44  1  0  0  0  0
 22 16  1  0  0  0  0
 22 70  1  6  0  0  0
 22 45  1  0  0  0  0
 23 17  1  0  0  0  0
 23 71  1  1  0  0  0
 23 46  1  0  0  0  0
 24 20  1  0  0  0  0
 24 72  1  1  0  0  0
 24 47  1  0  0  0  0
 25  8  1  0  0  0  0
 25 18  1  0  0  0  0
 25 53  1  0  0  0  0
 25 73  1  6  0  0  0
 26 11  1  0  0  0  0
 26 19  1  0  0  0  0
 26 54  1  0  0  0  0
 26 74  1  6  0  0  0
 27 12  1  0  0  0  0
 27 20  1  0  0  0  0
 27 75  1  6  0  0  0
 27 55  1  0  0  0  0
 28 21  1  0  0  0  0
 28 76  1  1  0  0  0
 28 48  1  0  0  0  0
 29 22  1  0  0  0  0
 29 77  1  6  0  0  0
 29 54  1  0  0  0  0
 30 23  1  0  0  0  0
 30 55  1  0  0  0  0
 30 78  1  1  0  0  0
 31 24  1  0  0  0  0
 31 53  1  0  0  0  0
 31 79  1  6  0  0  0
 32 92  1  0  0  0  0
 33  3  1  0  0  0  0
 33 93  1  0  0  0  0
 34  4  1  0  0  0  0
 34 94  1  0  0  0  0
 35  5  1  0  0  0  0
 35 95  1  0  0  0  0
 36  6  1  0  0  0  0
 36 96  1  0  0  0  0
 37 97  1  0  0  0  0
 38 98  1  0  0  0  0
 39 99  1  0  0  0  0
 40100  1  0  0  0  0
 41101  1  0  0  0  0
 42102  1  0  0  0  0
 43103  1  0  0  0  0
 44104  1  0  0  0  0
 45105  1  0  0  0  0
 46106  1  0  0  0  0
 47107  1  0  0  0  0
 48108  1  0  0  0  0
 49  7  1  0  0  0  0
 49 29  1  0  0  0  0
 50 11  1  0  0  0  0
 50 28  1  0  0  0  0
 51 10  1  0  0  0  0
 51 30  1  0  0  0  0
 52 12  1  0  0  0  0
 52 31  1  0  0  0  0
M  END
>  <DRUGBANK_ID>
DB04453

>  <SECONDARY_ACCESSION_NUMBERS>
EXPT00557

>  <COMMON_NAME>
4-O-(4,6-Dideoxy-4-{[4-[(4-O-Hexopyranosylhexopyranosyl)Oxy]-5,6-Dihydroxy-3-(Hydroxymethyl)Cyclohex-2-En-1-Yl]Amino}Hexopyranosyl)Hexopyranose

$$$$
