
 OpenBabel10282417233D

116116  0  0  1  0  0  0  0  0999 V2000
   -3.9546   -0.4437    9.0387 C   0  0  0  0  0  0  0  0  0  0  0  0
   -3.5241    0.9731    9.0930 C   0  0  1  0  0  0  0  0  0  0  0  0
   -2.9551    1.0704    7.7886 O   0  0  0  0  0  0  0  0  0  0  0  0
   -4.7280    2.0283    9.3886 C   0  0  2  0  0  0  0  0  0  0  0  0
   -4.8981    2.2763   10.8342 N   0  0  0  0  0  0  0  0  0  0  0  0
   -4.2274    3.1014   11.7233 C   0  0  0  0  0  0  0  0  0  0  0  0
   -4.5003    3.1300   12.9053 O   0  0  0  0  0  0  0  0  0  0  0  0
   -3.1078    3.9481   11.1808 C   0  0  2  0  0  0  0  0  0  0  0  0
   -1.8069    3.8919   12.1979 C   0  0  0  0  0  0  0  0  0  0  0  0
   -0.4925    3.9166   11.5538 C   0  0  0  0  0  0  0  0  0  0  0  0
    0.8953    3.9680   11.8845 C   0  0  0  0  0  0  0  0  0  0  0  0
    1.9699    3.7943   10.8999 C   0  0  0  0  0  0  0  0  0  0  0  0
    1.6394    3.3749    9.6248 C   0  0  0  0  0  0  0  0  0  0  0  0
    2.4266    3.7785    8.5194 O   0  0  0  0  0  0  0  0  0  0  0  0
    0.2304    3.3033    9.4877 C   0  0  0  0  0  0  0  0  0  0  0  0
   -0.7836    3.7516   10.2693 C   0  0  0  0  0  0  0  0  0  0  0  0
   -3.4842    5.2304   10.5036 N   0  0  0  0  0  0  0  0  0  0  0  0
   -3.5300    5.6069    9.1640 C   0  0  0  0  0  0  0  0  0  0  0  0
   -3.9254    6.7591    8.9064 O   0  0  0  0  0  0  0  0  0  0  0  0
   -3.0047    4.6975    7.8626 C   0  0  2  0  0  0  0  0  0  0  0  0
   -4.0363    4.6855    6.7411 C   0  0  0  0  0  0  0  0  0  0  0  0
   -3.9735    3.3124    6.0923 C   0  0  0  0  0  0  0  0  0  0  0  0
   -4.9977    2.5962    6.6037 N   0  0  0  0  0  0  0  0  0  0  0  0
   -3.1197    2.8275    5.4455 O   0  0  0  0  0  0  0  0  0  0  0  0
   -2.2340    3.4166    7.9196 N   0  0  0  0  0  0  0  0  0  0  0  0
   -1.0478    2.8621    7.3639 C   0  0  0  0  0  0  0  0  0  0  0  0
   -0.6637    1.7436    7.7694 O   0  0  0  0  0  0  0  0  0  0  0  0
   -0.0495    3.9522    6.8678 C   0  0  1  0  0  0  0  0  0  0  0  0
   -0.7481    4.4240    5.6460 N   0  0  0  0  0  0  0  0  0  0  0  0
   -1.4475    5.5886    5.2863 C   0  0  0  0  0  0  0  0  0  0  0  0
   -1.8474    5.6201    4.1135 O   0  0  0  0  0  0  0  0  0  0  0  0
   -1.3308    7.0805    6.0967 C   0  0  1  0  0  0  0  0  0  0  0  0
   -1.5620    7.4740    7.6218 N   0  0  0  0  0  0  0  0  0  0  0  0
   -0.7929    7.4562    8.8145 C   0  0  0  0  0  0  0  0  0  0  0  0
   -1.4197    7.3599    9.8867 O   0  0  0  0  0  0  0  0  0  0  0  0
    1.0004    7.6920    8.8767 C   0  0  1  0  0  0  0  0  0  0  0  0
    2.5904    6.8954    8.2156 N   0  0  0  0  0  0  0  0  0  0  0  0
    3.1530    6.8197    6.8662 C   0  0  0  0  0  0  0  0  0  0  0  0
    3.5595    5.6701    6.4896 O   0  0  0  0  0  0  0  0  0  0  0  0
    3.2005    8.0645    5.9565 C   0  0  2  0  0  0  0  0  0  0  0  0
    2.7872    8.4226    4.4047 C   0  0  0  0  0  0  0  0  0  0  0  0
    3.7102    7.9158    3.4826 O   0  0  0  0  0  0  0  0  0  0  0  0
    4.4707    8.5297    6.4154 N   0  0  0  0  0  0  0  0  0  0  0  0
    4.7565    9.3966    7.4639 C   0  0  0  0  0  0  0  0  0  0  0  0
    5.9746    9.5410    7.6358 O   0  0  0  0  0  0  0  0  0  0  0  0
    3.7292   10.3218    8.3980 C   0  0  1  0  0  0  0  0  0  0  0  0
    2.5646   10.9785    7.4565 C   0  0  0  0  0  0  0  0  0  0  0  0
    3.4245    9.7137    9.9460 N   0  0  0  0  0  0  0  0  0  0  0  0
    0.9197    8.9892    8.6070 C   0  0  1  0  0  0  0  0  0  0  0  0
    0.2763    9.9007    9.6182 C   0  0  0  0  0  0  0  0  0  0  0  0
    2.1851    8.9947    8.2817 O   0  0  0  0  0  0  0  0  0  0  0  0
    0.0793    7.2022    5.7636 C   0  0  1  0  0  0  0  0  0  0  0  0
    0.8737    6.7044    4.6534 C   0  0  0  0  0  0  0  0  0  0  0  0
    0.7312    8.2407    6.3202 O   0  0  0  0  0  0  0  0  0  0  0  0
    0.2776    5.2166    7.9200 C   0  0  1  0  0  0  0  0  0  0  0  0
    0.7820    5.6330    9.5002 C   0  0  0  0  0  0  0  0  0  0  0  0
    1.3378    5.6733    7.2248 O   0  0  0  0  0  0  0  0  0  0  0  0
   -6.1777    1.5991    8.7225 C   0  0  0  0  0  0  0  0  0  0  0  0
   -6.9360    2.4296    7.8736 N   0  0  0  0  0  0  0  0  0  0  0  0
   -6.6627    0.4915    8.9526 O   0  0  0  0  0  0  0  0  0  0  0  0
   -4.5618   -0.5642    8.1331 H   0  0  0  0  0  0  0  0  0  0  0  0
   -4.4946   -0.6747    9.9442 H   0  0  0  0  0  0  0  0  0  0  0  0
   -3.0852   -1.0966    8.8984 H   0  0  0  0  0  0  0  0  0  0  0  0
   -2.6944    1.1224    9.8072 H   0  0  0  0  0  0  0  0  0  0  0  0
   -2.0253    0.7023    7.8054 H   0  0  0  0  0  0  0  0  0  0  0  0
   -4.4347    3.0103    9.0266 H   0  0  0  0  0  0  0  0  0  0  0  0
   -5.5921    1.6988   11.2804 H   0  0  0  0  0  0  0  0  0  0  0  0
   -2.8536    3.3013   10.3560 H   0  0  0  0  0  0  0  0  0  0  0  0
   -1.7829    4.5974   13.0154 H   0  0  0  0  0  0  0  0  0  0  0  0
   -1.7140    2.8322   12.4675 H   0  0  0  0  0  0  0  0  0  0  0  0
    1.1530    4.5475   12.7618 H   0  0  0  0  0  0  0  0  0  0  0  0
    2.8292    4.4826   10.9863 H   0  0  0  0  0  0  0  0  0  0  0  0
    3.1696    4.4102    8.6930 H   0  0  0  0  0  0  0  0  0  0  0  0
   -0.3401    3.7888    8.7535 H   0  0  0  0  0  0  0  0  0  0  0  0
   -1.5235    4.5068    9.8349 H   0  0  0  0  0  0  0  0  0  0  0  0
   -3.5795    6.0319   11.1340 H   0  0  0  0  0  0  0  0  0  0  0  0
   -2.3086    5.3591    7.4183 H   0  0  0  0  0  0  0  0  0  0  0  0
   -5.0065    4.9538    7.1847 H   0  0  0  0  0  0  0  0  0  0  0  0
   -3.8691    5.3887    5.9302 H   0  0  0  0  0  0  0  0  0  0  0  0
   -4.8778    1.5876    6.6325 H   0  0  0  0  0  0  0  0  0  0  0  0
   -5.2115    2.9979    7.4946 H   0  0  0  0  0  0  0  0  0  0  0  0
   -2.5573    2.7393    8.5706 H   0  0  0  0  0  0  0  0  0  0  0  0
    0.9184    3.4757    6.5852 H   0  0  0  0  0  0  0  0  0  0  0  0
   -0.8716    3.6490    4.9923 H   0  0  0  0  0  0  0  0  0  0  0  0
   -1.7846    7.8974    5.5404 H   0  0  0  0  0  0  0  0  0  0  0  0
   -2.5551    7.4264    7.8716 H   0  0  0  0  0  0  0  0  0  0  0  0
    1.3275    7.7090    9.9889 H   0  0  0  0  0  0  0  0  0  0  0  0
    2.4135    5.9238    8.2289 H   0  0  0  0  0  0  0  0  0  0  0  0
    2.5676    8.7213    6.4332 H   0  0  0  0  0  0  0  0  0  0  0  0
    1.9453    8.1680    3.7549 H   0  0  0  0  0  0  0  0  0  0  0  0
    2.4427    9.4712    4.4026 H   0  0  0  0  0  0  0  0  0  0  0  0
    4.0514    7.1297    3.9380 H   0  0  0  0  0  0  0  0  0  0  0  0
    5.2146    7.8957    6.1307 H   0  0  0  0  0  0  0  0  0  0  0  0
    4.2614   11.1725    8.7740 H   0  0  0  0  0  0  0  0  0  0  0  0
    1.9523   10.3114    6.8272 H   0  0  0  0  0  0  0  0  0  0  0  0
    1.7993   11.5242    8.0044 H   0  0  0  0  0  0  0  0  0  0  0  0
    3.0068   11.5684    6.6746 H   0  0  0  0  0  0  0  0  0  0  0  0
    2.5879   10.2113   10.2738 H   0  0  0  0  0  0  0  0  0  0  0  0
    2.9662    8.7929    9.9354 H   0  0  0  0  0  0  0  0  0  0  0  0
    0.1778    9.1446    7.8301 H   0  0  0  0  0  0  0  0  0  0  0  0
    0.5599    9.6536   10.6321 H   0  0  0  0  0  0  0  0  0  0  0  0
    0.5002   10.9006    9.3051 H   0  0  0  0  0  0  0  0  0  0  0  0
   -0.8013    9.7667    9.5012 H   0  0  0  0  0  0  0  0  0  0  0  0
    2.7938    8.2124    8.5326 H   0  0  0  0  0  0  0  0  0  0  0  0
    0.2348    6.2897    6.1549 H   0  0  0  0  0  0  0  0  0  0  0  0
    0.5587    7.5731    4.1263 H   0  0  0  0  0  0  0  0  0  0  0  0
    1.9108    6.5173    4.9654 H   0  0  0  0  0  0  0  0  0  0  0  0
    0.7038    5.7892    4.1237 H   0  0  0  0  0  0  0  0  0  0  0  0
    0.3804    9.1197    6.1282 H   0  0  0  0  0  0  0  0  0  0  0  0
   -0.6264    5.7191    7.8337 H   0  0  0  0  0  0  0  0  0  0  0  0
    1.8585    5.7284    9.7257 H   0  0  0  0  0  0  0  0  0  0  0  0
    0.3283    6.3886   10.1556 H   0  0  0  0  0  0  0  0  0  0  0  0
    0.4270    5.2466   10.3226 H   0  0  0  0  0  0  0  0  0  0  0  0
    1.7609    5.0887    6.5959 H   0  0  0  0  0  0  0  0  0  0  0  0
   -7.5525    1.8769    7.2742 H   0  0  0  0  0  0  0  0  0  0  0  0
   -6.6605    3.1564    7.2020 H   0  0  0  0  0  0  0  0  0  0  0  0
  1 61  1  0  0  0  0
  1 62  1  0  0  0  0
  1 63  1  0  0  0  0
  2  1  1  0  0  0  0
  2  3  1  0  0  0  0
  2 64  1  1  0  0  0
  3 65  1  0  0  0  0
  4 58  1  0  0  0  0
  4 66  1  6  0  0  0
  4  5  1  0  0  0  0
  4  2  1  0  0  0  0
  5  6  1  0  0  0  0
  5 67  1  0  0  0  0
  6  7  2  0  0  0  0
  8 17  1  0  0  0  0
  8 68  1  6  0  0  0
  8  9  1  0  0  0  0
  8  6  1  0  0  0  0
  9 10  1  0  0  0  0
  9 69  1  0  0  0  0
  9 70  1  0  0  0  0
 10 11  2  0  0  0  0
 10 16  1  0  0  0  0
 11 12  1  0  0  0  0
 11 71  1  0  0  0  0
 12 13  2  0  0  0  0
 12 72  1  0  0  0  0
 13 14  1  0  0  0  0
 13 15  1  0  0  0  0
 14 73  1  0  0  0  0
 15 16  2  0  0  0  0
 15 74  1  0  0  0  0
 16 75  1  0  0  0  0
 17 18  1  0  0  0  0
 17 76  1  0  0  0  0
 18 19  2  0  0  0  0
 20 25  1  0  0  0  0
 20 77  1  6  0  0  0
 20 21  1  0  0  0  0
 20 18  1  0  0  0  0
 21 22  1  0  0  0  0
 21 78  1  0  0  0  0
 21 79  1  0  0  0  0
 22 23  1  0  0  0  0
 22 24  2  0  0  0  0
 23 80  1  0  0  0  0
 23 81  1  0  0  0  0
 25 26  1  0  0  0  0
 25 82  1  0  0  0  0
 26 27  2  0  0  0  0
 28 26  1  0  0  0  0
 28 29  1  0  0  0  0
 28 55  1  0  0  0  0
 28 83  1  6  0  0  0
 29 30  1  0  0  0  0
 29 84  1  0  0  0  0
 30 31  2  0  0  0  0
 32 30  1  0  0  0  0
 32 33  1  0  0  0  0
 32 52  1  0  0  0  0
 32 85  1  6  0  0  0
 33 34  1  0  0  0  0
 33 86  1  0  0  0  0
 34 35  2  0  0  0  0
 36 34  1  0  0  0  0
 36 37  1  0  0  0  0
 36 49  1  0  0  0  0
 36 87  1  1  0  0  0
 37 38  1  0  0  0  0
 37 88  1  0  0  0  0
 38 39  2  0  0  0  0
 40 43  1  0  0  0  0
 40 89  1  1  0  0  0
 40 41  1  0  0  0  0
 40 38  1  0  0  0  0
 41 42  1  0  0  0  0
 41 90  1  0  0  0  0
 41 91  1  0  0  0  0
 42 92  1  0  0  0  0
 43 44  1  0  0  0  0
 43 93  1  0  0  0  0
 44 45  2  0  0  0  0
 46 44  1  0  0  0  0
 46 47  1  0  0  0  0
 46 48  1  0  0  0  0
 46 94  1  1  0  0  0
 47 95  1  0  0  0  0
 47 96  1  0  0  0  0
 47 97  1  0  0  0  0
 48 98  1  0  0  0  0
 48 99  1  0  0  0  0
 49 50  1  0  0  0  0
 49 51  1  0  0  0  0
 49100  1  6  0  0  0
 50101  1  0  0  0  0
 50102  1  0  0  0  0
 50103  1  0  0  0  0
 51104  1  0  0  0  0
 52 53  1  0  0  0  0
 52 54  1  0  0  0  0
 52105  1  1  0  0  0
 53106  1  0  0  0  0
 53107  1  0  0  0  0
 53108  1  0  0  0  0
 54109  1  0  0  0  0
 55 56  1  0  0  0  0
 55 57  1  0  0  0  0
 55110  1  6  0  0  0
 56111  1  0  0  0  0
 56112  1  0  0  0  0
 56113  1  0  0  0  0
 57114  1  0  0  0  0
 58 59  1  0  0  0  0
 58 60  2  0  0  0  0
 59115  1  0  0  0  0
 59116  1  0  0  0  0
M  END
>  <DRUGBANK_ID>
DB16290

>  <COMMON_NAME>
DAPTA

>  <CAS_NUMBER>
106362-34-9

>  <UNII>
J208V4ZMP2

>  <SYNONYMS>
Adaptavir; Peptide t amide, 1(d-ala)

$$$$
