
 OpenBabel10282417113D

 99103  0  0  0  0  0  0  0  0999 V2000
    0.3865    2.2453    0.5063 N   0  0  0  0  0  0  0  0  0  0  0  0
    0.6882    3.3251   -0.7167 C   0  0  1  0  0  0  0  0  0  0  0  0
    1.7134    1.0893    0.8089 C   0  0  0  0  0  0  0  0  0  0  0  0
   -0.8562    1.5279   -0.1039 C   0  0  0  0  0  0  0  0  0  0  0  0
    1.2500    2.7302   -2.5825 C   0  0  0  0  0  0  0  0  0  0  0  0
   -0.2918    4.2677   -1.0247 C   0  0  0  0  0  0  0  0  0  0  0  0
    2.2768    0.0179   -0.5016 C   0  0  2  0  0  0  0  0  0  0  0  0
   -0.6523    1.0986   -1.5265 C   0  0  2  0  0  0  0  0  0  0  0  0
    2.5506    1.2263   -1.9561 C   0  0  1  0  0  0  0  0  0  0  0  0
    0.0946    5.5566   -0.7736 N   0  0  0  0  0  0  0  0  0  0  0  0
   -1.2047    3.7900   -1.6768 O   0  0  0  0  0  0  0  0  0  0  0  0
    0.8932   -1.1134   -1.0920 C   0  0  0  0  0  0  0  0  0  0  0  0
    0.8937    1.4015   -1.4969 C   0  0  2  0  0  0  0  0  0  0  0  0
   -1.3645    1.4873   -2.6777 O   0  0  0  0  0  0  0  0  0  0  0  0
    2.6484    0.6368   -3.8402 C   0  0  0  0  0  0  0  0  0  0  0  0
    0.1507   -1.1381   -2.9923 C   0  0  0  0  0  0  0  0  0  0  0  0
    2.4565    2.8323   -1.2948 C   0  0  0  0  0  0  0  0  0  0  0  0
    1.3364    0.1465   -2.5788 N   0  0  0  0  0  0  0  0  0  0  0  0
    1.1033   -0.1950   -4.4927 C   0  0  0  0  0  0  0  0  0  0  0  0
    3.9447    2.4141   -2.4158 C   0  0  0  0  0  0  0  0  0  0  0  0
    2.3888   -1.3600   -2.7411 C   0  0  0  0  0  0  0  0  0  0  0  0
    3.1340   -2.0728   -4.3061 C   0  0  1  0  0  0  0  0  0  0  0  0
    3.0986   -1.8707   -1.8501 O   0  0  0  0  0  0  0  0  0  0  0  0
    4.8395   -2.0595   -4.5323 N   0  0  0  0  0  0  0  0  0  0  0  0
    2.7446   -3.4885   -4.1166 C   0  0  0  0  0  0  0  0  0  0  0  0
    5.9106   -2.8461   -4.9538 C   0  0  0  0  0  0  0  0  0  0  0  0
    1.2783   -3.6976   -3.8558 C   0  0  0  0  0  0  0  0  0  0  0  0
    7.5132   -2.0526   -5.4829 C   0  0  0  0  0  0  0  0  0  0  0  0
    5.7032   -4.0229   -4.6338 O   0  0  0  0  0  0  0  0  0  0  0  0
    0.4965   -3.7611   -4.9622 N   0  0  0  0  0  0  0  0  0  0  0  0
    0.7459   -3.6745   -2.7469 O   0  0  0  0  0  0  0  0  0  0  0  0
    7.9943   -0.9085   -6.4692 N   0  0  0  0  0  0  0  0  0  0  0  0
    7.9634   -1.5348   -4.3766 C   0  0  0  0  0  0  0  0  0  0  0  0
    8.4163    0.7173   -6.0684 C   0  0  0  0  0  0  0  0  0  0  0  0
    7.4166   -0.2886   -4.4672 C   0  0  0  0  0  0  0  0  0  0  0  0
    8.0541    0.8862   -4.8061 C   0  0  0  0  0  0  0  0  0  0  0  0
    8.9746    2.2369   -6.2514 C   0  0  0  0  0  0  0  0  0  0  0  0
    7.9159    2.1217   -3.9680 C   0  0  0  0  0  0  0  0  0  0  0  0
    8.7347    3.4896   -5.4675 C   0  0  0  0  0  0  0  0  0  0  0  0
    7.9392    3.4309   -4.4016 C   0  0  0  0  0  0  0  0  0  0  0  0
    3.2357   -0.4483   -0.1835 H   0  0  0  0  0  0  0  0  0  0  0  0
    3.5098    1.4698   -0.9604 H   0  0  0  0  0  0  0  0  0  0  0  0
    4.6701    0.5758   -4.0280 C   0  0  0  0  0  0  0  0  0  0  0  0
    4.4437    0.8419   -2.6110 C   0  0  0  0  0  0  0  0  0  0  0  0
    4.7978    3.2810   -2.6354 C   0  0  0  0  0  0  0  0  0  0  0  0
    5.5657    2.5344   -3.4405 C   0  0  0  0  0  0  0  0  0  0  0  0
    5.6557    1.2654   -4.0986 C   0  0  0  0  0  0  0  0  0  0  0  0
   -0.8886    6.5639   -0.9866 C   0  0  0  0  0  0  0  0  0  0  0  0
   -1.2204    7.2014    0.3484 C   0  0  0  0  0  0  0  0  0  0  0  0
   -0.3565    7.5882   -1.9659 C   0  0  0  0  0  0  0  0  0  0  0  0
   -2.1597    5.9392   -1.5617 C   0  0  0  0  0  0  0  0  0  0  0  0
    1.4143    3.9457   -0.1107 H   0  0  0  0  0  0  0  0  0  0  0  0
    2.5977    1.6462    1.1446 H   0  0  0  0  0  0  0  0  0  0  0  0
    1.3321    0.3416    1.5017 H   0  0  0  0  0  0  0  0  0  0  0  0
   -1.0402    0.6316    0.4844 H   0  0  0  0  0  0  0  0  0  0  0  0
   -1.6819    2.1792   -0.2387 H   0  0  0  0  0  0  0  0  0  0  0  0
    0.4241    2.3837   -3.2394 H   0  0  0  0  0  0  0  0  0  0  0  0
    1.7563    3.3684   -3.3445 H   0  0  0  0  0  0  0  0  0  0  0  0
   -0.9359    0.0306   -1.4899 H   0  0  0  0  0  0  0  0  0  0  0  0
    1.0051    5.8003   -0.3675 H   0  0  0  0  0  0  0  0  0  0  0  0
    0.1885   -0.8055   -0.3390 H   0  0  0  0  0  0  0  0  0  0  0  0
    1.2545   -2.0771   -0.7847 H   0  0  0  0  0  0  0  0  0  0  0  0
    0.8561    0.8430   -0.6729 H   0  0  0  0  0  0  0  0  0  0  0  0
   -1.1849    2.4268   -2.8168 H   0  0  0  0  0  0  0  0  0  0  0  0
    2.9317    1.5849   -4.4038 H   0  0  0  0  0  0  0  0  0  0  0  0
    3.3804   -0.3518   -3.5247 H   0  0  0  0  0  0  0  0  0  0  0  0
   -0.7170   -0.5550   -3.2190 H   0  0  0  0  0  0  0  0  0  0  0  0
    0.6226   -1.9382   -3.3749 H   0  0  0  0  0  0  0  0  0  0  0  0
    2.3131    4.0050   -1.7385 H   0  0  0  0  0  0  0  0  0  0  0  0
    2.8554    2.9346   -0.2870 H   0  0  0  0  0  0  0  0  0  0  0  0
    1.1697    0.9115   -3.2718 H   0  0  0  0  0  0  0  0  0  0  0  0
    0.4988    0.6770   -4.8130 H   0  0  0  0  0  0  0  0  0  0  0  0
    1.4726   -0.7604   -5.3187 H   0  0  0  0  0  0  0  0  0  0  0  0
    2.8743   -1.6955   -5.3006 H   0  0  0  0  0  0  0  0  0  0  0  0
    5.2926   -1.2242   -4.3137 H   0  0  0  0  0  0  0  0  0  0  0  0
    3.0529   -3.9438   -5.0460 H   0  0  0  0  0  0  0  0  0  0  0  0
    3.2896   -3.8098   -3.2315 H   0  0  0  0  0  0  0  0  0  0  0  0
   -0.4868   -3.8841   -4.7395 H   0  0  0  0  0  0  0  0  0  0  0  0
    0.8852   -4.2840   -5.7305 H   0  0  0  0  0  0  0  0  0  0  0  0
    9.0460   -1.4639   -4.3355 H   0  0  0  0  0  0  0  0  0  0  0  0
    6.4920   -0.3095   -5.2437 H   0  0  0  0  0  0  0  0  0  0  0  0
    9.5975    2.4771   -7.1083 H   0  0  0  0  0  0  0  0  0  0  0  0
    7.4523    1.9640   -2.9820 H   0  0  0  0  0  0  0  0  0  0  0  0
    9.1867    4.4688   -5.6149 H   0  0  0  0  0  0  0  0  0  0  0  0
    7.4484    4.2750   -3.8833 H   0  0  0  0  0  0  0  0  0  0  0  0
    4.1988   -0.1183   -4.8211 H   0  0  0  0  0  0  0  0  0  0  0  0
    3.8801    0.0154   -1.9722 H   0  0  0  0  0  0  0  0  0  0  0  0
    4.9272    3.7748   -1.7089 H   0  0  0  0  0  0  0  0  0  0  0  0
    5.7893    3.1029   -4.2720 H   0  0  0  0  0  0  0  0  0  0  0  0
    6.0750    0.4170   -3.3942 H   0  0  0  0  0  0  0  0  0  0  0  0
   -0.3467    7.7029    0.7769 H   0  0  0  0  0  0  0  0  0  0  0  0
   -2.0148    7.9350    0.2047 H   0  0  0  0  0  0  0  0  0  0  0  0
   -1.5636    6.4495    1.0694 H   0  0  0  0  0  0  0  0  0  0  0  0
   -0.0799    7.1158   -2.9158 H   0  0  0  0  0  0  0  0  0  0  0  0
   -1.1340    8.3297   -2.1585 H   0  0  0  0  0  0  0  0  0  0  0  0
    0.5281    8.0958   -1.5696 H   0  0  0  0  0  0  0  0  0  0  0  0
   -1.9282    5.4716   -2.5355 H   0  0  0  0  0  0  0  0  0  0  0  0
   -2.5470    5.1780   -0.8579 H   0  0  0  0  0  0  0  0  0  0  0  0
   -2.9506    6.6431   -1.7350 H   0  0  0  0  0  0  0  0  0  0  0  0
  1  2  1  0  0  0  0
  1  3  1  0  0  0  0
  1  4  1  0  0  0  0
  2  5  1  0  0  0  0
  2  6  1  0  0  0  0
  2 52  1  1  0  0  0
  3  7  1  0  0  0  0
  3 53  1  0  0  0  0
  3 54  1  0  0  0  0
  4 55  1  0  0  0  0
  4 56  1  0  0  0  0
  5  9  1  0  0  0  0
  5 57  1  0  0  0  0
  5 58  1  0  0  0  0
  6 10  1  0  0  0  0
  6 11  2  0  0  0  0
  7 12  1  0  0  0  0
  7  9  1  0  0  0  0
  7 41  1  1  0  0  0
  8 14  1  0  0  0  0
  8 59  1  1  0  0  0
  8 13  1  0  0  0  0
  8  4  1  0  0  0  0
  9 15  1  0  0  0  0
  9 42  1  1  0  0  0
 10 48  1  0  0  0  0
 10 60  1  0  0  0  0
 12 16  1  0  0  0  0
 12 61  1  0  0  0  0
 12 62  1  0  0  0  0
 13 63  1  1  0  0  0
 13 18  1  0  0  0  0
 13 17  1  0  0  0  0
 14 64  1  0  0  0  0
 15 19  1  0  0  0  0
 15 65  1  0  0  0  0
 15 66  1  0  0  0  0
 16 19  1  0  0  0  0
 16 67  1  0  0  0  0
 16 68  1  0  0  0  0
 17 20  1  0  0  0  0
 17 69  1  0  0  0  0
 17 70  1  0  0  0  0
 18 21  1  0  0  0  0
 18 71  1  0  0  0  0
 19 72  1  0  0  0  0
 19 73  1  0  0  0  0
 20 45  1  0  0  0  0
 21 22  1  0  0  0  0
 21 23  2  0  0  0  0
 22 24  1  0  0  0  0
 22 25  1  0  0  0  0
 22 74  1  6  0  0  0
 24 26  1  0  0  0  0
 24 75  1  0  0  0  0
 25 27  1  0  0  0  0
 25 76  1  0  0  0  0
 25 77  1  0  0  0  0
 26 28  1  0  0  0  0
 26 29  2  0  0  0  0
 27 30  1  0  0  0  0
 27 31  2  0  0  0  0
 28 32  2  0  0  0  0
 28 33  1  0  0  0  0
 30 78  1  0  0  0  0
 30 79  1  0  0  0  0
 32 34  1  0  0  0  0
 33 35  2  0  0  0  0
 33 80  1  0  0  0  0
 34 36  2  0  0  0  0
 34 37  1  0  0  0  0
 35 36  1  0  0  0  0
 35 81  1  0  0  0  0
 36 38  1  0  0  0  0
 37 39  2  0  0  0  0
 37 82  1  0  0  0  0
 38 40  2  0  0  0  0
 38 83  1  0  0  0  0
 39 40  1  0  0  0  0
 39 84  1  0  0  0  0
 40 85  1  0  0  0  0
 43 44  1  0  0  0  0
 43 47  2  0  0  0  0
 43 86  1  0  0  0  0
 44 20  2  0  0  0  0
 44 87  1  0  0  0  0
 45 46  2  0  0  0  0
 45 88  1  0  0  0  0
 46 47  1  0  0  0  0
 46 89  1  0  0  0  0
 47 90  1  0  0  0  0
 48 49  1  0  0  0  0
 48 50  1  0  0  0  0
 48 51  1  0  0  0  0
 49 91  1  0  0  0  0
 49 92  1  0  0  0  0
 49 93  1  0  0  0  0
 50 94  1  0  0  0  0
 50 95  1  0  0  0  0
 50 96  1  0  0  0  0
 51 97  1  0  0  0  0
 51 98  1  0  0  0  0
 51 99  1  0  0  0  0
M  END
>  <DRUGBANK_ID>
DB01232

>  <SECONDARY_ACCESSION_NUMBERS>
APRD00623

>  <COMMON_NAME>
Saquinavir

>  <CAS_NUMBER>
127779-20-8

>  <UNII>
L3JE09KZ2F

>  <SYNONYMS>
Saquinavir

$$$$
