
 OpenBabel10282417123D

 77 84  0  0  0  0  0  0  0  0999 V2000
   -3.2949   -0.8105   -4.9389 C   0  0  0  0  0  0  0  0  0  0  0  0
   -1.4836   -1.3694    6.8382 C   0  0  0  0  0  0  0  0  0  0  0  0
   -0.5906   -2.1152   -1.6312 C   0  0  0  0  0  0  0  0  0  0  0  0
    2.4559    0.2666    2.8340 C   0  0  0  0  0  0  0  0  0  0  0  0
   -3.0574    2.2609   -2.1287 C   0  0  0  0  0  0  0  0  0  0  0  0
   -7.1393    0.5493    5.8293 C   0  0  0  0  0  0  0  0  0  0  0  0
   -2.9828    0.4282   -4.4709 C   0  0  0  0  0  0  0  0  0  0  0  0
   -0.4686   -1.0630    5.9859 C   0  0  0  0  0  0  0  0  0  0  0  0
   -1.3021   -1.3859   -2.5326 C   0  0  0  0  0  0  0  0  0  0  0  0
    1.6172   -0.1600    3.8164 C   0  0  0  0  0  0  0  0  0  0  0  0
   -5.1101    1.0732   -0.0676 C   0  0  0  0  0  0  0  0  0  0  0  0
   -8.4444    2.2307    3.5181 C   0  0  0  0  0  0  0  0  0  0  0  0
   -4.7859    0.6934    1.3681 C   0  0  0  0  0  0  0  0  0  0  0  0
   -8.6093    3.7417    3.5229 C   0  0  0  0  0  0  0  0  0  0  0  0
   -4.1574    3.0195   -2.2140 C   0  0  0  0  0  0  0  0  0  0  0  0
   -3.6789    0.4107    4.7797 C   0  0  0  0  0  0  0  0  0  0  0  0
    0.5160    1.4260    1.6063 C   0  0  0  0  0  0  0  0  0  0  0  0
   -6.5403    3.0433    1.5497 C   0  0  0  0  0  0  0  0  0  0  0  0
   -3.9637    3.0399   -1.1894 C   0  0  0  0  0  0  0  0  0  0  0  0
   -6.4364    1.1322    4.6143 C   0  0  0  0  0  0  0  0  0  0  0  0
   -2.7571    0.6440   -2.9833 C   0  0  0  0  0  0  0  0  0  0  0  0
   -0.7432   -0.2275    4.7462 C   0  0  0  0  0  0  0  0  0  0  0  0
   -2.0226   -0.1231   -2.0892 C   0  0  0  0  0  0  0  0  0  0  0  0
    0.1396    0.1919    3.7602 C   0  0  0  0  0  0  0  0  0  0  0  0
   -4.8800    2.5631   -0.2618 C   0  0  0  0  0  0  0  0  0  0  0  0
   -6.9659    1.8822    3.5730 C   0  0  0  0  0  0  0  0  0  0  0  0
   -4.1271    4.8052   -0.9913 C   0  0  0  0  0  0  0  0  0  0  0  0
   -4.7158    1.0309    4.1544 C   0  0  0  0  0  0  0  0  0  0  0  0
   -3.3670    1.9490   -1.9311 C   0  0  0  0  0  0  0  0  0  0  0  0
   -2.2840    0.4699    4.1787 C   0  0  0  0  0  0  0  0  0  0  0  0
   -1.9757    0.3088   -0.7876 C   0  0  0  0  0  0  0  0  0  0  0  0
   -0.3804    0.9380    2.7326 C   0  0  0  0  0  0  0  0  0  0  0  0
   -5.5688    3.4959    0.4719 C   0  0  0  0  0  0  0  0  0  0  0  0
   -6.0959    2.2952    2.5954 C   0  0  0  0  0  0  0  0  0  0  0  0
   -5.6854    1.4726    2.3138 C   0  0  0  0  0  0  0  0  0  0  0  0
   -7.9043    4.3323    2.3127 C   0  0  0  0  0  0  0  0  0  0  0  0
   -2.7749    2.3169    1.3874 Fe  0  0  3  0  0  0  0  0  0  0  0  0
   -5.3348    4.8179    0.2525 N   0  0  0  0  0  0  0  0  0  0  0  0
   -4.7838    1.9476    2.6845 N   0  0  0  0  0  0  0  0  0  0  0  0
   -2.6470    1.4393   -0.4386 N   0  0  0  0  0  0  0  0  0  0  0  0
   -1.7078    1.2357    2.7340 N   0  0  0  0  0  0  0  0  0  0  0  0
   -6.5603    0.7809    3.1927 O   0  0  0  0  0  0  0  0  0  0  0  0
   -5.6544    2.7431    2.3178 O   0  0  0  0  0  0  0  0  0  0  0  0
   -8.6421    5.0760    1.3541 O   0  0  0  0  0  0  0  0  0  0  0  0
   -6.6546    4.1603    2.1587 O   0  0  0  0  0  0  0  0  0  0  0  0
   -3.3815   -1.6328   -4.2598 H   0  0  0  0  0  0  0  0  0  0  0  0
   -3.4538   -0.9624   -5.9861 H   0  0  0  0  0  0  0  0  0  0  0  0
   -1.2903   -1.9576    7.7109 H   0  0  0  0  0  0  0  0  0  0  0  0
   -2.4753   -1.0223    6.6359 H   0  0  0  0  0  0  0  0  0  0  0  0
   -0.0834   -3.0041   -1.9433 H   0  0  0  0  0  0  0  0  0  0  0  0
   -0.5383   -1.7999   -0.6100 H   0  0  0  0  0  0  0  0  0  0  0  0
    3.4961    0.0190    2.8736 H   0  0  0  0  0  0  0  0  0  0  0  0
    2.0754    0.8499    2.0216 H   0  0  0  0  0  0  0  0  0  0  0  0
   -3.2844    2.5220   -3.1413 H   0  0  0  0  0  0  0  0  0  0  0  0
   -2.0359    2.5005   -1.9190 H   0  0  0  0  0  0  0  0  0  0  0  0
   -3.2141    1.2120   -1.9872 H   0  0  0  0  0  0  0  0  0  0  0  0
   -7.0293   -0.5151    5.8286 H   0  0  0  0  0  0  0  0  0  0  0  0
   -6.7046    0.9521    6.7202 H   0  0  0  0  0  0  0  0  0  0  0  0
   -8.1788    0.8004    5.7946 H   0  0  0  0  0  0  0  0  0  0  0  0
   -2.8962    1.2505   -5.1500 H   0  0  0  0  0  0  0  0  0  0  0  0
    0.5231   -1.4101    6.1882 H   0  0  0  0  0  0  0  0  0  0  0  0
   -1.3544   -1.7011   -3.5538 H   0  0  0  0  0  0  0  0  0  0  0  0
    1.9978   -0.7433    4.6288 H   0  0  0  0  0  0  0  0  0  0  0  0
   -6.1335    0.8403   -0.2757 H   0  0  0  0  0  0  0  0  0  0  0  0
   -4.4769    0.5247   -0.7333 H   0  0  0  0  0  0  0  0  0  0  0  0
   -8.8728    1.8280    2.6241 H   0  0  0  0  0  0  0  0  0  0  0  0
   -8.9407    1.8150    4.3700 H   0  0  0  0  0  0  0  0  0  0  0  0
   -4.9479   -0.3554    1.5048 H   0  0  0  0  0  0  0  0  0  0  0  0
   -3.7625    0.9264    1.5762 H   0  0  0  0  0  0  0  0  0  0  0  0
   -9.6501    3.9870    3.4843 H   0  0  0  0  0  0  0  0  0  0  0  0
   -8.1809    4.1444    4.4169 H   0  0  0  0  0  0  0  0  0  0  0  0
   -4.5130    3.1733   -3.2113 H   0  0  0  0  0  0  0  0  0  0  0  0
   -3.8453   -0.1187    5.6945 H   0  0  0  0  0  0  0  0  0  0  0  0
    1.5592    1.1881    1.6116 H   0  0  0  0  0  0  0  0  0  0  0  0
   -7.5738    3.3131    1.4860 H   0  0  0  0  0  0  0  0  0  0  0  0
   -6.5846   -0.2188    3.1895 H   0  0  0  0  0  0  0  0  0  0  0  0
   -9.6255    5.2113    1.4753 H   0  0  0  0  0  0  0  0  0  0  0  0
  1 46  1  0  0  0  0
  1 47  1  0  0  0  0
  2 48  1  0  0  0  0
  2 49  1  0  0  0  0
  3 50  1  0  0  0  0
  3 51  1  0  0  0  0
  4 52  1  0  0  0  0
  4 53  1  0  0  0  0
  5 54  1  0  0  0  0
  5 55  1  0  0  0  0
  5 56  1  0  0  0  0
  6 57  1  0  0  0  0
  6 58  1  0  0  0  0
  6 59  1  0  0  0  0
  7  1  2  0  0  0  0
  7 60  1  0  0  0  0
  8  2  2  0  0  0  0
  8 61  1  0  0  0  0
  9  3  2  0  0  0  0
  9 62  1  0  0  0  0
 10  4  2  0  0  0  0
 10 63  1  0  0  0  0
 11 64  1  0  0  0  0
 11 65  1  0  0  0  0
 12 66  1  0  0  0  0
 12 67  1  0  0  0  0
 13 11  1  0  0  0  0
 13 68  1  0  0  0  0
 13 69  1  0  0  0  0
 14 12  1  0  0  0  0
 14 70  1  0  0  0  0
 14 71  1  0  0  0  0
 15 72  1  0  0  0  0
 16 73  1  0  0  0  0
 17 74  1  0  0  0  0
 18 75  1  0  0  0  0
 19  5  1  0  0  0  0
 20  6  1  0  0  0  0
 21  7  1  0  0  0  0
 22  8  1  0  0  0  0
 23  9  1  0  0  0  0
 23 21  2  0  0  0  0
 24 10  1  0  0  0  0
 24 22  1  0  0  0  0
 25 11  1  0  0  0  0
 25 19  1  0  0  0  0
 26 12  1  0  0  0  0
 26 20  2  0  0  0  0
 27 15  1  0  0  0  0
 27 19  2  0  0  0  0
 28 16  2  0  0  0  0
 28 20  1  0  0  0  0
 29 15  2  0  0  0  0
 29 21  1  0  0  0  0
 30 16  1  0  0  0  0
 30 22  2  0  0  0  0
 31 17  2  0  0  0  0
 31 23  1  0  0  0  0
 32 17  1  0  0  0  0
 32 24  2  0  0  0  0
 33 18  1  0  0  0  0
 33 25  2  0  0  0  0
 34 18  2  0  0  0  0
 34 26  1  0  0  0  0
 35 13  1  0  0  0  0
 36 14  1  0  0  0  0
 38 27  1  0  0  0  0
 38 33  1  0  0  0  0
 38 37  1  0  0  0  0
 39 28  1  0  0  0  0
 39 34  1  0  0  0  0
 39 37  1  0  0  0  0
 40 29  1  0  0  0  0
 40 31  1  0  0  0  0
 40 37  1  0  0  0  0
 41 30  1  0  0  0  0
 41 32  1  0  0  0  0
 41 37  1  0  0  0  0
 42 35  1  0  0  0  0
 42 76  1  0  0  0  0
 43 35  2  0  0  0  0
 44 36  1  0  0  0  0
 44 77  1  0  0  0  0
 45 36  2  0  0  0  0
M  END
>  <DRUGBANK_ID>
DB02199

>  <SECONDARY_ACCESSION_NUMBERS>
EXPT01729

>  <COMMON_NAME>
1,3-Dedimethyl-1,3-Divinyl Heme

$$$$
