
 OpenBabel10282417183D

 20 19  0  0  0  0  0  0  0  0999 V2000
    0.9818    0.0822   -0.0540 C   0  0  3  0  0  0  0  0  0  0  0  0
    0.3718    0.5271   -1.7209 P   0  0  0  0  0  0  0  0  0  0  0  0
    0.6200   -1.3604    0.4317 C   0  0  0  0  0  0  0  0  0  0  0  0
    0.5008    1.0260    0.9543 O   0  0  0  0  0  0  0  0  0  0  0  0
   -1.0975    0.8302   -0.9921 O   0  0  0  0  0  0  0  0  0  0  0  0
    1.1438    2.0136   -1.4985 O   0  0  0  0  0  0  0  0  0  0  0  0
   -0.1443    0.9036   -3.1314 O   0  0  0  0  0  0  0  0  0  0  0  0
    1.7143   -1.8126    1.8274 Cl  0  0  0  0  0  0  0  0  0  0  0  0
   -1.0233   -1.5671    1.1464 Cl  0  0  0  0  0  0  0  0  0  0  0  0
    0.8906   -2.5721   -0.8516 Cl  0  0  0  0  0  0  0  0  0  0  0  0
   -2.1211   -0.0856   -1.3808 C   0  0  0  0  0  0  0  0  0  0  0  0
    2.4034    2.1958   -0.8370 C   0  0  0  0  0  0  0  0  0  0  0  0
    2.0699    0.0570   -0.0203 H   0  0  0  0  0  0  0  0  0  0  0  0
   -0.4275    1.2003    0.7260 H   0  0  0  0  0  0  0  0  0  0  0  0
   -2.3788    0.0258   -2.4342 H   0  0  0  0  0  0  0  0  0  0  0  0
   -1.7667   -1.1095   -1.2537 H   0  0  0  0  0  0  0  0  0  0  0  0
   -3.0002    0.0743   -0.7548 H   0  0  0  0  0  0  0  0  0  0  0  0
    2.2273    2.3974    0.2264 H   0  0  0  0  0  0  0  0  0  0  0  0
    3.0799    1.3395   -0.9491 H   0  0  0  0  0  0  0  0  0  0  0  0
    2.9377    3.0605   -1.2301 H   0  0  0  0  0  0  0  0  0  0  0  0
  1  2  1  0  0  0  0
  1  3  1  0  0  0  0
  1  4  1  0  0  0  0
  1 13  1  0  0  0  0
  2  5  1  0  0  0  0
  2  6  1  0  0  0  0
  2  7  2  0  0  0  0
  3  8  1  0  0  0  0
  3  9  1  0  0  0  0
  3 10  1  0  0  0  0
  4 14  1  0  0  0  0
  5 11  1  0  0  0  0
  6 12  1  0  0  0  0
 11 15  1  0  0  0  0
 11 16  1  0  0  0  0
 11 17  1  0  0  0  0
 12 18  1  0  0  0  0
 12 19  1  0  0  0  0
 12 20  1  0  0  0  0
M  END
>  <DRUGBANK_ID>
DB11473

>  <COMMON_NAME>
Metrifonate

>  <CAS_NUMBER>
52-68-6

>  <UNII>
DBF2DG4G2K

>  <SYNONYMS>
(±)-Trichlorfon; 1-Hydroxy-2,2,2-trichloroethylphosphonic acid dimethyl ester; Chlorophos; Methyl chlorophos; Metrifonate; Métrifonate; Metrifonato; Metrifonatum; Trichlorfon

$$$$
