
 OpenBabel10282417123D

 14 14  0  0  0  0  0  0  0  0999 V2000
    3.6901   -0.0585   -2.0620 I   0  0  0  0  0  0  0  0  0  0  0  0
    3.0409    2.0851    1.0779 O   0  0  0  0  0  0  0  0  0  0  0  0
    6.5320    0.0436    2.1940 O   0  0  0  0  0  0  0  0  0  0  0  0
    5.0754   -1.1978    0.9586 N   0  0  0  0  0  0  0  0  0  0  0  0
    5.0652    1.0845    0.7950 N   0  0  0  0  0  0  0  0  0  0  0  0
    3.0904   -0.0941    0.0284 C   0  0  1  0  0  0  0  0  0  0  0  0
    3.6507   -1.3115    0.7451 C   0  0  0  0  0  0  0  0  0  0  0  0
    3.7022    1.1360    0.6683 C   0  0  0  0  0  0  0  0  0  0  0  0
    5.6142   -0.0170    1.3769 C   0  0  0  0  0  0  0  0  0  0  0  0
    5.7120   -1.9719    0.8073 H   0  0  0  0  0  0  0  0  0  0  0  0
    5.5160    1.9495    1.0474 H   0  0  0  0  0  0  0  0  0  0  0  0
    1.9986   -0.0614    0.0956 H   0  0  0  0  0  0  0  0  0  0  0  0
    3.4440   -2.2492    0.2211 H   0  0  0  0  0  0  0  0  0  0  0  0
    3.2070   -1.3822    1.7478 H   0  0  0  0  0  0  0  0  0  0  0  0
  2  8  2  0  0  0  0
  3  9  2  0  0  0  0
  4  7  1  0  0  0  0
  4  9  1  0  0  0  0
  4 10  1  0  0  0  0
  5  8  1  0  0  0  0
  5  9  1  0  0  0  0
  5 11  1  0  0  0  0
  6  7  1  0  0  0  0
  6  8  1  0  0  0  0
  6 12  1  1  0  0  0
  6  1  1  0  0  0  0
  7 13  1  0  0  0  0
  7 14  1  0  0  0  0
M  END
>  <DRUGBANK_ID>
DB02303

>  <SECONDARY_ACCESSION_NUMBERS>
EXPT01839

>  <COMMON_NAME>
(5S)-5-Iododihydro-2,4(1H,3H)-pyrimidinedione

$$$$
