LT5
 OpenBabel10282417173D

 24 24  0  0  0  0  0  0  0  0999 V2000
    0.8029   -2.3209    3.8834 F   0  0  0  0  0  0  0  0  0  0  0  0
    0.8761   -3.6529    4.1543 C   0  0  0  0  0  0  0  0  0  0  0  0
    1.2011   -3.7517    5.4726 F   0  0  0  0  0  0  0  0  0  0  0  0
   -0.3949   -4.1284    4.0434 F   0  0  0  0  0  0  0  0  0  0  0  0
    1.8311   -4.3809    3.2434 C   0  0  0  0  0  0  0  0  0  0  0  0
    1.7907   -4.1313    1.8595 C   0  0  0  0  0  0  0  0  0  0  0  0
    2.6962   -5.3625    3.7393 C   0  0  0  0  0  0  0  0  0  0  0  0
    3.5476   -6.0504    2.8809 C   0  0  0  0  0  0  0  0  0  0  0  0
    3.5020   -5.7908    1.5127 C   0  0  0  0  0  0  0  0  0  0  0  0
    2.5828   -4.8796    0.9745 C   0  0  0  0  0  0  0  0  0  0  0  0
    2.3320   -4.7626   -0.5237 C   0  0  1  0  0  0  0  0  0  0  0  0
    2.7304   -3.4869   -1.0207 O   0  0  0  0  0  0  0  0  0  0  0  0
    3.0061   -5.8963   -1.3408 C   0  0  0  0  0  0  0  0  0  0  0  0
    2.7039   -5.8919   -2.7718 N   0  0  0  0  0  0  0  0  0  0  0  0
    1.2467   -4.8452   -0.6748 H   0  0  0  0  0  0  0  0  0  0  0  0
    1.1012   -3.3828    1.4717 H   0  0  0  0  0  0  0  0  0  0  0  0
    2.7114   -5.6052    4.8015 H   0  0  0  0  0  0  0  0  0  0  0  0
    4.2228   -6.8108    3.2605 H   0  0  0  0  0  0  0  0  0  0  0  0
    4.1801   -6.3593    0.8799 H   0  0  0  0  0  0  0  0  0  0  0  0
    2.8626   -2.8831   -0.2746 H   0  0  0  0  0  0  0  0  0  0  0  0
    4.0944   -5.8178   -1.2421 H   0  0  0  0  0  0  0  0  0  0  0  0
    2.6976   -6.8678   -0.9326 H   0  0  0  0  0  0  0  0  0  0  0  0
    3.1595   -6.6886   -3.2106 H   0  0  0  0  0  0  0  0  0  0  0  0
    1.7021   -5.9943   -2.9119 H   0  0  0  0  0  0  0  0  0  0  0  0
  1  2  1  0  0  0  0
  2  3  1  0  0  0  0
  4  2  1  0  0  0  0
  5  2  1  0  0  0  0
  5  7  1  0  0  0  0
  6  5  2  0  0  0  0
  6 16  1  0  0  0  0
  7 17  1  0  0  0  0
  8  7  2  0  0  0  0
  8 18  1  0  0  0  0
  9  8  1  0  0  0  0
  9 19  1  0  0  0  0
 10  6  1  0  0  0  0
 10  9  2  0  0  0  0
 11 15  1  6  0  0  0
 11 12  1  0  0  0  0
 11 10  1  0  0  0  0
 12 20  1  0  0  0  0
 13 11  1  0  0  0  0
 13 21  1  0  0  0  0
 13 22  1  0  0  0  0
 14 13  1  0  0  0  0
 14 23  1  0  0  0  0
 14 24  1  0  0  0  0
M  END
>  <DRUGBANK_ID>
DB08129

>  <COMMON_NAME>
(1R)-2-amino-1-[3-(trifluoromethyl)phenyl]ethanol

$$$$
