
 OpenBabel10282417223D

 73 77  0  0  1  0  0  0  0  0999 V2000
    0.8914   -0.1545   -0.9708 C   0  0  0  0  0  0  0  0  0  0  0  0
    0.8044   -1.6446   -0.7007 C   0  0  0  0  0  0  0  0  0  0  0  0
    1.7215   -2.3883    0.1366 O   0  0  0  0  0  0  0  0  0  0  0  0
    2.7272   -2.1159    0.9912 C   0  0  0  0  0  0  0  0  0  0  0  0
    3.2981   -0.9312    1.2412 C   0  0  0  0  0  0  0  0  0  0  0  0
    2.7272    0.3405    1.2297 N   0  0  0  0  0  0  0  0  0  0  0  0
    1.4164    0.7249    1.4649 C   0  0  0  0  0  0  0  0  0  0  0  0
    1.1429    1.8818    1.1075 O   0  0  0  0  0  0  0  0  0  0  0  0
    0.2386   -0.3161    1.7779 C   0  0  0  0  0  0  0  0  0  0  0  0
    0.3841   -1.6304    2.0538 C   0  0  0  0  0  0  0  0  0  0  0  0
   -0.4364   -2.9498    1.9538 C   0  0  1  0  0  0  0  0  0  0  0  0
   -0.1658   -4.3107    1.1236 C   0  0  0  0  0  0  0  0  0  0  0  0
    0.0893   -5.4275    2.1382 C   0  0  0  0  0  0  0  0  0  0  0  0
    0.3319   -4.6844    3.4292 C   0  0  0  0  0  0  0  0  0  0  0  0
   -0.4978   -3.4687    3.3415 N   0  0  0  0  0  0  0  0  0  0  0  0
   -0.0300   -2.4906    4.3432 C   0  0  0  0  0  0  0  0  0  0  0  0
    4.6349   -1.0761    1.4012 C   0  0  0  0  0  0  0  0  0  0  0  0
    5.2657   -2.1891    1.9995 C   0  0  0  0  0  0  0  0  0  0  0  0
    4.4332   -3.2532    2.3313 C   0  0  0  0  0  0  0  0  0  0  0  0
    3.1746   -3.1925    1.7873 C   0  0  0  0  0  0  0  0  0  0  0  0
    4.8365   -4.3750    2.9480 N   0  0  0  0  0  0  0  0  0  0  0  0
    6.1574   -4.4980    3.1678 C   0  0  0  0  0  0  0  0  0  0  0  0
    7.0913   -3.5151    2.8344 C   0  0  0  0  0  0  0  0  0  0  0  0
    8.4511   -3.7788    3.0881 C   0  0  0  0  0  0  0  0  0  0  0  0
    9.6021   -3.9770    3.2808 N   0  0  0  0  0  0  0  0  0  0  0  0
    6.6571   -2.3063    2.2470 C   0  0  0  0  0  0  0  0  0  0  0  0
    7.5702   -1.2451    1.9395 N   0  0  0  0  0  0  0  0  0  0  0  0
    7.2770    0.0548    1.4491 C   0  0  0  0  0  0  0  0  0  0  0  0
    6.4478    0.9190    2.1953 C   0  0  0  0  0  0  0  0  0  0  0  0
    5.8848    2.0677    1.6163 C   0  0  0  0  0  0  0  0  0  0  0  0
    6.1165    2.3680    0.2691 C   0  0  0  0  0  0  0  0  0  0  0  0
    5.7483    3.6413   -0.0788 O   0  0  0  0  0  0  0  0  0  0  0  0
    6.4013    4.2638   -1.2053 C   0  0  0  0  0  0  0  0  0  0  0  0
    7.9306    4.4196   -1.1300 C   0  0  0  0  0  0  0  0  0  0  0  0
    8.4670    5.6497   -1.2037 N   0  0  0  0  0  0  0  0  0  0  0  0
    9.8295    5.7305   -1.1409 C   0  0  0  0  0  0  0  0  0  0  0  0
   10.7137    4.6574   -1.0814 C   0  0  0  0  0  0  0  0  0  0  0  0
   10.1803    3.4106   -1.0583 C   0  0  0  0  0  0  0  0  0  0  0  0
    8.8105    3.3387   -1.0222 C   0  0  0  0  0  0  0  0  0  0  0  0
    6.7417    1.3844   -0.5209 C   0  0  0  0  0  0  0  0  0  0  0  0
    6.7832    1.3714   -2.2818 Cl  0  0  0  0  0  0  0  0  0  0  0  0
    7.4843    0.3530    0.0984 C   0  0  0  0  0  0  0  0  0  0  0  0
    0.1737    0.3959   -0.3518 H   0  0  0  0  0  0  0  0  0  0  0  0
    0.5339    0.2403   -1.9129 H   0  0  0  0  0  0  0  0  0  0  0  0
    1.9181    0.1602   -0.8554 H   0  0  0  0  0  0  0  0  0  0  0  0
   -0.2259   -1.8448   -0.3611 H   0  0  0  0  0  0  0  0  0  0  0  0
    0.8871   -2.1770   -1.6324 H   0  0  0  0  0  0  0  0  0  0  0  0
    3.3059    1.0842    0.8286 H   0  0  0  0  0  0  0  0  0  0  0  0
   -0.7352   -0.0292    1.3826 H   0  0  0  0  0  0  0  0  0  0  0  0
    1.3210   -1.8474    2.5170 H   0  0  0  0  0  0  0  0  0  0  0  0
   -1.3831   -2.6325    1.5002 H   0  0  0  0  0  0  0  0  0  0  0  0
    0.5918   -4.3404    0.3287 H   0  0  0  0  0  0  0  0  0  0  0  0
   -1.0948   -4.5968    0.6014 H   0  0  0  0  0  0  0  0  0  0  0  0
    0.9197   -6.0919    1.8534 H   0  0  0  0  0  0  0  0  0  0  0  0
   -0.7957   -6.0694    2.2379 H   0  0  0  0  0  0  0  0  0  0  0  0
    1.4018   -4.4830    3.5504 H   0  0  0  0  0  0  0  0  0  0  0  0
    0.0390   -5.2774    4.2966 H   0  0  0  0  0  0  0  0  0  0  0  0
    1.0590   -2.3018    4.2975 H   0  0  0  0  0  0  0  0  0  0  0  0
   -0.5453   -1.5308    4.1964 H   0  0  0  0  0  0  0  0  0  0  0  0
   -0.2257   -2.8101    5.3553 H   0  0  0  0  0  0  0  0  0  0  0  0
    5.1715   -0.3035    0.9164 H   0  0  0  0  0  0  0  0  0  0  0  0
    2.5158   -4.0258    1.9594 H   0  0  0  0  0  0  0  0  0  0  0  0
    6.4499   -5.4519    3.6078 H   0  0  0  0  0  0  0  0  0  0  0  0
    8.5614   -1.4533    1.9999 H   0  0  0  0  0  0  0  0  0  0  0  0
    6.0408    0.5662    3.1452 H   0  0  0  0  0  0  0  0  0  0  0  0
    5.1721    2.6573    2.1942 H   0  0  0  0  0  0  0  0  0  0  0  0
    6.0529    3.7683   -2.1151 H   0  0  0  0  0  0  0  0  0  0  0  0
    5.9545    5.2651   -1.3140 H   0  0  0  0  0  0  0  0  0  0  0  0
   10.2202    6.7388   -1.1257 H   0  0  0  0  0  0  0  0  0  0  0  0
   11.7844    4.7671   -1.0239 H   0  0  0  0  0  0  0  0  0  0  0  0
   10.7459    2.4826   -1.0268 H   0  0  0  0  0  0  0  0  0  0  0  0
    8.5519    2.3272   -0.8789 H   0  0  0  0  0  0  0  0  0  0  0  0
    8.1420   -0.2595   -0.5141 H   0  0  0  0  0  0  0  0  0  0  0  0
  1  2  1  0  0  0  0
  1 43  1  0  0  0  0
  1 44  1  0  0  0  0
  1 45  1  0  0  0  0
  2  3  1  0  0  0  0
  2 46  1  0  0  0  0
  2 47  1  0  0  0  0
  3  4  1  0  0  0  0
  4  5  2  0  0  0  0
  4 20  1  0  0  0  0
  5  6  1  0  0  0  0
  5 17  1  0  0  0  0
  6  7  1  0  0  0  0
  6 48  1  0  0  0  0
  7  8  2  0  0  0  0
  7  9  1  0  0  0  0
  9 10  2  0  0  0  0
  9 49  1  0  0  0  0
 10 50  1  0  0  0  0
 11 10  1  0  0  0  0
 11 12  1  0  0  0  0
 11 15  1  0  0  0  0
 11 51  1  6  0  0  0
 12 13  1  0  0  0  0
 12 52  1  0  0  0  0
 12 53  1  0  0  0  0
 13 14  1  0  0  0  0
 13 54  1  0  0  0  0
 13 55  1  0  0  0  0
 14 15  1  0  0  0  0
 14 56  1  0  0  0  0
 14 57  1  0  0  0  0
 15 16  1  0  0  0  0
 16 58  1  0  0  0  0
 16 59  1  0  0  0  0
 16 60  1  0  0  0  0
 17 18  2  0  0  0  0
 17 61  1  0  0  0  0
 18 19  1  0  0  0  0
 18 26  1  0  0  0  0
 19 20  2  0  0  0  0
 19 21  1  0  0  0  0
 20 62  1  0  0  0  0
 21 22  2  0  0  0  0
 22 23  1  0  0  0  0
 22 63  1  0  0  0  0
 23 24  1  0  0  0  0
 23 26  2  0  0  0  0
 24 25  3  0  0  0  0
 26 27  1  0  0  0  0
 27 28  1  0  0  0  0
 27 64  1  0  0  0  0
 28 29  2  0  0  0  0
 28 42  1  0  0  0  0
 29 30  1  0  0  0  0
 29 65  1  0  0  0  0
 30 31  2  0  0  0  0
 30 66  1  0  0  0  0
 31 32  1  0  0  0  0
 31 40  1  0  0  0  0
 32 33  1  0  0  0  0
 33 34  1  0  0  0  0
 33 67  1  0  0  0  0
 33 68  1  0  0  0  0
 34 35  2  0  0  0  0
 34 39  1  0  0  0  0
 35 36  1  0  0  0  0
 36 37  2  0  0  0  0
 36 69  1  0  0  0  0
 37 38  1  0  0  0  0
 37 70  1  0  0  0  0
 38 39  2  0  0  0  0
 38 71  1  0  0  0  0
 39 72  1  0  0  0  0
 40 41  1  0  0  0  0
 40 42  2  0  0  0  0
 42 73  1  0  0  0  0
M  END
>  <DRUGBANK_ID>
DB14993

>  <COMMON_NAME>
Pyrotinib

>  <CAS_NUMBER>
1269662-73-8

>  <UNII>
CJN36EQM0H

$$$$
