
 OpenBabel10282417203D

120126  0  0  0  0  0  0  0  0999 V2000
    3.9211   -2.8518    3.1967 C   0  0  0  0  0  0  0  0  0  0  0  0
    3.1520   -2.7186    1.9286 C   0  0  0  0  0  0  0  0  0  0  0  0
    1.4451   -3.3798    2.3606 C   0  0  1  0  0  0  0  0  0  0  0  0
    1.3861   -4.6395    1.4023 C   0  0  0  0  0  0  0  0  0  0  0  0
    2.0713   -4.8910    3.5817 C   0  0  2  0  0  0  0  0  0  0  0  0
    1.5551   -6.5225    5.1011 C   0  0  0  0  0  0  0  0  0  0  0  0
    2.7183   -7.1310    5.8986 C   0  0  0  0  0  0  0  0  0  0  0  0
    4.3845   -6.5948    5.2991 C   0  0  2  0  0  0  0  0  0  0  0  0
    4.7141   -5.5939    3.6316 C   0  0  1  0  0  0  0  0  0  0  0  0
    3.5259   -4.3122    3.4668 C   0  0  1  0  0  0  0  0  0  0  0  0
    5.0807   -6.4166    1.8856 C   0  0  0  0  0  0  0  0  0  0  0  0
    5.7831   -7.6310    2.0601 C   0  0  0  0  0  0  0  0  0  0  0  0
    4.8957   -7.9010    3.0892 C   0  0  0  0  0  0  0  0  0  0  0  0
    5.2951   -7.6687    4.6357 C   0  0  1  0  0  0  0  0  0  0  0  0
    5.1543   -8.9658    5.3840 C   0  0  0  0  0  0  0  0  0  0  0  0
    3.7950   -9.7298    5.3330 C   0  0  0  0  0  0  0  0  0  0  0  0
    3.2253   -9.9154    3.9002 C   0  0  2  0  0  0  0  0  0  0  0  0
    3.1256   -8.9631    2.8907 C   0  0  1  0  0  0  0  0  0  0  0  0
    2.5350   -9.3880    1.0374 C   0  0  0  0  0  0  0  0  0  0  0  0
    1.1482   -9.4393    1.5068 C   0  0  1  0  0  0  0  0  0  0  0  0
    1.0913  -10.5592    2.4822 C   0  0  0  0  0  0  0  0  0  0  0  0
    1.9462  -10.6355    3.7577 C   0  0  0  0  0  0  0  0  0  0  0  0
    0.0850   -5.1129    0.6758 C   0  0  0  0  0  0  0  0  0  0  0  0
    1.8267   -5.9706    0.7909 C   0  0  0  0  0  0  0  0  0  0  0  0
    2.7700   -4.8842    2.5044 C   0  0  0  0  0  0  0  0  0  0  0  0
    4.5682   -6.1707    6.7701 C   0  0  0  0  0  0  0  0  0  0  0  0
    6.6863   -7.0307    4.5403 C   0  0  0  0  0  0  0  0  0  0  0  0
    4.2228   -9.8183    2.7479 C   0  0  0  0  0  0  0  0  0  0  0  0
   -0.1558   -8.8799    1.2664 C   0  0  0  0  0  0  0  0  0  0  0  0
   -0.0553   -8.5651    0.5293 C   0  0  0  0  0  0  0  0  0  0  0  0
    1.1260   -4.6714    4.1692 H   0  0  0  0  0  0  0  0  0  0  0  0
    5.6264   -5.2155    4.1439 H   0  0  0  0  0  0  0  0  0  0  0  0
    1.9794   -8.6637    3.2536 H   0  0  0  0  0  0  0  0  0  0  0  0
   -1.6451   -8.7334    0.5264 O   0  0  0  0  0  0  0  0  0  0  0  0
    0.5115   -8.0138   -0.6422 O   0  0  0  0  0  0  0  0  0  0  0  0
    4.7867   -6.3427    0.6720 O   0  0  0  0  0  0  0  0  0  0  0  0
   -0.0592   -3.6920    2.4886 O   0  0  0  0  0  0  0  0  0  0  0  0
   -0.5486   -4.4375    3.6014 C   0  0  2  0  0  0  0  0  0  0  0  0
    0.0792   -3.3352    4.6895 C   0  0  1  0  0  0  0  0  0  0  0  0
   -0.1498   -5.9940    3.5555 O   0  0  0  0  0  0  0  0  0  0  0  0
    1.6952   -3.2863    5.0154 C   0  0  2  0  0  0  0  0  0  0  0  0
    1.4053   -6.3473    3.5841 C   0  0  1  0  0  0  0  0  0  0  0  0
    2.4057   -5.0418    5.1577 C   0  0  1  0  0  0  0  0  0  0  0  0
   -0.3790   -2.0223    4.2790 O   0  0  0  0  0  0  0  0  0  0  0  0
    2.4906   -2.5028    5.8379 O   0  0  0  0  0  0  0  0  0  0  0  0
    3.9369   -4.4110    5.4468 O   0  0  0  0  0  0  0  0  0  0  0  0
    2.5236   -7.0374    3.0888 C   0  0  0  0  0  0  0  0  0  0  0  0
    2.7490   -7.4307    1.8873 O   0  0  0  0  0  0  0  0  0  0  0  0
    0.1413   -1.3534    3.0587 C   0  0  1  0  0  0  0  0  0  0  0  0
   -0.2915   -1.9710    1.4256 C   0  0  1  0  0  0  0  0  0  0  0  0
   -0.3662   -0.0401    3.0138 O   0  0  0  0  0  0  0  0  0  0  0  0
    0.2373   -1.2087    0.3214 C   0  0  2  0  0  0  0  0  0  0  0  0
    0.1365    0.6161    1.8525 C   0  0  1  0  0  0  0  0  0  0  0  0
   -0.3347    0.0807    0.5071 C   0  0  1  0  0  0  0  0  0  0  0  0
    0.5458   -2.9557    0.5411 O   0  0  0  0  0  0  0  0  0  0  0  0
   -0.1152   -1.8759   -0.9599 O   0  0  0  0  0  0  0  0  0  0  0  0
    0.2052    0.7717   -0.5928 O   0  0  0  0  0  0  0  0  0  0  0  0
   -0.3935    2.0052    1.8541 C   0  0  0  0  0  0  0  0  0  0  0  0
   -1.7426    2.1346    1.8569 O   0  0  0  0  0  0  0  0  0  0  0  0
    3.2649   -7.2837    3.9513 O   0  0  0  0  0  0  0  0  0  0  0  0
    0.3669    2.9613    1.8118 O   0  0  0  0  0  0  0  0  0  0  0  0
    3.7198   -1.9335    3.7662 H   0  0  0  0  0  0  0  0  0  0  0  0
    4.8404   -2.9242    3.7728 H   0  0  0  0  0  0  0  0  0  0  0  0
    3.1222   -1.8253    1.3503 H   0  0  0  0  0  0  0  0  0  0  0  0
    3.8277   -3.2966    1.2648 H   0  0  0  0  0  0  0  0  0  0  0  0
    1.4091   -2.3835    2.1112 H   0  0  0  0  0  0  0  0  0  0  0  0
    0.5638   -7.3454    4.6853 H   0  0  0  0  0  0  0  0  0  0  0  0
    1.7216   -7.7428    4.7902 H   0  0  0  0  0  0  0  0  0  0  0  0
    2.0999   -6.9250    6.7716 H   0  0  0  0  0  0  0  0  0  0  0  0
    2.6976   -8.1620    6.1221 H   0  0  0  0  0  0  0  0  0  0  0  0
    6.7688   -7.2061    1.9480 H   0  0  0  0  0  0  0  0  0  0  0  0
    5.7329   -8.8033    6.2800 H   0  0  0  0  0  0  0  0  0  0  0  0
    5.7365   -9.7471    4.9092 H   0  0  0  0  0  0  0  0  0  0  0  0
    3.0600   -9.6971    6.1649 H   0  0  0  0  0  0  0  0  0  0  0  0
    4.0909  -10.7376    5.5560 H   0  0  0  0  0  0  0  0  0  0  0  0
    2.5946   -8.5899    0.2582 H   0  0  0  0  0  0  0  0  0  0  0  0
    3.5453   -9.5367    0.7213 H   0  0  0  0  0  0  0  0  0  0  0  0
    0.0874  -10.9380    2.4693 H   0  0  0  0  0  0  0  0  0  0  0  0
    1.6865  -11.3464    2.0592 H   0  0  0  0  0  0  0  0  0  0  0  0
    1.3026  -11.0568    4.5110 H   0  0  0  0  0  0  0  0  0  0  0  0
    2.6899  -11.4074    3.6186 H   0  0  0  0  0  0  0  0  0  0  0  0
   -0.5593   -4.3917    0.2848 H   0  0  0  0  0  0  0  0  0  0  0  0
    0.4758   -5.3955   -0.3299 H   0  0  0  0  0  0  0  0  0  0  0  0
   -0.5606   -5.7367    1.2664 H   0  0  0  0  0  0  0  0  0  0  0  0
    1.5751   -6.6517    0.0327 H   0  0  0  0  0  0  0  0  0  0  0  0
    2.8890   -6.1119    0.7915 H   0  0  0  0  0  0  0  0  0  0  0  0
    1.0113   -6.6719    1.3819 H   0  0  0  0  0  0  0  0  0  0  0  0
    3.1395   -4.6206    1.5119 H   0  0  0  0  0  0  0  0  0  0  0  0
    3.4462   -5.6058    2.3236 H   0  0  0  0  0  0  0  0  0  0  0  0
    1.0648   -5.0831    2.6529 H   0  0  0  0  0  0  0  0  0  0  0  0
    4.7745   -7.0625    7.3512 H   0  0  0  0  0  0  0  0  0  0  0  0
    5.2402   -5.3455    6.8871 H   0  0  0  0  0  0  0  0  0  0  0  0
    3.6061   -5.8035    7.2330 H   0  0  0  0  0  0  0  0  0  0  0  0
    7.3377   -7.7807    4.1385 H   0  0  0  0  0  0  0  0  0  0  0  0
    6.8123   -6.2273    3.7773 H   0  0  0  0  0  0  0  0  0  0  0  0
    6.9150   -6.5676    5.4920 H   0  0  0  0  0  0  0  0  0  0  0  0
    5.0274   -9.6587    3.4144 H   0  0  0  0  0  0  0  0  0  0  0  0
    4.7425  -10.3601    2.0492 H   0  0  0  0  0  0  0  0  0  0  0  0
    4.2402   -8.7569    1.7517 H   0  0  0  0  0  0  0  0  0  0  0  0
   -0.5949   -9.6043   -0.2309 H   0  0  0  0  0  0  0  0  0  0  0  0
   -0.8102   -9.0362    2.2565 H   0  0  0  0  0  0  0  0  0  0  0  0
   -0.4735   -7.4239    1.5093 H   0  0  0  0  0  0  0  0  0  0  0  0
   -0.2833   -7.6474   -1.0796 H   0  0  0  0  0  0  0  0  0  0  0  0
   -1.6307   -4.4675    3.4646 H   0  0  0  0  0  0  0  0  0  0  0  0
   -0.2271   -3.8094    5.5993 H   0  0  0  0  0  0  0  0  0  0  0  0
    2.0276   -2.7563    4.1363 H   0  0  0  0  0  0  0  0  0  0  0  0
    1.5984   -6.3094    2.5964 H   0  0  0  0  0  0  0  0  0  0  0  0
    1.9929   -5.1082    6.1785 H   0  0  0  0  0  0  0  0  0  0  0  0
    3.3671   -2.8939    5.5640 H   0  0  0  0  0  0  0  0  0  0  0  0
    4.6154   -4.2461    4.7445 H   0  0  0  0  0  0  0  0  0  0  0  0
    1.9930   -7.7062    1.3784 H   0  0  0  0  0  0  0  0  0  0  0  0
    1.2369   -1.1987    3.2180 H   0  0  0  0  0  0  0  0  0  0  0  0
   -1.3158   -2.3745    1.5319 H   0  0  0  0  0  0  0  0  0  0  0  0
    1.3586   -1.1930    0.3804 H   0  0  0  0  0  0  0  0  0  0  0  0
    1.2426    0.6042    1.8651 H   0  0  0  0  0  0  0  0  0  0  0  0
   -1.4115   -0.0923    0.4768 H   0  0  0  0  0  0  0  0  0  0  0  0
    1.5363   -3.0091    0.5170 H   0  0  0  0  0  0  0  0  0  0  0  0
    0.3770   -2.7442   -0.8354 H   0  0  0  0  0  0  0  0  0  0  0  0
    1.1789    0.6971   -0.5476 H   0  0  0  0  0  0  0  0  0  0  0  0
   -2.3048    1.3322    1.8772 H   0  0  0  0  0  0  0  0  0  0  0  0
  1 10  1  0  0  0  0
  1 62  1  0  0  0  0
  1 63  1  0  0  0  0
  2  1  1  0  0  0  0
  2 64  1  0  0  0  0
  2 65  1  0  0  0  0
  3  4  1  0  0  0  0
  3  2  1  0  0  0  0
  3 66  1  6  0  0  0
  3 37  1  0  0  0  0
  4  5  1  0  0  0  0
  4 23  1  0  0  0  0
  4 24  1  0  0  0  0
  5 10  1  0  0  0  0
  5 31  1  6  0  0  0
  6  5  1  0  0  0  0
  6 67  1  0  0  0  0
  6 68  1  0  0  0  0
  7  8  1  0  0  0  0
  7  6  1  0  0  0  0
  7 69  1  0  0  0  0
  7 70  1  0  0  0  0
  8  9  1  0  0  0  0
  8 26  1  1  0  0  0
  9 10  1  0  0  0  0
  9 32  1  6  0  0  0
 10 25  1  1  0  0  0
 11  9  1  0  0  0  0
 12 11  1  0  0  0  0
 12 71  1  0  0  0  0
 13 12  2  0  0  0  0
 13 14  1  0  0  0  0
 14  8  1  0  0  0  0
 14 27  1  6  0  0  0
 15 14  1  0  0  0  0
 15 72  1  0  0  0  0
 15 73  1  0  0  0  0
 16 15  1  0  0  0  0
 16 74  1  0  0  0  0
 16 75  1  0  0  0  0
 17 16  1  0  0  0  0
 17 18  1  0  0  0  0
 17 28  1  6  0  0  0
 18 13  1  0  0  0  0
 18 33  1  6  0  0  0
 19 18  1  0  0  0  0
 19 76  1  0  0  0  0
 19 77  1  0  0  0  0
 20 19  1  0  0  0  0
 20 29  1  0  0  0  0
 20 30  1  6  0  0  0
 21 20  1  0  0  0  0
 21 22  1  0  0  0  0
 21 78  1  0  0  0  0
 21 79  1  0  0  0  0
 22 17  1  0  0  0  0
 22 80  1  0  0  0  0
 22 81  1  0  0  0  0
 23 82  1  0  0  0  0
 23 83  1  0  0  0  0
 23 84  1  0  0  0  0
 24 85  1  0  0  0  0
 24 86  1  0  0  0  0
 24 87  1  0  0  0  0
 25 88  1  0  0  0  0
 25 89  1  0  0  0  0
 25 90  1  0  0  0  0
 26 91  1  0  0  0  0
 26 92  1  0  0  0  0
 26 93  1  0  0  0  0
 27 94  1  0  0  0  0
 27 95  1  0  0  0  0
 27 96  1  0  0  0  0
 28 97  1  0  0  0  0
 28 98  1  0  0  0  0
 28 99  1  0  0  0  0
 29100  1  0  0  0  0
 29101  1  0  0  0  0
 29102  1  0  0  0  0
 34 30  2  0  0  0  0
 35 30  1  0  0  0  0
 35103  1  0  0  0  0
 36 11  2  0  0  0  0
 38 39  1  0  0  0  0
 38 40  1  0  0  0  0
 38 37  1  0  0  0  0
 38104  1  1  0  0  0
 39 41  1  0  0  0  0
 39 44  1  0  0  0  0
 39105  1  1  0  0  0
 40 42  1  0  0  0  0
 41 43  1  0  0  0  0
 41106  1  6  0  0  0
 41 45  1  0  0  0  0
 42 43  1  0  0  0  0
 42107  1  6  0  0  0
 42 47  1  0  0  0  0
 43 46  1  0  0  0  0
 43108  1  1  0  0  0
 45109  1  0  0  0  0
 46110  1  0  0  0  0
 48 47  1  0  0  0  0
 48111  1  0  0  0  0
 49 50  1  0  0  0  0
 49 51  1  0  0  0  0
 49112  1  1  0  0  0
 49 44  1  0  0  0  0
 50 52  1  0  0  0  0
 50 55  1  0  0  0  0
 50113  1  6  0  0  0
 51 53  1  0  0  0  0
 52 54  1  0  0  0  0
 52114  1  1  0  0  0
 52 56  1  0  0  0  0
 53 54  1  0  0  0  0
 53115  1  1  0  0  0
 53 58  1  0  0  0  0
 54 57  1  0  0  0  0
 54116  1  6  0  0  0
 55117  1  0  0  0  0
 56118  1  0  0  0  0
 57119  1  0  0  0  0
 59 58  1  0  0  0  0
 59120  1  0  0  0  0
 60 47  2  0  0  0  0
 61 58  2  0  0  0  0
M  END
>  <DRUGBANK_ID>
DB13751

>  <COMMON_NAME>
Glycyrrhizic acid

>  <CAS_NUMBER>
1405-86-3

>  <UNII>
6FO62043WK

>  <SYNONYMS>
18-beta-Glycyrrhizic acid; Glizigen; Glycyrrhizin

$$$$
