
 OpenBabel10282417223D

 34 33  0  0  0  0  0  0  0  0999 V2000
    0.9737    0.0152   -0.0444 C   0  0  0  0  0  0  0  0  0  0  0  0
    0.5410   -0.8307    1.1420 C   0  0  0  0  0  0  0  0  0  0  0  0
    1.0738   -0.2285    2.4448 C   0  0  0  0  0  0  0  0  0  0  0  0
    0.5364    1.1792    2.6601 C   0  0  0  0  0  0  0  0  0  0  0  0
   -0.9802    1.1458    2.6936 C   0  0  0  0  0  0  0  0  0  0  0  0
   -1.4932    0.2714    3.8582 C   0  0  0  0  0  0  0  0  0  0  0  0
   -1.1432    0.9167    5.1944 C   0  0  0  0  0  0  0  0  0  0  0  0
   -1.7455    2.3221    5.3029 C   0  0  0  0  0  0  0  0  0  0  0  0
   -3.2008    2.2719    5.2733 O   0  0  0  0  0  0  0  0  0  0  0  0
   -3.8680    2.1257    4.0909 C   0  0  0  0  0  0  0  0  0  0  0  0
   -3.3908    2.1218    2.9678 O   0  0  0  0  0  0  0  0  0  0  0  0
   -5.3175    1.9238    4.2290 C   0  0  0  0  0  0  0  0  0  0  0  0
   -5.9741    2.3333    5.3216 C   0  0  0  0  0  0  0  0  0  0  0  0
   -5.9986    1.3982    3.0931 C   0  0  0  0  0  0  0  0  0  0  0  0
   -6.5681    0.9707    2.1707 N   0  0  0  0  0  0  0  0  0  0  0  0
    0.5751    1.0344    0.0059 H   0  0  0  0  0  0  0  0  0  0  0  0
    0.6155   -0.4156   -0.9795 H   0  0  0  0  0  0  0  0  0  0  0  0
    2.0649    0.0825   -0.0672 H   0  0  0  0  0  0  0  0  0  0  0  0
   -0.5531   -0.9173    1.1496 H   0  0  0  0  0  0  0  0  0  0  0  0
    0.9078   -1.8544    1.0398 H   0  0  0  0  0  0  0  0  0  0  0  0
    0.8014   -0.8769    3.2846 H   0  0  0  0  0  0  0  0  0  0  0  0
    2.1650   -0.2021    2.4467 H   0  0  0  0  0  0  0  0  0  0  0  0
    0.9339    1.6127    3.5832 H   0  0  0  0  0  0  0  0  0  0  0  0
    0.8659    1.8706    1.8779 H   0  0  0  0  0  0  0  0  0  0  0  0
   -1.2781    2.1944    2.7490 H   0  0  0  0  0  0  0  0  0  0  0  0
   -1.4245    0.8062    1.7519 H   0  0  0  0  0  0  0  0  0  0  0  0
   -2.5694    0.0881    3.8071 H   0  0  0  0  0  0  0  0  0  0  0  0
   -1.0997   -0.7466    3.8048 H   0  0  0  0  0  0  0  0  0  0  0  0
   -1.5170    0.2847    6.0060 H   0  0  0  0  0  0  0  0  0  0  0  0
   -0.0530    0.9522    5.3199 H   0  0  0  0  0  0  0  0  0  0  0  0
   -1.4408    2.7463    6.2670 H   0  0  0  0  0  0  0  0  0  0  0  0
   -1.3559    3.0234    4.5556 H   0  0  0  0  0  0  0  0  0  0  0  0
   -7.0563    2.2861    5.3632 H   0  0  0  0  0  0  0  0  0  0  0  0
   -5.4468    2.7592    6.1679 H   0  0  0  0  0  0  0  0  0  0  0  0
  1  2  1  0  0  0  0
  1 16  1  0  0  0  0
  1 17  1  0  0  0  0
  1 18  1  0  0  0  0
  2  3  1  0  0  0  0
  2 19  1  0  0  0  0
  2 20  1  0  0  0  0
  3  4  1  0  0  0  0
  3 21  1  0  0  0  0
  3 22  1  0  0  0  0
  4  5  1  0  0  0  0
  4 23  1  0  0  0  0
  4 24  1  0  0  0  0
  5  6  1  0  0  0  0
  5 25  1  0  0  0  0
  5 26  1  0  0  0  0
  6  7  1  0  0  0  0
  6 27  1  0  0  0  0
  6 28  1  0  0  0  0
  7  8  1  0  0  0  0
  7 29  1  0  0  0  0
  7 30  1  0  0  0  0
  8  9  1  0  0  0  0
  8 31  1  0  0  0  0
  8 32  1  0  0  0  0
  9 10  1  0  0  0  0
 10 11  2  0  0  0  0
 10 12  1  0  0  0  0
 12 13  2  0  0  0  0
 12 14  1  0  0  0  0
 13 33  1  0  0  0  0
 13 34  1  0  0  0  0
 14 15  3  0  0  0  0
M  END
>  <DRUGBANK_ID>
DB15086

>  <COMMON_NAME>
Ocrylate

>  <CAS_NUMBER>
6701-17-3

>  <UNII>
6C655P1XVG

>  <SYNONYMS>
Ocrylate; OCTYL-2-CYANOACRYLATE

$$$$
