U01
 OpenBabel10282417173D

 40 42  0  0  0  0  0  0  0  0999 V2000
    2.9726   -2.6323    1.3649 C   0  0  0  0  0  0  0  0  0  0  0  0
    3.7308   -2.0977    2.5463 C   0  0  0  0  0  0  0  0  0  0  0  0
    3.1478   -4.1389    3.7553 C   0  0  0  0  0  0  0  0  0  0  0  0
    2.3808   -4.5929    2.7053 C   0  0  0  0  0  0  0  0  0  0  0  0
    2.3588   -3.8352    1.4741 C   0  0  0  0  0  0  0  0  0  0  0  0
    1.7075   -0.9259    0.0453 C   0  0  0  0  0  0  0  0  0  0  0  0
    1.5829    0.4658    0.1477 C   0  0  0  0  0  0  0  0  0  0  0  0
    0.3007    1.0543    0.0716 C   0  0  0  0  0  0  0  0  0  0  0  0
   -0.8411    0.2639   -0.1008 C   0  0  0  0  0  0  0  0  0  0  0  0
   -0.7261   -1.1021   -0.1988 C   0  0  0  0  0  0  0  0  0  0  0  0
    0.5276   -1.6618   -0.1264 C   0  0  0  0  0  0  0  0  0  0  0  0
    3.0175   -1.7241    0.1156 C   0  0  2  0  0  0  0  0  0  0  0  0
    3.2462   -2.5451   -1.2049 C   0  0  0  0  0  0  0  0  0  0  0  0
    3.2909   -1.6926   -2.4652 C   0  0  0  0  0  0  0  0  0  0  0  0
    4.4480   -3.4906   -1.1060 C   0  0  0  0  0  0  0  0  0  0  0  0
    3.2744   -4.8957    4.9108 C   0  0  0  0  0  0  0  0  0  0  0  0
    2.5974   -6.1155    5.0116 C   0  0  0  0  0  0  0  0  0  0  0  0
    1.7852   -6.5644    3.9731 C   0  0  0  0  0  0  0  0  0  0  0  0
    1.6776   -5.8021    2.8225 C   0  0  0  0  0  0  0  0  0  0  0  0
    4.2914   -1.0146    2.5220 O   0  0  0  0  0  0  0  0  0  0  0  0
    3.8165   -2.9122    3.6764 O   0  0  0  0  0  0  0  0  0  0  0  0
    1.6755   -4.5433    0.5160 O   0  0  0  0  0  0  0  0  0  0  0  0
   -2.5735    0.9987   -0.2031 Br  0  0  0  0  0  0  0  0  0  0  0  0
    3.8674   -1.0267    0.1828 H   0  0  0  0  0  0  0  0  0  0  0  0
    2.4494    1.1134    0.2862 H   0  0  0  0  0  0  0  0  0  0  0  0
    0.1908    2.1327    0.1523 H   0  0  0  0  0  0  0  0  0  0  0  0
   -1.5701   -1.7714   -0.3238 H   0  0  0  0  0  0  0  0  0  0  0  0
    0.5317   -2.7289   -0.2003 H   0  0  0  0  0  0  0  0  0  0  0  0
    2.3865   -3.1638   -1.4360 H   0  0  0  0  0  0  0  0  0  0  0  0
    4.1608   -1.0383   -2.4846 H   0  0  0  0  0  0  0  0  0  0  0  0
    3.3081   -2.3513   -3.3418 H   0  0  0  0  0  0  0  0  0  0  0  0
    2.3798   -1.0908   -2.5547 H   0  0  0  0  0  0  0  0  0  0  0  0
    4.4012   -4.1398   -0.2251 H   0  0  0  0  0  0  0  0  0  0  0  0
    4.4727   -4.1635   -1.9687 H   0  0  0  0  0  0  0  0  0  0  0  0
    5.3859   -2.9338   -1.0566 H   0  0  0  0  0  0  0  0  0  0  0  0
    3.9005   -4.5417    5.7216 H   0  0  0  0  0  0  0  0  0  0  0  0
    2.6999   -6.7207    5.9057 H   0  0  0  0  0  0  0  0  0  0  0  0
    1.2448   -7.5038    4.0415 H   0  0  0  0  0  0  0  0  0  0  0  0
    1.0530   -6.1659    2.0069 H   0  0  0  0  0  0  0  0  0  0  0  0
    1.6540   -4.1286   -0.3430 H   0  0  0  0  0  0  0  0  0  0  0  0
  1  2  1  0  0  0  0
  1  5  2  0  0  0  0
  2 20  2  0  0  0  0
  2 21  1  0  0  0  0
  3  4  2  0  0  0  0
  3 16  1  0  0  0  0
  3 21  1  0  0  0  0
  4  5  1  0  0  0  0
  4 19  1  0  0  0  0
  5 22  1  0  0  0  0
  6  7  2  0  0  0  0
  6 11  1  0  0  0  0
  7  8  1  0  0  0  0
  7 25  1  0  0  0  0
  8  9  2  0  0  0  0
  8 26  1  0  0  0  0
  9 10  1  0  0  0  0
  9 23  1  0  0  0  0
 10 11  2  0  0  0  0
 10 27  1  0  0  0  0
 11 28  1  0  0  0  0
 12 13  1  0  0  0  0
 12 24  1  1  0  0  0
 12  6  1  0  0  0  0
 12  1  1  0  0  0  0
 13 14  1  0  0  0  0
 13 15  1  0  0  0  0
 13 29  1  0  0  0  0
 14 30  1  0  0  0  0
 14 31  1  0  0  0  0
 14 32  1  0  0  0  0
 15 33  1  0  0  0  0
 15 34  1  0  0  0  0
 15 35  1  0  0  0  0
 16 17  2  0  0  0  0
 16 36  1  0  0  0  0
 17 18  1  0  0  0  0
 17 37  1  0  0  0  0
 18 19  2  0  0  0  0
 18 38  1  0  0  0  0
 19 39  1  0  0  0  0
 22 40  1  0  0  0  0
M  END
>  <DRUGBANK_ID>
DB08662

>  <COMMON_NAME>
3-[1-(4-BROMO-PHENYL)-2-METHYL-PROPYL]-4-HYDROXY-CHROMEN-2-ONE

$$$$
