
 OpenBabel10282417133D

 75 78  0  0  0  0  0  0  0  0999 V2000
    0.9031   -0.1344    0.0529 C   0  0  0  0  0  0  0  0  0  0  0  0
    0.1268   -0.8348   -0.8293 C   0  0  0  0  0  0  0  0  0  0  0  0
   -1.2543   -0.7775   -0.4891 N   0  0  0  0  0  0  0  0  0  0  0  0
   -2.3226   -1.1703   -1.1076 C   0  0  0  0  0  0  0  0  0  0  0  0
   -3.7807   -1.1640   -0.8424 C   0  0  0  0  0  0  0  0  0  0  0  0
   -2.0407   -1.2652   -2.2656 O   0  0  0  0  0  0  0  0  0  0  0  0
    0.9275   -1.5916   -2.0099 C   0  0  0  0  0  0  0  0  0  0  0  0
    2.1717   -1.5264   -1.9644 O   0  0  0  0  0  0  0  0  0  0  0  0
    0.4605   -2.3030   -3.1085 N   0  0  0  0  0  0  0  0  0  0  0  0
   -0.9174   -2.5713   -3.5477 C   0  0  1  0  0  0  0  0  0  0  0  0
   -1.4995   -1.2701   -4.4082 C   0  0  0  0  0  0  0  0  0  0  0  0
   -2.9619   -0.6628   -4.2077 C   0  0  0  0  0  0  0  0  0  0  0  0
   -4.0283   -1.7341   -4.2013 C   0  0  0  0  0  0  0  0  0  0  0  0
   -3.7563   -3.0141   -3.4247 C   0  0  0  0  0  0  0  0  0  0  0  0
   -1.4794   -3.8972   -4.0741 C   0  0  0  0  0  0  0  0  0  0  0  0
   -2.8848   -4.0220   -3.9958 N   0  0  0  0  0  0  0  0  0  0  0  0
   -0.7338   -4.8184   -4.4059 O   0  0  0  0  0  0  0  0  0  0  0  0
   -3.4725   -5.3394   -4.1546 C   0  0  0  0  0  0  0  0  0  0  0  0
   -4.1455   -5.9878   -2.9444 C   0  0  0  0  0  0  0  0  0  0  0  0
   -5.2877   -5.4592   -2.3076 C   0  0  0  0  0  0  0  0  0  0  0  0
   -6.0304   -6.1745   -1.3856 C   0  0  0  0  0  0  0  0  0  0  0  0
   -5.6879   -7.4827   -1.1024 C   0  0  0  0  0  0  0  0  0  0  0  0
   -4.5696   -8.0433   -1.7394 C   0  0  0  0  0  0  0  0  0  0  0  0
   -3.7630   -7.2848   -2.5901 C   0  0  0  0  0  0  0  0  0  0  0  0
   -6.5079   -8.2639   -0.1936 C   0  0  0  0  0  0  0  0  0  0  0  0
   -7.8834   -8.4076   -0.4243 C   0  0  0  0  0  0  0  0  0  0  0  0
   -8.6369   -9.2698    0.3615 C   0  0  0  0  0  0  0  0  0  0  0  0
   -8.0179   -9.9922    1.3798 C   0  0  0  0  0  0  0  0  0  0  0  0
   -6.6572   -9.8291    1.6367 C   0  0  0  0  0  0  0  0  0  0  0  0
   -5.9168   -8.9244    0.8881 C   0  0  0  0  0  0  0  0  0  0  0  0
    0.2893    0.6310    1.1912 C   0  0  0  0  0  0  0  0  0  0  0  0
    0.5974    1.9690    1.4054 C   0  0  0  0  0  0  0  0  0  0  0  0
   -0.2674    2.7633    2.1818 C   0  0  0  0  0  0  0  0  0  0  0  0
   -1.4987    2.2625    2.6638 C   0  0  0  0  0  0  0  0  0  0  0  0
   -1.8086    0.9290    2.3998 C   0  0  0  0  0  0  0  0  0  0  0  0
   -0.8253    0.0948    1.8741 C   0  0  0  0  0  0  0  0  0  0  0  0
   -2.3970    3.1060    3.5389 C   0  0  0  0  0  0  0  0  0  0  0  0
   -3.7415    3.4359    2.9281 C   0  0  0  0  0  0  0  0  0  0  0  0
   -4.8111    3.0150    3.6471 O   0  0  0  0  0  0  0  0  0  0  0  0
   -3.8779    3.9799    1.8430 O   0  0  0  0  0  0  0  0  0  0  0  0
   -3.1920    0.3815    2.4823 C   0  0  0  0  0  0  0  0  0  0  0  0
   -3.5028   -0.7129    2.0280 O   0  0  0  0  0  0  0  0  0  0  0  0
    1.9829   -0.0619   -0.0611 H   0  0  0  0  0  0  0  0  0  0  0  0
   -1.5194    0.1014   -0.0790 H   0  0  0  0  0  0  0  0  0  0  0  0
   -4.2444   -0.9195   -1.8089 H   0  0  0  0  0  0  0  0  0  0  0  0
   -4.1698   -2.1642   -0.6302 H   0  0  0  0  0  0  0  0  0  0  0  0
   -4.1307   -0.3626   -0.2207 H   0  0  0  0  0  0  0  0  0  0  0  0
    1.1827   -2.7532   -3.6618 H   0  0  0  0  0  0  0  0  0  0  0  0
   -1.2255   -2.8621   -2.5300 H   0  0  0  0  0  0  0  0  0  0  0  0
   -0.8297   -0.4210   -4.1991 H   0  0  0  0  0  0  0  0  0  0  0  0
   -1.4240   -1.5017   -5.4696 H   0  0  0  0  0  0  0  0  0  0  0  0
   -3.0575   -0.0112   -3.3136 H   0  0  0  0  0  0  0  0  0  0  0  0
   -3.2102    0.1170   -4.9334 H   0  0  0  0  0  0  0  0  0  0  0  0
   -4.9667   -1.3006   -3.8101 H   0  0  0  0  0  0  0  0  0  0  0  0
   -4.2413   -2.0045   -5.2339 H   0  0  0  0  0  0  0  0  0  0  0  0
   -3.4818   -2.9811   -2.3756 H   0  0  0  0  0  0  0  0  0  0  0  0
   -4.7635   -3.3908   -3.4161 H   0  0  0  0  0  0  0  0  0  0  0  0
   -4.2333   -5.2332   -4.9330 H   0  0  0  0  0  0  0  0  0  0  0  0
   -2.7086   -6.0173   -4.5416 H   0  0  0  0  0  0  0  0  0  0  0  0
   -5.7251   -4.4963   -2.5097 H   0  0  0  0  0  0  0  0  0  0  0  0
   -6.9122   -5.7110   -0.9479 H   0  0  0  0  0  0  0  0  0  0  0  0
   -4.3548   -9.1029   -1.6136 H   0  0  0  0  0  0  0  0  0  0  0  0
   -2.8759   -7.7429   -3.0232 H   0  0  0  0  0  0  0  0  0  0  0  0
   -8.3613   -7.8685   -1.2405 H   0  0  0  0  0  0  0  0  0  0  0  0
   -9.6936   -9.4021    0.1510 H   0  0  0  0  0  0  0  0  0  0  0  0
   -8.5982  -10.6874    1.9771 H   0  0  0  0  0  0  0  0  0  0  0  0
   -6.1636  -10.4217    2.4002 H   0  0  0  0  0  0  0  0  0  0  0  0
   -4.8701   -8.7452    1.1286 H   0  0  0  0  0  0  0  0  0  0  0  0
    1.4845    2.4099    0.9533 H   0  0  0  0  0  0  0  0  0  0  0  0
    0.0124    3.8008    2.3595 H   0  0  0  0  0  0  0  0  0  0  0  0
   -1.0846   -0.9593    1.7405 H   0  0  0  0  0  0  0  0  0  0  0  0
   -2.5226    2.5627    4.4844 H   0  0  0  0  0  0  0  0  0  0  0  0
   -1.9092    4.0511    3.7957 H   0  0  0  0  0  0  0  0  0  0  0  0
   -4.6466    2.4871    4.4532 H   0  0  0  0  0  0  0  0  0  0  0  0
   -3.9760    1.0085    2.9059 H   0  0  0  0  0  0  0  0  0  0  0  0
  1  2  2  0  0  0  0
  1 31  1  0  0  0  0
  1 43  1  0  0  0  0
  2  3  1  0  0  0  0
  3 44  1  0  0  0  0
  4  3  1  0  0  0  0
  4  5  1  0  0  0  0
  4  6  2  0  0  0  0
  5 45  1  0  0  0  0
  5 46  1  0  0  0  0
  5 47  1  0  0  0  0
  7  2  1  0  0  0  0
  7  8  2  0  0  0  0
  7  9  1  0  0  0  0
  9 48  1  0  0  0  0
 10  9  1  0  0  0  0
 10 11  1  0  0  0  0
 10 15  1  0  0  0  0
 10 49  1  1  0  0  0
 11 12  1  0  0  0  0
 11 50  1  0  0  0  0
 11 51  1  0  0  0  0
 12 13  1  0  0  0  0
 12 52  1  0  0  0  0
 12 53  1  0  0  0  0
 13 14  1  0  0  0  0
 13 54  1  0  0  0  0
 13 55  1  0  0  0  0
 14 16  1  0  0  0  0
 14 56  1  0  0  0  0
 14 57  1  0  0  0  0
 15 16  1  0  0  0  0
 15 17  2  0  0  0  0
 18 16  1  0  0  0  0
 18 19  1  0  0  0  0
 18 58  1  0  0  0  0
 18 59  1  0  0  0  0
 19 20  1  0  0  0  0
 19 24  2  0  0  0  0
 20 21  2  0  0  0  0
 20 60  1  0  0  0  0
 21 22  1  0  0  0  0
 21 61  1  0  0  0  0
 22 23  2  0  0  0  0
 22 25  1  0  0  0  0
 23 24  1  0  0  0  0
 23 62  1  0  0  0  0
 24 63  1  0  0  0  0
 25 26  1  0  0  0  0
 25 30  2  0  0  0  0
 26 27  2  0  0  0  0
 26 64  1  0  0  0  0
 27 28  1  0  0  0  0
 27 65  1  0  0  0  0
 28 29  2  0  0  0  0
 28 66  1  0  0  0  0
 29 30  1  0  0  0  0
 29 67  1  0  0  0  0
 30 68  1  0  0  0  0
 31 32  2  0  0  0  0
 31 36  1  0  0  0  0
 32 33  1  0  0  0  0
 32 69  1  0  0  0  0
 33 34  2  0  0  0  0
 33 70  1  0  0  0  0
 34 35  1  0  0  0  0
 34 37  1  0  0  0  0
 35 36  2  0  0  0  0
 35 41  1  0  0  0  0
 36 71  1  0  0  0  0
 37 38  1  0  0  0  0
 37 72  1  0  0  0  0
 37 73  1  0  0  0  0
 38 39  1  0  0  0  0
 38 40  2  0  0  0  0
 39 74  1  0  0  0  0
 41 42  2  0  0  0  0
 41 75  1  0  0  0  0
M  END
>  <DRUGBANK_ID>
DB03104

>  <SECONDARY_ACCESSION_NUMBERS>
EXPT00321

>  <COMMON_NAME>
2-[4-[(Z)-2-Acetamido-3-oxo-3-[[(3S)-2-oxo-1-[(4-phenylphenyl)methyl]azepan-3-yl]amino]prop-1-enyl]-2-formylphenyl]acetic acid

$$$$
