
 OpenBabel10282417133D

 12 11  0  0  0  0  0  0  0  0999 V2000
    1.5058    0.5953    0.9213 O   0  0  0  0  0  0  0  0  0  0  0  0
    0.1138    1.3710    0.7159 P   0  0  0  0  0  0  0  0  0  0  0  0
    0.3907    1.9606   -0.7470 O   0  0  0  0  0  0  0  0  0  0  0  0
   -1.1141    0.5226    0.7752 O   0  0  0  0  0  0  0  0  0  0  0  0
    0.0533    2.7616    1.8122 C   0  0  0  0  0  0  0  0  0  0  0  0
    0.7978    3.9904    1.4488 C   0  0  0  0  0  0  0  0  0  0  0  0
    0.2357    4.9810    0.9314 O   0  0  0  0  0  0  0  0  0  0  0  0
    1.9836    0.3188    0.1084 H   0  0  0  0  0  0  0  0  0  0  0  0
    1.0124    2.7041   -0.8342 H   0  0  0  0  0  0  0  0  0  0  0  0
   -0.9992    3.0545    1.7708 H   0  0  0  0  0  0  0  0  0  0  0  0
    0.2507    2.5250    2.8641 H   0  0  0  0  0  0  0  0  0  0  0  0
    1.8746    4.0252    1.6376 H   0  0  0  0  0  0  0  0  0  0  0  0
  1  2  1  0  0  0  0
  1  8  1  0  0  0  0
  2  3  1  0  0  0  0
  2  4  2  0  0  0  0
  2  5  1  0  0  0  0
  3  9  1  0  0  0  0
  5  6  1  0  0  0  0
  5 10  1  0  0  0  0
  5 11  1  0  0  0  0
  6  7  2  0  0  0  0
  6 12  1  0  0  0  0
M  END
>  <DRUGBANK_ID>
DB03174

>  <SECONDARY_ACCESSION_NUMBERS>
EXPT02628

>  <COMMON_NAME>
Phosphonoacetaldehyde

>  <UNII>
VPZ8FR5BMZ

$$$$
