
 OpenBabel10282417243D

 63 65  0  0  1  0  0  0  0  0999 V2000
   -7.5296  -14.6442   -8.0967 C   0  0  0  0  0  0  0  0  0  0  0  0
   -8.9329  -14.0863   -8.2544 C   0  0  0  0  0  0  0  0  0  0  0  0
   -9.6246  -13.7209   -6.9312 C   0  0  0  0  0  0  0  0  0  0  0  0
   -8.9572  -12.6168   -6.2172 N   0  0  0  0  0  0  0  0  0  0  0  0
   -9.7472  -11.4465   -5.8763 C   0  0  0  0  0  0  0  0  0  0  0  0
   -7.6863  -12.8111   -5.6856 C   0  0  0  0  0  0  0  0  0  0  0  0
   -7.0759  -13.8793   -5.7625 O   0  0  0  0  0  0  0  0  0  0  0  0
   -7.2091  -11.8265   -4.8790 O   0  0  0  0  0  0  0  0  0  0  0  0
   -5.9056  -12.1330   -4.3229 C   0  0  0  0  0  0  0  0  0  0  0  0
   -5.8609  -13.2789   -3.3383 C   0  0  0  0  0  0  0  0  0  0  0  0
   -4.7534  -13.7672   -2.6354 C   0  0  0  0  0  0  0  0  0  0  0  0
   -5.0960  -14.9082   -1.9634 N   0  0  0  0  0  0  0  0  0  0  0  0
   -6.3743  -15.1553   -2.1938 N   0  0  0  0  0  0  0  0  0  0  0  0
   -6.8515  -14.1891   -3.0016 N   0  0  0  0  0  0  0  0  0  0  0  0
   -8.2453  -14.2959   -3.3563 C   0  0  0  0  0  0  0  0  0  0  0  0
   -3.4214  -13.1685   -2.5571 C   0  0  0  0  0  0  0  0  0  0  0  0
   -3.2669  -11.8618   -2.1164 C   0  0  0  0  0  0  0  0  0  0  0  0
   -1.9872  -11.2807   -2.0819 C   0  0  0  0  0  0  0  0  0  0  0  0
   -0.8660  -12.0197   -2.4378 C   0  0  0  0  0  0  0  0  0  0  0  0
    0.4422  -11.6380   -2.3694 O   0  0  0  0  0  0  0  0  0  0  0  0
    0.9448  -10.2966   -2.2682 C   0  0  1  0  0  0  0  0  0  0  0  0
    0.6119   -9.5958   -0.9477 C   0  0  0  0  0  0  0  0  0  0  0  0
    1.1514  -10.3703    0.2476 C   0  0  0  0  0  0  0  0  0  0  0  0
    2.6663  -10.5055    0.1684 C   0  0  0  0  0  0  0  0  0  0  0  0
    3.1144  -11.1534   -1.1489 C   0  0  1  0  0  0  0  0  0  0  0  0
    2.4959  -10.4138   -2.3576 C   0  0  0  0  0  0  0  0  0  0  0  0
    4.6330  -11.0961   -1.2214 C   0  0  0  0  0  0  0  0  0  0  0  0
    5.2490  -12.2955   -1.2864 O   0  0  0  0  0  0  0  0  0  0  0  0
    5.2715  -10.0506   -1.2100 O   0  0  0  0  0  0  0  0  0  0  0  0
   -1.1066  -13.3456   -2.8424 C   0  0  0  0  0  0  0  0  0  0  0  0
    0.0311  -14.2433   -3.2509 C   0  0  0  0  0  0  0  0  0  0  0  0
   -2.3530  -13.9167   -2.9149 N   0  0  0  0  0  0  0  0  0  0  0  0
   -6.8488  -13.8340   -7.8197 H   0  0  0  0  0  0  0  0  0  0  0  0
   -7.0969  -15.0257   -9.0169 H   0  0  0  0  0  0  0  0  0  0  0  0
   -7.5214  -15.4509   -7.3506 H   0  0  0  0  0  0  0  0  0  0  0  0
   -8.8815  -13.1886   -8.8781 H   0  0  0  0  0  0  0  0  0  0  0  0
   -9.5350  -14.8323   -8.7828 H   0  0  0  0  0  0  0  0  0  0  0  0
  -10.6564  -13.4252   -7.1680 H   0  0  0  0  0  0  0  0  0  0  0  0
   -9.7060  -14.5920   -6.2665 H   0  0  0  0  0  0  0  0  0  0  0  0
   -9.8616  -11.3781   -4.7900 H   0  0  0  0  0  0  0  0  0  0  0  0
   -9.2230  -10.5626   -6.2435 H   0  0  0  0  0  0  0  0  0  0  0  0
  -10.7414  -11.4899   -6.3327 H   0  0  0  0  0  0  0  0  0  0  0  0
   -5.1882  -12.3005   -5.1420 H   0  0  0  0  0  0  0  0  0  0  0  0
   -5.5758  -11.2228   -3.8130 H   0  0  0  0  0  0  0  0  0  0  0  0
   -8.3738  -15.1220   -4.0676 H   0  0  0  0  0  0  0  0  0  0  0  0
   -8.8536  -14.4586   -2.4700 H   0  0  0  0  0  0  0  0  0  0  0  0
   -8.6174  -13.3628   -3.7566 H   0  0  0  0  0  0  0  0  0  0  0  0
   -4.1299  -11.2934   -1.7831 H   0  0  0  0  0  0  0  0  0  0  0  0
   -1.9366  -10.2575   -1.7442 H   0  0  0  0  0  0  0  0  0  0  0  0
    0.5972   -9.7035   -3.1239 H   0  0  0  0  0  0  0  0  0  0  0  0
    1.0314   -8.5811   -0.9548 H   0  0  0  0  0  0  0  0  0  0  0  0
   -0.4582   -9.4632   -0.8121 H   0  0  0  0  0  0  0  0  0  0  0  0
    0.8733   -9.8503    1.1701 H   0  0  0  0  0  0  0  0  0  0  0  0
    0.6922  -11.3647    0.2868 H   0  0  0  0  0  0  0  0  0  0  0  0
    3.1134   -9.5065    0.2640 H   0  0  0  0  0  0  0  0  0  0  0  0
    3.0308  -11.0877    1.0226 H   0  0  0  0  0  0  0  0  0  0  0  0
    2.7858  -12.2001   -1.1614 H   0  0  0  0  0  0  0  0  0  0  0  0
    2.7857  -10.9404   -3.2755 H   0  0  0  0  0  0  0  0  0  0  0  0
    2.9329   -9.4072   -2.4228 H   0  0  0  0  0  0  0  0  0  0  0  0
    4.6699  -13.0798   -1.2832 H   0  0  0  0  0  0  0  0  0  0  0  0
    0.0544  -15.1300   -2.6108 H   0  0  0  0  0  0  0  0  0  0  0  0
   -0.1012  -14.5529   -4.2918 H   0  0  0  0  0  0  0  0  0  0  0  0
    1.0088  -13.7578   -3.1749 H   0  0  0  0  0  0  0  0  0  0  0  0
  1  2  1  0  0  0  0
  1 33  1  0  0  0  0
  1 34  1  0  0  0  0
  1 35  1  0  0  0  0
  2  3  1  0  0  0  0
  2 36  1  0  0  0  0
  2 37  1  0  0  0  0
  3  4  1  0  0  0  0
  3 38  1  0  0  0  0
  3 39  1  0  0  0  0
  4  5  1  0  0  0  0
  4  6  1  0  0  0  0
  5 40  1  0  0  0  0
  5 41  1  0  0  0  0
  5 42  1  0  0  0  0
  6  7  2  0  0  0  0
  6  8  1  0  0  0  0
  8  9  1  0  0  0  0
  9 10  1  0  0  0  0
  9 43  1  0  0  0  0
  9 44  1  0  0  0  0
 10 11  2  0  0  0  0
 10 14  1  0  0  0  0
 11 12  1  0  0  0  0
 11 16  1  0  0  0  0
 12 13  2  0  0  0  0
 13 14  1  0  0  0  0
 14 15  1  0  0  0  0
 15 45  1  0  0  0  0
 15 46  1  0  0  0  0
 15 47  1  0  0  0  0
 16 17  2  0  0  0  0
 16 32  1  0  0  0  0
 17 18  1  0  0  0  0
 17 48  1  0  0  0  0
 18 19  2  0  0  0  0
 18 49  1  0  0  0  0
 19 20  1  0  0  0  0
 19 30  1  0  0  0  0
 21 22  1  0  0  0  0
 21 26  1  0  0  0  0
 21 50  1  6  0  0  0
 21 20  1  0  0  0  0
 22 23  1  0  0  0  0
 22 51  1  0  0  0  0
 22 52  1  0  0  0  0
 23 24  1  0  0  0  0
 23 53  1  0  0  0  0
 23 54  1  0  0  0  0
 24 55  1  0  0  0  0
 24 56  1  0  0  0  0
 25 24  1  0  0  0  0
 25 26  1  0  0  0  0
 25 27  1  0  0  0  0
 25 57  1  6  0  0  0
 26 58  1  0  0  0  0
 26 59  1  0  0  0  0
 27 28  1  0  0  0  0
 27 29  2  0  0  0  0
 28 60  1  0  0  0  0
 30 31  1  0  0  0  0
 30 32  2  0  0  0  0
 31 61  1  0  0  0  0
 31 62  1  0  0  0  0
 31 63  1  0  0  0  0
M  END
>  <DRUGBANK_ID>
DB18011

>  <COMMON_NAME>
BMS-986278

>  <CAS_NUMBER>
2170126-74-4

>  <UNII>
4UN9AOU6G8

>  <SYNONYMS>
(1s,3s)-3-((2-methyl-6-(1-methyl-5-(((methyl(propyl)carbamoyl)oxy)methyl)-1h-1,2,3-triazol-4-yl)pyridin-3-yl)oxy)cyclohexane-1-carboxylic acid; Cyclohexanecarboxylic acid, 3-((2-methyl-6-(1-methyl-5-((((methylpropylamino)carbonyl)oxy)methyl)-1h-1,2,3-triazol-4-yl)-3-pyridinyl)oxy)-, (1s,3s)-

$$$$
