
 OpenBabel10282417133D

 17 16  0  0  1  0  0  0  0  0999 V2000
    1.0417    0.1250    0.0745 C   0  0  0  0  0  0  0  0  0  0  0  0
    0.5509    0.7010   -1.2482 C   0  0  0  0  0  0  0  0  0  0  0  0
    1.0338   -0.1057   -2.4655 C   0  0  1  0  0  0  0  0  0  0  0  0
    0.5487   -1.5541   -2.3917 C   0  0  0  0  0  0  0  0  0  0  0  0
    0.4889    0.5242   -3.7378 C   0  0  0  0  0  0  0  0  0  0  0  0
    1.4274    0.9460   -4.6124 O   0  0  0  0  0  0  0  0  0  0  0  0
   -0.7066    0.6438   -3.9774 O   0  0  0  0  0  0  0  0  0  0  0  0
    0.6621   -0.8874    0.2418 H   0  0  0  0  0  0  0  0  0  0  0  0
    0.6925    0.7344    0.9126 H   0  0  0  0  0  0  0  0  0  0  0  0
    2.1351    0.0899    0.0998 H   0  0  0  0  0  0  0  0  0  0  0  0
   -0.5461    0.7360   -1.2336 H   0  0  0  0  0  0  0  0  0  0  0  0
    0.8901    1.7407   -1.3350 H   0  0  0  0  0  0  0  0  0  0  0  0
    2.1304   -0.0977   -2.4888 H   0  0  0  0  0  0  0  0  0  0  0  0
   -0.5462   -1.5952   -2.3550 H   0  0  0  0  0  0  0  0  0  0  0  0
    0.8795   -2.1289   -3.2608 H   0  0  0  0  0  0  0  0  0  0  0  0
    0.9306   -2.0652   -1.5030 H   0  0  0  0  0  0  0  0  0  0  0  0
    2.3554    0.8116   -4.3470 H   0  0  0  0  0  0  0  0  0  0  0  0
  1  2  1  0  0  0  0
  1  8  1  0  0  0  0
  1  9  1  0  0  0  0
  1 10  1  0  0  0  0
  2  3  1  0  0  0  0
  2 11  1  0  0  0  0
  2 12  1  0  0  0  0
  3  4  1  0  0  0  0
  3  5  1  0  0  0  0
  3 13  1  6  0  0  0
  4 14  1  0  0  0  0
  4 15  1  0  0  0  0
  4 16  1  0  0  0  0
  5  6  1  0  0  0  0
  5  7  2  0  0  0  0
  6 17  1  0  0  0  0
M  END
>  <DRUGBANK_ID>
DB03741

>  <SECONDARY_ACCESSION_NUMBERS>
EXPT02918

>  <COMMON_NAME>
2-Methylbutanoic Acid

>  <UNII>
PX7ZNN5GXK

$$$$
