3LP
 OpenBabel10282417163D

 57 60  0  0  0  0  0  0  0  0999 V2000
    0.9004    1.0391    2.1530 O   0  0  0  0  0  0  0  0  0  0  0  0
    0.4065    1.0746    0.8010 C   0  0  1  0  0  0  0  0  0  0  0  0
    0.9067    2.3818    0.1783 C   0  0  0  0  0  0  0  0  0  0  0  0
    0.4875    2.6032   -1.2096 N   0  0  0  0  0  0  0  0  0  0  0  0
    0.9889    3.8689   -1.7640 C   0  0  0  0  0  0  0  0  0  0  0  0
    0.0747    5.0210   -1.3332 C   0  0  0  0  0  0  0  0  0  0  0  0
    0.5923    6.3625   -1.8406 C   0  0  0  0  0  0  0  0  0  0  0  0
    2.0462    6.5923   -1.4371 C   0  0  0  0  0  0  0  0  0  0  0  0
    2.9485    5.4720   -1.9437 C   0  0  0  0  0  0  0  0  0  0  0  0
    2.4652    4.1335   -1.4196 C   0  0  0  0  0  0  0  0  0  0  0  0
    0.9844   -0.1111    0.0195 C   0  0  0  0  0  0  0  0  0  0  0  0
    0.2769   -1.3567    0.2411 N   0  0  0  0  0  0  0  0  0  0  0  0
    0.6274   -2.2849    1.2053 C   0  0  0  0  0  0  0  0  0  0  0  0
    1.6201   -2.2761    2.1973 C   0  0  0  0  0  0  0  0  0  0  0  0
    1.7193   -3.3917    3.0382 C   0  0  0  0  0  0  0  0  0  0  0  0
    0.8602   -4.4859    2.9005 C   0  0  0  0  0  0  0  0  0  0  0  0
    0.9421   -5.6821    3.7937 C   0  0  0  0  0  0  0  0  0  0  0  0
   -0.1184   -4.4738    1.9043 C   0  0  0  0  0  0  0  0  0  0  0  0
   -0.2372   -3.3702    1.0563 C   0  0  0  0  0  0  0  0  0  0  0  0
   -1.1073   -3.0756   -0.0126 C   0  0  0  0  0  0  0  0  0  0  0  0
   -0.7597   -1.8462   -0.5244 C   0  0  0  0  0  0  0  0  0  0  0  0
   -2.2023   -3.9246   -0.5550 C   0  0  0  0  0  0  0  0  0  0  0  0
   -3.1292   -3.0888   -1.4428 C   0  0  0  0  0  0  0  0  0  0  0  0
   -2.3030   -2.2426   -2.4277 C   0  0  0  0  0  0  0  0  0  0  0  0
   -1.4452   -1.1901   -1.6838 C   0  0  0  0  0  0  0  0  0  0  0  0
   -0.6885    1.0608    0.8377 H   0  0  0  0  0  0  0  0  0  0  0  0
    0.6802    1.8865    2.5789 H   0  0  0  0  0  0  0  0  0  0  0  0
    0.5851    3.2175    0.8115 H   0  0  0  0  0  0  0  0  0  0  0  0
    1.9997    2.3393    0.2537 H   0  0  0  0  0  0  0  0  0  0  0  0
    0.8382    1.8550   -1.8054 H   0  0  0  0  0  0  0  0  0  0  0  0
    0.9096    3.7845   -2.8573 H   0  0  0  0  0  0  0  0  0  0  0  0
   -0.9422    4.8540   -1.7117 H   0  0  0  0  0  0  0  0  0  0  0  0
   -0.0022    5.0671   -0.2407 H   0  0  0  0  0  0  0  0  0  0  0  0
   -0.0346    7.1656   -1.4391 H   0  0  0  0  0  0  0  0  0  0  0  0
    0.5059    6.3973   -2.9331 H   0  0  0  0  0  0  0  0  0  0  0  0
    2.1128    6.6478   -0.3424 H   0  0  0  0  0  0  0  0  0  0  0  0
    2.3964    7.5507   -1.8306 H   0  0  0  0  0  0  0  0  0  0  0  0
    3.9750    5.6378   -1.5975 H   0  0  0  0  0  0  0  0  0  0  0  0
    2.9672    5.4580   -3.0384 H   0  0  0  0  0  0  0  0  0  0  0  0
    2.6101    4.1700   -0.3334 H   0  0  0  0  0  0  0  0  0  0  0  0
    3.0948    3.3214   -1.8037 H   0  0  0  0  0  0  0  0  0  0  0  0
    0.9661    0.0471   -1.0607 H   0  0  0  0  0  0  0  0  0  0  0  0
    2.0361   -0.2660    0.2868 H   0  0  0  0  0  0  0  0  0  0  0  0
    2.2868   -1.4281    2.3268 H   0  0  0  0  0  0  0  0  0  0  0  0
    2.4803   -3.3920    3.8146 H   0  0  0  0  0  0  0  0  0  0  0  0
   -0.0080   -5.8118    4.3231 H   0  0  0  0  0  0  0  0  0  0  0  0
    1.1404   -6.5772    3.1945 H   0  0  0  0  0  0  0  0  0  0  0  0
    1.7381   -5.5789    4.5347 H   0  0  0  0  0  0  0  0  0  0  0  0
   -0.7955   -5.3150    1.7804 H   0  0  0  0  0  0  0  0  0  0  0  0
   -2.7733   -4.3787    0.2616 H   0  0  0  0  0  0  0  0  0  0  0  0
   -1.7585   -4.7382   -1.1417 H   0  0  0  0  0  0  0  0  0  0  0  0
   -3.7361   -2.4232   -0.8148 H   0  0  0  0  0  0  0  0  0  0  0  0
   -3.8179   -3.7512   -1.9769 H   0  0  0  0  0  0  0  0  0  0  0  0
   -2.9637   -1.7513   -3.1489 H   0  0  0  0  0  0  0  0  0  0  0  0
   -1.6438   -2.9120   -2.9981 H   0  0  0  0  0  0  0  0  0  0  0  0
   -2.0990   -0.3920   -1.3130 H   0  0  0  0  0  0  0  0  0  0  0  0
   -0.7319   -0.7469   -2.3852 H   0  0  0  0  0  0  0  0  0  0  0  0
  1 27  1  0  0  0  0
  2  3  1  0  0  0  0
  2 26  1  6  0  0  0
  2 11  1  0  0  0  0
  2  1  1  0  0  0  0
  3  4  1  0  0  0  0
  3 28  1  0  0  0  0
  3 29  1  0  0  0  0
  4  5  1  0  0  0  0
  4 30  1  0  0  0  0
  5 10  1  0  0  0  0
  5  6  1  0  0  0  0
  5 31  1  0  0  0  0
  6  7  1  0  0  0  0
  6 32  1  0  0  0  0
  6 33  1  0  0  0  0
  7  8  1  0  0  0  0
  7 34  1  0  0  0  0
  7 35  1  0  0  0  0
  8  9  1  0  0  0  0
  8 36  1  0  0  0  0
  8 37  1  0  0  0  0
  9 10  1  0  0  0  0
  9 38  1  0  0  0  0
  9 39  1  0  0  0  0
 10 40  1  0  0  0  0
 10 41  1  0  0  0  0
 11 12  1  0  0  0  0
 11 42  1  0  0  0  0
 11 43  1  0  0  0  0
 12 21  1  0  0  0  0
 12 13  1  0  0  0  0
 13 14  1  0  0  0  0
 13 19  2  0  0  0  0
 14 15  2  0  0  0  0
 14 44  1  0  0  0  0
 15 16  1  0  0  0  0
 15 45  1  0  0  0  0
 16 17  1  0  0  0  0
 16 18  2  0  0  0  0
 17 46  1  0  0  0  0
 17 47  1  0  0  0  0
 17 48  1  0  0  0  0
 18 19  1  0  0  0  0
 18 49  1  0  0  0  0
 19 20  1  0  0  0  0
 20 22  1  0  0  0  0
 20 21  2  0  0  0  0
 21 25  1  0  0  0  0
 22 23  1  0  0  0  0
 22 50  1  0  0  0  0
 22 51  1  0  0  0  0
 23 24  1  0  0  0  0
 23 52  1  0  0  0  0
 23 53  1  0  0  0  0
 24 25  1  0  0  0  0
 24 54  1  0  0  0  0
 24 55  1  0  0  0  0
 25 56  1  0  0  0  0
 25 57  1  0  0  0  0
M  END
>  <DRUGBANK_ID>
DB07061

>  <COMMON_NAME>
1-(CYCLOHEXYLAMINO)-3-(6-METHYL-3,4-DIHYDRO-1H-CARBAZOL-9(2H)-YL)PROPAN-2-OL

$$$$
