
 OpenBabel10282417173D

 73 72  0  0  0  0  0  0  0  0999 V2000
    1.1799    0.0384    0.3423 C   0  0  0  0  0  0  0  0  0  0  0  0
    0.6317    0.8088   -0.8001 C   0  0  0  0  0  0  0  0  0  0  0  0
    1.0357    0.0838   -2.0416 C   0  0  0  0  0  0  0  0  0  0  0  0
    0.3706   -1.2360   -2.4732 C   0  0  0  0  0  0  0  0  0  0  0  0
   -1.1482   -1.2084   -2.6257 C   0  0  0  0  0  0  0  0  0  0  0  0
   -1.7384   -0.3334   -3.7300 C   0  0  0  0  0  0  0  0  0  0  0  0
    0.8198   -1.4258    0.1761 C   0  0  0  0  0  0  0  0  0  0  0  0
   -1.3446   -0.5288   -5.0821 O   0  0  0  0  0  0  0  0  0  0  0  0
    0.5306    0.2021   -4.5784 O   0  0  0  0  0  0  0  0  0  0  0  0
    0.6254    1.6579   -4.6106 C   0  0  0  0  0  0  0  0  0  0  0  0
    2.0166    2.1122   -5.0682 C   0  0  0  0  0  0  0  0  0  0  0  0
    2.2963    1.4301   -6.3880 N   0  3  0  0  0  0  0  0  0  0  0  0
    0.9970    1.5321   -7.2238 C   0  0  0  0  0  0  0  0  0  0  0  0
    3.4679    1.9362   -7.1367 C   0  0  0  0  0  0  0  0  0  0  0  0
    2.7673    0.0200   -6.0322 C   0  0  0  0  0  0  0  0  0  0  0  0
    0.0524   -1.0947   -5.5600 P   0  0  3  0  0  0  0  0  0  0  0  0
   -0.5653   -2.4485   -5.2626 O   0  0  0  0  0  0  0  0  0  0  0  0
    1.4397   -1.7097   -5.2544 O   0  5  0  0  0  0  0  0  0  0  0  0
    1.2277   -2.3053    1.2892 C   0  0  0  0  0  0  0  0  0  0  0  0
   -2.9999   -3.5487    4.5890 C   0  0  0  0  0  0  0  0  0  0  0  0
   -1.4690   -3.5586    4.5351 C   0  0  0  0  0  0  0  0  0  0  0  0
   -0.9791   -4.0881    3.1814 C   0  0  0  0  0  0  0  0  0  0  0  0
   -1.4689   -3.1681    2.0612 C   0  0  0  0  0  0  0  0  0  0  0  0
   -0.9648   -1.7436    2.3317 C   0  0  0  0  0  0  0  0  0  0  0  0
    0.5675   -1.7479    2.5165 C   0  0  0  0  0  0  0  0  0  0  0  0
   -3.5692   -4.9508    4.3760 C   0  0  0  0  0  0  0  0  0  0  0  0
   -3.0620   -5.8971    5.4518 C   0  0  0  0  0  0  0  0  0  0  0  0
    0.7957    0.5199    1.2377 H   0  0  0  0  0  0  0  0  0  0  0  0
    2.2711    0.1076    0.3319 H   0  0  0  0  0  0  0  0  0  0  0  0
   -0.4596    0.9202   -0.7725 H   0  0  0  0  0  0  0  0  0  0  0  0
    1.0354    1.8330   -0.8074 H   0  0  0  0  0  0  0  0  0  0  0  0
    0.6054    0.7999   -2.6676 H   0  0  0  0  0  0  0  0  0  0  0  0
    2.1205    0.1076   -2.2256 H   0  0  0  0  0  0  0  0  0  0  0  0
    0.8687   -1.4963   -3.3682 H   0  0  0  0  0  0  0  0  0  0  0  0
    0.6551   -2.1805   -2.0169 H   0  0  0  0  0  0  0  0  0  0  0  0
   -1.4682   -2.2439   -2.7721 H   0  0  0  0  0  0  0  0  0  0  0  0
   -1.5966   -0.8733   -1.6833 H   0  0  0  0  0  0  0  0  0  0  0  0
   -2.8225   -0.4380   -3.7216 H   0  0  0  0  0  0  0  0  0  0  0  0
   -1.5481    0.7194   -3.5182 H   0  0  0  0  0  0  0  0  0  0  0  0
   -0.2425   -1.5554   -0.0883 H   0  0  0  0  0  0  0  0  0  0  0  0
    1.4573   -1.8447   -0.5866 H   0  0  0  0  0  0  0  0  0  0  0  0
   -0.2404    2.1287   -5.0798 H   0  0  0  0  0  0  0  0  0  0  0  0
    0.5644    2.1496   -3.6232 H   0  0  0  0  0  0  0  0  0  0  0  0
    2.0772    3.1993   -5.1901 H   0  0  0  0  0  0  0  0  0  0  0  0
    2.8021    1.8241   -4.3478 H   0  0  0  0  0  0  0  0  0  0  0  0
    0.7985    2.5980   -7.3895 H   0  0  0  0  0  0  0  0  0  0  0  0
    1.0748    0.9457   -8.1304 H   0  0  0  0  0  0  0  0  0  0  0  0
    0.1182    1.1427   -6.7024 H   0  0  0  0  0  0  0  0  0  0  0  0
    4.3594    1.7700   -6.5205 H   0  0  0  0  0  0  0  0  0  0  0  0
    3.5267    1.3273   -8.0456 H   0  0  0  0  0  0  0  0  0  0  0  0
    3.3396    2.9916   -7.3422 H   0  0  0  0  0  0  0  0  0  0  0  0
    3.8525   -0.0751   -5.9813 H   0  0  0  0  0  0  0  0  0  0  0  0
    2.5557   -0.1243   -4.9762 H   0  0  0  0  0  0  0  0  0  0  0  0
    2.3836   -0.6421   -6.8095 H   0  0  0  0  0  0  0  0  0  0  0  0
    0.9315   -3.3325    1.0357 H   0  0  0  0  0  0  0  0  0  0  0  0
    2.3180   -2.3081    1.3311 H   0  0  0  0  0  0  0  0  0  0  0  0
   -3.3285   -3.1421    5.5498 H   0  0  0  0  0  0  0  0  0  0  0  0
   -3.4158   -2.8692    3.8341 H   0  0  0  0  0  0  0  0  0  0  0  0
   -1.0344   -4.1509    5.3426 H   0  0  0  0  0  0  0  0  0  0  0  0
   -1.0956   -2.5491    4.7392 H   0  0  0  0  0  0  0  0  0  0  0  0
   -1.2977   -5.1153    2.9916 H   0  0  0  0  0  0  0  0  0  0  0  0
    0.1133   -4.1647    3.1903 H   0  0  0  0  0  0  0  0  0  0  0  0
   -2.5597   -3.1676    1.9738 H   0  0  0  0  0  0  0  0  0  0  0  0
   -1.1345   -3.5526    1.0902 H   0  0  0  0  0  0  0  0  0  0  0  0
   -1.4216   -1.2976    3.2171 H   0  0  0  0  0  0  0  0  0  0  0  0
   -1.3135   -1.0838    1.5282 H   0  0  0  0  0  0  0  0  0  0  0  0
    0.9142   -2.3244    3.3709 H   0  0  0  0  0  0  0  0  0  0  0  0
    0.9193   -0.7360    2.7199 H   0  0  0  0  0  0  0  0  0  0  0  0
   -4.6613   -4.9087    4.3890 H   0  0  0  0  0  0  0  0  0  0  0  0
   -3.3031   -5.3405    3.3860 H   0  0  0  0  0  0  0  0  0  0  0  0
   -3.3553   -5.5269    6.4384 H   0  0  0  0  0  0  0  0  0  0  0  0
   -3.4648   -6.8996    5.3064 H   0  0  0  0  0  0  0  0  0  0  0  0
   -1.9710   -5.9903    5.4387 H   0  0  0  0  0  0  0  0  0  0  0  0
  1 28  1  0  0  0  0
  1 29  1  0  0  0  0
  2  1  1  0  0  0  0
  2 30  1  0  0  0  0
  2 31  1  0  0  0  0
  3  2  1  0  0  0  0
  3 32  1  0  0  0  0
  3 33  1  0  0  0  0
  4  3  1  0  0  0  0
  4 34  1  0  0  0  0
  4 35  1  0  0  0  0
  5  4  1  0  0  0  0
  5 36  1  0  0  0  0
  5 37  1  0  0  0  0
  6  5  1  0  0  0  0
  6 38  1  0  0  0  0
  6 39  1  0  0  0  0
  7  1  1  0  0  0  0
  7 19  1  0  0  0  0
  7 40  1  0  0  0  0
  7 41  1  0  0  0  0
  8  6  1  0  0  0  0
  8 16  1  0  0  0  0
 10  9  1  0  0  0  0
 10 42  1  0  0  0  0
 10 43  1  0  0  0  0
 11 10  1  0  0  0  0
 11 44  1  0  0  0  0
 11 45  1  0  0  0  0
 12 11  1  0  0  0  0
 12 13  1  0  0  0  0
 12 14  1  0  0  0  0
 12 15  1  0  0  0  0
 13 46  1  0  0  0  0
 13 47  1  0  0  0  0
 13 48  1  0  0  0  0
 14 49  1  0  0  0  0
 14 50  1  0  0  0  0
 14 51  1  0  0  0  0
 15 52  1  0  0  0  0
 15 53  1  0  0  0  0
 15 54  1  0  0  0  0
 16  9  1  0  0  0  0
 16 17  2  0  0  0  0
 16 18  1  0  0  0  0
 19 25  1  0  0  0  0
 19 55  1  0  0  0  0
 19 56  1  0  0  0  0
 20 57  1  0  0  0  0
 20 58  1  0  0  0  0
 21 20  1  0  0  0  0
 21 59  1  0  0  0  0
 21 60  1  0  0  0  0
 22 21  1  0  0  0  0
 22 61  1  0  0  0  0
 22 62  1  0  0  0  0
 23 22  1  0  0  0  0
 23 63  1  0  0  0  0
 23 64  1  0  0  0  0
 24 23  1  0  0  0  0
 24 65  1  0  0  0  0
 24 66  1  0  0  0  0
 25 24  1  0  0  0  0
 25 67  1  0  0  0  0
 25 68  1  0  0  0  0
 26 20  1  0  0  0  0
 26 27  1  0  0  0  0
 26 69  1  0  0  0  0
 26 70  1  0  0  0  0
 27 71  1  0  0  0  0
 27 72  1  0  0  0  0
 27 73  1  0  0  0  0
M  CHG  2  12   1  18  -1
M  END
>  <DRUGBANK_ID>
DB09031

>  <COMMON_NAME>
Miltefosine

>  <CAS_NUMBER>
58066-85-6

>  <UNII>
53EY29W7EC

>  <SYNONYMS>
HDPC; hexadecyl 2-(trimethylazaniumyl)ethyl phosphate; Hexadecylphosphocholine; Hexadecylphosphorylcholine; Miltefosin; Miltefosina; Milt√©fosine; Miltefosine; Monohexadecylphosphocholine; Monohexadecylphosphorylcholine

$$$$
