
 OpenBabel10282417203D

199204  0  0  1  0  0  0  0  0999 V2000
    0.5444   -5.5966    6.0078 C   0  0  0  0  0  0  0  0  0  0  0  0
   -0.8584   -5.4902    7.0538 N   0  0  0  0  0  0  0  0  0  0  0  0
   -2.6301   -6.5781    7.2091 C   0  0  0  0  0  0  0  0  0  0  0  0
   -3.8972   -5.9204    8.5819 C   0  0  0  0  0  0  0  0  0  0  0  0
   -4.6326   -6.5000    9.5130 O   0  0  0  0  0  0  0  0  0  0  0  0
   -4.1629   -4.1700    9.0796 N   0  0  0  0  0  0  0  0  0  0  0  0
   -3.4233   -2.6233    8.5023 C   0  0  2  0  0  0  0  0  0  0  0  0
   -3.3558   -2.5084    6.6182 C   0  0  0  0  0  0  0  0  0  0  0  0
   -2.2442   -2.7524    5.7858 N   0  0  0  0  0  0  0  0  0  0  0  0
   -1.6577   -2.9397    4.1129 C   0  0  1  0  0  0  0  0  0  0  0  0
   -0.0655   -1.7929    3.5071 C   0  0  2  0  0  0  0  0  0  0  0  0
    1.3770   -2.2900    2.1070 C   0  0  1  0  0  0  0  0  0  0  0  0
    3.4416   -2.7533    2.6525 C   0  0  0  0  0  0  0  0  0  0  0  0
    3.6705   -4.2771    3.6246 N   0  0  0  0  0  0  0  0  0  0  0  0
    4.9210   -4.6125    4.1024 C   0  0  2  0  0  0  0  0  0  0  0  0
    5.3006   -3.8097    5.3328 C   0  0  0  0  0  0  0  0  0  0  0  0
    6.2457   -2.9060    5.4328 N   0  0  0  0  0  0  0  0  0  0  0  0
    6.4978   -2.2544    6.6891 C   0  0  0  0  0  0  0  0  0  0  0  0
    7.6777   -2.9389    7.3510 C   0  0  0  0  0  0  0  0  0  0  0  0
    8.8604   -2.8842    6.4222 C   0  0  0  0  0  0  0  0  0  0  0  0
   10.0516   -4.1172    6.3907 S   0  0  0  0  0  0  0  0  0  0  0  0
   10.8573   -3.2910    5.1076 C   0  0  0  0  0  0  0  0  0  0  0  0
   10.1709   -2.1387    4.7844 C   0  0  0  0  0  0  0  0  0  0  0  0
    9.0311   -1.9229    5.5364 N   0  0  0  0  0  0  0  0  0  0  0  0
   10.6269   -1.1250    3.7620 C   0  0  0  0  0  0  0  0  0  0  0  0
   10.7858   -1.4543    2.0839 S   0  0  0  0  0  0  0  0  0  0  0  0
   11.1518    0.2074    1.7963 C   0  0  0  0  0  0  0  0  0  0  0  0
   11.1871    0.9167    2.9839 C   0  0  0  0  0  0  0  0  0  0  0  0
   10.8589    0.1270    4.0968 N   0  0  0  0  0  0  0  0  0  0  0  0
   11.5075    2.3557    3.1524 C   0  0  0  0  0  0  0  0  0  0  0  0
   11.7940    3.0996    2.0128 N   0  0  0  0  0  0  0  0  0  0  0  0
   12.1436    4.5199    2.0941 C   0  0  0  0  0  0  0  0  0  0  0  0
   13.5310    4.8109    1.5224 C   0  0  0  0  0  0  0  0  0  0  0  0
   13.6212    4.4416    0.0574 C   0  0  0  0  0  0  0  0  0  0  0  0
   12.6751    5.2203   -0.7374 N   0  0  0  0  0  0  0  0  0  0  0  0
   12.7209    4.7912   -2.1271 C   0  0  0  0  0  0  0  0  0  0  0  0
   12.3372    3.3148   -2.2782 C   0  0  0  0  0  0  0  0  0  0  0  0
   10.9272    3.0352   -1.7462 C   0  0  0  0  0  0  0  0  0  0  0  0
    9.8904    3.8387   -2.5037 C   0  0  0  0  0  0  0  0  0  0  0  0
    9.9141    3.4681   -3.9162 N   0  0  0  0  0  0  0  0  0  0  0  0
    8.9745    4.2950   -4.6687 C   0  0  0  0  0  0  0  0  0  0  0  0
    9.3327    5.7825   -4.6039 C   0  0  0  0  0  0  0  0  0  0  0  0
   10.7286    6.0558   -5.1568 C   0  0  0  0  0  0  0  0  0  0  0  0
   10.8049    5.6652   -6.5568 N   0  0  0  0  0  0  0  0  0  0  0  0
   11.5303    2.8811    4.2622 O   0  0  0  0  0  0  0  0  0  0  0  0
    4.8406   -3.9722    6.4367 O   0  0  0  0  0  0  0  0  0  0  0  0
    5.6351   -4.2855    2.8525 C   0  0  1  0  0  0  0  0  0  0  0  0
    7.0328   -4.5759    3.1443 C   0  0  0  0  0  0  0  0  0  0  0  0
    5.1709   -5.0576    1.7356 O   0  0  0  0  0  0  0  0  0  0  0  0
    4.2083   -2.0628    3.5218 O   0  0  0  0  0  0  0  0  0  0  0  0
    0.3910   -3.6865    1.3883 C   0  0  0  0  0  0  0  0  0  0  0  0
    1.0512   -0.9626    4.9300 O   0  0  0  0  0  0  0  0  0  0  0  0
   -1.6515   -4.5457    3.7333 C   0  0  0  0  0  0  0  0  0  0  0  0
   -4.3665   -2.5092    5.9460 O   0  0  0  0  0  0  0  0  0  0  0  0
   -2.0485   -2.2611    9.5221 C   0  0  1  0  0  0  0  0  0  0  0  0
   -1.0821   -1.2220    9.2574 O   0  0  0  0  0  0  0  0  0  0  0  0
   -0.4137   -1.3578    8.0414 C   0  0  2  0  0  0  0  0  0  0  0  0
   -1.3565   -0.9346    7.1056 O   0  0  0  0  0  0  0  0  0  0  0  0
   -0.8881   -1.0504    5.7833 C   0  0  1  0  0  0  0  0  0  0  0  0
   -0.3041    0.3299    5.1923 C   0  0  0  0  0  0  0  0  0  0  0  0
    0.4426    0.4817    3.7620 O   0  0  0  0  0  0  0  0  0  0  0  0
    0.0777   -2.5833    5.9112 C   0  0  2  0  0  0  0  0  0  0  0  0
    0.9587   -3.1287    7.2119 C   0  0  1  0  0  0  0  0  0  0  0  0
    0.1752   -2.7426    8.2382 C   0  0  2  0  0  0  0  0  0  0  0  0
   -0.5201   -3.9453    8.3667 O   0  0  0  0  0  0  0  0  0  0  0  0
   -1.6588   -4.0010    7.4992 C   0  0  1  0  0  0  0  0  0  0  0  0
   -1.9449   -4.8357    5.8396 O   0  0  0  0  0  0  0  0  0  0  0  0
   -1.0635   -6.4727    5.4915 C   0  0  1  0  0  0  0  0  0  0  0  0
   -0.6798   -7.2398    7.3894 C   0  0  2  0  0  0  0  0  0  0  0  0
   -1.6985   -6.5356    8.8075 C   0  0  1  0  0  0  0  0  0  0  0  0
   -2.5117   -4.9153    8.0503 C   0  0  2  0  0  0  0  0  0  0  0  0
   -3.9090   -5.0951    6.8428 O   0  0  0  0  0  0  0  0  0  0  0  0
   -3.0719   -7.7100    8.7698 O   0  0  0  0  0  0  0  0  0  0  0  0
   -4.2637   -8.0119    7.5264 C   0  0  0  0  0  0  0  0  0  0  0  0
   -4.2911   -7.5520    6.3509 O   0  0  0  0  0  0  0  0  0  0  0  0
   -4.9258   -9.1896    7.6239 N   0  0  0  0  0  0  0  0  0  0  0  0
    0.3355   -8.1940    7.7678 O   0  0  0  0  0  0  0  0  0  0  0  0
    0.2208   -6.7234    4.0026 C   0  0  0  0  0  0  0  0  0  0  0  0
   -0.5829   -7.0513    2.9678 O   0  0  0  0  0  0  0  0  0  0  0  0
   -1.9137   -3.0514    7.6974 H   0  0  0  0  0  0  0  0  0  0  0  0
    1.7495   -4.6929    7.1194 O   0  0  0  0  0  0  0  0  0  0  0  0
    0.8018   -2.6518    4.8312 O   0  0  0  0  0  0  0  0  0  0  0  0
   -2.4094   -2.0476   10.8804 C   0  0  0  0  0  0  0  0  0  0  0  0
   -3.2752   -1.0636   11.1293 N   0  0  0  0  0  0  0  0  0  0  0  0
   -3.5280   -1.1633   12.4468 C   0  0  0  0  0  0  0  0  0  0  0  0
   -2.8712   -2.1490   13.0227 N   0  0  0  0  0  0  0  0  0  0  0  0
   -2.1494   -2.7290   12.0376 C   0  0  0  0  0  0  0  0  0  0  0  0
   -2.1105   -8.3227    6.6170 C   0  0  0  0  0  0  0  0  0  0  0  0
   -0.4615   -8.4545    5.7836 C   0  0  0  0  0  0  0  0  0  0  0  0
   -0.1093   -9.6900    5.3847 N   0  0  0  0  0  0  0  0  0  0  0  0
    0.9422   -7.2677    5.7194 N   0  0  0  0  0  0  0  0  0  0  0  0
   -2.2487   -9.4248    7.7400 C   0  0  0  0  0  0  0  0  0  0  0  0
    1.4789   -4.4225    5.3119 C   0  0  2  0  0  0  0  0  0  0  0  0
    0.9337   -4.2883    3.9494 C   0  0  0  0  0  0  0  0  0  0  0  0
    1.8905   -3.5919    3.3123 C   0  0  0  0  0  0  0  0  0  0  0  0
    2.2745   -4.2725    2.2587 O   0  0  0  0  0  0  0  0  0  0  0  0
    2.2791   -1.7966    3.7276 N   0  0  0  0  0  0  0  0  0  0  0  0
    2.8730   -3.6505    6.0191 N   0  0  0  0  0  0  0  0  0  0  0  0
    3.1402   -3.8549    7.9219 C   0  0  0  0  0  0  0  0  0  0  0  0
    2.2812   -5.1747    8.9649 C   0  0  2  0  0  0  0  0  0  0  0  0
    1.2594   -6.2124    8.3823 N   0  0  0  0  0  0  0  0  0  0  0  0
    1.5305   -4.8785   10.2531 C   0  0  0  0  0  0  0  0  0  0  0  0
    1.5008   -5.7973   11.0662 O   0  0  0  0  0  0  0  0  0  0  0  0
    0.7528   -3.7935   10.5048 N   0  0  0  0  0  0  0  0  0  0  0  0
   -4.7539   -3.9659    9.8748 H   0  0  0  0  0  0  0  0  0  0  0  0
   -4.0340   -1.7465    8.6811 H   0  0  0  0  0  0  0  0  0  0  0  0
   -1.4650   -2.9517    6.3245 H   0  0  0  0  0  0  0  0  0  0  0  0
   -2.6401   -2.6992    3.7407 H   0  0  0  0  0  0  0  0  0  0  0  0
   -0.7942   -0.9963    3.3169 H   0  0  0  0  0  0  0  0  0  0  0  0
    1.2682   -1.3677    1.5605 H   0  0  0  0  0  0  0  0  0  0  0  0
    3.1432   -5.1001    3.2370 H   0  0  0  0  0  0  0  0  0  0  0  0
    4.8426   -5.6930    4.3723 H   0  0  0  0  0  0  0  0  0  0  0  0
    6.8086   -2.6485    4.6613 H   0  0  0  0  0  0  0  0  0  0  0  0
    6.6689   -1.2255    6.3985 H   0  0  0  0  0  0  0  0  0  0  0  0
    5.6305   -2.2496    7.3722 H   0  0  0  0  0  0  0  0  0  0  0  0
    7.8913   -2.3998    8.2730 H   0  0  0  0  0  0  0  0  0  0  0  0
    7.4113   -3.9772    7.6038 H   0  0  0  0  0  0  0  0  0  0  0  0
   11.7973   -3.6467    4.7135 H   0  0  0  0  0  0  0  0  0  0  0  0
   11.3275    0.5747    0.7972 H   0  0  0  0  0  0  0  0  0  0  0  0
   11.7737    2.6667    1.1022 H   0  0  0  0  0  0  0  0  0  0  0  0
   11.3800    5.0911    1.5544 H   0  0  0  0  0  0  0  0  0  0  0  0
   12.1097    4.8627    3.1290 H   0  0  0  0  0  0  0  0  0  0  0  0
   13.7775    5.8725    1.6348 H   0  0  0  0  0  0  0  0  0  0  0  0
   14.2812    4.2340    2.0743 H   0  0  0  0  0  0  0  0  0  0  0  0
   14.6324    4.6015   -0.3258 H   0  0  0  0  0  0  0  0  0  0  0  0
   13.4211    3.3697   -0.0062 H   0  0  0  0  0  0  0  0  0  0  0  0
   11.7245    5.0992   -0.3887 H   0  0  0  0  0  0  0  0  0  0  0  0
   12.0345    5.4333   -2.6785 H   0  0  0  0  0  0  0  0  0  0  0  0
   13.7077    4.9836   -2.5517 H   0  0  0  0  0  0  0  0  0  0  0  0
   12.4256    3.0215   -3.3262 H   0  0  0  0  0  0  0  0  0  0  0  0
   13.0527    2.6692   -1.7647 H   0  0  0  0  0  0  0  0  0  0  0  0
   10.7023    1.9690   -1.8105 H   0  0  0  0  0  0  0  0  0  0  0  0
   10.8520    3.3020   -0.6875 H   0  0  0  0  0  0  0  0  0  0  0  0
    8.8959    3.6761   -2.0862 H   0  0  0  0  0  0  0  0  0  0  0  0
   10.1152    4.8968   -2.3483 H   0  0  0  0  0  0  0  0  0  0  0  0
   10.8462    3.6122   -4.3044 H   0  0  0  0  0  0  0  0  0  0  0  0
    8.9786    3.9547   -5.7094 H   0  0  0  0  0  0  0  0  0  0  0  0
    7.9633    4.1197   -4.2968 H   0  0  0  0  0  0  0  0  0  0  0  0
    8.5882    6.3632   -5.1542 H   0  0  0  0  0  0  0  0  0  0  0  0
    9.2679    6.1477   -3.5721 H   0  0  0  0  0  0  0  0  0  0  0  0
   10.9764    7.1124   -5.0358 H   0  0  0  0  0  0  0  0  0  0  0  0
   11.4870    5.4963   -4.6067 H   0  0  0  0  0  0  0  0  0  0  0  0
   11.7524    5.7979   -6.9000 H   0  0  0  0  0  0  0  0  0  0  0  0
   10.6140    4.6665   -6.6500 H   0  0  0  0  0  0  0  0  0  0  0  0
    5.5033   -3.2435    2.5626 H   0  0  0  0  0  0  0  0  0  0  0  0
    7.0933   -5.6179    3.4312 H   0  0  0  0  0  0  0  0  0  0  0  0
    7.6138   -4.2429    2.3077 H   0  0  0  0  0  0  0  0  0  0  0  0
    7.4165   -4.0588    3.9994 H   0  0  0  0  0  0  0  0  0  0  0  0
    5.2091   -5.9906    1.9920 H   0  0  0  0  0  0  0  0  0  0  0  0
   -0.6617   -3.5785    1.6630 H   0  0  0  0  0  0  0  0  0  0  0  0
    0.9443   -4.3227    0.7033 H   0  0  0  0  0  0  0  0  0  0  0  0
    0.4347   -4.7210    1.8556 H   0  0  0  0  0  0  0  0  0  0  0  0
    1.7339   -1.5023    5.5867 H   0  0  0  0  0  0  0  0  0  0  0  0
   -2.3096   -5.3999    3.9769 H   0  0  0  0  0  0  0  0  0  0  0  0
   -1.3336   -4.8301    2.7644 H   0  0  0  0  0  0  0  0  0  0  0  0
   -0.8608   -4.8827    4.3657 H   0  0  0  0  0  0  0  0  0  0  0  0
   -1.6015   -3.2120    9.7916 H   0  0  0  0  0  0  0  0  0  0  0  0
    0.4553   -0.7231    7.8099 H   0  0  0  0  0  0  0  0  0  0  0  0
   -1.8082   -1.0811    5.1104 H   0  0  0  0  0  0  0  0  0  0  0  0
   -1.1638    0.8924    5.0000 H   0  0  0  0  0  0  0  0  0  0  0  0
    0.4496    0.5380    5.9666 H   0  0  0  0  0  0  0  0  0  0  0  0
    1.0212   -0.3301    3.6118 H   0  0  0  0  0  0  0  0  0  0  0  0
   -0.3963   -3.5115    5.5453 H   0  0  0  0  0  0  0  0  0  0  0  0
    1.7905   -2.4115    7.2975 H   0  0  0  0  0  0  0  0  0  0  0  0
    1.0042   -2.5467    8.9162 H   0  0  0  0  0  0  0  0  0  0  0  0
   -0.2273   -6.8095    6.5910 H   0  0  0  0  0  0  0  0  0  0  0  0
   -1.4513   -7.0296    6.0061 H   0  0  0  0  0  0  0  0  0  0  0  0
   -0.9157   -6.5724    9.5529 H   0  0  0  0  0  0  0  0  0  0  0  0
   -2.4658   -4.6419    9.0503 H   0  0  0  0  0  0  0  0  0  0  0  0
   -3.7813   -5.7500    6.0393 H   0  0  0  0  0  0  0  0  0  0  0  0
   -4.5340   -9.8741    8.2341 H   0  0  0  0  0  0  0  0  0  0  0  0
   -5.1785   -9.5768    6.7192 H   0  0  0  0  0  0  0  0  0  0  0  0
    1.0853   -7.6393    8.0826 H   0  0  0  0  0  0  0  0  0  0  0  0
    1.2294   -6.1496    4.0012 H   0  0  0  0  0  0  0  0  0  0  0  0
    1.0785   -7.4720    3.9303 H   0  0  0  0  0  0  0  0  0  0  0  0
   -1.2461   -7.4504    3.5595 H   0  0  0  0  0  0  0  0  0  0  0  0
    1.1932   -5.1783    7.6250 H   0  0  0  0  0  0  0  0  0  0  0  0
    1.8124   -2.4833    4.6786 H   0  0  0  0  0  0  0  0  0  0  0  0
   -3.6536   -0.4491   10.4176 H   0  0  0  0  0  0  0  0  0  0  0  0
   -4.2020   -0.4803   12.9146 H   0  0  0  0  0  0  0  0  0  0  0  0
   -1.5390   -3.6160   12.1962 H   0  0  0  0  0  0  0  0  0  0  0  0
    0.8336   -9.2746    5.3344 H   0  0  0  0  0  0  0  0  0  0  0  0
   -0.4499  -10.0125    6.2927 H   0  0  0  0  0  0  0  0  0  0  0  0
   -2.6496   -9.9056    6.8786 H   0  0  0  0  0  0  0  0  0  0  0  0
   -1.3815   -9.2636    8.3687 H   0  0  0  0  0  0  0  0  0  0  0  0
   -2.9824   -9.4544    8.5809 H   0  0  0  0  0  0  0  0  0  0  0  0
    1.7582   -3.3536    5.8191 H   0  0  0  0  0  0  0  0  0  0  0  0
    0.5410   -5.0207    3.3567 H   0  0  0  0  0  0  0  0  0  0  0  0
    0.1258   -3.7011    3.5615 H   0  0  0  0  0  0  0  0  0  0  0  0
    2.1513   -1.0058    4.3771 H   0  0  0  0  0  0  0  0  0  0  0  0
    3.0884   -1.1711    3.4092 H   0  0  0  0  0  0  0  0  0  0  0  0
    3.1903   -4.5631    5.7483 H   0  0  0  0  0  0  0  0  0  0  0  0
    4.0793   -4.3144    8.0330 H   0  0  0  0  0  0  0  0  0  0  0  0
    2.9904   -2.8981    8.4310 H   0  0  0  0  0  0  0  0  0  0  0  0
    2.8859   -6.0457    8.7805 H   0  0  0  0  0  0  0  0  0  0  0  0
    0.2778   -5.7721    8.3614 H   0  0  0  0  0  0  0  0  0  0  0  0
    1.6079   -6.5014    7.3324 H   0  0  0  0  0  0  0  0  0  0  0  0
    0.0629   -3.4797    9.8642 H   0  0  0  0  0  0  0  0  0  0  0  0
    0.2166   -3.6955   11.3428 H   0  0  0  0  0  0  0  0  0  0  0  0
  1 91  2  0  0  0  0
  2  1  1  0  0  0  0
  3  2  2  0  0  0  0
  3  4  1  0  0  0  0
  4  5  2  0  0  0  0
  4  6  1  0  0  0  0
  6105  1  0  0  0  0
  7 55  1  0  0  0  0
  7106  1  1  0  0  0
  7  8  1  0  0  0  0
  7  6  1  0  0  0  0
  8  9  1  0  0  0  0
  8 54  2  0  0  0  0
  9 10  1  0  0  0  0
  9107  1  0  0  0  0
 10 53  1  0  0  0  0
 10108  1  6  0  0  0
 11 52  1  0  0  0  0
 11109  1  6  0  0  0
 11 12  1  0  0  0  0
 11 10  1  0  0  0  0
 12 13  1  0  0  0  0
 12 51  1  0  0  0  0
 12110  1  6  0  0  0
 13 14  1  0  0  0  0
 13 50  2  0  0  0  0
 14111  1  0  0  0  0
 15 47  1  0  0  0  0
 15112  1  1  0  0  0
 15 16  1  0  0  0  0
 15 14  1  0  0  0  0
 16 17  1  0  0  0  0
 16 46  2  0  0  0  0
 17 18  1  0  0  0  0
 17113  1  0  0  0  0
 18 19  1  0  0  0  0
 18114  1  0  0  0  0
 18115  1  0  0  0  0
 19 20  1  0  0  0  0
 19116  1  0  0  0  0
 19117  1  0  0  0  0
 20 21  1  0  0  0  0
 21 22  1  0  0  0  0
 22 23  2  0  0  0  0
 22118  1  0  0  0  0
 23 24  1  0  0  0  0
 23 25  1  0  0  0  0
 24 20  2  0  0  0  0
 25 26  1  0  0  0  0
 26 27  1  0  0  0  0
 27 28  2  0  0  0  0
 27119  1  0  0  0  0
 28 29  1  0  0  0  0
 28 30  1  0  0  0  0
 29 25  2  0  0  0  0
 30 31  1  0  0  0  0
 30 45  2  0  0  0  0
 31 32  1  0  0  0  0
 31120  1  0  0  0  0
 32 33  1  0  0  0  0
 32121  1  0  0  0  0
 32122  1  0  0  0  0
 33 34  1  0  0  0  0
 33123  1  0  0  0  0
 33124  1  0  0  0  0
 34 35  1  0  0  0  0
 34125  1  0  0  0  0
 34126  1  0  0  0  0
 35 36  1  0  0  0  0
 35127  1  0  0  0  0
 36 37  1  0  0  0  0
 36128  1  0  0  0  0
 36129  1  0  0  0  0
 37 38  1  0  0  0  0
 37130  1  0  0  0  0
 37131  1  0  0  0  0
 38 39  1  0  0  0  0
 38132  1  0  0  0  0
 38133  1  0  0  0  0
 39 40  1  0  0  0  0
 39134  1  0  0  0  0
 39135  1  0  0  0  0
 40 41  1  0  0  0  0
 40136  1  0  0  0  0
 41 42  1  0  0  0  0
 41137  1  0  0  0  0
 41138  1  0  0  0  0
 42 43  1  0  0  0  0
 42139  1  0  0  0  0
 42140  1  0  0  0  0
 43 44  1  0  0  0  0
 43141  1  0  0  0  0
 43142  1  0  0  0  0
 44143  1  0  0  0  0
 44144  1  0  0  0  0
 47 48  1  0  0  0  0
 47 49  1  0  0  0  0
 47145  1  6  0  0  0
 48146  1  0  0  0  0
 48147  1  0  0  0  0
 48148  1  0  0  0  0
 49149  1  0  0  0  0
 51150  1  0  0  0  0
 51151  1  0  0  0  0
 51152  1  0  0  0  0
 52153  1  0  0  0  0
 53154  1  0  0  0  0
 53155  1  0  0  0  0
 53156  1  0  0  0  0
 55 56  1  0  0  0  0
 55 83  1  0  0  0  0
 55157  1  1  0  0  0
 57 56  1  0  0  0  0
 57 58  1  0  0  0  0
 57 64  1  0  0  0  0
 57158  1  6  0  0  0
 58 59  1  0  0  0  0
 59 60  1  0  0  0  0
 59 62  1  0  0  0  0
 59159  1  6  0  0  0
 60 61  1  0  0  0  0
 60160  1  0  0  0  0
 60161  1  0  0  0  0
 61162  1  0  0  0  0
 62 63  1  0  0  0  0
 62 82  1  0  0  0  0
 62163  1  6  0  0  0
 63 64  1  0  0  0  0
 63 81  1  0  0  0  0
 63164  1  1  0  0  0
 64165  1  1  0  0  0
 64 65  1  0  0  0  0
 66 67  1  0  0  0  0
 66 71  1  0  0  0  0
 66 80  1  6  0  0  0
 66 65  1  0  0  0  0
 67 68  1  0  0  0  0
 68 69  1  0  0  0  0
 68166  1  1  0  0  0
 68 78  1  0  0  0  0
 69 70  1  0  0  0  0
 69 77  1  0  0  0  0
 69167  1  6  0  0  0
 70 71  1  0  0  0  0
 70 73  1  0  0  0  0
 70168  1  1  0  0  0
 71169  1  1  0  0  0
 71 72  1  0  0  0  0
 72170  1  0  0  0  0
 73 74  1  0  0  0  0
 74 75  2  0  0  0  0
 74 76  1  0  0  0  0
 76171  1  0  0  0  0
 76172  1  0  0  0  0
 77173  1  0  0  0  0
 78 79  1  0  0  0  0
 78174  1  0  0  0  0
 78175  1  0  0  0  0
 79176  1  0  0  0  0
 81177  1  0  0  0  0
 82178  1  0  0  0  0
 83 84  1  0  0  0  0
 84 85  1  0  0  0  0
 84179  1  0  0  0  0
 85 86  2  0  0  0  0
 85180  1  0  0  0  0
 86 87  1  0  0  0  0
 87 83  2  0  0  0  0
 87181  1  0  0  0  0
 88  3  1  0  0  0  0
 88 92  1  0  0  0  0
 89 88  2  0  0  0  0
 89 90  1  0  0  0  0
 90182  1  0  0  0  0
 90183  1  0  0  0  0
 91 89  1  0  0  0  0
 92184  1  0  0  0  0
 92185  1  0  0  0  0
 92186  1  0  0  0  0
 93 98  1  0  0  0  0
 93187  1  1  0  0  0
 93 94  1  0  0  0  0
 93  1  1  0  0  0  0
 94 95  1  0  0  0  0
 94188  1  0  0  0  0
 94189  1  0  0  0  0
 95 96  2  0  0  0  0
 95 97  1  0  0  0  0
 97190  1  0  0  0  0
 97191  1  0  0  0  0
 98 99  1  0  0  0  0
 98192  1  0  0  0  0
 99193  1  0  0  0  0
 99194  1  0  0  0  0
100102  1  0  0  0  0
100195  1  1  0  0  0
100101  1  0  0  0  0
100 99  1  0  0  0  0
101196  1  0  0  0  0
101197  1  0  0  0  0
102103  2  0  0  0  0
102104  1  0  0  0  0
104198  1  0  0  0  0
104199  1  0  0  0  0
M  END
>  <DRUGBANK_ID>
DB12992

>  <COMMON_NAME>
Bleomycin A6

>  <CAS_NUMBER>
37293-17-7

>  <UNII>
0B19OCB220

>  <SYNONYMS>
Boanmycin; Pingyangmycin A6; Zhengguangmycin A6

$$$$
