
 OpenBabel10282417123D

 24 23  0  0  1  0  0  0  0  0999 V2000
    4.5694   -4.1043    3.2707 C   0  0  0  0  0  0  0  0  0  0  0  0
    3.3754   -3.1832    3.4817 C   0  0  0  0  0  0  0  0  0  0  0  0
    2.5887   -3.3988    4.3890 O   0  0  0  0  0  0  0  0  0  0  0  0
    3.1516   -2.0138    2.4875 C   0  0  1  0  0  0  0  0  0  0  0  0
    4.3113   -1.2068    2.3682 O   0  0  0  0  0  0  0  0  0  0  0  0
    2.6796   -2.3922    1.0716 C   0  0  2  0  0  0  0  0  0  0  0  0
    1.4156   -1.7120    0.9135 O   0  0  0  0  0  0  0  0  0  0  0  0
    2.8781   -3.9404    0.8547 C   0  0  0  0  0  0  0  0  0  0  0  0
    2.3178   -4.6340   -0.2362 O   0  0  0  0  0  0  0  0  0  0  0  0
    0.5975   -4.4634   -0.3025 P   0  0  0  0  0  0  0  0  0  0  0  0
    0.5531   -3.7776    1.1788 O   0  0  0  0  0  0  0  0  0  0  0  0
    0.9538   -3.3012   -1.3747 O   0  0  0  0  0  0  0  0  0  0  0  0
   -0.9421   -4.3107   -0.3619 O   0  0  0  0  0  0  0  0  0  0  0  0
    4.6844   -4.7406    4.1486 H   0  0  0  0  0  0  0  0  0  0  0  0
    5.4717   -3.5215    3.0964 H   0  0  0  0  0  0  0  0  0  0  0  0
    4.4383   -4.8087    2.4513 H   0  0  0  0  0  0  0  0  0  0  0  0
    2.3711   -1.3950    2.9614 H   0  0  0  0  0  0  0  0  0  0  0  0
    4.3541   -0.6797    3.1835 H   0  0  0  0  0  0  0  0  0  0  0  0
    3.2624   -1.9185    0.2818 H   0  0  0  0  0  0  0  0  0  0  0  0
    0.7133   -2.2581    1.3296 H   0  0  0  0  0  0  0  0  0  0  0  0
    3.9485   -4.0899    0.7347 H   0  0  0  0  0  0  0  0  0  0  0  0
    2.5334   -4.5279    1.7165 H   0  0  0  0  0  0  0  0  0  0  0  0
    0.2142   -4.3727    1.8715 H   0  0  0  0  0  0  0  0  0  0  0  0
    1.4812   -3.7162   -2.0876 H   0  0  0  0  0  0  0  0  0  0  0  0
  1  2  1  0  0  0  0
  1 14  1  0  0  0  0
  1 15  1  0  0  0  0
  1 16  1  0  0  0  0
  2  3  2  0  0  0  0
  2  4  1  0  0  0  0
  4  5  1  0  0  0  0
  4 17  1  1  0  0  0
  5 18  1  0  0  0  0
  6  8  1  0  0  0  0
  6 19  1  6  0  0  0
  6  7  1  0  0  0  0
  6  4  1  0  0  0  0
  7 20  1  0  0  0  0
  8  9  1  0  0  0  0
  8 21  1  0  0  0  0
  8 22  1  0  0  0  0
  9 10  1  0  0  0  0
 10 11  1  0  0  0  0
 10 12  1  0  0  0  0
 10 13  2  0  0  0  0
 11 23  1  0  0  0  0
 12 24  1  0  0  0  0
M  END
>  <DRUGBANK_ID>
DB02496

>  <SECONDARY_ACCESSION_NUMBERS>
EXPT01308

>  <COMMON_NAME>
1-Deoxy-D-xylulose 5-phosphate

>  <CAS_NUMBER>
190079-18-6

>  <UNII>
I4C288B3TN

$$$$
