
 OpenBabel10282417243D

194199  0  0  1  0  0  0  0  0999 V2000
    0.9607   -0.0783    0.0483 Ga  0  1  0  0  0  0  0  0  0  0  0  0
    1.0772   -0.0379    0.0510 C   0  0  0  0  0  0  0  0  0  0  0  0
    0.5706    0.7327   -1.1572 C   0  0  1  0  0  0  0  0  0  0  0  0
    1.0439    0.1152   -2.3451 O   0  0  0  0  0  0  0  0  0  0  0  0
   -0.9494    0.7327   -1.1572 C   0  0  1  0  0  0  0  0  0  0  0  0
   -1.4561    1.3938    0.1143 C   0  0  0  0  0  0  0  0  0  0  0  0
   -0.9828    2.7313    0.1734 O   0  0  0  0  0  0  0  0  0  0  0  0
   -1.4394    1.4780   -2.3257 N   0  0  0  0  0  0  0  0  0  0  0  0
   -2.2846    0.8071   -3.3239 C   0  0  0  0  0  0  0  0  0  0  0  0
   -2.7082    1.4514   -4.3342 O   0  0  0  0  0  0  0  0  0  0  0  0
   -2.6518   -0.6574   -3.1479 C   0  0  0  0  0  0  0  0  0  0  0  0
  -19.6921   -6.0639   -4.1537 C   0  0  0  0  0  0  0  0  0  0  0  0
  -18.6515   -5.5324   -2.7714 S   0  0  0  0  0  0  0  0  0  0  0  0
  -19.7015   -5.7791   -0.9695 S   0  0  0  0  0  0  0  0  0  0  0  0
  -18.6609   -5.2476    0.4128 C   0  0  0  0  0  0  0  0  0  0  0  0
  -17.3942   -6.0872    0.4454 C   0  0  2  0  0  0  0  0  0  0  0  0
  -16.5491   -5.6555    1.5681 N   0  0  0  0  0  0  0  0  0  0  0  0
  -17.2162   -5.0074    2.7064 C   0  0  0  0  0  0  0  0  0  0  0  0
  -16.5343   -4.6225    3.7075 O   0  0  0  0  0  0  0  0  0  0  0  0
  -18.7215   -4.7975    2.6863 C   0  0  1  0  0  0  0  0  0  0  0  0
  -19.0958   -3.9276    1.4974 C   0  0  0  0  0  0  0  0  0  0  0  0
  -18.6626   -4.6129    0.2117 C   0  0  0  0  0  0  0  0  0  0  0  0
  -17.3984   -4.9047   -0.0712 C   0  0  0  0  0  0  0  0  0  0  0  0
  -17.0722   -5.5322   -1.2492 C   0  0  0  0  0  0  0  0  0  0  0  0
  -18.0243   -5.7886   -2.1964 C   0  0  0  0  0  0  0  0  0  0  0  0
  -19.2765   -5.5530   -1.8494 C   0  0  0  0  0  0  0  0  0  0  0  0
  -19.6672   -4.7868   -0.7258 C   0  0  0  0  0  0  0  0  0  0  0  0
  -19.3962   -6.0986    2.5732 N   0  0  0  0  0  0  0  0  0  0  0  0
  -20.3250   -6.5387    3.6241 C   0  0  0  0  0  0  0  0  0  0  0  0
  -20.9083   -7.6636    3.5263 O   0  0  0  0  0  0  0  0  0  0  0  0
  -20.5878   -5.6484    4.8277 C   0  0  0  0  0  0  0  0  0  0  0  0
  -19.3271   -5.4097    5.5452 N   0  0  0  0  0  0  0  0  0  0  0  0
  -18.3088   -4.5756    4.8906 C   0  0  0  0  0  0  0  0  0  0  0  0
  -18.3483   -3.1096    5.2523 C   0  0  0  0  0  0  0  0  0  0  0  0
  -17.6352   -2.7931    6.4839 N   0  0  0  0  0  0  0  0  0  0  0  0
  -17.4130   -1.3410    6.5379 C   0  0  0  0  0  0  0  0  0  0  0  0
  -18.7527   -0.6251    6.5927 C   0  0  0  0  0  0  0  0  0  0  0  0
  -19.0676    0.2085    7.6984 O   0  5  0  0  0  0  0  0  0  0  0  0
  -19.5910   -0.7724    5.6489 O   0  0  0  0  0  0  0  0  0  0  0  0
  -18.3707   -3.2004    7.6886 C   0  0  0  0  0  0  0  0  0  0  0  0
  -17.4314   -3.4962    8.8423 C   0  0  0  0  0  0  0  0  0  0  0  0
  -17.0000   -4.8982    8.8616 N   0  0  0  0  0  0  0  0  0  0  0  0
  -15.7342   -5.0069    9.6011 C   0  0  0  0  0  0  0  0  0  0  0  0
  -15.9397   -4.5313   11.0301 C   0  0  0  0  0  0  0  0  0  0  0  0
  -15.7011   -5.4166   12.1143 O   0  5  0  0  0  0  0  0  0  0  0  0
  -16.3252   -3.3412   11.2545 O   0  0  0  0  0  0  0  0  0  0  0  0
  -18.0183   -5.7322    9.5161 C   0  0  0  0  0  0  0  0  0  0  0  0
  -17.9788   -7.1983    9.1545 C   0  0  0  0  0  0  0  0  0  0  0  0
  -18.6928   -7.5146    7.9231 N   0  0  0  0  0  0  0  0  0  0  0  0
  -19.9882   -6.8199    7.9394 C   0  0  0  0  0  0  0  0  0  0  0  0
  -19.7572   -5.3176    7.9575 C   0  0  0  0  0  0  0  0  0  0  0  0
  -20.2630   -4.5088    6.9057 O   0  5  0  0  0  0  0  0  0  0  0  0
  -19.1115   -4.7855    8.9141 O   0  0  0  0  0  0  0  0  0  0  0  0
  -17.9564   -7.1074    6.7182 C   0  0  0  0  0  0  0  0  0  0  0  0
  -18.8957   -6.8116    5.5645 C   0  0  0  0  0  0  0  0  0  0  0  0
  -16.6342   -5.9086   -0.8587 C   0  0  0  0  0  0  0  0  0  0  0  0
  -17.1822   -6.2225   -1.9616 O   0  0  0  0  0  0  0  0  0  0  0  0
  -15.2654   -5.3729   -0.8444 N   0  0  0  0  0  0  0  0  0  0  0  0
  -14.5304   -5.2003   -2.1057 C   0  0  0  0  0  0  0  0  0  0  0  0
  -15.4043   -5.6466   -3.2665 C   0  0  0  0  0  0  0  0  0  0  0  0
  -14.6443   -5.4680   -4.5707 C   0  0  0  0  0  0  0  0  0  0  0  0
  -14.4561   -4.2443   -5.0507 C   0  0  0  0  0  0  0  0  0  0  0  0
  -13.6566   -4.0392   -6.1491 C   0  0  0  0  0  0  0  0  0  0  0  0
  -13.1106   -5.0929   -6.8281 C   0  0  0  0  0  0  0  0  0  0  0  0
  -13.2578   -6.2850   -6.2792 C   0  0  0  0  0  0  0  0  0  0  0  0
  -12.4279   -7.3553   -6.7690 C   0  0  0  0  0  0  0  0  0  0  0  0
  -12.5478   -8.6752   -6.2054 C   0  0  0  0  0  0  0  0  0  0  0  0
  -11.7179   -9.7454   -6.6952 C   0  0  0  0  0  0  0  0  0  0  0  0
  -14.5815   -7.9265   -4.9182 C   0  0  0  0  0  0  0  0  0  0  0  0
  -14.1743   -6.5839   -5.2434 C   0  0  0  0  0  0  0  0  0  0  0  0
  -14.1632   -3.7358   -2.2817 C   0  0  0  0  0  0  0  0  0  0  0  0
  -15.0765   -2.8537   -2.3353 O   0  0  0  0  0  0  0  0  0  0  0  0
  -12.7517   -3.3399   -2.3899 N   0  0  0  0  0  0  0  0  0  0  0  0
  -12.3965   -1.9236   -2.5602 C   0  0  2  0  0  0  0  0  0  0  0  0
  -11.6365   -1.7451   -3.8644 C   0  0  0  0  0  0  0  0  0  0  0  0
  -12.5102   -2.1913   -5.0254 C   0  0  0  0  0  0  0  0  0  0  0  0
  -13.4756   -2.1356   -2.8127 C   0  0  0  0  0  0  0  0  0  0  0  0
  -13.7572   -3.4996   -2.8239 N   0  0  0  0  0  0  0  0  0  0  0  0
  -13.5201   -4.2503   -3.9729 C   0  0  0  0  0  0  0  0  0  0  0  0
  -13.7931   -5.5498   -3.9699 C   0  0  0  0  0  0  0  0  0  0  0  0
  -13.7163   -6.2833   -5.1292 C   0  0  0  0  0  0  0  0  0  0  0  0
  -13.2707   -5.7172   -6.2913 C   0  0  0  0  0  0  0  0  0  0  0  0
  -13.0807   -4.4104   -6.2729 C   0  0  0  0  0  0  0  0  0  0  0  0
  -13.0039   -3.6271   -5.0971 C   0  0  0  0  0  0  0  0  0  0  0  0
  -11.5227   -1.4773   -1.3993 C   0  0  0  0  0  0  0  0  0  0  0  0
  -11.9647   -1.5421   -0.2096 O   0  0  0  0  0  0  0  0  0  0  0  0
  -10.1662   -0.9707   -1.6528 N   0  0  0  0  0  0  0  0  0  0  0  0
   -9.3211   -0.5391   -0.5302 C   0  0  1  0  0  0  0  0  0  0  0  0
  -10.0811   -0.7176    0.7740 C   0  0  0  0  0  0  0  0  0  0  0  0
   -9.2072   -0.2713    1.9348 C   0  0  0  0  0  0  0  0  0  0  0  0
   -8.8400    1.1931    1.7588 C   0  0  0  0  0  0  0  0  0  0  0  0
  -10.1067    2.0327    1.7261 C   0  0  0  0  0  0  0  0  0  0  0  0
  -10.8416    1.8600    2.9874 N   0  0  0  0  0  0  0  0  0  0  0  0
   -8.0544   -1.3787   -0.4975 C   0  0  0  0  0  0  0  0  0  0  0  0
   -8.1311   -2.6394   -0.3570 O   0  0  0  0  0  0  0  0  0  0  0  0
   -6.7406   -0.7323   -0.6284 N   0  0  0  0  0  0  0  0  0  0  0  0
   -5.5156   -1.5443   -0.5968 C   0  0  0  0  0  0  0  0  0  0  0  0
   -5.8828   -3.0087   -0.4208 C   0  0  1  0  0  0  0  0  0  0  0  0
   -4.6161   -3.8483   -0.3881 C   0  0  0  0  0  0  0  0  0  0  0  0
   -6.5928   -3.1755    0.7976 O   0  0  0  0  0  0  0  0  0  0  0  0
   -4.7556   -1.3657   -1.9010 C   0  0  0  0  0  0  0  0  0  0  0  0
   -5.3036   -1.6796   -3.0039 O   0  0  0  0  0  0  0  0  0  0  0  0
   -3.3868   -0.8301   -1.8866 N   0  0  0  0  0  0  0  0  0  0  0  0
    0.7206   -1.0457    0.0064 H   0  0  0  0  0  0  0  0  0  0  0  0
    0.7206    0.4274    0.9461 H   0  0  0  0  0  0  0  0  0  0  0  0
    2.1472   -0.0379    0.0510 H   0  0  0  0  0  0  0  0  0  0  0  0
    0.9272    1.7406   -1.1127 H   0  0  0  0  0  0  0  0  0  0  0  0
    2.0439    0.1152   -2.3451 H   0  0  0  0  0  0  0  0  0  0  0  0
   -1.3061   -0.2751   -1.2018 H   0  0  0  0  0  0  0  0  0  0  0  0
   -2.5261    1.3938    0.1143 H   0  0  0  0  0  0  0  0  0  0  0  0
   -1.0994    0.8513    0.9648 H   0  0  0  0  0  0  0  0  0  0  0  0
    0.0172    2.7313    0.1734 H   0  0  0  0  0  0  0  0  0  0  0  0
   -1.1930    2.4607   -2.4439 H   0  0  0  0  0  0  0  0  0  0  0  0
   -3.2669   -0.9716   -3.9651 H   0  0  0  0  0  0  0  0  0  0  0  0
  -20.5838   -5.4729   -4.1767 H   0  0  0  0  0  0  0  0  0  0  0  0
  -19.1571   -5.9382   -5.0718 H   0  0  0  0  0  0  0  0  0  0  0  0
  -19.1959   -5.3733    1.3308 H   0  0  0  0  0  0  0  0  0  0  0  0
  -18.4024   -4.2167    0.2888 H   0  0  0  0  0  0  0  0  0  0  0  0
  -17.6527   -7.1181    0.5694 H   0  0  0  0  0  0  0  0  0  0  0  0
  -15.5390   -5.7964    1.5816 H   0  0  0  0  0  0  0  0  0  0  0  0
  -19.0265   -4.3150    3.5913 H   0  0  0  0  0  0  0  0  0  0  0  0
  -20.1555   -3.7798    1.4832 H   0  0  0  0  0  0  0  0  0  0  0  0
  -18.6047   -2.9805    1.5797 H   0  0  0  0  0  0  0  0  0  0  0  0
  -16.6268   -4.6489    0.6246 H   0  0  0  0  0  0  0  0  0  0  0  0
  -16.0585   -5.8243   -1.4279 H   0  0  0  0  0  0  0  0  0  0  0  0
  -17.7685   -6.1602   -3.1667 H   0  0  0  0  0  0  0  0  0  0  0  0
  -20.0494   -5.9704   -2.4604 H   0  0  0  0  0  0  0  0  0  0  0  0
  -20.6497   -4.3788   -0.6109 H   0  0  0  0  0  0  0  0  0  0  0  0
  -19.2198   -6.6960    1.7654 H   0  0  0  0  0  0  0  0  0  0  0  0
  -20.9934   -4.7145    4.4988 H   0  0  0  0  0  0  0  0  0  0  0  0
  -21.2848   -6.1294    5.4817 H   0  0  0  0  0  0  0  0  0  0  0  0
  -17.3624   -4.9401    5.2319 H   0  0  0  0  0  0  0  0  0  0  0  0
  -18.4428   -4.6592    3.8324 H   0  0  0  0  0  0  0  0  0  0  0  0
  -17.8608   -2.5781    4.4619 H   0  0  0  0  0  0  0  0  0  0  0  0
  -19.3710   -2.8173    5.3688 H   0  0  0  0  0  0  0  0  0  0  0  0
  -16.8436   -1.0996    7.4111 H   0  0  0  0  0  0  0  0  0  0  0  0
  -16.8775   -1.0294    5.6655 H   0  0  0  0  0  0  0  0  0  0  0  0
  -19.0126   -2.3946    7.9776 H   0  0  0  0  0  0  0  0  0  0  0  0
  -18.9381   -4.0804    7.4682 H   0  0  0  0  0  0  0  0  0  0  0  0
  -16.5605   -2.8867    8.7206 H   0  0  0  0  0  0  0  0  0  0  0  0
  -17.9349   -3.2782    9.7609 H   0  0  0  0  0  0  0  0  0  0  0  0
  -15.4114   -6.0270    9.6077 H   0  0  0  0  0  0  0  0  0  0  0  0
  -14.9909   -4.4007    9.1269 H   0  0  0  0  0  0  0  0  0  0  0  0
  -17.8153   -5.6798   10.5654 H   0  0  0  0  0  0  0  0  0  0  0  0
  -18.9812   -5.3509    9.2473 H   0  0  0  0  0  0  0  0  0  0  0  0
  -16.9521   -7.4553    8.9971 H   0  0  0  0  0  0  0  0  0  0  0  0
  -18.4197   -7.7560    9.9541 H   0  0  0  0  0  0  0  0  0  0  0  0
  -20.5458   -7.0845    7.0653 H   0  0  0  0  0  0  0  0  0  0  0  0
  -20.5360   -7.1071    8.8124 H   0  0  0  0  0  0  0  0  0  0  0  0
  -17.4114   -6.2147    6.9440 H   0  0  0  0  0  0  0  0  0  0  0  0
  -17.2934   -7.8973    6.4327 H   0  0  0  0  0  0  0  0  0  0  0  0
  -19.7666   -7.4212    5.6861 H   0  0  0  0  0  0  0  0  0  0  0  0
  -18.3922   -7.0297    4.6459 H   0  0  0  0  0  0  0  0  0  0  0  0
  -14.8256   -5.1211    0.0408 H   0  0  0  0  0  0  0  0  0  0  0  0
  -13.6387   -5.7913   -2.0826 H   0  0  0  0  0  0  0  0  0  0  0  0
  -15.6628   -6.6775   -3.1426 H   0  0  0  0  0  0  0  0  0  0  0  0
  -16.2959   -5.0556   -3.2895 H   0  0  0  0  0  0  0  0  0  0  0  0
  -14.9314   -3.4105   -4.5777 H   0  0  0  0  0  0  0  0  0  0  0  0
  -13.4583   -3.0404   -6.4778 H   0  0  0  0  0  0  0  0  0  0  0  0
  -12.5919   -4.9589   -7.7543 H   0  0  0  0  0  0  0  0  0  0  0  0
  -11.7222   -7.1698   -7.5517 H   0  0  0  0  0  0  0  0  0  0  0  0
  -13.2535   -8.8606   -5.4228 H   0  0  0  0  0  0  0  0  0  0  0  0
  -11.0122   -9.5600   -7.4779 H   0  0  0  0  0  0  0  0  0  0  0  0
  -15.2783   -8.0967   -4.1242 H   0  0  0  0  0  0  0  0  0  0  0  0
  -12.0186   -4.0479   -2.3469 H   0  0  0  0  0  0  0  0  0  0  0  0
  -13.2882   -1.3326   -2.5832 H   0  0  0  0  0  0  0  0  0  0  0  0
  -11.3879   -0.7110   -3.9819 H   0  0  0  0  0  0  0  0  0  0  0  0
  -10.7394   -2.3280   -3.8484 H   0  0  0  0  0  0  0  0  0  0  0  0
  -13.0770   -1.6644   -3.6867 H   0  0  0  0  0  0  0  0  0  0  0  0
  -14.1372   -3.9488   -1.9906 H   0  0  0  0  0  0  0  0  0  0  0  0
  -14.0755   -6.0301   -3.0564 H   0  0  0  0  0  0  0  0  0  0  0  0
  -14.0095   -7.3123   -5.1225 H   0  0  0  0  0  0  0  0  0  0  0  0
  -13.0857   -6.3015   -7.1683 H   0  0  0  0  0  0  0  0  0  0  0  0
  -12.9779   -3.9091   -7.2126 H   0  0  0  0  0  0  0  0  0  0  0  0
   -9.8114   -0.9187   -2.6077 H   0  0  0  0  0  0  0  0  0  0  0  0
   -9.0626    0.4918   -0.6541 H   0  0  0  0  0  0  0  0  0  0  0  0
  -10.9727   -0.1266    0.7510 H   0  0  0  0  0  0  0  0  0  0  0  0
  -10.3395   -1.7485    0.8979 H   0  0  0  0  0  0  0  0  0  0  0  0
   -9.7422   -0.3970    2.8529 H   0  0  0  0  0  0  0  0  0  0  0  0
   -8.3155   -0.8623    1.9579 H   0  0  0  0  0  0  0  0  0  0  0  0
   -8.2248    1.5073    2.5760 H   0  0  0  0  0  0  0  0  0  0  0  0
   -8.3050    1.3188    0.8407 H   0  0  0  0  0  0  0  0  0  0  0  0
   -9.8482    3.0636    1.6022 H   0  0  0  0  0  0  0  0  0  0  0  0
  -10.7218    1.7185    0.9090 H   0  0  0  0  0  0  0  0  0  0  0  0
  -11.6916    2.4234    2.9655 H   0  0  0  0  0  0  0  0  0  0  0  0
  -11.0881    0.8773    3.1056 H   0  0  0  0  0  0  0  0  0  0  0  0
   -6.6790    0.2795   -0.7412 H   0  0  0  0  0  0  0  0  0  0  0  0
   -4.9004   -1.2301    0.2204 H   0  0  0  0  0  0  0  0  0  0  0  0
   -6.4980   -3.3229   -1.2379 H   0  0  0  0  0  0  0  0  0  0  0  0
   -4.0010   -3.5341    0.4291 H   0  0  0  0  0  0  0  0  0  0  0  0
   -4.8746   -4.8792   -0.2641 H   0  0  0  0  0  0  0  0  0  0  0  0
   -4.0812   -3.7226   -1.3062 H   0  0  0  0  0  0  0  0  0  0  0  0
   -6.0179   -2.8819    1.5613 H   0  0  0  0  0  0  0  0  0  0  0  0
   -2.9470   -0.5782   -1.0014 H   0  0  0  0  0  0  0  0  0  0  0  0
  2104  1  0  0  0  0
  2105  1  0  0  0  0
  2106  1  0  0  0  0
  3  2  1  0  0  0  0
  3  4  1  0  0  0  0
  3  5  1  0  0  0  0
  3107  1  1  0  0  0
  4108  1  0  0  0  0
  5  6  1  0  0  0  0
  5  8  1  0  0  0  0
  5109  1  6  0  0  0
  6  7  1  0  0  0  0
  6110  1  0  0  0  0
  6111  1  0  0  0  0
  7112  1  0  0  0  0
  8  9  1  0  0  0  0
  8113  1  0  0  0  0
  9 10  2  0  0  0  0
 11  9  1  0  0  0  0
 11 12  1  0  0  0  0
 11103  1  0  0  0  0
 11114  1  0  0  0  0
 12 13  1  0  0  0  0
 12115  1  0  0  0  0
 12116  1  0  0  0  0
 13 14  1  0  0  0  0
 14 15  1  0  0  0  0
 15117  1  0  0  0  0
 15118  1  0  0  0  0
 16 15  1  0  0  0  0
 16 56  1  0  0  0  0
 16119  1  1  0  0  0
 16 17  1  0  0  0  0
 17 18  1  0  0  0  0
 17120  1  0  0  0  0
 18 19  2  0  0  0  0
 20 18  1  0  0  0  0
 20 21  1  0  0  0  0
 20 28  1  0  0  0  0
 20121  1  1  0  0  0
 21 22  1  0  0  0  0
 21122  1  0  0  0  0
 21123  1  0  0  0  0
 22 23  2  0  0  0  0
 22 27  1  0  0  0  0
 23 24  1  0  0  0  0
 23124  1  0  0  0  0
 24 25  2  0  0  0  0
 24125  1  0  0  0  0
 25 26  1  0  0  0  0
 25126  1  0  0  0  0
 26 27  2  0  0  0  0
 26127  1  0  0  0  0
 27128  1  0  0  0  0
 28 29  1  0  0  0  0
 28129  1  0  0  0  0
 29 30  2  0  0  0  0
 29 31  1  0  0  0  0
 31 32  1  0  0  0  0
 31130  1  0  0  0  0
 31131  1  0  0  0  0
 32 33  1  0  0  0  0
 32 55  1  0  0  0  0
 33 34  1  0  0  0  0
 33132  1  0  0  0  0
 33133  1  0  0  0  0
 34 35  1  0  0  0  0
 34134  1  0  0  0  0
 34135  1  0  0  0  0
 35 36  1  0  0  0  0
 35 40  1  0  0  0  0
 36 37  1  0  0  0  0
 36136  1  0  0  0  0
 36137  1  0  0  0  0
 37 38  1  0  0  0  0
 37 39  2  0  0  0  0
 40 41  1  0  0  0  0
 40138  1  0  0  0  0
 40139  1  0  0  0  0
 41 42  1  0  0  0  0
 41140  1  0  0  0  0
 41141  1  0  0  0  0
 42 43  1  0  0  0  0
 42 47  1  0  0  0  0
 43 44  1  0  0  0  0
 43142  1  0  0  0  0
 43143  1  0  0  0  0
 44 45  1  0  0  0  0
 44 46  2  0  0  0  0
 47 48  1  0  0  0  0
 47144  1  0  0  0  0
 47145  1  0  0  0  0
 48 49  1  0  0  0  0
 48146  1  0  0  0  0
 48147  1  0  0  0  0
 49 50  1  0  0  0  0
 49 54  1  0  0  0  0
 50 51  1  0  0  0  0
 50148  1  0  0  0  0
 50149  1  0  0  0  0
 51 52  1  0  0  0  0
 51 53  2  0  0  0  0
 54 55  1  0  0  0  0
 54150  1  0  0  0  0
 54151  1  0  0  0  0
 55152  1  0  0  0  0
 55153  1  0  0  0  0
 56 57  2  0  0  0  0
 56 58  1  0  0  0  0
 58154  1  0  0  0  0
 59 58  1  0  0  0  0
 59 60  1  0  0  0  0
 59 71  1  0  0  0  0
 59155  1  0  0  0  0
 60 61  1  0  0  0  0
 60156  1  0  0  0  0
 60157  1  0  0  0  0
 61 62  2  0  0  0  0
 61 70  1  0  0  0  0
 62 63  1  0  0  0  0
 62158  1  0  0  0  0
 63 64  2  0  0  0  0
 63159  1  0  0  0  0
 64 65  1  0  0  0  0
 64160  1  0  0  0  0
 65 66  2  0  0  0  0
 65 70  1  0  0  0  0
 66 67  1  0  0  0  0
 66161  1  0  0  0  0
 67 68  2  0  0  0  0
 67162  1  0  0  0  0
 68 69  1  0  0  0  0
 68163  1  0  0  0  0
 69 70  2  0  0  0  0
 69164  1  0  0  0  0
 71 72  2  0  0  0  0
 71 73  1  0  0  0  0
 73165  1  0  0  0  0
 74 73  1  0  0  0  0
 74 85  1  0  0  0  0
 74166  1  6  0  0  0
 74 75  1  0  0  0  0
 75 76  1  0  0  0  0
 75167  1  0  0  0  0
 75168  1  0  0  0  0
 76 77  2  0  0  0  0
 76 84  1  0  0  0  0
 77 78  1  0  0  0  0
 77169  1  0  0  0  0
 78 79  1  0  0  0  0
 78170  1  0  0  0  0
 79 80  2  0  0  0  0
 79 84  1  0  0  0  0
 80 81  1  0  0  0  0
 80171  1  0  0  0  0
 81 82  2  0  0  0  0
 81172  1  0  0  0  0
 82 83  1  0  0  0  0
 82173  1  0  0  0  0
 83 84  2  0  0  0  0
 83174  1  0  0  0  0
 85 86  2  0  0  0  0
 85 87  1  0  0  0  0
 87175  1  0  0  0  0
 88 87  1  0  0  0  0
 88 89  1  0  0  0  0
 88 94  1  0  0  0  0
 88176  1  6  0  0  0
 89 90  1  0  0  0  0
 89177  1  0  0  0  0
 89178  1  0  0  0  0
 90 91  1  0  0  0  0
 90179  1  0  0  0  0
 90180  1  0  0  0  0
 91 92  1  0  0  0  0
 91181  1  0  0  0  0
 91182  1  0  0  0  0
 92 93  1  0  0  0  0
 92183  1  0  0  0  0
 92184  1  0  0  0  0
 93185  1  0  0  0  0
 93186  1  0  0  0  0
 94 95  2  0  0  0  0
 94 96  1  0  0  0  0
 96187  1  0  0  0  0
 97 96  1  0  0  0  0
 97 98  1  0  0  0  0
 97101  1  0  0  0  0
 97188  1  0  0  0  0
 98 99  1  0  0  0  0
 98100  1  0  0  0  0
 98189  1  6  0  0  0
 99190  1  0  0  0  0
 99191  1  0  0  0  0
 99192  1  0  0  0  0
100193  1  0  0  0  0
101102  2  0  0  0  0
101103  1  0  0  0  0
103194  1  0  0  0  0
M  ISO  1   1  68
M  CHG  4   1   3  38  -1  45  -1  52  -1
M  END
>  <DRUGBANK_ID>
DB18190

>  <COMMON_NAME>
Dotatoc gallium Ga-68

>  <CAS_NUMBER>
1040397-47-4

>  <UNII>
8AHG0Z4Z5M

>  <SYNONYMS>
(68ga)-dotanoc; 68-ga-dotanoc; Dota-nal3-octreotide Ga-68; Dotanoc gallium Ga-68

$$$$
