
 OpenBabel10282417103D

 55 57  0  0  0  0  0  0  0  0999 V2000
    0.9212   -0.0718   -0.0745 C   0  0  0  0  0  0  0  0  0  0  0  0
    2.4360    0.6048   -4.1276 C   0  0  0  0  0  0  0  0  0  0  0  0
    0.1966    0.2448   -4.8596 C   0  0  0  0  0  0  0  0  0  0  0  0
    2.0923    0.1921   -2.8223 C   0  0  0  0  0  0  0  0  0  0  0  0
   -0.0843   -0.2689   -3.6008 C   0  0  0  0  0  0  0  0  0  0  0  0
    0.8389   -0.3081   -9.8283 C   0  0  0  0  0  0  0  0  0  0  0  0
   -0.6444   -0.7031   -9.7708 C   0  0  0  0  0  0  0  0  0  0  0  0
   -2.7338   -2.6606   -2.1525 C   0  0  0  0  0  0  0  0  0  0  0  0
   -0.5095   -1.8774   -1.0980 C   0  0  0  0  0  0  0  0  0  0  0  0
    1.4930    0.5913   -5.1664 C   0  0  0  0  0  0  0  0  0  0  0  0
   -1.9009   -1.5292   -1.6136 C   0  0  0  0  0  0  0  0  0  0  0  0
    0.8185   -0.2993   -2.5285 C   0  0  0  0  0  0  0  0  0  0  0  0
    1.2942    0.8966   -8.9753 C   0  0  1  0  0  0  0  0  0  0  0  0
   -1.5931    0.2190  -10.4949 C   0  0  0  0  0  0  0  0  0  0  0  0
   -3.4518   -0.0807   -2.4184 C   0  0  0  0  0  0  0  0  0  0  0  0
   -3.8251    1.1587   -2.8250 C   0  0  0  0  0  0  0  0  0  0  0  0
   -4.3077   -1.1895   -2.9777 C   0  0  0  0  0  0  0  0  0  0  0  0
    1.9130    0.8129   -6.5775 C   0  0  0  0  0  0  0  0  0  0  0  0
    0.8273    2.2603   -9.5015 C   0  0  0  0  0  0  0  0  0  0  0  0
   -5.7908    0.2495   -3.8738 C   0  0  0  0  0  0  0  0  0  0  0  0
   -3.0550    2.2534   -2.5367 N   0  0  0  0  0  0  0  0  0  0  0  0
   -6.9383    0.4002   -4.4389 N   0  0  0  0  0  0  0  0  0  0  0  0
   -3.8507   -2.4773   -2.7776 N   0  0  0  0  0  0  0  0  0  0  0  0
   -2.3240   -0.3010   -1.6612 N   0  0  0  0  0  0  0  0  0  0  0  0
    0.9562    0.6788   -7.5712 N   0  0  0  0  0  0  0  0  0  0  0  0
   -4.9900    1.2987   -3.5333 N   0  0  0  0  0  0  0  0  0  0  0  0
   -5.4044   -1.0415   -3.6451 N   0  0  0  0  0  0  0  0  0  0  0  0
    0.4796   -0.7891   -1.2709 N   0  0  0  0  0  0  0  0  0  0  0  0
   -1.8827    0.1848  -11.6652 O   0  0  0  0  0  0  0  0  0  0  0  0
   -2.0814    1.1880   -9.7011 O   0  0  0  0  0  0  0  0  0  0  0  0
    3.0929    1.0384   -6.8224 O   0  0  0  0  0  0  0  0  0  0  0  0
    1.3016    2.8661  -10.4486 O   0  0  0  0  0  0  0  0  0  0  0  0
   -0.3219    2.7052   -8.9564 O   0  0  0  0  0  0  0  0  0  0  0  0
    2.3857    0.9497   -9.0501 H   0  0  0  0  0  0  0  0  0  0  0  0
    0.5583   -0.5525    0.8426 H   0  0  0  0  0  0  0  0  0  0  0  0
    0.5442    0.9575   -0.0655 H   0  0  0  0  0  0  0  0  0  0  0  0
    2.0129   -0.0505    0.0039 H   0  0  0  0  0  0  0  0  0  0  0  0
    3.4599    0.9109   -4.3297 H   0  0  0  0  0  0  0  0  0  0  0  0
   -0.6292    0.3070   -5.5569 H   0  0  0  0  0  0  0  0  0  0  0  0
    2.8716    0.1835   -2.0648 H   0  0  0  0  0  0  0  0  0  0  0  0
   -1.0912   -0.6314   -3.5386 H   0  0  0  0  0  0  0  0  0  0  0  0
    1.1526   -0.1722  -10.8703 H   0  0  0  0  0  0  0  0  0  0  0  0
    1.3981   -1.1821   -9.4581 H   0  0  0  0  0  0  0  0  0  0  0  0
   -0.7673   -1.6790  -10.2573 H   0  0  0  0  0  0  0  0  0  0  0  0
   -0.9813   -0.8505   -8.7400 H   0  0  0  0  0  0  0  0  0  0  0  0
   -2.3385   -3.6756   -1.9792 H   0  0  0  0  0  0  0  0  0  0  0  0
   -0.1161   -2.7615   -1.6161 H   0  0  0  0  0  0  0  0  0  0  0  0
   -0.6110   -2.1577   -0.0436 H   0  0  0  0  0  0  0  0  0  0  0  0
   -3.3439    3.1950   -2.7504 H   0  0  0  0  0  0  0  0  0  0  0  0
   -2.1662    2.0830   -2.0681 H   0  0  0  0  0  0  0  0  0  0  0  0
   -7.1417    1.3881   -4.5774 H   0  0  0  0  0  0  0  0  0  0  0  0
   -0.0248    0.5837   -7.3549 H   0  0  0  0  0  0  0  0  0  0  0  0
   -5.3016    2.2406   -3.6987 H   0  0  0  0  0  0  0  0  0  0  0  0
   -2.4341    1.8556  -10.3254 H   0  0  0  0  0  0  0  0  0  0  0  0
   -0.6589    3.3361   -9.6275 H   0  0  0  0  0  0  0  0  0  0  0  0
  1 35  1  0  0  0  0
  1 36  1  0  0  0  0
  1 37  1  0  0  0  0
  2 38  1  0  0  0  0
  3 39  1  0  0  0  0
  4  2  1  0  0  0  0
  4 40  1  0  0  0  0
  5  3  2  0  0  0  0
  5 41  1  0  0  0  0
  6 42  1  0  0  0  0
  6 43  1  0  0  0  0
  7  6  1  0  0  0  0
  7 44  1  0  0  0  0
  7 45  1  0  0  0  0
  8 46  1  0  0  0  0
  9 47  1  0  0  0  0
  9 48  1  0  0  0  0
 10  2  2  0  0  0  0
 10  3  1  0  0  0  0
 11  8  1  0  0  0  0
 11  9  1  0  0  0  0
 12  4  2  0  0  0  0
 12  5  1  0  0  0  0
 13  6  1  0  0  0  0
 13 19  1  0  0  0  0
 13 25  1  0  0  0  0
 13 34  1  6  0  0  0
 14  7  1  0  0  0  0
 16 15  2  0  0  0  0
 17 15  1  0  0  0  0
 18 10  1  0  0  0  0
 21 16  1  0  0  0  0
 21 49  1  0  0  0  0
 21 50  1  0  0  0  0
 22 20  2  0  0  0  0
 22 51  1  0  0  0  0
 23  8  2  0  0  0  0
 23 17  1  0  0  0  0
 24 11  2  0  0  0  0
 24 15  1  0  0  0  0
 25 18  1  0  0  0  0
 25 52  1  0  0  0  0
 26 16  1  0  0  0  0
 26 20  1  0  0  0  0
 26 53  1  0  0  0  0
 27 17  2  0  0  0  0
 27 20  1  0  0  0  0
 28  1  1  0  0  0  0
 28  9  1  0  0  0  0
 28 12  1  0  0  0  0
 29 14  2  0  0  0  0
 30 14  1  0  0  0  0
 30 54  1  0  0  0  0
 31 18  2  0  0  0  0
 32 19  2  0  0  0  0
 33 19  1  0  0  0  0
 33 55  1  0  0  0  0
M  END
>  <DRUGBANK_ID>
DB00563

>  <SECONDARY_ACCESSION_NUMBERS>
APRD00353

>  <COMMON_NAME>
Methotrexate

>  <CAS_NUMBER>
59-05-2

>  <UNII>
YL5FZ2Y5U1

>  <SYNONYMS>
4-amino-10-methylfolic acid; 4-amino-N(10)-methylpteroylglutamic acid; Amethopterin; Methotrexat; MÃ©thotrexate; Methotrexate; Methotrexatum; Metotrexato; MTX; N-[4-[[(2,4-diamino-6-pteridinyl)methyl]methylamino]benzoyl]-L-glutamic acid

$$$$
