2S2
 OpenBabel10282417163D

 34 35  0  0  0  0  0  0  0  0999 V2000
    0.8401   -0.3354   -0.0491 O   0  0  0  0  0  0  0  0  0  0  0  0
    0.3706    0.3494    1.0090 C   0  0  0  0  0  0  0  0  0  0  0  0
    1.1947    1.0129    1.6286 O   0  0  0  0  0  0  0  0  0  0  0  0
   -1.1558    0.2631    1.2085 C   0  0  1  0  0  0  0  0  0  0  0  0
   -1.7115    0.4713    2.6450 C   0  0  0  0  0  0  0  0  0  0  0  0
   -1.2416   -0.5356    3.6958 C   0  0  0  0  0  0  0  0  0  0  0  0
    0.2712   -0.5614    3.8935 C   0  0  0  0  0  0  0  0  0  0  0  0
    0.8217    0.8065    4.3019 C   0  0  0  0  0  0  0  0  0  0  0  0
   -1.7034    1.3077    0.2807 C   0  0  0  0  0  0  0  0  0  0  0  0
   -1.4820    2.7106    0.4378 C   0  0  0  0  0  0  0  0  0  0  0  0
   -0.8589    3.4878    1.4354 C   0  0  0  0  0  0  0  0  0  0  0  0
   -0.6870    4.8519    1.2613 C   0  0  0  0  0  0  0  0  0  0  0  0
   -1.1261    5.4519    0.0913 C   0  0  0  0  0  0  0  0  0  0  0  0
   -1.7635    4.7118   -0.9182 C   0  0  0  0  0  0  0  0  0  0  0  0
   -1.9301    3.3355   -0.7187 C   0  0  0  0  0  0  0  0  0  0  0  0
   -2.4718    2.3542   -1.5211 N   0  0  0  0  0  0  0  0  0  0  0  0
   -2.3345    1.1227   -0.9313 C   0  0  0  0  0  0  0  0  0  0  0  0
   -1.4754   -0.7388    0.8927 H   0  0  0  0  0  0  0  0  0  0  0  0
    1.7863   -0.0687   -0.0058 H   0  0  0  0  0  0  0  0  0  0  0  0
   -1.5014    1.4694    3.0305 H   0  0  0  0  0  0  0  0  0  0  0  0
   -2.8114    0.4476    2.6128 H   0  0  0  0  0  0  0  0  0  0  0  0
   -1.7066   -0.2817    4.6577 H   0  0  0  0  0  0  0  0  0  0  0  0
   -1.6037   -1.5322    3.4230 H   0  0  0  0  0  0  0  0  0  0  0  0
    0.5431   -1.2921    4.6591 H   0  0  0  0  0  0  0  0  0  0  0  0
    0.7413   -0.9478    2.9843 H   0  0  0  0  0  0  0  0  0  0  0  0
    0.4944    1.0701    5.3080 H   0  0  0  0  0  0  0  0  0  0  0  0
    1.9141    0.8161    4.2543 H   0  0  0  0  0  0  0  0  0  0  0  0
    0.4796    1.6267    3.6680 H   0  0  0  0  0  0  0  0  0  0  0  0
   -0.4665    3.0404    2.3393 H   0  0  0  0  0  0  0  0  0  0  0  0
   -0.1872    5.4199    2.0408 H   0  0  0  0  0  0  0  0  0  0  0  0
   -0.9567    6.5162   -0.0401 H   0  0  0  0  0  0  0  0  0  0  0  0
   -2.0909    5.1969   -1.8296 H   0  0  0  0  0  0  0  0  0  0  0  0
   -2.8547    2.5117   -2.4422 H   0  0  0  0  0  0  0  0  0  0  0  0
   -2.6312    0.2181   -1.4482 H   0  0  0  0  0  0  0  0  0  0  0  0
  1 19  1  0  0  0  0
  2  1  1  0  0  0  0
  3  2  2  0  0  0  0
  4  2  1  0  0  0  0
  4  9  1  0  0  0  0
  4 18  1  6  0  0  0
  4  5  1  0  0  0  0
  5 20  1  0  0  0  0
  5 21  1  0  0  0  0
  6  5  1  0  0  0  0
  6 22  1  0  0  0  0
  6 23  1  0  0  0  0
  7  6  1  0  0  0  0
  7 24  1  0  0  0  0
  7 25  1  0  0  0  0
  8  7  1  0  0  0  0
  8 26  1  0  0  0  0
  8 27  1  0  0  0  0
  8 28  1  0  0  0  0
  9 10  1  0  0  0  0
 10 11  1  0  0  0  0
 11 12  2  0  0  0  0
 11 29  1  0  0  0  0
 12 30  1  0  0  0  0
 13 12  1  0  0  0  0
 13 31  1  0  0  0  0
 14 13  2  0  0  0  0
 14 32  1  0  0  0  0
 15 10  2  0  0  0  0
 15 14  1  0  0  0  0
 16 15  1  0  0  0  0
 16 33  1  0  0  0  0
 17  9  2  0  0  0  0
 17 16  1  0  0  0  0
 17 34  1  0  0  0  0
M  END
>  <DRUGBANK_ID>
DB06980

>  <COMMON_NAME>
(2S)-2-(1H-indol-3-yl)hexanoic acid

$$$$
