L47
 OpenBabel10282417133D

 37 39  0  0  0  0  0  0  0  0999 V2000
    2.3832    0.0531    0.0090 C   0  0  0  0  0  0  0  0  0  0  0  0
    1.6611    1.2556   -0.0264 C   0  0  0  0  0  0  0  0  0  0  0  0
    0.2558    1.2407   -0.0460 C   0  0  0  0  0  0  0  0  0  0  0  0
   -0.4103    0.0070   -0.0281 C   0  0  0  0  0  0  0  0  0  0  0  0
    0.3197   -1.1890   -0.0081 C   0  0  0  0  0  0  0  0  0  0  0  0
    1.7127   -1.1683    0.0093 C   0  0  0  0  0  0  0  0  0  0  0  0
   -0.4713    2.5347   -0.0970 C   0  0  0  0  0  0  0  0  0  0  0  0
   -0.2843    3.4322   -1.0185 N   0  0  0  0  0  0  0  0  0  0  0  0
   -1.1026    4.5061   -0.7081 N   0  0  0  0  0  0  0  0  0  0  0  0
   -1.7853    4.3553    0.5992 C   0  0  1  0  0  0  0  0  0  0  0  0
   -1.4806    2.8927    0.9593 C   0  0  0  0  0  0  0  0  0  0  0  0
   -1.3370    5.3938    1.6277 C   0  0  0  0  0  0  0  0  0  0  0  0
   -1.3684    5.5185   -1.6184 C   0  0  0  0  0  0  0  0  0  0  0  0
   -0.5953    5.5468   -2.9106 C   0  0  0  0  0  0  0  0  0  0  0  0
   -2.2179    6.4009   -1.4351 O   0  0  0  0  0  0  0  0  0  0  0  0
   -1.6186    6.7610    1.4494 C   0  0  0  0  0  0  0  0  0  0  0  0
   -1.0996    7.7365    2.3074 C   0  0  0  0  0  0  0  0  0  0  0  0
   -0.3458    7.3627    3.4145 C   0  0  0  0  0  0  0  0  0  0  0  0
   -0.1456    6.0148    3.6578 C   0  0  0  0  0  0  0  0  0  0  0  0
   -0.6287    5.0496    2.7849 C   0  0  0  0  0  0  0  0  0  0  0  0
   -2.1282   -0.1480   -0.0875 Cl  0  0  0  0  0  0  0  0  0  0  0  0
    0.5413    5.5527    4.7406 O   0  0  0  0  0  0  0  0  0  0  0  0
   -2.8676    4.4708    0.4473 H   0  0  0  0  0  0  0  0  0  0  0  0
    3.4720    0.0642    0.0270 H   0  0  0  0  0  0  0  0  0  0  0  0
    2.2072    2.1973   -0.0331 H   0  0  0  0  0  0  0  0  0  0  0  0
   -0.1979   -2.1460   -0.0216 H   0  0  0  0  0  0  0  0  0  0  0  0
    2.2690   -2.1039    0.0141 H   0  0  0  0  0  0  0  0  0  0  0  0
   -1.0541    2.6763    1.9363 H   0  0  0  0  0  0  0  0  0  0  0  0
   -2.3895    2.2993    0.8741 H   0  0  0  0  0  0  0  0  0  0  0  0
   -1.3164    5.6117   -3.7327 H   0  0  0  0  0  0  0  0  0  0  0  0
    0.0337    6.4430   -2.9288 H   0  0  0  0  0  0  0  0  0  0  0  0
    0.0306    4.6709   -3.0716 H   0  0  0  0  0  0  0  0  0  0  0  0
   -2.2400    7.1087    0.6286 H   0  0  0  0  0  0  0  0  0  0  0  0
   -1.2845    8.7865    2.0931 H   0  0  0  0  0  0  0  0  0  0  0  0
    0.0624    8.1248    4.0670 H   0  0  0  0  0  0  0  0  0  0  0  0
   -0.4105    4.0280    3.0618 H   0  0  0  0  0  0  0  0  0  0  0  0
    0.8346    6.3095    5.2699 H   0  0  0  0  0  0  0  0  0  0  0  0
  1  2  2  0  0  0  0
  1  6  1  0  0  0  0
  1 24  1  0  0  0  0
  2  3  1  0  0  0  0
  2 25  1  0  0  0  0
  3  4  2  0  0  0  0
  3  7  1  0  0  0  0
  4  5  1  0  0  0  0
  4 21  1  0  0  0  0
  5  6  2  0  0  0  0
  5 26  1  0  0  0  0
  6 27  1  0  0  0  0
  7  8  2  0  0  0  0
  7 11  1  0  0  0  0
  8  9  1  0  0  0  0
  9 10  1  0  0  0  0
  9 13  1  0  0  0  0
 10 11  1  0  0  0  0
 10 12  1  0  0  0  0
 10 23  1  6  0  0  0
 11 28  1  0  0  0  0
 11 29  1  0  0  0  0
 12 16  2  0  0  0  0
 12 20  1  0  0  0  0
 13 14  1  0  0  0  0
 13 15  2  0  0  0  0
 14 30  1  0  0  0  0
 14 31  1  0  0  0  0
 14 32  1  0  0  0  0
 16 17  1  0  0  0  0
 16 33  1  0  0  0  0
 17 18  2  0  0  0  0
 17 34  1  0  0  0  0
 18 19  1  0  0  0  0
 18 35  1  0  0  0  0
 19 20  2  0  0  0  0
 19 22  1  0  0  0  0
 20 36  1  0  0  0  0
 22 37  1  0  0  0  0
M  END
>  <DRUGBANK_ID>
DB03996

>  <SECONDARY_ACCESSION_NUMBERS>
EXPT01994

>  <COMMON_NAME>
3-[(5s)-1-Acetyl-3-(2-Chlorophenyl)-4,5-Dihydro-1h-Pyrazol-5-Yl]Phenol

$$$$
