
 OpenBabel10282417243D

 63 67  0  0  1  0  0  0  0  0999 V2000
    1.0746   -0.0892   -0.0471 O   0  0  0  0  0  0  0  0  0  0  0  0
    0.6071    0.1954   -1.3975 C   0  0  1  0  0  0  0  0  0  0  0  0
    1.1592    1.5959   -1.7543 C   0  0  0  0  0  0  0  0  0  0  0  0
    2.6117    1.6611   -1.7219 N   0  0  0  0  0  0  0  0  0  0  0  0
    3.4144    2.7474   -1.8158 C   0  0  0  0  0  0  0  0  0  0  0  0
    4.6637    2.3413   -1.8462 N   0  0  0  0  0  0  0  0  0  0  0  0
    4.6232    0.9743   -1.7562 N   0  0  0  0  0  0  0  0  0  0  0  0
    3.3795    0.5584   -1.6056 N   0  0  0  0  0  0  0  0  0  0  0  0
    1.0744   -0.9107   -2.3541 C   0  0  0  0  0  0  0  0  0  0  0  0
    0.8202   -2.2466   -2.0188 C   0  0  0  0  0  0  0  0  0  0  0  0
    1.0736   -3.2529   -2.9461 C   0  0  0  0  0  0  0  0  0  0  0  0
    1.6330   -2.9402   -4.1826 C   0  0  0  0  0  0  0  0  0  0  0  0
    1.8569   -3.9131   -5.0720 F   0  0  0  0  0  0  0  0  0  0  0  0
    1.9476   -1.6412   -4.5218 C   0  0  0  0  0  0  0  0  0  0  0  0
    1.6415   -0.6416   -3.6231 C   0  0  0  0  0  0  0  0  0  0  0  0
    1.8938    0.6093   -4.0349 F   0  0  0  0  0  0  0  0  0  0  0  0
   -0.9665    0.2300   -1.3759 C   0  0  0  0  0  0  0  0  0  0  0  0
   -1.4533   -0.9446   -0.8660 F   0  0  0  0  0  0  0  0  0  0  0  0
   -1.3666    1.1834   -0.4735 F   0  0  0  0  0  0  0  0  0  0  0  0
   -1.5204    0.5088   -2.7647 C   0  0  0  0  0  0  0  0  0  0  0  0
   -1.9120    1.8032   -3.0933 C   0  0  0  0  0  0  0  0  0  0  0  0
   -2.3041    2.0703   -4.3969 C   0  0  0  0  0  0  0  0  0  0  0  0
   -2.2948    1.0401   -5.3300 C   0  0  0  0  0  0  0  0  0  0  0  0
   -1.8782   -0.2177   -4.9359 C   0  0  0  0  0  0  0  0  0  0  0  0
   -1.5030   -0.5011   -3.6759 N   0  0  0  0  0  0  0  0  0  0  0  0
   -2.7475    1.2439   -6.6566 C   0  0  0  0  0  0  0  0  0  0  0  0
   -3.1511    1.3295   -7.7797 C   0  0  0  0  0  0  0  0  0  0  0  0
   -3.5870    1.3736   -9.1296 C   0  0  0  0  0  0  0  0  0  0  0  0
   -3.2103    2.4480   -9.9202 C   0  0  0  0  0  0  0  0  0  0  0  0
   -3.5399    2.4466  -11.2672 C   0  0  0  0  0  0  0  0  0  0  0  0
   -4.2943    1.4091  -11.8273 C   0  0  0  0  0  0  0  0  0  0  0  0
   -4.7597    1.3949  -13.1205 O   0  0  0  0  0  0  0  0  0  0  0  0
   -4.4533    2.5345  -13.9471 C   0  0  0  0  0  0  0  0  0  0  0  0
   -5.0674    3.8513  -13.4815 C   0  0  0  0  0  0  0  0  0  0  0  0
   -6.0014    3.8960  -12.4302 C   0  0  0  0  0  0  0  0  0  0  0  0
   -6.3675    5.1036  -11.8428 C   0  0  0  0  0  0  0  0  0  0  0  0
   -5.8532    6.2977  -12.3413 C   0  0  0  0  0  0  0  0  0  0  0  0
   -4.9941    6.2777  -13.4457 C   0  0  0  0  0  0  0  0  0  0  0  0
   -4.5986    5.0606  -14.0124 C   0  0  0  0  0  0  0  0  0  0  0  0
   -6.1860    7.5354  -11.6928 C   0  0  0  0  0  0  0  0  0  0  0  0
   -6.4449    8.5199  -11.1492 N   0  0  0  0  0  0  0  0  0  0  0  0
   -4.7042    0.3506  -11.0145 C   0  0  0  0  0  0  0  0  0  0  0  0
   -4.3427    0.3288   -9.6649 C   0  0  0  0  0  0  0  0  0  0  0  0
    2.0497   -0.1676   -0.0897 H   0  0  0  0  0  0  0  0  0  0  0  0
    0.8422    1.9190   -2.7530 H   0  0  0  0  0  0  0  0  0  0  0  0
    0.7993    2.3556   -1.0524 H   0  0  0  0  0  0  0  0  0  0  0  0
    3.0614    3.7633   -1.8587 H   0  0  0  0  0  0  0  0  0  0  0  0
    0.3638   -2.4973   -1.0612 H   0  0  0  0  0  0  0  0  0  0  0  0
    0.8155   -4.2796   -2.7156 H   0  0  0  0  0  0  0  0  0  0  0  0
    2.3973   -1.3874   -5.4733 H   0  0  0  0  0  0  0  0  0  0  0  0
   -1.8958    2.5934   -2.3487 H   0  0  0  0  0  0  0  0  0  0  0  0
   -2.6199    3.0723   -4.6716 H   0  0  0  0  0  0  0  0  0  0  0  0
   -1.8342   -1.0523   -5.6317 H   0  0  0  0  0  0  0  0  0  0  0  0
   -2.6598    3.2900   -9.5096 H   0  0  0  0  0  0  0  0  0  0  0  0
   -3.2344    3.3152  -11.8374 H   0  0  0  0  0  0  0  0  0  0  0  0
   -3.3594    2.6207  -14.0271 H   0  0  0  0  0  0  0  0  0  0  0  0
   -4.8215    2.3186  -14.9562 H   0  0  0  0  0  0  0  0  0  0  0  0
   -6.3770    2.9783  -11.9803 H   0  0  0  0  0  0  0  0  0  0  0  0
   -7.0257    5.0904  -10.9763 H   0  0  0  0  0  0  0  0  0  0  0  0
   -4.6022    7.2076  -13.8528 H   0  0  0  0  0  0  0  0  0  0  0  0
   -3.8874    5.0636  -14.8368 H   0  0  0  0  0  0  0  0  0  0  0  0
   -5.3136   -0.4532  -11.4203 H   0  0  0  0  0  0  0  0  0  0  0  0
   -4.6503   -0.5030   -9.0357 H   0  0  0  0  0  0  0  0  0  0  0  0
  1 44  1  0  0  0  0
  2  1  1  1  0  0  0
  2  3  1  0  0  0  0
  2  9  1  0  0  0  0
  2 17  1  0  0  0  0
  3  4  1  0  0  0  0
  3 45  1  0  0  0  0
  3 46  1  0  0  0  0
  4  5  1  0  0  0  0
  4  8  1  0  0  0  0
  5  6  2  0  0  0  0
  5 47  1  0  0  0  0
  6  7  1  0  0  0  0
  7  8  2  0  0  0  0
  9 10  2  0  0  0  0
  9 15  1  0  0  0  0
 10 11  1  0  0  0  0
 10 48  1  0  0  0  0
 11 12  2  0  0  0  0
 11 49  1  0  0  0  0
 12 13  1  0  0  0  0
 12 14  1  0  0  0  0
 14 15  2  0  0  0  0
 14 50  1  0  0  0  0
 15 16  1  0  0  0  0
 17 18  1  0  0  0  0
 17 19  1  0  0  0  0
 17 20  1  0  0  0  0
 20 21  2  0  0  0  0
 20 25  1  0  0  0  0
 21 22  1  0  0  0  0
 21 51  1  0  0  0  0
 22 23  2  0  0  0  0
 22 52  1  0  0  0  0
 23 24  1  0  0  0  0
 23 26  1  0  0  0  0
 24 25  2  0  0  0  0
 24 53  1  0  0  0  0
 26 27  3  0  0  0  0
 27 28  1  0  0  0  0
 28 29  2  0  0  0  0
 28 43  1  0  0  0  0
 29 30  1  0  0  0  0
 29 54  1  0  0  0  0
 30 31  2  0  0  0  0
 30 55  1  0  0  0  0
 31 32  1  0  0  0  0
 31 42  1  0  0  0  0
 32 33  1  0  0  0  0
 33 34  1  0  0  0  0
 33 56  1  0  0  0  0
 33 57  1  0  0  0  0
 34 35  2  0  0  0  0
 34 39  1  0  0  0  0
 35 36  1  0  0  0  0
 35 58  1  0  0  0  0
 36 37  2  0  0  0  0
 36 59  1  0  0  0  0
 37 38  1  0  0  0  0
 37 40  1  0  0  0  0
 38 39  2  0  0  0  0
 38 60  1  0  0  0  0
 39 61  1  0  0  0  0
 40 41  3  0  0  0  0
 42 43  2  0  0  0  0
 42 62  1  0  0  0  0
 43 63  1  0  0  0  0
M  END
>  <DRUGBANK_ID>
DB17757

>  <COMMON_NAME>
VT-1598

>  <CAS_NUMBER>
2089320-99-8

>  <UNII>
AV9K9X720D

>  <SYNONYMS>
4-((4-(2-(6-((2r)-2-(2,4-difluorophenyl)-1,1-difluoro-2-hydroxy-3-(1h-tetrazol-1-yl)propyl)-3-pyridinyl)ethynyl)phenoxy)methyl)benzonitrile; Benzonitrile, 4-((4-(2-(6-((2r)-2-(2,4-difluorophenyl)-1,1-difluoro-2-hydroxy-3-(1h-tetrazol-1-yl)propyl)-3-pyridinyl)ethynyl)phenoxy)methyl)-

$$$$
