
 OpenBabel10282417143D

 38 40  0  0  0  0  0  0  0  0999 V2000
    1.0062   -0.2846   -0.0186 Cl  0  0  0  0  0  0  0  0  0  0  0  0
    9.3130    4.5139   -0.0716 S   0  0  0  0  0  0  0  0  0  0  0  0
    3.2073    5.2624   -2.1682 F   0  0  0  0  0  0  0  0  0  0  0  0
    1.4931    6.3095   -0.0511 O   0  0  0  0  0  0  0  0  0  0  0  0
    8.8019    5.8331   -0.3311 O   0  0  0  0  0  0  0  0  0  0  0  0
   10.1150    4.2063    1.0958 O   0  0  0  0  0  0  0  0  0  0  0  0
    4.7612    0.6349    0.0478 N   0  0  0  0  0  0  0  0  0  0  0  0
    3.5361   -1.2316   -0.0291 N   0  0  0  0  0  0  0  0  0  0  0  0
   10.2647    4.1259   -1.4088 N   0  0  0  0  0  0  0  0  0  0  0  0
    3.4331    1.0334    0.0789 C   0  0  0  0  0  0  0  0  0  0  0  0
    5.8958    1.4857    0.0498 C   0  0  0  0  0  0  0  0  0  0  0  0
    2.9653    2.4083    0.0225 C   0  0  0  0  0  0  0  0  0  0  0  0
    7.9587    3.3644   -0.1040 C   0  0  0  0  0  0  0  0  0  0  0  0
    6.8133    1.4235   -1.0056 C   0  0  0  0  0  0  0  0  0  0  0  0
    6.0084    2.4832    1.0275 C   0  0  0  0  0  0  0  0  0  0  0  0
    4.7546   -0.7363   -0.0359 C   0  0  0  0  0  0  0  0  0  0  0  0
    2.7062   -0.1433    0.0309 C   0  0  0  0  0  0  0  0  0  0  0  0
    7.8422    2.3747   -1.0871 C   0  0  0  0  0  0  0  0  0  0  0  0
    7.0221    3.4403    0.9333 C   0  0  0  0  0  0  0  0  0  0  0  0
    3.3067    3.2263   -1.0553 C   0  0  0  0  0  0  0  0  0  0  0  0
    2.1442    2.9058    1.0367 C   0  0  0  0  0  0  0  0  0  0  0  0
    2.8380    4.5305   -1.1075 C   0  0  0  0  0  0  0  0  0  0  0  0
    1.6745    4.2188    0.9767 C   0  0  0  0  0  0  0  0  0  0  0  0
    2.0174    5.0452   -0.0994 C   0  0  0  0  0  0  0  0  0  0  0  0
    1.8297    7.1582   -1.1450 C   0  0  0  0  0  0  0  0  0  0  0  0
    9.7969    4.3752   -2.2791 H   0  0  0  0  0  0  0  0  0  0  0  0
   11.1508    4.6334   -1.3232 H   0  0  0  0  0  0  0  0  0  0  0  0
    6.7070    0.6889   -1.8012 H   0  0  0  0  0  0  0  0  0  0  0  0
    5.3308    2.5128    1.8793 H   0  0  0  0  0  0  0  0  0  0  0  0
    5.6614   -1.3257   -0.0472 H   0  0  0  0  0  0  0  0  0  0  0  0
    8.5326    2.3320   -1.9246 H   0  0  0  0  0  0  0  0  0  0  0  0
    7.0779    4.2401    1.6705 H   0  0  0  0  0  0  0  0  0  0  0  0
    3.9302    2.8722   -1.8707 H   0  0  0  0  0  0  0  0  0  0  0  0
    1.8623    2.2698    1.8739 H   0  0  0  0  0  0  0  0  0  0  0  0
    1.0339    4.5886    1.7741 H   0  0  0  0  0  0  0  0  0  0  0  0
    2.9116    7.3259   -1.1909 H   0  0  0  0  0  0  0  0  0  0  0  0
    1.4461    6.7525   -2.0881 H   0  0  0  0  0  0  0  0  0  0  0  0
    1.3534    8.1286   -0.9871 H   0  0  0  0  0  0  0  0  0  0  0  0
  1 17  1  0  0  0  0
  2  5  2  0  0  0  0
  2  6  2  0  0  0  0
  2  9  1  0  0  0  0
  2 13  1  0  0  0  0
  3 22  1  0  0  0  0
  4 24  1  0  0  0  0
  4 25  1  0  0  0  0
  7 10  1  0  0  0  0
  7 11  1  0  0  0  0
  7 16  1  0  0  0  0
  8 16  2  0  0  0  0
  8 17  1  0  0  0  0
  9 26  1  0  0  0  0
  9 27  1  0  0  0  0
 10 12  1  0  0  0  0
 10 17  2  0  0  0  0
 11 14  2  0  0  0  0
 11 15  1  0  0  0  0
 12 20  2  0  0  0  0
 12 21  1  0  0  0  0
 13 18  2  0  0  0  0
 13 19  1  0  0  0  0
 14 18  1  0  0  0  0
 14 28  1  0  0  0  0
 15 19  2  0  0  0  0
 15 29  1  0  0  0  0
 16 30  1  0  0  0  0
 18 31  1  0  0  0  0
 19 32  1  0  0  0  0
 20 22  1  0  0  0  0
 20 33  1  0  0  0  0
 21 23  2  0  0  0  0
 21 34  1  0  0  0  0
 22 24  2  0  0  0  0
 23 24  1  0  0  0  0
 23 35  1  0  0  0  0
 25 36  1  0  0  0  0
 25 37  1  0  0  0  0
 25 38  1  0  0  0  0
M  END
>  <DRUGBANK_ID>
DB05095

>  <COMMON_NAME>
Cimicoxib

>  <CAS_NUMBER>
265114-23-6

>  <UNII>
W7FHJ107MC

>  <SYNONYMS>
Cimicoxib

$$$$
