
 OpenBabel10282417213D

 59 61  0  0  0  0  0  0  0  0999 V2000
    1.0949   -0.1162   -0.0517 C   0  0  0  0  0  0  0  0  0  0  0  0
   -6.2457    3.7155   -0.6744 C   0  0  0  0  0  0  0  0  0  0  0  0
   -5.4498    4.8286   -0.6110 C   0  0  0  0  0  0  0  0  0  0  0  0
   -5.6609    2.5115   -1.0150 C   0  0  0  0  0  0  0  0  0  0  0  0
   -0.4265    5.6928   -3.8184 C   0  0  0  0  0  0  0  0  0  0  0  0
    0.8498    4.8396   -3.6004 C   0  0  0  0  0  0  0  0  0  0  0  0
   -4.0507    4.6856   -0.8100 C   0  0  0  0  0  0  0  0  0  0  0  0
   -4.2813    2.3509   -1.1790 C   0  0  0  0  0  0  0  0  0  0  0  0
   -1.1844    6.1937   -2.5822 C   0  0  0  0  0  0  0  0  0  0  0  0
    0.8270    3.7989   -2.4832 C   0  0  0  0  0  0  0  0  0  0  0  0
   -1.7216    2.6813   -0.3821 C   0  0  0  0  0  0  0  0  0  0  0  0
   -1.0810    2.4626    1.5209 C   0  0  0  0  0  0  0  0  0  0  0  0
   -1.4216    5.6648   -0.0492 C   0  0  0  0  0  0  0  0  0  0  0  0
    0.6595    0.9799    0.9081 C   0  0  1  0  0  0  0  0  0  0  0  0
   -3.3623    3.3772   -1.0033 C   0  0  0  0  0  0  0  0  0  0  0  0
   -1.0126    5.2149   -1.4809 C   0  0  2  0  0  0  0  0  0  0  0  0
   -1.5670    1.2645    2.2351 C   0  0  1  0  0  0  0  0  0  0  0  0
    0.4417    4.6007   -1.2350 C   0  0  1  0  0  0  0  0  0  0  0  0
   -1.0383    4.5651    0.9068 C   0  0  1  0  0  0  0  0  0  0  0  0
    1.1649    2.5952    0.2356 C   0  0  0  0  0  0  0  0  0  0  0  0
   -3.2593    1.1016    2.8027 C   0  0  0  0  0  0  0  0  0  0  0  0
   -2.7715    3.7988    1.4185 C   0  0  0  0  0  0  0  0  0  0  0  0
   -0.8685    0.4894    1.1784 N   0  0  0  0  0  0  0  0  0  0  0  0
    0.3448    3.8558    0.0747 N   0  0  0  0  0  0  0  0  0  0  0  0
    2.3685    2.6499   -0.0825 O   0  0  0  0  0  0  0  0  0  0  0  0
   -3.4484    0.8116    3.9908 O   0  0  0  0  0  0  0  0  0  0  0  0
   -4.4494    1.3222    2.1185 O   0  0  0  0  0  0  0  0  0  0  0  0
   -3.4551    4.2028    2.2979 O   0  0  0  0  0  0  0  0  0  0  0  0
   -3.1739    2.4331    0.9885 O   0  0  0  0  0  0  0  0  0  0  0  0
    1.1761    0.8720    1.8739 H   0  0  0  0  0  0  0  0  0  0  0  0
   -1.6346    4.4507   -1.9998 H   0  0  0  0  0  0  0  0  0  0  0  0
   -1.0226    1.2587    3.1985 H   0  0  0  0  0  0  0  0  0  0  0  0
    1.1096    5.4463   -1.0814 H   0  0  0  0  0  0  0  0  0  0  0  0
   -0.5912    5.0019    1.8077 H   0  0  0  0  0  0  0  0  0  0  0  0
    0.6757    0.0627   -1.0481 H   0  0  0  0  0  0  0  0  0  0  0  0
    0.7318   -1.0980    0.2852 H   0  0  0  0  0  0  0  0  0  0  0  0
    2.1801   -0.1671   -0.1209 H   0  0  0  0  0  0  0  0  0  0  0  0
   -7.2865    3.7401   -0.3714 H   0  0  0  0  0  0  0  0  0  0  0  0
   -5.8913    5.7886   -0.3175 H   0  0  0  0  0  0  0  0  0  0  0  0
   -6.2165    1.5889   -0.9124 H   0  0  0  0  0  0  0  0  0  0  0  0
   -1.1098    5.1188   -4.4619 H   0  0  0  0  0  0  0  0  0  0  0  0
   -0.1501    6.5914   -4.3716 H   0  0  0  0  0  0  0  0  0  0  0  0
    1.1409    4.3579   -4.5382 H   0  0  0  0  0  0  0  0  0  0  0  0
    1.6505    5.5330   -3.3260 H   0  0  0  0  0  0  0  0  0  0  0  0
   -3.6778    5.7017   -0.6809 H   0  0  0  0  0  0  0  0  0  0  0  0
   -3.9939    1.3339   -0.9757 H   0  0  0  0  0  0  0  0  0  0  0  0
   -2.2623    6.2902   -2.8323 H   0  0  0  0  0  0  0  0  0  0  0  0
   -0.8514    7.1465   -2.1915 H   0  0  0  0  0  0  0  0  0  0  0  0
    0.1635    2.9520   -2.7285 H   0  0  0  0  0  0  0  0  0  0  0  0
    1.8217    3.3457   -2.3689 H   0  0  0  0  0  0  0  0  0  0  0  0
   -1.2102    3.4221   -0.8218 H   0  0  0  0  0  0  0  0  0  0  0  0
   -1.3256    1.9317   -1.0790 H   0  0  0  0  0  0  0  0  0  0  0  0
   -1.2598    3.1945    2.3571 H   0  0  0  0  0  0  0  0  0  0  0  0
   -0.0213    2.6832    1.7958 H   0  0  0  0  0  0  0  0  0  0  0  0
   -2.4239    5.7254    0.3087 H   0  0  0  0  0  0  0  0  0  0  0  0
   -1.1219    6.6817    0.1734 H   0  0  0  0  0  0  0  0  0  0  0  0
   -1.2673    0.5755    0.2562 H   0  0  0  0  0  0  0  0  0  0  0  0
   -4.5075    1.9866    1.3717 H   0  0  0  0  0  0  0  0  0  0  0  0
   -2.8406    1.5811    0.4809 H   0  0  0  0  0  0  0  0  0  0  0  0
  1 35  1  0  0  0  0
  1 36  1  0  0  0  0
  1 37  1  0  0  0  0
  2 38  1  0  0  0  0
  3  2  2  0  0  0  0
  3 39  1  0  0  0  0
  4  2  1  0  0  0  0
  4 40  1  0  0  0  0
  5 41  1  0  0  0  0
  5 42  1  0  0  0  0
  6  5  1  0  0  0  0
  6 43  1  0  0  0  0
  6 44  1  0  0  0  0
  7  3  1  0  0  0  0
  7 45  1  0  0  0  0
  8  4  2  0  0  0  0
  8 46  1  0  0  0  0
  9  5  1  0  0  0  0
  9 47  1  0  0  0  0
  9 48  1  0  0  0  0
 10  6  1  0  0  0  0
 10 49  1  0  0  0  0
 10 50  1  0  0  0  0
 11 51  1  0  0  0  0
 11 52  1  0  0  0  0
 12 11  1  0  0  0  0
 12 53  1  0  0  0  0
 12 54  1  0  0  0  0
 13 55  1  0  0  0  0
 13 56  1  0  0  0  0
 14  1  1  0  0  0  0
 14 20  1  0  0  0  0
 14 23  1  0  0  0  0
 14 30  1  1  0  0  0
 15  7  2  0  0  0  0
 15  8  1  0  0  0  0
 15 11  1  0  0  0  0
 16  9  1  0  0  0  0
 16 13  1  0  0  0  0
 16 18  1  0  0  0  0
 16 31  1  6  0  0  0
 17 12  1  0  0  0  0
 17 21  1  0  0  0  0
 17 23  1  0  0  0  0
 17 32  1  1  0  0  0
 18 10  1  0  0  0  0
 18 24  1  0  0  0  0
 18 33  1  1  0  0  0
 19 13  1  0  0  0  0
 19 24  1  0  0  0  0
 19 34  1  1  0  0  0
 19 22  1  0  0  0  0
 23 57  1  0  0  0  0
 24 20  1  0  0  0  0
 25 20  2  0  0  0  0
 26 21  2  0  0  0  0
 27 21  1  0  0  0  0
 27 58  1  0  0  0  0
 28 22  2  0  0  0  0
 29 22  1  0  0  0  0
 29 59  1  0  0  0  0
M  END
>  <DRUGBANK_ID>
DB14209

>  <COMMON_NAME>
Trandolaprilat

>  <CAS_NUMBER>
87679-71-8

>  <UNII>
RR6866VL0O

>  <SYNONYMS>
Trandolapril diacid; Trandolaprilat; Trandolaprilate; Trandolaprilatum

$$$$
