
 OpenBabel10282417123D

 16 15  0  0  0  0  0  0  0  0999 V2000
    1.0286   -0.0626    0.0726 P   0  0  0  0  0  0  0  0  0  0  0  0
    0.8585   -0.8092    1.5244 O   0  0  0  0  0  0  0  0  0  0  0  0
    0.9201    1.5000    0.5218 O   0  0  0  0  0  0  0  0  0  0  0  0
   -0.7014   -0.0626    0.0726 O   0  0  0  0  0  0  0  0  0  0  0  0
    2.5769   -0.0626    0.0726 O   0  0  0  0  0  0  0  0  0  0  0  0
   -0.3205   -2.4760   -0.7531 N   0  0  0  0  0  0  0  0  0  0  0  0
    0.9680   -2.2287    1.4309 C   0  0  0  0  0  0  0  0  0  0  0  0
   -0.2237   -2.8508    0.6714 C   0  0  0  0  0  0  0  0  0  0  0  0
    1.7858    1.8853    0.3153 H   0  0  0  0  0  0  0  0  0  0  0  0
   -0.9291   -0.0096    1.0233 H   0  0  0  0  0  0  0  0  0  0  0  0
   -1.1161   -2.9713   -1.1622 H   0  0  0  0  0  0  0  0  0  0  0  0
   -0.6685   -1.5038   -0.7995 H   0  0  0  0  0  0  0  0  0  0  0  0
    1.9232   -2.4894    0.9627 H   0  0  0  0  0  0  0  0  0  0  0  0
    0.9869   -2.6130    2.4556 H   0  0  0  0  0  0  0  0  0  0  0  0
   -0.1491   -3.9386    0.7252 H   0  0  0  0  0  0  0  0  0  0  0  0
   -1.1544   -2.5423    1.1606 H   0  0  0  0  0  0  0  0  0  0  0  0
  1  2  1  0  0  0  0
  1  3  1  0  0  0  0
  1  4  1  0  0  0  0
  1  5  2  0  0  0  0
  2  7  1  0  0  0  0
  3  9  1  0  0  0  0
  4 10  1  0  0  0  0
  6  8  1  0  0  0  0
  6 11  1  0  0  0  0
  6 12  1  0  0  0  0
  7  8  1  0  0  0  0
  7 13  1  0  0  0  0
  7 14  1  0  0  0  0
  8 15  1  0  0  0  0
  8 16  1  0  0  0  0
M  END
>  <DRUGBANK_ID>
DB01738

>  <SECONDARY_ACCESSION_NUMBERS>
EXPT02671; DB04403

>  <COMMON_NAME>
Phosphorylcolamine

>  <CAS_NUMBER>
1071-23-4

>  <UNII>
78A2BX7AEU

>  <SYNONYMS>
2-aminoethyl dihydrogen phosphate; Colamine phosphate; Colamine phosphoric acid; O-Phosphoethanolamine; Phosphorylethanolamine

$$$$
