
 OpenBabel10282417243D

 64 69  0  0  0  0  0  0  0  0999 V2000
    0.9540   -0.2546    0.0121 F   0  0  0  0  0  0  0  0  0  0  0  0
    2.2933   -0.2225    0.0109 C   0  0  0  0  0  0  0  0  0  0  0  0
    2.9896   -1.3931    0.1660 C   0  0  0  0  0  0  0  0  0  0  0  0
    4.3846   -1.3564    0.1759 C   0  0  0  0  0  0  0  0  0  0  0  0
    5.0936   -0.1450    0.0768 C   0  0  0  0  0  0  0  0  0  0  0  0
    4.4155    1.0541   -0.0921 C   0  0  0  0  0  0  0  0  0  0  0  0
    5.0724    2.3879   -0.1053 C   0  0  0  0  0  0  0  0  0  0  0  0
    4.3872    3.5432    0.1534 C   0  0  0  0  0  0  0  0  0  0  0  0
    2.9809    3.5455    0.4072 C   0  0  0  0  0  0  0  0  0  0  0  0
    2.0204    2.3650   -0.4040 S   0  0  0  0  0  0  0  0  0  0  0  0
    2.0013    2.6785   -1.8056 O   0  0  0  0  0  0  0  0  0  0  0  0
    0.7922    2.2767    0.3904 O   0  0  0  0  0  0  0  0  0  0  0  0
    2.9949    0.9557   -0.1521 C   0  0  0  0  0  0  0  0  0  0  0  0
    5.2275    4.6706    0.1204 C   0  0  0  0  0  0  0  0  0  0  0  0
    6.4783    4.2127   -0.1096 N   0  0  0  0  0  0  0  0  0  0  0  0
    6.3716    2.8416   -0.2458 N   0  0  0  0  0  0  0  0  0  0  0  0
    7.5029    2.0825   -0.5839 C   0  0  0  0  0  0  0  0  0  0  0  0
    8.5708    1.9537    0.3015 C   0  0  0  0  0  0  0  0  0  0  0  0
    9.5926    1.0324    0.0173 C   0  0  0  0  0  0  0  0  0  0  0  0
    9.6832    0.4447   -1.2441 C   0  0  0  0  0  0  0  0  0  0  0  0
   10.6735   -0.7211   -1.4913 C   0  0  0  0  0  0  0  0  0  0  0  0
   10.1961   -2.0074   -2.0873 N   0  0  0  0  0  0  0  0  0  0  0  0
    9.3206   -1.7420   -3.2299 C   0  0  0  0  0  0  0  0  0  0  0  0
    7.8554   -1.5855   -2.7385 C   0  0  0  0  0  0  0  0  0  0  0  0
    7.3352   -2.7881   -2.1916 O   0  0  0  0  0  0  0  0  0  0  0  0
    8.0941   -3.0481   -0.9907 C   0  0  0  0  0  0  0  0  0  0  0  0
    9.5976   -3.1436   -1.3365 C   0  0  0  0  0  0  0  0  0  0  0  0
    8.7924    0.9537   -2.2161 C   0  0  0  0  0  0  0  0  0  0  0  0
    7.5617    1.4734   -1.8155 C   0  0  0  0  0  0  0  0  0  0  0  0
    4.7894    6.1377    0.2185 C   0  0  0  0  0  0  0  0  0  0  0  0
    5.5418    7.0582   -0.1001 O   0  0  0  0  0  0  0  0  0  0  0  0
    3.4164    6.4074    0.5125 N   0  0  0  0  0  0  0  0  0  0  0  0
    2.7116    6.0657    1.7705 C   0  0  0  0  0  0  0  0  0  0  0  0
    1.2534    5.5478    1.5221 C   0  0  0  0  0  0  0  0  0  0  0  0
    0.5348    6.3688    0.5971 O   0  0  0  0  0  0  0  0  0  0  0  0
    1.2586    6.5746   -0.6375 C   0  0  0  0  0  0  0  0  0  0  0  0
    2.6010    7.2821   -0.3490 C   0  0  0  0  0  0  0  0  0  0  0  0
    2.4327   -2.3180    0.2601 H   0  0  0  0  0  0  0  0  0  0  0  0
    4.9322   -2.2896    0.2640 H   0  0  0  0  0  0  0  0  0  0  0  0
    6.1751   -0.1807    0.1446 H   0  0  0  0  0  0  0  0  0  0  0  0
    2.6263    4.4318   -0.0766 H   0  0  0  0  0  0  0  0  0  0  0  0
    2.8294    3.4579    1.4881 H   0  0  0  0  0  0  0  0  0  0  0  0
    8.5576    2.4779    1.2495 H   0  0  0  0  0  0  0  0  0  0  0  0
   10.3191    0.7806    0.7842 H   0  0  0  0  0  0  0  0  0  0  0  0
   11.4034   -0.3226   -2.2131 H   0  0  0  0  0  0  0  0  0  0  0  0
   11.2833   -0.9159   -0.5973 H   0  0  0  0  0  0  0  0  0  0  0  0
    9.3924   -2.5489   -3.9610 H   0  0  0  0  0  0  0  0  0  0  0  0
    9.7335   -0.8800   -3.7625 H   0  0  0  0  0  0  0  0  0  0  0  0
    7.7579   -0.9350   -1.8765 H   0  0  0  0  0  0  0  0  0  0  0  0
    7.2222   -1.1524   -3.5145 H   0  0  0  0  0  0  0  0  0  0  0  0
    7.6939   -3.9839   -0.5920 H   0  0  0  0  0  0  0  0  0  0  0  0
    7.9228   -2.2698   -0.2339 H   0  0  0  0  0  0  0  0  0  0  0  0
    9.6406   -3.9917   -2.0434 H   0  0  0  0  0  0  0  0  0  0  0  0
   10.1814   -3.4738   -0.4732 H   0  0  0  0  0  0  0  0  0  0  0  0
    8.8627    0.7222   -3.2732 H   0  0  0  0  0  0  0  0  0  0  0  0
    6.6825    1.3393   -2.4483 H   0  0  0  0  0  0  0  0  0  0  0  0
    2.6085    6.9991    2.3330 H   0  0  0  0  0  0  0  0  0  0  0  0
    3.3260    5.3918    2.3740 H   0  0  0  0  0  0  0  0  0  0  0  0
    1.1585    4.5510    1.1137 H   0  0  0  0  0  0  0  0  0  0  0  0
    0.7157    5.4340    2.4668 H   0  0  0  0  0  0  0  0  0  0  0  0
    0.6156    7.1770   -1.2833 H   0  0  0  0  0  0  0  0  0  0  0  0
    1.4144    5.6224   -1.1645 H   0  0  0  0  0  0  0  0  0  0  0  0
    2.3856    8.2026    0.2073 H   0  0  0  0  0  0  0  0  0  0  0  0
    3.1251    7.5311   -1.2745 H   0  0  0  0  0  0  0  0  0  0  0  0
  1  2  1  0  0  0  0
  2  3  2  0  0  0  0
  2 13  1  0  0  0  0
  3  4  1  0  0  0  0
  3 38  1  0  0  0  0
  4  5  2  0  0  0  0
  4 39  1  0  0  0  0
  5  6  1  0  0  0  0
  5 40  1  0  0  0  0
  6  7  1  0  0  0  0
  6 13  2  0  0  0  0
  7  8  2  0  0  0  0
  7 16  1  0  0  0  0
  8  9  1  0  0  0  0
  8 14  1  0  0  0  0
  9 10  1  0  0  0  0
  9 41  1  0  0  0  0
  9 42  1  0  0  0  0
 10 11  2  0  0  0  0
 10 12  2  0  0  0  0
 10 13  1  0  0  0  0
 14 15  2  0  0  0  0
 14 30  1  0  0  0  0
 15 16  1  0  0  0  0
 16 17  1  0  0  0  0
 17 18  2  0  0  0  0
 17 29  1  0  0  0  0
 18 19  1  0  0  0  0
 18 43  1  0  0  0  0
 19 20  2  0  0  0  0
 19 44  1  0  0  0  0
 20 21  1  0  0  0  0
 20 28  1  0  0  0  0
 21 22  1  0  0  0  0
 21 45  1  0  0  0  0
 21 46  1  0  0  0  0
 22 23  1  0  0  0  0
 22 27  1  0  0  0  0
 23 24  1  0  0  0  0
 23 47  1  0  0  0  0
 23 48  1  0  0  0  0
 24 25  1  0  0  0  0
 24 49  1  0  0  0  0
 24 50  1  0  0  0  0
 25 26  1  0  0  0  0
 26 27  1  0  0  0  0
 26 51  1  0  0  0  0
 26 52  1  0  0  0  0
 27 53  1  0  0  0  0
 27 54  1  0  0  0  0
 28 29  2  0  0  0  0
 28 55  1  0  0  0  0
 29 56  1  0  0  0  0
 30 31  2  0  0  0  0
 30 32  1  0  0  0  0
 32 33  1  0  0  0  0
 32 37  1  0  0  0  0
 33 34  1  0  0  0  0
 33 57  1  0  0  0  0
 33 58  1  0  0  0  0
 34 35  1  0  0  0  0
 34 59  1  0  0  0  0
 34 60  1  0  0  0  0
 35 36  1  0  0  0  0
 36 37  1  0  0  0  0
 36 61  1  0  0  0  0
 36 62  1  0  0  0  0
 37 63  1  0  0  0  0
 37 64  1  0  0  0  0
M  END
>  <DRUGBANK_ID>
DB18088

>  <COMMON_NAME>
Roginolisib

>  <CAS_NUMBER>
1305267-37-1

>  <UNII>
6K8FC2TF54

>  <SYNONYMS>
MSC-2360844

$$$$
