492
 OpenBabel10282417163D

 21 22  0  0  0  0  0  0  0  0999 V2000
    1.0945   -0.0047   -0.0180 N   0  0  0  0  0  0  0  0  0  0  0  0
    0.6311   -0.1824    1.3571 C   0  0  0  0  0  0  0  0  0  0  0  0
    1.0265    0.9825    2.2155 C   0  0  0  0  0  0  0  0  0  0  0  0
    1.9269    0.7812    3.6649 S   0  0  0  0  0  0  0  0  0  0  0  0
    1.8253    2.4498    4.0516 C   0  0  0  0  0  0  0  0  0  0  0  0
    1.1642    3.1481    3.0629 C   0  0  0  0  0  0  0  0  0  0  0  0
    0.7080    2.3114    2.0106 C   0  0  0  0  0  0  0  0  0  0  0  0
    2.2907    3.0124    5.2949 C   0  0  0  0  0  0  0  0  0  0  0  0
    3.9053    2.8845    5.8482 S   0  0  0  0  0  0  0  0  0  0  0  0
    3.5687    3.8076    7.2545 C   0  0  0  0  0  0  0  0  0  0  0  0
    2.2538    4.2097    7.3041 C   0  0  0  0  0  0  0  0  0  0  0  0
    1.5244    3.7684    6.1637 C   0  0  0  0  0  0  0  0  0  0  0  0
    0.7538    0.8873   -0.3723 H   0  0  0  0  0  0  0  0  0  0  0  0
    2.1107    0.0695   -0.0113 H   0  0  0  0  0  0  0  0  0  0  0  0
   -0.4633   -0.2545    1.3473 H   0  0  0  0  0  0  0  0  0  0  0  0
    1.0097   -1.1350    1.7417 H   0  0  0  0  0  0  0  0  0  0  0  0
    0.9876    4.2164    3.1054 H   0  0  0  0  0  0  0  0  0  0  0  0
    0.1439    2.6587    1.1556 H   0  0  0  0  0  0  0  0  0  0  0  0
    4.3468    4.0095    7.9794 H   0  0  0  0  0  0  0  0  0  0  0  0
    1.8330    4.7946    8.1136 H   0  0  0  0  0  0  0  0  0  0  0  0
    0.4761    3.9817    5.9936 H   0  0  0  0  0  0  0  0  0  0  0  0
  1 13  1  0  0  0  0
  1 14  1  0  0  0  0
  2  1  1  0  0  0  0
  2 15  1  0  0  0  0
  2 16  1  0  0  0  0
  3  2  1  0  0  0  0
  3  4  1  0  0  0  0
  5  4  1  0  0  0  0
  5  8  1  0  0  0  0
  6  5  2  0  0  0  0
  6  7  1  0  0  0  0
  6 17  1  0  0  0  0
  7  3  2  0  0  0  0
  7 18  1  0  0  0  0
  8 12  2  0  0  0  0
  9  8  1  0  0  0  0
  9 10  1  0  0  0  0
 10 11  2  0  0  0  0
 10 19  1  0  0  0  0
 11 12  1  0  0  0  0
 11 20  1  0  0  0  0
 12 21  1  0  0  0  0
M  END
>  <DRUGBANK_ID>
DB07094

>  <COMMON_NAME>
1-(2,2'-bithiophen-5-yl)methanamine

$$$$
