
 OpenBabel10282417123D

 94 97  0  0  0  0  0  0  0  0999 V2000
   -4.4628    7.8229   -0.2581 C   0  0  0  0  0  0  0  0  0  0  0  0
   -3.2304    8.4117   -0.5004 C   0  0  0  0  0  0  0  0  0  0  0  0
   -2.1082    7.6138   -0.7212 C   0  0  0  0  0  0  0  0  0  0  0  0
   -2.2133    6.2203   -0.6485 C   0  0  0  0  0  0  0  0  0  0  0  0
   -3.4562    5.6226   -0.3666 C   0  0  0  0  0  0  0  0  0  0  0  0
   -4.5839    6.4423   -0.2911 C   0  0  0  0  0  0  0  0  0  0  0  0
   -3.5684    4.1878    0.1510 C   0  0  0  0  0  0  0  0  0  0  0  0
  -10.0148    2.6518    2.1152 C   0  0  0  0  0  0  0  0  0  0  0  0
   -9.4077    1.4539    1.8619 O   0  0  0  0  0  0  0  0  0  0  0  0
   -8.6100    0.6407    2.7081 C   0  0  0  0  0  0  0  0  0  0  0  0
   -7.3741    1.0639    3.5530 C   0  0  0  0  0  0  0  0  0  0  0  0
   -6.3766    1.8284    2.9722 N   0  0  0  0  0  0  0  0  0  0  0  0
   -6.2583    2.2873    1.5767 C   0  0  2  0  0  0  0  0  0  0  0  0
   -6.3719    3.8007    1.3361 C   0  0  2  0  0  0  0  0  0  0  0  0
   -5.4914    4.6272    2.1521 C   0  0  0  0  0  0  0  0  0  0  0  0
   -4.1330    4.1759    1.6617 C   0  0  1  0  0  0  0  0  0  0  0  0
   -3.6522    2.9086    2.4770 N   0  0  0  0  0  0  0  0  0  0  0  0
   -2.8778    2.5526    3.5554 C   0  0  0  0  0  0  0  0  0  0  0  0
   -1.8121    3.5440    4.3595 C   0  0  1  0  0  0  0  0  0  0  0  0
   -0.5759    2.9189    4.8388 N   0  0  0  0  0  0  0  0  0  0  0  0
  -10.9813    3.0254    1.1594 C   0  0  0  0  0  0  0  0  0  0  0  0
  -11.6735    4.2428    1.3235 C   0  0  0  0  0  0  0  0  0  0  0  0
  -11.4513    5.0628    2.4288 C   0  0  0  0  0  0  0  0  0  0  0  0
  -10.4538    4.7487    3.3173 C   0  0  0  0  0  0  0  0  0  0  0  0
   -9.7351    3.5733    3.1516 C   0  0  0  0  0  0  0  0  0  0  0  0
  -11.4032    2.1153    0.0301 C   0  0  0  0  0  0  0  0  0  0  0  0
   -8.5983    3.4808    4.0819 C   0  0  0  0  0  0  0  0  0  0  0  0
   -7.3528    0.8800    4.7734 O   0  0  0  0  0  0  0  0  0  0  0  0
   -7.0205    1.5248    0.5449 C   0  0  0  0  0  0  0  0  0  0  0  0
   -6.5609    1.6182   -0.8581 C   0  0  0  0  0  0  0  0  0  0  0  0
   -6.4383    2.8458   -1.5068 C   0  0  0  0  0  0  0  0  0  0  0  0
   -5.8309    2.9445   -2.7276 C   0  0  0  0  0  0  0  0  0  0  0  0
   -5.5928    1.7725   -3.4168 C   0  0  0  0  0  0  0  0  0  0  0  0
   -5.8841    0.5268   -2.8475 C   0  0  0  0  0  0  0  0  0  0  0  0
   -6.3714    0.4438   -1.5598 C   0  0  0  0  0  0  0  0  0  0  0  0
   -7.6263    4.3989    1.2191 O   0  0  0  0  0  0  0  0  0  0  0  0
   -3.0680    1.3687    3.8803 O   0  0  0  0  0  0  0  0  0  0  0  0
   -1.2568    4.7926    3.5879 C   0  0  0  0  0  0  0  0  0  0  0  0
   -1.8478    4.7180    2.3077 C   0  0  0  0  0  0  0  0  0  0  0  0
   -1.7384    6.1351    4.1615 C   0  0  0  0  0  0  0  0  0  0  0  0
   -0.5099    1.4831    4.9891 C   0  0  0  0  0  0  0  0  0  0  0  0
    0.8855    0.9736    4.7533 C   0  0  0  0  0  0  0  0  0  0  0  0
    1.8585    1.7872    5.5599 C   0  0  0  0  0  0  0  0  0  0  0  0
    1.6885    3.1667    5.3182 N   0  0  0  0  0  0  0  0  0  0  0  0
    0.4955    3.7614    5.1562 C   0  0  0  0  0  0  0  0  0  0  0  0
    0.5446    4.9626    5.1993 O   0  0  0  0  0  0  0  0  0  0  0  0
   -5.3342    8.4223   -0.0110 H   0  0  0  0  0  0  0  0  0  0  0  0
   -3.1537    9.4940   -0.5226 H   0  0  0  0  0  0  0  0  0  0  0  0
   -1.1420    8.0834   -0.8918 H   0  0  0  0  0  0  0  0  0  0  0  0
   -1.2997    5.6280   -0.7080 H   0  0  0  0  0  0  0  0  0  0  0  0
   -5.5675    6.0190   -0.1342 H   0  0  0  0  0  0  0  0  0  0  0  0
   -4.1100    3.5329   -0.5214 H   0  0  0  0  0  0  0  0  0  0  0  0
   -2.5536    3.7676    0.1078 H   0  0  0  0  0  0  0  0  0  0  0  0
   -8.2066   -0.1658    2.0773 H   0  0  0  0  0  0  0  0  0  0  0  0
   -9.3037    0.1081    3.3516 H   0  0  0  0  0  0  0  0  0  0  0  0
   -5.8211    2.3240    3.6764 H   0  0  0  0  0  0  0  0  0  0  0  0
   -5.2658    1.9641    1.3098 H   0  0  0  0  0  0  0  0  0  0  0  0
   -5.9270    3.9770    0.3787 H   0  0  0  0  0  0  0  0  0  0  0  0
   -5.6218    4.5606    3.2366 H   0  0  0  0  0  0  0  0  0  0  0  0
   -5.6645    5.7013    1.9500 H   0  0  0  0  0  0  0  0  0  0  0  0
   -3.8279    5.1769    1.9632 H   0  0  0  0  0  0  0  0  0  0  0  0
   -3.8118    2.0050    2.0415 H   0  0  0  0  0  0  0  0  0  0  0  0
   -2.3987    3.8452    5.2372 H   0  0  0  0  0  0  0  0  0  0  0  0
  -12.4291    4.5454    0.6046 H   0  0  0  0  0  0  0  0  0  0  0  0
  -12.0520    5.9433    2.6176 H   0  0  0  0  0  0  0  0  0  0  0  0
  -10.1950    5.4079    4.1426 H   0  0  0  0  0  0  0  0  0  0  0  0
  -12.4178    1.7607    0.2405 H   0  0  0  0  0  0  0  0  0  0  0  0
  -11.4021    2.6325   -0.9365 H   0  0  0  0  0  0  0  0  0  0  0  0
  -10.7677    1.2307   -0.0779 H   0  0  0  0  0  0  0  0  0  0  0  0
   -7.9410    4.3443    4.2271 H   0  0  0  0  0  0  0  0  0  0  0  0
   -8.8350    2.9589    5.0017 H   0  0  0  0  0  0  0  0  0  0  0  0
   -7.9782    2.9583    3.4251 H   0  0  0  0  0  0  0  0  0  0  0  0
   -6.9169    0.4825    0.8434 H   0  0  0  0  0  0  0  0  0  0  0  0
   -8.0114    1.9241    0.4900 H   0  0  0  0  0  0  0  0  0  0  0  0
   -6.8294    3.7654   -1.0892 H   0  0  0  0  0  0  0  0  0  0  0  0
   -5.6064    3.9316   -3.1170 H   0  0  0  0  0  0  0  0  0  0  0  0
   -5.2384    1.8386   -4.4347 H   0  0  0  0  0  0  0  0  0  0  0  0
   -5.7311   -0.3860   -3.4063 H   0  0  0  0  0  0  0  0  0  0  0  0
   -6.6533   -0.5096   -1.1151 H   0  0  0  0  0  0  0  0  0  0  0  0
   -7.9098    4.6222    2.1144 H   0  0  0  0  0  0  0  0  0  0  0  0
   -0.2309    4.7485    3.2153 H   0  0  0  0  0  0  0  0  0  0  0  0
   -2.7505    4.7273    2.8955 H   0  0  0  0  0  0  0  0  0  0  0  0
   -1.8498    5.5957    1.6911 H   0  0  0  0  0  0  0  0  0  0  0  0
   -1.6332    3.7780    1.7950 H   0  0  0  0  0  0  0  0  0  0  0  0
   -1.1642    6.4347    5.0264 H   0  0  0  0  0  0  0  0  0  0  0  0
   -1.6684    6.9148    3.3926 H   0  0  0  0  0  0  0  0  0  0  0  0
   -2.7970    6.0890    4.4589 H   0  0  0  0  0  0  0  0  0  0  0  0
   -1.0781    0.9720    4.2182 H   0  0  0  0  0  0  0  0  0  0  0  0
   -0.9322    1.2348    5.9676 H   0  0  0  0  0  0  0  0  0  0  0  0
    1.1030    1.0817    3.6811 H   0  0  0  0  0  0  0  0  0  0  0  0
    0.9381   -0.0840    5.0103 H   0  0  0  0  0  0  0  0  0  0  0  0
    2.8809    1.5599    5.2698 H   0  0  0  0  0  0  0  0  0  0  0  0
    1.7065    1.6371    6.6308 H   0  0  0  0  0  0  0  0  0  0  0  0
    2.3965    3.8669    5.5028 H   0  0  0  0  0  0  0  0  0  0  0  0
  1  2  2  0  0  0  0
  1 47  1  0  0  0  0
  2  3  1  0  0  0  0
  2 48  1  0  0  0  0
  3  4  2  0  0  0  0
  3 49  1  0  0  0  0
  4  5  1  0  0  0  0
  4 50  1  0  0  0  0
  5  7  1  0  0  0  0
  5  6  2  0  0  0  0
  6  1  1  0  0  0  0
  6 51  1  0  0  0  0
  7 52  1  0  0  0  0
  7 53  1  0  0  0  0
  8  9  1  0  0  0  0
  8 21  2  0  0  0  0
  9 10  1  0  0  0  0
 10 11  1  0  0  0  0
 10 54  1  0  0  0  0
 10 55  1  0  0  0  0
 11 28  2  0  0  0  0
 11 12  1  0  0  0  0
 12 13  1  0  0  0  0
 12 56  1  0  0  0  0
 13 14  1  0  0  0  0
 13 29  1  0  0  0  0
 13 57  1  6  0  0  0
 14 15  1  0  0  0  0
 14 36  1  0  0  0  0
 14 58  1  6  0  0  0
 15 16  1  0  0  0  0
 15 59  1  0  0  0  0
 15 60  1  0  0  0  0
 16 17  1  0  0  0  0
 16  7  1  0  0  0  0
 16 61  1  1  0  0  0
 17 18  1  0  0  0  0
 17 62  1  0  0  0  0
 18 37  2  0  0  0  0
 19 20  1  0  0  0  0
 19 63  1  1  0  0  0
 19 38  1  0  0  0  0
 19 18  1  0  0  0  0
 20 41  1  0  0  0  0
 21 22  1  0  0  0  0
 21 26  1  0  0  0  0
 22 23  2  0  0  0  0
 22 64  1  0  0  0  0
 23 24  1  0  0  0  0
 23 65  1  0  0  0  0
 24 25  2  0  0  0  0
 24 66  1  0  0  0  0
 25  8  1  0  0  0  0
 25 27  1  0  0  0  0
 26 67  1  0  0  0  0
 26 68  1  0  0  0  0
 26 69  1  0  0  0  0
 27 70  1  0  0  0  0
 27 71  1  0  0  0  0
 27 72  1  0  0  0  0
 29 30  1  0  0  0  0
 29 73  1  0  0  0  0
 29 74  1  0  0  0  0
 30 31  2  0  0  0  0
 31 32  1  0  0  0  0
 31 75  1  0  0  0  0
 32 33  2  0  0  0  0
 32 76  1  0  0  0  0
 33 34  1  0  0  0  0
 33 77  1  0  0  0  0
 34 35  2  0  0  0  0
 34 78  1  0  0  0  0
 35 30  1  0  0  0  0
 35 79  1  0  0  0  0
 36 80  1  0  0  0  0
 38 39  1  0  0  0  0
 38 40  1  0  0  0  0
 38 81  1  0  0  0  0
 39 82  1  0  0  0  0
 39 83  1  0  0  0  0
 39 84  1  0  0  0  0
 40 85  1  0  0  0  0
 40 86  1  0  0  0  0
 40 87  1  0  0  0  0
 41 42  1  0  0  0  0
 41 88  1  0  0  0  0
 41 89  1  0  0  0  0
 42 43  1  0  0  0  0
 42 90  1  0  0  0  0
 42 91  1  0  0  0  0
 43 44  1  0  0  0  0
 43 92  1  0  0  0  0
 43 93  1  0  0  0  0
 44 45  1  0  0  0  0
 44 94  1  0  0  0  0
 45 20  1  0  0  0  0
 45 46  2  0  0  0  0
M  END
>  <DRUGBANK_ID>
DB01601

>  <SECONDARY_ACCESSION_NUMBERS>
EXPT00388

>  <COMMON_NAME>
Lopinavir

>  <CAS_NUMBER>
192725-17-0

>  <UNII>
2494G1JF75

>  <SYNONYMS>
Lopinavir

$$$$
