
 OpenBabel10282417193D

 33 34  0  0  0  0  0  0  0  0999 V2000
    0.7957    1.1760    0.0676 C   0  0  0  0  0  0  0  0  0  0  0  0
   -2.3127    1.2579   -2.4463 C   0  0  0  0  0  0  0  0  0  0  0  0
    1.6024   -0.0311    0.4975 C   0  0  0  0  0  0  0  0  0  0  0  0
   -2.2800    1.1240   -3.9540 C   0  0  0  0  0  0  0  0  0  0  0  0
   -1.2824   -0.0984    0.0057 C   0  0  0  0  0  0  0  0  0  0  0  0
   -0.2207    2.5118   -2.4030 C   0  0  0  0  0  0  0  0  0  0  0  0
   -1.4273    2.2849   -0.3283 C   0  0  0  0  0  0  0  0  0  0  0  0
   -0.6664   -1.2685    0.5564 N   0  0  0  0  0  0  0  0  0  0  0  0
   -0.1542    2.5895   -3.8319 N   0  0  0  0  0  0  0  0  0  0  0  0
   -0.6603    1.1712    0.3099 N   0  0  0  0  0  0  0  0  0  0  0  0
   -1.5326    2.3423   -1.8186 N   0  0  0  0  0  0  0  0  0  0  0  0
    0.7599   -1.4705   -1.5611 O   0  0  0  0  0  0  0  0  0  0  0  0
    1.4410   -2.6579    0.5474 O   0  0  0  0  0  0  0  0  0  0  0  0
    0.1402    0.0471   -3.9209 O   0  0  0  0  0  0  0  0  0  0  0  0
   -0.5928    1.3134   -5.9652 O   0  0  0  0  0  0  0  0  0  0  0  0
    0.8609   -1.5247   -0.1147 S   0  0  0  0  0  0  0  0  0  0  0  0
   -0.6042    1.1262   -4.5425 S   0  0  0  0  0  0  0  0  0  0  0  0
    1.2315    2.1168    0.4230 H   0  0  0  0  0  0  0  0  0  0  0  0
    1.0796    1.1417   -0.9629 H   0  0  0  0  0  0  0  0  0  0  0  0
   -3.3342    1.2531   -2.0491 H   0  0  0  0  0  0  0  0  0  0  0  0
   -1.9589    0.2709   -2.2364 H   0  0  0  0  0  0  0  0  0  0  0  0
    2.5983    0.0172    0.0441 H   0  0  0  0  0  0  0  0  0  0  0  0
    1.6623   -0.1010    1.5786 H   0  0  0  0  0  0  0  0  0  0  0  0
   -2.6978    0.1531   -4.2417 H   0  0  0  0  0  0  0  0  0  0  0  0
   -2.8089    1.9407   -4.4342 H   0  0  0  0  0  0  0  0  0  0  0  0
   -1.1158   -0.2882   -1.0281 H   0  0  0  0  0  0  0  0  0  0  0  0
   -2.3625   -0.0906    0.1941 H   0  0  0  0  0  0  0  0  0  0  0  0
    0.3068    1.5994   -2.2574 H   0  0  0  0  0  0  0  0  0  0  0  0
    0.3450    3.3247   -1.9327 H   0  0  0  0  0  0  0  0  0  0  0  0
   -2.4475    2.2963    0.0893 H   0  0  0  0  0  0  0  0  0  0  0  0
   -1.0132    3.2401    0.0342 H   0  0  0  0  0  0  0  0  0  0  0  0
   -0.7035   -1.3648    1.5631 H   0  0  0  0  0  0  0  0  0  0  0  0
   -0.5702    3.4078   -4.2578 H   0  0  0  0  0  0  0  0  0  0  0  0
  1 18  1  0  0  0  0
  1 19  1  0  0  0  0
  2 20  1  0  0  0  0
  2 21  1  0  0  0  0
  3  1  1  0  0  0  0
  3 22  1  0  0  0  0
  3 23  1  0  0  0  0
  4  2  1  0  0  0  0
  4 24  1  0  0  0  0
  4 25  1  0  0  0  0
  5 26  1  0  0  0  0
  5 27  1  0  0  0  0
  6 28  1  0  0  0  0
  6 29  1  0  0  0  0
  7 30  1  0  0  0  0
  7 31  1  0  0  0  0
  8  5  1  0  0  0  0
  8 32  1  0  0  0  0
  9  6  1  0  0  0  0
  9 33  1  0  0  0  0
 10  1  1  0  0  0  0
 10  5  1  0  0  0  0
 10  7  1  0  0  0  0
 11  2  1  0  0  0  0
 11  6  1  0  0  0  0
 11  7  1  0  0  0  0
 16  3  1  0  0  0  0
 16  8  1  0  0  0  0
 16 12  2  0  0  0  0
 16 13  2  0  0  0  0
 17  4  1  0  0  0  0
 17  9  1  0  0  0  0
 17 14  2  0  0  0  0
 17 15  2  0  0  0  0
M  END
>  <DRUGBANK_ID>
DB12473

>  <COMMON_NAME>
Taurolidine

>  <CAS_NUMBER>
19388-87-5

>  <UNII>
8OBZ1M4V3V

>  <SYNONYMS>
Taurolidine

$$$$
