OA3
 OpenBabel10282417173D

 27 28  0  0  0  0  0  0  0  0999 V2000
    1.1702   -0.0748   -0.0846 O   0  0  0  0  0  0  0  0  0  0  0  0
    2.4017   -0.0644   -0.0521 C   0  0  0  0  0  0  0  0  0  0  0  0
    3.2081   -1.3218   -0.1932 C   0  0  0  0  0  0  0  0  0  0  0  0
    4.2378   -1.3785    0.9444 C   0  0  0  0  0  0  0  0  0  0  0  0
    3.5487   -1.2852    2.3249 C   0  0  0  0  0  0  0  0  0  0  0  0
    4.9837   -2.7170    0.8745 C   0  0  0  0  0  0  0  0  0  0  0  0
    5.2179   -0.2001    0.7524 C   0  0  0  0  0  0  0  0  0  0  0  0
    4.5063    1.1201    0.5521 C   0  0  0  0  0  0  0  0  0  0  0  0
    5.2364    2.2351    0.7601 N   0  0  0  0  0  0  0  0  0  0  0  0
    4.5827    3.3993    0.6099 C   0  0  0  0  0  0  0  0  0  0  0  0
    3.2853    3.5513    0.2842 N   0  0  0  0  0  0  0  0  0  0  0  0
    2.5823    2.4271    0.0647 C   0  0  0  0  0  0  0  0  0  0  0  0
    3.1711    1.1772    0.1676 C   0  0  0  0  0  0  0  0  0  0  0  0
    1.2874    2.5704   -0.4199 N   0  0  0  0  0  0  0  0  0  0  0  0
    3.6883   -1.3001   -1.1807 H   0  0  0  0  0  0  0  0  0  0  0  0
    2.5355   -2.1856   -0.1709 H   0  0  0  0  0  0  0  0  0  0  0  0
    2.8202   -2.0927    2.4522 H   0  0  0  0  0  0  0  0  0  0  0  0
    4.2839   -1.3509    3.1333 H   0  0  0  0  0  0  0  0  0  0  0  0
    3.0107   -0.3420    2.4688 H   0  0  0  0  0  0  0  0  0  0  0  0
    5.4868   -2.8465   -0.0894 H   0  0  0  0  0  0  0  0  0  0  0  0
    5.7377   -2.7890    1.6652 H   0  0  0  0  0  0  0  0  0  0  0  0
    4.2868   -3.5544    1.0009 H   0  0  0  0  0  0  0  0  0  0  0  0
    5.8911   -0.1290    1.6164 H   0  0  0  0  0  0  0  0  0  0  0  0
    5.8481   -0.3740   -0.1303 H   0  0  0  0  0  0  0  0  0  0  0  0
    5.1628    4.3043    0.7613 H   0  0  0  0  0  0  0  0  0  0  0  0
    0.6805    1.7597   -0.2745 H   0  0  0  0  0  0  0  0  0  0  0  0
    0.8728    3.4854   -0.3186 H   0  0  0  0  0  0  0  0  0  0  0  0
  1  2  2  0  0  0  0
  2  3  1  0  0  0  0
  2 13  1  0  0  0  0
  3  4  1  0  0  0  0
  3 15  1  0  0  0  0
  3 16  1  0  0  0  0
  4  5  1  0  0  0  0
  4  6  1  0  0  0  0
  4  7  1  0  0  0  0
  5 17  1  0  0  0  0
  5 18  1  0  0  0  0
  5 19  1  0  0  0  0
  6 20  1  0  0  0  0
  6 21  1  0  0  0  0
  6 22  1  0  0  0  0
  7  8  1  0  0  0  0
  7 23  1  0  0  0  0
  7 24  1  0  0  0  0
  8  9  2  0  0  0  0
  8 13  1  0  0  0  0
  9 10  1  0  0  0  0
 10 11  2  0  0  0  0
 10 25  1  0  0  0  0
 11 12  1  0  0  0  0
 12 13  2  0  0  0  0
 12 14  1  0  0  0  0
 14 26  1  0  0  0  0
 14 27  1  0  0  0  0
M  END
>  <DRUGBANK_ID>
DB08316

>  <COMMON_NAME>
4-amino-7,7-dimethyl-7,8-dihydroquinazolin-5(6H)-one

>  <UNII>
QZ3DRM9797

$$$$
