34O
 OpenBabel10282417163D

 38 41  0  0  0  0  0  0  0  0999 V2000
   -2.1973    0.0254    0.0796 C   0  0  0  0  0  0  0  0  0  0  0  0
    3.5565    1.3888   -0.0196 C   0  0  0  0  0  0  0  0  0  0  0  0
   -0.1535   -0.6713    0.0090 C   0  0  0  0  0  0  0  0  0  0  0  0
   -0.1377    0.7035    0.0243 C   0  0  0  0  0  0  0  0  0  0  0  0
    1.0481    1.4236    0.0392 C   0  0  0  0  0  0  0  0  0  0  0  0
    1.0108   -1.4039   -0.0031 C   0  0  0  0  0  0  0  0  0  0  0  0
    2.2252   -0.7022    0.0034 C   0  0  0  0  0  0  0  0  0  0  0  0
    2.2612    0.7121    0.0335 C   0  0  0  0  0  0  0  0  0  0  0  0
    2.7673    8.3896    2.3189 F   0  0  0  0  0  0  0  0  0  0  0  0
    2.7349    7.0495    2.3428 C   0  0  0  0  0  0  0  0  0  0  0  0
    1.5740    6.3371    2.0271 C   0  0  0  0  0  0  0  0  0  0  0  0
    0.3701    6.8555    1.6346 O   0  0  0  0  0  0  0  0  0  0  0  0
    0.2990    8.2745    1.5731 C   0  0  0  0  0  0  0  0  0  0  0  0
    1.6002    4.9475    2.1217 C   0  0  0  0  0  0  0  0  0  0  0  0
    2.7614    4.2944    2.5299 C   0  0  0  0  0  0  0  0  0  0  0  0
    3.9152    6.3939    2.6884 C   0  0  0  0  0  0  0  0  0  0  0  0
    3.9496    4.9984    2.7549 C   0  0  0  0  0  0  0  0  0  0  0  0
    5.2342    4.2603    3.0206 C   0  0  0  0  0  0  0  0  0  0  0  0
    6.1419    3.7980    1.5251 S   0  0  0  0  0  0  0  0  0  0  0  0
    5.1453    2.6558    0.6615 C   0  0  0  0  0  0  0  0  0  0  0  0
    5.5254    2.1354   -0.4889 N   0  0  0  0  0  0  0  0  0  0  0  0
    4.5079    1.3030   -0.9179 N   0  0  0  0  0  0  0  0  0  0  0  0
    3.9085    2.1878    1.0390 O   0  0  0  0  0  0  0  0  0  0  0  0
   -1.4140   -1.1825   -0.0029 O   0  0  0  0  0  0  0  0  0  0  0  0
   -1.3957    1.2268    0.0090 O   0  0  0  0  0  0  0  0  0  0  0  0
   -2.9317    0.0292   -0.7352 H   0  0  0  0  0  0  0  0  0  0  0  0
   -2.7398    0.0239    1.0332 H   0  0  0  0  0  0  0  0  0  0  0  0
    1.0214    2.5082    0.0215 H   0  0  0  0  0  0  0  0  0  0  0  0
    0.9870   -2.4880   -0.0269 H   0  0  0  0  0  0  0  0  0  0  0  0
    3.1564   -1.2660   -0.0240 H   0  0  0  0  0  0  0  0  0  0  0  0
    0.4674    8.7145    2.5618 H   0  0  0  0  0  0  0  0  0  0  0  0
    1.0004    8.6694    0.8305 H   0  0  0  0  0  0  0  0  0  0  0  0
   -0.7094    8.5516    1.2556 H   0  0  0  0  0  0  0  0  0  0  0  0
    0.7162    4.3618    1.8808 H   0  0  0  0  0  0  0  0  0  0  0  0
    2.7323    3.2153    2.6488 H   0  0  0  0  0  0  0  0  0  0  0  0
    4.7943    6.9959    2.9021 H   0  0  0  0  0  0  0  0  0  0  0  0
    5.0634    3.3894    3.6612 H   0  0  0  0  0  0  0  0  0  0  0  0
    5.8952    4.9229    3.5977 H   0  0  0  0  0  0  0  0  0  0  0  0
  1 24  1  0  0  0  0
  1 25  1  0  0  0  0
  1 26  1  0  0  0  0
  1 27  1  0  0  0  0
  2  8  1  0  0  0  0
  2 22  2  0  0  0  0
  2 23  1  0  0  0  0
  3  4  2  0  0  0  0
  3  6  1  0  0  0  0
  3 24  1  0  0  0  0
  4  5  1  0  0  0  0
  4 25  1  0  0  0  0
  5  8  2  0  0  0  0
  5 28  1  0  0  0  0
  6  7  2  0  0  0  0
  6 29  1  0  0  0  0
  7  8  1  0  0  0  0
  7 30  1  0  0  0  0
  9 10  1  0  0  0  0
 10 11  2  0  0  0  0
 10 16  1  0  0  0  0
 11 12  1  0  0  0  0
 11 14  1  0  0  0  0
 12 13  1  0  0  0  0
 13 31  1  0  0  0  0
 13 32  1  0  0  0  0
 13 33  1  0  0  0  0
 14 15  2  0  0  0  0
 14 34  1  0  0  0  0
 15 17  1  0  0  0  0
 15 35  1  0  0  0  0
 16 17  2  0  0  0  0
 16 36  1  0  0  0  0
 17 18  1  0  0  0  0
 18 19  1  0  0  0  0
 18 37  1  0  0  0  0
 18 38  1  0  0  0  0
 19 20  1  0  0  0  0
 20 21  2  0  0  0  0
 20 23  1  0  0  0  0
 21 22  1  0  0  0  0
M  END
>  <DRUGBANK_ID>
DB07014

>  <COMMON_NAME>
2-(1,3-benzodioxol-5-yl)-5-[(3-fluoro-4-methoxybenzyl)sulfanyl]-1,3,4-oxadiazole

$$$$
