
 OpenBabel10282417133D

 73 76  0  0  0  0  0  0  0  0999 V2000
    1.1340    0.0226    0.0543 C   0  0  0  0  0  0  0  0  0  0  0  0
    1.1118    0.1498    2.5442 C   0  0  0  0  0  0  0  0  0  0  0  0
   -1.5028   -1.4476    0.1126 C   0  0  0  0  0  0  0  0  0  0  0  0
   -1.8181   -0.3846    5.8110 C   0  0  0  0  0  0  0  0  0  0  0  0
   -6.6407    2.4515    5.0029 C   0  0  0  0  0  0  0  0  0  0  0  0
   -3.8890   -3.5033    6.2189 C   0  0  0  0  0  0  0  0  0  0  0  0
   -1.4725   -1.2729    2.5456 C   0  0  0  0  0  0  0  0  0  0  0  0
   -2.1929   -0.5581    3.4129 C   0  0  0  0  0  0  0  0  0  0  0  0
   -4.6276    2.9603    7.5635 C   0  0  0  0  0  0  0  0  0  0  0  0
   -4.0998    1.6097    7.5119 C   0  0  0  0  0  0  0  0  0  0  0  0
   -4.9169   -2.1080    4.9463 C   0  0  0  0  0  0  0  0  0  0  0  0
   -5.0510   -1.9758    7.1043 C   0  0  0  0  0  0  0  0  0  0  0  0
   -7.0124    2.8034    9.1220 C   0  0  0  0  0  0  0  0  0  0  0  0
   -7.1073   -0.3978    5.8065 C   0  0  0  0  0  0  0  0  0  0  0  0
   -7.7658    2.1625    7.6354 C   0  0  0  0  0  0  0  0  0  0  0  0
   -6.7106   -1.8455    5.9257 C   0  0  0  0  0  0  0  0  0  0  0  0
   -6.8034    4.4615    7.4280 C   0  0  0  0  0  0  0  0  0  0  0  0
    0.5912   -0.6262    1.3255 C   0  0  0  0  0  0  0  0  0  0  0  0
   -0.9509   -0.6569    1.2906 C   0  0  1  0  0  0  0  0  0  0  0  0
   -2.5806   -1.1190    4.7260 C   0  0  2  0  0  0  0  0  0  0  0  0
   -5.8413    3.2473    7.0406 C   0  0  0  0  0  0  0  0  0  0  0  0
   -7.4174    4.2187    8.8510 C   0  0  1  0  0  0  0  0  0  0  0  0
   -4.8098    0.5543    7.0636 C   0  0  0  0  0  0  0  0  0  0  0  0
   -4.0779   -0.9497    4.8630 C   0  0  2  0  0  0  0  0  0  0  0  0
   -4.2629   -0.7881    7.1612 C   0  0  1  0  0  0  0  0  0  0  0  0
   -6.2537    0.6164    6.6948 C   0  0  1  0  0  0  0  0  0  0  0  0
   -6.6637    2.0835    6.5116 C   0  0  2  0  0  0  0  0  0  0  0  0
   -4.6655   -1.6840    6.0341 C   0  0  1  0  0  0  0  0  0  0  0  0
   -8.8197    3.9796    9.1856 O   0  0  0  0  0  0  0  0  0  0  0  0
   -1.1830   -2.2972    2.7792 H   0  0  0  0  0  0  0  0  0  0  0  0
   -2.4668    0.4737    3.2084 H   0  0  0  0  0  0  0  0  0  0  0  0
   -1.3181    0.3761    1.2149 H   0  0  0  0  0  0  0  0  0  0  0  0
   -2.2859   -2.1736    4.7467 H   0  0  0  0  0  0  0  0  0  0  0  0
   -7.2534    5.1056    9.4539 H   0  0  0  0  0  0  0  0  0  0  0  0
   -4.5489   -0.0084    4.5618 H   0  0  0  0  0  0  0  0  0  0  0  0
   -3.3820   -0.9320    7.7813 H   0  0  0  0  0  0  0  0  0  0  0  0
   -6.6023    0.2660    7.6750 H   0  0  0  0  0  0  0  0  0  0  0  0
    0.7621    1.0488   -0.0400 H   0  0  0  0  0  0  0  0  0  0  0  0
    0.8338   -0.5302   -0.8395 H   0  0  0  0  0  0  0  0  0  0  0  0
    2.2260    0.0444    0.0641 H   0  0  0  0  0  0  0  0  0  0  0  0
    0.7521    1.1845    2.5283 H   0  0  0  0  0  0  0  0  0  0  0  0
    0.7892   -0.3039    3.4870 H   0  0  0  0  0  0  0  0  0  0  0  0
    2.2055    0.1647    2.5542 H   0  0  0  0  0  0  0  0  0  0  0  0
   -1.1377   -2.4802    0.1312 H   0  0  0  0  0  0  0  0  0  0  0  0
   -2.5974   -1.4659    0.1321 H   0  0  0  0  0  0  0  0  0  0  0  0
   -1.2104   -0.9940   -0.8362 H   0  0  0  0  0  0  0  0  0  0  0  0
   -2.2419    0.6152    5.9344 H   0  0  0  0  0  0  0  0  0  0  0  0
   -1.8776   -0.9539    6.7357 H   0  0  0  0  0  0  0  0  0  0  0  0
   -0.7485   -0.2847    5.6425 H   0  0  0  0  0  0  0  0  0  0  0  0
   -7.0973    1.7501    4.3048 H   0  0  0  0  0  0  0  0  0  0  0  0
   -7.0581    3.4395    4.7920 H   0  0  0  0  0  0  0  0  0  0  0  0
   -5.5814    2.5084    4.6659 H   0  0  0  0  0  0  0  0  0  0  0  0
   -4.1857   -4.1381    5.3735 H   0  0  0  0  0  0  0  0  0  0  0  0
   -2.8175   -3.3906    6.3385 H   0  0  0  0  0  0  0  0  0  0  0  0
   -4.3280   -4.0296    7.0864 H   0  0  0  0  0  0  0  0  0  0  0  0
   -4.2145    3.5915    8.3487 H   0  0  0  0  0  0  0  0  0  0  0  0
   -3.1429    1.4352    8.0065 H   0  0  0  0  0  0  0  0  0  0  0  0
   -5.7603   -1.9068    4.2320 H   0  0  0  0  0  0  0  0  0  0  0  0
   -4.3247   -2.7360    4.2509 H   0  0  0  0  0  0  0  0  0  0  0  0
   -4.5075   -2.5298    7.9011 H   0  0  0  0  0  0  0  0  0  0  0  0
   -5.9602   -1.7954    7.7224 H   0  0  0  0  0  0  0  0  0  0  0  0
   -7.2087    2.7968   10.2046 H   0  0  0  0  0  0  0  0  0  0  0  0
   -5.9547    2.5414    9.2271 H   0  0  0  0  0  0  0  0  0  0  0  0
   -7.0641   -0.1810    4.7376 H   0  0  0  0  0  0  0  0  0  0  0  0
   -8.1516   -0.3719    6.1260 H   0  0  0  0  0  0  0  0  0  0  0  0
   -8.5311    2.8342    7.2182 H   0  0  0  0  0  0  0  0  0  0  0  0
   -8.3244    1.2285    7.7272 H   0  0  0  0  0  0  0  0  0  0  0  0
   -7.0741   -2.5336    5.1254 H   0  0  0  0  0  0  0  0  0  0  0  0
   -7.1642   -2.4346    6.7573 H   0  0  0  0  0  0  0  0  0  0  0  0
   -6.2010    5.3634    7.4082 H   0  0  0  0  0  0  0  0  0  0  0  0
   -7.6208    4.5791    6.7012 H   0  0  0  0  0  0  0  0  0  0  0  0
    0.9731   -1.6547    1.3878 H   0  0  0  0  0  0  0  0  0  0  0  0
   -8.7874    3.6879   10.1357 H   0  0  0  0  0  0  0  0  0  0  0  0
  1 38  1  0  0  0  0
  1 39  1  0  0  0  0
  1 40  1  0  0  0  0
  2 41  1  0  0  0  0
  2 42  1  0  0  0  0
  2 43  1  0  0  0  0
  3 44  1  0  0  0  0
  3 45  1  0  0  0  0
  3 46  1  0  0  0  0
  4 47  1  0  0  0  0
  4 48  1  0  0  0  0
  4 49  1  0  0  0  0
  5 50  1  0  0  0  0
  5 51  1  0  0  0  0
  5 52  1  0  0  0  0
  6 53  1  0  0  0  0
  6 54  1  0  0  0  0
  6 55  1  0  0  0  0
  8  7  2  0  0  0  0
  9 56  1  0  0  0  0
 10  9  1  0  0  0  0
 10 57  1  0  0  0  0
 11 58  1  0  0  0  0
 11 59  1  0  0  0  0
 12 11  1  0  0  0  0
 12 60  1  0  0  0  0
 12 61  1  0  0  0  0
 13 62  1  0  0  0  0
 13 63  1  0  0  0  0
 14 64  1  0  0  0  0
 14 65  1  0  0  0  0
 15 13  1  0  0  0  0
 15 66  1  0  0  0  0
 15 67  1  0  0  0  0
 16 14  1  0  0  0  0
 16 68  1  0  0  0  0
 16 69  1  0  0  0  0
 17 70  1  0  0  0  0
 17 71  1  0  0  0  0
 18  1  1  0  0  0  0
 18  2  1  0  0  0  0
 18 72  1  0  0  0  0
 19  3  1  0  0  0  0
 19  7  1  0  0  0  0
 19 18  1  0  0  0  0
 19 32  1  6  0  0  0
 20  4  1  0  0  0  0
 20  8  1  0  0  0  0
 20 33  1  1  0  0  0
 21  9  2  0  0  0  0
 21 17  1  0  0  0  0
 22 13  1  0  0  0  0
 22 17  1  0  0  0  0
 22 34  1  1  0  0  0
 22 29  1  0  0  0  0
 23 10  2  0  0  0  0
 24 11  1  0  0  0  0
 24 20  1  0  0  0  0
 24 28  1  0  0  0  0
 24 35  1  6  0  0  0
 25 12  1  0  0  0  0
 25 23  1  0  0  0  0
 25 36  1  6  0  0  0
 26 14  1  0  0  0  0
 26 23  1  0  0  0  0
 26 27  1  0  0  0  0
 26 37  1  1  0  0  0
 27  5  1  6  0  0  0
 27 15  1  0  0  0  0
 27 21  1  0  0  0  0
 28  6  1  6  0  0  0
 28 16  1  0  0  0  0
 28 25  1  0  0  0  0
 29 73  1  0  0  0  0
 30  7  1  0  0  0  0
 31  8  1  0  0  0  0
M  END
>  <DRUGBANK_ID>
DB04038

>  <SECONDARY_ACCESSION_NUMBERS>
EXPT01357

>  <COMMON_NAME>
Ergosterol

>  <CAS_NUMBER>
57-87-4

>  <UNII>
Z30RAY509F

>  <SYNONYMS>
(22E,24S)-24-methylcholesta-5,7,22-trien-3Î²-ol; Provitamin D2

$$$$
