
 OpenBabel10282417133D

 57 57  0  0  0  0  0  0  0  0999 V2000
    3.6522   -0.7921    0.1151 S   0  0  0  0  0  0  0  0  0  0  0  0
    5.6503   -0.4788    1.8274 O   0  0  0  0  0  0  0  0  0  0  0  0
   -0.5231   -4.9784   -1.9422 O   0  0  0  0  0  0  0  0  0  0  0  0
    3.3994   -4.5767    1.7127 O   0  0  0  0  0  0  0  0  0  0  0  0
    4.5651   -3.9517   -1.6356 O   0  0  0  0  0  0  0  0  0  0  0  0
    3.4441   -0.3545    2.5919 O   0  0  0  0  0  0  0  0  0  0  0  0
    5.2663   -2.5249   -3.1269 O   0  0  0  0  0  0  0  0  0  0  0  0
   -1.2870   -2.7156    3.6542 O   0  0  0  0  0  0  0  0  0  0  0  0
   -0.5840   -4.5977    2.5586 O   0  0  0  0  0  0  0  0  0  0  0  0
    6.4020   -7.3904    1.8349 O   0  5  0  0  0  0  0  0  0  0  0  0
    8.4869   -7.1020    2.4528 O   0  0  0  0  0  0  0  0  0  0  0  0
    0.8925   -4.0863   -0.4933 N   0  0  0  0  0  0  0  0  0  0  0  0
    1.8721   -3.1237    2.4777 N   0  0  0  0  0  0  0  0  0  0  0  0
    3.0847   -0.6954   -2.5941 N   0  0  0  0  0  0  0  0  0  0  0  0
    7.3945   -6.6773    2.0600 N   0  3  0  0  0  0  0  0  0  0  0  0
    2.0523   -3.3936    0.1076 C   0  0  1  0  0  0  0  0  0  0  0  0
    1.6909   -2.4813   -3.3396 C   0  0  0  0  0  0  0  0  0  0  0  0
    1.3089   -3.9286   -3.0929 C   0  0  0  0  0  0  0  0  0  0  0  0
    2.0700   -1.7475    0.1185 C   0  0  0  0  0  0  0  0  0  0  0  0
    2.9268   -2.1741   -2.5559 C   0  0  1  0  0  0  0  0  0  0  0  0
    0.5172   -4.3235   -1.8007 C   0  0  0  0  0  0  0  0  0  0  0  0
    2.4868   -3.8121    1.4896 C   0  0  0  0  0  0  0  0  0  0  0  0
    4.2923   -2.9398   -2.4790 C   0  0  0  0  0  0  0  0  0  0  0  0
    4.3404   -1.0293    1.7403 C   0  0  3  0  0  0  0  0  0  0  0  0
    0.5704   -2.5508    2.2705 C   0  0  0  0  0  0  0  0  0  0  0  0
    6.6415   -1.0366    0.9318 C   0  0  0  0  0  0  0  0  0  0  0  0
    6.9532   -2.4920    1.2079 C   0  0  0  0  0  0  0  0  0  0  0  0
    8.1403   -2.9541    1.7669 C   0  0  0  0  0  0  0  0  0  0  0  0
    5.9918   -3.4474    0.9044 C   0  0  0  0  0  0  0  0  0  0  0  0
   -0.4743   -3.4177    2.8493 C   0  0  0  0  0  0  0  0  0  0  0  0
    8.3052   -4.3257    2.0688 C   0  0  0  0  0  0  0  0  0  0  0  0
    6.1094   -4.7893    1.2371 C   0  0  0  0  0  0  0  0  0  0  0  0
    7.2742   -5.2377    1.8126 C   0  0  0  0  0  0  0  0  0  0  0  0
    0.4096   -4.7438    0.1308 H   0  0  0  0  0  0  0  0  0  0  0  0
    2.2920   -3.2138    3.3964 H   0  0  0  0  0  0  0  0  0  0  0  0
    2.4270   -0.2327   -1.9518 H   0  0  0  0  0  0  0  0  0  0  0  0
    3.9707   -0.4882   -2.1156 H   0  0  0  0  0  0  0  0  0  0  0  0
    4.2203   -4.4680   -0.8725 H   0  0  0  0  0  0  0  0  0  0  0  0
    3.0991    0.3248    1.9855 H   0  0  0  0  0  0  0  0  0  0  0  0
   -1.0192   -1.7767    3.7345 H   0  0  0  0  0  0  0  0  0  0  0  0
    2.7827   -3.8418   -0.5176 H   0  0  0  0  0  0  0  0  0  0  0  0
    1.9052   -2.2064   -4.3740 H   0  0  0  0  0  0  0  0  0  0  0  0
    0.8416   -1.8521   -3.0062 H   0  0  0  0  0  0  0  0  0  0  0  0
    2.1993   -4.5589   -3.1747 H   0  0  0  0  0  0  0  0  0  0  0  0
    0.6651   -4.1894   -3.9429 H   0  0  0  0  0  0  0  0  0  0  0  0
    1.5258   -1.2106    0.8740 H   0  0  0  0  0  0  0  0  0  0  0  0
    1.4385   -1.4030   -0.7076 H   0  0  0  0  0  0  0  0  0  0  0  0
    2.4990   -2.4780   -1.6649 H   0  0  0  0  0  0  0  0  0  0  0  0
    4.3584   -2.0635    2.0653 H   0  0  0  0  0  0  0  0  0  0  0  0
    0.6002   -1.5110    2.5974 H   0  0  0  0  0  0  0  0  0  0  0  0
    0.2376   -2.5485    1.2250 H   0  0  0  0  0  0  0  0  0  0  0  0
    6.3555   -0.9066   -0.1230 H   0  0  0  0  0  0  0  0  0  0  0  0
    7.5433   -0.4268    1.0497 H   0  0  0  0  0  0  0  0  0  0  0  0
    8.9489   -2.2537    1.9586 H   0  0  0  0  0  0  0  0  0  0  0  0
    5.0912   -3.1195    0.4218 H   0  0  0  0  0  0  0  0  0  0  0  0
    9.2408   -4.6642    2.5009 H   0  0  0  0  0  0  0  0  0  0  0  0
    5.2887   -5.4777    1.0612 H   0  0  0  0  0  0  0  0  0  0  0  0
  1 19  1  0  0  0  0
  1 24  1  0  0  0  0
  2 24  1  0  0  0  0
  2 26  1  0  0  0  0
  3 21  2  0  0  0  0
  4 22  2  0  0  0  0
  5 23  1  0  0  0  0
  5 38  1  0  0  0  0
  6 24  1  0  0  0  0
  6 39  1  0  0  0  0
  7 23  2  0  0  0  0
  8 30  1  0  0  0  0
  8 40  1  0  0  0  0
  9 30  2  0  0  0  0
 10 15  1  0  0  0  0
 11 15  2  0  0  0  0
 12 21  1  0  0  0  0
 12 34  1  0  0  0  0
 13 22  1  0  0  0  0
 13 25  1  0  0  0  0
 13 35  1  0  0  0  0
 14 36  1  0  0  0  0
 14 37  1  0  0  0  0
 15 33  1  0  0  0  0
 16 22  1  0  0  0  0
 16 41  1  6  0  0  0
 16 19  1  0  0  0  0
 16 12  1  0  0  0  0
 17 18  1  0  0  0  0
 17 42  1  0  0  0  0
 17 43  1  0  0  0  0
 18 21  1  0  0  0  0
 18 44  1  0  0  0  0
 18 45  1  0  0  0  0
 19 46  1  0  0  0  0
 19 47  1  0  0  0  0
 20 23  1  0  0  0  0
 20 48  1  1  0  0  0
 20 17  1  0  0  0  0
 20 14  1  0  0  0  0
 24 49  1  0  0  0  0
 25 30  1  0  0  0  0
 25 50  1  0  0  0  0
 25 51  1  0  0  0  0
 26 27  1  0  0  0  0
 26 52  1  0  0  0  0
 26 53  1  0  0  0  0
 27 28  2  0  0  0  0
 27 29  1  0  0  0  0
 28 31  1  0  0  0  0
 28 54  1  0  0  0  0
 29 32  2  0  0  0  0
 29 55  1  0  0  0  0
 31 33  2  0  0  0  0
 31 56  1  0  0  0  0
 32 33  1  0  0  0  0
 32 57  1  0  0  0  0
M  CHG  2  10  -1  15   1
M  END
>  <DRUGBANK_ID>
DB03130

>  <SECONDARY_ACCESSION_NUMBERS>
EXPT01625

>  <COMMON_NAME>
S-P-Nitrobenzyloxycarbonylglutathione

$$$$
