
 OpenBabel10282417243D

257263  0  0  1  0  0  0  0  0999 V2000
   -0.8808   -0.4201   -2.2666 C   0  0  0  0  0  0  0  0  0  0  0  0
   -2.9050    0.2639   -4.3634 C   0  0  0  0  0  0  0  0  0  0  0  0
   -6.2495    2.0750   -6.0779 C   0  0  2  0  0  0  0  0  0  0  0  0
   -2.7998    1.5117   -3.5790 C   0  0  0  0  0  0  0  0  0  0  0  0
  -10.7041    3.4884   -8.5782 C   0  0  2  0  0  0  0  0  0  0  0  0
  -15.3061    4.7465  -10.6404 N   0  0  0  0  0  0  0  0  0  0  0  0
  -19.9355    6.0359  -12.5103 C   0  0  0  0  0  0  0  0  0  0  0  0
  -22.0016    6.6815  -13.8693 O   0  0  0  0  0  0  0  0  0  0  0  0
  -24.6173    7.3280  -14.1171 C   0  0  2  0  0  0  0  0  0  0  0  0
  -28.8171    8.0819  -15.3961 C   0  0  0  0  0  0  0  0  0  0  0  0
  -31.7759    7.2196  -15.8830 C   0  0  0  0  0  0  0  0  0  0  0  0
  -32.2859    6.5901  -14.6827 C   0  0  0  0  0  0  0  0  0  0  0  0
  -32.4112    5.2300  -14.8612 N   0  0  0  0  0  0  0  0  0  0  0  0
  -32.2509    4.9961  -16.2084 C   0  0  0  0  0  0  0  0  0  0  0  0
  -32.0561    6.1053  -16.8787 N   0  0  0  0  0  0  0  0  0  0  0  0
  -27.8300    9.0931  -15.3758 N   0  0  0  0  0  0  0  0  0  0  0  0
  -29.7263   10.7058  -14.6673 C   0  0  0  0  0  0  0  0  0  0  0  0
  -28.8180   10.0617  -14.1898 O   0  0  0  0  0  0  0  0  0  0  0  0
  -29.4359   12.2247  -14.3534 C   0  0  2  0  0  0  0  0  0  0  0  0
  -29.0398   13.6734  -14.1792 C   0  0  0  0  0  0  0  0  0  0  0  0
  -28.0087   13.8517  -13.2577 O   0  0  0  0  0  0  0  0  0  0  0  0
  -28.0997   12.2478  -13.7528 N   0  0  0  0  0  0  0  0  0  0  0  0
  -27.7732   12.5795  -12.3711 C   0  0  0  0  0  0  0  0  0  0  0  0
  -28.6789   12.2189  -11.6171 O   0  0  0  0  0  0  0  0  0  0  0  0
  -26.5461   12.9658  -11.7776 C   0  0  2  0  0  0  0  0  0  0  0  0
  -26.4945   12.2267  -10.4261 C   0  0  0  0  0  0  0  0  0  0  0  0
  -26.6505   13.2951   -9.3344 C   0  0  0  0  0  0  0  0  0  0  0  0
  -26.7989   14.6457  -10.0580 C   0  0  0  0  0  0  0  0  0  0  0  0
  -26.1496   14.4163  -11.4400 N   0  0  0  0  0  0  0  0  0  0  0  0
  -25.4149   15.5088  -12.0791 C   0  0  0  0  0  0  0  0  0  0  0  0
  -25.1661   16.3763  -11.1941 O   0  0  0  0  0  0  0  0  0  0  0  0
  -24.1335   15.2478  -12.8292 C   0  0  2  0  0  0  0  0  0  0  0  0
  -23.1106   14.4495  -12.7339 C   0  0  0  0  0  0  0  0  0  0  0  0
  -22.3475   14.5098  -11.4878 C   0  0  0  0  0  0  0  0  0  0  0  0
  -23.0738   13.7174  -10.4956 C   0  0  0  0  0  0  0  0  0  0  0  0
  -23.2037   12.2242  -10.7027 C   0  0  0  0  0  0  0  0  0  0  0  0
  -21.5045   11.4900  -10.8051 N   0  0  0  0  0  0  0  0  0  0  0  0
  -23.0782   16.0654  -12.2535 N   0  0  0  0  0  0  0  0  0  0  0  0
  -22.3335   17.0245  -13.0343 C   0  0  0  0  0  0  0  0  0  0  0  0
  -23.1505   17.8381  -13.4679 O   0  0  0  0  0  0  0  0  0  0  0  0
  -21.4408   17.9905  -12.4045 C   0  0  2  0  0  0  0  0  0  0  0  0
  -21.4250   19.3462  -12.4691 C   0  0  0  0  0  0  0  0  0  0  0  0
  -20.6062   19.8445  -13.6681 C   0  0  0  0  0  0  0  0  0  0  0  0
  -19.8938   18.6207  -14.2790 C   0  0  0  0  0  0  0  0  0  0  0  0
  -19.6248   17.6305  -13.3323 N   0  0  0  0  0  0  0  0  0  0  0  0
  -18.6872   16.7029  -12.7965 C   0  0  0  0  0  0  0  0  0  0  0  0
  -17.7100   17.0495  -13.4675 O   0  0  0  0  0  0  0  0  0  0  0  0
  -18.2610   16.4960  -11.3562 C   0  0  2  0  0  0  0  0  0  0  0  0
  -19.6717   16.6352  -10.8328 C   0  0  0  0  0  0  0  0  0  0  0  0
  -20.5619   16.6209  -12.0077 C   0  0  0  0  0  0  0  0  0  0  0  0
  -20.5227   15.5322  -12.9083 C   0  0  0  0  0  0  0  0  0  0  0  0
  -20.6964   14.3997  -12.3159 N   0  0  0  0  0  0  0  0  0  0  0  0
  -21.8646   13.3984  -12.5973 C   0  0  0  0  0  0  0  0  0  0  0  0
  -22.2778   12.3658  -11.9460 N   0  0  0  0  0  0  0  0  0  0  0  0
  -22.5672   13.6986  -13.9777 N   0  0  0  0  0  0  0  0  0  0  0  0
  -16.8427   16.8620  -11.2483 N   0  0  0  0  0  0  0  0  0  0  0  0
  -15.8539   15.8620  -10.8172 C   0  0  0  0  0  0  0  0  0  0  0  0
  -15.9337   14.8803  -11.6030 O   0  0  0  0  0  0  0  0  0  0  0  0
  -14.3876   16.2401  -10.6925 C   0  0  2  0  0  0  0  0  0  0  0  0
  -14.6904   17.6930  -10.3756 C   0  0  0  0  0  0  0  0  0  0  0  0
  -15.5140   17.8278   -9.1035 C   0  0  0  0  0  0  0  0  0  0  0  0
  -15.7734   16.8893   -8.1656 C   0  0  0  0  0  0  0  0  0  0  0  0
  -16.3868   17.4843   -7.0369 N   0  0  0  0  0  0  0  0  0  0  0  0
  -16.5530   18.8491   -7.3308 C   0  0  0  0  0  0  0  0  0  0  0  0
  -16.0113   19.0704   -8.6009 C   0  0  0  0  0  0  0  0  0  0  0  0
  -16.0826   20.3377   -9.1739 C   0  0  0  0  0  0  0  0  0  0  0  0
  -16.7096   21.3359   -8.4973 C   0  0  0  0  0  0  0  0  0  0  0  0
  -17.2606   21.1110   -7.2508 C   0  0  0  0  0  0  0  0  0  0  0  0
  -17.1879   19.8682   -6.6310 C   0  0  0  0  0  0  0  0  0  0  0  0
  -13.5898   15.3782  -11.5792 N   0  0  0  0  0  0  0  0  0  0  0  0
  -12.5534   14.5043  -11.0151 C   0  0  0  0  0  0  0  0  0  0  0  0
  -13.1026   13.7617  -10.1542 O   0  0  0  0  0  0  0  0  0  0  0  0
  -11.7208   13.6182  -11.9256 C   0  0  2  0  0  0  0  0  0  0  0  0
  -11.7435   14.4558  -13.1916 C   0  0  0  0  0  0  0  0  0  0  0  0
  -11.2480   13.6343  -14.3617 C   0  0  0  0  0  0  0  0  0  0  0  0
  -12.1469   12.4254  -14.5482 C   0  0  0  0  0  0  0  0  0  0  0  0
  -13.5253   12.8675  -14.8188 N   0  0  0  0  0  0  0  0  0  0  0  0
  -14.1879   12.4948  -16.0685 C   0  0  0  0  0  0  0  0  0  0  0  0
  -15.5521   12.9384  -16.3293 N   0  0  0  0  0  0  0  0  0  0  0  0
  -13.5497   11.7602  -16.9524 N   0  0  0  0  0  0  0  0  0  0  0  0
  -11.9009   12.2110  -11.5286 N   0  0  0  0  0  0  0  0  0  0  0  0
  -10.7452   11.4202  -11.0886 C   0  0  0  0  0  0  0  0  0  0  0  0
  -10.2136   12.0255  -10.1172 O   0  0  0  0  0  0  0  0  0  0  0  0
  -10.9237    9.9686  -10.6945 C   0  0  2  0  0  0  0  0  0  0  0  0
  -11.9666    9.5855  -11.7209 C   0  0  0  0  0  0  0  0  0  0  0  0
  -11.6823    8.1779  -12.2100 C   0  0  0  0  0  0  0  0  0  0  0  0
  -11.7806    7.2110  -11.0437 C   0  0  0  0  0  0  0  0  0  0  0  0
  -12.6905    7.7930  -13.2738 C   0  0  0  0  0  0  0  0  0  0  0  0
  -10.2901    9.8337   -9.4475 N   0  0  0  0  0  0  0  0  0  0  0  0
   -9.3565    8.8726   -8.9922 C   0  0  0  0  0  0  0  0  0  0  0  0
   -8.3695    9.2362   -9.6638 O   0  0  0  0  0  0  0  0  0  0  0  0
   -8.9176    8.6841   -7.5538 C   0  0  1  0  0  0  0  0  0  0  0  0
   -7.4997    9.0479   -7.4442 N   0  0  0  0  0  0  0  0  0  0  0  0
   -6.5105    8.0482   -7.0130 C   0  0  0  0  0  0  0  0  0  0  0  0
   -6.5907    7.0664   -7.7981 O   0  0  0  0  0  0  0  0  0  0  0  0
   -5.0442    8.4264   -6.8878 C   0  0  2  0  0  0  0  0  0  0  0  0
   -5.3475    9.8909   -6.6290 C   0  0  0  0  0  0  0  0  0  0  0  0
   -6.1846   10.1040   -5.3760 C   0  0  0  0  0  0  0  0  0  0  0  0
   -6.6289   11.3834   -5.1173 C   0  0  0  0  0  0  0  0  0  0  0  0
   -7.2780   11.6907   -3.9198 C   0  0  0  0  0  0  0  0  0  0  0  0
   -7.4826   10.6513   -2.9979 C   0  0  0  0  0  0  0  0  0  0  0  0
   -8.1245   10.8526   -1.8207 O   0  0  0  0  0  0  0  0  0  0  0  0
   -7.0138    9.3811   -3.2526 C   0  0  0  0  0  0  0  0  0  0  0  0
   -6.3753    9.1076   -4.4446 C   0  0  0  0  0  0  0  0  0  0  0  0
   -4.2453    7.5640   -7.7762 N   0  0  0  0  0  0  0  0  0  0  0  0
   -3.2108    6.6916   -7.2118 C   0  0  0  0  0  0  0  0  0  0  0  0
   -3.7596    5.9485   -6.3497 O   0  0  0  0  0  0  0  0  0  0  0  0
   -2.3767    5.8048   -8.1212 C   0  0  2  0  0  0  0  0  0  0  0  0
   -2.3012    6.4716   -9.4825 C   0  0  0  0  0  0  0  0  0  0  0  0
   -1.5429    5.5782  -10.4445 C   0  0  0  0  0  0  0  0  0  0  0  0
   -2.2692    4.2527  -10.5832 C   0  0  0  0  0  0  0  0  0  0  0  0
   -3.6699    4.4931  -11.1160 C   0  0  0  0  0  0  0  0  0  0  0  0
   -3.5910    5.1432  -12.4289 N   0  0  0  0  0  0  0  0  0  0  0  0
   -2.5565    4.3984   -7.7245 N   0  0  0  0  0  0  0  0  0  0  0  0
   -1.4025    3.6163   -7.2872 C   0  0  0  0  0  0  0  0  0  0  0  0
   -0.8701    4.2090   -6.3121 O   0  0  0  0  0  0  0  0  0  0  0  0
   -1.5892    2.2657   -7.0947 C   0  0  2  0  0  0  0  0  0  0  0  0
   -2.3886    1.4892   -8.0008 C   0  0  0  0  0  0  0  0  0  0  0  0
   -1.8458    0.1882   -8.1631 O   0  0  0  0  0  0  0  0  0  0  0  0
   -3.6253    2.3434   -6.3689 N   0  0  0  0  0  0  0  0  0  0  0  0
   -6.6476    2.7529   -7.4739 C   0  0  0  0  0  0  0  0  0  0  0  0
   -4.2250    2.2208   -6.8250 O   0  0  0  0  0  0  0  0  0  0  0  0
  -10.3587    8.7291   -7.0751 C   0  0  1  0  0  0  0  0  0  0  0  0
  -11.3082    8.8811   -8.2383 C   0  0  0  0  0  0  0  0  0  0  0  0
  -10.7059    7.4242   -6.3816 C   0  0  0  0  0  0  0  0  0  0  0  0
   -9.7926    7.2285   -5.1867 C   0  0  0  0  0  0  0  0  0  0  0  0
   -0.5529   -0.2195   -1.1277 H   0  0  0  0  0  0  0  0  0  0  0  0
   -1.6455   -1.0030   -2.1251 H   0  0  0  0  0  0  0  0  0  0  0  0
   -0.8127    0.2943   -2.8302 H   0  0  0  0  0  0  0  0  0  0  0  0
   -0.7376   -1.1569   -2.8762 H   0  0  0  0  0  0  0  0  0  0  0  0
   -0.4863   -1.1843   -3.7282 H   0  0  0  0  0  0  0  0  0  0  0  0
   -3.6268    1.4469   -5.0556 H   0  0  0  0  0  0  0  0  0  0  0  0
   -0.3273    1.7100   -2.0155 H   0  0  0  0  0  0  0  0  0  0  0  0
   -1.0022    0.9357   -1.5054 H   0  0  0  0  0  0  0  0  0  0  0  0
   -0.4691    0.8719   -1.7909 H   0  0  0  0  0  0  0  0  0  0  0  0
   -8.1950    2.9348   -7.7512 H   0  0  0  0  0  0  0  0  0  0  0  0
  -17.5032    5.1562  -12.1502 H   0  0  0  0  0  0  0  0  0  0  0  0
  -27.6721    7.8536  -14.9717 H   0  0  0  0  0  0  0  0  0  0  0  0
  -31.6538    8.9536  -15.4827 H   0  0  0  0  0  0  0  0  0  0  0  0
  -31.4937    8.6600  -16.7389 H   0  0  0  0  0  0  0  0  0  0  0  0
  -32.3387    7.1229  -13.7558 H   0  0  0  0  0  0  0  0  0  0  0  0
  -32.5878    4.5327  -14.1379 H   0  0  0  0  0  0  0  0  0  0  0  0
  -32.2799    4.0225  -16.6560 H   0  0  0  0  0  0  0  0  0  0  0  0
  -29.6823   10.6502  -16.5357 H   0  0  0  0  0  0  0  0  0  0  0  0
  -30.2643   12.8320  -14.6616 H   0  0  0  0  0  0  0  0  0  0  0  0
  -28.6759   14.0576  -15.1060 H   0  0  0  0  0  0  0  0  0  0  0  0
  -29.8616   14.2670  -13.8341 H   0  0  0  0  0  0  0  0  0  0  0  0
  -28.4927   13.5729  -12.3193 H   0  0  0  0  0  0  0  0  0  0  0  0
  -27.2936   11.9297  -14.2480 H   0  0  0  0  0  0  0  0  0  0  0  0
  -25.9152   12.5203  -12.5111 H   0  0  0  0  0  0  0  0  0  0  0  0
  -27.1965   11.4212  -10.5156 H   0  0  0  0  0  0  0  0  0  0  0  0
  -25.5803   11.7391  -10.1415 H   0  0  0  0  0  0  0  0  0  0  0  0
  -27.3841   13.4144   -8.5619 H   0  0  0  0  0  0  0  0  0  0  0  0
  -25.8092   12.9385   -8.7653 H   0  0  0  0  0  0  0  0  0  0  0  0
  -27.5716   15.3913   -9.9693 H   0  0  0  0  0  0  0  0  0  0  0  0
  -26.4089   15.3436   -9.3437 H   0  0  0  0  0  0  0  0  0  0  0  0
  -24.6355   15.0221  -13.7435 H   0  0  0  0  0  0  0  0  0  0  0  0
  -23.0757   13.0800  -13.0116 H   0  0  0  0  0  0  0  0  0  0  0  0
  -22.4013   14.9179  -13.6591 H   0  0  0  0  0  0  0  0  0  0  0  0
  -21.4584   14.0582  -11.3788 H   0  0  0  0  0  0  0  0  0  0  0  0
  -22.1387   15.4080  -11.3228 H   0  0  0  0  0  0  0  0  0  0  0  0
  -22.6024   13.8600   -9.5539 H   0  0  0  0  0  0  0  0  0  0  0  0
  -24.0765   14.0645  -10.4723 H   0  0  0  0  0  0  0  0  0  0  0  0
  -23.6080   11.6800  -10.0906 H   0  0  0  0  0  0  0  0  0  0  0  0
  -23.7100   12.2008  -11.7091 H   0  0  0  0  0  0  0  0  0  0  0  0
  -21.6709   10.7233  -11.1384 H   0  0  0  0  0  0  0  0  0  0  0  0
  -21.1250   12.2465  -11.6262 H   0  0  0  0  0  0  0  0  0  0  0  0
  -22.9500   15.9977  -11.2075 H   0  0  0  0  0  0  0  0  0  0  0  0
  -21.1382   17.6143  -11.2840 H   0  0  0  0  0  0  0  0  0  0  0  0
  -22.2434   19.9936  -12.2564 H   0  0  0  0  0  0  0  0  0  0  0  0
  -21.2728   19.4127  -11.4102 H   0  0  0  0  0  0  0  0  0  0  0  0
  -20.9861   20.7591  -14.0948 H   0  0  0  0  0  0  0  0  0  0  0  0
  -19.7217   20.4458  -13.6619 H   0  0  0  0  0  0  0  0  0  0  0  0
  -20.1165   18.8601  -15.2977 H   0  0  0  0  0  0  0  0  0  0  0  0
  -19.0098   18.0954  -14.5631 H   0  0  0  0  0  0  0  0  0  0  0  0
  -17.8761   15.8461  -10.5986 H   0  0  0  0  0  0  0  0  0  0  0  0
  -19.9436   15.7706  -10.2676 H   0  0  0  0  0  0  0  0  0  0  0  0
  -19.7554   17.5096  -10.2196 H   0  0  0  0  0  0  0  0  0  0  0  0
  -21.6837   16.7613  -11.6570 H   0  0  0  0  0  0  0  0  0  0  0  0
  -20.3276   17.5663  -12.3970 H   0  0  0  0  0  0  0  0  0  0  0  0
  -21.1879   15.6349  -13.7334 H   0  0  0  0  0  0  0  0  0  0  0  0
  -19.5327   15.4250  -13.2657 H   0  0  0  0  0  0  0  0  0  0  0  0
  -20.3156   14.1075  -11.2838 H   0  0  0  0  0  0  0  0  0  0  0  0
  -23.0186   11.5974  -12.1390 H   0  0  0  0  0  0  0  0  0  0  0  0
  -21.9254   12.3039  -10.9152 H   0  0  0  0  0  0  0  0  0  0  0  0
  -23.5287   13.2381  -13.9490 H   0  0  0  0  0  0  0  0  0  0  0  0
  -16.5425   17.8007  -11.5000 H   0  0  0  0  0  0  0  0  0  0  0  0
  -13.5381   16.0799  -10.0631 H   0  0  0  0  0  0  0  0  0  0  0  0
  -13.7667   18.2166  -10.2544 H   0  0  0  0  0  0  0  0  0  0  0  0
  -15.2296   18.1221  -11.1955 H   0  0  0  0  0  0  0  0  0  0  0  0
  -15.5421   15.8476   -8.2645 H   0  0  0  0  0  0  0  0  0  0  0  0
  -16.6596   17.0118   -6.1715 H   0  0  0  0  0  0  0  0  0  0  0  0
  -15.6522   20.5246  -10.1361 H   0  0  0  0  0  0  0  0  0  0  0  0
  -16.7756   22.3088   -8.9386 H   0  0  0  0  0  0  0  0  0  0  0  0
  -17.7571   21.9173   -6.7487 H   0  0  0  0  0  0  0  0  0  0  0  0
  -17.6049   19.7036   -5.6581 H   0  0  0  0  0  0  0  0  0  0  0  0
  -13.7809   15.3659  -12.5775 H   0  0  0  0  0  0  0  0  0  0  0  0
  -10.6940   13.3290  -11.9910 H   0  0  0  0  0  0  0  0  0  0  0  0
  -12.7430   14.7855  -13.3872 H   0  0  0  0  0  0  0  0  0  0  0  0
  -11.1112   15.3167  -13.0590 H   0  0  0  0  0  0  0  0  0  0  0  0
  -11.2622   14.2313  -15.2528 H   0  0  0  0  0  0  0  0  0  0  0  0
  -10.2426   13.3095  -14.1697 H   0  0  0  0  0  0  0  0  0  0  0  0
  -11.7919   11.8395  -15.3737 H   0  0  0  0  0  0  0  0  0  0  0  0
  -12.1285   11.8265  -13.6592 H   0  0  0  0  0  0  0  0  0  0  0  0
  -14.0130   13.4379  -14.1255 H   0  0  0  0  0  0  0  0  0  0  0  0
  -16.0216   12.6801  -17.2032 H   0  0  0  0  0  0  0  0  0  0  0  0
  -16.0528   13.5094  -15.6460 H   0  0  0  0  0  0  0  0  0  0  0  0
  -14.0131   11.4999  -17.8252 H   0  0  0  0  0  0  0  0  0  0  0  0
  -12.8313   11.7956  -11.5324 H   0  0  0  0  0  0  0  0  0  0  0  0
  -10.4906    8.9916  -10.6714 H   0  0  0  0  0  0  0  0  0  0  0  0
  -12.9551    9.6318  -11.3104 H   0  0  0  0  0  0  0  0  0  0  0  0
  -11.8971   10.2692  -12.5498 H   0  0  0  0  0  0  0  0  0  0  0  0
  -10.6915    8.1372  -12.6237 H   0  0  0  0  0  0  0  0  0  0  0  0
  -12.7676    7.2524  -10.6264 H   0  0  0  0  0  0  0  0  0  0  0  0
  -11.5769    6.2159  -11.3821 H   0  0  0  0  0  0  0  0  0  0  0  0
  -11.0667    7.4773  -10.2946 H   0  0  0  0  0  0  0  0  0  0  0  0
  -12.6215    8.4742  -14.0992 H   0  0  0  0  0  0  0  0  0  0  0  0
  -12.4894    6.7971  -13.6170 H   0  0  0  0  0  0  0  0  0  0  0  0
  -13.6801    7.8336  -12.8615 H   0  0  0  0  0  0  0  0  0  0  0  0
  -10.8381   10.5256   -8.4904 H   0  0  0  0  0  0  0  0  0  0  0  0
   -8.5064    8.1182   -6.7465 H   0  0  0  0  0  0  0  0  0  0  0  0
   -7.2000    9.9871   -7.6951 H   0  0  0  0  0  0  0  0  0  0  0  0
   -4.2193    8.2614   -6.2277 H   0  0  0  0  0  0  0  0  0  0  0  0
   -4.4206   10.4111   -6.5276 H   0  0  0  0  0  0  0  0  0  0  0  0
   -5.8737   10.2759   -7.4786 H   0  0  0  0  0  0  0  0  0  0  0  0
   -6.4682   12.1509   -5.8479 H   0  0  0  0  0  0  0  0  0  0  0  0
   -7.6087   12.6909   -3.7120 H   0  0  0  0  0  0  0  0  0  0  0  0
   -8.4773   11.7559   -1.6016 H   0  0  0  0  0  0  0  0  0  0  0  0
   -7.1435    8.6056   -2.5249 H   0  0  0  0  0  0  0  0  0  0  0  0
   -6.0237    8.1153   -4.6466 H   0  0  0  0  0  0  0  0  0  0  0  0
   -4.4342    7.5504   -8.7752 H   0  0  0  0  0  0  0  0  0  0  0  0
   -1.3181    5.6682   -8.0823 H   0  0  0  0  0  0  0  0  0  0  0  0
   -3.2892    6.6478   -9.8579 H   0  0  0  0  0  0  0  0  0  0  0  0
   -1.7889    7.4127   -9.3863 H   0  0  0  0  0  0  0  0  0  0  0  0
   -1.4811    6.0538  -11.4039 H   0  0  0  0  0  0  0  0  0  0  0  0
   -0.5519    5.4078  -10.0703 H   0  0  0  0  0  0  0  0  0  0  0  0
   -1.7325    3.6178  -11.2603 H   0  0  0  0  0  0  0  0  0  0  0  0
   -2.3273    3.7755   -9.6260 H   0  0  0  0  0  0  0  0  0  0  0  0
   -4.1840    3.5568  -11.2096 H   0  0  0  0  0  0  0  0  0  0  0  0
   -4.2083    5.1246  -10.4350 H   0  0  0  0  0  0  0  0  0  0  0  0
   -4.5314    5.3074  -12.7865 H   0  0  0  0  0  0  0  0  0  0  0  0
   -3.1037    6.0354  -12.3389 H   0  0  0  0  0  0  0  0  0  0  0  0
   -3.4870    3.9809   -7.7270 H   0  0  0  0  0  0  0  0  0  0  0  0
   -1.2994    1.0811   -6.7936 H   0  0  0  0  0  0  0  0  0  0  0  0
   -3.4372    1.3986   -7.7885 H   0  0  0  0  0  0  0  0  0  0  0  0
   -2.2563    2.0586   -8.8800 H   0  0  0  0  0  0  0  0  0  0  0  0
   -0.8722    0.2675   -8.3545 H   0  0  0  0  0  0  0  0  0  0  0  0
   -1.7499    2.4920   -4.9001 H   0  0  0  0  0  0  0  0  0  0  0  0
  -10.4891    9.5443   -6.3961 H   0  0  0  0  0  0  0  0  0  0  0  0
  -11.1558    8.1043   -8.9531 H   0  0  0  0  0  0  0  0  0  0  0  0
  -12.2990    8.9521   -7.9439 H   0  0  0  0  0  0  0  0  0  0  0  0
  -11.2829    9.6498   -8.6948 H   0  0  0  0  0  0  0  0  0  0  0  0
  -11.7260    7.4540   -6.0511 H   0  0  0  0  0  0  0  0  0  0  0  0
  -10.5794    6.6074   -7.0667 H   0  0  0  0  0  0  0  0  0  0  0  0
   -9.9180    8.0443   -4.5020 H   0  0  0  0  0  0  0  0  0  0  0  0
  -10.0341    6.3087   -4.6943 H   0  0  0  0  0  0  0  0  0  0  0  0
   -8.7722    7.1950   -5.5139 H   0  0  0  0  0  0  0  0  0  0  0  0
  1  2  1  0  0  0  0
  1127  1  0  0  0  0
  1128  1  0  0  0  0
  1129  1  0  0  0  0
  2130  1  0  0  0  0
  2131  1  0  0  0  0
  3132  1  6  0  0  0
  3  5  1  0  0  0  0
  3  4  1  0  0  0  0
  3  2  1  0  0  0  0
  4133  1  0  0  0  0
  4134  1  0  0  0  0
  4135  1  0  0  0  0
  5  6  1  0  0  0  0
  5121  1  0  0  0  0
  5136  1  1  0  0  0
  6  7  1  0  0  0  0
  6137  1  0  0  0  0
  7  8  2  0  0  0  0
  9  7  1  0  0  0  0
  9 16  1  0  0  0  0
  9 10  1  0  0  0  0
  9138  1  1  0  0  0
 10 11  1  0  0  0  0
 10139  1  0  0  0  0
 10140  1  0  0  0  0
 11 12  2  0  0  0  0
 11 15  1  0  0  0  0
 12 13  1  0  0  0  0
 12141  1  0  0  0  0
 13 14  1  0  0  0  0
 13142  1  0  0  0  0
 14 15  2  0  0  0  0
 14143  1  0  0  0  0
 16 17  1  0  0  0  0
 16144  1  0  0  0  0
 17 18  2  0  0  0  0
 19 17  1  0  0  0  0
 19 22  1  0  0  0  0
 19145  1  1  0  0  0
 19 20  1  0  0  0  0
 20 21  1  0  0  0  0
 20146  1  0  0  0  0
 20147  1  0  0  0  0
 21148  1  0  0  0  0
 22 23  1  0  0  0  0
 22149  1  0  0  0  0
 23 24  2  0  0  0  0
 25 23  1  0  0  0  0
 25 26  1  0  0  0  0
 25 29  1  0  0  0  0
 25150  1  6  0  0  0
 26 27  1  0  0  0  0
 26151  1  0  0  0  0
 26152  1  0  0  0  0
 27 28  1  0  0  0  0
 27153  1  0  0  0  0
 27154  1  0  0  0  0
 28 29  1  0  0  0  0
 28155  1  0  0  0  0
 28156  1  0  0  0  0
 29 30  1  0  0  0  0
 30 31  2  0  0  0  0
 32 30  1  0  0  0  0
 32 38  1  0  0  0  0
 32157  1  6  0  0  0
 32 33  1  0  0  0  0
 33 34  1  0  0  0  0
 33158  1  0  0  0  0
 33159  1  0  0  0  0
 34 35  1  0  0  0  0
 34160  1  0  0  0  0
 34161  1  0  0  0  0
 35 36  1  0  0  0  0
 35162  1  0  0  0  0
 35163  1  0  0  0  0
 36 37  1  0  0  0  0
 36164  1  0  0  0  0
 36165  1  0  0  0  0
 37166  1  0  0  0  0
 37167  1  0  0  0  0
 38 39  1  0  0  0  0
 38168  1  0  0  0  0
 39 40  2  0  0  0  0
 41 39  1  0  0  0  0
 41 42  1  0  0  0  0
 41 45  1  0  0  0  0
 41169  1  1  0  0  0
 42 43  1  0  0  0  0
 42170  1  0  0  0  0
 42171  1  0  0  0  0
 43 44  1  0  0  0  0
 43172  1  0  0  0  0
 43173  1  0  0  0  0
 44 45  1  0  0  0  0
 44174  1  0  0  0  0
 44175  1  0  0  0  0
 45 46  1  0  0  0  0
 46 47  2  0  0  0  0
 48 46  1  0  0  0  0
 48 56  1  0  0  0  0
 48 49  1  0  0  0  0
 48176  1  1  0  0  0
 49 50  1  0  0  0  0
 49177  1  0  0  0  0
 49178  1  0  0  0  0
 50 51  1  0  0  0  0
 50179  1  0  0  0  0
 50180  1  0  0  0  0
 51 52  1  0  0  0  0
 51181  1  0  0  0  0
 51182  1  0  0  0  0
 52 53  1  0  0  0  0
 52183  1  0  0  0  0
 53 54  1  0  0  0  0
 53 55  2  0  0  0  0
 54184  1  0  0  0  0
 54185  1  0  0  0  0
 55186  1  0  0  0  0
 56 57  1  0  0  0  0
 56187  1  0  0  0  0
 57 58  2  0  0  0  0
 59 57  1  0  0  0  0
 59 70  1  0  0  0  0
 59 60  1  0  0  0  0
 59188  1  1  0  0  0
 60 61  1  0  0  0  0
 60189  1  0  0  0  0
 60190  1  0  0  0  0
 61 62  2  0  0  0  0
 61 65  1  0  0  0  0
 62 63  1  0  0  0  0
 62191  1  0  0  0  0
 63 64  1  0  0  0  0
 63192  1  0  0  0  0
 64 65  2  0  0  0  0
 64 69  1  0  0  0  0
 65 66  1  0  0  0  0
 66 67  2  0  0  0  0
 66193  1  0  0  0  0
 67 68  1  0  0  0  0
 67194  1  0  0  0  0
 68 69  2  0  0  0  0
 68195  1  0  0  0  0
 69196  1  0  0  0  0
 70 71  1  0  0  0  0
 70197  1  0  0  0  0
 71 72  2  0  0  0  0
 73 71  1  0  0  0  0
 73 81  1  0  0  0  0
 73 74  1  0  0  0  0
 73198  1  1  0  0  0
 74 75  1  0  0  0  0
 74199  1  0  0  0  0
 74200  1  0  0  0  0
 75 76  1  0  0  0  0
 75201  1  0  0  0  0
 75202  1  0  0  0  0
 76 77  1  0  0  0  0
 76203  1  0  0  0  0
 76204  1  0  0  0  0
 77 78  1  0  0  0  0
 77205  1  0  0  0  0
 78 79  1  0  0  0  0
 78 80  2  0  0  0  0
 79206  1  0  0  0  0
 79207  1  0  0  0  0
 80208  1  0  0  0  0
 81 82  1  0  0  0  0
 81209  1  0  0  0  0
 82 83  2  0  0  0  0
 84 82  1  0  0  0  0
 84 89  1  0  0  0  0
 84 85  1  0  0  0  0
 84210  1  6  0  0  0
 85 86  1  0  0  0  0
 85211  1  0  0  0  0
 85212  1  0  0  0  0
 86 87  1  0  0  0  0
 86 88  1  0  0  0  0
 86213  1  0  0  0  0
 87214  1  0  0  0  0
 87215  1  0  0  0  0
 87216  1  0  0  0  0
 88217  1  0  0  0  0
 88218  1  0  0  0  0
 88219  1  0  0  0  0
 89 90  1  0  0  0  0
 89220  1  0  0  0  0
 90 91  2  0  0  0  0
 92 90  1  0  0  0  0
 92 93  1  0  0  0  0
 92123  1  0  0  0  0
 92221  1  6  0  0  0
 93 94  1  0  0  0  0
 93222  1  0  0  0  0
 94 95  2  0  0  0  0
 96 94  1  0  0  0  0
 96105  1  0  0  0  0
 96 97  1  0  0  0  0
 96223  1  1  0  0  0
 97 98  1  0  0  0  0
 97224  1  0  0  0  0
 97225  1  0  0  0  0
 98 99  2  0  0  0  0
 98104  1  0  0  0  0
 99100  1  0  0  0  0
 99226  1  0  0  0  0
100101  2  0  0  0  0
100227  1  0  0  0  0
101102  1  0  0  0  0
101103  1  0  0  0  0
102228  1  0  0  0  0
103104  2  0  0  0  0
103229  1  0  0  0  0
104230  1  0  0  0  0
105106  1  0  0  0  0
105231  1  0  0  0  0
106107  2  0  0  0  0
108106  1  0  0  0  0
108114  1  0  0  0  0
108109  1  0  0  0  0
108232  1  1  0  0  0
109110  1  0  0  0  0
109233  1  0  0  0  0
109234  1  0  0  0  0
110111  1  0  0  0  0
110235  1  0  0  0  0
110236  1  0  0  0  0
111112  1  0  0  0  0
111237  1  0  0  0  0
111238  1  0  0  0  0
112113  1  0  0  0  0
112239  1  0  0  0  0
112240  1  0  0  0  0
113241  1  0  0  0  0
113242  1  0  0  0  0
114115  1  0  0  0  0
114243  1  0  0  0  0
115116  2  0  0  0  0
117115  1  0  0  0  0
117120  1  0  0  0  0
117118  1  0  0  0  0
117244  1  1  0  0  0
118119  1  0  0  0  0
118245  1  0  0  0  0
118246  1  0  0  0  0
119247  1  0  0  0  0
120121  1  0  0  0  0
120248  1  0  0  0  0
121122  2  0  0  0  0
123124  1  0  0  0  0
123125  1  0  0  0  0
123249  1  1  0  0  0
124250  1  0  0  0  0
124251  1  0  0  0  0
124252  1  0  0  0  0
125126  1  0  0  0  0
125253  1  0  0  0  0
125254  1  0  0  0  0
126255  1  0  0  0  0
126256  1  0  0  0  0
126257  1  0  0  0  0
M  END
>  <DRUGBANK_ID>
DB18169

>  <COMMON_NAME>
CP-12

>  <UNII>
SM5MFZ7FKP

>  <SYNONYMS>
CYCLIZED P12 (PEPTIDE BOND BETWEEN THE CARBOXY AND AMINO-TERMINAL ENDS OF THE LINEAR PEPTIDE PSHISKYILRWRPK); PROLYL-L-SERYL-L-HISTIDYL-L-ISOLEUCYL-L-SERYL-L-LYSYL-L-TYROSYL-L-ISOLEUCYL-L-LEUCYL- L-ARGINYL-L-TRYPTOPHANYL-L-ARGINYL-L-PROLYL-L-LYSYL), CYCLO (1-14)

$$$$
