E20
 OpenBabel10282417163D

 57 60  0  0  0  0  0  0  0  0999 V2000
    2.2861   -1.2683    0.0807 C   0  0  0  0  0  0  0  0  0  0  0  0
    2.8039    0.0647    0.0852 C   0  0  0  0  0  0  0  0  0  0  0  0
    1.9677    1.2343    0.0733 C   0  0  0  0  0  0  0  0  0  0  0  0
    0.6165    1.0926    0.0050 C   0  0  0  0  0  0  0  0  0  0  0  0
    0.2189   -0.2152   -0.0176 C   0  0  0  0  0  0  0  0  0  0  0  0
    0.9402   -1.4000    0.0657 C   0  0  0  0  0  0  0  0  0  0  0  0
   -1.0460   -0.1865   -0.5746 C   0  0  0  0  0  0  0  0  0  0  0  0
   -1.7750    1.1846   -0.3154 C   0  0  1  0  0  0  0  0  0  0  0  0
   -0.5216    2.0767   -0.1748 C   0  0  0  0  0  0  0  0  0  0  0  0
   -3.0051    1.5161   -1.2018 C   0  0  0  0  0  0  0  0  0  0  0  0
   -4.2442    0.4809   -1.1093 C   0  0  0  0  0  0  0  0  0  0  0  0
   -5.4060    0.4262   -0.1063 C   0  0  0  0  0  0  0  0  0  0  0  0
   -4.9651    0.2354    1.3370 C   0  0  0  0  0  0  0  0  0  0  0  0
   -4.1898   -0.9772    1.6384 N   0  0  0  0  0  0  0  0  0  0  0  0
   -3.1713   -1.1148    0.6171 C   0  0  0  0  0  0  0  0  0  0  0  0
   -3.6524   -0.8947   -0.8989 C   0  0  0  0  0  0  0  0  0  0  0  0
   -3.4982   -0.9581    2.9863 C   0  0  0  0  0  0  0  0  0  0  0  0
   -2.7404    0.3114    3.4053 C   0  0  0  0  0  0  0  0  0  0  0  0
   -3.4403    1.5228    3.5148 C   0  0  0  0  0  0  0  0  0  0  0  0
   -2.8205    2.7261    3.8112 C   0  0  0  0  0  0  0  0  0  0  0  0
   -1.5015    2.7145    4.2215 C   0  0  0  0  0  0  0  0  0  0  0  0
   -0.7922    1.5118    4.2299 C   0  0  0  0  0  0  0  0  0  0  0  0
   -1.3773    0.3295    3.7434 C   0  0  0  0  0  0  0  0  0  0  0  0
   -1.2772   -1.2764   -1.1237 O   0  0  0  0  0  0  0  0  0  0  0  0
    3.0938   -2.3688    0.0269 O   0  0  0  0  0  0  0  0  0  0  0  0
    2.5181   -3.6735   -0.0180 C   0  0  0  0  0  0  0  0  0  0  0  0
    4.1364    0.3931    0.0682 O   0  0  0  0  0  0  0  0  0  0  0  0
    5.0200   -0.7153    0.0724 C   0  0  0  0  0  0  0  0  0  0  0  0
   -2.2051    1.3296    0.6835 H   0  0  0  0  0  0  0  0  0  0  0  0
    2.3908    2.2297    0.0485 H   0  0  0  0  0  0  0  0  0  0  0  0
    0.4315   -2.3564   -0.0327 H   0  0  0  0  0  0  0  0  0  0  0  0
   -0.4207    2.7303   -1.0373 H   0  0  0  0  0  0  0  0  0  0  0  0
   -0.6100    2.6685    0.7476 H   0  0  0  0  0  0  0  0  0  0  0  0
   -3.3471    2.5515   -1.0693 H   0  0  0  0  0  0  0  0  0  0  0  0
   -2.6264    1.4645   -2.2348 H   0  0  0  0  0  0  0  0  0  0  0  0
   -4.7236    0.5636   -2.0965 H   0  0  0  0  0  0  0  0  0  0  0  0
   -6.0529    1.3003   -0.1872 H   0  0  0  0  0  0  0  0  0  0  0  0
   -6.0253   -0.4474   -0.3709 H   0  0  0  0  0  0  0  0  0  0  0  0
   -4.3702    1.1349    1.4566 H   0  0  0  0  0  0  0  0  0  0  0  0
   -5.8311    0.2523    2.0023 H   0  0  0  0  0  0  0  0  0  0  0  0
   -2.5310   -1.9912    0.7679 H   0  0  0  0  0  0  0  0  0  0  0  0
   -2.5164   -0.3418    0.9778 H   0  0  0  0  0  0  0  0  0  0  0  0
   -4.2561   -1.7432   -1.2025 H   0  0  0  0  0  0  0  0  0  0  0  0
   -2.9574   -0.8594   -1.7387 H   0  0  0  0  0  0  0  0  0  0  0  0
   -4.2421   -1.1798    3.7575 H   0  0  0  0  0  0  0  0  0  0  0  0
   -2.7906   -1.8043    3.0292 H   0  0  0  0  0  0  0  0  0  0  0  0
   -4.5068    1.5594    3.3278 H   0  0  0  0  0  0  0  0  0  0  0  0
   -3.3998    3.6429    3.7629 H   0  0  0  0  0  0  0  0  0  0  0  0
   -1.0437    3.6385    4.5603 H   0  0  0  0  0  0  0  0  0  0  0  0
    0.2176    1.4999    4.6343 H   0  0  0  0  0  0  0  0  0  0  0  0
   -0.7560   -0.5617    3.6661 H   0  0  0  0  0  0  0  0  0  0  0  0
    1.9067   -3.8701    0.8692 H   0  0  0  0  0  0  0  0  0  0  0  0
    1.9443   -3.8316   -0.9386 H   0  0  0  0  0  0  0  0  0  0  0  0
    3.3431   -4.3921   -0.0164 H   0  0  0  0  0  0  0  0  0  0  0  0
    4.8757   -1.3209    0.9759 H   0  0  0  0  0  0  0  0  0  0  0  0
    4.9112   -1.3006   -0.8496 H   0  0  0  0  0  0  0  0  0  0  0  0
    6.0374   -0.3360    0.0980 H   0  0  0  0  0  0  0  0  0  0  0  0
  1  2  2  0  0  0  0
  1  6  1  0  0  0  0
  1 25  1  0  0  0  0
  2  3  1  0  0  0  0
  2 27  1  0  0  0  0
  3  4  2  0  0  0  0
  3 30  1  0  0  0  0
  4  5  1  0  0  0  0
  4  9  1  0  0  0  0
  5  6  2  0  0  0  0
  5  7  1  0  0  0  0
  6 31  1  0  0  0  0
  7  8  1  0  0  0  0
  7 24  2  0  0  0  0
  8  9  1  0  0  0  0
  8 10  1  0  0  0  0
  8 29  1  1  0  0  0
  9 32  1  0  0  0  0
  9 33  1  0  0  0  0
 10 11  1  0  0  0  0
 10 34  1  0  0  0  0
 10 35  1  0  0  0  0
 11 12  1  0  0  0  0
 11 16  1  0  0  0  0
 11 36  1  0  0  0  0
 12 13  1  0  0  0  0
 12 37  1  0  0  0  0
 12 38  1  0  0  0  0
 13 14  1  0  0  0  0
 13 39  1  0  0  0  0
 13 40  1  0  0  0  0
 14 15  1  0  0  0  0
 14 17  1  0  0  0  0
 15 16  1  0  0  0  0
 15 41  1  0  0  0  0
 15 42  1  0  0  0  0
 16 43  1  0  0  0  0
 16 44  1  0  0  0  0
 17 18  1  0  0  0  0
 17 45  1  0  0  0  0
 17 46  1  0  0  0  0
 18 19  2  0  0  0  0
 18 23  1  0  0  0  0
 19 20  1  0  0  0  0
 19 47  1  0  0  0  0
 20 21  2  0  0  0  0
 20 48  1  0  0  0  0
 21 22  1  0  0  0  0
 21 49  1  0  0  0  0
 22 23  2  0  0  0  0
 22 50  1  0  0  0  0
 23 51  1  0  0  0  0
 25 26  1  0  0  0  0
 26 52  1  0  0  0  0
 26 53  1  0  0  0  0
 26 54  1  0  0  0  0
 27 28  1  0  0  0  0
 28 55  1  0  0  0  0
 28 56  1  0  0  0  0
 28 57  1  0  0  0  0
M  END
>  <DRUGBANK_ID>
DB07701

>  <COMMON_NAME>
1-BENZYL-4-[(5,6-DIMETHOXY-1-INDANON-2-YL)METHYL]PIPERIDINE

$$$$
