
 OpenBabel10282417133D

 27 28  0  0  1  0  0  0  0  0999 V2000
   -3.3275    3.0769    0.8479 C   0  0  0  0  0  0  0  0  0  0  0  0
   -2.3077    2.1242    1.4781 C   0  0  0  0  0  0  0  0  0  0  0  0
   -2.7592    1.1252    2.2045 C   0  0  0  0  0  0  0  0  0  0  0  0
   -0.7981    2.3818    1.1496 C   0  0  2  0  0  0  0  0  0  0  0  0
    0.3989    2.0526    2.1464 C   0  0  0  0  0  0  0  0  0  0  0  0
   -0.0628    2.4876    3.5155 C   0  0  0  0  0  0  0  0  0  0  0  0
   -0.0845    4.0037    3.5938 C   0  0  1  0  0  0  0  0  0  0  0  0
    0.7610    4.4452    4.8026 C   0  0  0  0  0  0  0  0  0  0  0  0
    0.5391    4.8668    2.6036 O   0  0  0  0  0  0  0  0  0  0  0  0
   -0.7142    4.6035    2.1319 C   0  0  1  0  0  0  0  0  0  0  0  0
   -0.5787    3.8582    0.7988 C   0  0  0  0  0  0  0  0  0  0  0  0
   -4.3581    2.7836    1.0782 H   0  0  0  0  0  0  0  0  0  0  0  0
   -3.2205    3.0809   -0.2394 H   0  0  0  0  0  0  0  0  0  0  0  0
   -3.2306    4.1036    1.2113 H   0  0  0  0  0  0  0  0  0  0  0  0
   -2.1056    0.3709    2.6567 H   0  0  0  0  0  0  0  0  0  0  0  0
   -3.8304    0.9913    2.4066 H   0  0  0  0  0  0  0  0  0  0  0  0
   -0.5845    1.7431    0.2818 H   0  0  0  0  0  0  0  0  0  0  0  0
    1.3078    2.6172    1.8535 H   0  0  0  0  0  0  0  0  0  0  0  0
    0.6943    1.0032    2.0889 H   0  0  0  0  0  0  0  0  0  0  0  0
    0.2895    2.0549    4.4612 H   0  0  0  0  0  0  0  0  0  0  0  0
   -1.0416    2.0317    3.5769 H   0  0  0  0  0  0  0  0  0  0  0  0
    1.8223    4.5101    4.5028 H   0  0  0  0  0  0  0  0  0  0  0  0
    0.4703    5.3936    5.2547 H   0  0  0  0  0  0  0  0  0  0  0  0
    0.7619    3.6903    5.6007 H   0  0  0  0  0  0  0  0  0  0  0  0
   -1.5851    5.2457    2.2275 H   0  0  0  0  0  0  0  0  0  0  0  0
   -1.2370    4.6431    0.3749 H   0  0  0  0  0  0  0  0  0  0  0  0
   -0.7159    3.6735   -0.2913 H   0  0  0  0  0  0  0  0  0  0  0  0
  1  2  1  0  0  0  0
  1 12  1  0  0  0  0
  1 13  1  0  0  0  0
  1 14  1  0  0  0  0
  2  3  2  0  0  0  0
  3 15  1  0  0  0  0
  3 16  1  0  0  0  0
  4  5  1  0  0  0  0
  4 11  1  0  0  0  0
  4  2  1  0  0  0  0
  4 17  1  6  0  0  0
  5  6  1  0  0  0  0
  5 18  1  0  0  0  0
  5 19  1  0  0  0  0
  6  7  1  0  0  0  0
  6 20  1  0  0  0  0
  6 21  1  0  0  0  0
  7  9  1  0  0  0  0
  7 10  1  0  0  0  0
  7  8  1  1  0  0  0
  8 22  1  0  0  0  0
  8 23  1  0  0  0  0
  8 24  1  0  0  0  0
 10  9  1  0  0  0  0
 10 11  1  0  0  0  0
 10 25  1  1  0  0  0
 11 26  1  0  0  0  0
 11 27  1  0  0  0  0
M  END
>  <DRUGBANK_ID>
DB02924

>  <SECONDARY_ACCESSION_NUMBERS>
EXPT02019

>  <COMMON_NAME>
(4R)-limonene 1α,2α-epoxide

>  <CAS_NUMBER>
6909-30-4

>  <UNII>
KBX06MQJ5Y

>  <SYNONYMS>
(+)-trans-limonene oxide; (1S,4R,6R)-4-isopropenyl-1-methyl-7-oxabicyclo[4.1.0]heptane; (4R)-limonene 1alpha,2alpha-epoxide; 1α,2α-epoxy-4βH-p-menth-8-ene; D-limonene 1,2-epoxide

$$$$
