
 OpenBabel10282417223D

120126  0  0  1  0  0  0  0  0999 V2000
   12.5190   -6.2255   -7.4278 C   0  0  0  0  0  0  0  0  0  0  0  0
   13.1016   -6.1089   -5.7804 C   0  0  0  0  0  0  0  0  0  0  0  0
   13.8388   -4.8857   -5.5056 C   0  0  0  0  0  0  0  0  0  0  0  0
   12.0900   -5.6478   -4.5313 O   0  0  0  0  0  0  0  0  0  0  0  0
   11.2529   -4.4853   -4.2750 C   0  0  0  0  0  0  0  0  0  0  0  0
   11.5184   -3.4232   -4.8468 O   0  0  0  0  0  0  0  0  0  0  0  0
    9.9621   -4.8785   -3.8089 N   0  0  0  0  0  0  0  0  0  0  0  0
    9.6306   -6.1192   -2.9800 C   0  0  2  0  0  0  0  0  0  0  0  0
    8.2100   -6.1630   -1.6093 C   0  0  1  0  0  0  0  0  0  0  0  0
    6.7828   -5.2090   -1.5782 O   0  0  0  0  0  0  0  0  0  0  0  0
    7.5555   -7.3073   -1.1070 C   0  0  0  0  0  0  0  0  0  0  0  0
    7.1473   -7.4280    0.0232 O   0  0  0  0  0  0  0  0  0  0  0  0
    7.4806   -8.1239   -2.1437 O   0  0  0  0  0  0  0  0  0  0  0  0
    7.0876   -7.6870   -3.9843 C   0  0  1  0  0  0  0  0  0  0  0  0
    7.5495   -6.1641   -3.8975 C   0  0  0  0  0  0  0  0  0  0  0  0
    6.4230   -5.2818   -4.1079 C   0  0  1  0  0  0  0  0  0  0  0  0
    5.4368   -5.0602   -3.0917 O   0  0  0  0  0  0  0  0  0  0  0  0
    6.3353   -4.8575   -5.5101 C   0  0  1  0  0  0  0  0  0  0  0  0
    6.7697   -3.6323   -6.0710 O   0  0  0  0  0  0  0  0  0  0  0  0
    7.8164   -3.6955   -6.8424 C   0  0  0  0  0  0  0  0  0  0  0  0
    8.1665   -2.8357   -7.6180 O   0  0  0  0  0  0  0  0  0  0  0  0
    8.7056   -4.7588   -6.6696 C   0  0  0  0  0  0  0  0  0  0  0  0
    8.6200   -6.0951   -6.6105 C   0  0  0  0  0  0  0  0  0  0  0  0
    9.6259   -6.8849   -5.9772 C   0  0  0  0  0  0  0  0  0  0  0  0
   10.8249   -6.6877   -5.8882 C   0  0  0  0  0  0  0  0  0  0  0  0
   10.7693   -5.3325   -6.2843 C   0  0  0  0  0  0  0  0  0  0  0  0
    9.8569   -4.2961   -6.3694 C   0  0  0  0  0  0  0  0  0  0  0  0
    5.7732   -6.3412   -6.6656 C   0  0  2  0  0  0  0  0  0  0  0  0
    5.0188   -5.1400   -7.3887 C   0  0  2  0  0  0  0  0  0  0  0  0
    3.5945   -5.2233   -7.8221 C   0  0  0  0  0  0  0  0  0  0  0  0
    4.6483   -5.7903   -9.0043 O   0  0  0  0  0  0  0  0  0  0  0  0
    4.5003   -6.8812   -8.0852 C   0  0  2  0  0  0  0  0  0  0  0  0
    5.2568   -8.1128   -8.9545 C   0  0  0  0  0  0  0  0  0  0  0  0
    5.1758   -9.4016   -8.2015 C   0  0  2  0  0  0  0  0  0  0  0  0
    4.4258   -9.8616   -7.1144 O   0  0  0  0  0  0  0  0  0  0  0  0
    6.1856   -8.4345   -7.3600 C   0  0  2  0  0  0  0  0  0  0  0  0
    7.4919   -9.7846   -8.0818 C   0  0  0  0  0  0  0  0  0  0  0  0
    6.4881  -10.3024   -6.7263 C   0  0  0  0  0  0  0  0  0  0  0  0
    6.3129  -11.5002   -7.2009 O   0  0  0  0  0  0  0  0  0  0  0  0
    7.3048   -9.7896   -5.0609 C   0  0  2  0  0  0  0  0  0  0  0  0
    7.4481  -11.0309   -4.0589 O   0  0  0  0  0  0  0  0  0  0  0  0
    7.4844  -10.4226   -2.9202 C   0  0  0  0  0  0  0  0  0  0  0  0
    8.3053  -10.3823   -2.0310 O   0  0  0  0  0  0  0  0  0  0  0  0
    6.5689   -9.3635   -3.2708 C   0  0  0  0  0  0  0  0  0  0  0  0
    5.4750   -7.8541   -2.5875 C   0  0  0  0  0  0  0  0  0  0  0  0
    4.6370   -7.1125   -4.0497 C   0  0  0  0  0  0  0  0  0  0  0  0
    4.9277   -7.8989   -5.3209 C   0  0  0  0  0  0  0  0  0  0  0  0
    5.3631   -9.2911   -4.8324 C   0  0  0  0  0  0  0  0  0  0  0  0
    7.5570   -7.6788   -4.7230 C   0  0  0  0  0  0  0  0  0  0  0  0
    7.9475   -8.7111   -5.3196 C   0  0  0  0  0  0  0  0  0  0  0  0
    9.2034   -9.2047   -5.7498 C   0  0  0  0  0  0  0  0  0  0  0  0
    7.7152   -5.5601   -3.5854 C   0  0  0  0  0  0  0  0  0  0  0  0
    7.9091   -3.5011   -3.3166 C   0  0  0  0  0  0  0  0  0  0  0  0
    8.4829   -4.2885   -2.0934 C   0  0  0  0  0  0  0  0  0  0  0  0
    4.8541   -3.4229   -6.8839 O   0  0  0  0  0  0  0  0  0  0  0  0
    5.1973   -2.1863   -7.7683 C   0  0  0  0  0  0  0  0  0  0  0  0
    4.9198   -2.5829   -9.1438 C   0  0  0  0  0  0  0  0  0  0  0  0
    5.4750   -1.0002   -7.5097 O   0  0  0  0  0  0  0  0  0  0  0  0
   10.6481   -6.7512   -2.3509 C   0  0  0  0  0  0  0  0  0  0  0  0
   10.4457   -7.7437   -1.4853 C   0  0  0  0  0  0  0  0  0  0  0  0
   11.6926   -8.0166   -0.9992 C   0  0  0  0  0  0  0  0  0  0  0  0
   12.7208   -7.3987   -1.6321 C   0  0  0  0  0  0  0  0  0  0  0  0
   12.1175   -6.0600   -2.2706 S   0  0  0  0  0  0  0  0  0  0  0  0
   11.9255   -5.3474   -7.8259 H   0  0  0  0  0  0  0  0  0  0  0  0
   11.8139   -7.0861   -7.6049 H   0  0  0  0  0  0  0  0  0  0  0  0
   13.3403   -6.2010   -8.0675 H   0  0  0  0  0  0  0  0  0  0  0  0
   13.4302   -7.1290   -5.5068 H   0  0  0  0  0  0  0  0  0  0  0  0
   13.2852   -3.9703   -5.7150 H   0  0  0  0  0  0  0  0  0  0  0  0
   13.9654   -4.8472   -4.4172 H   0  0  0  0  0  0  0  0  0  0  0  0
   14.6305   -4.8614   -6.1914 H   0  0  0  0  0  0  0  0  0  0  0  0
    9.1485   -4.4432   -4.3068 H   0  0  0  0  0  0  0  0  0  0  0  0
    9.5241   -6.9295   -3.7177 H   0  0  0  0  0  0  0  0  0  0  0  0
    8.8169   -5.8307   -0.8511 H   0  0  0  0  0  0  0  0  0  0  0  0
    6.5977   -4.6102   -2.4157 H   0  0  0  0  0  0  0  0  0  0  0  0
    6.0348   -8.0082   -4.0473 H   0  0  0  0  0  0  0  0  0  0  0  0
    8.3339   -6.2122   -4.8435 H   0  0  0  0  0  0  0  0  0  0  0  0
    8.1210   -7.0673   -3.1642 H   0  0  0  0  0  0  0  0  0  0  0  0
    5.3661   -5.7862   -2.3789 H   0  0  0  0  0  0  0  0  0  0  0  0
    6.9709   -4.3114   -4.8268 H   0  0  0  0  0  0  0  0  0  0  0  0
    7.6423   -6.3791   -6.4119 H   0  0  0  0  0  0  0  0  0  0  0  0
    9.7080   -7.6125   -5.1800 H   0  0  0  0  0  0  0  0  0  0  0  0
   11.4712   -7.3908   -5.2132 H   0  0  0  0  0  0  0  0  0  0  0  0
   11.6991   -4.8303   -6.2486 H   0  0  0  0  0  0  0  0  0  0  0  0
    9.9995   -3.2406   -6.0670 H   0  0  0  0  0  0  0  0  0  0  0  0
    4.7498   -5.8500   -5.7969 H   0  0  0  0  0  0  0  0  0  0  0  0
    2.9145   -4.6198   -8.3482 H   0  0  0  0  0  0  0  0  0  0  0  0
    3.1888   -5.4921   -6.8093 H   0  0  0  0  0  0  0  0  0  0  0  0
    3.5630   -7.5561   -8.2909 H   0  0  0  0  0  0  0  0  0  0  0  0
    5.1971   -8.1606  -10.0425 H   0  0  0  0  0  0  0  0  0  0  0  0
    6.3529   -7.9922   -9.0810 H   0  0  0  0  0  0  0  0  0  0  0  0
    4.4615   -9.9329   -8.8794 H   0  0  0  0  0  0  0  0  0  0  0  0
    3.7083   -9.3187   -7.3389 H   0  0  0  0  0  0  0  0  0  0  0  0
    8.4213   -9.4072   -8.3392 H   0  0  0  0  0  0  0  0  0  0  0  0
    8.0682  -10.8483   -7.5163 H   0  0  0  0  0  0  0  0  0  0  0  0
    7.2377  -10.6229   -8.9659 H   0  0  0  0  0  0  0  0  0  0  0  0
    7.5721  -11.0428   -5.6394 H   0  0  0  0  0  0  0  0  0  0  0  0
    8.0909   -8.9254   -3.4554 H   0  0  0  0  0  0  0  0  0  0  0  0
    5.0356   -8.7048   -2.2853 H   0  0  0  0  0  0  0  0  0  0  0  0
    6.1813   -7.0161   -2.4923 H   0  0  0  0  0  0  0  0  0  0  0  0
    3.8589   -6.6342   -3.5650 H   0  0  0  0  0  0  0  0  0  0  0  0
    5.1020   -6.2459   -4.3760 H   0  0  0  0  0  0  0  0  0  0  0  0
    4.0881   -7.7161   -5.9540 H   0  0  0  0  0  0  0  0  0  0  0  0
    6.1046   -7.6284   -5.8337 H   0  0  0  0  0  0  0  0  0  0  0  0
    5.8553   -9.2166   -5.7398 H   0  0  0  0  0  0  0  0  0  0  0  0
    4.7449  -10.0714   -4.7292 H   0  0  0  0  0  0  0  0  0  0  0  0
    9.5514   -9.2877   -4.6990 H   0  0  0  0  0  0  0  0  0  0  0  0
    9.0096  -10.1313   -6.2028 H   0  0  0  0  0  0  0  0  0  0  0  0
    8.7417   -8.4499   -6.4142 H   0  0  0  0  0  0  0  0  0  0  0  0
    8.8609   -2.9620   -3.6347 H   0  0  0  0  0  0  0  0  0  0  0  0
    7.0719   -2.7460   -3.2561 H   0  0  0  0  0  0  0  0  0  0  0  0
    8.2007   -2.5906   -2.2241 H   0  0  0  0  0  0  0  0  0  0  0  0
    9.5133   -3.6817   -2.1104 H   0  0  0  0  0  0  0  0  0  0  0  0
    7.5935   -3.5973   -1.2765 H   0  0  0  0  0  0  0  0  0  0  0  0
    8.7639   -4.3485   -0.9527 H   0  0  0  0  0  0  0  0  0  0  0  0
    4.0587   -2.0472   -9.5350 H   0  0  0  0  0  0  0  0  0  0  0  0
    5.7964   -2.4742   -9.7644 H   0  0  0  0  0  0  0  0  0  0  0  0
    4.6691   -3.6114   -9.0845 H   0  0  0  0  0  0  0  0  0  0  0  0
    9.5085   -8.1251   -1.1369 H   0  0  0  0  0  0  0  0  0  0  0  0
   11.8559   -8.6490   -0.1900 H   0  0  0  0  0  0  0  0  0  0  0  0
   13.7690   -7.3589   -1.5477 H   0  0  0  0  0  0  0  0  0  0  0  0
  1  2  1  0  0  0  0
  1 64  1  0  0  0  0
  1 65  1  0  0  0  0
  1 66  1  0  0  0  0
  2  3  1  0  0  0  0
  2  4  1  0  0  0  0
  2 67  1  0  0  0  0
  3 68  1  0  0  0  0
  3 69  1  0  0  0  0
  3 70  1  0  0  0  0
  4  5  1  0  0  0  0
  5  6  2  0  0  0  0
  5  7  1  0  0  0  0
  7 71  1  0  0  0  0
  8 59  1  0  0  0  0
  8 72  1  6  0  0  0
  8  9  1  0  0  0  0
  8  7  1  0  0  0  0
  9 10  1  0  0  0  0
  9 11  1  0  0  0  0
  9 73  1  1  0  0  0
 10 74  1  0  0  0  0
 11 12  2  0  0  0  0
 11 13  1  0  0  0  0
 14 15  1  0  0  0  0
 14 50  1  0  0  0  0
 14 75  1  6  0  0  0
 14 13  1  0  0  0  0
 15 76  1  0  0  0  0
 15 77  1  0  0  0  0
 16 15  1  0  0  0  0
 16 52  1  0  0  0  0
 16 17  1  6  0  0  0
 17 78  1  0  0  0  0
 18 16  1  0  0  0  0
 18 19  1  0  0  0  0
 18 79  1  1  0  0  0
 19 20  1  0  0  0  0
 20 21  2  0  0  0  0
 20 22  1  0  0  0  0
 22 23  2  0  0  0  0
 22 27  1  0  0  0  0
 23 24  1  0  0  0  0
 23 80  1  0  0  0  0
 24 25  2  0  0  0  0
 24 81  1  0  0  0  0
 25 26  1  0  0  0  0
 25 82  1  0  0  0  0
 26 27  2  0  0  0  0
 26 83  1  0  0  0  0
 27 84  1  0  0  0  0
 28 18  1  0  0  0  0
 28 29  1  0  0  0  0
 28 36  1  0  0  0  0
 28 85  1  6  0  0  0
 29 30  1  0  0  0  0
 29 32  1  0  0  0  0
 29 55  1  6  0  0  0
 30 31  1  0  0  0  0
 30 86  1  0  0  0  0
 30 87  1  0  0  0  0
 32 31  1  0  0  0  0
 32 33  1  0  0  0  0
 32 88  1  6  0  0  0
 33 89  1  0  0  0  0
 33 90  1  0  0  0  0
 34 33  1  0  0  0  0
 34 91  1  6  0  0  0
 34 35  1  0  0  0  0
 35 92  1  0  0  0  0
 36 34  1  0  0  0  0
 36 38  1  0  0  0  0
 36 37  1  1  0  0  0
 37 93  1  0  0  0  0
 37 94  1  0  0  0  0
 37 95  1  0  0  0  0
 38 39  2  0  0  0  0
 40 38  1  0  0  0  0
 40 49  1  0  0  0  0
 40 96  1  6  0  0  0
 40 41  1  0  0  0  0
 41 42  1  0  0  0  0
 42 43  2  0  0  0  0
 42 44  1  0  0  0  0
 44 45  1  0  0  0  0
 44 48  1  0  0  0  0
 44 97  1  0  0  0  0
 45 46  1  0  0  0  0
 45 98  1  0  0  0  0
 45 99  1  0  0  0  0
 46 47  1  0  0  0  0
 46100  1  0  0  0  0
 46101  1  0  0  0  0
 47 48  1  0  0  0  0
 47102  1  0  0  0  0
 47103  1  0  0  0  0
 48104  1  0  0  0  0
 48105  1  0  0  0  0
 49 50  2  0  0  0  0
 49 52  1  0  0  0  0
 50 51  1  0  0  0  0
 51106  1  0  0  0  0
 51107  1  0  0  0  0
 51108  1  0  0  0  0
 52 53  1  0  0  0  0
 52 54  1  0  0  0  0
 53109  1  0  0  0  0
 53110  1  0  0  0  0
 53111  1  0  0  0  0
 54112  1  0  0  0  0
 54113  1  0  0  0  0
 54114  1  0  0  0  0
 55 56  1  0  0  0  0
 56 57  1  0  0  0  0
 56 58  2  0  0  0  0
 57115  1  0  0  0  0
 57116  1  0  0  0  0
 57117  1  0  0  0  0
 59 60  2  0  0  0  0
 59 63  1  0  0  0  0
 60 61  1  0  0  0  0
 60118  1  0  0  0  0
 61 62  2  0  0  0  0
 61119  1  0  0  0  0
 62 63  1  0  0  0  0
 62120  1  0  0  0  0
M  END
>  <DRUGBANK_ID>
DB15384

>  <COMMON_NAME>
Simotaxel

>  <CAS_NUMBER>
791635-59-1

>  <UNII>
E1M30YOE59

>  <SYNONYMS>
Simotaxel

$$$$
