
 OpenBabel10282417163D

 45 48  0  0  1  0  0  0  0  0999 V2000
    1.5964   -0.2164   -0.1438 C   0  0  0  0  0  0  0  0  0  0  0  0
    1.8247    4.7919   -3.2452 C   0  0  0  0  0  0  0  0  0  0  0  0
    1.6273    1.9710   -6.5095 C   0  0  0  0  0  0  0  0  0  0  0  0
    0.9217    4.4454   -2.0104 C   0  0  0  0  0  0  0  0  0  0  0  0
    0.9473    1.7200   -5.3204 C   0  0  0  0  0  0  0  0  0  0  0  0
    0.1577    0.7913   -2.6448 C   0  0  0  0  0  0  0  0  0  0  0  0
   -0.4850    0.6135   -1.2603 C   0  0  0  0  0  0  0  0  0  0  0  0
    2.4173    4.0555   -5.6025 C   0  0  0  0  0  0  0  0  0  0  0  0
   -0.2460    1.0138    1.1881 C   0  0  0  0  0  0  0  0  0  0  0  0
    1.7325    3.7992   -4.3838 C   0  0  0  0  0  0  0  0  0  0  0  0
    2.3607    3.1341   -6.6483 C   0  0  0  0  0  0  0  0  0  0  0  0
    1.0035    2.6017   -4.2295 C   0  0  0  0  0  0  0  0  0  0  0  0
    0.2449    2.2696   -2.9412 C   0  0  2  0  0  0  0  0  0  0  0  0
    0.8952    2.8697   -1.7085 C   0  0  2  0  0  0  0  0  0  0  0  0
    0.3340    2.3989   -0.2046 C   0  0  1  0  0  0  0  0  0  0  0  0
   -0.5293    1.8486    2.3334 C   0  0  2  0  0  0  0  0  0  0  0  0
    0.7014    2.1322    1.5276 C   0  0  2  0  0  0  0  0  0  0  0  0
    0.7072    1.0027   -0.1292 C   0  0  2  0  0  0  0  0  0  0  0  0
    3.0026    3.3167   -7.8383 O   0  0  0  0  0  0  0  0  0  0  0  0
   -0.0899    1.7494    3.6591 O   0  0  0  0  0  0  0  0  0  0  0  0
    1.9857    2.0022    2.1516 O   0  0  0  0  0  0  0  0  0  0  0  0
   -0.7633    2.6906   -3.0473 H   0  0  0  0  0  0  0  0  0  0  0  0
    1.9731    2.6082   -1.7047 H   0  0  0  0  0  0  0  0  0  0  0  0
    1.2777    2.9756    0.0790 H   0  0  0  0  0  0  0  0  0  0  0  0
   -1.6135    1.9330    2.2169 H   0  0  0  0  0  0  0  0  0  0  0  0
    0.5043    3.2565    1.5264 H   0  0  0  0  0  0  0  0  0  0  0  0
    1.3607   -0.8889   -0.9902 H   0  0  0  0  0  0  0  0  0  0  0  0
    1.3410   -0.9191    0.6741 H   0  0  0  0  0  0  0  0  0  0  0  0
    2.6501   -0.0014   -0.1532 H   0  0  0  0  0  0  0  0  0  0  0  0
    1.5679    5.7905   -3.6339 H   0  0  0  0  0  0  0  0  0  0  0  0
    2.8753    4.8478   -2.9282 H   0  0  0  0  0  0  0  0  0  0  0  0
    1.5764    1.2499   -7.3195 H   0  0  0  0  0  0  0  0  0  0  0  0
   -0.0926    4.7980   -2.2484 H   0  0  0  0  0  0  0  0  0  0  0  0
    1.2650    5.0535   -1.1634 H   0  0  0  0  0  0  0  0  0  0  0  0
    0.3726    0.8031   -5.2643 H   0  0  0  0  0  0  0  0  0  0  0  0
    1.1791    0.3888   -2.6560 H   0  0  0  0  0  0  0  0  0  0  0  0
   -0.4067    0.2590   -3.4094 H   0  0  0  0  0  0  0  0  0  0  0  0
   -0.8080   -0.4332   -1.1768 H   0  0  0  0  0  0  0  0  0  0  0  0
   -1.4183    1.2047   -1.1978 H   0  0  0  0  0  0  0  0  0  0  0  0
    2.9938    4.9697   -5.7257 H   0  0  0  0  0  0  0  0  0  0  0  0
    0.5259    0.2851    1.7952 H   0  0  0  0  0  0  0  0  0  0  0  0
   -0.9534    0.1925    0.9691 H   0  0  0  0  0  0  0  0  0  0  0  0
    3.4765    4.1626   -7.8259 H   0  0  0  0  0  0  0  0  0  0  0  0
    0.8493    2.0536    3.6584 H   0  0  0  0  0  0  0  0  0  0  0  0
    2.4467    1.3013    1.6592 H   0  0  0  0  0  0  0  0  0  0  0  0
  1 27  1  0  0  0  0
  1 28  1  0  0  0  0
  1 29  1  0  0  0  0
  2 30  1  0  0  0  0
  2 31  1  0  0  0  0
  3 32  1  0  0  0  0
  4  2  1  0  0  0  0
  4 33  1  0  0  0  0
  4 34  1  0  0  0  0
  5  3  1  0  0  0  0
  5 35  1  0  0  0  0
  6 36  1  0  0  0  0
  6 37  1  0  0  0  0
  7  6  1  0  0  0  0
  7 38  1  0  0  0  0
  7 39  1  0  0  0  0
  8 40  1  0  0  0  0
  9 41  1  0  0  0  0
  9 42  1  0  0  0  0
 10  2  1  0  0  0  0
 10  8  2  0  0  0  0
 11  3  2  0  0  0  0
 11  8  1  0  0  0  0
 12  5  2  0  0  0  0
 12 10  1  0  0  0  0
 13  6  1  0  0  0  0
 13 12  1  0  0  0  0
 13 22  1  6  0  0  0
 14  4  1  0  0  0  0
 14 13  1  0  0  0  0
 14 15  1  0  0  0  0
 14 23  1  6  0  0  0
 15  9  1  0  0  0  0
 15 18  1  0  0  0  0
 15 24  1  6  0  0  0
 16  9  1  0  0  0  0
 16 20  1  0  0  0  0
 16 25  1  6  0  0  0
 17 16  1  0  0  0  0
 17 21  1  0  0  0  0
 17 26  1  6  0  0  0
 18  1  1  6  0  0  0
 18  7  1  0  0  0  0
 18 17  1  0  0  0  0
 19 11  1  0  0  0  0
 19 43  1  0  0  0  0
 20 44  1  0  0  0  0
 21 45  1  0  0  0  0
M  END
>  <DRUGBANK_ID>
DB07702

>  <COMMON_NAME>
17alpha-Estriol

>  <CAS_NUMBER>
1228-72-4

>  <UNII>
4G7IHY560Z

$$$$
