
 OpenBabel10282417153D

240248  0  0  0  0  0  0  0  0999 V2000
   -0.4188    0.1805    0.1255 C   0  0  0  0  0  0  0  0  0  0  0  0
    5.1894    3.0193    0.1318 C   0  0  0  0  0  0  0  0  0  0  0  0
    6.0784    0.7017    6.6744 C   0  0  0  0  0  0  0  0  0  0  0  0
    3.2505   -6.3107   -1.4680 C   0  0  0  0  0  0  0  0  0  0  0  0
    3.6895   -8.2475    3.4088 C   0  0  0  0  0  0  0  0  0  0  0  0
    5.3379    2.4125    2.5331 C   0  0  0  0  0  0  0  0  0  0  0  0
    5.5811    1.5611    4.5569 C   0  0  0  0  0  0  0  0  0  0  0  0
    3.4454   -7.3855    0.9587 C   0  0  0  0  0  0  0  0  0  0  0  0
   -0.9950   -0.4303   -1.2315 C   0  0  0  0  0  0  0  0  0  0  0  0
    3.9517    3.4627    0.6487 C   0  0  0  0  0  0  0  0  0  0  0  0
    4.7951    0.3558    7.6494 C   0  0  0  0  0  0  0  0  0  0  0  0
    4.8127   -5.9125   -1.5800 C   0  0  0  0  0  0  0  0  0  0  0  0
    5.2970   -7.6680    3.6581 C   0  0  0  0  0  0  0  0  0  0  0  0
    4.0608    2.5381    3.4318 C   0  0  0  0  0  0  0  0  0  0  0  0
    4.3494    1.4022    5.4729 C   0  0  0  0  0  0  0  0  0  0  0  0
    5.0033   -6.9814    0.9711 C   0  0  0  0  0  0  0  0  0  0  0  0
    2.1574   -3.3508   -2.5683 C   0  0  0  0  0  0  0  0  0  0  0  0
    3.9663    0.9215    0.7129 C   0  0  0  0  0  0  0  0  0  0  0  0
    5.3746   -2.6670    6.7430 C   0  0  0  0  0  0  0  0  0  0  0  0
    2.6970   -4.6096   -0.0487 C   0  0  0  0  0  0  0  0  0  0  0  0
    3.5094   -5.6895    5.3827 C   0  0  0  0  0  0  0  0  0  0  0  0
    4.4874   -0.0733    2.9957 C   0  0  0  0  0  0  0  0  0  0  0  0
    5.1847   -1.4216    5.0245 C   0  0  0  0  0  0  0  0  0  0  0  0
    3.1694   -4.9223    2.5470 C   0  0  0  0  0  0  0  0  0  0  0  0
    3.5696   -1.7977   -3.7982 C   0  0  2  0  0  0  0  0  0  0  0  0
    2.3470    0.6838   -0.9493 C   0  0  2  0  0  0  0  0  0  0  0  0
    4.2429   -2.5157    5.9203 C   0  0  2  0  0  0  0  0  0  0  0  0
    3.1899   -3.0570   -1.6793 C   0  0  2  0  0  0  0  0  0  0  0  0
    3.8022   -4.3589    3.8831 C   0  0  2  0  0  0  0  0  0  0  0  0
    3.1125   -0.1506    1.2054 C   0  0  2  0  0  0  0  0  0  0  0  0
    3.5493   -1.2552    3.5216 C   0  0  2  0  0  0  0  0  0  0  0  0
    3.4861   -3.0060    1.1404 C   0  0  2  0  0  0  0  0  0  0  0  0
   -1.0377   -0.8902    1.2492 C   0  0  0  0  0  0  0  0  0  0  0  0
    5.5766    2.1825   -0.9871 C   0  0  0  0  0  0  0  0  0  0  0  0
    6.8295   -0.1249    5.5615 C   0  0  0  0  0  0  0  0  0  0  0  0
    1.8483   -5.4864   -1.9009 C   0  0  0  0  0  0  0  0  0  0  0  0
    2.1673   -7.2475    3.1456 C   0  0  0  0  0  0  0  0  0  0  0  0
    5.9618    1.5934    1.4324 C   0  0  0  0  0  0  0  0  0  0  0  0
    6.3712    0.7408    3.4097 C   0  0  0  0  0  0  0  0  0  0  0  0
    1.7829   -6.4152    0.6213 C   0  0  0  0  0  0  0  0  0  0  0  0
    2.6878    1.8692   -1.6844 C   0  0  2  0  0  0  0  0  0  0  0  0
    5.0056   -4.6958    4.6523 C   0  0  2  0  0  0  0  0  0  0  0  0
    3.5777   -1.6627   -2.2407 C   0  0  2  0  0  0  0  0  0  0  0  0
    3.5060   -2.3153    4.5652 C   0  0  2  0  0  0  0  0  0  0  0  0
    2.2927    0.7935    0.3807 C   0  0  2  0  0  0  0  0  0  0  0  0
    4.8123   -4.7312    2.0342 C   0  0  2  0  0  0  0  0  0  0  0  0
    4.2823   -3.6159   -0.7846 C   0  0  2  0  0  0  0  0  0  0  0  0
    2.7135   -0.4874    2.6016 C   0  0  2  0  0  0  0  0  0  0  0  0
    1.3187    2.0846   -3.1557 C   0  0  2  0  0  0  0  0  0  0  0  0
    5.4603   -3.5375    2.6371 C   0  0  2  0  0  0  0  0  0  0  0  0
    4.4687   -0.4878   -3.8677 C   0  0  2  0  0  0  0  0  0  0  0  0
    1.8247   -1.9572    3.1861 C   0  0  2  0  0  0  0  0  0  0  0  0
    0.9714    0.8338   -1.5174 C   0  0  2  0  0  0  0  0  0  0  0  0
    5.0896   -3.1365    0.4204 C   0  0  2  0  0  0  0  0  0  0  0  0
    4.6619   -2.3685   -2.6795 C   0  0  2  0  0  0  0  0  0  0  0  0
    1.2317   -0.6995    0.8971 C   0  0  2  0  0  0  0  0  0  0  0  0
    3.9590   -0.1979   -1.9691 C   0  0  2  0  0  0  0  0  0  0  0  0
    1.9076   -1.2321   -1.7802 C   0  0  2  0  0  0  0  0  0  0  0  0
    2.9599   -3.9797    5.2565 C   0  0  2  0  0  0  0  0  0  0  0  0
    3.6925   -1.0095   -0.6434 C   0  0  2  0  0  0  0  0  0  0  0  0
    5.7493   -3.0861    4.1330 C   0  0  2  0  0  0  0  0  0  0  0  0
    2.5543   -2.0465    0.2362 C   0  0  2  0  0  0  0  0  0  0  0  0
    2.9883   -3.2530    2.7622 C   0  0  2  0  0  0  0  0  0  0  0  0
    4.2829   -1.9590    1.3225 C   0  0  2  0  0  0  0  0  0  0  0  0
    1.0967    0.1351   -3.8098 C   0  0  2  0  0  0  0  0  0  0  0  0
    5.6529   -1.7723    2.2077 C   0  0  2  0  0  0  0  0  0  0  0  0
    4.1459    0.5756   -3.3662 C   0  0  2  0  0  0  0  0  0  0  0  0
    0.8133   -2.8753    3.5709 C   0  0  2  0  0  0  0  0  0  0  0  0
    0.5256   -0.9518   -1.3223 C   0  0  2  0  0  0  0  0  0  0  0  0
    6.0109   -2.4080    0.8896 C   0  0  2  0  0  0  0  0  0  0  0  0
    5.7733   -1.1881   -1.1618 C   0  0  2  0  0  0  0  0  0  0  0  0
    0.6329   -2.0280    1.2786 C   0  0  2  0  0  0  0  0  0  0  0  0
   -0.8093   -0.5889    2.4379 O   0  0  0  0  0  0  0  0  0  0  0  0
   -1.1220   -2.3456    1.0475 O   0  0  0  0  0  0  0  0  0  0  0  0
    5.7616    2.4226   -2.1442 O   0  0  0  0  0  0  0  0  0  0  0  0
    6.0953    1.1136   -0.5396 O   0  0  0  0  0  0  0  0  0  0  0  0
    7.5450    0.4265    4.7751 O   0  0  0  0  0  0  0  0  0  0  0  0
    7.1601   -1.3909    5.4355 O   0  0  0  0  0  0  0  0  0  0  0  0
    1.5719   -5.3512   -3.0486 O   0  0  0  0  0  0  0  0  0  0  0  0
    1.0493   -4.7032   -1.1369 O   0  0  0  0  0  0  0  0  0  0  0  0
    1.4655   -7.4103    2.1849 O   0  0  0  0  0  0  0  0  0  0  0  0
    1.7018   -6.2687    3.8697 O   0  0  0  0  0  0  0  0  0  0  0  0
    6.9901    1.7681    0.7799 O   0  0  0  0  0  0  0  0  0  0  0  0
    6.1122    0.4162    1.5416 O   0  0  0  0  0  0  0  0  0  0  0  0
    7.3045    1.1277    2.7318 O   0  0  0  0  0  0  0  0  0  0  0  0
    6.8288   -0.4975    3.3019 O   0  0  0  0  0  0  0  0  0  0  0  0
    1.1264   -6.6164   -0.3608 O   0  0  0  0  0  0  0  0  0  0  0  0
    1.0712   -5.5129    1.3968 O   0  0  0  0  0  0  0  0  0  0  0  0
    3.0128   -0.1013   -2.0183 O   0  0  0  0  0  0  0  0  0  0  0  0
    5.8572   -4.8784    5.6169 O   0  0  0  0  0  0  0  0  0  0  0  0
    5.2709   -2.6295   -1.4030 O   0  0  0  0  0  0  0  0  0  0  0  0
    2.4586   -2.5376    6.2002 O   0  0  0  0  0  0  0  0  0  0  0  0
    1.4027    0.1906    2.1300 O   0  0  0  0  0  0  0  0  0  0  0  0
    6.3546   -4.9723    3.2497 O   0  0  0  0  0  0  0  0  0  0  0  0
    5.8201   -4.5451    0.3504 O   0  0  0  0  0  0  0  0  0  0  0  0
    1.9085   -1.0991    4.5127 O   0  0  0  0  0  0  0  0  0  0  0  0
    2.3199    2.4982   -4.0617 O   0  0  0  0  0  0  0  0  0  0  0  0
    3.7262   -4.2664    1.4498 O   0  0  0  0  0  0  0  0  0  0  0  0
    3.3785   -0.2291   -4.9949 O   0  0  0  0  0  0  0  0  0  0  0  0
    2.6474   -1.8917    2.0795 O   0  0  0  0  0  0  0  0  0  0  0  0
    2.3690    0.9241   -3.0126 O   0  0  0  0  0  0  0  0  0  0  0  0
    3.0725   -3.2164   -0.2278 O   0  0  0  0  0  0  0  0  0  0  0  0
    2.5665   -1.6897   -3.0674 O   0  0  0  0  0  0  0  0  0  0  0  0
    2.1816   -0.6220   -0.1269 O   0  0  0  0  0  0  0  0  0  0  0  0
    1.7880   -1.1228   -4.4355 O   0  0  0  0  0  0  0  0  0  0  0  0
    4.7494   -2.1730    3.7434 O   0  0  0  0  0  0  0  0  0  0  0  0
    3.9692    1.3533   -2.0574 O   0  0  0  0  0  0  0  0  0  0  0  0
    1.7569   -4.3250    3.2028 O   0  0  0  0  0  0  0  0  0  0  0  0
    1.1939   -2.3895   -2.4599 O   0  0  0  0  0  0  0  0  0  0  0  0
    4.7447   -0.7313    1.7071 O   0  0  0  0  0  0  0  0  0  0  0  0
    4.3992    0.3816   -0.5291 O   0  0  0  0  0  0  0  0  0  0  0  0
    1.4225   -3.3028    0.3827 O   0  0  0  0  0  0  0  0  0  0  0  0
    5.0369   -0.8703    0.1580 O   0  0  0  0  0  0  0  0  0  0  0  0
    0.7126   -0.8863   -3.1904 O   0  0  0  0  0  0  0  0  0  0  0  0
    1.2517   -3.5936    4.6254 O   0  0  0  0  0  0  0  0  0  0  0  0
    5.3735    0.0583   -1.7869 O   0  0  0  0  0  0  0  0  0  0  0  0
    7.1092   -2.3892    2.6782 O   0  0  0  0  0  0  0  0  0  0  0  0
    0.5219   -1.9533   -0.4284 O   0  0  0  0  0  0  0  0  0  0  0  0
    1.0678   -3.3257    1.8633 O   0  0  0  0  0  0  0  0  0  0  0  0
    6.3178   -1.0495    0.7138 O   0  0  0  0  0  0  0  0  0  0  0  0
   -0.4661   -2.9442   -1.9612 S   0  0  0  0  0  0  0  0  0  0  0  0
    3.2566    2.4757    1.5148 S   0  0  0  0  0  0  0  0  0  0  0  0
    4.7713   -1.6486    8.0499 S   0  0  0  0  0  0  0  0  0  0  0  0
    3.8098   -5.8403   -0.4372 S   0  0  0  0  0  0  0  0  0  0  0  0
    5.1823   -7.0770    5.2486 S   0  0  0  0  0  0  0  0  0  0  0  0
    3.2939    1.2223    3.7292 S   0  0  0  0  0  0  0  0  0  0  0  0
    4.2344   -0.1641    5.8420 S   0  0  0  0  0  0  0  0  0  0  0  0
    4.1638   -6.6626    2.2481 S   0  0  0  0  0  0  0  0  0  0  0  0
   -0.1211    1.2211    0.3212 H   0  0  0  0  0  0  0  0  0  0  0  0
    0.7825    0.9206    0.6870 H   0  0  0  0  0  0  0  0  0  0  0  0
    5.5823    3.8496   -0.2039 H   0  0  0  0  0  0  0  0  0  0  0  0
    6.0613    3.1341    0.8832 H   0  0  0  0  0  0  0  0  0  0  0  0
    5.8992    1.7935    6.4259 H   0  0  0  0  0  0  0  0  0  0  0  0
    6.8900    0.5694    7.1894 H   0  0  0  0  0  0  0  0  0  0  0  0
    3.3714   -7.0235   -2.1621 H   0  0  0  0  0  0  0  0  0  0  0  0
    2.7991   -7.1882   -0.8469 H   0  0  0  0  0  0  0  0  0  0  0  0
    3.8469   -8.8442    2.4898 H   0  0  0  0  0  0  0  0  0  0  0  0
    3.3246   -8.5197    4.2582 H   0  0  0  0  0  0  0  0  0  0  0  0
    5.4171    3.3696    2.2451 H   0  0  0  0  0  0  0  0  0  0  0  0
    6.2346    2.4518    3.0176 H   0  0  0  0  0  0  0  0  0  0  0  0
    5.5934    2.6212    4.3982 H   0  0  0  0  0  0  0  0  0  0  0  0
    6.4566    1.7446    5.0067 H   0  0  0  0  0  0  0  0  0  0  0  0
    3.5602   -8.0716    0.1850 H   0  0  0  0  0  0  0  0  0  0  0  0
    3.0115   -8.0380    1.5519 H   0  0  0  0  0  0  0  0  0  0  0  0
   -1.6852   -0.8064   -1.6494 H   0  0  0  0  0  0  0  0  0  0  0  0
   -0.3554    0.2835   -2.1995 H   0  0  0  0  0  0  0  0  0  0  0  0
    3.0064    3.2061    0.2664 H   0  0  0  0  0  0  0  0  0  0  0  0
    3.8325    3.6725    1.7112 H   0  0  0  0  0  0  0  0  0  0  0  0
    3.4484    0.7126    7.0863 H   0  0  0  0  0  0  0  0  0  0  0  0
    4.3431    1.0790    8.1728 H   0  0  0  0  0  0  0  0  0  0  0  0
    5.0992   -4.9434   -1.7352 H   0  0  0  0  0  0  0  0  0  0  0  0
    5.4348   -6.3654   -0.8402 H   0  0  0  0  0  0  0  0  0  0  0  0
    5.9503   -6.9997    2.8714 H   0  0  0  0  0  0  0  0  0  0  0  0
    6.0247   -8.3442    3.5676 H   0  0  0  0  0  0  0  0  0  0  0  0
    2.8345    2.8057    3.2365 H   0  0  0  0  0  0  0  0  0  0  0  0
    3.7907    3.0094    4.2488 H   0  0  0  0  0  0  0  0  0  0  0  0
    3.0587    1.7726    5.3143 H   0  0  0  0  0  0  0  0  0  0  0  0
    4.0228    2.0622    6.1601 H   0  0  0  0  0  0  0  0  0  0  0  0
    5.5200   -6.0877    0.7694 H   0  0  0  0  0  0  0  0  0  0  0  0
    5.7101   -7.5763    1.3114 H   0  0  0  0  0  0  0  0  0  0  0  0
    2.6653   -2.1616   -1.1717 H   0  0  0  0  0  0  0  0  0  0  0  0
    2.8724   -4.2735   -2.6095 H   0  0  0  0  0  0  0  0  0  0  0  0
    3.7497   -0.8976    0.6452 H   0  0  0  0  0  0  0  0  0  0  0  0
    4.8531    0.5670    0.7265 H   0  0  0  0  0  0  0  0  0  0  0  0
    5.0185   -3.6033    6.5961 H   0  0  0  0  0  0  0  0  0  0  0  0
    6.0670   -2.5747    5.9754 H   0  0  0  0  0  0  0  0  0  0  0  0
    2.3434   -3.6050    1.3127 H   0  0  0  0  0  0  0  0  0  0  0  0
    1.8104   -4.6997    0.2342 H   0  0  0  0  0  0  0  0  0  0  0  0
    4.0569   -4.6173    5.9645 H   0  0  0  0  0  0  0  0  0  0  0  0
    2.8266   -5.4438    4.5138 H   0  0  0  0  0  0  0  0  0  0  0  0
    4.1916   -1.7675    2.6362 H   0  0  0  0  0  0  0  0  0  0  0  0
    5.4053   -0.4004    2.8393 H   0  0  0  0  0  0  0  0  0  0  0  0
    4.6681   -3.0733    4.8191 H   0  0  0  0  0  0  0  0  0  0  0  0
    5.8058   -1.1692    4.2707 H   0  0  0  0  0  0  0  0  0  0  0  0
    4.1777   -3.6084    2.8589 H   0  0  0  0  0  0  0  0  0  0  0  0
    2.3774   -5.4944    2.3910 H   0  0  0  0  0  0  0  0  0  0  0  0
    4.1342   -2.6253   -4.2532 H   0  0  0  0  0  0  0  0  0  0  0  0
    1.4078    1.7512   -0.2855 H   0  0  0  0  0  0  0  0  0  0  0  0
    3.1720   -1.4131    5.8771 H   0  0  0  0  0  0  0  0  0  0  0  0
    4.2363   -3.8183   -2.3526 H   0  0  0  0  0  0  0  0  0  0  0  0
    4.9059   -5.3940    3.2637 H   0  0  0  0  0  0  0  0  0  0  0  0
    2.3938    1.0387    1.9164 H   0  0  0  0  0  0  0  0  0  0  0  0
    2.9890   -0.4221    4.1109 H   0  0  0  0  0  0  0  0  0  0  0  0
    4.3666   -4.3440    0.4008 H   0  0  0  0  0  0  0  0  0  0  0  0
    3.2640    2.4671   -1.0299 H   0  0  0  0  0  0  0  0  0  0  0  0
    4.1749   -5.8787    4.0260 H   0  0  0  0  0  0  0  0  0  0  0  0
    2.7242   -2.7703   -3.5401 H   0  0  0  0  0  0  0  0  0  0  0  0
    4.2555   -0.7170    4.4043 H   0  0  0  0  0  0  0  0  0  0  0  0
    3.0500    1.6983    0.0416 H   0  0  0  0  0  0  0  0  0  0  0  0
    3.6138   -5.5496    1.2560 H   0  0  0  0  0  0  0  0  0  0  0  0
    3.5939   -4.4063   -1.2893 H   0  0  0  0  0  0  0  0  0  0  0  0
    3.6148    0.6293    2.2445 H   0  0  0  0  0  0  0  0  0  0  0  0
    0.5823    2.3390   -2.4344 H   0  0  0  0  0  0  0  0  0  0  0  0
    6.5152   -4.3623    1.9581 H   0  0  0  0  0  0  0  0  0  0  0  0
    5.2829   -1.1371   -3.9745 H   0  0  0  0  0  0  0  0  0  0  0  0
    1.1820   -0.8943    3.2813 H   0  0  0  0  0  0  0  0  0  0  0  0
    0.3439    1.5019   -1.1678 H   0  0  0  0  0  0  0  0  0  0  0  0
    5.9932   -3.5290   -0.5427 H   0  0  0  0  0  0  0  0  0  0  0  0
    5.3501   -2.8676   -3.1359 H   0  0  0  0  0  0  0  0  0  0  0  0
    0.2070    0.2201    1.5447 H   0  0  0  0  0  0  0  0  0  0  0  0
    5.1567    1.0055   -2.5525 H   0  0  0  0  0  0  0  0  0  0  0  0
    1.6016   -2.1340   -1.1214 H   0  0  0  0  0  0  0  0  0  0  0  0
    2.3964   -4.3091    6.0148 H   0  0  0  0  0  0  0  0  0  0  0  0
    4.0475   -1.7829   -0.1312 H   0  0  0  0  0  0  0  0  0  0  0  0
    6.6862   -3.3643    4.5090 H   0  0  0  0  0  0  0  0  0  0  0  0
    2.0574   -2.3638    1.0275 H   0  0  0  0  0  0  0  0  0  0  0  0
    2.6371   -3.4097    3.7088 H   0  0  0  0  0  0  0  0  0  0  0  0
    4.4309   -2.7650    1.8362 H   0  0  0  0  0  0  0  0  0  0  0  0
    0.2000    0.3134   -4.1683 H   0  0  0  0  0  0  0  0  0  0  0  0
    6.1565   -3.0710    2.0779 H   0  0  0  0  0  0  0  0  0  0  0  0
    4.6237    1.1497   -3.8877 H   0  0  0  0  0  0  0  0  0  0  0  0
    1.3479   -2.2769    2.7931 H   0  0  0  0  0  0  0  0  0  0  0  0
   -0.0250   -1.2913   -1.9717 H   0  0  0  0  0  0  0  0  0  0  0  0
    6.2508   -2.2478   -0.1016 H   0  0  0  0  0  0  0  0  0  0  0  0
    5.4799   -1.2463   -2.3698 H   0  0  0  0  0  0  0  0  0  0  0  0
    1.0503   -1.2511    0.5885 H   0  0  0  0  0  0  0  0  0  0  0  0
   -0.4622   -3.0617    1.5809 H   0  0  0  0  0  0  0  0  0  0  0  0
    6.0845    0.1922   -0.6178 H   0  0  0  0  0  0  0  0  0  0  0  0
    7.1277   -1.7584    4.4688 H   0  0  0  0  0  0  0  0  0  0  0  0
    0.7117   -3.7293   -0.9706 H   0  0  0  0  0  0  0  0  0  0  0  0
    1.4349   -5.2939    3.5778 H   0  0  0  0  0  0  0  0  0  0  0  0
    6.0106   -0.0815    0.7465 H   0  0  0  0  0  0  0  0  0  0  0  0
    6.8152   -0.8194    2.3930 H   0  0  0  0  0  0  0  0  0  0  0  0
    1.0183   -4.4916    1.4425 H   0  0  0  0  0  0  0  0  0  0  0  0
    2.6031   -0.5466   -1.1001 H   0  0  0  0  0  0  0  0  0  0  0  0
    5.9527   -4.0158    5.4240 H   0  0  0  0  0  0  0  0  0  0  0  0
    4.6669   -2.2690   -0.9002 H   0  0  0  0  0  0  0  0  0  0  0  0
    2.6359   -2.6334    5.2749 H   0  0  0  0  0  0  0  0  0  0  0  0
    1.8801   -1.1549    1.8650 H   0  0  0  0  0  0  0  0  0  0  0  0
    5.7602   -4.4393    3.6041 H   0  0  0  0  0  0  0  0  0  0  0  0
    5.5417   -3.9936    1.2142 H   0  0  0  0  0  0  0  0  0  0  0  0
    1.9695   -2.2351    4.5023 H   0  0  0  0  0  0  0  0  0  0  0  0
    3.2382    2.4930   -3.7640 H   0  0  0  0  0  0  0  0  0  0  0  0
    2.4357   -4.6155    1.4709 H   0  0  0  0  0  0  0  0  0  0  0  0
    2.3451   -0.4895   -5.0368 H   0  0  0  0  0  0  0  0  0  0  0  0
    3.3736   -1.3325    1.8933 H   0  0  0  0  0  0  0  0  0  0  0  0
    3.3713    1.7851   -2.8226 H   0  0  0  0  0  0  0  0  0  0  0  0
    2.0297   -3.4137   -0.6680 H   0  0  0  0  0  0  0  0  0  0  0  0
    3.5460   -2.8221   -2.9638 H   0  0  0  0  0  0  0  0  0  0  0  0
    3.3707    0.2267   -0.5386 H   0  0  0  0  0  0  0  0  0  0  0  0
  1129  1  0  0  0  0
  1130  1  0  0  0  0
  2131  1  0  0  0  0
  2132  1  0  0  0  0
  3133  1  0  0  0  0
  3134  1  0  0  0  0
  4135  1  0  0  0  0
  4136  1  0  0  0  0
  5137  1  0  0  0  0
  5138  1  0  0  0  0
  6139  1  0  0  0  0
  6140  1  0  0  0  0
  7141  1  0  0  0  0
  7142  1  0  0  0  0
  8143  1  0  0  0  0
  8144  1  0  0  0  0
  9  1  1  0  0  0  0
  9145  1  0  0  0  0
  9146  1  0  0  0  0
 10  2  1  0  0  0  0
 10147  1  0  0  0  0
 10148  1  0  0  0  0
 11  3  1  0  0  0  0
 11149  1  0  0  0  0
 11150  1  0  0  0  0
 12  4  1  0  0  0  0
 12151  1  0  0  0  0
 12152  1  0  0  0  0
 13  5  1  0  0  0  0
 13153  1  0  0  0  0
 13154  1  0  0  0  0
 14  6  1  0  0  0  0
 14155  1  0  0  0  0
 14156  1  0  0  0  0
 15  7  1  0  0  0  0
 15157  1  0  0  0  0
 15158  1  0  0  0  0
 16  8  1  0  0  0  0
 16159  1  0  0  0  0
 16160  1  0  0  0  0
 17161  1  0  0  0  0
 17162  1  0  0  0  0
 18163  1  0  0  0  0
 18164  1  0  0  0  0
 19165  1  0  0  0  0
 19166  1  0  0  0  0
 20167  1  0  0  0  0
 20168  1  0  0  0  0
 21169  1  0  0  0  0
 21170  1  0  0  0  0
 22171  1  0  0  0  0
 22172  1  0  0  0  0
 23173  1  0  0  0  0
 23174  1  0  0  0  0
 24175  1  0  0  0  0
 24176  1  0  0  0  0
 25 17  1  0  0  0  0
 25177  1  6  0  0  0
 26178  1  1  0  0  0
 26 18  1  0  0  0  0
 27179  1  1  0  0  0
 27 19  1  0  0  0  0
 28180  1  6  0  0  0
 28 20  1  0  0  0  0
 29181  1  6  0  0  0
 29 21  1  0  0  0  0
 30182  1  1  0  0  0
 30 22  1  0  0  0  0
 31183  1  1  0  0  0
 31 23  1  0  0  0  0
 32184  1  6  0  0  0
 32 24  1  0  0  0  0
 33  1  1  0  0  0  0
 34  2  1  0  0  0  0
 35  3  1  0  0  0  0
 36  4  1  0  0  0  0
 37  5  1  0  0  0  0
 38  6  1  0  0  0  0
 39  7  1  0  0  0  0
 40  8  1  0  0  0  0
 41 89  1  0  0  0  0
 41185  1  1  0  0  0
 42 90  1  0  0  0  0
 42186  1  6  0  0  0
 43 91  1  0  0  0  0
 43187  1  6  0  0  0
 44 92  1  0  0  0  0
 44188  1  1  0  0  0
 45 93  1  0  0  0  0
 45189  1  1  0  0  0
 46 94  1  0  0  0  0
 46190  1  6  0  0  0
 47 95  1  0  0  0  0
 47191  1  6  0  0  0
 48 96  1  0  0  0  0
 48192  1  1  0  0  0
 49 41  1  0  0  0  0
 49193  1  1  0  0  0
 49 97  1  0  0  0  0
 50 42  1  0  0  0  0
 50194  1  6  0  0  0
 50 98  1  0  0  0  0
 51 43  1  0  0  0  0
 51195  1  6  0  0  0
 51 99  1  0  0  0  0
 52 44  1  0  0  0  0
 52196  1  1  0  0  0
 52100  1  0  0  0  0
 53 45  1  0  0  0  0
 53197  1  6  0  0  0
 53101  1  0  0  0  0
 54 46  1  0  0  0  0
 54198  1  6  0  0  0
 54102  1  0  0  0  0
 55 47  1  0  0  0  0
 55199  1  6  0  0  0
 55103  1  0  0  0  0
 56 48  1  0  0  0  0
 56200  1  6  0  0  0
 56104  1  0  0  0  0
 57 25  1  0  0  0  0
 57 41  1  0  0  0  0
 57113  1  0  0  0  0
 57201  1  1  0  0  0
 58 26  1  0  0  0  0
 58 43  1  0  0  0  0
 58114  1  0  0  0  0
 58202  1  1  0  0  0
 59 27  1  0  0  0  0
 59 42  1  0  0  0  0
 59115  1  0  0  0  0
 59203  1  1  0  0  0
 60 28  1  0  0  0  0
 60 45  1  0  0  0  0
 60116  1  0  0  0  0
 60204  1  1  0  0  0
 61 29  1  0  0  0  0
 61 44  1  0  0  0  0
 61117  1  0  0  0  0
 61205  1  1  0  0  0
 62 30  1  0  0  0  0
 62 47  1  0  0  0  0
 62118  1  0  0  0  0
 62206  1  1  0  0  0
 63 31  1  0  0  0  0
 63 46  1  0  0  0  0
 63119  1  0  0  0  0
 63207  1  1  0  0  0
 64 32  1  0  0  0  0
 64 48  1  0  0  0  0
 64120  1  0  0  0  0
 64208  1  1  0  0  0
 65 49  1  0  0  0  0
 65114  1  0  0  0  0
 65209  1  1  0  0  0
 66 50  1  0  0  0  0
 66113  1  0  0  0  0
 66210  1  1  0  0  0
 67 51  1  0  0  0  0
 67116  1  0  0  0  0
 67211  1  1  0  0  0
 68 52  1  0  0  0  0
 68115  1  0  0  0  0
 68212  1  1  0  0  0
 69 53  1  0  0  0  0
 69118  1  0  0  0  0
 69213  1  1  0  0  0
 70 54  1  0  0  0  0
 70117  1  0  0  0  0
 70214  1  1  0  0  0
 71 55  1  0  0  0  0
 71120  1  0  0  0  0
 71215  1  1  0  0  0
 72 56  1  0  0  0  0
 72119  1  0  0  0  0
 72216  1  1  0  0  0
 73 33  2  0  0  0  0
 74 33  1  0  0  0  0
 74217  1  0  0  0  0
 75 34  2  0  0  0  0
 76 34  1  0  0  0  0
 76218  1  0  0  0  0
 77 35  2  0  0  0  0
 78 35  1  0  0  0  0
 78219  1  0  0  0  0
 79 36  2  0  0  0  0
 80 36  1  0  0  0  0
 80220  1  0  0  0  0
 81 37  2  0  0  0  0
 82 37  1  0  0  0  0
 82221  1  0  0  0  0
 83 38  2  0  0  0  0
 84 38  1  0  0  0  0
 84222  1  0  0  0  0
 85 39  2  0  0  0  0
 86 39  1  0  0  0  0
 86223  1  0  0  0  0
 87 40  2  0  0  0  0
 88 40  1  0  0  0  0
 88224  1  0  0  0  0
 89225  1  0  0  0  0
 90226  1  0  0  0  0
 91227  1  0  0  0  0
 92228  1  0  0  0  0
 93229  1  0  0  0  0
 94230  1  0  0  0  0
 95231  1  0  0  0  0
 96232  1  0  0  0  0
 97233  1  0  0  0  0
 98234  1  0  0  0  0
 99235  1  0  0  0  0
100236  1  0  0  0  0
101237  1  0  0  0  0
102238  1  0  0  0  0
103239  1  0  0  0  0
104240  1  0  0  0  0
105 25  1  0  0  0  0
105 65  1  0  0  0  0
106 27  1  0  0  0  0
106 66  1  0  0  0  0
107 26  1  0  0  0  0
107 67  1  0  0  0  0
108 29  1  0  0  0  0
108 68  1  0  0  0  0
109 28  1  0  0  0  0
109 69  1  0  0  0  0
110 31  1  0  0  0  0
110 70  1  0  0  0  0
111 30  1  0  0  0  0
111 71  1  0  0  0  0
112 32  1  0  0  0  0
112 72  1  0  0  0  0
121  9  1  0  0  0  0
121 17  1  0  0  0  0
122 10  1  0  0  0  0
122 18  1  0  0  0  0
123 11  1  0  0  0  0
123 19  1  0  0  0  0
124 12  1  0  0  0  0
124 20  1  0  0  0  0
125 13  1  0  0  0  0
125 21  1  0  0  0  0
126 14  1  0  0  0  0
126 22  1  0  0  0  0
127 15  1  0  0  0  0
127 23  1  0  0  0  0
128 16  1  0  0  0  0
128 24  1  0  0  0  0
M  END
>  <DRUGBANK_ID>
DB06206

>  <COMMON_NAME>
Sugammadex

>  <CAS_NUMBER>
343306-71-8

>  <UNII>
361LPM2T56

>  <SYNONYMS>
Sugammadex

$$$$
