
 OpenBabel10282417103D

 17 16  0  0  0  0  0  0  0  0999 V2000
    2.4218   -0.8980   -1.6220 O   0  0  0  0  0  0  0  0  0  0  0  0
    2.2239   -2.0675   -1.3160 C   0  0  0  0  0  0  0  0  0  0  0  0
    1.2691   -2.7867   -1.9609 O   0  0  0  0  0  0  0  0  0  0  0  0
    3.0006   -2.8652   -0.2428 C   0  0  1  0  0  0  0  0  0  0  0  0
    4.4413   -2.8900   -0.5765 N   0  0  0  0  0  0  0  0  0  0  0  0
    2.6896   -2.2643    1.1549 C   0  0  2  0  0  0  0  0  0  0  0  0
    3.0639   -0.8900    1.2180 O   0  0  0  0  0  0  0  0  0  0  0  0
    3.4174   -2.9967    2.2785 C   0  0  0  0  0  0  0  0  0  0  0  0
    1.1912   -3.7238   -1.7131 H   0  0  0  0  0  0  0  0  0  0  0  0
    2.6543   -3.9071   -0.2522 H   0  0  0  0  0  0  0  0  0  0  0  0
    4.9765   -3.4083    0.1136 H   0  0  0  0  0  0  0  0  0  0  0  0
    4.6043   -3.3014   -1.4910 H   0  0  0  0  0  0  0  0  0  0  0  0
    1.6079   -2.3205    1.3312 H   0  0  0  0  0  0  0  0  0  0  0  0
    2.9790   -0.5695    2.1290 H   0  0  0  0  0  0  0  0  0  0  0  0
    3.1546   -2.5620    3.2490 H   0  0  0  0  0  0  0  0  0  0  0  0
    3.1696   -4.0613    2.2906 H   0  0  0  0  0  0  0  0  0  0  0  0
    4.5030   -2.8834    2.1845 H   0  0  0  0  0  0  0  0  0  0  0  0
  2  1  2  0  0  0  0
  3  2  1  0  0  0  0
  3  9  1  0  0  0  0
  4  2  1  0  0  0  0
  4  5  1  0  0  0  0
  4 10  1  6  0  0  0
  5 11  1  0  0  0  0
  5 12  1  0  0  0  0
  6  8  1  0  0  0  0
  6 13  1  1  0  0  0
  6  7  1  0  0  0  0
  6  4  1  0  0  0  0
  7 14  1  0  0  0  0
  8 15  1  0  0  0  0
  8 16  1  0  0  0  0
  8 17  1  0  0  0  0
M  END
>  <DRUGBANK_ID>
DB00156

>  <SECONDARY_ACCESSION_NUMBERS>
NUTR00057

>  <COMMON_NAME>
Threonine

>  <CAS_NUMBER>
72-19-5

>  <UNII>
2ZD004190S

>  <SYNONYMS>
(2S,3R)-(-)-Threonine; (2S)-threonine; 2-Amino-3-hydroxybutyric acid; L-(-)-Threonine; L-2-Amino-3-hydroxybutyric acid; L-alpha-amino-beta-hydroxybutyric acid; L-Threonin; L-Threonine; L-α-amino-β-hydroxybutyric acid; Thr; Threonine; Threoninum; Treonina

$$$$
