
 OpenBabel10282417123D

 63 62  0  0  1  0  0  0  0  0999 V2000
    1.1461   16.7161    7.3483 C   0  0  0  0  0  0  0  0  0  0  0  0
    0.1662   15.6749    7.8685 C   0  0  0  0  0  0  0  0  0  0  0  0
   -0.6284   16.1822    9.0684 C   0  0  0  0  0  0  0  0  0  0  0  0
   -0.7721   15.1943    6.7409 C   0  0  0  0  0  0  0  0  0  0  0  0
   -0.0228   14.4320    5.6452 C   0  0  0  0  0  0  0  0  0  0  0  0
    0.8232   13.2493    6.1622 C   0  0  0  0  0  0  0  0  0  0  0  0
   -0.0264   12.1804    6.8713 C   0  0  2  0  0  0  0  0  0  0  0  0
   -0.4446   12.4435    8.3207 C   0  0  0  0  0  0  0  0  0  0  0  0
    0.6671   10.8027    6.8734 C   0  0  0  0  0  0  0  0  0  0  0  0
   -0.3214    9.7111    7.2862 C   0  0  0  0  0  0  0  0  0  0  0  0
   -1.5906    9.6863    6.4247 C   0  0  0  0  0  0  0  0  0  0  0  0
   -1.2789    9.4948    4.9266 C   0  0  2  0  0  0  0  0  0  0  0  0
   -0.8774   10.7459    4.1363 C   0  0  0  0  0  0  0  0  0  0  0  0
   -2.5195    8.9359    4.2422 C   0  0  0  0  0  0  0  0  0  0  0  0
   -2.2347    8.4800    2.8048 C   0  0  0  0  0  0  0  0  0  0  0  0
   -1.2109    7.3464    2.7288 C   0  0  0  0  0  0  0  0  0  0  0  0
   -1.6636    6.0597    3.4554 C   0  0  2  0  0  0  0  0  0  0  0  0
   -0.9826    4.8455    2.8138 C   0  0  0  0  0  0  0  0  0  0  0  0
   -3.2011    5.8728    3.4746 C   0  0  0  0  0  0  0  0  0  0  0  0
   -3.7080    4.7343    4.3448 C   0  0  0  0  0  0  0  0  0  0  0  0
   -3.2516    4.8595    5.6815 O   0  0  0  0  0  0  0  0  0  0  0  0
    0.6155   17.5840    6.9498 H   0  0  0  0  0  0  0  0  0  0  0  0
    1.7719   16.2989    6.5523 H   0  0  0  0  0  0  0  0  0  0  0  0
    1.8203   17.0399    8.1451 H   0  0  0  0  0  0  0  0  0  0  0  0
    0.7826   14.8520    8.2437 H   0  0  0  0  0  0  0  0  0  0  0  0
   -1.2571   17.0336    8.7998 H   0  0  0  0  0  0  0  0  0  0  0  0
   -1.2776   15.3965    9.4732 H   0  0  0  0  0  0  0  0  0  0  0  0
    0.0507   16.4820    9.8732 H   0  0  0  0  0  0  0  0  0  0  0  0
   -1.5767   14.5561    7.1275 H   0  0  0  0  0  0  0  0  0  0  0  0
   -1.2978   16.0492    6.2998 H   0  0  0  0  0  0  0  0  0  0  0  0
   -0.7510   14.0698    4.9061 H   0  0  0  0  0  0  0  0  0  0  0  0
    0.6243   15.1223    5.0921 H   0  0  0  0  0  0  0  0  0  0  0  0
    1.3094   12.8156    5.2774 H   0  0  0  0  0  0  0  0  0  0  0  0
    1.6424   13.5817    6.8039 H   0  0  0  0  0  0  0  0  0  0  0  0
   -0.9522   12.1481    6.2908 H   0  0  0  0  0  0  0  0  0  0  0  0
   -1.3808   11.9170    8.5379 H   0  0  0  0  0  0  0  0  0  0  0  0
    0.3193   12.1007    9.0232 H   0  0  0  0  0  0  0  0  0  0  0  0
   -0.6547   13.4686    8.5651 H   0  0  0  0  0  0  0  0  0  0  0  0
    1.1134   10.5423    5.9098 H   0  0  0  0  0  0  0  0  0  0  0  0
    1.5201   10.8150    7.5607 H   0  0  0  0  0  0  0  0  0  0  0  0
    0.1765    8.7366    7.2389 H   0  0  0  0  0  0  0  0  0  0  0  0
   -0.6098    9.8399    8.3364 H   0  0  0  0  0  0  0  0  0  0  0  0
   -2.2009    8.8544    6.8033 H   0  0  0  0  0  0  0  0  0  0  0  0
   -2.2174   10.5729    6.5748 H   0  0  0  0  0  0  0  0  0  0  0  0
   -0.4670    8.7611    4.8813 H   0  0  0  0  0  0  0  0  0  0  0  0
    0.0494   11.2011    4.4528 H   0  0  0  0  0  0  0  0  0  0  0  0
   -0.6735   10.5191    3.0889 H   0  0  0  0  0  0  0  0  0  0  0  0
   -1.6710   11.4976    4.1736 H   0  0  0  0  0  0  0  0  0  0  0  0
   -2.8854    8.1207    4.8691 H   0  0  0  0  0  0  0  0  0  0  0  0
   -3.3230    9.6822    4.2324 H   0  0  0  0  0  0  0  0  0  0  0  0
   -3.1675    8.1730    2.3228 H   0  0  0  0  0  0  0  0  0  0  0  0
   -1.8920    9.3092    2.1808 H   0  0  0  0  0  0  0  0  0  0  0  0
   -1.0042    7.1548    1.6704 H   0  0  0  0  0  0  0  0  0  0  0  0
   -0.2401    7.6627    3.1378 H   0  0  0  0  0  0  0  0  0  0  0  0
   -1.3057    6.1467    4.4908 H   0  0  0  0  0  0  0  0  0  0  0  0
   -0.7084    5.0352    1.7712 H   0  0  0  0  0  0  0  0  0  0  0  0
   -0.0720    4.5806    3.3586 H   0  0  0  0  0  0  0  0  0  0  0  0
   -1.6298    3.9661    2.8066 H   0  0  0  0  0  0  0  0  0  0  0  0
   -3.7057    6.7483    3.8816 H   0  0  0  0  0  0  0  0  0  0  0  0
   -3.5712    5.7784    2.4492 H   0  0  0  0  0  0  0  0  0  0  0  0
   -4.8023    4.7798    4.3727 H   0  0  0  0  0  0  0  0  0  0  0  0
   -3.4243    3.7590    3.9495 H   0  0  0  0  0  0  0  0  0  0  0  0
   -2.2737    4.7907    5.6756 H   0  0  0  0  0  0  0  0  0  0  0  0
  1  2  1  0  0  0  0
  1 22  1  0  0  0  0
  1 23  1  0  0  0  0
  1 24  1  0  0  0  0
  2  3  1  0  0  0  0
  2  4  1  0  0  0  0
  2 25  1  0  0  0  0
  3 26  1  0  0  0  0
  3 27  1  0  0  0  0
  3 28  1  0  0  0  0
  4  5  1  0  0  0  0
  4 29  1  0  0  0  0
  4 30  1  0  0  0  0
  5  6  1  0  0  0  0
  5 31  1  0  0  0  0
  5 32  1  0  0  0  0
  6 33  1  0  0  0  0
  6 34  1  0  0  0  0
  7  9  1  0  0  0  0
  7 35  1  6  0  0  0
  7  8  1  0  0  0  0
  7  6  1  0  0  0  0
  8 36  1  0  0  0  0
  8 37  1  0  0  0  0
  8 38  1  0  0  0  0
  9 10  1  0  0  0  0
  9 39  1  0  0  0  0
  9 40  1  0  0  0  0
 10 11  1  0  0  0  0
 10 41  1  0  0  0  0
 10 42  1  0  0  0  0
 11 43  1  0  0  0  0
 11 44  1  0  0  0  0
 12 14  1  0  0  0  0
 12 45  1  6  0  0  0
 12 13  1  0  0  0  0
 12 11  1  0  0  0  0
 13 46  1  0  0  0  0
 13 47  1  0  0  0  0
 13 48  1  0  0  0  0
 14 15  1  0  0  0  0
 14 49  1  0  0  0  0
 14 50  1  0  0  0  0
 15 16  1  0  0  0  0
 15 51  1  0  0  0  0
 15 52  1  0  0  0  0
 16 53  1  0  0  0  0
 16 54  1  0  0  0  0
 17 19  1  0  0  0  0
 17 55  1  1  0  0  0
 17 18  1  0  0  0  0
 17 16  1  0  0  0  0
 18 56  1  0  0  0  0
 18 57  1  0  0  0  0
 18 58  1  0  0  0  0
 19 20  1  0  0  0  0
 19 59  1  0  0  0  0
 19 60  1  0  0  0  0
 20 21  1  0  0  0  0
 20 61  1  0  0  0  0
 20 62  1  0  0  0  0
 21 63  1  0  0  0  0
M  END
>  <DRUGBANK_ID>
DB01637

>  <SECONDARY_ACCESSION_NUMBERS>
EXPT00556

>  <COMMON_NAME>
3,7,11,15-tetramethyl-hexadecan-1-ol

$$$$
