
 OpenBabel10282417123D

 72 74  0  0  0  0  0  0  0  0999 V2000
    1.0104    0.0380    0.1219 C   0  0  0  0  0  0  0  0  0  0  0  0
    0.5680   -0.3915    1.5267 C   0  0  0  0  0  0  0  0  0  0  0  0
    1.1464    0.5153    2.5917 C   0  0  0  0  0  0  0  0  0  0  0  0
   -0.9240   -0.4970    1.6760 C   0  0  0  0  0  0  0  0  0  0  0  0
   -1.7354   -1.5951    1.4786 C   0  0  0  0  0  0  0  0  0  0  0  0
   -3.0869   -1.2439    1.4250 N   0  0  0  0  0  0  0  0  0  0  0  0
   -3.2962   -0.0007    1.7251 C   0  0  0  0  0  0  0  0  0  0  0  0
   -4.5052    0.6051    1.5221 N   0  0  0  0  0  0  0  0  0  0  0  0
   -4.8203    1.9267    1.3303 C   0  0  0  0  0  0  0  0  0  0  0  0
   -6.0131    2.2307    1.3960 O   0  0  0  0  0  0  0  0  0  0  0  0
   -3.7984    2.9293    1.0966 C   0  0  0  0  0  0  0  0  0  0  0  0
   -3.8470    4.2220    1.5916 C   0  0  0  0  0  0  0  0  0  0  0  0
   -2.5241    4.7190    1.6573 C   0  0  0  0  0  0  0  0  0  0  0  0
   -2.0041    5.7407    2.4420 N   0  0  0  0  0  0  0  0  0  0  0  0
   -2.5999    6.4416    3.4842 C   0  0  0  0  0  0  0  0  0  0  0  0
   -2.0259    7.4498    3.9025 O   0  0  0  0  0  0  0  0  0  0  0  0
   -3.8739    6.0124    4.0422 C   0  0  0  0  0  0  0  0  0  0  0  0
   -4.9873    6.8296    4.2299 C   0  0  0  0  0  0  0  0  0  0  0  0
   -6.0802    6.0316    4.6383 C   0  0  0  0  0  0  0  0  0  0  0  0
   -7.3946    6.3916    4.8705 N   0  0  0  0  0  0  0  0  0  0  0  0
   -7.8890    7.6651    4.7954 C   0  0  0  0  0  0  0  0  0  0  0  0
   -9.0531    7.9541    5.0509 O   0  0  0  0  0  0  0  0  0  0  0  0
   -5.5993    4.7461    4.7517 C   0  0  0  0  0  0  0  0  0  0  0  0
   -4.2406    4.7503    4.4910 N   0  0  0  0  0  0  0  0  0  0  0  0
   -3.4156    3.5585    4.5501 C   0  0  0  0  0  0  0  0  0  0  0  0
   -1.8020    3.9225    0.7909 C   0  0  0  0  0  0  0  0  0  0  0  0
   -2.6219    2.8828    0.3776 N   0  0  0  0  0  0  0  0  0  0  0  0
   -2.2784    1.9008   -0.6275 C   0  0  0  0  0  0  0  0  0  0  0  0
   -1.9269    0.7154    2.4280 S   0  0  0  0  0  0  0  0  0  0  0  0
   -1.2320   -2.9723    1.3492 C   0  0  0  0  0  0  0  0  0  0  0  0
   -0.0562   -3.2872    1.3628 O   0  0  0  0  0  0  0  0  0  0  0  0
   -2.1542   -3.9760    1.2790 N   0  0  0  0  0  0  0  0  0  0  0  0
   -3.5871   -3.8434    1.2583 C   0  0  0  0  0  0  0  0  0  0  0  0
   -4.2061   -4.6627    0.1683 C   0  0  0  0  0  0  0  0  0  0  0  0
   -3.8919   -6.1414    0.2364 C   0  0  0  0  0  0  0  0  0  0  0  0
   -4.4346   -6.8246    1.4233 N   0  0  0  0  0  0  0  0  0  0  0  0
   -4.1477   -8.2511    1.3148 C   0  0  0  0  0  0  0  0  0  0  0  0
   -3.8921   -6.3829    2.7092 C   0  0  0  0  0  0  0  0  0  0  0  0
    0.6757    1.0498   -0.1242 H   0  0  0  0  0  0  0  0  0  0  0  0
    0.6414   -0.6387   -0.6596 H   0  0  0  0  0  0  0  0  0  0  0  0
    2.1061    0.0298    0.0587 H   0  0  0  0  0  0  0  0  0  0  0  0
    1.0173   -1.3732    1.6908 H   0  0  0  0  0  0  0  0  0  0  0  0
    0.8203    1.5490    2.4399 H   0  0  0  0  0  0  0  0  0  0  0  0
    0.8059    0.1805    3.5782 H   0  0  0  0  0  0  0  0  0  0  0  0
    2.2356    0.4858    2.5723 H   0  0  0  0  0  0  0  0  0  0  0  0
   -5.2970   -0.0154    1.4001 H   0  0  0  0  0  0  0  0  0  0  0  0
   -4.7162    4.5883    2.1146 H   0  0  0  0  0  0  0  0  0  0  0  0
   -1.0652    6.0644    2.2413 H   0  0  0  0  0  0  0  0  0  0  0  0
   -5.0064    7.8885    4.0031 H   0  0  0  0  0  0  0  0  0  0  0  0
   -8.0598    5.6799    5.1453 H   0  0  0  0  0  0  0  0  0  0  0  0
   -7.1596    8.4299    4.4906 H   0  0  0  0  0  0  0  0  0  0  0  0
   -6.1041    3.8170    4.9820 H   0  0  0  0  0  0  0  0  0  0  0  0
   -2.9974    3.3094    3.5865 H   0  0  0  0  0  0  0  0  0  0  0  0
   -2.5724    3.7138    5.2193 H   0  0  0  0  0  0  0  0  0  0  0  0
   -4.0287    2.6986    4.8296 H   0  0  0  0  0  0  0  0  0  0  0  0
   -0.7686    3.9587    0.4719 H   0  0  0  0  0  0  0  0  0  0  0  0
   -2.2272    0.8971   -0.2248 H   0  0  0  0  0  0  0  0  0  0  0  0
   -3.0588    1.8970   -1.3862 H   0  0  0  0  0  0  0  0  0  0  0  0
   -1.2943    2.1266   -1.0342 H   0  0  0  0  0  0  0  0  0  0  0  0
   -1.7243   -4.8888    1.3844 H   0  0  0  0  0  0  0  0  0  0  0  0
   -3.9477   -3.9254    2.2774 H   0  0  0  0  0  0  0  0  0  0  0  0
   -3.9518   -2.8741    0.9895 H   0  0  0  0  0  0  0  0  0  0  0  0
   -5.2862   -4.4847    0.1670 H   0  0  0  0  0  0  0  0  0  0  0  0
   -3.8266   -4.2576   -0.7833 H   0  0  0  0  0  0  0  0  0  0  0  0
   -4.3365   -6.5746   -0.6708 H   0  0  0  0  0  0  0  0  0  0  0  0
   -2.8094   -6.3004    0.1367 H   0  0  0  0  0  0  0  0  0  0  0  0
   -3.0672   -8.4338    1.2985 H   0  0  0  0  0  0  0  0  0  0  0  0
   -4.5781   -8.7714    2.1756 H   0  0  0  0  0  0  0  0  0  0  0  0
   -4.6023   -8.6737    0.4162 H   0  0  0  0  0  0  0  0  0  0  0  0
   -2.7983   -6.3138    2.6996 H   0  0  0  0  0  0  0  0  0  0  0  0
   -4.3428   -5.4518    3.0346 H   0  0  0  0  0  0  0  0  0  0  0  0
   -4.1862   -7.0453    3.5268 H   0  0  0  0  0  0  0  0  0  0  0  0
  1  2  1  0  0  0  0
  1 39  1  0  0  0  0
  1 40  1  0  0  0  0
  1 41  1  0  0  0  0
  2  3  1  0  0  0  0
  2  4  1  0  0  0  0
  2 42  1  0  0  0  0
  3 43  1  0  0  0  0
  3 44  1  0  0  0  0
  3 45  1  0  0  0  0
  4  5  2  0  0  0  0
  4 29  1  0  0  0  0
  5  6  1  0  0  0  0
  5 30  1  0  0  0  0
  6  7  2  0  0  0  0
  7  8  1  0  0  0  0
  7 29  1  0  0  0  0
  8  9  1  0  0  0  0
  8 46  1  0  0  0  0
  9 10  2  0  0  0  0
  9 11  1  0  0  0  0
 11 12  2  0  0  0  0
 11 27  1  0  0  0  0
 12 13  1  0  0  0  0
 12 47  1  0  0  0  0
 13 14  1  0  0  0  0
 13 26  2  0  0  0  0
 14 15  1  0  0  0  0
 14 48  1  0  0  0  0
 15 16  2  0  0  0  0
 15 17  1  0  0  0  0
 17 18  2  0  0  0  0
 17 24  1  0  0  0  0
 18 19  1  0  0  0  0
 18 49  1  0  0  0  0
 19 20  1  0  0  0  0
 19 23  2  0  0  0  0
 20 21  1  0  0  0  0
 20 50  1  0  0  0  0
 21 22  2  0  0  0  0
 21 51  1  0  0  0  0
 23 24  1  0  0  0  0
 23 52  1  0  0  0  0
 24 25  1  0  0  0  0
 25 53  1  0  0  0  0
 25 54  1  0  0  0  0
 25 55  1  0  0  0  0
 26 27  1  0  0  0  0
 26 56  1  0  0  0  0
 27 28  1  0  0  0  0
 28 57  1  0  0  0  0
 28 58  1  0  0  0  0
 28 59  1  0  0  0  0
 30 31  2  0  0  0  0
 30 32  1  0  0  0  0
 32 33  1  0  0  0  0
 32 60  1  0  0  0  0
 33 34  1  0  0  0  0
 33 61  1  0  0  0  0
 33 62  1  0  0  0  0
 34 35  1  0  0  0  0
 34 63  1  0  0  0  0
 34 64  1  0  0  0  0
 35 36  1  0  0  0  0
 35 65  1  0  0  0  0
 35 66  1  0  0  0  0
 36 37  1  0  0  0  0
 36 38  1  0  0  0  0
 37 67  1  0  0  0  0
 37 68  1  0  0  0  0
 37 69  1  0  0  0  0
 38 70  1  0  0  0  0
 38 71  1  0  0  0  0
 38 72  1  0  0  0  0
M  END
>  <DRUGBANK_ID>
DB02295

>  <SECONDARY_ACCESSION_NUMBERS>
EXPT00474

>  <COMMON_NAME>
N-[3-(Dimethylamino)Propyl]-2-({[4-({[4-(Formylamino)-1-Methyl-1h-Pyrrol-2-Yl]Carbonyl}Amino)-1-Methyl-1h-Pyrrol-2-Yl]Carbonyl}Amino)-5-Isopropyl-1,3-Thiazole-4-Carboxamide

$$$$
