
 OpenBabel10282417143D

 20 19  0  0  0  0  0  0  0  0999 V2000
    1.0615   -0.0278    0.0666 C   0  0  0  0  0  0  0  0  0  0  0  0
    0.5293    0.5712   -1.2429 C   0  0  0  0  0  0  0  0  0  0  0  0
    1.0615   -0.0440   -2.5448 C   0  0  0  0  0  0  0  0  0  0  0  0
    0.5330   -1.3875    0.4508 C   0  0  0  0  0  0  0  0  0  0  0  0
   -0.4780   -1.6200    1.0793 O   0  0  0  0  0  0  0  0  0  0  0  0
    1.2808   -2.3955   -0.0201 O   0  0  0  0  0  0  0  0  0  0  0  0
   -0.9755    0.6965   -1.2436 C   0  0  0  0  0  0  0  0  0  0  0  0
   -1.6015    1.7426   -1.2501 O   0  0  0  0  0  0  0  0  0  0  0  0
   -1.5974   -0.4911   -1.2362 O   0  0  0  0  0  0  0  0  0  0  0  0
    0.5330   -1.4084   -2.9120 C   0  0  0  0  0  0  0  0  0  0  0  0
   -0.4780   -1.6487   -3.5376 O   0  0  0  0  0  0  0  0  0  0  0  0
    1.2807   -2.4105   -2.4286 O   0  0  0  0  0  0  0  0  0  0  0  0
    0.7873    0.6291    0.9022 H   0  0  0  0  0  0  0  0  0  0  0  0
    2.1577   -0.0500    0.0542 H   0  0  0  0  0  0  0  0  0  0  0  0
    0.8949    1.6121   -1.2493 H   0  0  0  0  0  0  0  0  0  0  0  0
    0.7873    0.6023   -3.3885 H   0  0  0  0  0  0  0  0  0  0  0  0
    2.1577   -0.0661   -2.5321 H   0  0  0  0  0  0  0  0  0  0  0  0
    0.6759   -3.1649   -0.0231 H   0  0  0  0  0  0  0  0  0  0  0  0
   -2.5590   -0.3052   -1.2374 H   0  0  0  0  0  0  0  0  0  0  0  0
    0.6758   -3.1798   -2.4160 H   0  0  0  0  0  0  0  0  0  0  0  0
  1 13  1  0  0  0  0
  1 14  1  0  0  0  0
  2  1  1  0  0  0  0
  2 15  1  0  0  0  0
  3  2  1  0  0  0  0
  3 16  1  0  0  0  0
  3 17  1  0  0  0  0
  4  1  1  0  0  0  0
  5  4  2  0  0  0  0
  6  4  1  0  0  0  0
  6 18  1  0  0  0  0
  7  2  1  0  0  0  0
  8  7  2  0  0  0  0
  9  7  1  0  0  0  0
  9 19  1  0  0  0  0
 10  3  1  0  0  0  0
 11 10  2  0  0  0  0
 12 10  1  0  0  0  0
 12 20  1  0  0  0  0
M  END
>  <DRUGBANK_ID>
DB04562

>  <SECONDARY_ACCESSION_NUMBERS>
EXPT03105

>  <COMMON_NAME>
Tricarballylic acid

>  <CAS_NUMBER>
99-14-9

>  <UNII>
RA5QH2J020

>  <SYNONYMS>
1,2,3-propanetricarboxylic acid; 3-carboxyglutaric acid; 3-carboxypentanedioic acid; Carballylic acid; Carboxymethylsuccinic acid; Î²-carboxyglutaric acid

$$$$
