678
 OpenBabel10282417103D

 53 56  0  0  0  0  0  0  0  0999 V2000
    1.4008   -0.2740   -0.0489 Cl  0  0  0  0  0  0  0  0  0  0  0  0
    2.9762   -3.0811    0.9796 O   0  0  0  0  0  0  0  0  0  0  0  0
    5.2690   -0.5815   -0.0075 N   0  0  0  0  0  0  0  0  0  0  0  0
    3.7288    1.0148    0.1266 N   0  0  0  0  0  0  0  0  0  0  0  0
    8.4830   -6.1708    1.4392 N   0  0  0  0  0  0  0  0  0  0  0  0
    6.8320   -7.4253    2.3438 N   0  0  0  0  0  0  0  0  0  0  0  0
    7.6705   -6.7384    0.5359 N   0  0  0  0  0  0  0  0  0  0  0  0
    6.6918   -7.5065    1.0267 N   0  0  0  0  0  0  0  0  0  0  0  0
    5.0189    0.7867    0.0263 C   0  0  0  0  0  0  0  0  0  0  0  0
    6.0261    1.9026   -0.0361 C   0  0  0  0  0  0  0  0  0  0  0  0
    6.6415   -1.1110   -0.0391 C   0  0  0  0  0  0  0  0  0  0  0  0
    5.8068    2.8099   -1.2583 C   0  0  0  0  0  0  0  0  0  0  0  0
    4.0101   -1.2182   -0.0747 C   0  0  0  0  0  0  0  0  0  0  0  0
    7.0314   -1.8916    1.1820 C   0  0  0  0  0  0  0  0  0  0  0  0
    4.4303    3.4822   -1.3111 C   0  0  0  0  0  0  0  0  0  0  0  0
    3.1016   -0.1778    0.0086 C   0  0  0  0  0  0  0  0  0  0  0  0
    3.6036   -2.6500   -0.2302 C   0  0  0  0  0  0  0  0  0  0  0  0
    6.2981   -3.0312    1.4550 C   0  0  0  0  0  0  0  0  0  0  0  0
    8.1471   -1.6438    1.9899 C   0  0  0  0  0  0  0  0  0  0  0  0
    7.6815   -3.6990    3.2443 C   0  0  0  0  0  0  0  0  0  0  0  0
    6.5389   -3.8848    2.4879 C   0  0  0  0  0  0  0  0  0  0  0  0
    8.4885   -2.5760    2.9790 C   0  0  0  0  0  0  0  0  0  0  0  0
    4.1493    4.3085   -0.0647 C   0  0  0  0  0  0  0  0  0  0  0  0
    8.0459   -4.7013    4.2325 C   0  0  0  0  0  0  0  0  0  0  0  0
    8.2095   -6.0738    3.9119 C   0  0  0  0  0  0  0  0  0  0  0  0
    8.2495   -4.2682    5.5531 C   0  0  0  0  0  0  0  0  0  0  0  0
    8.6477   -6.9542    4.9029 C   0  0  0  0  0  0  0  0  0  0  0  0
    8.7360   -5.1415    6.5114 C   0  0  0  0  0  0  0  0  0  0  0  0
    7.9042   -6.5901    2.5783 C   0  0  0  0  0  0  0  0  0  0  0  0
    8.9381   -6.4810    6.1876 C   0  0  0  0  0  0  0  0  0  0  0  0
    3.5189   -2.8381    1.7489 H   0  0  0  0  0  0  0  0  0  0  0  0
    7.7728   -6.5756   -0.4616 H   0  0  0  0  0  0  0  0  0  0  0  0
    5.9487    2.4809    0.8903 H   0  0  0  0  0  0  0  0  0  0  0  0
    7.0643    1.5718   -0.0609 H   0  0  0  0  0  0  0  0  0  0  0  0
    6.7507   -1.7107   -0.9479 H   0  0  0  0  0  0  0  0  0  0  0  0
    7.3494   -0.2888   -0.1475 H   0  0  0  0  0  0  0  0  0  0  0  0
    6.5758    3.5934   -1.2528 H   0  0  0  0  0  0  0  0  0  0  0  0
    5.9608    2.2327   -2.1795 H   0  0  0  0  0  0  0  0  0  0  0  0
    4.3706    4.1231   -2.1971 H   0  0  0  0  0  0  0  0  0  0  0  0
    3.6421    2.7358   -1.4495 H   0  0  0  0  0  0  0  0  0  0  0  0
    2.8525   -2.7610   -1.0167 H   0  0  0  0  0  0  0  0  0  0  0  0
    4.3707   -3.3634   -0.5253 H   0  0  0  0  0  0  0  0  0  0  0  0
    5.5145   -3.3364    0.8065 H   0  0  0  0  0  0  0  0  0  0  0  0
    8.7890   -0.7783    1.8437 H   0  0  0  0  0  0  0  0  0  0  0  0
    5.8866   -4.7453    2.6060 H   0  0  0  0  0  0  0  0  0  0  0  0
    9.4236   -2.4589    3.5295 H   0  0  0  0  0  0  0  0  0  0  0  0
    4.8668    5.1306    0.0130 H   0  0  0  0  0  0  0  0  0  0  0  0
    3.1393    4.7232   -0.0997 H   0  0  0  0  0  0  0  0  0  0  0  0
    4.2166    3.7153    0.8522 H   0  0  0  0  0  0  0  0  0  0  0  0
    8.0338   -3.2345    5.8211 H   0  0  0  0  0  0  0  0  0  0  0  0
    8.7954   -8.0070    4.6736 H   0  0  0  0  0  0  0  0  0  0  0  0
    8.9701   -4.7668    7.5041 H   0  0  0  0  0  0  0  0  0  0  0  0
    9.3197   -7.1610    6.9423 H   0  0  0  0  0  0  0  0  0  0  0  0
  1 16  1  0  0  0  0
  2 17  1  0  0  0  0
  2 31  1  0  0  0  0
  3  9  1  0  0  0  0
  3 11  1  0  0  0  0
  3 13  1  0  0  0  0
  4  9  2  0  0  0  0
  4 16  1  0  0  0  0
  5  7  1  0  0  0  0
  5 29  2  0  0  0  0
  6  8  2  0  0  0  0
  6 29  1  0  0  0  0
  7  8  1  0  0  0  0
  7 32  1  0  0  0  0
  9 10  1  0  0  0  0
 10 12  1  0  0  0  0
 10 33  1  0  0  0  0
 10 34  1  0  0  0  0
 11 14  1  0  0  0  0
 11 35  1  0  0  0  0
 11 36  1  0  0  0  0
 12 15  1  0  0  0  0
 12 37  1  0  0  0  0
 12 38  1  0  0  0  0
 13 16  2  0  0  0  0
 13 17  1  0  0  0  0
 14 18  2  0  0  0  0
 14 19  1  0  0  0  0
 15 23  1  0  0  0  0
 15 39  1  0  0  0  0
 15 40  1  0  0  0  0
 17 41  1  0  0  0  0
 17 42  1  0  0  0  0
 18 21  1  0  0  0  0
 18 43  1  0  0  0  0
 19 22  2  0  0  0  0
 19 44  1  0  0  0  0
 20 21  2  0  0  0  0
 20 22  1  0  0  0  0
 20 24  1  0  0  0  0
 21 45  1  0  0  0  0
 22 46  1  0  0  0  0
 23 47  1  0  0  0  0
 23 48  1  0  0  0  0
 23 49  1  0  0  0  0
 24 25  1  0  0  0  0
 24 26  2  0  0  0  0
 25 27  2  0  0  0  0
 25 29  1  0  0  0  0
 26 28  1  0  0  0  0
 26 50  1  0  0  0  0
 27 30  1  0  0  0  0
 27 51  1  0  0  0  0
 28 30  2  0  0  0  0
 28 52  1  0  0  0  0
 30 53  1  0  0  0  0
M  END
>  <DRUGBANK_ID>
DB00678

>  <SECONDARY_ACCESSION_NUMBERS>
APRD00052

>  <COMMON_NAME>
Losartan

>  <CAS_NUMBER>
114798-26-4

>  <UNII>
JMS50MPO89

>  <SYNONYMS>
(2-butyl-4-chloro-1-{[2'-(1H-tetrazol-5-yl)biphenyl-4-yl]methyl}-1H-imidazol-5-yl)methanol; 2-n-butyl-4-chloro-5-hydroxymethyl-1-[(2'-(1H-tetrazol-5-yl)biphenyl-4-yl)methyl]imidazole; Losartan

$$$$
