
 OpenBabel10282417193D

 36 37  0  0  1  0  0  0  0  0999 V2000
    0.7030    1.2470   -0.2550 B   0  0  0  0  0  0  0  0  0  0  0  0
    1.4460   -0.0010    0.2330 C   0  0  2  0  0  0  0  0  0  0  0  0
    0.7020   -1.2480   -0.2550 C   0  0  0  0  0  0  0  0  0  0  0  0
   -0.7430   -1.1990    0.2470 C   0  0  0  0  0  0  0  0  0  0  0  0
   -1.3670    0.0000   -0.2160 C   0  0  2  0  0  0  0  0  0  0  0  0
   -0.7420    1.1990    0.2470 O   0  0  0  0  0  0  0  0  0  0  0  0
   -2.8111    0.0005    0.2583 C   0  0  0  0  0  0  0  0  0  0  0  0
   -3.5159    1.2416   -0.2645 C   0  0  0  0  0  0  0  0  0  0  0  0
   -4.5325    1.1251   -1.0182 O   0  0  0  0  0  0  0  0  0  0  0  0
   -3.0384    2.5313    0.0893 O   0  0  0  0  0  0  0  0  0  0  0  0
    1.4969   -0.0011    1.7021 N   0  0  0  0  0  0  0  0  0  0  0  0
    0.2501   -0.0018    2.4808 C   0  0  0  0  0  0  0  0  0  0  0  0
    0.2941   -0.0023    3.7509 O   0  0  0  0  0  0  0  0  0  0  0  0
   -1.0918   -0.0020    1.7668 C   0  0  0  0  0  0  0  0  0  0  0  0
   -1.2030    1.2394    0.8968 C   0  0  0  0  0  0  0  0  0  0  0  0
   -1.3669    1.2682   -0.4688 C   0  0  0  0  0  0  0  0  0  0  0  0
   -1.4632    2.5693   -0.9738 C   0  0  0  0  0  0  0  0  0  0  0  0
   -1.3689    3.5176   -0.0030 C   0  0  0  0  0  0  0  0  0  0  0  0
   -1.1758    2.8285    1.5615 S   0  0  0  0  0  0  0  0  0  0  0  0
    1.2971    2.3413   -1.0914 O   0  0  0  0  0  0  0  0  0  0  0  0
    2.4438   -0.0014   -0.1533 H   0  0  0  0  0  0  0  0  0  0  0  0
    0.7107   -1.2769   -1.3246 H   0  0  0  0  0  0  0  0  0  0  0  0
    1.1838   -2.1243    0.1256 H   0  0  0  0  0  0  0  0  0  0  0  0
   -1.2791   -2.0470   -0.1251 H   0  0  0  0  0  0  0  0  0  0  0  0
   -0.7497   -1.2145    1.3169 H   0  0  0  0  0  0  0  0  0  0  0  0
   -1.2825   -0.0001   -1.2827 H   0  0  0  0  0  0  0  0  0  0  0  0
   -3.3075   -0.8731   -0.1095 H   0  0  0  0  0  0  0  0  0  0  0  0
   -2.8352    0.0006    1.3280 H   0  0  0  0  0  0  0  0  0  0  0  0
   -3.5021    3.3478   -0.2547 H   0  0  0  0  0  0  0  0  0  0  0  0
    2.3974   -0.0010    2.1812 H   0  0  0  0  0  0  0  0  0  0  0  0
   -1.1695   -0.8754    1.1537 H   0  0  0  0  0  0  0  0  0  0  0  0
   -1.8805   -0.0025    2.4899 H   0  0  0  0  0  0  0  0  0  0  0  0
   -1.4154    0.3904   -1.0787 H   0  0  0  0  0  0  0  0  0  0  0  0
   -1.5966    2.7942   -2.0114 H   0  0  0  0  0  0  0  0  0  0  0  0
   -1.4100    4.5702   -0.1907 H   0  0  0  0  0  0  0  0  0  0  0  0
    2.2559    2.1314   -1.2827 H   0  0  0  0  0  0  0  0  0  0  0  0
  1  2  1  0  0  0  0
  1  6  1  0  0  0  0
  1 20  1  0  0  0  0
  2  3  1  0  0  0  0
  2 21  1  6  0  0  0
  2 11  1  0  0  0  0
  3  4  1  0  0  0  0
  3 22  1  0  0  0  0
  3 23  1  0  0  0  0
  4  5  1  0  0  0  0
  4 24  1  0  0  0  0
  4 25  1  0  0  0  0
  5  6  1  0  0  0  0
  5 26  1  6  0  0  0
  5  7  1  0  0  0  0
  7  8  1  0  0  0  0
  7 27  1  0  0  0  0
  7 28  1  0  0  0  0
  8  9  2  0  0  0  0
  8 10  1  0  0  0  0
 10 29  1  0  0  0  0
 11 12  1  0  0  0  0
 11 30  1  0  0  0  0
 12 13  2  0  0  0  0
 12 14  1  0  0  0  0
 14 15  1  0  0  0  0
 14 31  1  0  0  0  0
 14 32  1  0  0  0  0
 15 16  2  0  0  0  0
 15 19  1  0  0  0  0
 16 17  1  0  0  0  0
 16 33  1  0  0  0  0
 17 18  2  0  0  0  0
 17 34  1  0  0  0  0
 18 19  1  0  0  0  0
 18 35  1  0  0  0  0
 20 36  1  0  0  0  0
M  END
>  <DRUGBANK_ID>
DB12107

>  <COMMON_NAME>
Vaborbactam

>  <CAS_NUMBER>
1360457-46-0

>  <UNII>
1C75676F8V

>  <SYNONYMS>
Vaborbactam

$$$$
