
 OpenBabel10282417203D

 39 40  0  0  0  0  0  0  0  0999 V2000
    1.0500   -0.0240   -0.1804 C   0  0  0  0  0  0  0  0  0  0  0  0
    0.6000   -1.0536    0.8440 C   0  0  0  0  0  0  0  0  0  0  0  0
    1.0861   -0.6748    2.2441 C   0  0  0  0  0  0  0  0  0  0  0  0
    0.5382    0.6837    2.6908 C   0  0  0  0  0  0  0  0  0  0  0  0
   -0.9946    0.7026    2.6805 C   0  0  0  0  0  0  0  0  0  0  0  0
   -1.5571   -0.2569    3.7340 C   0  0  0  0  0  0  0  0  0  0  0  0
   -1.0765    0.0212    5.0872 N   0  0  0  0  0  0  0  0  0  0  0  0
   -0.6325   -1.0763    5.8536 C   0  0  0  0  0  0  0  0  0  0  0  0
   -0.6224   -2.2211    5.3910 O   0  0  0  0  0  0  0  0  0  0  0  0
   -0.2093   -0.8178    7.1603 N   0  0  0  0  0  0  0  0  0  0  0  0
    0.2174   -1.9221    7.9979 C   0  0  0  0  0  0  0  0  0  0  0  0
   -0.2193    0.4754    7.6321 C   0  0  0  0  0  0  0  0  0  0  0  0
    0.1457    0.9143    8.8704 N   0  0  0  0  0  0  0  0  0  0  0  0
   -0.0470    2.2223    8.8327 C   0  0  0  0  0  0  0  0  0  0  0  0
   -0.5110    2.6304    7.6120 N   0  0  0  0  0  0  0  0  0  0  0  0
   -0.8184    3.9789    7.1991 C   0  0  0  0  0  0  0  0  0  0  0  0
   -0.6434    1.5063    6.8534 C   0  0  0  0  0  0  0  0  0  0  0  0
   -1.1288    1.3413    5.5416 C   0  0  0  0  0  0  0  0  0  0  0  0
   -1.5481    2.3041    4.8980 O   0  0  0  0  0  0  0  0  0  0  0  0
    0.6566    0.9742    0.0382 H   0  0  0  0  0  0  0  0  0  0  0  0
    0.6970   -0.2908   -1.1776 H   0  0  0  0  0  0  0  0  0  0  0  0
    2.1421    0.0394   -0.1892 H   0  0  0  0  0  0  0  0  0  0  0  0
   -0.4916   -1.1474    0.8176 H   0  0  0  0  0  0  0  0  0  0  0  0
    0.9825   -2.0432    0.5783 H   0  0  0  0  0  0  0  0  0  0  0  0
    0.7937   -1.4566    2.9547 H   0  0  0  0  0  0  0  0  0  0  0  0
    2.1810   -0.6504    2.2674 H   0  0  0  0  0  0  0  0  0  0  0  0
    0.9311    0.9208    3.6862 H   0  0  0  0  0  0  0  0  0  0  0  0
    0.9140    1.4873    2.0495 H   0  0  0  0  0  0  0  0  0  0  0  0
   -1.3459    1.7254    2.8231 H   0  0  0  0  0  0  0  0  0  0  0  0
   -1.4028    0.4439    1.6993 H   0  0  0  0  0  0  0  0  0  0  0  0
   -2.6503   -0.2173    3.7488 H   0  0  0  0  0  0  0  0  0  0  0  0
   -1.3054   -1.2827    3.4390 H   0  0  0  0  0  0  0  0  0  0  0  0
    1.2516   -1.7613    8.3142 H   0  0  0  0  0  0  0  0  0  0  0  0
   -0.4415   -1.9868    8.8683 H   0  0  0  0  0  0  0  0  0  0  0  0
    0.1683   -2.8768    7.4648 H   0  0  0  0  0  0  0  0  0  0  0  0
    0.1287    2.9123    9.6480 H   0  0  0  0  0  0  0  0  0  0  0  0
   -0.1779    4.2416    6.3515 H   0  0  0  0  0  0  0  0  0  0  0  0
   -1.8713    4.0265    6.9068 H   0  0  0  0  0  0  0  0  0  0  0  0
   -0.6361    4.6695    8.0249 H   0  0  0  0  0  0  0  0  0  0  0  0
  1  2  1  0  0  0  0
  1 20  1  0  0  0  0
  1 21  1  0  0  0  0
  1 22  1  0  0  0  0
  2  3  1  0  0  0  0
  2 23  1  0  0  0  0
  2 24  1  0  0  0  0
  3  4  1  0  0  0  0
  3 25  1  0  0  0  0
  3 26  1  0  0  0  0
  4  5  1  0  0  0  0
  4 27  1  0  0  0  0
  4 28  1  0  0  0  0
  5  6  1  0  0  0  0
  5 29  1  0  0  0  0
  5 30  1  0  0  0  0
  6  7  1  0  0  0  0
  6 31  1  0  0  0  0
  6 32  1  0  0  0  0
  7  8  1  0  0  0  0
  7 18  1  0  0  0  0
  8  9  2  0  0  0  0
  8 10  1  0  0  0  0
 10 11  1  0  0  0  0
 10 12  1  0  0  0  0
 11 33  1  0  0  0  0
 11 34  1  0  0  0  0
 11 35  1  0  0  0  0
 12 13  1  0  0  0  0
 12 17  2  0  0  0  0
 13 14  2  0  0  0  0
 14 15  1  0  0  0  0
 14 36  1  0  0  0  0
 15 16  1  0  0  0  0
 15 17  1  0  0  0  0
 16 37  1  0  0  0  0
 16 38  1  0  0  0  0
 16 39  1  0  0  0  0
 17 18  1  0  0  0  0
 18 19  2  0  0  0  0
M  END
>  <DRUGBANK_ID>
DB13634

>  <COMMON_NAME>
Pentifylline

>  <CAS_NUMBER>
1028-33-7

>  <UNII>
MBM1C4K26S

>  <SYNONYMS>
Pentifylline

$$$$
