
 OpenBabel10282417243D

203 68  0  0  0  0  0  0  0  0999 V2000
    1.0631    0.0745    0.0218 N   0  3  0  0  0  0  0  0  0  0  0  0
    1.0299   -0.0926    0.0229 N   0  3  0  0  0  0  0  0  0  0  0  0
    1.0094   -0.0347   -0.0933 N   0  3  0  0  0  0  0  0  0  0  0  0
    0.9789   -0.0870   -0.0446 N   0  3  0  0  0  0  0  0  0  0  0  0
    0.9113    0.0064   -0.0456 N   0  3  0  0  0  0  0  0  0  0  0  0
    1.0845   -0.0081    0.0529 N   0  3  0  0  0  0  0  0  0  0  0  0
    1.0812   -0.0175    0.0557 N   0  3  0  0  0  0  0  0  0  0  0  0
    1.0006    0.0429    0.0903 N   0  3  0  0  0  0  0  0  0  0  0  0
    1.0355   -0.0405    0.0843 N   0  3  0  0  0  0  0  0  0  0  0  0
    0.9835   -0.0740   -0.0652 N   0  3  0  0  0  0  0  0  0  0  0  0
    1.0821   -0.0419    0.0388 N   0  3  0  0  0  0  0  0  0  0  0  0
    0.9875    0.0562    0.0818 N   0  3  0  0  0  0  0  0  0  0  0  0
    1.0827   -0.0384   -0.0411 N   0  3  0  0  0  0  0  0  0  0  0  0
    1.0666    0.0085    0.0741 N   0  3  0  0  0  0  0  0  0  0  0  0
    1.0269   -0.0604    0.0750 N   0  3  0  0  0  0  0  0  0  0  0  0
    0.9640    0.0451   -0.0816 N   0  3  0  0  0  0  0  0  0  0  0  0
    1.0736   -0.0513    0.0441 N   0  3  0  0  0  0  0  0  0  0  0  0
    0.9379    0.0561   -0.0548 O   0  6  0  0  0  0  0  0  0  0  0  0
    1.0605   -0.0343    0.0719 O   0  6  0  0  0  0  0  0  0  0  0  0
    0.9395   -0.0638   -0.0476 O   0  6  0  0  0  0  0  0  0  0  0  0
    0.9604   -0.0867   -0.0304 O   0  6  0  0  0  0  0  0  0  0  0  0
    0.9455   -0.0249    0.0801 O   0  6  0  0  0  0  0  0  0  0  0  0
    1.0520   -0.0706   -0.0481 O   0  6  0  0  0  0  0  0  0  0  0  0
    1.0544   -0.0472   -0.0694 O   0  6  0  0  0  0  0  0  0  0  0  0
    1.0666   -0.0675    0.0318 O   0  6  0  0  0  0  0  0  0  0  0  0
    0.9028    0.0099    0.0214 O   0  6  0  0  0  0  0  0  0  0  0  0
    1.0010   -0.0998   -0.0054 O   0  6  0  0  0  0  0  0  0  0  0  0
    0.9356   -0.0176    0.0745 O   0  6  0  0  0  0  0  0  0  0  0  0
    1.0099   -0.0929   -0.0356 O   0  6  0  0  0  0  0  0  0  0  0  0
    1.0413   -0.0394    0.0821 O   0  6  0  0  0  0  0  0  0  0  0  0
    0.9293    0.0375   -0.0599 O   0  6  0  0  0  0  0  0  0  0  0  0
    0.9616    0.0886    0.0259 O   0  6  0  0  0  0  0  0  0  0  0  0
    1.0079    0.0863    0.0499 O   0  6  0  0  0  0  0  0  0  0  0  0
    1.0752   -0.0656    0.0055 O   0  6  0  0  0  0  0  0  0  0  0  0
    1.0636    0.0633   -0.0442 O   0  6  0  0  0  0  0  0  0  0  0  0
    0.9771   -0.0145   -0.0963 O   0  6  0  0  0  0  0  0  0  0  0  0
    0.9835    0.0976   -0.0140 O   0  6  0  0  0  0  0  0  0  0  0  0
    1.0488    0.0559    0.0671 O   0  6  0  0  0  0  0  0  0  0  0  0
    1.0554   -0.0478   -0.0682 O   0  6  0  0  0  0  0  0  0  0  0  0
    0.9325   -0.0707    0.0209 O   0  6  0  0  0  0  0  0  0  0  0  0
    1.0790   -0.0502   -0.0352 O   0  6  0  0  0  0  0  0  0  0  0  0
    1.0196    0.0926   -0.0324 O   0  6  0  0  0  0  0  0  0  0  0  0
    0.9976    0.0185    0.0982 O   0  6  0  0  0  0  0  0  0  0  0  0
    1.0359   -0.0877   -0.0319 O   0  6  0  0  0  0  0  0  0  0  0  0
    1.0196   -0.0555   -0.0808 O   0  6  0  0  0  0  0  0  0  0  0  0
    0.9217   -0.0013   -0.0622 O   0  6  0  0  0  0  0  0  0  0  0  0
    1.0718    0.0693    0.0071 O   0  6  0  0  0  0  0  0  0  0  0  0
    1.0464    0.0550    0.0694 O   0  6  0  0  0  0  0  0  0  0  0  0
    0.9317    0.0603    0.0411 O   0  6  0  0  0  0  0  0  0  0  0  0
    0.9085    0.0111    0.0388 O   0  6  0  0  0  0  0  0  0  0  0  0
    0.9789    0.0762    0.0612 O   0  6  0  0  0  0  0  0  0  0  0  0
    0.9298   -0.0565    0.0434 O   0  6  0  0  0  0  0  0  0  0  0  0
    1.0475   -0.0756   -0.0451 O   0  6  0  0  0  0  0  0  0  0  0  0
    1.0815   -0.0174    0.0553 O   0  6  0  0  0  0  0  0  0  0  0  0
    0.9106    0.0379   -0.0239 O   0  6  0  0  0  0  0  0  0  0  0  0
    1.0268    0.0466    0.0843 O   0  6  0  0  0  0  0  0  0  0  0  0
    1.0153   -0.0356    0.0922 O   0  6  0  0  0  0  0  0  0  0  0  0
    0.9915   -0.0441    0.0893 O   0  6  0  0  0  0  0  0  0  0  0  0
    0.9788   -0.0833    0.0512 O   0  6  0  0  0  0  0  0  0  0  0  0
    1.0778    0.0409    0.0477 O   0  6  0  0  0  0  0  0  0  0  0  0
    1.0607    0.0059    0.0793 O   0  6  0  0  0  0  0  0  0  0  0  0
    0.9229   -0.0526   -0.0360 O   0  6  0  0  0  0  0  0  0  0  0  0
    0.9008   -0.0122    0.0030 O   0  6  0  0  0  0  0  0  0  0  0  0
    1.0199   -0.0791   -0.0579 O   0  6  0  0  0  0  0  0  0  0  0  0
    0.9412    0.0221   -0.0778 O   0  6  0  0  0  0  0  0  0  0  0  0
    1.0906    0.0154   -0.0394 O   0  6  0  0  0  0  0  0  0  0  0  0
    0.9579    0.0162    0.0893 O   0  6  0  0  0  0  0  0  0  0  0  0
    1.0903    0.0301    0.0305 O   0  6  0  0  0  0  0  0  0  0  0  0
    1.0271   -0.0393    0.0879 O   0  6  0  0  0  0  0  0  0  0  0  0
    0.9747   -0.0932   -0.0261 O   0  6  0  0  0  0  0  0  0  0  0  0
    1.0636    0.0714   -0.0294 O   0  6  0  0  0  0  0  0  0  0  0  0
    0.9352   -0.0407   -0.0643 O   0  6  0  0  0  0  0  0  0  0  0  0
    1.0185    0.0657   -0.0731 O   0  6  0  0  0  0  0  0  0  0  0  0
    1.0497   -0.0823   -0.0274 O   0  6  0  0  0  0  0  0  0  0  0  0
    0.9777   -0.0587    0.0778 O   0  6  0  0  0  0  0  0  0  0  0  0
    1.0792   -0.0054   -0.0609 O   0  6  0  0  0  0  0  0  0  0  0  0
    1.0104   -0.0235   -0.0966 O   0  6  0  0  0  0  0  0  0  0  0  0
    0.9297    0.0700   -0.0126 O   0  6  0  0  0  0  0  0  0  0  0  0
    0.9772    0.0627    0.0745 O   0  6  0  0  0  0  0  0  0  0  0  0
    0.9635   -0.0768    0.0526 O   0  6  0  0  0  0  0  0  0  0  0  0
    0.9723    0.0200   -0.0940 O   0  6  0  0  0  0  0  0  0  0  0  0
    1.0240    0.0449    0.0861 O   0  6  0  0  0  0  0  0  0  0  0  0
    0.9826    0.0673   -0.0719 O   0  6  0  0  0  0  0  0  0  0  0  0
    0.9775   -0.0854    0.0469 O   0  6  0  0  0  0  0  0  0  0  0  0
    1.0348   -0.0888   -0.0299 O   0  6  0  0  0  0  0  0  0  0  0  0
    0.9207   -0.0299    0.0530 O   0  6  0  0  0  0  0  0  0  0  0  0
    0.9987   -0.0108    0.0994 O   0  6  0  0  0  0  0  0  0  0  0  0
    0.9851    0.0861   -0.0487 O   0  6  0  0  0  0  0  0  0  0  0  0
    0.9661    0.0870   -0.0357 O   0  6  0  0  0  0  0  0  0  0  0  0
    1.0588    0.0144    0.0796 O   0  6  0  0  0  0  0  0  0  0  0  0
    0.9470    0.0113   -0.0841 O   0  6  0  0  0  0  0  0  0  0  0  0
    1.0993   -0.0032   -0.0111 O   0  6  0  0  0  0  0  0  0  0  0  0
    1.0666    0.0059   -0.0744 O   0  6  0  0  0  0  0  0  0  0  0  0
    0.9294   -0.0703   -0.0086 O   0  6  0  0  0  0  0  0  0  0  0  0
    0.9663    0.0135    0.0932 O   0  6  0  0  0  0  0  0  0  0  0  0
    1.0767   -0.0638    0.0065 O   0  6  0  0  0  0  0  0  0  0  0  0
    0.9408   -0.0784    0.0189 O   0  6  0  0  0  0  0  0  0  0  0  0
    0.9293   -0.0256   -0.0659 O   0  6  0  0  0  0  0  0  0  0  0  0
    1.0927    0.0370    0.0065 O   0  6  0  0  0  0  0  0  0  0  0  0
    0.9990   -0.0318    0.0948 O   0  6  0  0  0  0  0  0  0  0  0  0
    0.9005   -0.0086    0.0042 O   0  6  0  0  0  0  0  0  0  0  0  0
    1.0076    0.0842    0.0535 O   0  6  0  0  0  0  0  0  0  0  0  0
    0.9369    0.0701    0.0331 O   0  6  0  0  0  0  0  0  0  0  0  0
    0.9099   -0.0217    0.0375 Na  0  2  0  0  0  0  0  0  0  0  0  0
    1.0673   -0.0388    0.0630 Na  0  2  0  0  0  0  0  0  0  0  0  0
    0.9406    0.0551   -0.0587 Sb  0  1  0  0  0  0  0  0  0  0  0  0
    0.9317   -0.0101    0.0723 Sb  0  1  0  0  0  0  0  0  0  0  0  0
    1.0072    0.0110   -0.0991 Sb  0  1  0  0  0  0  0  0  0  0  0  0
    0.9575   -0.0629   -0.0651 Sb  0  1  0  0  0  0  0  0  0  0  0  0
    1.0140    0.0702   -0.0698 Sb  0  1  0  0  0  0  0  0  0  0  0  0
    0.9003   -0.0030    0.0070 Sb  0  1  0  0  0  0  0  0  0  0  0  0
    1.0867   -0.0474    0.0155 Sb  0  1  0  0  0  0  0  0  0  0  0  0
    1.0588    0.0629   -0.0508 Sb  0  1  0  0  0  0  0  0  0  0  0  0
    0.9638    0.0242   -0.0900 Sb  0  1  0  0  0  0  0  0  0  0  0  0
    1.0783   -0.0548   -0.0295 W   0  0  0  0  0  0  0  0  0  0  0  0
    1.0201   -0.0067   -0.0977 W   0  0  0  0  0  0  0  0  0  0  0  0
    0.9115   -0.0351   -0.0306 W   0  0  0  0  0  0  0  0  0  0  0  0
    1.0336   -0.0935    0.0114 W   0  0  0  0  0  0  0  0  0  0  0  0
    1.0324   -0.0247   -0.0913 W   0  0  0  0  0  0  0  0  0  0  0  0
    1.0465   -0.0316   -0.0827 W   0  0  0  0  0  0  0  0  0  0  0  0
    0.9444    0.0638    0.0533 W   0  0  0  0  0  0  0  0  0  0  0  0
    0.9683    0.0066    0.0946 W   0  0  0  0  0  0  0  0  0  0  0  0
    0.9620    0.0329    0.0865 W   0  0  0  0  0  0  0  0  0  0  0  0
    1.0654    0.0541    0.0529 W   0  0  0  0  0  0  0  0  0  0  0  0
    0.9470   -0.0537   -0.0656 W   0  0  0  0  0  0  0  0  0  0  0  0
    1.0505   -0.0060    0.0861 W   0  0  0  0  0  0  0  0  0  0  0  0
    0.9172    0.0559   -0.0043 W   0  0  0  0  0  0  0  0  0  0  0  0
    0.9372   -0.0777   -0.0042 W   0  0  0  0  0  0  0  0  0  0  0  0
    1.0468   -0.0221   -0.0856 W   0  0  0  0  0  0  0  0  0  0  0  0
    0.9217    0.0381    0.0492 W   0  0  0  0  0  0  0  0  0  0  0  0
    0.9078    0.0095   -0.0375 W   0  0  0  0  0  0  0  0  0  0  0  0
    1.0914   -0.0210   -0.0348 W   0  0  0  0  0  0  0  0  0  0  0  0
    0.9457   -0.0347    0.0765 W   0  0  0  0  0  0  0  0  0  0  0  0
    0.9381   -0.0503   -0.0603 W   0  0  0  0  0  0  0  0  0  0  0  0
    0.9759   -0.0203   -0.0949 W   0  0  0  0  0  0  0  0  0  0  0  0
    0.7231   -0.0989    0.9677 H   0  0  0  0  0  0  0  0  0  0  0  0
    0.7231    0.9803   -0.3010 H   0  0  0  0  0  0  0  0  0  0  0  0
    0.7231   -0.6580   -0.6013 H   0  0  0  0  0  0  0  0  0  0  0  0
    2.0831    0.0745    0.0218 H   0  0  0  0  0  0  0  0  0  0  0  0
    0.6899    0.1893    0.9423 H   0  0  0  0  0  0  0  0  0  0  0  0
    0.6899    0.5626   -0.6810 H   0  0  0  0  0  0  0  0  0  0  0  0
    0.6899   -1.0298   -0.1926 H   0  0  0  0  0  0  0  0  0  0  0  0
    2.0499   -0.0926    0.0229 H   0  0  0  0  0  0  0  0  0  0  0  0
    0.6694    0.7653   -0.6270 H   0  0  0  0  0  0  0  0  0  0  0  0
    0.6694   -0.8969   -0.5193 H   0  0  0  0  0  0  0  0  0  0  0  0
    0.6694    0.0274    0.8664 H   0  0  0  0  0  0  0  0  0  0  0  0
    2.0294   -0.0347   -0.0933 H   0  0  0  0  0  0  0  0  0  0  0  0
    0.6389    0.8528    0.1594 H   0  0  0  0  0  0  0  0  0  0  0  0
    0.6389   -0.3801   -0.9605 H   0  0  0  0  0  0  0  0  0  0  0  0
    0.6389   -0.7336    0.6672 H   0  0  0  0  0  0  0  0  0  0  0  0
    1.9989   -0.0870   -0.0446 H   0  0  0  0  0  0  0  0  0  0  0  0
    0.5713    0.9678   -0.0226 H   0  0  0  0  0  0  0  0  0  0  0  0
    0.5713   -0.4543   -0.8898 H   0  0  0  0  0  0  0  0  0  0  0  0
    0.5713   -0.4942    0.7754 H   0  0  0  0  0  0  0  0  0  0  0  0
    1.9313    0.0064   -0.0456 H   0  0  0  0  0  0  0  0  0  0  0  0
    0.7445   -0.8636    0.4923 H   0  0  0  0  0  0  0  0  0  0  0  0
    0.7445    0.8001    0.5741 H   0  0  0  0  0  0  0  0  0  0  0  0
    0.7445    0.0391   -0.9076 H   0  0  0  0  0  0  0  0  0  0  0  0
    2.1045   -0.0081    0.0529 H   0  0  0  0  0  0  0  0  0  0  0  0
    0.7412   -0.5835   -0.7217 H   0  0  0  0  0  0  0  0  0  0  0  0
    0.7412   -0.4077    0.9347 H   0  0  0  0  0  0  0  0  0  0  0  0
    0.7412    0.9388   -0.0458 H   0  0  0  0  0  0  0  0  0  0  0  0
    2.1012   -0.0175    0.0557 H   0  0  0  0  0  0  0  0  0  0  0  0
    0.6606    0.8516    0.6107 H   0  0  0  0  0  0  0  0  0  0  0  0
    0.6606    0.0892   -0.8702 H   0  0  0  0  0  0  0  0  0  0  0  0
    0.6606   -0.8121    0.5305 H   0  0  0  0  0  0  0  0  0  0  0  0
    2.0206    0.0429    0.0903 H   0  0  0  0  0  0  0  0  0  0  0  0
    0.6955   -0.5837   -0.7093 H   0  0  0  0  0  0  0  0  0  0  0  0
    0.6955   -0.4561    0.9515 H   0  0  0  0  0  0  0  0  0  0  0  0
    0.6955    0.9184    0.0106 H   0  0  0  0  0  0  0  0  0  0  0  0
    2.0555   -0.0405    0.0843 H   0  0  0  0  0  0  0  0  0  0  0  0
    0.6435   -1.0290    0.0475 H   0  0  0  0  0  0  0  0  0  0  0  0
    0.6435    0.5012    0.7055 H   0  0  0  0  0  0  0  0  0  0  0  0
    0.6435    0.3059   -0.9487 H   0  0  0  0  0  0  0  0  0  0  0  0
    2.0035   -0.0740   -0.0652 H   0  0  0  0  0  0  0  0  0  0  0  0
    0.7421   -0.4383   -0.8373 H   0  0  0  0  0  0  0  0  0  0  0  0
    0.7421   -0.6024    0.8202 H   0  0  0  0  0  0  0  0  0  0  0  0
    0.7421    0.9151    0.1335 H   0  0  0  0  0  0  0  0  0  0  0  0
    2.1021   -0.0419    0.0388 H   0  0  0  0  0  0  0  0  0  0  0  0
    0.6475   -0.6473    0.7374 H   0  0  0  0  0  0  0  0  0  0  0  0
    0.6475    0.9758    0.3632 H   0  0  0  0  0  0  0  0  0  0  0  0
    0.6475   -0.1598   -0.8553 H   0  0  0  0  0  0  0  0  0  0  0  0
    2.0075    0.0562    0.0818 H   0  0  0  0  0  0  0  0  0  0  0  0
    0.7427   -0.3516    0.8681 H   0  0  0  0  0  0  0  0  0  0  0  0
    0.7427    0.9057   -0.2245 H   0  0  0  0  0  0  0  0  0  0  0  0
    0.7427   -0.6692   -0.7670 H   0  0  0  0  0  0  0  0  0  0  0  0
    2.1027   -0.0384   -0.0411 H   0  0  0  0  0  0  0  0  0  0  0  0
    0.7266   -0.7179   -0.5561 H   0  0  0  0  0  0  0  0  0  0  0  0
    0.7266   -0.1741    1.0183 H   0  0  0  0  0  0  0  0  0  0  0  0
    0.7266    0.9174   -0.2399 H   0  0  0  0  0  0  0  0  0  0  0  0
    2.0866    0.0085    0.0741 H   0  0  0  0  0  0  0  0  0  0  0  0
    0.6869   -0.4164    0.9683 H   0  0  0  0  0  0  0  0  0  0  0  0
    0.6869    0.8912   -0.0634 H   0  0  0  0  0  0  0  0  0  0  0  0
    0.6869   -0.6561   -0.6800 H   0  0  0  0  0  0  0  0  0  0  0  0
    2.0469   -0.0604    0.0750 H   0  0  0  0  0  0  0  0  0  0  0  0
    0.6240   -0.8256   -0.4899 H   0  0  0  0  0  0  0  0  0  0  0  0
    0.6240    0.1270    0.8765 H   0  0  0  0  0  0  0  0  0  0  0  0
    0.6240    0.8340   -0.6316 H   0  0  0  0  0  0  0  0  0  0  0  0
    1.9840    0.0451   -0.0816 H   0  0  0  0  0  0  0  0  0  0  0  0
    0.7336    0.3546    0.9159 H   0  0  0  0  0  0  0  0  0  0  0  0
    0.7336    0.5008   -0.7433 H   0  0  0  0  0  0  0  0  0  0  0  0
    0.7336   -1.0093   -0.0403 H   0  0  0  0  0  0  0  0  0  0  0  0
    2.0936   -0.0513    0.0441 H   0  0  0  0  0  0  0  0  0  0  0  0
  1136  1  0  0  0  0
  1137  1  0  0  0  0
  1138  1  0  0  0  0
  1139  1  0  0  0  0
  2140  1  0  0  0  0
  2141  1  0  0  0  0
  2142  1  0  0  0  0
  2143  1  0  0  0  0
  3144  1  0  0  0  0
  3145  1  0  0  0  0
  3146  1  0  0  0  0
  3147  1  0  0  0  0
  4148  1  0  0  0  0
  4149  1  0  0  0  0
  4150  1  0  0  0  0
  4151  1  0  0  0  0
  5152  1  0  0  0  0
  5153  1  0  0  0  0
  5154  1  0  0  0  0
  5155  1  0  0  0  0
  6156  1  0  0  0  0
  6157  1  0  0  0  0
  6158  1  0  0  0  0
  6159  1  0  0  0  0
  7160  1  0  0  0  0
  7161  1  0  0  0  0
  7162  1  0  0  0  0
  7163  1  0  0  0  0
  8164  1  0  0  0  0
  8165  1  0  0  0  0
  8166  1  0  0  0  0
  8167  1  0  0  0  0
  9168  1  0  0  0  0
  9169  1  0  0  0  0
  9170  1  0  0  0  0
  9171  1  0  0  0  0
 10172  1  0  0  0  0
 10173  1  0  0  0  0
 10174  1  0  0  0  0
 10175  1  0  0  0  0
 11176  1  0  0  0  0
 11177  1  0  0  0  0
 11178  1  0  0  0  0
 11179  1  0  0  0  0
 12180  1  0  0  0  0
 12181  1  0  0  0  0
 12182  1  0  0  0  0
 12183  1  0  0  0  0
 13184  1  0  0  0  0
 13185  1  0  0  0  0
 13186  1  0  0  0  0
 13187  1  0  0  0  0
 14188  1  0  0  0  0
 14189  1  0  0  0  0
 14190  1  0  0  0  0
 14191  1  0  0  0  0
 15192  1  0  0  0  0
 15193  1  0  0  0  0
 15194  1  0  0  0  0
 15195  1  0  0  0  0
 16196  1  0  0  0  0
 16197  1  0  0  0  0
 16198  1  0  0  0  0
 16199  1  0  0  0  0
 17200  1  0  0  0  0
 17201  1  0  0  0  0
 17202  1  0  0  0  0
 17203  1  0  0  0  0
M  CHG  8   1   1   2   1   3   1   4   1   5   1   6   1   7   1   8   1
M  CHG  8   9   1  10   1  11   1  12   1  13   1  14   1  15   1  16   1
M  CHG  8  17   1  18  -2  19  -2  20  -2  21  -2  22  -2  23  -2  24  -2
M  CHG  8  25  -2  26  -2  27  -2  28  -2  29  -2  30  -2  31  -2  32  -2
M  CHG  8  33  -2  34  -2  35  -2  36  -2  37  -2  38  -2  39  -2  40  -2
M  CHG  8  41  -2  42  -2  43  -2  44  -2  45  -2  46  -2  47  -2  48  -2
M  CHG  8  49  -2  50  -2  51  -2  52  -2  53  -2  54  -2  55  -2  56  -2
M  CHG  8  57  -2  58  -2  59  -2  60  -2  61  -2  62  -2  63  -2  64  -2
M  CHG  8  65  -2  66  -2  67  -2  68  -2  69  -2  70  -2  71  -2  72  -2
M  CHG  8  73  -2  74  -2  75  -2  76  -2  77  -2  78  -2  79  -2  80  -2
M  CHG  8  81  -2  82  -2  83  -2  84  -2  85  -2  86  -2  87  -2  88  -2
M  CHG  8  89  -2  90  -2  91  -2  92  -2  93  -2  94  -2  95  -2  96  -2
M  CHG  8  97  -2  98  -2  99  -2 100  -2 101  -2 102  -2 103  -2 104   2
M  CHG  8 105   2 106   3 107   3 108   3 109   3 110   3 111   3 112   3
M  CHG  8 113   3 114   3 115   6 116   6 117   6 118   6 119   6 120   6
M  CHG  8 121   6 122   6 123   6 124   6 125   6 126   6 127   6 128   6
M  CHG  7 129   6 130   6 131   6 132   6 133   6 134   6 135   6
M  END
>  <DRUGBANK_ID>
DB17739

>  <COMMON_NAME>
HPA-23

>  <CAS_NUMBER>
89899-81-0

>  <UNII>
J08H62IZC9

>  <SYNONYMS>
Ammonium 21-tungsto-9-antimoniate; Ammonium antimony sodium tungsten oxide ((nh4)17sb9na2w21o86); Tungstate(19-), hexaoctacontaoxononaantimonateheneicosa-, heptadecaammonium disodium

$$$$
