
 OpenBabel10282417173D

 49 51  0  0  0  0  0  0  0  0999 V2000
    0.9995    0.0674    0.0898 C   0  0  0  0  0  0  0  0  0  0  0  0
    2.6417   -4.9324   -0.4504 C   0  0  0  0  0  0  0  0  0  0  0  0
   -6.0569   -3.7333   -0.4638 C   0  0  0  0  0  0  0  0  0  0  0  0
   -0.1118   -7.9671    0.8916 C   0  0  0  0  0  0  0  0  0  0  0  0
    1.4150   -4.7090   -0.9963 C   0  0  0  0  0  0  0  0  0  0  0  0
    3.3110   -3.8225    0.0578 C   0  0  0  0  0  0  0  0  0  0  0  0
   -5.3257   -2.5562   -0.3075 C   0  0  0  0  0  0  0  0  0  0  0  0
   -5.4588   -4.9630   -0.2692 C   0  0  0  0  0  0  0  0  0  0  0  0
   -1.2946   -7.8553    0.1872 C   0  0  0  0  0  0  0  0  0  0  0  0
    0.4955   -6.8121    1.3677 C   0  0  0  0  0  0  0  0  0  0  0  0
    0.9650   -3.4187   -0.8154 C   0  0  0  0  0  0  0  0  0  0  0  0
    2.8138   -2.4773   -0.0478 C   0  0  0  0  0  0  0  0  0  0  0  0
   -3.9627   -2.6221   -0.0703 C   0  0  0  0  0  0  0  0  0  0  0  0
   -4.1626   -4.9922    0.1694 C   0  0  0  0  0  0  0  0  0  0  0  0
   -1.7441   -6.5962   -0.1987 C   0  0  0  0  0  0  0  0  0  0  0  0
   -0.1467   -5.5572    1.2344 C   0  0  0  0  0  0  0  0  0  0  0  0
   -1.5740   -3.5842   -1.7140 C   0  0  0  0  0  0  0  0  0  0  0  0
   -1.5171   -2.0263   -1.9771 C   0  0  0  0  0  0  0  0  0  0  0  0
    0.6940   -1.0275   -0.9229 C   0  0  3  0  0  0  0  0  0  0  0  0
    1.5594   -2.2503   -0.5872 C   0  0  0  0  0  0  0  0  0  0  0  0
   -3.3561   -3.8722    0.0631 C   0  0  0  0  0  0  0  0  0  0  0  0
   -1.2557   -5.4089    0.3585 C   0  0  0  0  0  0  0  0  0  0  0  0
   -1.8660   -4.0320   -0.1128 C   0  0  0  0  0  0  0  0  0  0  0  0
   -0.8208   -1.1620   -0.9823 N   0  0  0  0  0  0  0  0  0  0  0  0
    0.6440   -0.2102    1.0901 H   0  0  0  0  0  0  0  0  0  0  0  0
    0.5410    1.0197   -0.1910 H   0  0  0  0  0  0  0  0  0  0  0  0
    2.0794    0.2288    0.1535 H   0  0  0  0  0  0  0  0  0  0  0  0
    2.9357   -5.9641   -0.3165 H   0  0  0  0  0  0  0  0  0  0  0  0
   -7.1158   -3.7014   -0.6753 H   0  0  0  0  0  0  0  0  0  0  0  0
    0.3533   -8.9412    1.0114 H   0  0  0  0  0  0  0  0  0  0  0  0
    0.7302   -5.5034   -1.2606 H   0  0  0  0  0  0  0  0  0  0  0  0
    4.2445   -4.0172    0.5777 H   0  0  0  0  0  0  0  0  0  0  0  0
   -5.8041   -1.5892   -0.4084 H   0  0  0  0  0  0  0  0  0  0  0  0
   -5.9709   -5.9066   -0.4108 H   0  0  0  0  0  0  0  0  0  0  0  0
   -1.8405   -8.7325   -0.1408 H   0  0  0  0  0  0  0  0  0  0  0  0
    1.5123   -6.8810    1.7577 H   0  0  0  0  0  0  0  0  0  0  0  0
   -0.0141   -3.2831   -0.4385 H   0  0  0  0  0  0  0  0  0  0  0  0
    3.3853   -1.6696    0.3727 H   0  0  0  0  0  0  0  0  0  0  0  0
   -3.3888   -1.6988   -0.0333 H   0  0  0  0  0  0  0  0  0  0  0  0
   -3.7862   -5.9270    0.5538 H   0  0  0  0  0  0  0  0  0  0  0  0
   -2.5350   -6.5522   -0.9387 H   0  0  0  0  0  0  0  0  0  0  0  0
    0.3779   -4.6960    1.6557 H   0  0  0  0  0  0  0  0  0  0  0  0
   -2.2330   -4.1336   -2.3958 H   0  0  0  0  0  0  0  0  0  0  0  0
   -0.6321   -3.9234   -2.1597 H   0  0  0  0  0  0  0  0  0  0  0  0
   -2.5627   -1.6998   -2.0699 H   0  0  0  0  0  0  0  0  0  0  0  0
   -1.1131   -1.8111   -2.9768 H   0  0  0  0  0  0  0  0  0  0  0  0
    0.9930   -0.6959   -1.9233 H   0  0  0  0  0  0  0  0  0  0  0  0
   -1.4807   -3.2935    0.6118 H   0  0  0  0  0  0  0  0  0  0  0  0
   -1.2140   -1.2786   -0.0533 H   0  0  0  0  0  0  0  0  0  0  0  0
  1 25  1  0  0  0  0
  1 26  1  0  0  0  0
  1 27  1  0  0  0  0
  2 28  1  0  0  0  0
  3 29  1  0  0  0  0
  4 30  1  0  0  0  0
  5  2  2  0  0  0  0
  5 31  1  0  0  0  0
  6  2  1  0  0  0  0
  6 32  1  0  0  0  0
  7  3  2  0  0  0  0
  7 33  1  0  0  0  0
  8  3  1  0  0  0  0
  8 34  1  0  0  0  0
  9  4  2  0  0  0  0
  9 35  1  0  0  0  0
 10  4  1  0  0  0  0
 10 36  1  0  0  0  0
 11  5  1  0  0  0  0
 11 37  1  0  0  0  0
 12  6  2  0  0  0  0
 12 38  1  0  0  0  0
 13  7  1  0  0  0  0
 13 39  1  0  0  0  0
 14  8  2  0  0  0  0
 14 40  1  0  0  0  0
 15  9  1  0  0  0  0
 15 41  1  0  0  0  0
 16 10  2  0  0  0  0
 16 42  1  0  0  0  0
 17 43  1  0  0  0  0
 17 44  1  0  0  0  0
 18 17  1  0  0  0  0
 18 45  1  0  0  0  0
 18 46  1  0  0  0  0
 19  1  1  0  0  0  0
 19 47  1  0  0  0  0
 20 11  2  0  0  0  0
 20 12  1  0  0  0  0
 20 19  1  0  0  0  0
 21 13  2  0  0  0  0
 21 14  1  0  0  0  0
 22 15  2  0  0  0  0
 22 16  1  0  0  0  0
 23 17  1  0  0  0  0
 23 21  1  0  0  0  0
 23 22  1  0  0  0  0
 23 48  1  0  0  0  0
 24 18  1  0  0  0  0
 24 19  1  0  0  0  0
 24 49  1  0  0  0  0
M  END
>  <DRUGBANK_ID>
DB08980

>  <COMMON_NAME>
Fendiline

>  <CAS_NUMBER>
13042-18-7

>  <UNII>
S253D559A8

>  <SYNONYMS>
Fendiline

$$$$
