
 OpenBabel10282417203D

 37 38  0  0  0  0  0  0  0  0999 V2000
    0.9671    0.2722   -0.1095 C   0  0  0  0  0  0  0  0  0  0  0  0
    0.2909    1.0146    1.0506 C   0  0  0  0  0  0  0  0  0  0  0  0
    1.0348    2.1989    1.4969 N   0  0  0  0  0  0  0  0  0  0  0  0
    0.4503    2.7935    2.7141 C   0  0  0  0  0  0  0  0  0  0  0  0
    0.7095    2.1187    4.0618 C   0  0  0  0  0  0  0  0  0  0  0  0
    2.5017    2.0320    1.5393 C   0  0  0  0  0  0  0  0  0  0  0  0
    3.2098    1.0449    2.5250 C   0  0  0  0  0  0  0  0  0  0  0  0
    2.6369   -0.3507    2.6423 C   0  0  0  0  0  0  0  0  0  0  0  0
    1.4211   -0.7406    2.8886 N   0  0  0  0  0  0  0  0  0  0  0  0
    1.3871   -2.0529    2.4938 C   0  0  0  0  0  0  0  0  0  0  0  0
    2.6261   -2.5582    2.3578 N   0  0  0  0  0  0  0  0  0  0  0  0
    3.4701   -1.4225    2.4332 O   0  0  0  0  0  0  0  0  0  0  0  0
    0.1281   -2.7841    2.2559 C   0  0  0  0  0  0  0  0  0  0  0  0
   -0.6746   -2.6283    1.1042 C   0  0  0  0  0  0  0  0  0  0  0  0
   -1.7940   -3.4256    0.8377 C   0  0  0  0  0  0  0  0  0  0  0  0
   -2.1544   -4.4017    1.7445 C   0  0  0  0  0  0  0  0  0  0  0  0
   -1.4211   -4.5346    2.9237 C   0  0  0  0  0  0  0  0  0  0  0  0
   -0.3144   -3.7119    3.1934 C   0  0  0  0  0  0  0  0  0  0  0  0
    0.7120    0.7325   -1.0625 H   0  0  0  0  0  0  0  0  0  0  0  0
    0.6861   -0.7634   -0.1765 H   0  0  0  0  0  0  0  0  0  0  0  0
    2.0509    0.1753   -0.0365 H   0  0  0  0  0  0  0  0  0  0  0  0
   -0.7428    1.2480    0.7672 H   0  0  0  0  0  0  0  0  0  0  0  0
    0.1013    0.3796    1.9025 H   0  0  0  0  0  0  0  0  0  0  0  0
    0.8016    3.8296    2.7860 H   0  0  0  0  0  0  0  0  0  0  0  0
   -0.6371    2.8662    2.5858 H   0  0  0  0  0  0  0  0  0  0  0  0
    1.7401    2.2465    4.3893 H   0  0  0  0  0  0  0  0  0  0  0  0
    0.1079    2.5754    4.8502 H   0  0  0  0  0  0  0  0  0  0  0  0
    0.4573    1.0581    4.0569 H   0  0  0  0  0  0  0  0  0  0  0  0
    2.8611    1.8228    0.5216 H   0  0  0  0  0  0  0  0  0  0  0  0
    2.9242    3.0361    1.6928 H   0  0  0  0  0  0  0  0  0  0  0  0
    4.2642    0.9971    2.2316 H   0  0  0  0  0  0  0  0  0  0  0  0
    3.2417    1.4992    3.5138 H   0  0  0  0  0  0  0  0  0  0  0  0
   -0.4948   -1.8961    0.3437 H   0  0  0  0  0  0  0  0  0  0  0  0
   -2.3576   -3.2855   -0.0845 H   0  0  0  0  0  0  0  0  0  0  0  0
   -3.0047   -5.0450    1.5372 H   0  0  0  0  0  0  0  0  0  0  0  0
   -1.7020   -5.3015    3.6380 H   0  0  0  0  0  0  0  0  0  0  0  0
    0.2030   -3.8016    4.1432 H   0  0  0  0  0  0  0  0  0  0  0  0
  1  2  1  0  0  0  0
  1 19  1  0  0  0  0
  1 20  1  0  0  0  0
  1 21  1  0  0  0  0
  2  3  1  0  0  0  0
  2 22  1  0  0  0  0
  2 23  1  0  0  0  0
  3  4  1  0  0  0  0
  3  6  1  0  0  0  0
  4  5  1  0  0  0  0
  4 24  1  0  0  0  0
  4 25  1  0  0  0  0
  5 26  1  0  0  0  0
  5 27  1  0  0  0  0
  5 28  1  0  0  0  0
  6  7  1  0  0  0  0
  6 29  1  0  0  0  0
  6 30  1  0  0  0  0
  7  8  1  0  0  0  0
  7 31  1  0  0  0  0
  7 32  1  0  0  0  0
  8  9  2  0  0  0  0
  8 12  1  0  0  0  0
  9 10  1  0  0  0  0
 10 11  2  0  0  0  0
 10 13  1  0  0  0  0
 11 12  1  0  0  0  0
 13 14  2  0  0  0  0
 13 18  1  0  0  0  0
 14 15  1  0  0  0  0
 14 33  1  0  0  0  0
 15 16  2  0  0  0  0
 15 34  1  0  0  0  0
 16 17  1  0  0  0  0
 16 35  1  0  0  0  0
 17 18  2  0  0  0  0
 17 36  1  0  0  0  0
 18 37  1  0  0  0  0
M  END
>  <DRUGBANK_ID>
DB13216

>  <COMMON_NAME>
Oxolamine

>  <CAS_NUMBER>
959-14-8

>  <UNII>
90BEA145GY

>  <SYNONYMS>
Oxolamina; Oxolamine; Oxolaminum

$$$$
