
 OpenBabel10282417193D

 34 35  0  0  0  0  0  0  0  0999 V2000
    1.0744   -0.0488   -0.0107 C   0  0  0  0  0  0  0  0  0  0  0  0
    0.5863   -1.3211    0.4400 O   0  0  0  0  0  0  0  0  0  0  0  0
    1.0298   -2.3731   -0.2919 C   0  0  0  0  0  0  0  0  0  0  0  0
    1.7952   -2.3112   -1.2479 O   0  0  0  0  0  0  0  0  0  0  0  0
    0.4595   -3.6581    0.1888 C   0  0  0  0  0  0  0  0  0  0  0  0
   -0.8848   -3.7560    0.5604 C   0  0  0  0  0  0  0  0  0  0  0  0
   -1.4535   -5.0113    0.8368 C   0  0  0  0  0  0  0  0  0  0  0  0
   -0.6940   -6.1907    0.7579 C   0  0  0  0  0  0  0  0  0  0  0  0
    0.6497   -6.0736    0.3591 C   0  0  0  0  0  0  0  0  0  0  0  0
    1.2332   -4.8220    0.1130 C   0  0  0  0  0  0  0  0  0  0  0  0
   -1.2698   -7.5176    1.0588 C   0  0  0  0  0  0  0  0  0  0  0  0
   -2.3908   -8.0027    0.3667 C   0  0  0  0  0  0  0  0  0  0  0  0
   -2.8891   -9.2989    0.5916 C   0  0  0  0  0  0  0  0  0  0  0  0
   -2.2739  -10.1440    1.5221 C   0  0  0  0  0  0  0  0  0  0  0  0
   -1.1432   -9.6754    2.2056 C   0  0  0  0  0  0  0  0  0  0  0  0
   -0.6778   -8.3659    2.0100 C   0  0  0  0  0  0  0  0  0  0  0  0
   -2.7948  -11.5039    1.8625 C   0  0  0  0  0  0  0  0  0  0  0  0
   -2.2597  -12.2301    2.6921 O   0  0  0  0  0  0  0  0  0  0  0  0
   -3.9313  -11.8027    1.1818 O   0  0  0  0  0  0  0  0  0  0  0  0
   -4.4996  -13.0782    1.5137 C   0  0  0  0  0  0  0  0  0  0  0  0
    0.7027    0.7261    0.6671 H   0  0  0  0  0  0  0  0  0  0  0  0
    0.6997    0.1709   -1.0163 H   0  0  0  0  0  0  0  0  0  0  0  0
    2.1694   -0.0169    0.0045 H   0  0  0  0  0  0  0  0  0  0  0  0
   -1.5072   -2.8661    0.6027 H   0  0  0  0  0  0  0  0  0  0  0  0
   -2.5095   -5.0616    1.0953 H   0  0  0  0  0  0  0  0  0  0  0  0
    1.2441   -6.9724    0.1954 H   0  0  0  0  0  0  0  0  0  0  0  0
    2.2857   -4.7686   -0.1593 H   0  0  0  0  0  0  0  0  0  0  0  0
   -2.8810   -7.3710   -0.3718 H   0  0  0  0  0  0  0  0  0  0  0  0
   -3.7521   -9.6331    0.0217 H   0  0  0  0  0  0  0  0  0  0  0  0
   -0.6133  -10.3279    2.8985 H   0  0  0  0  0  0  0  0  0  0  0  0
    0.1544   -8.0102    2.6172 H   0  0  0  0  0  0  0  0  0  0  0  0
   -3.7996  -13.8877    1.2812 H   0  0  0  0  0  0  0  0  0  0  0  0
   -4.7896  -13.1139    2.5696 H   0  0  0  0  0  0  0  0  0  0  0  0
   -5.4009  -13.2235    0.9097 H   0  0  0  0  0  0  0  0  0  0  0  0
  1  2  1  0  0  0  0
  1 21  1  0  0  0  0
  1 22  1  0  0  0  0
  1 23  1  0  0  0  0
  2  3  1  0  0  0  0
  3  4  2  0  0  0  0
  3  5  1  0  0  0  0
  5  6  2  0  0  0  0
  5 10  1  0  0  0  0
  6  7  1  0  0  0  0
  6 24  1  0  0  0  0
  7  8  2  0  0  0  0
  7 25  1  0  0  0  0
  8  9  1  0  0  0  0
  8 11  1  0  0  0  0
  9 10  2  0  0  0  0
  9 26  1  0  0  0  0
 10 27  1  0  0  0  0
 11 12  2  0  0  0  0
 11 16  1  0  0  0  0
 12 13  1  0  0  0  0
 12 28  1  0  0  0  0
 13 14  2  0  0  0  0
 13 29  1  0  0  0  0
 14 15  1  0  0  0  0
 14 17  1  0  0  0  0
 15 16  2  0  0  0  0
 15 30  1  0  0  0  0
 16 31  1  0  0  0  0
 17 18  2  0  0  0  0
 17 19  1  0  0  0  0
 19 20  1  0  0  0  0
 20 32  1  0  0  0  0
 20 33  1  0  0  0  0
 20 34  1  0  0  0  0
M  END
>  <DRUGBANK_ID>
DB12475

>  <COMMON_NAME>
Biphenyl dimethyl dicarboxylate

>  <CAS_NUMBER>
792-74-5

>  <UNII>
K61BXA0U9C

>  <SYNONYMS>
Dimethyl 4,4'-biphenyldicarboxylate; Nissel

$$$$
