N8E
 OpenBabel10282417173D

 62 61  0  0  0  0  0  0  0  0999 V2000
    1.0725   -0.0309    0.0170 C   0  0  0  0  0  0  0  0  0  0  0  0
    0.6947   -0.4631    1.4257 C   0  0  0  0  0  0  0  0  0  0  0  0
    1.2839    0.5240    2.4524 C   0  0  0  0  0  0  0  0  0  0  0  0
    0.7386    1.8732    2.1867 C   0  0  0  0  0  0  0  0  0  0  0  0
   -0.7293    1.6099    2.2561 C   0  0  0  0  0  0  0  0  0  0  0  0
   -1.2890    1.3366    3.6874 C   0  0  0  0  0  0  0  0  0  0  0  0
   -1.0381    2.3527    4.8481 C   0  0  0  0  0  0  0  0  0  0  0  0
   -1.8580    3.6208    4.8261 C   0  0  0  0  0  0  0  0  0  0  0  0
   -3.2467    3.7581    4.6288 O   0  0  0  0  0  0  0  0  0  0  0  0
   -3.6724    3.0196    3.4812 C   0  0  0  0  0  0  0  0  0  0  0  0
   -2.7442    3.1440    2.2132 C   0  0  0  0  0  0  0  0  0  0  0  0
   -1.5674    3.9665    1.7952 O   0  0  0  0  0  0  0  0  0  0  0  0
   -0.7900    4.8189    2.5882 C   0  0  0  0  0  0  0  0  0  0  0  0
   -1.6028    6.0534    2.8345 C   0  0  0  0  0  0  0  0  0  0  0  0
   -3.0193    6.0706    2.3444 O   0  0  0  0  0  0  0  0  0  0  0  0
   -3.6680    5.3571    1.1475 C   0  0  0  0  0  0  0  0  0  0  0  0
   -2.8784    4.9255   -0.2498 C   0  0  0  0  0  0  0  0  0  0  0  0
   -1.5062    5.3810   -0.5415 O   0  0  0  0  0  0  0  0  0  0  0  0
   -0.9841    6.5085    0.2049 C   0  0  0  0  0  0  0  0  0  0  0  0
   -1.4191    8.0548    0.4481 C   0  0  0  0  0  0  0  0  0  0  0  0
   -2.8162    8.4345    0.3879 O   0  0  0  0  0  0  0  0  0  0  0  0
   -3.5017    7.6279   -0.5396 C   0  0  0  0  0  0  0  0  0  0  0  0
   -2.9905    7.4494   -1.9786 C   0  0  0  0  0  0  0  0  0  0  0  0
   -1.6199    7.1784   -2.2463 O   0  0  0  0  0  0  0  0  0  0  0  0
    0.6597    0.9459   -0.2729 H   0  0  0  0  0  0  0  0  0  0  0  0
    0.6944   -0.7437   -0.7138 H   0  0  0  0  0  0  0  0  0  0  0  0
    2.1594    0.0394   -0.0399 H   0  0  0  0  0  0  0  0  0  0  0  0
   -0.3998   -0.5659    1.4635 H   0  0  0  0  0  0  0  0  0  0  0  0
    1.0283   -1.4617    1.6758 H   0  0  0  0  0  0  0  0  0  0  0  0
    0.9796    0.2443    3.4672 H   0  0  0  0  0  0  0  0  0  0  0  0
    2.3638    0.5771    2.4419 H   0  0  0  0  0  0  0  0  0  0  0  0
    1.0464    2.6568    2.8828 H   0  0  0  0  0  0  0  0  0  0  0  0
    1.0025    2.2990    1.1969 H   0  0  0  0  0  0  0  0  0  0  0  0
   -0.9228    2.3928    1.6475 H   0  0  0  0  0  0  0  0  0  0  0  0
   -1.2610    0.9771    1.5310 H   0  0  0  0  0  0  0  0  0  0  0  0
   -2.3343    1.1002    3.5597 H   0  0  0  0  0  0  0  0  0  0  0  0
   -0.9264    0.3773    4.0290 H   0  0  0  0  0  0  0  0  0  0  0  0
   -1.2363    1.9327    5.8229 H   0  0  0  0  0  0  0  0  0  0  0  0
    0.0216    2.6560    4.7887 H   0  0  0  0  0  0  0  0  0  0  0  0
   -1.4037    4.5123    5.2846 H   0  0  0  0  0  0  0  0  0  0  0  0
   -1.6083    3.6550    3.8340 H   0  0  0  0  0  0  0  0  0  0  0  0
   -3.8115    2.0062    3.8138 H   0  0  0  0  0  0  0  0  0  0  0  0
   -4.6879    3.3424    3.1888 H   0  0  0  0  0  0  0  0  0  0  0  0
   -3.1733    2.6818    1.3299 H   0  0  0  0  0  0  0  0  0  0  0  0
   -3.1072    4.1406    2.4478 H   0  0  0  0  0  0  0  0  0  0  0  0
   -0.4033    4.6587    3.5951 H   0  0  0  0  0  0  0  0  0  0  0  0
    0.2469    4.7736    2.2171 H   0  0  0  0  0  0  0  0  0  0  0  0
   -1.4837    6.6661    3.7313 H   0  0  0  0  0  0  0  0  0  0  0  0
   -0.8647    6.6830    2.3516 H   0  0  0  0  0  0  0  0  0  0  0  0
   -4.0982    4.3583    1.2395 H   0  0  0  0  0  0  0  0  0  0  0  0
   -4.7433    5.6201    1.2376 H   0  0  0  0  0  0  0  0  0  0  0  0
   -3.0345    3.8911   -0.6030 H   0  0  0  0  0  0  0  0  0  0  0  0
   -3.5202    5.3292   -1.0219 H   0  0  0  0  0  0  0  0  0  0  0  0
   -1.6062    6.2340    0.9547 H   0  0  0  0  0  0  0  0  0  0  0  0
    0.0610    6.3382    0.5208 H   0  0  0  0  0  0  0  0  0  0  0  0
   -1.0671    8.3774    1.4457 H   0  0  0  0  0  0  0  0  0  0  0  0
   -0.9211    8.7038   -0.2474 H   0  0  0  0  0  0  0  0  0  0  0  0
   -3.1319    6.7733   -0.0607 H   0  0  0  0  0  0  0  0  0  0  0  0
   -4.5623    7.3857   -0.3572 H   0  0  0  0  0  0  0  0  0  0  0  0
   -3.4898    6.5968   -2.4562 H   0  0  0  0  0  0  0  0  0  0  0  0
   -3.2358    8.3636   -2.4847 H   0  0  0  0  0  0  0  0  0  0  0  0
   -1.0402    7.7989   -1.7732 H   0  0  0  0  0  0  0  0  0  0  0  0
  1  2  1  0  0  0  0
  1 25  1  0  0  0  0
  1 26  1  0  0  0  0
  1 27  1  0  0  0  0
  2  3  1  0  0  0  0
  2 28  1  0  0  0  0
  2 29  1  0  0  0  0
  3  4  1  0  0  0  0
  3 30  1  0  0  0  0
  3 31  1  0  0  0  0
  4  5  1  0  0  0  0
  4 32  1  0  0  0  0
  4 33  1  0  0  0  0
  5  6  1  0  0  0  0
  5 34  1  0  0  0  0
  5 35  1  0  0  0  0
  6  7  1  0  0  0  0
  6 36  1  0  0  0  0
  6 37  1  0  0  0  0
  7  8  1  0  0  0  0
  7 38  1  0  0  0  0
  7 39  1  0  0  0  0
  8  9  1  0  0  0  0
  8 40  1  0  0  0  0
  8 41  1  0  0  0  0
  9 10  1  0  0  0  0
 10 11  1  0  0  0  0
 10 42  1  0  0  0  0
 10 43  1  0  0  0  0
 11 12  1  0  0  0  0
 11 44  1  0  0  0  0
 11 45  1  0  0  0  0
 12 13  1  0  0  0  0
 13 14  1  0  0  0  0
 13 46  1  0  0  0  0
 13 47  1  0  0  0  0
 14 15  1  0  0  0  0
 14 48  1  0  0  0  0
 14 49  1  0  0  0  0
 15 16  1  0  0  0  0
 16 17  1  0  0  0  0
 16 50  1  0  0  0  0
 16 51  1  0  0  0  0
 17 18  1  0  0  0  0
 17 52  1  0  0  0  0
 17 53  1  0  0  0  0
 18 19  1  0  0  0  0
 19 20  1  0  0  0  0
 19 54  1  0  0  0  0
 19 55  1  0  0  0  0
 20 21  1  0  0  0  0
 20 56  1  0  0  0  0
 20 57  1  0  0  0  0
 21 22  1  0  0  0  0
 22 23  1  0  0  0  0
 22 58  1  0  0  0  0
 22 59  1  0  0  0  0
 23 24  1  0  0  0  0
 23 60  1  0  0  0  0
 23 61  1  0  0  0  0
 24 62  1  0  0  0  0
M  END
>  <DRUGBANK_ID>
DB08249

>  <COMMON_NAME>
3,6,9,12,15-PENTAOXATRICOSAN-1-OL

>  <UNII>
85FR004F9B

$$$$
