
 OpenBabel10282417183D

 87 86  0  0  0  0  0  0  0  0999 V2000
    1.0279    0.0996    0.1025 C   0  0  0  0  0  0  0  0  0  0  0  0
   -1.6043   -0.4117   -3.7836 C   0  0  0  0  0  0  0  0  0  0  0  0
    0.5579    0.8380   -1.1443 C   0  0  0  0  0  0  0  0  0  0  0  0
   -1.0417   -1.1887   -2.6051 C   0  0  0  0  0  0  0  0  0  0  0  0
    1.0611    0.1982   -2.4357 C   0  0  0  0  0  0  0  0  0  0  0  0
    0.4842   -1.1832   -2.7368 C   0  0  0  0  0  0  0  0  0  0  0  0
    0.6223   -1.3704    0.1889 C   0  0  0  0  0  0  0  0  0  0  0  0
    1.0798   -2.0664    1.4421 C   0  0  0  0  0  0  0  0  0  0  0  0
   -1.1371   -1.0832   -5.0774 C   0  0  0  0  0  0  0  0  0  0  0  0
   -1.6086   -2.5437   -5.0879 C   0  0  0  0  0  0  0  0  0  0  0  0
    0.4325   -1.4262    2.6468 C   0  0  0  0  0  0  0  0  0  0  0  0
   -1.0985   -1.4813    2.5270 C   0  0  0  0  0  0  0  0  0  0  0  0
   -3.1379   -2.5607   -5.0570 C   0  0  0  0  0  0  0  0  0  0  0  0
   -3.6624   -1.7756   -6.2630 C   0  0  0  0  0  0  0  0  0  0  0  0
   -1.5889   -2.9318    2.4041 C   0  0  0  0  0  0  0  0  0  0  0  0
   -1.1100   -3.7490    3.6071 C   0  0  0  0  0  0  0  0  0  0  0  0
   -3.1362   -2.4176   -7.5515 C   0  0  0  0  0  0  0  0  0  0  0  0
   -3.6319   -3.8637   -7.6376 C   0  0  0  0  0  0  0  0  0  0  0  0
   -1.6161   -3.1147    4.9068 C   0  0  0  0  0  0  0  0  0  0  0  0
   -3.1483   -3.0907    4.9325 C   0  0  0  0  0  0  0  0  0  0  0  0
   -5.1630   -3.8842   -7.6398 C   0  0  0  0  0  0  0  0  0  0  0  0
   -5.6989   -3.0940   -8.8381 C   0  0  0  0  0  0  0  0  0  0  0  0
   -3.7228   -4.5100    4.8845 C   0  0  0  0  0  0  0  0  0  0  0  0
   -3.2310   -5.3601    6.0568 C   0  0  0  0  0  0  0  0  0  0  0  0
   -5.2181   -3.7146  -10.1537 C   0  0  0  0  0  0  0  0  0  0  0  0
   -3.6510   -4.7453    7.3822 C   0  0  0  0  0  0  0  0  0  0  0  0
   -5.7093   -5.1586  -10.2998 C   0  0  0  0  0  0  0  0  0  0  0  0
   -7.2308   -5.2486  -10.2608 C   0  0  0  0  0  0  0  0  0  0  0  0
   -7.7892   -4.5022  -11.3397 O   0  0  0  0  0  0  0  0  0  0  0  0
    0.6346    0.6584    0.9565 H   0  0  0  0  0  0  0  0  0  0  0  0
    2.1192    0.1541    0.1516 H   0  0  0  0  0  0  0  0  0  0  0  0
   -2.6948   -0.3591   -3.7063 H   0  0  0  0  0  0  0  0  0  0  0  0
   -1.2823    0.6324   -3.7580 H   0  0  0  0  0  0  0  0  0  0  0  0
   -0.5337    0.9487   -1.1338 H   0  0  0  0  0  0  0  0  0  0  0  0
    0.9302    1.8683   -1.0991 H   0  0  0  0  0  0  0  0  0  0  0  0
   -1.4158   -2.2170   -2.5466 H   0  0  0  0  0  0  0  0  0  0  0  0
   -1.4255   -0.7537   -1.6803 H   0  0  0  0  0  0  0  0  0  0  0  0
    0.8083    0.8698   -3.2656 H   0  0  0  0  0  0  0  0  0  0  0  0
    2.1527    0.1405   -2.4216 H   0  0  0  0  0  0  0  0  0  0  0  0
    0.8458   -1.4872   -3.7167 H   0  0  0  0  0  0  0  0  0  0  0  0
    0.9218   -2.0090   -2.1957 H   0  0  0  0  0  0  0  0  0  0  0  0
   -0.4531   -1.4962    0.0254 H   0  0  0  0  0  0  0  0  0  0  0  0
    1.1373   -1.9656   -0.5410 H   0  0  0  0  0  0  0  0  0  0  0  0
    0.8225   -3.1314    1.3543 H   0  0  0  0  0  0  0  0  0  0  0  0
    2.1712   -2.0398    1.4974 H   0  0  0  0  0  0  0  0  0  0  0  0
   -1.4818   -0.5049   -5.9347 H   0  0  0  0  0  0  0  0  0  0  0  0
   -0.0571   -1.0442   -5.2234 H   0  0  0  0  0  0  0  0  0  0  0  0
   -1.1952   -3.0605   -5.9576 H   0  0  0  0  0  0  0  0  0  0  0  0
   -1.2142   -3.1368   -4.2575 H   0  0  0  0  0  0  0  0  0  0  0  0
    0.7990   -1.9305    3.5439 H   0  0  0  0  0  0  0  0  0  0  0  0
    0.7620   -0.3908    2.7539 H   0  0  0  0  0  0  0  0  0  0  0  0
   -1.5390   -0.9733    3.3887 H   0  0  0  0  0  0  0  0  0  0  0  0
   -1.4723   -0.9002    1.6780 H   0  0  0  0  0  0  0  0  0  0  0  0
   -3.4998   -3.5920   -5.0355 H   0  0  0  0  0  0  0  0  0  0  0  0
   -3.5406   -2.1372   -4.1323 H   0  0  0  0  0  0  0  0  0  0  0  0
   -4.7523   -1.7239   -6.2285 H   0  0  0  0  0  0  0  0  0  0  0  0
   -3.3766   -0.7206   -6.2327 H   0  0  0  0  0  0  0  0  0  0  0  0
   -2.6798   -2.9452    2.3140 H   0  0  0  0  0  0  0  0  0  0  0  0
   -1.2500   -3.4059    1.4768 H   0  0  0  0  0  0  0  0  0  0  0  0
   -1.4343   -4.7885    3.5057 H   0  0  0  0  0  0  0  0  0  0  0  0
   -0.0177   -3.8201    3.6327 H   0  0  0  0  0  0  0  0  0  0  0  0
   -3.4378   -1.8186   -8.4139 H   0  0  0  0  0  0  0  0  0  0  0  0
   -2.0439   -2.3990   -7.6152 H   0  0  0  0  0  0  0  0  0  0  0  0
   -3.2100   -4.3482   -8.5215 H   0  0  0  0  0  0  0  0  0  0  0  0
   -3.2566   -4.4772   -6.8125 H   0  0  0  0  0  0  0  0  0  0  0  0
   -1.1986   -3.6476    5.7647 H   0  0  0  0  0  0  0  0  0  0  0  0
   -1.2356   -2.0960    5.0346 H   0  0  0  0  0  0  0  0  0  0  0  0
   -3.4919   -2.5503    5.8185 H   0  0  0  0  0  0  0  0  0  0  0  0
   -3.5548   -2.5071    4.0992 H   0  0  0  0  0  0  0  0  0  0  0  0
   -5.5186   -4.9173   -7.6352 H   0  0  0  0  0  0  0  0  0  0  0  0
   -5.5764   -3.4699   -6.7144 H   0  0  0  0  0  0  0  0  0  0  0  0
   -6.7892   -3.0430   -8.7873 H   0  0  0  0  0  0  0  0  0  0  0  0
   -5.3924   -2.0433   -8.7985 H   0  0  0  0  0  0  0  0  0  0  0  0
   -4.8160   -4.4603    4.8840 H   0  0  0  0  0  0  0  0  0  0  0  0
   -3.4562   -5.0036    3.9418 H   0  0  0  0  0  0  0  0  0  0  0  0
   -3.6332   -6.3731    5.9667 H   0  0  0  0  0  0  0  0  0  0  0  0
   -2.1406   -5.4739    6.0323 H   0  0  0  0  0  0  0  0  0  0  0  0
   -5.5497   -3.0975  -10.9934 H   0  0  0  0  0  0  0  0  0  0  0  0
   -4.1243   -3.6962  -10.2230 H   0  0  0  0  0  0  0  0  0  0  0  0
   -4.7410   -4.6638    7.4260 H   0  0  0  0  0  0  0  0  0  0  0  0
   -3.3026   -5.3538    8.2178 H   0  0  0  0  0  0  0  0  0  0  0  0
   -3.2321   -3.7433    7.5218 H   0  0  0  0  0  0  0  0  0  0  0  0
   -5.3313   -5.5611  -11.2439 H   0  0  0  0  0  0  0  0  0  0  0  0
   -5.2873   -5.7943   -9.5108 H   0  0  0  0  0  0  0  0  0  0  0  0
   -7.5532   -6.2849  -10.3480 H   0  0  0  0  0  0  0  0  0  0  0  0
   -7.6481   -4.8654   -9.3234 H   0  0  0  0  0  0  0  0  0  0  0  0
   -7.5191   -3.5872  -11.2421 H   0  0  0  0  0  0  0  0  0  0  0  0
  1 30  1  0  0  0  0
  1 31  1  0  0  0  0
  2 32  1  0  0  0  0
  2 33  1  0  0  0  0
  3  1  1  0  0  0  0
  3 34  1  0  0  0  0
  3 35  1  0  0  0  0
  4  2  1  0  0  0  0
  4 36  1  0  0  0  0
  4 37  1  0  0  0  0
  5  3  1  0  0  0  0
  5 38  1  0  0  0  0
  5 39  1  0  0  0  0
  6  4  1  0  0  0  0
  6  5  1  0  0  0  0
  6 40  1  0  0  0  0
  6 41  1  0  0  0  0
  7  1  1  0  0  0  0
  7 42  1  0  0  0  0
  7 43  1  0  0  0  0
  8  7  1  0  0  0  0
  8 44  1  0  0  0  0
  8 45  1  0  0  0  0
  9  2  1  0  0  0  0
  9 46  1  0  0  0  0
  9 47  1  0  0  0  0
 10  9  1  0  0  0  0
 10 48  1  0  0  0  0
 10 49  1  0  0  0  0
 11  8  1  0  0  0  0
 11 50  1  0  0  0  0
 11 51  1  0  0  0  0
 12 11  1  0  0  0  0
 12 52  1  0  0  0  0
 12 53  1  0  0  0  0
 13 10  1  0  0  0  0
 13 54  1  0  0  0  0
 13 55  1  0  0  0  0
 14 13  1  0  0  0  0
 14 56  1  0  0  0  0
 14 57  1  0  0  0  0
 15 12  1  0  0  0  0
 15 58  1  0  0  0  0
 15 59  1  0  0  0  0
 16 15  1  0  0  0  0
 16 60  1  0  0  0  0
 16 61  1  0  0  0  0
 17 14  1  0  0  0  0
 17 62  1  0  0  0  0
 17 63  1  0  0  0  0
 18 17  1  0  0  0  0
 18 64  1  0  0  0  0
 18 65  1  0  0  0  0
 19 16  1  0  0  0  0
 19 66  1  0  0  0  0
 19 67  1  0  0  0  0
 20 19  1  0  0  0  0
 20 68  1  0  0  0  0
 20 69  1  0  0  0  0
 21 18  1  0  0  0  0
 21 70  1  0  0  0  0
 21 71  1  0  0  0  0
 22 21  1  0  0  0  0
 22 72  1  0  0  0  0
 22 73  1  0  0  0  0
 23 20  1  0  0  0  0
 23 74  1  0  0  0  0
 23 75  1  0  0  0  0
 24 23  1  0  0  0  0
 24 26  1  0  0  0  0
 24 76  1  0  0  0  0
 24 77  1  0  0  0  0
 25 22  1  0  0  0  0
 25 27  1  0  0  0  0
 25 78  1  0  0  0  0
 25 79  1  0  0  0  0
 26 80  1  0  0  0  0
 26 81  1  0  0  0  0
 26 82  1  0  0  0  0
 27 28  1  0  0  0  0
 27 83  1  0  0  0  0
 27 84  1  0  0  0  0
 28 29  1  0  0  0  0
 28 85  1  0  0  0  0
 28 86  1  0  0  0  0
 29 87  1  0  0  0  0
M  END
>  <DRUGBANK_ID>
DB11220

>  <COMMON_NAME>
Octacosanol

>  <CAS_NUMBER>
557-61-9

>  <UNII>
81I2215OVK

>  <SYNONYMS>
1-Octacosanol; cluytyl alcohol; montanyl alcohol; n-octacosanol; Octacosanol; Octacosyl alcohol

$$$$
