
 OpenBabel10282417233D

 14 32  0  0  0  0  0  0  0  0999 V2000
   -1.8590   -0.8210   -0.0430 B   0  0  0  0  0  0  0  0  0  0  0  0
   -1.9140    0.6700    0.0600 B   0  0  0  0  0  0  0  0  0  0  0  0
   -0.6520    1.3270    0.5450 B   0  0  0  0  0  0  0  0  0  0  0  0
   -0.5360   -1.3710   -0.4730 B   0  0  0  0  0  0  0  0  0  0  0  0
    0.1240    0.5890    1.5930 B   0  0  0  0  0  0  0  0  0  0  0  0
    1.1250   -0.4390    1.1160 B   0  0  0  0  0  0  0  0  0  0  0  0
    0.2100    1.7370   -0.6490 B   0  0  0  0  0  0  0  0  0  0  0  0
    0.1210   -0.6080   -1.6030 B   0  0  0  0  0  0  0  0  0  0  0  0
    2.4652    0.5066   -1.9812 B   0  0  0  0  0  0  0  0  0  0  0  0
    0.4090   -1.7110    0.6530 B   0  0  0  0  0  0  0  0  0  0  0  0
    1.9670    0.0880   -0.0480 B   0  0  0  0  0  0  0  0  0  0  0  0
    1.0050    0.5390   -1.1510 B   0  0  0  0  0  0  0  0  0  0  0  0
    0.4321    1.3938    0.4343 S   0  0  0  0  0  0  0  0  0  0  0  0
   -0.6580    2.1616    0.1668 H   0  0  0  0  0  0  0  0  0  0  0  0
  2  1  1  0  0  0  0
  3  1  1  0  0  0  0
  3  2  1  0  0  0  0
  4  1  1  0  0  0  0
  4  2  1  0  0  0  0
  5  1  1  0  0  0  0
  5  3  1  0  0  0  0
  6  1  1  0  0  0  0
  6  4  1  0  0  0  0
  6  5  1  0  0  0  0
  7  2  1  0  0  0  0
  7  3  1  0  0  0  0
  8  2  1  0  0  0  0
  8  4  1  0  0  0  0
  8  7  1  0  0  0  0
  9  3  1  0  0  0  0
  9  5  1  0  0  0  0
  9  7  1  0  0  0  0
 10  4  1  0  0  0  0
 10  6  1  0  0  0  0
 10  8  1  0  0  0  0
 11  5  1  0  0  0  0
 11  6  1  0  0  0  0
 11  9  1  0  0  0  0
 11 10  1  0  0  0  0
 12  7  1  0  0  0  0
 12  8  1  0  0  0  0
 12  9  1  0  0  0  0
 12 10  1  0  0  0  0
 12 11  1  0  0  0  0
 13 12  1  0  0  0  0
 13 14  1  0  0  0  0
M  ISO  8   1  10   2  10   3  10   4  10   5  10   6  10   7  10   8  10
M  ISO  4   9  10  10  10  11  10  12  10
M  END
>  <DRUGBANK_ID>
DB17408

>  <COMMON_NAME>
Borocaptate

$$$$
