
 OpenBabel10282417153D

 63 67  0  0  0  0  0  0  0  0999 V2000
    1.2903    0.8153   -0.5132 C   0  0  2  0  0  0  0  0  0  0  0  0
   -0.0158    1.1650    0.2838 C   0  0  1  0  0  0  0  0  0  0  0  0
   -1.2084    0.6902   -0.5134 C   0  0  0  0  0  0  0  0  0  0  0  0
   -1.1959   -0.6519   -0.4813 C   0  0  0  0  0  0  0  0  0  0  0  0
    0.0006   -1.0729    0.3600 C   0  0  1  0  0  0  0  0  0  0  0  0
    1.2994   -0.7552   -0.4292 C   0  0  2  0  0  0  0  0  0  0  0  0
    5.4089    2.6998   -1.6071 C   0  0  0  0  0  0  0  0  0  0  0  0
    4.6019    1.8842   -0.8787 N   0  0  0  0  0  0  0  0  0  0  0  0
    3.2894    2.2314   -0.7635 C   0  0  0  0  0  0  0  0  0  0  0  0
    2.7883    3.3705   -1.3764 C   0  0  0  0  0  0  0  0  0  0  0  0
    3.6837    4.1619   -2.0367 C   0  0  0  0  0  0  0  0  0  0  0  0
    4.9766    3.8445   -2.1675 N   0  0  0  0  0  0  0  0  0  0  0  0
   10.2804    5.9773   -4.3660 N   0  0  0  0  0  0  0  0  0  0  0  0
   11.5031    6.5038   -3.7460 C   0  0  0  0  0  0  0  0  0  0  0  0
   11.5842    8.0343   -3.9634 C   0  0  0  0  0  0  0  0  0  0  0  0
   11.5341    8.3696   -5.4056 N   0  0  0  0  0  0  0  0  0  0  0  0
   10.2416    7.8771   -5.9439 C   0  0  0  0  0  0  0  0  0  0  0  0
   10.0802    6.3389   -5.7735 C   0  0  0  0  0  0  0  0  0  0  0  0
    9.4783    5.0648   -3.7128 C   0  0  0  0  0  0  0  0  0  0  0  0
    9.2733    3.7672   -4.2129 C   0  0  0  0  0  0  0  0  0  0  0  0
    8.4264    2.8405   -3.5642 C   0  0  0  0  0  0  0  0  0  0  0  0
    7.7211    3.2040   -2.4160 C   0  0  0  0  0  0  0  0  0  0  0  0
    7.9357    4.4905   -1.9090 C   0  0  0  0  0  0  0  0  0  0  0  0
    8.7962    5.4153   -2.5321 C   0  0  0  0  0  0  0  0  0  0  0  0
    8.8766    6.8021   -1.9543 C   0  0  0  0  0  0  0  0  0  0  0  0
   11.6841    9.8044   -5.6143 C   0  0  0  0  0  0  0  0  0  0  0  0
    6.7526    2.3651   -1.8307 N   0  0  0  0  0  0  0  0  0  0  0  0
    1.5138    3.7583   -1.2378 F   0  0  0  0  0  0  0  0  0  0  0  0
    2.4510    1.4932    0.1086 N   0  0  0  0  0  0  0  0  0  0  0  0
    2.5534   -1.3881    0.1524 C   0  0  0  0  0  0  0  0  0  0  0  0
    2.8500   -1.2090    1.4681 N   0  0  0  0  0  0  0  0  0  0  0  0
    3.3614   -1.9995   -0.5536 O   0  0  0  0  0  0  0  0  0  0  0  0
   -0.0550    0.0824    1.3644 C   0  0  0  0  0  0  0  0  0  0  0  0
   -0.0843   -2.0767    0.7817 H   0  0  0  0  0  0  0  0  0  0  0  0
   -0.0877    2.1823    0.6682 H   0  0  0  0  0  0  0  0  0  0  0  0
    1.1613    1.1129   -1.5649 H   0  0  0  0  0  0  0  0  0  0  0  0
   -1.9176    1.3281   -1.0191 H   0  0  0  0  0  0  0  0  0  0  0  0
   -1.9057   -1.3087   -0.9651 H   0  0  0  0  0  0  0  0  0  0  0  0
    1.1965   -1.1748   -1.4429 H   0  0  0  0  0  0  0  0  0  0  0  0
    3.3930    5.1134   -2.4641 H   0  0  0  0  0  0  0  0  0  0  0  0
   12.3763    6.0263   -4.2070 H   0  0  0  0  0  0  0  0  0  0  0  0
   11.5613    6.2780   -2.6766 H   0  0  0  0  0  0  0  0  0  0  0  0
   12.5137    8.4056   -3.5179 H   0  0  0  0  0  0  0  0  0  0  0  0
   10.7541    8.5285   -3.4392 H   0  0  0  0  0  0  0  0  0  0  0  0
    9.4106    8.3806   -5.4287 H   0  0  0  0  0  0  0  0  0  0  0  0
   10.1625    8.1249   -7.0085 H   0  0  0  0  0  0  0  0  0  0  0  0
   10.8189    5.8236   -6.3991 H   0  0  0  0  0  0  0  0  0  0  0  0
    9.0807    6.0548   -6.1229 H   0  0  0  0  0  0  0  0  0  0  0  0
    9.7797    3.4607   -5.1261 H   0  0  0  0  0  0  0  0  0  0  0  0
    8.2780    1.8608   -4.0109 H   0  0  0  0  0  0  0  0  0  0  0  0
    7.3868    4.7968   -1.0213 H   0  0  0  0  0  0  0  0  0  0  0  0
    9.8939    7.0335   -1.6334 H   0  0  0  0  0  0  0  0  0  0  0  0
    8.5426    7.5385   -2.6923 H   0  0  0  0  0  0  0  0  0  0  0  0
    8.2453    6.9088   -1.0675 H   0  0  0  0  0  0  0  0  0  0  0  0
   11.6734   10.0357   -6.6850 H   0  0  0  0  0  0  0  0  0  0  0  0
   10.8950   10.3840   -5.1240 H   0  0  0  0  0  0  0  0  0  0  0  0
   12.6532   10.1445   -5.2313 H   0  0  0  0  0  0  0  0  0  0  0  0
    7.0294    1.4580   -1.4937 H   0  0  0  0  0  0  0  0  0  0  0  0
    3.0358    0.8795    0.6689 H   0  0  0  0  0  0  0  0  0  0  0  0
    3.7071   -1.6286    1.8064 H   0  0  0  0  0  0  0  0  0  0  0  0
    2.2101   -0.8987    2.1819 H   0  0  0  0  0  0  0  0  0  0  0  0
    0.7818    0.1742    2.0501 H   0  0  0  0  0  0  0  0  0  0  0  0
   -0.9673    0.0752    1.9751 H   0  0  0  0  0  0  0  0  0  0  0  0
  1  2  1  0  0  0  0
  1 29  1  0  0  0  0
  1  6  1  0  0  0  0
  1 36  1  6  0  0  0
  2  3  1  0  0  0  0
  2 33  1  0  0  0  0
  2 35  1  1  0  0  0
  3  4  2  0  0  0  0
  3 37  1  0  0  0  0
  4  5  1  0  0  0  0
  4 38  1  0  0  0  0
  5  6  1  0  0  0  0
  5 33  1  0  0  0  0
  5 34  1  1  0  0  0
  6 39  1  6  0  0  0
  6 30  1  0  0  0  0
  7  8  2  0  0  0  0
  8  9  1  0  0  0  0
  9 10  2  0  0  0  0
  9 29  1  0  0  0  0
 10 11  1  0  0  0  0
 10 28  1  0  0  0  0
 11 12  2  0  0  0  0
 11 40  1  0  0  0  0
 12  7  1  0  0  0  0
 13 14  1  0  0  0  0
 13 18  1  0  0  0  0
 14 15  1  0  0  0  0
 14 41  1  0  0  0  0
 14 42  1  0  0  0  0
 15 16  1  0  0  0  0
 15 43  1  0  0  0  0
 15 44  1  0  0  0  0
 16 17  1  0  0  0  0
 16 26  1  0  0  0  0
 17 18  1  0  0  0  0
 17 45  1  0  0  0  0
 17 46  1  0  0  0  0
 18 47  1  0  0  0  0
 18 48  1  0  0  0  0
 19 20  2  0  0  0  0
 19 13  1  0  0  0  0
 20 21  1  0  0  0  0
 20 49  1  0  0  0  0
 21 22  2  0  0  0  0
 21 50  1  0  0  0  0
 22 23  1  0  0  0  0
 22 27  1  0  0  0  0
 23 24  2  0  0  0  0
 23 51  1  0  0  0  0
 24 19  1  0  0  0  0
 24 25  1  0  0  0  0
 25 52  1  0  0  0  0
 25 53  1  0  0  0  0
 25 54  1  0  0  0  0
 26 55  1  0  0  0  0
 26 56  1  0  0  0  0
 26 57  1  0  0  0  0
 27  7  1  0  0  0  0
 27 58  1  0  0  0  0
 29 59  1  0  0  0  0
 30 31  1  0  0  0  0
 30 32  2  0  0  0  0
 31 60  1  0  0  0  0
 31 61  1  0  0  0  0
 33 62  1  0  0  0  0
 33 63  1  0  0  0  0
M  END
>  <DRUGBANK_ID>
DB06347

>  <COMMON_NAME>
Cenisertib

>  <CAS_NUMBER>
871357-89-0

>  <UNII>
5277GPA358

>  <SYNONYMS>
Cenisertib

$$$$
