NOM
 OpenBabel10282417123D

 34 37  0  0  0  0  0  0  0  0999 V2000
   -0.8351   -0.6374   -0.4881 C   0  0  0  0  0  0  0  0  0  0  0  0
    0.4835   -0.8256   -1.0937 C   0  0  0  0  0  0  0  0  0  0  0  0
    1.5089    0.1906   -1.0248 C   0  0  0  0  0  0  0  0  0  0  0  0
    1.2495    0.9069    0.0674 C   0  0  0  0  0  0  0  0  0  0  0  0
   -0.0499    1.4245   -0.0018 C   0  0  0  0  0  0  0  0  0  0  0  0
   -1.1188    0.5845    0.0474 C   0  0  0  0  0  0  0  0  0  0  0  0
    2.3443    1.3197   -2.0948 C   0  0  0  0  0  0  0  0  0  0  0  0
    2.5558    2.9362   -1.4807 C   0  0  0  0  0  0  0  0  0  0  0  0
    2.4316    2.9282   -0.1324 C   0  0  0  0  0  0  0  0  0  0  0  0
    2.4933    1.5895    0.3821 C   0  0  0  0  0  0  0  0  0  0  0  0
    3.5508    1.0167    0.5893 O   0  0  0  0  0  0  0  0  0  0  0  0
    2.8647    0.9674   -3.0964 O   0  0  0  0  0  0  0  0  0  0  0  0
   -0.4112    2.4610   -0.8675 O   0  0  0  0  0  0  0  0  0  0  0  0
    2.7992    4.4715   -1.9534 C   0  0  2  0  0  0  0  0  0  0  0  0
    1.8660    5.3546   -1.0879 C   0  0  1  0  0  0  0  0  0  0  0  0
    2.2525    5.3066    0.2761 O   0  0  0  0  0  0  0  0  0  0  0  0
    2.0541    4.0119    0.8363 C   0  0  1  0  0  0  0  0  0  0  0  0
    0.5755    3.9301    1.2624 C   0  0  0  0  0  0  0  0  0  0  0  0
    1.9370    6.7561   -1.6200 C   0  0  0  0  0  0  0  0  0  0  0  0
    2.3919    6.4706   -3.0160 C   0  0  0  0  0  0  0  0  0  0  0  0
    2.5064    7.3444   -3.8647 O   0  0  0  0  0  0  0  0  0  0  0  0
    2.5753    5.0899   -3.2248 O   0  0  0  0  0  0  0  0  0  0  0  0
    3.8452    4.7091   -1.6818 H   0  0  0  0  0  0  0  0  0  0  0  0
    0.8271    5.0360   -1.2380 H   0  0  0  0  0  0  0  0  0  0  0  0
    2.6670    3.9136    1.7342 H   0  0  0  0  0  0  0  0  0  0  0  0
   -1.6084   -1.4046   -0.4206 H   0  0  0  0  0  0  0  0  0  0  0  0
    0.7746   -1.8551   -0.7651 H   0  0  0  0  0  0  0  0  0  0  0  0
   -2.1103    0.9622    0.2739 H   0  0  0  0  0  0  0  0  0  0  0  0
    0.3557    2.9214   -1.2217 H   0  0  0  0  0  0  0  0  0  0  0  0
    0.3190    2.9408    1.6412 H   0  0  0  0  0  0  0  0  0  0  0  0
    0.3116    4.6144    2.0622 H   0  0  0  0  0  0  0  0  0  0  0  0
   -0.1017    4.2077    0.4448 H   0  0  0  0  0  0  0  0  0  0  0  0
    2.6002    7.4260   -1.0612 H   0  0  0  0  0  0  0  0  0  0  0  0
    0.9358    7.2136   -1.6357 H   0  0  0  0  0  0  0  0  0  0  0  0
  1  2  2  0  0  0  0
  1  6  1  0  0  0  0
  1 26  1  0  0  0  0
  2  3  1  0  0  0  0
  2 27  1  0  0  0  0
  3  4  2  0  0  0  0
  3  7  1  0  0  0  0
  4  5  1  0  0  0  0
  4 10  1  0  0  0  0
  5  6  2  0  0  0  0
  5 13  1  0  0  0  0
  6 28  1  0  0  0  0
  7  8  1  0  0  0  0
  7 12  2  0  0  0  0
  8  9  2  0  0  0  0
  8 14  1  0  0  0  0
  9 10  1  0  0  0  0
  9 17  1  0  0  0  0
 10 11  2  0  0  0  0
 13 29  1  0  0  0  0
 14 15  1  0  0  0  0
 14 22  1  0  0  0  0
 14 23  1  1  0  0  0
 15 16  1  0  0  0  0
 15 19  1  0  0  0  0
 15 24  1  6  0  0  0
 16 17  1  0  0  0  0
 17 18  1  0  0  0  0
 17 25  1  1  0  0  0
 18 30  1  0  0  0  0
 18 31  1  0  0  0  0
 18 32  1  0  0  0  0
 19 20  1  0  0  0  0
 19 33  1  0  0  0  0
 19 34  1  0  0  0  0
 20 21  2  0  0  0  0
 20 22  1  0  0  0  0
M  END
>  <DRUGBANK_ID>
DB01668

>  <SECONDARY_ACCESSION_NUMBERS>
EXPT02375

>  <COMMON_NAME>
Nanaomycin D

$$$$
