
 OpenBabel10282417233D

 44 47  0  0  0  0  0  0  0  0999 V2000
   -1.6125    0.6688    0.0572 C   0  0  0  0  0  0  0  0  0  0  0  0
   -1.3117   -0.6074    0.5339 C   0  0  0  0  0  0  0  0  0  0  0  0
   -2.3262   -1.5449    0.7024 C   0  0  0  0  0  0  0  0  0  0  0  0
   -3.6177   -1.1319    0.8931 C   0  0  0  0  0  0  0  0  0  0  0  0
   -3.8781    0.2276    0.8447 C   0  0  0  0  0  0  0  0  0  0  0  0
   -2.9164    1.1210    0.3451 C   0  0  0  0  0  0  0  0  0  0  0  0
    3.9950    0.2998    0.8103 C   0  0  0  0  0  0  0  0  0  0  0  0
    3.8108   -0.9931    0.3415 C   0  0  0  0  0  0  0  0  0  0  0  0
    2.5309   -1.3903   -0.0067 C   0  0  0  0  0  0  0  0  0  0  0  0
    1.4901   -0.5060    0.2779 C   0  0  0  0  0  0  0  0  0  0  0  0
    1.6816    0.8638    0.3817 C   0  0  0  0  0  0  0  0  0  0  0  0
    2.9717    1.2543    0.7496 C   0  0  0  0  0  0  0  0  0  0  0  0
    0.1820   -1.2970    1.1382 S   0  0  0  0  0  0  0  0  0  0  0  0
    0.5991    1.8950    0.1385 C   0  0  0  0  0  0  0  0  0  0  0  0
   -0.6367    1.5233   -0.7591 C   0  0  3  0  0  0  0  0  0  0  0  0
   -5.3973    0.7826    1.4131 Cl  0  0  0  0  0  0  0  0  0  0  0  0
   -0.3517    1.1381   -2.1974 N   0  0  0  0  0  0  0  0  0  0  0  0
   -1.5084    1.0190   -3.1118 C   0  0  0  0  0  0  0  0  0  0  0  0
   -2.3241   -0.2877   -2.9449 C   0  0  0  0  0  0  0  0  0  0  0  0
   -1.5125   -1.5204   -3.1023 N   0  0  0  0  0  0  0  0  0  0  0  0
   -0.2674   -1.4063   -2.3207 C   0  0  0  0  0  0  0  0  0  0  0  0
    0.4705   -0.0517   -2.4688 C   0  0  0  0  0  0  0  0  0  0  0  0
   -2.2838   -2.6838   -2.6392 C   0  0  0  0  0  0  0  0  0  0  0  0
   -2.0757   -2.6053    0.7197 H   0  0  0  0  0  0  0  0  0  0  0  0
   -4.3572   -1.8772    1.1544 H   0  0  0  0  0  0  0  0  0  0  0  0
   -3.1894    2.1645    0.1991 H   0  0  0  0  0  0  0  0  0  0  0  0
    4.9623    0.5767    1.2279 H   0  0  0  0  0  0  0  0  0  0  0  0
    4.6008   -1.7328    0.3409 H   0  0  0  0  0  0  0  0  0  0  0  0
    2.3340   -2.4073   -0.3268 H   0  0  0  0  0  0  0  0  0  0  0  0
    3.1593    2.2815    1.0337 H   0  0  0  0  0  0  0  0  0  0  0  0
    1.0691    2.7747   -0.3274 H   0  0  0  0  0  0  0  0  0  0  0  0
    0.2261    2.2317    1.1152 H   0  0  0  0  0  0  0  0  0  0  0  0
   -1.1429    2.4984   -0.8894 H   0  0  0  0  0  0  0  0  0  0  0  0
   -1.1165    1.0151   -4.1435 H   0  0  0  0  0  0  0  0  0  0  0  0
   -2.1486    1.9044   -3.0603 H   0  0  0  0  0  0  0  0  0  0  0  0
   -3.1390   -0.2995   -3.6750 H   0  0  0  0  0  0  0  0  0  0  0  0
   -2.8101   -0.2664   -1.9703 H   0  0  0  0  0  0  0  0  0  0  0  0
   -0.5575   -1.5713   -1.3061 H   0  0  0  0  0  0  0  0  0  0  0  0
    0.4233   -2.2354   -2.5095 H   0  0  0  0  0  0  0  0  0  0  0  0
    0.8543   -0.0162   -3.4966 H   0  0  0  0  0  0  0  0  0  0  0  0
    1.4016    0.0210   -1.9269 H   0  0  0  0  0  0  0  0  0  0  0  0
   -1.6450   -3.5669   -2.5202 H   0  0  0  0  0  0  0  0  0  0  0  0
   -2.7738   -2.5167   -1.6751 H   0  0  0  0  0  0  0  0  0  0  0  0
   -3.0692   -2.9334   -3.3562 H   0  0  0  0  0  0  0  0  0  0  0  0
  1  2  2  0  0  0  0
  1 15  1  0  0  0  0
  2  3  1  0  0  0  0
  3  4  2  0  0  0  0
  3 24  1  0  0  0  0
  4  5  1  0  0  0  0
  4 25  1  0  0  0  0
  5 16  1  0  0  0  0
  5  6  2  0  0  0  0
  6  1  1  0  0  0  0
  6 26  1  0  0  0  0
  7  8  2  0  0  0  0
  7 27  1  0  0  0  0
  8  9  1  0  0  0  0
  8 28  1  0  0  0  0
  9 10  2  0  0  0  0
  9 29  1  0  0  0  0
 10 13  1  0  0  0  0
 10 11  1  0  0  0  0
 11 12  2  0  0  0  0
 11 14  1  0  0  0  0
 12  7  1  0  0  0  0
 12 30  1  0  0  0  0
 13  2  1  0  0  0  0
 14 15  1  0  0  0  0
 14 31  1  0  0  0  0
 14 32  1  0  0  0  0
 15 17  1  0  0  0  0
 15 33  1  0  0  0  0
 17 18  1  0  0  0  0
 17 22  1  0  0  0  0
 18 19  1  0  0  0  0
 18 34  1  0  0  0  0
 18 35  1  0  0  0  0
 19 20  1  0  0  0  0
 19 36  1  0  0  0  0
 19 37  1  0  0  0  0
 20 21  1  0  0  0  0
 20 23  1  0  0  0  0
 21 22  1  0  0  0  0
 21 38  1  0  0  0  0
 21 39  1  0  0  0  0
 22 40  1  0  0  0  0
 22 41  1  0  0  0  0
 23 42  1  0  0  0  0
 23 43  1  0  0  0  0
 23 44  1  0  0  0  0
M  END
>  <DRUGBANK_ID>
DB15971

>  <COMMON_NAME>
Clorotepine

>  <CAS_NUMBER>
13448-22-1

>  <UNII>
E65W20MU7A

>  <SYNONYMS>
Clorotepina; Clorotepine; Clorotepinum; Clothepin; Octoclothepine

$$$$
