
 OpenBabel10282417173D

 58 61  0  0  0  0  0  0  0  0999 V2000
    4.5452   -1.3999    0.0052 C   0  0  0  0  0  0  0  0  0  0  0  0
    5.9194   -1.6342    0.0666 C   0  0  0  0  0  0  0  0  0  0  0  0
    6.4092   -2.9387    0.1076 C   0  0  0  0  0  0  0  0  0  0  0  0
    5.5356   -4.0300    0.1072 C   0  0  0  0  0  0  0  0  0  0  0  0
    4.1515   -3.8307    0.0487 C   0  0  0  0  0  0  0  0  0  0  0  0
    3.6868   -2.5018   -0.0500 C   0  0  0  0  0  0  0  0  0  0  0  0
    3.1524   -4.9719    0.1121 C   0  0  0  0  0  0  0  0  0  0  0  0
    2.3036   -4.9707    1.3623 C   0  0  0  0  0  0  0  0  0  0  0  0
    1.3598   -3.9727    1.5375 C   0  0  0  0  0  0  0  0  0  0  0  0
    0.6208   -3.8899    2.6979 C   0  0  0  0  0  0  0  0  0  0  0  0
    0.7654   -4.8348    3.7117 C   0  0  0  0  0  0  0  0  0  0  0  0
    1.6261   -5.9044    3.5053 C   0  0  0  0  0  0  0  0  0  0  0  0
    2.4262   -5.9580    2.3535 C   0  0  0  0  0  0  0  0  0  0  0  0
    6.2425   -5.6045    0.1532 Cl  0  0  0  0  0  0  0  0  0  0  0  0
    0.1301   -4.7732    4.9213 O   0  0  0  0  0  0  0  0  0  0  0  0
   -0.6237   -3.6031    5.2474 C   0  0  2  0  0  0  0  0  0  0  0  0
    3.9685   -0.0008    0.0405 C   0  0  2  0  0  0  0  0  0  0  0  0
    4.4360    0.6703   -1.1327 O   0  0  0  0  0  0  0  0  0  0  0  0
    3.9198    2.0033   -1.2481 C   0  0  1  0  0  0  0  0  0  0  0  0
    4.3778    2.8553   -0.0595 C   0  0  2  0  0  0  0  0  0  0  0  0
    3.9393    2.2090    1.2638 C   0  0  1  0  0  0  0  0  0  0  0  0
    4.3783    0.7394    1.3327 C   0  0  1  0  0  0  0  0  0  0  0  0
    3.8280    0.1125    2.4992 O   0  0  0  0  0  0  0  0  0  0  0  0
    3.8769    4.1871   -0.1727 O   0  0  0  0  0  0  0  0  0  0  0  0
    4.4796    2.9383    2.3737 O   0  0  0  0  0  0  0  0  0  0  0  0
    4.4366    2.5963   -2.5633 C   0  0  0  0  0  0  0  0  0  0  0  0
    4.0059    1.7943   -3.6622 O   0  0  0  0  0  0  0  0  0  0  0  0
   -1.8738   -3.4010    4.3978 C   0  0  0  0  0  0  0  0  0  0  0  0
   -2.0386   -1.9900    4.2065 O   0  0  0  0  0  0  0  0  0  0  0  0
   -0.9546   -1.2871    4.8291 C   0  0  0  0  0  0  0  0  0  0  0  0
    0.1245   -2.2790    5.2039 C   0  0  0  0  0  0  0  0  0  0  0  0
    6.6192   -0.8032    0.0879 H   0  0  0  0  0  0  0  0  0  0  0  0
    7.4827   -3.0988    0.1530 H   0  0  0  0  0  0  0  0  0  0  0  0
    2.6268   -2.2981   -0.1513 H   0  0  0  0  0  0  0  0  0  0  0  0
    2.4876   -4.9119   -0.7594 H   0  0  0  0  0  0  0  0  0  0  0  0
    3.6395   -5.9460    0.0266 H   0  0  0  0  0  0  0  0  0  0  0  0
    1.1720   -3.2041    0.7974 H   0  0  0  0  0  0  0  0  0  0  0  0
   -0.0370   -3.0388    2.7521 H   0  0  0  0  0  0  0  0  0  0  0  0
    1.6991   -6.6979    4.2485 H   0  0  0  0  0  0  0  0  0  0  0  0
    3.1409   -6.7659    2.2403 H   0  0  0  0  0  0  0  0  0  0  0  0
   -0.9587   -3.7432    6.2829 H   0  0  0  0  0  0  0  0  0  0  0  0
    2.8711   -0.0602   -0.0049 H   0  0  0  0  0  0  0  0  0  0  0  0
    2.8236    1.9508   -1.3018 H   0  0  0  0  0  0  0  0  0  0  0  0
    5.4726    2.9280   -0.0598 H   0  0  0  0  0  0  0  0  0  0  0  0
    2.8512    2.2815    1.3771 H   0  0  0  0  0  0  0  0  0  0  0  0
    5.4668    0.7179    1.4604 H   0  0  0  0  0  0  0  0  0  0  0  0
    2.8587    0.1636    2.4632 H   0  0  0  0  0  0  0  0  0  0  0  0
    2.9118    4.1740   -0.0490 H   0  0  0  0  0  0  0  0  0  0  0  0
    5.4480    2.8345    2.3656 H   0  0  0  0  0  0  0  0  0  0  0  0
    4.0587    3.6110   -2.7174 H   0  0  0  0  0  0  0  0  0  0  0  0
    5.5311    2.6193   -2.5791 H   0  0  0  0  0  0  0  0  0  0  0  0
    4.3486    0.8974   -3.4858 H   0  0  0  0  0  0  0  0  0  0  0  0
   -1.8371   -3.8828    3.4157 H   0  0  0  0  0  0  0  0  0  0  0  0
   -2.7643   -3.8128    4.8806 H   0  0  0  0  0  0  0  0  0  0  0  0
   -1.3445   -0.7764    5.7129 H   0  0  0  0  0  0  0  0  0  0  0  0
   -0.5827   -0.5312    4.1290 H   0  0  0  0  0  0  0  0  0  0  0  0
    0.6124   -2.0325    6.1517 H   0  0  0  0  0  0  0  0  0  0  0  0
    0.9405   -2.2377    4.4768 H   0  0  0  0  0  0  0  0  0  0  0  0
  1  2  2  0  0  0  0
  1  6  1  0  0  0  0
  2  3  1  0  0  0  0
  2 32  1  0  0  0  0
  3  4  2  0  0  0  0
  3 33  1  0  0  0  0
  4  5  1  0  0  0  0
  4 14  1  0  0  0  0
  5  6  2  0  0  0  0
  5  7  1  0  0  0  0
  6 34  1  0  0  0  0
  7  8  1  0  0  0  0
  7 35  1  0  0  0  0
  7 36  1  0  0  0  0
  8  9  2  0  0  0  0
  8 13  1  0  0  0  0
  9 10  1  0  0  0  0
  9 37  1  0  0  0  0
 10 11  2  0  0  0  0
 10 38  1  0  0  0  0
 11 12  1  0  0  0  0
 11 15  1  0  0  0  0
 12 13  2  0  0  0  0
 12 39  1  0  0  0  0
 13 40  1  0  0  0  0
 16 15  1  0  0  0  0
 16 28  1  0  0  0  0
 16 31  1  0  0  0  0
 16 41  1  1  0  0  0
 17 18  1  0  0  0  0
 17 42  1  6  0  0  0
 17  1  1  0  0  0  0
 18 19  1  0  0  0  0
 19 20  1  0  0  0  0
 19 26  1  0  0  0  0
 19 43  1  6  0  0  0
 20 24  1  0  0  0  0
 20 44  1  6  0  0  0
 21 20  1  0  0  0  0
 21 22  1  0  0  0  0
 21 25  1  0  0  0  0
 21 45  1  1  0  0  0
 22 17  1  0  0  0  0
 22 23  1  0  0  0  0
 22 46  1  1  0  0  0
 23 47  1  0  0  0  0
 24 48  1  0  0  0  0
 25 49  1  0  0  0  0
 26 27  1  0  0  0  0
 26 50  1  0  0  0  0
 26 51  1  0  0  0  0
 27 52  1  0  0  0  0
 28 29  1  0  0  0  0
 28 53  1  0  0  0  0
 28 54  1  0  0  0  0
 29 30  1  0  0  0  0
 30 31  1  0  0  0  0
 30 55  1  0  0  0  0
 30 56  1  0  0  0  0
 31 57  1  0  0  0  0
 31 58  1  0  0  0  0
M  END
>  <DRUGBANK_ID>
DB09038

>  <COMMON_NAME>
Empagliflozin

>  <CAS_NUMBER>
864070-44-0

>  <UNII>
HDC1R2M35U

>  <SYNONYMS>
(1S)-1,5-anhydro-1-(4-chloro-3-{4-[(3S)-tetrahydrofuran-3-yloxy]benzyl}phenyl)-D-glucitol; 1-chloro-4-(glucopyranos-1-yl)-2-(4-(tetrahydrofuran-3-yloxy)benzyl)benzene; Empagliflozin; Empagliflozina; Empagliflozine; Empagliflozinum

$$$$
