EG3
 OpenBabel10282417163D

 63 64  0  0  0  0  0  0  0  0999 V2000
    0.9424    0.1831    0.0593 S   0  0  0  0  0  0  0  0  0  0  0  0
    0.5030    0.6672    1.3784 O   0  0  0  0  0  0  0  0  0  0  0  0
    0.5192    0.7651   -1.1644 O   0  0  0  0  0  0  0  0  0  0  0  0
    0.4762   -1.4493    0.0170 N   0  0  0  0  0  0  0  0  0  0  0  0
    5.4898    0.1035   -0.2268 C   0  0  0  0  0  0  0  0  0  0  0  0
    4.7006   -1.0365   -0.2499 C   0  0  0  0  0  0  0  0  0  0  0  0
    3.3462   -1.0455   -0.0193 C   0  0  0  0  0  0  0  0  0  0  0  0
    2.7029    0.1620    0.0817 C   0  0  0  0  0  0  0  0  0  0  0  0
    3.4391    1.3580    0.0412 C   0  0  0  0  0  0  0  0  0  0  0  0
    4.8330    1.3337   -0.1550 C   0  0  0  0  0  0  0  0  0  0  0  0
    6.9698    0.0164   -0.1873 C   0  0  0  0  0  0  0  0  0  0  0  0
    7.6405    1.0504   -0.2450 O   0  0  0  0  0  0  0  0  0  0  0  0
    7.6416   -1.1677    0.0365 N   0  0  0  0  0  0  0  0  0  0  0  0
    7.3500   -2.6359    0.1542 C   0  0  0  0  0  0  0  0  0  0  0  0
    7.8024   -3.6353   -0.9241 C   0  0  0  0  0  0  0  0  0  0  0  0
    9.1189   -3.5597   -1.4008 O   0  0  0  0  0  0  0  0  0  0  0  0
    9.7705   -2.3186   -1.4893 C   0  0  0  0  0  0  0  0  0  0  0  0
    9.2903   -1.3769   -2.6026 C   0  0  0  0  0  0  0  0  0  0  0  0
    7.9148   -1.0766   -2.6715 O   0  0  0  0  0  0  0  0  0  0  0  0
    6.9674   -2.0634   -2.9643 C   0  0  0  0  0  0  0  0  0  0  0  0
    7.3556   -3.1714   -3.9761 C   0  0  0  0  0  0  0  0  0  0  0  0
    8.7284   -3.7698   -3.9850 N   0  0  0  0  0  0  0  0  0  0  0  0
    9.2230   -5.0363   -3.8228 C   0  0  0  0  0  0  0  0  0  0  0  0
   10.4496   -5.1895   -3.7854 O   0  0  0  0  0  0  0  0  0  0  0  0
    8.2715   -6.2282   -3.8068 C   0  0  1  0  0  0  0  0  0  0  0  0
    7.4435   -6.2070   -2.5910 N   0  0  0  0  0  0  0  0  0  0  0  0
    7.4103   -6.2101   -5.0752 C   0  0  0  0  0  0  0  0  0  0  0  0
    8.2616   -6.2828   -6.3113 C   0  0  0  0  0  0  0  0  0  0  0  0
    8.8063   -5.1157   -6.8739 C   0  0  0  0  0  0  0  0  0  0  0  0
    9.7250   -5.1939   -7.9100 C   0  0  0  0  0  0  0  0  0  0  0  0
   10.0997   -6.4425   -8.3914 C   0  0  0  0  0  0  0  0  0  0  0  0
    9.5824   -7.6047   -7.8171 C   0  0  0  0  0  0  0  0  0  0  0  0
    8.6213   -7.5270   -6.8174 C   0  0  0  0  0  0  0  0  0  0  0  0
    8.8903   -7.1379   -3.7717 H   0  0  0  0  0  0  0  0  0  0  0  0
    0.7584   -1.9663    0.8479 H   0  0  0  0  0  0  0  0  0  0  0  0
   -0.5404   -1.4920   -0.0984 H   0  0  0  0  0  0  0  0  0  0  0  0
    5.0587   -1.9849   -0.5717 H   0  0  0  0  0  0  0  0  0  0  0  0
    2.8560   -2.0108   -0.0013 H   0  0  0  0  0  0  0  0  0  0  0  0
    2.9324    2.3089    0.1762 H   0  0  0  0  0  0  0  0  0  0  0  0
    5.3885    2.2660   -0.2723 H   0  0  0  0  0  0  0  0  0  0  0  0
    8.5975   -0.8745    0.1796 H   0  0  0  0  0  0  0  0  0  0  0  0
    7.6837   -2.9861    1.1218 H   0  0  0  0  0  0  0  0  0  0  0  0
    6.2929   -2.7773    0.1898 H   0  0  0  0  0  0  0  0  0  0  0  0
    6.8783   -4.0254   -1.4205 H   0  0  0  0  0  0  0  0  0  0  0  0
    7.9382   -4.6699   -0.6426 H   0  0  0  0  0  0  0  0  0  0  0  0
    9.7951   -1.8692   -0.5053 H   0  0  0  0  0  0  0  0  0  0  0  0
   10.8272   -2.5416   -1.6504 H   0  0  0  0  0  0  0  0  0  0  0  0
    9.8085   -0.4265   -2.4789 H   0  0  0  0  0  0  0  0  0  0  0  0
    9.6235   -1.6694   -3.5888 H   0  0  0  0  0  0  0  0  0  0  0  0
    6.2388   -1.2510   -3.0857 H   0  0  0  0  0  0  0  0  0  0  0  0
    5.9848   -2.4416   -2.5735 H   0  0  0  0  0  0  0  0  0  0  0  0
    6.6746   -3.9957   -3.7603 H   0  0  0  0  0  0  0  0  0  0  0  0
    7.1750   -2.7899   -4.9749 H   0  0  0  0  0  0  0  0  0  0  0  0
    9.5338   -3.2111   -4.2122 H   0  0  0  0  0  0  0  0  0  0  0  0
    6.8132   -7.0013   -2.5760 H   0  0  0  0  0  0  0  0  0  0  0  0
    8.0891   -6.3219   -1.8064 H   0  0  0  0  0  0  0  0  0  0  0  0
    6.6928   -7.0340   -5.0396 H   0  0  0  0  0  0  0  0  0  0  0  0
    6.8026   -5.3112   -5.1686 H   0  0  0  0  0  0  0  0  0  0  0  0
    8.5483   -4.1342   -6.4865 H   0  0  0  0  0  0  0  0  0  0  0  0
   10.1644   -4.2863   -8.3139 H   0  0  0  0  0  0  0  0  0  0  0  0
   10.7975   -6.5134   -9.2186 H   0  0  0  0  0  0  0  0  0  0  0  0
    9.9465   -8.5756   -8.1349 H   0  0  0  0  0  0  0  0  0  0  0  0
    8.1705   -8.4301   -6.4156 H   0  0  0  0  0  0  0  0  0  0  0  0
  1  2  2  0  0  0  0
  1  3  2  0  0  0  0
  1  4  1  0  0  0  0
  1  8  1  0  0  0  0
  4 35  1  0  0  0  0
  4 36  1  0  0  0  0
  5  6  2  0  0  0  0
  5 10  1  0  0  0  0
  5 11  1  0  0  0  0
  6  7  1  0  0  0  0
  6 37  1  0  0  0  0
  7  8  2  0  0  0  0
  7 38  1  0  0  0  0
  8  9  1  0  0  0  0
  9 10  2  0  0  0  0
  9 39  1  0  0  0  0
 10 40  1  0  0  0  0
 11 12  2  0  0  0  0
 11 13  1  0  0  0  0
 13 14  1  0  0  0  0
 13 41  1  0  0  0  0
 14 15  1  0  0  0  0
 14 42  1  0  0  0  0
 14 43  1  0  0  0  0
 15 16  1  0  0  0  0
 15 44  1  0  0  0  0
 15 45  1  0  0  0  0
 16 17  1  0  0  0  0
 17 18  1  0  0  0  0
 17 46  1  0  0  0  0
 17 47  1  0  0  0  0
 18 19  1  0  0  0  0
 18 48  1  0  0  0  0
 18 49  1  0  0  0  0
 19 20  1  0  0  0  0
 20 21  1  0  0  0  0
 20 50  1  0  0  0  0
 20 51  1  0  0  0  0
 21 22  1  0  0  0  0
 21 52  1  0  0  0  0
 21 53  1  0  0  0  0
 22 23  1  0  0  0  0
 22 54  1  0  0  0  0
 23 24  2  0  0  0  0
 23 25  1  0  0  0  0
 25 26  1  0  0  0  0
 25 27  1  0  0  0  0
 25 34  1  1  0  0  0
 26 55  1  0  0  0  0
 26 56  1  0  0  0  0
 27 28  1  0  0  0  0
 27 57  1  0  0  0  0
 27 58  1  0  0  0  0
 28 29  2  0  0  0  0
 28 33  1  0  0  0  0
 29 30  1  0  0  0  0
 29 59  1  0  0  0  0
 30 31  2  0  0  0  0
 30 60  1  0  0  0  0
 31 32  1  0  0  0  0
 31 61  1  0  0  0  0
 32 33  2  0  0  0  0
 32 62  1  0  0  0  0
 33 63  1  0  0  0  0
M  END
>  <DRUGBANK_ID>
DB07710

>  <COMMON_NAME>
PHENYLALANYLAMINODI(ETHYLOXY)ETHYL BENZENESULFONAMIDEAMINOCARBONYLBENZENESULFONAMIDE

$$$$
