
 OpenBabel10282417193D

 45 48  0  0  1  0  0  0  0  0999 V2000
    2.2803   -0.1834   -0.0855 C   0  0  0  0  0  0  0  0  0  0  0  0
    1.5734    0.8027   -0.5531 N   0  0  0  0  0  0  0  0  0  0  0  0
    0.2810    0.5157   -0.2089 C   0  0  0  0  0  0  0  0  0  0  0  0
   -0.8786    1.3340   -0.1474 C   0  0  0  0  0  0  0  0  0  0  0  0
   -2.0649    0.6570   -0.0128 N   0  0  0  0  0  0  0  0  0  0  0  0
   -2.0506   -0.6954    0.1189 C   0  0  0  0  0  0  0  0  0  0  0  0
   -0.9694   -1.4892    0.3009 N   0  0  0  0  0  0  0  0  0  0  0  0
    0.1875   -0.8354    0.1268 C   0  0  0  0  0  0  0  0  0  0  0  0
    1.5041   -1.2839    0.2245 N   0  0  0  0  0  0  0  0  0  0  0  0
    2.1708   -2.5837    0.0505 C   0  0  2  0  0  0  0  0  0  0  0  0
    1.7472   -3.3113   -1.2149 C   0  0  0  0  0  0  0  0  0  0  0  0
    1.5188   -4.7858   -0.8591 C   0  0  1  0  0  0  0  0  0  0  0  0
    2.1603   -4.8754    0.4975 C   0  0  0  0  0  0  0  0  0  0  0  0
    2.3679   -3.6689    1.0536 C   0  0  0  0  0  0  0  0  0  0  0  0
    0.0447   -5.2363   -0.8177 C   0  0  0  0  0  0  0  0  0  0  0  0
   -0.5681   -5.1748   -2.1300 O   0  0  0  0  0  0  0  0  0  0  0  0
   -1.0846   -3.9780   -2.5305 C   0  0  0  0  0  0  0  0  0  0  0  0
   -1.1555   -2.9760   -1.8655 O   0  0  0  0  0  0  0  0  0  0  0  0
   -1.6082   -3.9757   -3.9505 C   0  0  0  0  0  0  0  0  0  0  0  0
   -0.8611   -4.6833   -4.9150 O   0  0  0  0  0  0  0  0  0  0  0  0
   -3.2598   -1.3487    0.1004 N   0  0  0  0  0  0  0  0  0  0  0  0
   -0.9200    2.7634   -0.2356 N   0  0  0  0  0  0  0  0  0  0  0  0
    0.1900    3.7307    0.0162 C   0  0  0  0  0  0  0  0  0  0  0  0
    1.3716    3.8660   -0.9184 C   0  0  0  0  0  0  0  0  0  0  0  0
    1.5560    3.3167    0.4718 C   0  0  0  0  0  0  0  0  0  0  0  0
    3.3606   -0.1950   -0.0466 H   0  0  0  0  0  0  0  0  0  0  0  0
    3.2224   -2.2842   -0.0671 H   0  0  0  0  0  0  0  0  0  0  0  0
    0.8771   -2.8273   -1.6106 H   0  0  0  0  0  0  0  0  0  0  0  0
    2.4981   -3.1956   -2.0048 H   0  0  0  0  0  0  0  0  0  0  0  0
    2.0444   -5.4027   -1.5993 H   0  0  0  0  0  0  0  0  0  0  0  0
    2.5049   -5.8155    0.9166 H   0  0  0  0  0  0  0  0  0  0  0  0
    2.9716   -3.5491    1.9462 H   0  0  0  0  0  0  0  0  0  0  0  0
    0.0188   -6.2961   -0.5208 H   0  0  0  0  0  0  0  0  0  0  0  0
   -0.5453   -4.7035   -0.0594 H   0  0  0  0  0  0  0  0  0  0  0  0
   -2.6334   -4.3491   -3.9106 H   0  0  0  0  0  0  0  0  0  0  0  0
   -1.6439   -2.9241   -4.2640 H   0  0  0  0  0  0  0  0  0  0  0  0
    0.0024   -4.2388   -4.9810 H   0  0  0  0  0  0  0  0  0  0  0  0
   -3.1984   -2.3481   -0.0187 H   0  0  0  0  0  0  0  0  0  0  0  0
   -4.1055   -0.8320   -0.0606 H   0  0  0  0  0  0  0  0  0  0  0  0
   -1.8681    3.0794   -0.0393 H   0  0  0  0  0  0  0  0  0  0  0  0
   -0.1834    4.6732    0.4159 H   0  0  0  0  0  0  0  0  0  0  0  0
    1.3919    3.2440   -1.8056 H   0  0  0  0  0  0  0  0  0  0  0  0
    1.8457    4.8319   -1.0822 H   0  0  0  0  0  0  0  0  0  0  0  0
    2.1966    3.8520    1.1535 H   0  0  0  0  0  0  0  0  0  0  0  0
    1.6219    2.2956    0.7783 H   0  0  0  0  0  0  0  0  0  0  0  0
  1  2  2  0  0  0  0
  1  9  1  0  0  0  0
  1 26  1  0  0  0  0
  2  3  1  0  0  0  0
  3  4  2  0  0  0  0
  3  8  1  0  0  0  0
  4  5  1  0  0  0  0
  4 22  1  0  0  0  0
  5  6  2  0  0  0  0
  6  7  1  0  0  0  0
  6 21  1  0  0  0  0
  7  8  2  0  0  0  0
  8  9  1  0  0  0  0
 10  9  1  0  0  0  0
 10 11  1  0  0  0  0
 10 14  1  0  0  0  0
 10 27  1  6  0  0  0
 11 12  1  0  0  0  0
 11 28  1  0  0  0  0
 11 29  1  0  0  0  0
 12 13  1  0  0  0  0
 12 15  1  0  0  0  0
 12 30  1  6  0  0  0
 13 14  2  0  0  0  0
 13 31  1  0  0  0  0
 14 32  1  0  0  0  0
 15 16  1  0  0  0  0
 15 33  1  0  0  0  0
 15 34  1  0  0  0  0
 16 17  1  0  0  0  0
 17 18  2  0  0  0  0
 17 19  1  0  0  0  0
 19 20  1  0  0  0  0
 19 35  1  0  0  0  0
 19 36  1  0  0  0  0
 20 37  1  0  0  0  0
 21 38  1  0  0  0  0
 21 39  1  0  0  0  0
 22 23  1  0  0  0  0
 22 40  1  0  0  0  0
 23 24  1  0  0  0  0
 23 25  1  0  0  0  0
 23 41  1  0  0  0  0
 24 25  1  0  0  0  0
 24 42  1  0  0  0  0
 24 43  1  0  0  0  0
 25 44  1  0  0  0  0
 25 45  1  0  0  0  0
M  END
>  <DRUGBANK_ID>
DB12187

>  <COMMON_NAME>
Abacavir hydroxyacetate

>  <CAS_NUMBER>
1446418-48-9

>  <UNII>
B3C7MG354B

$$$$
