
 OpenBabel10282417133D

 30 31  0  0  0  0  0  0  0  0999 V2000
    1.0258    0.1406    0.0556 O   0  0  0  0  0  0  0  0  0  0  0  0
    0.4104    0.9439   -0.8396 C   0  0  0  0  0  0  0  0  0  0  0  0
    1.0812    1.6537   -1.5788 O   0  0  0  0  0  0  0  0  0  0  0  0
   -1.1136    0.8590   -0.8216 C   0  0  0  0  0  0  0  0  0  0  0  0
   -1.6468   -0.4964   -1.2256 C   0  0  0  0  0  0  0  0  0  0  0  0
   -1.1228   -1.6068   -0.5792 C   0  0  0  0  0  0  0  0  0  0  0  0
   -1.3285   -2.9085   -1.0231 C   0  0  0  0  0  0  0  0  0  0  0  0
    0.2610   -4.1145   -0.2494 I   0  0  0  0  0  0  0  0  0  0  0  0
   -2.3146   -3.1738   -1.9844 C   0  0  0  0  0  0  0  0  0  0  0  0
   -2.7349   -4.4162   -2.4317 O   0  0  0  0  0  0  0  0  0  0  0  0
   -2.3654   -5.5461   -1.7404 C   0  0  0  0  0  0  0  0  0  0  0  0
   -2.6673   -5.7275   -0.3851 C   0  0  0  0  0  0  0  0  0  0  0  0
   -2.0437   -6.7602    0.3304 C   0  0  0  0  0  0  0  0  0  0  0  0
   -1.1889   -7.6481   -0.3303 C   0  0  0  0  0  0  0  0  0  0  0  0
   -0.5211   -8.6086    0.3789 O   0  0  0  0  0  0  0  0  0  0  0  0
   -0.9735   -7.5202   -1.7084 C   0  0  0  0  0  0  0  0  0  0  0  0
    0.3470   -8.7801   -2.7324 I   0  0  0  0  0  0  0  0  0  0  0  0
   -1.5752   -6.4767   -2.4203 C   0  0  0  0  0  0  0  0  0  0  0  0
   -2.9313   -2.0417   -2.5880 C   0  0  0  0  0  0  0  0  0  0  0  0
   -4.3354   -2.2272   -4.1596 I   0  0  0  0  0  0  0  0  0  0  0  0
   -2.5823   -0.7162   -2.2334 C   0  0  0  0  0  0  0  0  0  0  0  0
    1.9843    0.1668   -0.1473 H   0  0  0  0  0  0  0  0  0  0  0  0
   -1.4676    1.1049    0.1859 H   0  0  0  0  0  0  0  0  0  0  0  0
   -1.4938    1.6322   -1.4974 H   0  0  0  0  0  0  0  0  0  0  0  0
   -0.4401   -1.4565    0.2498 H   0  0  0  0  0  0  0  0  0  0  0  0
   -3.2552   -4.9833    0.1471 H   0  0  0  0  0  0  0  0  0  0  0  0
   -2.1522   -6.7876    1.4113 H   0  0  0  0  0  0  0  0  0  0  0  0
   -0.7703   -8.5664    1.3156 H   0  0  0  0  0  0  0  0  0  0  0  0
   -1.3642   -6.3275   -3.4758 H   0  0  0  0  0  0  0  0  0  0  0  0
   -3.0253    0.1349   -2.7509 H   0  0  0  0  0  0  0  0  0  0  0  0
  1  2  1  0  0  0  0
  1 22  1  0  0  0  0
  2  3  2  0  0  0  0
  2  4  1  0  0  0  0
  4  5  1  0  0  0  0
  4 23  1  0  0  0  0
  4 24  1  0  0  0  0
  5  6  2  0  0  0  0
  5 21  1  0  0  0  0
  6  7  1  0  0  0  0
  6 25  1  0  0  0  0
  7  8  1  0  0  0  0
  7  9  2  0  0  0  0
  9 10  1  0  0  0  0
  9 19  1  0  0  0  0
 10 11  1  0  0  0  0
 11 12  2  0  0  0  0
 11 18  1  0  0  0  0
 12 13  1  0  0  0  0
 12 26  1  0  0  0  0
 13 14  2  0  0  0  0
 13 27  1  0  0  0  0
 14 15  1  0  0  0  0
 14 16  1  0  0  0  0
 15 28  1  0  0  0  0
 16 17  1  0  0  0  0
 16 18  2  0  0  0  0
 18 29  1  0  0  0  0
 19 20  1  0  0  0  0
 19 21  2  0  0  0  0
 21 30  1  0  0  0  0
M  END
>  <DRUGBANK_ID>
DB03604

>  <SECONDARY_ACCESSION_NUMBERS>
EXPT00217; DB12922

>  <COMMON_NAME>
Tiratricol

>  <CAS_NUMBER>
51-24-1

>  <UNII>
29OQ9EU4R1

>  <SYNONYMS>
3,5,3'-Triiodothyroacetate; 3',3,5-Triiodothyroacetic acid; Tiratricol; Tiratricolum; Triacana; Triiodothyroacetic acid

$$$$
