
 OpenBabel10282417243D

 49 52  0  0  0  0  0  0  0  0999 V2000
    0.9109    0.0084   -0.0651 C   0  0  0  0  0  0  0  0  0  0  0  0
    0.4604   -1.3319    0.0796 O   0  0  0  0  0  0  0  0  0  0  0  0
    1.3534   -2.3450   -0.1343 C   0  0  0  0  0  0  0  0  0  0  0  0
    2.7102   -2.2057   -0.4260 C   0  0  0  0  0  0  0  0  0  0  0  0
    3.5242   -3.3257   -0.6011 C   0  0  0  0  0  0  0  0  0  0  0  0
    2.9913   -4.6025   -0.4771 C   0  0  0  0  0  0  0  0  0  0  0  0
    1.6357   -4.7695   -0.1696 C   0  0  0  0  0  0  0  0  0  0  0  0
    1.0659   -6.1471    0.0017 C   0  0  0  0  0  0  0  0  0  0  0  0
    0.5669   -6.3049    1.3703 N   0  0  0  0  0  0  0  0  0  0  0  0
   -0.7718   -6.5244    1.6110 C   0  0  0  0  0  0  0  0  0  0  0  0
   -1.3973   -7.4390    0.8254 C   0  0  0  0  0  0  0  0  0  0  0  0
   -2.6296   -7.8800    1.1972 C   0  0  0  0  0  0  0  0  0  0  0  0
   -3.5032   -7.2278    1.9810 C   0  0  0  0  0  0  0  0  0  0  0  0
   -2.9312   -6.2893    2.8246 C   0  0  0  0  0  0  0  0  0  0  0  0
   -1.5509   -5.9378    2.6234 C   0  0  0  0  0  0  0  0  0  0  0  0
   -5.1607   -7.8204    1.7666 S   0  0  0  0  0  0  0  0  0  0  0  0
   -5.3529   -8.8523    2.7952 O   0  0  0  0  0  0  0  0  0  0  0  0
   -6.0161   -6.6699    1.7476 O   0  0  0  0  0  0  0  0  0  0  0  0
   -5.3786   -8.6826    0.0363 N   0  0  0  0  0  0  0  0  0  0  0  0
   -4.2058   -9.2981   -0.7274 C   0  0  0  0  0  0  0  0  0  0  0  0
   -3.8976   -9.2806   -2.0583 N   0  0  0  0  0  0  0  0  0  0  0  0
   -2.5340   -9.8675   -2.2908 C   0  0  0  0  0  0  0  0  0  0  0  0
   -1.6672  -10.3179   -3.3655 C   0  0  0  0  0  0  0  0  0  0  0  0
   -0.3518  -10.8504   -3.0521 C   0  0  0  0  0  0  0  0  0  0  0  0
    0.1863  -10.7513   -1.7750 C   0  0  0  0  0  0  0  0  0  0  0  0
   -0.5831  -10.1940   -0.7806 C   0  0  0  0  0  0  0  0  0  0  0  0
   -1.9515  -10.0639   -1.0534 C   0  0  0  0  0  0  0  0  0  0  0  0
   -3.3043  -10.6465   -0.0883 S   0  0  0  0  0  0  0  0  0  0  0  0
    0.8257   -3.6348   -0.0272 C   0  0  0  0  0  0  0  0  0  0  0  0
   -0.5140   -3.8058    0.2136 O   0  0  0  0  0  0  0  0  0  0  0  0
    0.4775    0.5948    0.7490 H   0  0  0  0  0  0  0  0  0  0  0  0
    0.5516    0.4049   -1.0186 H   0  0  0  0  0  0  0  0  0  0  0  0
    1.9887    0.1544    0.0018 H   0  0  0  0  0  0  0  0  0  0  0  0
    3.1930   -1.2441   -0.5312 H   0  0  0  0  0  0  0  0  0  0  0  0
    4.5782   -3.1922   -0.8298 H   0  0  0  0  0  0  0  0  0  0  0  0
    3.6397   -5.4631   -0.6224 H   0  0  0  0  0  0  0  0  0  0  0  0
    0.3148   -6.2963   -0.7877 H   0  0  0  0  0  0  0  0  0  0  0  0
    1.8394   -6.9053   -0.1806 H   0  0  0  0  0  0  0  0  0  0  0  0
    1.1679   -6.0171    2.1249 H   0  0  0  0  0  0  0  0  0  0  0  0
   -0.8590   -7.9403    0.0447 H   0  0  0  0  0  0  0  0  0  0  0  0
   -2.8030   -8.9264    1.2316 H   0  0  0  0  0  0  0  0  0  0  0  0
   -3.4683   -5.8867    3.6795 H   0  0  0  0  0  0  0  0  0  0  0  0
   -1.0969   -5.1670    3.2389 H   0  0  0  0  0  0  0  0  0  0  0  0
   -5.9801   -9.4641    0.3466 H   0  0  0  0  0  0  0  0  0  0  0  0
   -1.9645  -10.4075   -4.4134 H   0  0  0  0  0  0  0  0  0  0  0  0
    0.2657  -11.3704   -3.7922 H   0  0  0  0  0  0  0  0  0  0  0  0
    1.1466  -11.1860   -1.4911 H   0  0  0  0  0  0  0  0  0  0  0  0
   -0.2025  -10.0862    0.2271 H   0  0  0  0  0  0  0  0  0  0  0  0
   -0.8914   -2.9267    0.3907 H   0  0  0  0  0  0  0  0  0  0  0  0
  1  2  1  0  0  0  0
  1 31  1  0  0  0  0
  1 32  1  0  0  0  0
  1 33  1  0  0  0  0
  2  3  1  0  0  0  0
  3  4  2  0  0  0  0
  3 29  1  0  0  0  0
  4  5  1  0  0  0  0
  4 34  1  0  0  0  0
  5  6  2  0  0  0  0
  5 35  1  0  0  0  0
  6  7  1  0  0  0  0
  6 36  1  0  0  0  0
  7  8  1  0  0  0  0
  7 29  2  0  0  0  0
  8  9  1  0  0  0  0
  8 37  1  0  0  0  0
  8 38  1  0  0  0  0
  9 10  1  0  0  0  0
  9 39  1  0  0  0  0
 10 11  2  0  0  0  0
 10 15  1  0  0  0  0
 11 12  1  0  0  0  0
 11 40  1  0  0  0  0
 12 13  2  0  0  0  0
 12 41  1  0  0  0  0
 13 14  1  0  0  0  0
 13 16  1  0  0  0  0
 14 15  2  0  0  0  0
 14 42  1  0  0  0  0
 15 43  1  0  0  0  0
 16 17  2  0  0  0  0
 16 18  2  0  0  0  0
 16 19  1  0  0  0  0
 19 20  1  0  0  0  0
 19 44  1  0  0  0  0
 20 21  2  0  0  0  0
 20 28  1  0  0  0  0
 21 22  1  0  0  0  0
 22 23  2  0  0  0  0
 22 27  1  0  0  0  0
 23 24  1  0  0  0  0
 23 45  1  0  0  0  0
 24 25  2  0  0  0  0
 24 46  1  0  0  0  0
 25 26  1  0  0  0  0
 25 47  1  0  0  0  0
 26 27  2  0  0  0  0
 26 48  1  0  0  0  0
 27 28  1  0  0  0  0
 29 30  1  0  0  0  0
 30 49  1  0  0  0  0
M  END
>  <DRUGBANK_ID>
DB18307

>  <COMMON_NAME>
VLX-1005

>  <CAS_NUMBER>
1532593-30-8

>  <UNII>
JKU4XCC48Y

>  <SYNONYMS>
Benzenesulfonamide, n-2-benzothiazolyl-4-(((2-hydroxy-3-methoxyphenyl)methyl)amino)-; N-2-benzothiazolyl-4-(((2-hydroxy-3-methoxyphenyl)methyl)amino)benzenesulfonamide; N-Benzothiazol-2-yl-4-(2-hydroxy-3-methoxy-benzylamino)-bezenesulfonamide

$$$$
