
 OpenBabel10282417173D

 39 40  0  0  0  0  0  0  0  0999 V2000
    1.0751    0.1399   -0.1978 C   0  0  0  0  0  0  0  0  0  0  0  0
    1.4159   -0.2861    2.2234 C   0  0  0  0  0  0  0  0  0  0  0  0
   -6.4724    1.9654    1.9024 C   0  0  0  0  0  0  0  0  0  0  0  0
   -4.4240   -1.9719    0.7396 C   0  0  0  0  0  0  0  0  0  0  0  0
   -6.7017    1.0162    0.7585 C   0  0  0  0  0  0  0  0  0  0  0  0
   -5.3010   -1.0649    0.1918 C   0  0  0  0  0  0  0  0  0  0  0  0
   -5.4052    1.6150    2.6738 C   0  0  0  0  0  0  0  0  0  0  0  0
   -3.9722   -1.7709    2.0561 C   0  0  0  0  0  0  0  0  0  0  0  0
   -1.0335   -1.8093    2.1251 C   0  0  0  0  0  0  0  0  0  0  0  0
   -1.8190   -0.0811    3.7813 C   0  0  0  0  0  0  0  0  0  0  0  0
    0.8008   -0.8152    0.9431 C   0  0  0  0  0  0  0  0  0  0  0  0
   -5.5874    0.0463    0.9582 C   0  0  0  0  0  0  0  0  0  0  0  0
   -1.0870   -1.4269    3.6200 C   0  0  3  0  0  0  0  0  0  0  0  0
   -4.8840    0.3737    2.1380 C   0  0  0  0  0  0  0  0  0  0  0  0
   -3.9638   -0.5044    2.6661 C   0  0  0  0  0  0  0  0  0  0  0  0
   -0.6185   -0.9215    1.0609 N   0  0  0  0  0  0  0  0  0  0  0  0
   -1.7433   -2.4481    4.3870 O   0  0  0  0  0  0  0  0  0  0  0  0
   -3.2746   -0.2079    3.8145 O   0  0  0  0  0  0  0  0  0  0  0  0
    0.6636    1.1353    0.0117 H   0  0  0  0  0  0  0  0  0  0  0  0
    0.6362   -0.2172   -1.1359 H   0  0  0  0  0  0  0  0  0  0  0  0
    2.1547    0.2266   -0.3231 H   0  0  0  0  0  0  0  0  0  0  0  0
    0.8922    0.6114    2.5788 H   0  0  0  0  0  0  0  0  0  0  0  0
    1.3912   -1.0471    3.0003 H   0  0  0  0  0  0  0  0  0  0  0  0
    2.4688   -0.0575    2.0882 H   0  0  0  0  0  0  0  0  0  0  0  0
   -7.1022    2.8090    2.0990 H   0  0  0  0  0  0  0  0  0  0  0  0
   -4.0929   -2.8426    0.1761 H   0  0  0  0  0  0  0  0  0  0  0  0
   -6.6301    1.5094   -0.2121 H   0  0  0  0  0  0  0  0  0  0  0  0
   -7.6606    0.4967    0.8686 H   0  0  0  0  0  0  0  0  0  0  0  0
   -5.7892   -1.2708   -0.7535 H   0  0  0  0  0  0  0  0  0  0  0  0
   -5.0446    2.1066    3.5516 H   0  0  0  0  0  0  0  0  0  0  0  0
   -3.4528   -2.6205    2.4977 H   0  0  0  0  0  0  0  0  0  0  0  0
   -2.0242   -1.6933    1.8344 H   0  0  0  0  0  0  0  0  0  0  0  0
   -0.8889   -2.8763    1.9297 H   0  0  0  0  0  0  0  0  0  0  0  0
   -1.5183    0.3302    4.7573 H   0  0  0  0  0  0  0  0  0  0  0  0
   -1.4779    0.6735    3.0576 H   0  0  0  0  0  0  0  0  0  0  0  0
    1.1852   -1.8111    0.7030 H   0  0  0  0  0  0  0  0  0  0  0  0
   -0.0913   -1.3878    4.0599 H   0  0  0  0  0  0  0  0  0  0  0  0
   -1.1089   -0.0257    1.0840 H   0  0  0  0  0  0  0  0  0  0  0  0
   -2.6778   -2.1793    4.4687 H   0  0  0  0  0  0  0  0  0  0  0  0
  1 19  1  0  0  0  0
  1 20  1  0  0  0  0
  1 21  1  0  0  0  0
  2 22  1  0  0  0  0
  2 23  1  0  0  0  0
  2 24  1  0  0  0  0
  3 25  1  0  0  0  0
  4 26  1  0  0  0  0
  5  3  1  0  0  0  0
  5 27  1  0  0  0  0
  5 28  1  0  0  0  0
  6  4  2  0  0  0  0
  6 29  1  0  0  0  0
  7  3  2  0  0  0  0
  7 30  1  0  0  0  0
  8  4  1  0  0  0  0
  8 31  1  0  0  0  0
  9 32  1  0  0  0  0
  9 33  1  0  0  0  0
 10 34  1  0  0  0  0
 10 35  1  0  0  0  0
 11  1  1  0  0  0  0
 11  2  1  0  0  0  0
 11 36  1  0  0  0  0
 12  5  1  0  0  0  0
 12  6  1  0  0  0  0
 13  9  1  0  0  0  0
 13 10  1  0  0  0  0
 13 37  1  0  0  0  0
 14  7  1  0  0  0  0
 14 12  2  0  0  0  0
 15  8  2  0  0  0  0
 15 14  1  0  0  0  0
 16  9  1  0  0  0  0
 16 11  1  0  0  0  0
 16 38  1  0  0  0  0
 17 13  1  0  0  0  0
 17 39  1  0  0  0  0
 18 10  1  0  0  0  0
 18 15  1  0  0  0  0
M  END
>  <DRUGBANK_ID>
DB08952

>  <COMMON_NAME>
Indenolol

>  <CAS_NUMBER>
60607-68-3

>  <UNII>
8GU15N96I8

$$$$
