
 OpenBabel10282417143D

 84 88  0  0  0  0  0  0  0  0999 V2000
   -0.9727    0.1717   -0.4434 C   0  0  0  0  0  0  0  0  0  0  0  0
    0.2529    0.8759   -0.4374 C   0  0  0  0  0  0  0  0  0  0  0  0
    1.4212    0.1307   -0.5141 C   0  0  0  0  0  0  0  0  0  0  0  0
    1.3301   -1.2411   -0.7646 C   0  0  0  0  0  0  0  0  0  0  0  0
    0.0804   -1.8591   -1.0713 C   0  0  0  0  0  0  0  0  0  0  0  0
   -1.1308   -1.1599   -0.8029 C   0  0  0  0  0  0  0  0  0  0  0  0
   -1.9873    0.8509    0.7239 Cl  0  0  0  0  0  0  0  0  0  0  0  0
   -2.7229   -2.0504   -0.4048 S   0  0  0  0  0  0  0  0  0  0  0  0
   -3.0495   -2.7951   -1.6280 O   0  0  0  0  0  0  0  0  0  0  0  0
   -2.6390   -2.7866    0.8265 O   0  0  0  0  0  0  0  0  0  0  0  0
   -4.0075   -0.9904   -0.0989 N   0  0  0  0  0  0  0  0  0  0  0  0
   -4.6131   -0.0740   -1.0478 C   0  0  0  0  0  0  0  0  0  0  0  0
   -4.5479    1.2678   -0.3385 C   0  0  0  0  0  0  0  0  0  0  0  0
   -4.7309    0.9115    1.1656 C   0  0  0  0  0  0  0  0  0  0  0  0
   -4.3945   -0.6100    1.3015 C   0  0  1  0  0  0  0  0  0  0  0  0
   -5.5585   -1.3158    1.9943 C   0  0  0  0  0  0  0  0  0  0  0  0
   -6.0405   -0.8652    3.0416 O   0  0  0  0  0  0  0  0  0  0  0  0
   -6.1013   -2.4691    1.5227 N   0  0  0  0  0  0  0  0  0  0  0  0
    0.2167    2.3249    0.0176 C   0  0  0  0  0  0  0  0  0  0  0  0
    2.9412    0.7983   -0.0330 Cl  0  0  0  0  0  0  0  0  0  0  0  0
    0.8079    2.6350    1.2943 O   0  0  0  0  0  0  0  0  0  0  0  0
    0.2630    2.1936    2.4943 C   0  0  0  0  0  0  0  0  0  0  0  0
   -0.0167    0.8268    2.8576 C   0  0  0  0  0  0  0  0  0  0  0  0
   -0.6057    0.6004    4.1199 C   0  0  0  0  0  0  0  0  0  0  0  0
   -0.6881    1.6428    5.0567 C   0  0  0  0  0  0  0  0  0  0  0  0
   -0.3066    2.9391    4.7341 C   0  0  0  0  0  0  0  0  0  0  0  0
    0.1299    3.2251    3.4450 C   0  0  0  0  0  0  0  0  0  0  0  0
   -1.0876   -0.6953    4.4286 C   0  0  0  0  0  0  0  0  0  0  0  0
   -1.0815   -1.6949    3.4915 C   0  0  0  0  0  0  0  0  0  0  0  0
   -0.3223   -1.4985    2.3932 C   0  0  0  0  0  0  0  0  0  0  0  0
    0.2264   -0.2866    2.0880 N   0  0  0  0  0  0  0  0  0  0  0  0
   -1.5081   -1.1596    5.7802 C   0  0  0  0  0  0  0  0  0  0  0  0
   -0.0644   -2.7557    1.6246 C   0  0  0  0  0  0  0  0  0  0  0  0
   -5.7178   -3.2633    0.3830 C   0  0  0  0  0  0  0  0  0  0  0  0
   -5.1914   -4.6377    0.7401 C   0  0  0  0  0  0  0  0  0  0  0  0
   -6.3550   -5.4939    1.1657 C   0  0  0  0  0  0  0  0  0  0  0  0
   -7.3330   -5.5686    0.0934 N   0  0  0  0  0  0  0  0  0  0  0  0
   -7.7102   -6.7688   -0.4365 C   0  0  0  0  0  0  0  0  0  0  0  0
   -8.7174   -6.7254   -1.5174 C   0  0  0  0  0  0  0  0  0  0  0  0
   -7.2883   -7.8495   -0.0429 O   0  0  0  0  0  0  0  0  0  0  0  0
   -8.6070   -5.8777   -2.6220 C   0  0  0  0  0  0  0  0  0  0  0  0
   -9.5438   -5.9750   -3.6629 C   0  0  0  0  0  0  0  0  0  0  0  0
  -10.5910   -6.9126   -3.6102 C   0  0  0  0  0  0  0  0  0  0  0  0
  -10.6488   -7.7875   -2.5175 C   0  0  0  0  0  0  0  0  0  0  0  0
   -9.7468   -7.6636   -1.4592 C   0  0  0  0  0  0  0  0  0  0  0  0
  -11.6546   -6.9344   -4.6729 C   0  0  0  0  0  0  0  0  0  0  0  0
  -12.6741   -7.7371   -4.6586 N   0  0  0  0  0  0  0  0  0  0  0  0
  -11.6300   -6.0727   -5.7213 N   0  0  0  0  0  0  0  0  0  0  0  0
    2.1951   -1.8619   -0.5002 H   0  0  0  0  0  0  0  0  0  0  0  0
    0.1045   -2.9515   -1.1603 H   0  0  0  0  0  0  0  0  0  0  0  0
   -5.6639   -0.3371   -1.1925 H   0  0  0  0  0  0  0  0  0  0  0  0
   -4.0907   -0.1074   -2.0046 H   0  0  0  0  0  0  0  0  0  0  0  0
   -3.5971    1.7351   -0.6184 H   0  0  0  0  0  0  0  0  0  0  0  0
   -5.2560    2.0219   -0.6712 H   0  0  0  0  0  0  0  0  0  0  0  0
   -4.0967    1.5052    1.8443 H   0  0  0  0  0  0  0  0  0  0  0  0
   -5.7472    1.1496    1.4779 H   0  0  0  0  0  0  0  0  0  0  0  0
   -3.5608   -0.7742    1.9982 H   0  0  0  0  0  0  0  0  0  0  0  0
   -6.8774   -2.7891    2.0899 H   0  0  0  0  0  0  0  0  0  0  0  0
    0.7374    2.8880   -0.7647 H   0  0  0  0  0  0  0  0  0  0  0  0
   -0.7906    2.7722   -0.0462 H   0  0  0  0  0  0  0  0  0  0  0  0
   -1.0453    1.4394    6.0631 H   0  0  0  0  0  0  0  0  0  0  0  0
   -0.3524    3.7139    5.4956 H   0  0  0  0  0  0  0  0  0  0  0  0
    0.4058    4.2492    3.1982 H   0  0  0  0  0  0  0  0  0  0  0  0
   -1.4979   -2.6794    3.6743 H   0  0  0  0  0  0  0  0  0  0  0  0
   -0.6556   -1.0529    6.4546 H   0  0  0  0  0  0  0  0  0  0  0  0
   -2.3878   -0.6158    6.1113 H   0  0  0  0  0  0  0  0  0  0  0  0
   -1.7540   -2.2307    5.7564 H   0  0  0  0  0  0  0  0  0  0  0  0
   -0.6189   -2.8092    0.7205 H   0  0  0  0  0  0  0  0  0  0  0  0
    0.9794   -2.8631    1.3760 H   0  0  0  0  0  0  0  0  0  0  0  0
   -0.4729   -3.6521    2.0958 H   0  0  0  0  0  0  0  0  0  0  0  0
   -6.5422   -3.2486   -0.3294 H   0  0  0  0  0  0  0  0  0  0  0  0
   -4.9571   -2.8102   -0.1859 H   0  0  0  0  0  0  0  0  0  0  0  0
   -4.6945   -5.0744   -0.1380 H   0  0  0  0  0  0  0  0  0  0  0  0
   -4.4371   -4.5923    1.5365 H   0  0  0  0  0  0  0  0  0  0  0  0
   -5.9953   -6.4861    1.4478 H   0  0  0  0  0  0  0  0  0  0  0  0
   -6.8458   -5.0505    2.0370 H   0  0  0  0  0  0  0  0  0  0  0  0
   -7.7895   -4.7252   -0.2305 H   0  0  0  0  0  0  0  0  0  0  0  0
   -7.7869   -5.1693   -2.7068 H   0  0  0  0  0  0  0  0  0  0  0  0
   -9.4213   -5.3195   -4.5188 H   0  0  0  0  0  0  0  0  0  0  0  0
  -11.3744   -8.5903   -2.4568 H   0  0  0  0  0  0  0  0  0  0  0  0
   -9.8397   -8.3086   -0.5875 H   0  0  0  0  0  0  0  0  0  0  0  0
  -12.6789   -8.3667   -3.8579 H   0  0  0  0  0  0  0  0  0  0  0  0
  -10.9679   -5.3257   -5.8415 H   0  0  0  0  0  0  0  0  0  0  0  0
  -12.4317   -6.0956   -6.3405 H   0  0  0  0  0  0  0  0  0  0  0  0
  1  2  1  0  0  0  0
  1  7  1  0  0  0  0
  2  3  2  0  0  0  0
  2 19  1  0  0  0  0
  3  4  1  0  0  0  0
  3 20  1  0  0  0  0
  4  5  2  0  0  0  0
  4 49  1  0  0  0  0
  5  6  1  0  0  0  0
  5 50  1  0  0  0  0
  6  1  2  0  0  0  0
  6  8  1  0  0  0  0
  8  9  2  0  0  0  0
  8 10  2  0  0  0  0
  8 11  1  0  0  0  0
 11 12  1  0  0  0  0
 11 15  1  0  0  0  0
 12 13  1  0  0  0  0
 12 51  1  0  0  0  0
 12 52  1  0  0  0  0
 13 14  1  0  0  0  0
 13 53  1  0  0  0  0
 13 54  1  0  0  0  0
 14 15  1  0  0  0  0
 14 55  1  0  0  0  0
 14 56  1  0  0  0  0
 15 57  1  1  0  0  0
 15 16  1  0  0  0  0
 16 17  2  0  0  0  0
 16 18  1  0  0  0  0
 18 34  1  0  0  0  0
 18 58  1  0  0  0  0
 19 21  1  0  0  0  0
 19 59  1  0  0  0  0
 19 60  1  0  0  0  0
 21 22  1  0  0  0  0
 22 23  1  0  0  0  0
 23 24  1  0  0  0  0
 24 25  1  0  0  0  0
 24 28  2  0  0  0  0
 25 26  2  0  0  0  0
 25 61  1  0  0  0  0
 26 27  1  0  0  0  0
 26 62  1  0  0  0  0
 27 22  2  0  0  0  0
 27 63  1  0  0  0  0
 28 29  1  0  0  0  0
 28 32  1  0  0  0  0
 29 30  2  0  0  0  0
 29 64  1  0  0  0  0
 30 31  1  0  0  0  0
 30 33  1  0  0  0  0
 31 23  2  0  0  0  0
 32 65  1  0  0  0  0
 32 66  1  0  0  0  0
 32 67  1  0  0  0  0
 33 68  1  0  0  0  0
 33 69  1  0  0  0  0
 33 70  1  0  0  0  0
 34 35  1  0  0  0  0
 34 71  1  0  0  0  0
 34 72  1  0  0  0  0
 35 36  1  0  0  0  0
 35 73  1  0  0  0  0
 35 74  1  0  0  0  0
 36 37  1  0  0  0  0
 36 75  1  0  0  0  0
 36 76  1  0  0  0  0
 37 38  1  0  0  0  0
 37 77  1  0  0  0  0
 38 39  1  0  0  0  0
 38 40  2  0  0  0  0
 39 41  1  0  0  0  0
 39 45  2  0  0  0  0
 41 42  2  0  0  0  0
 41 78  1  0  0  0  0
 42 43  1  0  0  0  0
 42 79  1  0  0  0  0
 43 44  2  0  0  0  0
 43 46  1  0  0  0  0
 44 45  1  0  0  0  0
 44 80  1  0  0  0  0
 45 81  1  0  0  0  0
 46 47  2  0  0  0  0
 46 48  1  0  0  0  0
 47 82  1  0  0  0  0
 48 83  1  0  0  0  0
 48 84  1  0  0  0  0
M  END
>  <DRUGBANK_ID>
DB05038

>  <COMMON_NAME>
Anatibant

>  <CAS_NUMBER>
209733-45-9

>  <UNII>
CLO4JRD21F

>  <SYNONYMS>
Anatibant

$$$$
