4833
 OpenBabel10282417143D

 33 35  0  0  0  0  0  0  0  0999 V2000
    0.9901    0.0384    0.0859 O   0  0  0  0  0  0  0  0  0  0  0  0
    2.9568   -1.2253   -0.0455 N   0  0  0  0  0  0  0  0  0  0  0  0
    5.0529   -0.1238   -0.0055 N   0  0  0  0  0  0  0  0  0  0  0  0
    2.2229   -2.4374   -0.1686 C   0  0  0  0  0  0  0  0  0  0  0  0
    4.3463   -1.2117   -0.0748 C   0  0  0  0  0  0  0  0  0  0  0  0
    2.9980    1.1967    0.0719 C   0  0  0  0  0  0  0  0  0  0  0  0
    2.2257   -0.0444    0.0509 C   0  0  0  0  0  0  0  0  0  0  0  0
    1.3678   -2.6645   -1.2654 C   0  0  0  0  0  0  0  0  0  0  0  0
    4.3851    1.1063    0.0290 C   0  0  0  0  0  0  0  0  0  0  0  0
    2.4243   -3.4459    0.7880 C   0  0  0  0  0  0  0  0  0  0  0  0
    2.3416    2.4306    0.0699 C   0  0  0  0  0  0  0  0  0  0  0  0
    5.1253   -2.5061   -0.2477 C   0  0  0  0  0  0  0  0  0  0  0  0
    0.7349   -3.9123   -1.3693 C   0  0  0  0  0  0  0  0  0  0  0  0
    5.1189    2.2892   -0.0635 C   0  0  0  0  0  0  0  0  0  0  0  0
    1.1584   -1.6704   -2.3789 C   0  0  0  0  0  0  0  0  0  0  0  0
    1.9071   -4.7202    0.5832 C   0  0  0  0  0  0  0  0  0  0  0  0
    1.0577   -4.9508   -0.4934 C   0  0  0  0  0  0  0  0  0  0  0  0
    3.0779    3.5908   -0.1240 C   0  0  0  0  0  0  0  0  0  0  0  0
    4.4645    3.5130   -0.2419 C   0  0  0  0  0  0  0  0  0  0  0  0
    3.0356   -3.2536    1.6672 H   0  0  0  0  0  0  0  0  0  0  0  0
    1.2600    2.4745    0.1746 H   0  0  0  0  0  0  0  0  0  0  0  0
    5.7686   -2.4258   -1.1287 H   0  0  0  0  0  0  0  0  0  0  0  0
    5.7489   -2.6591    0.6375 H   0  0  0  0  0  0  0  0  0  0  0  0
    4.5213   -3.3966   -0.4009 H   0  0  0  0  0  0  0  0  0  0  0  0
    0.0137   -4.0925   -2.1637 H   0  0  0  0  0  0  0  0  0  0  0  0
    6.2049    2.2574   -0.0281 H   0  0  0  0  0  0  0  0  0  0  0  0
    1.4196   -2.1271   -3.3391 H   0  0  0  0  0  0  0  0  0  0  0  0
    0.1174   -1.3355   -2.4020 H   0  0  0  0  0  0  0  0  0  0  0  0
    1.7954   -0.7862   -2.3000 H   0  0  0  0  0  0  0  0  0  0  0  0
    2.1736   -5.5294    1.2574 H   0  0  0  0  0  0  0  0  0  0  0  0
    0.6472   -5.9438   -0.6552 H   0  0  0  0  0  0  0  0  0  0  0  0
    2.5690    4.5483   -0.1901 H   0  0  0  0  0  0  0  0  0  0  0  0
    5.0376    4.4047   -0.4816 H   0  0  0  0  0  0  0  0  0  0  0  0
  1  7  2  0  0  0  0
  2  4  1  0  0  0  0
  2  5  1  0  0  0  0
  2  7  1  0  0  0  0
  3  5  2  0  0  0  0
  3  9  1  0  0  0  0
  4  8  1  0  0  0  0
  4 10  2  0  0  0  0
  5 12  1  0  0  0  0
  6  7  1  0  0  0  0
  6  9  1  0  0  0  0
  6 11  2  0  0  0  0
  8 13  2  0  0  0  0
  8 15  1  0  0  0  0
  9 14  2  0  0  0  0
 10 16  1  0  0  0  0
 10 20  1  0  0  0  0
 11 18  1  0  0  0  0
 11 21  1  0  0  0  0
 12 22  1  0  0  0  0
 12 23  1  0  0  0  0
 12 24  1  0  0  0  0
 13 17  1  0  0  0  0
 13 25  1  0  0  0  0
 14 19  1  0  0  0  0
 14 26  1  0  0  0  0
 15 27  1  0  0  0  0
 15 28  1  0  0  0  0
 15 29  1  0  0  0  0
 16 17  2  0  0  0  0
 16 30  1  0  0  0  0
 17 31  1  0  0  0  0
 18 19  2  0  0  0  0
 18 32  1  0  0  0  0
 19 33  1  0  0  0  0
M  END
>  <DRUGBANK_ID>
DB04833

>  <COMMON_NAME>
Methaqualone

>  <CAS_NUMBER>
72-44-6

>  <UNII>
7ZKH8MQW6T

>  <SYNONYMS>
metacualona; Methaqualone

$$$$
