
 OpenBabel10282417123D

 43 44  0  0  1  0  0  0  0  0999 V2000
   -1.2672   -0.1356   -0.1012 N   0  0  0  0  0  0  0  0  0  0  0  0
   -2.6855   -0.3006   -0.2113 C   0  0  2  0  0  0  0  0  0  0  0  0
   -0.5412   -1.3054   -0.0375 C   0  0  0  0  0  0  0  0  0  0  0  0
   -0.6786    1.1127   -0.0126 C   0  0  0  0  0  0  0  0  0  0  0  0
   -3.1496    0.4059   -1.3670 O   0  0  0  0  0  0  0  0  0  0  0  0
   -3.3725    0.1984    1.0187 C   0  0  0  0  0  0  0  0  0  0  0  0
    0.8022   -1.1420    0.1339 N   0  0  0  0  0  0  0  0  0  0  0  0
   -1.0303   -2.4248   -0.1217 O   0  0  0  0  0  0  0  0  0  0  0  0
    0.6490    1.2515   -0.0260 C   0  0  0  0  0  0  0  0  0  0  0  0
   -4.2870    1.1797   -0.9740 C   0  0  1  0  0  0  0  0  0  0  0  0
   -4.6501    0.6528    0.4391 C   0  0  1  0  0  0  0  0  0  0  0  0
    1.4609    0.0312   -0.0368 C   0  0  0  0  0  0  0  0  0  0  0  0
   -3.8609    2.6421   -1.1280 C   0  0  0  0  0  0  0  0  0  0  0  0
   -5.6810   -0.3172    0.3774 O   0  0  0  0  0  0  0  0  0  0  0  0
    2.6906    0.0945   -0.1848 O   0  0  0  0  0  0  0  0  0  0  0  0
   -3.6976    3.2619    0.1348 O   0  0  0  0  0  0  0  0  0  0  0  0
   -5.1233    3.7975    0.9554 P   0  0  3  0  0  0  0  0  0  0  0  0
   -5.5084    4.8235   -0.3832 O   0  0  0  0  0  0  0  0  0  0  0  0
   -6.0402    2.5765    0.3975 O   0  0  0  0  0  0  0  0  0  0  0  0
   -6.3993    4.2769    1.6899 O   0  0  0  0  0  0  0  0  0  0  0  0
   -4.7872    6.3778   -0.1447 P   0  0  3  0  0  0  0  0  0  0  0  0
   -5.1043    6.2645    1.5522 O   0  0  0  0  0  0  0  0  0  0  0  0
   -3.3457    5.6234   -0.2356 O   0  0  0  0  0  0  0  0  0  0  0  0
   -4.1417    7.7689    0.0687 O   0  0  0  0  0  0  0  0  0  0  0  0
   -6.6621    6.9349    1.8938 P   0  0  0  0  0  0  0  0  0  0  0  0
   -7.6571    5.7320    1.5579 O   0  0  0  0  0  0  0  0  0  0  0  0
   -6.2247    6.6536    3.4447 O   0  0  0  0  0  0  0  0  0  0  0  0
   -8.0563    7.5350    2.1995 O   0  0  0  0  0  0  0  0  0  0  0  0
   -2.9965   -1.3361   -0.3688 H   0  0  0  0  0  0  0  0  0  0  0  0
   -1.3171    1.9891    0.0548 H   0  0  0  0  0  0  0  0  0  0  0  0
   -2.8685    1.0769    1.4510 H   0  0  0  0  0  0  0  0  0  0  0  0
   -3.4982   -0.5317    1.8171 H   0  0  0  0  0  0  0  0  0  0  0  0
    1.3384   -1.9931    0.1524 H   0  0  0  0  0  0  0  0  0  0  0  0
    1.1482    2.2103   -0.0239 H   0  0  0  0  0  0  0  0  0  0  0  0
   -5.0747    0.9875   -1.7156 H   0  0  0  0  0  0  0  0  0  0  0  0
   -4.9429    1.3163    1.2411 H   0  0  0  0  0  0  0  0  0  0  0  0
   -2.9139    2.7392   -1.6730 H   0  0  0  0  0  0  0  0  0  0  0  0
   -4.5804    3.2104   -1.7318 H   0  0  0  0  0  0  0  0  0  0  0  0
   -5.4654   -1.0033   -0.2709 H   0  0  0  0  0  0  0  0  0  0  0  0
   -6.3154    2.3849   -0.5044 H   0  0  0  0  0  0  0  0  0  0  0  0
   -3.2495    5.1046   -1.0553 H   0  0  0  0  0  0  0  0  0  0  0  0
   -7.5907    5.1978    0.7649 H   0  0  0  0  0  0  0  0  0  0  0  0
   -5.3448    7.0459    3.5990 H   0  0  0  0  0  0  0  0  0  0  0  0
  1  3  1  0  0  0  0
  1  4  1  0  0  0  0
  2  1  1  0  0  0  0
  2  5  1  0  0  0  0
  2  6  1  0  0  0  0
  2 29  1  6  0  0  0
  3  7  1  0  0  0  0
  3  8  2  0  0  0  0
  4  9  2  0  0  0  0
  4 30  1  0  0  0  0
  5 10  1  0  0  0  0
  6 11  1  0  0  0  0
  6 31  1  0  0  0  0
  6 32  1  0  0  0  0
  7 12  1  0  0  0  0
  7 33  1  0  0  0  0
  9 12  1  0  0  0  0
  9 34  1  0  0  0  0
 10 11  1  0  0  0  0
 10 35  1  6  0  0  0
 10 13  1  0  0  0  0
 11 14  1  0  0  0  0
 11 36  1  1  0  0  0
 12 15  2  0  0  0  0
 13 16  1  0  0  0  0
 13 37  1  0  0  0  0
 13 38  1  0  0  0  0
 14 39  1  0  0  0  0
 16 17  1  0  0  0  0
 17 18  1  0  0  0  0
 17 19  1  0  0  0  0
 17 20  2  0  0  0  0
 18 21  1  0  0  0  0
 19 40  1  0  0  0  0
 21 22  1  0  0  0  0
 21 23  1  0  0  0  0
 21 24  2  0  0  0  0
 22 25  1  0  0  0  0
 23 41  1  0  0  0  0
 25 26  1  0  0  0  0
 25 27  1  0  0  0  0
 25 28  2  0  0  0  0
 26 42  1  0  0  0  0
 27 43  1  0  0  0  0
M  END
>  <DRUGBANK_ID>
DB02333

>  <SECONDARY_ACCESSION_NUMBERS>
EXPT01301

>  <COMMON_NAME>
Deoxyuridine-5'-Triphosphate

$$$$
