
 OpenBabel10282417183D

 32 22  0  0  0  0  0  0  0  0999 V2000
    1.2770    0.9789    1.4375 O   0  0  0  0  0  0  0  0  0  0  0  0
    1.1428   -0.3524   -2.7481 O   0  0  0  0  0  0  0  0  0  0  0  0
   -0.2662   -0.2910   -1.0313 O   0  0  0  0  0  0  0  0  0  0  0  0
   -0.8569    0.2880    0.7620 O   0  0  0  0  0  0  0  0  0  0  0  0
    0.2314    2.1138    0.3995 O   0  0  0  0  0  0  0  0  0  0  0  0
    3.1159    1.5748   -0.4109 O   0  5  0  0  0  0  0  0  0  0  0  0
    4.6756    1.5711   -0.2559 S   0  0  0  0  0  0  0  0  0  0  0  0
    5.5309    0.4441   -0.8777 O   0  0  0  0  0  0  0  0  0  0  0  0
    4.7703    2.8730   -0.6940 O   0  0  0  0  0  0  0  0  0  0  0  0
    5.0713    1.2359    1.2156 O   0  5  0  0  0  0  0  0  0  0  0  0
    2.1977   -0.8649    1.2749 O   0  5  0  0  0  0  0  0  0  0  0  0
    3.6290   -0.7399    0.4782 S   0  0  0  0  0  0  0  0  0  0  0  0
    4.3324   -1.8691    0.8369 O   0  0  0  0  0  0  0  0  0  0  0  0
    3.5817   -0.4513   -1.0112 O   0  0  0  0  0  0  0  0  0  0  0  0
    3.3477    0.2589    1.6288 O   0  5  0  0  0  0  0  0  0  0  0  0
    0.3657   -2.3738   -0.5622 O   0  5  0  0  0  0  0  0  0  0  0  0
    1.9015   -2.1697   -0.6117 S   0  0  0  0  0  0  0  0  0  0  0  0
    2.6185   -2.4498   -1.7922 O   0  0  0  0  0  0  0  0  0  0  0  0
    1.6680   -0.5572   -0.5186 O   0  0  0  0  0  0  0  0  0  0  0  0
    2.2581   -2.7886    0.7719 O   0  5  0  0  0  0  0  0  0  0  0  0
    3.0587   -1.3353    2.5913 Fe  0  1  0  0  0  0  0  0  0  0  0  0
   -0.3309    2.0434    2.1554 Fe  0  1  0  0  0  0  0  0  0  0  0  0
    1.3366    0.8695    0.1710 H   0  0  0  0  0  0  0  0  0  0  0  0
    2.0674    0.4872    1.0046 H   0  0  0  0  0  0  0  0  0  0  0  0
    0.5901   -0.9031   -2.1516 H   0  0  0  0  0  0  0  0  0  0  0  0
    1.7329    0.0254   -2.0075 H   0  0  0  0  0  0  0  0  0  0  0  0
   -0.3897   -1.1437   -0.4762 H   0  0  0  0  0  0  0  0  0  0  0  0
    0.6485   -0.6359   -0.8096 H   0  0  0  0  0  0  0  0  0  0  0  0
   -0.9083    0.6122   -0.3074 H   0  0  0  0  0  0  0  0  0  0  0  0
    0.0352   -0.0312    0.2466 H   0  0  0  0  0  0  0  0  0  0  0  0
    0.2002    1.0623    0.8644 H   0  0  0  0  0  0  0  0  0  0  0  0
    1.3853    2.1945    0.4042 H   0  0  0  0  0  0  0  0  0  0  0  0
  1 23  1  0  0  0  0
  1 24  1  0  0  0  0
  2 25  1  0  0  0  0
  2 26  1  0  0  0  0
  3 27  1  0  0  0  0
  3 28  1  0  0  0  0
  4 29  1  0  0  0  0
  4 30  1  0  0  0  0
  5 31  1  0  0  0  0
  5 32  1  0  0  0  0
  6  7  1  0  0  0  0
  7  8  2  0  0  0  0
  7  9  2  0  0  0  0
  7 10  1  0  0  0  0
 11 12  1  0  0  0  0
 12 13  2  0  0  0  0
 12 14  2  0  0  0  0
 12 15  1  0  0  0  0
 16 17  1  0  0  0  0
 17 18  2  0  0  0  0
 17 19  2  0  0  0  0
 17 20  1  0  0  0  0
M  CHG  8   6  -1  10  -1  11  -1  15  -1  16  -1  20  -1  21   3  22   3
M  END
>  <DRUGBANK_ID>
DB11171

>  <COMMON_NAME>
Ferric sulfate

>  <CAS_NUMBER>
10028-22-5

>  <UNII>
3HWS7HF5XD

>  <SYNONYMS>
Ferric sulfate

$$$$
