
 OpenBabel10282417203D

 48 46  0  0  0  0  0  0  0  0999 V2000
   -4.0016    6.2190    0.3282 O   0  0  0  0  0  0  0  0  0  0  0  0
   -3.6045    6.2339    1.6914 C   0  0  0  0  0  0  0  0  0  0  0  0
   -2.8711    4.9437    2.0197 C   0  0  2  0  0  0  0  0  0  0  0  0
   -1.6376    4.8240    1.1397 C   0  0  2  0  0  0  0  0  0  0  0  0
   -0.9030    3.5349    1.4695 C   0  0  1  0  0  0  0  0  0  0  0  0
   -1.4078    2.1266    1.7386 C   0  0  2  0  0  0  0  0  0  0  0  0
   -0.8999    1.1905    0.6542 C   0  0  0  0  0  0  0  0  0  0  0  0
   -0.0345    1.5873   -0.3994 O   0  0  0  0  0  0  0  0  0  0  0  0
   -3.7300    3.8378    1.7837 O   0  0  0  0  0  0  0  0  0  0  0  0
   -0.7796    5.9310    1.3742 O   0  0  0  0  0  0  0  0  0  0  0  0
   -0.0392    3.1942    0.3952 O   0  0  0  0  0  0  0  0  0  0  0  0
   -2.8278    2.1248    1.7386 O   0  0  0  0  0  0  0  0  0  0  0  0
   -1.4042    0.0239    0.6571 O   0  0  0  0  0  0  0  0  0  0  0  0
    0.7074    3.3038   -0.4037 Al  0  0  0  0  0  0  0  0  0  0  0  0
    0.3096    4.4978    0.9795 O   0  0  0  0  0  0  0  0  0  0  0  0
    1.8472    3.8263   -1.7911 O   0  0  0  0  0  0  0  0  0  0  0  0
    1.0657   -0.0126   -0.0744 C   0  0  0  0  0  0  0  0  0  0  0  0
    0.5590    0.9801    0.9592 C   0  0  0  0  0  0  0  0  0  0  0  0
    0.5757    0.3731   -1.4055 N   0  0  0  0  0  0  0  0  0  0  0  0
    0.5590   -1.4040    0.2685 C   0  0  0  0  0  0  0  0  0  0  0  0
    2.5857   -0.0126   -0.0744 C   0  0  0  0  0  0  0  0  0  0  0  0
    1.0323    2.2800    0.6389 O   0  0  0  0  0  0  0  0  0  0  0  0
    1.0323   -2.3314   -0.6971 O   0  0  0  0  0  0  0  0  0  0  0  0
    3.0590    1.2873   -0.3947 O   0  0  0  0  0  0  0  0  0  0  0  0
   -3.1924    6.1381   -0.2538 H   0  0  0  0  0  0  0  0  0  0  0  0
   -2.9558    7.0670    1.8648 H   0  0  0  0  0  0  0  0  0  0  0  0
   -4.4703    6.3204    2.3142 H   0  0  0  0  0  0  0  0  0  0  0  0
   -2.5760    4.9530    3.0482 H   0  0  0  0  0  0  0  0  0  0  0  0
   -1.9328    4.8132    0.1113 H   0  0  0  0  0  0  0  0  0  0  0  0
   -0.3270    3.6705    2.3610 H   0  0  0  0  0  0  0  0  0  0  0  0
   -1.0507    1.7957    2.6914 H   0  0  0  0  0  0  0  0  0  0  0  0
   -4.0058    3.8291    0.8226 H   0  0  0  0  0  0  0  0  0  0  0  0
   -1.4047    6.7103    1.3289 H   0  0  0  0  0  0  0  0  0  0  0  0
   -0.5775    3.0675   -0.4380 H   0  0  0  0  0  0  0  0  0  0  0  0
   -3.1615    2.4341    0.8481 H   0  0  0  0  0  0  0  0  0  0  0  0
   -0.3090    4.0588    1.6311 H   0  0  0  0  0  0  0  0  0  0  0  0
    2.1505    4.7667   -1.6370 H   0  0  0  0  0  0  0  0  0  0  0  0
   -0.5110    0.9801    0.9592 H   0  0  0  0  0  0  0  0  0  0  0  0
    0.9157    0.6993    1.9282 H   0  0  0  0  0  0  0  0  0  0  0  0
   -0.4443    0.3731   -1.4055 H   0  0  0  0  0  0  0  0  0  0  0  0
    0.9157    1.3068   -1.6356 H   0  0  0  0  0  0  0  0  0  0  0  0
    0.9157   -1.6848    1.2375 H   0  0  0  0  0  0  0  0  0  0  0  0
   -0.5110   -1.4040    0.2685 H   0  0  0  0  0  0  0  0  0  0  0  0
    2.9423   -0.2933    0.8946 H   0  0  0  0  0  0  0  0  0  0  0  0
    2.9423   -0.7114   -0.8020 H   0  0  0  0  0  0  0  0  0  0  0  0
    2.0323    2.2800    0.6389 H   0  0  0  0  0  0  0  0  0  0  0  0
    0.6990   -2.0690   -1.6027 H   0  0  0  0  0  0  0  0  0  0  0  0
    2.7257    1.5497   -1.3002 H   0  0  0  0  0  0  0  0  0  0  0  0
  1  2  1  0  0  0  0
  1 25  1  0  0  0  0
  2 26  1  0  0  0  0
  2 27  1  0  0  0  0
  3  9  1  0  0  0  0
  3 28  1  1  0  0  0
  3  4  1  0  0  0  0
  3  2  1  0  0  0  0
  4 29  1  6  0  0  0
  4 10  1  0  0  0  0
  4  5  1  0  0  0  0
  5 11  1  0  0  0  0
  5 30  1  1  0  0  0
  6 12  1  0  0  0  0
  6 31  1  1  0  0  0
  6  7  1  0  0  0  0
  6  5  1  0  0  0  0
  7  8  1  0  0  0  0
  7 13  2  0  0  0  0
  8 14  1  0  0  0  0
  9 32  1  0  0  0  0
 10 33  1  0  0  0  0
 11 34  1  0  0  0  0
 12 35  1  0  0  0  0
 14 15  1  0  0  0  0
 14 16  1  0  0  0  0
 15 36  1  0  0  0  0
 16 37  1  0  0  0  0
 17 18  1  0  0  0  0
 17 19  1  0  0  0  0
 17 20  1  0  0  0  0
 17 21  1  0  0  0  0
 18 22  1  0  0  0  0
 18 38  1  0  0  0  0
 18 39  1  0  0  0  0
 19 40  1  0  0  0  0
 19 41  1  0  0  0  0
 20 23  1  0  0  0  0
 20 42  1  0  0  0  0
 20 43  1  0  0  0  0
 21 24  1  0  0  0  0
 21 44  1  0  0  0  0
 21 45  1  0  0  0  0
 22 46  1  0  0  0  0
 23 47  1  0  0  0  0
 24 48  1  0  0  0  0
M  END
>  <DRUGBANK_ID>
DB13650

>  <COMMON_NAME>
Aloglutamol

>  <CAS_NUMBER>
13755-41-4

>  <UNII>
I670EI8M2N

>  <SYNONYMS>
Trometamolgluconate aluminum

$$$$
