
 OpenBabel10282417133D

 20 20  0  0  1  0  0  0  0  0999 V2000
    1.0479   -0.0056   -0.1300 O   0  0  0  0  0  0  0  0  0  0  0  0
    0.5684    0.9220   -1.1070 C   0  0  0  0  0  0  0  0  0  0  0  0
    1.1693    2.3173   -0.8902 C   0  0  2  0  0  0  0  0  0  0  0  0
    0.9658    2.8440    0.4717 N   0  0  0  0  0  0  0  0  0  0  0  0
    1.0073    4.3087    0.3864 C   0  0  0  0  0  0  0  0  0  0  0  0
    1.1001    4.6659   -1.1009 C   0  0  2  0  0  0  0  0  0  0  0  0
    0.3712    5.8376   -1.4320 O   0  0  0  0  0  0  0  0  0  0  0  0
    0.5753    3.3999   -1.7927 C   0  0  1  0  0  0  0  0  0  0  0  0
    1.0050    3.2800   -3.1418 O   0  0  0  0  0  0  0  0  0  0  0  0
    2.0178    0.0580   -0.1080 H   0  0  0  0  0  0  0  0  0  0  0  0
    0.8517    0.5348   -2.0918 H   0  0  0  0  0  0  0  0  0  0  0  0
   -0.5248    0.9338   -1.0504 H   0  0  0  0  0  0  0  0  0  0  0  0
    2.2504    2.2417   -1.0731 H   0  0  0  0  0  0  0  0  0  0  0  0
    1.6722    2.4785    1.1089 H   0  0  0  0  0  0  0  0  0  0  0  0
    0.0986    4.7197    0.8404 H   0  0  0  0  0  0  0  0  0  0  0  0
    1.8612    4.7165    0.9371 H   0  0  0  0  0  0  0  0  0  0  0  0
    2.1454    4.8432   -1.3828 H   0  0  0  0  0  0  0  0  0  0  0  0
   -0.5678    5.6816   -1.2250 H   0  0  0  0  0  0  0  0  0  0  0  0
   -0.5225    3.3876   -1.7917 H   0  0  0  0  0  0  0  0  0  0  0  0
    1.9651    3.4424   -3.1789 H   0  0  0  0  0  0  0  0  0  0  0  0
  1  2  1  0  0  0  0
  1 10  1  0  0  0  0
  2 11  1  0  0  0  0
  2 12  1  0  0  0  0
  3  2  1  0  0  0  0
  3  4  1  0  0  0  0
  3  8  1  0  0  0  0
  3 13  1  6  0  0  0
  4  5  1  0  0  0  0
  4 14  1  0  0  0  0
  5  6  1  0  0  0  0
  5 15  1  0  0  0  0
  5 16  1  0  0  0  0
  6  7  1  0  0  0  0
  6  8  1  0  0  0  0
  6 17  1  6  0  0  0
  7 18  1  0  0  0  0
  8  9  1  0  0  0  0
  8 19  1  1  0  0  0
  9 20  1  0  0  0  0
M  END
>  <DRUGBANK_ID>
DB03411

>  <SECONDARY_ACCESSION_NUMBERS>
EXPT01875

>  <COMMON_NAME>
2-Hydroxymethyl-Pyrrolidine-3,4-Diol

>  <UNII>
Z330X18GMD

$$$$
