
 OpenBabel10282417103D

 62 66  0  0  0  0  0  0  0  0999 V2000
    9.4583    0.8008  -51.3237 C   0  0  2  0  0  0  0  0  0  0  0  0
   10.3179    1.6795  -52.2637 C   0  0  0  0  0  0  0  0  0  0  0  0
   10.2199   -0.9424  -51.7216 C   0  0  0  0  0  0  0  0  0  0  0  0
   10.9788    0.9981  -53.2220 C   0  0  0  0  0  0  0  0  0  0  0  0
   11.0812   -1.3047  -52.7640 C   0  0  0  0  0  0  0  0  0  0  0  0
   10.3391   -0.2888  -53.5092 C   0  0  0  0  0  0  0  0  0  0  0  0
    9.5104    1.7940  -49.7293 C   0  0  2  0  0  0  0  0  0  0  0  0
    9.7450    3.5676  -49.4483 C   0  0  1  0  0  0  0  0  0  0  0  0
   10.5844    3.1670  -52.0814 C   0  0  2  0  0  0  0  0  0  0  0  0
   10.9432    3.7796  -50.6282 C   0  0  0  0  0  0  0  0  0  0  0  0
    8.2386    1.4814  -48.8996 C   0  0  2  0  0  0  0  0  0  0  0  0
    8.4188    2.1910  -47.5988 C   0  0  0  0  0  0  0  0  0  0  0  0
    9.6020    4.4742  -47.6208 C   0  0  1  0  0  0  0  0  0  0  0  0
    8.3870    3.6959  -47.6705 C   0  0  1  0  0  0  0  0  0  0  0  0
    8.8501    5.1604  -45.7734 C   0  0  0  0  0  0  0  0  0  0  0  0
    7.8814    4.1232  -45.4711 C   0  0  2  0  0  0  0  0  0  0  0  0
    8.8096    4.5214  -46.5534 C   0  0  1  0  0  0  0  0  0  0  0  0
    8.3097    2.9825  -44.7981 O   0  0  0  0  0  0  0  0  0  0  0  0
    9.7313    2.8614  -44.8054 C   0  0  0  0  0  0  0  0  0  0  0  0
   10.2594    3.9534  -45.5570 O   0  0  0  0  0  0  0  0  0  0  0  0
    9.1880   -0.4643  -53.8934 O   0  0  0  0  0  0  0  0  0  0  0  0
    9.6455    3.9457  -52.6977 F   0  0  0  0  0  0  0  0  0  0  0  0
    7.8574    1.2614  -51.6159 C   0  0  0  0  0  0  0  0  0  0  0  0
   10.4356    1.3994  -49.2928 H   0  0  0  0  0  0  0  0  0  0  0  0
    8.2909    0.0747  -48.8694 O   0  0  0  0  0  0  0  0  0  0  0  0
    8.9406    4.0782  -50.0085 H   0  0  0  0  0  0  0  0  0  0  0  0
   10.7129    4.3521  -47.5243 H   0  0  0  0  0  0  0  0  0  0  0  0
    7.1991    4.4072  -48.3558 C   0  0  0  0  0  0  0  0  0  0  0  0
    8.8339    6.4402  -47.2212 C   0  0  0  0  0  0  0  0  0  0  0  0
    9.6601    6.7439  -48.4756 C   0  0  0  0  0  0  0  0  0  0  0  0
    8.2622    7.3877  -46.6358 O   0  0  0  0  0  0  0  0  0  0  0  0
    8.7761    7.2593  -49.4455 O   0  0  0  0  0  0  0  0  0  0  0  0
   10.0675    2.4160  -43.3774 C   0  0  0  0  0  0  0  0  0  0  0  0
   10.4454    1.8250  -45.6435 C   0  0  0  0  0  0  0  0  0  0  0  0
    6.8005    4.3245  -45.6182 H   0  0  0  0  0  0  0  0  0  0  0  0
    9.8222   -2.0275  -51.7123 H   0  0  0  0  0  0  0  0  0  0  0  0
   11.9250    1.2140  -53.6863 H   0  0  0  0  0  0  0  0  0  0  0  0
   11.8186   -1.3668  -53.5998 H   0  0  0  0  0  0  0  0  0  0  0  0
   11.4497    3.2786  -52.7515 H   0  0  0  0  0  0  0  0  0  0  0  0
   11.1843    4.8444  -50.6095 H   0  0  0  0  0  0  0  0  0  0  0  0
   11.9460    3.3376  -50.5396 H   0  0  0  0  0  0  0  0  0  0  0  0
    7.1969    1.7172  -49.1593 H   0  0  0  0  0  0  0  0  0  0  0  0
    7.7841    1.8508  -46.7867 H   0  0  0  0  0  0  0  0  0  0  0  0
    9.4045    1.8217  -47.4425 H   0  0  0  0  0  0  0  0  0  0  0  0
    7.9289    5.7134  -45.2055 H   0  0  0  0  0  0  0  0  0  0  0  0
    9.3197    6.0570  -45.1662 H   0  0  0  0  0  0  0  0  0  0  0  0
    7.4914    1.4655  -52.6242 H   0  0  0  0  0  0  0  0  0  0  0  0
    7.0503    0.7389  -51.0690 H   0  0  0  0  0  0  0  0  0  0  0  0
    7.7665    2.2818  -51.1752 H   0  0  0  0  0  0  0  0  0  0  0  0
    7.9433   -0.1801  -49.7463 H   0  0  0  0  0  0  0  0  0  0  0  0
    6.2702    4.2988  -47.8060 H   0  0  0  0  0  0  0  0  0  0  0  0
    7.3072    5.4897  -48.3980 H   0  0  0  0  0  0  0  0  0  0  0  0
    7.0818    4.1242  -49.3988 H   0  0  0  0  0  0  0  0  0  0  0  0
   10.4974    7.3869  -48.1993 H   0  0  0  0  0  0  0  0  0  0  0  0
   10.1316    5.9059  -48.9597 H   0  0  0  0  0  0  0  0  0  0  0  0
    8.1570    6.5402  -49.6696 H   0  0  0  0  0  0  0  0  0  0  0  0
   10.5238    1.4124  -43.3895 H   0  0  0  0  0  0  0  0  0  0  0  0
   10.7258    3.0687  -42.8138 H   0  0  0  0  0  0  0  0  0  0  0  0
    9.1490    2.2025  -42.8100 H   0  0  0  0  0  0  0  0  0  0  0  0
   10.9684    2.2969  -46.5019 H   0  0  0  0  0  0  0  0  0  0  0  0
   11.2940    1.3655  -45.1504 H   0  0  0  0  0  0  0  0  0  0  0  0
    9.7636    1.0338  -45.9147 H   0  0  0  0  0  0  0  0  0  0  0  0
  1 23  1  1  0  0  0
  2  1  1  0  0  0  0
  3  1  1  0  0  0  0
  3 36  1  0  0  0  0
  4  2  2  0  0  0  0
  4 37  1  0  0  0  0
  5  3  2  0  0  0  0
  5 38  1  0  0  0  0
  6  4  1  0  0  0  0
  6  5  1  0  0  0  0
  7  1  1  0  0  0  0
  7 24  1  6  0  0  0
  8  7  1  0  0  0  0
  8 26  1  1  0  0  0
  9  2  1  0  0  0  0
  9 22  1  0  0  0  0
  9 39  1  6  0  0  0
 10  8  1  0  0  0  0
 10  9  1  0  0  0  0
 10 40  1  0  0  0  0
 10 41  1  0  0  0  0
 11  7  1  0  0  0  0
 11 42  1  6  0  0  0
 11 25  1  0  0  0  0
 12 11  1  0  0  0  0
 12 43  1  0  0  0  0
 12 44  1  0  0  0  0
 13  8  1  0  0  0  0
 13 27  1  6  0  0  0
 14 12  1  0  0  0  0
 14 13  1  0  0  0  0
 14 28  1  1  0  0  0
 15 13  1  0  0  0  0
 15 45  1  0  0  0  0
 15 46  1  0  0  0  0
 16 15  1  0  0  0  0
 16 35  1  1  0  0  0
 17 14  1  0  0  0  0
 17 16  1  0  0  0  0
 17 29  1  6  0  0  0
 18 16  1  0  0  0  0
 19 18  1  0  0  0  0
 20 17  1  0  0  0  0
 20 19  1  0  0  0  0
 21  6  2  0  0  0  0
 23 47  1  0  0  0  0
 23 48  1  0  0  0  0
 23 49  1  0  0  0  0
 25 50  1  0  0  0  0
 28 51  1  0  0  0  0
 28 52  1  0  0  0  0
 28 53  1  0  0  0  0
 30 29  1  0  0  0  0
 30 54  1  0  0  0  0
 30 55  1  0  0  0  0
 31 29  2  0  0  0  0
 32 30  1  0  0  0  0
 32 56  1  0  0  0  0
 33 57  1  0  0  0  0
 33 58  1  0  0  0  0
 33 59  1  0  0  0  0
 33 19  1  0  0  0  0
 34 60  1  0  0  0  0
 34 61  1  0  0  0  0
 34 62  1  0  0  0  0
 34 19  1  0  0  0  0
M  END
>  <DRUGBANK_ID>
DB00180

>  <SECONDARY_ACCESSION_NUMBERS>
APRD00976

>  <COMMON_NAME>
Flunisolide

>  <CAS_NUMBER>
3385-03-3

>  <UNII>
78M02AA8KF

>  <SYNONYMS>
Flunisolida; Flunisolide; Flunisolide anhydrous; Flunisolidum

$$$$
