
 OpenBabel10282417133D

 31 33  0  0  1  0  0  0  0  0999 V2000
    0.9191    0.0383    0.0115 C   0  0  0  0  0  0  0  0  0  0  0  0
    0.0541    7.0101   -2.1011 C   0  0  0  0  0  0  0  0  0  0  0  0
    0.4222    0.4866   -1.3675 C   0  0  2  0  0  0  0  0  0  0  0  0
   -0.6258    5.1173   -1.1178 C   0  0  0  0  0  0  0  0  0  0  0  0
   -0.7805    3.7793   -0.9075 C   0  0  0  0  0  0  0  0  0  0  0  0
   -1.1033    5.7778    0.0135 C   0  0  0  0  0  0  0  0  0  0  0  0
    1.4999    1.2193   -2.1688 C   0  0  2  0  0  0  0  0  0  0  0  0
    1.1963    2.6781   -1.9199 C   0  0  2  0  0  0  0  0  0  0  0  0
   -0.3305    2.6684   -1.7678 C   0  0  1  0  0  0  0  0  0  0  0  0
   -1.0008    7.2227    0.0865 C   0  0  0  0  0  0  0  0  0  0  0  0
   -0.0416    5.7269   -2.2241 N   0  0  0  0  0  0  0  0  0  0  0  0
   -0.3859    7.7595   -1.0330 N   0  0  0  0  0  0  0  0  0  0  0  0
   -1.4012    3.6943    0.3119 N   0  0  0  0  0  0  0  0  0  0  0  0
   -1.5931    4.9030    0.9088 N   0  0  0  0  0  0  0  0  0  0  0  0
    0.4149   -1.2619    0.3210 O   0  0  0  0  0  0  0  0  0  0  0  0
    1.3853    0.9132   -3.5680 O   0  0  0  0  0  0  0  0  0  0  0  0
    1.6925    3.4994   -2.9706 O   0  0  0  0  0  0  0  0  0  0  0  0
   -1.3943    7.9376    1.0069 O   0  0  0  0  0  0  0  0  0  0  0  0
   -0.6865    1.4109   -1.1782 O   0  0  0  0  0  0  0  0  0  0  0  0
    0.0342   -0.3679   -1.9350 H   0  0  0  0  0  0  0  0  0  0  0  0
    2.5203    0.9558   -1.8762 H   0  0  0  0  0  0  0  0  0  0  0  0
    1.6724    3.0033   -0.9860 H   0  0  0  0  0  0  0  0  0  0  0  0
   -0.8357    2.7429   -2.7383 H   0  0  0  0  0  0  0  0  0  0  0  0
    0.5691    0.7139    0.7980 H   0  0  0  0  0  0  0  0  0  0  0  0
    2.0096   -0.0224    0.0608 H   0  0  0  0  0  0  0  0  0  0  0  0
    0.5175    7.6092   -2.9011 H   0  0  0  0  0  0  0  0  0  0  0  0
   -0.2852    8.7626   -1.0418 H   0  0  0  0  0  0  0  0  0  0  0  0
   -1.7022    2.8564    0.8038 H   0  0  0  0  0  0  0  0  0  0  0  0
    0.7512   -1.8792   -0.3533 H   0  0  0  0  0  0  0  0  0  0  0  0
    0.4979    1.1593   -3.8775 H   0  0  0  0  0  0  0  0  0  0  0  0
    1.2403    3.2469   -3.7935 H   0  0  0  0  0  0  0  0  0  0  0  0
  1 24  1  0  0  0  0
  1 25  1  0  0  0  0
  2 26  1  0  0  0  0
  3  1  1  0  0  0  0
  3 20  1  6  0  0  0
  5  4  2  0  0  0  0
  6  4  1  0  0  0  0
  7  3  1  0  0  0  0
  7 16  1  0  0  0  0
  7 21  1  1  0  0  0
  8  7  1  0  0  0  0
  8 17  1  0  0  0  0
  8 22  1  1  0  0  0
  9  8  1  0  0  0  0
  9 23  1  6  0  0  0
  9  5  1  0  0  0  0
 10  6  1  0  0  0  0
 11  2  2  0  0  0  0
 11  4  1  0  0  0  0
 12  2  1  0  0  0  0
 12 10  1  0  0  0  0
 12 27  1  0  0  0  0
 13  5  1  0  0  0  0
 13 28  1  0  0  0  0
 14  6  2  0  0  0  0
 14 13  1  0  0  0  0
 15  1  1  0  0  0  0
 15 29  1  0  0  0  0
 16 30  1  0  0  0  0
 17 31  1  0  0  0  0
 18 10  2  0  0  0  0
 19  3  1  0  0  0  0
 19  9  1  0  0  0  0
M  END
>  <DRUGBANK_ID>
DB04198

>  <SECONDARY_ACCESSION_NUMBERS>
EXPT01452

>  <COMMON_NAME>
Formycin B

>  <UNII>
796VMV3YML

$$$$
