
 OpenBabel10282417113D

 66 72  0  0  0  0  0  0  0  0999 V2000
    1.9953    2.5218   -3.4319 C   0  0  2  0  0  0  0  0  0  0  0  0
    2.4015    2.9485   -4.8640 C   0  0  1  0  0  0  0  0  0  0  0  0
    2.9637    3.1388   -2.3482 C   0  0  2  0  0  0  0  0  0  0  0  0
    0.8282    3.3679   -2.9725 C   0  0  0  0  0  0  0  0  0  0  0  0
    4.5219    2.9840   -3.3933 C   0  0  2  0  0  0  0  0  0  0  0  0
    0.7777    3.4784   -1.6645 C   0  0  0  0  0  0  0  0  0  0  0  0
    1.9753    2.9423   -1.1755 O   0  0  0  0  0  0  0  0  0  0  0  0
    1.1544    2.8278   -5.6592 C   0  0  2  0  0  0  0  0  0  0  0  0
    4.5244    1.7887   -4.4565 C   0  0  2  0  0  0  0  0  0  0  0  0
    1.0269    1.5428   -6.3146 N   0  0  0  0  0  0  0  0  0  0  0  0
   -0.1271    3.8800   -3.8334 C   0  0  0  0  0  0  0  0  0  0  0  0
    3.4106    1.9914   -5.3970 C   0  0  0  0  0  0  0  0  0  0  0  0
    0.1216    3.8274   -5.2478 C   0  0  0  0  0  0  0  0  0  0  0  0
    3.0371    4.3232   -4.9815 C   0  0  0  0  0  0  0  0  0  0  0  0
    4.1448    4.4148   -3.9622 C   0  0  0  0  0  0  0  0  0  0  0  0
    1.2389    1.0512   -3.4237 C   0  0  0  0  0  0  0  0  0  0  0  0
    4.3593    0.3411   -3.8879 C   0  0  0  0  0  0  0  0  0  0  0  0
    0.6359    2.1809   -7.7026 C   0  0  0  0  0  0  0  0  0  0  0  0
   -0.4102    4.0723   -1.1386 C   0  0  0  0  0  0  0  0  0  0  0  0
   -0.5421    3.2295   -7.8006 C   0  0  0  0  0  0  0  0  0  0  0  0
    0.4600    0.6297   -4.9217 C   0  0  0  0  0  0  0  0  0  0  0  0
   -1.0333    4.3981   -8.7161 C   0  0  0  0  0  0  0  0  0  0  0  0
   -0.6331    4.7620   -7.3639 C   0  0  0  0  0  0  0  0  0  0  0  0
   -1.3081    4.4563   -3.3699 C   0  0  0  0  0  0  0  0  0  0  0  0
    5.9690    3.1581   -3.0540 O   0  0  0  0  0  0  0  0  0  0  0  0
   -1.4295    4.5552   -2.0352 C   0  0  0  0  0  0  0  0  0  0  0  0
    3.3966    0.5071   -2.8780 O   0  0  0  0  0  0  0  0  0  0  0  0
   -0.6204    4.2615    0.1805 O   0  0  0  0  0  0  0  0  0  0  0  0
    3.7853   -0.7612   -4.8867 C   0  0  0  0  0  0  0  0  0  0  0  0
    5.3336   -0.1778   -2.8709 C   0  0  0  0  0  0  0  0  0  0  0  0
    7.0761    2.4729   -3.8201 C   0  0  0  0  0  0  0  0  0  0  0  0
    0.3946    2.3553   -5.1368 H   0  0  0  0  0  0  0  0  0  0  0  0
    3.6760    3.0275   -1.5093 H   0  0  0  0  0  0  0  0  0  0  0  0
    5.3720    1.8212   -5.1426 H   0  0  0  0  0  0  0  0  0  0  0  0
    3.7193    1.9703   -6.4524 H   0  0  0  0  0  0  0  0  0  0  0  0
    2.8424    1.1131   -5.3120 H   0  0  0  0  0  0  0  0  0  0  0  0
   -0.8558    3.4821   -5.6230 H   0  0  0  0  0  0  0  0  0  0  0  0
    0.4979    4.7917   -5.5259 H   0  0  0  0  0  0  0  0  0  0  0  0
    3.4123    4.5078   -5.9934 H   0  0  0  0  0  0  0  0  0  0  0  0
    2.3044    5.1024   -4.7708 H   0  0  0  0  0  0  0  0  0  0  0  0
    4.9694    5.0712   -4.2286 H   0  0  0  0  0  0  0  0  0  0  0  0
    3.6757    5.0036   -3.1459 H   0  0  0  0  0  0  0  0  0  0  0  0
    1.7003    0.0652   -3.3403 H   0  0  0  0  0  0  0  0  0  0  0  0
    0.8929    0.9139   -2.3648 H   0  0  0  0  0  0  0  0  0  0  0  0
    1.5661    2.6844   -8.0735 H   0  0  0  0  0  0  0  0  0  0  0  0
    0.4824    1.3966   -8.4493 H   0  0  0  0  0  0  0  0  0  0  0  0
   -1.3827    2.5919   -7.5588 H   0  0  0  0  0  0  0  0  0  0  0  0
    0.5567   -0.4565   -5.0304 H   0  0  0  0  0  0  0  0  0  0  0  0
   -0.5788    0.8927   -4.6922 H   0  0  0  0  0  0  0  0  0  0  0  0
   -0.5324    5.1000   -9.3748 H   0  0  0  0  0  0  0  0  0  0  0  0
   -2.1207    4.4663   -8.8179 H   0  0  0  0  0  0  0  0  0  0  0  0
   -1.4218    5.0388   -6.6473 H   0  0  0  0  0  0  0  0  0  0  0  0
    0.1986    5.4678   -7.2705 H   0  0  0  0  0  0  0  0  0  0  0  0
   -2.0304    4.7876   -4.1171 H   0  0  0  0  0  0  0  0  0  0  0  0
   -2.3414    5.0633   -1.6895 H   0  0  0  0  0  0  0  0  0  0  0  0
    3.6793    1.1634   -2.2344 H   0  0  0  0  0  0  0  0  0  0  0  0
   -1.2722    4.9899    0.2513 H   0  0  0  0  0  0  0  0  0  0  0  0
    4.5553   -1.2964   -5.4355 H   0  0  0  0  0  0  0  0  0  0  0  0
    3.0952   -1.4208   -4.3497 H   0  0  0  0  0  0  0  0  0  0  0  0
    3.1236   -0.4556   -5.7195 H   0  0  0  0  0  0  0  0  0  0  0  0
    6.2081   -0.6484   -3.2805 H   0  0  0  0  0  0  0  0  0  0  0  0
    5.5991    0.6468   -2.1917 H   0  0  0  0  0  0  0  0  0  0  0  0
    4.7873   -0.8907   -2.2204 H   0  0  0  0  0  0  0  0  0  0  0  0
    7.8186    2.2043   -3.0669 H   0  0  0  0  0  0  0  0  0  0  0  0
    6.8790    1.4915   -4.2860 H   0  0  0  0  0  0  0  0  0  0  0  0
    7.6251    3.0562   -4.5933 H   0  0  0  0  0  0  0  0  0  0  0  0
  1  4  1  6  0  0  0
  1 16  1  0  0  0  0
  2  1  1  0  0  0  0
  2 12  1  1  0  0  0
  2 14  1  0  0  0  0
  3  1  1  0  0  0  0
  3  7  1  0  0  0  0
  3 33  1  6  0  0  0
  5  3  1  0  0  0  0
  5 15  1  0  0  0  0
  5 25  1  6  0  0  0
  6  4  1  0  0  0  0
  6  7  1  0  0  0  0
  8  2  1  0  0  0  0
  8 10  1  0  0  0  0
  8 13  1  0  0  0  0
  8 32  1  1  0  0  0
  9  5  1  0  0  0  0
  9 34  1  6  0  0  0
  9 17  1  0  0  0  0
 10 21  1  0  0  0  0
 11  4  2  0  0  0  0
 12  9  1  0  0  0  0
 12 35  1  0  0  0  0
 12 36  1  0  0  0  0
 13 11  1  0  0  0  0
 13 37  1  0  0  0  0
 13 38  1  0  0  0  0
 14 15  1  0  0  0  0
 14 39  1  0  0  0  0
 14 40  1  0  0  0  0
 15 41  1  0  0  0  0
 15 42  1  0  0  0  0
 16 43  1  0  0  0  0
 16 44  1  0  0  0  0
 18 45  1  0  0  0  0
 18 46  1  0  0  0  0
 18 10  1  0  0  0  0
 19  6  2  0  0  0  0
 19 26  1  0  0  0  0
 20 18  1  0  0  0  0
 20 47  1  0  0  0  0
 21 16  1  0  0  0  0
 21 48  1  0  0  0  0
 21 49  1  0  0  0  0
 22 20  1  0  0  0  0
 22 23  1  0  0  0  0
 22 50  1  0  0  0  0
 22 51  1  0  0  0  0
 23 20  1  0  0  0  0
 23 52  1  0  0  0  0
 23 53  1  0  0  0  0
 24 11  1  0  0  0  0
 24 54  1  0  0  0  0
 26 24  2  0  0  0  0
 26 55  1  0  0  0  0
 27 17  1  0  0  0  0
 27 56  1  0  0  0  0
 28 57  1  0  0  0  0
 28 19  1  0  0  0  0
 29 17  1  0  0  0  0
 29 58  1  0  0  0  0
 29 59  1  0  0  0  0
 29 60  1  0  0  0  0
 30 17  1  0  0  0  0
 30 61  1  0  0  0  0
 30 62  1  0  0  0  0
 30 63  1  0  0  0  0
 31 25  1  0  0  0  0
 31 64  1  0  0  0  0
 31 65  1  0  0  0  0
 31 66  1  0  0  0  0
M  END
>  <DRUGBANK_ID>
DB01548

>  <COMMON_NAME>
Diprenorphine

>  <CAS_NUMBER>
14357-78-9

>  <UNII>
1F0L5N25ZZ

>  <SYNONYMS>
Diprenorfin; Diprenorphine

$$$$
