
 OpenBabel10282417133D

 27 26  0  0  0  0  0  0  0  0999 V2000
    0.9585   -0.0569   -0.1328 C   0  0  0  0  0  0  0  0  0  0  0  0
    0.5004   -0.5656    1.2256 C   0  0  0  0  0  0  0  0  0  0  0  0
    1.0033    0.3319    2.3652 C   0  0  0  0  0  0  0  0  0  0  0  0
    0.5029    1.7885    2.2674 C   0  0  0  0  0  0  0  0  0  0  0  0
   -1.0493    1.8394    2.2920 C   0  0  0  0  0  0  0  0  0  0  0  0
   -1.7173    1.2139    3.5280 C   0  0  0  0  0  0  0  0  0  0  0  0
   -1.3769    1.9733    4.7908 C   0  0  0  0  0  0  0  0  0  0  0  0
    1.2464    2.6702    3.2860 C   0  0  0  0  0  0  0  0  0  0  0  0
    1.6197    3.9174    2.8930 N   0  0  0  0  0  0  0  0  0  0  0  0
    1.5689    2.3278    4.4247 O   0  0  0  0  0  0  0  0  0  0  0  0
    0.5701    0.9432   -0.3469 H   0  0  0  0  0  0  0  0  0  0  0  0
    0.6046   -0.7118   -0.9321 H   0  0  0  0  0  0  0  0  0  0  0  0
    2.0511   -0.0131   -0.1690 H   0  0  0  0  0  0  0  0  0  0  0  0
   -0.5926   -0.6484    1.2377 H   0  0  0  0  0  0  0  0  0  0  0  0
    0.8737   -1.5842    1.3777 H   0  0  0  0  0  0  0  0  0  0  0  0
    0.7069   -0.1093    3.3248 H   0  0  0  0  0  0  0  0  0  0  0  0
    2.0997    0.3230    2.3713 H   0  0  0  0  0  0  0  0  0  0  0  0
    0.8075    2.1949    1.2956 H   0  0  0  0  0  0  0  0  0  0  0  0
   -1.4044    2.8662    2.1525 H   0  0  0  0  0  0  0  0  0  0  0  0
   -1.4351    1.2953    1.4167 H   0  0  0  0  0  0  0  0  0  0  0  0
   -2.8051    1.1977    3.3940 H   0  0  0  0  0  0  0  0  0  0  0  0
   -1.4168    0.1667    3.6463 H   0  0  0  0  0  0  0  0  0  0  0  0
   -1.4892    3.0526    4.6448 H   0  0  0  0  0  0  0  0  0  0  0  0
   -1.9637    1.6533    5.6513 H   0  0  0  0  0  0  0  0  0  0  0  0
   -0.3564    1.7465    5.0719 H   0  0  0  0  0  0  0  0  0  0  0  0
    2.1692    4.3734    3.6160 H   0  0  0  0  0  0  0  0  0  0  0  0
    1.9958    4.0313    1.9605 H   0  0  0  0  0  0  0  0  0  0  0  0
  1  2  1  0  0  0  0
  1 11  1  0  0  0  0
  1 12  1  0  0  0  0
  1 13  1  0  0  0  0
  2  3  1  0  0  0  0
  2 14  1  0  0  0  0
  2 15  1  0  0  0  0
  3  4  1  0  0  0  0
  3 16  1  0  0  0  0
  3 17  1  0  0  0  0
  4  5  1  0  0  0  0
  4  8  1  0  0  0  0
  4 18  1  0  0  0  0
  5  6  1  0  0  0  0
  5 19  1  0  0  0  0
  5 20  1  0  0  0  0
  6  7  1  0  0  0  0
  6 21  1  0  0  0  0
  6 22  1  0  0  0  0
  7 23  1  0  0  0  0
  7 24  1  0  0  0  0
  7 25  1  0  0  0  0
  8  9  1  0  0  0  0
  8 10  2  0  0  0  0
  9 26  1  0  0  0  0
  9 27  1  0  0  0  0
M  END
>  <DRUGBANK_ID>
DB04165

>  <SECONDARY_ACCESSION_NUMBERS>
EXPT03231

>  <COMMON_NAME>
Valpromide

>  <UNII>
RUA6CWU76G

>  <SYNONYMS>
Valpromida; Valpromide

$$$$
