
 OpenBabel10282417163D

146151  0  0  0  0  0  0  0  0999 V2000
    5.6870   -1.0230    2.3773 S   0  0  0  0  0  0  0  0  0  0  0  0
    8.0660   -2.1426    2.0869 S   0  0  0  0  0  0  0  0  0  0  0  0
    6.9427    1.2000   -0.0118 O   0  0  0  0  0  0  0  0  0  0  0  0
    3.6057   -4.3421   -0.2030 O   0  0  0  0  0  0  0  0  0  0  0  0
    3.0223   -1.5677   -4.2273 O   0  0  0  0  0  0  0  0  0  0  0  0
    8.2705   -2.1718   -4.0778 O   0  0  0  0  0  0  0  0  0  0  0  0
    7.9247   -4.3563    2.4549 O   0  0  0  0  0  0  0  0  0  0  0  0
    4.8056   -1.3161   -0.9616 O   0  0  0  0  0  0  0  0  0  0  0  0
    6.4565    2.6309   -1.7722 O   0  0  0  0  0  0  0  0  0  0  0  0
    7.6417   -6.7670   -2.2974 O   0  0  0  0  0  0  0  0  0  0  0  0
    4.2002    0.8725   -4.7244 O   0  0  0  0  0  0  0  0  0  0  0  0
   10.6149   -6.2512   -7.1721 O   0  0  0  0  0  0  0  0  0  0  0  0
    5.3280   -2.5357    0.4008 N   0  0  0  0  0  0  0  0  0  0  0  0
    6.1343   -0.0715   -2.1541 N   0  0  0  0  0  0  0  0  0  0  0  0
    6.8487   -4.0329   -3.0967 N   0  0  0  0  0  0  0  0  0  0  0  0
    2.6508   -1.1515   -1.9721 N   0  0  0  0  0  0  0  0  0  0  0  0
    8.6540   -3.3553   -0.1740 N   0  0  0  0  0  0  0  0  0  0  0  0
    6.7271   -7.3955    2.2936 N   0  0  0  0  0  0  0  0  0  0  0  0
    4.3103    0.6363   -1.1531 N   0  0  0  0  0  0  0  0  0  0  0  0
    8.3093   -6.3182   -0.3374 N   0  0  0  0  0  0  0  0  0  0  0  0
   11.5252   -2.7873    0.1246 N   0  0  0  0  0  0  0  0  0  0  0  0
   11.2118   -5.1667   -1.6564 N   0  0  0  0  0  0  0  0  0  0  0  0
    6.3513    1.3678   -4.0617 N   0  0  0  0  0  0  0  0  0  0  0  0
    6.5648   -1.0748    0.0038 C   0  0  3  0  0  0  0  0  0  0  0  0
    5.1598   -1.3087   -3.0362 C   0  0  3  0  0  0  0  0  0  0  0  0
    7.8682   -0.9627   -1.3930 C   0  0  0  0  0  0  0  0  0  0  0  0
    5.1787   -2.7019   -2.4091 C   0  0  0  0  0  0  0  0  0  0  0  0
    5.8983   -4.7418   -1.5316 C   0  0  3  0  0  0  0  0  0  0  0  0
    9.2780   -0.5613   -1.2801 C   0  0  0  0  0  0  0  0  0  0  0  0
    6.4106   -4.8322   -0.1351 C   0  0  0  0  0  0  0  0  0  0  0  0
    6.6124    0.1884   -0.6151 C   0  0  0  0  0  0  0  0  0  0  0  0
    4.7397   -3.8864   -0.3754 C   0  0  0  0  0  0  0  0  0  0  0  0
    6.0339   -5.8260    0.8966 C   0  0  0  0  0  0  0  0  0  0  0  0
    9.9531   -0.6456    0.1316 C   0  0  0  0  0  0  0  0  0  0  0  0
    3.5229   -1.2716   -3.1388 C   0  0  0  0  0  0  0  0  0  0  0  0
    9.1248   -3.3025   -1.9242 C   0  0  3  0  0  0  0  0  0  0  0  0
    4.5078   -3.9545   -3.2181 C   0  0  0  0  0  0  0  0  0  0  0  0
    6.4335   -2.7630   -1.3735 C   0  0  0  0  0  0  0  0  0  0  0  0
    5.7728   -5.3815    2.2069 C   0  0  0  0  0  0  0  0  0  0  0  0
    8.1333   -3.0645   -3.2317 C   0  0  0  0  0  0  0  0  0  0  0  0
    2.7813   -1.1235   -0.2876 C   0  0  3  0  0  0  0  0  0  0  0  0
    8.9630   -4.6095   -2.3181 C   0  0  0  0  0  0  0  0  0  0  0  0
    6.4059   -7.1489    0.9979 C   0  0  0  0  0  0  0  0  0  0  0  0
   10.7784   -1.8029    0.9071 C   0  0  0  0  0  0  0  0  0  0  0  0
    6.2959   -6.3476    3.0366 C   0  0  0  0  0  0  0  0  0  0  0  0
    8.7680   -5.6442    0.9674 C   0  0  3  0  0  0  0  0  0  0  0  0
    3.8091   -0.3068    1.0144 C   0  0  0  0  0  0  0  0  0  0  0  0
    5.5713   -4.1072    2.7732 C   0  0  0  0  0  0  0  0  0  0  0  0
    8.2178   -4.3993    1.2006 C   0  0  0  0  0  0  0  0  0  0  0  0
    3.8641   -0.5082   -0.8565 C   0  0  0  0  0  0  0  0  0  0  0  0
    9.3623   -5.0790   -3.6598 C   0  0  0  0  0  0  0  0  0  0  0  0
    6.2425   -6.1415    4.3887 C   0  0  0  0  0  0  0  0  0  0  0  0
    9.5611   -4.2055    1.4791 C   0  0  0  0  0  0  0  0  0  0  0  0
    4.2616    1.4780   -2.2450 C   0  0  3  0  0  0  0  0  0  0  0  0
    5.6443   -3.7979    4.0920 C   0  0  0  0  0  0  0  0  0  0  0  0
    5.8460   -4.8822    4.8827 C   0  0  0  0  0  0  0  0  0  0  0  0
   10.3717   -6.5224   -1.7840 C   0  0  3  0  0  0  0  0  0  0  0  0
    5.0422    2.5557   -1.4816 C   0  0  3  0  0  0  0  0  0  0  0  0
    9.1921   -6.4086   -4.0709 C   0  0  0  0  0  0  0  0  0  0  0  0
   10.0758   -4.1607   -4.3857 C   0  0  0  0  0  0  0  0  0  0  0  0
    8.6696   -6.6161   -1.5710 C   0  0  0  0  0  0  0  0  0  0  0  0
   10.6383   -7.3667   -0.6352 C   0  0  0  0  0  0  0  0  0  0  0  0
    4.9207    1.2927   -3.8219 C   0  0  0  0  0  0  0  0  0  0  0  0
    9.9380   -8.6713   -0.8685 C   0  0  0  0  0  0  0  0  0  0  0  0
    9.8383   -6.8769   -5.1106 C   0  0  0  0  0  0  0  0  0  0  0  0
   10.4107   -4.5478   -5.6050 C   0  0  0  0  0  0  0  0  0  0  0  0
    4.3422    3.6274   -2.1544 C   0  0  0  0  0  0  0  0  0  0  0  0
   10.2978   -5.8899   -5.9255 C   0  0  0  0  0  0  0  0  0  0  0  0
   10.7575   -9.7052   -0.6518 C   0  0  0  0  0  0  0  0  0  0  0  0
    8.5695   -8.9586   -1.1686 C   0  0  0  0  0  0  0  0  0  0  0  0
   10.2070  -10.9463   -0.7772 C   0  0  0  0  0  0  0  0  0  0  0  0
    8.8329  -11.1615   -1.1014 C   0  0  0  0  0  0  0  0  0  0  0  0
    7.9784  -10.1533   -1.2835 C   0  0  0  0  0  0  0  0  0  0  0  0
   11.0286  -12.0127   -0.5813 C   0  0  0  0  0  0  0  0  0  0  0  0
    8.2991  -12.4022   -1.2489 C   0  0  0  0  0  0  0  0  0  0  0  0
   10.4912  -13.2775   -0.7323 C   0  0  0  0  0  0  0  0  0  0  0  0
    9.1434  -13.4703   -1.0593 C   0  0  0  0  0  0  0  0  0  0  0  0
    4.5816   -2.3033    1.0663 H   0  0  0  0  0  0  0  0  0  0  0  0
    6.2858    0.7475   -2.6745 H   0  0  0  0  0  0  0  0  0  0  0  0
    6.3747   -3.4266   -3.7703 H   0  0  0  0  0  0  0  0  0  0  0  0
    1.7099   -1.3677   -2.2408 H   0  0  0  0  0  0  0  0  0  0  0  0
    8.5371   -2.4314    0.2178 H   0  0  0  0  0  0  0  0  0  0  0  0
    7.2267   -8.2349    2.5490 H   0  0  0  0  0  0  0  0  0  0  0  0
    5.2147    0.4146   -1.4094 H   0  0  0  0  0  0  0  0  0  0  0  0
    7.3227   -6.4197   -0.6419 H   0  0  0  0  0  0  0  0  0  0  0  0
   11.6452   -3.6498    0.7005 H   0  0  0  0  0  0  0  0  0  0  0  0
   10.8035   -3.1390   -0.5189 H   0  0  0  0  0  0  0  0  0  0  0  0
   12.1775   -5.1832   -1.9568 H   0  0  0  0  0  0  0  0  0  0  0  0
   10.9586   -4.5101   -2.4075 H   0  0  0  0  0  0  0  0  0  0  0  0
    7.1989    1.4733   -3.4590 H   0  0  0  0  0  0  0  0  0  0  0  0
    6.7131    1.0329   -4.9505 H   0  0  0  0  0  0  0  0  0  0  0  0
    6.9771    2.1501   -1.0804 H   0  0  0  0  0  0  0  0  0  0  0  0
   10.3549   -7.1844   -7.1760 H   0  0  0  0  0  0  0  0  0  0  0  0
    7.1128   -0.8188    0.8448 H   0  0  0  0  0  0  0  0  0  0  0  0
    5.5933   -1.3497   -4.0356 H   0  0  0  0  0  0  0  0  0  0  0  0
    8.3097   -1.8422   -1.4747 H   0  0  0  0  0  0  0  0  0  0  0  0
    7.4812   -1.1097   -2.5186 H   0  0  0  0  0  0  0  0  0  0  0  0
    4.2853   -2.8018   -1.8355 H   0  0  0  0  0  0  0  0  0  0  0  0
    5.7358   -5.7622   -1.7669 H   0  0  0  0  0  0  0  0  0  0  0  0
    9.8562   -1.1150   -2.0361 H   0  0  0  0  0  0  0  0  0  0  0  0
    9.1115    0.3857   -1.7631 H   0  0  0  0  0  0  0  0  0  0  0  0
    7.3893   -4.7895   -0.4510 H   0  0  0  0  0  0  0  0  0  0  0  0
    6.5572   -3.9307    0.4497 H   0  0  0  0  0  0  0  0  0  0  0  0
   10.7913   -0.0272   -0.0200 H   0  0  0  0  0  0  0  0  0  0  0  0
    9.1844   -0.2621    0.8158 H   0  0  0  0  0  0  0  0  0  0  0  0
   10.1316   -2.8886   -2.0541 H   0  0  0  0  0  0  0  0  0  0  0  0
    4.9974   -4.2585   -4.1367 H   0  0  0  0  0  0  0  0  0  0  0  0
    4.4571   -4.9182   -2.7037 H   0  0  0  0  0  0  0  0  0  0  0  0
    3.4486   -3.8208   -3.2060 H   0  0  0  0  0  0  0  0  0  0  0  0
    7.0606   -2.4867   -0.5271 H   0  0  0  0  0  0  0  0  0  0  0  0
    7.1832   -3.4691   -1.3073 H   0  0  0  0  0  0  0  0  0  0  0  0
    6.9651   -2.4717   -2.1127 H   0  0  0  0  0  0  0  0  0  0  0  0
    2.7992   -2.1880   -0.0336 H   0  0  0  0  0  0  0  0  0  0  0  0
    9.3541   -4.8632   -1.3725 H   0  0  0  0  0  0  0  0  0  0  0  0
    7.9907   -4.8948   -2.1154 H   0  0  0  0  0  0  0  0  0  0  0  0
    6.9179   -7.8068    0.3271 H   0  0  0  0  0  0  0  0  0  0  0  0
   10.6831   -2.1344    1.9873 H   0  0  0  0  0  0  0  0  0  0  0  0
    9.9018   -2.2900    0.8662 H   0  0  0  0  0  0  0  0  0  0  0  0
    8.7301   -6.2833    1.8230 H   0  0  0  0  0  0  0  0  0  0  0  0
    3.5749    0.7905    0.6138 H   0  0  0  0  0  0  0  0  0  0  0  0
    3.0249   -0.0612    1.7272 H   0  0  0  0  0  0  0  0  0  0  0  0
    5.8230   -3.2876    2.1597 H   0  0  0  0  0  0  0  0  0  0  0  0
    6.3580   -7.0031    5.0036 H   0  0  0  0  0  0  0  0  0  0  0  0
   10.2384   -5.0170    0.9142 H   0  0  0  0  0  0  0  0  0  0  0  0
   10.0835   -4.1108    0.4595 H   0  0  0  0  0  0  0  0  0  0  0  0
    3.1982    1.2858   -2.2645 H   0  0  0  0  0  0  0  0  0  0  0  0
    5.6026   -2.7645    4.4250 H   0  0  0  0  0  0  0  0  0  0  0  0
    5.6501   -4.7462    5.9225 H   0  0  0  0  0  0  0  0  0  0  0  0
   10.7523   -6.9978   -2.6698 H   0  0  0  0  0  0  0  0  0  0  0  0
    4.9131    2.5171   -0.3685 H   0  0  0  0  0  0  0  0  0  0  0  0
    8.9301   -7.2971   -3.4980 H   0  0  0  0  0  0  0  0  0  0  0  0
   10.2990   -3.1451   -4.0569 H   0  0  0  0  0  0  0  0  0  0  0  0
   11.7151   -7.3381   -0.6717 H   0  0  0  0  0  0  0  0  0  0  0  0
   10.3217   -7.0492    0.3502 H   0  0  0  0  0  0  0  0  0  0  0  0
    9.8355   -7.9584   -5.1576 H   0  0  0  0  0  0  0  0  0  0  0  0
   10.7502   -3.7625   -6.2419 H   0  0  0  0  0  0  0  0  0  0  0  0
    3.2748    3.4056   -2.0383 H   0  0  0  0  0  0  0  0  0  0  0  0
    4.6615    4.5406   -1.7089 H   0  0  0  0  0  0  0  0  0  0  0  0
    4.6372    3.5550   -3.2045 H   0  0  0  0  0  0  0  0  0  0  0  0
   11.7795   -9.4755   -0.3860 H   0  0  0  0  0  0  0  0  0  0  0  0
    7.7211   -8.3286   -1.3369 H   0  0  0  0  0  0  0  0  0  0  0  0
    6.9125  -10.1698   -1.4946 H   0  0  0  0  0  0  0  0  0  0  0  0
   12.0689  -11.8646   -0.3233 H   0  0  0  0  0  0  0  0  0  0  0  0
    7.2562  -12.5256   -1.5171 H   0  0  0  0  0  0  0  0  0  0  0  0
   11.1407  -14.1282   -0.5966 H   0  0  0  0  0  0  0  0  0  0  0  0
    8.7412  -14.4654   -1.1679 H   0  0  0  0  0  0  0  0  0  0  0  0
  1  2  1  0  0  0  0
  1 47  1  0  0  0  0
  2 53  1  0  0  0  0
  3 31  2  0  0  0  0
  4 32  2  0  0  0  0
  5 35  2  0  0  0  0
  6 40  2  0  0  0  0
  7 49  2  0  0  0  0
  8 50  2  0  0  0  0
  9 58  1  0  0  0  0
  9 92  1  0  0  0  0
 10 61  2  0  0  0  0
 11 63  2  0  0  0  0
 12 68  1  0  0  0  0
 12 93  1  0  0  0  0
 13 24  1  0  0  0  0
 13 32  1  0  0  0  0
 13 78  1  0  0  0  0
 14 25  1  0  0  0  0
 14 31  1  0  0  0  0
 14 79  1  0  0  0  0
 15 28  1  0  0  0  0
 15 40  1  0  0  0  0
 15 80  1  0  0  0  0
 16 35  1  0  0  0  0
 16 41  1  0  0  0  0
 16 81  1  0  0  0  0
 17 36  1  0  0  0  0
 17 49  1  0  0  0  0
 17 82  1  0  0  0  0
 18 43  1  0  0  0  0
 18 45  1  0  0  0  0
 18 83  1  0  0  0  0
 19 50  1  0  0  0  0
 19 54  1  0  0  0  0
 19 84  1  0  0  0  0
 20 46  1  0  0  0  0
 20 61  1  0  0  0  0
 20 85  1  0  0  0  0
 21 44  1  0  0  0  0
 21 86  1  0  0  0  0
 21 87  1  0  0  0  0
 22 57  1  0  0  0  0
 22 88  1  0  0  0  0
 22 89  1  0  0  0  0
 23 63  1  0  0  0  0
 23 90  1  0  0  0  0
 23 91  1  0  0  0  0
 24 26  1  0  0  0  0
 24 31  1  0  0  0  0
 24 94  1  0  0  0  0
 25 27  1  0  0  0  0
 25 35  1  0  0  0  0
 25 95  1  0  0  0  0
 26 29  1  0  0  0  0
 26 96  1  0  0  0  0
 26 97  1  0  0  0  0
 27 37  1  0  0  0  0
 27 38  1  0  0  0  0
 27 98  1  0  0  0  0
 28 30  1  0  0  0  0
 28 32  1  0  0  0  0
 28 99  1  0  0  0  0
 29 34  1  0  0  0  0
 29100  1  0  0  0  0
 29101  1  0  0  0  0
 30 33  1  0  0  0  0
 30102  1  0  0  0  0
 30103  1  0  0  0  0
 33 39  1  0  0  0  0
 33 43  2  0  0  0  0
 34 44  1  0  0  0  0
 34104  1  0  0  0  0
 34105  1  0  0  0  0
 36 40  1  0  0  0  0
 36 42  1  0  0  0  0
 36106  1  0  0  0  0
 37107  1  0  0  0  0
 37108  1  0  0  0  0
 37109  1  0  0  0  0
 38110  1  0  0  0  0
 38111  1  0  0  0  0
 38112  1  0  0  0  0
 39 45  1  0  0  0  0
 39 48  2  0  0  0  0
 41 47  1  0  0  0  0
 41 50  1  0  0  0  0
 41113  1  0  0  0  0
 42 51  1  0  0  0  0
 42114  1  0  0  0  0
 42115  1  0  0  0  0
 43116  1  0  0  0  0
 44117  1  0  0  0  0
 44118  1  0  0  0  0
 45 52  2  0  0  0  0
 46 49  1  0  0  0  0
 46 53  1  0  0  0  0
 46119  1  0  0  0  0
 47120  1  0  0  0  0
 47121  1  0  0  0  0
 48 55  1  0  0  0  0
 48122  1  0  0  0  0
 51 59  2  0  0  0  0
 51 60  1  0  0  0  0
 52 56  1  0  0  0  0
 52123  1  0  0  0  0
 53124  1  0  0  0  0
 53125  1  0  0  0  0
 54 58  1  0  0  0  0
 54 63  1  0  0  0  0
 54126  1  0  0  0  0
 55 56  2  0  0  0  0
 55127  1  0  0  0  0
 56128  1  0  0  0  0
 57 61  1  0  0  0  0
 57 62  1  0  0  0  0
 57129  1  0  0  0  0
 58 67  1  0  0  0  0
 58130  1  0  0  0  0
 59 65  1  0  0  0  0
 59131  1  0  0  0  0
 60 66  2  0  0  0  0
 60132  1  0  0  0  0
 62 64  1  0  0  0  0
 62133  1  0  0  0  0
 62134  1  0  0  0  0
 64 69  2  0  0  0  0
 64 70  1  0  0  0  0
 65 68  2  0  0  0  0
 65135  1  0  0  0  0
 66 68  1  0  0  0  0
 66136  1  0  0  0  0
 67137  1  0  0  0  0
 67138  1  0  0  0  0
 67139  1  0  0  0  0
 69 71  1  0  0  0  0
 69140  1  0  0  0  0
 70 73  2  0  0  0  0
 70141  1  0  0  0  0
 71 72  1  0  0  0  0
 71 74  2  0  0  0  0
 72 73  1  0  0  0  0
 72 75  2  0  0  0  0
 73142  1  0  0  0  0
 74 76  1  0  0  0  0
 74143  1  0  0  0  0
 75 77  1  0  0  0  0
 75144  1  0  0  0  0
 76 77  2  0  0  0  0
 76145  1  0  0  0  0
 77146  1  0  0  0  0
M  END
>  <DRUGBANK_ID>
DB06791

>  <COMMON_NAME>
Lanreotide

>  <CAS_NUMBER>
108736-35-2

>  <UNII>
0G3DE8943Y

>  <SYNONYMS>
Lanreotida; Lanreotide

$$$$
