
 OpenBabel10282417203D

 37 38  0  0  0  0  0  0  0  0999 V2000
    0.2301    1.2914   -1.1162 Na  0  3  0  0  0  0  0  0  0  0  0  0
    1.6096    2.3910    1.4383 Na  0  3  0  0  0  0  0  0  0  0  0  0
    0.9438    0.4485    0.9222 O   0  5  0  0  0  0  0  0  0  0  0  0
    2.1594    0.1883    0.6480 C   0  0  0  0  0  0  0  0  0  0  0  0
    2.6939    1.0013   -0.1703 O   0  0  0  0  0  0  0  0  0  0  0  0
    2.9275   -0.6734    1.5697 C   0  0  0  0  0  0  0  0  0  0  0  0
    2.5175   -2.0076    1.8619 C   0  0  0  0  0  0  0  0  0  0  0  0
    3.2309   -2.7112    2.8547 C   0  0  0  0  0  0  0  0  0  0  0  0
    4.4307   -2.1883    3.3664 C   0  0  0  0  0  0  0  0  0  0  0  0
    4.9069   -0.9500    2.9436 C   0  0  0  0  0  0  0  0  0  0  0  0
    4.1363   -0.1709    2.0914 C   0  0  0  0  0  0  0  0  0  0  0  0
    1.8526   -2.8193    0.7169 C   0  0  0  0  0  0  0  0  0  0  0  0
    2.8907   -3.3027   -0.0615 C   0  0  0  0  0  0  0  0  0  0  0  0
    3.9697   -4.1449    0.5040 C   0  0  0  0  0  0  0  0  0  0  0  0
    5.2165   -3.6734    0.6730 C   0  0  0  0  0  0  0  0  0  0  0  0
    6.4746   -4.5336    1.7672 Br  0  0  0  0  0  0  0  0  0  0  0  0
    5.5417   -2.2982    0.1543 C   0  0  0  0  0  0  0  0  0  0  0  0
    6.5034   -1.6811    0.5614 O   0  0  0  0  0  0  0  0  0  0  0  0
    4.5739   -1.7379   -0.8903 C   0  0  0  0  0  0  0  0  0  0  0  0
    5.1778   -0.1507   -1.6948 Br  0  0  0  0  0  0  0  0  0  0  0  0
    3.3374   -2.2902   -1.0446 C   0  0  0  0  0  0  0  0  0  0  0  0
    2.3307   -1.7723   -1.8555 O   0  0  0  0  0  0  0  0  0  0  0  0
    1.0024   -1.7871   -1.3952 C   0  0  0  0  0  0  0  0  0  0  0  0
    0.6889   -2.2508   -0.1037 C   0  0  0  0  0  0  0  0  0  0  0  0
   -0.6130   -1.9571    0.3920 C   0  0  0  0  0  0  0  0  0  0  0  0
   -1.5232   -1.1484   -0.3490 C   0  0  0  0  0  0  0  0  0  0  0  0
   -3.2377   -0.7455    0.4481 Br  0  0  0  0  0  0  0  0  0  0  0  0
   -1.1604   -0.5288   -1.5746 C   0  0  0  0  0  0  0  0  0  0  0  0
   -1.7470    0.5239   -2.0259 O   0  5  0  0  0  0  0  0  0  0  0  0
    0.0673   -1.0197   -2.1368 C   0  0  0  0  0  0  0  0  0  0  0  0
    0.6750   -0.2751   -3.8204 Br  0  0  0  0  0  0  0  0  0  0  0  0
    3.0430   -3.7751    3.0123 H   0  0  0  0  0  0  0  0  0  0  0  0
    5.1079   -2.8379    3.9201 H   0  0  0  0  0  0  0  0  0  0  0  0
    5.9412   -0.6681    3.1459 H   0  0  0  0  0  0  0  0  0  0  0  0
    4.5578    0.7592    1.7059 H   0  0  0  0  0  0  0  0  0  0  0  0
    3.6811   -5.0903    0.9542 H   0  0  0  0  0  0  0  0  0  0  0  0
   -0.9071   -2.1995    1.4134 H   0  0  0  0  0  0  0  0  0  0  0  0
  3  4  1  0  0  0  0
  4  5  2  0  0  0  0
  4  6  1  0  0  0  0
  6  7  2  0  0  0  0
  6 11  1  0  0  0  0
  7  8  1  0  0  0  0
  7 12  1  0  0  0  0
  8  9  2  0  0  0  0
  8 32  1  0  0  0  0
  9 10  1  0  0  0  0
  9 33  1  0  0  0  0
 10 11  2  0  0  0  0
 10 34  1  0  0  0  0
 11 35  1  0  0  0  0
 12 13  2  0  0  0  0
 12 24  1  0  0  0  0
 13 14  1  0  0  0  0
 13 21  1  0  0  0  0
 14 15  2  0  0  0  0
 14 36  1  0  0  0  0
 15 16  1  0  0  0  0
 15 17  1  0  0  0  0
 17 18  2  0  0  0  0
 17 19  1  0  0  0  0
 19 20  1  0  0  0  0
 19 21  2  0  0  0  0
 21 22  1  0  0  0  0
 22 23  1  0  0  0  0
 23 24  2  0  0  0  0
 23 30  1  0  0  0  0
 24 25  1  0  0  0  0
 25 26  2  0  0  0  0
 25 37  1  0  0  0  0
 26 27  1  0  0  0  0
 26 28  1  0  0  0  0
 28 29  1  0  0  0  0
 28 30  2  0  0  0  0
 30 31  1  0  0  0  0
M  CHG  4   1   1   2   1   3  -1  29  -1
M  END
>  <DRUGBANK_ID>
DB13706

>  <COMMON_NAME>
Eosin

>  <CAS_NUMBER>
17372-87-1

>  <UNII>
TDQ283MPCW

>  <SYNONYMS>
Acid red 87; Eosine Yellowish

$$$$
