BDL
 OpenBabel10282417163D

 45 46  0  0  0  0  0  0  0  0999 V2000
    1.0021   -0.0933   -0.1508 O   0  0  0  0  0  0  0  0  0  0  0  0
    2.2149    0.0081   -0.0269 C   0  0  0  0  0  0  0  0  0  0  0  0
    2.9642    0.5357   -1.0251 O   0  0  0  0  0  0  0  0  0  0  0  0
    2.9953   -0.4256    1.2222 C   0  0  1  0  0  0  0  0  0  0  0  0
    2.5398    0.4039    2.4272 C   0  0  0  0  0  0  0  0  0  0  0  0
    1.0462    0.2552    2.8060 C   0  0  0  0  0  0  0  0  0  0  0  0
    0.5227   -1.1632    3.0647 C   0  0  0  0  0  0  0  0  0  0  0  0
    0.7485    1.0876    4.0432 C   0  0  0  0  0  0  0  0  0  0  0  0
    2.9159   -1.8741    1.4848 N   0  0  0  0  0  0  0  0  0  0  0  0
    3.5924   -2.6007    2.8501 S   0  0  0  0  0  0  0  0  0  0  0  0
    3.3465   -1.8405    4.0580 O   0  0  0  0  0  0  0  0  0  0  0  0
    3.2302   -3.9935    2.7782 O   0  0  0  0  0  0  0  0  0  0  0  0
    5.3137   -2.4302    2.5412 C   0  0  0  0  0  0  0  0  0  0  0  0
    5.8849   -1.1501    2.5471 C   0  0  0  0  0  0  0  0  0  0  0  0
    7.2497   -0.9978    2.3731 C   0  0  0  0  0  0  0  0  0  0  0  0
    6.0966   -3.5668    2.4388 C   0  0  0  0  0  0  0  0  0  0  0  0
    7.4729   -3.4078    2.3689 C   0  0  0  0  0  0  0  0  0  0  0  0
    8.0593   -2.1300    2.2718 C   0  0  0  0  0  0  0  0  0  0  0  0
    9.4983   -2.0069    2.0665 C   0  0  0  0  0  0  0  0  0  0  0  0
   10.3004   -1.3010    2.9713 C   0  0  0  0  0  0  0  0  0  0  0  0
   11.6842   -1.2721    2.8109 C   0  0  0  0  0  0  0  0  0  0  0  0
   12.2781   -1.9569    1.7520 C   0  0  0  0  0  0  0  0  0  0  0  0
   11.4911   -2.6619    0.8454 C   0  0  0  0  0  0  0  0  0  0  0  0
   10.1057   -2.6457    0.9745 C   0  0  0  0  0  0  0  0  0  0  0  0
    4.0420   -0.2083    0.9912 H   0  0  0  0  0  0  0  0  0  0  0  0
    3.9328    0.5153   -0.9167 H   0  0  0  0  0  0  0  0  0  0  0  0
    3.1629    0.2019    3.3016 H   0  0  0  0  0  0  0  0  0  0  0  0
    2.7615    1.4600    2.2202 H   0  0  0  0  0  0  0  0  0  0  0  0
    0.4531    0.6814    1.9932 H   0  0  0  0  0  0  0  0  0  0  0  0
    1.0487   -1.6492    3.8884 H   0  0  0  0  0  0  0  0  0  0  0  0
   -0.5322   -1.1458    3.3485 H   0  0  0  0  0  0  0  0  0  0  0  0
    0.5614   -1.8022    2.1837 H   0  0  0  0  0  0  0  0  0  0  0  0
    1.0218    2.1331    3.8816 H   0  0  0  0  0  0  0  0  0  0  0  0
   -0.3226    1.0420    4.2618 H   0  0  0  0  0  0  0  0  0  0  0  0
    1.2955    0.7066    4.9115 H   0  0  0  0  0  0  0  0  0  0  0  0
    2.0673   -2.3535    1.1730 H   0  0  0  0  0  0  0  0  0  0  0  0
    5.2884   -0.2580    2.6984 H   0  0  0  0  0  0  0  0  0  0  0  0
    7.6771    0.0020    2.3418 H   0  0  0  0  0  0  0  0  0  0  0  0
    5.6537   -4.5590    2.4554 H   0  0  0  0  0  0  0  0  0  0  0  0
    8.1036   -4.2929    2.4138 H   0  0  0  0  0  0  0  0  0  0  0  0
    9.8499   -0.7903    3.8198 H   0  0  0  0  0  0  0  0  0  0  0  0
   12.2988   -0.7375    3.5292 H   0  0  0  0  0  0  0  0  0  0  0  0
   13.3573   -1.9415    1.6321 H   0  0  0  0  0  0  0  0  0  0  0  0
   11.9530   -3.2365    0.0478 H   0  0  0  0  0  0  0  0  0  0  0  0
    9.4945   -3.1447    0.2240 H   0  0  0  0  0  0  0  0  0  0  0  0
  1  2  2  0  0  0  0
  2  3  1  0  0  0  0
  2  4  1  0  0  0  0
  3 26  1  0  0  0  0
  4  5  1  0  0  0  0
  4  9  1  0  0  0  0
  4 25  1  6  0  0  0
  5  6  1  0  0  0  0
  5 27  1  0  0  0  0
  5 28  1  0  0  0  0
  6  7  1  0  0  0  0
  6  8  1  0  0  0  0
  6 29  1  0  0  0  0
  7 30  1  0  0  0  0
  7 31  1  0  0  0  0
  7 32  1  0  0  0  0
  8 33  1  0  0  0  0
  8 34  1  0  0  0  0
  8 35  1  0  0  0  0
  9 10  1  0  0  0  0
  9 36  1  0  0  0  0
 10 11  2  0  0  0  0
 10 12  2  0  0  0  0
 10 13  1  0  0  0  0
 13 14  2  0  0  0  0
 13 16  1  0  0  0  0
 14 15  1  0  0  0  0
 14 37  1  0  0  0  0
 15 18  2  0  0  0  0
 15 38  1  0  0  0  0
 16 17  2  0  0  0  0
 16 39  1  0  0  0  0
 17 18  1  0  0  0  0
 17 40  1  0  0  0  0
 18 19  1  0  0  0  0
 19 20  2  0  0  0  0
 19 24  1  0  0  0  0
 20 21  1  0  0  0  0
 20 41  1  0  0  0  0
 21 22  2  0  0  0  0
 21 42  1  0  0  0  0
 22 23  1  0  0  0  0
 22 43  1  0  0  0  0
 23 24  2  0  0  0  0
 23 44  1  0  0  0  0
 24 45  1  0  0  0  0
M  END
>  <DRUGBANK_ID>
DB07446

>  <COMMON_NAME>
N-(biphenyl-4-ylsulfonyl)-D-leucine

$$$$
