
 OpenBabel10282417203D

 77 82  0  0  1  0  0  0  0  0999 V2000
   -6.1648    1.3094   -1.6982 C   0  0  0  0  0  0  0  0  0  0  0  0
   -4.5246    1.2753   -2.4184 C   0  0  2  0  0  0  0  0  0  0  0  0
   -3.2173   -0.2375   -3.0500 C   0  0  0  0  0  0  0  0  0  0  0  0
   -2.4631   -0.1373   -1.8917 C   0  0  1  0  0  0  0  0  0  0  0  0
   -2.8620   -1.2091   -0.9576 C   0  0  2  0  0  0  0  0  0  0  0  0
   -1.6942   -2.0683   -0.7960 C   0  0  0  0  0  0  0  0  0  0  0  0
   -1.8644   -3.3942   -0.6684 C   0  0  0  0  0  0  0  0  0  0  0  0
   -3.3293   -3.9782   -0.7736 C   0  0  0  0  0  0  0  0  0  0  0  0
   -3.9370   -5.1658   -0.6223 C   0  0  0  0  0  0  0  0  0  0  0  0
   -3.2133   -5.8864    0.2371 C   0  0  0  0  0  0  0  0  0  0  0  0
   -2.8239   -5.2629    1.3758 C   0  0  0  0  0  0  0  0  0  0  0  0
   -1.6759   -6.2702    1.5400 C   0  0  0  0  0  0  0  0  0  0  0  0
   -1.6325   -7.2969    0.5860 N   0  0  0  0  0  0  0  0  0  0  0  0
   -2.6345   -6.9810   -0.2578 N   0  0  0  0  0  0  0  0  0  0  0  0
   -2.9900   -7.5163   -1.5652 C   0  0  0  0  0  0  0  0  0  0  0  0
   -3.1485   -6.6467   -2.6917 C   0  0  0  0  0  0  0  0  0  0  0  0
   -3.8261   -7.0281   -3.8531 C   0  0  0  0  0  0  0  0  0  0  0  0
   -4.3206   -8.3168   -3.9421 C   0  0  0  0  0  0  0  0  0  0  0  0
   -4.1453   -9.1983   -2.8682 C   0  0  0  0  0  0  0  0  0  0  0  0
   -3.5386   -8.7882   -1.6628 C   0  0  0  0  0  0  0  0  0  0  0  0
   -3.5534   -3.5428    1.3989 C   0  0  0  0  0  0  0  0  0  0  0  0
   -4.3423   -3.0684   -0.1831 C   0  0  2  0  0  0  0  0  0  0  0  0
   -4.0782   -2.0672   -1.3630 C   0  0  1  0  0  0  0  0  0  0  0  0
   -5.3161   -1.2665   -1.7683 C   0  0  2  0  0  0  0  0  0  0  0  0
   -5.1537   -0.4486   -3.0891 C   0  0  0  0  0  0  0  0  0  0  0  0
   -3.5682    0.7097   -2.5682 C   0  0  2  0  0  0  0  0  0  0  0  0
   -3.5912    1.8669   -1.5139 C   0  0  1  0  0  0  0  0  0  0  0  0
   -2.5244    2.9862   -1.7218 C   0  0  0  0  0  0  0  0  0  0  0  0
   -1.7861    3.2467   -0.7564 O   0  0  0  0  0  0  0  0  0  0  0  0
   -2.4422    3.8855   -2.9962 C   0  0  0  0  0  0  0  0  0  0  0  0
   -1.8191    3.5320   -4.2706 O   0  0  0  0  0  0  0  0  0  0  0  0
   -0.7346    2.6653   -4.2368 C   0  0  0  0  0  0  0  0  0  0  0  0
   -0.1094    2.4453   -3.2070 O   0  0  0  0  0  0  0  0  0  0  0  0
   -0.6640    1.6881   -5.4501 C   0  0  0  0  0  0  0  0  0  0  0  0
   -3.6199    1.3516   -0.1975 O   0  0  0  0  0  0  0  0  0  0  0  0
   -3.3030    1.4314   -4.2744 C   0  0  0  0  0  0  0  0  0  0  0  0
   -5.5184   -0.6151   -0.5135 O   0  0  0  0  0  0  0  0  0  0  0  0
   -5.8742   -3.4757   -0.3561 C   0  0  0  0  0  0  0  0  0  0  0  0
   -0.6230   -3.9106    0.0010 C   0  0  0  0  0  0  0  0  0  0  0  0
   -6.2248    1.3330   -0.6028 H   0  0  0  0  0  0  0  0  0  0  0  0
   -6.8317    0.4981   -2.0468 H   0  0  0  0  0  0  0  0  0  0  0  0
   -6.7341    2.1746   -2.0367 H   0  0  0  0  0  0  0  0  0  0  0  0
   -4.8415    2.1169   -3.1032 H   0  0  0  0  0  0  0  0  0  0  0  0
   -2.2261   -0.2711   -3.6754 H   0  0  0  0  0  0  0  0  0  0  0  0
   -3.4213   -1.2715   -3.4987 H   0  0  0  0  0  0  0  0  0  0  0  0
   -1.4412    0.2740   -1.9451 H   0  0  0  0  0  0  0  0  0  0  0  0
   -3.0380   -0.7882    0.0299 H   0  0  0  0  0  0  0  0  0  0  0  0
   -0.7355   -1.5800   -0.5950 H   0  0  0  0  0  0  0  0  0  0  0  0
   -4.9715   -5.4150   -0.4133 H   0  0  0  0  0  0  0  0  0  0  0  0
   -0.7234   -6.2606    2.0807 H   0  0  0  0  0  0  0  0  0  0  0  0
   -2.7932   -5.6161   -2.6704 H   0  0  0  0  0  0  0  0  0  0  0  0
   -3.9538   -6.3238   -4.6737 H   0  0  0  0  0  0  0  0  0  0  0  0
   -4.8409   -8.6351   -4.8430 H   0  0  0  0  0  0  0  0  0  0  0  0
   -4.5007  -10.2201   -2.9722 H   0  0  0  0  0  0  0  0  0  0  0  0
   -3.5728   -9.4414   -0.7981 H   0  0  0  0  0  0  0  0  0  0  0  0
   -4.3930   -3.5088    2.1036 H   0  0  0  0  0  0  0  0  0  0  0  0
   -2.8665   -2.7144    1.6482 H   0  0  0  0  0  0  0  0  0  0  0  0
   -3.8738   -2.6298   -2.3043 H   0  0  0  0  0  0  0  0  0  0  0  0
   -6.2198   -1.8115   -2.0179 H   0  0  0  0  0  0  0  0  0  0  0  0
   -5.8939    0.2253   -3.5962 H   0  0  0  0  0  0  0  0  0  0  0  0
   -4.9924   -1.0564   -4.0271 H   0  0  0  0  0  0  0  0  0  0  0  0
   -3.4853    4.1998   -3.1803 H   0  0  0  0  0  0  0  0  0  0  0  0
   -1.9305    4.7969   -2.6785 H   0  0  0  0  0  0  0  0  0  0  0  0
   -1.4000    0.8712   -5.4690 H   0  0  0  0  0  0  0  0  0  0  0  0
   -0.7536    2.1938   -6.4061 H   0  0  0  0  0  0  0  0  0  0  0  0
    0.2612    1.1148   -5.3702 H   0  0  0  0  0  0  0  0  0  0  0  0
   -2.6758    1.2350    0.0675 H   0  0  0  0  0  0  0  0  0  0  0  0
   -3.9154    2.2855   -4.5408 H   0  0  0  0  0  0  0  0  0  0  0  0
   -2.3260    1.6275   -3.9642 H   0  0  0  0  0  0  0  0  0  0  0  0
   -3.3289    0.6742   -5.0622 H   0  0  0  0  0  0  0  0  0  0  0  0
   -4.7982    0.0342   -0.3318 H   0  0  0  0  0  0  0  0  0  0  0  0
   -6.0128   -3.9772   -1.3388 H   0  0  0  0  0  0  0  0  0  0  0  0
   -6.2434   -4.0996    0.4496 H   0  0  0  0  0  0  0  0  0  0  0  0
   -6.5961   -2.6556   -0.3799 H   0  0  0  0  0  0  0  0  0  0  0  0
    0.2125   -3.9166   -0.6903 H   0  0  0  0  0  0  0  0  0  0  0  0
   -0.3655   -3.3272    0.9126 H   0  0  0  0  0  0  0  0  0  0  0  0
   -0.6717   -4.9127    0.3214 H   0  0  0  0  0  0  0  0  0  0  0  0
  1 40  1  0  0  0  0
  1 41  1  0  0  0  0
  1 42  1  0  0  0  0
  2  1  1  0  0  0  0
  2  3  1  0  0  0  0
  2 27  1  0  0  0  0
  2 43  1  6  0  0  0
  3 44  1  0  0  0  0
  3 45  1  0  0  0  0
  4  3  1  0  0  0  0
  4  5  1  0  0  0  0
  4 26  1  0  0  0  0
  4 46  1  1  0  0  0
  5  6  1  0  0  0  0
  5 23  1  0  0  0  0
  5 47  1  1  0  0  0
  6  7  2  0  0  0  0
  6 48  1  0  0  0  0
  7  8  1  0  0  0  0
  7 39  1  0  0  0  0
  8  9  2  0  0  0  0
  8 22  1  0  0  0  0
  9 10  1  0  0  0  0
  9 49  1  0  0  0  0
 10 11  2  0  0  0  0
 10 14  1  0  0  0  0
 11 12  1  0  0  0  0
 11 21  1  0  0  0  0
 12 13  2  0  0  0  0
 12 50  1  0  0  0  0
 13 14  1  0  0  0  0
 14 15  1  0  0  0  0
 15 16  2  0  0  0  0
 15 20  1  0  0  0  0
 16 17  1  0  0  0  0
 16 51  1  0  0  0  0
 17 18  2  0  0  0  0
 17 52  1  0  0  0  0
 18 19  1  0  0  0  0
 18 53  1  0  0  0  0
 19 20  2  0  0  0  0
 19 54  1  0  0  0  0
 20 55  1  0  0  0  0
 21 22  1  0  0  0  0
 21 56  1  0  0  0  0
 21 57  1  0  0  0  0
 22 38  1  1  0  0  0
 23 22  1  0  0  0  0
 23 24  1  0  0  0  0
 23 58  1  6  0  0  0
 24 25  1  0  0  0  0
 24 37  1  0  0  0  0
 24 59  1  6  0  0  0
 25 26  1  0  0  0  0
 25 60  1  0  0  0  0
 25 61  1  0  0  0  0
 26 27  1  0  0  0  0
 26 36  1  1  0  0  0
 27 28  1  6  0  0  0
 27 35  1  0  0  0  0
 28 29  2  0  0  0  0
 28 30  1  0  0  0  0
 30 31  1  0  0  0  0
 30 62  1  0  0  0  0
 30 63  1  0  0  0  0
 31 32  1  0  0  0  0
 32 33  2  0  0  0  0
 32 34  1  0  0  0  0
 34 64  1  0  0  0  0
 34 65  1  0  0  0  0
 34 66  1  0  0  0  0
 35 67  1  0  0  0  0
 36 68  1  0  0  0  0
 36 69  1  0  0  0  0
 36 70  1  0  0  0  0
 37 71  1  0  0  0  0
 38 72  1  0  0  0  0
 38 73  1  0  0  0  0
 38 74  1  0  0  0  0
 39 75  1  0  0  0  0
 39 76  1  0  0  0  0
 39 77  1  0  0  0  0
M  END
>  <DRUGBANK_ID>
DB13003

>  <COMMON_NAME>
Cortivazol

>  <CAS_NUMBER>
1110-40-3

>  <UNII>
YM183K0H63

>  <SYNONYMS>
Cortivazol

$$$$
