PZF
 OpenBabel10282417173D

 47 50  0  0  0  0  0  0  0  0999 V2000
   -1.3157   -0.0831    0.0212 N   0  0  0  0  0  0  0  0  0  0  0  0
   -0.5657   -1.2056    0.0143 C   0  0  0  0  0  0  0  0  0  0  0  0
    1.4598    0.0810   -0.0086 C   0  0  0  0  0  0  0  0  0  0  0  0
    4.5890    4.9455   -4.2582 C   0  0  2  0  0  0  0  0  0  0  0  0
    5.3362    3.7478   -4.8403 C   0  0  0  0  0  0  0  0  0  0  0  0
    1.7812    4.5862    0.9070 C   0  0  0  0  0  0  0  0  0  0  0  0
    5.0632    4.9136   -1.8874 C   0  0  0  0  0  0  0  0  0  0  0  0
   -0.5745   -3.5783    0.0481 C   0  0  0  0  0  0  0  0  0  0  0  0
    6.6349    3.3980   -4.4293 C   0  0  0  0  0  0  0  0  0  0  0  0
    7.2685    0.4159   -6.3896 F   0  0  0  0  0  0  0  0  0  0  0  0
    6.6513    1.4996   -5.9061 C   0  0  0  0  0  0  0  0  0  0  0  0
    5.3808    1.8337   -6.3645 C   0  0  0  0  0  0  0  0  0  0  0  0
    4.7414    2.9535   -5.8346 C   0  0  0  0  0  0  0  0  0  0  0  0
    3.5177    3.2657   -6.2907 F   0  0  0  0  0  0  0  0  0  0  0  0
    7.2730    2.2828   -4.9510 C   0  0  0  0  0  0  0  0  0  0  0  0
    8.4975    1.9733   -4.4992 F   0  0  0  0  0  0  0  0  0  0  0  0
    5.3716    5.7355   -3.1693 C   0  0  2  0  0  0  0  0  0  0  0  0
    4.8840    7.1169   -3.0196 N   0  0  0  0  0  0  0  0  0  0  0  0
    3.6800    4.5103   -2.0920 N   0  0  0  0  0  0  0  0  0  0  0  0
    3.2912    4.5427   -3.5006 C   0  0  0  0  0  0  0  0  0  0  0  0
    2.8491    4.1389   -1.0711 C   0  0  0  0  0  0  0  0  0  0  0  0
    2.6545    4.9768   -0.0408 N   0  0  0  0  0  0  0  0  0  0  0  0
    2.2159    2.9122   -1.1055 C   0  0  0  0  0  0  0  0  0  0  0  0
    1.3646    2.5778   -0.0648 C   0  0  0  0  0  0  0  0  0  0  0  0
    1.1136    3.4231    0.9490 N   0  0  0  0  0  0  0  0  0  0  0  0
    0.7165    1.2651   -0.0058 C   0  0  0  0  0  0  0  0  0  0  0  0
    0.8205   -1.1595   -0.0000 C   0  0  0  0  0  0  0  0  0  0  0  0
   -1.3044   -2.3577    0.0217 O   0  0  0  0  0  0  0  0  0  0  0  0
   -0.6661    1.1133    0.0222 C   0  0  0  0  0  0  0  0  0  0  0  0
    4.3447    5.6003   -5.1069 H   0  0  0  0  0  0  0  0  0  0  0  0
    6.4429    5.8140   -3.3709 H   0  0  0  0  0  0  0  0  0  0  0  0
    2.5466    0.1105   -0.0068 H   0  0  0  0  0  0  0  0  0  0  0  0
    1.5937    5.2809    1.7204 H   0  0  0  0  0  0  0  0  0  0  0  0
    5.2442    5.4864   -0.9731 H   0  0  0  0  0  0  0  0  0  0  0  0
    5.6819    4.0080   -1.8446 H   0  0  0  0  0  0  0  0  0  0  0  0
    0.0334   -3.6923   -0.8564 H   0  0  0  0  0  0  0  0  0  0  0  0
    0.0456   -3.6503    0.9488 H   0  0  0  0  0  0  0  0  0  0  0  0
   -1.2867   -4.4086    0.0724 H   0  0  0  0  0  0  0  0  0  0  0  0
    7.1890    3.9584   -3.6863 H   0  0  0  0  0  0  0  0  0  0  0  0
    4.8992    1.2228   -7.1182 H   0  0  0  0  0  0  0  0  0  0  0  0
    4.0034    7.0829   -2.4989 H   0  0  0  0  0  0  0  0  0  0  0  0
    4.6793    7.5225   -3.9296 H   0  0  0  0  0  0  0  0  0  0  0  0
    2.5271    5.3177   -3.6453 H   0  0  0  0  0  0  0  0  0  0  0  0
    2.8789    3.5866   -3.8342 H   0  0  0  0  0  0  0  0  0  0  0  0
    2.4094    2.2165   -1.9104 H   0  0  0  0  0  0  0  0  0  0  0  0
    1.4294   -2.0539   -0.0044 H   0  0  0  0  0  0  0  0  0  0  0  0
   -1.3222    1.9812    0.0260 H   0  0  0  0  0  0  0  0  0  0  0  0
  1  2  1  0  0  0  0
  1 29  2  0  0  0  0
  2 28  1  0  0  0  0
  2 27  2  0  0  0  0
  3 27  1  0  0  0  0
  3 26  2  0  0  0  0
  3 32  1  0  0  0  0
  4 20  1  0  0  0  0
  4 17  1  0  0  0  0
  4  5  1  0  0  0  0
  4 30  1  6  0  0  0
  5 13  2  0  0  0  0
  5  9  1  0  0  0  0
  6 25  1  0  0  0  0
  6 22  2  0  0  0  0
  6 33  1  0  0  0  0
  7 19  1  0  0  0  0
  7 17  1  0  0  0  0
  7 34  1  0  0  0  0
  7 35  1  0  0  0  0
  8 28  1  0  0  0  0
  8 36  1  0  0  0  0
  8 37  1  0  0  0  0
  8 38  1  0  0  0  0
  9 15  2  0  0  0  0
  9 39  1  0  0  0  0
 10 11  1  0  0  0  0
 11 12  2  0  0  0  0
 11 15  1  0  0  0  0
 12 13  1  0  0  0  0
 12 40  1  0  0  0  0
 13 14  1  0  0  0  0
 15 16  1  0  0  0  0
 17 31  1  6  0  0  0
 17 18  1  0  0  0  0
 18 41  1  0  0  0  0
 18 42  1  0  0  0  0
 19 21  1  0  0  0  0
 19 20  1  0  0  0  0
 20 43  1  0  0  0  0
 20 44  1  0  0  0  0
 21 23  2  0  0  0  0
 21 22  1  0  0  0  0
 23 24  1  0  0  0  0
 23 45  1  0  0  0  0
 24 26  1  0  0  0  0
 24 25  2  0  0  0  0
 26 29  1  0  0  0  0
 27 46  1  0  0  0  0
 29 47  1  0  0  0  0
M  END
>  <DRUGBANK_ID>
DB08445

>  <COMMON_NAME>
(3R,4S)-1-[6-(6-METHOXYPYRIDIN-3-YL)PYRIMIDIN-4-YL]-4-(2,4,5-TRIFLUOROPHENYL)PYRROLIDIN-3-AMINE

$$$$
