
 OpenBabel10282417173D

 53 53  0  0  0  0  0  0  0  0999 V2000
    0.9376   -0.1381    1.7339 P   0  0  2  0  0  0  0  0  0  0  0  0
    1.7734    1.2943    1.7006 O   0  0  0  0  0  0  0  0  0  0  0  0
    1.9094   -1.0889    0.7925 O   0  0  0  0  0  0  0  0  0  0  0  0
    0.1856    0.4071    0.4951 O   0  0  0  0  0  0  0  0  0  0  0  0
   -0.5380    2.6358    1.6018 C   0  0  1  0  0  0  0  0  0  0  0  0
    1.0163    2.3835    1.0787 C   0  0  1  0  0  0  0  0  0  0  0  0
   -1.1010    3.6749    0.6144 C   0  0  0  0  0  0  0  0  0  0  0  0
    1.1954    4.6810    0.1516 C   0  0  1  0  0  0  0  0  0  0  0  0
    1.8486    3.6587    1.0898 C   0  0  0  0  0  0  0  0  0  0  0  0
   -0.2556    4.9414    0.5643 C   0  0  0  0  0  0  0  0  0  0  0  0
   -1.6532    1.4518    1.7678 C   0  0  0  0  0  0  0  0  0  0  0  0
    1.9962    5.9733    0.1404 C   0  0  0  0  0  0  0  0  0  0  0  0
   -1.4148    0.4777    2.9335 C   0  0  0  0  0  0  0  0  0  0  0  0
   -3.1141    1.8296    1.9746 C   0  0  0  0  0  0  0  0  0  0  0  0
    1.8264   -0.7826    3.1980 C   0  0  0  0  0  0  0  0  0  0  0  0
    2.7660    0.2713    3.8122 C   0  0  0  0  0  0  0  0  0  0  0  0
    2.0098    1.5122    4.3321 C   0  0  0  0  0  0  0  0  0  0  0  0
    1.0244    1.1938    5.4444 C   0  0  0  0  0  0  0  0  0  0  0  0
    1.7259    0.6526    6.6665 C   0  0  0  0  0  0  0  0  0  0  0  0
    2.7173    1.6719    7.1893 C   0  0  0  0  0  0  0  0  0  0  0  0
    2.5885   -1.6555    1.1605 H   0  0  0  0  0  0  0  0  0  0  0  0
   -0.4440    3.0786    2.5986 H   0  0  0  0  0  0  0  0  0  0  0  0
    1.0020    2.1689   -0.0064 H   0  0  0  0  0  0  0  0  0  0  0  0
   -1.1679    3.2281   -0.3886 H   0  0  0  0  0  0  0  0  0  0  0  0
   -2.1122    3.9685    0.9002 H   0  0  0  0  0  0  0  0  0  0  0  0
    1.1959    4.2792   -0.8733 H   0  0  0  0  0  0  0  0  0  0  0  0
    1.9391    4.0400    2.1107 H   0  0  0  0  0  0  0  0  0  0  0  0
    2.8698    3.4382    0.7472 H   0  0  0  0  0  0  0  0  0  0  0  0
   -0.2764    5.4073    1.5562 H   0  0  0  0  0  0  0  0  0  0  0  0
   -0.7230    5.6429   -0.1353 H   0  0  0  0  0  0  0  0  0  0  0  0
   -1.7330    0.9130    0.8143 H   0  0  0  0  0  0  0  0  0  0  0  0
    3.0186    5.7885   -0.2049 H   0  0  0  0  0  0  0  0  0  0  0  0
    1.5389    6.7062   -0.5315 H   0  0  0  0  0  0  0  0  0  0  0  0
    2.0449    6.4061    1.1439 H   0  0  0  0  0  0  0  0  0  0  0  0
   -2.0451    0.6546    3.8061 H   0  0  0  0  0  0  0  0  0  0  0  0
   -1.5690   -0.5644    2.6167 H   0  0  0  0  0  0  0  0  0  0  0  0
   -0.4247    0.5962    3.3303 H   0  0  0  0  0  0  0  0  0  0  0  0
   -3.5152    2.4475    1.1758 H   0  0  0  0  0  0  0  0  0  0  0  0
   -3.7032    0.8974    1.9677 H   0  0  0  0  0  0  0  0  0  0  0  0
   -3.2518    2.3057    2.9464 H   0  0  0  0  0  0  0  0  0  0  0  0
    1.0799   -1.1092    3.9278 H   0  0  0  0  0  0  0  0  0  0  0  0
    2.4119   -1.6865    3.0021 H   0  0  0  0  0  0  0  0  0  0  0  0
    3.3627   -0.1794    4.6093 H   0  0  0  0  0  0  0  0  0  0  0  0
    3.5040    0.5788    3.0578 H   0  0  0  0  0  0  0  0  0  0  0  0
    2.7341    2.2839    4.6083 H   0  0  0  0  0  0  0  0  0  0  0  0
    1.4122    2.0194    3.5832 H   0  0  0  0  0  0  0  0  0  0  0  0
    0.4485    2.0977    5.6762 H   0  0  0  0  0  0  0  0  0  0  0  0
    0.2885    0.4516    5.1319 H   0  0  0  0  0  0  0  0  0  0  0  0
    0.9746    0.4141    7.4230 H   0  0  0  0  0  0  0  0  0  0  0  0
    2.2336   -0.2876    6.4244 H   0  0  0  0  0  0  0  0  0  0  0  0
    2.2026    2.6122    7.4106 H   0  0  0  0  0  0  0  0  0  0  0  0
    3.2044    1.2986    8.0878 H   0  0  0  0  0  0  0  0  0  0  0  0
    3.5069    1.8868    6.4617 H   0  0  0  0  0  0  0  0  0  0  0  0
  1  2  1  0  0  0  0
  1  3  1  0  0  0  0
  1  4  2  6  0  0  0
  1 15  1  0  0  0  0
  3 21  1  0  0  0  0
  5  6  1  0  0  0  0
  5  7  1  0  0  0  0
  5 11  1  0  0  0  0
  5 22  1  1  0  0  0
  6  9  1  0  0  0  0
  6 23  1  6  0  0  0
  6  2  1  0  0  0  0
  7 10  1  0  0  0  0
  7 24  1  0  0  0  0
  7 25  1  0  0  0  0
  8  9  1  0  0  0  0
  8 10  1  0  0  0  0
  8 12  1  0  0  0  0
  8 26  1  6  0  0  0
  9 27  1  0  0  0  0
  9 28  1  0  0  0  0
 10 29  1  0  0  0  0
 10 30  1  0  0  0  0
 11 13  1  0  0  0  0
 11 14  1  0  0  0  0
 11 31  1  0  0  0  0
 12 32  1  0  0  0  0
 12 33  1  0  0  0  0
 12 34  1  0  0  0  0
 13 35  1  0  0  0  0
 13 36  1  0  0  0  0
 13 37  1  0  0  0  0
 14 38  1  0  0  0  0
 14 39  1  0  0  0  0
 14 40  1  0  0  0  0
 15 16  1  0  0  0  0
 15 41  1  0  0  0  0
 15 42  1  0  0  0  0
 16 17  1  0  0  0  0
 16 43  1  0  0  0  0
 16 44  1  0  0  0  0
 17 18  1  0  0  0  0
 17 45  1  0  0  0  0
 17 46  1  0  0  0  0
 18 19  1  0  0  0  0
 18 47  1  0  0  0  0
 18 48  1  0  0  0  0
 19 20  1  0  0  0  0
 19 49  1  0  0  0  0
 19 50  1  0  0  0  0
 20 51  1  0  0  0  0
 20 52  1  0  0  0  0
 20 53  1  0  0  0  0
M  END
>  <DRUGBANK_ID>
DB08200

>  <COMMON_NAME>
(1R)-menthyl hexyl phosphonate group

$$$$
