
 OpenBabel10282417213D

 63 66  0  0  0  0  0  0  0  0999 V2000
    1.4299    0.1062   -0.7791 C   0  0  0  0  0  0  0  0  0  0  0  0
    1.2029    1.7208   -3.4062 C   0  0  0  0  0  0  0  0  0  0  0  0
   -5.0372   -1.5926   -2.5352 C   0  0  0  0  0  0  0  0  0  0  0  0
    0.7379    3.0114   -3.0833 C   0  0  0  0  0  0  0  0  0  0  0  0
   -5.7353   -0.3915   -2.4887 C   0  0  0  0  0  0  0  0  0  0  0  0
    0.3566    0.6624   -3.2709 C   0  0  0  0  0  0  0  0  0  0  0  0
   -3.6608   -1.6112   -2.2897 C   0  0  0  0  0  0  0  0  0  0  0  0
   -0.5519    3.1516   -2.5517 C   0  0  0  0  0  0  0  0  0  0  0  0
   -5.0840    0.7794   -2.1177 C   0  0  0  0  0  0  0  0  0  0  0  0
   -2.2318   -2.1671    1.0426 C   0  0  0  0  0  0  0  0  0  0  0  0
   -0.8507   -0.0071    1.2853 C   0  0  0  0  0  0  0  0  0  0  0  0
   -0.8648   -2.8170    1.2178 C   0  0  0  0  0  0  0  0  0  0  0  0
    0.5809   -0.8196    1.4574 C   0  0  0  0  0  0  0  0  0  0  0  0
   -2.8472   -0.4825    2.7827 C   0  0  0  0  0  0  0  0  0  0  0  0
    0.4061   -2.7340    3.9129 C   0  0  0  0  0  0  0  0  0  0  0  0
   -2.3857   -1.0473    4.1947 C   0  0  0  0  0  0  0  0  0  0  0  0
   -0.0774   -1.2021    4.0093 C   0  0  0  0  0  0  0  0  0  0  0  0
    1.1427   -2.4244   -0.2079 C   0  0  0  0  0  0  0  0  0  0  0  0
   -0.7420   -1.4273   -1.5348 C   0  0  0  0  0  0  0  0  0  0  0  0
    0.7982   -1.3063   -1.2222 C   0  0  3  0  0  0  0  0  0  0  0  0
   -0.8714    0.7606   -2.5905 C   0  0  0  0  0  0  0  0  0  0  0  0
   -2.9570   -0.4274   -2.0508 C   0  0  0  0  0  0  0  0  0  0  0  0
   -1.3434    2.0651   -2.2601 C   0  0  0  0  0  0  0  0  0  0  0  0
   -3.6996    0.7651   -1.8780 C   0  0  0  0  0  0  0  0  0  0  0  0
   -2.1775   -0.7444    1.4785 N   0  0  0  0  0  0  0  0  0  0  0  0
    0.4494   -2.1871    1.0132 N   0  0  0  0  0  0  0  0  0  0  0  0
   -1.5372   -0.3936   -2.2386 N   0  0  0  0  0  0  0  0  0  0  0  0
   -0.5721   -3.7241    4.2507 O   0  0  0  0  0  0  0  0  0  0  0  0
   -1.1304   -0.6987    4.7864 O   0  0  0  0  0  0  0  0  0  0  0  0
   -2.9077    2.3032   -1.4405 S   0  0  0  0  0  0  0  0  0  0  0  0
    1.0328    0.6808    0.0617 H   0  0  0  0  0  0  0  0  0  0  0  0
    1.2176    0.9712   -1.3508 H   0  0  0  0  0  0  0  0  0  0  0  0
    2.5115    0.0390   -0.6431 H   0  0  0  0  0  0  0  0  0  0  0  0
    2.2597    1.5440   -3.6014 H   0  0  0  0  0  0  0  0  0  0  0  0
   -5.5350   -2.5088   -2.8337 H   0  0  0  0  0  0  0  0  0  0  0  0
    1.3803    3.8492   -3.2346 H   0  0  0  0  0  0  0  0  0  0  0  0
   -6.7884   -0.3649   -2.7647 H   0  0  0  0  0  0  0  0  0  0  0  0
    0.7584   -0.3448   -3.4508 H   0  0  0  0  0  0  0  0  0  0  0  0
   -3.1340   -2.5523   -2.3999 H   0  0  0  0  0  0  0  0  0  0  0  0
   -0.9193    4.1663   -2.3461 H   0  0  0  0  0  0  0  0  0  0  0  0
   -5.6373    1.7151   -2.0858 H   0  0  0  0  0  0  0  0  0  0  0  0
   -2.9805   -2.7262    1.6260 H   0  0  0  0  0  0  0  0  0  0  0  0
   -2.5788   -2.3878    0.0251 H   0  0  0  0  0  0  0  0  0  0  0  0
   -0.9027    0.3278    0.2471 H   0  0  0  0  0  0  0  0  0  0  0  0
   -0.8570    0.9775    1.7726 H   0  0  0  0  0  0  0  0  0  0  0  0
   -0.9871   -2.7754    2.2650 H   0  0  0  0  0  0  0  0  0  0  0  0
   -0.8285   -3.8912    1.0373 H   0  0  0  0  0  0  0  0  0  0  0  0
    1.1046   -0.9339    2.3900 H   0  0  0  0  0  0  0  0  0  0  0  0
    1.5315   -0.3064    1.2442 H   0  0  0  0  0  0  0  0  0  0  0  0
   -2.9782    0.6013    2.8474 H   0  0  0  0  0  0  0  0  0  0  0  0
   -3.8645   -0.8905    2.6713 H   0  0  0  0  0  0  0  0  0  0  0  0
    0.7526   -3.0673    2.9225 H   0  0  0  0  0  0  0  0  0  0  0  0
    1.3713   -2.9004    4.3803 H   0  0  0  0  0  0  0  0  0  0  0  0
   -3.1091   -0.7341    4.9448 H   0  0  0  0  0  0  0  0  0  0  0  0
   -2.4060   -2.1295    4.1590 H   0  0  0  0  0  0  0  0  0  0  0  0
   -0.5720   -1.0828    3.0868 H   0  0  0  0  0  0  0  0  0  0  0  0
    0.6926   -0.4088    3.9751 H   0  0  0  0  0  0  0  0  0  0  0  0
    0.8992   -3.4382   -0.5474 H   0  0  0  0  0  0  0  0  0  0  0  0
    2.2243   -2.4470    0.0012 H   0  0  0  0  0  0  0  0  0  0  0  0
   -1.0046   -2.4514   -1.8374 H   0  0  0  0  0  0  0  0  0  0  0  0
   -1.1720   -1.3554   -0.5819 H   0  0  0  0  0  0  0  0  0  0  0  0
    1.3300   -1.6476   -2.1071 H   0  0  0  0  0  0  0  0  0  0  0  0
   -1.3461   -3.6720    3.6588 H   0  0  0  0  0  0  0  0  0  0  0  0
  1 31  1  0  0  0  0
  1 32  1  0  0  0  0
  1 33  1  0  0  0  0
  2 34  1  0  0  0  0
  3 35  1  0  0  0  0
  4  2  2  0  0  0  0
  4 36  1  0  0  0  0
  5  3  2  0  0  0  0
  5 37  1  0  0  0  0
  6  2  1  0  0  0  0
  6 38  1  0  0  0  0
  7  3  1  0  0  0  0
  7 39  1  0  0  0  0
  8  4  1  0  0  0  0
  8 40  1  0  0  0  0
  9  5  1  0  0  0  0
  9 41  1  0  0  0  0
 10 42  1  0  0  0  0
 10 43  1  0  0  0  0
 11 44  1  0  0  0  0
 11 45  1  0  0  0  0
 12 10  1  0  0  0  0
 12 46  1  0  0  0  0
 12 47  1  0  0  0  0
 13 11  1  0  0  0  0
 13 48  1  0  0  0  0
 13 49  1  0  0  0  0
 14 50  1  0  0  0  0
 14 51  1  0  0  0  0
 15 52  1  0  0  0  0
 15 53  1  0  0  0  0
 16 14  1  0  0  0  0
 16 54  1  0  0  0  0
 16 55  1  0  0  0  0
 17 15  1  0  0  0  0
 17 56  1  0  0  0  0
 17 57  1  0  0  0  0
 18 58  1  0  0  0  0
 18 59  1  0  0  0  0
 19 60  1  0  0  0  0
 19 61  1  0  0  0  0
 20  1  1  0  0  0  0
 20 18  1  0  0  0  0
 20 19  1  0  0  0  0
 20 62  1  0  0  0  0
 21  6  2  0  0  0  0
 22  7  2  0  0  0  0
 23  8  2  0  0  0  0
 23 21  1  0  0  0  0
 24  9  2  0  0  0  0
 24 22  1  0  0  0  0
 25 10  1  0  0  0  0
 25 11  1  0  0  0  0
 25 14  1  0  0  0  0
 26 12  1  0  0  0  0
 26 13  1  0  0  0  0
 26 18  1  0  0  0  0
 27 19  1  0  0  0  0
 27 21  1  0  0  0  0
 27 22  1  0  0  0  0
 28 15  1  0  0  0  0
 28 63  1  0  0  0  0
 29 16  1  0  0  0  0
 29 17  1  0  0  0  0
 30 23  1  0  0  0  0
 30 24  1  0  0  0  0
M  END
>  <DRUGBANK_ID>
DB13784

>  <COMMON_NAME>
Dixyrazine

>  <CAS_NUMBER>
2470-73-7

>  <UNII>
7H368W3AYC

$$$$
