
 OpenBabel10282417213D

 50 53  0  0  0  0  0  0  0  0999 V2000
   -2.4953   -1.3406    0.5624 C   0  0  0  0  0  0  0  0  0  0  0  0
   -1.3046   -2.1555    0.0192 C   0  0  0  0  0  0  0  0  0  0  0  0
    0.0887   -1.7012    0.5180 C   0  0  2  0  0  0  0  0  0  0  0  0
    0.2211   -0.1443    0.5101 C   0  0  2  0  0  0  0  0  0  0  0  0
   -0.3739    0.5105   -0.8076 C   0  0  1  0  0  0  0  0  0  0  0  0
   -1.7560    0.2503   -1.0455 O   0  0  0  0  0  0  0  0  0  0  0  0
   -2.4453    0.1490    0.1857 C   0  0  1  0  0  0  0  0  0  0  0  0
    1.2236   -2.4564   -0.2185 C   0  0  1  0  0  0  0  0  0  0  0  0
    2.5981   -2.1482    0.3998 C   0  0  0  0  0  0  0  0  0  0  0  0
    2.9314   -0.6706    0.6002 C   0  0  0  0  0  0  0  0  0  0  0  0
    1.6796    0.3315    0.9014 C   0  0  1  0  0  0  0  0  0  0  0  0
    1.7514    1.9267    0.5283 C   0  0  2  0  0  0  0  0  0  0  0  0
    1.0737    2.4113   -0.8718 C   0  0  2  0  0  0  0  0  0  0  0  0
   -0.2447    1.9137   -0.9454 O   0  0  0  0  0  0  0  0  0  0  0  0
    0.1517   -2.0159    1.5676 H   0  0  0  0  0  0  0  0  0  0  0  0
    1.0910   -3.9874   -0.1620 C   0  0  0  0  0  0  0  0  0  0  0  0
   -3.8404    0.7227   -0.0624 C   0  0  0  0  0  0  0  0  0  0  0  0
   -0.6005    0.2674    1.6545 O   0  0  0  0  0  0  0  0  0  0  0  0
   -1.8151    0.9493    1.1923 O   0  0  0  0  0  0  0  0  0  0  0  0
    1.7521    2.3777   -2.1690 O   0  0  0  0  0  0  0  0  0  0  0  0
    3.1179    2.5597    0.7618 C   0  0  0  0  0  0  0  0  0  0  0  0
    1.7164    0.3129    2.0029 H   0  0  0  0  0  0  0  0  0  0  0  0
    0.0793    0.0056   -1.6471 H   0  0  0  0  0  0  0  0  0  0  0  0
    1.8962    1.1405   -2.8752 C   0  0  0  0  0  0  0  0  0  0  0  0
    2.6957    0.2952   -1.9476 C   0  0  0  0  0  0  0  0  0  0  0  0
   -3.3967   -1.7952    0.1353 H   0  0  0  0  0  0  0  0  0  0  0  0
   -2.5522   -1.4556    1.6492 H   0  0  0  0  0  0  0  0  0  0  0  0
   -1.3259   -2.1481   -1.0814 H   0  0  0  0  0  0  0  0  0  0  0  0
   -1.4685   -3.1964    0.3103 H   0  0  0  0  0  0  0  0  0  0  0  0
    1.1907   -2.1968   -1.2842 H   0  0  0  0  0  0  0  0  0  0  0  0
    2.7207   -2.6606    1.3593 H   0  0  0  0  0  0  0  0  0  0  0  0
    3.3541   -2.6088   -0.2649 H   0  0  0  0  0  0  0  0  0  0  0  0
    3.7375   -0.5103    1.3315 H   0  0  0  0  0  0  0  0  0  0  0  0
    3.5748   -0.4944   -0.2569 H   0  0  0  0  0  0  0  0  0  0  0  0
    1.0842    2.3742    1.2895 H   0  0  0  0  0  0  0  0  0  0  0  0
    0.9550    3.4961   -0.7513 H   0  0  0  0  0  0  0  0  0  0  0  0
    0.1340   -4.3500   -0.5403 H   0  0  0  0  0  0  0  0  0  0  0  0
    1.8724   -4.4586   -0.7720 H   0  0  0  0  0  0  0  0  0  0  0  0
    1.2170   -4.3371    0.8676 H   0  0  0  0  0  0  0  0  0  0  0  0
   -3.7741    1.7768   -0.3629 H   0  0  0  0  0  0  0  0  0  0  0  0
   -4.3448    0.2012   -0.8850 H   0  0  0  0  0  0  0  0  0  0  0  0
   -4.4663    0.6775    0.8331 H   0  0  0  0  0  0  0  0  0  0  0  0
    3.0449    3.6551    0.7397 H   0  0  0  0  0  0  0  0  0  0  0  0
    3.5130    2.2849    1.7462 H   0  0  0  0  0  0  0  0  0  0  0  0
    3.8346    2.2562   -0.0010 H   0  0  0  0  0  0  0  0  0  0  0  0
    0.9592    0.6736   -3.1394 H   0  0  0  0  0  0  0  0  0  0  0  0
    2.5071    1.1846   -3.7696 H   0  0  0  0  0  0  0  0  0  0  0  0
    2.3634    0.6395   -1.0410 H   0  0  0  0  0  0  0  0  0  0  0  0
    2.4231   -0.7553   -1.9829 H   0  0  0  0  0  0  0  0  0  0  0  0
    3.7469    0.5379   -1.9144 H   0  0  0  0  0  0  0  0  0  0  0  0
  1  2  1  0  0  0  0
  1 26  1  0  0  0  0
  1 27  1  0  0  0  0
  2  3  1  0  0  0  0
  2 28  1  0  0  0  0
  2 29  1  0  0  0  0
  3  8  1  0  0  0  0
  3 15  1  1  0  0  0
  4  3  1  0  0  0  0
  4 11  1  0  0  0  0
  4 18  1  1  0  0  0
  5  6  1  0  0  0  0
  5  4  1  0  0  0  0
  5 23  1  6  0  0  0
  6  7  1  0  0  0  0
  7  1  1  0  0  0  0
  7 17  1  6  0  0  0
  7 19  1  0  0  0  0
  8  9  1  0  0  0  0
  8 16  1  0  0  0  0
  8 30  1  6  0  0  0
  9 10  1  0  0  0  0
  9 31  1  0  0  0  0
  9 32  1  0  0  0  0
 10 11  1  0  0  0  0
 10 33  1  0  0  0  0
 10 34  1  0  0  0  0
 11 12  1  0  0  0  0
 11 22  1  1  0  0  0
 12 13  1  0  0  0  0
 12 21  1  0  0  0  0
 12 35  1  1  0  0  0
 13 14  1  0  0  0  0
 13 20  1  0  0  0  0
 13 36  1  1  0  0  0
 14  5  1  0  0  0  0
 16 37  1  0  0  0  0
 16 38  1  0  0  0  0
 16 39  1  0  0  0  0
 17 40  1  0  0  0  0
 17 41  1  0  0  0  0
 17 42  1  0  0  0  0
 19 18  1  0  0  0  0
 20 24  1  0  0  0  0
 21 43  1  0  0  0  0
 21 44  1  0  0  0  0
 21 45  1  0  0  0  0
 24 25  1  0  0  0  0
 24 46  1  0  0  0  0
 24 47  1  0  0  0  0
 25 48  1  0  0  0  0
 25 49  1  0  0  0  0
 25 50  1  0  0  0  0
M  END
>  <DRUGBANK_ID>
DB13851

>  <COMMON_NAME>
Artemotil

>  <CAS_NUMBER>
75887-54-6

>  <UNII>
XGL7GFB9YI

>  <SYNONYMS>
Arteether; Artemotil; beta-Arteether; beta-Dihydroartemisinin ethyl ether; Dihydroartemisinin ethyl ether

$$$$
