
 OpenBabel10282417143D

 40 41  0  0  1  0  0  0  0  0999 V2000
    1.2807    2.7049    0.1378 C   0  0  0  0  0  0  0  0  0  0  0  0
    4.3181   -2.4099   -3.4872 C   0  0  0  0  0  0  0  0  0  0  0  0
    6.0170   -0.7440   -3.8911 C   0  0  0  0  0  0  0  0  0  0  0  0
    5.2998   -3.3491   -3.1540 C   0  0  0  0  0  0  0  0  0  0  0  0
    7.0000   -1.6822   -3.5564 C   0  0  0  0  0  0  0  0  0  0  0  0
    3.6191   -0.1157   -4.1757 C   0  0  0  0  0  0  0  0  0  0  0  0
   -0.3976    1.9888   -2.3469 C   0  0  0  0  0  0  0  0  0  0  0  0
    0.7002    1.4013    0.6946 C   0  0  2  0  0  0  0  0  0  0  0  0
    4.6648   -1.0979   -3.8499 C   0  0  0  0  0  0  0  0  0  0  0  0
    6.6374   -2.9755   -3.1957 C   0  0  0  0  0  0  0  0  0  0  0  0
    2.6511    0.2094   -3.3095 C   0  0  0  0  0  0  0  0  0  0  0  0
   -1.6800    1.2738   -2.0330 C   0  0  0  0  0  0  0  0  0  0  0  0
    1.0761    0.1184   -0.0713 C   0  0  1  0  0  0  0  0  0  0  0  0
    1.4581    0.3416   -1.5560 C   0  0  0  0  0  0  0  0  0  0  0  0
    1.5268    1.1396   -3.6117 C   0  0  0  0  0  0  0  0  0  0  0  0
    2.2110   -0.4847    0.6840 N   0  0  0  0  0  0  0  0  0  0  0  0
    2.5360   -0.2308   -2.0165 N   0  0  0  0  0  0  0  0  0  0  0  0
    0.7634    1.0846   -2.4654 N   0  0  0  0  0  0  0  0  0  0  0  0
   -0.7065    1.5041    0.8907 O   0  0  0  0  0  0  0  0  0  0  0  0
    7.6400   -3.8478   -2.8892 O   0  0  0  0  0  0  0  0  0  0  0  0
   -2.4438    1.5823   -1.1323 O   0  0  0  0  0  0  0  0  0  0  0  0
   -1.9308    0.1871   -2.7670 O   0  0  0  0  0  0  0  0  0  0  0  0
    1.3832    1.8293   -4.5912 O   0  0  0  0  0  0  0  0  0  0  0  0
    3.6512    0.3246   -5.1688 H   0  0  0  0  0  0  0  0  0  0  0  0
    1.0672    1.3364    1.7253 H   0  0  0  0  0  0  0  0  0  0  0  0
    0.2652   -0.6211   -0.0667 H   0  0  0  0  0  0  0  0  0  0  0  0
    1.6013    2.6469   -0.9031 H   0  0  0  0  0  0  0  0  0  0  0  0
    2.2030    2.9922    0.6381 H   0  0  0  0  0  0  0  0  0  0  0  0
    0.5455    3.5129    0.2035 H   0  0  0  0  0  0  0  0  0  0  0  0
    3.2706   -2.7015   -3.4457 H   0  0  0  0  0  0  0  0  0  0  0  0
    6.3206    0.2641   -4.1606 H   0  0  0  0  0  0  0  0  0  0  0  0
    4.9967   -4.3487   -2.8601 H   0  0  0  0  0  0  0  0  0  0  0  0
    8.0498   -1.4038   -3.5692 H   0  0  0  0  0  0  0  0  0  0  0  0
   -0.2734    2.7319   -1.5657 H   0  0  0  0  0  0  0  0  0  0  0  0
   -0.5304    2.5852   -3.2551 H   0  0  0  0  0  0  0  0  0  0  0  0
    2.5966   -1.2764    0.1683 H   0  0  0  0  0  0  0  0  0  0  0  0
    2.9728    0.1930    0.7410 H   0  0  0  0  0  0  0  0  0  0  0  0
   -1.2059    1.0947    0.1662 H   0  0  0  0  0  0  0  0  0  0  0  0
    7.2564   -4.7156   -2.6826 H   0  0  0  0  0  0  0  0  0  0  0  0
   -2.7602   -0.1570   -2.3680 H   0  0  0  0  0  0  0  0  0  0  0  0
  1 27  1  0  0  0  0
  1 28  1  0  0  0  0
  1 29  1  0  0  0  0
  2 30  1  0  0  0  0
  3 31  1  0  0  0  0
  4  2  1  0  0  0  0
  4 32  1  0  0  0  0
  5  3  2  0  0  0  0
  5 33  1  0  0  0  0
  7 34  1  0  0  0  0
  7 35  1  0  0  0  0
  8 19  1  0  0  0  0
  8 25  1  1  0  0  0
  8 13  1  0  0  0  0
  8  1  1  0  0  0  0
  9  2  2  0  0  0  0
  9  3  1  0  0  0  0
  9  6  1  0  0  0  0
 10  4  2  0  0  0  0
 10  5  1  0  0  0  0
 11  6  2  0  0  0  0
 12  7  1  0  0  0  0
 13 16  1  0  0  0  0
 13 26  1  1  0  0  0
 14 13  1  0  0  0  0
 15 11  1  0  0  0  0
 16 36  1  0  0  0  0
 16 37  1  0  0  0  0
 17 11  1  0  0  0  0
 17 14  2  0  0  0  0
 18  7  1  0  0  0  0
 18 14  1  0  0  0  0
 18 15  1  0  0  0  0
 19 38  1  0  0  0  0
 20 10  1  0  0  0  0
 20 39  1  0  0  0  0
 21 12  2  0  0  0  0
 22 12  1  0  0  0  0
 22 40  1  0  0  0  0
 23 15  2  0  0  0  0
 24  6  1  0  0  0  0
M  END
>  <DRUGBANK_ID>
DB04567

>  <SECONDARY_ACCESSION_NUMBERS>
EXPT01025

>  <COMMON_NAME>
Chromophore (Gly-Tyr-Gly)

$$$$
