
 OpenBabel10282417183D

 51 54  0  0  0  0  0  0  0  0999 V2000
    0.0480    0.7094   -0.8678 C   0  0  2  0  0  0  0  0  0  0  0  0
   -0.5989   -0.5064   -0.4161 N   0  0  0  0  0  0  0  0  0  0  0  0
   -0.0197   -1.7250   -0.2313 C   0  0  0  0  0  0  0  0  0  0  0  0
    1.3358   -1.7809   -0.1167 C   0  0  0  0  0  0  0  0  0  0  0  0
    2.2667   -0.5783   -0.3950 C   0  0  0  0  0  0  0  0  0  0  0  0
    1.5686    1.0901   -0.1200 S   0  0  0  0  0  0  0  0  0  0  0  0
   -1.1966    1.4613   -0.4635 C   0  0  1  0  0  0  0  0  0  0  0  0
   -1.7291    0.0835    0.0498 C   0  0  0  0  0  0  0  0  0  0  0  0
   -1.3835    2.6932    0.2915 N   0  0  0  0  0  0  0  0  0  0  0  0
   -2.1505    3.7870   -0.1530 C   0  0  0  0  0  0  0  0  0  0  0  0
   -2.1644    4.7632    0.5939 O   0  0  0  0  0  0  0  0  0  0  0  0
   -2.6639   -0.4143    0.6100 O   0  0  0  0  0  0  0  0  0  0  0  0
   -2.8925    3.8020   -1.5827 C   0  0  0  0  0  0  0  0  0  0  0  0
    2.1022   -3.0246    0.3413 C   0  0  0  0  0  0  0  0  0  0  0  0
   -2.9918    2.6346   -2.5053 C   0  0  0  0  0  0  0  0  0  0  0  0
    0.1797    0.7280   -1.9553 H   0  0  0  0  0  0  0  0  0  0  0  0
   -2.5386    2.6481   -3.8179 C   0  0  0  0  0  0  0  0  0  0  0  0
   -2.4686    1.0514   -4.4562 S   0  0  0  0  0  0  0  0  0  0  0  0
   -3.0203    0.4305   -2.9587 C   0  0  0  0  0  0  0  0  0  0  0  0
   -3.3667    1.3438   -2.0773 N   0  0  0  0  0  0  0  0  0  0  0  0
   -3.4299    4.8793   -2.0997 N   0  0  0  0  0  0  0  0  0  0  0  0
   -0.8748   -2.9951   -0.1702 C   0  0  0  0  0  0  0  0  0  0  0  0
   -2.2035   -2.8413   -0.3387 O   0  0  0  0  0  0  0  0  0  0  0  0
   -0.4110   -4.1252   -0.1482 O   0  0  0  0  0  0  0  0  0  0  0  0
    1.6393   -3.8253    1.9038 S   0  0  0  0  0  0  0  0  0  0  0  0
    1.7798   -2.8130    3.3337 C   0  0  0  0  0  0  0  0  0  0  0  0
    2.3958   -1.5289    3.2045 C   0  0  0  0  0  0  0  0  0  0  0  0
    1.9387   -0.4230    2.5429 C   0  0  0  0  0  0  0  0  0  0  0  0
    3.5113   -1.1707    3.9210 O   0  0  0  0  0  0  0  0  0  0  0  0
    3.8464    0.0882    3.5243 C   0  0  0  0  0  0  0  0  0  0  0  0
    2.9755    0.5315    2.5723 C   0  0  0  0  0  0  0  0  0  0  0  0
   -2.9498   -0.8801   -2.6661 N   0  0  0  0  0  0  0  0  0  0  0  0
    1.2836   -3.2072    4.3830 O   0  0  0  0  0  0  0  0  0  0  0  0
   -3.3822    5.9878   -1.2492 O   0  0  0  0  0  0  0  0  0  0  0  0
   -4.1097    7.0683   -1.8240 C   0  0  0  0  0  0  0  0  0  0  0  0
    2.6339   -0.5862   -1.4216 H   0  0  0  0  0  0  0  0  0  0  0  0
    3.1545   -0.6529    0.2379 H   0  0  0  0  0  0  0  0  0  0  0  0
   -1.4273    1.7497   -1.4527 H   0  0  0  0  0  0  0  0  0  0  0  0
   -1.0204    2.8268    1.2333 H   0  0  0  0  0  0  0  0  0  0  0  0
    1.9888   -3.7731   -0.4575 H   0  0  0  0  0  0  0  0  0  0  0  0
    3.1773   -2.8381    0.3811 H   0  0  0  0  0  0  0  0  0  0  0  0
   -2.1684    3.4828   -4.3958 H   0  0  0  0  0  0  0  0  0  0  0  0
   -2.5472   -1.9518   -0.1295 H   0  0  0  0  0  0  0  0  0  0  0  0
    1.0106   -0.4304    1.9969 H   0  0  0  0  0  0  0  0  0  0  0  0
    4.7211    0.5434    3.9606 H   0  0  0  0  0  0  0  0  0  0  0  0
    3.0917    1.4429    2.0000 H   0  0  0  0  0  0  0  0  0  0  0  0
   -2.9477   -1.5662   -3.4149 H   0  0  0  0  0  0  0  0  0  0  0  0
   -3.4529   -1.2027   -1.8458 H   0  0  0  0  0  0  0  0  0  0  0  0
   -3.6307    7.4014   -2.7495 H   0  0  0  0  0  0  0  0  0  0  0  0
   -5.1505    6.7869   -2.0168 H   0  0  0  0  0  0  0  0  0  0  0  0
   -4.1044    7.8987   -1.1119 H   0  0  0  0  0  0  0  0  0  0  0  0
  1  2  1  0  0  0  0
  1  6  1  0  0  0  0
  1  7  1  0  0  0  0
  1 16  1  6  0  0  0
  2  3  1  0  0  0  0
  2  8  1  0  0  0  0
  3  4  2  0  0  0  0
  3 22  1  0  0  0  0
  4  5  1  0  0  0  0
  4 14  1  0  0  0  0
  5  6  1  0  0  0  0
  5 36  1  0  0  0  0
  5 37  1  0  0  0  0
  7  8  1  0  0  0  0
  7  9  1  0  0  0  0
  7 38  1  6  0  0  0
  8 12  2  0  0  0  0
  9 10  1  0  0  0  0
  9 39  1  0  0  0  0
 10 11  2  0  0  0  0
 10 13  1  0  0  0  0
 13 15  1  0  0  0  0
 13 21  2  0  0  0  0
 14 25  1  0  0  0  0
 14 40  1  0  0  0  0
 14 41  1  0  0  0  0
 15 17  2  0  0  0  0
 15 20  1  0  0  0  0
 17 18  1  0  0  0  0
 17 42  1  0  0  0  0
 18 19  1  0  0  0  0
 19 20  2  0  0  0  0
 19 32  1  0  0  0  0
 21 34  1  0  0  0  0
 22 23  1  0  0  0  0
 22 24  2  0  0  0  0
 23 43  1  0  0  0  0
 25 26  1  0  0  0  0
 26 27  1  0  0  0  0
 26 33  2  0  0  0  0
 27 28  2  0  0  0  0
 27 29  1  0  0  0  0
 28 31  1  0  0  0  0
 28 44  1  0  0  0  0
 29 30  1  0  0  0  0
 30 31  2  0  0  0  0
 30 45  1  0  0  0  0
 31 46  1  0  0  0  0
 32 47  1  0  0  0  0
 32 48  1  0  0  0  0
 34 35  1  0  0  0  0
 35 49  1  0  0  0  0
 35 50  1  0  0  0  0
 35 51  1  0  0  0  0
M  END
>  <DRUGBANK_ID>
DB11485

>  <COMMON_NAME>
Ceftiofur

>  <CAS_NUMBER>
80370-57-6

>  <UNII>
83JL932I1C

>  <SYNONYMS>
Ceftiofur; Ceftiofur crystalline free acid

$$$$
