Structure #1
 OpenBabel10282417133D

 19 18  0  0  0  0  0  0  0  0999 V2000
    0.9607   -0.0219    0.1111 C   0  0  0  0  0  0  0  0  0  0  0  0
    0.9183    1.0139   -2.2374 C   0  0  0  0  0  0  0  0  0  0  0  0
   -1.1340    1.1535   -0.7629 C   0  0  0  0  0  0  0  0  0  0  0  0
    0.4233    1.1382   -0.7691 C   0  0  0  0  0  0  0  0  0  0  0  0
    0.9489    2.4046   -0.1951 N   0  0  0  0  0  0  0  0  0  0  0  0
    0.3939   -1.2871   -0.2072 O   0  0  0  0  0  0  0  0  0  0  0  0
    0.3752   -0.0970   -2.9371 O   0  0  0  0  0  0  0  0  0  0  0  0
   -1.6860    1.3306    0.5431 O   0  0  0  0  0  0  0  0  0  0  0  0
    0.7246    0.1615    1.1659 H   0  0  0  0  0  0  0  0  0  0  0  0
    2.0525   -0.0997    0.0464 H   0  0  0  0  0  0  0  0  0  0  0  0
    0.6241    1.9059   -2.8036 H   0  0  0  0  0  0  0  0  0  0  0  0
    2.0123    0.9543   -2.2837 H   0  0  0  0  0  0  0  0  0  0  0  0
   -1.5086    1.9780   -1.3802 H   0  0  0  0  0  0  0  0  0  0  0  0
   -1.5476    0.2268   -1.1753 H   0  0  0  0  0  0  0  0  0  0  0  0
    1.9614    2.4580   -0.2817 H   0  0  0  0  0  0  0  0  0  0  0  0
    0.5592    3.1996   -0.7026 H   0  0  0  0  0  0  0  0  0  0  0  0
    0.9143   -1.6852   -0.9227 H   0  0  0  0  0  0  0  0  0  0  0  0
    0.9209   -0.8776   -2.7524 H   0  0  0  0  0  0  0  0  0  0  0  0
   -1.3875    0.5770    1.0807 H   0  0  0  0  0  0  0  0  0  0  0  0
  1  4  1  0  0  0  0
  1  6  1  0  0  0  0
  1  9  1  0  0  0  0
  1 10  1  0  0  0  0
  2  4  1  0  0  0  0
  2  7  1  0  0  0  0
  2 11  1  0  0  0  0
  2 12  1  0  0  0  0
  3  4  1  0  0  0  0
  3  8  1  0  0  0  0
  3 13  1  0  0  0  0
  3 14  1  0  0  0  0
  4  5  1  0  0  0  0
  5 15  1  0  0  0  0
  5 16  1  0  0  0  0
  6 17  1  0  0  0  0
  7 18  1  0  0  0  0
  8 19  1  0  0  0  0
M  END
>  <DRUGBANK_ID>
DB03754

>  <SECONDARY_ACCESSION_NUMBERS>
EXPT03072

>  <COMMON_NAME>
Tromethamine

>  <CAS_NUMBER>
77-86-1

>  <UNII>
023C2WHX2V

>  <SYNONYMS>
1,1,1-tris(hydroxymethyl)methanamine; 2-Amino-2-(hydroxymethyl)-1,3-propanediol; aminotris(hydroxymethyl)methane; THAM; Tris; Tris(hydroxymethyl)aminomethane; Trometamol; Tromethamine

$$$$
