
 OpenBabel10282417203D

 58 60  0  0  1  0  0  0  0  0999 V2000
    1.1366    1.7856    3.7641 C   0  0  0  0  0  0  0  0  0  0  0  0
    0.9954    0.2276    3.7045 C   0  0  2  0  0  0  0  0  0  0  0  0
   -0.5173   -0.0869    3.8684 C   0  0  0  0  0  0  0  0  0  0  0  0
   -0.9773    0.2700    5.2538 C   0  0  0  0  0  0  0  0  0  0  0  0
   -0.1526   -0.4383    6.3249 C   0  0  1  0  0  0  0  0  0  0  0  0
    1.3288    0.0176    6.3453 C   0  0  0  0  0  0  0  0  0  0  0  0
    2.0208   -0.1525    5.0041 C   0  0  2  0  0  0  0  0  0  0  0  0
    3.7683    0.3629    4.8010 C   0  0  0  0  0  0  0  0  0  0  0  0
    4.8563    0.3415    3.4960 O   0  0  0  0  0  0  0  0  0  0  0  0
   -0.6716   -0.0658    7.5932 O   0  0  0  0  0  0  0  0  0  0  0  0
    1.3994   -0.3408    2.2133 C   0  0  1  0  0  0  0  0  0  0  0  0
    2.8761   -0.1860    2.2941 C   0  0  0  0  0  0  0  0  0  0  0  0
    3.4729   -1.4080    3.2451 C   0  0  0  0  0  0  0  0  0  0  0  0
    3.2396   -2.7516    3.2969 C   0  0  1  0  0  0  0  0  0  0  0  0
    1.5797   -2.9019    2.7134 C   0  0  2  0  0  0  0  0  0  0  0  0
    1.0355   -1.8236    1.8195 C   0  0  2  0  0  0  0  0  0  0  0  0
    0.9270   -2.5624    0.4275 C   0  0  0  0  0  0  0  0  0  0  0  0
   -0.3886   -2.2644   -0.0991 N   0  0  0  0  0  0  0  0  0  0  0  0
    0.8710   -3.0803    3.9327 C   0  0  0  0  0  0  0  0  0  0  0  0
    2.0693   -3.9959    4.0398 C   0  0  0  0  0  0  0  0  0  0  0  0
    3.3010   -3.8823    2.4610 C   0  0  0  0  0  0  0  0  0  0  0  0
    3.6456   -3.0669    1.3161 C   0  0  0  0  0  0  0  0  0  0  0  0
    4.3164   -3.5666    4.3738 C   0  0  0  0  0  0  0  0  0  0  0  0
    1.3537    2.0913    4.7933 H   0  0  0  0  0  0  0  0  0  0  0  0
    0.2417    2.2934    3.4184 H   0  0  0  0  0  0  0  0  0  0  0  0
    1.9613    2.2152    3.1985 H   0  0  0  0  0  0  0  0  0  0  0  0
   -1.0866    0.4572    3.0971 H   0  0  0  0  0  0  0  0  0  0  0  0
   -0.8041   -1.1259    3.6762 H   0  0  0  0  0  0  0  0  0  0  0  0
   -0.8784    1.3489    5.3866 H   0  0  0  0  0  0  0  0  0  0  0  0
   -2.0436    0.0420    5.3537 H   0  0  0  0  0  0  0  0  0  0  0  0
   -0.2739   -1.5307    6.2163 H   0  0  0  0  0  0  0  0  0  0  0  0
    1.4234    1.0551    6.6263 H   0  0  0  0  0  0  0  0  0  0  0  0
    1.8347   -0.5958    7.1170 H   0  0  0  0  0  0  0  0  0  0  0  0
    2.0777   -1.2303    5.2744 H   0  0  0  0  0  0  0  0  0  0  0  0
    3.7633    1.4268    4.8889 H   0  0  0  0  0  0  0  0  0  0  0  0
    4.3046   -0.2445    5.5429 H   0  0  0  0  0  0  0  0  0  0  0  0
    4.8222   -0.3314    2.7315 H   0  0  0  0  0  0  0  0  0  0  0  0
   -0.3914    0.8586    7.7158 H   0  0  0  0  0  0  0  0  0  0  0  0
    0.9035    0.3090    1.4770 H   0  0  0  0  0  0  0  0  0  0  0  0
    3.3634    0.0080    1.3469 H   0  0  0  0  0  0  0  0  0  0  0  0
    3.0173    0.8136    2.7396 H   0  0  0  0  0  0  0  0  0  0  0  0
    4.3368   -1.4180    3.9656 H   0  0  0  0  0  0  0  0  0  0  0  0
    2.6470   -1.3904    3.8435 H   0  0  0  0  0  0  0  0  0  0  0  0
    1.3268   -3.8874    2.2274 H   0  0  0  0  0  0  0  0  0  0  0  0
   -0.0062   -1.7513    2.0448 H   0  0  0  0  0  0  0  0  0  0  0  0
    1.7132   -2.4501   -0.3240 H   0  0  0  0  0  0  0  0  0  0  0  0
    0.9079   -3.6665    0.5707 H   0  0  0  0  0  0  0  0  0  0  0  0
   -0.5815   -2.9160   -0.8534 H   0  0  0  0  0  0  0  0  0  0  0  0
   -1.0539   -2.5060    0.6414 H   0  0  0  0  0  0  0  0  0  0  0  0
   -0.1519   -3.4161    3.9299 H   0  0  0  0  0  0  0  0  0  0  0  0
    0.8352   -2.0647    4.2896 H   0  0  0  0  0  0  0  0  0  0  0  0
    2.2524   -4.7830    4.7714 H   0  0  0  0  0  0  0  0  0  0  0  0
    2.2951   -3.3067    4.9612 H   0  0  0  0  0  0  0  0  0  0  0  0
    4.4255   -3.0662    0.5411 H   0  0  0  0  0  0  0  0  0  0  0  0
    3.2338   -2.0578    1.0293 H   0  0  0  0  0  0  0  0  0  0  0  0
    4.1032   -3.3516    5.4321 H   0  0  0  0  0  0  0  0  0  0  0  0
    4.2684   -4.6724    4.2565 H   0  0  0  0  0  0  0  0  0  0  0  0
    5.3660   -3.3229    4.1880 H   0  0  0  0  0  0  0  0  0  0  0  0
  1 24  1  0  0  0  0
  1 25  1  0  0  0  0
  1 26  1  0  0  0  0
  2  1  1  6  0  0  0
  2  3  1  0  0  0  0
  2  7  1  0  0  0  0
  3  4  1  0  0  0  0
  3 27  1  0  0  0  0
  3 28  1  0  0  0  0
  4  5  1  0  0  0  0
  4 29  1  0  0  0  0
  4 30  1  0  0  0  0
  5  6  1  0  0  0  0
  5 10  1  0  0  0  0
  5 31  1  6  0  0  0
  6  7  1  0  0  0  0
  6 32  1  0  0  0  0
  6 33  1  0  0  0  0
  7 34  1  6  0  0  0
  7  8  1  0  0  0  0
  8  9  1  0  0  0  0
  8 35  1  0  0  0  0
  8 36  1  0  0  0  0
  9 37  1  0  0  0  0
 10 38  1  0  0  0  0
 11 12  1  0  0  0  0
 11 16  1  0  0  0  0
 11 39  1  6  0  0  0
 11  2  1  0  0  0  0
 12 13  1  0  0  0  0
 12 40  1  0  0  0  0
 12 41  1  0  0  0  0
 13 14  1  0  0  0  0
 13 42  1  0  0  0  0
 13 43  1  0  0  0  0
 14 15  1  0  0  0  0
 14 21  1  0  0  0  0
 14 23  1  1  0  0  0
 15 16  1  0  0  0  0
 15 19  1  0  0  0  0
 15 44  1  6  0  0  0
 16 17  1  0  0  0  0
 16 45  1  1  0  0  0
 17 18  1  0  0  0  0
 17 46  1  0  0  0  0
 17 47  1  0  0  0  0
 18 48  1  0  0  0  0
 18 49  1  0  0  0  0
 19 20  1  0  0  0  0
 19 50  1  0  0  0  0
 19 51  1  0  0  0  0
 20 21  1  0  0  0  0
 20 52  1  0  0  0  0
 20 53  1  0  0  0  0
 21 22  2  0  0  0  0
 22 54  1  0  0  0  0
 22 55  1  0  0  0  0
 23 56  1  0  0  0  0
 23 57  1  0  0  0  0
 23 58  1  0  0  0  0
M  END
>  <DRUGBANK_ID>
DB13012

>  <COMMON_NAME>
AQX-1125

>  <CAS_NUMBER>
782487-28-9

>  <UNII>
6R5034F862

$$$$
