
 OpenBabel10282417193D

 53 57  0  0  1  0  0  0  0  0999 V2000
    0.8726   -0.3718    0.4783 C   0  0  0  0  0  0  0  0  0  0  0  0
    0.5367    0.9214    1.0904 C   0  0  0  0  0  0  0  0  0  0  0  0
    1.0434    2.1139    0.6938 C   0  0  0  0  0  0  0  0  0  0  0  0
    0.7400    3.3453    1.6064 C   0  0  2  0  0  0  0  0  0  0  0  0
   -0.3701    3.0580    2.5736 N   0  0  0  0  0  0  0  0  0  0  0  0
   -0.8976    1.8088    2.7624 C   0  0  0  0  0  0  0  0  0  0  0  0
   -1.9292    1.9073    3.6489 C   0  0  0  0  0  0  0  0  0  0  0  0
   -1.9285    3.2685    3.9986 C   0  0  0  0  0  0  0  0  0  0  0  0
   -0.9710    3.9766    3.3768 N   0  0  0  0  0  0  0  0  0  0  0  0
   -0.3812    0.7761    2.1015 N   0  0  0  0  0  0  0  0  0  0  0  0
    0.4338    4.6130    0.8289 C   0  0  0  0  0  0  0  0  0  0  0  0
   -0.6771    4.6538   -0.0218 C   0  0  0  0  0  0  0  0  0  0  0  0
   -0.9533    5.7976   -0.7624 C   0  0  0  0  0  0  0  0  0  0  0  0
   -0.1181    6.9142   -0.6714 C   0  0  0  0  0  0  0  0  0  0  0  0
    1.0075    6.8821    0.1588 C   0  0  0  0  0  0  0  0  0  0  0  0
    1.2770    5.7377    0.9157 C   0  0  0  0  0  0  0  0  0  0  0  0
    2.1092    8.2096    0.2733 Cl  0  0  0  0  0  0  0  0  0  0  0  0
   -0.5413    8.2997   -1.6119 Cl  0  0  0  0  0  0  0  0  0  0  0  0
    2.0138    2.2900   -0.4847 C   0  0  0  0  0  0  0  0  0  0  0  0
    2.7520    3.2648   -0.4937 O   0  0  0  0  0  0  0  0  0  0  0  0
    2.1295    1.2911   -1.4596 N   0  0  0  0  0  0  0  0  0  0  0  0
    1.0876    0.6537   -2.2565 C   0  0  0  0  0  0  0  0  0  0  0  0
    1.5608   -0.8058   -2.3799 C   0  0  0  0  0  0  0  0  0  0  0  0
    3.0726   -0.6712   -2.4950 C   0  0  0  0  0  0  0  0  0  0  0  0
    3.4211    0.6632   -1.7767 C   0  0  1  0  0  0  0  0  0  0  0  0
    4.2961    1.5002   -2.6736 C   0  0  0  0  0  0  0  0  0  0  0  0
    3.8202    1.9577   -3.9150 C   0  0  0  0  0  0  0  0  0  0  0  0
    4.6188    2.7343   -4.7405 C   0  0  0  0  0  0  0  0  0  0  0  0
    5.9016    3.0541   -4.3267 C   0  0  0  0  0  0  0  0  0  0  0  0
    6.4057    2.5937   -3.1144 C   0  0  0  0  0  0  0  0  0  0  0  0
    5.6070    1.8066   -2.2880 C   0  0  0  0  0  0  0  0  0  0  0  0
    6.6676    3.8194   -5.1129 F   0  0  0  0  0  0  0  0  0  0  0  0
    0.2138   -0.4248   -0.3812 H   0  0  0  0  0  0  0  0  0  0  0  0
    0.6091   -1.2622    1.0446 H   0  0  0  0  0  0  0  0  0  0  0  0
    1.9459   -0.4276    0.2895 H   0  0  0  0  0  0  0  0  0  0  0  0
    1.6069    3.5093    2.2651 H   0  0  0  0  0  0  0  0  0  0  0  0
   -2.5769    1.1112    3.9880 H   0  0  0  0  0  0  0  0  0  0  0  0
   -2.5971    3.7610    4.6930 H   0  0  0  0  0  0  0  0  0  0  0  0
   -0.7581   -0.1604    2.2337 H   0  0  0  0  0  0  0  0  0  0  0  0
   -1.3295    3.7872   -0.1059 H   0  0  0  0  0  0  0  0  0  0  0  0
   -1.8230    5.8062   -1.4124 H   0  0  0  0  0  0  0  0  0  0  0  0
    2.1603    5.7145    1.5534 H   0  0  0  0  0  0  0  0  0  0  0  0
    1.1047    1.1005   -3.2552 H   0  0  0  0  0  0  0  0  0  0  0  0
    0.0824    0.8451   -1.8780 H   0  0  0  0  0  0  0  0  0  0  0  0
    1.3878   -1.4405   -1.5082 H   0  0  0  0  0  0  0  0  0  0  0  0
    1.0874   -1.3473   -3.2004 H   0  0  0  0  0  0  0  0  0  0  0  0
    3.5929   -1.5199   -2.0318 H   0  0  0  0  0  0  0  0  0  0  0  0
    3.3391   -0.6842   -3.5563 H   0  0  0  0  0  0  0  0  0  0  0  0
    3.9303    0.4591   -0.8249 H   0  0  0  0  0  0  0  0  0  0  0  0
    2.8187    1.7148   -4.2518 H   0  0  0  0  0  0  0  0  0  0  0  0
    4.2376    3.0946   -5.6889 H   0  0  0  0  0  0  0  0  0  0  0  0
    7.4123    2.8618   -2.8146 H   0  0  0  0  0  0  0  0  0  0  0  0
    6.0051    1.4490   -1.3407 H   0  0  0  0  0  0  0  0  0  0  0  0
  1  2  1  0  0  0  0
  1 33  1  0  0  0  0
  1 34  1  0  0  0  0
  1 35  1  0  0  0  0
  2  3  2  0  0  0  0
  2 10  1  0  0  0  0
  3  4  1  0  0  0  0
  3 19  1  0  0  0  0
  4  5  1  0  0  0  0
  4 36  1  1  0  0  0
  4 11  1  0  0  0  0
  5  6  1  0  0  0  0
  5  9  1  0  0  0  0
  6  7  2  0  0  0  0
  6 10  1  0  0  0  0
  7  8  1  0  0  0  0
  7 37  1  0  0  0  0
  8  9  2  0  0  0  0
  8 38  1  0  0  0  0
 10 39  1  0  0  0  0
 11 12  2  0  0  0  0
 11 16  1  0  0  0  0
 12 13  1  0  0  0  0
 12 40  1  0  0  0  0
 13 14  2  0  0  0  0
 13 41  1  0  0  0  0
 14 15  1  0  0  0  0
 14 18  1  0  0  0  0
 15 16  2  0  0  0  0
 15 17  1  0  0  0  0
 16 42  1  0  0  0  0
 19 20  2  0  0  0  0
 19 21  1  0  0  0  0
 21 22  1  0  0  0  0
 21 25  1  0  0  0  0
 22 23  1  0  0  0  0
 22 43  1  0  0  0  0
 22 44  1  0  0  0  0
 23 24  1  0  0  0  0
 23 45  1  0  0  0  0
 23 46  1  0  0  0  0
 24 25  1  0  0  0  0
 24 47  1  0  0  0  0
 24 48  1  0  0  0  0
 25 49  1  1  0  0  0
 25 26  1  0  0  0  0
 26 27  2  0  0  0  0
 26 31  1  0  0  0  0
 27 28  1  0  0  0  0
 27 50  1  0  0  0  0
 28 29  2  0  0  0  0
 28 51  1  0  0  0  0
 29 30  1  0  0  0  0
 29 32  1  0  0  0  0
 30 31  2  0  0  0  0
 30 52  1  0  0  0  0
 31 53  1  0  0  0  0
M  END
>  <DRUGBANK_ID>
DB12067

>  <COMMON_NAME>
BMS-394136

>  <CAS_NUMBER>
343246-73-1

>  <UNII>
M694U7167K

$$$$
