
 OpenBabel10282417113D

 67 68  0  0  0  0  0  0  0  0999 V2000
    5.6218    7.9913    1.2105 C   0  0  1  0  0  0  0  0  0  0  0  0
    4.7658    9.2333    1.3796 C   0  0  0  0  0  0  0  0  0  0  0  0
    3.3108    8.8011    1.1499 C   0  0  2  0  0  0  0  0  0  0  0  0
    3.3229    7.2851    0.9367 C   0  0  1  0  0  0  0  0  0  0  0  0
    4.6754    6.8227    1.4934 C   0  0  1  0  0  0  0  0  0  0  0  0
    6.2104    7.9811   -0.0918 O   0  0  0  0  0  0  0  0  0  0  0  0
    2.7858    9.4441   -0.0138 O   0  0  0  0  0  0  0  0  0  0  0  0
    5.1878    5.5458    0.8582 C   0  0  0  0  0  0  0  0  0  0  0  0
    2.0892    6.5472    1.4812 C   0  0  0  0  0  0  0  0  0  0  0  0
    6.3876    5.0215    1.5586 C   0  0  0  0  0  0  0  0  0  0  0  0
    6.4044    3.8455    2.1829 C   0  0  0  0  0  0  0  0  0  0  0  0
    5.2397    2.8978    2.2132 C   0  0  0  0  0  0  0  0  0  0  0  0
    5.6256    1.5346    1.6524 C   0  0  0  0  0  0  0  0  0  0  0  0
    6.7315    0.8549    2.4547 C   0  0  0  0  0  0  0  0  0  0  0  0
    6.3507    0.7298    3.9149 C   0  0  0  0  0  0  0  0  0  0  0  0
    6.2298   -0.5406    4.3974 N   0  0  0  0  0  0  0  0  0  0  0  0
    5.8221   -0.7678    5.7693 C   0  0  0  0  0  0  0  0  0  0  0  0
    4.6047   -1.6646    5.8251 C   0  0  0  0  0  0  0  0  0  0  0  0
    1.2431    5.9478    0.6459 C   0  0  0  0  0  0  0  0  0  0  0  0
    0.0360    5.0713    0.7347 C   0  0  2  0  0  0  0  0  0  0  0  0
    0.1099    3.8119   -0.1824 C   0  0  0  0  0  0  0  0  0  0  0  0
    0.3970    3.9883   -1.7140 C   0  0  0  0  0  0  0  0  0  0  0  0
    1.7739    4.4904   -2.1197 C   0  0  0  0  0  0  0  0  0  0  0  0
    1.9772    5.8549   -2.4130 C   0  0  0  0  0  0  0  0  0  0  0  0
    3.2617    6.3981   -2.3995 C   0  0  0  0  0  0  0  0  0  0  0  0
    4.3574    5.5658   -2.2188 C   0  0  0  0  0  0  0  0  0  0  0  0
    4.1735    4.1952   -2.0285 C   0  0  0  0  0  0  0  0  0  0  0  0
    2.8890    3.6514   -2.0219 C   0  0  0  0  0  0  0  0  0  0  0  0
    6.1468    1.7186    4.6344 O   0  0  0  0  0  0  0  0  0  0  0  0
   -1.1060    5.8414    0.3648 O   0  0  0  0  0  0  0  0  0  0  0  0
    6.4559    7.9812    1.9171 H   0  0  0  0  0  0  0  0  0  0  0  0
    4.8649    9.5886    2.4084 H   0  0  0  0  0  0  0  0  0  0  0  0
    5.0878   10.0281    0.7001 H   0  0  0  0  0  0  0  0  0  0  0  0
    2.6751    9.0789    1.9955 H   0  0  0  0  0  0  0  0  0  0  0  0
    3.3623    7.1353   -0.1366 H   0  0  0  0  0  0  0  0  0  0  0  0
    4.5618    6.6831    2.5759 H   0  0  0  0  0  0  0  0  0  0  0  0
    5.5219    7.9302   -0.7735 H   0  0  0  0  0  0  0  0  0  0  0  0
    3.5265    9.7015   -0.5880 H   0  0  0  0  0  0  0  0  0  0  0  0
    4.3615    4.8435    0.7734 H   0  0  0  0  0  0  0  0  0  0  0  0
    5.5470    5.6998   -0.1485 H   0  0  0  0  0  0  0  0  0  0  0  0
    1.9093    6.5286    2.5517 H   0  0  0  0  0  0  0  0  0  0  0  0
    7.2894    5.6316    1.5261 H   0  0  0  0  0  0  0  0  0  0  0  0
    7.3213    3.5697    2.6996 H   0  0  0  0  0  0  0  0  0  0  0  0
    4.8441    2.8542    3.2284 H   0  0  0  0  0  0  0  0  0  0  0  0
    4.3790    3.2239    1.6317 H   0  0  0  0  0  0  0  0  0  0  0  0
    4.7292    0.9039    1.6316 H   0  0  0  0  0  0  0  0  0  0  0  0
    5.9456    1.6529    0.6065 H   0  0  0  0  0  0  0  0  0  0  0  0
    6.9526   -0.1204    2.0115 H   0  0  0  0  0  0  0  0  0  0  0  0
    7.6619    1.4309    2.4030 H   0  0  0  0  0  0  0  0  0  0  0  0
    6.5356   -1.3233    3.8324 H   0  0  0  0  0  0  0  0  0  0  0  0
    6.6668   -1.2168    6.2989 H   0  0  0  0  0  0  0  0  0  0  0  0
    5.5868    0.1803    6.2664 H   0  0  0  0  0  0  0  0  0  0  0  0
    4.8270   -2.6456    5.3952 H   0  0  0  0  0  0  0  0  0  0  0  0
    4.2824   -1.8018    6.8611 H   0  0  0  0  0  0  0  0  0  0  0  0
    3.7732   -1.2288    5.2603 H   0  0  0  0  0  0  0  0  0  0  0  0
    1.4813    6.1354   -0.3681 H   0  0  0  0  0  0  0  0  0  0  0  0
   -0.1133    4.7594    1.7734 H   0  0  0  0  0  0  0  0  0  0  0  0
    0.8278    3.1022    0.2462 H   0  0  0  0  0  0  0  0  0  0  0  0
   -0.8777    3.3276   -0.1240 H   0  0  0  0  0  0  0  0  0  0  0  0
    0.2655    3.0070   -2.1902 H   0  0  0  0  0  0  0  0  0  0  0  0
   -0.3669    4.6356   -2.1579 H   0  0  0  0  0  0  0  0  0  0  0  0
    1.1372    6.5525   -2.4000 H   0  0  0  0  0  0  0  0  0  0  0  0
    3.3845    7.4800   -2.3412 H   0  0  0  0  0  0  0  0  0  0  0  0
    5.3503    5.9988   -2.1146 H   0  0  0  0  0  0  0  0  0  0  0  0
    5.0280    3.5676   -1.7810 H   0  0  0  0  0  0  0  0  0  0  0  0
    2.7668    2.5818   -1.8760 H   0  0  0  0  0  0  0  0  0  0  0  0
   -1.0463    6.0426   -0.5827 H   0  0  0  0  0  0  0  0  0  0  0  0
  1  2  1  0  0  0  0
  1  5  1  0  0  0  0
  1  6  1  0  0  0  0
  1 31  1  1  0  0  0
  2  3  1  0  0  0  0
  2 32  1  0  0  0  0
  2 33  1  0  0  0  0
  3  4  1  0  0  0  0
  3 34  1  1  0  0  0
  3  7  1  0  0  0  0
  4  5  1  0  0  0  0
  4  9  1  0  0  0  0
  4 35  1  6  0  0  0
  5  8  1  0  0  0  0
  5 36  1  1  0  0  0
  6 37  1  0  0  0  0
  7 38  1  0  0  0  0
  8 10  1  0  0  0  0
  8 39  1  0  0  0  0
  8 40  1  0  0  0  0
  9 19  2  0  0  0  0
  9 41  1  0  0  0  0
 10 11  2  0  0  0  0
 10 42  1  0  0  0  0
 11 12  1  0  0  0  0
 11 43  1  0  0  0  0
 12 13  1  0  0  0  0
 12 44  1  0  0  0  0
 12 45  1  0  0  0  0
 13 14  1  0  0  0  0
 13 46  1  0  0  0  0
 13 47  1  0  0  0  0
 14 15  1  0  0  0  0
 14 48  1  0  0  0  0
 14 49  1  0  0  0  0
 15 16  1  0  0  0  0
 15 29  2  0  0  0  0
 16 17  1  0  0  0  0
 16 50  1  0  0  0  0
 17 18  1  0  0  0  0
 17 51  1  0  0  0  0
 17 52  1  0  0  0  0
 18 53  1  0  0  0  0
 18 54  1  0  0  0  0
 18 55  1  0  0  0  0
 19 56  1  0  0  0  0
 20 30  1  0  0  0  0
 20 57  1  1  0  0  0
 20 21  1  0  0  0  0
 20 19  1  0  0  0  0
 21 22  1  0  0  0  0
 21 58  1  0  0  0  0
 21 59  1  0  0  0  0
 22 23  1  0  0  0  0
 22 60  1  0  0  0  0
 22 61  1  0  0  0  0
 23 24  2  0  0  0  0
 23 28  1  0  0  0  0
 24 25  1  0  0  0  0
 24 62  1  0  0  0  0
 25 26  2  0  0  0  0
 25 63  1  0  0  0  0
 26 27  1  0  0  0  0
 26 64  1  0  0  0  0
 27 28  2  0  0  0  0
 27 65  1  0  0  0  0
 28 66  1  0  0  0  0
 30 67  1  0  0  0  0
M  END
>  <DRUGBANK_ID>
DB00905

>  <SECONDARY_ACCESSION_NUMBERS>
APRD00826; DB06863

>  <COMMON_NAME>
Bimatoprost

>  <CAS_NUMBER>
155206-00-1

>  <UNII>
QXS94885MZ

>  <SYNONYMS>
(Z)-7-((1R,2R,3R,5S)-3,5-Dihydroxy-2-((1E,3S)-3-hydroxy-5-phenyl-1-pentenyl)cyclopentyl)-N-ethyl-5-heptenamide; Bimatoprost; Bimatoprostum

$$$$
