
 OpenBabel10282417103D

 44 46  0  0  1  0  0  0  0  0999 V2000
    1.2101    0.0296    0.0707 O   0  0  0  0  0  0  0  0  0  0  0  0
    2.5781    0.0132   -0.0977 C   0  0  0  0  0  0  0  0  0  0  0  0
    3.6148    0.5242    0.9651 C   0  0  3  0  0  0  0  0  0  0  0  0
    3.0113   -0.4373   -1.1820 O   0  0  0  0  0  0  0  0  0  0  0  0
    4.7117    1.5649    0.5538 C   0  0  0  0  0  0  0  0  0  0  0  0
    4.3938    2.8200   -0.0188 O   0  0  0  0  0  0  0  0  0  0  0  0
    4.2521   -0.6342    1.7111 C   0  0  0  0  0  0  0  0  0  0  0  0
    5.2139   -0.3579    2.6979 C   0  0  0  0  0  0  0  0  0  0  0  0
    3.8600   -1.9576    1.4897 C   0  0  0  0  0  0  0  0  0  0  0  0
    4.4541   -2.9821    2.2080 C   0  0  0  0  0  0  0  0  0  0  0  0
    5.4815   -2.6981    3.1044 C   0  0  0  0  0  0  0  0  0  0  0  0
    5.8552   -1.3853    3.3610 C   0  0  0  0  0  0  0  0  0  0  0  0
   -0.4198    2.9270    0.3519 C   0  0  2  0  0  0  0  0  0  0  0  0
   -0.8615    1.4776    0.6536 C   0  0  0  0  0  0  0  0  0  0  0  0
    0.5886    2.8751   -0.7671 C   0  0  0  0  0  0  0  0  0  0  0  0
    1.8516    2.8250    0.0438 C   0  0  0  0  0  0  0  0  0  0  0  0
    1.5339    2.6373    1.5549 C   0  0  2  0  0  0  0  0  0  0  0  0
    1.0623    1.2518    2.1633 C   0  0  0  0  0  0  0  0  0  0  0  0
    0.2832    0.5273    1.1249 C   0  0  2  0  0  0  0  0  0  0  0  0
    0.3821    3.5161    1.4402 N   0  0  0  0  0  0  0  0  0  0  0  0
   -0.2548    3.8156    2.6927 C   0  0  0  0  0  0  0  0  0  0  0  0
    3.1753    1.0727    1.7669 H   0  0  0  0  0  0  0  0  0  0  0  0
    5.1578    1.9200    1.4889 H   0  0  0  0  0  0  0  0  0  0  0  0
    5.4763    1.1090   -0.0607 H   0  0  0  0  0  0  0  0  0  0  0  0
    4.1052    2.6841   -0.9375 H   0  0  0  0  0  0  0  0  0  0  0  0
    5.4889    0.6606    2.9629 H   0  0  0  0  0  0  0  0  0  0  0  0
    3.1009   -2.2243    0.7565 H   0  0  0  0  0  0  0  0  0  0  0  0
    4.1177   -4.0015    2.0506 H   0  0  0  0  0  0  0  0  0  0  0  0
    5.9933   -3.5077    3.6090 H   0  0  0  0  0  0  0  0  0  0  0  0
    6.6371   -1.1473    4.0745 H   0  0  0  0  0  0  0  0  0  0  0  0
   -1.2469    3.5767    0.0618 H   0  0  0  0  0  0  0  0  0  0  0  0
   -1.5968    1.5494    1.4648 H   0  0  0  0  0  0  0  0  0  0  0  0
   -1.3647    1.0618   -0.2234 H   0  0  0  0  0  0  0  0  0  0  0  0
    0.4978    1.9976   -1.4238 H   0  0  0  0  0  0  0  0  0  0  0  0
    0.6267    3.7545   -1.4174 H   0  0  0  0  0  0  0  0  0  0  0  0
    2.3635    3.7835   -0.1062 H   0  0  0  0  0  0  0  0  0  0  0  0
    2.4236    2.0689   -0.4459 H   0  0  0  0  0  0  0  0  0  0  0  0
    2.3478    3.0462    2.1673 H   0  0  0  0  0  0  0  0  0  0  0  0
    0.5256    1.3927    3.1044 H   0  0  0  0  0  0  0  0  0  0  0  0
    1.7817    0.5091    2.5165 H   0  0  0  0  0  0  0  0  0  0  0  0
   -0.1931   -0.3687    1.5427 H   0  0  0  0  0  0  0  0  0  0  0  0
   -0.6872    2.9429    3.1810 H   0  0  0  0  0  0  0  0  0  0  0  0
    0.4796    4.2584    3.3783 H   0  0  0  0  0  0  0  0  0  0  0  0
   -1.0437    4.5467    2.5302 H   0  0  0  0  0  0  0  0  0  0  0  0
  2  1  1  0  0  0  0
  2  4  2  0  0  0  0
  3  2  1  0  0  0  0
  3  7  1  0  0  0  0
  3  5  1  0  0  0  0
  3 22  1  0  0  0  0
  5 23  1  0  0  0  0
  5 24  1  0  0  0  0
  6  5  1  0  0  0  0
  6 25  1  0  0  0  0
  7  9  1  0  0  0  0
  8  7  2  0  0  0  0
  8 12  1  0  0  0  0
  8 26  1  0  0  0  0
  9 10  2  0  0  0  0
  9 27  1  0  0  0  0
 10 11  1  0  0  0  0
 10 28  1  0  0  0  0
 11 12  2  0  0  0  0
 11 29  1  0  0  0  0
 12 30  1  0  0  0  0
 13 20  1  0  0  0  0
 13 31  1  6  0  0  0
 14 13  1  0  0  0  0
 14 32  1  0  0  0  0
 14 33  1  0  0  0  0
 15 13  1  0  0  0  0
 15 34  1  0  0  0  0
 15 35  1  0  0  0  0
 16 15  1  0  0  0  0
 16 36  1  0  0  0  0
 16 37  1  0  0  0  0
 17 16  1  0  0  0  0
 17 20  1  0  0  0  0
 17 38  1  1  0  0  0
 18 17  1  0  0  0  0
 18 19  1  0  0  0  0
 18 39  1  0  0  0  0
 18 40  1  0  0  0  0
 19  1  1  0  0  0  0
 19 14  1  0  0  0  0
 19 41  1  1  0  0  0
 20 21  1  0  0  0  0
 21 42  1  0  0  0  0
 21 43  1  0  0  0  0
 21 44  1  0  0  0  0
M  END
>  <DRUGBANK_ID>
DB00572

>  <SECONDARY_ACCESSION_NUMBERS>
APRD00807; EXPT02427

>  <COMMON_NAME>
Atropine

>  <CAS_NUMBER>
51-55-8

>  <UNII>
7C0697DR9I

>  <SYNONYMS>
(±)-atropine; (±)-hyoscyamine; Atropin; Atropina; Atropine; Atropinum; dl-Hyoscyamine; dl-tropyltropate; Tropine tropate

$$$$
