
 OpenBabel10282417183D

 47 50  0  0  1  0  0  0  0  0999 V2000
   -1.4269    0.3300   -0.2385 C   0  0  0  0  0  0  0  0  0  0  0  0
   -1.0077   -1.0678    0.2095 C   0  0  0  0  0  0  0  0  0  0  0  0
   -0.4432    1.4117    0.2058 C   0  0  0  0  0  0  0  0  0  0  0  0
    3.1922   -6.2826    1.0012 C   0  0  0  0  0  0  0  0  0  0  0  0
    2.3552   -5.7964    1.9962 C   0  0  0  0  0  0  0  0  0  0  0  0
    4.3565   -5.5911    0.6715 C   0  0  0  0  0  0  0  0  0  0  0  0
    0.4373   -1.3752   -0.1853 C   0  0  0  0  0  0  0  0  0  0  0  0
    0.9942    1.0783   -0.1859 C   0  0  0  0  0  0  0  0  0  0  0  0
    2.6833   -4.6193    2.6628 C   0  0  0  0  0  0  0  0  0  0  0  0
    5.9485   -3.6653    0.9198 C   0  0  0  0  0  0  0  0  0  0  0  0
    6.4084   -2.6761    1.9891 C   0  0  0  0  0  0  0  0  0  0  0  0
    2.9270   -1.6957    3.3428 C   0  0  0  0  0  0  0  0  0  0  0  0
    3.9114    0.2065    2.1756 C   0  0  0  0  0  0  0  0  0  0  0  0
    4.6902   -4.3965    1.3281 C   0  0  0  0  0  0  0  0  0  0  0  0
    1.4222   -0.3006    0.3101 C   0  0  0  0  0  0  0  0  0  0  0  0
    3.8286   -3.8768    2.3176 C   0  0  0  0  0  0  0  0  0  0  0  0
    4.1669   -2.5858    3.0695 C   0  0  1  0  0  0  0  0  0  0  0  0
    5.2271   -0.5369    1.9920 C   0  0  0  0  0  0  0  0  0  0  0  0
    1.5481   -0.3577    1.8424 C   0  0  0  0  0  0  0  0  0  0  0  0
    2.7979   -0.7131    2.2887 N   0  0  0  0  0  0  0  0  0  0  0  0
    5.2861   -1.8567    2.4189 N   0  0  0  0  0  0  0  0  0  0  0  0
    6.2120    0.0623    1.5519 O   0  0  0  0  0  0  0  0  0  0  0  0
    0.5987   -0.2572    2.6173 O   0  0  0  0  0  0  0  0  0  0  0  0
    4.5628   -2.9117    4.0408 H   0  0  0  0  0  0  0  0  0  0  0  0
   -1.5090    0.3445   -1.3319 H   0  0  0  0  0  0  0  0  0  0  0  0
   -2.4220    0.5573    0.1599 H   0  0  0  0  0  0  0  0  0  0  0  0
   -1.1289   -1.1558    1.2938 H   0  0  0  0  0  0  0  0  0  0  0  0
   -1.6803   -1.8165   -0.2229 H   0  0  0  0  0  0  0  0  0  0  0  0
   -0.7286    2.3735   -0.2333 H   0  0  0  0  0  0  0  0  0  0  0  0
   -0.5074    1.5403    1.2916 H   0  0  0  0  0  0  0  0  0  0  0  0
    2.9409   -7.2056    0.4871 H   0  0  0  0  0  0  0  0  0  0  0  0
    1.4462   -6.3293    2.2622 H   0  0  0  0  0  0  0  0  0  0  0  0
    5.0073   -5.9901   -0.1033 H   0  0  0  0  0  0  0  0  0  0  0  0
    0.7220   -2.3643    0.1923 H   0  0  0  0  0  0  0  0  0  0  0  0
    0.4909   -1.4301   -1.2817 H   0  0  0  0  0  0  0  0  0  0  0  0
    1.6734    1.8485    0.1946 H   0  0  0  0  0  0  0  0  0  0  0  0
    1.0733    1.1002   -1.2820 H   0  0  0  0  0  0  0  0  0  0  0  0
    2.0174   -4.2986    3.4602 H   0  0  0  0  0  0  0  0  0  0  0  0
    5.7412   -3.1343   -0.0182 H   0  0  0  0  0  0  0  0  0  0  0  0
    6.7567   -4.3813    0.7290 H   0  0  0  0  0  0  0  0  0  0  0  0
    7.2181   -2.0612    1.5815 H   0  0  0  0  0  0  0  0  0  0  0  0
    6.7988   -3.1974    2.8694 H   0  0  0  0  0  0  0  0  0  0  0  0
    3.0236   -1.1838    4.3074 H   0  0  0  0  0  0  0  0  0  0  0  0
    1.9923   -2.2611    3.3955 H   0  0  0  0  0  0  0  0  0  0  0  0
    3.7548    0.8778    1.3276 H   0  0  0  0  0  0  0  0  0  0  0  0
    3.9714    0.8087    3.0911 H   0  0  0  0  0  0  0  0  0  0  0  0
    2.4035   -0.5379   -0.1246 H   0  0  0  0  0  0  0  0  0  0  0  0
  1 25  1  0  0  0  0
  1 26  1  0  0  0  0
  2  1  1  0  0  0  0
  2 27  1  0  0  0  0
  2 28  1  0  0  0  0
  3  1  1  0  0  0  0
  3 29  1  0  0  0  0
  3 30  1  0  0  0  0
  4 31  1  0  0  0  0
  5  4  2  0  0  0  0
  5 32  1  0  0  0  0
  6  4  1  0  0  0  0
  6 33  1  0  0  0  0
  7  2  1  0  0  0  0
  7 34  1  0  0  0  0
  7 35  1  0  0  0  0
  8  3  1  0  0  0  0
  8 36  1  0  0  0  0
  8 37  1  0  0  0  0
  9  5  1  0  0  0  0
  9 38  1  0  0  0  0
 10 39  1  0  0  0  0
 10 40  1  0  0  0  0
 11 10  1  0  0  0  0
 11 41  1  0  0  0  0
 11 42  1  0  0  0  0
 12 43  1  0  0  0  0
 12 44  1  0  0  0  0
 13 45  1  0  0  0  0
 13 46  1  0  0  0  0
 14  6  2  0  0  0  0
 14 10  1  0  0  0  0
 15  7  1  0  0  0  0
 15  8  1  0  0  0  0
 15 47  1  0  0  0  0
 16  9  2  0  0  0  0
 16 14  1  0  0  0  0
 17 12  1  0  0  0  0
 17 16  1  0  0  0  0
 17 24  1  1  0  0  0
 18 13  1  0  0  0  0
 19 15  1  0  0  0  0
 20 12  1  0  0  0  0
 20 13  1  0  0  0  0
 20 19  1  0  0  0  0
 21 11  1  0  0  0  0
 21 17  1  0  0  0  0
 21 18  1  0  0  0  0
 22 18  2  0  0  0  0
 23 19  2  0  0  0  0
M  END
>  <DRUGBANK_ID>
DB11749

>  <COMMON_NAME>
(R)-Praziquantel

>  <CAS_NUMBER>
57452-98-9

>  <UNII>
WF15T5925V

>  <SYNONYMS>
(-)-praziquantel; (R)-(-)-praziquantel; L-praziquantel; L-PZQ

$$$$
