
 OpenBabel10282417193D

 84 88  0  0  0  0  0  0  0  0999 V2000
    0.3392    0.5428   -0.6831 C   0  0  0  0  0  0  0  0  0  0  0  0
    0.1292    0.9218    0.7939 C   0  0  0  0  0  0  0  0  0  0  0  0
    0.9334    2.1270    1.1414 C   0  0  0  0  0  0  0  0  0  0  0  0
    2.3461    2.2513    1.2132 C   0  0  0  0  0  0  0  0  0  0  0  0
    2.8543    3.5367    1.2518 N   0  0  0  0  0  0  0  0  0  0  0  0
    1.9806    4.6288    1.2127 C   0  0  0  0  0  0  0  0  0  0  0  0
    0.5931    4.4003    1.1688 C   0  0  0  0  0  0  0  0  0  0  0  0
    0.0749    3.1675    1.1989 N   0  0  0  0  0  0  0  0  0  0  0  0
   -0.5028    5.4133    0.9013 C   0  0  0  0  0  0  0  0  0  0  0  0
   -0.4402    6.3533    0.1689 O   0  0  0  0  0  0  0  0  0  0  0  0
   -1.7461    5.1355    1.4468 N   0  0  0  0  0  0  0  0  0  0  0  0
    2.5310    5.9352    1.2570 N   0  0  0  0  0  0  0  0  0  0  0  0
    1.8346    7.1528    1.3913 C   0  0  0  0  0  0  0  0  0  0  0  0
    0.9586    7.3693    2.4649 C   0  0  0  0  0  0  0  0  0  0  0  0
    0.0146    8.4148    2.4600 C   0  0  0  0  0  0  0  0  0  0  0  0
   -0.0389    9.3632    1.4332 C   0  0  0  0  0  0  0  0  0  0  0  0
    0.9517    9.1954    0.4152 C   0  0  0  0  0  0  0  0  0  0  0  0
    1.8115    8.0795    0.3615 C   0  0  0  0  0  0  0  0  0  0  0  0
    1.3402   10.0600   -0.5822 O   0  0  0  0  0  0  0  0  0  0  0  0
    0.8022   11.3276   -0.4073 C   0  0  0  0  0  0  0  0  0  0  0  0
   -0.9559   10.4092    1.5395 N   0  0  0  0  0  0  0  0  0  0  0  0
   -2.1654   10.5384    0.7394 C   0  0  0  0  0  0  0  0  0  0  0  0
   -2.3034   11.9948    0.3557 C   0  0  0  0  0  0  0  0  0  0  0  0
   -1.9308   13.1100    1.3383 C   0  0  0  0  0  0  0  0  0  0  0  0
   -0.8136   12.7274    2.3107 C   0  0  0  0  0  0  0  0  0  0  0  0
   -0.9408   11.2563    2.7315 C   0  0  0  0  0  0  0  0  0  0  0  0
   -1.7884   14.4510    0.6836 N   0  0  0  0  0  0  0  0  0  0  0  0
   -2.9480   14.6835   -0.2136 C   0  0  0  0  0  0  0  0  0  0  0  0
   -2.8555   14.0391   -1.6279 C   0  0  0  0  0  0  0  0  0  0  0  0
   -1.6488   14.4372   -2.3693 N   0  0  0  0  0  0  0  0  0  0  0  0
   -0.4581   14.2103   -1.5221 C   0  0  0  0  0  0  0  0  0  0  0  0
   -0.5509   14.7726   -0.0801 C   0  0  0  0  0  0  0  0  0  0  0  0
   -1.5507   13.5756   -3.5572 C   0  0  0  0  0  0  0  0  0  0  0  0
    3.2827    1.2049    1.1981 N   0  0  0  0  0  0  0  0  0  0  0  0
    3.1609   -0.2665    1.5273 C   0  0  0  0  0  0  0  0  0  0  0  0
    2.5435   -1.0501    0.3779 C   0  0  0  0  0  0  0  0  0  0  0  0
    1.7124   -2.3027    0.5746 C   0  0  0  0  0  0  0  0  0  0  0  0
    0.9179   -2.1598    1.7500 O   0  0  0  0  0  0  0  0  0  0  0  0
    1.7129   -1.8508    2.8919 C   0  0  0  0  0  0  0  0  0  0  0  0
    2.3897   -0.4776    2.8356 C   0  0  0  0  0  0  0  0  0  0  0  0
   -0.2171    1.1247   -1.4043 H   0  0  0  0  0  0  0  0  0  0  0  0
    0.0722   -0.5144   -0.7951 H   0  0  0  0  0  0  0  0  0  0  0  0
    1.3851    0.6861   -1.0109 H   0  0  0  0  0  0  0  0  0  0  0  0
   -0.9423    1.0772    0.9584 H   0  0  0  0  0  0  0  0  0  0  0  0
    0.3243    0.1428    1.5241 H   0  0  0  0  0  0  0  0  0  0  0  0
   -2.0541    4.1807    1.3155 H   0  0  0  0  0  0  0  0  0  0  0  0
   -2.4001    5.8486    1.1478 H   0  0  0  0  0  0  0  0  0  0  0  0
    3.5278    5.9923    1.0958 H   0  0  0  0  0  0  0  0  0  0  0  0
    0.8947    6.6267    3.2533 H   0  0  0  0  0  0  0  0  0  0  0  0
   -0.7243    8.4457    3.2556 H   0  0  0  0  0  0  0  0  0  0  0  0
    2.3674    7.9211   -0.5618 H   0  0  0  0  0  0  0  0  0  0  0  0
   -0.2115   11.2020   -0.7395 H   0  0  0  0  0  0  0  0  0  0  0  0
    0.9241   11.6899    0.6106 H   0  0  0  0  0  0  0  0  0  0  0  0
    1.2825   12.0546   -1.0544 H   0  0  0  0  0  0  0  0  0  0  0  0
   -3.0782   10.2781    1.2894 H   0  0  0  0  0  0  0  0  0  0  0  0
   -2.1623    9.9425   -0.1853 H   0  0  0  0  0  0  0  0  0  0  0  0
   -3.3341   12.1251    0.0170 H   0  0  0  0  0  0  0  0  0  0  0  0
   -1.6599   12.1328   -0.4909 H   0  0  0  0  0  0  0  0  0  0  0  0
   -2.8148   13.2095    1.9850 H   0  0  0  0  0  0  0  0  0  0  0  0
    0.1704   12.9208    1.8845 H   0  0  0  0  0  0  0  0  0  0  0  0
   -0.8665   13.3624    3.2015 H   0  0  0  0  0  0  0  0  0  0  0  0
   -0.1099   10.9981    3.3901 H   0  0  0  0  0  0  0  0  0  0  0  0
   -1.8770   11.1201    3.2886 H   0  0  0  0  0  0  0  0  0  0  0  0
   -3.0816   15.7628   -0.3349 H   0  0  0  0  0  0  0  0  0  0  0  0
   -3.8536   14.3342    0.2976 H   0  0  0  0  0  0  0  0  0  0  0  0
   -3.7867   14.2359   -2.1635 H   0  0  0  0  0  0  0  0  0  0  0  0
   -2.8562   12.9509   -1.6274 H   0  0  0  0  0  0  0  0  0  0  0  0
   -0.3150   13.1448   -1.4518 H   0  0  0  0  0  0  0  0  0  0  0  0
    0.4504   14.5773   -2.0170 H   0  0  0  0  0  0  0  0  0  0  0  0
   -0.5010   15.8674   -0.1840 H   0  0  0  0  0  0  0  0  0  0  0  0
    0.3588   14.5212    0.4800 H   0  0  0  0  0  0  0  0  0  0  0  0
   -0.7024   13.8751   -4.1759 H   0  0  0  0  0  0  0  0  0  0  0  0
   -1.4270   12.5120   -3.3006 H   0  0  0  0  0  0  0  0  0  0  0  0
   -2.4635   13.6649   -4.1534 H   0  0  0  0  0  0  0  0  0  0  0  0
    4.2314    1.5694    1.2781 H   0  0  0  0  0  0  0  0  0  0  0  0
    4.1659   -0.6953    1.6289 H   0  0  0  0  0  0  0  0  0  0  0  0
    1.7430   -0.3993    0.3408 H   0  0  0  0  0  0  0  0  0  0  0  0
    3.0028   -0.9613   -0.6106 H   0  0  0  0  0  0  0  0  0  0  0  0
    0.9981   -2.4259   -0.2588 H   0  0  0  0  0  0  0  0  0  0  0  0
    2.3147   -3.2070    0.6067 H   0  0  0  0  0  0  0  0  0  0  0  0
    2.4694   -2.6299    2.9829 H   0  0  0  0  0  0  0  0  0  0  0  0
    1.0458   -1.8942    3.7569 H   0  0  0  0  0  0  0  0  0  0  0  0
    3.0668   -0.3429    3.6825 H   0  0  0  0  0  0  0  0  0  0  0  0
    1.6334    0.2982    2.9955 H   0  0  0  0  0  0  0  0  0  0  0  0
  1  2  1  0  0  0  0
  1 41  1  0  0  0  0
  1 42  1  0  0  0  0
  1 43  1  0  0  0  0
  2  3  1  0  0  0  0
  2 44  1  0  0  0  0
  2 45  1  0  0  0  0
  3  4  2  0  0  0  0
  3  8  1  0  0  0  0
  4  5  1  0  0  0  0
  4 34  1  0  0  0  0
  5  6  2  0  0  0  0
  6  7  1  0  0  0  0
  6 12  1  0  0  0  0
  7  8  2  0  0  0  0
  7  9  1  0  0  0  0
  9 10  2  0  0  0  0
  9 11  1  0  0  0  0
 11 46  1  0  0  0  0
 11 47  1  0  0  0  0
 12 13  1  0  0  0  0
 12 48  1  0  0  0  0
 13 14  2  0  0  0  0
 13 18  1  0  0  0  0
 14 15  1  0  0  0  0
 14 49  1  0  0  0  0
 15 16  2  0  0  0  0
 15 50  1  0  0  0  0
 16 17  1  0  0  0  0
 16 21  1  0  0  0  0
 17 18  2  0  0  0  0
 17 19  1  0  0  0  0
 18 51  1  0  0  0  0
 19 20  1  0  0  0  0
 20 52  1  0  0  0  0
 20 53  1  0  0  0  0
 20 54  1  0  0  0  0
 21 22  1  0  0  0  0
 21 26  1  0  0  0  0
 22 23  1  0  0  0  0
 22 55  1  0  0  0  0
 22 56  1  0  0  0  0
 23 24  1  0  0  0  0
 23 57  1  0  0  0  0
 23 58  1  0  0  0  0
 24 25  1  0  0  0  0
 24 27  1  0  0  0  0
 24 59  1  0  0  0  0
 25 26  1  0  0  0  0
 25 60  1  0  0  0  0
 25 61  1  0  0  0  0
 26 62  1  0  0  0  0
 26 63  1  0  0  0  0
 27 28  1  0  0  0  0
 27 32  1  0  0  0  0
 28 29  1  0  0  0  0
 28 64  1  0  0  0  0
 28 65  1  0  0  0  0
 29 30  1  0  0  0  0
 29 66  1  0  0  0  0
 29 67  1  0  0  0  0
 30 31  1  0  0  0  0
 30 33  1  0  0  0  0
 31 32  1  0  0  0  0
 31 68  1  0  0  0  0
 31 69  1  0  0  0  0
 32 70  1  0  0  0  0
 32 71  1  0  0  0  0
 33 72  1  0  0  0  0
 33 73  1  0  0  0  0
 33 74  1  0  0  0  0
 34 35  1  0  0  0  0
 34 75  1  0  0  0  0
 35 36  1  0  0  0  0
 35 40  1  0  0  0  0
 35 76  1  0  0  0  0
 36 37  1  0  0  0  0
 36 77  1  0  0  0  0
 36 78  1  0  0  0  0
 37 38  1  0  0  0  0
 37 79  1  0  0  0  0
 37 80  1  0  0  0  0
 38 39  1  0  0  0  0
 39 40  1  0  0  0  0
 39 81  1  0  0  0  0
 39 82  1  0  0  0  0
 40 83  1  0  0  0  0
 40 84  1  0  0  0  0
M  END
>  <DRUGBANK_ID>
DB12141

>  <COMMON_NAME>
Gilteritinib

>  <CAS_NUMBER>
1254053-43-4

>  <UNII>
66D92MGC8M

>  <SYNONYMS>
Gilteritinib

$$$$
