
 OpenBabel10282417123D

120124  0  0  0  0  0  0  0  0999 V2000
  -13.0246   14.4676    3.0642 S   0  0  0  0  0  0  0  0  0  0  0  0
  -12.1215   10.9753   -0.7406 P   0  0  0  0  0  0  0  0  0  0  0  0
   -7.1399    8.1179   -1.1797 P   0  0  2  0  0  0  0  0  0  0  0  0
   -7.5280   10.2722    0.8110 P   0  0  2  0  0  0  0  0  0  0  0  0
   -9.1535    9.2148   -3.9987 O   0  0  0  0  0  0  0  0  0  0  0  0
  -10.8047   10.0119   -0.7195 O   0  0  0  0  0  0  0  0  0  0  0  0
  -12.1570    9.0329   -3.1343 O   0  0  0  0  0  0  0  0  0  0  0  0
   -6.9909    9.2737   -2.2775 O   0  0  0  0  0  0  0  0  0  0  0  0
  -11.0866   11.5904   -1.8275 O   0  0  0  0  0  0  0  0  0  0  0  0
  -12.8330    9.5326   -0.8143 O   0  0  0  0  0  0  0  0  0  0  0  0
   -6.9839    8.9524    0.1057 O   0  0  0  0  0  0  0  0  0  0  0  0
  -13.1258   11.5902   -1.6751 O   0  0  0  0  0  0  0  0  0  0  0  0
   -6.5843   11.2189   -0.2872 O   0  0  0  0  0  0  0  0  0  0  0  0
   -5.7691    7.3017   -1.0927 O   0  0  0  0  0  0  0  0  0  0  0  0
   -8.2932    7.1828   -1.2711 O   0  0  0  0  0  0  0  0  0  0  0  0
   -6.3326   11.9755    3.6517 O   0  0  0  0  0  0  0  0  0  0  0  0
   -6.1543   10.0905    1.7668 O   0  0  0  0  0  0  0  0  0  0  0  0
   -8.3726    9.4248    1.7939 O   0  0  0  0  0  0  0  0  0  0  0  0
   -9.4152   12.3495    2.4786 O   0  0  0  0  0  0  0  0  0  0  0  0
   -8.7705   18.0206    3.4116 O   0  0  0  0  0  0  0  0  0  0  0  0
  -14.1475   17.8459    8.4220 O   0  0  0  0  0  0  0  0  0  0  0  0
   -9.2736    6.9115   -3.9990 N   0  0  0  0  0  0  0  0  0  0  0  0
   -7.4750    5.5930   -4.0836 N   0  0  0  0  0  0  0  0  0  0  0  0
  -11.0341    5.2382   -3.8935 N   0  0  0  0  0  0  0  0  0  0  0  0
  -10.0910    2.9913   -3.8711 N   0  0  0  0  0  0  0  0  0  0  0  0
   -7.7674    2.5784   -3.9327 N   0  0  0  0  0  0  0  0  0  0  0  0
   -8.4695   14.0317    3.7319 N   0  0  0  0  0  0  0  0  0  0  0  0
   -9.9925   16.3189    2.6687 N   0  0  0  0  0  0  0  0  0  0  0  0
  -11.9603   22.5686    5.2537 N   0  0  0  0  0  0  0  0  0  0  0  0
  -12.9987   18.5672    6.6553 N   0  0  0  0  0  0  0  0  0  0  0  0
  -10.1965    9.2302   -1.7741 C   0  0  1  0  0  0  0  0  0  0  0  0
  -10.9763    8.3277   -2.7165 C   0  0  2  0  0  0  0  0  0  0  0  0
   -9.2945    9.9589   -2.8060 C   0  0  1  0  0  0  0  0  0  0  0  0
  -10.0632    8.1149   -3.9467 C   0  0  1  0  0  0  0  0  0  0  0  0
   -7.9404   10.3383   -2.3034 C   0  0  0  0  0  0  0  0  0  0  0  0
   -9.7548    5.6383   -3.9566 C   0  0  0  0  0  0  0  0  0  0  0  0
   -7.9075    6.8317   -4.1230 C   0  0  0  0  0  0  0  0  0  0  0  0
   -8.6235    4.8417   -3.9822 C   0  0  0  0  0  0  0  0  0  0  0  0
   -6.2904   13.0603    1.3489 C   0  0  0  0  0  0  0  0  0  0  0  0
   -8.8237    3.4593   -3.9229 C   0  0  0  0  0  0  0  0  0  0  0  0
   -7.0961   12.4537    2.5602 C   0  0  2  0  0  0  0  0  0  0  0  0
   -5.6297   12.0717    0.3368 C   0  0  0  0  0  0  0  0  0  0  0  0
  -11.1031    3.8902   -3.8608 C   0  0  0  0  0  0  0  0  0  0  0  0
   -7.2220   13.8572    0.4250 C   0  0  0  0  0  0  0  0  0  0  0  0
   -5.0811   13.8240    1.9219 C   0  0  0  0  0  0  0  0  0  0  0  0
   -8.4570   12.9407    2.9164 C   0  0  0  0  0  0  0  0  0  0  0  0
   -7.4215   14.9788    3.8529 C   0  0  0  0  0  0  0  0  0  0  0  0
   -7.4913   16.1192    2.8463 C   0  0  0  0  0  0  0  0  0  0  0  0
   -8.7820   16.8724    2.9869 C   0  0  0  0  0  0  0  0  0  0  0  0
  -12.6970   20.6917    4.3854 C   0  0  0  0  0  0  0  0  0  0  0  0
  -12.9000   19.2591    4.2069 C   0  0  0  0  0  0  0  0  0  0  0  0
  -13.4284   21.7388    3.7789 C   0  0  0  0  0  0  0  0  0  0  0  0
  -12.2595   18.5024    5.4093 C   0  0  0  0  0  0  0  0  0  0  0  0
  -10.4814   15.0438    2.0747 C   0  0  0  0  0  0  0  0  0  0  0  0
  -14.7053   15.8979    5.5311 C   0  0  0  0  0  0  0  0  0  0  0  0
  -14.1457   16.5141    4.2866 C   0  0  0  0  0  0  0  0  0  0  0  0
  -12.9273   22.9083    4.3416 C   0  0  0  0  0  0  0  0  0  0  0  0
  -13.8088   16.1284    6.7663 C   0  0  0  0  0  0  0  0  0  0  0  0
  -11.7954   21.2310    5.2695 C   0  0  0  0  0  0  0  0  0  0  0  0
  -11.2963   14.0837    3.0183 C   0  0  0  0  0  0  0  0  0  0  0  0
  -12.7859   16.0043    3.9000 C   0  0  0  0  0  0  0  0  0  0  0  0
  -13.6741   17.5707    7.3174 C   0  0  0  0  0  0  0  0  0  0  0  0
  -14.4703   21.8083    2.8292 C   0  0  0  0  0  0  0  0  0  0  0  0
  -13.3932   24.1643    3.9820 C   0  0  0  0  0  0  0  0  0  0  0  0
  -14.9398   23.0674    2.4500 C   0  0  0  0  0  0  0  0  0  0  0  0
  -14.3997   24.2221    3.0158 C   0  0  0  0  0  0  0  0  0  0  0  0
   -6.8329    2.9639   -3.9750 H   0  0  0  0  0  0  0  0  0  0  0  0
   -7.9529    1.5914   -3.9424 H   0  0  0  0  0  0  0  0  0  0  0  0
   -9.3358   14.4106    4.0333 H   0  0  0  0  0  0  0  0  0  0  0  0
  -10.6650   17.0690    2.7136 H   0  0  0  0  0  0  0  0  0  0  0  0
  -11.4404   23.2017    5.8389 H   0  0  0  0  0  0  0  0  0  0  0  0
  -13.0102   19.4632    7.1320 H   0  0  0  0  0  0  0  0  0  0  0  0
  -11.9249    9.9825   -3.2574 H   0  0  0  0  0  0  0  0  0  0  0  0
  -10.5598   12.3094   -1.4430 H   0  0  0  0  0  0  0  0  0  0  0  0
  -12.7889    9.0643   -1.6700 H   0  0  0  0  0  0  0  0  0  0  0  0
   -5.8280    6.7624   -0.2745 H   0  0  0  0  0  0  0  0  0  0  0  0
   -6.9356   11.3808    4.1609 H   0  0  0  0  0  0  0  0  0  0  0  0
   -5.8590   10.7317    2.4423 H   0  0  0  0  0  0  0  0  0  0  0  0
   -9.6376    8.5898   -1.1241 H   0  0  0  0  0  0  0  0  0  0  0  0
  -11.2964    7.3925   -2.2474 H   0  0  0  0  0  0  0  0  0  0  0  0
   -9.7300   10.8908   -3.1406 H   0  0  0  0  0  0  0  0  0  0  0  0
  -10.6430    8.1615   -4.8731 H   0  0  0  0  0  0  0  0  0  0  0  0
   -8.2036   10.7652   -1.3453 H   0  0  0  0  0  0  0  0  0  0  0  0
   -7.5010   11.1627   -2.8732 H   0  0  0  0  0  0  0  0  0  0  0  0
   -7.2720    7.7066   -4.1790 H   0  0  0  0  0  0  0  0  0  0  0  0
   -7.5448   11.5481    2.2971 H   0  0  0  0  0  0  0  0  0  0  0  0
   -5.1439   12.6378   -0.4696 H   0  0  0  0  0  0  0  0  0  0  0  0
   -4.8086   11.4890    0.7686 H   0  0  0  0  0  0  0  0  0  0  0  0
  -12.1045    3.4707   -3.8283 H   0  0  0  0  0  0  0  0  0  0  0  0
   -7.8842   14.4847    0.9773 H   0  0  0  0  0  0  0  0  0  0  0  0
   -6.6701   14.4918   -0.2722 H   0  0  0  0  0  0  0  0  0  0  0  0
   -7.9151   13.2207   -0.1386 H   0  0  0  0  0  0  0  0  0  0  0  0
   -5.3123   14.6890    2.5293 H   0  0  0  0  0  0  0  0  0  0  0  0
   -4.4898   13.1458    2.5543 H   0  0  0  0  0  0  0  0  0  0  0  0
   -4.4321   14.2170    1.1420 H   0  0  0  0  0  0  0  0  0  0  0  0
   -6.5010   14.4187    3.8483 H   0  0  0  0  0  0  0  0  0  0  0  0
   -7.5153   15.3630    4.8622 H   0  0  0  0  0  0  0  0  0  0  0  0
   -7.3715   15.9375    1.7826 H   0  0  0  0  0  0  0  0  0  0  0  0
   -6.6458   16.7854    3.0492 H   0  0  0  0  0  0  0  0  0  0  0  0
  -12.4794   18.9290    3.2474 H   0  0  0  0  0  0  0  0  0  0  0  0
  -13.9910   19.1640    4.1050 H   0  0  0  0  0  0  0  0  0  0  0  0
  -11.1978   18.7432    5.5173 H   0  0  0  0  0  0  0  0  0  0  0  0
  -12.1688   17.4639    5.2801 H   0  0  0  0  0  0  0  0  0  0  0  0
   -9.6213   14.5457    1.6622 H   0  0  0  0  0  0  0  0  0  0  0  0
  -11.0724   15.2735    1.1857 H   0  0  0  0  0  0  0  0  0  0  0  0
  -15.6808   16.3635    5.6987 H   0  0  0  0  0  0  0  0  0  0  0  0
  -14.8629   14.8338    5.3428 H   0  0  0  0  0  0  0  0  0  0  0  0
  -14.1640   17.5272    4.6049 H   0  0  0  0  0  0  0  0  0  0  0  0
  -14.7721   16.5677    3.3942 H   0  0  0  0  0  0  0  0  0  0  0  0
  -14.2685   15.5355    7.5670 H   0  0  0  0  0  0  0  0  0  0  0  0
  -12.8087   15.6967    6.6483 H   0  0  0  0  0  0  0  0  0  0  0  0
  -11.0931   20.7556    5.9402 H   0  0  0  0  0  0  0  0  0  0  0  0
  -10.9655   14.0324    4.0664 H   0  0  0  0  0  0  0  0  0  0  0  0
  -11.3249   13.0609    2.6614 H   0  0  0  0  0  0  0  0  0  0  0  0
  -12.0604   15.8218    4.7128 H   0  0  0  0  0  0  0  0  0  0  0  0
  -12.3426   16.7370    3.2315 H   0  0  0  0  0  0  0  0  0  0  0  0
  -14.9018   20.9123    2.3871 H   0  0  0  0  0  0  0  0  0  0  0  0
  -12.9772   25.0559    4.4318 H   0  0  0  0  0  0  0  0  0  0  0  0
  -15.7287   23.1470    1.7058 H   0  0  0  0  0  0  0  0  0  0  0  0
  -14.7661   25.1944    2.7035 H   0  0  0  0  0  0  0  0  0  0  0  0
  1 60  1  0  0  0  0
  1 61  1  0  0  0  0
  2  6  1  0  0  0  0
  2  9  1  0  0  0  0
  2 10  1  0  0  0  0
  2 12  2  0  0  0  0
  3  8  1  0  0  0  0
  3 11  1  0  0  0  0
  3 14  1  0  0  0  0
  3 15  2  6  0  0  0
  4 11  1  0  0  0  0
  4 13  1  0  0  0  0
  4 17  1  0  0  0  0
  4 18  2  1  0  0  0
  5 33  1  0  0  0  0
  5 34  1  0  0  0  0
  7 73  1  0  0  0  0
  8 35  1  0  0  0  0
  9 74  1  0  0  0  0
 10 75  1  0  0  0  0
 13 42  1  0  0  0  0
 14 76  1  0  0  0  0
 16 77  1  0  0  0  0
 17 78  1  0  0  0  0
 19 46  2  0  0  0  0
 20 49  2  0  0  0  0
 21 62  2  0  0  0  0
 22 36  1  0  0  0  0
 22 37  1  0  0  0  0
 23 37  2  0  0  0  0
 23 38  1  0  0  0  0
 24 36  2  0  0  0  0
 24 43  1  0  0  0  0
 25 40  1  0  0  0  0
 25 43  2  0  0  0  0
 26 40  1  0  0  0  0
 26 67  1  0  0  0  0
 26 68  1  0  0  0  0
 27 46  1  0  0  0  0
 27 47  1  0  0  0  0
 27 69  1  0  0  0  0
 28 49  1  0  0  0  0
 28 54  1  0  0  0  0
 28 70  1  0  0  0  0
 29 57  1  0  0  0  0
 29 59  1  0  0  0  0
 29 71  1  0  0  0  0
 30 53  1  0  0  0  0
 30 62  1  0  0  0  0
 30 72  1  0  0  0  0
 31  6  1  0  0  0  0
 31 32  1  0  0  0  0
 31 33  1  0  0  0  0
 31 79  1  1  0  0  0
 32  7  1  0  0  0  0
 32 34  1  0  0  0  0
 32 80  1  1  0  0  0
 33 81  1  6  0  0  0
 33 35  1  0  0  0  0
 34 22  1  0  0  0  0
 34 82  1  6  0  0  0
 35 83  1  0  0  0  0
 35 84  1  0  0  0  0
 36 38  1  0  0  0  0
 37 85  1  0  0  0  0
 38 40  2  0  0  0  0
 39 42  1  0  0  0  0
 39 44  1  0  0  0  0
 39 45  1  0  0  0  0
 41 46  1  0  0  0  0
 41 86  1  6  0  0  0
 41 39  1  0  0  0  0
 41 16  1  0  0  0  0
 42 87  1  0  0  0  0
 42 88  1  0  0  0  0
 43 89  1  0  0  0  0
 44 90  1  0  0  0  0
 44 91  1  0  0  0  0
 44 92  1  0  0  0  0
 45 93  1  0  0  0  0
 45 94  1  0  0  0  0
 45 95  1  0  0  0  0
 47 48  1  0  0  0  0
 47 96  1  0  0  0  0
 47 97  1  0  0  0  0
 48 49  1  0  0  0  0
 48 98  1  0  0  0  0
 48 99  1  0  0  0  0
 50 51  1  0  0  0  0
 50 52  1  0  0  0  0
 50 59  2  0  0  0  0
 51 53  1  0  0  0  0
 51100  1  0  0  0  0
 51101  1  0  0  0  0
 52 57  1  0  0  0  0
 52 63  2  0  0  0  0
 53102  1  0  0  0  0
 53103  1  0  0  0  0
 54 60  1  0  0  0  0
 54104  1  0  0  0  0
 54105  1  0  0  0  0
 55 56  1  0  0  0  0
 55 58  1  0  0  0  0
 55106  1  0  0  0  0
 55107  1  0  0  0  0
 56 61  1  0  0  0  0
 56108  1  0  0  0  0
 56109  1  0  0  0  0
 57 64  2  0  0  0  0
 58 62  1  0  0  0  0
 58110  1  0  0  0  0
 58111  1  0  0  0  0
 59112  1  0  0  0  0
 60113  1  0  0  0  0
 60114  1  0  0  0  0
 61115  1  0  0  0  0
 61116  1  0  0  0  0
 63 65  1  0  0  0  0
 63117  1  0  0  0  0
 64 66  1  0  0  0  0
 64118  1  0  0  0  0
 65 66  2  0  0  0  0
 65119  1  0  0  0  0
 66120  1  0  0  0  0
M  END
>  <DRUGBANK_ID>
DB01777

>  <SECONDARY_ACCESSION_NUMBERS>
EXPT00818

>  <COMMON_NAME>
CoA-S-trimethylene-acetyl-tryptamine

$$$$
