448
 OpenBabel10282417163D

 46 48  0  0  0  0  0  0  0  0999 V2000
   -1.6256   -1.8337   -0.0163 F   0  0  0  0  0  0  0  0  0  0  0  0
   -0.7672   -0.8097   -0.0008 C   0  0  0  0  0  0  0  0  0  0  0  0
    0.5946   -1.0601   -0.0129 C   0  0  0  0  0  0  0  0  0  0  0  0
    1.4730    0.0173   -0.0254 C   0  0  0  0  0  0  0  0  0  0  0  0
    2.7714   -0.3082   -0.0133 F   0  0  0  0  0  0  0  0  0  0  0  0
   -1.2453    0.4891    0.0452 C   0  0  0  0  0  0  0  0  0  0  0  0
   -2.5531    0.7549    0.0446 F   0  0  0  0  0  0  0  0  0  0  0  0
   -0.3741    1.5501    0.0839 C   0  0  0  0  0  0  0  0  0  0  0  0
    0.9959    1.3478   -0.0095 C   0  0  0  0  0  0  0  0  0  0  0  0
    1.7375    2.6436   -0.0197 C   0  0  0  0  0  0  0  0  0  0  0  0
    1.9791    3.4054   -1.3016 C   0  0  1  0  0  0  0  0  0  0  0  0
    0.7268    4.1530   -1.4779 N   0  0  0  0  0  0  0  0  0  0  0  0
    3.2413    4.2954   -1.1093 C   0  0  0  0  0  0  0  0  0  0  0  0
    4.6983    3.6587   -0.9759 C   0  0  0  0  0  0  0  0  0  0  0  0
    5.5567    4.0240   -1.8026 O   0  0  0  0  0  0  0  0  0  0  0  0
    5.0914    2.8995    0.1439 N   0  0  0  0  0  0  0  0  0  0  0  0
    4.4634    1.6524    0.5810 C   0  0  0  0  0  0  0  0  0  0  0  0
    3.8608    1.9296    1.9583 C   0  0  0  0  0  0  0  0  0  0  0  0
    6.3960    3.0703    0.8435 C   0  0  2  0  0  0  0  0  0  0  0  0
    7.3662    1.9932    0.3218 C   0  0  0  0  0  0  0  0  0  0  0  0
    6.1133    2.9174    2.3856 C   0  0  0  0  0  0  0  0  0  0  0  0
    4.9414    2.3487    2.8051 N   0  0  0  0  0  0  0  0  0  0  0  0
    4.7532    2.3532    4.1138 N   0  0  0  0  0  0  0  0  0  0  0  0
    6.7851    3.2233    3.4971 N   0  0  0  0  0  0  0  0  0  0  0  0
    5.9115    2.8568    4.5632 C   0  0  0  0  0  0  0  0  0  0  0  0
    6.1382    2.9466    6.0745 C   0  0  0  0  0  0  0  0  0  0  0  0
    5.0311    2.5402    6.7787 F   0  0  0  0  0  0  0  0  0  0  0  0
    7.1504    2.1473    6.5114 F   0  0  0  0  0  0  0  0  0  0  0  0
    6.4014    4.2061    6.5157 F   0  0  0  0  0  0  0  0  0  0  0  0
    2.1426    2.7349   -2.1514 H   0  0  0  0  0  0  0  0  0  0  0  0
    6.7797    4.0685    0.6112 H   0  0  0  0  0  0  0  0  0  0  0  0
    0.9696   -2.0790   -0.0137 H   0  0  0  0  0  0  0  0  0  0  0  0
   -0.7613    2.5591    0.1889 H   0  0  0  0  0  0  0  0  0  0  0  0
    1.4080    3.2855    0.8104 H   0  0  0  0  0  0  0  0  0  0  0  0
    2.7095    2.4764    0.2602 H   0  0  0  0  0  0  0  0  0  0  0  0
    0.7259    4.7195   -2.3195 H   0  0  0  0  0  0  0  0  0  0  0  0
   -0.0362    3.4827   -1.5979 H   0  0  0  0  0  0  0  0  0  0  0  0
    3.2721    4.9781   -1.9763 H   0  0  0  0  0  0  0  0  0  0  0  0
    3.1088    4.9605   -0.2429 H   0  0  0  0  0  0  0  0  0  0  0  0
    3.8587    1.3021   -0.2484 H   0  0  0  0  0  0  0  0  0  0  0  0
    5.1548    0.8147    0.6828 H   0  0  0  0  0  0  0  0  0  0  0  0
    3.1989    2.8054    2.0117 H   0  0  0  0  0  0  0  0  0  0  0  0
    3.3475    1.0735    2.3993 H   0  0  0  0  0  0  0  0  0  0  0  0
    7.4916    2.0734   -0.7656 H   0  0  0  0  0  0  0  0  0  0  0  0
    8.3372    2.0524    0.8104 H   0  0  0  0  0  0  0  0  0  0  0  0
    7.0142    0.9695    0.4940 H   0  0  0  0  0  0  0  0  0  0  0  0
  1  2  1  0  0  0  0
  2  6  1  0  0  0  0
  2  3  2  0  0  0  0
  3  4  1  0  0  0  0
  3 32  1  0  0  0  0
  4  9  2  0  0  0  0
  4  5  1  0  0  0  0
  6  7  1  0  0  0  0
  6  8  2  0  0  0  0
  8  9  1  0  0  0  0
  8 33  1  0  0  0  0
  9 10  1  0  0  0  0
 10 11  1  0  0  0  0
 10 34  1  0  0  0  0
 10 35  1  0  0  0  0
 11 12  1  0  0  0  0
 11 13  1  0  0  0  0
 11 30  1  6  0  0  0
 12 36  1  0  0  0  0
 12 37  1  0  0  0  0
 13 14  1  0  0  0  0
 13 38  1  0  0  0  0
 13 39  1  0  0  0  0
 14 15  2  0  0  0  0
 14 16  1  0  0  0  0
 16 17  1  0  0  0  0
 16 19  1  0  0  0  0
 17 18  1  0  0  0  0
 17 40  1  0  0  0  0
 17 41  1  0  0  0  0
 18 22  1  0  0  0  0
 18 42  1  0  0  0  0
 18 43  1  0  0  0  0
 19 21  1  0  0  0  0
 19 20  1  0  0  0  0
 19 31  1  6  0  0  0
 20 44  1  0  0  0  0
 20 45  1  0  0  0  0
 20 46  1  0  0  0  0
 21 22  1  0  0  0  0
 21 24  2  0  0  0  0
 22 23  1  0  0  0  0
 23 25  2  0  0  0  0
 24 25  1  0  0  0  0
 25 26  1  0  0  0  0
 26 28  1  0  0  0  0
 26 29  1  0  0  0  0
 26 27  1  0  0  0  0
M  END
>  <DRUGBANK_ID>
DB07081

>  <COMMON_NAME>
(2R)-4-[(8R)-8-METHYL-2-(TRIFLUOROMETHYL)-5,6-DIHYDRO[1,2,4]TRIAZOLO[1,5-A]PYRAZIN-7(8H)-YL]-4-OXO-1-(2,4,5-TRIFLUOROPHENYL)BUTAN-2-AMINE

$$$$
