
 OpenBabel10282417123D

 32 32  0  0  1  0  0  0  0  0999 V2000
    0.8941    0.0295   -0.0079 C   0  0  0  0  0  0  0  0  0  0  0  0
    2.9267   -2.8881   -2.3292 C   0  0  0  0  0  0  0  0  0  0  0  0
    0.3526   -0.9700   -1.0748 C   0  0  2  0  0  0  0  0  0  0  0  0
    1.4800   -2.4404   -2.5442 C   0  0  1  0  0  0  0  0  0  0  0  0
   -0.0688   -2.4026   -0.6913 C   0  0  2  0  0  0  0  0  0  0  0  0
    0.3581   -3.2759   -1.8682 C   0  0  2  0  0  0  0  0  0  0  0  0
   -1.3030   -2.4206    0.0023 O   0  0  0  0  0  0  0  0  0  0  0  0
    0.8086   -4.5799   -1.4583 O   0  0  0  0  0  0  0  0  0  0  0  0
    4.5203   -1.0373   -1.2794 O   0  0  0  0  0  0  0  0  0  0  0  0
    5.4980   -2.6634   -2.8789 O   0  0  0  0  0  0  0  0  0  0  0  0
    4.0173   -0.7446   -3.8243 O   0  0  0  0  0  0  0  0  0  0  0  0
    2.2915   -1.9185    0.5391 O   0  0  0  0  0  0  0  0  0  0  0  0
    2.1706   -1.1216    2.7902 O   0  0  0  0  0  0  0  0  0  0  0  0
    1.7023   -3.3223    2.1151 O   0  0  0  0  0  0  0  0  0  0  0  0
    0.6095   -0.3303    1.3395 O   0  0  0  0  0  0  0  0  0  0  0  0
    1.3440   -1.0811   -2.1089 O   0  0  0  0  0  0  0  0  0  0  0  0
    4.2229   -1.7120   -2.6982 P   0  0  0  0  0  0  0  0  0  0  0  0
    1.1862   -1.9092    1.7488 P   0  0  0  0  0  0  0  0  0  0  0  0
   -0.5190   -0.4762   -1.5158 H   0  0  0  0  0  0  0  0  0  0  0  0
    1.3025   -2.4528   -3.6224 H   0  0  0  0  0  0  0  0  0  0  0  0
    0.5012   -2.9415    0.0321 H   0  0  0  0  0  0  0  0  0  0  0  0
   -0.4930   -3.4475   -2.5240 H   0  0  0  0  0  0  0  0  0  0  0  0
    0.5138    1.0396   -0.1900 H   0  0  0  0  0  0  0  0  0  0  0  0
    1.9825    0.1712   -0.0892 H   0  0  0  0  0  0  0  0  0  0  0  0
    3.1339   -3.1671   -1.2960 H   0  0  0  0  0  0  0  0  0  0  0  0
    3.1000   -3.8030   -2.9043 H   0  0  0  0  0  0  0  0  0  0  0  0
   -2.0355   -2.7315   -0.5481 H   0  0  0  0  0  0  0  0  0  0  0  0
    1.6334   -4.5396   -0.9390 H   0  0  0  0  0  0  0  0  0  0  0  0
    3.7832   -0.4725   -0.9788 H   0  0  0  0  0  0  0  0  0  0  0  0
    5.2993   -3.5724   -3.1697 H   0  0  0  0  0  0  0  0  0  0  0  0
    2.5507   -2.8682    0.5785 H   0  0  0  0  0  0  0  0  0  0  0  0
    2.4069   -0.2521    2.4186 H   0  0  0  0  0  0  0  0  0  0  0  0
  1 23  1  0  0  0  0
  1 24  1  0  0  0  0
  2 25  1  0  0  0  0
  2 26  1  0  0  0  0
  3  1  1  0  0  0  0
  3 19  1  6  0  0  0
  4 20  1  6  0  0  0
  4  2  1  0  0  0  0
  5  3  1  0  0  0  0
  5  7  1  0  0  0  0
  5 21  1  1  0  0  0
  6  4  1  0  0  0  0
  6  5  1  0  0  0  0
  6  8  1  0  0  0  0
  6 22  1  6  0  0  0
  7 27  1  0  0  0  0
  8 28  1  0  0  0  0
  9 29  1  0  0  0  0
 10 30  1  0  0  0  0
 12 31  1  0  0  0  0
 13 32  1  0  0  0  0
 15  1  1  0  0  0  0
 16  3  1  0  0  0  0
 16  4  1  0  0  0  0
 17  2  1  0  0  0  0
 17  9  1  0  0  0  0
 17 10  1  0  0  0  0
 17 11  2  0  0  0  0
 18 12  1  0  0  0  0
 18 13  1  0  0  0  0
 18 14  2  0  0  0  0
 18 15  1  0  0  0  0
M  END
>  <DRUGBANK_ID>
DB02393

>  <SECONDARY_ACCESSION_NUMBERS>
EXPT01415

>  <COMMON_NAME>
D-Gluco-2,5-Anhydro-1-Deoxy-1-Phosphonohexitol-6-Phosphate

$$$$
