
 OpenBabel10282417233D

 56 59  0  0  1  0  0  0  0  0999 V2000
    1.0959   -0.0438   -0.0659 C   0  0  0  0  0  0  0  0  0  0  0  0
    0.6728    0.2438    1.3175 C   0  0  0  0  0  0  0  0  0  0  0  0
   -0.0833   -0.5714    2.0250 N   0  0  0  0  0  0  0  0  0  0  0  0
   -0.3923    0.0429    3.1934 N   0  0  0  0  0  0  0  0  0  0  0  0
    0.1779    1.2281    3.1914 C   0  0  0  0  0  0  0  0  0  0  0  0
    0.1896    2.2151    4.3076 C   0  0  2  0  0  0  0  0  0  0  0  0
   -0.5836    1.6728    5.5117 C   0  0  0  0  0  0  0  0  0  0  0  0
    0.3332    0.9477    6.4532 C   0  0  0  0  0  0  0  0  0  0  0  0
    0.4872    1.3384    7.6102 O   0  0  0  0  0  0  0  0  0  0  0  0
    0.9532   -0.1319    5.9003 O   0  0  0  0  0  0  0  0  0  0  0  0
    1.8837   -0.9062    6.7092 C   0  0  0  0  0  0  0  0  0  0  0  0
    3.0737   -0.0363    7.1324 C   0  0  0  0  0  0  0  0  0  0  0  0
    1.1683   -1.5244    7.9159 C   0  0  0  0  0  0  0  0  0  0  0  0
    2.4354   -2.0625    5.8505 C   0  0  0  0  0  0  0  0  0  0  0  0
   -0.4576    3.4625    3.8917 N   0  0  0  0  0  0  0  0  0  0  0  0
    0.0229    4.1949    2.9504 C   0  0  0  0  0  0  0  0  0  0  0  0
    1.2253    3.8823    2.1557 C   0  0  0  0  0  0  0  0  0  0  0  0
    1.5531    2.6192    1.6905 C   0  0  0  0  0  0  0  0  0  0  0  0
    2.9169    2.6137    0.6801 S   0  0  0  0  0  0  0  0  0  0  0  0
    3.1660    4.3003    0.8654 C   0  0  0  0  0  0  0  0  0  0  0  0
    4.3201    4.9994    0.2006 C   0  0  0  0  0  0  0  0  0  0  0  0
    2.1875    4.8679    1.6659 C   0  0  0  0  0  0  0  0  0  0  0  0
    2.1327    6.3280    1.9952 C   0  0  0  0  0  0  0  0  0  0  0  0
    0.8751    1.4305    2.0121 N   0  0  0  0  0  0  0  0  0  0  0  0
   -0.6960    5.4516    2.6231 C   0  0  0  0  0  0  0  0  0  0  0  0
   -1.1795    5.6617    1.3249 C   0  0  0  0  0  0  0  0  0  0  0  0
   -1.7593    6.8889    0.9976 C   0  0  0  0  0  0  0  0  0  0  0  0
   -1.8507    7.8934    1.9631 C   0  0  0  0  0  0  0  0  0  0  0  0
   -2.5556    9.4070    1.5491 Cl  0  0  0  0  0  0  0  0  0  0  0  0
   -1.3670    7.6853    3.2565 C   0  0  0  0  0  0  0  0  0  0  0  0
   -0.7922    6.4577    3.5934 C   0  0  0  0  0  0  0  0  0  0  0  0
    0.7125    0.7137   -0.7549 H   0  0  0  0  0  0  0  0  0  0  0  0
    0.6949   -1.0126   -0.3860 H   0  0  0  0  0  0  0  0  0  0  0  0
    2.1827   -0.1036   -0.1331 H   0  0  0  0  0  0  0  0  0  0  0  0
    1.2226    2.4278    4.6155 H   0  0  0  0  0  0  0  0  0  0  0  0
   -1.0085    2.5085    6.0859 H   0  0  0  0  0  0  0  0  0  0  0  0
   -1.4339    1.0312    5.2533 H   0  0  0  0  0  0  0  0  0  0  0  0
    2.7670    0.8203    7.7365 H   0  0  0  0  0  0  0  0  0  0  0  0
    3.7943   -0.6101    7.7230 H   0  0  0  0  0  0  0  0  0  0  0  0
    3.5848    0.3725    6.2531 H   0  0  0  0  0  0  0  0  0  0  0  0
    0.3390   -2.1614    7.5879 H   0  0  0  0  0  0  0  0  0  0  0  0
    1.8560   -2.1247    8.5194 H   0  0  0  0  0  0  0  0  0  0  0  0
    0.7355   -0.7683    8.5741 H   0  0  0  0  0  0  0  0  0  0  0  0
    1.6358   -2.7245    5.5004 H   0  0  0  0  0  0  0  0  0  0  0  0
    2.9550   -1.6934    4.9592 H   0  0  0  0  0  0  0  0  0  0  0  0
    3.1466   -2.6706    6.4255 H   0  0  0  0  0  0  0  0  0  0  0  0
    5.2818    4.6361    0.5743 H   0  0  0  0  0  0  0  0  0  0  0  0
    4.2829    4.8991   -0.8876 H   0  0  0  0  0  0  0  0  0  0  0  0
    4.3109    6.0759    0.3997 H   0  0  0  0  0  0  0  0  0  0  0  0
    1.2449    6.7813    1.5551 H   0  0  0  0  0  0  0  0  0  0  0  0
    2.1309    6.4597    3.0802 H   0  0  0  0  0  0  0  0  0  0  0  0
    2.9654    6.9050    1.5984 H   0  0  0  0  0  0  0  0  0  0  0  0
   -1.0792    4.8920    0.5636 H   0  0  0  0  0  0  0  0  0  0  0  0
   -2.1259    7.0602   -0.0113 H   0  0  0  0  0  0  0  0  0  0  0  0
   -1.4268    8.4766    3.9998 H   0  0  0  0  0  0  0  0  0  0  0  0
   -0.3782    6.3056    4.5879 H   0  0  0  0  0  0  0  0  0  0  0  0
  1  2  1  0  0  0  0
  1 32  1  0  0  0  0
  1 33  1  0  0  0  0
  1 34  1  0  0  0  0
  2  3  2  0  0  0  0
  2 24  1  0  0  0  0
  3  4  1  0  0  0  0
  4  5  2  0  0  0  0
  5 24  1  0  0  0  0
  6  5  1  0  0  0  0
  6 15  1  0  0  0  0
  6 35  1  1  0  0  0
  6  7  1  0  0  0  0
  7  8  1  0  0  0  0
  7 36  1  0  0  0  0
  7 37  1  0  0  0  0
  8  9  2  0  0  0  0
  8 10  1  0  0  0  0
 10 11  1  0  0  0  0
 11 12  1  0  0  0  0
 11 13  1  0  0  0  0
 11 14  1  0  0  0  0
 12 38  1  0  0  0  0
 12 39  1  0  0  0  0
 12 40  1  0  0  0  0
 13 41  1  0  0  0  0
 13 42  1  0  0  0  0
 13 43  1  0  0  0  0
 14 44  1  0  0  0  0
 14 45  1  0  0  0  0
 14 46  1  0  0  0  0
 15 16  2  0  0  0  0
 16 17  1  0  0  0  0
 16 25  1  0  0  0  0
 17 18  2  0  0  0  0
 17 22  1  0  0  0  0
 18 19  1  0  0  0  0
 18 24  1  0  0  0  0
 19 20  1  0  0  0  0
 20 21  1  0  0  0  0
 20 22  2  0  0  0  0
 21 47  1  0  0  0  0
 21 48  1  0  0  0  0
 21 49  1  0  0  0  0
 22 23  1  0  0  0  0
 23 50  1  0  0  0  0
 23 51  1  0  0  0  0
 23 52  1  0  0  0  0
 25 26  2  0  0  0  0
 25 31  1  0  0  0  0
 26 27  1  0  0  0  0
 26 53  1  0  0  0  0
 27 28  2  0  0  0  0
 27 54  1  0  0  0  0
 28 29  1  0  0  0  0
 28 30  1  0  0  0  0
 30 31  2  0  0  0  0
 30 55  1  0  0  0  0
 31 56  1  0  0  0  0
M  END
>  <DRUGBANK_ID>
DB17021

>  <COMMON_NAME>
JQ1

>  <CAS_NUMBER>
1268524-70-4

>  <UNII>
1MRH0IMX0W

>  <SYNONYMS>
(s)-(+)-tert-butyl 2-(4-(4-chlorophenyl)-2,3,9-trimethyl-6h-thieno(3,2-f)(1,2,4)triazolo(4,3-a)(1,4)diazepin-6-yl)acetate; 6h-thieno(3,2-f)(1,2,4)triazolo(4,3-a)(1,4)diazepine-6-acetic acid, 4-(4-chlorophenyl)-2,3,9-trimethyl-, 1,1-dimethylethyl ester, (6s)-; Tert-butyl 2-((6s)-4-(4-chlorophenyl)-2,3,9-trimethyl-6h-thieno(3,2-f)(1,2,4)triazolo(4,3-a)(1,4)diazepin-6-yl)acetate

$$$$
