
 OpenBabel10282417153D

 61 63  0  0  1  0  0  0  0  0999 V2000
    1.1044   -0.1304    0.1452 C   0  0  0  0  0  0  0  0  0  0  0  0
    0.6022    0.7982   -0.9517 C   0  0  1  0  0  0  0  0  0  0  0  0
    1.0304    0.3161   -2.4378 C   0  0  1  0  0  0  0  0  0  0  0  0
    0.4611   -1.0947   -2.6968 C   0  0  0  0  0  0  0  0  0  0  0  0
   -1.0612   -1.1387   -2.7509 C   0  0  0  0  0  0  0  0  0  0  0  0
   -1.8562    0.0238   -2.8857 C   0  0  0  0  0  0  0  0  0  0  0  0
   -3.2307    0.0404   -2.7724 C   0  0  0  0  0  0  0  0  0  0  0  0
   -3.8724   -1.1606   -2.6397 C   0  0  0  0  0  0  0  0  0  0  0  0
   -3.1335   -2.3492   -2.6293 C   0  0  0  0  0  0  0  0  0  0  0  0
   -1.7313   -2.3452   -2.6653 C   0  0  0  0  0  0  0  0  0  0  0  0
   -5.5793   -1.1603   -2.5033 Cl  0  0  0  0  0  0  0  0  0  0  0  0
    0.8553    1.2432   -3.6867 C   0  0  0  0  0  0  0  0  0  0  0  0
    0.1214    0.8479   -4.8268 C   0  0  0  0  0  0  0  0  0  0  0  0
   -0.2689    1.7479   -5.8144 C   0  0  0  0  0  0  0  0  0  0  0  0
    0.0779    3.0830   -5.7014 C   0  0  0  0  0  0  0  0  0  0  0  0
    0.8716    3.4960   -4.6376 C   0  0  0  0  0  0  0  0  0  0  0  0
    1.3537    2.5528   -3.7079 C   0  0  0  0  0  0  0  0  0  0  0  0
    1.0697    4.9102   -4.4142 C   0  0  0  0  0  0  0  0  0  0  0  0
    1.1701    6.0295   -4.1739 N   0  0  0  0  0  0  0  0  0  0  0  0
   -0.8500    1.0300   -0.6414 N   0  0  0  0  0  0  0  0  0  0  0  0
   -1.6459    2.1640   -0.5521 C   0  0  0  0  0  0  0  0  0  0  0  0
   -2.8700    2.0416   -0.6223 O   0  0  0  0  0  0  0  0  0  0  0  0
   -0.9746    3.5401   -0.3976 C   0  0  0  0  0  0  0  0  0  0  0  0
   -0.0739    3.4253    0.8292 C   0  0  0  0  0  0  0  0  0  0  0  0
   -0.1996    3.7103   -1.6571 C   0  0  0  0  0  0  0  0  0  0  0  0
   -1.9272    4.6020   -0.2916 O   0  0  0  0  0  0  0  0  0  0  0  0
   -1.4086    5.8646   -0.1748 C   0  0  0  0  0  0  0  0  0  0  0  0
   -0.4464    6.4005   -1.0244 C   0  0  0  0  0  0  0  0  0  0  0  0
    0.1384    7.6170   -0.7639 C   0  0  0  0  0  0  0  0  0  0  0  0
   -0.3942    8.3769    0.2532 C   0  0  0  0  0  0  0  0  0  0  0  0
   -1.4370    7.8335    0.9942 C   0  0  0  0  0  0  0  0  0  0  0  0
   -1.9250    6.5822    0.8299 N   0  0  0  0  0  0  0  0  0  0  0  0
    0.0964    9.7559    0.4974 C   0  0  0  0  0  0  0  0  0  0  0  0
   -0.8730   10.6877    0.3073 F   0  0  0  0  0  0  0  0  0  0  0  0
    0.5547    9.9200    1.7645 F   0  0  0  0  0  0  0  0  0  0  0  0
    1.1251   10.1110   -0.3235 F   0  0  0  0  0  0  0  0  0  0  0  0
    0.7061   -1.1413    0.0480 H   0  0  0  0  0  0  0  0  0  0  0  0
    0.7740    0.2424    1.1220 H   0  0  0  0  0  0  0  0  0  0  0  0
    2.1953   -0.1537    0.1342 H   0  0  0  0  0  0  0  0  0  0  0  0
    1.1762    1.7047   -0.7905 H   0  0  0  0  0  0  0  0  0  0  0  0
    2.1259    0.2242   -2.3775 H   0  0  0  0  0  0  0  0  0  0  0  0
    0.8841   -1.4909   -3.6278 H   0  0  0  0  0  0  0  0  0  0  0  0
    0.8302   -1.7746   -1.9187 H   0  0  0  0  0  0  0  0  0  0  0  0
   -1.4298    1.0206   -2.9480 H   0  0  0  0  0  0  0  0  0  0  0  0
   -3.7413    1.0009   -2.7266 H   0  0  0  0  0  0  0  0  0  0  0  0
   -3.6571   -3.2951   -2.5853 H   0  0  0  0  0  0  0  0  0  0  0  0
   -1.1742   -3.2771   -2.6226 H   0  0  0  0  0  0  0  0  0  0  0  0
   -0.2786   -0.1584   -4.9392 H   0  0  0  0  0  0  0  0  0  0  0  0
   -0.8812    1.3965   -6.6404 H   0  0  0  0  0  0  0  0  0  0  0  0
   -0.2626    3.7912   -6.4501 H   0  0  0  0  0  0  0  0  0  0  0  0
    1.9720    2.8997   -2.8791 H   0  0  0  0  0  0  0  0  0  0  0  0
   -1.4356    0.1984   -0.6585 H   0  0  0  0  0  0  0  0  0  0  0  0
    0.6638    2.6278    0.7649 H   0  0  0  0  0  0  0  0  0  0  0  0
    0.5040    4.3333    0.9871 H   0  0  0  0  0  0  0  0  0  0  0  0
   -0.6781    3.1935    1.7077 H   0  0  0  0  0  0  0  0  0  0  0  0
   -0.8290    3.9437   -2.5232 H   0  0  0  0  0  0  0  0  0  0  0  0
    0.6813    4.3470   -1.5573 H   0  0  0  0  0  0  0  0  0  0  0  0
    0.2437    2.7846   -1.8678 H   0  0  0  0  0  0  0  0  0  0  0  0
   -0.1171    5.9482   -1.9396 H   0  0  0  0  0  0  0  0  0  0  0  0
    0.9505    7.9659   -1.3999 H   0  0  0  0  0  0  0  0  0  0  0  0
   -1.9382    8.4092    1.7657 H   0  0  0  0  0  0  0  0  0  0  0  0
  1 37  1  0  0  0  0
  1 38  1  0  0  0  0
  1 39  1  0  0  0  0
  2  1  1  0  0  0  0
  2  3  1  0  0  0  0
  2 20  1  0  0  0  0
  2 40  1  1  0  0  0
  3  4  1  0  0  0  0
  3 12  1  0  0  0  0
  3 41  1  1  0  0  0
  4  5  1  0  0  0  0
  4 42  1  0  0  0  0
  4 43  1  0  0  0  0
  5  6  2  0  0  0  0
  5 10  1  0  0  0  0
  6  7  1  0  0  0  0
  6 44  1  0  0  0  0
  7  8  2  0  0  0  0
  7 45  1  0  0  0  0
  8  9  1  0  0  0  0
  8 11  1  0  0  0  0
  9 10  2  0  0  0  0
  9 46  1  0  0  0  0
 10 47  1  0  0  0  0
 12 13  2  0  0  0  0
 12 17  1  0  0  0  0
 13 14  1  0  0  0  0
 13 48  1  0  0  0  0
 14 15  2  0  0  0  0
 14 49  1  0  0  0  0
 15 16  1  0  0  0  0
 15 50  1  0  0  0  0
 16 17  2  0  0  0  0
 16 18  1  0  0  0  0
 17 51  1  0  0  0  0
 18 19  3  0  0  0  0
 20 21  1  0  0  0  0
 20 52  1  0  0  0  0
 21 22  2  0  0  0  0
 21 23  1  0  0  0  0
 23 24  1  0  0  0  0
 23 25  1  0  0  0  0
 23 26  1  0  0  0  0
 24 53  1  0  0  0  0
 24 54  1  0  0  0  0
 24 55  1  0  0  0  0
 25 56  1  0  0  0  0
 25 57  1  0  0  0  0
 25 58  1  0  0  0  0
 26 27  1  0  0  0  0
 27 28  2  0  0  0  0
 27 32  1  0  0  0  0
 28 29  1  0  0  0  0
 28 59  1  0  0  0  0
 29 30  2  0  0  0  0
 29 60  1  0  0  0  0
 30 31  1  0  0  0  0
 30 33  1  0  0  0  0
 31 32  2  0  0  0  0
 31 61  1  0  0  0  0
 33 34  1  0  0  0  0
 33 35  1  0  0  0  0
 33 36  1  0  0  0  0
M  END
>  <DRUGBANK_ID>
DB06624

>  <COMMON_NAME>
Taranabant

>  <CAS_NUMBER>
701977-09-5

>  <UNII>
X9U622S114

>  <SYNONYMS>
Taranabant

$$$$
