
 OpenBabel10282417203D

 44 45  0  0  0  0  0  0  0  0999 V2000
    1.0453    0.0584   -0.0654 C   0  0  0  0  0  0  0  0  0  0  0  0
   -5.7731    0.9003    5.6704 C   0  0  0  0  0  0  0  0  0  0  0  0
   -3.6035    0.2159    5.0491 C   0  0  0  0  0  0  0  0  0  0  0  0
    0.6053   -0.9792    0.9509 C   0  0  0  0  0  0  0  0  0  0  0  0
    0.9887   -0.5879    2.3870 C   0  0  0  0  0  0  0  0  0  0  0  0
   -5.1610    3.4286    2.7319 C   0  0  0  0  0  0  0  0  0  0  0  0
   -5.9069    2.3078    2.4725 C   0  0  0  0  0  0  0  0  0  0  0  0
   -3.7685    3.3628    2.6549 C   0  0  0  0  0  0  0  0  0  0  0  0
    0.4029    0.7649    2.8176 C   0  0  0  0  0  0  0  0  0  0  0  0
   -5.2721    1.1332    2.0756 C   0  0  0  0  0  0  0  0  0  0  0  0
   -5.4690   -1.1726    4.2499 C   0  0  0  0  0  0  0  0  0  0  0  0
   -4.9994   -1.7194    2.8256 C   0  0  0  0  0  0  0  0  0  0  0  0
   -1.7240    2.0823    2.6170 C   0  0  0  0  0  0  0  0  0  0  0  0
   -3.1119    2.1389    2.4048 C   0  0  0  0  0  0  0  0  0  0  0  0
   -1.0982    0.8488    2.6062 C   0  0  0  0  0  0  0  0  0  0  0  0
   -3.8552    0.9752    2.1289 C   0  0  0  0  0  0  0  0  0  0  0  0
   -3.1405   -0.2581    2.1770 C   0  0  0  0  0  0  0  0  0  0  0  0
   -1.7950   -0.2901    2.4092 N   0  0  0  0  0  0  0  0  0  0  0  0
   -5.0097    0.1473    4.6943 N   0  0  0  0  0  0  0  0  0  0  0  0
   -3.6567   -1.5147    2.3778 O   0  0  0  0  0  0  0  0  0  0  0  0
    0.6316    1.0492    0.1494 H   0  0  0  0  0  0  0  0  0  0  0  0
    0.6908   -0.2199   -1.0604 H   0  0  0  0  0  0  0  0  0  0  0  0
    2.1345    0.1348   -0.0770 H   0  0  0  0  0  0  0  0  0  0  0  0
   -5.5719    0.5582    6.6889 H   0  0  0  0  0  0  0  0  0  0  0  0
   -5.4615    1.9556    5.6156 H   0  0  0  0  0  0  0  0  0  0  0  0
   -6.8497    0.9011    5.4823 H   0  0  0  0  0  0  0  0  0  0  0  0
   -3.3501   -0.1684    6.0315 H   0  0  0  0  0  0  0  0  0  0  0  0
   -3.0087   -0.3964    4.3971 H   0  0  0  0  0  0  0  0  0  0  0  0
   -3.2598    1.2530    4.9576 H   0  0  0  0  0  0  0  0  0  0  0  0
   -0.4721   -1.1129    0.8350 H   0  0  0  0  0  0  0  0  0  0  0  0
    1.0257   -1.9601    0.7143 H   0  0  0  0  0  0  0  0  0  0  0  0
    0.6551   -1.3671    3.0850 H   0  0  0  0  0  0  0  0  0  0  0  0
    2.0830   -0.5516    2.4684 H   0  0  0  0  0  0  0  0  0  0  0  0
   -5.6573    4.3361    3.0612 H   0  0  0  0  0  0  0  0  0  0  0  0
   -6.9735    2.2704    2.6881 H   0  0  0  0  0  0  0  0  0  0  0  0
   -3.2036    4.2452    2.9254 H   0  0  0  0  0  0  0  0  0  0  0  0
    0.6712    0.9723    3.8632 H   0  0  0  0  0  0  0  0  0  0  0  0
    0.8798    1.5607    2.2318 H   0  0  0  0  0  0  0  0  0  0  0  0
   -5.9497    0.3101    1.9736 H   0  0  0  0  0  0  0  0  0  0  0  0
   -6.5689   -1.1646    4.1935 H   0  0  0  0  0  0  0  0  0  0  0  0
   -5.2124   -1.9130    5.0135 H   0  0  0  0  0  0  0  0  0  0  0  0
   -5.6594   -1.4604    1.9945 H   0  0  0  0  0  0  0  0  0  0  0  0
   -5.1543   -2.8075    2.8601 H   0  0  0  0  0  0  0  0  0  0  0  0
   -1.1528    2.9675    2.8590 H   0  0  0  0  0  0  0  0  0  0  0  0
  1 21  1  0  0  0  0
  1 22  1  0  0  0  0
  1 23  1  0  0  0  0
  2 24  1  0  0  0  0
  2 25  1  0  0  0  0
  2 26  1  0  0  0  0
  3 27  1  0  0  0  0
  3 28  1  0  0  0  0
  3 29  1  0  0  0  0
  4  1  1  0  0  0  0
  4 30  1  0  0  0  0
  4 31  1  0  0  0  0
  5  4  1  0  0  0  0
  5 32  1  0  0  0  0
  5 33  1  0  0  0  0
  6 34  1  0  0  0  0
  7  6  2  0  0  0  0
  7 35  1  0  0  0  0
  8  6  1  0  0  0  0
  8 36  1  0  0  0  0
  9  5  1  0  0  0  0
  9 37  1  0  0  0  0
  9 38  1  0  0  0  0
 10  7  1  0  0  0  0
 10 39  1  0  0  0  0
 11 40  1  0  0  0  0
 11 41  1  0  0  0  0
 12 11  1  0  0  0  0
 12 42  1  0  0  0  0
 12 43  1  0  0  0  0
 13 44  1  0  0  0  0
 14  8  2  0  0  0  0
 14 13  1  0  0  0  0
 15  9  1  0  0  0  0
 15 13  2  0  0  0  0
 16 10  2  0  0  0  0
 16 14  1  0  0  0  0
 17 16  1  0  0  0  0
 18 15  1  0  0  0  0
 18 17  2  0  0  0  0
 19  2  1  0  0  0  0
 19  3  1  0  0  0  0
 19 11  1  0  0  0  0
 20 12  1  0  0  0  0
 20 17  1  0  0  0  0
M  END
>  <DRUGBANK_ID>
DB13683

>  <COMMON_NAME>
Quinisocaine

>  <CAS_NUMBER>
86-80-6

>  <UNII>
772EN3BH6I

>  <SYNONYMS>
Dimethisoquin; Quinisocaine

$$$$
