
 OpenBabel10282417183D

 47 50  0  0  1  0  0  0  0  0999 V2000
    4.3162   -2.1186  -10.9120 O   0  0  0  0  0  0  0  0  0  0  0  0
   -0.7553   -1.2449   -5.0179 O   0  0  0  0  0  0  0  0  0  0  0  0
    4.6617   -4.8385   -8.9867 C   0  0  2  0  0  0  0  0  0  0  0  0
    4.9183   -3.5061   -9.2345 C   0  0  2  0  0  0  0  0  0  0  0  0
    4.6080   -2.8582   -7.8205 C   0  0  1  0  0  0  0  0  0  0  0  0
    3.5732   -3.3619  -10.1992 C   0  0  2  0  0  0  0  0  0  0  0  0
    3.5974   -4.7427  -10.0681 C   0  0  0  0  0  0  0  0  0  0  0  0
    3.1391   -4.2137  -11.3468 C   0  0  0  0  0  0  0  0  0  0  0  0
    6.4171   -5.5254   -8.6626 C   0  0  0  0  0  0  0  0  0  0  0  0
    3.6812   -3.6121   -6.7515 C   0  0  0  0  0  0  0  0  0  0  0  0
    4.3662   -5.5117   -7.6091 C   0  0  0  0  0  0  0  0  0  0  0  0
    4.0187   -1.4983   -7.9895 C   0  0  0  0  0  0  0  0  0  0  0  0
    3.8806   -4.9644   -6.5202 C   0  0  0  0  0  0  0  0  0  0  0  0
    2.7359   -2.9620   -6.0734 C   0  0  0  0  0  0  0  0  0  0  0  0
    2.5734   -1.8698   -8.0529 C   0  0  0  0  0  0  0  0  0  0  0  0
    2.1414   -1.8056   -6.7169 C   0  0  0  0  0  0  0  0  0  0  0  0
    1.9322   -2.4616  -10.2940 C   0  0  0  0  0  0  0  0  0  0  0  0
    6.7786   -7.0163   -7.6796 C   0  0  0  0  0  0  0  0  0  0  0  0
    2.5042   -2.9470   -4.6292 C   0  0  0  0  0  0  0  0  0  0  0  0
    1.1162   -1.0574   -6.3517 C   0  0  0  0  0  0  0  0  0  0  0  0
    0.9918   -2.8513   -4.5528 C   0  0  0  0  0  0  0  0  0  0  0  0
    0.3926   -1.6274   -5.2194 C   0  0  0  0  0  0  0  0  0  0  0  0
    1.1283   -1.4976  -10.1390 C   0  0  0  0  0  0  0  0  0  0  0  0
    5.8733   -3.3990   -9.8093 H   0  0  0  0  0  0  0  0  0  0  0  0
    5.5570   -2.7443   -7.3059 H   0  0  0  0  0  0  0  0  0  0  0  0
    3.6933   -1.3319  -10.9643 H   0  0  0  0  0  0  0  0  0  0  0  0
    3.8610   -5.8441  -10.2974 H   0  0  0  0  0  0  0  0  0  0  0  0
    2.6902   -4.8981   -9.3511 H   0  0  0  0  0  0  0  0  0  0  0  0
    3.7866   -4.7033  -12.0446 H   0  0  0  0  0  0  0  0  0  0  0  0
    2.9964   -3.3382  -11.9925 H   0  0  0  0  0  0  0  0  0  0  0  0
    6.9777   -5.8026   -9.5630 H   0  0  0  0  0  0  0  0  0  0  0  0
    7.0537   -4.8464   -8.0453 H   0  0  0  0  0  0  0  0  0  0  0  0
    4.7191   -6.5119   -7.3581 H   0  0  0  0  0  0  0  0  0  0  0  0
    4.6856   -1.3666   -8.8632 H   0  0  0  0  0  0  0  0  0  0  0  0
    3.9386   -0.4257   -8.3310 H   0  0  0  0  0  0  0  0  0  0  0  0
    3.5650   -5.5612   -5.6699 H   0  0  0  0  0  0  0  0  0  0  0  0
    1.9136   -2.7544   -8.3279 H   0  0  0  0  0  0  0  0  0  0  0  0
    2.7457   -1.4331   -8.9816 H   0  0  0  0  0  0  0  0  0  0  0  0
    6.2533   -7.9009   -8.0685 H   0  0  0  0  0  0  0  0  0  0  0  0
    7.8497   -7.3354   -7.6345 H   0  0  0  0  0  0  0  0  0  0  0  0
    6.5643   -6.9261   -6.5908 H   0  0  0  0  0  0  0  0  0  0  0  0
    2.8965   -3.3207   -3.6819 H   0  0  0  0  0  0  0  0  0  0  0  0
    3.2747   -2.1573   -4.5615 H   0  0  0  0  0  0  0  0  0  0  0  0
    0.6805   -0.3199   -7.0075 H   0  0  0  0  0  0  0  0  0  0  0  0
    0.5870   -3.0285   -3.5601 H   0  0  0  0  0  0  0  0  0  0  0  0
    0.5927   -3.6774   -5.1589 H   0  0  0  0  0  0  0  0  0  0  0  0
    0.6619   -0.6294   -9.5723 H   0  0  0  0  0  0  0  0  0  0  0  0
  1 26  1  0  0  0  0
  2 22  2  0  0  0  0
  3  4  1  0  0  0  0
  3  6  1  0  0  0  0
  3 11  1  0  0  0  0
  3  9  1  1  0  0  0
  4  5  1  0  0  0  0
  4  7  1  0  0  0  0
  4 24  1  6  0  0  0
  5 10  1  0  0  0  0
  5 12  1  0  0  0  0
  5 25  1  6  0  0  0
  6  8  1  0  0  0  0
  6  1  1  0  0  0  0
  6 17  1  1  0  0  0
  7  8  1  0  0  0  0
  7 27  1  0  0  0  0
  7 28  1  0  0  0  0
  8 29  1  0  0  0  0
  8 30  1  0  0  0  0
  9 18  1  0  0  0  0
  9 31  1  0  0  0  0
  9 32  1  0  0  0  0
 10 13  1  0  0  0  0
 10 14  2  0  0  0  0
 11 13  2  0  0  0  0
 11 33  1  0  0  0  0
 12 15  1  0  0  0  0
 12 34  1  0  0  0  0
 12 35  1  0  0  0  0
 13 36  1  0  0  0  0
 14 16  1  0  0  0  0
 14 19  1  0  0  0  0
 15 16  1  0  0  0  0
 15 37  1  0  0  0  0
 15 38  1  0  0  0  0
 16 20  2  0  0  0  0
 17 23  3  0  0  0  0
 18 39  1  0  0  0  0
 18 40  1  0  0  0  0
 18 41  1  0  0  0  0
 19 21  1  0  0  0  0
 19 42  1  0  0  0  0
 19 43  1  0  0  0  0
 20 22  1  0  0  0  0
 20 44  1  0  0  0  0
 21 22  1  0  0  0  0
 21 45  1  0  0  0  0
 21 46  1  0  0  0  0
 23 47  1  0  0  0  0
M  END
>  <DRUGBANK_ID>
DB11619

>  <COMMON_NAME>
Gestrinone

>  <CAS_NUMBER>
16320-04-0

>  <UNII>
1421533RCM

>  <SYNONYMS>
Ethylnorgestrienone; Gestrinona; Gestrinone; Gestrinonum

$$$$
