
 OpenBabel10282417193D

 58 61  0  0  0  0  0  0  0  0999 V2000
    1.0390    0.0247    0.1177 C   0  0  0  0  0  0  0  0  0  0  0  0
    0.5200    1.3046    0.4600 O   0  0  0  0  0  0  0  0  0  0  0  0
    0.9575    1.8074    1.6557 C   0  0  0  0  0  0  0  0  0  0  0  0
    2.2720    1.6897    2.0803 C   0  0  0  0  0  0  0  0  0  0  0  0
    2.6600    2.3316    3.2462 C   0  0  0  0  0  0  0  0  0  0  0  0
    1.7390    3.1042    3.9497 C   0  0  0  0  0  0  0  0  0  0  0  0
    0.4342    3.1391    3.4710 C   0  0  0  0  0  0  0  0  0  0  0  0
    0.0307    2.5219    2.3318 N   0  0  0  0  0  0  0  0  0  0  0  0
    2.1922    3.7919    5.1582 C   0  0  0  0  0  0  0  0  0  0  0  0
    3.3384    4.4607    5.2384 C   0  0  0  0  0  0  0  0  0  0  0  0
    3.8604    5.0709    6.5749 C   0  0  0  0  0  0  0  0  0  0  0  0
    4.9972    5.8240    6.6986 C   0  0  0  0  0  0  0  0  0  0  0  0
    5.0615    7.1032    7.8501 C   0  0  0  0  0  0  0  0  0  0  0  0
    5.3159    6.2156    5.5149 N   0  0  0  0  0  0  0  0  0  0  0  0
    4.5559    7.2373    5.3722 C   0  0  0  0  0  0  0  0  0  0  0  0
    5.5111    8.1253    4.7181 N   0  0  0  0  0  0  0  0  0  0  0  0
    3.1756    7.1345    6.1509 N   0  0  0  0  0  0  0  0  0  0  0  0
    2.8732    5.8472    6.9758 C   0  0  0  0  0  0  0  0  0  0  0  0
    1.6566    4.8165    7.2919 N   0  0  0  0  0  0  0  0  0  0  0  0
    1.0785    4.4009    8.6365 C   0  0  2  0  0  0  0  0  0  0  0  0
    0.1374    5.4858    9.0730 C   0  0  0  0  0  0  0  0  0  0  0  0
   -0.5944    4.8894   10.2450 C   0  0  0  0  0  0  0  0  0  0  0  0
    0.2708    4.8550   11.5106 C   0  0  2  0  0  0  0  0  0  0  0  0
    1.1314    3.6161   11.2369 C   0  0  0  0  0  0  0  0  0  0  0  0
    1.9020    3.7897    9.8570 C   0  0  0  0  0  0  0  0  0  0  0  0
   -0.4668    4.7198   12.7254 O   0  0  0  0  0  0  0  0  0  0  0  0
   -1.8598    5.0211   12.6104 C   0  0  0  0  0  0  0  0  0  0  0  0
   -2.1785    6.5084   12.2903 C   0  0  0  0  0  0  0  0  0  0  0  0
   -1.5740    7.1583   11.1699 O   0  0  0  0  0  0  0  0  0  0  0  0
    1.4013    3.7089    6.4003 C   0  0  0  0  0  0  0  0  0  0  0  0
    0.6202    2.8124    6.5412 O   0  0  0  0  0  0  0  0  0  0  0  0
    0.6640   -0.2308   -0.8778 H   0  0  0  0  0  0  0  0  0  0  0  0
    0.6878   -0.7357    0.8221 H   0  0  0  0  0  0  0  0  0  0  0  0
    2.1310    0.0075    0.0471 H   0  0  0  0  0  0  0  0  0  0  0  0
    3.0199    1.1544    1.5146 H   0  0  0  0  0  0  0  0  0  0  0  0
    3.6858    2.2429    3.5931 H   0  0  0  0  0  0  0  0  0  0  0  0
   -0.3436    3.6976    3.9902 H   0  0  0  0  0  0  0  0  0  0  0  0
    3.7792    4.7815    4.2877 H   0  0  0  0  0  0  0  0  0  0  0  0
    6.0754    7.1825    8.2237 H   0  0  0  0  0  0  0  0  0  0  0  0
    4.8098    8.1426    7.4839 H   0  0  0  0  0  0  0  0  0  0  0  0
    4.3304    6.9717    8.6546 H   0  0  0  0  0  0  0  0  0  0  0  0
    6.0428    7.3574    4.2207 H   0  0  0  0  0  0  0  0  0  0  0  0
    6.3876    8.5023    5.1594 H   0  0  0  0  0  0  0  0  0  0  0  0
    0.3915    3.5370    8.4590 H   0  0  0  0  0  0  0  0  0  0  0  0
    0.7201    6.3900    9.2642 H   0  0  0  0  0  0  0  0  0  0  0  0
   -0.5905    5.7054    8.2823 H   0  0  0  0  0  0  0  0  0  0  0  0
   -0.7543    3.8394   10.0089 H   0  0  0  0  0  0  0  0  0  0  0  0
   -1.6569    5.1181   10.2699 H   0  0  0  0  0  0  0  0  0  0  0  0
    0.9460    5.7125   11.6636 H   0  0  0  0  0  0  0  0  0  0  0  0
    1.8133    3.3994   12.0673 H   0  0  0  0  0  0  0  0  0  0  0  0
    0.4533    2.7413   11.2194 H   0  0  0  0  0  0  0  0  0  0  0  0
    2.2973    2.7950    9.6126 H   0  0  0  0  0  0  0  0  0  0  0  0
    2.7207    4.4741   10.0481 H   0  0  0  0  0  0  0  0  0  0  0  0
   -2.3149    4.2914   11.9270 H   0  0  0  0  0  0  0  0  0  0  0  0
   -2.3321    4.7890   13.5707 H   0  0  0  0  0  0  0  0  0  0  0  0
   -3.2520    6.5816   12.1050 H   0  0  0  0  0  0  0  0  0  0  0  0
   -1.8923    7.0987   13.1579 H   0  0  0  0  0  0  0  0  0  0  0  0
   -0.6087    7.1220   11.2595 H   0  0  0  0  0  0  0  0  0  0  0  0
  1  2  1  0  0  0  0
  1 32  1  0  0  0  0
  1 33  1  0  0  0  0
  1 34  1  0  0  0  0
  2  3  1  0  0  0  0
  3  4  2  0  0  0  0
  4  5  1  0  0  0  0
  4 35  1  0  0  0  0
  5  6  2  0  0  0  0
  5 36  1  0  0  0  0
  6  7  1  0  0  0  0
  6  9  1  0  0  0  0
  7  8  2  0  0  0  0
  7 37  1  0  0  0  0
  8  3  1  0  0  0  0
  9 10  2  0  0  0  0
 10 11  1  0  0  0  0
 10 38  1  0  0  0  0
 11 12  2  0  0  0  0
 12 13  1  0  0  0  0
 12 14  1  0  0  0  0
 13 39  1  0  0  0  0
 13 40  1  0  0  0  0
 13 41  1  0  0  0  0
 14 15  2  0  0  0  0
 15 16  1  0  0  0  0
 15 17  1  0  0  0  0
 16 42  1  0  0  0  0
 16 43  1  0  0  0  0
 17 18  2  0  0  0  0
 18 11  1  0  0  0  0
 18 19  1  0  0  0  0
 19 30  1  0  0  0  0
 20 19  1  0  0  0  0
 20 21  1  0  0  0  0
 20 44  1  6  0  0  0
 21 22  1  0  0  0  0
 21 45  1  0  0  0  0
 21 46  1  0  0  0  0
 22 23  1  0  0  0  0
 22 47  1  0  0  0  0
 22 48  1  0  0  0  0
 23 24  1  0  0  0  0
 23 49  1  1  0  0  0
 23 26  1  0  0  0  0
 24 25  1  0  0  0  0
 24 50  1  0  0  0  0
 24 51  1  0  0  0  0
 25 20  1  0  0  0  0
 25 52  1  0  0  0  0
 25 53  1  0  0  0  0
 26 27  1  0  0  0  0
 27 28  1  0  0  0  0
 27 54  1  0  0  0  0
 27 55  1  0  0  0  0
 28 29  1  0  0  0  0
 28 56  1  0  0  0  0
 28 57  1  0  0  0  0
 29 58  1  0  0  0  0
 30  9  1  0  0  0  0
 30 31  2  0  0  0  0
M  END
>  <DRUGBANK_ID>
DB11974

>  <COMMON_NAME>
PF-04691502

>  <CAS_NUMBER>
1013101-36-4

>  <UNII>
4W39NS61KI

$$$$
