
 OpenBabel10282417123D

 20 19  0  0  1  0  0  0  0  0999 V2000
    0.9789    0.2389   -0.2357 C   0  0  0  0  0  0  0  0  0  0  0  0
    0.2393    1.7073    0.5604 S   0  0  0  0  0  0  0  0  0  0  0  0
    0.9289    1.7453    2.2771 C   0  0  0  0  0  0  0  0  0  0  0  0
    0.4765    0.6086    3.2043 C   0  0  0  0  0  0  0  0  0  0  0  0
    0.9887   -0.7625    2.7783 C   0  0  1  0  0  0  0  0  0  0  0  0
    2.4547   -0.7963    2.6570 N   0  0  0  0  0  0  0  0  0  0  0  0
    0.4637   -1.9108    3.6474 C   0  0  0  0  0  0  0  0  0  0  0  0
   -0.3005   -2.8013    2.9510 O   0  0  0  0  0  0  0  0  0  0  0  0
    0.6996   -2.0596    4.8307 O   0  0  0  0  0  0  0  0  0  0  0  0
    0.7547    0.2776   -1.3036 H   0  0  0  0  0  0  0  0  0  0  0  0
    0.5123   -0.7000    0.0653 H   0  0  0  0  0  0  0  0  0  0  0  0
    2.0626    0.1859   -0.1063 H   0  0  0  0  0  0  0  0  0  0  0  0
    2.0192    1.8506    2.2494 H   0  0  0  0  0  0  0  0  0  0  0  0
    0.5710    2.6867    2.7158 H   0  0  0  0  0  0  0  0  0  0  0  0
    0.8117    0.8223    4.2287 H   0  0  0  0  0  0  0  0  0  0  0  0
   -0.6208    0.6002    3.2512 H   0  0  0  0  0  0  0  0  0  0  0  0
    0.5581   -0.9669    1.8164 H   0  0  0  0  0  0  0  0  0  0  0  0
    2.7667   -1.6613    2.2210 H   0  0  0  0  0  0  0  0  0  0  0  0
    2.7989   -0.0372    2.0713 H   0  0  0  0  0  0  0  0  0  0  0  0
   -0.4503   -2.6110    2.0051 H   0  0  0  0  0  0  0  0  0  0  0  0
  1  2  1  0  0  0  0
  1 10  1  0  0  0  0
  1 11  1  0  0  0  0
  1 12  1  0  0  0  0
  2  3  1  0  0  0  0
  3  4  1  0  0  0  0
  3 13  1  0  0  0  0
  3 14  1  0  0  0  0
  4  5  1  0  0  0  0
  4 15  1  0  0  0  0
  4 16  1  0  0  0  0
  5  6  1  0  0  0  0
  5  7  1  0  0  0  0
  5 17  1  6  0  0  0
  6 18  1  0  0  0  0
  6 19  1  0  0  0  0
  7  8  1  0  0  0  0
  7  9  2  0  0  0  0
  8 20  1  0  0  0  0
M  END
>  <DRUGBANK_ID>
DB02893

>  <SECONDARY_ACCESSION_NUMBERS>
EXPT02150

>  <COMMON_NAME>
D-Methionine

>  <CAS_NUMBER>
348-67-4

>  <UNII>
868496F25R

$$$$
