
 OpenBabel10282417233D

 43 45  0  0  0  0  0  0  0  0999 V2000
    0.9524   -0.0651   -0.0851 C   0  0  0  0  0  0  0  0  0  0  0  0
    0.3960   -0.5536   -1.3044 O   0  0  0  0  0  0  0  0  0  0  0  0
    0.8665    0.0673   -2.4298 C   0  0  0  0  0  0  0  0  0  0  0  0
    2.2109    0.3886   -2.6188 C   0  0  0  0  0  0  0  0  0  0  0  0
    2.6321    0.9996   -3.7954 C   0  0  0  0  0  0  0  0  0  0  0  0
    1.7276    1.2149   -4.8256 C   0  0  0  0  0  0  0  0  0  0  0  0
    0.4117    0.7623   -4.7025 C   0  0  0  0  0  0  0  0  0  0  0  0
   -0.0422    0.2687   -3.4700 C   0  0  0  0  0  0  0  0  0  0  0  0
   -0.5010    0.7402   -5.8857 C   0  0  0  0  0  0  0  0  0  0  0  0
   -1.6237    0.2451   -5.7855 O   0  0  0  0  0  0  0  0  0  0  0  0
   -0.0322    1.3862   -7.1898 C   0  0  0  0  0  0  0  0  0  0  0  0
    0.3924    2.7379   -7.1764 O   0  0  0  0  0  0  0  0  0  0  0  0
   -0.4929    3.6631   -6.7050 C   0  0  0  0  0  0  0  0  0  0  0  0
   -1.3534    3.4972   -5.6191 C   0  0  0  0  0  0  0  0  0  0  0  0
   -2.1460    4.5343   -5.1480 C   0  0  0  0  0  0  0  0  0  0  0  0
   -2.0842    5.7780   -5.7613 C   0  0  0  0  0  0  0  0  0  0  0  0
   -3.0091    6.8755   -5.3155 C   0  0  0  0  0  0  0  0  0  0  0  0
   -2.3593    8.1292   -4.7274 C   0  0  3  0  0  0  0  0  0  0  0  0
   -1.1770    9.0758   -5.7504 S   0  0  0  0  0  0  0  0  0  0  0  0
    0.1029    8.9502   -4.5694 C   0  0  0  0  0  0  0  0  0  0  0  0
    1.2265    9.3740   -4.7354 O   0  0  0  0  0  0  0  0  0  0  0  0
   -0.3500    8.3266   -3.4537 N   0  0  0  0  0  0  0  0  0  0  0  0
   -1.6106    7.8137   -3.4506 C   0  0  0  0  0  0  0  0  0  0  0  0
   -2.0763    7.1937   -2.5022 O   0  0  0  0  0  0  0  0  0  0  0  0
   -1.2092    5.9519   -6.8396 C   0  0  0  0  0  0  0  0  0  0  0  0
   -0.4307    4.9038   -7.3192 C   0  0  0  0  0  0  0  0  0  0  0  0
    0.5727   -0.6839    0.7331 H   0  0  0  0  0  0  0  0  0  0  0  0
    0.6284    0.9666    0.0809 H   0  0  0  0  0  0  0  0  0  0  0  0
    2.0437   -0.1337   -0.0465 H   0  0  0  0  0  0  0  0  0  0  0  0
    2.9599    0.1553   -1.8717 H   0  0  0  0  0  0  0  0  0  0  0  0
    3.6752    1.2709   -3.9281 H   0  0  0  0  0  0  0  0  0  0  0  0
    2.0864    1.7141   -5.7197 H   0  0  0  0  0  0  0  0  0  0  0  0
   -1.0950    0.0294   -3.3243 H   0  0  0  0  0  0  0  0  0  0  0  0
    0.8172    0.7874   -7.5461 H   0  0  0  0  0  0  0  0  0  0  0  0
   -0.8097    1.2707   -7.9531 H   0  0  0  0  0  0  0  0  0  0  0  0
   -1.4618    2.5847   -5.0596 H   0  0  0  0  0  0  0  0  0  0  0  0
   -2.8009    4.3358   -4.3005 H   0  0  0  0  0  0  0  0  0  0  0  0
   -3.6529    7.1303   -6.1658 H   0  0  0  0  0  0  0  0  0  0  0  0
   -3.6949    6.4630   -4.5585 H   0  0  0  0  0  0  0  0  0  0  0  0
   -3.1588    8.8329   -4.4833 H   0  0  0  0  0  0  0  0  0  0  0  0
    0.2656    8.1893   -2.6697 H   0  0  0  0  0  0  0  0  0  0  0  0
   -1.1191    6.9086   -7.3393 H   0  0  0  0  0  0  0  0  0  0  0  0
    0.2069    5.0672   -8.1837 H   0  0  0  0  0  0  0  0  0  0  0  0
  1  2  1  0  0  0  0
  1 27  1  0  0  0  0
  1 28  1  0  0  0  0
  1 29  1  0  0  0  0
  2  3  1  0  0  0  0
  3  4  2  0  0  0  0
  3  8  1  0  0  0  0
  4  5  1  0  0  0  0
  4 30  1  0  0  0  0
  5  6  2  0  0  0  0
  5 31  1  0  0  0  0
  6  7  1  0  0  0  0
  6 32  1  0  0  0  0
  7  8  2  0  0  0  0
  7  9  1  0  0  0  0
  8 33  1  0  0  0  0
  9 10  2  0  0  0  0
  9 11  1  0  0  0  0
 11 12  1  0  0  0  0
 11 34  1  0  0  0  0
 11 35  1  0  0  0  0
 12 13  1  0  0  0  0
 13 14  2  0  0  0  0
 13 26  1  0  0  0  0
 14 15  1  0  0  0  0
 14 36  1  0  0  0  0
 15 16  2  0  0  0  0
 15 37  1  0  0  0  0
 16 17  1  0  0  0  0
 16 25  1  0  0  0  0
 17 18  1  0  0  0  0
 17 38  1  0  0  0  0
 17 39  1  0  0  0  0
 18 19  1  0  0  0  0
 18 23  1  0  0  0  0
 18 40  1  0  0  0  0
 19 20  1  0  0  0  0
 20 21  2  0  0  0  0
 20 22  1  0  0  0  0
 22 23  1  0  0  0  0
 22 41  1  0  0  0  0
 23 24  2  0  0  0  0
 25 26  2  0  0  0  0
 25 42  1  0  0  0  0
 26 43  1  0  0  0  0
M  END
>  <DRUGBANK_ID>
DB16028

>  <COMMON_NAME>
Azemiglitazone

>  <CAS_NUMBER>
1133819-87-0

>  <UNII>
81MXZ6QOBM

>  <SYNONYMS>
Azemiglitazone

$$$$
