IFA
 OpenBabel10282417173D

 39 40  0  0  0  0  0  0  0  0999 V2000
    2.3481    0.9433    0.0069 F   0  0  0  0  0  0  0  0  0  0  0  0
    1.2043    0.2430    0.0321 C   0  0  0  0  0  0  0  0  0  0  0  0
    0.0005    0.9404    0.0141 C   0  0  0  0  0  0  0  0  0  0  0  0
   -1.1913    0.2302   -0.0012 C   0  0  0  0  0  0  0  0  0  0  0  0
   -2.3552    0.8919   -0.0112 F   0  0  0  0  0  0  0  0  0  0  0  0
   -1.1981   -1.1592   -0.0060 C   0  0  0  0  0  0  0  0  0  0  0  0
    0.0135   -1.8514    0.0200 C   0  0  0  0  0  0  0  0  0  0  0  0
    1.2403   -1.1580    0.0442 C   0  0  0  0  0  0  0  0  0  0  0  0
    2.5044   -1.9019    0.0060 C   0  0  0  0  0  0  0  0  0  0  0  0
    3.4811   -1.8094    1.0268 C   0  0  0  0  0  0  0  0  0  0  0  0
    2.7425   -2.7372   -1.0899 C   0  0  0  0  0  0  0  0  0  0  0  0
    3.8920   -3.4903   -1.1544 C   0  0  0  0  0  0  0  0  0  0  0  0
    4.2252   -4.6597   -2.8913 I   0  0  0  0  0  0  0  0  0  0  0  0
    4.7936   -3.4944   -0.0858 C   0  0  0  0  0  0  0  0  0  0  0  0
    5.7286   -4.4839   -0.2873 O   0  0  0  0  0  0  0  0  0  0  0  0
    4.6599   -2.6007    1.0264 C   0  0  0  0  0  0  0  0  0  0  0  0
    5.6014   -2.3085    2.2384 C   0  0  0  0  0  0  0  0  0  0  0  0
    5.2455   -1.5115    3.1078 O   0  0  0  0  0  0  0  0  0  0  0  0
    6.8616   -2.8759    2.4041 N   0  0  0  0  0  0  0  0  0  0  0  0
    7.5033   -3.6799    1.4327 C   0  0  0  0  0  0  0  0  0  0  0  0
    8.7398   -3.3579    0.6588 C   0  0  0  0  0  0  0  0  0  0  0  0
    9.8667   -3.4126    1.5999 C   0  0  0  0  0  0  0  0  0  0  0  0
    9.8601   -2.7003    2.6154 O   0  0  0  0  0  0  0  0  0  0  0  0
   10.8543   -4.2931    1.3678 O   0  0  0  0  0  0  0  0  0  0  0  0
   10.8739   -5.1330    0.2032 C   0  0  0  0  0  0  0  0  0  0  0  0
   -0.0045    2.0236    0.0069 H   0  0  0  0  0  0  0  0  0  0  0  0
   -2.1425   -1.6945   -0.0289 H   0  0  0  0  0  0  0  0  0  0  0  0
   -0.0024   -2.9407    0.0180 H   0  0  0  0  0  0  0  0  0  0  0  0
    3.2983   -1.1097    1.8480 H   0  0  0  0  0  0  0  0  0  0  0  0
    2.0205   -2.8120   -1.8972 H   0  0  0  0  0  0  0  0  0  0  0  0
    5.8205   -5.0011    0.5246 H   0  0  0  0  0  0  0  0  0  0  0  0
    7.3791   -2.6056    3.2404 H   0  0  0  0  0  0  0  0  0  0  0  0
    7.4071   -4.7380    1.7035 H   0  0  0  0  0  0  0  0  0  0  0  0
    6.9093   -3.3655    0.6247 H   0  0  0  0  0  0  0  0  0  0  0  0
    8.7769   -4.0936   -0.1568 H   0  0  0  0  0  0  0  0  0  0  0  0
    8.6619   -2.3830    0.1646 H   0  0  0  0  0  0  0  0  0  0  0  0
   10.0443   -5.8482    0.2265 H   0  0  0  0  0  0  0  0  0  0  0  0
   10.8540   -4.5304   -0.7102 H   0  0  0  0  0  0  0  0  0  0  0  0
   11.8095   -5.6936    0.2284 H   0  0  0  0  0  0  0  0  0  0  0  0
  1  2  1  0  0  0  0
  2  3  1  0  0  0  0
  2  8  2  0  0  0  0
  3  4  2  0  0  0  0
  3 26  1  0  0  0  0
  4  5  1  0  0  0  0
  4  6  1  0  0  0  0
  6  7  2  0  0  0  0
  6 27  1  0  0  0  0
  7  8  1  0  0  0  0
  7 28  1  0  0  0  0
  8  9  1  0  0  0  0
  9 10  2  0  0  0  0
  9 11  1  0  0  0  0
 10 16  1  0  0  0  0
 10 29  1  0  0  0  0
 11 12  2  0  0  0  0
 11 30  1  0  0  0  0
 12 13  1  0  0  0  0
 12 14  1  0  0  0  0
 14 16  2  0  0  0  0
 14 15  1  0  0  0  0
 15 31  1  0  0  0  0
 16 17  1  0  0  0  0
 17 18  2  0  0  0  0
 17 19  1  0  0  0  0
 19 20  1  0  0  0  0
 19 32  1  0  0  0  0
 20 21  1  0  0  0  0
 20 33  1  0  0  0  0
 20 34  1  0  0  0  0
 21 22  1  0  0  0  0
 21 35  1  0  0  0  0
 21 36  1  0  0  0  0
 22 24  1  0  0  0  0
 22 23  2  0  0  0  0
 24 25  1  0  0  0  0
 25 37  1  0  0  0  0
 25 38  1  0  0  0  0
 25 39  1  0  0  0  0
M  END
>  <DRUGBANK_ID>
DB07962

>  <COMMON_NAME>
METHYL N-[(2',4'-DIFLUORO-4-HYDROXY-5-IODOBIPHENYL-3-YL)CARBONYL]-BETA-ALANINATE

$$$$
