
 OpenBabel10282417203D

 64 67  0  0  1  0  0  0  0  0999 V2000
    0.9347    0.0528    0.0363 C   0  0  0  0  0  0  0  0  0  0  0  0
    0.4707    1.0416    1.0767 C   0  0  0  0  0  0  0  0  0  0  0  0
    0.7393    2.4349    0.8890 C   0  0  0  0  0  0  0  0  0  0  0  0
    0.4123    3.3754    1.8946 C   0  0  0  0  0  0  0  0  0  0  0  0
   -0.1573    2.9206    3.0240 N   0  0  0  0  0  0  0  0  0  0  0  0
   -0.4785    1.5718    3.1854 N   0  0  0  0  0  0  0  0  0  0  0  0
   -0.1602    0.6419    2.2541 C   0  0  0  0  0  0  0  0  0  0  0  0
   -0.5454   -0.7927    2.5792 C   0  0  0  0  0  0  0  0  0  0  0  0
    0.2014   -1.3946    3.7514 C   0  0  0  0  0  0  0  0  0  0  0  0
    0.0855   -0.8134    5.0242 C   0  0  0  0  0  0  0  0  0  0  0  0
    0.8748   -1.2665    6.0800 C   0  0  0  0  0  0  0  0  0  0  0  0
    1.6975   -2.3691    5.9091 C   0  0  0  0  0  0  0  0  0  0  0  0
    1.7368   -3.0307    4.6800 C   0  0  0  0  0  0  0  0  0  0  0  0
    1.0181   -2.5193    3.5945 C   0  0  0  0  0  0  0  0  0  0  0  0
    0.7589    4.7166    1.7698 N   0  0  0  0  0  0  0  0  0  0  0  0
    0.0803    5.5598    0.7639 C   0  0  0  0  0  0  0  0  0  0  0  0
    1.0246    6.7133    0.3242 C   0  0  0  0  0  0  0  0  0  0  0  0
    1.5413    7.4418    1.4957 N   0  0  0  0  0  0  0  0  0  0  0  0
    2.1619    6.6037    2.5470 C   0  0  1  0  0  0  0  0  0  0  0  0
    1.1307    5.4933    2.9818 C   0  0  0  0  0  0  0  0  0  0  0  0
    3.4183    5.9038    2.0002 C   0  0  0  0  0  0  0  0  0  0  0  0
    1.3806    8.8033    1.6403 C   0  0  0  0  0  0  0  0  0  0  0  0
    0.1496    9.4331    1.4097 C   0  0  0  0  0  0  0  0  0  0  0  0
   -0.0512   10.7822    1.3475 N   0  0  0  0  0  0  0  0  0  0  0  0
    1.0416   11.5550    1.5576 C   0  0  0  0  0  0  0  0  0  0  0  0
    2.2470   10.9438    1.9052 C   0  0  0  0  0  0  0  0  0  0  0  0
    2.4347    9.5840    1.9562 N   0  0  0  0  0  0  0  0  0  0  0  0
    0.9105   13.0653    1.3452 C   0  0  0  0  0  0  0  0  0  0  0  0
    0.5338   13.3687   -0.1151 C   0  0  0  0  0  0  0  0  0  0  0  0
   -0.1529   13.6645    2.2733 C   0  0  0  0  0  0  0  0  0  0  0  0
    2.1492   13.7416    1.6155 O   0  0  0  0  0  0  0  0  0  0  0  0
    1.4544    2.8915   -0.3614 C   0  0  0  0  0  0  0  0  0  0  0  0
    0.5355    0.3224   -0.9468 H   0  0  0  0  0  0  0  0  0  0  0  0
    0.6245   -0.9774    0.1985 H   0  0  0  0  0  0  0  0  0  0  0  0
    2.0300    0.0448    0.0076 H   0  0  0  0  0  0  0  0  0  0  0  0
   -1.6238   -0.8390    2.7741 H   0  0  0  0  0  0  0  0  0  0  0  0
   -0.4107   -1.4553    1.7212 H   0  0  0  0  0  0  0  0  0  0  0  0
   -0.5897    0.0202    5.1885 H   0  0  0  0  0  0  0  0  0  0  0  0
    0.8422   -0.7393    7.0311 H   0  0  0  0  0  0  0  0  0  0  0  0
    2.3118   -2.7205    6.7350 H   0  0  0  0  0  0  0  0  0  0  0  0
    2.3363   -3.9262    4.5655 H   0  0  0  0  0  0  0  0  0  0  0  0
    1.1141   -3.0110    2.6274 H   0  0  0  0  0  0  0  0  0  0  0  0
   -0.2309    5.0006   -0.1188 H   0  0  0  0  0  0  0  0  0  0  0  0
   -0.8321    5.9866    1.1954 H   0  0  0  0  0  0  0  0  0  0  0  0
    1.8808    6.2849   -0.2155 H   0  0  0  0  0  0  0  0  0  0  0  0
    0.5279    7.3688   -0.3985 H   0  0  0  0  0  0  0  0  0  0  0  0
    2.4369    7.2076    3.4203 H   0  0  0  0  0  0  0  0  0  0  0  0
    0.2391    5.9678    3.4159 H   0  0  0  0  0  0  0  0  0  0  0  0
    1.5872    4.8619    3.7534 H   0  0  0  0  0  0  0  0  0  0  0  0
    4.1501    6.6227    1.6252 H   0  0  0  0  0  0  0  0  0  0  0  0
    3.8812    5.2824    2.7731 H   0  0  0  0  0  0  0  0  0  0  0  0
    3.1870    5.2293    1.1678 H   0  0  0  0  0  0  0  0  0  0  0  0
   -0.7497    8.8421    1.2871 H   0  0  0  0  0  0  0  0  0  0  0  0
    3.1254   11.5358    2.1432 H   0  0  0  0  0  0  0  0  0  0  0  0
   -0.4271   12.9214   -0.3926 H   0  0  0  0  0  0  0  0  0  0  0  0
    0.4623   14.4504   -0.2878 H   0  0  0  0  0  0  0  0  0  0  0  0
    1.2979   12.9966   -0.8070 H   0  0  0  0  0  0  0  0  0  0  0  0
    0.1100   13.5074    3.3248 H   0  0  0  0  0  0  0  0  0  0  0  0
   -0.2307   14.7502    2.1310 H   0  0  0  0  0  0  0  0  0  0  0  0
   -1.1427   13.2308    2.0949 H   0  0  0  0  0  0  0  0  0  0  0  0
    2.0111   14.6892    1.4395 H   0  0  0  0  0  0  0  0  0  0  0  0
    0.8233    3.5578   -0.9491 H   0  0  0  0  0  0  0  0  0  0  0  0
    2.3966    3.3802   -0.1043 H   0  0  0  0  0  0  0  0  0  0  0  0
    1.7040    2.0811   -1.0467 H   0  0  0  0  0  0  0  0  0  0  0  0
  1  2  1  0  0  0  0
  1 33  1  0  0  0  0
  1 34  1  0  0  0  0
  1 35  1  0  0  0  0
  2  3  2  0  0  0  0
  2  7  1  0  0  0  0
  3  4  1  0  0  0  0
  3 32  1  0  0  0  0
  4  5  2  0  0  0  0
  4 15  1  0  0  0  0
  5  6  1  0  0  0  0
  6  7  2  0  0  0  0
  7  8  1  0  0  0  0
  8  9  1  0  0  0  0
  8 36  1  0  0  0  0
  8 37  1  0  0  0  0
  9 10  2  0  0  0  0
  9 14  1  0  0  0  0
 10 11  1  0  0  0  0
 10 38  1  0  0  0  0
 11 12  2  0  0  0  0
 11 39  1  0  0  0  0
 12 13  1  0  0  0  0
 12 40  1  0  0  0  0
 13 14  2  0  0  0  0
 13 41  1  0  0  0  0
 14 42  1  0  0  0  0
 15 16  1  0  0  0  0
 15 20  1  0  0  0  0
 16 17  1  0  0  0  0
 16 43  1  0  0  0  0
 16 44  1  0  0  0  0
 17 18  1  0  0  0  0
 17 45  1  0  0  0  0
 17 46  1  0  0  0  0
 18 19  1  0  0  0  0
 18 22  1  0  0  0  0
 19 20  1  0  0  0  0
 19 21  1  0  0  0  0
 19 47  1  1  0  0  0
 20 48  1  0  0  0  0
 20 49  1  0  0  0  0
 21 50  1  0  0  0  0
 21 51  1  0  0  0  0
 21 52  1  0  0  0  0
 22 23  2  0  0  0  0
 22 27  1  0  0  0  0
 23 24  1  0  0  0  0
 23 53  1  0  0  0  0
 24 25  2  0  0  0  0
 25 26  1  0  0  0  0
 25 28  1  0  0  0  0
 26 27  2  0  0  0  0
 26 54  1  0  0  0  0
 28 29  1  0  0  0  0
 28 30  1  0  0  0  0
 28 31  1  0  0  0  0
 29 55  1  0  0  0  0
 29 56  1  0  0  0  0
 29 57  1  0  0  0  0
 30 58  1  0  0  0  0
 30 59  1  0  0  0  0
 30 60  1  0  0  0  0
 31 61  1  0  0  0  0
 32 62  1  0  0  0  0
 32 63  1  0  0  0  0
 32 64  1  0  0  0  0
M  END
>  <DRUGBANK_ID>
DB12857

>  <COMMON_NAME>
NVP-LEQ-506

>  <CAS_NUMBER>
1204975-42-7

>  <UNII>
6SJX1T5HJD

$$$$
