
 OpenBabel10282417133D

 54 57  0  0  0  0  0  0  0  0999 V2000
    0.9299   -0.1041    0.0728 O   0  0  0  0  0  0  0  0  0  0  0  0
    6.8759    5.8312    3.4525 O   0  0  0  0  0  0  0  0  0  0  0  0
    3.9905    9.6610    1.2478 O   0  0  0  0  0  0  0  0  0  0  0  0
    7.7437    7.8939    3.4615 O   0  0  0  0  0  0  0  0  0  0  0  0
    4.7319    2.4247   -0.1255 N   0  0  0  0  0  0  0  0  0  0  0  0
    5.7900    8.3495    1.2838 N   0  0  0  0  0  0  0  0  0  0  0  0
    4.9555    0.0254    0.0641 N   0  0  0  0  0  0  0  0  0  0  0  0
    2.9330   -1.2279    0.0635 N   0  0  0  0  0  0  0  0  0  0  0  0
    4.9681   -2.2693    0.0522 N   0  0  0  0  0  0  0  0  0  0  0  0
   10.0631    8.7265    1.8632 N   0  0  0  0  0  0  0  0  0  0  0  0
    9.8471    6.4764    1.6795 N   0  0  0  0  0  0  0  0  0  0  0  0
   10.5544    8.0390    2.9126 N   0  0  0  0  0  0  0  0  0  0  0  0
   10.4929    6.6998    2.8144 N   0  0  0  0  0  0  0  0  0  0  0  0
    1.0814    3.1571    0.0059 C   0  0  0  0  0  0  0  0  0  0  0  0
    2.4775    2.5586   -0.0965 C   0  0  0  0  0  0  0  0  0  0  0  0
    0.7573    3.9916    1.2853 C   0  0  0  0  0  0  0  0  0  0  0  0
    2.8789    1.1886   -0.0082 C   0  0  0  0  0  0  0  0  0  0  0  0
    1.5839    5.2342    1.4625 C   0  0  0  0  0  0  0  0  0  0  0  0
    6.6360    7.1715    1.4051 C   0  0  1  0  0  0  0  0  0  0  0  0
    4.2510    1.1651   -0.0089 C   0  0  0  0  0  0  0  0  0  0  0  0
    7.4627    6.9338    0.1455 C   0  0  0  0  0  0  0  0  0  0  0  0
    3.6576    3.2419   -0.3898 C   0  0  0  0  0  0  0  0  0  0  0  0
    8.6221    7.8968    0.0303 C   0  0  0  0  0  0  0  0  0  0  0  0
    3.4548    7.3641    1.3470 C   0  0  0  0  0  0  0  0  0  0  0  0
    2.9028    5.0280    1.7476 C   0  0  0  0  0  0  0  0  0  0  0  0
    1.1540    6.5521    1.2976 C   0  0  0  0  0  0  0  0  0  0  0  0
    2.1430   -0.0758    0.0581 C   0  0  0  0  0  0  0  0  0  0  0  0
    4.4238    8.5089    1.2810 C   0  0  0  0  0  0  0  0  0  0  0  0
    3.8007    6.0320    1.5030 C   0  0  0  0  0  0  0  0  0  0  0  0
    2.0811    7.6185    1.2983 C   0  0  0  0  0  0  0  0  0  0  0  0
    7.1732    7.0075    2.8424 C   0  0  0  0  0  0  0  0  0  0  0  0
    4.2287   -1.1396    0.0632 C   0  0  0  0  0  0  0  0  0  0  0  0
    9.5819    7.7109    1.1391 C   0  0  0  0  0  0  0  0  0  0  0  0
    5.6983    2.7193   -0.0753 H   0  0  0  0  0  0  0  0  0  0  0  0
    6.2713    9.2415    1.3812 H   0  0  0  0  0  0  0  0  0  0  0  0
    5.9635   -0.0247    0.0176 H   0  0  0  0  0  0  0  0  0  0  0  0
    5.9734   -2.3099    0.0589 H   0  0  0  0  0  0  0  0  0  0  0  0
    4.4575   -3.1451    0.0505 H   0  0  0  0  0  0  0  0  0  0  0  0
   10.9319    8.5005    3.7350 H   0  0  0  0  0  0  0  0  0  0  0  0
    6.1654    5.2785    3.0817 H   0  0  0  0  0  0  0  0  0  0  0  0
    0.9085    3.7741   -0.8836 H   0  0  0  0  0  0  0  0  0  0  0  0
    0.3461    2.3459   -0.0273 H   0  0  0  0  0  0  0  0  0  0  0  0
   -0.2950    4.2876    1.2671 H   0  0  0  0  0  0  0  0  0  0  0  0
    0.9021    3.3688    2.1781 H   0  0  0  0  0  0  0  0  0  0  0  0
    6.0609    6.3066    1.3081 H   0  0  0  0  0  0  0  0  0  0  0  0
    7.8068    5.8888    0.1177 H   0  0  0  0  0  0  0  0  0  0  0  0
    6.8068    7.0376   -0.7367 H   0  0  0  0  0  0  0  0  0  0  0  0
    3.8156    4.2849   -0.6273 H   0  0  0  0  0  0  0  0  0  0  0  0
    9.1254    7.7411   -0.9265 H   0  0  0  0  0  0  0  0  0  0  0  0
    8.2148    8.9146    0.0272 H   0  0  0  0  0  0  0  0  0  0  0  0
    3.2998    4.0342    1.9390 H   0  0  0  0  0  0  0  0  0  0  0  0
    0.0972    6.7656    1.1773 H   0  0  0  0  0  0  0  0  0  0  0  0
    4.7292    5.5481    1.3503 H   0  0  0  0  0  0  0  0  0  0  0  0
    1.7181    8.6421    1.2192 H   0  0  0  0  0  0  0  0  0  0  0  0
  1 27  2  0  0  0  0
  2 31  1  0  0  0  0
  2 40  1  0  0  0  0
  3 28  2  0  0  0  0
  4 31  2  0  0  0  0
  5 20  1  0  0  0  0
  5 22  1  0  0  0  0
  5 34  1  0  0  0  0
  6 28  1  0  0  0  0
  6 35  1  0  0  0  0
  7 20  1  0  0  0  0
  7 32  1  0  0  0  0
  7 36  1  0  0  0  0
  8 27  1  0  0  0  0
  8 32  2  0  0  0  0
  9 32  1  0  0  0  0
  9 37  1  0  0  0  0
  9 38  1  0  0  0  0
 10 12  1  0  0  0  0
 10 33  2  0  0  0  0
 11 13  2  0  0  0  0
 11 33  1  0  0  0  0
 12 13  1  0  0  0  0
 12 39  1  0  0  0  0
 14 15  1  0  0  0  0
 14 16  1  0  0  0  0
 14 41  1  0  0  0  0
 14 42  1  0  0  0  0
 15 17  1  0  0  0  0
 15 22  2  0  0  0  0
 16 18  1  0  0  0  0
 16 43  1  0  0  0  0
 16 44  1  0  0  0  0
 17 20  2  0  0  0  0
 17 27  1  0  0  0  0
 18 25  2  0  0  0  0
 18 26  1  0  0  0  0
 19  6  1  0  0  0  0
 19 21  1  0  0  0  0
 19 31  1  0  0  0  0
 19 45  1  6  0  0  0
 21 23  1  0  0  0  0
 21 46  1  0  0  0  0
 21 47  1  0  0  0  0
 22 48  1  0  0  0  0
 23 33  1  0  0  0  0
 23 49  1  0  0  0  0
 23 50  1  0  0  0  0
 24 28  1  0  0  0  0
 24 29  2  0  0  0  0
 24 30  1  0  0  0  0
 25 29  1  0  0  0  0
 25 51  1  0  0  0  0
 26 30  2  0  0  0  0
 26 52  1  0  0  0  0
 29 53  1  0  0  0  0
 30 54  1  0  0  0  0
M  END
>  <DRUGBANK_ID>
DB03038

>  <SECONDARY_ACCESSION_NUMBERS>
EXPT02074

>  <COMMON_NAME>
LY341770

$$$$
