
 OpenBabel10282417193D

100109  0  0  0  0  0  0  0  0999 V2000
    1.0432   -0.3034   -0.1807 C   0  0  0  0  0  0  0  0  0  0  0  0
    0.6751   -0.8459   -1.4698 O   0  0  0  0  0  0  0  0  0  0  0  0
    1.3444   -0.6524   -2.6699 C   0  0  0  0  0  0  0  0  0  0  0  0
    0.5663   -0.8502   -3.8526 C   0  0  0  0  0  0  0  0  0  0  0  0
    0.8863   -0.2558   -5.1285 C   0  0  0  0  0  0  0  0  0  0  0  0
    0.1710    0.1198   -6.3554 C   0  0  0  0  0  0  0  0  0  0  0  0
   -1.2900    0.1812   -6.6727 C   0  0  0  0  0  0  0  0  0  0  0  0
   -1.6491    0.7592   -8.0256 C   0  0  0  0  0  0  0  0  0  0  0  0
   -0.4647    1.0485   -8.8793 N   0  0  0  0  0  0  0  0  0  0  0  0
    0.6810    1.9874   -8.2565 C   0  0  1  0  0  0  0  0  0  0  0  0
    1.7396    3.4460   -7.5256 C   0  0  0  0  0  0  0  0  0  0  0  0
    1.4987    5.1318   -5.9065 S   0  0  0  0  0  0  0  0  0  0  0  0
    0.8874    4.2950   -3.8386 C   0  0  2  0  0  0  0  0  0  0  0  0
    0.5615    5.1963   -2.7740 C   0  0  0  0  0  0  0  0  0  0  0  0
    0.6831    4.8871   -1.2689 C   0  0  0  0  0  0  0  0  0  0  0  0
    1.2244    3.6167   -0.7150 O   0  0  0  0  0  0  0  0  0  0  0  0
    1.9871    2.4988   -1.1567 C   0  0  0  0  0  0  0  0  0  0  0  0
    1.9566    2.3329   -2.6217 C   0  0  0  0  0  0  0  0  0  0  0  0
    2.5968    1.8063   -0.4419 O   0  0  0  0  0  0  0  0  0  0  0  0
    0.0506    5.5621   -0.2452 C   0  0  0  0  0  0  0  0  0  0  0  0
    0.2181    5.2899    1.2205 C   0  0  0  0  0  0  0  0  0  0  0  0
   -0.6877    6.5542   -0.7842 C   0  0  0  0  0  0  0  0  0  0  0  0
   -0.8183    7.7099   -0.0585 O   0  0  0  0  0  0  0  0  0  0  0  0
   -0.9193    8.6722   -1.0894 C   0  0  0  0  0  0  0  0  0  0  0  0
   -1.1508    8.0164   -2.4158 O   0  0  0  0  0  0  0  0  0  0  0  0
   -1.1099    6.4999   -2.2155 C   0  0  0  0  0  0  0  0  0  0  0  0
   -0.5927    5.5386   -3.3967 C   0  0  0  0  0  0  0  0  0  0  0  0
   -0.9819    3.9180   -4.5637 C   0  0  1  0  0  0  0  0  0  0  0  0
   -0.7446    2.3482   -3.9529 N   0  0  3  0  0  0  0  0  0  0  0  0
   -1.7163    1.2051   -3.8124 C   0  0  1  0  0  0  0  0  0  0  0  0
   -1.4872    0.3543   -2.6616 O   0  0  0  0  0  0  0  0  0  0  0  0
   -3.2228    1.4042   -3.8253 C   0  0  2  0  0  0  0  0  0  0  0  0
   -3.8657    1.7571   -5.1902 C   0  0  0  0  0  0  0  0  0  0  0  0
   -3.7146    3.2006   -5.6207 C   0  0  0  0  0  0  0  0  0  0  0  0
   -3.6442    3.4796   -7.0329 C   0  0  0  0  0  0  0  0  0  0  0  0
   -3.1276    4.6848   -7.6001 C   0  0  0  0  0  0  0  0  0  0  0  0
   -3.0862    4.7313   -9.1057 C   0  0  0  0  0  0  0  0  0  0  0  0
   -2.6752    5.6634   -6.7150 C   0  0  0  0  0  0  0  0  0  0  0  0
   -1.7990    6.7143   -6.9773 O   0  0  0  0  0  0  0  0  0  0  0  0
   -1.7591    7.2231   -8.2990 C   0  0  0  0  0  0  0  0  0  0  0  0
   -2.9313    5.4933   -5.3047 C   0  0  0  0  0  0  0  0  0  0  0  0
   -2.3556    6.4936   -4.5694 O   0  0  0  0  0  0  0  0  0  0  0  0
   -3.4167    4.2472   -4.6570 C   0  0  0  0  0  0  0  0  0  0  0  0
   -2.6296    3.6579   -3.1234 C   0  0  1  0  0  0  0  0  0  0  0  0
   -2.8284    4.4170   -2.3800 H   0  0  0  0  0  0  0  0  0  0  0  0
   -3.4421    2.4174   -2.7620 N   0  0  0  0  0  0  0  0  0  0  0  0
   -3.0078    1.8957   -1.4488 C   0  0  0  0  0  0  0  0  0  0  0  0
   -0.7125    3.3208   -3.0083 C   0  0  2  0  0  0  0  0  0  0  0  0
   -0.5156    2.8535   -2.0459 H   0  0  0  0  0  0  0  0  0  0  0  0
   -0.2521    3.3423   -5.7632 C   0  0  0  0  0  0  0  0  0  0  0  0
   -0.6898    3.7401   -7.1003 O   0  0  0  0  0  0  0  0  0  0  0  0
   -0.2727    3.2035   -8.2832 C   0  0  0  0  0  0  0  0  0  0  0  0
   -0.4795    3.7383   -9.3847 O   0  0  0  0  0  0  0  0  0  0  0  0
    1.0159    0.9395   -7.0969 C   0  0  0  0  0  0  0  0  0  0  0  0
    2.2340    0.9338   -6.4605 N   0  0  0  0  0  0  0  0  0  0  0  0
    2.1351    0.3492   -5.2178 C   0  0  0  0  0  0  0  0  0  0  0  0
    3.0314    0.3727   -4.1309 C   0  0  0  0  0  0  0  0  0  0  0  0
    2.6193   -0.1427   -2.8552 C   0  0  0  0  0  0  0  0  0  0  0  0
    0.6233   -0.9208    0.6265 H   0  0  0  0  0  0  0  0  0  0  0  0
    0.5745    0.6802    0.0063 H   0  0  0  0  0  0  0  0  0  0  0  0
    2.1197   -0.2987   -0.0059 H   0  0  0  0  0  0  0  0  0  0  0  0
   -0.4125   -1.3071   -3.7301 H   0  0  0  0  0  0  0  0  0  0  0  0
   -1.6419    1.0285   -6.0982 H   0  0  0  0  0  0  0  0  0  0  0  0
   -1.8669   -0.6954   -6.3684 H   0  0  0  0  0  0  0  0  0  0  0  0
   -2.1382    1.7198   -7.8853 H   0  0  0  0  0  0  0  0  0  0  0  0
   -2.5057    0.1779   -8.4240 H   0  0  0  0  0  0  0  0  0  0  0  0
   -0.8317    1.3403   -9.7877 H   0  0  0  0  0  0  0  0  0  0  0  0
    1.2980    2.9467   -6.7759 H   0  0  0  0  0  0  0  0  0  0  0  0
    1.6604    4.1349   -8.3446 H   0  0  0  0  0  0  0  0  0  0  0  0
    1.9517    4.2200   -3.6657 H   0  0  0  0  0  0  0  0  0  0  0  0
    2.7736    2.6778   -3.2491 H   0  0  0  0  0  0  0  0  0  0  0  0
    1.2309    1.7223   -3.1381 H   0  0  0  0  0  0  0  0  0  0  0  0
    1.3193    3.1160   -2.6013 H   0  0  0  0  0  0  0  0  0  0  0  0
    0.9202    5.9773    1.7032 H   0  0  0  0  0  0  0  0  0  0  0  0
   -0.7453    5.3391    1.7439 H   0  0  0  0  0  0  0  0  0  0  0  0
    0.5898    4.2750    1.4081 H   0  0  0  0  0  0  0  0  0  0  0  0
   -1.7045    9.3978   -0.7938 H   0  0  0  0  0  0  0  0  0  0  0  0
    0.0055    9.2938   -1.0772 H   0  0  0  0  0  0  0  0  0  0  0  0
   -1.7589    3.7950   -5.1998 H   0  0  0  0  0  0  0  0  0  0  0  0
   -1.5469    0.4002   -4.5050 H   0  0  0  0  0  0  0  0  0  0  0  0
   -0.6440    0.5841   -2.2546 H   0  0  0  0  0  0  0  0  0  0  0  0
   -3.6683    0.4135   -3.5824 H   0  0  0  0  0  0  0  0  0  0  0  0
   -4.9387    1.5833   -5.1379 H   0  0  0  0  0  0  0  0  0  0  0  0
   -3.5650    1.0284   -5.9667 H   0  0  0  0  0  0  0  0  0  0  0  0
   -3.8640    2.6835   -7.7511 H   0  0  0  0  0  0  0  0  0  0  0  0
   -2.5637    3.8961   -9.5687 H   0  0  0  0  0  0  0  0  0  0  0  0
   -4.1136    4.6887   -9.4512 H   0  0  0  0  0  0  0  0  0  0  0  0
   -2.6548    5.6070   -9.5719 H   0  0  0  0  0  0  0  0  0  0  0  0
   -1.0980    6.6116   -8.9274 H   0  0  0  0  0  0  0  0  0  0  0  0
   -2.7832    7.3123   -8.6688 H   0  0  0  0  0  0  0  0  0  0  0  0
   -1.3491    8.2362   -8.3267 H   0  0  0  0  0  0  0  0  0  0  0  0
   -1.5264    6.7661   -5.0452 H   0  0  0  0  0  0  0  0  0  0  0  0
   -1.9354    1.7520   -1.2781 H   0  0  0  0  0  0  0  0  0  0  0  0
   -3.2378    2.6248   -0.6861 H   0  0  0  0  0  0  0  0  0  0  0  0
   -3.4728    0.9237   -1.2311 H   0  0  0  0  0  0  0  0  0  0  0  0
    0.7837    3.2094   -5.4080 H   0  0  0  0  0  0  0  0  0  0  0  0
   -0.2968    2.2910   -5.8334 H   0  0  0  0  0  0  0  0  0  0  0  0
    2.9691    1.5765   -6.7092 H   0  0  0  0  0  0  0  0  0  0  0  0
    3.9117    1.0170   -4.1855 H   0  0  0  0  0  0  0  0  0  0  0  0
    3.2492    0.0921   -1.9993 H   0  0  0  0  0  0  0  0  0  0  0  0
  1 59  1  0  0  0  0
  1 60  1  0  0  0  0
  1 61  1  0  0  0  0
  2  1  1  0  0  0  0
  3  2  1  0  0  0  0
  3  4  1  0  0  0  0
  4  5  2  0  0  0  0
  4 62  1  0  0  0  0
  5  6  1  0  0  0  0
  5 56  1  0  0  0  0
  6  7  1  0  0  0  0
  6 54  2  0  0  0  0
  7  8  1  0  0  0  0
  7 63  1  0  0  0  0
  7 64  1  0  0  0  0
  8  9  1  0  0  0  0
  8 65  1  0  0  0  0
  8 66  1  0  0  0  0
  9 10  1  0  0  0  0
  9 67  1  0  0  0  0
 10 11  1  0  0  0  0
 10 52  1  1  0  0  0
 11 68  1  0  0  0  0
 11 69  1  0  0  0  0
 12 11  1  0  0  0  0
 13 12  1  0  0  0  0
 13 70  1  6  0  0  0
 14 13  1  0  0  0  0
 14 15  2  0  0  0  0
 15 16  1  0  0  0  0
 15 20  1  0  0  0  0
 16 17  1  0  0  0  0
 17 18  1  0  0  0  0
 17 19  2  0  0  0  0
 18 71  1  0  0  0  0
 18 72  1  0  0  0  0
 18 73  1  0  0  0  0
 20 21  1  0  0  0  0
 20 22  2  0  0  0  0
 21 74  1  0  0  0  0
 21 75  1  0  0  0  0
 21 76  1  0  0  0  0
 22 23  1  0  0  0  0
 22 26  1  0  0  0  0
 23 24  1  0  0  0  0
 24 77  1  0  0  0  0
 24 78  1  0  0  0  0
 25 24  1  0  0  0  0
 26 25  1  0  0  0  0
 26 27  2  0  0  0  0
 27 28  1  0  0  0  0
 27 14  1  0  0  0  0
 28 29  1  0  0  0  0
 28 50  1  0  0  0  0
 28 79  1  1  0  0  0
 29 30  1  0  0  0  0
 29 48  1  0  0  0  0
 30 31  1  0  0  0  0
 30 80  1  6  0  0  0
 31 81  1  0  0  0  0
 32 30  1  0  0  0  0
 32 33  1  0  0  0  0
 32 82  1  1  0  0  0
 33 83  1  0  0  0  0
 33 84  1  0  0  0  0
 34 33  1  0  0  0  0
 34 35  2  0  0  0  0
 35 36  1  0  0  0  0
 35 85  1  0  0  0  0
 36 37  1  0  0  0  0
 36 38  2  0  0  0  0
 37 86  1  0  0  0  0
 37 87  1  0  0  0  0
 37 88  1  0  0  0  0
 38 39  1  0  0  0  0
 38 41  1  0  0  0  0
 39 40  1  0  0  0  0
 40 89  1  0  0  0  0
 40 90  1  0  0  0  0
 40 91  1  0  0  0  0
 41 42  1  0  0  0  0
 41 43  2  0  0  0  0
 42 92  1  0  0  0  0
 43 44  1  0  0  0  0
 43 34  1  0  0  0  0
 44 45  1  1  0  0  0
 44 46  1  0  0  0  0
 46 47  1  0  0  0  0
 46 32  1  0  0  0  0
 47 93  1  0  0  0  0
 47 94  1  0  0  0  0
 47 95  1  0  0  0  0
 48 44  1  0  0  0  0
 48 49  1  1  0  0  0
 48 13  1  0  0  0  0
 50 51  1  0  0  0  0
 50 96  1  0  0  0  0
 50 97  1  0  0  0  0
 52 51  1  0  0  0  0
 52 53  2  0  0  0  0
 54 10  1  0  0  0  0
 55 54  1  0  0  0  0
 55 98  1  0  0  0  0
 56 55  1  0  0  0  0
 56 57  2  0  0  0  0
 57 58  1  0  0  0  0
 57 99  1  0  0  0  0
 58  3  2  0  0  0  0
 58100  1  0  0  0  0
M  END
>  <DRUGBANK_ID>
DB12674

>  <COMMON_NAME>
Lurbinectedin

>  <CAS_NUMBER>
497871-47-3

>  <UNII>
2CN60TN6ZS

>  <SYNONYMS>
Lurbinectedin

$$$$
