
 OpenBabel10282417113D

 28 27  0  0  0  0  0  0  0  0999 V2000
    0.8723   -0.1706   -0.2901 C   0  0  0  0  0  0  0  0  0  0  0  0
    0.5515   -1.6294   -0.1590 C   0  0  0  0  0  0  0  0  0  0  0  0
    1.0705   -2.0623    1.2197 C   0  0  0  0  0  0  0  0  0  0  0  0
    0.5945    0.6038   -1.5272 C   0  0  0  0  0  0  0  0  0  0  0  0
    0.6008   -1.2138    2.2860 O   0  0  0  0  0  0  0  0  0  0  0  0
    1.2748    0.0802   -2.6366 O   0  0  0  0  0  0  0  0  0  0  0  0
    2.9012   -0.0765   -2.6588 S   0  0  0  0  0  0  0  0  0  0  0  0
    1.1858    0.2579    2.7729 S   0  0  0  0  0  0  0  0  0  0  0  0
    2.9402    0.0887    2.5030 C   0  0  0  0  0  0  0  0  0  0  0  0
    3.3553    1.6434   -2.5263 C   0  0  0  0  0  0  0  0  0  0  0  0
    3.3646   -0.7565   -1.4524 O   0  0  0  0  0  0  0  0  0  0  0  0
    3.2713   -0.5664   -3.9554 O   0  0  0  0  0  0  0  0  0  0  0  0
    0.7288    1.3481    1.9271 O   0  0  0  0  0  0  0  0  0  0  0  0
    0.9500    0.3758    4.1937 O   0  0  0  0  0  0  0  0  0  0  0  0
    0.1543    0.2604    0.3801 H   0  0  0  0  0  0  0  0  0  0  0  0
    1.8942    0.0325    0.0354 H   0  0  0  0  0  0  0  0  0  0  0  0
   -0.5414   -1.7167   -0.1722 H   0  0  0  0  0  0  0  0  0  0  0  0
    0.9455   -2.2465   -0.9738 H   0  0  0  0  0  0  0  0  0  0  0  0
    0.6755   -3.0714    1.4037 H   0  0  0  0  0  0  0  0  0  0  0  0
    2.1591   -2.1721    1.2335 H   0  0  0  0  0  0  0  0  0  0  0  0
   -0.4884    0.5948   -1.6852 H   0  0  0  0  0  0  0  0  0  0  0  0
    0.8649    1.6538   -1.3493 H   0  0  0  0  0  0  0  0  0  0  0  0
    3.1867   -0.3973    1.5623 H   0  0  0  0  0  0  0  0  0  0  0  0
    3.3547    1.1010    2.4618 H   0  0  0  0  0  0  0  0  0  0  0  0
    3.3528   -0.4679    3.3393 H   0  0  0  0  0  0  0  0  0  0  0  0
    2.9814    2.0753   -1.5957 H   0  0  0  0  0  0  0  0  0  0  0  0
    4.4454    1.6911   -2.5161 H   0  0  0  0  0  0  0  0  0  0  0  0
    2.9539    2.1735   -3.3903 H   0  0  0  0  0  0  0  0  0  0  0  0
  1 15  1  0  0  0  0
  1 16  1  0  0  0  0
  2  1  1  0  0  0  0
  2 17  1  0  0  0  0
  2 18  1  0  0  0  0
  3  2  1  0  0  0  0
  3  5  1  0  0  0  0
  3 19  1  0  0  0  0
  3 20  1  0  0  0  0
  4  1  1  0  0  0  0
  4  6  1  0  0  0  0
  4 21  1  0  0  0  0
  4 22  1  0  0  0  0
  5  8  1  0  0  0  0
  6  7  1  0  0  0  0
  7 10  1  0  0  0  0
  8  9  1  0  0  0  0
  9 23  1  0  0  0  0
  9 24  1  0  0  0  0
  9 25  1  0  0  0  0
 10 26  1  0  0  0  0
 10 27  1  0  0  0  0
 10 28  1  0  0  0  0
 11  7  2  0  0  0  0
 12  7  2  0  0  0  0
 13  8  2  0  0  0  0
 14  8  2  0  0  0  0
M  END
>  <DRUGBANK_ID>
DB01008

>  <SECONDARY_ACCESSION_NUMBERS>
APRD00664

>  <COMMON_NAME>
Busulfan

>  <CAS_NUMBER>
55-98-1

>  <UNII>
G1LN9045DK

>  <SYNONYMS>
1,4-Bis(methanesulfonoxy)butane; 1,4-Butanediol dimethanesulfonate; 1,4-Dimesyloxybutane; 1,4-Dimethanesulfonoxybutane; Busulfan; Busulfano; Busulfanum; Busulphan; Tetramethylene bis(methanesulfonate)

$$$$
