
 OpenBabel10282417223D

 56 55  0  0  0  0  0  0  0  0999 V2000
    1.0319    0.2000   -0.1124 C   0  0  0  0  0  0  0  0  0  0  0  0
    0.5982   -1.1180   -0.7632 C   0  0  0  0  0  0  0  0  0  0  0  0
    1.1266   -2.3495   -0.0304 C   0  0  0  0  0  0  0  0  0  0  0  0
    0.5749   -2.4629    1.3844 C   0  0  0  0  0  0  0  0  0  0  0  0
   -0.9586   -2.4181    1.3517 C   0  0  0  0  0  0  0  0  0  0  0  0
   -1.4132   -3.6845    0.6373 C   0  0  0  0  0  0  0  0  0  0  0  0
   -0.7504   -4.8719    1.3595 C   0  0  0  0  0  0  0  0  0  0  0  0
   -1.1621   -4.8388    2.8360 C   0  0  0  0  0  0  0  0  0  0  0  0
   -2.6550   -4.9619    2.8556 C   0  0  0  0  0  0  0  0  0  0  0  0
   -2.9776   -6.2888    2.1611 C   0  0  0  0  0  0  0  0  0  0  0  0
   -2.6592   -7.4825    3.0513 C   0  0  0  0  0  0  0  0  0  0  0  0
   -3.4057   -7.5581    4.4236 C   0  0  0  0  0  0  0  0  0  0  0  0
   -4.9479   -7.7169    4.6219 C   0  0  0  0  0  0  0  0  0  0  0  0
   -5.6197   -8.6633    3.8202 O   0  0  0  0  0  0  0  0  0  0  0  0
   -5.4862   -8.5110    2.4244 C   0  0  0  0  0  0  0  0  0  0  0  0
   -6.0223   -7.2486    1.6933 C   0  0  3  0  0  0  0  0  0  0  0  0
   -6.1135   -5.7655    2.2509 C   0  0  0  0  0  0  0  0  0  0  0  0
   -5.3123   -5.2112    3.2684 O   0  0  0  0  0  0  0  0  0  0  0  0
   -5.4635   -7.2393    0.3452 O   0  0  0  0  0  0  0  0  0  0  0  0
    0.5124    0.5215    1.2883 C   0  0  0  0  0  0  0  0  0  0  0  0
    0.7024    1.0089   -0.7691 H   0  0  0  0  0  0  0  0  0  0  0  0
    2.1260    0.2141   -0.0892 H   0  0  0  0  0  0  0  0  0  0  0  0
   -0.4923   -1.1479   -0.8834 H   0  0  0  0  0  0  0  0  0  0  0  0
    0.9753   -1.1560   -1.7921 H   0  0  0  0  0  0  0  0  0  0  0  0
    0.8604   -3.2449   -0.6109 H   0  0  0  0  0  0  0  0  0  0  0  0
    2.2181   -2.3527   -0.0012 H   0  0  0  0  0  0  0  0  0  0  0  0
    0.9791   -3.3623    1.8478 H   0  0  0  0  0  0  0  0  0  0  0  0
    0.9910   -1.7677    2.0934 H   0  0  0  0  0  0  0  0  0  0  0  0
   -1.3652   -2.3253    2.3655 H   0  0  0  0  0  0  0  0  0  0  0  0
   -1.3867   -1.5481    0.8512 H   0  0  0  0  0  0  0  0  0  0  0  0
   -2.5089   -3.7202    0.6054 H   0  0  0  0  0  0  0  0  0  0  0  0
   -1.1448   -3.6876   -0.4214 H   0  0  0  0  0  0  0  0  0  0  0  0
   -0.9753   -5.7909    0.8272 H   0  0  0  0  0  0  0  0  0  0  0  0
    0.3330   -4.9220    1.2871 H   0  0  0  0  0  0  0  0  0  0  0  0
   -0.7053   -5.6452    3.4084 H   0  0  0  0  0  0  0  0  0  0  0  0
   -0.8666   -3.9364    3.3817 H   0  0  0  0  0  0  0  0  0  0  0  0
   -2.9881   -4.8849    3.8929 H   0  0  0  0  0  0  0  0  0  0  0  0
   -3.1761   -4.1233    2.3698 H   0  0  0  0  0  0  0  0  0  0  0  0
   -3.9823   -6.2860    1.8287 H   0  0  0  0  0  0  0  0  0  0  0  0
   -2.5628   -6.4021    1.1575 H   0  0  0  0  0  0  0  0  0  0  0  0
   -2.7283   -8.3980    2.4631 H   0  0  0  0  0  0  0  0  0  0  0  0
   -1.5832   -7.4627    3.2611 H   0  0  0  0  0  0  0  0  0  0  0  0
   -2.9540   -8.4077    4.9443 H   0  0  0  0  0  0  0  0  0  0  0  0
   -3.1092   -6.6783    5.0095 H   0  0  0  0  0  0  0  0  0  0  0  0
   -5.1188   -7.9837    5.6729 H   0  0  0  0  0  0  0  0  0  0  0  0
   -5.5459   -6.8112    4.5959 H   0  0  0  0  0  0  0  0  0  0  0  0
   -4.4729   -8.7659    2.1377 H   0  0  0  0  0  0  0  0  0  0  0  0
   -6.0042   -9.3724    1.9804 H   0  0  0  0  0  0  0  0  0  0  0  0
   -7.0715   -7.4696    1.4972 H   0  0  0  0  0  0  0  0  0  0  0  0
   -5.9691   -5.0691    1.4168 H   0  0  0  0  0  0  0  0  0  0  0  0
   -7.0996   -5.6347    2.6839 H   0  0  0  0  0  0  0  0  0  0  0  0
   -4.5936   -5.8482    3.4760 H   0  0  0  0  0  0  0  0  0  0  0  0
   -4.5167   -7.4725    0.3577 H   0  0  0  0  0  0  0  0  0  0  0  0
    0.7305    1.5548    1.5564 H   0  0  0  0  0  0  0  0  0  0  0  0
   -0.5651    0.3623    1.3820 H   0  0  0  0  0  0  0  0  0  0  0  0
    1.0275   -0.0314    2.0698 H   0  0  0  0  0  0  0  0  0  0  0  0
  1  2  1  0  0  0  0
  1 20  1  0  0  0  0
  1 21  1  0  0  0  0
  1 22  1  0  0  0  0
  2  3  1  0  0  0  0
  2 23  1  0  0  0  0
  2 24  1  0  0  0  0
  3  4  1  0  0  0  0
  3 25  1  0  0  0  0
  3 26  1  0  0  0  0
  4  5  1  0  0  0  0
  4 27  1  0  0  0  0
  4 28  1  0  0  0  0
  5  6  1  0  0  0  0
  5 29  1  0  0  0  0
  5 30  1  0  0  0  0
  6  7  1  0  0  0  0
  6 31  1  0  0  0  0
  6 32  1  0  0  0  0
  7  8  1  0  0  0  0
  7 33  1  0  0  0  0
  7 34  1  0  0  0  0
  8  9  1  0  0  0  0
  8 35  1  0  0  0  0
  8 36  1  0  0  0  0
  9 10  1  0  0  0  0
  9 37  1  0  0  0  0
  9 38  1  0  0  0  0
 10 11  1  0  0  0  0
 10 39  1  0  0  0  0
 10 40  1  0  0  0  0
 11 12  1  0  0  0  0
 11 41  1  0  0  0  0
 11 42  1  0  0  0  0
 12 13  1  0  0  0  0
 12 43  1  0  0  0  0
 12 44  1  0  0  0  0
 13 14  1  0  0  0  0
 13 45  1  0  0  0  0
 13 46  1  0  0  0  0
 14 15  1  0  0  0  0
 15 16  1  0  0  0  0
 15 47  1  0  0  0  0
 15 48  1  0  0  0  0
 16 17  1  0  0  0  0
 16 19  1  0  0  0  0
 16 49  1  0  0  0  0
 17 18  1  0  0  0  0
 17 50  1  0  0  0  0
 17 51  1  0  0  0  0
 18 52  1  0  0  0  0
 19 53  1  0  0  0  0
 20 54  1  0  0  0  0
 20 55  1  0  0  0  0
 20 56  1  0  0  0  0
M  END
>  <DRUGBANK_ID>
DB15662

>  <COMMON_NAME>
Myristyl glyceryl ether

>  <CAS_NUMBER>
1561-06-4

>  <UNII>
S4JE3R143V

>  <SYNONYMS>
1-o-tetradecylglycerol; 3-Tetradecyloxy-1,2-propanediol; Glycerin 1-tetradecyl ether; Myristyl glyceryl ether

$$$$
