GCA
 OpenBabel10282417163D

 50 51  0  0  0  0  0  0  0  0999 V2000
    0.0140   -1.6326   -0.2108 C   0  0  0  0  0  0  0  0  0  0  0  0
    1.2113   -0.9397   -0.3016 C   0  0  0  0  0  0  0  0  0  0  0  0
    1.2736    0.4611   -0.1263 C   0  0  0  0  0  0  0  0  0  0  0  0
    0.1086    1.2256   -0.0218 C   0  0  0  0  0  0  0  0  0  0  0  0
   -1.1022    0.5905   -0.1265 C   0  0  0  0  0  0  0  0  0  0  0  0
   -1.0884   -0.7927   -0.2899 C   0  0  0  0  0  0  0  0  0  0  0  0
    2.6003    1.1414   -0.0353 C   0  0  0  0  0  0  0  0  0  0  0  0
   -2.4213    1.3008   -0.0984 C   0  0  0  0  0  0  0  0  0  0  0  0
   -0.1156   -3.1679   -0.1017 C   0  0  0  0  0  0  0  0  0  0  0  0
   -0.7718   -3.7379    1.2181 C   0  0  0  0  0  0  0  0  0  0  0  0
   -2.0963   -3.5579    1.4763 C   0  0  0  0  0  0  0  0  0  0  0  0
   -3.0919   -2.8688    0.5892 C   0  0  0  0  0  0  0  0  0  0  0  0
   -4.2736   -3.6543    0.0693 C   0  0  0  0  0  0  0  0  0  0  0  0
   -3.5797   -1.5562    1.2337 C   0  0  0  0  0  0  0  0  0  0  0  0
   -2.6788   -3.9742    2.7794 C   0  0  0  0  0  0  0  0  0  0  0  0
   -3.8281   -3.7503    3.1049 O   0  0  0  0  0  0  0  0  0  0  0  0
   -0.0229   -4.5067    2.1505 N   0  0  0  0  0  0  0  0  0  0  0  0
   -0.5686   -4.9743    3.3530 C   0  0  0  0  0  0  0  0  0  0  0  0
    0.0206   -5.6669    4.1825 O   0  0  0  0  0  0  0  0  0  0  0  0
   -1.8463   -4.6226    3.6188 N   0  0  0  0  0  0  0  0  0  0  0  0
    1.3645   -4.9039    1.9816 C   0  0  0  0  0  0  0  0  0  0  0  0
    2.2014   -4.3133    2.9854 O   0  0  0  0  0  0  0  0  0  0  0  0
    2.1360   -2.8958    3.0668 C   0  0  0  0  0  0  0  0  0  0  0  0
    2.7214   -2.2993    1.8265 C   0  0  0  0  0  0  0  0  0  0  0  0
    2.1449   -1.4664   -0.4771 H   0  0  0  0  0  0  0  0  0  0  0  0
    0.1459    2.3053    0.0742 H   0  0  0  0  0  0  0  0  0  0  0  0
   -2.0477   -1.1664   -0.5511 H   0  0  0  0  0  0  0  0  0  0  0  0
    2.7273    1.7911   -0.9026 H   0  0  0  0  0  0  0  0  0  0  0  0
    2.6505    1.7260    0.8893 H   0  0  0  0  0  0  0  0  0  0  0  0
    3.4168    0.4136   -0.0116 H   0  0  0  0  0  0  0  0  0  0  0  0
   -2.5590    1.8438    0.8408 H   0  0  0  0  0  0  0  0  0  0  0  0
   -2.5252    1.9479   -0.9669 H   0  0  0  0  0  0  0  0  0  0  0  0
   -3.2577    0.6034   -0.1697 H   0  0  0  0  0  0  0  0  0  0  0  0
   -0.6847   -3.5362   -0.9648 H   0  0  0  0  0  0  0  0  0  0  0  0
    0.8629   -3.6145   -0.2875 H   0  0  0  0  0  0  0  0  0  0  0  0
   -2.5926   -2.7473   -0.3670 H   0  0  0  0  0  0  0  0  0  0  0  0
   -4.9796   -3.8897    0.8604 H   0  0  0  0  0  0  0  0  0  0  0  0
   -4.7827   -3.0420   -0.6883 H   0  0  0  0  0  0  0  0  0  0  0  0
   -3.9262   -4.5654   -0.4248 H   0  0  0  0  0  0  0  0  0  0  0  0
   -2.7579   -0.9326    1.6082 H   0  0  0  0  0  0  0  0  0  0  0  0
   -4.1742   -0.9951    0.5105 H   0  0  0  0  0  0  0  0  0  0  0  0
   -4.2296   -1.7012    2.0960 H   0  0  0  0  0  0  0  0  0  0  0  0
   -2.2404   -4.9169    4.4960 H   0  0  0  0  0  0  0  0  0  0  0  0
    1.4361   -5.9926    2.1005 H   0  0  0  0  0  0  0  0  0  0  0  0
    1.7691   -4.7151    0.9893 H   0  0  0  0  0  0  0  0  0  0  0  0
    1.1043   -2.5563    3.2211 H   0  0  0  0  0  0  0  0  0  0  0  0
    2.7171   -2.5560    3.9258 H   0  0  0  0  0  0  0  0  0  0  0  0
    2.1865   -2.7235    0.9917 H   0  0  0  0  0  0  0  0  0  0  0  0
    2.6136   -1.2153    1.8401 H   0  0  0  0  0  0  0  0  0  0  0  0
    3.7555   -2.5795    1.6300 H   0  0  0  0  0  0  0  0  0  0  0  0
  1  2  2  0  0  0  0
  1  6  1  0  0  0  0
  1  9  1  0  0  0  0
  2  3  1  0  0  0  0
  2 25  1  0  0  0  0
  3  4  2  0  0  0  0
  3  7  1  0  0  0  0
  4  5  1  0  0  0  0
  4 26  1  0  0  0  0
  5  6  2  0  0  0  0
  5  8  1  0  0  0  0
  6 27  1  0  0  0  0
  7 28  1  0  0  0  0
  7 29  1  0  0  0  0
  7 30  1  0  0  0  0
  8 31  1  0  0  0  0
  8 32  1  0  0  0  0
  8 33  1  0  0  0  0
  9 10  1  0  0  0  0
  9 34  1  0  0  0  0
  9 35  1  0  0  0  0
 10 11  2  0  0  0  0
 10 17  1  0  0  0  0
 11 12  1  0  0  0  0
 11 15  1  0  0  0  0
 12 13  1  0  0  0  0
 12 14  1  0  0  0  0
 12 36  1  0  0  0  0
 13 37  1  0  0  0  0
 13 38  1  0  0  0  0
 13 39  1  0  0  0  0
 14 40  1  0  0  0  0
 14 41  1  0  0  0  0
 14 42  1  0  0  0  0
 15 16  2  0  0  0  0
 15 20  1  0  0  0  0
 17 18  1  0  0  0  0
 17 21  1  0  0  0  0
 18 19  2  0  0  0  0
 18 20  1  0  0  0  0
 20 43  1  0  0  0  0
 21 22  1  0  0  0  0
 21 44  1  0  0  0  0
 21 45  1  0  0  0  0
 22 23  1  0  0  0  0
 23 24  1  0  0  0  0
 23 46  1  0  0  0  0
 23 47  1  0  0  0  0
 24 48  1  0  0  0  0
 24 49  1  0  0  0  0
 24 50  1  0  0  0  0
M  END
>  <DRUGBANK_ID>
DB07820

>  <COMMON_NAME>
6-(3',5'-DIMETHYLBENZYL)-1-ETHOXYMETHYL-5-ISOPROPYLURACIL

$$$$
