649
 OpenBabel10282417103D

 28 29  0  0  1  0  0  0  0  0999 V2000
   -1.1571   -0.0339    0.1057 O   0  0  0  0  0  0  0  0  0  0  0  0
   -1.8985   -2.6531    1.0045 O   0  0  0  0  0  0  0  0  0  0  0  0
   -1.4029    3.7677   -0.2500 O   0  0  0  0  0  0  0  0  0  0  0  0
   -0.9647    4.6922    4.1146 O   0  0  0  0  0  0  0  0  0  0  0  0
   -0.6802    2.0456    1.1266 N   0  0  0  0  0  0  0  0  0  0  0  0
   -1.4540    4.0763    1.9817 N   0  0  0  0  0  0  0  0  0  0  0  0
   -0.3772    1.1754   -0.0068 C   0  0  1  0  0  0  0  0  0  0  0  0
   -0.2726   -1.1722   -0.0517 C   0  0  1  0  0  0  0  0  0  0  0  0
    1.0463    0.7207    0.0218 C   0  0  0  0  0  0  0  0  0  0  0  0
    1.1041   -0.6110    0.0006 C   0  0  0  0  0  0  0  0  0  0  0  0
   -0.5557   -2.1752    1.0724 C   0  0  0  0  0  0  0  0  0  0  0  0
   -0.3822    1.6438    2.4158 C   0  0  0  0  0  0  0  0  0  0  0  0
   -1.1973    3.3095    0.8706 C   0  0  0  0  0  0  0  0  0  0  0  0
   -0.4136    2.4853    3.4546 C   0  0  0  0  0  0  0  0  0  0  0  0
   -0.9596    3.8397    3.2304 C   0  0  0  0  0  0  0  0  0  0  0  0
    0.1194    2.1566    4.8069 C   0  0  0  0  0  0  0  0  0  0  0  0
   -2.4678   -1.8600    1.0119 H   0  0  0  0  0  0  0  0  0  0  0  0
   -1.8246    4.9990    1.8148 H   0  0  0  0  0  0  0  0  0  0  0  0
   -0.5989    1.6560   -0.9657 H   0  0  0  0  0  0  0  0  0  0  0  0
   -0.4791   -1.6258   -1.0278 H   0  0  0  0  0  0  0  0  0  0  0  0
    1.8982    1.3839    0.0516 H   0  0  0  0  0  0  0  0  0  0  0  0
    2.0066   -1.2054    0.0094 H   0  0  0  0  0  0  0  0  0  0  0  0
    0.1141   -3.0377    1.0008 H   0  0  0  0  0  0  0  0  0  0  0  0
   -0.4253   -1.7176    2.0585 H   0  0  0  0  0  0  0  0  0  0  0  0
   -0.0409    0.6218    2.5408 H   0  0  0  0  0  0  0  0  0  0  0  0
    0.9490    2.8293    5.0539 H   0  0  0  0  0  0  0  0  0  0  0  0
   -0.6555    2.2585    5.5705 H   0  0  0  0  0  0  0  0  0  0  0  0
    0.5099    1.1341    4.8464 H   0  0  0  0  0  0  0  0  0  0  0  0
  1  7  1  0  0  0  0
  1  8  1  0  0  0  0
  2 11  1  0  0  0  0
  2 17  1  0  0  0  0
  3 13  2  0  0  0  0
  4 15  2  0  0  0  0
  5 12  1  0  0  0  0
  5 13  1  0  0  0  0
  6 13  1  0  0  0  0
  6 15  1  0  0  0  0
  6 18  1  0  0  0  0
  7  9  1  0  0  0  0
  7 19  1  6  0  0  0
  7  5  1  0  0  0  0
  8 10  1  0  0  0  0
  8 11  1  0  0  0  0
  8 20  1  6  0  0  0
  9 10  2  0  0  0  0
  9 21  1  0  0  0  0
 10 22  1  0  0  0  0
 11 23  1  0  0  0  0
 11 24  1  0  0  0  0
 12 14  2  0  0  0  0
 12 25  1  0  0  0  0
 14 15  1  0  0  0  0
 14 16  1  0  0  0  0
 16 26  1  0  0  0  0
 16 27  1  0  0  0  0
 16 28  1  0  0  0  0
M  END
>  <DRUGBANK_ID>
DB00649

>  <SECONDARY_ACCESSION_NUMBERS>
APRD00440

>  <COMMON_NAME>
Stavudine

>  <CAS_NUMBER>
3056-17-5

>  <UNII>
BO9LE4QFZF

>  <SYNONYMS>
1-(2,3-Dideoxy-beta-D-glycero-pent-2-enofuranosyl)thymine; 2',3'-Didehydro-3'-deoxythimidine; 3'-Deoxy-2'-thymidinene; Estavudina; Sanilvudine; Stavudin; Stavudine; Stavudinum; STV

$$$$
