
 OpenBabel10282417123D

 19 18  0  0  1  0  0  0  0  0999 V2000
    0.9098    2.3595   -0.1775 C   0  0  0  0  0  0  0  0  0  0  0  0
    1.0959    2.0576   -1.6709 C   0  0  0  0  0  0  0  0  0  0  0  0
    0.3974    1.1716    0.6376 C   0  0  1  0  0  0  0  0  0  0  0  0
   -1.1407    1.1681    0.5885 C   0  0  0  0  0  0  0  0  0  0  0  0
    0.9558   -0.1000    0.1441 N   0  0  0  0  0  0  0  0  0  0  0  0
    0.4497    4.1807   -2.4491 N   0  0  0  0  0  0  0  0  0  0  0  0
   -1.7505    1.3115    1.7858 O   0  0  0  0  0  0  0  0  0  0  0  0
   -1.7856    1.0462   -0.4494 O   0  0  0  0  0  0  0  0  0  0  0  0
    1.5488    3.2278   -2.3582 O   0  0  0  0  0  0  0  0  0  0  0  0
    1.8647    2.7233    0.2226 H   0  0  0  0  0  0  0  0  0  0  0  0
    0.2084    3.1933   -0.0490 H   0  0  0  0  0  0  0  0  0  0  0  0
    1.8844    1.3072   -1.8044 H   0  0  0  0  0  0  0  0  0  0  0  0
    0.1858    1.6612   -2.1373 H   0  0  0  0  0  0  0  0  0  0  0  0
    0.7179    1.3057    1.6769 H   0  0  0  0  0  0  0  0  0  0  0  0
    0.5638   -0.2841   -0.7863 H   0  0  0  0  0  0  0  0  0  0  0  0
    0.6452   -0.8843    0.7129 H   0  0  0  0  0  0  0  0  0  0  0  0
    0.4479    4.5771   -1.5094 H   0  0  0  0  0  0  0  0  0  0  0  0
    0.8812    4.9069   -3.0213 H   0  0  0  0  0  0  0  0  0  0  0  0
   -1.1646    1.3886    2.5620 H   0  0  0  0  0  0  0  0  0  0  0  0
  1  2  1  0  0  0  0
  1 10  1  0  0  0  0
  1 11  1  0  0  0  0
  2  9  1  0  0  0  0
  2 12  1  0  0  0  0
  2 13  1  0  0  0  0
  3  4  1  0  0  0  0
  3 14  1  1  0  0  0
  3  5  1  0  0  0  0
  3  1  1  0  0  0  0
  4  7  1  0  0  0  0
  4  8  2  0  0  0  0
  5 15  1  0  0  0  0
  5 16  1  0  0  0  0
  6  9  1  0  0  0  0
  6 17  1  0  0  0  0
  6 18  1  0  0  0  0
  7 19  1  0  0  0  0
M  END
>  <DRUGBANK_ID>
DB02821

>  <SECONDARY_ACCESSION_NUMBERS>
EXPT00828

>  <COMMON_NAME>
Canaline

>  <CAS_NUMBER>
496-93-5

>  <UNII>
T7H2XP1ZNS

$$$$
