
 OpenBabel10282417203D

 50 53  0  0  0  0  0  0  0  0999 V2000
    1.4393   -3.7611   -5.1543 C   0  0  0  0  0  0  0  0  0  0  0  0
   -3.8599   -3.3057   -9.0115 C   0  0  0  0  0  0  0  0  0  0  0  0
   -0.8028   -4.9166   -7.6744 C   0  0  0  0  0  0  0  0  0  0  0  0
    1.9121   -0.9236   -6.4335 C   0  0  0  0  0  0  0  0  0  0  0  0
    0.5863   -0.7238   -7.1653 C   0  0  0  0  0  0  0  0  0  0  0  0
    1.0856   -1.8181   -2.1561 C   0  0  0  0  0  0  0  0  0  0  0  0
   -1.7539   -3.4163   -5.3884 C   0  0  0  0  0  0  0  0  0  0  0  0
   -2.0476   -1.5450   -9.0496 C   0  0  0  0  0  0  0  0  0  0  0  0
    0.5233   -2.5741   -3.1233 C   0  0  0  0  0  0  0  0  0  0  0  0
   -2.9166   -3.4571   -6.4702 C   0  0  0  0  0  0  0  0  0  0  0  0
   -1.4666   -3.0926   -9.8746 C   0  0  0  0  0  0  0  0  0  0  0  0
    1.8055   -0.3184   -4.0403 C   0  0  0  0  0  0  0  0  0  0  0  0
    1.5585   -1.2149   -5.0048 C   0  0  0  0  0  0  0  0  0  0  0  0
    0.8424   -0.5513   -2.9619 C   0  0  0  0  0  0  0  0  0  0  0  0
   -0.2019   -2.0270   -7.0157 C   0  0  2  0  0  0  0  0  0  0  0  0
   -0.6550   -2.3012   -5.5592 C   0  0  1  0  0  0  0  0  0  0  0  0
   -1.3069   -2.1323   -7.9971 C   0  0  1  0  0  0  0  0  0  0  0  0
    0.6819   -2.4707   -4.6899 C   0  0  2  0  0  0  0  0  0  0  0  0
   -2.4872   -3.4474   -7.9965 C   0  0  2  0  0  0  0  0  0  0  0  0
   -1.5892   -4.3405   -8.8170 C   0  0  2  0  0  0  0  0  0  0  0  0
   -0.2296    0.0866   -2.8637 O   0  0  0  0  0  0  0  0  0  0  0  0
   -1.7332   -5.5289   -9.5541 O   0  0  0  0  0  0  0  0  0  0  0  0
    0.5531   -2.7754   -7.3473 H   0  0  0  0  0  0  0  0  0  0  0  0
   -1.1848   -1.3930   -5.2599 H   0  0  0  0  0  0  0  0  0  0  0  0
   -0.4739   -1.9636   -8.7470 H   0  0  0  0  0  0  0  0  0  0  0  0
    0.8355   -4.3852   -5.8062 H   0  0  0  0  0  0  0  0  0  0  0  0
    1.7088   -4.4326   -4.3370 H   0  0  0  0  0  0  0  0  0  0  0  0
    2.3423   -3.5592   -5.7390 H   0  0  0  0  0  0  0  0  0  0  0  0
   -4.0436   -4.2476   -9.5458 H   0  0  0  0  0  0  0  0  0  0  0  0
   -4.7534   -2.9808   -8.4822 H   0  0  0  0  0  0  0  0  0  0  0  0
   -3.7819   -2.5810   -9.8499 H   0  0  0  0  0  0  0  0  0  0  0  0
   -0.6419   -4.1410   -7.0008 H   0  0  0  0  0  0  0  0  0  0  0  0
   -1.4291   -5.6547   -7.1295 H   0  0  0  0  0  0  0  0  0  0  0  0
    0.2058   -5.2738   -7.8030 H   0  0  0  0  0  0  0  0  0  0  0  0
    2.5424   -0.0477   -6.6116 H   0  0  0  0  0  0  0  0  0  0  0  0
    2.4950   -1.7708   -6.8119 H   0  0  0  0  0  0  0  0  0  0  0  0
    0.7903   -0.4379   -8.2094 H   0  0  0  0  0  0  0  0  0  0  0  0
   -0.0465    0.0710   -6.7597 H   0  0  0  0  0  0  0  0  0  0  0  0
    1.6749   -1.1316   -1.5502 H   0  0  0  0  0  0  0  0  0  0  0  0
   -1.3060   -4.4295   -5.3398 H   0  0  0  0  0  0  0  0  0  0  0  0
   -2.1273   -3.3437   -4.3622 H   0  0  0  0  0  0  0  0  0  0  0  0
   -1.8348   -0.5490   -9.4234 H   0  0  0  0  0  0  0  0  0  0  0  0
   -2.8998   -1.3718   -8.3219 H   0  0  0  0  0  0  0  0  0  0  0  0
   -0.0623   -3.4039   -2.7423 H   0  0  0  0  0  0  0  0  0  0  0  0
   -3.9987   -3.5553   -6.6604 H   0  0  0  0  0  0  0  0  0  0  0  0
   -3.3431   -4.2486   -5.8351 H   0  0  0  0  0  0  0  0  0  0  0  0
   -1.9717   -3.2310  -10.8319 H   0  0  0  0  0  0  0  0  0  0  0  0
   -0.3871   -3.1031  -10.0958 H   0  0  0  0  0  0  0  0  0  0  0  0
    2.3710    0.5906   -4.1338 H   0  0  0  0  0  0  0  0  0  0  0  0
   -0.8395   -5.9576   -9.4984 H   0  0  0  0  0  0  0  0  0  0  0  0
  1 26  1  0  0  0  0
  1 27  1  0  0  0  0
  1 28  1  0  0  0  0
  2 29  1  0  0  0  0
  2 30  1  0  0  0  0
  2 31  1  0  0  0  0
  3 32  1  0  0  0  0
  3 33  1  0  0  0  0
  3 34  1  0  0  0  0
  4 35  1  0  0  0  0
  4 36  1  0  0  0  0
  5  4  1  0  0  0  0
  5 37  1  0  0  0  0
  5 38  1  0  0  0  0
  6 39  1  0  0  0  0
  7 40  1  0  0  0  0
  7 41  1  0  0  0  0
  8 42  1  0  0  0  0
  8 43  1  0  0  0  0
  9  6  2  0  0  0  0
  9 44  1  0  0  0  0
 10  7  1  0  0  0  0
 10 45  1  0  0  0  0
 10 46  1  0  0  0  0
 11  8  1  0  0  0  0
 11 47  1  0  0  0  0
 11 48  1  0  0  0  0
 12 49  1  0  0  0  0
 13  4  1  0  0  0  0
 13 12  2  0  0  0  0
 14  6  1  0  0  0  0
 14 12  1  0  0  0  0
 15  5  1  0  0  0  0
 15 23  1  1  0  0  0
 16  7  1  0  0  0  0
 16 15  1  0  0  0  0
 16 24  1  6  0  0  0
 17  8  1  0  0  0  0
 17 15  1  0  0  0  0
 17 25  1  6  0  0  0
 18  9  1  0  0  0  0
 18 13  1  0  0  0  0
 18 16  1  0  0  0  0
 18  1  1  1  0  0  0
 19 10  1  0  0  0  0
 19 17  1  0  0  0  0
 19  2  1  6  0  0  0
 20 11  1  0  0  0  0
 20 19  1  0  0  0  0
 20 22  1  6  0  0  0
 20  3  1  0  0  0  0
 21 14  2  0  0  0  0
 22 50  1  0  0  0  0
M  END
>  <DRUGBANK_ID>
DB13586

>  <COMMON_NAME>
Metandienone

>  <CAS_NUMBER>
72-63-9

>  <UNII>
COZ1R7EOCC

>  <SYNONYMS>
Metandienone; Methandrostenolone

$$$$
