690
 OpenBabel10282417103D

 50 52  0  0  0  0  0  0  0  0999 V2000
    1.0630    0.0156    0.0559 Cl  0  0  0  0  0  0  0  0  0  0  0  0
    5.0921    1.8783    2.9793 F   0  0  0  0  0  0  0  0  0  0  0  0
    8.8942    1.4471    0.6327 O   0  0  0  0  0  0  0  0  0  0  0  0
    7.0034    0.1021    0.3397 N   0  0  0  0  0  0  0  0  0  0  0  0
    9.4810   -1.3249   -1.0475 N   0  0  0  0  0  0  0  0  0  0  0  0
    6.4375    3.1781   -0.3188 N   0  0  0  0  0  0  0  0  0  0  0  0
    7.6914   -1.0924    0.8547 C   0  0  0  0  0  0  0  0  0  0  0  0
    8.4533   -1.9668   -0.2010 C   0  0  0  0  0  0  0  0  0  0  0  0
    5.5921    0.1005    0.1305 C   0  0  0  0  0  0  0  0  0  0  0  0
   10.3718   -2.2422   -1.7483 C   0  0  0  0  0  0  0  0  0  0  0  0
    8.9993   -0.3263   -1.9981 C   0  0  0  0  0  0  0  0  0  0  0  0
    4.8481    1.2988    0.1791 C   0  0  0  0  0  0  0  0  0  0  0  0
    7.7665    1.2665    0.1420 C   0  0  0  0  0  0  0  0  0  0  0  0
    5.4373    2.6747    0.3253 C   0  0  0  0  0  0  0  0  0  0  0  0
    7.2249    2.1884   -0.9902 C   0  0  0  0  0  0  0  0  0  0  0  0
    4.8923   -1.1132   -0.0344 C   0  0  0  0  0  0  0  0  0  0  0  0
    3.4459    1.2524    0.1445 C   0  0  0  0  0  0  0  0  0  0  0  0
    9.6595   -2.9716   -2.8740 C   0  0  0  0  0  0  0  0  0  0  0  0
    7.8324   -0.5767   -2.9444 C   0  0  0  0  0  0  0  0  0  0  0  0
    4.8562    3.5676    1.3199 C   0  0  0  0  0  0  0  0  0  0  0  0
    3.4950   -1.1447   -0.0725 C   0  0  0  0  0  0  0  0  0  0  0  0
    2.7803    0.0387    0.0401 C   0  0  0  0  0  0  0  0  0  0  0  0
    4.7066    3.1136    2.6245 C   0  0  0  0  0  0  0  0  0  0  0  0
    4.5474    4.8749    0.9522 C   0  0  0  0  0  0  0  0  0  0  0  0
    4.1588    3.9527    3.5731 C   0  0  0  0  0  0  0  0  0  0  0  0
    4.0999    5.7469    1.9318 C   0  0  0  0  0  0  0  0  0  0  0  0
    3.8939    5.2821    3.2354 C   0  0  0  0  0  0  0  0  0  0  0  0
    8.3895   -0.7736    1.6367 H   0  0  0  0  0  0  0  0  0  0  0  0
    6.9666   -1.7376    1.3705 H   0  0  0  0  0  0  0  0  0  0  0  0
    8.9325   -2.7682    0.3832 H   0  0  0  0  0  0  0  0  0  0  0  0
    7.7116   -2.4731   -0.8251 H   0  0  0  0  0  0  0  0  0  0  0  0
   11.1950   -1.6464   -2.1686 H   0  0  0  0  0  0  0  0  0  0  0  0
   10.8412   -2.9460   -1.0541 H   0  0  0  0  0  0  0  0  0  0  0  0
    8.5547    0.3814   -1.3867 H   0  0  0  0  0  0  0  0  0  0  0  0
    9.8070    0.2975   -2.3988 H   0  0  0  0  0  0  0  0  0  0  0  0
    6.6350    1.6659   -1.7528 H   0  0  0  0  0  0  0  0  0  0  0  0
    8.0694    2.6301   -1.5359 H   0  0  0  0  0  0  0  0  0  0  0  0
    5.4100   -2.0637   -0.1394 H   0  0  0  0  0  0  0  0  0  0  0  0
    2.8677    2.1688    0.2232 H   0  0  0  0  0  0  0  0  0  0  0  0
    9.4219   -2.2808   -3.6789 H   0  0  0  0  0  0  0  0  0  0  0  0
   10.2910   -3.7173   -3.3465 H   0  0  0  0  0  0  0  0  0  0  0  0
    8.7308   -3.4360   -2.5279 H   0  0  0  0  0  0  0  0  0  0  0  0
    7.0799   -1.2221   -2.4845 H   0  0  0  0  0  0  0  0  0  0  0  0
    7.3352    0.3694   -3.1684 H   0  0  0  0  0  0  0  0  0  0  0  0
    8.1196   -0.9662   -3.9151 H   0  0  0  0  0  0  0  0  0  0  0  0
    2.9746   -2.0946   -0.1722 H   0  0  0  0  0  0  0  0  0  0  0  0
    4.6745    5.1999   -0.0784 H   0  0  0  0  0  0  0  0  0  0  0  0
    3.9548    3.5682    4.5652 H   0  0  0  0  0  0  0  0  0  0  0  0
    3.9100    6.7854    1.6780 H   0  0  0  0  0  0  0  0  0  0  0  0
    3.5313    5.9653    3.9966 H   0  0  0  0  0  0  0  0  0  0  0  0
  1 22  1  0  0  0  0
  2 23  1  0  0  0  0
  3 13  2  0  0  0  0
  4  7  1  0  0  0  0
  4  9  1  0  0  0  0
  4 13  1  0  0  0  0
  5  8  1  0  0  0  0
  5 10  1  0  0  0  0
  5 11  1  0  0  0  0
  6 14  2  0  0  0  0
  6 15  1  0  0  0  0
  7  8  1  0  0  0  0
  7 28  1  0  0  0  0
  7 29  1  0  0  0  0
  8 30  1  0  0  0  0
  8 31  1  0  0  0  0
  9 12  2  0  0  0  0
  9 16  1  0  0  0  0
 10 18  1  0  0  0  0
 10 32  1  0  0  0  0
 10 33  1  0  0  0  0
 11 19  1  0  0  0  0
 11 34  1  0  0  0  0
 11 35  1  0  0  0  0
 12 14  1  0  0  0  0
 12 17  1  0  0  0  0
 13 15  1  0  0  0  0
 14 20  1  0  0  0  0
 15 36  1  0  0  0  0
 15 37  1  0  0  0  0
 16 21  2  0  0  0  0
 16 38  1  0  0  0  0
 17 22  2  0  0  0  0
 17 39  1  0  0  0  0
 18 40  1  0  0  0  0
 18 41  1  0  0  0  0
 18 42  1  0  0  0  0
 19 43  1  0  0  0  0
 19 44  1  0  0  0  0
 19 45  1  0  0  0  0
 20 23  1  0  0  0  0
 20 24  2  0  0  0  0
 21 22  1  0  0  0  0
 21 46  1  0  0  0  0
 23 25  2  0  0  0  0
 24 26  1  0  0  0  0
 24 47  1  0  0  0  0
 25 27  1  0  0  0  0
 25 48  1  0  0  0  0
 26 27  2  0  0  0  0
 26 49  1  0  0  0  0
 27 50  1  0  0  0  0
M  END
>  <DRUGBANK_ID>
DB00690

>  <SECONDARY_ACCESSION_NUMBERS>
APRD00983

>  <COMMON_NAME>
Flurazepam

>  <CAS_NUMBER>
17617-23-1

>  <UNII>
IHP475989U

>  <SYNONYMS>
Flurazepam; Fluraz√©pam; Flurazepamum

$$$$
