
 OpenBabel10282417133D

 49 51  0  0  1  0  0  0  0  0999 V2000
    0.5403    0.0319   -0.1327 C   0  0  0  0  0  0  0  0  0  0  0  0
    1.2028    3.5316   -0.6097 C   0  0  0  0  0  0  0  0  0  0  0  0
    3.2597    2.0508   -4.1744 C   0  0  0  0  0  0  0  0  0  0  0  0
    3.9755   -2.9355   -0.8791 C   0  0  0  0  0  0  0  0  0  0  0  0
    0.1595   -0.4895   -1.6680 C   0  0  2  0  0  0  0  0  0  0  0  0
    3.0106    3.4948   -2.6000 C   0  0  0  0  0  0  0  0  0  0  0  0
    0.9862   -1.5944   -2.4169 C   0  0  2  0  0  0  0  0  0  0  0  0
    2.1022   -0.8114   -3.1298 C   0  0  2  0  0  0  0  0  0  0  0  0
    3.0208    4.5266   -1.6467 C   0  0  0  0  0  0  0  0  0  0  0  0
    2.0224    2.5572   -2.4291 C   0  0  0  0  0  0  0  0  0  0  0  0
    1.3675    0.4420   -3.5571 C   0  0  2  0  0  0  0  0  0  0  0  0
    3.9335    5.5501   -1.6499 N   0  0  0  0  0  0  0  0  0  0  0  0
    2.1059    4.5179   -0.6444 N   0  0  0  0  0  0  0  0  0  0  0  0
    1.0980    2.5282   -1.4680 N   0  0  0  0  0  0  0  0  0  0  0  0
    3.7859    3.1699   -3.6998 N   0  0  0  0  0  0  0  0  0  0  0  0
    2.1815    1.6432   -3.4265 N   0  0  0  0  0  0  0  0  0  0  0  0
    0.2484   -2.3513   -3.3970 O   0  0  0  0  0  0  0  0  0  0  0  0
    2.6806   -1.5545   -4.2034 O   0  0  0  0  0  0  0  0  0  0  0  0
    3.4014   -2.8793    1.5153 O   0  0  0  0  0  0  0  0  0  0  0  0
    4.0996   -0.5680    1.1087 O   0  0  0  0  0  0  0  0  0  0  0  0
    2.4818   -1.2465   -0.4732 O   0  0  0  0  0  0  0  0  0  0  0  0
    3.1803   -5.2260    1.3618 O   0  0  0  0  0  0  0  0  0  0  0  0
    4.7553   -4.6669    0.1377 O   0  0  0  0  0  0  0  0  0  0  0  0
    1.6526   -2.3074    2.1644 O   0  0  0  0  0  0  0  0  0  0  0  0
   -0.2463   -3.2275    1.1465 O   0  0  0  0  0  0  0  0  0  0  0  0
    0.4345   -0.9667    0.9769 O   0  0  0  0  0  0  0  0  0  0  0  0
    0.1744    0.5472   -2.7058 O   0  0  0  0  0  0  0  0  0  0  0  0
    1.5878   -4.1313    0.1852 O   0  0  0  0  0  0  0  0  0  0  0  0
    3.5633   -1.8262    0.2975 P   0  0  0  0  0  0  0  0  0  0  0  0
    3.2613   -4.7371   -0.2233 P   0  0  3  0  0  0  0  0  0  0  0  0
    1.0112   -2.5490    0.5810 P   0  0  3  0  0  0  0  0  0  0  0  0
   -0.8914   -0.7733   -1.5791 H   0  0  0  0  0  0  0  0  0  0  0  0
    1.3884   -2.4194   -1.8477 H   0  0  0  0  0  0  0  0  0  0  0  0
    2.9462   -0.5313   -2.4917 H   0  0  0  0  0  0  0  0  0  0  0  0
    1.0428    0.3719   -4.6001 H   0  0  0  0  0  0  0  0  0  0  0  0
   -0.0621    0.8948    0.1939 H   0  0  0  0  0  0  0  0  0  0  0  0
    1.5385    0.5068   -0.0907 H   0  0  0  0  0  0  0  0  0  0  0  0
    0.4854    3.5155    0.2038 H   0  0  0  0  0  0  0  0  0  0  0  0
    3.6385    1.5123   -5.0386 H   0  0  0  0  0  0  0  0  0  0  0  0
    5.0295   -2.6617   -0.8584 H   0  0  0  0  0  0  0  0  0  0  0  0
    3.5909   -2.8415   -1.9043 H   0  0  0  0  0  0  0  0  0  0  0  0
    4.5678    5.6287   -2.4293 H   0  0  0  0  0  0  0  0  0  0  0  0
    3.7958    6.2847   -0.9737 H   0  0  0  0  0  0  0  0  0  0  0  0
   -0.4610   -1.8117   -3.7803 H   0  0  0  0  0  0  0  0  0  0  0  0
    1.9620   -2.1058   -4.5725 H   0  0  0  0  0  0  0  0  0  0  0  0
    2.5033   -3.3289    1.7872 H   0  0  0  0  0  0  0  0  0  0  0  0
    4.4634    0.1105    0.5428 H   0  0  0  0  0  0  0  0  0  0  0  0
    3.5235   -4.5837    2.0246 H   0  0  0  0  0  0  0  0  0  0  0  0
    2.5207   -1.7915    2.2770 H   0  0  0  0  0  0  0  0  0  0  0  0
  1 36  1  0  0  0  0
  1 37  1  0  0  0  0
  2 38  1  0  0  0  0
  3 39  1  0  0  0  0
  4 40  1  0  0  0  0
  4 41  1  0  0  0  0
  5  1  1  0  0  0  0
  5 32  1  1  0  0  0
  7  5  1  0  0  0  0
  7 17  1  0  0  0  0
  7 33  1  1  0  0  0
  8  7  1  0  0  0  0
  8 18  1  0  0  0  0
  8 34  1  1  0  0  0
  9  6  2  0  0  0  0
 10  6  1  0  0  0  0
 11  8  1  0  0  0  0
 11 35  1  6  0  0  0
 11 16  1  0  0  0  0
 12  9  1  0  0  0  0
 12 42  1  0  0  0  0
 12 43  1  0  0  0  0
 13  2  2  0  0  0  0
 13  9  1  0  0  0  0
 14  2  1  0  0  0  0
 14 10  2  0  0  0  0
 15  3  2  0  0  0  0
 15  6  1  0  0  0  0
 16  3  1  0  0  0  0
 16 10  1  0  0  0  0
 17 44  1  0  0  0  0
 18 45  1  0  0  0  0
 19 46  1  0  0  0  0
 20 47  1  0  0  0  0
 22 48  1  0  0  0  0
 24 49  1  0  0  0  0
 26  1  1  0  0  0  0
 27  5  1  0  0  0  0
 27 11  1  0  0  0  0
 29  4  1  0  0  0  0
 29 19  1  0  0  0  0
 29 20  1  0  0  0  0
 29 21  2  0  0  0  0
 30  4  1  0  0  0  0
 30 22  1  0  0  0  0
 30 23  2  0  0  0  0
 30 28  1  0  0  0  0
 31 24  1  0  0  0  0
 31 25  2  0  0  0  0
 31 26  1  0  0  0  0
 31 28  1  0  0  0  0
M  END
>  <DRUGBANK_ID>
DB03909

>  <SECONDARY_ACCESSION_NUMBERS>
EXPT00416

>  <COMMON_NAME>
Adenosine-5'-[Beta, Gamma-Methylene]Triphosphate

$$$$
