1087
 OpenBabel10282417113D

 40 41  0  0  1  0  0  0  0  0999 V2000
    0.8872   -0.0233    0.0696 O   0  0  0  0  0  0  0  0  0  0  0  0
    0.0648   -4.7303   -0.8763 N   0  0  0  0  0  0  0  0  0  0  0  0
    0.0310   -9.4277   -1.2466 N   0  0  0  0  0  0  0  0  0  0  0  0
   -2.2299   -3.8529   -2.4065 N   0  0  0  0  0  0  0  0  0  0  0  0
   -0.6783   -5.8684   -1.4239 C   0  0  3  0  0  0  0  0  0  0  0  0
    0.2107   -6.6693   -2.3775 C   0  0  0  0  0  0  0  0  0  0  0  0
    1.3827   -7.3980   -1.7376 C   0  0  0  0  0  0  0  0  0  0  0  0
   -1.4440   -6.5869   -0.3192 C   0  0  0  0  0  0  0  0  0  0  0  0
   -0.2835   -3.3804   -1.0597 C   0  0  0  0  0  0  0  0  0  0  0  0
    0.9986   -8.4704   -0.7215 C   0  0  0  0  0  0  0  0  0  0  0  0
   -1.4206   -2.9667   -1.8020 C   0  0  0  0  0  0  0  0  0  0  0  0
    0.5385   -2.3984   -0.4543 C   0  0  0  0  0  0  0  0  0  0  0  0
   -1.7268   -1.5981   -1.9054 C   0  0  0  0  0  0  0  0  0  0  0  0
    0.2296   -1.0400   -0.5669 C   0  0  0  0  0  0  0  0  0  0  0  0
   -0.9036   -0.6537   -1.2796 C   0  0  0  0  0  0  0  0  0  0  0  0
   -2.8759   -1.2351   -2.6363 C   0  0  0  0  0  0  0  0  0  0  0  0
   -3.6781   -2.1933   -3.2469 C   0  0  0  0  0  0  0  0  0  0  0  0
   -3.3098   -3.5005   -3.1058 C   0  0  0  0  0  0  0  0  0  0  0  0
    2.3089   -0.0775    0.0463 C   0  0  0  0  0  0  0  0  0  0  0  0
    0.8854   -4.9374   -0.3220 H   0  0  0  0  0  0  0  0  0  0  0  0
   -0.3938   -9.9393   -0.4745 H   0  0  0  0  0  0  0  0  0  0  0  0
   -0.7458   -8.9541   -1.7060 H   0  0  0  0  0  0  0  0  0  0  0  0
   -1.4712   -5.6196   -2.1071 H   0  0  0  0  0  0  0  0  0  0  0  0
   -0.4147   -7.3702   -2.9468 H   0  0  0  0  0  0  0  0  0  0  0  0
    0.6025   -5.9815   -3.1436 H   0  0  0  0  0  0  0  0  0  0  0  0
    1.9744   -7.8592   -2.5365 H   0  0  0  0  0  0  0  0  0  0  0  0
    2.0359   -6.6599   -1.2576 H   0  0  0  0  0  0  0  0  0  0  0  0
   -2.1958   -5.9253    0.1238 H   0  0  0  0  0  0  0  0  0  0  0  0
   -1.9762   -7.4540   -0.7237 H   0  0  0  0  0  0  0  0  0  0  0  0
   -0.8232   -6.8902    0.5200 H   0  0  0  0  0  0  0  0  0  0  0  0
    1.8950   -9.0018   -0.3962 H   0  0  0  0  0  0  0  0  0  0  0  0
    0.6239   -8.0132    0.1916 H   0  0  0  0  0  0  0  0  0  0  0  0
    1.3923   -2.7116    0.1390 H   0  0  0  0  0  0  0  0  0  0  0  0
   -1.1470    0.4055   -1.3428 H   0  0  0  0  0  0  0  0  0  0  0  0
   -3.1551   -0.1892   -2.7317 H   0  0  0  0  0  0  0  0  0  0  0  0
   -4.5627   -1.9419   -3.8140 H   0  0  0  0  0  0  0  0  0  0  0  0
   -3.8571   -4.3292   -3.5400 H   0  0  0  0  0  0  0  0  0  0  0  0
    2.6770    0.8139    0.5675 H   0  0  0  0  0  0  0  0  0  0  0  0
    2.7005   -0.9488    0.5771 H   0  0  0  0  0  0  0  0  0  0  0  0
    2.6847   -0.0380   -0.9812 H   0  0  0  0  0  0  0  0  0  0  0  0
  1 14  1  0  0  0  0
  1 19  1  0  0  0  0
  2  5  1  0  0  0  0
  2  9  1  0  0  0  0
  2 20  1  0  0  0  0
  3 10  1  0  0  0  0
  3 21  1  0  0  0  0
  3 22  1  0  0  0  0
  4 11  1  0  0  0  0
  4 18  2  0  0  0  0
  5  6  1  0  0  0  0
  5  8  1  0  0  0  0
  5 23  1  0  0  0  0
  6  7  1  0  0  0  0
  6 24  1  0  0  0  0
  6 25  1  0  0  0  0
  7 10  1  0  0  0  0
  7 26  1  0  0  0  0
  7 27  1  0  0  0  0
  8 28  1  0  0  0  0
  8 29  1  0  0  0  0
  8 30  1  0  0  0  0
  9 11  2  0  0  0  0
  9 12  1  0  0  0  0
 10 31  1  0  0  0  0
 10 32  1  0  0  0  0
 11 13  1  0  0  0  0
 12 14  2  0  0  0  0
 12 33  1  0  0  0  0
 13 15  2  0  0  0  0
 13 16  1  0  0  0  0
 14 15  1  0  0  0  0
 15 34  1  0  0  0  0
 16 17  2  0  0  0  0
 16 35  1  0  0  0  0
 17 18  1  0  0  0  0
 17 36  1  0  0  0  0
 18 37  1  0  0  0  0
 19 38  1  0  0  0  0
 19 39  1  0  0  0  0
 19 40  1  0  0  0  0
M  END
>  <DRUGBANK_ID>
DB01087

>  <SECONDARY_ACCESSION_NUMBERS>
APRD00604

>  <COMMON_NAME>
Primaquine

>  <CAS_NUMBER>
90-34-6

>  <UNII>
MVR3634GX1

>  <SYNONYMS>
6-Methoxy-8-(4-amino-1-methylbutylamino)quinoline; 8-((4-Amino-1-methylbutyl)amino)-6-methoxyquinoline; 8-(4-Amino-1-methylbutylamino)-6-methoxyquinoline; Primachin; Primachina; Primachinum; Primaquin; Primaquina; Primaquine; Primaquinum

$$$$
