
 OpenBabel10282417123D

 26 25  0  0  1  0  0  0  0  0999 V2000
    1.1684    0.0405   -0.1712 N   0  0  0  0  0  0  0  0  0  0  0  0
    0.6259   -1.0852    0.5882 C   0  0  1  0  0  0  0  0  0  0  0  0
    1.2082   -0.9592    2.0626 C   0  0  0  0  0  0  0  0  0  0  0  0
    0.6725    0.1863    2.9101 C   0  0  0  0  0  0  0  0  0  0  0  0
   -0.8349    0.1107    3.0947 C   0  0  0  0  0  0  0  0  0  0  0  0
   -1.4422   -1.1329    3.7446 C   0  0  0  0  0  0  0  0  0  0  0  0
   -2.2557   -0.8847    4.7869 C   0  0  0  0  0  0  0  0  0  0  0  0
   -1.3151   -2.6345    3.5413 C   0  0  0  0  0  0  0  0  0  0  0  0
   -0.6805   -3.1052    2.4555 O   0  0  0  0  0  0  0  0  0  0  0  0
   -1.7444   -3.4531    4.3186 O   0  0  0  0  0  0  0  0  0  0  0  0
   -0.9572   -1.1348    0.2415 C   0  0  0  0  0  0  0  0  0  0  0  0
   -1.4533   -2.3719    0.0007 O   0  0  0  0  0  0  0  0  0  0  0  0
   -1.7248   -0.1863    0.2502 O   0  0  0  0  0  0  0  0  0  0  0  0
    0.7849    0.9040    0.2234 H   0  0  0  0  0  0  0  0  0  0  0  0
    2.1762    0.0880   -0.0409 H   0  0  0  0  0  0  0  0  0  0  0  0
    1.0388   -2.0124    0.1741 H   0  0  0  0  0  0  0  0  0  0  0  0
    1.1269   -1.8643    2.6723 H   0  0  0  0  0  0  0  0  0  0  0  0
    2.3035   -0.8631    2.0085 H   0  0  0  0  0  0  0  0  0  0  0  0
    1.1483    0.2032    3.9012 H   0  0  0  0  0  0  0  0  0  0  0  0
    0.9504    1.1409    2.4419 H   0  0  0  0  0  0  0  0  0  0  0  0
   -1.1075    1.0056    3.6803 H   0  0  0  0  0  0  0  0  0  0  0  0
   -1.3131    0.3733    2.1642 H   0  0  0  0  0  0  0  0  0  0  0  0
   -2.7159   -1.6857    5.3552 H   0  0  0  0  0  0  0  0  0  0  0  0
   -2.4802    0.1242    5.1100 H   0  0  0  0  0  0  0  0  0  0  0  0
   -0.5139   -2.3871    1.8648 H   0  0  0  0  0  0  0  0  0  0  0  0
   -0.8671   -3.1426   -0.1193 H   0  0  0  0  0  0  0  0  0  0  0  0
  1 14  1  0  0  0  0
  1 15  1  0  0  0  0
  2  1  1  0  0  0  0
  2  3  1  0  0  0  0
  2 11  1  0  0  0  0
  2 16  1  6  0  0  0
  3  4  1  0  0  0  0
  3 17  1  0  0  0  0
  3 18  1  0  0  0  0
  4  5  1  0  0  0  0
  4 19  1  0  0  0  0
  4 20  1  0  0  0  0
  5  6  1  0  0  0  0
  5 21  1  0  0  0  0
  5 22  1  0  0  0  0
  6  7  2  0  0  0  0
  6  8  1  0  0  0  0
  7 23  1  0  0  0  0
  7 24  1  0  0  0  0
  8  9  1  0  0  0  0
  8 10  2  0  0  0  0
  9 25  1  0  0  0  0
 11 12  1  0  0  0  0
 11 13  2  0  0  0  0
 12 26  1  0  0  0  0
M  END
>  <DRUGBANK_ID>
DB02892

>  <SECONDARY_ACCESSION_NUMBERS>
EXPT00136

>  <COMMON_NAME>
L-2-Amino-6-Methylene-Pimelic Acid

$$$$
