
 OpenBabel10282417153D

 52 54  0  0  0  0  0  0  0  0999 V2000
    0.0532    1.3903    0.1180 C   0  0  0  0  0  0  0  0  0  0  0  0
   -0.6687    0.1889    0.1548 C   0  0  0  0  0  0  0  0  0  0  0  0
   -0.0734   -0.9856    0.5352 C   0  0  0  0  0  0  0  0  0  0  0  0
    1.2015   -0.9097    1.0463 C   0  0  0  0  0  0  0  0  0  0  0  0
    1.9893    0.2539    0.8575 C   0  0  0  0  0  0  0  0  0  0  0  0
    1.4060    1.4198    0.4017 C   0  0  0  0  0  0  0  0  0  0  0  0
    3.9173   -1.9866    2.0651 C   0  0  0  0  0  0  0  0  0  0  0  0
    4.1909   -0.6322    1.7427 C   0  0  0  0  0  0  0  0  0  0  0  0
    3.4632    0.1535    0.6110 C   0  0  1  0  0  0  0  0  0  0  0  0
    4.5508   -2.7324    3.0155 C   0  0  0  0  0  0  0  0  0  0  0  0
    5.2354   -2.0115    3.9447 C   0  0  0  0  0  0  0  0  0  0  0  0
    5.5545   -0.6653    3.7033 C   0  0  0  0  0  0  0  0  0  0  0  0
    5.1145    0.0038    2.5565 C   0  0  0  0  0  0  0  0  0  0  0  0
    3.6082   -0.4181   -0.7559 N   0  0  0  0  0  0  0  0  0  0  0  0
    3.3081    0.1368   -2.2845 C   0  0  0  0  0  0  0  0  0  0  0  0
    1.9564   -0.1308   -2.7949 C   0  0  0  0  0  0  0  0  0  0  0  0
    1.8234   -1.5879   -2.7753 N   0  0  0  0  0  0  0  0  0  0  0  0
    2.1735   -2.1769   -1.4678 C   0  0  0  0  0  0  0  0  0  0  0  0
    3.3972   -1.8385   -0.6034 C   0  0  0  0  0  0  0  0  0  0  0  0
   -2.3305    0.1368   -0.2259 Cl  0  0  0  0  0  0  0  0  0  0  0  0
    2.3645   -2.2972   -3.9441 C   0  0  0  0  0  0  0  0  0  0  0  0
    3.8961   -2.4168   -4.3999 C   0  0  0  0  0  0  0  0  0  0  0  0
    4.8787   -3.0867   -3.5926 O   0  0  0  0  0  0  0  0  0  0  0  0
    5.1125   -2.3314   -2.4287 C   0  0  0  0  0  0  0  0  0  0  0  0
    5.9374   -0.8226   -1.8691 C   0  0  0  0  0  0  0  0  0  0  0  0
    5.5372    0.4528   -1.5803 O   0  0  0  0  0  0  0  0  0  0  0  0
    7.2236   -0.8980   -1.6345 O   0  0  0  0  0  0  0  0  0  0  0  0
   -0.4158    2.3038   -0.2087 H   0  0  0  0  0  0  0  0  0  0  0  0
   -0.4708   -1.9688    0.2635 H   0  0  0  0  0  0  0  0  0  0  0  0
    1.6242   -1.8944    1.1722 H   0  0  0  0  0  0  0  0  0  0  0  0
    2.0336    2.2700    0.1314 H   0  0  0  0  0  0  0  0  0  0  0  0
    3.1590   -2.5947    1.6111 H   0  0  0  0  0  0  0  0  0  0  0  0
    3.9598    1.1335    0.6078 H   0  0  0  0  0  0  0  0  0  0  0  0
    4.3490   -3.7996    3.0509 H   0  0  0  0  0  0  0  0  0  0  0  0
    5.4510   -2.4958    4.8850 H   0  0  0  0  0  0  0  0  0  0  0  0
    6.1258   -0.1214    4.4446 H   0  0  0  0  0  0  0  0  0  0  0  0
    5.4137    1.0327    2.3694 H   0  0  0  0  0  0  0  0  0  0  0  0
    3.5984    1.1725   -2.5349 H   0  0  0  0  0  0  0  0  0  0  0  0
    3.9890   -0.3409   -3.0227 H   0  0  0  0  0  0  0  0  0  0  0  0
    1.3515    0.4516   -2.1023 H   0  0  0  0  0  0  0  0  0  0  0  0
    1.8000    0.3370   -3.7799 H   0  0  0  0  0  0  0  0  0  0  0  0
    1.4638   -1.5744   -0.9637 H   0  0  0  0  0  0  0  0  0  0  0  0
    1.7775   -3.1712   -1.2475 H   0  0  0  0  0  0  0  0  0  0  0  0
    4.4961   -1.9208   -0.5624 H   0  0  0  0  0  0  0  0  0  0  0  0
    3.6361   -2.7627   -0.0236 H   0  0  0  0  0  0  0  0  0  0  0  0
    1.9270   -3.2949   -3.8538 H   0  0  0  0  0  0  0  0  0  0  0  0
    1.8701   -1.8007   -4.7891 H   0  0  0  0  0  0  0  0  0  0  0  0
    3.9224   -2.9408   -5.3531 H   0  0  0  0  0  0  0  0  0  0  0  0
    4.3322   -1.4370   -4.5701 H   0  0  0  0  0  0  0  0  0  0  0  0
    4.0729   -2.2123   -2.3123 H   0  0  0  0  0  0  0  0  0  0  0  0
    5.2545   -3.1250   -1.6561 H   0  0  0  0  0  0  0  0  0  0  0  0
    4.6624    0.6254   -1.1240 H   0  0  0  0  0  0  0  0  0  0  0  0
  1  2  2  0  0  0  0
  1  6  1  0  0  0  0
  1 28  1  0  0  0  0
  2  3  1  0  0  0  0
  2 20  1  0  0  0  0
  3  4  2  0  0  0  0
  3 29  1  0  0  0  0
  4  5  1  0  0  0  0
  4 30  1  0  0  0  0
  5  6  2  0  0  0  0
  5  9  1  0  0  0  0
  6 31  1  0  0  0  0
  7  8  1  0  0  0  0
  7 10  2  0  0  0  0
  7 32  1  0  0  0  0
  8 13  2  0  0  0  0
  9  8  1  0  0  0  0
  9 14  1  0  0  0  0
  9 33  1  6  0  0  0
 10 11  1  0  0  0  0
 10 34  1  0  0  0  0
 11 12  2  0  0  0  0
 11 35  1  0  0  0  0
 12 13  1  0  0  0  0
 12 36  1  0  0  0  0
 13 37  1  0  0  0  0
 14 15  1  0  0  0  0
 14 19  1  0  0  0  0
 15 16  1  0  0  0  0
 15 38  1  0  0  0  0
 15 39  1  0  0  0  0
 16 17  1  0  0  0  0
 16 40  1  0  0  0  0
 16 41  1  0  0  0  0
 17 18  1  0  0  0  0
 17 21  1  0  0  0  0
 18 19  1  0  0  0  0
 18 42  1  0  0  0  0
 18 43  1  0  0  0  0
 19 44  1  0  0  0  0
 19 45  1  0  0  0  0
 21 22  1  0  0  0  0
 21 46  1  0  0  0  0
 21 47  1  0  0  0  0
 22 23  1  0  0  0  0
 22 48  1  0  0  0  0
 22 49  1  0  0  0  0
 23 24  1  0  0  0  0
 24 25  1  0  0  0  0
 24 50  1  0  0  0  0
 24 51  1  0  0  0  0
 25 26  1  0  0  0  0
 25 27  2  0  0  0  0
 26 52  1  0  0  0  0
M  END
>  <DRUGBANK_ID>
DB06282

>  <COMMON_NAME>
Levocetirizine

>  <CAS_NUMBER>
130018-77-8

>  <UNII>
6U5EA9RT2O

>  <SYNONYMS>
2-(2-{4-[(R)-(4-chlorophenyl)(phenyl)methyl]piperazin-1-yl}ethoxy)acetic acid; Levocetirizina; Levocetirizine

$$$$
