
 OpenBabel10282417133D

 64 67  0  0  1  0  0  0  0  0999 V2000
    0.9695    0.0308   -0.0070 C   0  0  0  0  0  0  0  0  0  0  0  0
    3.0071   -6.5585   -6.1977 C   0  0  0  0  0  0  0  0  0  0  0  0
    4.7046   -3.9550   -0.2667 C   0  0  0  0  0  0  0  0  0  0  0  0
    2.9526  -10.3769   -2.5416 C   0  0  0  0  0  0  0  0  0  0  0  0
    2.5480   -6.8301   -0.2718 C   0  0  0  0  0  0  0  0  0  0  0  0
    0.3750   -0.6444    1.1805 C   0  0  0  0  0  0  0  0  0  0  0  0
    2.0508   -5.6514   -5.3586 C   0  0  2  0  0  0  0  0  0  0  0  0
    3.1526   -3.8846   -0.1101 C   0  0  2  0  0  0  0  0  0  0  0  0
    3.0955   -8.7727   -0.5150 C   0  0  0  0  0  0  0  0  0  0  0  0
    2.6417   -4.2675   -5.0230 C   0  0  2  0  0  0  0  0  0  0  0  0
    2.3497   -2.6241   -0.1945 C   0  0  2  0  0  0  0  0  0  0  0  0
    3.0066   -4.3831   -3.5584 C   0  0  2  0  0  0  0  0  0  0  0  0
    1.7349   -2.5855    1.1933 C   0  0  2  0  0  0  0  0  0  0  0  0
    4.0382   -9.8524   -0.5784 C   0  0  0  0  0  0  0  0  0  0  0  0
    2.2516   -8.4418   -1.6362 C   0  0  0  0  0  0  0  0  0  0  0  0
    1.8412   -5.7520   -2.9143 C   0  0  2  0  0  0  0  0  0  0  0  0
    1.6003   -4.0423    1.6254 C   0  0  1  0  0  0  0  0  0  0  0  0
    5.1710   -9.9912    0.2460 N   0  0  0  0  0  0  0  0  0  0  0  0
    3.8982  -10.6905   -1.6139 N   0  0  0  0  0  0  0  0  0  0  0  0
    2.1057   -9.2878   -2.6695 N   0  0  0  0  0  0  0  0  0  0  0  0
    3.0034   -7.8412    0.4229 N   0  0  0  0  0  0  0  0  0  0  0  0
    1.9858   -6.9976   -1.6040 N   0  0  0  0  0  0  0  0  0  0  0  0
   -0.3179   -0.0149    2.0218 O   0  0  0  0  0  0  0  0  0  0  0  0
    1.6758   -3.2321   -5.1422 O   0  0  0  0  0  0  0  0  0  0  0  0
    1.3312   -2.7481   -1.2391 O   0  0  0  0  0  0  0  0  0  0  0  0
    3.2083   -3.0872   -2.9879 O   0  0  0  0  0  0  0  0  0  0  0  0
    0.4559   -4.7750    1.2114 O   0  0  0  0  0  0  0  0  0  0  0  0
    4.8682   -6.6307   -4.3960 O   0  0  0  0  0  0  0  0  0  0  0  0
    4.6893   -9.0358   -4.3153 O   0  0  0  0  0  0  0  0  0  0  0  0
    5.5264   -6.6435   -0.5408 O   0  0  0  0  0  0  0  0  0  0  0  0
    3.5561   -5.6021   -1.9202 O   0  0  0  0  0  0  0  0  0  0  0  0
    3.1969   -7.8403   -5.5813 O   0  0  0  0  0  0  0  0  0  0  0  0
    5.2695   -4.5201   -1.5064 O   0  0  0  0  0  0  0  0  0  0  0  0
    0.4656   -1.9694    1.2742 O   0  0  0  0  0  0  0  0  0  0  0  0
    1.5718   -6.3918   -4.1703 O   0  0  0  0  0  0  0  0  0  0  0  0
    2.8053   -4.5524    1.1264 O   0  0  0  0  0  0  0  0  0  0  0  0
    4.4730   -7.7756   -2.3659 O   0  0  0  0  0  0  0  0  0  0  0  0
    3.8350   -7.8080   -3.9736 P   0  0  3  0  0  0  0  0  0  0  0  0
    4.8713   -6.1479   -1.9362 P   0  0  3  0  0  0  0  0  0  0  0  0
    1.1703   -5.4628   -5.9731 H   0  0  0  0  0  0  0  0  0  0  0  0
    2.6139   -4.4001   -0.8747 H   0  0  0  0  0  0  0  0  0  0  0  0
    3.4963   -3.9775   -5.6709 H   0  0  0  0  0  0  0  0  0  0  0  0
    2.9851   -1.7952   -0.4977 H   0  0  0  0  0  0  0  0  0  0  0  0
    4.0793   -4.6063   -3.6416 H   0  0  0  0  0  0  0  0  0  0  0  0
    2.4905   -2.1478    1.8607 H   0  0  0  0  0  0  0  0  0  0  0  0
    1.0112   -5.1905   -2.4821 H   0  0  0  0  0  0  0  0  0  0  0  0
    1.6544   -4.1958    2.7026 H   0  0  0  0  0  0  0  0  0  0  0  0
    0.6449    1.0739   -0.0018 H   0  0  0  0  0  0  0  0  0  0  0  0
    0.5891   -0.4117   -0.9328 H   0  0  0  0  0  0  0  0  0  0  0  0
    2.0608    0.0325    0.0154 H   0  0  0  0  0  0  0  0  0  0  0  0
    3.9948   -6.1058   -6.3893 H   0  0  0  0  0  0  0  0  0  0  0  0
    2.6136   -6.6994   -7.2085 H   0  0  0  0  0  0  0  0  0  0  0  0
    5.1229   -2.9545   -0.1394 H   0  0  0  0  0  0  0  0  0  0  0  0
    5.1091   -4.5595    0.5553 H   0  0  0  0  0  0  0  0  0  0  0  0
    2.9619  -11.0300   -3.4079 H   0  0  0  0  0  0  0  0  0  0  0  0
    3.1426   -5.9974   -0.0215 H   0  0  0  0  0  0  0  0  0  0  0  0
    5.2713   -9.3364    1.0126 H   0  0  0  0  0  0  0  0  0  0  0  0
    5.4750  -10.9445    0.4009 H   0  0  0  0  0  0  0  0  0  0  0  0
    1.2365   -3.1532   -4.2794 H   0  0  0  0  0  0  0  0  0  0  0  0
    0.6655   -3.4011   -0.9598 H   0  0  0  0  0  0  0  0  0  0  0  0
    2.3976   -2.7324   -2.6009 H   0  0  0  0  0  0  0  0  0  0  0  0
    0.2265   -4.6579    0.2875 H   0  0  0  0  0  0  0  0  0  0  0  0
    4.2561   -5.9134   -4.4672 H   0  0  0  0  0  0  0  0  0  0  0  0
    6.4571   -6.9235   -0.6460 H   0  0  0  0  0  0  0  0  0  0  0  0
  1 48  1  0  0  0  0
  1 49  1  0  0  0  0
  1 50  1  0  0  0  0
  2 51  1  0  0  0  0
  2 52  1  0  0  0  0
  3 53  1  0  0  0  0
  3 54  1  0  0  0  0
  4 55  1  0  0  0  0
  5 56  1  0  0  0  0
  6  1  1  0  0  0  0
  7  2  1  0  0  0  0
  7 40  1  6  0  0  0
  8 41  1  6  0  0  0
  8  3  1  0  0  0  0
 10  7  1  0  0  0  0
 10 24  1  0  0  0  0
 10 42  1  6  0  0  0
 11  8  1  0  0  0  0
 11 25  1  0  0  0  0
 11 43  1  6  0  0  0
 12 10  1  0  0  0  0
 12 26  1  0  0  0  0
 12 44  1  1  0  0  0
 13 11  1  0  0  0  0
 13 34  1  0  0  0  0
 13 45  1  1  0  0  0
 14  9  2  0  0  0  0
 15  9  1  0  0  0  0
 16 12  1  0  0  0  0
 16 46  1  1  0  0  0
 16 22  1  0  0  0  0
 17 13  1  0  0  0  0
 17 27  1  0  0  0  0
 17 47  1  1  0  0  0
 18 14  1  0  0  0  0
 18 57  1  0  0  0  0
 18 58  1  0  0  0  0
 19  4  2  0  0  0  0
 19 14  1  0  0  0  0
 20  4  1  0  0  0  0
 20 15  2  0  0  0  0
 21  5  2  0  0  0  0
 21  9  1  0  0  0  0
 22  5  1  0  0  0  0
 22 15  1  0  0  0  0
 23  6  2  0  0  0  0
 24 59  1  0  0  0  0
 25 60  1  0  0  0  0
 26 61  1  0  0  0  0
 27 62  1  0  0  0  0
 28 63  1  0  0  0  0
 30 64  1  0  0  0  0
 32  2  1  0  0  0  0
 33  3  1  0  0  0  0
 34  6  1  0  0  0  0
 35  7  1  0  0  0  0
 35 16  1  0  0  0  0
 36  8  1  0  0  0  0
 36 17  1  0  0  0  0
 38 28  1  0  0  0  0
 38 29  2  0  0  0  0
 38 32  1  0  0  0  0
 38 37  1  0  0  0  0
 39 30  1  0  0  0  0
 39 31  2  0  0  0  0
 39 33  1  0  0  0  0
 39 37  1  0  0  0  0
M  END
>  <DRUGBANK_ID>
DB03478

>  <SECONDARY_ACCESSION_NUMBERS>
EXPT02408

>  <COMMON_NAME>
2'-O-Acetyl Adenosine-5-Diphosphoribose

$$$$
