
 OpenBabel10282417203D

 43 36  0  0  0  0  0  0  0  0999 V2000
    1.2006    0.3939   -0.3088 O   0  0  0  0  0  0  0  0  0  0  0  0
    2.1216   -0.4052   -0.5760 C   0  0  0  0  0  0  0  0  0  0  0  0
    2.7951   -1.6339    0.6032 C   0  0  0  0  0  0  0  0  0  0  0  0
    3.9635   -2.4510   -0.0143 C   0  0  1  0  0  0  0  0  0  0  0  0
    5.1672   -1.7057   -1.0081 C   0  0  0  0  0  0  0  0  0  0  0  0
    6.3479   -1.8119   -0.5966 O   0  5  0  0  0  0  0  0  0  0  0  0
    4.6909   -0.9334   -1.9098 O   0  0  0  0  0  0  0  0  0  0  0  0
    2.7560    0.2255   -1.6262 O   0  0  0  0  0  0  0  0  0  0  0  0
    4.6663   -3.0766    1.1496 N   0  0  0  0  0  0  0  0  0  0  0  0
    2.2801    0.4336    1.7484 O   0  0  0  0  0  0  0  0  0  0  0  0
    3.1586    0.7625    1.0545 C   0  0  0  0  0  0  0  0  0  0  0  0
    3.4072    2.0811    0.5357 C   0  0  0  0  0  0  0  0  0  0  0  0
    4.3514    2.0375    1.6996 C   0  0  1  0  0  0  0  0  0  0  0  0
    5.6440    0.8395    1.7857 C   0  0  0  0  0  0  0  0  0  0  0  0
    6.7011    1.2937    1.2876 O   0  5  0  0  0  0  0  0  0  0  0  0
    5.2730   -0.3612    2.0151 O   0  0  0  0  0  0  0  0  0  0  0  0
    4.0743    0.1293    0.2134 O   0  0  0  0  0  0  0  0  0  0  0  0
    4.9640    3.2567    1.2645 N   0  0  0  0  0  0  0  0  0  0  0  0
    0.1665    0.5927   -2.2168 O   0  0  0  0  0  0  0  0  0  0  0  0
    0.2530    1.6713    1.6692 O   0  0  0  0  0  0  0  0  0  0  0  0
    1.5377    1.8878   -1.8184 Mg  0  2  0  0  0  0  0  0  0  0  0  0
    0.8678   -2.2842   -1.2010 O   0  0  0  0  0  0  0  0  0  0  0  0
   -0.6200   -0.8684    0.3430 O   0  0  0  0  0  0  0  0  0  0  0  0
    3.2074   -1.2847    1.5986 H   0  0  0  0  0  0  0  0  0  0  0  0
    1.9940   -2.1485    1.1873 H   0  0  0  0  0  0  0  0  0  0  0  0
    3.4745   -3.2204   -0.5988 H   0  0  0  0  0  0  0  0  0  0  0  0
    3.7588   -0.0218   -1.5967 H   0  0  0  0  0  0  0  0  0  0  0  0
    5.5253   -3.4990    0.7731 H   0  0  0  0  0  0  0  0  0  0  0  0
    5.1137   -2.2942    1.6878 H   0  0  0  0  0  0  0  0  0  0  0  0
    3.8282    2.0376   -0.4927 H   0  0  0  0  0  0  0  0  0  0  0  0
    2.4794    2.6394    0.4738 H   0  0  0  0  0  0  0  0  0  0  0  0
    3.7793    1.9880    2.6458 H   0  0  0  0  0  0  0  0  0  0  0  0
    4.6805   -0.5103    0.7121 H   0  0  0  0  0  0  0  0  0  0  0  0
    5.7129    3.2722    1.9489 H   0  0  0  0  0  0  0  0  0  0  0  0
    5.5060    2.9159    0.4392 H   0  0  0  0  0  0  0  0  0  0  0  0
   -0.3924    0.5372   -1.3845 H   0  0  0  0  0  0  0  0  0  0  0  0
    0.3835   -0.4019   -2.1509 H   0  0  0  0  0  0  0  0  0  0  0  0
    0.2281    0.7892    2.0990 H   0  0  0  0  0  0  0  0  0  0  0  0
    1.1401    1.5012    1.3148 H   0  0  0  0  0  0  0  0  0  0  0  0
    0.1958   -2.1423   -0.5000 H   0  0  0  0  0  0  0  0  0  0  0  0
    1.6138   -2.5734   -0.6501 H   0  0  0  0  0  0  0  0  0  0  0  0
   -0.5291   -1.2783    1.2194 H   0  0  0  0  0  0  0  0  0  0  0  0
    0.1656   -0.2879    0.3855 H   0  0  0  0  0  0  0  0  0  0  0  0
  1  2  2  0  0  0  0
  2  3  1  0  0  0  0
  2  8  1  0  0  0  0
  3  4  1  0  0  0  0
  3 24  1  0  0  0  0
  3 25  1  0  0  0  0
  4  5  1  0  0  0  0
  4  9  1  0  0  0  0
  4 26  1  6  0  0  0
  5  6  1  0  0  0  0
  5  7  2  0  0  0  0
  8 27  1  0  0  0  0
  9 28  1  0  0  0  0
  9 29  1  0  0  0  0
 10 11  2  0  0  0  0
 11 12  1  0  0  0  0
 11 17  1  0  0  0  0
 12 13  1  0  0  0  0
 12 30  1  0  0  0  0
 12 31  1  0  0  0  0
 13 14  1  0  0  0  0
 13 18  1  0  0  0  0
 13 32  1  1  0  0  0
 14 15  1  0  0  0  0
 14 16  2  0  0  0  0
 17 33  1  0  0  0  0
 18 34  1  0  0  0  0
 18 35  1  0  0  0  0
 19 36  1  0  0  0  0
 19 37  1  0  0  0  0
 20 38  1  0  0  0  0
 20 39  1  0  0  0  0
 22 40  1  0  0  0  0
 22 41  1  0  0  0  0
 23 42  1  0  0  0  0
 23 43  1  0  0  0  0
M  CHG  3   6  -1  15  -1  21   2
M  END
>  <DRUGBANK_ID>
DB13359

>  <COMMON_NAME>
Magnesium aspartate

>  <CAS_NUMBER>
7018-07-7

>  <UNII>
R17X820ROL

>  <SYNONYMS>
(+)-magnesium aspartate tetrahydrate; Aspartic acid, magnesium salt; Magnesium aspartate; Magnesium aspartate tetrahydrate

$$$$
