
 OpenBabel10282417133D

 15 14  0  0  1  0  0  0  0  0999 V2000
    1.0724    1.8647    1.5384 C   0  0  0  0  0  0  0  0  0  0  0  0
    0.4177    0.5196    1.2403 C   0  0  2  0  0  0  0  0  0  0  0  0
    0.8995    0.0068   -0.1219 C   0  0  0  0  0  0  0  0  0  0  0  0
    0.2282    0.6075   -1.2703 N   0  0  0  0  0  0  0  0  0  0  0  0
   -1.1193    0.5097    1.3806 C   0  0  0  0  0  0  0  0  0  0  0  0
   -1.5654   -0.2909    2.2611 O   0  5  0  0  0  0  0  0  0  0  0  0
   -1.7701    1.2419    0.5903 O   0  0  0  0  0  0  0  0  0  0  0  0
    2.1321    1.6933    1.7714 H   0  0  0  0  0  0  0  0  0  0  0  0
    0.6238    2.3755    2.3943 H   0  0  0  0  0  0  0  0  0  0  0  0
    1.0398    2.5382    0.6761 H   0  0  0  0  0  0  0  0  0  0  0  0
    0.7925   -0.1776    2.0039 H   0  0  0  0  0  0  0  0  0  0  0  0
    1.9678    0.2318   -0.2318 H   0  0  0  0  0  0  0  0  0  0  0  0
    0.8048   -1.0832   -0.1600 H   0  0  0  0  0  0  0  0  0  0  0  0
    0.3441    0.0456   -2.1029 H   0  0  0  0  0  0  0  0  0  0  0  0
   -0.7844    0.6134   -1.0438 H   0  0  0  0  0  0  0  0  0  0  0  0
  1  8  1  0  0  0  0
  1  9  1  0  0  0  0
  1 10  1  0  0  0  0
  2  5  1  0  0  0  0
  2 11  1  1  0  0  0
  2  3  1  0  0  0  0
  2  1  1  0  0  0  0
  3  4  1  0  0  0  0
  3 12  1  0  0  0  0
  3 13  1  0  0  0  0
  4 14  1  0  0  0  0
  4 15  1  0  0  0  0
  5  6  1  0  0  0  0
  5  7  2  0  0  0  0
M  CHG  1   6  -1
M  END
>  <DRUGBANK_ID>
DB03432

>  <SECONDARY_ACCESSION_NUMBERS>
EXPT00706

>  <COMMON_NAME>
Beta-Amino Isobutyrate

$$$$
