
 OpenBabel10282417203D

 57 59  0  0  0  0  0  0  0  0999 V2000
   -7.9726   14.3928    2.1217 C   0  0  0  0  0  0  0  0  0  0  0  0
   -7.5280   12.0515    2.1183 N   0  0  0  0  0  0  0  0  0  0  0  0
   -6.9127   13.3219    2.3787 C   0  0  1  0  0  0  0  0  0  0  0  0
   -5.6714   13.6041    1.5210 C   0  0  0  0  0  0  0  0  0  0  0  0
   -5.0077   14.9276    1.7852 C   0  0  0  0  0  0  0  0  0  0  0  0
   -4.4632   14.9762    3.1786 C   0  0  0  0  0  0  0  0  0  0  0  0
   -3.2876   15.0455    3.4920 O   0  0  0  0  0  0  0  0  0  0  0  0
   -5.4221   14.9058    4.1309 O   0  0  0  0  0  0  0  0  0  0  0  0
   -8.5767   14.5246    1.0663 O   0  0  0  0  0  0  0  0  0  0  0  0
   -8.2173   15.1897    3.1882 O   0  0  0  0  0  0  0  0  0  0  0  0
   -7.1276   11.2758    1.0942 C   0  0  0  0  0  0  0  0  0  0  0  0
   -7.8678   10.0612    0.9813 C   0  0  0  0  0  0  0  0  0  0  0  0
   -9.2397    9.8517    0.8399 C   0  0  0  0  0  0  0  0  0  0  0  0
   -9.7312    8.5724    0.5082 C   0  0  0  0  0  0  0  0  0  0  0  0
   -8.8427    7.5690    0.1779 C   0  0  0  0  0  0  0  0  0  0  0  0
   -7.5142    8.0163    0.1986 C   0  0  0  0  0  0  0  0  0  0  0  0
   -6.9893    9.0754    0.8331 C   0  0  0  0  0  0  0  0  0  0  0  0
   -6.1476   11.4058    0.3688 O   0  0  0  0  0  0  0  0  0  0  0  0
   -9.3130    6.1062    0.0224 C   0  0  0  0  0  0  0  0  0  0  0  0
   -8.7908    5.2473   -1.1513 C   0  0  0  0  0  0  0  0  0  0  0  0
   -7.4959    3.5969    3.7138 C   0  0  0  0  0  0  0  0  0  0  0  0
   -7.3039    4.7350    3.0163 N   0  0  0  0  0  0  0  0  0  0  0  0
   -6.9569    4.6689    1.6973 C   0  0  0  0  0  0  0  0  0  0  0  0
   -7.0469    3.5235    1.0149 C   0  0  0  0  0  0  0  0  0  0  0  0
   -7.2060    2.3141    1.8210 C   0  0  0  0  0  0  0  0  0  0  0  0
   -7.4321    2.4147    3.1774 N   0  0  0  0  0  0  0  0  0  0  0  0
   -6.9416    3.4668   -0.4902 C   0  0  0  0  0  0  0  0  0  0  0  0
   -7.2979    4.7857   -1.1690 C   0  0  2  0  0  0  0  0  0  0  0  0
   -6.3295    5.7075   -0.5036 C   0  0  0  0  0  0  0  0  0  0  0  0
   -6.5713    5.7638    0.9910 N   0  0  0  0  0  0  0  0  0  0  0  0
   -7.0995    1.2274    1.2256 O   0  0  0  0  0  0  0  0  0  0  0  0
   -7.7345    3.7551    5.0338 N   0  0  0  0  0  0  0  0  0  0  0  0
   -8.3171   11.7412    2.6711 H   0  0  0  0  0  0  0  0  0  0  0  0
   -6.6723   13.2353    3.4374 H   0  0  0  0  0  0  0  0  0  0  0  0
   -4.9249   12.8088    1.6696 H   0  0  0  0  0  0  0  0  0  0  0  0
   -5.9547   13.6067    0.4572 H   0  0  0  0  0  0  0  0  0  0  0  0
   -4.1773   15.0287    1.0770 H   0  0  0  0  0  0  0  0  0  0  0  0
   -5.6945   15.7564    1.6044 H   0  0  0  0  0  0  0  0  0  0  0  0
   -4.9052   14.8492    4.9660 H   0  0  0  0  0  0  0  0  0  0  0  0
   -7.6370   15.0300    3.9602 H   0  0  0  0  0  0  0  0  0  0  0  0
   -9.9121   10.6859    0.9525 H   0  0  0  0  0  0  0  0  0  0  0  0
  -10.7972    8.3834    0.4559 H   0  0  0  0  0  0  0  0  0  0  0  0
   -6.5761    7.5982   -0.0383 H   0  0  0  0  0  0  0  0  0  0  0  0
   -5.9014    9.1558    0.9490 H   0  0  0  0  0  0  0  0  0  0  0  0
   -9.1561    5.5525    0.9555 H   0  0  0  0  0  0  0  0  0  0  0  0
  -10.4126    6.0939   -0.0359 H   0  0  0  0  0  0  0  0  0  0  0  0
   -9.3994    4.3327   -1.2320 H   0  0  0  0  0  0  0  0  0  0  0  0
   -9.0232    5.8136   -2.0658 H   0  0  0  0  0  0  0  0  0  0  0  0
   -7.4299    5.6403    3.4495 H   0  0  0  0  0  0  0  0  0  0  0  0
   -7.5519    2.6841   -0.9297 H   0  0  0  0  0  0  0  0  0  0  0  0
   -5.8872    3.2713   -0.7384 H   0  0  0  0  0  0  0  0  0  0  0  0
   -7.0248    4.7448   -2.2357 H   0  0  0  0  0  0  0  0  0  0  0  0
   -5.2666    5.4967   -0.6047 H   0  0  0  0  0  0  0  0  0  0  0  0
   -6.4177    6.5611   -1.2005 H   0  0  0  0  0  0  0  0  0  0  0  0
   -7.0866    6.5241    1.4298 H   0  0  0  0  0  0  0  0  0  0  0  0
   -7.7267    2.9137    5.5981 H   0  0  0  0  0  0  0  0  0  0  0  0
   -7.7411    4.6397    5.5177 H   0  0  0  0  0  0  0  0  0  0  0  0
  1  3  1  0  0  0  0
  1  9  2  0  0  0  0
  1 10  1  0  0  0  0
  2 11  1  0  0  0  0
  2 33  1  0  0  0  0
  3  2  1  0  0  0  0
  3  4  1  0  0  0  0
  3 34  1  1  0  0  0
  4  5  1  0  0  0  0
  4 35  1  0  0  0  0
  4 36  1  0  0  0  0
  5  6  1  0  0  0  0
  5 37  1  0  0  0  0
  5 38  1  0  0  0  0
  6  7  2  0  0  0  0
  6  8  1  0  0  0  0
  8 39  1  0  0  0  0
 10 40  1  0  0  0  0
 11 12  1  0  0  0  0
 11 18  2  0  0  0  0
 12 13  1  0  0  0  0
 12 17  2  0  0  0  0
 13 14  2  0  0  0  0
 13 41  1  0  0  0  0
 14 15  1  0  0  0  0
 14 42  1  0  0  0  0
 15 16  2  0  0  0  0
 15 19  1  0  0  0  0
 16 17  1  0  0  0  0
 16 43  1  0  0  0  0
 17 44  1  0  0  0  0
 19 20  1  0  0  0  0
 19 45  1  0  0  0  0
 19 46  1  0  0  0  0
 20 47  1  0  0  0  0
 20 48  1  0  0  0  0
 21 22  1  0  0  0  0
 21 26  2  0  0  0  0
 21 32  1  0  0  0  0
 22 23  1  0  0  0  0
 22 49  1  0  0  0  0
 23 24  2  0  0  0  0
 23 30  1  0  0  0  0
 24 25  1  0  0  0  0
 24 27  1  0  0  0  0
 25 26  1  0  0  0  0
 25 31  2  0  0  0  0
 27 28  1  0  0  0  0
 27 50  1  0  0  0  0
 27 51  1  0  0  0  0
 28 29  1  0  0  0  0
 28 52  1  6  0  0  0
 28 20  1  0  0  0  0
 29 30  1  0  0  0  0
 29 53  1  0  0  0  0
 29 54  1  0  0  0  0
 30 55  1  0  0  0  0
 32 56  1  0  0  0  0
 32 57  1  0  0  0  0
M  END
>  <DRUGBANK_ID>
DB12769

>  <COMMON_NAME>
Lometrexol

>  <CAS_NUMBER>
106400-81-1

>  <UNII>
6P3AVY8A7Q

>  <SYNONYMS>
Lometrexol; Lometrexolum

$$$$
