
 OpenBabel10282417153D

 14 14  0  0  0  0  0  0  0  0999 V2000
   -0.6920    1.1706   -0.0002 C   0  0  0  0  0  0  0  0  0  0  0  0
    0.6984    1.2498    0.0030 C   0  0  0  0  0  0  0  0  0  0  0  0
   -1.3611   -0.0135    0.0036 N   0  0  0  0  0  0  0  0  0  0  0  0
   -1.5399    2.4089   -0.0139 C   0  0  0  0  0  0  0  0  0  0  0  0
    1.4353    0.0672   -0.0016 C   0  0  0  0  0  0  0  0  0  0  0  0
   -0.6167   -1.1415    0.0055 C   0  0  0  0  0  0  0  0  0  0  0  0
   -2.7572    2.4713   -0.0256 O   0  0  0  0  0  0  0  0  0  0  0  0
   -0.8042    3.5446   -0.0159 O   0  0  0  0  0  0  0  0  0  0  0  0
    0.7685   -1.1523   -0.0020 C   0  0  0  0  0  0  0  0  0  0  0  0
    1.2064    2.2079    0.0072 H   0  0  0  0  0  0  0  0  0  0  0  0
    2.5214    0.0987   -0.0048 H   0  0  0  0  0  0  0  0  0  0  0  0
   -1.1803   -2.0710    0.0141 H   0  0  0  0  0  0  0  0  0  0  0  0
   -1.4752    4.2603   -0.0276 H   0  0  0  0  0  0  0  0  0  0  0  0
    1.3152   -2.0895   -0.0065 H   0  0  0  0  0  0  0  0  0  0  0  0
  1  2  2  0  0  0  0
  1  3  1  0  0  0  0
  1  4  1  0  0  0  0
  2  5  1  0  0  0  0
  2 10  1  0  0  0  0
  3  6  2  0  0  0  0
  4  7  2  0  0  0  0
  4  8  1  0  0  0  0
  5  9  2  0  0  0  0
  5 11  1  0  0  0  0
  6  9  1  0  0  0  0
  6 12  1  0  0  0  0
  8 13  1  0  0  0  0
  9 14  1  0  0  0  0
M  END
>  <DRUGBANK_ID>
DB05483

>  <COMMON_NAME>
Picolinic acid

>  <CAS_NUMBER>
98-98-6

>  <UNII>
QZV2W997JQ

>  <SYNONYMS>
2-Carboxypyridine; Acide picolique

$$$$
