
 OpenBabel10282417113D

 53 56  0  0  1  0  0  0  0  0999 V2000
    0.1058    0.3987    0.7278 C   0  0  0  0  0  0  0  0  0  0  0  0
   -1.3679    0.9339    1.1573 C   0  0  2  0  0  0  0  0  0  0  0  0
   -2.7089   -0.1172    1.5732 C   0  0  0  0  0  0  0  0  0  0  0  0
   -2.3233   -1.5344    1.4048 C   0  0  0  0  0  0  0  0  0  0  0  0
   -1.0865   -1.6476    2.3580 C   0  0  1  0  0  0  0  0  0  0  0  0
    0.0117   -2.1295    1.5505 O   0  0  0  0  0  0  0  0  0  0  0  0
   -0.6803   -0.2373    3.2239 C   0  0  0  0  0  0  0  0  0  0  0  0
   -1.2694    1.1592    2.6723 C   0  0  2  0  0  0  0  0  0  0  0  0
   -2.3014    1.3354    3.0348 H   0  0  0  0  0  0  0  0  0  0  0  0
   -0.7607    2.4629    3.2113 C   0  0  0  0  0  0  0  0  0  0  0  0
   -1.4292    3.6251    2.4501 C   0  0  0  0  0  0  0  0  0  0  0  0
   -0.9489    3.5351    1.0303 C   0  0  1  0  0  0  0  0  0  0  0  0
    0.0597    3.1524    1.1405 H   0  0  0  0  0  0  0  0  0  0  0  0
   -0.8329    4.9246    0.2513 C   0  0  1  0  0  0  0  0  0  0  0  0
   -1.7792    5.1405   -0.2509 H   0  0  0  0  0  0  0  0  0  0  0  0
    0.3314    4.6713   -0.6992 C   0  0  2  0  0  0  0  0  0  0  0  0
    0.6216    5.7239   -1.8502 C   0  0  0  0  0  0  0  0  0  0  0  0
   -0.3811    3.6013   -1.6672 C   0  0  0  0  0  0  0  0  0  0  0  0
   -0.7120    2.2690   -1.0892 C   0  0  0  0  0  0  0  0  0  0  0  0
   -1.5287    2.2951    0.2658 C   0  0  2  0  0  0  0  0  0  0  0  0
   -2.5822    2.4471    0.0117 H   0  0  0  0  0  0  0  0  0  0  0  0
    1.6066    4.7762    0.6220 C   0  0  1  0  0  0  0  0  0  0  0  0
    1.3101    4.7282    2.2200 O   0  0  0  0  0  0  0  0  0  0  0  0
    1.2172    6.2167    0.8784 C   0  0  0  0  0  0  0  0  0  0  0  0
   -0.3386    6.1977    0.9702 C   0  0  0  0  0  0  0  0  0  0  0  0
    0.8999    0.7127    1.4230 H   0  0  0  0  0  0  0  0  0  0  0  0
    0.5812    0.8278   -0.1230 H   0  0  0  0  0  0  0  0  0  0  0  0
    0.1946   -0.5754    0.2611 H   0  0  0  0  0  0  0  0  0  0  0  0
   -3.7426    0.2690    1.5485 H   0  0  0  0  0  0  0  0  0  0  0  0
   -2.8359   -0.2732    2.6976 H   0  0  0  0  0  0  0  0  0  0  0  0
   -3.1434   -2.2128    1.7090 H   0  0  0  0  0  0  0  0  0  0  0  0
   -2.1650   -1.6775    0.3318 H   0  0  0  0  0  0  0  0  0  0  0  0
   -1.2035   -2.4590    3.0739 H   0  0  0  0  0  0  0  0  0  0  0  0
    0.7615   -1.6102    1.7378 H   0  0  0  0  0  0  0  0  0  0  0  0
   -1.0478   -0.3469    4.2516 H   0  0  0  0  0  0  0  0  0  0  0  0
    0.4061   -0.1475    3.2654 H   0  0  0  0  0  0  0  0  0  0  0  0
   -1.0398    2.5531    4.2649 H   0  0  0  0  0  0  0  0  0  0  0  0
    0.3268    2.4828    3.1400 H   0  0  0  0  0  0  0  0  0  0  0  0
   -1.1178    4.5400    2.9479 H   0  0  0  0  0  0  0  0  0  0  0  0
   -2.5247    3.6146    2.4396 H   0  0  0  0  0  0  0  0  0  0  0  0
    0.8905    5.2103   -2.7868 H   0  0  0  0  0  0  0  0  0  0  0  0
   -0.2881    6.2901   -2.0724 H   0  0  0  0  0  0  0  0  0  0  0  0
    1.4587    6.4140   -1.7478 H   0  0  0  0  0  0  0  0  0  0  0  0
   -1.3127    4.0545   -2.0510 H   0  0  0  0  0  0  0  0  0  0  0  0
    0.1764    3.3928   -2.5960 H   0  0  0  0  0  0  0  0  0  0  0  0
    0.3488    2.0338   -1.0585 H   0  0  0  0  0  0  0  0  0  0  0  0
   -1.1353    1.5374   -1.7885 H   0  0  0  0  0  0  0  0  0  0  0  0
    1.7615    3.7150    0.8302 H   0  0  0  0  0  0  0  0  0  0  0  0
    1.9859    4.2578    2.7331 H   0  0  0  0  0  0  0  0  0  0  0  0
    1.6517    6.8006    1.7055 H   0  0  0  0  0  0  0  0  0  0  0  0
    1.6101    6.7701    0.0350 H   0  0  0  0  0  0  0  0  0  0  0  0
   -0.7056    7.1055    0.4863 H   0  0  0  0  0  0  0  0  0  0  0  0
   -0.7201    6.2296    1.9920 H   0  0  0  0  0  0  0  0  0  0  0  0
  1 26  1  0  0  0  0
  1 27  1  0  0  0  0
  1 28  1  0  0  0  0
  2  1  1  1  0  0  0
  3  2  1  0  0  0  0
  3 29  1  0  0  0  0
  3 30  1  0  0  0  0
  4  3  1  0  0  0  0
  4 31  1  0  0  0  0
  4 32  1  0  0  0  0
  5  4  1  0  0  0  0
  5  7  1  0  0  0  0
  5 33  1  1  0  0  0
  5  6  1  0  0  0  0
  6 34  1  0  0  0  0
  7  8  1  0  0  0  0
  7 35  1  0  0  0  0
  7 36  1  0  0  0  0
  8  2  1  0  0  0  0
  8  9  1  6  0  0  0
 10  8  1  0  0  0  0
 10 37  1  0  0  0  0
 10 38  1  0  0  0  0
 11 10  1  0  0  0  0
 11 12  1  0  0  0  0
 11 39  1  0  0  0  0
 11 40  1  0  0  0  0
 12 20  1  0  0  0  0
 12 13  1  6  0  0  0
 14 12  1  0  0  0  0
 14 15  1  1  0  0  0
 16 14  1  0  0  0  0
 16 18  1  0  0  0  0
 16 17  1  6  0  0  0
 17 41  1  0  0  0  0
 17 42  1  0  0  0  0
 17 43  1  0  0  0  0
 18 19  1  0  0  0  0
 18 44  1  0  0  0  0
 18 45  1  0  0  0  0
 19 20  1  0  0  0  0
 19 46  1  0  0  0  0
 19 47  1  0  0  0  0
 20  2  1  0  0  0  0
 20 21  1  1  0  0  0
 22 16  1  0  0  0  0
 22 24  1  0  0  0  0
 22 23  1  0  0  0  0
 22 48  1  1  0  0  0
 23 49  1  0  0  0  0
 24 25  1  0  0  0  0
 24 50  1  0  0  0  0
 24 51  1  0  0  0  0
 25 14  1  0  0  0  0
 25 52  1  0  0  0  0
 25 53  1  0  0  0  0
M  END
>  <DRUGBANK_ID>
DB01530

>  <COMMON_NAME>
5alpha-androstane-3alpha,17beta-diol

>  <CAS_NUMBER>
1852-53-5

>  <UNII>
J34MX0M30Y

>  <SYNONYMS>
17beta-dihydroandrosterone; 3alpha-androstanediol; 3alpha,17beta-dihydroxy-5alpha-androstane; 3α,17β-dihydroxy-5α-androstane; Dihydroandrosterone; hombreol

$$$$
