
 OpenBabel10282417113D

 27 27  0  0  0  0  0  0  0  0999 V2000
    1.4322   -0.2003    0.0057 C   0  0  0  0  0  0  0  0  0  0  0  0
    0.5433   -1.2744   -0.0017 C   0  0  0  0  0  0  0  0  0  0  0  0
   -0.8375   -1.0456   -0.0699 C   0  0  0  0  0  0  0  0  0  0  0  0
   -1.2824    0.2838   -0.1820 C   0  0  0  0  0  0  0  0  0  0  0  0
   -0.4088    1.3533   -0.0681 C   0  0  0  0  0  0  0  0  0  0  0  0
    0.9589    1.1125   -0.0073 C   0  0  0  0  0  0  0  0  0  0  0  0
   -1.8163   -2.2011    0.0227 C   0  0  1  0  0  0  0  0  0  0  0  0
   -2.7221   -2.1593    1.3154 C   0  0  1  0  0  0  0  0  0  0  0  0
   -3.5620   -0.9327    1.3659 N   0  0  0  0  0  0  0  0  0  0  0  0
   -4.3702   -0.8063    2.5692 C   0  0  0  0  0  0  0  0  0  0  0  0
   -3.6019   -3.4126    1.3569 C   0  0  0  0  0  0  0  0  0  0  0  0
   -2.6104   -2.2153   -1.1644 O   0  0  0  0  0  0  0  0  0  0  0  0
    2.5037   -0.3844    0.0375 H   0  0  0  0  0  0  0  0  0  0  0  0
    0.9328   -2.2898    0.0372 H   0  0  0  0  0  0  0  0  0  0  0  0
   -2.3382    0.5063   -0.3309 H   0  0  0  0  0  0  0  0  0  0  0  0
   -0.7981    2.3671   -0.0331 H   0  0  0  0  0  0  0  0  0  0  0  0
    1.6489    1.9475    0.0105 H   0  0  0  0  0  0  0  0  0  0  0  0
   -1.2575   -3.1467    0.0296 H   0  0  0  0  0  0  0  0  0  0  0  0
   -2.0554   -2.1598    2.1884 H   0  0  0  0  0  0  0  0  0  0  0  0
   -2.9148   -0.1452    1.4204 H   0  0  0  0  0  0  0  0  0  0  0  0
   -3.7401   -0.8106    3.4634 H   0  0  0  0  0  0  0  0  0  0  0  0
   -4.8916    0.1559    2.5315 H   0  0  0  0  0  0  0  0  0  0  0  0
   -5.1356   -1.5798    2.6405 H   0  0  0  0  0  0  0  0  0  0  0  0
   -2.9868   -4.3174    1.3306 H   0  0  0  0  0  0  0  0  0  0  0  0
   -4.1923   -3.4642    2.2764 H   0  0  0  0  0  0  0  0  0  0  0  0
   -4.2934   -3.4412    0.5081 H   0  0  0  0  0  0  0  0  0  0  0  0
   -3.2512   -1.4912   -1.0485 H   0  0  0  0  0  0  0  0  0  0  0  0
  1  2  1  0  0  0  0
  1  6  2  0  0  0  0
  1 13  1  0  0  0  0
  2  3  2  0  0  0  0
  2 14  1  0  0  0  0
  3  4  1  0  0  0  0
  3  7  1  0  0  0  0
  4  5  2  0  0  0  0
  4 15  1  0  0  0  0
  5  6  1  0  0  0  0
  5 16  1  0  0  0  0
  6 17  1  0  0  0  0
  7  8  1  0  0  0  0
  7 12  1  0  0  0  0
  7 18  1  1  0  0  0
  8  9  1  0  0  0  0
  8 11  1  0  0  0  0
  8 19  1  1  0  0  0
  9 10  1  0  0  0  0
  9 20  1  0  0  0  0
 10 21  1  0  0  0  0
 10 22  1  0  0  0  0
 10 23  1  0  0  0  0
 11 24  1  0  0  0  0
 11 25  1  0  0  0  0
 11 26  1  0  0  0  0
 12 27  1  0  0  0  0
M  END
>  <DRUGBANK_ID>
DB00852

>  <SECONDARY_ACCESSION_NUMBERS>
APRD00634

>  <COMMON_NAME>
Pseudoephedrine

>  <CAS_NUMBER>
90-82-4

>  <UNII>
7CUC9DDI9F

>  <SYNONYMS>
(+) threo-2-(methylamino)-1-phenyl-1-propanol; (+)-(1S,2S)-Pseudoephedrine; (+)-Pseudoephedrine; (+)-psi-Ephedrine; (+)-threo-Ephedrine; d-Isoephedrine; d-Pseudoephedrine; d-psi-2-Methylamino-1-phenyl-1-propanol; d-psi-Ephedrine; Isoephedrine; L-(+)-Pseudoephedrine; L(+)-psi-Ephedrine; Pseudoefedrina; Pseudoephedrine; pseudoéphédrine; Pseudoephedrine D-form; Pseudoephedrinum; Psi-ephedrin; Psi-ephedrine; trans-Ephedrine; ψ-ephedrine

$$$$
