
 OpenBabel10282417213D

106110  0  0  0  0  0  0  0  0999 V2000
    2.1185   -0.8964   -0.7083 C   0  0  1  0  0  0  0  0  0  0  0  0
    2.7540    0.5102   -0.3722 C   0  0  1  0  0  0  0  0  0  0  0  0
    1.7469    1.6535   -0.2351 C   0  0  0  0  0  0  0  0  0  0  0  0
    0.6744    1.6437    1.1816 S   0  0  0  0  0  0  0  0  0  0  0  0
   -0.5236    0.5238    0.5634 C   0  0  0  0  0  0  0  0  0  0  0  0
   -0.2609   -0.8261    0.2448 C   0  0  0  0  0  0  0  0  0  0  0  0
    1.1555   -1.5152    0.3923 C   0  0  1  0  0  0  0  0  0  0  0  0
   -1.7339    1.1480    0.2766 C   0  0  0  0  0  0  0  0  0  0  0  0
   -2.7908    0.4122   -0.1991 C   0  0  0  0  0  0  0  0  0  0  0  0
   -2.6587   -0.9413   -0.4829 C   0  0  0  0  0  0  0  0  0  0  0  0
   -1.3561   -1.4781   -0.3622 C   0  0  0  0  0  0  0  0  0  0  0  0
    0.1128    2.9684    1.2675 O   0  0  0  0  0  0  0  0  0  0  0  0
    1.2081    1.0258    2.3875 O   0  0  0  0  0  0  0  0  0  0  0  0
   -3.7317   -1.7140   -0.8871 N   0  0  0  0  0  0  0  0  0  0  0  0
   -5.0662   -1.1601   -1.0711 C   0  0  0  0  0  0  0  0  0  0  0  0
   -3.6066   -3.1608   -1.0476 C   0  0  0  0  0  0  0  0  0  0  0  0
    1.2701   -3.0839    0.4855 C   0  0  0  0  0  0  0  0  0  0  0  0
    2.5006   -3.8249    0.5176 C   0  0  0  0  0  0  0  0  0  0  0  0
    2.5231   -5.2365    0.4107 C   0  0  0  0  0  0  0  0  0  0  0  0
    1.2890   -5.8870    0.4136 C   0  0  0  0  0  0  0  0  0  0  0  0
    0.1043   -5.2162    0.5858 C   0  0  0  0  0  0  0  0  0  0  0  0
    0.1139   -3.8445    0.6678 C   0  0  0  0  0  0  0  0  0  0  0  0
    3.7407   -5.9933    0.2792 N   0  0  0  0  0  0  0  0  0  0  0  0
    3.7285   -7.3399   -0.0470 C   0  0  0  0  0  0  0  0  0  0  0  0
    4.9286   -7.9641   -0.1706 N   0  0  0  0  0  0  0  0  0  0  0  0
    2.7142   -8.0024   -0.2374 O   0  0  0  0  0  0  0  0  0  0  0  0
    4.9721   -9.3973   -0.4971 C   0  0  2  0  0  0  0  0  0  0  0  0
    3.8911  -10.0722    0.1880 O   0  0  0  0  0  0  0  0  0  0  0  0
    3.8030  -11.4646   -0.0890 C   0  0  1  0  0  0  0  0  0  0  0  0
    5.0787  -12.1010    0.3968 C   0  0  2  0  0  0  0  0  0  0  0  0
    6.3837  -11.4443    0.0542 C   0  0  1  0  0  0  0  0  0  0  0  0
    6.2896   -9.9479    0.0209 C   0  0  1  0  0  0  0  0  0  0  0  0
    2.5846  -12.1431    0.6292 C   0  0  0  0  0  0  0  0  0  0  0  0
    2.9608  -13.1826    1.5650 O   0  0  0  0  0  0  0  0  0  0  0  0
    3.1681  -14.7790    1.2185 S   0  0  0  0  0  0  0  0  0  0  0  0
    2.2603  -14.9918   -0.0905 O   0  0  0  0  0  0  0  0  0  0  0  0
    4.5148  -15.1422    0.8488 O   0  0  0  0  0  0  0  0  0  0  0  0
    2.5447  -15.5385    2.2711 O   0  0  0  0  0  0  0  0  0  0  0  0
    5.2863  -13.3417   -0.2251 O   0  0  0  0  0  0  0  0  0  0  0  0
    7.4523   -9.2829   -0.4536 O   0  0  0  0  0  0  0  0  0  0  0  0
    7.4471  -11.9654    0.8986 O   0  0  0  0  0  0  0  0  0  0  0  0
    7.2757  -11.9363    2.3382 C   0  0  0  0  0  0  0  0  0  0  0  0
    7.2744  -10.5149    2.8679 C   0  0  0  0  0  0  0  0  0  0  0  0
    6.0688   -9.8087    3.0938 C   0  0  0  0  0  0  0  0  0  0  0  0
    6.0601   -8.4082    2.9448 C   0  0  0  0  0  0  0  0  0  0  0  0
    7.2598   -7.7106    2.8142 C   0  0  0  0  0  0  0  0  0  0  0  0
    8.4685   -8.4040    2.8441 C   0  0  0  0  0  0  0  0  0  0  0  0
    8.4748   -9.7972    2.7908 C   0  0  0  0  0  0  0  0  0  0  0  0
    1.4914   -1.2742    1.4000 H   0  0  0  0  0  0  0  0  0  0  0  0
    1.4603   -0.8832   -1.9779 O   0  0  0  0  0  0  0  0  0  0  0  0
    3.5011    0.3853    0.9908 C   0  0  0  0  0  0  0  0  0  0  0  0
    4.6412   -0.5999    1.1017 C   0  0  0  0  0  0  0  0  0  0  0  0
    5.8704   -0.2001    0.3361 C   0  0  0  0  0  0  0  0  0  0  0  0
    6.2793    1.2165    0.6879 C   0  0  0  0  0  0  0  0  0  0  0  0
    3.7032    1.0137   -1.5252 C   0  0  0  0  0  0  0  0  0  0  0  0
    3.1202    1.2893   -2.9002 C   0  0  0  0  0  0  0  0  0  0  0  0
    2.9696   -1.5665   -0.8785 H   0  0  0  0  0  0  0  0  0  0  0  0
    2.2519    2.6278   -0.2057 H   0  0  0  0  0  0  0  0  0  0  0  0
    1.0884    1.7011   -1.1141 H   0  0  0  0  0  0  0  0  0  0  0  0
   -1.8756    2.2165    0.4227 H   0  0  0  0  0  0  0  0  0  0  0  0
   -3.7063    0.9695   -0.3354 H   0  0  0  0  0  0  0  0  0  0  0  0
   -1.2063   -2.4627   -0.7890 H   0  0  0  0  0  0  0  0  0  0  0  0
   -5.3789   -1.3284   -2.1043 H   0  0  0  0  0  0  0  0  0  0  0  0
   -5.7782   -1.6354   -0.3898 H   0  0  0  0  0  0  0  0  0  0  0  0
   -5.1561   -0.0870   -0.9023 H   0  0  0  0  0  0  0  0  0  0  0  0
   -2.8826   -3.4011   -1.8329 H   0  0  0  0  0  0  0  0  0  0  0  0
   -3.3013   -3.6472   -0.1128 H   0  0  0  0  0  0  0  0  0  0  0  0
   -4.5592   -3.6094   -1.3488 H   0  0  0  0  0  0  0  0  0  0  0  0
    3.4471   -3.3197    0.6614 H   0  0  0  0  0  0  0  0  0  0  0  0
    1.1613   -6.9542    0.3341 H   0  0  0  0  0  0  0  0  0  0  0  0
   -0.8220   -5.7728    0.6605 H   0  0  0  0  0  0  0  0  0  0  0  0
   -0.8455   -3.4049    0.8894 H   0  0  0  0  0  0  0  0  0  0  0  0
    4.6218   -5.4992    0.3000 H   0  0  0  0  0  0  0  0  0  0  0  0
    5.8161   -7.4945   -0.0460 H   0  0  0  0  0  0  0  0  0  0  0  0
    4.8927   -9.5182   -1.5819 H   0  0  0  0  0  0  0  0  0  0  0  0
    3.6595  -11.5975   -1.1654 H   0  0  0  0  0  0  0  0  0  0  0  0
    4.9730  -12.1835    1.4843 H   0  0  0  0  0  0  0  0  0  0  0  0
    6.6452  -11.7636   -0.9639 H   0  0  0  0  0  0  0  0  0  0  0  0
    6.2262   -9.6707    1.0248 H   0  0  0  0  0  0  0  0  0  0  0  0
    2.0387  -11.3761    1.2055 H   0  0  0  0  0  0  0  0  0  0  0  0
    1.8531  -12.5069   -0.1029 H   0  0  0  0  0  0  0  0  0  0  0  0
    1.4014  -15.3284    0.2330 H   0  0  0  0  0  0  0  0  0  0  0  0
    4.6590  -13.5347   -0.9321 H   0  0  0  0  0  0  0  0  0  0  0  0
    7.6794   -9.6493   -1.3187 H   0  0  0  0  0  0  0  0  0  0  0  0
    6.4091  -12.5105    2.6833 H   0  0  0  0  0  0  0  0  0  0  0  0
    8.1351  -12.4754    2.7531 H   0  0  0  0  0  0  0  0  0  0  0  0
    5.1086  -10.3236    3.0420 H   0  0  0  0  0  0  0  0  0  0  0  0
    5.1173   -7.8945    2.7472 H   0  0  0  0  0  0  0  0  0  0  0  0
    7.2560   -6.6391    2.6330 H   0  0  0  0  0  0  0  0  0  0  0  0
    9.4087   -7.8642    2.8141 H   0  0  0  0  0  0  0  0  0  0  0  0
    9.4019  -10.3201    2.5603 H   0  0  0  0  0  0  0  0  0  0  0  0
    0.6926   -0.2895   -1.9461 H   0  0  0  0  0  0  0  0  0  0  0  0
    3.7431    1.3754    1.3945 H   0  0  0  0  0  0  0  0  0  0  0  0
    2.8431   -0.0249    1.7436 H   0  0  0  0  0  0  0  0  0  0  0  0
    4.8847   -0.7154    2.1655 H   0  0  0  0  0  0  0  0  0  0  0  0
    4.3065   -1.5783    0.7757 H   0  0  0  0  0  0  0  0  0  0  0  0
    6.6679   -0.9170    0.5303 H   0  0  0  0  0  0  0  0  0  0  0  0
    5.7130   -0.3103   -0.7286 H   0  0  0  0  0  0  0  0  0  0  0  0
    6.6059    1.2449    1.7293 H   0  0  0  0  0  0  0  0  0  0  0  0
    7.0714    1.5555    0.0238 H   0  0  0  0  0  0  0  0  0  0  0  0
    5.4726    1.9509    0.5918 H   0  0  0  0  0  0  0  0  0  0  0  0
    4.2232    1.9256   -1.1979 H   0  0  0  0  0  0  0  0  0  0  0  0
    4.4451    0.2669   -1.7655 H   0  0  0  0  0  0  0  0  0  0  0  0
    2.3293    2.0379   -2.8861 H   0  0  0  0  0  0  0  0  0  0  0  0
    3.9195    1.6430   -3.5608 H   0  0  0  0  0  0  0  0  0  0  0  0
    2.7562    0.3642   -3.3463 H   0  0  0  0  0  0  0  0  0  0  0  0
  1  2  1  0  0  0  0
  1 50  1  0  0  0  0
  1 57  1  6  0  0  0
  2  3  1  0  0  0  0
  2 51  1  1  0  0  0
  2 55  1  0  0  0  0
  3  4  1  0  0  0  0
  3 58  1  0  0  0  0
  3 59  1  0  0  0  0
  4  5  1  0  0  0  0
  4 12  2  0  0  0  0
  4 13  2  0  0  0  0
  5  8  2  0  0  0  0
  6  7  1  0  0  0  0
  6  5  1  0  0  0  0
  6 11  2  0  0  0  0
  7  1  1  0  0  0  0
  7 17  1  0  0  0  0
  7 49  1  1  0  0  0
  8  9  1  0  0  0  0
  8 60  1  0  0  0  0
  9 10  2  0  0  0  0
  9 61  1  0  0  0  0
 10 11  1  0  0  0  0
 10 14  1  0  0  0  0
 11 62  1  0  0  0  0
 14 15  1  0  0  0  0
 14 16  1  0  0  0  0
 15 63  1  0  0  0  0
 15 64  1  0  0  0  0
 15 65  1  0  0  0  0
 16 66  1  0  0  0  0
 16 67  1  0  0  0  0
 16 68  1  0  0  0  0
 17 18  1  0  0  0  0
 17 22  2  0  0  0  0
 18 19  2  0  0  0  0
 18 69  1  0  0  0  0
 19 20  1  0  0  0  0
 19 23  1  0  0  0  0
 20 21  2  0  0  0  0
 20 70  1  0  0  0  0
 21 22  1  0  0  0  0
 21 71  1  0  0  0  0
 22 72  1  0  0  0  0
 23 24  1  0  0  0  0
 23 73  1  0  0  0  0
 24 25  1  0  0  0  0
 24 26  2  0  0  0  0
 25 74  1  0  0  0  0
 27 25  1  0  0  0  0
 27 28  1  0  0  0  0
 27 75  1  6  0  0  0
 28 29  1  0  0  0  0
 29 30  1  0  0  0  0
 29 76  1  6  0  0  0
 29 33  1  0  0  0  0
 30 31  1  0  0  0  0
 30 39  1  0  0  0  0
 30 77  1  1  0  0  0
 31 32  1  0  0  0  0
 31 41  1  0  0  0  0
 31 78  1  6  0  0  0
 32 27  1  0  0  0  0
 32 40  1  0  0  0  0
 32 79  1  1  0  0  0
 33 34  1  0  0  0  0
 33 80  1  0  0  0  0
 33 81  1  0  0  0  0
 34 35  1  0  0  0  0
 35 36  1  0  0  0  0
 35 37  2  0  0  0  0
 35 38  2  0  0  0  0
 36 82  1  0  0  0  0
 39 83  1  0  0  0  0
 40 84  1  0  0  0  0
 41 42  1  0  0  0  0
 42 43  1  0  0  0  0
 42 85  1  0  0  0  0
 42 86  1  0  0  0  0
 43 44  1  0  0  0  0
 43 48  2  0  0  0  0
 44 45  2  0  0  0  0
 44 87  1  0  0  0  0
 45 46  1  0  0  0  0
 45 88  1  0  0  0  0
 46 47  2  0  0  0  0
 46 89  1  0  0  0  0
 47 48  1  0  0  0  0
 47 90  1  0  0  0  0
 48 91  1  0  0  0  0
 50 92  1  0  0  0  0
 51 52  1  0  0  0  0
 51 93  1  0  0  0  0
 51 94  1  0  0  0  0
 52 53  1  0  0  0  0
 52 95  1  0  0  0  0
 52 96  1  0  0  0  0
 53 54  1  0  0  0  0
 53 97  1  0  0  0  0
 53 98  1  0  0  0  0
 54 99  1  0  0  0  0
 54100  1  0  0  0  0
 54101  1  0  0  0  0
 55 56  1  0  0  0  0
 55102  1  0  0  0  0
 55103  1  0  0  0  0
 56104  1  0  0  0  0
 56105  1  0  0  0  0
 56106  1  0  0  0  0
M  END
>  <DRUGBANK_ID>
DB13914

>  <COMMON_NAME>
Volixibat

>  <CAS_NUMBER>
1025216-57-2

>  <UNII>
X2JZ0451H8

>  <SYNONYMS>
Volixibat

$$$$
