
 OpenBabel10282417213D

 32 30  0  0  0  0  0  0  0  0999 V2000
    1.0084   -0.0502    0.0860 B   0  0  0  0  0  0  0  0  0  0  0  0
    0.2584    0.0478   -1.2093 O   0  0  0  0  0  0  0  0  0  0  0  0
    0.2584   -0.1483    1.3814 O   0  0  0  0  0  0  0  0  0  0  0  0
    2.5084   -0.0502    0.0860 O   0  5  0  0  0  0  0  0  0  0  0  0
   -1.3900   -0.1120   -0.0540 C   0  0  0  0  0  0  0  0  0  0  0  0
   -0.7320    1.1400    0.1000 C   0  0  0  0  0  0  0  0  0  0  0  0
    0.6630    1.2080   -0.0480 C   0  0  0  0  0  0  0  0  0  0  0  0
    1.3710    0.1170   -0.0510 C   0  0  0  0  0  0  0  0  0  0  0  0
    0.7450   -1.1270    0.1040 C   0  0  0  0  0  0  0  0  0  0  0  0
   -0.6590   -1.2280   -0.0510 C   0  0  0  0  0  0  0  0  0  0  0  0
    3.4351    0.2189   -0.2862 Hg  0  3  0  0  0  0  0  0  0  0  0  0
   -1.3900   -0.1120   -0.0540 C   0  0  0  0  0  0  0  0  0  0  0  0
   -0.7320    1.1400    0.1000 C   0  0  0  0  0  0  0  0  0  0  0  0
    0.6630    1.2080   -0.0480 C   0  0  0  0  0  0  0  0  0  0  0  0
    1.3710    0.1170   -0.0510 C   0  0  0  0  0  0  0  0  0  0  0  0
    0.7450   -1.1270    0.1040 C   0  0  0  0  0  0  0  0  0  0  0  0
   -0.6590   -1.2280   -0.0510 C   0  0  0  0  0  0  0  0  0  0  0  0
    3.4351    0.2189   -0.2862 Hg  0  3  0  0  0  0  0  0  0  0  0  0
    1.0847   -0.0372    0.0381 O   0  5  0  0  0  0  0  0  0  0  0  0
    0.9083    0.1051   -1.9672 H   0  0  0  0  0  0  0  0  0  0  0  0
   -0.7247   -0.1345    1.1992 H   0  0  0  0  0  0  0  0  0  0  0  0
   -2.4527   -0.1577   -0.1702 H   0  0  0  0  0  0  0  0  0  0  0  0
   -1.2946    2.0215    0.3264 H   0  0  0  0  0  0  0  0  0  0  0  0
    1.1435    2.1577   -0.1583 H   0  0  0  0  0  0  0  0  0  0  0  0
    1.3244   -1.9955    0.3381 H   0  0  0  0  0  0  0  0  0  0  0  0
   -1.1260   -2.1840   -0.1639 H   0  0  0  0  0  0  0  0  0  0  0  0
   -2.4527   -0.1577   -0.1702 H   0  0  0  0  0  0  0  0  0  0  0  0
   -1.2946    2.0215    0.3264 H   0  0  0  0  0  0  0  0  0  0  0  0
    1.1435    2.1577   -0.1583 H   0  0  0  0  0  0  0  0  0  0  0  0
    1.3244   -1.9955    0.3381 H   0  0  0  0  0  0  0  0  0  0  0  0
   -1.1260   -2.1840   -0.1639 H   0  0  0  0  0  0  0  0  0  0  0  0
    2.0847   -0.0372    0.0381 H   0  0  0  0  0  0  0  0  0  0  0  0
  1  2  1  0  0  0  0
  1  3  1  0  0  0  0
  1  4  1  0  0  0  0
  2 20  1  0  0  0  0
  3 21  1  0  0  0  0
  5  6  2  0  0  0  0
  5 10  1  0  0  0  0
  5 22  1  0  0  0  0
  6  7  1  0  0  0  0
  6 23  1  0  0  0  0
  7  8  2  0  0  0  0
  7 24  1  0  0  0  0
  8  9  1  0  0  0  0
  8 11  1  0  0  0  0
  9 10  2  0  0  0  0
  9 25  1  0  0  0  0
 10 26  1  0  0  0  0
 12 13  2  0  0  0  0
 12 17  1  0  0  0  0
 12 27  1  0  0  0  0
 13 14  1  0  0  0  0
 13 28  1  0  0  0  0
 14 15  2  0  0  0  0
 14 29  1  0  0  0  0
 15 16  1  0  0  0  0
 15 18  1  0  0  0  0
 16 17  2  0  0  0  0
 16 30  1  0  0  0  0
 17 31  1  0  0  0  0
 19 32  1  0  0  0  0
M  CHG  4   4  -1  11   1  18   1  19  -1
M  END
>  <DRUGBANK_ID>
DB13834

>  <COMMON_NAME>
Phenylmercuric borate

>  <CAS_NUMBER>
8017-88-7

>  <UNII>
61RG8BXK1F

>  <SYNONYMS>
Phenylmercuric borate

$$$$
