
 OpenBabel10282417233D

 67 73  0  0  1  0  0  0  0  0999 V2000
    0.9771    0.0542    0.0247 O   0  0  0  0  0  0  0  0  0  0  0  0
    0.4443    0.9045   -0.8743 C   0  0  0  0  0  0  0  0  0  0  0  0
    1.1049    1.5401   -1.6495 O   0  0  0  0  0  0  0  0  0  0  0  0
   -1.0311    0.8593   -0.8389 C   0  0  0  0  0  0  0  0  0  0  0  0
   -1.7571    0.8577    0.3490 C   0  0  0  0  0  0  0  0  0  0  0  0
   -3.1592    0.8872    0.3103 C   0  0  0  0  0  0  0  0  0  0  0  0
   -3.8270    0.9113    1.4744 F   0  0  0  0  0  0  0  0  0  0  0  0
   -3.8476    0.9082   -0.9277 C   0  0  0  0  0  0  0  0  0  0  0  0
   -5.2186    0.9754   -1.1759 N   0  0  0  0  0  0  0  0  0  0  0  0
   -5.4352    0.9460   -2.4721 C   0  0  0  0  0  0  0  0  0  0  0  0
   -4.0446    0.8646   -3.4657 S   0  0  0  0  0  0  0  0  0  0  0  0
   -3.0664    0.8787   -2.0814 C   0  0  0  0  0  0  0  0  0  0  0  0
   -1.6728    0.8682   -2.0718 C   0  0  0  0  0  0  0  0  0  0  0  0
   -6.6273    0.9416   -3.0697 N   0  0  0  0  0  0  0  0  0  0  0  0
   -7.6212    1.9883   -3.0304 C   0  0  1  0  0  0  0  0  0  0  0  0
   -7.9349    2.1798   -4.5326 C   0  0  0  0  0  0  0  0  0  0  0  0
   -7.5455    0.8469   -5.1875 C   0  0  0  0  0  0  0  0  0  0  0  0
   -7.0133   -0.0250   -4.0544 C   0  0  2  0  0  0  0  0  0  0  0  0
   -8.0913   -0.8158   -3.3469 C   0  0  0  0  0  0  0  0  0  0  0  0
   -9.2480    0.0958   -2.8914 C   0  0  1  0  0  0  0  0  0  0  0  0
   -8.8026    1.4040   -2.2595 C   0  0  0  0  0  0  0  0  0  0  0  0
  -10.0624    0.4170   -4.0231 O   0  0  0  0  0  0  0  0  0  0  0  0
  -11.0954   -0.5329   -4.0848 C   0  0  0  0  0  0  0  0  0  0  0  0
  -10.5904   -1.9299   -4.3679 C   0  0  0  0  0  0  0  0  0  0  0  0
  -10.3566   -2.5031   -5.6097 C   0  0  0  0  0  0  0  0  0  0  0  0
   -9.9551   -3.7958   -5.4081 O   0  0  0  0  0  0  0  0  0  0  0  0
   -9.8499   -4.0827   -4.0569 N   0  0  0  0  0  0  0  0  0  0  0  0
  -10.3110   -3.0080   -3.3985 C   0  0  0  0  0  0  0  0  0  0  0  0
  -10.4856   -3.0321   -1.9108 C   0  0  0  0  0  0  0  0  0  0  0  0
  -11.7280   -2.9206   -1.2411 C   0  0  0  0  0  0  0  0  0  0  0  0
  -13.0159   -2.9689   -1.7236 O   0  0  0  0  0  0  0  0  0  0  0  0
  -13.2399   -2.9991   -3.1129 C   0  0  0  0  0  0  0  0  0  0  0  0
  -12.8062   -1.8630   -3.6371 F   0  0  0  0  0  0  0  0  0  0  0  0
  -12.6748   -4.0672   -3.6908 F   0  0  0  0  0  0  0  0  0  0  0  0
  -14.5532   -2.9854   -3.4065 F   0  0  0  0  0  0  0  0  0  0  0  0
  -11.7508   -2.7846    0.1705 C   0  0  0  0  0  0  0  0  0  0  0  0
  -10.5866   -2.6811    0.9270 C   0  0  0  0  0  0  0  0  0  0  0  0
   -9.3662   -2.8078    0.2872 C   0  0  0  0  0  0  0  0  0  0  0  0
   -9.3263   -3.1068   -1.0883 C   0  0  0  0  0  0  0  0  0  0  0  0
  -10.6188   -1.9234   -7.0156 C   0  0  0  0  0  0  0  0  0  0  0  0
   -9.8915   -0.7707   -7.6591 C   0  0  0  0  0  0  0  0  0  0  0  0
  -11.2531   -0.5379   -7.1282 C   0  0  0  0  0  0  0  0  0  0  0  0
    1.9428    0.1125   -0.1358 H   0  0  0  0  0  0  0  0  0  0  0  0
   -1.2475    0.8625    1.3079 H   0  0  0  0  0  0  0  0  0  0  0  0
   -1.1233    0.8712   -3.0081 H   0  0  0  0  0  0  0  0  0  0  0  0
   -7.2813    2.9178   -2.5718 H   0  0  0  0  0  0  0  0  0  0  0  0
   -8.9812    2.4456   -4.7291 H   0  0  0  0  0  0  0  0  0  0  0  0
   -7.3260    2.9762   -4.9671 H   0  0  0  0  0  0  0  0  0  0  0  0
   -8.4074    0.3872   -5.6465 H   0  0  0  0  0  0  0  0  0  0  0  0
   -6.7980    0.9921   -5.9730 H   0  0  0  0  0  0  0  0  0  0  0  0
   -6.2468   -0.7249   -4.4071 H   0  0  0  0  0  0  0  0  0  0  0  0
   -7.6888   -1.3270   -2.4682 H   0  0  0  0  0  0  0  0  0  0  0  0
   -8.3569   -1.5859   -4.0628 H   0  0  0  0  0  0  0  0  0  0  0  0
   -9.8629   -0.4044   -2.1369 H   0  0  0  0  0  0  0  0  0  0  0  0
   -9.6378    2.1135   -2.2285 H   0  0  0  0  0  0  0  0  0  0  0  0
   -8.5031    1.1812   -1.2287 H   0  0  0  0  0  0  0  0  0  0  0  0
  -11.6220   -0.3961   -3.1376 H   0  0  0  0  0  0  0  0  0  0  0  0
  -11.8640   -0.2258   -4.7965 H   0  0  0  0  0  0  0  0  0  0  0  0
  -12.7068   -2.7400    0.6916 H   0  0  0  0  0  0  0  0  0  0  0  0
  -10.6374   -2.5354    2.0056 H   0  0  0  0  0  0  0  0  0  0  0  0
   -8.4472   -2.6685    0.8579 H   0  0  0  0  0  0  0  0  0  0  0  0
   -8.3561   -3.3854   -1.5019 H   0  0  0  0  0  0  0  0  0  0  0  0
  -10.7895   -2.7031   -7.7546 H   0  0  0  0  0  0  0  0  0  0  0  0
   -9.0367   -0.3605   -7.1602 H   0  0  0  0  0  0  0  0  0  0  0  0
   -9.8059   -0.6440   -8.7312 H   0  0  0  0  0  0  0  0  0  0  0  0
  -12.1279   -0.4431   -7.7556 H   0  0  0  0  0  0  0  0  0  0  0  0
  -11.2067    0.2760   -6.4179 H   0  0  0  0  0  0  0  0  0  0  0  0
  1  2  1  0  0  0  0
  1 43  1  0  0  0  0
  2  3  2  0  0  0  0
  2  4  1  0  0  0  0
  4  5  2  0  0  0  0
  4 13  1  0  0  0  0
  5  6  1  0  0  0  0
  5 44  1  0  0  0  0
  6  7  1  0  0  0  0
  6  8  2  0  0  0  0
  8  9  1  0  0  0  0
  8 12  1  0  0  0  0
  9 10  2  0  0  0  0
 10 11  1  0  0  0  0
 10 14  1  0  0  0  0
 11 12  1  0  0  0  0
 12 13  2  0  0  0  0
 13 45  1  0  0  0  0
 15 14  1  0  0  0  0
 15 16  1  0  0  0  0
 15 21  1  0  0  0  0
 15 46  1  1  0  0  0
 16 17  1  0  0  0  0
 16 47  1  0  0  0  0
 16 48  1  0  0  0  0
 17 49  1  0  0  0  0
 17 50  1  0  0  0  0
 18 17  1  0  0  0  0
 18 14  1  0  0  0  0
 18 19  1  0  0  0  0
 18 51  1  6  0  0  0
 19 52  1  0  0  0  0
 19 53  1  0  0  0  0
 20 19  1  0  0  0  0
 20 21  1  0  0  0  0
 20 54  1  1  0  0  0
 20 22  1  0  0  0  0
 21 55  1  0  0  0  0
 21 56  1  0  0  0  0
 22 23  1  0  0  0  0
 23 24  1  0  0  0  0
 23 57  1  0  0  0  0
 23 58  1  0  0  0  0
 24 25  2  0  0  0  0
 24 28  1  0  0  0  0
 25 26  1  0  0  0  0
 25 40  1  0  0  0  0
 26 27  1  0  0  0  0
 27 28  2  0  0  0  0
 28 29  1  0  0  0  0
 29 30  2  0  0  0  0
 29 39  1  0  0  0  0
 30 31  1  0  0  0  0
 30 36  1  0  0  0  0
 31 32  1  0  0  0  0
 32 33  1  0  0  0  0
 32 34  1  0  0  0  0
 32 35  1  0  0  0  0
 36 37  2  0  0  0  0
 36 59  1  0  0  0  0
 37 38  1  0  0  0  0
 37 60  1  0  0  0  0
 38 39  2  0  0  0  0
 38 61  1  0  0  0  0
 39 62  1  0  0  0  0
 40 41  1  0  0  0  0
 40 42  1  0  0  0  0
 40 63  1  0  0  0  0
 41 42  1  0  0  0  0
 41 64  1  0  0  0  0
 41 65  1  0  0  0  0
 42 66  1  0  0  0  0
 42 67  1  0  0  0  0
M  END
>  <DRUGBANK_ID>
DB16343

>  <COMMON_NAME>
Tropifexor

>  <CAS_NUMBER>
1383816-29-2

>  <UNII>
NMZ08KM76Z

>  <SYNONYMS>
Tropifexor

$$$$
