
 OpenBabel10282417163D

 27 29  0  0  0  0  0  0  0  0999 V2000
   -0.4943   -1.8836    0.0344 O   0  0  0  0  0  0  0  0  0  0  0  0
   -1.7766    1.9817    0.0199 O   0  0  0  0  0  0  0  0  0  0  0  0
   -1.8399   -1.5547    0.0001 C   0  0  0  0  0  0  0  0  0  0  0  0
    0.4221   -0.8606    0.0232 C   0  0  0  0  0  0  0  0  0  0  0  0
   -1.3763    0.8225    0.0254 C   0  0  0  0  0  0  0  0  0  0  0  0
   -2.7414   -2.7094   -0.1293 C   0  0  0  0  0  0  0  0  0  0  0  0
    0.0536    0.4831    0.0140 C   0  0  0  0  0  0  0  0  0  0  0  0
   -2.3208   -0.3036    0.0169 C   0  0  0  0  0  0  0  0  0  0  0  0
    1.7735   -1.2081    0.0166 C   0  0  0  0  0  0  0  0  0  0  0  0
   -3.5811   -2.8165   -1.2483 C   0  0  0  0  0  0  0  0  0  0  0  0
   -2.7248   -3.7499    0.8076 C   0  0  0  0  0  0  0  0  0  0  0  0
    1.0264    1.4872   -0.0091 C   0  0  0  0  0  0  0  0  0  0  0  0
    2.7498   -0.2080   -0.0027 C   0  0  0  0  0  0  0  0  0  0  0  0
   -4.3845   -3.9429   -1.4304 C   0  0  0  0  0  0  0  0  0  0  0  0
   -3.4971   -4.8969    0.6004 C   0  0  0  0  0  0  0  0  0  0  0  0
    2.3770    1.1378   -0.0176 C   0  0  0  0  0  0  0  0  0  0  0  0
   -4.3414   -4.9834   -0.5060 C   0  0  0  0  0  0  0  0  0  0  0  0
   -3.3758   -0.0645   -0.0078 H   0  0  0  0  0  0  0  0  0  0  0  0
    2.0690   -2.2541    0.0248 H   0  0  0  0  0  0  0  0  0  0  0  0
   -3.6010   -2.0292   -1.9988 H   0  0  0  0  0  0  0  0  0  0  0  0
   -2.1090   -3.6781    1.7013 H   0  0  0  0  0  0  0  0  0  0  0  0
    0.7338    2.5349   -0.0211 H   0  0  0  0  0  0  0  0  0  0  0  0
    3.8037   -0.4774   -0.0075 H   0  0  0  0  0  0  0  0  0  0  0  0
   -5.0263   -4.0150   -2.3046 H   0  0  0  0  0  0  0  0  0  0  0  0
   -3.4315   -5.7300    1.2958 H   0  0  0  0  0  0  0  0  0  0  0  0
    3.1381    1.9147   -0.0355 H   0  0  0  0  0  0  0  0  0  0  0  0
   -4.9640   -5.8630   -0.6493 H   0  0  0  0  0  0  0  0  0  0  0  0
  1  3  1  0  0  0  0
  1  4  1  0  0  0  0
  2  5  2  0  0  0  0
  3  6  1  0  0  0  0
  3  8  2  0  0  0  0
  4  7  1  0  0  0  0
  4  9  2  0  0  0  0
  5  7  1  0  0  0  0
  5  8  1  0  0  0  0
  6 10  2  0  0  0  0
  6 11  1  0  0  0  0
  7 12  2  0  0  0  0
  8 18  1  0  0  0  0
  9 13  1  0  0  0  0
  9 19  1  0  0  0  0
 10 14  1  0  0  0  0
 10 20  1  0  0  0  0
 11 15  2  0  0  0  0
 11 21  1  0  0  0  0
 12 16  1  0  0  0  0
 12 22  1  0  0  0  0
 13 16  2  0  0  0  0
 13 23  1  0  0  0  0
 14 17  2  0  0  0  0
 14 24  1  0  0  0  0
 15 17  1  0  0  0  0
 15 25  1  0  0  0  0
 16 26  1  0  0  0  0
 17 27  1  0  0  0  0
M  END
>  <DRUGBANK_ID>
DB07776

>  <SECONDARY_ACCESSION_NUMBERS>
DB11139

>  <COMMON_NAME>
Flavone

>  <CAS_NUMBER>
525-82-6

>  <UNII>
S2V45N7G3B

>  <SYNONYMS>
2-Phenyl-4-benzopyron; 2-Phenyl-4-chromone; 2-phenyl-4H-1-benzopyran-4-one; 2-phenyl-4H-benzopyran-4-one; 2-phenyl-Î³-benzopyrone; 2-Phenylbenzopyran-4-one; 2-phenylchromone; Flavon

$$$$
