
 OpenBabel10282417183D

 74 73  0  0  1  0  0  0  0  0999 V2000
   -7.3695   -5.8760  -25.2144 C   0  0  0  0  0  0  0  0  0  0  0  0
   -5.9598   -6.2350  -24.7714 C   0  0  0  0  0  0  0  0  0  0  0  0
   -5.3061   -5.0627  -24.0349 C   0  0  0  0  0  0  0  0  0  0  0  0
   -6.0904   -4.6806  -22.7835 C   0  0  0  0  0  0  0  0  0  0  0  0
   -6.2433   -5.8755  -21.8560 C   0  0  0  0  0  0  0  0  0  0  0  0
   -4.9069   -6.3137  -21.3270 C   0  0  0  0  0  0  0  0  0  0  0  0
   -4.5923   -6.2838  -20.0306 C   0  0  0  0  0  0  0  0  0  0  0  0
   -5.5570   -5.8273  -18.9967 C   0  0  0  0  0  0  0  0  0  0  0  0
   -5.8167   -6.8789  -17.9798 C   0  0  0  0  0  0  0  0  0  0  0  0
   -5.5458   -6.7333  -16.6754 C   0  0  0  0  0  0  0  0  0  0  0  0
   -4.7595   -5.6290  -16.1263 C   0  0  0  0  0  0  0  0  0  0  0  0
   -4.1681   -5.7101  -14.8964 C   0  0  0  0  0  0  0  0  0  0  0  0
   -3.1164   -4.7095  -14.2299 C   0  0  0  0  0  0  0  0  0  0  0  0
   -3.1495   -3.9427  -12.9582 C   0  0  0  0  0  0  0  0  0  0  0  0
   -4.0991   -2.5213  -12.1342 C   0  0  2  0  0  0  0  0  0  0  0  0
   -4.7988   -2.2990  -10.7658 C   0  0  2  0  0  0  0  0  0  0  0  0
   -6.1562   -2.9281  -10.6771 C   0  0  0  0  0  0  0  0  0  0  0  0
   -6.2888   -4.0607  -11.6492 C   0  0  0  0  0  0  0  0  0  0  0  0
   -5.3200   -5.2620  -11.7038 C   0  0  0  0  0  0  0  0  0  0  0  0
   -5.3376   -6.0213  -10.4828 C   0  0  0  0  0  0  0  0  0  0  0  0
   -5.3316   -7.2761  -10.3968 O   0  0  0  0  0  0  0  0  0  0  0  0
   -5.0914   -5.1978   -9.4625 O   0  0  0  0  0  0  0  0  0  0  0  0
   -4.9845   -0.8644  -10.5381 O   0  0  0  0  0  0  0  0  0  0  0  0
   -5.1290   -0.7800  -13.1344 S   0  0  0  0  0  0  0  0  0  0  0  0
   -6.5872   -1.2476  -14.1383 C   0  0  0  0  0  0  0  0  0  0  0  0
   -6.8376   -2.4217  -15.0899 C   0  0  1  0  0  0  0  0  0  0  0  0
   -6.1217   -3.5157  -14.5425 C   0  0  0  0  0  0  0  0  0  0  0  0
   -6.6562   -4.5837  -14.2181 O   0  0  0  0  0  0  0  0  0  0  0  0
   -4.8518   -3.1503  -14.2862 N   0  0  0  0  0  0  0  0  0  0  0  0
   -3.4298   -2.0027  -14.4771 C   0  0  0  0  0  0  0  0  0  0  0  0
   -2.2893   -1.1696  -13.2771 C   0  0  0  0  0  0  0  0  0  0  0  0
   -1.2082   -1.6583  -12.9412 O   0  0  0  0  0  0  0  0  0  0  0  0
   -2.7584   -0.1490  -12.4624 O   0  0  0  0  0  0  0  0  0  0  0  0
   -8.2545   -2.8197  -15.0806 N   0  0  0  0  0  0  0  0  0  0  0  0
   -8.0204   -5.6313  -24.3683 H   0  0  0  0  0  0  0  0  0  0  0  0
   -7.8347   -6.7133  -25.7363 H   0  0  0  0  0  0  0  0  0  0  0  0
   -7.3387   -5.0069  -25.8775 H   0  0  0  0  0  0  0  0  0  0  0  0
   -5.9927   -7.1332  -24.1433 H   0  0  0  0  0  0  0  0  0  0  0  0
   -5.3475   -6.5105  -25.6332 H   0  0  0  0  0  0  0  0  0  0  0  0
   -4.2778   -5.3288  -23.7645 H   0  0  0  0  0  0  0  0  0  0  0  0
   -5.2298   -4.1934  -24.6942 H   0  0  0  0  0  0  0  0  0  0  0  0
   -5.6045   -3.8452  -22.2635 H   0  0  0  0  0  0  0  0  0  0  0  0
   -7.0885   -4.3109  -23.0448 H   0  0  0  0  0  0  0  0  0  0  0  0
   -6.9604   -5.5672  -21.1003 H   0  0  0  0  0  0  0  0  0  0  0  0
   -6.7342   -6.7355  -22.3161 H   0  0  0  0  0  0  0  0  0  0  0  0
   -4.1462   -6.6446  -22.0322 H   0  0  0  0  0  0  0  0  0  0  0  0
   -3.5880   -6.5595  -19.7106 H   0  0  0  0  0  0  0  0  0  0  0  0
   -5.1678   -4.8866  -18.6160 H   0  0  0  0  0  0  0  0  0  0  0  0
   -6.5440   -5.5515  -19.3601 H   0  0  0  0  0  0  0  0  0  0  0  0
   -6.2488   -7.8154  -18.3477 H   0  0  0  0  0  0  0  0  0  0  0  0
   -5.8056   -7.5538  -16.0132 H   0  0  0  0  0  0  0  0  0  0  0  0
   -4.6641   -4.7500  -16.7694 H   0  0  0  0  0  0  0  0  0  0  0  0
   -4.5885   -6.4971  -14.2901 H   0  0  0  0  0  0  0  0  0  0  0  0
   -3.2190   -4.1359  -15.1930 H   0  0  0  0  0  0  0  0  0  0  0  0
   -2.7199   -4.4102  -12.0781 H   0  0  0  0  0  0  0  0  0  0  0  0
   -3.1541   -2.1786  -11.6999 H   0  0  0  0  0  0  0  0  0  0  0  0
   -4.1307   -2.5964   -9.9629 H   0  0  0  0  0  0  0  0  0  0  0  0
   -6.3885   -3.2345   -9.6692 H   0  0  0  0  0  0  0  0  0  0  0  0
   -6.9116   -2.1722  -10.9585 H   0  0  0  0  0  0  0  0  0  0  0  0
   -7.3107   -4.4101  -11.7275 H   0  0  0  0  0  0  0  0  0  0  0  0
   -6.2259   -3.4052  -12.4878 H   0  0  0  0  0  0  0  0  0  0  0  0
   -5.4317   -5.8895  -12.5884 H   0  0  0  0  0  0  0  0  0  0  0  0
   -4.2577   -5.1129  -11.6546 H   0  0  0  0  0  0  0  0  0  0  0  0
   -5.1564   -5.7025   -8.6386 H   0  0  0  0  0  0  0  0  0  0  0  0
   -5.5007   -0.5224  -11.3156 H   0  0  0  0  0  0  0  0  0  0  0  0
   -7.2989   -1.2512  -13.3187 H   0  0  0  0  0  0  0  0  0  0  0  0
   -6.7742   -0.3894  -14.7858 H   0  0  0  0  0  0  0  0  0  0  0  0
   -6.3293   -2.4113  -16.0590 H   0  0  0  0  0  0  0  0  0  0  0  0
   -4.8034   -3.9398  -13.6422 H   0  0  0  0  0  0  0  0  0  0  0  0
   -2.6033   -2.5806  -14.8972 H   0  0  0  0  0  0  0  0  0  0  0  0
   -3.7573   -1.4069  -15.3117 H   0  0  0  0  0  0  0  0  0  0  0  0
   -3.0131   -0.3729  -11.5161 H   0  0  0  0  0  0  0  0  0  0  0  0
   -8.2576   -3.8364  -15.2780 H   0  0  0  0  0  0  0  0  0  0  0  0
   -8.5368   -2.8466  -14.0920 H   0  0  0  0  0  0  0  0  0  0  0  0
  1  2  1  0  0  0  0
  1 35  1  0  0  0  0
  1 36  1  0  0  0  0
  1 37  1  0  0  0  0
  2  3  1  0  0  0  0
  2 38  1  0  0  0  0
  2 39  1  0  0  0  0
  3  4  1  0  0  0  0
  3 40  1  0  0  0  0
  3 41  1  0  0  0  0
  4  5  1  0  0  0  0
  4 42  1  0  0  0  0
  4 43  1  0  0  0  0
  5  6  1  0  0  0  0
  5 44  1  0  0  0  0
  5 45  1  0  0  0  0
  6  7  2  0  0  0  0
  6 46  1  0  0  0  0
  7  8  1  0  0  0  0
  7 47  1  0  0  0  0
  8  9  1  0  0  0  0
  8 48  1  0  0  0  0
  8 49  1  0  0  0  0
  9 10  2  0  0  0  0
  9 50  1  0  0  0  0
 10 11  1  0  0  0  0
 10 51  1  0  0  0  0
 11 12  2  0  0  0  0
 11 52  1  0  0  0  0
 12 13  1  0  0  0  0
 12 53  1  0  0  0  0
 13 14  2  0  0  0  0
 13 54  1  0  0  0  0
 14 55  1  0  0  0  0
 15 24  1  0  0  0  0
 15 56  1  1  0  0  0
 15 16  1  0  0  0  0
 15 14  1  0  0  0  0
 16 57  1  1  0  0  0
 16 23  1  0  0  0  0
 16 17  1  0  0  0  0
 17 18  1  0  0  0  0
 17 58  1  0  0  0  0
 17 59  1  0  0  0  0
 18 19  1  0  0  0  0
 18 60  1  0  0  0  0
 18 61  1  0  0  0  0
 19 20  1  0  0  0  0
 19 62  1  0  0  0  0
 19 63  1  0  0  0  0
 20 21  2  0  0  0  0
 20 22  1  0  0  0  0
 22 64  1  0  0  0  0
 23 65  1  0  0  0  0
 24 25  1  0  0  0  0
 25 26  1  0  0  0  0
 25 66  1  0  0  0  0
 25 67  1  0  0  0  0
 26 27  1  0  0  0  0
 26 34  1  0  0  0  0
 26 68  1  6  0  0  0
 27 28  2  0  0  0  0
 27 29  1  0  0  0  0
 29 30  1  0  0  0  0
 29 69  1  0  0  0  0
 30 31  1  0  0  0  0
 30 70  1  0  0  0  0
 30 71  1  0  0  0  0
 31 32  2  0  0  0  0
 31 33  1  0  0  0  0
 33 72  1  0  0  0  0
 34 73  1  0  0  0  0
 34 74  1  0  0  0  0
M  END
>  <DRUGBANK_ID>
DB11858

>  <COMMON_NAME>
Leukotriene D4

>  <CAS_NUMBER>
73836-78-9

>  <UNII>
5FNY4416UE

>  <SYNONYMS>
(R-(R*,S*-(E,E,Z,Z)))-N-(S-(1-(4-Carboxy-1-hydroxybutyl)-2,4,6,9-pentadecatetraenyl)-L-cysteinyl)glycine; 5S-hydroxy-6R-(S-cysteinylglycinyl)-7E,9E,11E,14Z-eicosatetraenoic acid; LTD4; S-{(1R,2E,4E,6Z,9Z)-1-[(1S)-4-carboxy-1-hydroxybutyl]pentadeca-2,4,6,9-tetraen-1-yl}-L-cysteinylglycine

$$$$
