
 OpenBabel10282417113D

 92 93  0  0  0  0  0  0  0  0999 V2000
    1.3419    0.1053    0.2448 C   0  0  0  0  0  0  0  0  0  0  0  0
    0.2716   -0.7722    0.0673 C   0  0  0  0  0  0  0  0  0  0  0  0
    2.6758   -0.4795    0.1649 O   0  0  0  0  0  0  0  0  0  0  0  0
    0.9955    1.4220    0.1638 C   0  0  0  0  0  0  0  0  0  0  0  0
   -1.1007   -0.7070    0.3657 C   0  0  0  0  0  0  0  0  0  0  0  0
    3.3244   -1.8290    0.2864 C   0  0  0  0  0  0  0  0  0  0  0  0
   -0.3944    1.6784    0.2294 C   0  0  0  0  0  0  0  0  0  0  0  0
   -1.3986    0.6446    0.3732 C   0  0  0  0  0  0  0  0  0  0  0  0
   -2.2072   -1.8721   -0.1384 N   0  3  0  0  0  0  0  0  0  0  0  0
    2.5626   -3.0035    0.2183 N   0  0  0  0  0  0  0  0  0  0  0  0
    4.5394   -1.8911    0.4479 O   0  0  0  0  0  0  0  0  0  0  0  0
    3.0366   -4.3573    0.4624 C   0  0  0  0  0  0  0  0  0  0  0  0
    1.2158   -3.0190   -0.0521 C   0  0  0  0  0  0  0  0  0  0  0  0
    2.3177   -5.0193    1.6847 C   0  0  0  0  0  0  0  0  0  0  0  0
    0.7800   -5.1945    1.5925 C   0  0  0  0  0  0  0  0  0  0  0  0
    0.3576   -5.9268    0.2755 C   0  0  0  0  0  0  0  0  0  0  0  0
    0.8781   -7.3301    0.3484 C   0  0  0  0  0  0  0  0  0  0  0  0
    0.2204   -7.9732    1.5494 C   0  0  0  0  0  0  0  0  0  0  0  0
   -1.2854   -7.9235    1.3566 C   0  0  0  0  0  0  0  0  0  0  0  0
   -1.6062   -8.6784    0.0695 C   0  0  0  0  0  0  0  0  0  0  0  0
   -1.2690  -10.1584    0.1900 C   0  0  0  0  0  0  0  0  0  0  0  0
   -1.8972  -10.8193    1.4272 C   0  0  0  0  0  0  0  0  0  0  0  0
   -3.3660  -10.7987    1.4266 N   0  0  0  0  0  0  0  0  0  0  0  0
   -4.0454  -12.0025    1.3108 C   0  0  0  0  0  0  0  0  0  0  0  0
   -4.0146   -9.5200    1.6576 C   0  0  0  0  0  0  0  0  0  0  0  0
   -5.4488  -12.0268    1.1486 O   0  0  0  0  0  0  0  0  0  0  0  0
   -6.3478  -10.9725    0.7921 C   0  0  0  0  0  0  0  0  0  0  0  0
   -5.9898  -10.0275   -0.2052 C   0  0  0  0  0  0  0  0  0  0  0  0
   -7.4485  -10.8125    1.6287 C   0  0  0  0  0  0  0  0  0  0  0  0
   -6.5556   -8.7255   -0.1562 C   0  0  0  0  0  0  0  0  0  0  0  0
   -8.2006   -9.6788    1.4810 C   0  0  0  0  0  0  0  0  0  0  0  0
   -7.6880   -8.6427    0.7100 C   0  0  0  0  0  0  0  0  0  0  0  0
   -6.2268   -7.5666   -1.2360 N   0  3  0  0  0  0  0  0  0  0  0  0
   -3.4324  -13.1133    1.3260 O   0  0  0  0  0  0  0  0  0  0  0  0
   -2.7649   -1.1548   -1.3308 C   0  0  0  0  0  0  0  0  0  0  0  0
   -3.5499   -2.2224    0.5656 C   0  0  0  0  0  0  0  0  0  0  0  0
   -1.6142   -3.2836   -0.1415 C   0  0  0  0  0  0  0  0  0  0  0  0
   -7.7244   -7.1929   -1.3478 C   0  0  0  0  0  0  0  0  0  0  0  0
   -6.1051   -6.0679   -1.6085 C   0  0  0  0  0  0  0  0  0  0  0  0
   -4.9160   -8.0083   -1.9485 C   0  0  0  0  0  0  0  0  0  0  0  0
    0.5786   -1.2447   -0.8532 H   0  0  0  0  0  0  0  0  0  0  0  0
    1.7073    2.2224   -0.0402 H   0  0  0  0  0  0  0  0  0  0  0  0
   -0.7617    2.6973    0.1184 H   0  0  0  0  0  0  0  0  0  0  0  0
   -2.4127    0.9929    0.2551 H   0  0  0  0  0  0  0  0  0  0  0  0
    2.8011   -4.9202   -0.4550 H   0  0  0  0  0  0  0  0  0  0  0  0
    4.1152   -4.3677    0.5760 H   0  0  0  0  0  0  0  0  0  0  0  0
    0.7301   -2.6315    0.8471 H   0  0  0  0  0  0  0  0  0  0  0  0
    0.9882   -2.8010   -1.0904 H   0  0  0  0  0  0  0  0  0  0  0  0
    0.7967   -3.9686   -0.1414 H   0  0  0  0  0  0  0  0  0  0  0  0
    2.7537   -6.0082    1.8424 H   0  0  0  0  0  0  0  0  0  0  0  0
    2.5180   -4.4244    2.5787 H   0  0  0  0  0  0  0  0  0  0  0  0
    0.3553   -5.6695    2.4795 H   0  0  0  0  0  0  0  0  0  0  0  0
    0.2998   -4.2344    1.7594 H   0  0  0  0  0  0  0  0  0  0  0  0
   -0.7241   -5.8403    0.1102 H   0  0  0  0  0  0  0  0  0  0  0  0
    0.7489   -5.5679   -0.6844 H   0  0  0  0  0  0  0  0  0  0  0  0
    0.6789   -7.8323   -0.6020 H   0  0  0  0  0  0  0  0  0  0  0  0
    1.9637   -7.3399    0.4184 H   0  0  0  0  0  0  0  0  0  0  0  0
    0.5918   -8.9863    1.6732 H   0  0  0  0  0  0  0  0  0  0  0  0
    0.4782   -7.4965    2.4958 H   0  0  0  0  0  0  0  0  0  0  0  0
   -1.7296   -8.3261    2.2609 H   0  0  0  0  0  0  0  0  0  0  0  0
   -1.7279   -6.9188    1.3187 H   0  0  0  0  0  0  0  0  0  0  0  0
   -2.6310   -8.5335   -0.1901 H   0  0  0  0  0  0  0  0  0  0  0  0
   -1.1428   -8.2429   -0.8203 H   0  0  0  0  0  0  0  0  0  0  0  0
   -1.5733  -10.6697   -0.7268 H   0  0  0  0  0  0  0  0  0  0  0  0
   -0.1781  -10.2727    0.2426 H   0  0  0  0  0  0  0  0  0  0  0  0
   -1.5137  -11.8421    1.4873 H   0  0  0  0  0  0  0  0  0  0  0  0
   -1.5701  -10.3437    2.3573 H   0  0  0  0  0  0  0  0  0  0  0  0
   -3.5171   -8.8893    2.3785 H   0  0  0  0  0  0  0  0  0  0  0  0
   -4.0622   -8.9972    0.7099 H   0  0  0  0  0  0  0  0  0  0  0  0
   -5.0192   -9.6021    2.0359 H   0  0  0  0  0  0  0  0  0  0  0  0
   -5.1257  -10.3087   -0.8067 H   0  0  0  0  0  0  0  0  0  0  0  0
   -7.6826  -11.4971    2.4386 H   0  0  0  0  0  0  0  0  0  0  0  0
   -9.1403   -9.5187    2.0053 H   0  0  0  0  0  0  0  0  0  0  0  0
   -8.3296   -7.7770    0.8015 H   0  0  0  0  0  0  0  0  0  0  0  0
   -3.4591   -1.7801   -1.8803 H   0  0  0  0  0  0  0  0  0  0  0  0
   -3.3594   -0.3571   -0.8599 H   0  0  0  0  0  0  0  0  0  0  0  0
   -1.9851   -0.6785   -1.9196 H   0  0  0  0  0  0  0  0  0  0  0  0
   -3.9547   -3.0771   -0.0381 H   0  0  0  0  0  0  0  0  0  0  0  0
   -3.4381   -2.5687    1.5894 H   0  0  0  0  0  0  0  0  0  0  0  0
   -4.3353   -1.4837    0.4055 H   0  0  0  0  0  0  0  0  0  0  0  0
   -1.0317   -3.4989   -1.0326 H   0  0  0  0  0  0  0  0  0  0  0  0
   -1.1403   -3.4099    0.8311 H   0  0  0  0  0  0  0  0  0  0  0  0
   -2.3657   -4.0958   -0.0964 H   0  0  0  0  0  0  0  0  0  0  0  0
   -7.8108   -6.5967   -0.3781 H   0  0  0  0  0  0  0  0  0  0  0  0
   -8.0637   -6.5169   -2.1420 H   0  0  0  0  0  0  0  0  0  0  0  0
   -8.3813   -8.0386   -1.4154 H   0  0  0  0  0  0  0  0  0  0  0  0
   -5.1620   -5.5922   -1.4149 H   0  0  0  0  0  0  0  0  0  0  0  0
   -6.2633   -6.1700   -2.7249 H   0  0  0  0  0  0  0  0  0  0  0  0
   -6.8665   -5.3242   -1.2573 H   0  0  0  0  0  0  0  0  0  0  0  0
   -4.1099   -7.9959   -1.1991 H   0  0  0  0  0  0  0  0  0  0  0  0
   -4.9704   -8.9808   -2.4242 H   0  0  0  0  0  0  0  0  0  0  0  0
   -4.5532   -7.2566   -2.6618 H   0  0  0  0  0  0  0  0  0  0  0  0
  1  2  1  0  0  0  0
  1  3  1  0  0  0  0
  1  4  2  0  0  0  0
  2  5  2  0  0  0  0
  2 41  1  0  0  0  0
  3  6  1  0  0  0  0
  4  7  1  0  0  0  0
  4 42  1  0  0  0  0
  5  8  1  0  0  0  0
  5  9  1  0  0  0  0
  6 10  1  0  0  0  0
  6 11  2  0  0  0  0
  7  8  2  0  0  0  0
  7 43  1  0  0  0  0
  8 44  1  0  0  0  0
  9 35  1  0  0  0  0
  9 36  1  0  0  0  0
  9 37  1  0  0  0  0
 10 12  1  0  0  0  0
 10 13  1  0  0  0  0
 12 14  1  0  0  0  0
 12 45  1  0  0  0  0
 12 46  1  0  0  0  0
 13 47  1  0  0  0  0
 13 48  1  0  0  0  0
 13 49  1  0  0  0  0
 14 15  1  0  0  0  0
 14 50  1  0  0  0  0
 14 51  1  0  0  0  0
 15 16  1  0  0  0  0
 15 52  1  0  0  0  0
 15 53  1  0  0  0  0
 16 17  1  0  0  0  0
 16 54  1  0  0  0  0
 16 55  1  0  0  0  0
 17 18  1  0  0  0  0
 17 56  1  0  0  0  0
 17 57  1  0  0  0  0
 18 19  1  0  0  0  0
 18 58  1  0  0  0  0
 18 59  1  0  0  0  0
 19 20  1  0  0  0  0
 19 60  1  0  0  0  0
 19 61  1  0  0  0  0
 20 21  1  0  0  0  0
 20 62  1  0  0  0  0
 20 63  1  0  0  0  0
 21 22  1  0  0  0  0
 21 64  1  0  0  0  0
 21 65  1  0  0  0  0
 22 23  1  0  0  0  0
 22 66  1  0  0  0  0
 22 67  1  0  0  0  0
 23 24  1  0  0  0  0
 23 25  1  0  0  0  0
 24 26  1  0  0  0  0
 24 34  2  0  0  0  0
 25 68  1  0  0  0  0
 25 69  1  0  0  0  0
 25 70  1  0  0  0  0
 26 27  1  0  0  0  0
 27 28  1  0  0  0  0
 27 29  2  0  0  0  0
 28 30  2  0  0  0  0
 28 71  1  0  0  0  0
 29 31  1  0  0  0  0
 29 72  1  0  0  0  0
 30 32  1  0  0  0  0
 30 33  1  0  0  0  0
 31 32  2  0  0  0  0
 31 73  1  0  0  0  0
 32 74  1  0  0  0  0
 33 38  1  0  0  0  0
 33 39  1  0  0  0  0
 33 40  1  0  0  0  0
 35 75  1  0  0  0  0
 35 76  1  0  0  0  0
 35 77  1  0  0  0  0
 36 78  1  0  0  0  0
 36 79  1  0  0  0  0
 36 80  1  0  0  0  0
 37 81  1  0  0  0  0
 37 82  1  0  0  0  0
 37 83  1  0  0  0  0
 38 84  1  0  0  0  0
 38 85  1  0  0  0  0
 38 86  1  0  0  0  0
 39 87  1  0  0  0  0
 39 88  1  0  0  0  0
 39 89  1  0  0  0  0
 40 90  1  0  0  0  0
 40 91  1  0  0  0  0
 40 92  1  0  0  0  0
M  CHG  2   9   1  33   1
M  END
>  <DRUGBANK_ID>
DB00944

>  <SECONDARY_ACCESSION_NUMBERS>
APRD00905

>  <COMMON_NAME>
Demecarium

>  <CAS_NUMBER>
16505-84-3

>  <UNII>
ILP8XJ8R5K

>  <SYNONYMS>
Demecarium; Demecarium cation; Demecarium ion

$$$$
