
 OpenBabel10282417153D

 46 49  0  0  0  0  0  0  0  0999 V2000
    2.4455    0.3671    0.0038 C   0  0  0  0  0  0  0  0  0  0  0  0
    0.9558    0.3990    0.0498 C   0  0  0  0  0  0  0  0  0  0  0  0
    0.0699    1.4796    0.0983 C   0  0  0  0  0  0  0  0  0  0  0  0
   -1.3547    1.3928    0.2220 N   0  0  0  0  0  0  0  0  0  0  0  0
   -1.8674    0.1493    0.1184 C   0  0  0  0  0  0  0  0  0  0  0  0
   -0.8906   -0.7677   -0.3311 C   0  0  0  0  0  0  0  0  0  0  0  0
    0.4280   -0.7834   -0.0950 N   0  0  0  0  0  0  0  0  0  0  0  0
   -1.1191   -1.6810   -1.3272 O   0  0  0  0  0  0  0  0  0  0  0  0
   -2.3837   -2.0664   -1.0727 C   0  0  0  0  0  0  0  0  0  0  0  0
   -3.3962   -0.1782    0.4960 N   0  0  0  0  0  0  0  0  0  0  0  0
   -4.2523   -2.1005    0.6776 S   0  0  0  0  0  0  0  0  0  0  0  0
   -5.0427   -2.1280    1.8423 O   0  0  0  0  0  0  0  0  0  0  0  0
   -4.9431   -2.2284   -0.6493 O   0  0  0  0  0  0  0  0  0  0  0  0
   -2.6315   -3.6695    0.8394 C   0  0  0  0  0  0  0  0  0  0  0  0
   -1.1538   -3.4318    0.7902 C   0  0  0  0  0  0  0  0  0  0  0  0
   -0.1126   -4.2411    0.2430 C   0  0  0  0  0  0  0  0  0  0  0  0
   -0.4966   -5.5072   -0.0053 C   0  0  0  0  0  0  0  0  0  0  0  0
   -1.8271   -5.8360   -0.0696 N   0  0  0  0  0  0  0  0  0  0  0  0
   -2.8530   -4.8860    0.2133 C   0  0  0  0  0  0  0  0  0  0  0  0
   -4.1930   -5.3112   -0.0862 C   0  0  0  0  0  0  0  0  0  0  0  0
   -4.9428   -4.9215   -1.2132 C   0  0  0  0  0  0  0  0  0  0  0  0
   -6.2886   -5.2664   -1.3092 C   0  0  0  0  0  0  0  0  0  0  0  0
   -6.8434   -6.0840   -0.3238 C   0  0  0  0  0  0  0  0  0  0  0  0
   -6.0667   -6.4999    0.7654 C   0  0  0  0  0  0  0  0  0  0  0  0
   -4.7877   -6.0302    0.9329 C   0  0  0  0  0  0  0  0  0  0  0  0
   -8.2432   -6.4198   -0.3128 C   0  0  0  0  0  0  0  0  0  0  0  0
   -9.1246   -6.2156    0.6428 N   0  0  0  0  0  0  0  0  0  0  0  0
  -10.3011   -6.7730    0.2062 N   0  0  0  0  0  0  0  0  0  0  0  0
  -10.0372   -7.2976   -0.9669 C   0  0  0  0  0  0  0  0  0  0  0  0
   -8.7513   -7.1099   -1.3787 O   0  0  0  0  0  0  0  0  0  0  0  0
    2.8476   -0.1852    0.8664 H   0  0  0  0  0  0  0  0  0  0  0  0
    2.8093   -0.1702   -0.8893 H   0  0  0  0  0  0  0  0  0  0  0  0
    2.8512    1.3721   -0.0037 H   0  0  0  0  0  0  0  0  0  0  0  0
    0.4963    2.4735    0.0299 H   0  0  0  0  0  0  0  0  0  0  0  0
   -2.4095   -1.8886    0.0288 H   0  0  0  0  0  0  0  0  0  0  0  0
   -3.0881   -1.5901   -1.7138 H   0  0  0  0  0  0  0  0  0  0  0  0
   -2.6983   -3.0864   -1.2248 H   0  0  0  0  0  0  0  0  0  0  0  0
   -4.0561    0.4527   -0.0119 H   0  0  0  0  0  0  0  0  0  0  0  0
   -0.6678   -2.4944    0.9489 H   0  0  0  0  0  0  0  0  0  0  0  0
    0.9111   -3.8548    0.0816 H   0  0  0  0  0  0  0  0  0  0  0  0
    0.2765   -6.2747   -0.0875 H   0  0  0  0  0  0  0  0  0  0  0  0
   -4.5411   -4.2387   -1.9625 H   0  0  0  0  0  0  0  0  0  0  0  0
   -6.8902   -4.8650   -2.1240 H   0  0  0  0  0  0  0  0  0  0  0  0
   -6.4483   -7.1902    1.5067 H   0  0  0  0  0  0  0  0  0  0  0  0
   -4.2361   -6.1883    1.8587 H   0  0  0  0  0  0  0  0  0  0  0  0
  -10.7008   -7.8459   -1.6155 H   0  0  0  0  0  0  0  0  0  0  0  0
  1  2  1  0  0  0  0
  1 31  1  0  0  0  0
  1 32  1  0  0  0  0
  1 33  1  0  0  0  0
  2  3  2  0  0  0  0
  2  7  1  0  0  0  0
  3  4  1  0  0  0  0
  3 34  1  0  0  0  0
  4  5  2  0  0  0  0
  5  6  1  0  0  0  0
  5 10  1  0  0  0  0
  6  7  2  0  0  0  0
  6  8  1  0  0  0  0
  8  9  1  0  0  0  0
  9 35  1  0  0  0  0
  9 36  1  0  0  0  0
  9 37  1  0  0  0  0
 10 11  1  0  0  0  0
 10 38  1  0  0  0  0
 11 12  2  0  0  0  0
 11 13  2  0  0  0  0
 11 14  1  0  0  0  0
 14 15  2  0  0  0  0
 14 19  1  0  0  0  0
 15 16  1  0  0  0  0
 15 39  1  0  0  0  0
 16 17  2  0  0  0  0
 16 40  1  0  0  0  0
 17 18  1  0  0  0  0
 17 41  1  0  0  0  0
 18 19  2  0  0  0  0
 19 20  1  0  0  0  0
 20 21  2  0  0  0  0
 20 25  1  0  0  0  0
 21 22  1  0  0  0  0
 21 42  1  0  0  0  0
 22 23  2  0  0  0  0
 22 43  1  0  0  0  0
 23 24  1  0  0  0  0
 23 26  1  0  0  0  0
 24 25  2  0  0  0  0
 24 44  1  0  0  0  0
 25 45  1  0  0  0  0
 26 27  2  0  0  0  0
 26 30  1  0  0  0  0
 27 28  1  0  0  0  0
 28 29  2  0  0  0  0
 29 30  1  0  0  0  0
 29 46  1  0  0  0  0
M  END
>  <DRUGBANK_ID>
DB06629

>  <COMMON_NAME>
Zibotentan

>  <CAS_NUMBER>
186497-07-4

>  <UNII>
8054MM4902

>  <SYNONYMS>
Zibotentan

$$$$
