
 OpenBabel10282417233D

178179  0  0  1  0  0  0  0  0999 V2000
    1.0474   -0.0603    0.0642 O   0  5  0  0  0  0  0  0  0  0  0  0
    1.0520   -0.0664   -0.0538 Cl  0  5  0  0  0  0  0  0  0  0  0  0
    1.0669   -0.0640    0.0378 Tc  0  0  0  0  0  0  0  0  0  0  0  0
    0.9180    0.0572   -0.0021 O   0  5  0  0  0  0  0  0  0  0  0  0
    2.3380    0.0572   -0.0021 C   0  0  0  0  0  0  0  0  0  0  0  0
    2.9735    0.9198   -0.6857 O   0  0  0  0  0  0  0  0  0  0  0  0
    3.0980   -0.9744    0.8155 C   0  0  0  0  0  0  0  0  0  0  0  0
    2.7429   -0.8331    2.2350 N   0  0  0  0  0  0  0  0  0  0  0  0
    3.4779   -1.8308    3.0257 C   0  0  0  0  0  0  0  0  0  0  0  0
    4.9723   -1.6131    2.8532 C   0  0  0  0  0  0  0  0  0  0  0  0
    5.3274   -0.2635    3.3151 N   0  0  0  0  0  0  0  0  0  0  0  0
    6.7727   -0.0530    3.1482 C   0  0  0  0  0  0  0  0  0  0  0  0
    7.1399   -0.1992    1.6805 C   0  0  0  0  0  0  0  0  0  0  0  0
    7.7316    0.8883    0.9850 O   0  5  0  0  0  0  0  0  0  0  0  0
    6.9174   -1.2946    1.0758 O   0  0  0  0  0  0  0  0  0  0  0  0
    1.0701    0.0660   -0.0271 C   0  0  0  0  0  0  0  0  0  0  0  0
    0.5634   -1.3521   -0.2340 C   0  0  1  0  0  0  0  0  0  0  0  0
    1.0368   -2.1818    0.8167 O   0  0  0  0  0  0  0  0  0  0  0  0
   -0.9566   -1.3521   -0.2340 C   0  0  1  0  0  0  0  0  0  0  0  0
   -1.4632   -0.4639   -1.3586 C   0  0  0  0  0  0  0  0  0  0  0  0
   -0.9899   -0.9588   -2.6025 O   0  0  0  0  0  0  0  0  0  0  0  0
   -1.4466   -2.7235   -0.4341 N   0  0  0  0  0  0  0  0  0  0  0  0
   -2.2917   -3.3584    0.5875 C   0  0  0  0  0  0  0  0  0  0  0  0
   -2.7153   -4.5441    0.4145 O   0  0  0  0  0  0  0  0  0  0  0  0
   -2.6589   -2.5969    1.8506 C   0  0  0  0  0  0  0  0  0  0  0  0
  -19.6993   -1.2953    7.1936 C   0  0  0  0  0  0  0  0  0  0  0  0
  -18.6587   -0.2529    6.1417 S   0  0  0  0  0  0  0  0  0  0  0  0
  -19.7086    1.4915    5.6272 S   0  0  0  0  0  0  0  0  0  0  0  0
  -18.6680    2.5339    4.5752 C   0  0  0  0  0  0  0  0  0  0  0  0
  -17.4014    2.9083    5.3274 C   0  0  2  0  0  0  0  0  0  0  0  0
  -16.5562    3.7549    4.4731 N   0  0  0  0  0  0  0  0  0  0  0  0
  -16.8664    4.0859    3.0748 C   0  0  0  0  0  0  0  0  0  0  0  0
  -16.0448    4.7684    2.3861 O   0  0  0  0  0  0  0  0  0  0  0  0
  -18.1697    3.6119    2.4527 C   0  0  1  0  0  0  0  0  0  0  0  0
  -18.2272    2.0935    2.4921 C   0  0  0  0  0  0  0  0  0  0  0  0
  -18.1531    1.6209    3.9348 C   0  0  0  0  0  0  0  0  0  0  0  0
  -17.6462    0.4081    4.1232 C   0  0  0  0  0  0  0  0  0  0  0  0
  -17.4342   -0.0718    5.3931 C   0  0  0  0  0  0  0  0  0  0  0  0
  -17.8225    0.6461    6.4901 C   0  0  0  0  0  0  0  0  0  0  0  0
  -18.2525    1.8745    6.2660 C   0  0  0  0  0  0  0  0  0  0  0  0
  -18.6256    2.3750    4.9962 C   0  0  0  0  0  0  0  0  0  0  0  0
  -19.3029    4.1649    3.2083 N   0  0  0  0  0  0  0  0  0  0  0  0
  -20.2824    5.0305    2.5358 C   0  0  0  0  0  0  0  0  0  0  0  0
  -21.2621    5.5086    3.1891 O   0  0  0  0  0  0  0  0  0  0  0  0
  -20.1233    5.3539    1.0591 C   0  0  0  0  0  0  0  0  0  0  0  0
  -20.3977    6.5931    0.5150 C   0  0  0  0  0  0  0  0  0  0  0  0
  -20.3966    6.8171   -0.8084 N   0  0  0  0  0  0  0  0  0  0  0  0
  -20.1162    5.7872   -1.6130 C   0  0  0  0  0  0  0  0  0  0  0  0
  -20.1394    6.0126   -3.0654 N   0  0  0  0  0  0  0  0  0  0  0  0
  -20.4538    7.2984   -3.5795 N   0  0  0  0  0  0  0  0  0  0  0  0
  -19.8071    4.5273   -1.1541 C   0  0  0  0  0  0  0  0  0  0  0  0
  -19.8092    4.2867    0.2140 C   0  0  0  0  0  0  0  0  0  0  0  0
  -16.6414    1.6457    5.6999 C   0  0  0  0  0  0  0  0  0  0  0  0
  -17.1894    0.7687    6.4387 O   0  0  0  0  0  0  0  0  0  0  0  0
  -15.2725    1.4390    5.2055 N   0  0  0  0  0  0  0  0  0  0  0  0
  -14.5375    0.2179    5.5656 C   0  0  0  0  0  0  0  0  0  0  0  0
  -15.4114   -0.6575    6.4490 C   0  0  0  0  0  0  0  0  0  0  0  0
  -14.6514   -1.9201    6.8214 C   0  0  0  0  0  0  0  0  0  0  0  0
  -13.5824   -1.8636    7.6071 C   0  0  0  0  0  0  0  0  0  0  0  0
  -13.0087   -3.0143    8.0914 C   0  0  0  0  0  0  0  0  0  0  0  0
  -13.4652   -4.2440    7.7053 C   0  0  0  0  0  0  0  0  0  0  0  0
  -12.7855   -5.4394    8.0593 O   0  5  0  0  0  0  0  0  0  0  0  0
  -14.5723   -4.2601    6.9854 C   0  0  0  0  0  0  0  0  0  0  0  0
  -15.1270   -3.1291    6.3411 C   0  0  0  0  0  0  0  0  0  0  0  0
  -14.1703   -0.5436    4.3024 C   0  0  0  0  0  0  0  0  0  0  0  0
  -15.0837   -0.9545    3.5200 O   0  0  0  0  0  0  0  0  0  0  0  0
  -12.7588   -0.8048    3.9858 N   0  0  0  0  0  0  0  0  0  0  0  0
  -12.4037   -1.5413    2.7642 C   0  0  2  0  0  0  0  0  0  0  0  0
  -11.6437   -2.8038    3.1366 C   0  0  0  0  0  0  0  0  0  0  0  0
  -12.6381   -3.5571    4.0049 C   0  0  0  0  0  0  0  0  0  0  0  0
  -13.7655    0.4944    4.1590 C   0  0  0  0  0  0  0  0  0  0  0  0
  -13.3260   -0.8272    4.1733 N   0  0  0  0  0  0  0  0  0  0  0  0
  -13.6226   -1.6481    5.2587 C   0  0  0  0  0  0  0  0  0  0  0  0
  -13.1975   -2.9061    5.2594 C   0  0  0  0  0  0  0  0  0  0  0  0
  -13.3398   -3.6918    6.3775 C   0  0  0  0  0  0  0  0  0  0  0  0
  -14.0014   -3.2305    7.4816 C   0  0  0  0  0  0  0  0  0  0  0  0
  -14.3428   -1.9548    7.4714 C   0  0  0  0  0  0  0  0  0  0  0  0
  -14.3554   -1.1367    6.3170 C   0  0  0  0  0  0  0  0  0  0  0  0
  -11.5298   -0.6658    1.8808 C   0  0  0  0  0  0  0  0  0  0  0  0
  -11.9719    0.4457    1.4516 O   0  0  0  0  0  0  0  0  0  0  0  0
  -10.1733   -1.1049    1.5228 N   0  0  0  0  0  0  0  0  0  0  0  0
   -9.3282   -0.2583    0.6685 C   0  0  1  0  0  0  0  0  0  0  0  0
  -10.0882    1.0043    0.2961 C   0  0  0  0  0  0  0  0  0  0  0  0
   -9.2143    1.8797   -0.5873 C   0  0  0  0  0  0  0  0  0  0  0  0
   -8.8471    1.1182   -1.8505 C   0  0  0  0  0  0  0  0  0  0  0  0
  -10.1138    0.7438   -2.6027 C   0  0  0  0  0  0  0  0  0  0  0  0
  -10.8488    1.9649   -2.9629 N   0  0  0  0  0  0  0  0  0  0  0  0
   -8.0615    0.1161    1.4207 C   0  0  0  0  0  0  0  0  0  0  0  0
   -8.1383    0.7616    2.5127 O   0  0  0  0  0  0  0  0  0  0  0  0
   -6.7477   -0.2686    0.8850 N   0  0  0  0  0  0  0  0  0  0  0  0
   -5.5227    0.0935    1.6125 C   0  0  0  0  0  0  0  0  0  0  0  0
   -5.8899    0.8550    2.8757 C   0  0  1  0  0  0  0  0  0  0  0  0
   -4.6233    1.2294    3.6279 C   0  0  0  0  0  0  0  0  0  0  0  0
   -6.5999    2.0345    2.5277 O   0  0  0  0  0  0  0  0  0  0  0  0
   -4.7627   -1.1691    1.9849 C   0  0  0  0  0  0  0  0  0  0  0  0
   -5.3107   -2.0460    2.7237 O   0  0  0  0  0  0  0  0  0  0  0  0
   -3.3939   -1.3758    1.4905 N   0  0  0  0  0  0  0  0  0  0  0  0
    2.0474   -0.0603    0.0642 H   0  0  0  0  0  0  0  0  0  0  0  0
    2.8395   -1.9568    0.4793 H   0  0  0  0  0  0  0  0  0  0  0  0
    4.1500   -0.8212    0.6941 H   0  0  0  0  0  0  0  0  0  0  0  0
    2.9893    0.1034    2.5555 H   0  0  0  0  0  0  0  0  0  0  0  0
    3.2194   -1.7279    4.0589 H   0  0  0  0  0  0  0  0  0  0  0  0
    3.2194   -2.8132    2.6895 H   0  0  0  0  0  0  0  0  0  0  0  0
    5.5073   -2.3394    3.4287 H   0  0  0  0  0  0  0  0  0  0  0  0
    5.2308   -1.7160    1.8200 H   0  0  0  0  0  0  0  0  0  0  0  0
    4.8174    0.4288    2.7664 H   0  0  0  0  0  0  0  0  0  0  0  0
    7.0312    0.9293    3.4845 H   0  0  0  0  0  0  0  0  0  0  0  0
    7.3077   -0.7793    3.7238 H   0  0  0  0  0  0  0  0  0  0  0  0
    0.7134    0.4390    0.9103 H   0  0  0  0  0  0  0  0  0  0  0  0
    0.7134    0.6912   -0.8187 H   0  0  0  0  0  0  0  0  0  0  0  0
    2.1401    0.0660   -0.0271 H   0  0  0  0  0  0  0  0  0  0  0  0
    0.9201   -1.7250   -1.1713 H   0  0  0  0  0  0  0  0  0  0  0  0
    2.0368   -2.1818    0.8167 H   0  0  0  0  0  0  0  0  0  0  0  0
   -1.3132   -0.9791    0.7034 H   0  0  0  0  0  0  0  0  0  0  0  0
   -2.5332   -0.4639   -1.3586 H   0  0  0  0  0  0  0  0  0  0  0  0
   -1.1066    0.5344   -1.2129 H   0  0  0  0  0  0  0  0  0  0  0  0
    0.0101   -0.9588   -2.6025 H   0  0  0  0  0  0  0  0  0  0  0  0
   -1.2002   -3.2345   -1.2817 H   0  0  0  0  0  0  0  0  0  0  0  0
   -3.2741   -3.2131    2.4725 H   0  0  0  0  0  0  0  0  0  0  0  0
  -20.5909   -1.5588    6.6641 H   0  0  0  0  0  0  0  0  0  0  0  0
  -19.1643   -2.1841    7.4558 H   0  0  0  0  0  0  0  0  0  0  0  0
  -19.2030    3.4227    4.3131 H   0  0  0  0  0  0  0  0  0  0  0  0
  -18.4096    1.9978    3.6860 H   0  0  0  0  0  0  0  0  0  0  0  0
  -17.6599    3.4443    6.2167 H   0  0  0  0  0  0  0  0  0  0  0  0
  -15.6816    4.0730    4.8906 H   0  0  0  0  0  0  0  0  0  0  0  0
  -18.2219    3.9446    1.4371 H   0  0  0  0  0  0  0  0  0  0  0  0
  -19.1447    1.7598    2.0541 H   0  0  0  0  0  0  0  0  0  0  0  0
  -17.4023    1.6910    1.9421 H   0  0  0  0  0  0  0  0  0  0  0  0
  -17.4006   -0.2010    3.2784 H   0  0  0  0  0  0  0  0  0  0  0  0
  -16.9584   -1.0210    5.5255 H   0  0  0  0  0  0  0  0  0  0  0  0
  -17.7801    0.2348    7.4769 H   0  0  0  0  0  0  0  0  0  0  0  0
  -18.3238    2.5374    7.1029 H   0  0  0  0  0  0  0  0  0  0  0  0
  -19.2189    3.2561    4.8676 H   0  0  0  0  0  0  0  0  0  0  0  0
  -19.4097    3.9479    4.1993 H   0  0  0  0  0  0  0  0  0  0  0  0
  -20.6199    7.4063    1.1740 H   0  0  0  0  0  0  0  0  0  0  0  0
  -19.9296    5.2453   -3.7040 H   0  0  0  0  0  0  0  0  0  0  0  0
  -21.2833    7.2351   -4.1696 H   0  0  0  0  0  0  0  0  0  0  0  0
  -20.6345    7.9388   -2.8065 H   0  0  0  0  0  0  0  0  0  0  0  0
  -19.5684    3.7433   -1.8421 H   0  0  0  0  0  0  0  0  0  0  0  0
  -19.5784    3.3184    0.6066 H   0  0  0  0  0  0  0  0  0  0  0  0
  -14.8327    2.1428    4.6125 H   0  0  0  0  0  0  0  0  0  0  0  0
  -13.6459    0.4814    6.0951 H   0  0  0  0  0  0  0  0  0  0  0  0
  -15.6699   -0.1214    7.3382 H   0  0  0  0  0  0  0  0  0  0  0  0
  -16.3031   -0.9210    5.9195 H   0  0  0  0  0  0  0  0  0  0  0  0
  -13.1640   -0.9133    7.8654 H   0  0  0  0  0  0  0  0  0  0  0  0
  -12.1930   -2.9472    8.7806 H   0  0  0  0  0  0  0  0  0  0  0  0
  -15.0855   -5.1933    6.8823 H   0  0  0  0  0  0  0  0  0  0  0  0
  -15.8485   -3.2012    5.5542 H   0  0  0  0  0  0  0  0  0  0  0  0
  -12.0258   -0.4750    4.6137 H   0  0  0  0  0  0  0  0  0  0  0  0
  -13.2953   -1.8048    2.2346 H   0  0  0  0  0  0  0  0  0  0  0  0
  -11.3627   -3.4146    2.3042 H   0  0  0  0  0  0  0  0  0  0  0  0
  -10.7747   -2.5659    3.7138 H   0  0  0  0  0  0  0  0  0  0  0  0
  -14.3309    0.8791    4.9819 H   0  0  0  0  0  0  0  0  0  0  0  0
  -12.7870   -1.1940    3.3888 H   0  0  0  0  0  0  0  0  0  0  0  0
  -12.9268   -4.6789    6.3844 H   0  0  0  0  0  0  0  0  0  0  0  0
  -14.2302   -3.8688    8.3093 H   0  0  0  0  0  0  0  0  0  0  0  0
  -14.6297   -1.5089    8.4008 H   0  0  0  0  0  0  0  0  0  0  0  0
  -14.8833   -0.2074    6.2662 H   0  0  0  0  0  0  0  0  0  0  0  0
   -9.8185   -1.9970    1.8673 H   0  0  0  0  0  0  0  0  0  0  0  0
   -9.0697   -0.7944   -0.2207 H   0  0  0  0  0  0  0  0  0  0  0  0
  -10.9799    0.7407   -0.2334 H   0  0  0  0  0  0  0  0  0  0  0  0
  -10.3467    1.5403    1.1853 H   0  0  0  0  0  0  0  0  0  0  0  0
   -9.7493    2.7685   -0.8495 H   0  0  0  0  0  0  0  0  0  0  0  0
   -8.3227    2.1432   -0.0578 H   0  0  0  0  0  0  0  0  0  0  0  0
   -8.2320    1.7344   -2.4724 H   0  0  0  0  0  0  0  0  0  0  0  0
   -8.3121    0.2294   -1.5884 H   0  0  0  0  0  0  0  0  0  0  0  0
   -9.8553    0.2077   -3.4919 H   0  0  0  0  0  0  0  0  0  0  0  0
  -10.7289    0.1276   -1.9809 H   0  0  0  0  0  0  0  0  0  0  0  0
  -11.6988    1.7137   -3.4676 H   0  0  0  0  0  0  0  0  0  0  0  0
  -11.0952    2.4759   -2.1152 H   0  0  0  0  0  0  0  0  0  0  0  0
   -6.6861   -0.7867    0.0086 H   0  0  0  0  0  0  0  0  0  0  0  0
   -4.9076    0.7097    0.9906 H   0  0  0  0  0  0  0  0  0  0  0  0
   -6.5051    0.2388    3.4975 H   0  0  0  0  0  0  0  0  0  0  0  0
   -4.0081    1.8456    3.0060 H   0  0  0  0  0  0  0  0  0  0  0  0
   -4.8818    1.7654    4.5171 H   0  0  0  0  0  0  0  0  0  0  0  0
   -4.0883    0.3406    3.8900 H   0  0  0  0  0  0  0  0  0  0  0  0
   -6.0250    2.6105    1.9466 H   0  0  0  0  0  0  0  0  0  0  0  0
   -2.9541   -0.6720    0.8975 H   0  0  0  0  0  0  0  0  0  0  0  0
  1 98  1  0  0  0  0
  4  5  1  0  0  0  0
  5  6  2  0  0  0  0
  5  7  1  0  0  0  0
  7  8  1  0  0  0  0
  7 99  1  0  0  0  0
  7100  1  0  0  0  0
  8  9  1  0  0  0  0
  8101  1  0  0  0  0
  9 10  1  0  0  0  0
  9102  1  0  0  0  0
  9103  1  0  0  0  0
 10 11  1  0  0  0  0
 10104  1  0  0  0  0
 10105  1  0  0  0  0
 11 12  1  0  0  0  0
 11106  1  0  0  0  0
 12 13  1  0  0  0  0
 12107  1  0  0  0  0
 12108  1  0  0  0  0
 13 14  1  0  0  0  0
 13 15  2  0  0  0  0
 16109  1  0  0  0  0
 16110  1  0  0  0  0
 16111  1  0  0  0  0
 17 16  1  0  0  0  0
 17 18  1  0  0  0  0
 17 19  1  0  0  0  0
 17112  1  6  0  0  0
 18113  1  0  0  0  0
 19 20  1  0  0  0  0
 19 22  1  0  0  0  0
 19114  1  1  0  0  0
 20 21  1  0  0  0  0
 20115  1  0  0  0  0
 20116  1  0  0  0  0
 21117  1  0  0  0  0
 22 23  1  0  0  0  0
 22118  1  0  0  0  0
 23 24  2  0  0  0  0
 25 23  1  0  0  0  0
 25 26  1  0  0  0  0
 25 97  1  0  0  0  0
 25119  1  0  0  0  0
 26 27  1  0  0  0  0
 26120  1  0  0  0  0
 26121  1  0  0  0  0
 27 28  1  0  0  0  0
 28 29  1  0  0  0  0
 29122  1  0  0  0  0
 29123  1  0  0  0  0
 30 29  1  0  0  0  0
 30 53  1  0  0  0  0
 30124  1  1  0  0  0
 30 31  1  0  0  0  0
 31 32  1  0  0  0  0
 31125  1  0  0  0  0
 32 33  2  0  0  0  0
 34 32  1  0  0  0  0
 34 35  1  0  0  0  0
 34 42  1  0  0  0  0
 34126  1  6  0  0  0
 35 36  1  0  0  0  0
 35127  1  0  0  0  0
 35128  1  0  0  0  0
 36 37  2  0  0  0  0
 36 41  1  0  0  0  0
 37 38  1  0  0  0  0
 37129  1  0  0  0  0
 38 39  2  0  0  0  0
 38130  1  0  0  0  0
 39 40  1  0  0  0  0
 39131  1  0  0  0  0
 40 41  2  0  0  0  0
 40132  1  0  0  0  0
 41133  1  0  0  0  0
 42 43  1  0  0  0  0
 42134  1  0  0  0  0
 43 44  2  0  0  0  0
 43 45  1  0  0  0  0
 45 46  2  0  0  0  0
 45 52  1  0  0  0  0
 46 47  1  0  0  0  0
 46135  1  0  0  0  0
 47 48  2  0  0  0  0
 48 49  1  0  0  0  0
 48 51  1  0  0  0  0
 49 50  1  0  0  0  0
 49136  1  0  0  0  0
 50137  1  0  0  0  0
 50138  1  0  0  0  0
 51 52  2  0  0  0  0
 51139  1  0  0  0  0
 52140  1  0  0  0  0
 53 54  2  0  0  0  0
 53 55  1  0  0  0  0
 55141  1  0  0  0  0
 56 55  1  0  0  0  0
 56 57  1  0  0  0  0
 56 65  1  0  0  0  0
 56142  1  0  0  0  0
 57 58  1  0  0  0  0
 57143  1  0  0  0  0
 57144  1  0  0  0  0
 58 59  2  0  0  0  0
 58 64  1  0  0  0  0
 59 60  1  0  0  0  0
 59145  1  0  0  0  0
 60 61  2  0  0  0  0
 60146  1  0  0  0  0
 61 62  1  0  0  0  0
 61 63  1  0  0  0  0
 63 64  2  0  0  0  0
 63147  1  0  0  0  0
 64148  1  0  0  0  0
 65 66  2  0  0  0  0
 65 67  1  0  0  0  0
 67149  1  0  0  0  0
 68 67  1  0  0  0  0
 68 79  1  0  0  0  0
 68150  1  6  0  0  0
 68 69  1  0  0  0  0
 69 70  1  0  0  0  0
 69151  1  0  0  0  0
 69152  1  0  0  0  0
 70 71  2  0  0  0  0
 70 74  1  0  0  0  0
 71 72  1  0  0  0  0
 71153  1  0  0  0  0
 72 73  1  0  0  0  0
 72154  1  0  0  0  0
 73 74  2  0  0  0  0
 73 78  1  0  0  0  0
 74 75  1  0  0  0  0
 75 76  2  0  0  0  0
 75155  1  0  0  0  0
 76 77  1  0  0  0  0
 76156  1  0  0  0  0
 77 78  2  0  0  0  0
 77157  1  0  0  0  0
 78158  1  0  0  0  0
 79 80  2  0  0  0  0
 79 81  1  0  0  0  0
 81159  1  0  0  0  0
 82 81  1  0  0  0  0
 82 83  1  0  0  0  0
 82 88  1  0  0  0  0
 82160  1  6  0  0  0
 83 84  1  0  0  0  0
 83161  1  0  0  0  0
 83162  1  0  0  0  0
 84 85  1  0  0  0  0
 84163  1  0  0  0  0
 84164  1  0  0  0  0
 85 86  1  0  0  0  0
 85165  1  0  0  0  0
 85166  1  0  0  0  0
 86 87  1  0  0  0  0
 86167  1  0  0  0  0
 86168  1  0  0  0  0
 87169  1  0  0  0  0
 87170  1  0  0  0  0
 88 89  2  0  0  0  0
 88 90  1  0  0  0  0
 90171  1  0  0  0  0
 91 90  1  0  0  0  0
 91 92  1  0  0  0  0
 91 95  1  0  0  0  0
 91172  1  0  0  0  0
 92 93  1  0  0  0  0
 92 94  1  0  0  0  0
 92173  1  1  0  0  0
 93174  1  0  0  0  0
 93175  1  0  0  0  0
 93176  1  0  0  0  0
 94177  1  0  0  0  0
 95 96  2  0  0  0  0
 95 97  1  0  0  0  0
 97178  1  0  0  0  0
M  ISO  1   3  99
M  CHG  6   1  -1   2  -1   3   5   4  -1  14  -1  62  -1
M  END
>  <DRUGBANK_ID>
DB17161

>  <COMMON_NAME>
99mTc-HYNIC (Tyr3)-octreotide

>  <CAS_NUMBER>
913556-61-3

>  <UNII>
534I87AT7J

>  <SYNONYMS>
99mtc-ethylenediamine n,n'-diacetic acid/hydrazinonicotinamide-tyr3-octreotide; 99mTc-HYNIC-[D-Phe1,Tyr3-Octreotide]; 99mTc-Hynic-TOC; 99mTcEDDA/HYNIC-TOC; Hynic (tyr3)-octreotide technetium tc-99m

$$$$
