
 OpenBabel10282417133D

 24 23  0  0  1  0  0  0  0  0999 V2000
    3.0627    2.0442    3.9283 O   0  0  0  0  0  0  0  0  0  0  0  0
    2.5169    1.2174    1.3088 O   0  0  0  0  0  0  0  0  0  0  0  0
    0.3992    2.2817    4.7080 O   0  0  0  0  0  0  0  0  0  0  0  0
   -0.0361    1.8287    0.9756 O   0  0  0  0  0  0  0  0  0  0  0  0
   -0.4000    1.4816    7.5401 O   0  0  0  0  0  0  0  0  0  0  0  0
    1.5299    2.5565    7.0463 O   0  0  0  0  0  0  0  0  0  0  0  0
    2.5198    0.7394    3.6728 C   0  0  1  0  0  0  0  0  0  0  0  0
    1.8990    0.3133    5.0062 C   0  0  0  0  0  0  0  0  0  0  0  0
    1.6592    0.7426    2.3682 C   0  0  1  0  0  0  0  0  0  0  0  0
    0.6206    1.0529    5.4114 C   0  0  1  0  0  0  0  0  0  0  0  0
    0.4232    1.6563    2.3153 C   0  0  0  0  0  0  0  0  0  0  0  0
    0.6731    1.7083    6.7663 C   0  0  0  0  0  0  0  0  0  0  0  0
    2.5413    2.6751    3.4095 H   0  0  0  0  0  0  0  0  0  0  0  0
    1.9542    1.2084    0.5107 H   0  0  0  0  0  0  0  0  0  0  0  0
    1.1553    2.8680    4.9381 H   0  0  0  0  0  0  0  0  0  0  0  0
    0.3563    2.6754    0.6877 H   0  0  0  0  0  0  0  0  0  0  0  0
   -1.0870    0.9495    7.0940 H   0  0  0  0  0  0  0  0  0  0  0  0
    3.3967    0.0980    3.4905 H   0  0  0  0  0  0  0  0  0  0  0  0
    1.7422   -0.7742    5.0404 H   0  0  0  0  0  0  0  0  0  0  0  0
    2.6538    0.4935    5.7880 H   0  0  0  0  0  0  0  0  0  0  0  0
    1.3665   -0.2788    2.0991 H   0  0  0  0  0  0  0  0  0  0  0  0
   -0.2519    0.4085    5.2587 H   0  0  0  0  0  0  0  0  0  0  0  0
   -0.4033    1.2364    2.8963 H   0  0  0  0  0  0  0  0  0  0  0  0
    0.6710    2.6708    2.6428 H   0  0  0  0  0  0  0  0  0  0  0  0
  1 13  1  0  0  0  0
  2 14  1  0  0  0  0
  3 15  1  0  0  0  0
  4 11  1  0  0  0  0
  4 16  1  0  0  0  0
  5 12  1  0  0  0  0
  5 17  1  0  0  0  0
  6 12  2  0  0  0  0
  7  1  1  0  0  0  0
  7  8  1  0  0  0  0
  7 18  1  6  0  0  0
  8 19  1  0  0  0  0
  8 20  1  0  0  0  0
  9 11  1  0  0  0  0
  9 21  1  6  0  0  0
  9  7  1  0  0  0  0
  9  2  1  0  0  0  0
 10 12  1  0  0  0  0
 10 22  1  6  0  0  0
 10  8  1  0  0  0  0
 10  3  1  0  0  0  0
 11 23  1  0  0  0  0
 11 24  1  0  0  0  0
M  END
>  <DRUGBANK_ID>
DB03303

>  <SECONDARY_ACCESSION_NUMBERS>
EXPT02959

>  <COMMON_NAME>
3-deoxy-D-arabino-hexonic acid

>  <CAS_NUMBER>
29625-79-4

>  <SYNONYMS>
3-Deoxy-arabino-hexonic acid; D-2-keto-3-deoxygluconate

$$$$
