
 OpenBabel10282417173D

 36 38  0  0  0  0  0  0  0  0999 V2000
    1.3432    0.5679   -0.3504 S   0  0  0  0  0  0  0  0  0  0  0  0
    1.7138   -0.8634    0.5344 N   0  0  0  0  0  0  0  0  0  0  0  0
    0.8815   -1.9753    0.1242 C   0  0  0  0  0  0  0  0  0  0  0  0
   -0.4449   -1.7815   -0.0942 C   0  0  0  0  0  0  0  0  0  0  0  0
    1.4789   -3.3489   -0.0405 C   0  0  0  0  0  0  0  0  0  0  0  0
   -0.3872    0.7182   -0.0627 C   0  0  0  0  0  0  0  0  0  0  0  0
   -1.1199   -0.4668   -0.0004 C   0  0  0  0  0  0  0  0  0  0  0  0
    3.4299   -4.7330    0.0866 C   0  0  0  0  0  0  0  0  0  0  0  0
    2.8209   -3.4953    0.2310 N   0  0  0  0  0  0  0  0  0  0  0  0
    4.3867   -5.1859    0.9054 N   0  0  0  0  0  0  0  0  0  0  0  0
    3.1721   -5.6652   -0.9444 C   0  0  0  0  0  0  0  0  0  0  0  0
    4.6698   -6.4837    0.4740 O   0  0  0  0  0  0  0  0  0  0  0  0
    3.9601   -6.7472   -0.6583 C   0  0  0  0  0  0  0  0  0  0  0  0
    0.7344   -4.2821   -0.3561 O   0  0  0  0  0  0  0  0  0  0  0  0
   -1.3236   -2.8071   -0.4182 O   0  0  0  0  0  0  0  0  0  0  0  0
    1.8135   -0.6334    1.9988 C   0  0  0  0  0  0  0  0  0  0  0  0
   -2.5145   -0.3573    0.1236 C   0  0  0  0  0  0  0  0  0  0  0  0
   -0.9815    1.9749    0.0946 C   0  0  0  0  0  0  0  0  0  0  0  0
    4.1699   -8.0465   -1.3257 C   0  0  0  0  0  0  0  0  0  0  0  0
   -3.1323    0.8932    0.2402 C   0  0  0  0  0  0  0  0  0  0  0  0
   -2.3643    2.0566    0.2477 C   0  0  0  0  0  0  0  0  0  0  0  0
    2.0014    1.6795    0.2971 O   0  0  0  0  0  0  0  0  0  0  0  0
    1.5244    0.2919   -1.7621 O   0  0  0  0  0  0  0  0  0  0  0  0
    3.3465   -2.7716    0.7017 H   0  0  0  0  0  0  0  0  0  0  0  0
    2.5187   -5.5451   -1.7940 H   0  0  0  0  0  0  0  0  0  0  0  0
   -0.8268   -3.6549   -0.4704 H   0  0  0  0  0  0  0  0  0  0  0  0
    2.6315    0.0632    2.2094 H   0  0  0  0  0  0  0  0  0  0  0  0
    0.8827   -0.2357    2.4138 H   0  0  0  0  0  0  0  0  0  0  0  0
    2.0513   -1.5702    2.5112 H   0  0  0  0  0  0  0  0  0  0  0  0
   -3.1410   -1.2484    0.1252 H   0  0  0  0  0  0  0  0  0  0  0  0
   -0.3818    2.8819    0.0831 H   0  0  0  0  0  0  0  0  0  0  0  0
    5.2224   -8.1894   -1.5871 H   0  0  0  0  0  0  0  0  0  0  0  0
    3.8504   -8.8749   -0.6869 H   0  0  0  0  0  0  0  0  0  0  0  0
    3.5882   -8.0989   -2.2539 H   0  0  0  0  0  0  0  0  0  0  0  0
   -4.2154    0.9545    0.3269 H   0  0  0  0  0  0  0  0  0  0  0  0
   -2.8482    3.0249    0.3558 H   0  0  0  0  0  0  0  0  0  0  0  0
  2  1  1  0  0  0  0
  3  2  1  0  0  0  0
  4  3  2  0  0  0  0
  5  3  1  0  0  0  0
  6  1  1  0  0  0  0
  7  4  1  0  0  0  0
  7  6  2  0  0  0  0
  9  5  1  0  0  0  0
  9  8  1  0  0  0  0
  9 24  1  0  0  0  0
 10  8  2  0  0  0  0
 11  8  1  0  0  0  0
 11 25  1  0  0  0  0
 12 10  1  0  0  0  0
 13 11  2  0  0  0  0
 13 12  1  0  0  0  0
 14  5  2  0  0  0  0
 15  4  1  0  0  0  0
 15 26  1  0  0  0  0
 16  2  1  0  0  0  0
 16 27  1  0  0  0  0
 16 28  1  0  0  0  0
 16 29  1  0  0  0  0
 17  7  1  0  0  0  0
 17 30  1  0  0  0  0
 18  6  1  0  0  0  0
 18 31  1  0  0  0  0
 19 13  1  0  0  0  0
 19 32  1  0  0  0  0
 19 33  1  0  0  0  0
 19 34  1  0  0  0  0
 20 17  2  0  0  0  0
 20 35  1  0  0  0  0
 21 18  2  0  0  0  0
 21 20  1  0  0  0  0
 21 36  1  0  0  0  0
 22  1  2  0  0  0  0
 23  1  2  0  0  0  0
M  END
>  <DRUGBANK_ID>
DB08942

>  <COMMON_NAME>
Isoxicam

>  <CAS_NUMBER>
34552-84-6

>  <UNII>
8XU734C4NG

>  <SYNONYMS>
Isoxicam; Isoxicamo; Isoxicamum

$$$$
