5RM
 OpenBabel10282417123D

 38 39  0  0  0  0  0  0  0  0999 V2000
    1.2535    0.0785    0.3459 O   0  0  0  0  0  0  0  0  0  0  0  0
    2.4622    0.0970    0.1080 C   0  0  0  0  0  0  0  0  0  0  0  0
    3.2159   -0.9984   -0.1885 O   0  0  0  0  0  0  0  0  0  0  0  0
    3.2415    1.2105    0.0754 N   0  0  0  0  0  0  0  0  0  0  0  0
    4.3098    0.9526   -0.8241 C   0  0  0  0  0  0  0  0  0  0  0  0
    4.5284   -0.5397   -0.6055 C   0  0  2  0  0  0  0  0  0  0  0  0
    4.8465   -1.2533   -1.9345 C   0  0  0  0  0  0  0  0  0  0  0  0
    5.6119   -0.8823    0.4131 C   0  0  0  0  0  0  0  0  0  0  0  0
    5.8255   -2.2312    0.7082 C   0  0  0  0  0  0  0  0  0  0  0  0
    7.0121   -2.6513    1.2808 C   0  0  0  0  0  0  0  0  0  0  0  0
    8.0348   -1.7499    1.5502 C   0  0  0  0  0  0  0  0  0  0  0  0
    9.2558   -2.2570    1.9359 O   0  0  0  0  0  0  0  0  0  0  0  0
    9.2319   -3.4508    2.7592 C   0  0  0  0  0  0  0  0  0  0  0  0
    7.7806   -0.3645    1.4188 C   0  0  0  0  0  0  0  0  0  0  0  0
    6.5418    0.0524    0.9009 C   0  0  0  0  0  0  0  0  0  0  0  0
    8.5703    0.7008    1.7827 O   0  0  0  0  0  0  0  0  0  0  0  0
    9.7882    0.4442    2.4739 C   0  0  0  0  0  0  0  0  0  0  0  0
    9.5963    0.1880    3.9885 C   0  0  0  0  0  0  0  0  0  0  0  0
    8.7338   -0.9945    4.3421 C   0  0  0  0  0  0  0  0  0  0  0  0
    2.9219    2.1085    0.4095 H   0  0  0  0  0  0  0  0  0  0  0  0
    5.1553    1.6165   -0.6520 H   0  0  0  0  0  0  0  0  0  0  0  0
    3.9430    1.1533   -1.8373 H   0  0  0  0  0  0  0  0  0  0  0  0
    5.4875   -2.1349   -1.8096 H   0  0  0  0  0  0  0  0  0  0  0  0
    3.9333   -1.6153   -2.4186 H   0  0  0  0  0  0  0  0  0  0  0  0
    5.3816   -0.5911   -2.6198 H   0  0  0  0  0  0  0  0  0  0  0  0
    5.1220   -2.9926    0.3820 H   0  0  0  0  0  0  0  0  0  0  0  0
    7.1535   -3.7096    1.4531 H   0  0  0  0  0  0  0  0  0  0  0  0
    8.3145   -3.5437    3.3654 H   0  0  0  0  0  0  0  0  0  0  0  0
    9.4111   -4.3272    2.1475 H   0  0  0  0  0  0  0  0  0  0  0  0
   10.0621   -3.4069    3.4822 H   0  0  0  0  0  0  0  0  0  0  0  0
    6.3524    1.1245    0.8554 H   0  0  0  0  0  0  0  0  0  0  0  0
   10.3840   -0.3005    1.9341 H   0  0  0  0  0  0  0  0  0  0  0  0
   10.3987    1.3540    2.3909 H   0  0  0  0  0  0  0  0  0  0  0  0
   10.5924   -0.0185    4.3974 H   0  0  0  0  0  0  0  0  0  0  0  0
    9.1698    1.0612    4.4772 H   0  0  0  0  0  0  0  0  0  0  0  0
    9.3987   -1.7687    4.0381 H   0  0  0  0  0  0  0  0  0  0  0  0
    8.5507   -1.3046    5.3687 H   0  0  0  0  0  0  0  0  0  0  0  0
    7.7667   -1.0042    3.8377 H   0  0  0  0  0  0  0  0  0  0  0  0
  1  2  2  0  0  0  0
  2  3  1  0  0  0  0
  2  4  1  0  0  0  0
  3  6  1  0  0  0  0
  4  5  1  0  0  0  0
  4 20  1  0  0  0  0
  5  6  1  0  0  0  0
  5 21  1  0  0  0  0
  5 22  1  0  0  0  0
  6  8  1  0  0  0  0
  6  7  1  6  0  0  0
  7 23  1  0  0  0  0
  7 24  1  0  0  0  0
  7 25  1  0  0  0  0
  8  9  2  0  0  0  0
  8 15  1  0  0  0  0
  9 10  1  0  0  0  0
  9 26  1  0  0  0  0
 10 11  2  0  0  0  0
 10 27  1  0  0  0  0
 11 12  1  0  0  0  0
 11 14  1  0  0  0  0
 12 13  1  0  0  0  0
 13 28  1  0  0  0  0
 13 29  1  0  0  0  0
 13 30  1  0  0  0  0
 14 15  2  0  0  0  0
 14 16  1  0  0  0  0
 15 31  1  0  0  0  0
 16 17  1  0  0  0  0
 17 18  1  0  0  0  0
 17 32  1  0  0  0  0
 17 33  1  0  0  0  0
 18 19  1  0  0  0  0
 18 34  1  0  0  0  0
 18 35  1  0  0  0  0
 19 36  1  0  0  0  0
 19 37  1  0  0  0  0
 19 38  1  0  0  0  0
M  END
>  <DRUGBANK_ID>
DB01647

>  <SECONDARY_ACCESSION_NUMBERS>
EXPT00259

>  <COMMON_NAME>
Daxalipram

>  <CAS_NUMBER>
189940-24-7

>  <UNII>
0RB5T277IY

>  <SYNONYMS>
(R)-Mesopram; Daxalipram

$$$$
