AIA
 OpenBabel10282417163D

 41 42  0  0  0  0  0  0  0  0999 V2000
   -5.9519    2.2555   -1.0792 C   0  0  2  0  0  0  0  0  0  0  0  0
   -4.4426    0.5158   -0.9746 C   0  0  1  0  0  0  0  0  0  0  0  0
   -4.0307    2.6757    0.4476 C   0  0  0  0  0  0  0  0  0  0  0  0
   -6.8261    1.0112   -1.0460 C   0  0  0  0  0  0  0  0  0  0  0  0
   -5.6479    2.6128   -2.5250 C   0  0  0  0  0  0  0  0  0  0  0  0
   -5.8380   -0.1300   -0.8658 C   0  0  0  0  0  0  0  0  0  0  0  0
   -3.6966    0.3164   -2.3078 C   0  0  0  0  0  0  0  0  0  0  0  0
   -2.7779    2.2072    1.3024 C   0  0  2  0  0  0  0  0  0  0  0  0
   -4.6746    1.8745   -0.4905 N   0  0  0  0  0  0  0  0  0  0  0  0
   -4.4474    3.8453    0.6518 O   0  0  0  0  0  0  0  0  0  0  0  0
   -5.3871    2.9192   -3.7652 C   0  0  0  0  0  0  0  0  0  0  0  0
   -2.2701    0.0178   -2.0829 N   0  0  0  0  0  0  0  0  0  0  0  0
   -2.4507    0.7267    1.2446 C   0  0  0  0  0  0  0  0  0  0  0  0
   -2.9077    2.5678    2.7367 N   0  0  0  0  0  0  0  0  0  0  0  0
   -3.5695   -0.2298    1.7343 C   0  0  0  0  0  0  0  0  0  0  0  0
   -1.2526    0.2028    2.0237 C   0  0  0  0  0  0  0  0  0  0  0  0
   -2.9096   -1.5701    1.9292 C   0  0  0  0  0  0  0  0  0  0  0  0
   -1.4168   -1.3062    1.8513 C   0  0  0  0  0  0  0  0  0  0  0  0
   -6.4222    3.1102   -0.5834 H   0  0  0  0  0  0  0  0  0  0  0  0
   -3.7675   -0.0148   -0.3739 H   0  0  0  0  0  0  0  0  0  0  0  0
   -1.9230    2.7880    0.9221 H   0  0  0  0  0  0  0  0  0  0  0  0
   -7.5096    1.0577   -0.1875 H   0  0  0  0  0  0  0  0  0  0  0  0
   -7.4338    0.8646   -1.9432 H   0  0  0  0  0  0  0  0  0  0  0  0
   -6.0384   -0.5303    0.1384 H   0  0  0  0  0  0  0  0  0  0  0  0
   -5.9848   -0.9602   -1.5548 H   0  0  0  0  0  0  0  0  0  0  0  0
   -4.1272   -0.5517   -2.8091 H   0  0  0  0  0  0  0  0  0  0  0  0
   -3.7247    1.1815   -2.9560 H   0  0  0  0  0  0  0  0  0  0  0  0
   -5.1738    3.1778   -4.7768 H   0  0  0  0  0  0  0  0  0  0  0  0
   -1.8065   -0.1686   -2.9662 H   0  0  0  0  0  0  0  0  0  0  0  0
   -1.8112    0.8407   -1.6906 H   0  0  0  0  0  0  0  0  0  0  0  0
   -2.1193    0.5729    0.2219 H   0  0  0  0  0  0  0  0  0  0  0  0
   -3.0927    3.5638    2.8373 H   0  0  0  0  0  0  0  0  0  0  0  0
   -3.6990    2.0771    3.1443 H   0  0  0  0  0  0  0  0  0  0  0  0
   -4.1324    0.1716    2.5747 H   0  0  0  0  0  0  0  0  0  0  0  0
   -4.3951   -0.4939    1.0967 H   0  0  0  0  0  0  0  0  0  0  0  0
   -0.3018    0.5559    1.6109 H   0  0  0  0  0  0  0  0  0  0  0  0
   -1.3114    0.4755    3.0787 H   0  0  0  0  0  0  0  0  0  0  0  0
   -3.2472   -1.9810    2.8793 H   0  0  0  0  0  0  0  0  0  0  0  0
   -3.2054   -2.2675    1.1306 H   0  0  0  0  0  0  0  0  0  0  0  0
   -0.8827   -1.8802    2.6056 H   0  0  0  0  0  0  0  0  0  0  0  0
   -1.0489   -1.6091    0.8599 H   0  0  0  0  0  0  0  0  0  0  0  0
  1  4  1  0  0  0  0
  1  5  1  0  0  0  0
  1  9  1  0  0  0  0
  1 19  1  1  0  0  0
  2  6  1  0  0  0  0
  2  9  1  0  0  0  0
  2 20  1  1  0  0  0
  2  7  1  0  0  0  0
  3  9  1  0  0  0  0
  3 10  2  0  0  0  0
  4  6  1  0  0  0  0
  4 22  1  0  0  0  0
  4 23  1  0  0  0  0
  5 11  3  0  0  0  0
  6 24  1  0  0  0  0
  6 25  1  0  0  0  0
  7 12  1  0  0  0  0
  7 26  1  0  0  0  0
  7 27  1  0  0  0  0
  8 14  1  0  0  0  0
  8 21  1  6  0  0  0
  8 13  1  0  0  0  0
  8  3  1  0  0  0  0
 11 28  1  0  0  0  0
 12 29  1  0  0  0  0
 12 30  1  0  0  0  0
 13 15  1  0  0  0  0
 13 16  1  0  0  0  0
 13 31  1  0  0  0  0
 14 32  1  0  0  0  0
 14 33  1  0  0  0  0
 15 17  1  0  0  0  0
 15 34  1  0  0  0  0
 15 35  1  0  0  0  0
 16 18  1  0  0  0  0
 16 36  1  0  0  0  0
 16 37  1  0  0  0  0
 17 18  1  0  0  0  0
 17 38  1  0  0  0  0
 17 39  1  0  0  0  0
 18 40  1  0  0  0  0
 18 41  1  0  0  0  0
M  END
>  <DRUGBANK_ID>
DB07356

>  <COMMON_NAME>
(1S)-2-[(2S,5R)-2-(AMINOMETHYL)-5-ETHYNYLPYRROLIDIN-1-YL]-1-CYCLOPENTYL-2-OXOETHANAMINE

$$$$
