
 OpenBabel10282417153D

 49 52  0  0  0  0  0  0  0  0999 V2000
    2.5962   -0.0296   -0.2684 Cl  0  0  0  0  0  0  0  0  0  0  0  0
   -3.5524   -0.7457    0.4166 S   0  0  0  0  0  0  0  0  0  0  0  0
   -0.0144   -0.0709   -1.7873 S   0  0  0  0  0  0  0  0  0  0  0  0
    2.7485   -6.9036   -2.5251 F   0  0  0  0  0  0  0  0  0  0  0  0
    0.6563   -2.7432   -1.7487 O   0  0  0  0  0  0  0  0  0  0  0  0
   -0.0393   -2.6399    2.8855 O   0  0  0  0  0  0  0  0  0  0  0  0
   -4.1952   -1.5934   -0.6637 O   0  0  0  0  0  0  0  0  0  0  0  0
   -3.7809   -1.2980    1.7577 O   0  0  0  0  0  0  0  0  0  0  0  0
   -5.6383    2.9977   -0.0974 O   0  0  0  0  0  0  0  0  0  0  0  0
    0.1421   -2.6415    0.5670 N   0  0  0  0  0  0  0  0  0  0  0  0
    1.1663   -4.2245    1.9511 N   0  0  0  0  0  0  0  0  0  0  0  0
   -5.0427    0.7254    0.2238 N   0  0  0  0  0  0  0  0  0  0  0  0
   -3.4984    2.4476    0.0356 N   0  0  0  0  0  0  0  0  0  0  0  0
    3.0622   -8.1832    0.0759 N   0  0  0  0  0  0  0  0  0  0  0  0
    1.5360   -4.3526   -0.4139 C   0  0  0  0  0  0  0  0  0  0  0  0
    0.7410   -3.1479   -0.5929 C   0  0  0  0  0  0  0  0  0  0  0  0
    1.6722   -4.8974    0.8541 C   0  0  0  0  0  0  0  0  0  0  0  0
    0.4204   -3.1034    1.8431 C   0  0  0  0  0  0  0  0  0  0  0  0
   -0.9433   -1.6985    0.5382 C   0  0  0  0  0  0  0  0  0  0  0  0
    2.0348   -4.9904   -1.5301 C   0  0  0  0  0  0  0  0  0  0  0  0
    2.2905   -6.1231    1.0213 C   0  0  0  0  0  0  0  0  0  0  0  0
    2.6124   -6.8898   -0.1093 C   0  0  0  0  0  0  0  0  0  0  0  0
    2.4805   -6.2763   -1.3757 C   0  0  0  0  0  0  0  0  0  0  0  0
   -1.3289    0.1871   -0.1727 C   0  0  0  0  0  0  0  0  0  0  0  0
   -0.7876   -0.3961    1.7494 C   0  0  0  0  0  0  0  0  0  0  0  0
   -1.9453   -1.5194   -0.9636 C   0  0  0  0  0  0  0  0  0  0  0  0
   -2.8294    1.2979    0.1832 C   0  0  0  0  0  0  0  0  0  0  0  0
   -4.7882    2.1296    0.0275 C   0  0  0  0  0  0  0  0  0  0  0  0
   -1.7876    1.0475    1.6481 C   0  0  0  0  0  0  0  0  0  0  0  0
   -2.8281    0.1152   -1.3043 C   0  0  0  0  0  0  0  0  0  0  0  0
   -0.8123    1.6089   -0.6990 C   0  0  0  0  0  0  0  0  0  0  0  0
    1.0773    0.6169   -0.5942 C   0  0  0  0  0  0  0  0  0  0  0  0
    0.4883    1.7933   -0.2595 C   0  0  0  0  0  0  0  0  0  0  0  0
    3.3416   -9.0830   -1.0202 C   0  0  0  0  0  0  0  0  0  0  0  0
    1.1874   -4.5947    2.8936 H   0  0  0  0  0  0  0  0  0  0  0  0
   -5.9925    0.3803    0.0718 H   0  0  0  0  0  0  0  0  0  0  0  0
   -3.0921    3.3627    0.1527 H   0  0  0  0  0  0  0  0  0  0  0  0
    3.0794   -8.5705    1.0128 H   0  0  0  0  0  0  0  0  0  0  0  0
    2.0198   -4.5522   -2.5235 H   0  0  0  0  0  0  0  0  0  0  0  0
    2.4799   -6.4766    2.0309 H   0  0  0  0  0  0  0  0  0  0  0  0
    0.3553   -0.1316    1.9381 H   0  0  0  0  0  0  0  0  0  0  0  0
   -1.9919   -2.4106   -1.6010 H   0  0  0  0  0  0  0  0  0  0  0  0
   -1.1804    1.9818    1.9178 H   0  0  0  0  0  0  0  0  0  0  0  0
   -3.4247    0.2653   -2.1975 H   0  0  0  0  0  0  0  0  0  0  0  0
   -1.4464    2.4628   -0.7635 H   0  0  0  0  0  0  0  0  0  0  0  0
    0.7631    2.7337    0.1814 H   0  0  0  0  0  0  0  0  0  0  0  0
    4.3802   -9.4070   -0.9572 H   0  0  0  0  0  0  0  0  0  0  0  0
    2.6682   -9.9418   -0.9961 H   0  0  0  0  0  0  0  0  0  0  0  0
    3.2315   -8.6647   -2.0138 H   0  0  0  0  0  0  0  0  0  0  0  0
  1 32  1  0  0  0  0
  2  7  2  0  0  0  0
  2  8  2  0  0  0  0
  2 12  1  0  0  0  0
  2 24  1  0  0  0  0
  3 24  1  0  0  0  0
  3 32  1  0  0  0  0
  4 23  1  0  0  0  0
  5 16  2  0  0  0  0
  6 18  2  0  0  0  0
  9 28  2  0  0  0  0
 10 16  1  0  0  0  0
 10 18  1  0  0  0  0
 10 19  1  0  0  0  0
 11 17  1  0  0  0  0
 11 18  1  0  0  0  0
 11 35  1  0  0  0  0
 12 28  1  0  0  0  0
 12 36  1  0  0  0  0
 13 27  1  0  0  0  0
 13 28  1  0  0  0  0
 13 37  1  0  0  0  0
 14 22  1  0  0  0  0
 14 34  1  0  0  0  0
 14 38  1  0  0  0  0
 15 16  1  0  0  0  0
 15 17  1  0  0  0  0
 15 20  2  0  0  0  0
 17 21  2  0  0  0  0
 19 25  2  0  0  0  0
 19 26  1  0  0  0  0
 20 23  1  0  0  0  0
 20 39  1  0  0  0  0
 21 22  1  0  0  0  0
 21 40  1  0  0  0  0
 22 23  2  0  0  0  0
 24 31  2  0  0  0  0
 25 29  1  0  0  0  0
 25 41  1  0  0  0  0
 26 30  2  0  0  0  0
 26 42  1  0  0  0  0
 27 29  2  0  0  0  0
 27 30  1  0  0  0  0
 29 43  1  0  0  0  0
 30 44  1  0  0  0  0
 31 33  1  0  0  0  0
 31 45  1  0  0  0  0
 32 33  2  0  0  0  0
 33 46  1  0  0  0  0
 34 47  1  0  0  0  0
 34 48  1  0  0  0  0
 34 49  1  0  0  0  0
M  END
>  <DRUGBANK_ID>
DB06350

>  <COMMON_NAME>
Elinogrel

>  <CAS_NUMBER>
936500-94-6

>  <UNII>
915Y8E749J

>  <SYNONYMS>
Elinogrel

$$$$
