
 OpenBabel10282417123D

 98106  0  0  0  0  0  0  0  0999 V2000
    1.3575   -0.2403    0.0471 C   0  0  0  0  0  0  0  0  0  0  0  0
   -0.5361    1.2630   -0.0195 C   0  0  0  0  0  0  0  0  0  0  0  0
    2.6682    6.3338    4.6881 C   0  0  0  0  0  0  0  0  0  0  0  0
    1.9598    8.2658    3.4186 C   0  0  0  0  0  0  0  0  0  0  0  0
    6.5841    2.5702   -5.4958 C   0  0  0  0  0  0  0  0  0  0  0  0
    4.3104    2.8349   -6.2911 C   0  0  0  0  0  0  0  0  0  0  0  0
    6.7380    9.6405   -2.7962 C   0  0  0  0  0  0  0  0  0  0  0  0
    8.0625    9.0206   -0.8639 C   0  0  0  0  0  0  0  0  0  0  0  0
    0.4895   -1.3371    0.0463 C   0  0  0  0  0  0  0  0  0  0  0  0
   -1.4099    0.1702   -0.0039 C   0  0  0  0  0  0  0  0  0  0  0  0
    2.1575    6.9124    5.8520 C   0  0  0  0  0  0  0  0  0  0  0  0
    1.4725    8.8610    4.5813 C   0  0  0  0  0  0  0  0  0  0  0  0
    7.0247    2.3833   -6.8054 C   0  0  0  0  0  0  0  0  0  0  0  0
    4.7479    2.6388   -7.6024 C   0  0  0  0  0  0  0  0  0  0  0  0
    7.7192   10.5502   -3.1814 C   0  0  0  0  0  0  0  0  0  0  0  0
    9.0356    9.9471   -1.2337 C   0  0  0  0  0  0  0  0  0  0  0  0
    1.1017    3.3004    1.8673 C   0  0  0  0  0  0  0  0  0  0  0  0
    2.5141    1.1606   -2.4769 C   0  0  0  0  0  0  0  0  0  0  0  0
    1.3988    4.4372    2.5171 C   0  0  0  0  0  0  0  0  0  0  0  0
    3.3789    1.5212   -3.4202 C   0  0  0  0  0  0  0  0  0  0  0  0
    4.6054    8.2510    1.8025 C   0  0  0  0  0  0  0  0  0  0  0  0
    6.3002    5.4838   -4.3525 C   0  0  0  0  0  0  0  0  0  0  0  0
    5.3667    8.6038    0.7697 C   0  0  0  0  0  0  0  0  0  0  0  0
    6.6595    6.6226   -3.6449 C   0  0  0  0  0  0  0  0  0  0  0  0
    0.8581    1.0713   -0.0433 C   0  0  0  0  0  0  0  0  0  0  0  0
    2.5393    6.9844    3.4496 C   0  0  0  0  0  0  0  0  0  0  0  0
    5.2324    2.8589   -5.2314 C   0  0  0  0  0  0  0  0  0  0  0  0
    6.9210    8.8308   -1.6607 C   0  0  0  0  0  0  0  0  0  0  0  0
   -0.8898   -1.1262    0.0160 C   0  0  0  0  0  0  0  0  0  0  0  0
    1.5688    8.1732    5.7884 C   0  0  0  0  0  0  0  0  0  0  0  0
    6.1037    2.4326   -7.8449 C   0  0  0  0  0  0  0  0  0  0  0  0
    8.8574   10.6901   -2.3971 C   0  0  0  0  0  0  0  0  0  0  0  0
    1.8712    3.2352    0.6292 C   0  0  0  0  0  0  0  0  0  0  0  0
    2.6223    2.2761   -1.5170 C   0  0  0  0  0  0  0  0  0  0  0  0
    2.4210    5.1711    1.7726 C   0  0  0  0  0  0  0  0  0  0  0  0
    3.9701    2.8038   -3.1103 C   0  0  0  0  0  0  0  0  0  0  0  0
    3.9940    7.0052    1.3078 C   0  0  0  0  0  0  0  0  0  0  0  0
    5.4263    4.7418   -3.5782 C   0  0  0  0  0  0  0  0  0  0  0  0
    5.3015    7.6102   -0.2795 C   0  0  0  0  0  0  0  0  0  0  0  0
    5.9534    6.6439   -2.4555 C   0  0  0  0  0  0  0  0  0  0  0  0
    1.7869    2.2232   -0.2627 C   0  0  0  0  0  0  0  0  0  0  0  0
    2.9779    6.3349    2.1805 C   0  0  0  0  0  0  0  0  0  0  0  0
    4.8488    3.4582   -3.9011 C   0  0  0  0  0  0  0  0  0  0  0  0
    6.0035    7.6597   -1.4333 C   0  0  0  0  0  0  0  0  0  0  0  0
    2.6241    4.3939    0.6498 N   0  0  0  0  0  0  0  0  0  0  0  0
    3.4598    3.2131   -1.8883 N   0  0  0  0  0  0  0  0  0  0  0  0
    4.4106    6.6350    0.1253 N   0  0  0  0  0  0  0  0  0  0  0  0
    5.2005    5.4760   -2.4209 N   0  0  0  0  0  0  0  0  0  0  0  0
   -2.7755   -2.2805    1.2937 O   0  5  0  0  0  0  0  0  0  0  0  0
   -2.7878   -2.3647   -1.1779 O   0  5  0  0  0  0  0  0  0  0  0  0
   -1.1456   -3.6940    0.0952 O   0  5  0  0  0  0  0  0  0  0  0  0
    1.6712   10.1923    7.4892 O   0  5  0  0  0  0  0  0  0  0  0  0
   -0.5808    9.1811    7.1254 O   0  0  0  0  0  0  0  0  0  0  0  0
    1.1783    7.9532    8.4903 O   0  0  0  0  0  0  0  0  0  0  0  0
    5.9080    0.8802  -10.0845 O   0  0  0  0  0  0  0  0  0  0  0  0
    6.3476    3.3932  -10.4337 O   0  0  0  0  0  0  0  0  0  0  0  0
    8.2063    1.8510   -9.5413 O   0  0  0  0  0  0  0  0  0  0  0  0
   10.2011   12.9486   -1.6615 O   0  0  0  0  0  0  0  0  0  0  0  0
   11.4818   11.2313   -3.0915 O   0  0  0  0  0  0  0  0  0  0  0  0
    9.6318   12.6887   -4.1376 O   0  0  0  0  0  0  0  0  0  0  0  0
   -2.0373   -2.5348    0.0613 S   0  0  0  0  0  0  0  0  0  0  0  0
    1.0029    8.9442    7.2399 S   0  0  0  0  0  0  0  0  0  0  0  0
    6.6375    2.1589   -9.4575 S   0  0  0  0  0  0  0  0  0  0  0  0
   10.0368   11.8643   -2.8270 S   0  0  0  0  0  0  0  0  0  0  0  0
    2.4291   -0.4251    0.0723 H   0  0  0  0  0  0  0  0  0  0  0  0
   -0.9566    2.2660   -0.0081 H   0  0  0  0  0  0  0  0  0  0  0  0
    3.1416    5.3545    4.7501 H   0  0  0  0  0  0  0  0  0  0  0  0
    1.9095    8.8257    2.4860 H   0  0  0  0  0  0  0  0  0  0  0  0
    7.3143    2.5879   -4.6885 H   0  0  0  0  0  0  0  0  0  0  0  0
    3.2540    3.0119   -6.1025 H   0  0  0  0  0  0  0  0  0  0  0  0
    5.8625    9.5048   -3.4295 H   0  0  0  0  0  0  0  0  0  0  0  0
    8.2044    8.4334    0.0406 H   0  0  0  0  0  0  0  0  0  0  0  0
    0.8811   -2.3512    0.0582 H   0  0  0  0  0  0  0  0  0  0  0  0
   -2.4875    0.3160   -0.0175 H   0  0  0  0  0  0  0  0  0  0  0  0
    2.2246    6.3744    6.7946 H   0  0  0  0  0  0  0  0  0  0  0  0
    1.0345    9.8539    4.5318 H   0  0  0  0  0  0  0  0  0  0  0  0
    8.0835    2.2421   -7.0070 H   0  0  0  0  0  0  0  0  0  0  0  0
    4.0329    2.6786   -8.4189 H   0  0  0  0  0  0  0  0  0  0  0  0
    7.6009   11.1184   -4.1003 H   0  0  0  0  0  0  0  0  0  0  0  0
    9.9265   10.0632   -0.6243 H   0  0  0  0  0  0  0  0  0  0  0  0
    0.3938    2.5648    2.2113 H   0  0  0  0  0  0  0  0  0  0  0  0
    1.9185    0.2685   -2.4437 H   0  0  0  0  0  0  0  0  0  0  0  0
    0.9467    4.7318    3.4479 H   0  0  0  0  0  0  0  0  0  0  0  0
    3.5904    0.9279   -4.2964 H   0  0  0  0  0  0  0  0  0  0  0  0
    4.4715    8.7770    2.7255 H   0  0  0  0  0  0  0  0  0  0  0  0
    6.6761    5.2179   -5.3296 H   0  0  0  0  0  0  0  0  0  0  0  0
    5.9609    9.5021    0.7554 H   0  0  0  0  0  0  0  0  0  0  0  0
    7.3616    7.3680   -3.9877 H   0  0  0  0  0  0  0  0  0  0  0  0
    3.2664    4.6451   -0.0947 H   0  0  0  0  0  0  0  0  0  0  0  0
    4.5840    5.1960   -1.6654 H   0  0  0  0  0  0  0  0  0  0  0  0
   -0.7967    9.8429    6.4329 H   0  0  0  0  0  0  0  0  0  0  0  0
    0.8692    8.3814    9.3165 H   0  0  0  0  0  0  0  0  0  0  0  0
    6.0728    0.0568   -9.5671 H   0  0  0  0  0  0  0  0  0  0  0  0
    5.3912    3.6092  -10.5203 H   0  0  0  0  0  0  0  0  0  0  0  0
    8.5360    1.8018  -10.4665 H   0  0  0  0  0  0  0  0  0  0  0  0
    9.3655   13.4402   -1.4820 H   0  0  0  0  0  0  0  0  0  0  0  0
   11.8545   10.7607   -2.3115 H   0  0  0  0  0  0  0  0  0  0  0  0
   10.3574   13.2657   -4.4658 H   0  0  0  0  0  0  0  0  0  0  0  0
  1 65  1  0  0  0  0
  2 66  1  0  0  0  0
  3 67  1  0  0  0  0
  4 68  1  0  0  0  0
  5 69  1  0  0  0  0
  6 70  1  0  0  0  0
  7 71  1  0  0  0  0
  8 72  1  0  0  0  0
  9  1  1  0  0  0  0
  9 73  1  0  0  0  0
 10  2  2  0  0  0  0
 10 74  1  0  0  0  0
 11  3  1  0  0  0  0
 11 75  1  0  0  0  0
 12  4  2  0  0  0  0
 12 76  1  0  0  0  0
 13  5  1  0  0  0  0
 13 77  1  0  0  0  0
 14  6  2  0  0  0  0
 14 78  1  0  0  0  0
 15  7  1  0  0  0  0
 15 79  1  0  0  0  0
 16  8  2  0  0  0  0
 16 80  1  0  0  0  0
 17 81  1  0  0  0  0
 18 82  1  0  0  0  0
 19 17  2  0  0  0  0
 19 83  1  0  0  0  0
 20 18  2  0  0  0  0
 20 84  1  0  0  0  0
 21 85  1  0  0  0  0
 22 86  1  0  0  0  0
 23 21  2  0  0  0  0
 23 87  1  0  0  0  0
 24 22  1  0  0  0  0
 24 88  1  0  0  0  0
 25  1  2  0  0  0  0
 25  2  1  0  0  0  0
 26  3  2  0  0  0  0
 26  4  1  0  0  0  0
 27  5  2  0  0  0  0
 27  6  1  0  0  0  0
 28  7  2  0  0  0  0
 28  8  1  0  0  0  0
 29  9  2  0  0  0  0
 29 10  1  0  0  0  0
 30 11  2  0  0  0  0
 30 12  1  0  0  0  0
 31 13  2  0  0  0  0
 31 14  1  0  0  0  0
 32 15  2  0  0  0  0
 32 16  1  0  0  0  0
 33 17  1  0  0  0  0
 34 18  1  0  0  0  0
 35 19  1  0  0  0  0
 36 20  1  0  0  0  0
 37 21  1  0  0  0  0
 38 22  2  0  0  0  0
 39 23  1  0  0  0  0
 40 24  2  0  0  0  0
 41 25  1  0  0  0  0
 41 33  2  0  0  0  0
 41 34  1  0  0  0  0
 42 26  1  0  0  0  0
 42 35  2  0  0  0  0
 42 37  1  0  0  0  0
 43 27  1  0  0  0  0
 43 36  2  0  0  0  0
 43 38  1  0  0  0  0
 44 28  1  0  0  0  0
 44 39  2  0  0  0  0
 44 40  1  0  0  0  0
 45 33  1  0  0  0  0
 45 35  1  0  0  0  0
 45 89  1  0  0  0  0
 46 34  2  0  0  0  0
 46 36  1  0  0  0  0
 47 37  2  0  0  0  0
 47 39  1  0  0  0  0
 48 38  1  0  0  0  0
 48 40  1  0  0  0  0
 48 90  1  0  0  0  0
 53 91  1  0  0  0  0
 54 92  1  0  0  0  0
 55 93  1  0  0  0  0
 56 94  1  0  0  0  0
 57 95  1  0  0  0  0
 58 96  1  0  0  0  0
 59 97  1  0  0  0  0
 60 98  1  0  0  0  0
 61 29  1  0  0  0  0
 61 49  1  0  0  0  0
 61 50  1  0  0  0  0
 61 51  1  0  0  0  0
 62 30  1  0  0  0  0
 62 52  1  0  0  0  0
 62 53  1  0  0  0  0
 62 54  1  0  0  0  0
 63 31  1  0  0  0  0
 63 55  1  0  0  0  0
 63 56  1  0  0  0  0
 63 57  1  0  0  0  0
 64 32  1  0  0  0  0
 64 58  1  0  0  0  0
 64 59  1  0  0  0  0
 64 60  1  0  0  0  0
M  CHG  4  49  -1  50  -1  51  -1  52  -1
M  END
>  <DRUGBANK_ID>
DB01999

>  <SECONDARY_ACCESSION_NUMBERS>
EXPT02891

>  <COMMON_NAME>
5,10,15,20-Tetrakis(4-Sulpfonatophenyl)-21h,23h-Porphine

$$$$
