LZ4
 OpenBabel10282417173D

 27 28  0  0  0  0  0  0  0  0999 V2000
    1.0597   -0.0142   -0.1047 N   0  0  0  0  0  0  0  0  0  0  0  0
    0.4284   -1.3609   -0.9013 S   0  0  0  0  0  0  0  0  0  0  0  0
    1.0745   -2.4895   -0.2804 O   0  0  0  0  0  0  0  0  0  0  0  0
   -1.0106   -1.2097   -0.9289 O   0  0  0  0  0  0  0  0  0  0  0  0
    1.0372   -1.2127   -2.5582 C   0  0  0  0  0  0  0  0  0  0  0  0
    1.2496    0.0309   -3.1586 C   0  0  0  0  0  0  0  0  0  0  0  0
    1.8222    0.1010   -4.4443 C   0  0  0  0  0  0  0  0  0  0  0  0
    2.2110   -1.0640   -5.1221 C   0  0  0  0  0  0  0  0  0  0  0  0
    2.7132   -1.0294   -6.4360 N   0  0  0  0  0  0  0  0  0  0  0  0
    2.9681   -2.1205   -7.2896 C   0  0  0  0  0  0  0  0  0  0  0  0
    2.0023   -3.1275   -7.4542 C   0  0  0  0  0  0  0  0  0  0  0  0
    2.1758   -4.2450   -8.2010 N   0  0  0  0  0  0  0  0  0  0  0  0
    3.3850   -4.3339   -8.7926 C   0  0  0  0  0  0  0  0  0  0  0  0
    4.3487   -3.3474   -8.6462 C   0  0  0  0  0  0  0  0  0  0  0  0
    5.8880   -3.5083   -9.3827 Cl  0  0  0  0  0  0  0  0  0  0  0  0
    4.1585   -2.2138   -7.9223 N   0  0  0  0  0  0  0  0  0  0  0  0
    2.0458   -2.2876   -4.4548 C   0  0  0  0  0  0  0  0  0  0  0  0
    1.4108   -2.3774   -3.2199 C   0  0  0  0  0  0  0  0  0  0  0  0
    0.6534    0.0169    0.8344 H   0  0  0  0  0  0  0  0  0  0  0  0
    2.0777   -0.0644   -0.0490 H   0  0  0  0  0  0  0  0  0  0  0  0
    0.9638    0.9439   -2.6407 H   0  0  0  0  0  0  0  0  0  0  0  0
    1.9740    1.0805   -4.8938 H   0  0  0  0  0  0  0  0  0  0  0  0
    2.9556   -0.1368   -6.8452 H   0  0  0  0  0  0  0  0  0  0  0  0
    1.0336   -3.0456   -6.9702 H   0  0  0  0  0  0  0  0  0  0  0  0
    3.5502   -5.2197   -9.3948 H   0  0  0  0  0  0  0  0  0  0  0  0
    2.4322   -3.2076   -4.8856 H   0  0  0  0  0  0  0  0  0  0  0  0
    1.2289   -3.3600   -2.7907 H   0  0  0  0  0  0  0  0  0  0  0  0
  1  2  1  0  0  0  0
  1 19  1  0  0  0  0
  1 20  1  0  0  0  0
  2  3  2  0  0  0  0
  2  4  2  0  0  0  0
  2  5  1  0  0  0  0
  5  6  1  0  0  0  0
  5 18  2  0  0  0  0
  6  7  2  0  0  0  0
  6 21  1  0  0  0  0
  7  8  1  0  0  0  0
  7 22  1  0  0  0  0
  8  9  1  0  0  0  0
  8 17  2  0  0  0  0
  9 10  1  0  0  0  0
  9 23  1  0  0  0  0
 10 11  1  0  0  0  0
 10 16  2  0  0  0  0
 11 12  2  0  0  0  0
 11 24  1  0  0  0  0
 12 13  1  0  0  0  0
 13 14  2  0  0  0  0
 13 25  1  0  0  0  0
 14 15  1  0  0  0  0
 14 16  1  0  0  0  0
 17 18  1  0  0  0  0
 17 26  1  0  0  0  0
 18 27  1  0  0  0  0
M  END
>  <DRUGBANK_ID>
DB08134

>  <COMMON_NAME>
4-[(6-chloropyrazin-2-yl)amino]benzenesulfonamide

>  <UNII>
RMT3PKK7NW

$$$$
