
 OpenBabel10282417203D

 47 51  0  0  0  0  0  0  0  0999 V2000
    3.6319    0.1432    0.9754 C   0  0  0  0  0  0  0  0  0  0  0  0
   -3.6109   -0.0428    0.8456 C   0  0  0  0  0  0  0  0  0  0  0  0
    3.2937   -1.1722    0.6998 C   0  0  0  0  0  0  0  0  0  0  0  0
   -3.1780   -1.3589    0.6911 C   0  0  0  0  0  0  0  0  0  0  0  0
    2.6691    1.1269    0.7867 C   0  0  0  0  0  0  0  0  0  0  0  0
   -2.8649    1.0093    0.3125 C   0  0  0  0  0  0  0  0  0  0  0  0
    2.0044   -1.4564    0.2627 C   0  0  0  0  0  0  0  0  0  0  0  0
   -1.9995   -1.6255   -0.0042 C   0  0  0  0  0  0  0  0  0  0  0  0
    0.4767    2.0165    0.0031 C   0  0  0  0  0  0  0  0  0  0  0  0
   -0.7810    1.8625   -0.8585 C   0  0  0  0  0  0  0  0  0  0  0  0
    0.7570   -3.2437   -3.9980 C   0  0  0  0  0  0  0  0  0  0  0  0
    2.4437   -2.5204   -2.4527 C   0  0  0  0  0  0  0  0  0  0  0  0
    1.4036   -2.2447   -4.9791 C   0  0  0  0  0  0  0  0  0  0  0  0
    2.9393   -1.4131   -3.3733 C   0  0  0  0  0  0  0  0  0  0  0  0
    0.7674   -0.4038   -3.4920 C   0  0  0  0  0  0  0  0  0  0  0  0
    1.4431    0.8581    0.1388 C   0  0  0  0  0  0  0  0  0  0  0  0
   -1.6693    0.7481   -0.3684 C   0  0  0  0  0  0  0  0  0  0  0  0
    0.9176   -2.7141   -2.5559 C   0  0  3  0  0  0  0  0  0  0  0  0
    1.1642   -0.4651   -0.2527 C   0  0  0  0  0  0  0  0  0  0  0  0
   -1.2352   -0.5779   -0.5303 C   0  0  0  0  0  0  0  0  0  0  0  0
    0.1512   -1.3729   -2.4318 C   0  0  3  0  0  0  0  0  0  0  0  0
    1.8728   -1.0155   -4.3030 N   0  0  3  0  0  0  0  0  0  0  0  0
    0.0579   -0.8385   -1.0207 N   0  0  0  0  0  0  0  0  0  0  0  0
    4.6139    0.3778    1.3651 H   0  0  0  0  0  0  0  0  0  0  0  0
   -4.5187    0.1653    1.4059 H   0  0  0  0  0  0  0  0  0  0  0  0
    4.0333   -1.9631    0.7660 H   0  0  0  0  0  0  0  0  0  0  0  0
   -3.7352   -2.1746    1.1427 H   0  0  0  0  0  0  0  0  0  0  0  0
    2.8866    2.1361    1.1386 H   0  0  0  0  0  0  0  0  0  0  0  0
   -3.1990    2.0322    0.4662 H   0  0  0  0  0  0  0  0  0  0  0  0
    1.7165   -2.5045    0.1425 H   0  0  0  0  0  0  0  0  0  0  0  0
   -1.6285   -2.6451   -0.0655 H   0  0  0  0  0  0  0  0  0  0  0  0
    0.1587    2.2720    1.0237 H   0  0  0  0  0  0  0  0  0  0  0  0
    1.0379    2.8767   -0.3844 H   0  0  0  0  0  0  0  0  0  0  0  0
   -0.5197    1.6883   -1.9083 H   0  0  0  0  0  0  0  0  0  0  0  0
   -1.3348    2.8093   -0.8499 H   0  0  0  0  0  0  0  0  0  0  0  0
   -0.2916   -3.4177   -4.2588 H   0  0  0  0  0  0  0  0  0  0  0  0
    1.2716   -4.2119   -4.0743 H   0  0  0  0  0  0  0  0  0  0  0  0
    2.9613   -3.4755   -2.5773 H   0  0  0  0  0  0  0  0  0  0  0  0
    2.7950   -2.2060   -1.5038 H   0  0  0  0  0  0  0  0  0  0  0  0
    2.2616   -2.7264   -5.4713 H   0  0  0  0  0  0  0  0  0  0  0  0
    0.7078   -1.9876   -5.7826 H   0  0  0  0  0  0  0  0  0  0  0  0
    3.8382   -1.7594   -3.8950 H   0  0  0  0  0  0  0  0  0  0  0  0
    3.2581   -0.5401   -2.7865 H   0  0  0  0  0  0  0  0  0  0  0  0
    1.1229    0.5261   -3.0362 H   0  0  0  0  0  0  0  0  0  0  0  0
   -0.0150   -0.0968   -4.2008 H   0  0  0  0  0  0  0  0  0  0  0  0
    0.5287   -3.4417   -1.8357 H   0  0  0  0  0  0  0  0  0  0  0  0
   -0.8806   -1.5618   -2.7747 H   0  0  0  0  0  0  0  0  0  0  0  0
  1 24  1  0  0  0  0
  2 25  1  0  0  0  0
  3  1  2  0  0  0  0
  3 26  1  0  0  0  0
  4  2  2  0  0  0  0
  4 27  1  0  0  0  0
  5  1  1  0  0  0  0
  5 28  1  0  0  0  0
  6  2  1  0  0  0  0
  6 29  1  0  0  0  0
  7  3  1  0  0  0  0
  7 30  1  0  0  0  0
  8  4  1  0  0  0  0
  8 31  1  0  0  0  0
  9 32  1  0  0  0  0
  9 33  1  0  0  0  0
 10  9  1  0  0  0  0
 10 34  1  0  0  0  0
 10 35  1  0  0  0  0
 11 36  1  0  0  0  0
 11 37  1  0  0  0  0
 12 38  1  0  0  0  0
 12 39  1  0  0  0  0
 13 11  1  0  0  0  0
 13 40  1  0  0  0  0
 13 41  1  0  0  0  0
 14 12  1  0  0  0  0
 14 42  1  0  0  0  0
 14 43  1  0  0  0  0
 15 44  1  0  0  0  0
 15 45  1  0  0  0  0
 16  5  2  0  0  0  0
 16  9  1  0  0  0  0
 17  6  2  0  0  0  0
 17 10  1  0  0  0  0
 18 11  1  0  0  0  0
 18 12  1  0  0  0  0
 18 46  1  0  0  0  0
 19  7  2  0  0  0  0
 19 16  1  0  0  0  0
 20  8  2  0  0  0  0
 20 17  1  0  0  0  0
 21 15  1  0  0  0  0
 21 18  1  0  0  0  0
 21 47  1  0  0  0  0
 22 13  1  0  0  0  0
 22 14  1  0  0  0  0
 22 15  1  0  0  0  0
 23 19  1  0  0  0  0
 23 20  1  0  0  0  0
 23 21  1  0  0  0  0
M  END
>  <DRUGBANK_ID>
DB13246

>  <COMMON_NAME>
Quinupramine

>  <CAS_NUMBER>
31721-17-2

>  <UNII>
29O61HFF4L

>  <SYNONYMS>
Quinupramine

$$$$
