
 OpenBabel10282417153D

 47 49  0  0  1  0  0  0  0  0999 V2000
    1.5411   -0.0055    0.0130 C   0  0  0  0  0  0  0  0  0  0  0  0
    0.6646   -1.0378    0.1086 C   0  0  0  0  0  0  0  0  0  0  0  0
   -0.6782   -0.6775    0.1580 C   0  0  0  0  0  0  0  0  0  0  0  0
   -1.2914    0.5300   -0.0496 C   0  0  0  0  0  0  0  0  0  0  0  0
   -0.3896    1.5606    0.0000 C   0  0  0  0  0  0  0  0  0  0  0  0
    1.0089    1.2930   -0.0095 C   0  0  0  0  0  0  0  0  0  0  0  0
   -3.0519    0.7511   -0.4011 S   0  0  0  0  0  0  0  0  0  0  0  0
   -3.9357   -0.8544   -0.9873 C   0  0  0  0  0  0  0  0  0  0  0  0
   -3.5188   -1.9444   -1.9548 C   0  0  1  0  0  0  0  0  0  0  0  0
   -2.1393   -2.4523   -1.5707 C   0  0  0  0  0  0  0  0  0  0  0  0
   -1.9650   -3.2838   -0.1288 C   0  0  0  0  0  0  0  0  0  0  0  0
   -1.1831   -4.2428   -0.1377 O   0  0  0  0  0  0  0  0  0  0  0  0
   -2.4887   -2.8005    1.3563 C   0  0  0  0  0  0  0  0  0  0  0  0
   -3.7011   -2.1400    1.6925 C   0  0  0  0  0  0  0  0  0  0  0  0
   -3.9837   -1.5501    2.8991 C   0  0  0  0  0  0  0  0  0  0  0  0
   -3.1410   -1.7898    3.9413 C   0  0  0  0  0  0  0  0  0  0  0  0
   -1.9241   -2.4475    3.7079 C   0  0  0  0  0  0  0  0  0  0  0  0
   -1.5603   -2.8656    2.4134 C   0  0  0  0  0  0  0  0  0  0  0  0
   -3.6192   -1.4104    5.2414 C   0  0  0  0  0  0  0  0  0  0  0  0
   -4.8715   -1.8828    5.6807 C   0  0  0  0  0  0  0  0  0  0  0  0
   -5.2817   -1.6317    6.9752 C   0  0  0  0  0  0  0  0  0  0  0  0
   -4.4387   -0.9050    7.8124 C   0  0  0  0  0  0  0  0  0  0  0  0
   -3.2183   -0.3969    7.3583 C   0  0  0  0  0  0  0  0  0  0  0  0
   -2.8409   -0.5893    6.0440 C   0  0  0  0  0  0  0  0  0  0  0  0
   -4.9237   -0.5939    9.4278 Cl  0  0  0  0  0  0  0  0  0  0  0  0
   -4.4106   -3.2003   -1.9299 C   0  0  0  0  0  0  0  0  0  0  0  0
   -5.0659   -3.6157   -2.8352 O   0  0  0  0  0  0  0  0  0  0  0  0
   -4.3214   -3.8980   -0.7663 O   0  0  0  0  0  0  0  0  0  0  0  0
    2.6050   -0.2152   -0.0083 H   0  0  0  0  0  0  0  0  0  0  0  0
    0.9587   -2.0895    0.1203 H   0  0  0  0  0  0  0  0  0  0  0  0
   -1.3537   -1.4324    0.3332 H   0  0  0  0  0  0  0  0  0  0  0  0
   -0.7586    2.5769    0.0409 H   0  0  0  0  0  0  0  0  0  0  0  0
    1.6971    2.1243   -0.0723 H   0  0  0  0  0  0  0  0  0  0  0  0
   -3.6820   -1.4445   -0.1811 H   0  0  0  0  0  0  0  0  0  0  0  0
   -5.0263   -0.7366   -0.8889 H   0  0  0  0  0  0  0  0  0  0  0  0
   -3.5663   -1.5046   -2.9544 H   0  0  0  0  0  0  0  0  0  0  0  0
   -1.7362   -3.0918   -2.3665 H   0  0  0  0  0  0  0  0  0  0  0  0
   -1.4839   -1.5870   -1.6864 H   0  0  0  0  0  0  0  0  0  0  0  0
   -4.5662   -1.9344    1.0810 H   0  0  0  0  0  0  0  0  0  0  0  0
   -4.9161   -0.9955    3.0172 H   0  0  0  0  0  0  0  0  0  0  0  0
   -1.2660   -2.6587    4.5482 H   0  0  0  0  0  0  0  0  0  0  0  0
   -0.5308   -3.1844    2.2488 H   0  0  0  0  0  0  0  0  0  0  0  0
   -5.5147   -2.4574    5.0115 H   0  0  0  0  0  0  0  0  0  0  0  0
   -6.2302   -2.0303    7.3202 H   0  0  0  0  0  0  0  0  0  0  0  0
   -2.5428    0.1319    8.0196 H   0  0  0  0  0  0  0  0  0  0  0  0
   -1.9441   -0.1273    5.6361 H   0  0  0  0  0  0  0  0  0  0  0  0
   -4.6937   -4.7955   -0.9070 H   0  0  0  0  0  0  0  0  0  0  0  0
  1  2  2  0  0  0  0
  1  6  1  0  0  0  0
  1 29  1  0  0  0  0
  2  3  1  0  0  0  0
  2 30  1  0  0  0  0
  3  4  2  0  0  0  0
  3 31  1  0  0  0  0
  4  5  1  0  0  0  0
  4  7  1  0  0  0  0
  5  6  2  0  0  0  0
  5 32  1  0  0  0  0
  6 33  1  0  0  0  0
  7  8  1  0  0  0  0
  8 34  1  0  0  0  0
  8 35  1  0  0  0  0
  9  8  1  0  0  0  0
  9 10  1  0  0  0  0
  9 26  1  0  0  0  0
  9 36  1  6  0  0  0
 10 11  1  0  0  0  0
 10 37  1  0  0  0  0
 10 38  1  0  0  0  0
 11 12  2  0  0  0  0
 11 13  1  0  0  0  0
 13 14  2  0  0  0  0
 13 18  1  0  0  0  0
 14 15  1  0  0  0  0
 14 39  1  0  0  0  0
 15 16  2  0  0  0  0
 15 40  1  0  0  0  0
 16 17  1  0  0  0  0
 16 19  1  0  0  0  0
 17 18  2  0  0  0  0
 17 41  1  0  0  0  0
 18 42  1  0  0  0  0
 19 20  2  0  0  0  0
 19 24  1  0  0  0  0
 20 21  1  0  0  0  0
 20 43  1  0  0  0  0
 21 22  2  0  0  0  0
 21 44  1  0  0  0  0
 22 23  1  0  0  0  0
 22 25  1  0  0  0  0
 23 24  2  0  0  0  0
 23 45  1  0  0  0  0
 24 46  1  0  0  0  0
 26 27  2  0  0  0  0
 26 28  1  0  0  0  0
 28 47  1  0  0  0  0
M  END
>  <DRUGBANK_ID>
DB06276

>  <COMMON_NAME>
Tanomastat

>  <CAS_NUMBER>
179545-77-8

>  <UNII>
AM1ZX94EXH

>  <SYNONYMS>
Tanomastat

$$$$
