
 OpenBabel10282417233D

 46 48  0  0  0  0  0  0  0  0999 V2000
    1.0882    0.1811    0.0157 C   0  0  0  0  0  0  0  0  0  0  0  0
    0.6875   -1.2346   -0.2790 C   0  0  0  0  0  0  0  0  0  0  0  0
    1.1601   -2.1224    0.7472 O   0  0  0  0  0  0  0  0  0  0  0  0
    2.4882   -2.4285    0.7560 C   0  0  0  0  0  0  0  0  0  0  0  0
    3.3361   -1.8848    0.0787 O   0  0  0  0  0  0  0  0  0  0  0  0
    2.7966   -3.4140    1.6616 N   0  0  0  0  0  0  0  0  0  0  0  0
    1.8843   -4.1011    2.4436 C   0  0  0  0  0  0  0  0  0  0  0  0
    0.8147   -4.7575    1.9577 C   0  0  0  0  0  0  0  0  0  0  0  0
    0.4486   -5.1599    0.6565 N   0  0  0  0  0  0  0  0  0  0  0  0
   -0.1539   -4.4305   -0.4345 C   0  0  0  0  0  0  0  0  0  0  0  0
    1.1527   -5.1805   -0.6107 C   0  0  0  0  0  0  0  0  0  0  0  0
   -0.0700   -5.3900    3.0592 C   0  0  0  0  0  0  0  0  0  0  0  0
   -1.1024   -5.9861    2.7254 O   0  0  0  0  0  0  0  0  0  0  0  0
    0.2910   -5.3654    4.5915 C   0  0  0  0  0  0  0  0  0  0  0  0
   -0.6663   -6.0551    5.3872 N   0  0  0  0  0  0  0  0  0  0  0  0
   -0.8521   -6.2785    6.7542 C   0  0  0  0  0  0  0  0  0  0  0  0
   -1.6147   -7.1101    7.1940 O   0  0  0  0  0  0  0  0  0  0  0  0
   -0.1209   -5.4719    7.5449 O   0  0  0  0  0  0  0  0  0  0  0  0
    0.2160   -5.6943    8.9572 C   0  0  0  0  0  0  0  0  0  0  0  0
   -0.7419   -4.8612    9.7240 C   0  0  0  0  0  0  0  0  0  0  0  0
    1.4769   -4.8198    4.9687 C   0  0  0  0  0  0  0  0  0  0  0  0
    2.2995   -4.7718    6.0969 N   0  0  0  0  0  0  0  0  0  0  0  0
    1.9794   -4.1169    7.3276 C   0  0  0  0  0  0  0  0  0  0  0  0
    2.3416   -5.6664    7.1985 C   0  0  0  0  0  0  0  0  0  0  0  0
    2.2738   -4.1180    3.8881 C   0  0  0  0  0  0  0  0  0  0  0  0
    3.3296   -3.5411    4.1889 O   0  0  0  0  0  0  0  0  0  0  0  0
    0.7270    0.4632    1.0078 H   0  0  0  0  0  0  0  0  0  0  0  0
    0.6783    0.8565   -0.7371 H   0  0  0  0  0  0  0  0  0  0  0  0
    2.1752    0.2748    0.0205 H   0  0  0  0  0  0  0  0  0  0  0  0
   -0.4096   -1.3035   -0.2787 H   0  0  0  0  0  0  0  0  0  0  0  0
    1.0303   -1.5688   -1.2664 H   0  0  0  0  0  0  0  0  0  0  0  0
    3.7415   -3.3200    2.0356 H   0  0  0  0  0  0  0  0  0  0  0  0
   -1.0797   -4.8586   -0.7946 H   0  0  0  0  0  0  0  0  0  0  0  0
   -0.0611   -3.3981   -0.7140 H   0  0  0  0  0  0  0  0  0  0  0  0
    1.9898   -4.5564   -0.9120 H   0  0  0  0  0  0  0  0  0  0  0  0
    1.1058   -6.1409   -1.1118 H   0  0  0  0  0  0  0  0  0  0  0  0
   -1.3915   -6.5289    4.8406 H   0  0  0  0  0  0  0  0  0  0  0  0
    0.3179   -6.7511    9.2151 H   0  0  0  0  0  0  0  0  0  0  0  0
    1.2058   -5.2617    9.1961 H   0  0  0  0  0  0  0  0  0  0  0  0
   -1.7283   -5.2731    9.5367 H   0  0  0  0  0  0  0  0  0  0  0  0
   -0.4842   -4.8487   10.7824 H   0  0  0  0  0  0  0  0  0  0  0  0
   -0.7122   -3.8353    9.3334 H   0  0  0  0  0  0  0  0  0  0  0  0
    2.7318   -3.5036    7.8152 H   0  0  0  0  0  0  0  0  0  0  0  0
    0.9899   -3.6990    7.5023 H   0  0  0  0  0  0  0  0  0  0  0  0
    1.6835   -6.5268    7.1558 H   0  0  0  0  0  0  0  0  0  0  0  0
    3.2717   -5.9385    7.6838 H   0  0  0  0  0  0  0  0  0  0  0  0
  1  2  1  0  0  0  0
  1 27  1  0  0  0  0
  1 28  1  0  0  0  0
  1 29  1  0  0  0  0
  2  3  1  0  0  0  0
  2 30  1  0  0  0  0
  2 31  1  0  0  0  0
  3  4  1  0  0  0  0
  4  5  2  0  0  0  0
  4  6  1  0  0  0  0
  6  7  1  0  0  0  0
  6 32  1  0  0  0  0
  7  8  2  0  0  0  0
  7 25  1  0  0  0  0
  8  9  1  0  0  0  0
  8 12  1  0  0  0  0
  9 10  1  0  0  0  0
  9 11  1  0  0  0  0
 10 11  1  0  0  0  0
 10 33  1  0  0  0  0
 10 34  1  0  0  0  0
 11 35  1  0  0  0  0
 11 36  1  0  0  0  0
 12 13  2  0  0  0  0
 12 14  1  0  0  0  0
 14 15  1  0  0  0  0
 14 21  2  0  0  0  0
 15 16  1  0  0  0  0
 15 37  1  0  0  0  0
 16 17  2  0  0  0  0
 16 18  1  0  0  0  0
 18 19  1  0  0  0  0
 19 20  1  0  0  0  0
 19 38  1  0  0  0  0
 19 39  1  0  0  0  0
 20 40  1  0  0  0  0
 20 41  1  0  0  0  0
 20 42  1  0  0  0  0
 21 22  1  0  0  0  0
 21 25  1  0  0  0  0
 22 23  1  0  0  0  0
 22 24  1  0  0  0  0
 23 24  1  0  0  0  0
 23 43  1  0  0  0  0
 23 44  1  0  0  0  0
 24 45  1  0  0  0  0
 24 46  1  0  0  0  0
 25 26  2  0  0  0  0
M  END
>  <DRUGBANK_ID>
DB17174

>  <COMMON_NAME>
Diaziquone

>  <CAS_NUMBER>
57998-68-2

>  <UNII>
FQL5EUP13W

>  <SYNONYMS>
Aziridinyl benzoquinone; AZQ; Carbamic acid, (2,5-bis(1-aziridinyl)-3,6-dioxo-1,4-cyclohexadiene-1,4-diyl)bis-, diethyl ester; Diaziquone; Diethyl 2,5-bis-(1-aziridinyl)-3,6-dioxo-1,4-cyclohexadiene-1,4-dicarbamate; NSC-182986

$$$$
