
 OpenBabel10282417173D

237247  0  0  0  0  0  0  0  0999 V2000
   -4.0814   -2.1510  -16.7154 C   0  0  0  0  0  0  0  0  0  0  0  0
    2.4369    4.3523   -8.9136 C   0  0  0  0  0  0  0  0  0  0  0  0
   -1.5412    1.4898  -11.6468 C   0  0  0  0  0  0  0  0  0  0  0  0
   -0.0514   -4.3242  -15.2971 C   0  0  0  0  0  0  0  0  0  0  0  0
    4.6586   -1.9922   -2.9893 C   0  0  0  0  0  0  0  0  0  0  0  0
   -2.8952   -5.4638  -14.6326 C   0  0  0  0  0  0  0  0  0  0  0  0
   -4.6694   -3.9090  -14.3453 C   0  0  0  0  0  0  0  0  0  0  0  0
    3.7382   -4.3413   -5.5321 C   0  0  0  0  0  0  0  0  0  0  0  0
    0.5005   -3.9618   -5.6017 C   0  0  0  0  0  0  0  0  0  0  0  0
   -0.4972   -0.2850   -5.4659 C   0  0  0  0  0  0  0  0  0  0  0  0
   -4.8628   -1.2304  -15.6058 C   0  0  0  0  0  0  0  0  0  0  0  0
   -2.1846    1.6852  -15.1241 C   0  0  0  0  0  0  0  0  0  0  0  0
   -3.6363    1.0555  -14.4202 C   0  0  0  0  0  0  0  0  0  0  0  0
   -1.2354    2.3149  -14.1095 C   0  0  0  0  0  0  0  0  0  0  0  0
   -2.1173   -1.9458  -13.9196 C   0  0  0  0  0  0  0  0  0  0  0  0
   -1.4380   -0.7220  -14.3179 C   0  0  0  0  0  0  0  0  0  0  0  0
    0.5298    2.6442   -9.6166 C   0  0  0  0  0  0  0  0  0  0  0  0
    3.7643    1.7354   -7.9983 C   0  0  0  0  0  0  0  0  0  0  0  0
    2.7497   -0.4813   -8.4838 C   0  0  0  0  0  0  0  0  0  0  0  0
    0.2292   -0.9925   -9.0882 C   0  0  0  0  0  0  0  0  0  0  0  0
   -2.2359   -1.5689  -10.6178 C   0  0  0  0  0  0  0  0  0  0  0  0
    1.6853    3.0105   -8.9648 C   0  0  0  0  0  0  0  0  0  0  0  0
    0.1779    1.1823  -12.2826 C   0  0  2  0  0  0  0  0  0  0  0  0
   -0.5174   -3.2494  -14.4173 C   0  0  2  0  0  0  0  0  0  0  0  0
    3.9871   -1.6604   -4.2972 C   0  0  1  0  0  0  0  0  0  0  0  0
   -4.1307   -0.4752  -14.3665 C   0  0  1  0  0  0  0  0  0  0  0  0
    3.9449    0.2046   -7.9150 C   0  0  2  0  0  0  0  0  0  0  0  0
    2.2754    1.9297   -8.1327 C   0  0  1  0  0  0  0  0  0  0  0  0
   -0.3018    0.9796   -9.7304 C   0  0  2  0  0  0  0  0  0  0  0  0
    1.9213    0.6796   -8.8833 C   0  0  2  0  0  0  0  0  0  0  0  0
    0.4714    0.3887   -8.6870 C   0  0  2  0  0  0  0  0  0  0  0  0
   -0.8654   -0.6081  -10.7994 C   0  0  1  0  0  0  0  0  0  0  0  0
    0.4479   -1.0786  -10.4189 C   0  0  0  0  0  0  0  0  0  0  0  0
   -2.0191   -3.1525  -14.6863 C   0  0  1  0  0  0  0  0  0  0  0  0
    0.1340    1.5238  -13.7608 C   0  0  1  0  0  0  0  0  0  0  0  0
   -3.1962   -2.2791  -11.7835 C   0  0  0  0  0  0  0  0  0  0  0  0
   -0.0119   -0.8704  -14.2120 C   0  0  1  0  0  0  0  0  0  0  0  0
    1.1785   -0.1502  -11.6369 C   0  0  0  0  0  0  0  0  0  0  0  0
    2.6774   -2.4482   -4.4720 C   0  0  1  0  0  0  0  0  0  0  0  0
    1.9802   -2.0215   -5.7624 C   0  0  2  0  0  0  0  0  0  0  0  0
    1.8320   -0.4756   -5.7199 C   0  0  2  0  0  0  0  0  0  0  0  0
    3.2429    0.1532   -5.5588 C   0  0  1  0  0  0  0  0  0  0  0  0
   -3.1837   -4.1117  -14.3186 N   0  0  0  0  0  0  0  0  0  0  0  0
   -2.9597   -3.3706  -11.9741 O   0  0  0  0  0  0  0  0  0  0  0  0
    2.2124   -0.5545  -12.1744 O   0  0  0  0  0  0  0  0  0  0  0  0
    2.9491   -3.8613   -4.4483 O   0  0  0  0  0  0  0  0  0  0  0  0
    0.7329   -2.6528   -6.0905 O   0  0  0  0  0  0  0  0  0  0  0  0
    0.7771   -0.0381   -4.8454 O   0  0  0  0  0  0  0  0  0  0  0  0
    0.2532   -2.0584  -14.9370 O   0  0  0  0  0  0  0  0  0  0  0  0
    3.7995   -0.2501   -4.3194 O   0  0  0  0  0  0  0  0  0  0  0  0
   -3.9802   -1.1254  -12.6664 O   0  0  0  0  0  0  0  0  0  0  0  0
    4.1848   -0.2280   -6.5917 O   0  0  0  0  0  0  0  0  0  0  0  0
    0.5374    0.3963  -14.5808 O   0  0  0  0  0  0  0  0  0  0  0  0
   14.2315    5.3885    4.7390 C   0  0  0  0  0  0  0  0  0  0  0  0
    7.9511    4.3922    3.5117 C   0  0  0  0  0  0  0  0  0  0  0  0
   13.4824    0.6440    5.3331 C   0  0  0  0  0  0  0  0  0  0  0  0
    0.6282   -4.0719    2.9475 C   0  0  0  0  0  0  0  0  0  0  0  0
   13.6546    2.6081    0.8711 C   0  0  0  0  0  0  0  0  0  0  0  0
   13.5941    0.4380    1.8112 C   0  0  0  0  0  0  0  0  0  0  0  0
    4.0666   -4.9856    3.0588 C   0  0  0  0  0  0  0  0  0  0  0  0
    6.0845   -2.7003    1.4860 C   0  0  0  0  0  0  0  0  0  0  0  0
    1.5050    0.5462    1.5656 C   0  0  0  0  0  0  0  0  0  0  0  0
   13.9054    5.3388    3.1615 C   0  0  0  0  0  0  0  0  0  0  0  0
   10.6608    6.2597    5.2240 C   0  0  0  0  0  0  0  0  0  0  0  0
   11.2634    6.0933    3.5567 C   0  0  0  0  0  0  0  0  0  0  0  0
    9.1500    5.9124    5.4107 C   0  0  0  0  0  0  0  0  0  0  0  0
    4.2421    3.2482    4.6659 C   0  0  0  0  0  0  0  0  0  0  0  0
    5.3116    3.6874    3.9281 C   0  0  0  0  0  0  0  0  0  0  0  0
   11.1348    3.1973    3.6289 C   0  0  0  0  0  0  0  0  0  0  0  0
   10.8413    3.7481    4.8719 C   0  0  0  0  0  0  0  0  0  0  0  0
    3.3113    0.9883    5.7211 C   0  0  0  0  0  0  0  0  0  0  0  0
    5.1128   -0.3543    4.6288 C   0  0  0  0  0  0  0  0  0  0  0  0
    6.9462    0.5167    2.8591 C   0  0  0  0  0  0  0  0  0  0  0  0
    9.4221    1.8483    1.6425 C   0  0  0  0  0  0  0  0  0  0  0  0
    7.9497    3.5753    5.1490 C   0  0  2  0  0  0  0  0  0  0  0  0
   12.3331    1.4500    4.8585 C   0  0  2  0  0  0  0  0  0  0  0  0
    1.8021   -3.1585    3.2055 C   0  0  1  0  0  0  0  0  0  0  0  0
    3.8769    1.8094    4.5762 C   0  0  2  0  0  0  0  0  0  0  0  0
   12.4326    4.9224    2.8919 C   0  0  1  0  0  0  0  0  0  0  0  0
    3.9005   -0.4405    5.5037 C   0  0  2  0  0  0  0  0  0  0  0  0
    6.5187    2.6179    3.1091 C   0  0  2  0  0  0  0  0  0  0  0  0
    5.1830    1.1014    4.3850 C   0  0  2  0  0  0  0  0  0  0  0  0
    5.7691    1.3769    3.0162 C   0  0  2  0  0  0  0  0  0  0  0  0
    8.3819    2.0060    3.0082 C   0  0  1  0  0  0  0  0  0  0  0  0
    7.8741    0.8750    3.7785 C   0  0  0  0  0  0  0  0  0  0  0  0
   12.7374    2.3460    3.5904 C   0  0  1  0  0  0  0  0  0  0  0  0
    8.7671    4.4376    6.1379 C   0  0  1  0  0  0  0  0  0  0  0  0
   11.0268    2.0467    1.7511 C   0  0  0  0  0  0  0  0  0  0  0  0
   10.5468    2.7687    5.8375 C   0  0  1  0  0  0  0  0  0  0  0  0
    7.9326    1.7517    5.2853 C   0  0  0  0  0  0  0  0  0  0  0  0
    2.8370   -3.1771    2.0463 C   0  0  1  0  0  0  0  0  0  0  0  0
    3.9080   -2.1143    2.2964 C   0  0  2  0  0  0  0  0  0  0  0  0
    3.1784   -0.7812    2.5334 C   0  0  2  0  0  0  0  0  0  0  0  0
    2.2746   -0.9473    3.7858 C   0  0  1  0  0  0  0  0  0  0  0  0
   13.6920    1.8685    2.2076 N   0  0  0  0  0  0  0  0  0  0  0  0
   11.3659    1.0487    2.4477 O   0  0  0  0  0  0  0  0  0  0  0  0
    8.1111    1.1337    6.3352 O   0  0  0  0  0  0  0  0  0  0  0  0
    3.4169   -4.4841    1.8942 O   0  0  0  0  0  0  0  0  0  0  0  0
    4.8759   -1.9859    1.2387 O   0  0  0  0  0  0  0  0  0  0  0  0
    2.5993   -0.3050    1.3216 O   0  0  0  0  0  0  0  0  0  0  0  0
   11.8446    2.2173    6.0609 O   0  0  0  0  0  0  0  0  0  0  0  0
    1.2507   -1.8792    3.4797 O   0  0  0  0  0  0  0  0  0  0  0  0
   11.7463    3.6339    1.6932 O   0  0  0  0  0  0  0  0  0  0  0  0
    2.9631   -1.3596    4.9740 O   0  0  0  0  0  0  0  0  0  0  0  0
    9.8321    3.6140    6.7555 O   0  0  0  0  0  0  0  0  0  0  0  0
    0.8592    1.9996  -11.9369 H   0  0  0  0  0  0  0  0  0  0  0  0
   -0.3131   -3.3674  -13.3377 H   0  0  0  0  0  0  0  0  0  0  0  0
    4.6874   -1.9289   -5.0967 H   0  0  0  0  0  0  0  0  0  0  0  0
   -3.2988   -0.7465  -14.9582 H   0  0  0  0  0  0  0  0  0  0  0  0
    4.7617   -0.0979   -8.5753 H   0  0  0  0  0  0  0  0  0  0  0  0
    1.7901    2.0342   -7.1553 H   0  0  0  0  0  0  0  0  0  0  0  0
   -0.0682    1.5723  -10.5515 H   0  0  0  0  0  0  0  0  0  0  0  0
    2.2203    0.8533   -9.9226 H   0  0  0  0  0  0  0  0  0  0  0  0
   -0.1021    0.9007   -7.9132 H   0  0  0  0  0  0  0  0  0  0  0  0
   -0.5175   -1.2313  -11.6593 H   0  0  0  0  0  0  0  0  0  0  0  0
   -2.1102   -2.8471  -15.7158 H   0  0  0  0  0  0  0  0  0  0  0  0
    0.9215    2.2791  -13.9285 H   0  0  0  0  0  0  0  0  0  0  0  0
    0.2149   -1.1088  -13.2112 H   0  0  0  0  0  0  0  0  0  0  0  0
    1.9865   -2.2140   -3.6509 H   0  0  0  0  0  0  0  0  0  0  0  0
    2.6423   -2.2994   -6.5831 H   0  0  0  0  0  0  0  0  0  0  0  0
    1.4838   -0.0446   -6.6279 H   0  0  0  0  0  0  0  0  0  0  0  0
    3.1693    1.2406   -5.5106 H   0  0  0  0  0  0  0  0  0  0  0  0
    6.9636    3.7345    5.6261 H   0  0  0  0  0  0  0  0  0  0  0  0
   11.5075    0.7788    4.6143 H   0  0  0  0  0  0  0  0  0  0  0  0
    2.2727   -3.4903    4.1349 H   0  0  0  0  0  0  0  0  0  0  0  0
    3.2100    1.7819    3.7184 H   0  0  0  0  0  0  0  0  0  0  0  0
   12.5922    4.3617    3.7836 H   0  0  0  0  0  0  0  0  0  0  0  0
    4.2804   -0.8216    6.4536 H   0  0  0  0  0  0  0  0  0  0  0  0
    6.6856    2.7354    4.1321 H   0  0  0  0  0  0  0  0  0  0  0  0
    5.7802    1.4355    5.2410 H   0  0  0  0  0  0  0  0  0  0  0  0
    5.1081    1.5973    2.1730 H   0  0  0  0  0  0  0  0  0  0  0  0
    9.1861    1.6797    3.7266 H   0  0  0  0  0  0  0  0  0  0  0  0
   13.5539    2.9242    4.0325 H   0  0  0  0  0  0  0  0  0  0  0  0
    8.1144    4.7143    6.9740 H   0  0  0  0  0  0  0  0  0  0  0  0
    9.9630    2.0307    5.3418 H   0  0  0  0  0  0  0  0  0  0  0  0
    2.3475   -2.9174    1.0984 H   0  0  0  0  0  0  0  0  0  0  0  0
    4.4374   -2.4193    3.2028 H   0  0  0  0  0  0  0  0  0  0  0  0
    3.8526    0.0235    2.7234 H   0  0  0  0  0  0  0  0  0  0  0  0
    1.7351   -0.0299    4.0094 H   0  0  0  0  0  0  0  0  0  0  0  0
   -3.1920   -1.6882  -17.1692 H   0  0  0  0  0  0  0  0  0  0  0  0
   -4.7733   -2.4358  -17.5151 H   0  0  0  0  0  0  0  0  0  0  0  0
   -3.7410   -3.1545  -16.4436 H   0  0  0  0  0  0  0  0  0  0  0  0
    2.5159    4.7181   -7.8781 H   0  0  0  0  0  0  0  0  0  0  0  0
    3.4766    4.2524   -9.2655 H   0  0  0  0  0  0  0  0  0  0  0  0
    1.9947    5.1583   -9.5081 H   0  0  0  0  0  0  0  0  0  0  0  0
   -1.9150    1.3118  -10.6117 H   0  0  0  0  0  0  0  0  0  0  0  0
   -1.7142    2.5685  -11.5934 H   0  0  0  0  0  0  0  0  0  0  0  0
   -2.2558    0.7929  -12.0583 H   0  0  0  0  0  0  0  0  0  0  0  0
    0.9968   -4.4444  -15.0842 H   0  0  0  0  0  0  0  0  0  0  0  0
   -0.5652   -5.2550  -15.1361 H   0  0  0  0  0  0  0  0  0  0  0  0
   -0.2424   -3.9977  -16.3254 H   0  0  0  0  0  0  0  0  0  0  0  0
    4.7926   -3.0688   -2.8679 H   0  0  0  0  0  0  0  0  0  0  0  0
    5.6387   -1.5084   -2.9654 H   0  0  0  0  0  0  0  0  0  0  0  0
    4.0698   -1.5968   -2.1575 H   0  0  0  0  0  0  0  0  0  0  0  0
   -3.6579   -6.1611  -14.2844 H   0  0  0  0  0  0  0  0  0  0  0  0
   -2.7775   -5.5254  -15.7140 H   0  0  0  0  0  0  0  0  0  0  0  0
   -2.0140   -5.7080  -14.0524 H   0  0  0  0  0  0  0  0  0  0  0  0
   -5.2289   -4.7511  -13.9008 H   0  0  0  0  0  0  0  0  0  0  0  0
   -5.0634   -3.0734  -13.7518 H   0  0  0  0  0  0  0  0  0  0  0  0
   -5.1113   -3.8734  -15.3481 H   0  0  0  0  0  0  0  0  0  0  0  0
    3.2953   -4.1203   -6.5068 H   0  0  0  0  0  0  0  0  0  0  0  0
    4.7451   -3.9294   -5.4848 H   0  0  0  0  0  0  0  0  0  0  0  0
    3.7954   -5.4250   -5.4515 H   0  0  0  0  0  0  0  0  0  0  0  0
    1.0770   -4.6836   -6.1830 H   0  0  0  0  0  0  0  0  0  0  0  0
    0.6956   -4.0440   -4.5305 H   0  0  0  0  0  0  0  0  0  0  0  0
   -0.5600   -4.1918   -5.7225 H   0  0  0  0  0  0  0  0  0  0  0  0
   -0.5428    0.1145   -6.4644 H   0  0  0  0  0  0  0  0  0  0  0  0
   -0.7417   -1.3365   -5.5628 H   0  0  0  0  0  0  0  0  0  0  0  0
   -1.2977    0.1868   -4.9120 H   0  0  0  0  0  0  0  0  0  0  0  0
   -5.2026   -0.4136  -16.2427 H   0  0  0  0  0  0  0  0  0  0  0  0
   -5.7119   -1.7833  -15.2285 H   0  0  0  0  0  0  0  0  0  0  0  0
   -1.4919    1.0886  -15.7126 H   0  0  0  0  0  0  0  0  0  0  0  0
   -2.4559    2.4039  -15.8924 H   0  0  0  0  0  0  0  0  0  0  0  0
   -3.6650    1.3357  -13.3669 H   0  0  0  0  0  0  0  0  0  0  0  0
   -4.4172    1.5722  -14.9618 H   0  0  0  0  0  0  0  0  0  0  0  0
   -1.0231    3.3831  -14.2336 H   0  0  0  0  0  0  0  0  0  0  0  0
   -1.9291    2.4450  -13.3033 H   0  0  0  0  0  0  0  0  0  0  0  0
   -3.1559   -2.0542  -13.9735 H   0  0  0  0  0  0  0  0  0  0  0  0
   -1.7803   -1.8650  -12.9205 H   0  0  0  0  0  0  0  0  0  0  0  0
   -1.6380   -0.5385  -15.3564 H   0  0  0  0  0  0  0  0  0  0  0  0
   -1.7572    0.0331  -13.6126 H   0  0  0  0  0  0  0  0  0  0  0  0
    0.1248    3.4490  -10.2486 H   0  0  0  0  0  0  0  0  0  0  0  0
    4.3019    2.1377   -8.8599 H   0  0  0  0  0  0  0  0  0  0  0  0
    4.1196    2.2502   -7.1044 H   0  0  0  0  0  0  0  0  0  0  0  0
    2.9357   -1.1825   -9.3015 H   0  0  0  0  0  0  0  0  0  0  0  0
    2.1642   -1.1285   -7.8606 H   0  0  0  0  0  0  0  0  0  0  0  0
   -0.7307   -1.3564   -8.6813 H   0  0  0  0  0  0  0  0  0  0  0  0
   -2.9774   -1.0059  -10.1097 H   0  0  0  0  0  0  0  0  0  0  0  0
   -1.9020   -2.5179  -10.1110 H   0  0  0  0  0  0  0  0  0  0  0  0
   13.4527    5.9094    5.3130 H   0  0  0  0  0  0  0  0  0  0  0  0
   15.1894    5.8726    4.9412 H   0  0  0  0  0  0  0  0  0  0  0  0
   14.2895    4.3938    5.2143 H   0  0  0  0  0  0  0  0  0  0  0  0
    7.5149    4.0535    2.5521 H   0  0  0  0  0  0  0  0  0  0  0  0
    7.4059    5.3339    3.5359 H   0  0  0  0  0  0  0  0  0  0  0  0
    8.9180    4.3957    3.0327 H   0  0  0  0  0  0  0  0  0  0  0  0
   13.0588   -0.1878    5.8951 H   0  0  0  0  0  0  0  0  0  0  0  0
   14.0569    0.2495    4.5057 H   0  0  0  0  0  0  0  0  0  0  0  0
   14.1292    1.2488    5.9668 H   0  0  0  0  0  0  0  0  0  0  0  0
    0.9508   -5.0939    2.7454 H   0  0  0  0  0  0  0  0  0  0  0  0
   -0.0192   -4.0716    3.8310 H   0  0  0  0  0  0  0  0  0  0  0  0
    0.0306   -3.6969    2.1114 H   0  0  0  0  0  0  0  0  0  0  0  0
   14.3619    2.2670    0.0960 H   0  0  0  0  0  0  0  0  0  0  0  0
   12.7212    2.4269    0.3099 H   0  0  0  0  0  0  0  0  0  0  0  0
   13.8307    3.6876    0.9380 H   0  0  0  0  0  0  0  0  0  0  0  0
   14.3111    0.1727    1.0248 H   0  0  0  0  0  0  0  0  0  0  0  0
   13.7334   -0.2260    2.6532 H   0  0  0  0  0  0  0  0  0  0  0  0
   12.6660    0.1498    1.3034 H   0  0  0  0  0  0  0  0  0  0  0  0
    4.8934   -4.3482    3.3781 H   0  0  0  0  0  0  0  0  0  0  0  0
    3.3728   -5.0980    3.8913 H   0  0  0  0  0  0  0  0  0  0  0  0
    4.4749   -5.9670    2.8269 H   0  0  0  0  0  0  0  0  0  0  0  0
    6.5934   -2.3040    2.3711 H   0  0  0  0  0  0  0  0  0  0  0  0
    5.9072   -3.7680    1.6148 H   0  0  0  0  0  0  0  0  0  0  0  0
    6.7467   -2.5842    0.6255 H   0  0  0  0  0  0  0  0  0  0  0  0
    0.6782   -0.0984    1.8566 H   0  0  0  0  0  0  0  0  0  0  0  0
    1.7098    1.2840    2.3487 H   0  0  0  0  0  0  0  0  0  0  0  0
    1.2647    1.0738    0.6493 H   0  0  0  0  0  0  0  0  0  0  0  0
   13.9571    6.3566    2.7893 H   0  0  0  0  0  0  0  0  0  0  0  0
   14.6303    4.6763    2.6933 H   0  0  0  0  0  0  0  0  0  0  0  0
   11.1044    5.6800    6.0384 H   0  0  0  0  0  0  0  0  0  0  0  0
   10.9003    7.2530    5.5912 H   0  0  0  0  0  0  0  0  0  0  0  0
   10.3864    6.0010    2.9115 H   0  0  0  0  0  0  0  0  0  0  0  0
   11.7061    7.0621    3.3349 H   0  0  0  0  0  0  0  0  0  0  0  0
    8.4985    6.6911    5.8153 H   0  0  0  0  0  0  0  0  0  0  0  0
    8.8165    5.9896    4.3852 H   0  0  0  0  0  0  0  0  0  0  0  0
    3.6260    3.8870    5.3140 H   0  0  0  0  0  0  0  0  0  0  0  0
    5.5465    4.7294    4.1612 H   0  0  0  0  0  0  0  0  0  0  0  0
   10.7910    4.0710    3.0141 H   0  0  0  0  0  0  0  0  0  0  0  0
   10.2327    2.8258    3.2587 H   0  0  0  0  0  0  0  0  0  0  0  0
   11.6553    4.3242    5.2324 H   0  0  0  0  0  0  0  0  0  0  0  0
    9.9984    4.2967    4.5325 H   0  0  0  0  0  0  0  0  0  0  0  0
    3.6090    1.3796    6.6971 H   0  0  0  0  0  0  0  0  0  0  0  0
    2.2197    1.0027    5.6840 H   0  0  0  0  0  0  0  0  0  0  0  0
    6.0279   -0.7631    5.0662 H   0  0  0  0  0  0  0  0  0  0  0  0
    5.1585   -0.8385    3.6717 H   0  0  0  0  0  0  0  0  0  0  0  0
    7.2531    0.5378    1.7959 H   0  0  0  0  0  0  0  0  0  0  0  0
    9.1594    2.5098    0.8652 H   0  0  0  0  0  0  0  0  0  0  0  0
    9.4398    0.7457    1.4230 H   0  0  0  0  0  0  0  0  0  0  0  0
  1140  1  0  0  0  0
  1141  1  0  0  0  0
  1142  1  0  0  0  0
  2143  1  0  0  0  0
  2144  1  0  0  0  0
  2145  1  0  0  0  0
  3146  1  0  0  0  0
  3147  1  0  0  0  0
  3148  1  0  0  0  0
  4149  1  0  0  0  0
  4150  1  0  0  0  0
  4151  1  0  0  0  0
  5152  1  0  0  0  0
  5153  1  0  0  0  0
  5154  1  0  0  0  0
  6155  1  0  0  0  0
  6156  1  0  0  0  0
  6157  1  0  0  0  0
  7158  1  0  0  0  0
  7159  1  0  0  0  0
  7160  1  0  0  0  0
  8161  1  0  0  0  0
  8162  1  0  0  0  0
  8163  1  0  0  0  0
  9164  1  0  0  0  0
  9165  1  0  0  0  0
  9166  1  0  0  0  0
 10167  1  0  0  0  0
 10168  1  0  0  0  0
 10169  1  0  0  0  0
 11  1  1  0  0  0  0
 11170  1  0  0  0  0
 11171  1  0  0  0  0
 12172  1  0  0  0  0
 12173  1  0  0  0  0
 13 12  1  0  0  0  0
 13174  1  0  0  0  0
 13175  1  0  0  0  0
 14 12  1  0  0  0  0
 14176  1  0  0  0  0
 14177  1  0  0  0  0
 15178  1  0  0  0  0
 15179  1  0  0  0  0
 16 15  1  0  0  0  0
 16180  1  0  0  0  0
 16181  1  0  0  0  0
 17182  1  0  0  0  0
 18183  1  0  0  0  0
 18184  1  0  0  0  0
 19185  1  0  0  0  0
 19186  1  0  0  0  0
 20187  1  0  0  0  0
 21188  1  0  0  0  0
 21189  1  0  0  0  0
 22  2  1  0  0  0  0
 22 17  2  0  0  0  0
 23  3  1  0  0  0  0
 23106  1  1  0  0  0
 24  4  1  0  0  0  0
 24107  1  1  0  0  0
 25  5  1  0  0  0  0
 25108  1  6  0  0  0
 26 13  1  0  0  0  0
 26109  1  6  0  0  0
 26 11  1  0  0  0  0
 27 18  1  0  0  0  0
 27 19  1  0  0  0  0
 27110  1  6  0  0  0
 27 52  1  0  0  0  0
 28 18  1  0  0  0  0
 28 22  1  0  0  0  0
 28111  1  1  0  0  0
 29 17  1  0  0  0  0
 29112  1  1  0  0  0
 30 19  1  0  0  0  0
 30 28  1  0  0  0  0
 30113  1  6  0  0  0
 31 20  1  0  0  0  0
 31 29  1  0  0  0  0
 31 30  1  0  0  0  0
 31114  1  1  0  0  0
 32 21  1  0  0  0  0
 32 29  1  0  0  0  0
 32115  1  6  0  0  0
 33 20  2  0  0  0  0
 33 32  1  0  0  0  0
 34 15  1  0  0  0  0
 34 24  1  0  0  0  0
 34116  1  6  0  0  0
 34 43  1  0  0  0  0
 35 14  1  0  0  0  0
 35 23  1  0  0  0  0
 35117  1  6  0  0  0
 35 53  1  0  0  0  0
 36 21  1  0  0  0  0
 37 16  1  0  0  0  0
 37118  1  1  0  0  0
 37 53  1  0  0  0  0
 38 23  1  0  0  0  0
 38 33  1  0  0  0  0
 39 25  1  0  0  0  0
 39 46  1  0  0  0  0
 39119  1  1  0  0  0
 40 39  1  0  0  0  0
 40120  1  6  0  0  0
 40 47  1  0  0  0  0
 41 40  1  0  0  0  0
 41121  1  6  0  0  0
 41 48  1  0  0  0  0
 42 41  1  0  0  0  0
 42122  1  6  0  0  0
 42 52  1  0  0  0  0
 43  6  1  0  0  0  0
 43  7  1  0  0  0  0
 44 36  2  0  0  0  0
 45 38  2  0  0  0  0
 46  8  1  0  0  0  0
 47  9  1  0  0  0  0
 48 10  1  0  0  0  0
 49 24  1  0  0  0  0
 49 37  1  0  0  0  0
 50 25  1  0  0  0  0
 50 42  1  0  0  0  0
 51 26  1  0  0  0  0
 51 36  1  0  0  0  0
 54190  1  0  0  0  0
 54191  1  0  0  0  0
 54192  1  0  0  0  0
 55193  1  0  0  0  0
 55194  1  0  0  0  0
 55195  1  0  0  0  0
 56196  1  0  0  0  0
 56197  1  0  0  0  0
 56198  1  0  0  0  0
 57199  1  0  0  0  0
 57200  1  0  0  0  0
 57201  1  0  0  0  0
 58202  1  0  0  0  0
 58203  1  0  0  0  0
 58204  1  0  0  0  0
 59205  1  0  0  0  0
 59206  1  0  0  0  0
 59207  1  0  0  0  0
 60208  1  0  0  0  0
 60209  1  0  0  0  0
 60210  1  0  0  0  0
 61211  1  0  0  0  0
 61212  1  0  0  0  0
 61213  1  0  0  0  0
 62214  1  0  0  0  0
 62215  1  0  0  0  0
 62216  1  0  0  0  0
 63 54  1  0  0  0  0
 63217  1  0  0  0  0
 63218  1  0  0  0  0
 64219  1  0  0  0  0
 64220  1  0  0  0  0
 65 64  1  0  0  0  0
 65221  1  0  0  0  0
 65222  1  0  0  0  0
 66 64  1  0  0  0  0
 66223  1  0  0  0  0
 66224  1  0  0  0  0
 67225  1  0  0  0  0
 68 67  2  0  0  0  0
 68226  1  0  0  0  0
 69227  1  0  0  0  0
 69228  1  0  0  0  0
 70 69  1  0  0  0  0
 70229  1  0  0  0  0
 70230  1  0  0  0  0
 71231  1  0  0  0  0
 71232  1  0  0  0  0
 72233  1  0  0  0  0
 72234  1  0  0  0  0
 73235  1  0  0  0  0
 74236  1  0  0  0  0
 74237  1  0  0  0  0
 75 55  1  0  0  0  0
 75123  1  1  0  0  0
 76 56  1  0  0  0  0
 76124  1  6  0  0  0
 77 57  1  0  0  0  0
 77125  1  1  0  0  0
 78 67  1  0  0  0  0
 78 71  1  0  0  0  0
 78126  1  6  0  0  0
 79 65  1  0  0  0  0
 79127  1  1  0  0  0
 79 63  1  0  0  0  0
 80 71  1  0  0  0  0
 80 72  1  0  0  0  0
 80128  1  1  0  0  0
 80104  1  0  0  0  0
 81 68  1  0  0  0  0
 81129  1  6  0  0  0
 82 72  1  0  0  0  0
 82 78  1  0  0  0  0
 82130  1  1  0  0  0
 83 73  1  0  0  0  0
 83 81  1  0  0  0  0
 83 82  1  0  0  0  0
 83131  1  6  0  0  0
 84 74  1  0  0  0  0
 84 81  1  0  0  0  0
 84132  1  1  0  0  0
 85 73  2  0  0  0  0
 85 84  1  0  0  0  0
 86 69  1  0  0  0  0
 86 76  1  0  0  0  0
 86133  1  1  0  0  0
 86 95  1  0  0  0  0
 87 66  1  0  0  0  0
 87 75  1  0  0  0  0
 87134  1  1  0  0  0
 87105  1  0  0  0  0
 88 74  1  0  0  0  0
 89 70  1  0  0  0  0
 89135  1  6  0  0  0
 89105  1  0  0  0  0
 90 75  1  0  0  0  0
 90 85  1  0  0  0  0
 91 77  1  0  0  0  0
 91 98  1  0  0  0  0
 91136  1  6  0  0  0
 92 91  1  0  0  0  0
 92137  1  1  0  0  0
 92 99  1  0  0  0  0
 93 92  1  0  0  0  0
 93138  1  1  0  0  0
 93100  1  0  0  0  0
 94 93  1  0  0  0  0
 94139  1  1  0  0  0
 94104  1  0  0  0  0
 95 58  1  0  0  0  0
 95 59  1  0  0  0  0
 96 88  2  0  0  0  0
 97 90  2  0  0  0  0
 98 60  1  0  0  0  0
 99 61  1  0  0  0  0
100 62  1  0  0  0  0
101 76  1  0  0  0  0
101 89  1  0  0  0  0
102 77  1  0  0  0  0
102 94  1  0  0  0  0
103 79  1  0  0  0  0
103 88  1  0  0  0  0
M  END
>  <DRUGBANK_ID>
DB08823

>  <COMMON_NAME>
Spinosad

>  <CAS_NUMBER>
168316-95-8

>  <UNII>
XPA88EAP6V

>  <SYNONYMS>
Spinosad

$$$$
