FIL
 OpenBabel10282417123D

 41 42  0  0  0  0  0  0  0  0999 V2000
    1.0323   -0.0612   -0.0334 O   0  0  0  0  0  0  0  0  0  0  0  0
    2.2494   -0.0687   -0.0882 C   0  0  0  0  0  0  0  0  0  0  0  0
    2.9983    0.1395    1.0365 N   0  0  0  0  0  0  0  0  0  0  0  0
    2.9325   -0.2867   -1.2709 O   0  0  0  0  0  0  0  0  0  0  0  0
    4.3366   -0.2306   -1.1549 N   0  0  0  0  0  0  0  0  0  0  0  0
    4.9177   -0.4184   -2.3119 C   0  0  0  0  0  0  0  0  0  0  0  0
    4.2069   -0.7036   -3.6248 C   0  0  0  0  0  0  0  0  0  0  0  0
    6.4088   -0.4715   -2.3440 C   0  0  0  0  0  0  0  0  0  0  0  0
    7.0082   -1.1921   -1.3078 C   0  0  0  0  0  0  0  0  0  0  0  0
    8.3770   -1.3760   -1.2761 C   0  0  0  0  0  0  0  0  0  0  0  0
    9.1642   -0.8651   -2.2881 C   0  0  0  0  0  0  0  0  0  0  0  0
   10.4961   -1.0943   -2.2734 O   0  0  0  0  0  0  0  0  0  0  0  0
   11.2214   -1.5196   -1.1429 C   0  0  0  0  0  0  0  0  0  0  0  0
    8.5845   -0.1728   -3.3788 C   0  0  0  0  0  0  0  0  0  0  0  0
    7.1960    0.0707   -3.3712 C   0  0  0  0  0  0  0  0  0  0  0  0
    9.2383    0.2715   -4.5086 O   0  0  0  0  0  0  0  0  0  0  0  0
   10.6129   -0.0611   -4.7449 C   0  0  0  0  0  0  0  0  0  0  0  0
   10.9539   -1.5653   -4.7847 C   0  0  0  0  0  0  0  0  0  0  0  0
   12.4059   -1.6537   -4.3129 C   0  0  0  0  0  0  0  0  0  0  0  0
   12.8291   -0.2594   -3.8105 C   0  0  0  0  0  0  0  0  0  0  0  0
   11.5979    0.6425   -3.8000 C   0  0  0  0  0  0  0  0  0  0  0  0
    4.0039    0.1487    0.9821 H   0  0  0  0  0  0  0  0  0  0  0  0
    2.5084    0.3168    1.9012 H   0  0  0  0  0  0  0  0  0  0  0  0
    4.4715    0.0443   -4.3763 H   0  0  0  0  0  0  0  0  0  0  0  0
    4.5081   -1.6909   -3.9954 H   0  0  0  0  0  0  0  0  0  0  0  0
    3.1201   -0.7104   -3.5243 H   0  0  0  0  0  0  0  0  0  0  0  0
    6.4118   -1.6486   -0.5256 H   0  0  0  0  0  0  0  0  0  0  0  0
    8.8220   -1.9668   -0.4872 H   0  0  0  0  0  0  0  0  0  0  0  0
   10.9781   -0.9269   -0.2626 H   0  0  0  0  0  0  0  0  0  0  0  0
   11.0987   -2.5943   -1.0151 H   0  0  0  0  0  0  0  0  0  0  0  0
   12.2820   -1.3504   -1.3506 H   0  0  0  0  0  0  0  0  0  0  0  0
    6.7483    0.6696   -4.1635 H   0  0  0  0  0  0  0  0  0  0  0  0
   10.8516    0.3155   -5.7490 H   0  0  0  0  0  0  0  0  0  0  0  0
   10.3012   -2.2001   -4.1739 H   0  0  0  0  0  0  0  0  0  0  0  0
   10.8197   -1.9974   -5.7813 H   0  0  0  0  0  0  0  0  0  0  0  0
   12.5106   -2.4193   -3.5312 H   0  0  0  0  0  0  0  0  0  0  0  0
   13.0559   -1.9701   -5.1327 H   0  0  0  0  0  0  0  0  0  0  0  0
   13.3045   -0.3070   -2.8242 H   0  0  0  0  0  0  0  0  0  0  0  0
   13.5787    0.1599   -4.4835 H   0  0  0  0  0  0  0  0  0  0  0  0
   11.8217    1.6646   -4.1167 H   0  0  0  0  0  0  0  0  0  0  0  0
   11.2124    0.8179   -2.7893 H   0  0  0  0  0  0  0  0  0  0  0  0
  1  2  2  0  0  0  0
  2  3  1  0  0  0  0
  2  4  1  0  0  0  0
  3 22  1  0  0  0  0
  3 23  1  0  0  0  0
  4  5  1  0  0  0  0
  5  6  2  0  0  0  0
  6  7  1  0  0  0  0
  6  8  1  0  0  0  0
  7 24  1  0  0  0  0
  7 25  1  0  0  0  0
  7 26  1  0  0  0  0
  8  9  2  0  0  0  0
  8 15  1  0  0  0  0
  9 10  1  0  0  0  0
  9 27  1  0  0  0  0
 10 11  2  0  0  0  0
 10 28  1  0  0  0  0
 11 12  1  0  0  0  0
 11 14  1  0  0  0  0
 12 13  1  0  0  0  0
 13 29  1  0  0  0  0
 13 30  1  0  0  0  0
 13 31  1  0  0  0  0
 14 15  2  0  0  0  0
 14 16  1  0  0  0  0
 15 32  1  0  0  0  0
 16 17  1  0  0  0  0
 17 18  1  0  0  0  0
 17 21  1  0  0  0  0
 17 33  1  0  0  0  0
 18 19  1  0  0  0  0
 18 34  1  0  0  0  0
 18 35  1  0  0  0  0
 19 20  1  0  0  0  0
 19 36  1  0  0  0  0
 19 37  1  0  0  0  0
 20 21  1  0  0  0  0
 20 38  1  0  0  0  0
 20 39  1  0  0  0  0
 21 40  1  0  0  0  0
 21 41  1  0  0  0  0
M  END
>  <DRUGBANK_ID>
DB02660

>  <SECONDARY_ACCESSION_NUMBERS>
EXPT01434

>  <COMMON_NAME>
Filaminast

>  <CAS_NUMBER>
141184-34-1

>  <UNII>
CDD69JC61J

>  <SYNONYMS>
Filaminast

$$$$
