794
 OpenBabel10282417133D

 38 40  0  0  0  0  0  0  0  0999 V2000
    0.8531    0.1468   -0.0864 O   0  0  0  0  0  0  0  0  0  0  0  0
    0.3389   -0.8212    0.6805 C   0  0  0  0  0  0  0  0  0  0  0  0
    1.1188   -1.5987    1.2225 O   0  0  0  0  0  0  0  0  0  0  0  0
   -1.2379   -0.7607    0.7818 C   0  0  0  0  0  0  0  0  0  0  0  0
   -1.7971    0.0280    0.0587 O   0  0  0  0  0  0  0  0  0  0  0  0
   -1.9084   -1.6084    1.7217 N   0  0  0  0  0  0  0  0  0  0  0  0
   -1.2616   -2.5640    2.5670 C   0  0  0  0  0  0  0  0  0  0  0  0
   -0.2170   -2.1043    3.4021 C   0  0  0  0  0  0  0  0  0  0  0  0
    0.3201   -2.8916    4.4132 C   0  0  0  0  0  0  0  0  0  0  0  0
   -0.2493   -4.1245    4.6858 C   0  0  0  0  0  0  0  0  0  0  0  0
   -1.3268   -4.5815    3.9193 C   0  0  0  0  0  0  0  0  0  0  0  0
   -1.7759   -3.8648    2.7923 C   0  0  0  0  0  0  0  0  0  0  0  0
   -2.7506   -4.5740    1.9010 C   0  0  0  0  0  0  0  0  0  0  0  0
   -3.2998   -5.6284    2.1552 O   0  0  0  0  0  0  0  0  0  0  0  0
   -2.9224   -3.9844    0.7028 O   0  0  0  0  0  0  0  0  0  0  0  0
   -3.3577   -1.4514    1.9239 C   0  0  0  0  0  0  0  0  0  0  0  0
   -4.1600   -1.4860    0.7894 C   0  0  0  0  0  0  0  0  0  0  0  0
   -5.5062   -1.6444    1.0370 C   0  0  0  0  0  0  0  0  0  0  0  0
   -6.0236   -1.4753    2.4134 C   0  0  0  0  0  0  0  0  0  0  0  0
   -5.2291   -1.1454    3.7349 C   0  0  0  0  0  0  0  0  0  0  0  0
   -3.9431   -1.4258    3.3064 C   0  0  0  0  0  0  0  0  0  0  0  0
   -3.1754   -1.7865    4.3831 C   0  0  0  0  0  0  0  0  0  0  0  0
   -3.7726   -2.2447    5.5460 C   0  0  0  0  0  0  0  0  0  0  0  0
   -4.0313   -1.1403    6.2137 C   0  0  0  0  0  0  0  0  0  0  0  0
   -5.1232   -0.7523    5.4156 C   0  0  0  0  0  0  0  0  0  0  0  0
    1.8230    0.0056   -0.0280 H   0  0  0  0  0  0  0  0  0  0  0  0
    0.1652   -1.0906    3.3121 H   0  0  0  0  0  0  0  0  0  0  0  0
    1.1453   -2.5093    5.0083 H   0  0  0  0  0  0  0  0  0  0  0  0
    0.1487   -4.7329    5.4931 H   0  0  0  0  0  0  0  0  0  0  0  0
   -1.8237   -5.5026    4.2178 H   0  0  0  0  0  0  0  0  0  0  0  0
   -3.7068   -4.3974    0.2839 H   0  0  0  0  0  0  0  0  0  0  0  0
   -3.7347   -1.5873   -0.2200 H   0  0  0  0  0  0  0  0  0  0  0  0
   -6.1278   -1.9014    0.1669 H   0  0  0  0  0  0  0  0  0  0  0  0
   -7.0961   -1.7023    2.4560 H   0  0  0  0  0  0  0  0  0  0  0  0
   -2.2711   -1.1803    4.4367 H   0  0  0  0  0  0  0  0  0  0  0  0
   -4.7206   -2.8529    5.4349 H   0  0  0  0  0  0  0  0  0  0  0  0
   -3.0779   -0.6183    6.4605 H   0  0  0  0  0  0  0  0  0  0  0  0
   -5.9864   -0.8508    6.1118 H   0  0  0  0  0  0  0  0  0  0  0  0
  1  2  1  0  0  0  0
  1 26  1  0  0  0  0
  2  3  2  0  0  0  0
  2  4  1  0  0  0  0
  4  5  2  0  0  0  0
  4  6  1  0  0  0  0
  6  7  1  0  0  0  0
  6 16  1  0  0  0  0
  7  8  2  0  0  0  0
  7 12  1  0  0  0  0
  8  9  1  0  0  0  0
  8 27  1  0  0  0  0
  9 10  2  0  0  0  0
  9 28  1  0  0  0  0
 10 11  1  0  0  0  0
 10 29  1  0  0  0  0
 11 12  2  0  0  0  0
 11 30  1  0  0  0  0
 12 13  1  0  0  0  0
 13 14  2  0  0  0  0
 13 15  1  0  0  0  0
 15 31  1  0  0  0  0
 16 17  2  0  0  0  0
 16 21  1  0  0  0  0
 17 18  1  0  0  0  0
 17 32  1  0  0  0  0
 18 19  2  0  0  0  0
 18 33  1  0  0  0  0
 19 20  1  0  0  0  0
 19 34  1  0  0  0  0
 20 21  2  0  0  0  0
 20 25  1  0  0  0  0
 21 22  1  0  0  0  0
 22 23  2  0  0  0  0
 22 35  1  0  0  0  0
 23 24  1  0  0  0  0
 23 36  1  0  0  0  0
 24 25  2  0  0  0  0
 24 37  1  0  0  0  0
 25 38  1  0  0  0  0
M  END
>  <DRUGBANK_ID>
DB03982

>  <SECONDARY_ACCESSION_NUMBERS>
EXPT00306

>  <COMMON_NAME>
Compound 5, 2-(Naphthalen-1-Yl-Oxalyl-Amino)-Benzoicacid

$$$$
