
 OpenBabel10282417233D

 76 78  0  0  1  0  0  0  0  0999 V2000
    1.6640    2.2419   -3.1439 H   0  0  0  0  0  0  0  0  0  0  0  0
    1.3053    1.2503   -2.9198 C   0  0  1  0  0  0  0  0  0  0  0  0
    0.9390    0.0736   -4.6422 C   0  0  0  0  0  0  0  0  0  0  0  0
    1.8259    0.2597   -5.8557 C   0  0  0  0  0  0  0  0  0  0  0  0
    1.9946    1.3113   -4.9103 C   0  0  1  0  0  0  0  0  0  0  0  0
    1.1125    2.0235   -4.9712 H   0  0  0  0  0  0  0  0  0  0  0  0
    3.1762    2.1566   -5.1396 C   0  0  2  0  0  0  0  0  0  0  0  0
    3.1856    2.9224   -4.3563 H   0  0  0  0  0  0  0  0  0  0  0  0
    3.0532    2.8083   -6.5003 C   0  0  0  0  0  0  0  0  0  0  0  0
    4.2701    3.6517   -6.7450 C   0  0  0  0  0  0  0  0  0  0  0  0
    5.5104    2.7790   -6.5785 C   0  0  0  0  0  0  0  0  0  0  0  0
    6.4172    2.6454   -7.5010 N   0  0  0  0  0  0  0  0  0  0  0  0
    6.1252    3.4039   -8.6360 O   0  0  0  0  0  0  0  0  0  0  0  0
    5.6669    2.0151   -5.2199 C   0  0  2  0  0  0  0  0  0  0  0  0
    5.8441    3.0549   -4.1065 C   0  0  0  0  0  0  0  0  0  0  0  0
    6.9072    1.0622   -5.2900 C   0  0  0  0  0  0  0  0  0  0  0  0
    7.4918    0.4883   -3.9715 C   0  0  0  0  0  0  0  0  0  0  0  0
    6.6394   -0.5041   -3.2387 C   0  0  0  0  0  0  0  0  0  0  0  0
    6.1956   -1.5422   -4.1294 O   0  0  0  0  0  0  0  0  0  0  0  0
    4.3426    1.2380   -5.0457 C   0  0  1  0  0  0  0  0  0  0  0  0
    4.3316    0.4890   -5.8499 H   0  0  0  0  0  0  0  0  0  0  0  0
    4.1410    0.5277   -3.7216 C   0  0  0  0  0  0  0  0  0  0  0  0
    3.1577   -0.5365   -3.3109 C   0  0  0  0  0  0  0  0  0  0  0  0
    1.9060    0.1330   -3.4659 C   0  0  2  0  0  0  0  0  0  0  0  0
    0.1993   -0.3662   -2.7806 C   0  0  0  0  0  0  0  0  0  0  0  0
    2.2102    1.1298   -1.2170 C   0  0  2  0  0  0  0  0  0  0  0  0
    1.9406   -0.0605   -0.2418 C   0  0  0  0  0  0  0  0  0  0  0  0
    2.0132    2.4113   -0.1784 C   0  0  0  0  0  0  0  0  0  0  0  0
    2.6249    2.4123    1.3262 C   0  0  0  0  0  0  0  0  0  0  0  0
    4.1582    2.4813    1.4369 C   0  0  0  0  0  0  0  0  0  0  0  0
    4.7193    3.7578    0.7977 C   0  0  0  0  0  0  0  0  0  0  0  0
    4.2144    5.0102    1.5179 C   0  0  0  0  0  0  0  0  0  0  0  0
    6.2415    3.7402    0.7991 C   0  0  0  0  0  0  0  0  0  0  0  0
   -0.0470   -0.0440   -5.1123 H   0  0  0  0  0  0  0  0  0  0  0  0
    1.0923   -1.1267   -4.5312 H   0  0  0  0  0  0  0  0  0  0  0  0
    1.3962    0.5570   -6.8102 H   0  0  0  0  0  0  0  0  0  0  0  0
    2.6132   -0.4986   -5.9869 H   0  0  0  0  0  0  0  0  0  0  0  0
    2.9816    2.0451   -7.2849 H   0  0  0  0  0  0  0  0  0  0  0  0
    2.1327    3.4033   -6.5434 H   0  0  0  0  0  0  0  0  0  0  0  0
    4.1808    4.0777   -7.7428 H   0  0  0  0  0  0  0  0  0  0  0  0
    4.3097    4.4665   -6.0193 H   0  0  0  0  0  0  0  0  0  0  0  0
    6.8904    3.2256   -9.2121 H   0  0  0  0  0  0  0  0  0  0  0  0
    4.9780    3.7116   -4.0004 H   0  0  0  0  0  0  0  0  0  0  0  0
    5.9793    2.5952   -3.1246 H   0  0  0  0  0  0  0  0  0  0  0  0
    6.7012    3.6927   -4.3207 H   0  0  0  0  0  0  0  0  0  0  0  0
    6.6996    0.2596   -6.0128 H   0  0  0  0  0  0  0  0  0  0  0  0
    7.7329    1.6301   -5.7331 H   0  0  0  0  0  0  0  0  0  0  0  0
    8.4229   -0.0283   -4.1843 H   0  0  0  0  0  0  0  0  0  0  0  0
    7.6968    1.3239   -3.2964 H   0  0  0  0  0  0  0  0  0  0  0  0
    6.9006   -0.9874   -2.3045 H   0  0  0  0  0  0  0  0  0  0  0  0
    5.9320    0.1742   -2.7587 H   0  0  0  0  0  0  0  0  0  0  0  0
    5.7979   -1.1851   -4.9527 H   0  0  0  0  0  0  0  0  0  0  0  0
    4.3370    1.2170   -2.9041 H   0  0  0  0  0  0  0  0  0  0  0  0
    4.8100   -0.2172   -3.9259 H   0  0  0  0  0  0  0  0  0  0  0  0
    3.3457   -0.9390   -2.3197 H   0  0  0  0  0  0  0  0  0  0  0  0
    3.2306   -1.3995   -3.9959 H   0  0  0  0  0  0  0  0  0  0  0  0
    0.3176   -0.9179   -1.8832 H   0  0  0  0  0  0  0  0  0  0  0  0
   -0.4855    0.5552   -2.7488 H   0  0  0  0  0  0  0  0  0  0  0  0
   -0.4519   -0.9404   -3.4674 H   0  0  0  0  0  0  0  0  0  0  0  0
    3.3152    1.1473   -1.3263 H   0  0  0  0  0  0  0  0  0  0  0  0
    2.3273   -1.0304   -0.5545 H   0  0  0  0  0  0  0  0  0  0  0  0
    2.3980    0.0435    0.7590 H   0  0  0  0  0  0  0  0  0  0  0  0
    0.8724   -0.0747   -0.0505 H   0  0  0  0  0  0  0  0  0  0  0  0
    2.3813    3.3247   -0.6525 H   0  0  0  0  0  0  0  0  0  0  0  0
    0.9387    2.5198   -0.0292 H   0  0  0  0  0  0  0  0  0  0  0  0
    2.2169    3.2736    1.8817 H   0  0  0  0  0  0  0  0  0  0  0  0
    2.2681    1.5802    1.9468 H   0  0  0  0  0  0  0  0  0  0  0  0
    4.4734    2.4493    2.4956 H   0  0  0  0  0  0  0  0  0  0  0  0
    4.5906    1.5893    0.9724 H   0  0  0  0  0  0  0  0  0  0  0  0
    4.4025    3.7973   -0.2482 H   0  0  0  0  0  0  0  0  0  0  0  0
    4.5413    5.0156    2.5636 H   0  0  0  0  0  0  0  0  0  0  0  0
    4.5871    5.9149    1.0305 H   0  0  0  0  0  0  0  0  0  0  0  0
    3.1232    5.0779    1.5078 H   0  0  0  0  0  0  0  0  0  0  0  0
    6.6164    2.8599    0.2678 H   0  0  0  0  0  0  0  0  0  0  0  0
    6.6270    4.6313    0.2928 H   0  0  0  0  0  0  0  0  0  0  0  0
    6.6357    3.7250    1.8199 H   0  0  0  0  0  0  0  0  0  0  0  0
  2  1  1  1  0  0  0
  2  3  1  0  0  0  0
  2 24  1  0  0  0  0
  3  4  1  0  0  0  0
  3 34  1  0  0  0  0
  3 35  1  0  0  0  0
  4 36  1  0  0  0  0
  4 37  1  0  0  0  0
  5  4  1  0  0  0  0
  5  6  1  1  0  0  0
  5  7  1  0  0  0  0
  7  8  1  1  0  0  0
  7  9  1  0  0  0  0
  7 20  1  0  0  0  0
  9 10  1  0  0  0  0
  9 38  1  0  0  0  0
  9 39  1  0  0  0  0
 10 11  1  0  0  0  0
 10 40  1  0  0  0  0
 10 41  1  0  0  0  0
 11 12  2  0  0  0  0
 12 13  1  0  0  0  0
 13 42  1  0  0  0  0
 14 11  1  0  0  0  0
 14 16  1  6  0  0  0
 14 15  1  0  0  0  0
 15 43  1  0  0  0  0
 15 44  1  0  0  0  0
 15 45  1  0  0  0  0
 16 17  1  0  0  0  0
 16 46  1  0  0  0  0
 16 47  1  0  0  0  0
 17 18  1  0  0  0  0
 17 48  1  0  0  0  0
 17 49  1  0  0  0  0
 18 19  1  0  0  0  0
 18 50  1  0  0  0  0
 18 51  1  0  0  0  0
 19 52  1  0  0  0  0
 20 14  1  0  0  0  0
 20 21  1  6  0  0  0
 20 22  1  0  0  0  0
 22 23  1  0  0  0  0
 22 53  1  0  0  0  0
 22 54  1  0  0  0  0
 23 55  1  0  0  0  0
 23 56  1  0  0  0  0
 24 23  1  0  0  0  0
 24  5  1  0  0  0  0
 24 25  1  1  0  0  0
 25 57  1  0  0  0  0
 25 58  1  0  0  0  0
 25 59  1  0  0  0  0
 26 28  1  0  0  0  0
 26 60  1  6  0  0  0
 26 27  1  0  0  0  0
 26  2  1  0  0  0  0
 27 61  1  0  0  0  0
 27 62  1  0  0  0  0
 27 63  1  0  0  0  0
 28 29  1  0  0  0  0
 28 64  1  0  0  0  0
 28 65  1  0  0  0  0
 29 30  1  0  0  0  0
 29 66  1  0  0  0  0
 29 67  1  0  0  0  0
 30 31  1  0  0  0  0
 30 68  1  0  0  0  0
 30 69  1  0  0  0  0
 31 32  1  0  0  0  0
 31 33  1  0  0  0  0
 31 70  1  0  0  0  0
 32 71  1  0  0  0  0
 32 72  1  0  0  0  0
 32 73  1  0  0  0  0
 33 74  1  0  0  0  0
 33 75  1  0  0  0  0
 33 76  1  0  0  0  0
M  END
>  <DRUGBANK_ID>
DB16031

>  <COMMON_NAME>
TRO40303

>  <CAS_NUMBER>
14291-24-8

>  <UNII>
3W389841RN

$$$$
