
 OpenBabel10282417153D

 78 81  0  0  0  0  0  0  0  0999 V2000
    1.8659    1.2152   -0.1330 C   0  0  0  0  0  0  0  0  0  0  0  0
    0.4619    1.4366   -0.0942 C   0  0  0  0  0  0  0  0  0  0  0  0
   -0.4289    0.3412   -0.0802 C   0  0  0  0  0  0  0  0  0  0  0  0
    0.0342   -0.9729   -0.1834 C   0  0  0  0  0  0  0  0  0  0  0  0
    1.3711   -1.1690   -0.3160 C   0  0  0  0  0  0  0  0  0  0  0  0
    2.2692   -0.1541   -0.1958 C   0  0  0  0  0  0  0  0  0  0  0  0
   -2.1264    0.6022    0.0761 Cl  0  0  0  0  0  0  0  0  0  0  0  0
   -0.6645   -2.1347    0.1576 N   0  0  0  0  0  0  0  0  0  0  0  0
    2.7102    2.4734   -0.0392 C   0  0  0  0  0  0  0  0  0  0  0  0
    2.1695    3.5872   -0.0297 O   0  0  0  0  0  0  0  0  0  0  0  0
    4.0743    2.5005    0.0170 N   0  0  0  0  0  0  0  0  0  0  0  0
    3.4719   -0.7066    0.0880 O   0  0  0  0  0  0  0  0  0  0  0  0
    5.2098    1.5182    0.0985 C   0  0  2  0  0  0  0  0  0  0  0  0
    5.3033    0.7650   -2.4762 C   0  0  0  0  0  0  0  0  0  0  0  0
    5.7104    1.7469   -1.3484 C   0  0  0  0  0  0  0  0  0  0  0  0
    5.5009    0.0276    0.4663 C   0  0  2  0  0  0  0  0  0  0  0  0
    5.6061   -0.9047   -0.9962 C   0  0  0  0  0  0  0  0  0  0  0  0
    5.8664   -0.5842   -2.3784 N   0  0  0  0  0  0  0  0  0  0  0  0
    4.7737   -0.4908    1.9510 O   0  0  0  0  0  0  0  0  0  0  0  0
    5.1104   -1.7437   -3.1279 C   0  0  0  0  0  0  0  0  0  0  0  0
    3.5188   -1.8896   -2.9942 C   0  0  0  0  0  0  0  0  0  0  0  0
    2.7414   -0.6489   -3.4011 C   0  0  0  0  0  0  0  0  0  0  0  0
    3.3113   -0.2801   -4.7112 C   0  0  0  0  0  0  0  0  0  0  0  0
    2.9017   -1.4522   -5.6040 C   0  0  0  0  0  0  0  0  0  0  0  0
    1.4140   -1.4093   -6.1204 C   0  0  0  0  0  0  0  0  0  0  0  0
    1.0461   -1.3349   -7.4751 O   0  0  0  0  0  0  0  0  0  0  0  0
    0.4881   -1.6079   -5.2325 O   0  0  0  0  0  0  0  0  0  0  0  0
    1.8173   -0.7242   -8.9106 C   0  0  1  0  0  0  0  0  0  0  0  0
    1.3207    0.6688   -8.6243 C   0  0  0  0  0  0  0  0  0  0  0  0
    2.2881    1.3348   -7.1831 N   0  0  3  0  0  0  0  0  0  0  0  0
    4.1354    1.5674   -7.0262 C   0  0  0  0  0  0  0  0  0  0  0  0
    4.8586    0.3825   -7.7016 C   0  0  0  0  0  0  0  0  0  0  0  0
    3.6921   -0.2944   -9.1238 C   0  0  3  0  0  0  0  0  0  0  0  0
    3.1919   -0.1319   -7.8537 C   0  0  0  0  0  0  0  0  0  0  0  0
    2.8786    1.7492   -8.3528 C   0  0  0  0  0  0  0  0  0  0  0  0
    4.0150   -2.2230    0.3371 C   0  0  0  0  0  0  0  0  0  0  0  0
    3.2800   -0.9036    2.3532 C   0  0  0  0  0  0  0  0  0  0  0  0
    0.0446    2.4459   -0.0062 H   0  0  0  0  0  0  0  0  0  0  0  0
    1.7617   -2.1715   -0.3326 H   0  0  0  0  0  0  0  0  0  0  0  0
   -1.6506   -2.1054   -0.0532 H   0  0  0  0  0  0  0  0  0  0  0  0
   -0.1995   -2.9986   -0.1153 H   0  0  0  0  0  0  0  0  0  0  0  0
    4.3892    3.4726    0.1013 H   0  0  0  0  0  0  0  0  0  0  0  0
    4.7394    1.5510    1.0804 H   0  0  0  0  0  0  0  0  0  0  0  0
    4.2435    0.7855   -2.3434 H   0  0  0  0  0  0  0  0  0  0  0  0
    5.5224    1.1771   -3.4624 H   0  0  0  0  0  0  0  0  0  0  0  0
    5.3675    2.7086   -1.7525 H   0  0  0  0  0  0  0  0  0  0  0  0
    6.7967    1.7887   -1.3515 H   0  0  0  0  0  0  0  0  0  0  0  0
    6.5456   -0.0159    0.8066 H   0  0  0  0  0  0  0  0  0  0  0  0
    6.0493   -1.8972   -0.8885 H   0  0  0  0  0  0  0  0  0  0  0  0
    4.5793   -1.0206   -1.2552 H   0  0  0  0  0  0  0  0  0  0  0  0
    5.4445   -1.7723   -4.1739 H   0  0  0  0  0  0  0  0  0  0  0  0
    5.4852   -2.7185   -2.7616 H   0  0  0  0  0  0  0  0  0  0  0  0
    3.2141   -2.7752   -3.5614 H   0  0  0  0  0  0  0  0  0  0  0  0
    3.1305   -2.2130   -2.0465 H   0  0  0  0  0  0  0  0  0  0  0  0
    1.6719   -0.8026   -3.4980 H   0  0  0  0  0  0  0  0  0  0  0  0
    2.7338    0.1835   -2.7137 H   0  0  0  0  0  0  0  0  0  0  0  0
    2.9959    0.7286   -4.9615 H   0  0  0  0  0  0  0  0  0  0  0  0
    4.4076   -0.1704   -4.6898 H   0  0  0  0  0  0  0  0  0  0  0  0
    3.7833   -1.6553   -6.2047 H   0  0  0  0  0  0  0  0  0  0  0  0
    3.0135   -2.4695   -5.2396 H   0  0  0  0  0  0  0  0  0  0  0  0
    1.3879   -1.3104   -9.7218 H   0  0  0  0  0  0  0  0  0  0  0  0
    1.6278    1.0555   -9.6658 H   0  0  0  0  0  0  0  0  0  0  0  0
    0.2803    0.9870   -8.5589 H   0  0  0  0  0  0  0  0  0  0  0  0
    4.3602    1.9954   -6.0493 H   0  0  0  0  0  0  0  0  0  0  0  0
    4.6329    2.3075   -7.7248 H   0  0  0  0  0  0  0  0  0  0  0  0
    4.7058   -0.0670   -6.6634 H   0  0  0  0  0  0  0  0  0  0  0  0
    5.7955   -0.1861   -7.5440 H   0  0  0  0  0  0  0  0  0  0  0  0
    4.2049   -1.1837   -9.4790 H   0  0  0  0  0  0  0  0  0  0  0  0
    3.9125   -1.0543   -7.7718 H   0  0  0  0  0  0  0  0  0  0  0  0
    2.7215   -0.9810   -7.4563 H   0  0  0  0  0  0  0  0  0  0  0  0
    2.0302    2.3554   -8.7750 H   0  0  0  0  0  0  0  0  0  0  0  0
    3.0507    2.7590   -7.8601 H   0  0  0  0  0  0  0  0  0  0  0  0
    4.0646   -2.6894    1.3262 H   0  0  0  0  0  0  0  0  0  0  0  0
    3.8016   -2.8768   -0.4815 H   0  0  0  0  0  0  0  0  0  0  0  0
    5.1054   -2.1581    0.4773 H   0  0  0  0  0  0  0  0  0  0  0  0
    2.5212   -0.1551    2.1308 H   0  0  0  0  0  0  0  0  0  0  0  0
    2.8143   -1.8366    1.9328 H   0  0  0  0  0  0  0  0  0  0  0  0
    3.2053   -1.2192    3.3970 H   0  0  0  0  0  0  0  0  0  0  0  0
  1  2  1  0  0  0  0
  1  6  2  0  0  0  0
  1  9  1  0  0  0  0
  2  3  2  0  0  0  0
  2 38  1  0  0  0  0
  3  4  1  0  0  0  0
  3  7  1  0  0  0  0
  4  5  2  0  0  0  0
  4  8  1  0  0  0  0
  5  6  1  0  0  0  0
  5 39  1  0  0  0  0
  6 12  1  0  0  0  0
  8 40  1  0  0  0  0
  8 41  1  0  0  0  0
  9 10  2  0  0  0  0
  9 11  1  0  0  0  0
 11 42  1  0  0  0  0
 12 36  1  0  0  0  0
 13 11  1  0  0  0  0
 13 16  1  0  0  0  0
 13 43  1  1  0  0  0
 14 15  1  0  0  0  0
 14 18  1  0  0  0  0
 14 44  1  0  0  0  0
 14 45  1  0  0  0  0
 15 13  1  0  0  0  0
 15 46  1  0  0  0  0
 15 47  1  0  0  0  0
 16 17  1  0  0  0  0
 16 48  1  1  0  0  0
 16 19  1  0  0  0  0
 17 18  1  0  0  0  0
 17 49  1  0  0  0  0
 17 50  1  0  0  0  0
 18 20  1  0  0  0  0
 19 37  1  0  0  0  0
 20 21  1  0  0  0  0
 20 51  1  0  0  0  0
 20 52  1  0  0  0  0
 21 22  1  0  0  0  0
 21 53  1  0  0  0  0
 21 54  1  0  0  0  0
 22 23  1  0  0  0  0
 22 55  1  0  0  0  0
 22 56  1  0  0  0  0
 23 24  1  0  0  0  0
 23 57  1  0  0  0  0
 23 58  1  0  0  0  0
 24 25  1  0  0  0  0
 24 59  1  0  0  0  0
 24 60  1  0  0  0  0
 25 26  1  0  0  0  0
 25 27  2  0  0  0  0
 28 26  1  0  0  0  0
 28 29  1  0  0  0  0
 28 33  1  0  0  0  0
 28 61  1  6  0  0  0
 29 30  1  0  0  0  0
 29 62  1  0  0  0  0
 29 63  1  0  0  0  0
 30 31  1  0  0  0  0
 31 32  1  0  0  0  0
 31 64  1  0  0  0  0
 31 65  1  0  0  0  0
 32 33  1  0  0  0  0
 32 66  1  0  0  0  0
 32 67  1  0  0  0  0
 33 34  1  0  0  0  0
 33 68  1  0  0  0  0
 34 35  1  0  0  0  0
 34 69  1  0  0  0  0
 34 70  1  0  0  0  0
 35 30  1  0  0  0  0
 35 71  1  0  0  0  0
 35 72  1  0  0  0  0
 36 73  1  0  0  0  0
 36 74  1  0  0  0  0
 36 75  1  0  0  0  0
 37 76  1  0  0  0  0
 37 77  1  0  0  0  0
 37 78  1  0  0  0  0
M  END
>  <DRUGBANK_ID>
DB05542

>  <COMMON_NAME>
Naronapride

>  <CAS_NUMBER>
860174-12-5

>  <UNII>
058896B00B

>  <SYNONYMS>
Naronapride

$$$$
