
 OpenBabel10282417173D

 22 22  0  0  0  0  0  0  0  0999 V2000
   -1.1732    1.2157   -0.0010 C   0  0  0  0  0  0  0  0  0  0  0  0
   -1.8784    0.0100   -0.0132 C   0  0  0  0  0  0  0  0  0  0  0  0
   -1.1910   -1.1974   -0.0024 C   0  0  0  0  0  0  0  0  0  0  0  0
    0.2044   -1.2009    0.0094 C   0  0  0  0  0  0  0  0  0  0  0  0
    0.9065    0.0121    0.0122 C   0  0  0  0  0  0  0  0  0  0  0  0
    0.2324    1.2484    0.0170 C   0  0  0  0  0  0  0  0  0  0  0  0
    0.9822    2.5306    0.0468 C   0  0  0  0  0  0  0  0  0  0  0  0
    2.2782   -0.0025    0.0097 O   0  0  0  0  0  0  0  0  0  0  0  0
    0.4171    3.7489    0.0683 C   0  0  0  0  0  0  0  0  0  0  0  0
    1.2040    5.0119    0.1060 C   0  0  0  0  0  0  0  0  0  0  0  0
    0.3835    6.3160    0.1243 C   0  0  0  0  0  0  0  0  0  0  0  0
    1.1554    7.4161    0.1567 O   0  0  0  0  0  0  0  0  0  0  0  0
   -0.8360    6.3277    0.1101 O   0  0  0  0  0  0  0  0  0  0  0  0
    2.4259    5.0838    0.1233 O   0  0  0  0  0  0  0  0  0  0  0  0
   -1.7630    2.1264   -0.0048 H   0  0  0  0  0  0  0  0  0  0  0  0
   -2.9658    0.0258   -0.0278 H   0  0  0  0  0  0  0  0  0  0  0  0
   -1.7474   -2.1315   -0.0040 H   0  0  0  0  0  0  0  0  0  0  0  0
    0.7219   -2.1558    0.0189 H   0  0  0  0  0  0  0  0  0  0  0  0
    2.0680    2.4411    0.0587 H   0  0  0  0  0  0  0  0  0  0  0  0
    2.5941   -0.9201   -0.0208 H   0  0  0  0  0  0  0  0  0  0  0  0
   -0.6565    3.8887    0.0617 H   0  0  0  0  0  0  0  0  0  0  0  0
    2.1099    7.1794    0.1631 H   0  0  0  0  0  0  0  0  0  0  0  0
  1  2  1  0  0  0  0
  1  6  2  0  0  0  0
  1 15  1  0  0  0  0
  2  3  2  0  0  0  0
  2 16  1  0  0  0  0
  3  4  1  0  0  0  0
  3 17  1  0  0  0  0
  4  5  2  0  0  0  0
  4 18  1  0  0  0  0
  5  8  1  0  0  0  0
  6  5  1  0  0  0  0
  7  6  1  0  0  0  0
  7  9  2  0  0  0  0
  7 19  1  0  0  0  0
  8 20  1  0  0  0  0
  9 10  1  0  0  0  0
  9 21  1  0  0  0  0
 10 11  1  0  0  0  0
 10 14  2  0  0  0  0
 11 12  1  0  0  0  0
 11 13  2  0  0  0  0
 12 22  1  0  0  0  0
M  END
>  <DRUGBANK_ID>
DB08636

>  <COMMON_NAME>
2-Hydroxybenzalpyruvate

>  <CAS_NUMBER>
90293-62-2

>  <UNII>
8WGN3TR2PL

>  <SYNONYMS>
(3E)-4-(2-Hydroxyphenyl)-2-oxobut-3-enoate; (3E)-4-(2-hydroxyphenyl)-2-oxobut-3-enoic acid; 4-(2-Hydroxyphenyl)-2-oxo-3-butenoic acid; ortho-Hydroxybenzalpyruvate

$$$$
