
 OpenBabel10282417173D

 59 61  0  0  0  0  0  0  0  0999 V2000
    0.6085   -0.0716   -0.0599 O   0  0  0  0  0  0  0  0  0  0  0  0
    5.3211   -1.2552    3.5954 N   0  0  0  0  0  0  0  0  0  0  0  0
    2.4639   -1.2064    0.7408 N   0  0  0  0  0  0  0  0  0  0  0  0
    3.9006   -1.3311    0.7727 C   0  0  3  0  0  0  0  0  0  0  0  0
    4.3311   -0.1099    1.5824 C   0  0  3  0  0  0  0  0  0  0  0  0
    4.9010   -2.5159    2.8604 C   0  0  3  0  0  0  0  0  0  0  0  0
    4.6915   -2.6547    1.2975 C   0  0  0  0  0  0  0  0  0  0  0  0
    4.3800   -0.1415    3.0963 C   0  0  0  0  0  0  0  0  0  0  0  0
    6.9310   -0.9688    3.4753 C   0  0  0  0  0  0  0  0  0  0  0  0
    5.7087   -0.2211    1.3552 C   0  0  0  0  0  0  0  0  0  0  0  0
    5.2623   -3.7782    3.5824 C   0  0  0  0  0  0  0  0  0  0  0  0
    7.9975   -0.8838    1.9340 C   0  0  0  0  0  0  0  0  0  0  0  0
    1.7250   -2.2852    1.2735 C   0  0  0  0  0  0  0  0  0  0  0  0
    1.8114   -0.1723    0.0039 C   0  0  0  0  0  0  0  0  0  0  0  0
    7.9155    0.3848    0.6351 C   0  0  0  0  0  0  0  0  0  0  0  0
    2.6734    0.9315   -0.6687 C   0  0  0  0  0  0  0  0  0  0  0  0
    0.9146   -2.9686    0.4076 C   0  0  0  0  0  0  0  0  0  0  0  0
    1.9317   -2.8313    2.5463 C   0  0  0  0  0  0  0  0  0  0  0  0
    2.4852    1.0875   -2.1590 C   0  0  0  0  0  0  0  0  0  0  0  0
    7.1103    0.3093   -0.6521 C   0  0  0  0  0  0  0  0  0  0  0  0
    7.9470    1.6739    1.1960 C   0  0  0  0  0  0  0  0  0  0  0  0
    0.4056   -4.1960    0.7953 C   0  0  0  0  0  0  0  0  0  0  0  0
    1.7389   -4.1808    2.7881 C   0  0  0  0  0  0  0  0  0  0  0  0
    0.8721   -4.8349    1.9472 C   0  0  0  0  0  0  0  0  0  0  0  0
    6.2144    1.3663   -1.0644 C   0  0  0  0  0  0  0  0  0  0  0  0
    7.0709    2.7055    0.7266 C   0  0  0  0  0  0  0  0  0  0  0  0
    6.1887    2.5556   -0.3556 C   0  0  0  0  0  0  0  0  0  0  0  0
    4.2156   -1.2740   -0.2973 H   0  0  0  0  0  0  0  0  0  0  0  0
    4.0798    0.8860    1.2245 H   0  0  0  0  0  0  0  0  0  0  0  0
    3.8968   -2.4269    3.1128 H   0  0  0  0  0  0  0  0  0  0  0  0
    5.6918   -2.7826    0.8234 H   0  0  0  0  0  0  0  0  0  0  0  0
    4.1893   -3.5724    0.9710 H   0  0  0  0  0  0  0  0  0  0  0  0
    3.3311   -0.2049    3.4124 H   0  0  0  0  0  0  0  0  0  0  0  0
    4.7327    0.8359    3.4608 H   0  0  0  0  0  0  0  0  0  0  0  0
    7.1007   -0.0626    4.0710 H   0  0  0  0  0  0  0  0  0  0  0  0
    7.3253   -1.8146    4.0590 H   0  0  0  0  0  0  0  0  0  0  0  0
    5.9873   -0.7689    0.4896 H   0  0  0  0  0  0  0  0  0  0  0  0
    6.1972    0.5559    1.9315 H   0  0  0  0  0  0  0  0  0  0  0  0
    6.0383   -1.1228    1.7798 H   0  0  0  0  0  0  0  0  0  0  0  0
    4.8503   -3.7106    4.5973 H   0  0  0  0  0  0  0  0  0  0  0  0
    4.7957   -4.6409    3.0982 H   0  0  0  0  0  0  0  0  0  0  0  0
    6.3379   -3.9154    3.6271 H   0  0  0  0  0  0  0  0  0  0  0  0
    9.0317   -0.8904    2.2909 H   0  0  0  0  0  0  0  0  0  0  0  0
    7.8372   -1.8633    1.4473 H   0  0  0  0  0  0  0  0  0  0  0  0
    2.4824    1.8832   -0.1525 H   0  0  0  0  0  0  0  0  0  0  0  0
    3.7266    0.7356   -0.5810 H   0  0  0  0  0  0  0  0  0  0  0  0
    0.6905   -2.5385   -0.5614 H   0  0  0  0  0  0  0  0  0  0  0  0
    2.2756   -2.2375    3.3879 H   0  0  0  0  0  0  0  0  0  0  0  0
    1.4479    1.2903   -2.4193 H   0  0  0  0  0  0  0  0  0  0  0  0
    3.1063    1.9149   -2.5309 H   0  0  0  0  0  0  0  0  0  0  0  0
    2.8215    0.1791   -2.6678 H   0  0  0  0  0  0  0  0  0  0  0  0
    6.7492   -0.6474   -1.0890 H   0  0  0  0  0  0  0  0  0  0  0  0
    8.3996    1.7988    2.1733 H   0  0  0  0  0  0  0  0  0  0  0  0
   -0.3370   -4.6586    0.1654 H   0  0  0  0  0  0  0  0  0  0  0  0
    2.2012   -4.6726    3.6433 H   0  0  0  0  0  0  0  0  0  0  0  0
    0.5091   -5.8141    2.2287 H   0  0  0  0  0  0  0  0  0  0  0  0
    5.4020    1.1881   -1.7859 H   0  0  0  0  0  0  0  0  0  0  0  0
    6.9772    3.6135    1.3181 H   0  0  0  0  0  0  0  0  0  0  0  0
    5.4469    3.3266   -0.5858 H   0  0  0  0  0  0  0  0  0  0  0  0
  1 14  2  0  0  0  0
  2  6  1  0  0  0  0
  2  8  1  0  0  0  0
  2  9  1  0  0  0  0
  3  4  1  0  0  0  0
  3 13  1  0  0  0  0
  3 14  1  0  0  0  0
  4  5  1  0  0  0  0
  4  7  1  0  0  0  0
  4 28  1  0  0  0  0
  5  8  1  0  0  0  0
  5 10  1  0  0  0  0
  5 29  1  0  0  0  0
  6  7  1  0  0  0  0
  6 11  1  0  0  0  0
  6 30  1  0  0  0  0
  7 31  1  0  0  0  0
  7 32  1  0  0  0  0
  8 33  1  0  0  0  0
  8 34  1  0  0  0  0
  9 12  1  0  0  0  0
  9 35  1  0  0  0  0
  9 36  1  0  0  0  0
 10 37  1  0  0  0  0
 10 38  1  0  0  0  0
 10 39  1  0  0  0  0
 11 40  1  0  0  0  0
 11 41  1  0  0  0  0
 11 42  1  0  0  0  0
 12 15  1  0  0  0  0
 12 43  1  0  0  0  0
 12 44  1  0  0  0  0
 13 17  2  0  0  0  0
 13 18  1  0  0  0  0
 14 16  1  0  0  0  0
 15 20  2  0  0  0  0
 15 21  1  0  0  0  0
 16 19  1  0  0  0  0
 16 45  1  0  0  0  0
 16 46  1  0  0  0  0
 17 22  1  0  0  0  0
 17 47  1  0  0  0  0
 18 23  2  0  0  0  0
 18 48  1  0  0  0  0
 19 49  1  0  0  0  0
 19 50  1  0  0  0  0
 19 51  1  0  0  0  0
 20 25  1  0  0  0  0
 20 52  1  0  0  0  0
 21 26  2  0  0  0  0
 21 53  1  0  0  0  0
 22 24  2  0  0  0  0
 22 54  1  0  0  0  0
 23 24  1  0  0  0  0
 23 55  1  0  0  0  0
 24 56  1  0  0  0  0
 25 27  2  0  0  0  0
 25 57  1  0  0  0  0
 26 27  1  0  0  0  0
 26 58  1  0  0  0  0
 27 59  1  0  0  0  0
M  END
>  <DRUGBANK_ID>
DB09178

>  <COMMON_NAME>
Phenaridine

>  <CAS_NUMBER>
42045-97-6

>  <UNII>
S07S9928YH

>  <SYNONYMS>
2,5-Dimethylfentanyl

$$$$
