1349
 OpenBabel10282417113D

 52 56  0  0  0  0  0  0  0  0999 V2000
    1.2407   -0.1464   -0.3732 O   0  0  0  0  0  0  0  0  0  0  0  0
    3.2486   -1.1154    0.2653 N   0  0  0  0  0  0  0  0  0  0  0  0
    4.7477   -1.9695    1.9300 N   0  0  0  0  0  0  0  0  0  0  0  0
    6.1596   -0.5251    3.1803 N   0  0  0  0  0  0  0  0  0  0  0  0
    9.0052   -5.8822   -1.0993 N   0  0  0  0  0  0  0  0  0  0  0  0
    7.0933   -6.3581   -2.2148 N   0  0  0  0  0  0  0  0  0  0  0  0
    8.1469   -6.6565   -0.4156 N   0  0  0  0  0  0  0  0  0  0  0  0
    7.0142   -6.9812   -1.0463 N   0  0  0  0  0  0  0  0  0  0  0  0
    3.8835    1.5733    1.0225 C   0  0  0  0  0  0  0  0  0  0  0  0
    4.5563    0.3864    1.6402 C   0  0  0  0  0  0  0  0  0  0  0  0
    3.2048    1.2236   -0.2772 C   0  0  0  0  0  0  0  0  0  0  0  0
    4.2096   -0.9098    1.2981 C   0  0  0  0  0  0  0  0  0  0  0  0
    3.1348   -2.3931   -0.4491 C   0  0  0  0  0  0  0  0  0  0  0  0
    2.4416   -0.0579   -0.1126 C   0  0  0  0  0  0  0  0  0  0  0  0
    5.5328    0.5286    2.6166 C   0  0  0  0  0  0  0  0  0  0  0  0
    4.3604   -2.7167   -1.3044 C   0  0  0  0  0  0  0  0  0  0  0  0
    5.7422   -1.7450    2.8098 C   0  0  0  0  0  0  0  0  0  0  0  0
    5.6022   -2.9345   -0.6975 C   0  0  0  0  0  0  0  0  0  0  0  0
    4.3057   -2.8338   -2.6983 C   0  0  0  0  0  0  0  0  0  0  0  0
    5.9244    1.8991    3.0918 C   0  0  0  0  0  0  0  0  0  0  0  0
    6.7091   -3.2616   -2.7912 C   0  0  0  0  0  0  0  0  0  0  0  0
    6.7670   -3.1319   -1.4124 C   0  0  0  0  0  0  0  0  0  0  0  0
    5.4683   -3.1189   -3.4293 C   0  0  0  0  0  0  0  0  0  0  0  0
    7.9200   -3.5870   -3.5399 C   0  0  0  0  0  0  0  0  0  0  0  0
    6.4630   -2.9379    3.3721 C   0  0  0  0  0  0  0  0  0  0  0  0
    8.6816   -4.7513   -3.2791 C   0  0  0  0  0  0  0  0  0  0  0  0
    8.3520   -2.6833   -4.5264 C   0  0  0  0  0  0  0  0  0  0  0  0
    9.8427   -4.9873   -4.0254 C   0  0  0  0  0  0  0  0  0  0  0  0
    9.5027   -2.9319   -5.2633 C   0  0  0  0  0  0  0  0  0  0  0  0
    8.2965   -5.6883   -2.2282 C   0  0  0  0  0  0  0  0  0  0  0  0
   10.2436   -4.0844   -5.0160 C   0  0  0  0  0  0  0  0  0  0  0  0
    8.3377   -6.9734    0.5312 H   0  0  0  0  0  0  0  0  0  0  0  0
    4.6103    2.3656    0.8133 H   0  0  0  0  0  0  0  0  0  0  0  0
    3.1499    1.9615    1.7380 H   0  0  0  0  0  0  0  0  0  0  0  0
    3.9455    1.0571   -1.0716 H   0  0  0  0  0  0  0  0  0  0  0  0
    2.5476    2.0332   -0.6077 H   0  0  0  0  0  0  0  0  0  0  0  0
    2.9226   -3.2102    0.2459 H   0  0  0  0  0  0  0  0  0  0  0  0
    2.2751   -2.3275   -1.1328 H   0  0  0  0  0  0  0  0  0  0  0  0
    5.7135   -2.9825    0.3688 H   0  0  0  0  0  0  0  0  0  0  0  0
    3.3674   -2.7374   -3.2385 H   0  0  0  0  0  0  0  0  0  0  0  0
    6.3274    2.4886    2.2617 H   0  0  0  0  0  0  0  0  0  0  0  0
    5.0442    2.4109    3.4966 H   0  0  0  0  0  0  0  0  0  0  0  0
    6.6839    1.8535    3.8752 H   0  0  0  0  0  0  0  0  0  0  0  0
    7.7025   -3.2357   -0.8657 H   0  0  0  0  0  0  0  0  0  0  0  0
    5.4078   -3.2506   -4.5079 H   0  0  0  0  0  0  0  0  0  0  0  0
    7.5393   -2.8706    3.1755 H   0  0  0  0  0  0  0  0  0  0  0  0
    6.3082   -2.9955    4.4527 H   0  0  0  0  0  0  0  0  0  0  0  0
    6.1032   -3.8700    2.9221 H   0  0  0  0  0  0  0  0  0  0  0  0
    7.7882   -1.7689   -4.7068 H   0  0  0  0  0  0  0  0  0  0  0  0
   10.4386   -5.8776   -3.8394 H   0  0  0  0  0  0  0  0  0  0  0  0
    9.8165   -2.2223   -6.0240 H   0  0  0  0  0  0  0  0  0  0  0  0
   11.1429   -4.2763   -5.5940 H   0  0  0  0  0  0  0  0  0  0  0  0
  1 14  2  0  0  0  0
  2 12  1  0  0  0  0
  2 13  1  0  0  0  0
  2 14  1  0  0  0  0
  3 12  2  0  0  0  0
  3 17  1  0  0  0  0
  4 15  1  0  0  0  0
  4 17  2  0  0  0  0
  5  7  1  0  0  0  0
  5 30  2  0  0  0  0
  6  8  2  0  0  0  0
  6 30  1  0  0  0  0
  7  8  1  0  0  0  0
  7 32  1  0  0  0  0
  9 10  1  0  0  0  0
  9 11  1  0  0  0  0
  9 33  1  0  0  0  0
  9 34  1  0  0  0  0
 10 12  1  0  0  0  0
 10 15  2  0  0  0  0
 11 14  1  0  0  0  0
 11 35  1  0  0  0  0
 11 36  1  0  0  0  0
 13 16  1  0  0  0  0
 13 37  1  0  0  0  0
 13 38  1  0  0  0  0
 15 20  1  0  0  0  0
 16 18  2  0  0  0  0
 16 19  1  0  0  0  0
 17 25  1  0  0  0  0
 18 22  1  0  0  0  0
 18 39  1  0  0  0  0
 19 23  2  0  0  0  0
 19 40  1  0  0  0  0
 20 41  1  0  0  0  0
 20 42  1  0  0  0  0
 20 43  1  0  0  0  0
 21 22  2  0  0  0  0
 21 23  1  0  0  0  0
 21 24  1  0  0  0  0
 22 44  1  0  0  0  0
 23 45  1  0  0  0  0
 24 26  1  0  0  0  0
 24 27  2  0  0  0  0
 25 46  1  0  0  0  0
 25 47  1  0  0  0  0
 25 48  1  0  0  0  0
 26 28  2  0  0  0  0
 26 30  1  0  0  0  0
 27 29  1  0  0  0  0
 27 49  1  0  0  0  0
 28 31  1  0  0  0  0
 28 50  1  0  0  0  0
 29 31  2  0  0  0  0
 29 51  1  0  0  0  0
 31 52  1  0  0  0  0
M  END
>  <DRUGBANK_ID>
DB01349

>  <COMMON_NAME>
Tasosartan

>  <CAS_NUMBER>
145733-36-4

>  <UNII>
48G92V856H

>  <SYNONYMS>
Tasosartan

$$$$
