TFC
 OpenBabel10282417173D

 35 34  0  0  0  0  0  0  0  0999 V2000
    1.0421    0.0004    0.0440 C   0  0  0  0  0  0  0  0  0  0  0  0
    0.6307    0.5008   -1.3308 C   0  0  0  0  0  0  0  0  0  0  0  0
    1.1814   -0.4229   -2.4237 C   0  0  0  0  0  0  0  0  0  0  0  0
    0.6553   -1.8481   -2.2814 C   0  0  0  0  0  0  0  0  0  0  0  0
   -0.8589   -1.8356   -2.3467 C   0  0  0  0  0  0  0  0  0  0  0  0
   -1.3557   -1.2954   -3.6889 C   0  0  0  0  0  0  0  0  0  0  0  0
   -1.0589   -2.2717   -4.8114 C   0  0  0  0  0  0  0  0  0  0  0  0
   -1.6454   -3.6600   -4.5533 C   0  0  0  0  0  0  0  0  0  0  0  0
   -3.4874   -3.7447   -4.5916 S   0  0  0  0  0  0  0  0  0  0  0  0
   -4.1187   -2.7979   -3.1529 C   0  0  0  0  0  0  0  0  0  0  0  0
   -3.6474   -3.1916   -1.7792 C   0  0  0  0  0  0  0  0  0  0  0  0
   -3.2825   -2.3202   -0.9671 O   0  0  0  0  0  0  0  0  0  0  0  0
   -3.8658   -4.6160   -1.3561 C   0  0  0  0  0  0  0  0  0  0  0  0
   -5.1959   -4.8757   -1.2435 F   0  0  0  0  0  0  0  0  0  0  0  0
   -3.3575   -5.5295   -2.2223 F   0  0  0  0  0  0  0  0  0  0  0  0
   -3.3118   -4.9010   -0.1459 F   0  0  0  0  0  0  0  0  0  0  0  0
    0.6319   -0.9917    0.2620 H   0  0  0  0  0  0  0  0  0  0  0  0
    0.6810    0.6701    0.8255 H   0  0  0  0  0  0  0  0  0  0  0  0
    2.1322   -0.0661    0.0983 H   0  0  0  0  0  0  0  0  0  0  0  0
   -0.4627    0.5869   -1.3762 H   0  0  0  0  0  0  0  0  0  0  0  0
    1.0011    1.5154   -1.4962 H   0  0  0  0  0  0  0  0  0  0  0  0
    0.9190   -0.0142   -3.4054 H   0  0  0  0  0  0  0  0  0  0  0  0
    2.2725   -0.4393   -2.4051 H   0  0  0  0  0  0  0  0  0  0  0  0
    1.0685   -2.4987   -3.0583 H   0  0  0  0  0  0  0  0  0  0  0  0
    0.9709   -2.3063   -1.3384 H   0  0  0  0  0  0  0  0  0  0  0  0
   -1.1913   -2.8530   -2.1404 H   0  0  0  0  0  0  0  0  0  0  0  0
   -1.2814   -1.2395   -1.5348 H   0  0  0  0  0  0  0  0  0  0  0  0
   -2.4098   -1.0707   -3.6626 H   0  0  0  0  0  0  0  0  0  0  0  0
   -0.9512   -0.3073   -3.9163 H   0  0  0  0  0  0  0  0  0  0  0  0
   -1.4229   -1.8694   -5.7622 H   0  0  0  0  0  0  0  0  0  0  0  0
    0.0301   -2.3523   -4.9328 H   0  0  0  0  0  0  0  0  0  0  0  0
   -1.2832   -4.3133   -5.3575 H   0  0  0  0  0  0  0  0  0  0  0  0
   -1.2617   -4.1321   -3.6434 H   0  0  0  0  0  0  0  0  0  0  0  0
   -4.0297   -1.7188   -3.2824 H   0  0  0  0  0  0  0  0  0  0  0  0
   -5.2028   -2.9351   -3.1461 H   0  0  0  0  0  0  0  0  0  0  0  0
  1  2  1  0  0  0  0
  1 17  1  0  0  0  0
  1 18  1  0  0  0  0
  1 19  1  0  0  0  0
  2  3  1  0  0  0  0
  2 20  1  0  0  0  0
  2 21  1  0  0  0  0
  3  4  1  0  0  0  0
  3 22  1  0  0  0  0
  3 23  1  0  0  0  0
  4  5  1  0  0  0  0
  4 24  1  0  0  0  0
  4 25  1  0  0  0  0
  5  6  1  0  0  0  0
  5 26  1  0  0  0  0
  5 27  1  0  0  0  0
  6  7  1  0  0  0  0
  6 28  1  0  0  0  0
  6 29  1  0  0  0  0
  7  8  1  0  0  0  0
  7 30  1  0  0  0  0
  7 31  1  0  0  0  0
  8  9  1  0  0  0  0
  8 32  1  0  0  0  0
  8 33  1  0  0  0  0
  9 10  1  0  0  0  0
 10 11  1  0  0  0  0
 10 34  1  0  0  0  0
 10 35  1  0  0  0  0
 11 12  2  0  0  0  0
 11 13  1  0  0  0  0
 13 14  1  0  0  0  0
 13 15  1  0  0  0  0
 13 16  1  0  0  0  0
M  END
>  <DRUGBANK_ID>
DB08612

>  <COMMON_NAME>
1,1,1-TRIFLUORO-3-(OCTYLTHIO)ACETONE

>  <UNII>
7OYG5MD7P9

$$$$
