1461
 OpenBabel10282417113D

 49 50  0  0  0  0  0  0  0  0999 V2000
    1.4255   -0.0070   -0.4701 O   0  0  0  0  0  0  0  0  0  0  0  0
   -1.4034    0.0327   -0.4623 O   0  0  0  0  0  0  0  0  0  0  0  0
   -1.5302   -1.6046   -1.9601 O   0  0  0  0  0  0  0  0  0  0  0  0
    0.4998   -1.1058    1.6695 N   0  0  0  0  0  0  0  0  0  0  0  0
    0.8511   -1.0665   -1.2897 C   0  0  0  0  0  0  0  0  0  0  0  0
    1.2103   -0.6982   -2.7105 C   0  0  0  0  0  0  0  0  0  0  0  0
    1.3598   -2.5918   -0.9424 C   0  0  0  0  0  0  0  0  0  0  0  0
   -0.7980   -0.9188   -1.2680 C   0  0  0  0  0  0  0  0  0  0  0  0
    1.1076    0.6381   -3.1240 C   0  0  0  0  0  0  0  0  0  0  0  0
    2.2663   -2.8412    0.0994 C   0  0  0  0  0  0  0  0  0  0  0  0
    1.7292   -1.6659   -3.5697 C   0  0  0  0  0  0  0  0  0  0  0  0
    0.7351   -3.7604   -1.4373 C   0  0  0  0  0  0  0  0  0  0  0  0
    2.8179    0.2390   -0.3905 C   0  0  0  0  0  0  0  0  0  0  0  0
   -0.8534    0.8379    0.6240 C   0  0  0  0  0  0  0  0  0  0  0  0
   -0.2414    0.1326    1.8920 C   0  0  0  0  0  0  0  0  0  0  0  0
    1.6474    0.9968   -4.3422 C   0  0  0  0  0  0  0  0  0  0  0  0
    2.3536   -4.0519    0.8053 C   0  0  0  0  0  0  0  0  0  0  0  0
    2.3060   -1.3035   -4.7541 C   0  0  0  0  0  0  0  0  0  0  0  0
    0.9132   -5.0194   -0.8105 C   0  0  0  0  0  0  0  0  0  0  0  0
    2.2541    0.0253   -5.1439 C   0  0  0  0  0  0  0  0  0  0  0  0
    1.6893   -5.1582    0.3372 C   0  0  0  0  0  0  0  0  0  0  0  0
    3.0981    1.2081    0.7537 C   0  0  0  0  0  0  0  0  0  0  0  0
    1.4738   -1.4470    2.7081 C   0  0  0  0  0  0  0  0  0  0  0  0
   -0.4701   -2.1351    1.3057 C   0  0  0  0  0  0  0  0  0  0  0  0
    0.6842    1.3963   -2.4617 H   0  0  0  0  0  0  0  0  0  0  0  0
    2.7373   -2.0176    0.5840 H   0  0  0  0  0  0  0  0  0  0  0  0
    1.7656   -2.7168   -3.3192 H   0  0  0  0  0  0  0  0  0  0  0  0
    0.0117   -3.6980   -2.2474 H   0  0  0  0  0  0  0  0  0  0  0  0
    3.4085   -0.6401   -0.1854 H   0  0  0  0  0  0  0  0  0  0  0  0
    3.2086    0.6290   -1.3273 H   0  0  0  0  0  0  0  0  0  0  0  0
   -0.1931    1.5808    0.1720 H   0  0  0  0  0  0  0  0  0  0  0  0
   -1.7048    1.4181    1.0139 H   0  0  0  0  0  0  0  0  0  0  0  0
    0.3752    0.8838    2.3987 H   0  0  0  0  0  0  0  0  0  0  0  0
   -1.0424   -0.1272    2.5922 H   0  0  0  0  0  0  0  0  0  0  0  0
    1.6364    2.0387   -4.6397 H   0  0  0  0  0  0  0  0  0  0  0  0
    2.8166   -4.0667    1.7931 H   0  0  0  0  0  0  0  0  0  0  0  0
    2.8125   -2.0762   -5.3196 H   0  0  0  0  0  0  0  0  0  0  0  0
    0.3418   -5.8761   -1.1538 H   0  0  0  0  0  0  0  0  0  0  0  0
    2.6981    0.2985   -6.0894 H   0  0  0  0  0  0  0  0  0  0  0  0
    1.7338   -6.0866    0.8995 H   0  0  0  0  0  0  0  0  0  0  0  0
    2.6536    0.8936    1.7026 H   0  0  0  0  0  0  0  0  0  0  0  0
    4.1769    1.2806    0.9168 H   0  0  0  0  0  0  0  0  0  0  0  0
    2.6921    2.1992    0.5380 H   0  0  0  0  0  0  0  0  0  0  0  0
    1.0745   -2.1699    3.4122 H   0  0  0  0  0  0  0  0  0  0  0  0
    2.4131   -1.8921    2.3627 H   0  0  0  0  0  0  0  0  0  0  0  0
    1.8795   -0.5648    3.2140 H   0  0  0  0  0  0  0  0  0  0  0  0
   -0.9004   -2.7425    2.0822 H   0  0  0  0  0  0  0  0  0  0  0  0
   -1.3194   -1.6579    0.8382 H   0  0  0  0  0  0  0  0  0  0  0  0
   -0.1881   -2.8043    0.5181 H   0  0  0  0  0  0  0  0  0  0  0  0
  1  5  1  0  0  0  0
  1 13  1  0  0  0  0
  2  8  1  0  0  0  0
  2 14  1  0  0  0  0
  3  8  2  0  0  0  0
  4 15  1  0  0  0  0
  4 23  1  0  0  0  0
  4 24  1  0  0  0  0
  5  6  1  0  0  0  0
  5  7  1  0  0  0  0
  5  8  1  0  0  0  0
  6  9  2  0  0  0  0
  6 11  1  0  0  0  0
  7 10  2  0  0  0  0
  7 12  1  0  0  0  0
  9 16  1  0  0  0  0
  9 25  1  0  0  0  0
 10 17  1  0  0  0  0
 10 26  1  0  0  0  0
 11 18  2  0  0  0  0
 11 27  1  0  0  0  0
 12 19  2  0  0  0  0
 12 28  1  0  0  0  0
 13 22  1  0  0  0  0
 13 29  1  0  0  0  0
 13 30  1  0  0  0  0
 14 15  1  0  0  0  0
 14 31  1  0  0  0  0
 14 32  1  0  0  0  0
 15 33  1  0  0  0  0
 15 34  1  0  0  0  0
 16 20  2  0  0  0  0
 16 35  1  0  0  0  0
 17 21  2  0  0  0  0
 17 36  1  0  0  0  0
 18 20  1  0  0  0  0
 18 37  1  0  0  0  0
 19 21  1  0  0  0  0
 19 38  1  0  0  0  0
 20 39  1  0  0  0  0
 21 40  1  0  0  0  0
 22 41  1  0  0  0  0
 22 42  1  0  0  0  0
 22 43  1  0  0  0  0
 23 44  1  0  0  0  0
 23 45  1  0  0  0  0
 23 46  1  0  0  0  0
 24 47  1  0  0  0  0
 24 48  1  0  0  0  0
 24 49  1  0  0  0  0
M  END
>  <DRUGBANK_ID>
DB01461

>  <COMMON_NAME>
Dimenoxadol

>  <CAS_NUMBER>
509-78-4

>  <UNII>
4D65PBX0VK

>  <SYNONYMS>
Dimenossadolo; Dimenoxadol; Dimenoxadole; Dimenoxadolum

$$$$
