
 OpenBabel10282417173D

 42 42  0  0  0  0  0  0  0  0999 V2000
    1.2782   -0.2607    0.0583 C   0  0  0  0  0  0  0  0  0  0  0  0
    2.8320   -0.4876    0.2012 C   0  0  1  0  0  0  0  0  0  0  0  0
    3.6190    0.2015   -0.9639 C   0  0  0  0  0  0  0  0  0  0  0  0
    3.4828    1.7984   -1.1996 C   0  0  1  0  0  0  0  0  0  0  0  0
    3.9119    2.7561   -0.1151 N   0  0  0  0  0  0  0  0  0  0  0  0
    3.6339    4.1624   -0.2682 C   0  0  0  0  0  0  0  0  0  0  0  0
    3.3112    2.4981    1.1567 C   0  0  0  0  0  0  0  0  0  0  0  0
    4.2447    2.1561   -2.4712 C   0  0  0  0  0  0  0  0  0  0  0  0
    3.3371   -0.2749    1.7981 C   0  0  0  0  0  0  0  0  0  0  0  0
    2.5177   -0.8904    2.9330 C   0  0  0  0  0  0  0  0  0  0  0  0
    4.8840   -0.3225    1.8863 C   0  0  0  0  0  0  0  0  0  0  0  0
    3.0749   -1.9852    0.2945 C   0  0  0  0  0  0  0  0  0  0  0  0
    3.2764   -3.2275    0.3718 N   0  0  0  0  0  0  0  0  0  0  0  0
    0.3696   -1.3457    0.0081 C   0  0  0  0  0  0  0  0  0  0  0  0
   -1.0138   -1.1391   -0.0249 C   0  0  0  0  0  0  0  0  0  0  0  0
   -1.5580    0.1306   -0.0047 C   0  0  0  0  0  0  0  0  0  0  0  0
   -0.6987    1.2243    0.0185 C   0  0  0  0  0  0  0  0  0  0  0  0
    0.6728    1.0004    0.0086 C   0  0  0  0  0  0  0  0  0  0  0  0
    4.6797   -0.0787   -0.9278 H   0  0  0  0  0  0  0  0  0  0  0  0
    3.2636   -0.2829   -1.8919 H   0  0  0  0  0  0  0  0  0  0  0  0
    2.4457    1.9796   -1.4805 H   0  0  0  0  0  0  0  0  0  0  0  0
    2.5577    4.3360   -0.3681 H   0  0  0  0  0  0  0  0  0  0  0  0
    3.9664    4.6655    0.6547 H   0  0  0  0  0  0  0  0  0  0  0  0
    4.2034    4.5957   -1.0783 H   0  0  0  0  0  0  0  0  0  0  0  0
    2.2390    2.6403    1.3312 H   0  0  0  0  0  0  0  0  0  0  0  0
    3.4918    1.5002    0.9925 H   0  0  0  0  0  0  0  0  0  0  0  0
    3.8562    2.7616    2.0654 H   0  0  0  0  0  0  0  0  0  0  0  0
    3.8718    1.5736   -3.3197 H   0  0  0  0  0  0  0  0  0  0  0  0
    4.0756    3.2064   -2.7218 H   0  0  0  0  0  0  0  0  0  0  0  0
    5.3161    1.9799   -2.3542 H   0  0  0  0  0  0  0  0  0  0  0  0
    3.0729    0.6806    2.2246 H   0  0  0  0  0  0  0  0  0  0  0  0
    2.5975   -1.9637    3.0481 H   0  0  0  0  0  0  0  0  0  0  0  0
    2.8256   -0.4078    3.8761 H   0  0  0  0  0  0  0  0  0  0  0  0
    1.4669   -0.5923    2.8033 H   0  0  0  0  0  0  0  0  0  0  0  0
    5.3461    0.2069    1.0410 H   0  0  0  0  0  0  0  0  0  0  0  0
    5.2392    0.2156    2.7695 H   0  0  0  0  0  0  0  0  0  0  0  0
    5.2874   -1.3365    1.8876 H   0  0  0  0  0  0  0  0  0  0  0  0
    0.7042   -2.3773    0.0053 H   0  0  0  0  0  0  0  0  0  0  0  0
   -1.6771   -2.0071   -0.0487 H   0  0  0  0  0  0  0  0  0  0  0  0
   -2.6258    0.2941   -0.0170 H   0  0  0  0  0  0  0  0  0  0  0  0
   -1.0829    2.2357    0.0462 H   0  0  0  0  0  0  0  0  0  0  0  0
    1.2277    1.9255   -0.0593 H   0  0  0  0  0  0  0  0  0  0  0  0
  1  2  1  0  0  0  0
  1 14  2  0  0  0  0
  1 18  1  0  0  0  0
  2  3  1  0  0  0  0
  2  9  1  0  0  0  0
  2 12  1  6  0  0  0
  3  4  1  0  0  0  0
  3 19  1  0  0  0  0
  3 20  1  0  0  0  0
  4  5  1  0  0  0  0
  4  8  1  0  0  0  0
  4 21  1  6  0  0  0
  5  6  1  0  0  0  0
  5  7  1  0  0  0  0
  6 22  1  0  0  0  0
  6 23  1  0  0  0  0
  6 24  1  0  0  0  0
  7 25  1  0  0  0  0
  7 26  1  0  0  0  0
  7 27  1  0  0  0  0
  8 28  1  0  0  0  0
  8 29  1  0  0  0  0
  8 30  1  0  0  0  0
  9 10  1  0  0  0  0
  9 11  1  0  0  0  0
  9 31  1  0  0  0  0
 10 32  1  0  0  0  0
 10 33  1  0  0  0  0
 10 34  1  0  0  0  0
 11 35  1  0  0  0  0
 11 36  1  0  0  0  0
 11 37  1  0  0  0  0
 12 13  3  0  0  0  0
 14 15  1  0  0  0  0
 14 38  1  0  0  0  0
 15 16  2  0  0  0  0
 15 39  1  0  0  0  0
 16 17  1  0  0  0  0
 16 40  1  0  0  0  0
 17 18  2  0  0  0  0
 17 41  1  0  0  0  0
 18 42  1  0  0  0  0
M  END
>  <DRUGBANK_ID>
DB08944

>  <COMMON_NAME>
Isoaminile

>  <CAS_NUMBER>
77-51-0

>  <UNII>
R4823W2PQL

>  <SYNONYMS>
Isoaminile

$$$$
