1092
 OpenBabel10282417113D

 85 90  0  0  1  0  0  0  0  0999 V2000
   -1.4565   -0.0180   -0.0174 O   0  0  0  0  0  0  0  0  0  0  0  0
   -3.5819    5.1232    2.1128 O   0  0  0  0  0  0  0  0  0  0  0  0
    0.6615    3.1289   -1.3593 O   0  0  0  0  0  0  0  0  0  0  0  0
   -0.3537    5.2833   -1.8658 O   0  0  0  0  0  0  0  0  0  0  0  0
    0.3039    6.4368    0.7485 O   0  0  0  0  0  0  0  0  0  0  0  0
   -3.7136    4.2409   -2.0751 O   0  0  0  0  0  0  0  0  0  0  0  0
   -0.1335   -4.5135    3.0018 O   0  0  0  0  0  0  0  0  0  0  0  0
   -1.9710    5.4995   -3.6355 O   0  0  0  0  0  0  0  0  0  0  0  0
   -2.2677   -4.5303    3.7802 O   0  0  0  0  0  0  0  0  0  0  0  0
   -3.6068    4.0887   -5.4190 O   0  0  0  0  0  0  0  0  0  0  0  0
   -5.9468    5.7215   -4.6624 O   0  0  0  0  0  0  0  0  0  0  0  0
   -4.4416    8.1556   -3.7664 O   0  0  0  0  0  0  0  0  0  0  0  0
   -0.7792    3.6134    0.6757 C   0  0  1  0  0  0  0  0  0  0  0  0
   -1.4976    2.3043    0.2473 C   0  0  2  0  0  0  0  0  0  0  0  0
   -0.7099    1.0391    0.6021 C   0  0  1  0  0  0  0  0  0  0  0  0
    0.7906    0.7672    0.3671 C   0  0  2  0  0  0  0  0  0  0  0  0
   -1.6144    4.9179    0.3632 C   0  0  2  0  0  0  0  0  0  0  0  0
   -3.3577    4.8668    0.7438 C   0  0  1  0  0  0  0  0  0  0  0  0
    0.6825    3.4468    0.0352 C   0  0  1  0  0  0  0  0  0  0  0  0
    1.4146    2.2796    0.8169 C   0  0  0  0  0  0  0  0  0  0  0  0
    0.7651   -0.8514    1.3835 C   0  0  2  0  0  0  0  0  0  0  0  0
   -2.9558    2.1544    0.7706 C   0  0  0  0  0  0  0  0  0  0  0  0
   -0.6582    0.9569    2.1595 C   0  0  0  0  0  0  0  0  0  0  0  0
   -3.8857    3.2758    0.3975 C   0  0  0  0  0  0  0  0  0  0  0  0
   -1.5284    4.9611   -1.1422 C   0  0  1  0  0  0  0  0  0  0  0  0
    0.5465    0.0935    2.5392 C   0  0  0  0  0  0  0  0  0  0  0  0
   -4.2634    6.1472   -0.0669 C   0  0  0  0  0  0  0  0  0  0  0  0
   -1.0772    6.2593    0.9532 C   0  0  0  0  0  0  0  0  0  0  0  0
    1.5350    0.6991   -1.0756 C   0  0  0  0  0  0  0  0  0  0  0  0
   -2.6551    5.8992   -1.2959 C   0  0  0  0  0  0  0  0  0  0  0  0
   -3.8847    5.1145   -1.0388 C   0  0  2  0  0  0  0  0  0  0  0  0
   -0.0666   -2.2243    2.2240 C   0  0  0  0  0  0  0  0  0  0  0  0
    0.6991   -3.5376    2.3617 C   0  0  0  0  0  0  0  0  0  0  0  0
   -1.2788   -2.5246    2.7793 C   0  0  0  0  0  0  0  0  0  0  0  0
   -2.9244    4.3706   -3.2495 C   0  0  2  0  0  0  0  0  0  0  0  0
   -1.3585   -3.9661    3.2762 C   0  0  0  0  0  0  0  0  0  0  0  0
   -4.0976    4.3071   -4.1221 C   0  0  1  0  0  0  0  0  0  0  0  0
   -4.7628    5.6915   -3.8875 C   0  0  1  0  0  0  0  0  0  0  0  0
   -2.3686    6.9145   -3.6587 C   0  0  2  0  0  0  0  0  0  0  0  0
   -3.8098    6.9453   -4.1930 C   0  0  2  0  0  0  0  0  0  0  0  0
   -1.2462    7.9754   -3.7621 C   0  0  0  0  0  0  0  0  0  0  0  0
   -0.6734    3.6699    1.7554 H   0  0  0  0  0  0  0  0  0  0  0  0
   -1.5617    2.2368   -0.8512 H   0  0  0  0  0  0  0  0  0  0  0  0
   -1.2517    0.0010   -0.9738 H   0  0  0  0  0  0  0  0  0  0  0  0
   -3.7140    4.2559    2.5235 H   0  0  0  0  0  0  0  0  0  0  0  0
    0.7061    3.9729   -1.8589 H   0  0  0  0  0  0  0  0  0  0  0  0
   -0.6024    5.2330   -2.8248 H   0  0  0  0  0  0  0  0  0  0  0  0
    0.7349    5.7667    1.2930 H   0  0  0  0  0  0  0  0  0  0  0  0
   -2.7110    4.4843   -5.3923 H   0  0  0  0  0  0  0  0  0  0  0  0
   -5.6703    5.3244   -5.5024 H   0  0  0  0  0  0  0  0  0  0  0  0
   -4.2138    8.3546   -2.8374 H   0  0  0  0  0  0  0  0  0  0  0  0
    1.2462    4.3781    0.0986 H   0  0  0  0  0  0  0  0  0  0  0  0
    2.0820    2.8897    1.4595 H   0  0  0  0  0  0  0  0  0  0  0  0
    2.4147    1.9167    0.5650 H   0  0  0  0  0  0  0  0  0  0  0  0
    0.0530   -1.2188    0.6231 H   0  0  0  0  0  0  0  0  0  0  0  0
   -3.0756    1.9328    1.8268 H   0  0  0  0  0  0  0  0  0  0  0  0
   -3.3412    1.2587    0.2526 H   0  0  0  0  0  0  0  0  0  0  0  0
   -0.4620    1.9300    2.6240 H   0  0  0  0  0  0  0  0  0  0  0  0
   -1.6049    0.5896    2.5434 H   0  0  0  0  0  0  0  0  0  0  0  0
   -4.9394    3.1355    0.6716 H   0  0  0  0  0  0  0  0  0  0  0  0
   -3.9393    2.9818   -0.6558 H   0  0  0  0  0  0  0  0  0  0  0  0
   -1.7390    3.9460   -1.4441 H   0  0  0  0  0  0  0  0  0  0  0  0
    0.5439   -0.2474    3.5741 H   0  0  0  0  0  0  0  0  0  0  0  0
    1.4880    0.6623    2.5296 H   0  0  0  0  0  0  0  0  0  0  0  0
   -5.2444    6.4423    0.3430 H   0  0  0  0  0  0  0  0  0  0  0  0
   -4.5256    6.7821   -0.9924 H   0  0  0  0  0  0  0  0  0  0  0  0
   -1.5204    7.1755    0.5487 H   0  0  0  0  0  0  0  0  0  0  0  0
   -1.3227    6.3336    2.0070 H   0  0  0  0  0  0  0  0  0  0  0  0
    0.8981    0.7329   -1.9646 H   0  0  0  0  0  0  0  0  0  0  0  0
    2.1576    1.6169   -1.2370 H   0  0  0  0  0  0  0  0  0  0  0  0
    2.3719   -0.0002   -1.1595 H   0  0  0  0  0  0  0  0  0  0  0  0
   -3.1951    6.2820   -2.0899 H   0  0  0  0  0  0  0  0  0  0  0  0
   -2.2985    6.8567   -0.9319 H   0  0  0  0  0  0  0  0  0  0  0  0
   -4.9751    4.9961   -1.1606 H   0  0  0  0  0  0  0  0  0  0  0  0
    1.5780   -3.4535    2.9999 H   0  0  0  0  0  0  0  0  0  0  0  0
    0.9384   -3.9596    1.3873 H   0  0  0  0  0  0  0  0  0  0  0  0
   -2.2090   -1.9963    2.9188 H   0  0  0  0  0  0  0  0  0  0  0  0
   -2.3070    3.4556   -3.2749 H   0  0  0  0  0  0  0  0  0  0  0  0
   -4.7456    3.4593   -3.7895 H   0  0  0  0  0  0  0  0  0  0  0  0
   -5.1826    5.7702   -2.8809 H   0  0  0  0  0  0  0  0  0  0  0  0
   -2.4765    7.4503   -2.6969 H   0  0  0  0  0  0  0  0  0  0  0  0
   -3.6772    6.9388   -5.2629 H   0  0  0  0  0  0  0  0  0  0  0  0
   -0.5259    7.7700   -4.5364 H   0  0  0  0  0  0  0  0  0  0  0  0
   -1.6776    8.9879   -3.8194 H   0  0  0  0  0  0  0  0  0  0  0  0
   -0.6522    8.0281   -2.8108 H   0  0  0  0  0  0  0  0  0  0  0  0
  1 44  1  0  0  0  0
  2 45  1  0  0  0  0
  3 46  1  0  0  0  0
  4 47  1  0  0  0  0
  5 28  1  0  0  0  0
  5 48  1  0  0  0  0
  7 33  1  0  0  0  0
  7 36  1  0  0  0  0
  8 35  1  0  0  0  0
  8 39  1  0  0  0  0
  9 36  2  0  0  0  0
 10 49  1  0  0  0  0
 11 50  1  0  0  0  0
 12 51  1  0  0  0  0
 13 14  1  0  0  0  0
 13 17  1  0  0  0  0
 13 19  1  0  0  0  0
 13 42  1  6  0  0  0
 14 15  1  0  0  0  0
 14 22  1  0  0  0  0
 14 43  1  1  0  0  0
 15 16  1  0  0  0  0
 15 23  1  0  0  0  0
 15  1  1  1  0  0  0
 16 20  1  0  0  0  0
 16 21  1  0  0  0  0
 16 29  1  1  0  0  0
 17 18  1  0  0  0  0
 17 25  1  0  0  0  0
 17 28  1  1  0  0  0
 18 24  1  0  0  0  0
 18 27  1  0  0  0  0
 18  2  1  1  0  0  0
 19 20  1  0  0  0  0
 19 52  1  1  0  0  0
 19  3  1  0  0  0  0
 20 53  1  0  0  0  0
 20 54  1  0  0  0  0
 21 26  1  0  0  0  0
 21 32  1  0  0  0  0
 21 55  1  6  0  0  0
 22 24  1  0  0  0  0
 22 56  1  0  0  0  0
 22 57  1  0  0  0  0
 23 26  1  0  0  0  0
 23 58  1  0  0  0  0
 23 59  1  0  0  0  0
 24 60  1  0  0  0  0
 24 61  1  0  0  0  0
 25 30  1  0  0  0  0
 25  4  1  0  0  0  0
 25 62  1  6  0  0  0
 26 63  1  0  0  0  0
 26 64  1  0  0  0  0
 27 31  1  0  0  0  0
 27 65  1  0  0  0  0
 27 66  1  0  0  0  0
 28 67  1  0  0  0  0
 28 68  1  0  0  0  0
 29 69  1  0  0  0  0
 29 70  1  0  0  0  0
 29 71  1  0  0  0  0
 30 31  1  0  0  0  0
 30 72  1  0  0  0  0
 30 73  1  0  0  0  0
 31 74  1  1  0  0  0
 31  6  1  0  0  0  0
 32 33  1  0  0  0  0
 32 34  2  0  0  0  0
 33 75  1  0  0  0  0
 33 76  1  0  0  0  0
 34 36  1  0  0  0  0
 34 77  1  0  0  0  0
 35  6  1  0  0  0  0
 35 37  1  0  0  0  0
 35 78  1  6  0  0  0
 37 10  1  0  0  0  0
 37 38  1  0  0  0  0
 37 79  1  1  0  0  0
 38 11  1  0  0  0  0
 38 40  1  0  0  0  0
 38 80  1  1  0  0  0
 39 40  1  0  0  0  0
 39 81  1  1  0  0  0
 39 41  1  0  0  0  0
 40 82  1  6  0  0  0
 40 12  1  0  0  0  0
 41 83  1  0  0  0  0
 41 84  1  0  0  0  0
 41 85  1  0  0  0  0
M  END
>  <DRUGBANK_ID>
DB01092

>  <SECONDARY_ACCESSION_NUMBERS>
APRD00135

>  <COMMON_NAME>
Ouabain

>  <CAS_NUMBER>
630-60-4

>  <UNII>
5ACL011P69

>  <SYNONYMS>
3-(α-L-rhamnopyranosyloxy)-1β,5β,11α,14,19-pentahydroxy-5β-card-20(22)-enolide; G-Strophanthin; Ouabagenin L-Rhamnoside; Ouabagenin-L-rhamnosid; Ouabain anhydrous; Ouabaine; Oubain

$$$$
