487
 OpenBabel10282417103D

 44 46  0  0  0  0  0  0  0  0999 V2000
    0.8361   -0.0049   -0.1047 F   0  0  0  0  0  0  0  0  0  0  0  0
    4.3720   -3.5027    0.1773 O   0  0  0  0  0  0  0  0  0  0  0  0
    6.4909   -4.7989    0.7190 O   0  0  0  0  0  0  0  0  0  0  0  0
    8.3873   -3.6437    1.0990 O   0  0  0  0  0  0  0  0  0  0  0  0
    2.1186    2.4549    0.1017 N   0  0  0  0  0  0  0  0  0  0  0  0
    0.5109    4.8305   -0.0584 N   0  0  0  0  0  0  0  0  0  0  0  0
    6.3637    0.0321    0.5119 N   0  0  0  0  0  0  0  0  0  0  0  0
    1.2582    2.8229    1.2362 C   0  0  0  0  0  0  0  0  0  0  0  0
    2.5692    3.5758   -0.7286 C   0  0  0  0  0  0  0  0  0  0  0  0
    0.0575    3.6398    0.7048 C   0  0  0  0  0  0  0  0  0  0  0  0
    1.3277    4.3625   -1.2034 C   0  0  0  0  0  0  0  0  0  0  0  0
    2.8215    1.2694    0.1317 C   0  0  0  0  0  0  0  0  0  0  0  0
    4.9650    0.0637    0.3014 C   0  0  0  0  0  0  0  0  0  0  0  0
    4.2137    1.2526    0.2523 C   0  0  0  0  0  0  0  0  0  0  0  0
   -0.6271    5.6110   -0.5265 C   0  0  0  0  0  0  0  0  0  0  0  0
    2.1733    0.0378   -0.0029 C   0  0  0  0  0  0  0  0  0  0  0  0
    4.2574   -1.1409    0.1490 C   0  0  0  0  0  0  0  0  0  0  0  0
    2.8780   -1.1552   -0.0588 C   0  0  0  0  0  0  0  0  0  0  0  0
    7.0865    1.3147    0.6452 C   0  0  0  0  0  0  0  0  0  0  0  0
    4.9662   -2.4310    0.2840 C   0  0  0  0  0  0  0  0  0  0  0  0
    6.9881   -1.2019    0.6966 C   0  0  0  0  0  0  0  0  0  0  0  0
    6.4065   -2.4118    0.6073 C   0  0  0  0  0  0  0  0  0  0  0  0
    7.1144    2.0982   -0.6686 C   0  0  0  0  0  0  0  0  0  0  0  0
    7.1895   -3.6474    0.8309 C   0  0  0  0  0  0  0  0  0  0  0  0
    5.5332   -4.6780    0.5004 H   0  0  0  0  0  0  0  0  0  0  0  0
    1.8239    3.4343    1.9536 H   0  0  0  0  0  0  0  0  0  0  0  0
    0.8904    1.9431    1.7763 H   0  0  0  0  0  0  0  0  0  0  0  0
    3.2452    4.2344   -0.1682 H   0  0  0  0  0  0  0  0  0  0  0  0
    3.1051    3.2107   -1.6130 H   0  0  0  0  0  0  0  0  0  0  0  0
   -0.5670    3.9484    1.5504 H   0  0  0  0  0  0  0  0  0  0  0  0
   -0.5518    2.9893    0.0615 H   0  0  0  0  0  0  0  0  0  0  0  0
    0.7238    3.7088   -1.8494 H   0  0  0  0  0  0  0  0  0  0  0  0
    1.6593    5.2115   -1.8102 H   0  0  0  0  0  0  0  0  0  0  0  0
    4.6889    2.2210    0.3503 H   0  0  0  0  0  0  0  0  0  0  0  0
   -0.2794    6.4914   -1.0782 H   0  0  0  0  0  0  0  0  0  0  0  0
   -1.2887    5.0307   -1.1780 H   0  0  0  0  0  0  0  0  0  0  0  0
   -1.2087    5.9816    0.3241 H   0  0  0  0  0  0  0  0  0  0  0  0
    2.3450   -2.0822   -0.2406 H   0  0  0  0  0  0  0  0  0  0  0  0
    6.6510    1.9129    1.4570 H   0  0  0  0  0  0  0  0  0  0  0  0
    8.1269    1.1350    0.9442 H   0  0  0  0  0  0  0  0  0  0  0  0
    8.0477   -1.1238    0.9411 H   0  0  0  0  0  0  0  0  0  0  0  0
    6.1265    2.3708   -1.0480 H   0  0  0  0  0  0  0  0  0  0  0  0
    7.6585    3.0378   -0.5370 H   0  0  0  0  0  0  0  0  0  0  0  0
    7.5865    1.5103   -1.4590 H   0  0  0  0  0  0  0  0  0  0  0  0
  1 16  1  0  0  0  0
  2 20  2  0  0  0  0
  3 24  1  0  0  0  0
  3 25  1  0  0  0  0
  4 24  2  0  0  0  0
  5  8  1  0  0  0  0
  5  9  1  0  0  0  0
  5 12  1  0  0  0  0
  6 10  1  0  0  0  0
  6 11  1  0  0  0  0
  6 15  1  0  0  0  0
  7 13  1  0  0  0  0
  7 19  1  0  0  0  0
  7 21  1  0  0  0  0
  8 10  1  0  0  0  0
  8 26  1  0  0  0  0
  8 27  1  0  0  0  0
  9 11  1  0  0  0  0
  9 28  1  0  0  0  0
  9 29  1  0  0  0  0
 10 30  1  0  0  0  0
 10 31  1  0  0  0  0
 11 32  1  0  0  0  0
 11 33  1  0  0  0  0
 12 14  1  0  0  0  0
 12 16  2  0  0  0  0
 13 14  2  0  0  0  0
 13 17  1  0  0  0  0
 14 34  1  0  0  0  0
 15 35  1  0  0  0  0
 15 36  1  0  0  0  0
 15 37  1  0  0  0  0
 16 18  1  0  0  0  0
 17 18  2  0  0  0  0
 17 20  1  0  0  0  0
 18 38  1  0  0  0  0
 19 23  1  0  0  0  0
 19 39  1  0  0  0  0
 19 40  1  0  0  0  0
 20 22  1  0  0  0  0
 21 22  2  0  0  0  0
 21 41  1  0  0  0  0
 22 24  1  0  0  0  0
 23 42  1  0  0  0  0
 23 43  1  0  0  0  0
 23 44  1  0  0  0  0
M  END
>  <DRUGBANK_ID>
DB00487

>  <SECONDARY_ACCESSION_NUMBERS>
APRD00108

>  <COMMON_NAME>
Pefloxacin

>  <CAS_NUMBER>
70458-92-3

>  <UNII>
2H52Z9F2Q5

>  <SYNONYMS>
Pefloxacin; Pefloxacine; Pefloxacino; Pefloxacinum; PFLX

$$$$
