
 OpenBabel10282417223D

 23 22  0  0  1  0  0  0  0  0999 V2000
   -3.0699   -4.5181    0.6060 C   0  0  0  0  0  0  0  0  0  0  0  0
   -2.6327   -3.2175   -0.0538 C   0  0  2  0  0  0  0  0  0  0  0  0
   -1.4112   -3.4722   -0.7685 O   0  0  0  0  0  0  0  0  0  0  0  0
   -2.3592   -2.0702    0.9258 C   0  0  1  0  0  0  0  0  0  0  0  0
   -1.9415   -0.9256    0.1624 O   0  0  0  0  0  0  0  0  0  0  0  0
   -3.5336   -1.6575    1.8349 C   0  0  1  0  0  0  0  0  0  0  0  0
   -4.0341   -2.7694    2.5904 O   0  0  0  0  0  0  0  0  0  0  0  0
   -3.0705   -0.5499    2.8152 C   0  0  2  0  0  0  0  0  0  0  0  0
   -1.6432   -0.5783    2.9856 O   0  0  0  0  0  0  0  0  0  0  0  0
   -3.6501   -0.7948    4.1913 C   0  0  0  0  0  0  0  0  0  0  0  0
   -4.3436    0.0241    4.8009 O   0  0  0  0  0  0  0  0  0  0  0  0
   -2.6615   -5.3959    0.1020 H   0  0  0  0  0  0  0  0  0  0  0  0
   -4.1613   -4.5994    0.5941 H   0  0  0  0  0  0  0  0  0  0  0  0
   -2.7304   -4.5716    1.6474 H   0  0  0  0  0  0  0  0  0  0  0  0
   -3.3686   -2.8957   -0.7985 H   0  0  0  0  0  0  0  0  0  0  0  0
   -0.7936   -3.8966   -0.1462 H   0  0  0  0  0  0  0  0  0  0  0  0
   -1.5090   -2.3845    1.5464 H   0  0  0  0  0  0  0  0  0  0  0  0
   -1.1063   -1.1864   -0.2701 H   0  0  0  0  0  0  0  0  0  0  0  0
   -4.3663   -1.2730    1.2297 H   0  0  0  0  0  0  0  0  0  0  0  0
   -4.6126   -3.3014    2.0197 H   0  0  0  0  0  0  0  0  0  0  0  0
   -3.3660    0.4360    2.4384 H   0  0  0  0  0  0  0  0  0  0  0  0
   -1.4049   -0.0500    3.7636 H   0  0  0  0  0  0  0  0  0  0  0  0
   -3.3660   -1.7531    4.6594 H   0  0  0  0  0  0  0  0  0  0  0  0
  1 12  1  0  0  0  0
  1 13  1  0  0  0  0
  1 14  1  0  0  0  0
  2 15  1  6  0  0  0
  2  3  1  0  0  0  0
  2  1  1  0  0  0  0
  3 16  1  0  0  0  0
  4  2  1  0  0  0  0
  4  5  1  0  0  0  0
  4  6  1  0  0  0  0
  4 17  1  1  0  0  0
  5 18  1  0  0  0  0
  6  7  1  0  0  0  0
  6 19  1  6  0  0  0
  7 20  1  0  0  0  0
  8 10  1  0  0  0  0
  8 21  1  6  0  0  0
  8  9  1  0  0  0  0
  8  6  1  0  0  0  0
  9 22  1  0  0  0  0
 10 11  2  0  0  0  0
 10 23  1  0  0  0  0
M  END
>  <DRUGBANK_ID>
DB15236

>  <COMMON_NAME>
Fucose

>  <CAS_NUMBER>
2438-80-4

>  <UNII>
28RYY2IV3F

>  <SYNONYMS>
L-FUCOSE

$$$$
