
 OpenBabel10282417193D

 58 61  0  0  0  0  0  0  0  0999 V2000
    3.6688   13.0051    1.8445 C   0  0  0  0  0  0  0  0  0  0  0  0
    2.5437   13.9621    2.1698 C   0  0  0  0  0  0  0  0  0  0  0  0
    2.1172   13.7289    3.5891 C   0  0  0  0  0  0  0  0  0  0  0  0
    1.8680   12.3312    3.8141 N   0  0  0  0  0  0  0  0  0  0  0  0
    2.5197   11.2945    3.2171 C   0  0  0  0  0  0  0  0  0  0  0  0
    3.4165   11.6015    2.2026 N   0  0  0  0  0  0  0  0  0  0  0  0
    3.7630   10.6190    1.1463 C   0  0  3  0  0  0  0  0  0  0  0  0
    2.4059    8.4628    1.0583 C   0  0  0  0  0  0  0  0  0  0  0  0
    2.5249    9.9122    0.5932 C   0  0  0  0  0  0  0  0  0  0  0  0
    5.0113    9.7260    1.1184 C   0  0  0  0  0  0  0  0  0  0  0  0
    4.8015    8.2603    1.4222 C   0  0  0  0  0  0  0  0  0  0  0  0
    3.6277    7.7285    0.7451 N   0  0  0  0  0  0  0  0  0  0  0  0
    2.2049   10.1472    3.5545 O   0  0  0  0  0  0  0  0  0  0  0  0
    3.5439    6.6272   -0.0902 C   0  0  0  0  0  0  0  0  0  0  0  0
    2.4499    6.2960   -0.5665 O   0  0  0  0  0  0  0  0  0  0  0  0
    4.8145    5.8306   -0.4897 C   0  0  2  0  0  0  0  0  0  0  0  0
    4.3411    4.7700   -1.3317 O   0  0  0  0  0  0  0  0  0  0  0  0
    5.5935    5.2316    0.6660 C   0  0  0  0  0  0  0  0  0  0  0  0
    7.1229    4.4640    0.1997 S   0  0  0  0  0  0  0  0  0  0  0  0
    7.8302    5.3455   -0.7078 O   0  0  0  0  0  0  0  0  0  0  0  0
    7.7485    4.0697    1.4522 O   0  0  0  0  0  0  0  0  0  0  0  0
    6.7705    2.9554   -0.6846 C   0  0  0  0  0  0  0  0  0  0  0  0
    6.8854    0.5479   -0.8363 C   0  0  0  0  0  0  0  0  0  0  0  0
    7.1141    1.7291   -0.1200 C   0  0  0  0  0  0  0  0  0  0  0  0
    6.2271    2.9913   -1.9722 C   0  0  0  0  0  0  0  0  0  0  0  0
    5.8913    1.8141   -2.6529 C   0  0  0  0  0  0  0  0  0  0  0  0
    6.2637    0.5709   -2.1006 C   0  0  0  0  0  0  0  0  0  0  0  0
    6.0171   -0.5974   -2.8442 C   0  0  0  0  0  0  0  0  0  0  0  0
    5.2062    1.8616   -3.8787 C   0  0  0  0  0  0  0  0  0  0  0  0
    4.9540    0.6941   -4.5969 C   0  0  0  0  0  0  0  0  0  0  0  0
    5.3774   -0.5277   -4.0850 C   0  0  0  0  0  0  0  0  0  0  0  0
    5.1098   -1.9641   -4.9947 Cl  0  0  0  0  0  0  0  0  0  0  0  0
    3.8080   13.0930    0.7612 H   0  0  0  0  0  0  0  0  0  0  0  0
    4.6103   13.2956    2.3168 H   0  0  0  0  0  0  0  0  0  0  0  0
    1.6999   13.7956    1.4869 H   0  0  0  0  0  0  0  0  0  0  0  0
    2.8791   14.9945    2.0241 H   0  0  0  0  0  0  0  0  0  0  0  0
    1.1984   14.2851    3.8044 H   0  0  0  0  0  0  0  0  0  0  0  0
    2.8895   14.0452    4.2951 H   0  0  0  0  0  0  0  0  0  0  0  0
    1.2122   12.0570    4.5359 H   0  0  0  0  0  0  0  0  0  0  0  0
    4.1022   11.2985    0.3635 H   0  0  0  0  0  0  0  0  0  0  0  0
    2.2668    8.3700    2.1372 H   0  0  0  0  0  0  0  0  0  0  0  0
    1.5191    8.0147    0.6005 H   0  0  0  0  0  0  0  0  0  0  0  0
    1.6124   10.4597    0.8497 H   0  0  0  0  0  0  0  0  0  0  0  0
    2.6085    9.9361   -0.4994 H   0  0  0  0  0  0  0  0  0  0  0  0
    5.3029    9.7104    0.0500 H   0  0  0  0  0  0  0  0  0  0  0  0
    5.8833   10.1242    1.6434 H   0  0  0  0  0  0  0  0  0  0  0  0
    5.7038    7.7713    1.0688 H   0  0  0  0  0  0  0  0  0  0  0  0
    4.6837    8.0887    2.4958 H   0  0  0  0  0  0  0  0  0  0  0  0
    5.4280    6.4751   -1.1288 H   0  0  0  0  0  0  0  0  0  0  0  0
    4.2193    3.9570   -0.8100 H   0  0  0  0  0  0  0  0  0  0  0  0
    5.9307    5.9845    1.3762 H   0  0  0  0  0  0  0  0  0  0  0  0
    4.9955    4.5324    1.2539 H   0  0  0  0  0  0  0  0  0  0  0  0
    7.2028   -0.3959   -0.3970 H   0  0  0  0  0  0  0  0  0  0  0  0
    7.5946    1.6784    0.8552 H   0  0  0  0  0  0  0  0  0  0  0  0
    6.0334    3.9424   -2.4645 H   0  0  0  0  0  0  0  0  0  0  0  0
    6.3369   -1.5645   -2.4643 H   0  0  0  0  0  0  0  0  0  0  0  0
    4.8586    2.8121   -4.2816 H   0  0  0  0  0  0  0  0  0  0  0  0
    4.4442    0.7504   -5.5554 H   0  0  0  0  0  0  0  0  0  0  0  0
  1  2  1  0  0  0  0
  1  6  1  0  0  0  0
  1 33  1  0  0  0  0
  1 34  1  0  0  0  0
  2  3  1  0  0  0  0
  2 35  1  0  0  0  0
  2 36  1  0  0  0  0
  3  4  1  0  0  0  0
  3 37  1  0  0  0  0
  3 38  1  0  0  0  0
  4  5  1  0  0  0  0
  4 39  1  0  0  0  0
  5  6  1  0  0  0  0
  5 13  2  0  0  0  0
  6  7  1  0  0  0  0
  7 10  1  0  0  0  0
  7 40  1  0  0  0  0
  8  9  1  0  0  0  0
  8 12  1  0  0  0  0
  8 41  1  0  0  0  0
  8 42  1  0  0  0  0
  9  7  1  0  0  0  0
  9 43  1  0  0  0  0
  9 44  1  0  0  0  0
 10 11  1  0  0  0  0
 10 45  1  0  0  0  0
 10 46  1  0  0  0  0
 11 12  1  0  0  0  0
 11 47  1  0  0  0  0
 11 48  1  0  0  0  0
 12 14  1  0  0  0  0
 14 15  2  0  0  0  0
 16 18  1  0  0  0  0
 16 49  1  6  0  0  0
 16 17  1  0  0  0  0
 16 14  1  0  0  0  0
 17 50  1  0  0  0  0
 18 19  1  0  0  0  0
 18 51  1  0  0  0  0
 18 52  1  0  0  0  0
 19 20  2  0  0  0  0
 19 21  2  0  0  0  0
 19 22  1  0  0  0  0
 22 25  1  0  0  0  0
 23 24  1  0  0  0  0
 23 27  2  0  0  0  0
 23 53  1  0  0  0  0
 24 22  2  0  0  0  0
 24 54  1  0  0  0  0
 25 26  2  0  0  0  0
 25 55  1  0  0  0  0
 26 27  1  0  0  0  0
 26 29  1  0  0  0  0
 28 27  1  0  0  0  0
 28 31  2  0  0  0  0
 28 56  1  0  0  0  0
 29 30  2  0  0  0  0
 29 57  1  0  0  0  0
 30 31  1  0  0  0  0
 30 58  1  0  0  0  0
 31 32  1  0  0  0  0
M  END
>  <DRUGBANK_ID>
DB11984

>  <COMMON_NAME>
Letaxaban

>  <CAS_NUMBER>
870262-90-1

>  <UNII>
Y3WB03966W

>  <SYNONYMS>
Letaxaban; Letaxab√°n; Letaxabanum

$$$$
