
 OpenBabel10282417153D

 55 60  0  0  0  0  0  0  0  0999 V2000
    1.1384   -0.0983   -2.2324 C   0  0  0  0  0  0  0  0  0  0  0  0
    0.5630   -0.8732   -1.0431 C   0  0  1  0  0  0  0  0  0  0  0  0
   -0.9523   -1.2634   -1.1878 C   0  0  0  0  0  0  0  0  0  0  0  0
   -0.5042   -2.6466   -1.6977 C   0  0  1  0  0  0  0  0  0  0  0  0
    0.8372   -2.4197   -0.9635 C   0  0  0  0  0  0  0  0  0  0  0  0
   -1.3519   -3.8686   -1.3345 C   0  0  0  0  0  0  0  0  0  0  0  0
   -2.6531   -4.1421   -1.7259 N   0  0  0  0  0  0  0  0  0  0  0  0
   -2.9537   -5.4255   -1.2991 C   0  0  0  0  0  0  0  0  0  0  0  0
   -4.2922   -5.9408   -1.5126 C   0  0  0  0  0  0  0  0  0  0  0  0
   -5.1673   -5.2271   -2.1549 N   0  0  0  0  0  0  0  0  0  0  0  0
   -4.8019   -3.9698   -2.6224 C   0  0  0  0  0  0  0  0  0  0  0  0
   -3.5905   -3.4152   -2.4226 C   0  0  0  0  0  0  0  0  0  0  0  0
   -4.6709   -7.1767   -1.0545 N   0  0  0  0  0  0  0  0  0  0  0  0
   -1.7908   -5.9027   -0.7761 C   0  0  0  0  0  0  0  0  0  0  0  0
   -0.8307   -4.9118   -0.7282 N   0  0  0  0  0  0  0  0  0  0  0  0
   -1.4881   -7.1940   -0.2166 C   0  0  0  0  0  0  0  0  0  0  0  0
   -0.7616   -7.1615    1.0141 C   0  0  0  0  0  0  0  0  0  0  0  0
   -0.3662   -8.2029    1.8319 C   0  0  0  0  0  0  0  0  0  0  0  0
   -0.1164   -7.9679    3.2254 N   0  0  0  0  0  0  0  0  0  0  0  0
   -1.1929   -7.9203    4.0533 C   0  0  0  0  0  0  0  0  0  0  0  0
   -2.2745   -8.3609    3.3588 C   0  0  0  0  0  0  0  0  0  0  0  0
   -1.9289   -9.4961    2.4334 C   0  0  0  0  0  0  0  0  0  0  0  0
   -1.0223   -9.3290    1.3609 C   0  0  0  0  0  0  0  0  0  0  0  0
   -1.3461   -9.4969   -0.0776 C   0  0  0  0  0  0  0  0  0  0  0  0
   -1.7386   -8.4066   -0.8390 C   0  0  0  0  0  0  0  0  0  0  0  0
   -1.2199   -7.7861    5.5550 C   0  0  0  0  0  0  0  0  0  0  0  0
   -0.2580   -8.4971    6.2791 C   0  0  0  0  0  0  0  0  0  0  0  0
   -0.3075   -8.6365    7.6731 C   0  0  0  0  0  0  0  0  0  0  0  0
   -1.4188   -8.2026    8.3872 C   0  0  0  0  0  0  0  0  0  0  0  0
   -2.4344   -7.5344    7.7107 C   0  0  0  0  0  0  0  0  0  0  0  0
   -2.2616   -7.2010    6.3440 C   0  0  0  0  0  0  0  0  0  0  0  0
    0.8546   -0.1412    0.1715 O   0  0  0  0  0  0  0  0  0  0  0  0
    2.1393   -0.4522   -2.5023 H   0  0  0  0  0  0  0  0  0  0  0  0
    1.2299    0.9693   -1.9929 H   0  0  0  0  0  0  0  0  0  0  0  0
    0.5043   -0.1662   -3.1224 H   0  0  0  0  0  0  0  0  0  0  0  0
   -1.4872   -1.2597   -0.2314 H   0  0  0  0  0  0  0  0  0  0  0  0
   -1.5271   -0.6743   -1.9082 H   0  0  0  0  0  0  0  0  0  0  0  0
   -0.4157   -2.6090   -2.7920 H   0  0  0  0  0  0  0  0  0  0  0  0
    1.7297   -2.7917   -1.4768 H   0  0  0  0  0  0  0  0  0  0  0  0
    0.8720   -2.7843    0.0726 H   0  0  0  0  0  0  0  0  0  0  0  0
   -5.5651   -3.4298   -3.1699 H   0  0  0  0  0  0  0  0  0  0  0  0
   -3.3217   -2.4349   -2.7894 H   0  0  0  0  0  0  0  0  0  0  0  0
   -4.0851   -7.7240   -0.4480 H   0  0  0  0  0  0  0  0  0  0  0  0
   -5.6186   -7.4890   -1.2079 H   0  0  0  0  0  0  0  0  0  0  0  0
   -0.7467   -6.1862    1.5048 H   0  0  0  0  0  0  0  0  0  0  0  0
   -2.5525   -7.3905    2.8386 H   0  0  0  0  0  0  0  0  0  0  0  0
   -1.4798  -10.3200    3.0553 H   0  0  0  0  0  0  0  0  0  0  0  0
   -0.9720  -10.3475   -0.6865 H   0  0  0  0  0  0  0  0  0  0  0  0
   -2.1360   -8.4785   -1.8543 H   0  0  0  0  0  0  0  0  0  0  0  0
    0.5240   -8.9953    5.7179 H   0  0  0  0  0  0  0  0  0  0  0  0
    0.5116   -9.1379    8.1816 H   0  0  0  0  0  0  0  0  0  0  0  0
   -1.4844   -8.3820    9.4585 H   0  0  0  0  0  0  0  0  0  0  0  0
   -3.3602   -7.2987    8.2427 H   0  0  0  0  0  0  0  0  0  0  0  0
   -2.9761   -6.4830    5.9352 H   0  0  0  0  0  0  0  0  0  0  0  0
    1.8216   -0.0341    0.2001 H   0  0  0  0  0  0  0  0  0  0  0  0
  1 33  1  0  0  0  0
  1 34  1  0  0  0  0
  1 35  1  0  0  0  0
  2  3  1  0  0  0  0
  2  5  1  0  0  0  0
  2 32  1  1  0  0  0
  2  1  1  0  0  0  0
  3 36  1  0  0  0  0
  3 37  1  0  0  0  0
  4  3  1  0  0  0  0
  4  5  1  0  0  0  0
  4  6  1  0  0  0  0
  4 38  1  6  0  0  0
  5 39  1  0  0  0  0
  5 40  1  0  0  0  0
  6  7  1  0  0  0  0
  6 15  2  0  0  0  0
  7  8  1  0  0  0  0
  7 12  1  0  0  0  0
  8  9  1  0  0  0  0
  8 14  2  0  0  0  0
  9 10  2  0  0  0  0
  9 13  1  0  0  0  0
 10 11  1  0  0  0  0
 11 12  2  0  0  0  0
 11 41  1  0  0  0  0
 12 42  1  0  0  0  0
 13 43  1  0  0  0  0
 13 44  1  0  0  0  0
 14 15  1  0  0  0  0
 14 16  1  0  0  0  0
 16 17  1  0  0  0  0
 16 25  2  0  0  0  0
 17 18  2  0  0  0  0
 17 45  1  0  0  0  0
 18 19  1  0  0  0  0
 18 23  1  0  0  0  0
 19 20  2  0  0  0  0
 20 21  1  0  0  0  0
 20 26  1  0  0  0  0
 21 22  2  0  0  0  0
 21 46  1  0  0  0  0
 22 23  1  0  0  0  0
 22 47  1  0  0  0  0
 23 24  2  0  0  0  0
 24 25  1  0  0  0  0
 24 48  1  0  0  0  0
 25 49  1  0  0  0  0
 26 27  2  0  0  0  0
 26 31  1  0  0  0  0
 27 28  1  0  0  0  0
 27 50  1  0  0  0  0
 28 29  2  0  0  0  0
 28 51  1  0  0  0  0
 29 30  1  0  0  0  0
 29 52  1  0  0  0  0
 30 31  2  0  0  0  0
 30 53  1  0  0  0  0
 31 54  1  0  0  0  0
 32 55  1  0  0  0  0
M  END
>  <DRUGBANK_ID>
DB06075

>  <COMMON_NAME>
Linsitinib

>  <CAS_NUMBER>
867160-71-2

>  <UNII>
15A52GPT8T

>  <SYNONYMS>
Linsitinib

$$$$
