
 OpenBabel10282417193D

 54 55  0  0  1  0  0  0  0  0999 V2000
    2.8572    0.3382    0.1013 C   0  0  0  0  0  0  0  0  0  0  0  0
    1.3943    0.0757    0.1243 C   0  0  0  0  0  0  0  0  0  0  0  0
    0.6055    1.2341    0.0906 C   0  0  0  0  0  0  0  0  0  0  0  0
   -0.7856    1.1858    0.1061 C   0  0  0  0  0  0  0  0  0  0  0  0
   -1.4009   -0.0799    0.2067 C   0  0  0  0  0  0  0  0  0  0  0  0
   -0.6105   -1.2422    0.0995 C   0  0  0  0  0  0  0  0  0  0  0  0
    0.7906   -1.1858    0.0571 C   0  0  0  0  0  0  0  0  0  0  0  0
    1.3784   -2.4171   -0.0736 O   0  0  0  0  0  0  0  0  0  0  0  0
    2.7895   -2.5777   -0.1126 C   0  0  0  0  0  0  0  0  0  0  0  0
    3.5393   -2.1151   -1.3612 C   0  0  0  0  0  0  0  0  0  0  0  0
    4.6288   -1.5321   -1.3780 O   0  0  0  0  0  0  0  0  0  0  0  0
    2.8877   -2.3427   -2.5133 O   0  0  0  0  0  0  0  0  0  0  0  0
   -2.8867   -0.2741    0.3789 C   0  0  0  0  0  0  0  0  0  0  0  0
   -1.5159    2.5176    0.0104 C   0  0  0  0  0  0  0  0  0  0  0  0
   -2.2908    2.7496   -1.3081 C   0  0  0  0  0  0  0  0  0  0  0  0
   -3.2295    1.6681   -1.5147 N   0  0  0  0  0  0  0  0  0  0  0  0
   -4.1363    1.6714   -2.6424 C   0  0  1  0  0  0  0  0  0  0  0  0
   -3.2901    1.4859   -3.8942 C   0  0  0  0  0  0  0  0  0  0  0  0
   -5.1659    0.4848   -2.4816 C   0  0  1  0  0  0  0  0  0  0  0  0
   -6.0308    0.5300   -1.2259 C   0  0  0  0  0  0  0  0  0  0  0  0
   -6.4010    1.7504   -0.6378 C   0  0  0  0  0  0  0  0  0  0  0  0
   -7.1910    1.7949    0.5114 C   0  0  0  0  0  0  0  0  0  0  0  0
   -7.6334    0.6089    1.0796 C   0  0  0  0  0  0  0  0  0  0  0  0
   -7.2790   -0.6157    0.5277 C   0  0  0  0  0  0  0  0  0  0  0  0
   -6.4834   -0.6583   -0.6233 C   0  0  0  0  0  0  0  0  0  0  0  0
   -8.4274    0.6055    2.1878 O   0  0  0  0  0  0  0  0  0  0  0  0
   -6.0368    0.4601   -3.6129 O   0  0  0  0  0  0  0  0  0  0  0  0
    3.3686   -0.2047    0.8967 H   0  0  0  0  0  0  0  0  0  0  0  0
    3.1595    0.0922   -0.9071 H   0  0  0  0  0  0  0  0  0  0  0  0
    3.1447    1.3849    0.2113 H   0  0  0  0  0  0  0  0  0  0  0  0
    1.1095    2.1994    0.0373 H   0  0  0  0  0  0  0  0  0  0  0  0
   -1.1102   -2.2105    0.0442 H   0  0  0  0  0  0  0  0  0  0  0  0
    3.2372   -2.1679    0.7984 H   0  0  0  0  0  0  0  0  0  0  0  0
    3.0003   -3.6501   -0.0435 H   0  0  0  0  0  0  0  0  0  0  0  0
    3.3895   -1.8424   -3.1904 H   0  0  0  0  0  0  0  0  0  0  0  0
   -3.3009   -0.7340   -0.5270 H   0  0  0  0  0  0  0  0  0  0  0  0
   -3.1261   -0.9180    1.2227 H   0  0  0  0  0  0  0  0  0  0  0  0
   -3.3969    0.6706    0.5849 H   0  0  0  0  0  0  0  0  0  0  0  0
   -2.1582    2.6251    0.8900 H   0  0  0  0  0  0  0  0  0  0  0  0
   -0.7847    3.3369    0.0805 H   0  0  0  0  0  0  0  0  0  0  0  0
   -2.8108    3.7106   -1.2597 H   0  0  0  0  0  0  0  0  0  0  0  0
   -1.5678    2.7789   -2.1288 H   0  0  0  0  0  0  0  0  0  0  0  0
   -2.6563    0.8309   -1.6303 H   0  0  0  0  0  0  0  0  0  0  0  0
   -4.6782    2.6199   -2.7056 H   0  0  0  0  0  0  0  0  0  0  0  0
   -2.7336    0.5411   -3.8491 H   0  0  0  0  0  0  0  0  0  0  0  0
   -3.9076    1.4910   -4.7913 H   0  0  0  0  0  0  0  0  0  0  0  0
   -2.5610    2.2965   -3.9866 H   0  0  0  0  0  0  0  0  0  0  0  0
   -4.6153   -0.4675   -2.4881 H   0  0  0  0  0  0  0  0  0  0  0  0
   -6.0565    2.6918   -1.0535 H   0  0  0  0  0  0  0  0  0  0  0  0
   -7.4364    2.7611    0.9391 H   0  0  0  0  0  0  0  0  0  0  0  0
   -7.6239   -1.5348    0.9934 H   0  0  0  0  0  0  0  0  0  0  0  0
   -6.2138   -1.6283   -1.0373 H   0  0  0  0  0  0  0  0  0  0  0  0
   -8.6192    1.5251    2.4337 H   0  0  0  0  0  0  0  0  0  0  0  0
   -6.5299    1.2966   -3.5908 H   0  0  0  0  0  0  0  0  0  0  0  0
  1  2  1  0  0  0  0
  1 28  1  0  0  0  0
  1 29  1  0  0  0  0
  1 30  1  0  0  0  0
  2  3  2  0  0  0  0
  2  7  1  0  0  0  0
  3  4  1  0  0  0  0
  3 31  1  0  0  0  0
  4  5  2  0  0  0  0
  4 14  1  0  0  0  0
  5  6  1  0  0  0  0
  5 13  1  0  0  0  0
  6  7  2  0  0  0  0
  6 32  1  0  0  0  0
  7  8  1  0  0  0  0
  8  9  1  0  0  0  0
  9 10  1  0  0  0  0
  9 33  1  0  0  0  0
  9 34  1  0  0  0  0
 10 11  2  0  0  0  0
 10 12  1  0  0  0  0
 12 35  1  0  0  0  0
 13 36  1  0  0  0  0
 13 37  1  0  0  0  0
 13 38  1  0  0  0  0
 14 15  1  0  0  0  0
 14 39  1  0  0  0  0
 14 40  1  0  0  0  0
 15 16  1  0  0  0  0
 15 41  1  0  0  0  0
 15 42  1  0  0  0  0
 16 17  1  0  0  0  0
 16 43  1  0  0  0  0
 17 18  1  0  0  0  0
 17 19  1  0  0  0  0
 17 44  1  6  0  0  0
 18 45  1  0  0  0  0
 18 46  1  0  0  0  0
 18 47  1  0  0  0  0
 19 20  1  0  0  0  0
 19 27  1  0  0  0  0
 19 48  1  1  0  0  0
 20 21  2  0  0  0  0
 20 25  1  0  0  0  0
 21 22  1  0  0  0  0
 21 49  1  0  0  0  0
 22 23  2  0  0  0  0
 22 50  1  0  0  0  0
 23 24  1  0  0  0  0
 23 26  1  0  0  0  0
 24 25  2  0  0  0  0
 24 51  1  0  0  0  0
 25 52  1  0  0  0  0
 26 53  1  0  0  0  0
 27 54  1  0  0  0  0
M  END
>  <DRUGBANK_ID>
DB12080

>  <COMMON_NAME>
Ritobegron

>  <CAS_NUMBER>
255734-04-4

>  <UNII>
LD86RKR53M

>  <SYNONYMS>
Ritobegron

$$$$
