
 OpenBabel10282417153D

 61 64  0  0  0  0  0  0  0  0999 V2000
    1.3920   -0.2723    0.0575 C   0  0  0  0  0  0  0  0  0  0  0  0
    0.5177   -1.3551    0.0295 C   0  0  0  0  0  0  0  0  0  0  0  0
   -0.8656   -1.1503    0.0360 C   0  0  0  0  0  0  0  0  0  0  0  0
   -1.4000    0.1379    0.1378 C   0  0  0  0  0  0  0  0  0  0  0  0
   -0.4982    1.2080    0.2794 C   0  0  0  0  0  0  0  0  0  0  0  0
    0.8812    1.0131    0.1602 C   0  0  0  0  0  0  0  0  0  0  0  0
   -2.8933    0.3416   -0.0419 C   0  0  0  0  0  0  0  0  0  0  0  0
   -3.4474    1.2583    0.9255 N   0  0  0  0  0  0  0  0  0  0  0  0
   -3.9440    2.5277    0.7496 C   0  0  0  0  0  0  0  0  0  0  0  0
   -4.3325    3.1261    1.7350 O   0  0  0  0  0  0  0  0  0  0  0  0
   -4.0991    3.1407   -0.6472 C   0  0  0  0  0  0  0  0  0  0  0  0
   -2.8197    3.4159   -1.3828 C   0  0  0  0  0  0  0  0  0  0  0  0
   -2.2320    4.6663   -1.5158 C   0  0  0  0  0  0  0  0  0  0  0  0
   -0.9584    4.7578   -2.1193 C   0  0  0  0  0  0  0  0  0  0  0  0
   -0.2950    3.5895   -2.5232 C   0  0  0  0  0  0  0  0  0  0  0  0
   -1.0080    2.4189   -2.4063 C   0  0  0  0  0  0  0  0  0  0  0  0
   -2.2500    2.3311   -1.9265 N   0  0  0  0  0  0  0  0  0  0  0  0
    1.1024    3.3806   -2.8953 C   0  0  0  0  0  0  0  0  0  0  0  0
    2.1224    3.5956   -1.9628 C   0  0  0  0  0  0  0  0  0  0  0  0
    3.4723    3.2141   -2.2284 C   0  0  0  0  0  0  0  0  0  0  0  0
    3.8360    2.8109   -3.5480 C   0  0  0  0  0  0  0  0  0  0  0  0
    2.7923    2.4423   -4.4250 C   0  0  0  0  0  0  0  0  0  0  0  0
    1.4458    2.7318   -4.0971 C   0  0  0  0  0  0  0  0  0  0  0  0
    4.9979    3.2806   -4.2447 O   0  0  0  0  0  0  0  0  0  0  0  0
    5.9586    4.3501   -3.7905 C   0  0  0  0  0  0  0  0  0  0  0  0
    5.6488    6.0085   -3.8451 C   0  0  0  0  0  0  0  0  0  0  0  0
    4.4216    6.4810   -3.1494 N   0  0  0  0  0  0  0  0  0  0  0  0
    3.3702    5.6073   -3.5979 C   0  0  0  0  0  0  0  0  0  0  0  0
    2.9956    5.5373   -5.0605 C   0  0  0  0  0  0  0  0  0  0  0  0
    2.3380    6.7664   -5.2945 O   0  0  0  0  0  0  0  0  0  0  0  0
    3.2135    7.8329   -4.8794 C   0  0  0  0  0  0  0  0  0  0  0  0
    3.7555    7.7492   -3.4207 C   0  0  0  0  0  0  0  0  0  0  0  0
    2.4660   -0.4264    0.0009 H   0  0  0  0  0  0  0  0  0  0  0  0
    0.9129   -2.3644   -0.0280 H   0  0  0  0  0  0  0  0  0  0  0  0
   -1.5285   -2.0070   -0.0499 H   0  0  0  0  0  0  0  0  0  0  0  0
   -0.8612    2.2289    0.3787 H   0  0  0  0  0  0  0  0  0  0  0  0
    1.5501    1.8675    0.1091 H   0  0  0  0  0  0  0  0  0  0  0  0
   -3.1560    0.6298   -1.0570 H   0  0  0  0  0  0  0  0  0  0  0  0
   -3.4213   -0.6094    0.0785 H   0  0  0  0  0  0  0  0  0  0  0  0
   -3.3826    0.9741    1.8938 H   0  0  0  0  0  0  0  0  0  0  0  0
   -4.7235    2.4717   -1.2494 H   0  0  0  0  0  0  0  0  0  0  0  0
   -4.6590    4.0750   -0.5352 H   0  0  0  0  0  0  0  0  0  0  0  0
   -2.7463    5.5516   -1.1516 H   0  0  0  0  0  0  0  0  0  0  0  0
   -0.4988    5.7384   -2.2221 H   0  0  0  0  0  0  0  0  0  0  0  0
   -0.5099    1.4624   -2.5670 H   0  0  0  0  0  0  0  0  0  0  0  0
    1.9020    4.2655   -1.1228 H   0  0  0  0  0  0  0  0  0  0  0  0
    4.2058    3.6887   -1.5711 H   0  0  0  0  0  0  0  0  0  0  0  0
    3.0028    2.1526   -5.4531 H   0  0  0  0  0  0  0  0  0  0  0  0
    0.6633    2.5648   -4.8426 H   0  0  0  0  0  0  0  0  0  0  0  0
    6.3249    4.0743   -2.8012 H   0  0  0  0  0  0  0  0  0  0  0  0
    6.8084    4.2457   -4.4880 H   0  0  0  0  0  0  0  0  0  0  0  0
    6.5110    6.5110   -3.3779 H   0  0  0  0  0  0  0  0  0  0  0  0
    5.6490    6.3338   -4.8915 H   0  0  0  0  0  0  0  0  0  0  0  0
    2.4942    5.7118   -2.9660 H   0  0  0  0  0  0  0  0  0  0  0  0
    3.8968    4.7851   -3.3181 H   0  0  0  0  0  0  0  0  0  0  0  0
    3.8436    5.3776   -5.7417 H   0  0  0  0  0  0  0  0  0  0  0  0
    2.2992    4.7322   -5.2817 H   0  0  0  0  0  0  0  0  0  0  0  0
    2.6254    8.7350   -4.9984 H   0  0  0  0  0  0  0  0  0  0  0  0
    4.0579    7.8101   -5.5664 H   0  0  0  0  0  0  0  0  0  0  0  0
    2.8875    7.7651   -2.7276 H   0  0  0  0  0  0  0  0  0  0  0  0
    4.3692    8.5957   -3.1270 H   0  0  0  0  0  0  0  0  0  0  0  0
  1  2  2  0  0  0  0
  1  6  1  0  0  0  0
  1 33  1  0  0  0  0
  2  3  1  0  0  0  0
  2 34  1  0  0  0  0
  3  4  2  0  0  0  0
  3 35  1  0  0  0  0
  4  5  1  0  0  0  0
  4  7  1  0  0  0  0
  5  6  2  0  0  0  0
  5 36  1  0  0  0  0
  6 37  1  0  0  0  0
  7  8  1  0  0  0  0
  7 38  1  0  0  0  0
  7 39  1  0  0  0  0
  8  9  1  0  0  0  0
  8 40  1  0  0  0  0
  9 10  2  0  0  0  0
  9 11  1  0  0  0  0
 11 12  1  0  0  0  0
 11 41  1  0  0  0  0
 11 42  1  0  0  0  0
 12 13  2  0  0  0  0
 12 17  1  0  0  0  0
 13 14  1  0  0  0  0
 13 43  1  0  0  0  0
 14 15  2  0  0  0  0
 14 44  1  0  0  0  0
 15 16  1  0  0  0  0
 15 18  1  0  0  0  0
 16 17  2  0  0  0  0
 16 45  1  0  0  0  0
 18 19  2  0  0  0  0
 18 23  1  0  0  0  0
 19 20  1  0  0  0  0
 19 46  1  0  0  0  0
 20 21  2  0  0  0  0
 20 47  1  0  0  0  0
 21 22  1  0  0  0  0
 21 24  1  0  0  0  0
 22 23  2  0  0  0  0
 22 48  1  0  0  0  0
 23 49  1  0  0  0  0
 24 25  1  0  0  0  0
 25 26  1  0  0  0  0
 25 50  1  0  0  0  0
 25 51  1  0  0  0  0
 26 27  1  0  0  0  0
 26 52  1  0  0  0  0
 26 53  1  0  0  0  0
 27 28  1  0  0  0  0
 27 32  1  0  0  0  0
 28 29  1  0  0  0  0
 28 54  1  0  0  0  0
 28 55  1  0  0  0  0
 29 30  1  0  0  0  0
 29 56  1  0  0  0  0
 29 57  1  0  0  0  0
 30 31  1  0  0  0  0
 31 32  1  0  0  0  0
 31 58  1  0  0  0  0
 31 59  1  0  0  0  0
 32 60  1  0  0  0  0
 32 61  1  0  0  0  0
M  END
>  <DRUGBANK_ID>
DB06137

>  <COMMON_NAME>
Tirbanibulin

>  <CAS_NUMBER>
897016-82-9

>  <UNII>
4V9848RS5G

>  <SYNONYMS>
Tirbanibulin

$$$$
