TH8
 OpenBabel10282417173D

 36 36  0  0  0  0  0  0  0  0999 V2000
   -1.7453    0.6697    2.0290 C   0  0  0  0  0  0  0  0  0  0  0  0
   -2.7051   -0.1256    3.2714 Cl  0  0  0  0  0  0  0  0  0  0  0  0
   -1.7087    1.1951    0.3602 Cl  0  0  0  0  0  0  0  0  0  0  0  0
   -0.6143   -0.2831    2.1083 C   0  0  0  0  0  0  0  0  0  0  0  0
    0.3950    0.0393    2.7331 O   0  0  0  0  0  0  0  0  0  0  0  0
   -0.7751   -1.5673    1.6214 N   0  0  0  0  0  0  0  0  0  0  0  0
   -1.9061   -2.3774    0.9581 C   0  0  2  0  0  0  0  0  0  0  0  0
   -1.1537   -3.4200    0.0559 C   0  0  0  0  0  0  0  0  0  0  0  0
   -0.0216   -3.9618    0.7494 O   0  0  0  0  0  0  0  0  0  0  0  0
   -3.0324   -1.6506    0.0456 C   0  0  2  0  0  0  0  0  0  0  0  0
   -2.2888   -1.1018   -1.0457 O   0  0  0  0  0  0  0  0  0  0  0  0
   -4.2122   -0.8645    0.7925 C   0  0  0  0  0  0  0  0  0  0  0  0
   -4.9414   -1.6195    1.7401 C   0  0  0  0  0  0  0  0  0  0  0  0
   -5.6787   -1.0113    2.7910 C   0  0  0  0  0  0  0  0  0  0  0  0
   -5.6906    0.3810    2.9298 C   0  0  0  0  0  0  0  0  0  0  0  0
   -5.4750    1.7894    5.1290 O   0  0  0  0  0  0  0  0  0  0  0  0
   -7.4354    2.1635    3.5847 O   0  0  0  0  0  0  0  0  0  0  0  0
   -5.0476    1.1540    1.9769 C   0  0  0  0  0  0  0  0  0  0  0  0
   -4.4668    0.5391    0.8388 C   0  0  0  0  0  0  0  0  0  0  0  0
   -7.4249    0.0584    5.1178 C   0  0  0  0  0  0  0  0  0  0  0  0
   -6.4794    1.2672    4.2513 S   0  0  0  0  0  0  0  0  0  0  0  0
   -2.3867   -2.9473    1.7673 H   0  0  0  0  0  0  0  0  0  0  0  0
   -3.5852   -2.4508   -0.4635 H   0  0  0  0  0  0  0  0  0  0  0  0
   -1.7326    1.6449    2.4759 H   0  0  0  0  0  0  0  0  0  0  0  0
   -0.1119   -2.1549    2.1167 H   0  0  0  0  0  0  0  0  0  0  0  0
   -1.8022   -4.2532   -0.2358 H   0  0  0  0  0  0  0  0  0  0  0  0
   -0.7654   -2.9648   -0.8617 H   0  0  0  0  0  0  0  0  0  0  0  0
    0.6417   -3.2454    0.7564 H   0  0  0  0  0  0  0  0  0  0  0  0
   -2.6151   -0.2342   -1.3116 H   0  0  0  0  0  0  0  0  0  0  0  0
   -4.8271   -2.7019    1.7586 H   0  0  0  0  0  0  0  0  0  0  0  0
   -6.0926   -1.6597    3.5569 H   0  0  0  0  0  0  0  0  0  0  0  0
   -4.8344    2.2049    2.2165 H   0  0  0  0  0  0  0  0  0  0  0  0
   -4.0695    1.2717    0.1443 H   0  0  0  0  0  0  0  0  0  0  0  0
   -8.0316   -0.4857    4.3930 H   0  0  0  0  0  0  0  0  0  0  0  0
   -6.7338   -0.6075    5.6387 H   0  0  0  0  0  0  0  0  0  0  0  0
   -8.0697    0.5705    5.8325 H   0  0  0  0  0  0  0  0  0  0  0  0
  1  2  1  0  0  0  0
  1  3  1  0  0  0  0
  1  4  1  0  0  0  0
  1 24  1  0  0  0  0
  4  5  2  0  0  0  0
  4  6  1  0  0  0  0
  6 25  1  0  0  0  0
  7 22  1  1  0  0  0
  7  8  1  0  0  0  0
  7  6  1  0  0  0  0
  8  9  1  0  0  0  0
  8 26  1  0  0  0  0
  8 27  1  0  0  0  0
  9 28  1  0  0  0  0
 10 12  1  0  0  0  0
 10 23  1  6  0  0  0
 10 11  1  0  0  0  0
 10  7  1  0  0  0  0
 11 29  1  0  0  0  0
 12 13  1  0  0  0  0
 12 19  2  0  0  0  0
 13 14  2  0  0  0  0
 13 30  1  0  0  0  0
 14 15  1  0  0  0  0
 14 31  1  0  0  0  0
 15 18  2  0  0  0  0
 15 21  1  0  0  0  0
 16 21  2  0  0  0  0
 17 21  2  0  0  0  0
 18 19  1  0  0  0  0
 18 32  1  0  0  0  0
 19 33  1  0  0  0  0
 20 21  1  0  0  0  0
 20 34  1  0  0  0  0
 20 35  1  0  0  0  0
 20 36  1  0  0  0  0
M  END
>  <DRUGBANK_ID>
DB08621

>  <COMMON_NAME>
Thiamphenicol

>  <CAS_NUMBER>
15318-45-3

>  <UNII>
FLQ7571NPM

$$$$
