
 OpenBabel10282417223D

 52 55  0  0  0  0  0  0  0  0999 V2000
   -3.3453   -0.0946   -0.1906 C   0  0  0  0  0  0  0  0  0  0  0  0
   -2.8569    1.1999   -0.3799 C   0  0  0  0  0  0  0  0  0  0  0  0
   -1.4961    1.4553   -0.2684 C   0  0  0  0  0  0  0  0  0  0  0  0
   -2.4714   -1.1575    0.0525 C   0  0  0  0  0  0  0  0  0  0  0  0
   -1.0938   -0.9379    0.1388 C   0  0  0  0  0  0  0  0  0  0  0  0
   -0.6433    0.3970    0.0336 C   0  0  0  0  0  0  0  0  0  0  0  0
    1.0700    0.7256    0.3238 S   0  0  0  0  0  0  0  0  0  0  0  0
    1.6918   -0.7403   -0.2123 N   0  0  0  0  0  0  0  0  0  0  0  0
    1.1204   -1.8308    0.6671 C   0  0  0  0  0  0  0  0  0  0  0  0
   -0.1709   -2.0556    0.4472 C   0  0  0  0  0  0  0  0  0  0  0  0
   -0.7355   -3.3240    0.5986 O   0  0  0  0  0  0  0  0  0  0  0  0
   -0.0475   -4.5034    0.3320 C   0  0  0  0  0  0  0  0  0  0  0  0
    1.3246   -4.4242   -0.4674 C   0  0  0  0  0  0  0  0  0  0  0  0
   -0.4167   -5.4751    0.9847 O   0  0  0  0  0  0  0  0  0  0  0  0
    2.3798   -5.2087   -0.1147 C   0  0  0  0  0  0  0  0  0  0  0  0
    3.9816   -5.0052    0.0781 C   0  0  0  0  0  0  0  0  0  0  0  0
    4.7713   -4.0309    0.8214 C   0  0  0  0  0  0  0  0  0  0  0  0
    6.1636   -3.9212    0.9953 C   0  0  0  0  0  0  0  0  0  0  0  0
    6.9056   -4.9612    0.5492 C   0  0  0  0  0  0  0  0  0  0  0  0
    6.2106   -6.0775    0.0721 C   0  0  0  0  0  0  0  0  0  0  0  0
    4.7970   -6.0943   -0.1787 C   0  0  0  0  0  0  0  0  0  0  0  0
    1.4843    1.7898   -0.5976 O   0  0  0  0  0  0  0  0  0  0  0  0
    1.2675    0.8128    1.7386 O   0  0  0  0  0  0  0  0  0  0  0  0
    1.8701   -0.8508   -1.7061 C   0  0  0  0  0  0  0  0  0  0  0  0
    2.1277   -2.7300    1.4191 C   0  0  0  0  0  0  0  0  0  0  0  0
    1.7590   -3.9383    2.2744 N   0  0  0  0  0  0  0  0  0  0  0  0
    2.5040   -5.3000    2.6342 C   0  0  0  0  0  0  0  0  0  0  0  0
    3.1992   -2.2800    1.0180 O   0  0  0  0  0  0  0  0  0  0  0  0
    3.7692   -5.2901    3.1523 C   0  0  0  0  0  0  0  0  0  0  0  0
    4.5933   -6.4490    3.0786 C   0  0  0  0  0  0  0  0  0  0  0  0
    4.1564   -7.6646    2.5501 C   0  0  0  0  0  0  0  0  0  0  0  0
    2.8503   -7.6814    2.1276 C   0  0  0  0  0  0  0  0  0  0  0  0
    1.9999   -6.5673    2.2697 N   0  0  0  0  0  0  0  0  0  0  0  0
   -4.4162   -0.2802   -0.2253 H   0  0  0  0  0  0  0  0  0  0  0  0
   -3.5446    2.0138   -0.5921 H   0  0  0  0  0  0  0  0  0  0  0  0
   -1.1082    2.4649   -0.3886 H   0  0  0  0  0  0  0  0  0  0  0  0
   -2.8892   -2.1504    0.2083 H   0  0  0  0  0  0  0  0  0  0  0  0
    1.5999   -3.5075   -0.9446 H   0  0  0  0  0  0  0  0  0  0  0  0
    1.9559   -6.0976    0.3358 H   0  0  0  0  0  0  0  0  0  0  0  0
    4.4163   -3.3739    1.6057 H   0  0  0  0  0  0  0  0  0  0  0  0
    6.5904   -3.0854    1.5616 H   0  0  0  0  0  0  0  0  0  0  0  0
    7.9834   -4.9272    0.6527 H   0  0  0  0  0  0  0  0  0  0  0  0
    6.7806   -6.9873   -0.0677 H   0  0  0  0  0  0  0  0  0  0  0  0
    4.3385   -7.0310   -0.4708 H   0  0  0  0  0  0  0  0  0  0  0  0
    0.9404   -0.7143   -2.2735 H   0  0  0  0  0  0  0  0  0  0  0  0
    2.5725   -0.0780   -2.0612 H   0  0  0  0  0  0  0  0  0  0  0  0
    2.3223   -1.7976   -2.0134 H   0  0  0  0  0  0  0  0  0  0  0  0
    0.7784   -4.1830    2.2889 H   0  0  0  0  0  0  0  0  0  0  0  0
    4.1752   -4.3413    3.4595 H   0  0  0  0  0  0  0  0  0  0  0  0
    5.6528   -6.3250    3.2840 H   0  0  0  0  0  0  0  0  0  0  0  0
    4.8371   -8.5070    2.4148 H   0  0  0  0  0  0  0  0  0  0  0  0
    2.5007   -8.5578    1.5472 H   0  0  0  0  0  0  0  0  0  0  0  0
  1  2  1  0  0  0  0
  1  4  2  0  0  0  0
  1 34  1  0  0  0  0
  2  3  2  0  0  0  0
  2 35  1  0  0  0  0
  3  6  1  0  0  0  0
  3 36  1  0  0  0  0
  4 37  1  0  0  0  0
  5  4  1  0  0  0  0
  5 10  1  0  0  0  0
  5  6  2  0  0  0  0
  6  7  1  0  0  0  0
  7  8  1  0  0  0  0
  7 22  2  0  0  0  0
  7 23  2  0  0  0  0
  8  9  1  0  0  0  0
  8 24  1  0  0  0  0
  9 10  2  0  0  0  0
  9 25  1  0  0  0  0
 10 11  1  0  0  0  0
 11 12  1  0  0  0  0
 12 13  1  0  0  0  0
 12 14  2  0  0  0  0
 13 15  2  0  0  0  0
 13 38  1  0  0  0  0
 15 16  1  0  0  0  0
 15 39  1  0  0  0  0
 16 17  2  0  0  0  0
 17 18  1  0  0  0  0
 17 40  1  0  0  0  0
 18 19  2  0  0  0  0
 18 41  1  0  0  0  0
 19 20  1  0  0  0  0
 19 42  1  0  0  0  0
 20 21  2  0  0  0  0
 20 43  1  0  0  0  0
 21 16  1  0  0  0  0
 21 44  1  0  0  0  0
 24 45  1  0  0  0  0
 24 46  1  0  0  0  0
 24 47  1  0  0  0  0
 25 26  1  0  0  0  0
 25 28  2  0  0  0  0
 26 27  1  0  0  0  0
 26 48  1  0  0  0  0
 27 29  2  0  0  0  0
 29 30  1  0  0  0  0
 29 49  1  0  0  0  0
 30 31  2  0  0  0  0
 30 50  1  0  0  0  0
 31 32  1  0  0  0  0
 31 51  1  0  0  0  0
 32 33  2  0  0  0  0
 32 52  1  0  0  0  0
 33 27  1  0  0  0  0
M  END
>  <DRUGBANK_ID>
DB15883

>  <COMMON_NAME>
Piroxicam cinnamate

>  <CAS_NUMBER>
87234-24-0

>  <UNII>
7E8Q32N75N

>  <SYNONYMS>
Cinnoxicam; Piroxicam cinnamate; Piroxicam cinnamic acid ester

$$$$
