
 OpenBabel10282417233D

 77 78  0  0  1  0  0  0  0  0999 V2000
   -5.1662   -3.5123   -6.6800 C   0  0  0  0  0  0  0  0  0  0  0  0
   -4.3050   -4.2275   -5.6474 C   0  0  0  0  0  0  0  0  0  0  0  0
   -2.9275   -4.6370   -6.1917 C   0  0  0  0  0  0  0  0  0  0  0  0
   -2.1651   -3.4752   -6.5955 N   0  0  0  0  0  0  0  0  0  0  0  0
   -0.9761   -3.1035   -5.9755 C   0  0  0  0  0  0  0  0  0  0  0  0
   -0.0084   -4.0468   -5.7573 N   0  0  0  0  0  0  0  0  0  0  0  0
    1.1368   -3.6606   -5.1474 C   0  0  0  0  0  0  0  0  0  0  0  0
    2.1813   -4.5805   -4.9349 N   0  0  0  0  0  0  0  0  0  0  0  0
    3.4200   -4.3104   -4.3173 C   0  0  0  0  0  0  0  0  0  0  0  0
    3.4680   -3.8139   -3.0049 C   0  0  0  0  0  0  0  0  0  0  0  0
    4.6756   -3.4223   -2.4074 C   0  0  0  0  0  0  0  0  0  0  0  0
    5.8711   -3.5119   -3.1219 C   0  0  0  0  0  0  0  0  0  0  0  0
    5.8455   -4.0204   -4.4245 C   0  0  0  0  0  0  0  0  0  0  0  0
    4.6323   -4.4267   -5.0120 C   0  0  0  0  0  0  0  0  0  0  0  0
    7.1084   -3.0858   -2.5382 C   0  0  0  0  0  0  0  0  0  0  0  0
    8.1252   -2.7472   -2.0760 N   0  0  0  0  0  0  0  0  0  0  0  0
    1.3398   -2.4008   -4.7346 N   0  0  0  0  0  0  0  0  0  0  0  0
    0.3661   -1.4982   -4.9434 C   0  0  0  0  0  0  0  0  0  0  0  0
   -0.8227   -1.7786   -5.5650 C   0  0  0  0  0  0  0  0  0  0  0  0
   -1.8188   -0.7467   -5.7147 C   0  0  0  0  0  0  0  0  0  0  0  0
   -2.7347    0.1682   -5.8697 C   0  0  0  0  0  0  0  0  0  0  0  0
   -3.8024    1.2349   -6.0503 C   0  0  0  0  0  0  0  0  0  0  0  0
   -5.0446    0.8627   -5.3544 C   0  0  0  0  0  0  0  0  0  0  0  0
   -4.7118    0.7703   -3.9021 C   0  0  0  0  0  0  0  0  0  0  0  0
   -4.3165    2.0041   -3.2823 N   0  0  0  0  0  0  0  0  0  0  0  0
   -4.8761    2.5513   -2.1569 C   0  0  0  0  0  0  0  0  0  0  0  0
   -4.5614    3.7068   -1.8644 O   0  0  0  0  0  0  0  0  0  0  0  0
   -6.0032    1.7744   -1.4114 C   0  0  2  0  0  0  0  0  0  0  0  0
   -6.1789    2.2936    0.0045 C   0  0  0  0  0  0  0  0  0  0  0  0
   -5.8183    0.3036   -1.3993 N   0  0  0  0  0  0  0  0  0  0  0  0
   -6.8734   -0.4875   -2.0487 C   0  0  0  0  0  0  0  0  0  0  0  0
   -4.6070   -0.1695   -0.8977 C   0  0  0  0  0  0  0  0  0  0  0  0
   -3.7566    0.5694   -0.3969 O   0  0  0  0  0  0  0  0  0  0  0  0
   -4.2285   -1.6032   -1.0044 C   0  0  0  0  0  0  0  0  0  0  0  0
   -4.9152   -2.5857   -1.5914 C   0  0  0  0  0  0  0  0  0  0  0  0
   -4.6149   -4.0265   -1.5905 C   0  0  0  0  0  0  0  0  0  0  0  0
   -5.7263   -4.7282   -0.9311 N   0  0  0  0  0  0  0  0  0  0  0  0
   -5.4546   -6.1606   -0.9928 C   0  0  0  0  0  0  0  0  0  0  0  0
   -5.8601   -4.3072    0.4702 C   0  0  0  0  0  0  0  0  0  0  0  0
   -4.6978   -2.5807   -7.0091 H   0  0  0  0  0  0  0  0  0  0  0  0
   -6.1430   -3.2551   -6.2577 H   0  0  0  0  0  0  0  0  0  0  0  0
   -5.3278   -4.1473   -7.5563 H   0  0  0  0  0  0  0  0  0  0  0  0
   -4.1884   -3.5772   -4.7737 H   0  0  0  0  0  0  0  0  0  0  0  0
   -4.8396   -5.1260   -5.3119 H   0  0  0  0  0  0  0  0  0  0  0  0
   -2.4037   -5.2150   -5.4232 H   0  0  0  0  0  0  0  0  0  0  0  0
   -3.0687   -5.2896   -7.0600 H   0  0  0  0  0  0  0  0  0  0  0  0
   -2.5780   -2.8129   -7.2398 H   0  0  0  0  0  0  0  0  0  0  0  0
    2.0588   -5.4636   -5.4046 H   0  0  0  0  0  0  0  0  0  0  0  0
    2.5443   -3.7234   -2.4369 H   0  0  0  0  0  0  0  0  0  0  0  0
    4.6642   -3.0316   -1.3917 H   0  0  0  0  0  0  0  0  0  0  0  0
    6.7690   -4.0820   -4.9990 H   0  0  0  0  0  0  0  0  0  0  0  0
    4.6492   -4.7810   -6.0394 H   0  0  0  0  0  0  0  0  0  0  0  0
    0.5885   -0.5062   -4.5652 H   0  0  0  0  0  0  0  0  0  0  0  0
   -3.4038    2.2012   -5.7232 H   0  0  0  0  0  0  0  0  0  0  0  0
   -4.0014    1.3394   -7.1238 H   0  0  0  0  0  0  0  0  0  0  0  0
   -5.8271    1.6114   -5.5153 H   0  0  0  0  0  0  0  0  0  0  0  0
   -5.4287   -0.1022   -5.7115 H   0  0  0  0  0  0  0  0  0  0  0  0
   -5.6819    0.5396   -3.5519 H   0  0  0  0  0  0  0  0  0  0  0  0
   -3.9988   -0.0229   -3.6482 H   0  0  0  0  0  0  0  0  0  0  0  0
   -3.4725    2.4776   -3.5827 H   0  0  0  0  0  0  0  0  0  0  0  0
   -6.9252    1.9979   -1.9689 H   0  0  0  0  0  0  0  0  0  0  0  0
   -6.5034    3.3375    0.0064 H   0  0  0  0  0  0  0  0  0  0  0  0
   -6.9160    1.6909    0.5437 H   0  0  0  0  0  0  0  0  0  0  0  0
   -5.2338    2.2449    0.5510 H   0  0  0  0  0  0  0  0  0  0  0  0
   -6.4640   -1.0075   -2.9273 H   0  0  0  0  0  0  0  0  0  0  0  0
   -7.2784   -1.2060   -1.3401 H   0  0  0  0  0  0  0  0  0  0  0  0
   -7.6732    0.1314   -2.4581 H   0  0  0  0  0  0  0  0  0  0  0  0
   -3.2815   -1.8287   -0.5163 H   0  0  0  0  0  0  0  0  0  0  0  0
   -5.8615   -2.4679   -2.0691 H   0  0  0  0  0  0  0  0  0  0  0  0
   -4.5802   -4.3284   -2.6436 H   0  0  0  0  0  0  0  0  0  0  0  0
   -3.6473   -4.2340   -1.1306 H   0  0  0  0  0  0  0  0  0  0  0  0
   -4.5027   -6.3975   -0.5062 H   0  0  0  0  0  0  0  0  0  0  0  0
   -6.2519   -6.7302   -0.5074 H   0  0  0  0  0  0  0  0  0  0  0  0
   -5.4054   -6.4935   -2.0355 H   0  0  0  0  0  0  0  0  0  0  0  0
   -4.9233   -4.4519    1.0174 H   0  0  0  0  0  0  0  0  0  0  0  0
   -6.1453   -3.2507    0.5502 H   0  0  0  0  0  0  0  0  0  0  0  0
   -6.6579   -4.8635    0.9717 H   0  0  0  0  0  0  0  0  0  0  0  0
  1  2  1  0  0  0  0
  1 40  1  0  0  0  0
  1 41  1  0  0  0  0
  1 42  1  0  0  0  0
  2  3  1  0  0  0  0
  2 43  1  0  0  0  0
  2 44  1  0  0  0  0
  3  4  1  0  0  0  0
  3 45  1  0  0  0  0
  3 46  1  0  0  0  0
  4  5  1  0  0  0  0
  4 47  1  0  0  0  0
  5  6  2  0  0  0  0
  5 19  1  0  0  0  0
  6  7  1  0  0  0  0
  7  8  1  0  0  0  0
  7 17  2  0  0  0  0
  8  9  1  0  0  0  0
  8 48  1  0  0  0  0
  9 10  2  0  0  0  0
  9 14  1  0  0  0  0
 10 11  1  0  0  0  0
 10 49  1  0  0  0  0
 11 12  2  0  0  0  0
 11 50  1  0  0  0  0
 12 13  1  0  0  0  0
 12 15  1  0  0  0  0
 13 14  2  0  0  0  0
 13 51  1  0  0  0  0
 14 52  1  0  0  0  0
 15 16  3  0  0  0  0
 17 18  1  0  0  0  0
 18 19  2  0  0  0  0
 18 53  1  0  0  0  0
 19 20  1  0  0  0  0
 20 21  3  0  0  0  0
 21 22  1  0  0  0  0
 22 23  1  0  0  0  0
 22 54  1  0  0  0  0
 22 55  1  0  0  0  0
 23 24  1  0  0  0  0
 23 56  1  0  0  0  0
 23 57  1  0  0  0  0
 24 25  1  0  0  0  0
 24 58  1  0  0  0  0
 24 59  1  0  0  0  0
 25 26  1  0  0  0  0
 25 60  1  0  0  0  0
 26 27  2  0  0  0  0
 28 30  1  0  0  0  0
 28 61  1  6  0  0  0
 28 29  1  0  0  0  0
 28 26  1  0  0  0  0
 29 62  1  0  0  0  0
 29 63  1  0  0  0  0
 29 64  1  0  0  0  0
 30 31  1  0  0  0  0
 30 32  1  0  0  0  0
 31 65  1  0  0  0  0
 31 66  1  0  0  0  0
 31 67  1  0  0  0  0
 32 33  2  0  0  0  0
 32 34  1  0  0  0  0
 34 35  2  0  0  0  0
 34 68  1  0  0  0  0
 35 36  1  0  0  0  0
 35 69  1  0  0  0  0
 36 37  1  0  0  0  0
 36 70  1  0  0  0  0
 36 71  1  0  0  0  0
 37 38  1  0  0  0  0
 37 39  1  0  0  0  0
 38 72  1  0  0  0  0
 38 73  1  0  0  0  0
 38 74  1  0  0  0  0
 39 75  1  0  0  0  0
 39 76  1  0  0  0  0
 39 77  1  0  0  0  0
M  END
>  <DRUGBANK_ID>
DB16050

>  <COMMON_NAME>
FF-10101-01

>  <CAS_NUMBER>
1472797-69-5

>  <UNII>
7V7IHI0SYG

$$$$
