
 OpenBabel10282417173D

 43 43  0  0  0  0  0  0  0  0999 V2000
    1.0148    0.1336   -0.0258 C   0  0  0  0  0  0  0  0  0  0  0  0
    0.5321    0.5256   -1.4133 C   0  0  0  0  0  0  0  0  0  0  0  0
    1.0006   -0.4715   -2.4731 C   0  0  0  0  0  0  0  0  0  0  0  0
    0.4758   -1.8818   -2.2187 C   0  0  0  0  0  0  0  0  0  0  0  0
   -0.9735   -1.8540   -2.2925 N   0  0  0  0  0  0  0  0  0  0  0  0
   -1.6479   -2.7710   -3.0653 C   0  0  0  0  0  0  0  0  0  0  0  0
   -1.2116   -4.0954   -3.1545 C   0  0  0  0  0  0  0  0  0  0  0  0
   -1.7406   -4.9705   -4.0953 C   0  0  0  0  0  0  0  0  0  0  0  0
   -2.6777   -4.4959   -5.0039 C   0  0  0  0  0  0  0  0  0  0  0  0
   -3.2863   -3.2472   -4.7727 C   0  0  0  0  0  0  0  0  0  0  0  0
   -2.7352   -2.3665   -3.8394 C   0  0  0  0  0  0  0  0  0  0  0  0
   -2.9907   -5.2639   -6.2543 C   0  0  0  0  0  0  0  0  0  0  0  0
   -3.5162   -4.7199   -7.2262 O   0  0  0  0  0  0  0  0  0  0  0  0
   -2.8323   -6.6091   -6.0712 O   0  0  0  0  0  0  0  0  0  0  0  0
   -3.5477   -7.4958   -6.9772 C   0  0  0  0  0  0  0  0  0  0  0  0
   -5.0401   -7.8019   -6.5909 C   0  0  0  0  0  0  0  0  0  0  0  0
   -5.9282   -6.6266   -6.5198 N   0  0  0  0  0  0  0  0  0  0  0  0
   -7.3458   -6.9472   -6.4077 C   0  0  0  0  0  0  0  0  0  0  0  0
   -5.6477   -5.8229   -5.3396 C   0  0  0  0  0  0  0  0  0  0  0  0
    0.6332   -0.8459    0.2782 H   0  0  0  0  0  0  0  0  0  0  0  0
    0.6691    0.8543    0.7179 H   0  0  0  0  0  0  0  0  0  0  0  0
    2.1080    0.0938   -0.0016 H   0  0  0  0  0  0  0  0  0  0  0  0
   -0.5617    0.5983   -1.4137 H   0  0  0  0  0  0  0  0  0  0  0  0
    0.9049    1.5231   -1.6673 H   0  0  0  0  0  0  0  0  0  0  0  0
    0.6616   -0.1338   -3.4617 H   0  0  0  0  0  0  0  0  0  0  0  0
    2.0963   -0.4923   -2.5049 H   0  0  0  0  0  0  0  0  0  0  0  0
    0.9147   -2.5385   -2.9797 H   0  0  0  0  0  0  0  0  0  0  0  0
    0.8002   -2.2779   -1.2516 H   0  0  0  0  0  0  0  0  0  0  0  0
   -1.5017   -1.3073   -1.6226 H   0  0  0  0  0  0  0  0  0  0  0  0
   -0.4005   -4.4379   -2.5193 H   0  0  0  0  0  0  0  0  0  0  0  0
   -1.3702   -5.9874   -4.1439 H   0  0  0  0  0  0  0  0  0  0  0  0
   -4.1589   -2.9335   -5.3437 H   0  0  0  0  0  0  0  0  0  0  0  0
   -3.0840   -1.3346   -3.8062 H   0  0  0  0  0  0  0  0  0  0  0  0
   -3.4680   -7.1352   -8.0084 H   0  0  0  0  0  0  0  0  0  0  0  0
   -3.0087   -8.4531   -6.9407 H   0  0  0  0  0  0  0  0  0  0  0  0
   -5.4216   -8.4975   -7.3543 H   0  0  0  0  0  0  0  0  0  0  0  0
   -5.0712   -8.3431   -5.6369 H   0  0  0  0  0  0  0  0  0  0  0  0
   -7.5572   -7.4238   -5.4432 H   0  0  0  0  0  0  0  0  0  0  0  0
   -7.9154   -6.0085   -6.4490 H   0  0  0  0  0  0  0  0  0  0  0  0
   -7.7100   -7.5878   -7.2113 H   0  0  0  0  0  0  0  0  0  0  0  0
   -6.0632   -6.2041   -4.4073 H   0  0  0  0  0  0  0  0  0  0  0  0
   -4.6177   -5.8749   -5.0848 H   0  0  0  0  0  0  0  0  0  0  0  0
   -5.9169   -4.7776   -5.5156 H   0  0  0  0  0  0  0  0  0  0  0  0
  1  2  1  0  0  0  0
  1 20  1  0  0  0  0
  1 21  1  0  0  0  0
  1 22  1  0  0  0  0
  2  3  1  0  0  0  0
  2 23  1  0  0  0  0
  2 24  1  0  0  0  0
  3  4  1  0  0  0  0
  3 25  1  0  0  0  0
  3 26  1  0  0  0  0
  4  5  1  0  0  0  0
  4 27  1  0  0  0  0
  4 28  1  0  0  0  0
  5  6  1  0  0  0  0
  5 29  1  0  0  0  0
  6  7  2  0  0  0  0
  6 11  1  0  0  0  0
  7  8  1  0  0  0  0
  7 30  1  0  0  0  0
  8  9  2  0  0  0  0
  8 31  1  0  0  0  0
  9 10  1  0  0  0  0
  9 12  1  0  0  0  0
 10 11  2  0  0  0  0
 10 32  1  0  0  0  0
 11 33  1  0  0  0  0
 12 13  2  0  0  0  0
 12 14  1  0  0  0  0
 14 15  1  0  0  0  0
 15 16  1  0  0  0  0
 15 34  1  0  0  0  0
 15 35  1  0  0  0  0
 16 17  1  0  0  0  0
 16 36  1  0  0  0  0
 16 37  1  0  0  0  0
 17 18  1  0  0  0  0
 17 19  1  0  0  0  0
 18 38  1  0  0  0  0
 18 39  1  0  0  0  0
 18 40  1  0  0  0  0
 19 41  1  0  0  0  0
 19 42  1  0  0  0  0
 19 43  1  0  0  0  0
M  END
>  <DRUGBANK_ID>
DB09085

>  <COMMON_NAME>
Tetracaine

>  <CAS_NUMBER>
94-24-6

>  <UNII>
0619F35CGV

>  <SYNONYMS>
2-(dimethylamino)ethyl 4-(butylamino)benzoate; 2-(Dimethylamino)ethyl p-(butylamino)benzoate; Amethocaine; Amethocaine HCl; Diäthylaminoäthanol ester der p-butylaminobenzösäure; Dicaine; Medihaler-Tetracaine; Metraspray; p-(butylamino)benzoic acid β-(dimethylamino)ethyl ester ; p-Butylaminobenzoyl-2-dimethylaminoethanol; Tetracaína; Tetracaine; Tétracaïne; Tetracaine HCl

$$$$
