
 OpenBabel10282417133D

 65 64  0  0  1  0  0  0  0  0999 V2000
   -0.1060   -0.3352   -0.6597 C   0  0  0  0  0  0  0  0  0  0  0  0
   -0.5374    1.1216   -0.7112 C   0  0  0  0  0  0  0  0  0  0  0  0
   -2.0375    1.2445   -0.4393 C   0  0  0  0  0  0  0  0  0  0  0  0
   -2.3983    0.7002    0.9466 C   0  0  0  0  0  0  0  0  0  0  0  0
   -1.6269    1.4490    2.0404 C   0  0  0  0  0  0  0  0  0  0  0  0
   -1.9821    2.9409    2.0276 C   0  0  0  0  0  0  0  0  0  0  0  0
   -3.4761    3.1292    2.2745 C   0  0  0  0  0  0  0  0  0  0  0  0
   -3.8759    2.4639    3.5796 C   0  0  0  0  0  0  0  0  0  0  0  0
   -3.1873    3.1742    4.6969 C   0  0  0  0  0  0  0  0  0  0  0  0
   -3.8490    3.8842    5.6016 C   0  0  0  0  0  0  0  0  0  0  0  0
   -5.3385    3.8769    5.6993 C   0  0  0  0  0  0  0  0  0  0  0  0
   -5.7000    3.1839    7.0027 C   0  0  0  0  0  0  0  0  0  0  0  0
   -5.0957    3.9520    8.1867 C   0  0  0  0  0  0  0  0  0  0  0  0
   -5.4991    5.4121    8.1301 C   0  0  0  0  0  0  0  0  0  0  0  0
   -6.9846    5.4332    8.1894 C   0  0  0  0  0  0  0  0  0  0  0  0
   -7.4494    4.8227    9.5511 C   0  0  0  0  0  0  0  0  0  0  0  0
   -7.1951    5.7220   10.7219 C   0  0  0  0  0  0  0  0  0  0  0  0
   -7.9368    7.0537   10.4970 C   0  0  0  0  0  0  0  0  0  0  0  0
  -10.0038    4.2592    8.2218 C   0  0  0  0  0  0  0  0  0  0  0  0
   -9.8376    5.8216    8.2570 C   0  0  2  0  0  0  0  0  0  0  0  0
  -10.3488    6.4695    9.5542 C   0  0  0  0  0  0  0  0  0  0  0  0
  -11.3677    3.9574    7.9832 O   0  0  0  0  0  0  0  0  0  0  0  0
  -10.0380    6.3537    6.9654 O   0  0  0  0  0  0  0  0  0  0  0  0
  -11.5401    6.5234    9.7675 O   0  0  0  0  0  0  0  0  0  0  0  0
   -9.4249    6.9304   10.4789 O   0  0  0  0  0  0  0  0  0  0  0  0
   -2.1005    3.1659    4.7555 H   0  0  0  0  0  0  0  0  0  0  0  0
   -3.2665    4.4300    6.3422 H   0  0  0  0  0  0  0  0  0  0  0  0
   -8.8571    6.1560    8.3812 H   0  0  0  0  0  0  0  0  0  0  0  0
   -0.2936   -0.7870    0.3199 H   0  0  0  0  0  0  0  0  0  0  0  0
    0.9637   -0.4293   -0.8488 H   0  0  0  0  0  0  0  0  0  0  0  0
   -0.6595   -0.9115   -1.4066 H   0  0  0  0  0  0  0  0  0  0  0  0
    0.0460    1.7043    0.0117 H   0  0  0  0  0  0  0  0  0  0  0  0
   -0.3040    1.5536   -1.6879 H   0  0  0  0  0  0  0  0  0  0  0  0
   -2.3408    2.2943   -0.5349 H   0  0  0  0  0  0  0  0  0  0  0  0
   -2.6087    0.7101   -1.2044 H   0  0  0  0  0  0  0  0  0  0  0  0
   -3.4818    0.7662    1.0958 H   0  0  0  0  0  0  0  0  0  0  0  0
   -2.1938   -0.3713    1.0211 H   0  0  0  0  0  0  0  0  0  0  0  0
   -1.8312    0.9857    3.0109 H   0  0  0  0  0  0  0  0  0  0  0  0
   -0.5459    1.3318    1.9369 H   0  0  0  0  0  0  0  0  0  0  0  0
   -1.3872    3.4669    2.7807 H   0  0  0  0  0  0  0  0  0  0  0  0
   -1.7082    3.4210    1.0848 H   0  0  0  0  0  0  0  0  0  0  0  0
   -3.7308    4.1964    2.2806 H   0  0  0  0  0  0  0  0  0  0  0  0
   -4.0770    2.6998    1.4658 H   0  0  0  0  0  0  0  0  0  0  0  0
   -4.9611    2.4827    3.6111 H   0  0  0  0  0  0  0  0  0  0  0  0
   -3.6482    1.3989    3.6446 H   0  0  0  0  0  0  0  0  0  0  0  0
   -5.7074    4.9010    5.5994 H   0  0  0  0  0  0  0  0  0  0  0  0
   -5.8671    3.3523    4.9089 H   0  0  0  0  0  0  0  0  0  0  0  0
   -6.7942    3.0966    7.0515 H   0  0  0  0  0  0  0  0  0  0  0  0
   -5.3494    2.1473    7.0237 H   0  0  0  0  0  0  0  0  0  0  0  0
   -5.4117    3.4727    9.1129 H   0  0  0  0  0  0  0  0  0  0  0  0
   -4.0113    3.8960    8.2221 H   0  0  0  0  0  0  0  0  0  0  0  0
   -5.1016    6.0045    8.9536 H   0  0  0  0  0  0  0  0  0  0  0  0
   -5.1760    5.9398    7.2255 H   0  0  0  0  0  0  0  0  0  0  0  0
   -7.2130    6.4885    7.9926 H   0  0  0  0  0  0  0  0  0  0  0  0
   -7.4602    4.9258    7.3361 H   0  0  0  0  0  0  0  0  0  0  0  0
   -8.4985    4.7209    9.7044 H   0  0  0  0  0  0  0  0  0  0  0  0
   -7.1795    3.7705    9.6644 H   0  0  0  0  0  0  0  0  0  0  0  0
   -7.6026    5.2302   11.6127 H   0  0  0  0  0  0  0  0  0  0  0  0
   -6.1184    5.8322   10.8672 H   0  0  0  0  0  0  0  0  0  0  0  0
   -7.6884    7.6958   11.3483 H   0  0  0  0  0  0  0  0  0  0  0  0
   -7.5921    7.5998    9.6126 H   0  0  0  0  0  0  0  0  0  0  0  0
   -9.3934    3.7969    7.4297 H   0  0  0  0  0  0  0  0  0  0  0  0
   -9.7709    3.6892    9.1326 H   0  0  0  0  0  0  0  0  0  0  0  0
  -11.8362    4.3576    8.7435 H   0  0  0  0  0  0  0  0  0  0  0  0
  -10.9147    6.0643    6.6751 H   0  0  0  0  0  0  0  0  0  0  0  0
  1 29  1  0  0  0  0
  1 30  1  0  0  0  0
  1 31  1  0  0  0  0
  2  1  1  0  0  0  0
  2 32  1  0  0  0  0
  2 33  1  0  0  0  0
  3  2  1  0  0  0  0
  3 34  1  0  0  0  0
  3 35  1  0  0  0  0
  4  3  1  0  0  0  0
  4 36  1  0  0  0  0
  4 37  1  0  0  0  0
  5  4  1  0  0  0  0
  5 38  1  0  0  0  0
  5 39  1  0  0  0  0
  6  5  1  0  0  0  0
  6 40  1  0  0  0  0
  6 41  1  0  0  0  0
  7  6  1  0  0  0  0
  7 42  1  0  0  0  0
  7 43  1  0  0  0  0
  8  7  1  0  0  0  0
  8 44  1  0  0  0  0
  8 45  1  0  0  0  0
  9  8  1  0  0  0  0
 10  9  2  0  0  0  0
 11 10  1  0  0  0  0
 11 46  1  0  0  0  0
 11 47  1  0  0  0  0
 12 11  1  0  0  0  0
 12 48  1  0  0  0  0
 12 49  1  0  0  0  0
 13 12  1  0  0  0  0
 13 50  1  0  0  0  0
 13 51  1  0  0  0  0
 14 13  1  0  0  0  0
 14 52  1  0  0  0  0
 14 53  1  0  0  0  0
 15 14  1  0  0  0  0
 15 54  1  0  0  0  0
 15 55  1  0  0  0  0
 16 15  1  0  0  0  0
 16 56  1  0  0  0  0
 16 57  1  0  0  0  0
 17 16  1  0  0  0  0
 17 58  1  0  0  0  0
 17 59  1  0  0  0  0
 18 17  1  0  0  0  0
 18 60  1  0  0  0  0
 18 61  1  0  0  0  0
 19 62  1  0  0  0  0
 19 63  1  0  0  0  0
 20 19  1  0  0  0  0
 20 23  1  0  0  0  0
 20 28  1  1  0  0  0
 21 20  1  0  0  0  0
 22 19  1  0  0  0  0
 22 64  1  0  0  0  0
 23 65  1  0  0  0  0
 24 21  2  0  0  0  0
 25 18  1  0  0  0  0
 25 21  1  0  0  0  0
 26  9  1  0  0  0  0
 27 10  1  0  0  0  0
M  END
>  <DRUGBANK_ID>
DB03831

>  <SECONDARY_ACCESSION_NUMBERS>
EXPT02220

>  <COMMON_NAME>
[(Z)-octadec-9-enyl] (2R)-2,3-bis(oxidanyl)propanoate

$$$$
