F10
 OpenBabel10282417163D

 37 40  0  0  0  0  0  0  0  0999 V2000
   -2.0994    0.7664   -0.0258 N   0  0  0  0  0  0  0  0  0  0  0  0
   -0.9739    2.7353    0.0047 O   0  0  0  0  0  0  0  0  0  0  0  0
    7.6086   -2.1685   -1.8492 C   0  0  0  0  0  0  0  0  0  0  0  0
    4.5884   -0.5560   -1.0223 C   0  0  0  0  0  0  0  0  0  0  0  0
    8.2445   -2.8263   -2.9062 C   0  0  0  0  0  0  0  0  0  0  0  0
    1.6138    1.1713    0.0037 C   0  0  0  0  0  0  0  0  0  0  0  0
   -2.1995   -0.6865    0.0229 C   0  0  0  0  0  0  0  0  0  0  0  0
   -0.8944   -1.5127    0.0175 C   0  0  0  0  0  0  0  0  0  0  0  0
    0.2748    0.7376   -0.0061 C   0  0  0  0  0  0  0  0  0  0  0  0
   -0.9465    1.5082   -0.0080 C   0  0  0  0  0  0  0  0  0  0  0  0
    4.5711    0.6388    1.0577 C   0  0  0  0  0  0  0  0  0  0  0  0
    5.9524    0.6432    1.0095 C   0  0  0  0  0  0  0  0  0  0  0  0
    0.2999   -0.6401   -0.0053 C   0  0  0  0  0  0  0  0  0  0  0  0
    3.8769    0.0123    0.0266 C   0  0  0  0  0  0  0  0  0  0  0  0
    2.4266    0.0539    0.0046 C   0  0  0  0  0  0  0  0  0  0  0  0
    5.9787   -0.4865   -1.0060 C   0  0  0  0  0  0  0  0  0  0  0  0
    6.7593   -1.0778   -2.0909 C   0  0  0  0  0  0  0  0  0  0  0  0
    6.6118   -0.6402   -3.4142 C   0  0  0  0  0  0  0  0  0  0  0  0
    7.2518   -1.2831   -4.4712 C   0  0  0  0  0  0  0  0  0  0  0  0
    8.0599   -2.3884   -4.2175 C   0  0  0  0  0  0  0  0  0  0  0  0
    5.8160    0.4035   -3.6965 F   0  0  0  0  0  0  0  0  0  0  0  0
    1.6066   -1.0557   -0.0163 N   0  0  0  0  0  0  0  0  0  0  0  0
    6.6718    0.0812    0.0126 N   0  0  0  0  0  0  0  0  0  0  0  0
   -2.9436    1.3220   -0.0095 H   0  0  0  0  0  0  0  0  0  0  0  0
    7.7499   -2.5251   -0.8303 H   0  0  0  0  0  0  0  0  0  0  0  0
    4.0743   -1.0171   -1.8595 H   0  0  0  0  0  0  0  0  0  0  0  0
    8.8752   -3.6885   -2.7043 H   0  0  0  0  0  0  0  0  0  0  0  0
    1.9532    2.1989    0.0043 H   0  0  0  0  0  0  0  0  0  0  0  0
   -2.7671   -0.9199    0.9299 H   0  0  0  0  0  0  0  0  0  0  0  0
   -2.8237   -0.9815   -0.8276 H   0  0  0  0  0  0  0  0  0  0  0  0
   -0.8753   -2.1406    0.9159 H   0  0  0  0  0  0  0  0  0  0  0  0
   -0.8948   -2.1843   -0.8484 H   0  0  0  0  0  0  0  0  0  0  0  0
    4.0459    1.1229    1.8746 H   0  0  0  0  0  0  0  0  0  0  0  0
    6.5305    1.1206    1.7955 H   0  0  0  0  0  0  0  0  0  0  0  0
    7.1016   -0.9234   -5.4842 H   0  0  0  0  0  0  0  0  0  0  0  0
    8.5455   -2.9075   -5.0396 H   0  0  0  0  0  0  0  0  0  0  0  0
    1.9261   -2.0172   -0.0082 H   0  0  0  0  0  0  0  0  0  0  0  0
  1 10  1  0  0  0  0
  1  7  1  0  0  0  0
  1 24  1  0  0  0  0
  2 10  2  0  0  0  0
  3  5  2  0  0  0  0
  3 17  1  0  0  0  0
  3 25  1  0  0  0  0
  4 16  2  0  0  0  0
  4 14  1  0  0  0  0
  4 26  1  0  0  0  0
  5 20  1  0  0  0  0
  5 27  1  0  0  0  0
  6 15  2  0  0  0  0
  6  9  1  0  0  0  0
  6 28  1  0  0  0  0
  7  8  1  0  0  0  0
  7 29  1  0  0  0  0
  7 30  1  0  0  0  0
  8 13  1  0  0  0  0
  8 31  1  0  0  0  0
  8 32  1  0  0  0  0
  9 10  1  0  0  0  0
  9 13  2  0  0  0  0
 11 12  1  0  0  0  0
 11 14  2  0  0  0  0
 11 33  1  0  0  0  0
 12 23  2  0  0  0  0
 12 34  1  0  0  0  0
 13 22  1  0  0  0  0
 14 15  1  0  0  0  0
 15 22  1  0  0  0  0
 16 23  1  0  0  0  0
 16 17  1  0  0  0  0
 17 18  2  0  0  0  0
 18 19  1  0  0  0  0
 18 21  1  0  0  0  0
 19 20  2  0  0  0  0
 19 35  1  0  0  0  0
 20 36  1  0  0  0  0
 22 37  1  0  0  0  0
M  END
>  <DRUGBANK_ID>
DB07728

>  <COMMON_NAME>
2-[2-(2-FLUOROPHENYL)PYRIDIN-4-YL]-1,5,6,7-TETRAHYDRO-4H-PYRROLO[3,2-C]PYRIDIN-4-ONE

$$$$
