
 OpenBabel10282417183D

 47 49  0  0  0  0  0  0  0  0999 V2000
   -2.7456   -0.5897    0.0857 S   0  0  0  0  0  0  0  0  0  0  0  0
   -4.5714    4.2482    0.1589 N   0  0  0  0  0  0  0  0  0  0  0  0
   -1.8428    1.0339    0.1028 C   0  0  3  0  0  0  0  0  0  0  0  0
   -1.2459   -1.6081   -0.0233 C   0  0  0  0  0  0  0  0  0  0  0  0
   -0.3593    0.6859   -0.0751 C   0  0  0  0  0  0  0  0  0  0  0  0
   -0.0647   -0.6821   -0.0409 C   0  0  0  0  0  0  0  0  0  0  0  0
   -2.5256    1.8297   -1.1024 C   0  0  0  0  0  0  0  0  0  0  0  0
   -1.9830    1.7237    1.4622 C   0  0  0  0  0  0  0  0  0  0  0  0
   -4.0909    2.0743   -1.0767 C   0  0  0  0  0  0  0  0  0  0  0  0
   -1.2585   -2.3515   -1.3572 C   0  0  0  0  0  0  0  0  0  0  0  0
   -1.2298   -2.4762    1.2325 C   0  0  0  0  0  0  0  0  0  0  0  0
    0.7126    1.5860   -0.0693 C   0  0  0  0  0  0  0  0  0  0  0  0
    1.2550   -1.1536   -0.0243 C   0  0  0  0  0  0  0  0  0  0  0  0
   -4.7837    2.7925    0.1154 C   0  0  0  0  0  0  0  0  0  0  0  0
   -1.9696    1.0993    2.7241 C   0  0  0  0  0  0  0  0  0  0  0  0
   -2.0595    3.0997    1.4738 C   0  0  0  0  0  0  0  0  0  0  0  0
    2.0360    1.1119   -0.0374 C   0  0  0  0  0  0  0  0  0  0  0  0
    2.3072   -0.2554   -0.0202 C   0  0  0  0  0  0  0  0  0  0  0  0
   -2.4633    1.7890    3.8402 C   0  0  0  0  0  0  0  0  0  0  0  0
   -2.4357    3.8138    2.5985 C   0  0  0  0  0  0  0  0  0  0  0  0
   -2.8076    3.1182    3.7411 C   0  0  0  0  0  0  0  0  0  0  0  0
   -5.0055    4.8466    1.4238 C   0  0  0  0  0  0  0  0  0  0  0  0
   -3.6002    4.4837   -0.0115 H   0  0  0  0  0  0  0  0  0  0  0  0
   -2.0264    2.7903   -1.2748 H   0  0  0  0  0  0  0  0  0  0  0  0
   -2.3166    1.2863   -2.0418 H   0  0  0  0  0  0  0  0  0  0  0  0
   -4.3610    2.6180   -1.9932 H   0  0  0  0  0  0  0  0  0  0  0  0
   -4.5903    1.1028   -1.1875 H   0  0  0  0  0  0  0  0  0  0  0  0
   -0.3510   -2.9528   -1.4853 H   0  0  0  0  0  0  0  0  0  0  0  0
   -2.1197   -3.0153   -1.4585 H   0  0  0  0  0  0  0  0  0  0  0  0
   -1.2722   -1.6419   -2.1992 H   0  0  0  0  0  0  0  0  0  0  0  0
   -1.2831   -1.8622    2.1407 H   0  0  0  0  0  0  0  0  0  0  0  0
   -2.0699   -3.1754    1.2598 H   0  0  0  0  0  0  0  0  0  0  0  0
   -0.3042   -3.0508    1.3238 H   0  0  0  0  0  0  0  0  0  0  0  0
    0.5432    2.6582   -0.0275 H   0  0  0  0  0  0  0  0  0  0  0  0
    1.4587   -2.2218   -0.0010 H   0  0  0  0  0  0  0  0  0  0  0  0
   -5.8662    2.6515    0.0221 H   0  0  0  0  0  0  0  0  0  0  0  0
   -4.5194    2.2811    1.0457 H   0  0  0  0  0  0  0  0  0  0  0  0
   -1.5943    0.0971    2.8578 H   0  0  0  0  0  0  0  0  0  0  0  0
   -1.9493    3.6468    0.5436 H   0  0  0  0  0  0  0  0  0  0  0  0
    2.8676    1.8110   -0.0006 H   0  0  0  0  0  0  0  0  0  0  0  0
    3.3285   -0.6262    0.0079 H   0  0  0  0  0  0  0  0  0  0  0  0
   -2.5763    1.2813    4.7981 H   0  0  0  0  0  0  0  0  0  0  0  0
   -2.5784    4.8777    2.5131 H   0  0  0  0  0  0  0  0  0  0  0  0
   -3.3403    3.6391    4.5309 H   0  0  0  0  0  0  0  0  0  0  0  0
   -4.8310    4.2184    2.3019 H   0  0  0  0  0  0  0  0  0  0  0  0
   -4.4585    5.7862    1.5884 H   0  0  0  0  0  0  0  0  0  0  0  0
   -6.0692    5.0764    1.4219 H   0  0  0  0  0  0  0  0  0  0  0  0
  1  3  1  0  0  0  0
  1  4  1  0  0  0  0
  2 14  1  0  0  0  0
  2 22  1  0  0  0  0
  2 23  1  0  0  0  0
  3  5  1  0  0  0  0
  3  7  1  0  0  0  0
  3  8  1  0  0  0  0
  4  6  1  0  0  0  0
  4 10  1  0  0  0  0
  4 11  1  0  0  0  0
  5  6  1  0  0  0  0
  5 12  2  0  0  0  0
  6 13  2  0  0  0  0
  7  9  1  0  0  0  0
  7 24  1  0  0  0  0
  7 25  1  0  0  0  0
  8 15  2  0  0  0  0
  8 16  1  0  0  0  0
  9 14  1  0  0  0  0
  9 26  1  0  0  0  0
  9 27  1  0  0  0  0
 10 28  1  0  0  0  0
 10 29  1  0  0  0  0
 10 30  1  0  0  0  0
 11 31  1  0  0  0  0
 11 32  1  0  0  0  0
 11 33  1  0  0  0  0
 12 17  1  0  0  0  0
 12 34  1  0  0  0  0
 13 18  1  0  0  0  0
 13 35  1  0  0  0  0
 14 36  1  0  0  0  0
 14 37  1  0  0  0  0
 15 19  1  0  0  0  0
 15 38  1  0  0  0  0
 16 20  2  0  0  0  0
 16 39  1  0  0  0  0
 17 18  2  0  0  0  0
 17 40  1  0  0  0  0
 18 41  1  0  0  0  0
 19 21  2  0  0  0  0
 19 42  1  0  0  0  0
 20 21  1  0  0  0  0
 20 43  1  0  0  0  0
 21 44  1  0  0  0  0
 22 45  1  0  0  0  0
 22 46  1  0  0  0  0
 22 47  1  0  0  0  0
M  END
>  <DRUGBANK_ID>
DB09191

>  <COMMON_NAME>
Talsupram

>  <CAS_NUMBER>
21489-20-3

>  <UNII>
C6Z73MW6CR

>  <SYNONYMS>
Talsupram

$$$$
