
 OpenBabel10282417123D

 30 30  0  0  0  0  0  0  0  0999 V2000
    1.0069    0.0030    0.0921 C   0  0  0  0  0  0  0  0  0  0  0  0
    0.5832   -1.3836   -0.3055 C   0  0  0  0  0  0  0  0  0  0  0  0
    1.3189   -2.4936    0.1754 C   0  0  0  0  0  0  0  0  0  0  0  0
    2.3643   -2.1840    1.0055 O   0  0  0  0  0  0  0  0  0  0  0  0
    0.9728   -3.7912   -0.1995 C   0  0  0  0  0  0  0  0  0  0  0  0
    1.7710   -4.9405    0.3002 C   0  0  0  0  0  0  0  0  0  0  0  0
    1.5274   -6.0853   -0.0475 O   0  0  0  0  0  0  0  0  0  0  0  0
   -0.1469   -3.9652   -1.0312 C   0  0  0  0  0  0  0  0  0  0  0  0
   -0.7733   -5.2768   -1.4144 C   0  0  0  0  0  0  0  0  0  0  0  0
   -1.9851   -5.3818   -0.7065 O   0  0  0  0  0  0  0  0  0  0  0  0
   -2.0331   -5.7263    0.8594 P   0  0  0  0  0  0  0  0  0  0  0  0
   -3.1198   -6.8866    0.8377 O   0  0  0  0  0  0  0  0  0  0  0  0
   -0.6990   -6.4944    1.2395 O   0  0  0  0  0  0  0  0  0  0  0  0
   -2.3607   -4.5512    1.7153 O   0  0  0  0  0  0  0  0  0  0  0  0
   -0.8627   -2.8366   -1.4531 C   0  0  0  0  0  0  0  0  0  0  0  0
   -0.5032   -1.5876   -1.0997 N   0  3  0  0  0  0  0  0  0  0  0  0
   -1.3293   -0.4592   -1.5905 C   0  0  0  0  0  0  0  0  0  0  0  0
    0.6317    0.2334    1.0929 H   0  0  0  0  0  0  0  0  0  0  0  0
    0.6562    0.7627   -0.6067 H   0  0  0  0  0  0  0  0  0  0  0  0
    2.0994    0.0742    0.0905 H   0  0  0  0  0  0  0  0  0  0  0  0
    2.8630   -2.9361    1.3631 H   0  0  0  0  0  0  0  0  0  0  0  0
    2.5795   -4.7609    1.0248 H   0  0  0  0  0  0  0  0  0  0  0  0
   -1.0062   -5.2585   -2.4864 H   0  0  0  0  0  0  0  0  0  0  0  0
   -0.1882   -6.1831   -1.3013 H   0  0  0  0  0  0  0  0  0  0  0  0
   -4.0244   -6.5367    0.9089 H   0  0  0  0  0  0  0  0  0  0  0  0
    0.0491   -6.5546    0.6105 H   0  0  0  0  0  0  0  0  0  0  0  0
   -1.7630   -2.9419   -2.0590 H   0  0  0  0  0  0  0  0  0  0  0  0
   -1.7222    0.0838   -0.7275 H   0  0  0  0  0  0  0  0  0  0  0  0
   -0.6951    0.1705   -2.2187 H   0  0  0  0  0  0  0  0  0  0  0  0
   -2.1619   -0.8306   -2.1950 H   0  0  0  0  0  0  0  0  0  0  0  0
  1  2  1  0  0  0  0
  1 18  1  0  0  0  0
  1 19  1  0  0  0  0
  1 20  1  0  0  0  0
  2  3  2  0  0  0  0
  2 16  1  0  0  0  0
  3  4  1  0  0  0  0
  3  5  1  0  0  0  0
  4 21  1  0  0  0  0
  5  6  1  0  0  0  0
  5  8  2  0  0  0  0
  6  7  2  0  0  0  0
  6 22  1  0  0  0  0
  8  9  1  0  0  0  0
  8 15  1  0  0  0  0
  9 10  1  0  0  0  0
  9 23  1  0  0  0  0
  9 24  1  0  0  0  0
 10 11  1  0  0  0  0
 11 12  1  0  0  0  0
 11 13  1  0  0  0  0
 11 14  2  0  0  0  0
 12 25  1  0  0  0  0
 13 26  1  0  0  0  0
 15 16  2  0  0  0  0
 15 27  1  0  0  0  0
 16 17  1  0  0  0  0
 17 28  1  0  0  0  0
 17 29  1  0  0  0  0
 17 30  1  0  0  0  0
M  CHG  1  16   1
M  END
>  <DRUGBANK_ID>
DB01639

>  <SECONDARY_ACCESSION_NUMBERS>
EXPT02223

>  <COMMON_NAME>
N-Methyl-Pyridoxal-5'-Phosphate

$$$$
