
 OpenBabel10282417103D

 78 81  0  0  1  0  0  0  0  0999 V2000
   -2.8129   -3.8362    0.1403 C   0  0  0  0  0  0  0  0  0  0  0  0
   -0.7304    0.5082   -0.7360 C   0  0  0  0  0  0  0  0  0  0  0  0
   -1.3943   -3.3469    0.2189 C   0  0  0  0  0  0  0  0  0  0  0  0
   -1.4778   -0.8144   -0.8217 C   0  0  1  0  0  0  0  0  0  0  0  0
   -1.0274   -1.8059    0.3247 C   0  0  0  0  0  0  0  0  0  0  0  0
   -3.6784   -2.8906    0.5927 N   0  0  0  0  0  0  0  0  0  0  0  0
   -6.9663   -4.1900   -2.5122 C   0  0  0  0  0  0  0  0  0  0  0  0
    0.5835    0.4001   -1.2334 O   0  0  0  0  0  0  0  0  0  0  0  0
    1.1847   -0.7816   -1.7663 C   0  0  0  0  0  0  0  0  0  0  0  0
   -7.5194   -3.5354   -1.2251 C   0  0  2  0  0  0  0  0  0  0  0  0
   -3.0977   -4.9262   -0.2981 O   0  0  0  0  0  0  0  0  0  0  0  0
   -1.1257    1.5589   -0.2907 O   0  0  0  0  0  0  0  0  0  0  0  0
   -7.9220   -4.7323   -3.3020 O   0  0  0  0  0  0  0  0  0  0  0  0
   -7.1035   -2.0700   -1.1830 C   0  0  0  0  0  0  0  0  0  0  0  0
   -7.0495   -4.2460    0.0454 C   0  0  0  0  0  0  0  0  0  0  0  0
   -5.0904   -2.7691    0.2687 C   0  0  1  0  0  0  0  0  0  0  0  0
   -5.8079   -4.2193   -2.8460 O   0  0  0  0  0  0  0  0  0  0  0  0
   -5.6010   -1.9408   -0.9649 C   0  0  0  0  0  0  0  0  0  0  0  0
   -5.5738   -4.1768    0.1893 C   0  0  0  0  0  0  0  0  0  0  0  0
   -2.8973   -0.9428   -1.2436 C   0  0  0  0  0  0  0  0  0  0  0  0
   -0.9705   -3.8547   -1.1071 C   0  0  0  0  0  0  0  0  0  0  0  0
   -0.5952   -4.2622    1.1950 C   0  0  0  0  0  0  0  0  0  0  0  0
   -3.7046    0.0134   -1.8574 O   0  0  0  0  0  0  0  0  0  0  0  0
   -3.2961    1.2935    1.2157 O   0  0  0  0  0  0  0  0  0  0  0  0
   -3.9408    1.8341    0.0421 C   0  0  0  0  0  0  0  0  0  0  0  0
   -3.6078    1.3561   -1.4312 C   0  0  0  0  0  0  0  0  0  0  0  0
   -3.8312    0.0515    1.5661 C   0  0  0  0  0  0  0  0  0  0  0  0
    0.4163   -4.1960   -0.7730 C   0  0  0  0  0  0  0  0  0  0  0  0
    0.7897   -4.3643    0.6477 C   0  0  0  0  0  0  0  0  0  0  0  0
    2.2369   -1.3037   -1.0035 C   0  0  0  0  0  0  0  0  0  0  0  0
    2.8152   -2.5372   -1.3880 C   0  0  0  0  0  0  0  0  0  0  0  0
    0.6427   -1.4830   -2.8748 C   0  0  0  0  0  0  0  0  0  0  0  0
    2.2705   -3.2673   -2.4894 C   0  0  0  0  0  0  0  0  0  0  0  0
    1.1253   -2.7620   -3.1710 C   0  0  0  0  0  0  0  0  0  0  0  0
    2.4048   -4.7678   -2.7616 C   0  0  0  0  0  0  0  0  0  0  0  0
    1.4186   -4.9466   -3.9490 C   0  0  0  0  0  0  0  0  0  0  0  0
    0.3316   -3.8754   -3.8571 C   0  0  0  0  0  0  0  0  0  0  0  0
   -1.1700   -1.1696   -1.7675 H   0  0  0  0  0  0  0  0  0  0  0  0
   -1.3432   -1.4356    1.3007 H   0  0  0  0  0  0  0  0  0  0  0  0
    0.0571   -1.6979    0.4204 H   0  0  0  0  0  0  0  0  0  0  0  0
   -3.2226   -2.1983    1.1459 H   0  0  0  0  0  0  0  0  0  0  0  0
   -8.6104   -3.5749   -1.2299 H   0  0  0  0  0  0  0  0  0  0  0  0
   -8.8327   -4.6469   -2.9826 H   0  0  0  0  0  0  0  0  0  0  0  0
   -7.4000   -1.5477   -2.1030 H   0  0  0  0  0  0  0  0  0  0  0  0
   -7.6015   -1.5459   -0.3562 H   0  0  0  0  0  0  0  0  0  0  0  0
   -7.4751   -3.7731    0.9380 H   0  0  0  0  0  0  0  0  0  0  0  0
   -7.3028   -5.3038    0.0335 H   0  0  0  0  0  0  0  0  0  0  0  0
   -5.4932   -2.2498    1.1420 H   0  0  0  0  0  0  0  0  0  0  0  0
   -5.4696   -0.8672   -0.8227 H   0  0  0  0  0  0  0  0  0  0  0  0
   -5.0990   -2.2055   -1.9026 H   0  0  0  0  0  0  0  0  0  0  0  0
   -5.2204   -4.7130    1.0761 H   0  0  0  0  0  0  0  0  0  0  0  0
   -5.1323   -4.6545   -0.6862 H   0  0  0  0  0  0  0  0  0  0  0  0
   -3.0672   -1.9033   -1.7554 H   0  0  0  0  0  0  0  0  0  0  0  0
   -3.3146   -1.1361   -0.3243 H   0  0  0  0  0  0  0  0  0  0  0  0
   -1.4116   -4.7651   -1.5217 H   0  0  0  0  0  0  0  0  0  0  0  0
   -1.1367   -3.1228   -1.8980 H   0  0  0  0  0  0  0  0  0  0  0  0
   -0.5904   -3.9032    2.2167 H   0  0  0  0  0  0  0  0  0  0  0  0
   -0.9904   -5.2824    1.1358 H   0  0  0  0  0  0  0  0  0  0  0  0
   -3.6999    2.8991    0.0771 H   0  0  0  0  0  0  0  0  0  0  0  0
   -5.0146    1.7238    0.2173 H   0  0  0  0  0  0  0  0  0  0  0  0
   -2.6481    1.6799   -1.8158 H   0  0  0  0  0  0  0  0  0  0  0  0
   -4.3247    1.8791   -2.0733 H   0  0  0  0  0  0  0  0  0  0  0  0
   -4.8010   -0.0597    2.0472 H   0  0  0  0  0  0  0  0  0  0  0  0
   -4.1871   -0.2914    0.6380 H   0  0  0  0  0  0  0  0  0  0  0  0
   -3.0668   -0.5948    2.0025 H   0  0  0  0  0  0  0  0  0  0  0  0
    0.6018   -5.0758   -1.3481 H   0  0  0  0  0  0  0  0  0  0  0  0
    0.8366   -3.2493   -0.9414 H   0  0  0  0  0  0  0  0  0  0  0  0
    1.3476   -5.2983    0.7680 H   0  0  0  0  0  0  0  0  0  0  0  0
    1.4664   -3.5611    0.9808 H   0  0  0  0  0  0  0  0  0  0  0  0
    2.4397   -0.8623   -0.0205 H   0  0  0  0  0  0  0  0  0  0  0  0
    3.4288   -3.0413   -0.6382 H   0  0  0  0  0  0  0  0  0  0  0  0
   -0.2878   -1.1693   -3.3501 H   0  0  0  0  0  0  0  0  0  0  0  0
    2.1472   -5.4654   -1.9493 H   0  0  0  0  0  0  0  0  0  0  0  0
    3.4313   -5.0518   -2.9628 H   0  0  0  0  0  0  0  0  0  0  0  0
    1.9618   -4.7399   -4.8658 H   0  0  0  0  0  0  0  0  0  0  0  0
    0.9823   -5.9544   -4.0061 H   0  0  0  0  0  0  0  0  0  0  0  0
   -0.1343   -3.5513   -4.7890 H   0  0  0  0  0  0  0  0  0  0  0  0
   -0.5130   -4.3383   -3.3268 H   0  0  0  0  0  0  0  0  0  0  0  0
  3  1  1  0  0  0  0
  4 20  1  0  0  0  0
  4 38  1  6  0  0  0
  4  5  1  0  0  0  0
  4  2  1  0  0  0  0
  5  3  1  0  0  0  0
  5 39  1  0  0  0  0
  5 40  1  0  0  0  0
  6  1  1  0  0  0  0
  6 41  1  0  0  0  0
  8  2  1  0  0  0  0
  9  8  1  0  0  0  0
  9 30  1  0  0  0  0
 10  7  1  0  0  0  0
 10 15  1  0  0  0  0
 10 14  1  0  0  0  0
 10 42  1  6  0  0  0
 11  1  2  0  0  0  0
 12  2  2  0  0  0  0
 13  7  1  0  0  0  0
 13 43  1  0  0  0  0
 14 18  1  0  0  0  0
 14 44  1  0  0  0  0
 14 45  1  0  0  0  0
 15 19  1  0  0  0  0
 15 46  1  0  0  0  0
 15 47  1  0  0  0  0
 16  6  1  0  0  0  0
 16 48  1  1  0  0  0
 17  7  2  0  0  0  0
 18 16  1  0  0  0  0
 18 49  1  0  0  0  0
 18 50  1  0  0  0  0
 19 16  1  0  0  0  0
 19 51  1  0  0  0  0
 19 52  1  0  0  0  0
 20 53  1  0  0  0  0
 20 54  1  0  0  0  0
 21  3  1  0  0  0  0
 21 55  1  0  0  0  0
 21 56  1  0  0  0  0
 22  3  1  0  0  0  0
 22 57  1  0  0  0  0
 22 58  1  0  0  0  0
 23 20  1  0  0  0  0
 24 25  1  0  0  0  0
 25 26  1  0  0  0  0
 25 59  1  0  0  0  0
 25 60  1  0  0  0  0
 26 23  1  0  0  0  0
 26 61  1  0  0  0  0
 26 62  1  0  0  0  0
 27 24  1  0  0  0  0
 27 63  1  0  0  0  0
 27 64  1  0  0  0  0
 27 65  1  0  0  0  0
 28 21  1  0  0  0  0
 28 29  1  0  0  0  0
 28 66  1  0  0  0  0
 28 67  1  0  0  0  0
 29 22  1  0  0  0  0
 29 68  1  0  0  0  0
 29 69  1  0  0  0  0
 30 70  1  0  0  0  0
 31 30  2  0  0  0  0
 31 71  1  0  0  0  0
 32  9  2  0  0  0  0
 32 72  1  0  0  0  0
 33 31  1  0  0  0  0
 34 32  1  0  0  0  0
 34 33  2  0  0  0  0
 35 33  1  0  0  0  0
 35 73  1  0  0  0  0
 35 74  1  0  0  0  0
 36 35  1  0  0  0  0
 36 75  1  0  0  0  0
 36 76  1  0  0  0  0
 37 34  1  0  0  0  0
 37 36  1  0  0  0  0
 37 77  1  0  0  0  0
 37 78  1  0  0  0  0
M  END
>  <DRUGBANK_ID>
DB00616

>  <SECONDARY_ACCESSION_NUMBERS>
APRD00027

>  <COMMON_NAME>
Candoxatril

>  <CAS_NUMBER>
123122-55-4

>  <UNII>
ACP75508EE

>  <SYNONYMS>
[4(S)-cis]-4-[[[1-[3-[(2,3-dihydro-1H-Indeb5-yl)oxy]-2-[(2-methoxyethoxy)methyl]-3-oxopropyl]cyclopentyl]carbonyl]amino]cyclohexanecarboxylic acid; 4-({1-[(S)-2-(indan-5-yloxycarbonyl)-3-(2-methoxy-ethoxy)-propyl]-cyclopentanecarbonyl}-amino)-cyclohexanecarboxylic acid; Candoxatril

$$$$
