
 OpenBabel10282417133D

 20 20  0  0  0  0  0  0  0  0999 V2000
    1.0419    0.0878    0.0166 C   0  0  0  0  0  0  0  0  0  0  0  0
    0.3271   -1.1759   -0.2714 C   0  0  0  0  0  0  0  0  0  0  0  0
    0.7495   -2.3490    0.3576 C   0  0  0  0  0  0  0  0  0  0  0  0
    0.4323    1.1328    0.2178 O   0  0  0  0  0  0  0  0  0  0  0  0
    2.4060    0.0296    0.0811 N   0  0  0  0  0  0  0  0  0  0  0  0
    0.0214   -3.5294    0.2136 C   0  0  0  0  0  0  0  0  0  0  0  0
    0.3390   -4.7156    0.8208 O   0  0  0  0  0  0  0  0  0  0  0  0
   -0.8277   -1.1777   -1.0573 C   0  0  0  0  0  0  0  0  0  0  0  0
   -1.5756   -2.3510   -1.1811 C   0  0  0  0  0  0  0  0  0  0  0  0
   -1.1371   -3.5291   -0.5679 C   0  0  0  0  0  0  0  0  0  0  0  0
    1.4713   -4.6786    1.6875 C   0  0  0  0  0  0  0  0  0  0  0  0
    1.6235   -2.3029    0.9948 H   0  0  0  0  0  0  0  0  0  0  0  0
    2.9450   -0.7856   -0.1761 H   0  0  0  0  0  0  0  0  0  0  0  0
    2.9012    0.8898    0.2785 H   0  0  0  0  0  0  0  0  0  0  0  0
   -1.1509   -0.2693   -1.5604 H   0  0  0  0  0  0  0  0  0  0  0  0
   -2.5128   -2.3447   -1.7334 H   0  0  0  0  0  0  0  0  0  0  0  0
   -1.7127   -4.4447   -0.6887 H   0  0  0  0  0  0  0  0  0  0  0  0
    2.3810   -4.4422    1.1237 H   0  0  0  0  0  0  0  0  0  0  0  0
    1.3213   -3.9631    2.5052 H   0  0  0  0  0  0  0  0  0  0  0  0
    1.6018   -5.6675    2.1328 H   0  0  0  0  0  0  0  0  0  0  0  0
  2  1  1  0  0  0  0
  3  2  1  0  0  0  0
  3 12  1  0  0  0  0
  4  1  2  0  0  0  0
  5  1  1  0  0  0  0
  5 13  1  0  0  0  0
  5 14  1  0  0  0  0
  6  3  2  0  0  0  0
  7  6  1  0  0  0  0
  8  2  2  0  0  0  0
  8 15  1  0  0  0  0
  9  8  1  0  0  0  0
  9 16  1  0  0  0  0
 10  9  2  0  0  0  0
 10  6  1  0  0  0  0
 10 17  1  0  0  0  0
 11  7  1  0  0  0  0
 11 18  1  0  0  0  0
 11 19  1  0  0  0  0
 11 20  1  0  0  0  0
M  END
>  <DRUGBANK_ID>
DB03073

>  <SECONDARY_ACCESSION_NUMBERS>
EXPT00177

>  <COMMON_NAME>
3-Methoxybenzamide

>  <CAS_NUMBER>
5813-86-5

>  <UNII>
M8502TLK98

>  <SYNONYMS>
m-Anisamide; m-Methoxybenzamide

$$$$
