
 OpenBabel10282417223D

 28 27  0  0  1  0  0  0  0  0999 V2000
   -1.3918    5.1169   -0.8291 N   0  0  0  0  0  0  0  0  0  0  0  0
   -1.6252    3.7787   -0.2794 C   0  0  1  0  0  0  0  0  0  0  0  0
   -0.9821    2.7030   -1.2078 C   0  0  0  0  0  0  0  0  0  0  0  0
    0.5710    2.5989   -1.2781 C   0  0  2  0  0  0  0  0  0  0  0  0
    1.1883    2.2296    0.0804 C   0  0  0  0  0  0  0  0  0  0  0  0
    0.3791    1.1696    0.8546 C   0  0  0  0  0  0  0  0  0  0  0  0
    0.4574   -0.1555    0.1271 C   0  0  0  0  0  0  0  0  0  0  0  0
    1.7596   -0.5291    0.0587 F   0  0  0  0  0  0  0  0  0  0  0  0
    1.2282    3.8736   -1.8157 C   0  0  0  0  0  0  0  0  0  0  0  0
    1.8527    3.7494   -3.0059 O   0  0  0  0  0  0  0  0  0  0  0  0
    1.1916    4.9496   -1.2493 O   0  0  0  0  0  0  0  0  0  0  0  0
   -1.2495    3.7949    1.2447 C   0  0  0  0  0  0  0  0  0  0  0  0
   -2.2256    3.3891    2.0858 O   0  0  0  0  0  0  0  0  0  0  0  0
   -0.1658    4.1353    1.7127 O   0  0  0  0  0  0  0  0  0  0  0  0
   -0.3881    5.3382   -0.6712 H   0  0  0  0  0  0  0  0  0  0  0  0
   -1.4578    5.1052   -1.8461 H   0  0  0  0  0  0  0  0  0  0  0  0
   -2.7087    3.6211   -0.3274 H   0  0  0  0  0  0  0  0  0  0  0  0
   -1.4031    1.7245   -0.9350 H   0  0  0  0  0  0  0  0  0  0  0  0
   -1.3592    2.8393   -2.2334 H   0  0  0  0  0  0  0  0  0  0  0  0
    0.8196    1.7870   -1.9768 H   0  0  0  0  0  0  0  0  0  0  0  0
    2.2153    1.8725   -0.0514 H   0  0  0  0  0  0  0  0  0  0  0  0
    1.3447    3.1371    0.6604 H   0  0  0  0  0  0  0  0  0  0  0  0
    0.7643    1.0834    1.8750 H   0  0  0  0  0  0  0  0  0  0  0  0
   -0.6797    1.4182    0.9741 H   0  0  0  0  0  0  0  0  0  0  0  0
   -0.1132   -0.9315    0.6395 H   0  0  0  0  0  0  0  0  0  0  0  0
    0.0787   -0.0759   -0.8967 H   0  0  0  0  0  0  0  0  0  0  0  0
    1.9672    2.8482   -3.3522 H   0  0  0  0  0  0  0  0  0  0  0  0
   -3.1203    3.4312    1.7079 H   0  0  0  0  0  0  0  0  0  0  0  0
  1 15  1  0  0  0  0
  1 16  1  0  0  0  0
  2  1  1  0  0  0  0
  2  3  1  0  0  0  0
  2 12  1  0  0  0  0
  2 17  1  6  0  0  0
  3 18  1  0  0  0  0
  3 19  1  0  0  0  0
  4  9  1  0  0  0  0
  4 20  1  6  0  0  0
  4  5  1  0  0  0  0
  4  3  1  0  0  0  0
  5  6  1  0  0  0  0
  5 21  1  0  0  0  0
  5 22  1  0  0  0  0
  6  7  1  0  0  0  0
  6 23  1  0  0  0  0
  6 24  1  0  0  0  0
  7  8  1  0  0  0  0
  7 25  1  0  0  0  0
  7 26  1  0  0  0  0
  9 10  1  0  0  0  0
  9 11  2  0  0  0  0
 10 27  1  0  0  0  0
 12 13  1  0  0  0  0
 12 14  2  0  0  0  0
 13 28  1  0  0  0  0
M  ISO  1   8  18
M  END
>  <DRUGBANK_ID>
DB15041

>  <COMMON_NAME>
Florilglutamic acid F-18

>  <CAS_NUMBER>
1196963-74-2

>  <UNII>
92T1Y5X038

>  <SYNONYMS>
[F18] Florilglutamic Acid; 18F-FSPG

$$$$
