3IG
 OpenBabel10282417163D

 55 57  0  0  0  0  0  0  0  0999 V2000
    0.8797   -0.0643   -0.1272 C   0  0  0  0  0  0  0  0  0  0  0  0
   -0.1573    0.7678   -0.0248 N   0  0  0  0  0  0  0  0  0  0  0  0
   -1.3208    0.1746    0.0337 C   0  0  0  0  0  0  0  0  0  0  0  0
   -1.4463   -1.1550    0.0146 N   0  0  0  0  0  0  0  0  0  0  0  0
   -0.2936   -1.9161    0.0600 C   0  0  0  0  0  0  0  0  0  0  0  0
    0.9684   -1.4098    0.0889 C   0  0  0  0  0  0  0  0  0  0  0  0
    1.9354    0.5086   -0.7996 N   0  0  0  0  0  0  0  0  0  0  0  0
   -2.3976    1.0088    0.0284 N   0  0  0  0  0  0  0  0  0  0  0  0
   -0.4359   -3.3997    0.0566 C   0  0  0  0  0  0  0  0  0  0  0  0
   -1.1498   -3.7636    1.3238 C   0  0  0  0  0  0  0  0  0  0  0  0
    2.6890   -3.0057   -0.8899 C   0  0  0  0  0  0  0  0  0  0  0  0
    3.8679   -3.7690   -0.7886 C   0  0  0  0  0  0  0  0  0  0  0  0
    4.7082   -3.6343    0.3161 C   0  0  0  0  0  0  0  0  0  0  0  0
    4.3575   -2.7332    1.3333 C   0  0  0  0  0  0  0  0  0  0  0  0
    3.1349   -2.0294    1.2494 C   0  0  0  0  0  0  0  0  0  0  0  0
    2.2667   -2.1549    0.1446 C   0  0  0  0  0  0  0  0  0  0  0  0
    5.8778   -4.3727    0.3126 O   0  0  0  0  0  0  0  0  0  0  0  0
    6.8658   -3.9134    1.2527 C   0  0  0  0  0  0  0  0  0  0  0  0
    6.2243   -3.5496    2.6030 C   0  0  0  0  0  0  0  0  0  0  0  0
    5.2328   -2.5812    2.4417 N   0  0  0  0  0  0  0  0  0  0  0  0
    5.2332   -1.3975    3.3033 C   0  0  0  0  0  0  0  0  0  0  0  0
    5.6669   -0.0952    2.5872 C   0  0  0  0  0  0  0  0  0  0  0  0
    4.7925    0.3900    1.5417 N   0  0  0  0  0  0  0  0  0  0  0  0
    4.2387    1.6444    1.6444 C   0  0  0  0  0  0  0  0  0  0  0  0
    3.5375    2.1259    0.4403 C   0  0  0  0  0  0  0  0  0  0  0  0
    7.5579   -2.6526    0.6894 C   0  0  0  0  0  0  0  0  0  0  0  0
    7.9751   -4.9628    1.4427 C   0  0  0  0  0  0  0  0  0  0  0  0
    6.5849   -3.9869    3.6914 O   0  0  0  0  0  0  0  0  0  0  0  0
    4.2079    2.3013    2.6925 O   0  0  0  0  0  0  0  0  0  0  0  0
    1.6531    1.4895   -0.7951 H   0  0  0  0  0  0  0  0  0  0  0  0
    2.6955    0.2279   -0.1940 H   0  0  0  0  0  0  0  0  0  0  0  0
   -2.2068    1.9995    0.0498 H   0  0  0  0  0  0  0  0  0  0  0  0
   -3.3205    0.6231    0.0141 H   0  0  0  0  0  0  0  0  0  0  0  0
   -0.9263   -3.7089   -0.8692 H   0  0  0  0  0  0  0  0  0  0  0  0
    0.5309   -3.9092    0.0762 H   0  0  0  0  0  0  0  0  0  0  0  0
   -2.1455   -3.3147    1.3396 H   0  0  0  0  0  0  0  0  0  0  0  0
   -1.2226   -4.8461    1.3947 H   0  0  0  0  0  0  0  0  0  0  0  0
   -0.5933   -3.3845    2.1918 H   0  0  0  0  0  0  0  0  0  0  0  0
    2.0750   -3.1068   -1.7838 H   0  0  0  0  0  0  0  0  0  0  0  0
    4.1242   -4.4631   -1.5858 H   0  0  0  0  0  0  0  0  0  0  0  0
    2.8472   -1.3657    2.0628 H   0  0  0  0  0  0  0  0  0  0  0  0
    4.2609   -1.2918    3.7886 H   0  0  0  0  0  0  0  0  0  0  0  0
    5.9788   -1.5507    4.0955 H   0  0  0  0  0  0  0  0  0  0  0  0
    5.7625    0.6963    3.3345 H   0  0  0  0  0  0  0  0  0  0  0  0
    6.6452   -0.2065    2.1114 H   0  0  0  0  0  0  0  0  0  0  0  0
    4.7206   -0.1596    0.6886 H   0  0  0  0  0  0  0  0  0  0  0  0
    2.4900    2.0521    0.7610 H   0  0  0  0  0  0  0  0  0  0  0  0
    3.6750    3.1403    0.0885 H   0  0  0  0  0  0  0  0  0  0  0  0
    3.8589    1.5063   -0.4067 H   0  0  0  0  0  0  0  0  0  0  0  0
    8.2928   -2.2558    1.3997 H   0  0  0  0  0  0  0  0  0  0  0  0
    8.0551   -2.8663   -0.2612 H   0  0  0  0  0  0  0  0  0  0  0  0
    6.8447   -1.8514    0.4768 H   0  0  0  0  0  0  0  0  0  0  0  0
    7.5926   -5.9075    1.8397 H   0  0  0  0  0  0  0  0  0  0  0  0
    8.4748   -5.1889    0.4929 H   0  0  0  0  0  0  0  0  0  0  0  0
    8.7459   -4.5992    2.1376 H   0  0  0  0  0  0  0  0  0  0  0  0
  1  2  1  0  0  0  0
  1  6  2  0  0  0  0
  1  7  1  0  0  0  0
  2  3  2  0  0  0  0
  3  4  1  0  0  0  0
  3  8  1  0  0  0  0
  4  5  2  0  0  0  0
  5  6  1  0  0  0  0
  5  9  1  0  0  0  0
  6 16  1  0  0  0  0
  7 30  1  0  0  0  0
  7 31  1  0  0  0  0
  8 32  1  0  0  0  0
  8 33  1  0  0  0  0
  9 10  1  0  0  0  0
  9 34  1  0  0  0  0
  9 35  1  0  0  0  0
 10 36  1  0  0  0  0
 10 37  1  0  0  0  0
 10 38  1  0  0  0  0
 11 12  2  0  0  0  0
 11 16  1  0  0  0  0
 11 39  1  0  0  0  0
 12 13  1  0  0  0  0
 12 40  1  0  0  0  0
 13 14  2  0  0  0  0
 13 17  1  0  0  0  0
 14 15  1  0  0  0  0
 14 20  1  0  0  0  0
 15 16  2  0  0  0  0
 15 41  1  0  0  0  0
 17 18  1  0  0  0  0
 18 19  1  0  0  0  0
 18 26  1  0  0  0  0
 18 27  1  0  0  0  0
 19 20  1  0  0  0  0
 19 28  2  0  0  0  0
 20 21  1  0  0  0  0
 21 22  1  0  0  0  0
 21 42  1  0  0  0  0
 21 43  1  0  0  0  0
 22 23  1  0  0  0  0
 22 44  1  0  0  0  0
 22 45  1  0  0  0  0
 23 24  1  0  0  0  0
 23 46  1  0  0  0  0
 24 25  1  0  0  0  0
 24 29  2  0  0  0  0
 25 47  1  0  0  0  0
 25 48  1  0  0  0  0
 25 49  1  0  0  0  0
 26 50  1  0  0  0  0
 26 51  1  0  0  0  0
 26 52  1  0  0  0  0
 27 53  1  0  0  0  0
 27 54  1  0  0  0  0
 27 55  1  0  0  0  0
M  END
>  <DRUGBANK_ID>
DB07059

>  <COMMON_NAME>
N-{2-[6-(2,4-DIAMINO-6-ETHYLPYRIMIDIN-5-YL)-2,2-DIMETHYL-3-OXO-2,3-DIHYDRO-4H-1,4-BENZOXAZIN-4-YL]ETHYL}ACETAMIDE

$$$$
