
 OpenBabel10282417223D

 71 75  0  0  0  0  0  0  0  0999 V2000
    0.9150   -0.0156   -0.0029 C   0  0  0  0  0  0  0  0  0  0  0  0
    0.4372    0.3775   -1.3939 C   0  0  0  0  0  0  0  0  0  0  0  0
    0.9433   -0.5883   -2.4627 C   0  0  0  0  0  0  0  0  0  0  0  0
   -1.0741    0.4958   -1.4472 C   0  0  0  0  0  0  0  0  0  0  0  0
   -1.7417   -0.6992   -1.4164 N   0  0  0  0  0  0  0  0  0  0  0  0
   -3.0861   -0.6743   -1.3845 C   0  0  0  0  0  0  0  0  0  0  0  0
   -3.8195    0.4945   -1.3577 C   0  0  0  0  0  0  0  0  0  0  0  0
   -3.1445    1.7260   -1.3874 C   0  0  0  0  0  0  0  0  0  0  0  0
   -3.9637    2.9848   -1.4283 C   0  0  0  0  0  0  0  0  0  0  0  0
   -1.7315    1.7457   -1.4437 C   0  0  0  0  0  0  0  0  0  0  0  0
   -1.0157    2.9940   -1.4652 N   0  0  0  0  0  0  0  0  0  0  0  0
   -1.0653    3.8659   -0.3677 C   0  0  0  0  0  0  0  0  0  0  0  0
   -1.7153    3.6062    0.6367 O   0  0  0  0  0  0  0  0  0  0  0  0
   -0.3273    5.0367   -0.4080 N   0  0  0  0  0  0  0  0  0  0  0  0
    0.4341    5.3602   -1.4071 C   0  0  0  0  0  0  0  0  0  0  0  0
    1.1843    6.5406   -1.3604 N   0  0  0  0  0  0  0  0  0  0  0  0
    1.3974    7.5026   -2.4815 C   0  0  0  0  0  0  0  0  0  0  0  0
    1.4702    8.9793   -2.0347 C   0  0  0  0  0  0  0  0  0  0  0  0
    2.3576    9.1341   -0.8726 N   0  0  0  0  0  0  0  0  0  0  0  0
    1.9198    8.2549    0.2045 C   0  0  0  0  0  0  0  0  0  0  0  0
    2.0393    6.7764   -0.1826 C   0  0  2  0  0  0  0  0  0  0  0  0
    3.4815    6.3267   -0.4677 C   0  0  0  0  0  0  0  0  0  0  0  0
    3.4628    9.9592   -0.9366 C   0  0  0  0  0  0  0  0  0  0  0  0
    3.7163   10.6194   -1.9497 O   0  0  0  0  0  0  0  0  0  0  0  0
    4.4257   10.1238    0.2089 C   0  0  0  0  0  0  0  0  0  0  0  0
    4.5361    9.5491    1.4134 C   0  0  0  0  0  0  0  0  0  0  0  0
    0.5679    4.4474   -2.5484 C   0  0  0  0  0  0  0  0  0  0  0  0
    1.4908    4.6913   -3.5549 C   0  0  0  0  0  0  0  0  0  0  0  0
    1.6015    3.8291   -4.6064 C   0  0  0  0  0  0  0  0  0  0  0  0
    2.4924    4.1045   -5.5659 F   0  0  0  0  0  0  0  0  0  0  0  0
    0.8527    2.6730   -4.5997 C   0  0  0  0  0  0  0  0  0  0  0  0
   -0.0450    2.4022   -3.6064 N   0  0  0  0  0  0  0  0  0  0  0  0
   -0.1778    3.2812   -2.5711 C   0  0  0  0  0  0  0  0  0  0  0  0
    1.0597    1.6647   -5.6303 C   0  0  0  0  0  0  0  0  0  0  0  0
    2.3241    1.1259   -5.9476 C   0  0  0  0  0  0  0  0  0  0  0  0
    3.4954    1.4550   -5.3135 O   0  0  0  0  0  0  0  0  0  0  0  0
    2.4699    0.1808   -6.9629 C   0  0  0  0  0  0  0  0  0  0  0  0
    1.3585   -0.2466   -7.6835 C   0  0  0  0  0  0  0  0  0  0  0  0
    0.1043    0.2835   -7.3981 C   0  0  0  0  0  0  0  0  0  0  0  0
   -0.0340    1.2291   -6.3867 C   0  0  0  0  0  0  0  0  0  0  0  0
   -1.2508    1.7554   -6.1754 F   0  0  0  0  0  0  0  0  0  0  0  0
    0.5661   -1.0121    0.2811 H   0  0  0  0  0  0  0  0  0  0  0  0
    0.5580    0.7016    0.7452 H   0  0  0  0  0  0  0  0  0  0  0  0
    2.0100   -0.0090    0.0265 H   0  0  0  0  0  0  0  0  0  0  0  0
    0.9170    1.3344   -1.5890 H   0  0  0  0  0  0  0  0  0  0  0  0
    0.6123   -1.6138   -2.2720 H   0  0  0  0  0  0  0  0  0  0  0  0
    0.5745   -0.3049   -3.4537 H   0  0  0  0  0  0  0  0  0  0  0  0
    2.0367   -0.5799   -2.4943 H   0  0  0  0  0  0  0  0  0  0  0  0
   -3.5748   -1.6457   -1.3824 H   0  0  0  0  0  0  0  0  0  0  0  0
   -4.9037    0.4420   -1.3277 H   0  0  0  0  0  0  0  0  0  0  0  0
   -3.7861    3.6048   -0.5487 H   0  0  0  0  0  0  0  0  0  0  0  0
   -3.7241    3.5505   -2.3334 H   0  0  0  0  0  0  0  0  0  0  0  0
   -5.0364    2.7670   -1.4426 H   0  0  0  0  0  0  0  0  0  0  0  0
    0.6113    7.3873   -3.2357 H   0  0  0  0  0  0  0  0  0  0  0  0
    2.3673    7.3001   -2.9466 H   0  0  0  0  0  0  0  0  0  0  0  0
    0.4741    9.3072   -1.7184 H   0  0  0  0  0  0  0  0  0  0  0  0
    1.7716    9.6087   -2.8795 H   0  0  0  0  0  0  0  0  0  0  0  0
    0.8713    8.5112    0.3925 H   0  0  0  0  0  0  0  0  0  0  0  0
    2.3905    8.4121    1.1482 H   0  0  0  0  0  0  0  0  0  0  0  0
    1.6819    6.1906    0.6716 H   0  0  0  0  0  0  0  0  0  0  0  0
    4.1132    6.4740    0.4139 H   0  0  0  0  0  0  0  0  0  0  0  0
    3.5155    5.2616   -0.7270 H   0  0  0  0  0  0  0  0  0  0  0  0
    3.9455    6.8705   -1.2983 H   0  0  0  0  0  0  0  0  0  0  0  0
    5.1894   10.8697   -0.0275 H   0  0  0  0  0  0  0  0  0  0  0  0
    5.3134    9.8321    2.1126 H   0  0  0  0  0  0  0  0  0  0  0  0
    3.9115    8.7800    1.8183 H   0  0  0  0  0  0  0  0  0  0  0  0
    2.1742    5.5169   -3.5551 H   0  0  0  0  0  0  0  0  0  0  0  0
    3.3589    2.1459   -4.6489 H   0  0  0  0  0  0  0  0  0  0  0  0
    3.4547   -0.2230   -7.1860 H   0  0  0  0  0  0  0  0  0  0  0  0
    1.4717   -0.9912   -8.4658 H   0  0  0  0  0  0  0  0  0  0  0  0
   -0.7719   -0.0288   -7.9561 H   0  0  0  0  0  0  0  0  0  0  0  0
  1  2  1  0  0  0  0
  1 42  1  0  0  0  0
  1 43  1  0  0  0  0
  1 44  1  0  0  0  0
  2  3  1  0  0  0  0
  2  4  1  0  0  0  0
  2 45  1  0  0  0  0
  3 46  1  0  0  0  0
  3 47  1  0  0  0  0
  3 48  1  0  0  0  0
  4  5  2  0  0  0  0
  4 10  1  0  0  0  0
  5  6  1  0  0  0  0
  6  7  2  0  0  0  0
  6 49  1  0  0  0  0
  7  8  1  0  0  0  0
  7 50  1  0  0  0  0
  8  9  1  0  0  0  0
  8 10  2  0  0  0  0
  9 51  1  0  0  0  0
  9 52  1  0  0  0  0
  9 53  1  0  0  0  0
 10 11  1  0  0  0  0
 11 12  1  0  0  0  0
 11 33  1  0  0  0  0
 12 13  2  0  0  0  0
 12 14  1  0  0  0  0
 14 15  2  0  0  0  0
 15 16  1  0  0  0  0
 15 27  1  0  0  0  0
 16 17  1  0  0  0  0
 17 18  1  0  0  0  0
 17 54  1  0  0  0  0
 17 55  1  0  0  0  0
 18 19  1  0  0  0  0
 18 56  1  0  0  0  0
 18 57  1  0  0  0  0
 19 20  1  0  0  0  0
 19 23  1  0  0  0  0
 20 58  1  0  0  0  0
 20 59  1  0  0  0  0
 21 20  1  0  0  0  0
 21 16  1  0  0  0  0
 21 22  1  0  0  0  0
 21 60  1  1  0  0  0
 22 61  1  0  0  0  0
 22 62  1  0  0  0  0
 22 63  1  0  0  0  0
 23 24  2  0  0  0  0
 23 25  1  0  0  0  0
 25 26  2  0  0  0  0
 25 64  1  0  0  0  0
 26 65  1  0  0  0  0
 26 66  1  0  0  0  0
 27 28  2  0  0  0  0
 27 33  1  0  0  0  0
 28 29  1  0  0  0  0
 28 67  1  0  0  0  0
 29 30  1  0  0  0  0
 29 31  2  0  0  0  0
 31 32  1  0  0  0  0
 31 34  1  0  0  0  0
 32 33  2  0  0  0  0
 34 35  2  0  0  0  0
 34 40  1  0  0  0  0
 35 36  1  0  0  0  0
 35 37  1  0  0  0  0
 36 68  1  0  0  0  0
 37 38  2  0  0  0  0
 37 69  1  0  0  0  0
 38 39  1  0  0  0  0
 38 70  1  0  0  0  0
 39 40  2  0  0  0  0
 39 71  1  0  0  0  0
 40 41  1  0  0  0  0
M  END
>  <DRUGBANK_ID>
DB15569

>  <COMMON_NAME>
Sotorasib

>  <CAS_NUMBER>
2252403-56-6

>  <UNII>
2B2VM6UC8G

>  <SYNONYMS>
6-fluoro-7-(2-fluoro-6-hydroxyphenyl)-(1M)-1-[4-methyl-2-(propan-2-yl)pyridin-3-yl]-4-[(2S)-2- methyl-4-(prop-2-enoyl)piperazin-1-yl]pyrido[2,3-d]pyrimidin-2(1H)-one; Kras G12C inhibitor 9; Sotorasib

$$$$
