
 OpenBabel10282417123D

 18 17  0  0  0  0  0  0  0  0999 V2000
   -2.9079   -0.2956   -2.1368 C   0  0  0  0  0  0  0  0  0  0  0  0
   -1.5733   -0.1156   -1.4223 C   0  0  1  0  0  0  0  0  0  0  0  0
   -1.6900    0.9873   -0.5177 O   0  0  0  0  0  0  0  0  0  0  0  0
   -1.0559   -1.3671   -0.6404 C   0  0  2  0  0  0  0  0  0  0  0  0
    0.4277   -1.3237   -0.5461 N   0  0  0  0  0  0  0  0  0  0  0  0
   -1.5447   -2.6993   -1.2505 C   0  0  0  0  0  0  0  0  0  0  0  0
   -1.1222   -3.8407   -0.5117 O   0  0  0  0  0  0  0  0  0  0  0  0
   -3.7146   -0.5073   -1.4285 H   0  0  0  0  0  0  0  0  0  0  0  0
   -2.8588   -1.0966   -2.8810 H   0  0  0  0  0  0  0  0  0  0  0  0
   -3.1804    0.6225   -2.6681 H   0  0  0  0  0  0  0  0  0  0  0  0
   -0.8355    0.1752   -2.1797 H   0  0  0  0  0  0  0  0  0  0  0  0
   -1.9288    1.7763   -1.0340 H   0  0  0  0  0  0  0  0  0  0  0  0
   -1.4111   -1.3202    0.3976 H   0  0  0  0  0  0  0  0  0  0  0  0
    0.8172   -0.7456   -1.2878 H   0  0  0  0  0  0  0  0  0  0  0  0
    0.8452   -2.2405   -0.6497 H   0  0  0  0  0  0  0  0  0  0  0  0
   -2.6390   -2.7359   -1.2431 H   0  0  0  0  0  0  0  0  0  0  0  0
   -1.2023   -2.8073   -2.2843 H   0  0  0  0  0  0  0  0  0  0  0  0
   -0.1555   -3.8087   -0.4186 H   0  0  0  0  0  0  0  0  0  0  0  0
  1  2  1  0  0  0  0
  1  8  1  0  0  0  0
  1  9  1  0  0  0  0
  1 10  1  0  0  0  0
  2  3  1  0  0  0  0
  2 11  1  6  0  0  0
  3 12  1  0  0  0  0
  4  6  1  0  0  0  0
  4 13  1  1  0  0  0
  4  5  1  0  0  0  0
  4  2  1  0  0  0  0
  5 14  1  0  0  0  0
  5 15  1  0  0  0  0
  6  7  1  0  0  0  0
  6 16  1  0  0  0  0
  6 17  1  0  0  0  0
  7 18  1  0  0  0  0
M  END
>  <DRUGBANK_ID>
DB01724

>  <SECONDARY_ACCESSION_NUMBERS>
EXPT03054

>  <COMMON_NAME>
L-Threoninol

>  <CAS_NUMBER>
3228-51-1

>  <UNII>
A16V466XOD

$$$$
