
 OpenBabel10282417233D

 34 36  0  0  1  0  0  0  0  0999 V2000
    1.0108   -0.0626   -0.0358 C   0  0  0  0  0  0  0  0  0  0  0  0
    0.5948    1.2491    0.3324 O   0  0  0  0  0  0  0  0  0  0  0  0
    0.8543    1.5692    1.6361 C   0  0  0  0  0  0  0  0  0  0  0  0
    2.1576    1.5051    2.1400 C   0  0  0  0  0  0  0  0  0  0  0  0
    2.4207    1.8661    3.4595 C   0  0  0  0  0  0  0  0  0  0  0  0
    1.3785    2.3025    4.2708 C   0  0  0  0  0  0  0  0  0  0  0  0
    1.7089    2.7119    5.9110 Cl  0  0  0  0  0  0  0  0  0  0  0  0
    0.0796    2.4170    3.7587 C   0  0  0  0  0  0  0  0  0  0  0  0
   -0.2023    2.0697    2.4168 C   0  0  0  0  0  0  0  0  0  0  0  0
   -1.6216    2.2210    1.8491 C   0  0  2  0  0  0  0  0  0  0  0  0
   -2.4724    2.7690    2.7786 F   0  0  0  0  0  0  0  0  0  0  0  0
   -2.1957    0.8224    1.3799 C   0  0  0  0  0  0  0  0  0  0  0  0
   -2.3598   -0.1965    2.0427 O   0  0  0  0  0  0  0  0  0  0  0  0
   -2.5113    0.9184    0.0264 N   0  0  0  0  0  0  0  0  0  0  0  0
   -2.2156    2.1737   -0.4708 C   0  0  0  0  0  0  0  0  0  0  0  0
   -1.7032    2.9999    0.5321 C   0  0  0  0  0  0  0  0  0  0  0  0
   -1.3392    4.3011    0.2191 C   0  0  0  0  0  0  0  0  0  0  0  0
   -1.4868    4.7367   -1.1116 C   0  0  0  0  0  0  0  0  0  0  0  0
   -1.9966    3.8832   -2.1196 C   0  0  0  0  0  0  0  0  0  0  0  0
   -2.3642    2.5733   -1.7838 C   0  0  0  0  0  0  0  0  0  0  0  0
   -2.1620    4.3462   -3.5485 C   0  0  0  0  0  0  0  0  0  0  0  0
   -1.4382    3.5958   -4.4260 F   0  0  0  0  0  0  0  0  0  0  0  0
   -3.4549    4.2618   -3.9707 F   0  0  0  0  0  0  0  0  0  0  0  0
   -1.7836    5.6365   -3.7583 F   0  0  0  0  0  0  0  0  0  0  0  0
    0.6106   -0.2590   -1.0352 H   0  0  0  0  0  0  0  0  0  0  0  0
    0.6071   -0.8210    0.6443 H   0  0  0  0  0  0  0  0  0  0  0  0
    2.0997   -0.1264   -0.0943 H   0  0  0  0  0  0  0  0  0  0  0  0
    2.9821    1.2008    1.5027 H   0  0  0  0  0  0  0  0  0  0  0  0
    3.4370    1.8091    3.8416 H   0  0  0  0  0  0  0  0  0  0  0  0
   -0.7117    2.7798    4.4139 H   0  0  0  0  0  0  0  0  0  0  0  0
   -2.8737    0.1467   -0.5133 H   0  0  0  0  0  0  0  0  0  0  0  0
   -0.9351    4.9723    0.9716 H   0  0  0  0  0  0  0  0  0  0  0  0
   -1.1952    5.7553   -1.3710 H   0  0  0  0  0  0  0  0  0  0  0  0
   -2.7456    1.8918   -2.5387 H   0  0  0  0  0  0  0  0  0  0  0  0
  1  2  1  0  0  0  0
  1 25  1  0  0  0  0
  1 26  1  0  0  0  0
  1 27  1  0  0  0  0
  2  3  1  0  0  0  0
  3  4  2  0  0  0  0
  3  9  1  0  0  0  0
  4  5  1  0  0  0  0
  4 28  1  0  0  0  0
  5  6  2  0  0  0  0
  5 29  1  0  0  0  0
  6  7  1  0  0  0  0
  6  8  1  0  0  0  0
  8  9  2  0  0  0  0
  8 30  1  0  0  0  0
 10  9  1  0  0  0  0
 10 11  1  1  0  0  0
 10 12  1  0  0  0  0
 10 16  1  0  0  0  0
 12 13  2  0  0  0  0
 12 14  1  0  0  0  0
 14 15  1  0  0  0  0
 14 31  1  0  0  0  0
 15 16  2  0  0  0  0
 15 20  1  0  0  0  0
 16 17  1  0  0  0  0
 17 18  2  0  0  0  0
 17 32  1  0  0  0  0
 18 19  1  0  0  0  0
 18 33  1  0  0  0  0
 19 20  2  0  0  0  0
 19 21  1  0  0  0  0
 20 34  1  0  0  0  0
 21 22  1  0  0  0  0
 21 23  1  0  0  0  0
 21 24  1  0  0  0  0
M  END
>  <DRUGBANK_ID>
DB16908

>  <COMMON_NAME>
Flindokalner

>  <CAS_NUMBER>
187523-35-9

>  <UNII>
J57O328W4W

>  <SYNONYMS>
(3s)-(+)-(5-chloro-2-methoxyphenyl)-1,3-dihydro-3-fluoro-6-(trifluoromethyl)-2h-indol-2-one; (3s)-3-(5-chloro-2-methoxyphenyl)-3-fluoro-6-(trifluoromethyl)-1,3-dihydro-2h-indol-2-one; 2h-indol-2-one, 3-(5-chloro-2-methoxyphenyl)-3-fluoro-1,3-dihydro-6-(trifluoromethyl)-, (3s)-; Maxipost

$$$$
