
 OpenBabel10282417123D

 25 25  0  0  0  0  0  0  0  0999 V2000
    0.8858   -0.0348    0.1925 N   0  0  0  0  0  0  0  0  0  0  0  0
    0.2065   -1.1472    0.5827 C   0  0  0  0  0  0  0  0  0  0  0  0
   -1.0825   -1.2025    0.5317 N   0  0  0  0  0  0  0  0  0  0  0  0
    0.9311   -2.3236    1.1325 C   0  0  0  0  0  0  0  0  0  0  0  0
    2.0313   -2.1417    1.9742 C   0  0  0  0  0  0  0  0  0  0  0  0
    2.6110   -3.2440    2.6047 C   0  0  0  0  0  0  0  0  0  0  0  0
    2.0743   -4.5283    2.4229 C   0  0  0  0  0  0  0  0  0  0  0  0
    2.6942   -5.7272    3.0908 C   0  0  0  0  0  0  0  0  0  0  0  0
    1.7414   -6.4946    3.9682 C   0  0  0  0  0  0  0  0  0  0  0  0
    1.4741   -7.6726    3.7372 O   0  0  0  0  0  0  0  0  0  0  0  0
    1.1241   -5.7958    5.2059 C   0  0  0  0  0  0  0  0  0  0  0  0
    1.5234   -4.5528    5.4927 O   0  0  0  0  0  0  0  0  0  0  0  0
    0.3350   -6.3949    5.9248 O   0  0  0  0  0  0  0  0  0  0  0  0
    0.9601   -4.6961    1.5895 C   0  0  0  0  0  0  0  0  0  0  0  0
    0.4204   -3.6051    0.9119 C   0  0  0  0  0  0  0  0  0  0  0  0
    0.4011    0.7030   -0.3015 H   0  0  0  0  0  0  0  0  0  0  0  0
    1.8862   -0.0780    0.0383 H   0  0  0  0  0  0  0  0  0  0  0  0
   -1.4704   -0.3220    0.1950 H   0  0  0  0  0  0  0  0  0  0  0  0
    2.4131   -1.1451    2.1771 H   0  0  0  0  0  0  0  0  0  0  0  0
    3.4603   -3.0799    3.2658 H   0  0  0  0  0  0  0  0  0  0  0  0
    3.0479   -6.4003    2.2973 H   0  0  0  0  0  0  0  0  0  0  0  0
    3.5804   -5.4621    3.6774 H   0  0  0  0  0  0  0  0  0  0  0  0
    2.0671   -4.0755    4.8454 H   0  0  0  0  0  0  0  0  0  0  0  0
    0.4900   -5.6722    1.4693 H   0  0  0  0  0  0  0  0  0  0  0  0
   -0.4130   -3.7496    0.2276 H   0  0  0  0  0  0  0  0  0  0  0  0
  1  2  1  0  0  0  0
  1 16  1  0  0  0  0
  1 17  1  0  0  0  0
  2  3  2  0  0  0  0
  2  4  1  0  0  0  0
  3 18  1  0  0  0  0
  4  5  2  0  0  0  0
  4 15  1  0  0  0  0
  5  6  1  0  0  0  0
  5 19  1  0  0  0  0
  6  7  2  0  0  0  0
  6 20  1  0  0  0  0
  7  8  1  0  0  0  0
  7 14  1  0  0  0  0
  8  9  1  0  0  0  0
  8 21  1  0  0  0  0
  8 22  1  0  0  0  0
  9 10  2  0  0  0  0
  9 11  1  0  0  0  0
 11 12  1  0  0  0  0
 11 13  2  0  0  0  0
 12 23  1  0  0  0  0
 14 15  2  0  0  0  0
 14 24  1  0  0  0  0
 15 25  1  0  0  0  0
M  END
>  <DRUGBANK_ID>
DB02018

>  <SECONDARY_ACCESSION_NUMBERS>
EXPT00537

>  <COMMON_NAME>
Amido Phenyl Pyruvic Acid

$$$$
