
 OpenBabel10282417103D

 57 59  0  0  0  0  0  0  0  0999 V2000
   -0.8825   -1.4305   -0.0439 N   0  0  0  0  0  0  0  0  0  0  0  0
    0.3326   -0.7904    0.0168 C   0  0  0  0  0  0  0  0  0  0  0  0
    0.4629    0.5629    0.0980 C   0  0  0  0  0  0  0  0  0  0  0  0
    1.4666   -1.5858   -0.0175 N   0  0  0  0  0  0  0  0  0  0  0  0
   -1.9434    0.6301    0.0929 N   0  0  0  0  0  0  0  0  0  0  0  0
    2.7994   -1.0604    0.1679 C   0  0  0  0  0  0  0  0  0  0  0  0
    2.8653    0.3935   -0.3619 C   0  0  3  0  0  0  0  0  0  0  0  0
    4.2415    0.9894   -0.0380 C   0  0  0  0  0  0  0  0  0  0  0  0
    6.2525    0.8646   -1.4402 C   0  0  0  0  0  0  0  0  0  0  0  0
    7.6807    2.7563   -1.9746 C   0  0  0  0  0  0  0  0  0  0  0  0
    6.7408    2.1382   -1.1443 C   0  0  0  0  0  0  0  0  0  0  0  0
    6.7318    0.2199   -2.5800 C   0  0  0  0  0  0  0  0  0  0  0  0
    7.7057    0.8121   -3.3916 C   0  0  0  0  0  0  0  0  0  0  0  0
    8.1554    2.1092   -3.1237 C   0  0  0  0  0  0  0  0  0  0  0  0
    9.0768    2.8691   -4.0299 C   0  0  0  0  0  0  0  0  0  0  0  0
    9.4093    4.0170   -3.7496 O   0  0  0  0  0  0  0  0  0  0  0  0
    9.5065    2.2553   -5.1881 N   0  0  0  0  0  0  0  0  0  0  0  0
   11.6787    0.4944   -9.3286 O   0  0  0  0  0  0  0  0  0  0  0  0
   10.3440    2.9444   -6.1761 C   0  0  2  0  0  0  0  0  0  0  0  0
    9.7270    4.4936   -7.9953 O   0  0  0  0  0  0  0  0  0  0  0  0
    9.5144    3.2774   -7.4450 C   0  0  0  0  0  0  0  0  0  0  0  0
    8.7287    2.5206   -7.9742 O   0  0  0  0  0  0  0  0  0  0  0  0
   11.6122    2.1006   -6.4323 C   0  0  0  0  0  0  0  0  0  0  0  0
   11.4080    0.6557   -6.9213 C   0  0  0  0  0  0  0  0  0  0  0  0
   10.9512    0.4931   -8.3483 C   0  0  0  0  0  0  0  0  0  0  0  0
    9.6166    0.3869   -8.4349 O   0  0  0  0  0  0  0  0  0  0  0  0
   -0.7997    1.3520    0.0183 C   0  0  0  0  0  0  0  0  0  0  0  0
   -0.8723    2.5501   -0.2350 O   0  0  0  0  0  0  0  0  0  0  0  0
   -1.9578   -0.7162   -0.0188 C   0  0  0  0  0  0  0  0  0  0  0  0
   -3.1832   -1.2674   -0.1135 N   0  0  0  0  0  0  0  0  0  0  0  0
    5.2892    0.2282   -0.6824 N   0  0  0  0  0  0  0  0  0  0  0  0
    1.7138    1.1974    0.1483 N   0  0  0  0  0  0  0  0  0  0  0  0
    1.0704    3.1410    1.3176 O   0  0  0  0  0  0  0  0  0  0  0  0
    1.8588    2.4867    0.6479 C   0  0  0  0  0  0  0  0  0  0  0  0
    2.8474    2.9200    0.4710 H   0  0  0  0  0  0  0  0  0  0  0  0
    1.2855   -2.5736    0.1302 H   0  0  0  0  0  0  0  0  0  0  0  0
   -2.7833    1.1723   -0.0020 H   0  0  0  0  0  0  0  0  0  0  0  0
    3.0635   -1.0856    1.2318 H   0  0  0  0  0  0  0  0  0  0  0  0
    3.5045   -1.7074   -0.3662 H   0  0  0  0  0  0  0  0  0  0  0  0
    2.7469    0.3657   -1.4575 H   0  0  0  0  0  0  0  0  0  0  0  0
    4.2571    2.0078   -0.4355 H   0  0  0  0  0  0  0  0  0  0  0  0
    4.3921    1.0471    1.0463 H   0  0  0  0  0  0  0  0  0  0  0  0
    8.0339    3.7518   -1.7122 H   0  0  0  0  0  0  0  0  0  0  0  0
    6.3995    2.6712   -0.2601 H   0  0  0  0  0  0  0  0  0  0  0  0
    6.3036   -0.7367   -2.8751 H   0  0  0  0  0  0  0  0  0  0  0  0
    8.0748    0.2307   -4.2268 H   0  0  0  0  0  0  0  0  0  0  0  0
    9.1197    1.3658   -5.4709 H   0  0  0  0  0  0  0  0  0  0  0  0
   10.6628    3.9025   -5.7470 H   0  0  0  0  0  0  0  0  0  0  0  0
   10.0085    5.1888   -7.3747 H   0  0  0  0  0  0  0  0  0  0  0  0
   12.3002    2.6354   -7.0971 H   0  0  0  0  0  0  0  0  0  0  0  0
   12.1371    2.0185   -5.4653 H   0  0  0  0  0  0  0  0  0  0  0  0
   12.3695    0.1328   -6.8650 H   0  0  0  0  0  0  0  0  0  0  0  0
   10.7390    0.0988   -6.2568 H   0  0  0  0  0  0  0  0  0  0  0  0
    9.2822    1.1304   -9.0013 H   0  0  0  0  0  0  0  0  0  0  0  0
   -4.0250   -0.7192   -0.0336 H   0  0  0  0  0  0  0  0  0  0  0  0
   -3.2569   -2.2753   -0.1267 H   0  0  0  0  0  0  0  0  0  0  0  0
    5.5172   -0.7002   -0.3408 H   0  0  0  0  0  0  0  0  0  0  0  0
  1  2  1  0  0  0  0
  2  3  2  0  0  0  0
  2  4  1  0  0  0  0
  3 32  1  0  0  0  0
  3 27  1  0  0  0  0
  4 36  1  0  0  0  0
  5 37  1  0  0  0  0
  6  4  1  0  0  0  0
  6  7  1  0  0  0  0
  6 38  1  0  0  0  0
  6 39  1  0  0  0  0
  7  8  1  0  0  0  0
  7 40  1  0  0  0  0
  8 31  1  0  0  0  0
  8 41  1  0  0  0  0
  8 42  1  0  0  0  0
  9 12  1  0  0  0  0
 10 11  1  0  0  0  0
 10 14  2  0  0  0  0
 10 43  1  0  0  0  0
 11  9  2  0  0  0  0
 11 44  1  0  0  0  0
 12 13  2  0  0  0  0
 12 45  1  0  0  0  0
 13 14  1  0  0  0  0
 13 46  1  0  0  0  0
 14 15  1  0  0  0  0
 15 17  1  0  0  0  0
 15 16  2  0  0  0  0
 17 47  1  0  0  0  0
 19 17  1  0  0  0  0
 19 23  1  0  0  0  0
 19 21  1  0  0  0  0
 19 48  1  1  0  0  0
 20 49  1  0  0  0  0
 21 20  1  0  0  0  0
 21 22  2  0  0  0  0
 23 24  1  0  0  0  0
 23 50  1  0  0  0  0
 23 51  1  0  0  0  0
 24 25  1  0  0  0  0
 24 52  1  0  0  0  0
 24 53  1  0  0  0  0
 25 18  2  0  0  0  0
 25 26  1  0  0  0  0
 26 54  1  0  0  0  0
 27  5  1  0  0  0  0
 27 28  2  0  0  0  0
 29  1  2  0  0  0  0
 29  5  1  0  0  0  0
 29 30  1  0  0  0  0
 30 55  1  0  0  0  0
 30 56  1  0  0  0  0
 31  9  1  0  0  0  0
 31 57  1  0  0  0  0
 32  7  1  0  0  0  0
 32 34  1  0  0  0  0
 34 33  2  0  0  0  0
 34 35  1  0  0  0  0
M  END
>  <DRUGBANK_ID>
DB00650

>  <SECONDARY_ACCESSION_NUMBERS>
APRD00698

>  <COMMON_NAME>
Leucovorin

>  <CAS_NUMBER>
58-05-9

>  <UNII>
Q573I9DVLP

>  <SYNONYMS>
(5-formyl-5,6,7,8-tetrahydropteroyl)glutamate; 10-Formyl-7,8-dihydrofolic acid; 5-Formyl-5,6,7,8-tetrahydrofolic acid; 5-Formyl-5,6,7,8-tetrahydropteroyl-L-glutamic acid; 5-Formyltetrahydrofolate; 5-formyltetrahydrofolic acid; Acide folinique; Acido folinico; Folinate; Folinic acid; L(-)-5-Formyl-5,6,7,8-tetrahydrofolic acid; Leucovorinum; N-(5-formyl-5,6,7,8-tetrahydropteroyl)-L-glutamic acid; N5-Formyl-5,6,7,8-tetrahydrofolic acid; N5-Formyltetrahydrofolic acid

$$$$
