
 OpenBabel10282417163D

 26 26  0  0  0  0  0  0  0  0999 V2000
   -1.3738   -0.1161    0.0064 C   0  0  0  0  0  0  0  0  0  0  0  0
   -0.6295   -1.3003    0.0105 C   0  0  0  0  0  0  0  0  0  0  0  0
    0.7595   -1.2579    0.0070 C   0  0  0  0  0  0  0  0  0  0  0  0
    1.3970   -0.0258    0.0022 C   0  0  0  0  0  0  0  0  0  0  0  0
    0.6610    1.1577    0.0087 C   0  0  0  0  0  0  0  0  0  0  0  0
   -0.7531    1.1490    0.0120 C   0  0  0  0  0  0  0  0  0  0  0  0
   -2.7331   -0.2309   -0.0069 O   0  0  0  0  0  0  0  0  0  0  0  0
    2.7567    0.0665   -0.0099 O   0  0  0  0  0  0  0  0  0  0  0  0
   -1.5060    2.4962    0.0196 C   0  0  0  0  0  0  0  0  0  0  0  0
   -1.1171    3.3063    1.2771 C   0  0  0  0  0  0  0  0  0  0  0  0
   -1.1311    3.3095   -1.2395 C   0  0  0  0  0  0  0  0  0  0  0  0
   -3.0446    2.3779    0.0299 C   0  0  0  0  0  0  0  0  0  0  0  0
   -1.1290   -2.2649    0.0151 H   0  0  0  0  0  0  0  0  0  0  0  0
    1.3200   -2.1859    0.0063 H   0  0  0  0  0  0  0  0  0  0  0  0
    1.2132    2.0960    0.0090 H   0  0  0  0  0  0  0  0  0  0  0  0
   -2.9989   -1.1637   -0.0247 H   0  0  0  0  0  0  0  0  0  0  0  0
    3.1283   -0.8312   -0.0252 H   0  0  0  0  0  0  0  0  0  0  0  0
   -0.0498    3.5503    1.3055 H   0  0  0  0  0  0  0  0  0  0  0  0
   -1.6625    4.2569    1.3160 H   0  0  0  0  0  0  0  0  0  0  0  0
   -1.3530    2.7496    2.1918 H   0  0  0  0  0  0  0  0  0  0  0  0
   -1.3761    2.7545   -2.1527 H   0  0  0  0  0  0  0  0  0  0  0  0
   -1.6770    4.2600   -1.2702 H   0  0  0  0  0  0  0  0  0  0  0  0
   -0.0640    3.5533   -1.2780 H   0  0  0  0  0  0  0  0  0  0  0  0
   -3.4076    1.8599   -0.8658 H   0  0  0  0  0  0  0  0  0  0  0  0
   -3.3942    1.8440    0.9217 H   0  0  0  0  0  0  0  0  0  0  0  0
   -3.5324    3.3577    0.0415 H   0  0  0  0  0  0  0  0  0  0  0  0
  1  2  1  0  0  0  0
  1  6  2  0  0  0  0
  1  7  1  0  0  0  0
  2  3  2  0  0  0  0
  2 13  1  0  0  0  0
  3  4  1  0  0  0  0
  3 14  1  0  0  0  0
  4  5  2  0  0  0  0
  4  8  1  0  0  0  0
  5  6  1  0  0  0  0
  5 15  1  0  0  0  0
  6  9  1  0  0  0  0
  7 16  1  0  0  0  0
  8 17  1  0  0  0  0
  9 10  1  0  0  0  0
  9 11  1  0  0  0  0
  9 12  1  0  0  0  0
 10 18  1  0  0  0  0
 10 19  1  0  0  0  0
 10 20  1  0  0  0  0
 11 21  1  0  0  0  0
 11 22  1  0  0  0  0
 11 23  1  0  0  0  0
 12 24  1  0  0  0  0
 12 25  1  0  0  0  0
 12 26  1  0  0  0  0
M  END
>  <DRUGBANK_ID>
DB07726

>  <COMMON_NAME>
t-Butylhydroquinone

>  <CAS_NUMBER>
1948-33-0

>  <UNII>
C12674942B

>  <SYNONYMS>
2-(1,1-Dimethylethyl)-1,4-benzenediol; 2-t-Butyl-1,4-benzenediol; 2-t-Butylhydroquinone; 2-tert-Butyl-1,4-benzenediol; 2-tert-Butyl(1,4)hydroquinone; 2-tert-butylhydroquinone; 2-Tertiary-butylhydroquinone; Mono-tert-butylhydroquinone; Mono-tertiarybutylhydroquinone; MTBHQ; t-Butyl hydroquinone; t-Butylhydroquinone; TBHQ; tert-Butyl-1,4-benzenediol; tert-Butylhydroquinone; tertiary-Butylhydroquinone

$$$$
