5147
 OpenBabel10282417173D

 17 17  0  0  0  0  0  0  0  0999 V2000
    2.2772    0.2344    0.0673 O   0  0  0  0  0  0  0  0  0  0  0  0
    0.2324   -3.5913    0.0374 O   0  0  0  0  0  0  0  0  0  0  0  0
    2.2858   -2.7366    0.0361 N   0  0  0  0  0  0  0  0  0  0  0  0
    0.2774   -1.2135    0.0247 C   0  0  0  0  0  0  0  0  0  0  0  0
    0.9289    0.0276    0.0348 C   0  0  0  0  0  0  0  0  0  0  0  0
   -1.1386   -1.1961    0.0008 C   0  0  0  0  0  0  0  0  0  0  0  0
    0.2021    1.2242    0.0246 C   0  0  0  0  0  0  0  0  0  0  0  0
   -1.8624    0.0060   -0.0120 C   0  0  0  0  0  0  0  0  0  0  0  0
   -1.1873    1.2191    0.0005 C   0  0  0  0  0  0  0  0  0  0  0  0
    0.9237   -2.5690    0.0364 C   0  0  0  0  0  0  0  0  0  0  0  0
    2.7134   -0.5440   -0.2897 H   0  0  0  0  0  0  0  0  0  0  0  0
    3.0137   -2.0829    0.2559 H   0  0  0  0  0  0  0  0  0  0  0  0
    2.5866   -3.7046    0.0870 H   0  0  0  0  0  0  0  0  0  0  0  0
   -1.7033   -2.1297   -0.0045 H   0  0  0  0  0  0  0  0  0  0  0  0
    0.7389    2.1697    0.0324 H   0  0  0  0  0  0  0  0  0  0  0  0
   -2.9503   -0.0043   -0.0286 H   0  0  0  0  0  0  0  0  0  0  0  0
   -1.7309    2.1602   -0.0046 H   0  0  0  0  0  0  0  0  0  0  0  0
  1  5  1  0  0  0  0
  1 11  1  0  0  0  0
  2 10  2  0  0  0  0
  3 10  1  0  0  0  0
  3 12  1  0  0  0  0
  3 13  1  0  0  0  0
  4  5  1  0  0  0  0
  4  6  2  0  0  0  0
  4 10  1  0  0  0  0
  5  7  2  0  0  0  0
  6  8  1  0  0  0  0
  6 14  1  0  0  0  0
  7  9  1  0  0  0  0
  7 15  1  0  0  0  0
  8  9  2  0  0  0  0
  8 16  1  0  0  0  0
  9 17  1  0  0  0  0
M  END
>  <DRUGBANK_ID>
DB08797

>  <COMMON_NAME>
Salicylamide

>  <CAS_NUMBER>
65-45-2

>  <UNII>
EM8BM710ZC

>  <SYNONYMS>
2-Carbamoylphenol; 2-Carboxamidophenol; 2-Hydroxybenzamide; o-hydroxybenzamide; OHB; Salicilamida; Salicylamide; Salicylamidum; Salicylic Acid amide

$$$$
