
 OpenBabel10282417133D

 60 64  0  0  0  0  0  0  0  0999 V2000
    1.1658    0.2581    0.0872 C   0  0  0  0  0  0  0  0  0  0  0  0
    0.5822    0.3962   -1.3159 C   0  0  0  0  0  0  0  0  0  0  0  0
    0.9272   -0.7519   -2.2022 C   0  0  0  0  0  0  0  0  0  0  0  0
    0.7385   -2.1194   -2.0440 C   0  0  0  0  0  0  0  0  0  0  0  0
    0.1404   -2.7765   -0.8798 C   0  0  0  0  0  0  0  0  0  0  0  0
   -0.4958   -2.1451   -0.0179 O   0  0  0  0  0  0  0  0  0  0  0  0
    0.1183   -4.2408   -0.6674 C   0  0  0  0  0  0  0  0  0  0  0  0
    1.2286   -5.0721   -0.8249 C   0  0  0  0  0  0  0  0  0  0  0  0
    1.0740   -6.4576   -0.6902 C   0  0  0  0  0  0  0  0  0  0  0  0
    2.5812   -7.5566   -1.0189 Br  0  0  0  0  0  0  0  0  0  0  0  0
   -0.1575   -7.0118   -0.3218 C   0  0  0  0  0  0  0  0  0  0  0  0
   -0.3648   -8.3653   -0.3081 O   0  0  0  0  0  0  0  0  0  0  0  0
   -1.2231   -6.1691   -0.0108 C   0  0  0  0  0  0  0  0  0  0  0  0
   -2.9006   -6.8771    0.5674 Br  0  0  0  0  0  0  0  0  0  0  0  0
   -1.0948   -4.7920   -0.2208 C   0  0  0  0  0  0  0  0  0  0  0  0
    1.2045   -2.6712   -3.2667 C   0  0  0  0  0  0  0  0  0  0  0  0
    1.6231   -1.6405   -4.1062 C   0  0  0  0  0  0  0  0  0  0  0  0
    1.4575   -0.4566   -3.4383 O   0  0  0  0  0  0  0  0  0  0  0  0
    2.0937   -1.8485   -5.4266 C   0  0  0  0  0  0  0  0  0  0  0  0
    2.2608   -3.1937   -5.8158 C   0  0  0  0  0  0  0  0  0  0  0  0
    2.0450   -4.1854   -4.8837 C   0  0  0  0  0  0  0  0  0  0  0  0
    1.3201   -3.9652   -3.7322 C   0  0  0  0  0  0  0  0  0  0  0  0
    2.6561   -3.6645   -7.5090 S   0  0  0  0  0  0  0  0  0  0  0  0
    1.5845   -3.1542   -8.3423 O   0  0  0  0  0  0  0  0  0  0  0  0
    4.0231   -3.2465   -7.7267 O   0  0  0  0  0  0  0  0  0  0  0  0
    2.6707   -5.3797   -7.7263 N   0  0  0  0  0  0  0  0  0  0  0  0
    1.8427   -6.3279   -7.0362 C   0  0  0  0  0  0  0  0  0  0  0  0
    0.6384   -5.9806   -6.4850 C   0  0  0  0  0  0  0  0  0  0  0  0
    0.2263   -6.7350   -5.3939 C   0  0  0  0  0  0  0  0  0  0  0  0
    0.5740   -8.0436   -5.1734 C   0  0  0  0  0  0  0  0  0  0  0  0
    1.6544   -8.5171   -5.9109 C   0  0  0  0  0  0  0  0  0  0  0  0
    2.3475   -7.6157   -6.7640 C   0  0  0  0  0  0  0  0  0  0  0  0
   -0.3464   -9.0387   -4.0058 S   0  0  0  0  0  0  0  0  0  0  0  0
   -0.9082  -10.1461   -4.7425 O   0  0  0  0  0  0  0  0  0  0  0  0
    0.5981   -9.3106   -2.9299 O   0  0  0  0  0  0  0  0  0  0  0  0
   -1.6343   -8.2241   -3.2659 N   0  0  0  0  0  0  0  0  0  0  0  0
   -2.2262   -7.0082   -3.7071 C   0  0  0  0  0  0  0  0  0  0  0  0
   -2.3345   -6.6101   -4.9516 N   0  0  0  0  0  0  0  0  0  0  0  0
   -2.5155   -5.2167   -5.0032 C   0  0  0  0  0  0  0  0  0  0  0  0
   -2.6416   -4.5877   -3.7873 C   0  0  0  0  0  0  0  0  0  0  0  0
   -2.8629   -5.8291   -2.6423 S   0  0  0  0  0  0  0  0  0  0  0  0
    0.9133   -0.6747    0.5871 H   0  0  0  0  0  0  0  0  0  0  0  0
    0.7863    1.0494    0.7382 H   0  0  0  0  0  0  0  0  0  0  0  0
    2.2577    0.2809    0.0659 H   0  0  0  0  0  0  0  0  0  0  0  0
   -0.5122    0.4490   -1.2634 H   0  0  0  0  0  0  0  0  0  0  0  0
    0.9248    1.3427   -1.7487 H   0  0  0  0  0  0  0  0  0  0  0  0
    2.1959   -4.6588   -1.1027 H   0  0  0  0  0  0  0  0  0  0  0  0
    0.4644   -8.8155   -0.5699 H   0  0  0  0  0  0  0  0  0  0  0  0
   -1.9611   -4.1363   -0.1132 H   0  0  0  0  0  0  0  0  0  0  0  0
    2.3561   -1.0218   -6.0799 H   0  0  0  0  0  0  0  0  0  0  0  0
    2.3576   -5.2004   -5.0486 H   0  0  0  0  0  0  0  0  0  0  0  0
    0.9416   -4.8164   -3.1918 H   0  0  0  0  0  0  0  0  0  0  0  0
    2.6776   -5.5740   -8.7326 H   0  0  0  0  0  0  0  0  0  0  0  0
    0.1898   -5.0018   -6.6217 H   0  0  0  0  0  0  0  0  0  0  0  0
   -0.2869   -6.1978   -4.6224 H   0  0  0  0  0  0  0  0  0  0  0  0
    2.0157   -9.5354   -5.7836 H   0  0  0  0  0  0  0  0  0  0  0  0
    3.3234   -7.9007   -7.1520 H   0  0  0  0  0  0  0  0  0  0  0  0
   -1.7688   -8.4863   -2.2868 H   0  0  0  0  0  0  0  0  0  0  0  0
   -2.4622   -4.7102   -5.9576 H   0  0  0  0  0  0  0  0  0  0  0  0
   -2.7186   -3.5281   -3.5580 H   0  0  0  0  0  0  0  0  0  0  0  0
  1  2  1  0  0  0  0
  1 42  1  0  0  0  0
  1 43  1  0  0  0  0
  1 44  1  0  0  0  0
  2  3  1  0  0  0  0
  2 45  1  0  0  0  0
  2 46  1  0  0  0  0
  3  4  2  0  0  0  0
  3 18  1  0  0  0  0
  4  5  1  0  0  0  0
  4 16  1  0  0  0  0
  5  6  2  0  0  0  0
  5  7  1  0  0  0  0
  7  8  2  0  0  0  0
  7 15  1  0  0  0  0
  8  9  1  0  0  0  0
  8 47  1  0  0  0  0
  9 10  1  0  0  0  0
  9 11  2  0  0  0  0
 11 12  1  0  0  0  0
 11 13  1  0  0  0  0
 12 48  1  0  0  0  0
 13 14  1  0  0  0  0
 13 15  2  0  0  0  0
 15 49  1  0  0  0  0
 16 17  2  0  0  0  0
 16 22  1  0  0  0  0
 17 18  1  0  0  0  0
 17 19  1  0  0  0  0
 19 20  2  0  0  0  0
 19 50  1  0  0  0  0
 20 21  1  0  0  0  0
 20 23  1  0  0  0  0
 21 22  2  0  0  0  0
 21 51  1  0  0  0  0
 22 52  1  0  0  0  0
 23 24  2  0  0  0  0
 23 25  2  0  0  0  0
 23 26  1  0  0  0  0
 26 27  1  0  0  0  0
 26 53  1  0  0  0  0
 27 28  2  0  0  0  0
 27 32  1  0  0  0  0
 28 29  1  0  0  0  0
 28 54  1  0  0  0  0
 29 30  2  0  0  0  0
 29 55  1  0  0  0  0
 30 31  1  0  0  0  0
 30 33  1  0  0  0  0
 31 32  2  0  0  0  0
 31 56  1  0  0  0  0
 32 57  1  0  0  0  0
 33 34  2  0  0  0  0
 33 35  2  0  0  0  0
 33 36  1  0  0  0  0
 36 37  1  0  0  0  0
 36 58  1  0  0  0  0
 37 38  2  0  0  0  0
 37 41  1  0  0  0  0
 38 39  1  0  0  0  0
 39 40  2  0  0  0  0
 39 59  1  0  0  0  0
 40 41  1  0  0  0  0
 40 60  1  0  0  0  0
M  END
>  <DRUGBANK_ID>
DB03311

>  <SECONDARY_ACCESSION_NUMBERS>
EXPT01493

>  <COMMON_NAME>
3-(3,5-Dibromo-4-Hydroxy-Benzoyl)-2-Ethyl-Benzofuran-6-Sulfonic Acid [4-(Thiazol-2-Ylsulfamoyl)-Phenyl]-Amide

$$$$
