
 OpenBabel10282417223D

 96102  0  0  0  0  0  0  0  0999 V2000
    0.6935   -0.1335   -0.2589 C   0  0  0  0  0  0  0  0  0  0  0  0
   -0.1403    0.6282   -1.2280 C   0  0  0  0  0  0  0  0  0  0  0  0
    0.2495   -0.5666    0.7970 O   0  0  0  0  0  0  0  0  0  0  0  0
    1.9726   -0.4043   -0.6301 N   0  0  0  0  0  0  0  0  0  0  0  0
   -0.8228   -1.6414   -1.9452 N   0  0  0  0  0  0  0  0  0  0  0  0
   -1.0310   -0.2749   -1.9176 N   0  0  0  0  0  0  0  0  0  0  0  0
   -2.0430    0.0966   -2.7253 C   0  0  0  0  0  0  0  0  0  0  0  0
   -2.4372   -1.0626   -3.3252 C   0  0  0  0  0  0  0  0  0  0  0  0
   -1.7595   -2.1394   -2.7897 C   0  0  0  0  0  0  0  0  0  0  0  0
   -3.3172   -0.8083   -4.4889 C   0  0  2  0  0  0  0  0  0  0  0  0
   -3.1838    0.7570   -4.6369 C   0  0  2  0  0  0  0  0  0  0  0  0
   -2.3981    1.3492   -3.4287 C   0  0  0  0  0  0  0  0  0  0  0  0
   -4.4968    0.0812   -4.3225 C   0  0  0  0  0  0  0  0  0  0  0  0
   -2.0268   -3.5890   -3.1051 C   0  0  0  0  0  0  0  0  0  0  0  0
   -0.9734   -4.2498   -3.6567 F   0  0  0  0  0  0  0  0  0  0  0  0
   -2.4233   -4.2993   -2.0159 F   0  0  0  0  0  0  0  0  0  0  0  0
   -3.0465   -3.7153   -4.0101 F   0  0  0  0  0  0  0  0  0  0  0  0
   -3.2372    2.2237   -2.8246 F   0  0  0  0  0  0  0  0  0  0  0  0
   -1.2575    2.0265   -3.7100 F   0  0  0  0  0  0  0  0  0  0  0  0
    2.8837    0.3421   -1.4798 C   0  0  1  0  0  0  0  0  0  0  0  0
    3.9056    1.0681   -0.6558 C   0  0  0  0  0  0  0  0  0  0  0  0
    5.6808    0.6750   -0.0352 C   0  0  0  0  0  0  0  0  0  0  0  0
    6.7139    1.5746    0.7292 C   0  0  0  0  0  0  0  0  0  0  0  0
    7.3695    1.0929    1.9244 C   0  0  0  0  0  0  0  0  0  0  0  0
    7.1984   -0.2246    2.2928 C   0  0  0  0  0  0  0  0  0  0  0  0
    6.5380   -1.0803    1.4168 C   0  0  0  0  0  0  0  0  0  0  0  0
    5.9088   -0.6775    0.2231 C   0  0  0  0  0  0  0  0  0  0  0  0
    6.1857   -2.2882    1.8774 F   0  0  0  0  0  0  0  0  0  0  0  0
    7.7337    1.9600    2.8986 F   0  0  0  0  0  0  0  0  0  0  0  0
    3.8612   -0.3529   -2.3000 C   0  0  0  0  0  0  0  0  0  0  0  0
    5.1197    0.2865   -2.6490 C   0  0  0  0  0  0  0  0  0  0  0  0
    5.9208   -0.7166   -3.2065 C   0  0  0  0  0  0  0  0  0  0  0  0
    5.5865   -2.1409   -3.0848 C   0  0  0  0  0  0  0  0  0  0  0  0
    4.3312   -2.5733   -2.6746 C   0  0  0  0  0  0  0  0  0  0  0  0
    3.4488   -1.6598   -2.3708 N   0  0  0  0  0  0  0  0  0  0  0  0
    3.7828   -3.9215   -2.6193 C   0  0  0  0  0  0  0  0  0  0  0  0
    3.3420   -5.1444   -2.7203 C   0  0  0  0  0  0  0  0  0  0  0  0
    2.8281   -6.5701   -2.8380 C   0  0  0  0  0  0  0  0  0  0  0  0
    1.3075   -6.5791   -2.6783 C   0  0  0  0  0  0  0  0  0  0  0  0
    3.3042   -7.2528   -4.4689 S   0  0  0  0  0  0  0  0  0  0  0  0
    4.7415   -7.1132   -4.6389 O   0  0  0  0  0  0  0  0  0  0  0  0
    2.6993   -8.5686   -4.5984 O   0  0  0  0  0  0  0  0  0  0  0  0
    2.5355   -6.2250   -5.7064 C   0  0  0  0  0  0  0  0  0  0  0  0
    3.4680   -7.4294   -1.7434 C   0  0  0  0  0  0  0  0  0  0  0  0
    4.5272    3.0340    0.4719 N   0  0  0  0  0  0  0  0  0  0  0  0
    3.8039    4.1784    0.6162 N   0  0  0  0  0  0  0  0  0  0  0  0
    3.5393    4.6347   -0.6060 C   0  0  0  0  0  0  0  0  0  0  0  0
    4.0790    3.9035   -1.6685 C   0  0  0  0  0  0  0  0  0  0  0  0
    3.7413    3.6742   -3.0284 C   0  0  0  0  0  0  0  0  0  0  0  0
    4.7484    3.2490   -3.9196 C   0  0  0  0  0  0  0  0  0  0  0  0
    5.8816    2.6044   -3.4498 C   0  0  0  0  0  0  0  0  0  0  0  0
    5.6581    1.9520   -2.2613 C   0  0  0  0  0  0  0  0  0  0  0  0
    5.1009    3.0518   -1.1187 C   0  0  0  0  0  0  0  0  0  0  0  0
    4.2981    1.9096    1.6993 C   0  0  0  0  0  0  0  0  0  0  0  0
    3.5772    0.4082    1.7485 C   0  0  0  0  0  0  0  0  0  0  0  0
    3.7099   -0.4634    0.7275 F   0  0  0  0  0  0  0  0  0  0  0  0
    4.0668   -0.3709    2.7381 F   0  0  0  0  0  0  0  0  0  0  0  0
    2.2573    0.5426    1.8966 F   0  0  0  0  0  0  0  0  0  0  0  0
    2.6992    5.7067   -0.7456 N   0  0  0  0  0  0  0  0  0  0  0  0
    2.5329    6.7513   -2.0323 S   0  0  0  0  0  0  0  0  0  0  0  0
    1.0736    6.6558   -2.2941 O   0  0  0  0  0  0  0  0  0  0  0  0
    3.0349    7.9926   -1.5335 O   0  0  0  0  0  0  0  0  0  0  0  0
    3.5908    6.3518   -3.6931 C   0  0  0  0  0  0  0  0  0  0  0  0
    2.0462    3.8392   -3.4887 Cl  0  0  0  0  0  0  0  0  0  0  0  0
   -3.5604   -1.6353   -5.1378 H   0  0  0  0  0  0  0  0  0  0  0  0
   -3.2467    1.3976   -5.4996 H   0  0  0  0  0  0  0  0  0  0  0  0
   -0.7081    1.3898   -0.6896 H   0  0  0  0  0  0  0  0  0  0  0  0
    0.4514    1.1463   -1.9785 H   0  0  0  0  0  0  0  0  0  0  0  0
    2.4303   -0.9893    0.0564 H   0  0  0  0  0  0  0  0  0  0  0  0
   -5.2517   -0.0124   -5.0927 H   0  0  0  0  0  0  0  0  0  0  0  0
   -4.9102    0.0991   -3.3214 H   0  0  0  0  0  0  0  0  0  0  0  0
    2.3067    1.0470   -2.0955 H   0  0  0  0  0  0  0  0  0  0  0  0
    3.8330    1.7756   -1.4451 H   0  0  0  0  0  0  0  0  0  0  0  0
    3.2184    1.5977    0.0123 H   0  0  0  0  0  0  0  0  0  0  0  0
    6.7170    2.6901    0.7990 H   0  0  0  0  0  0  0  0  0  0  0  0
    7.4172   -0.5756    3.2994 H   0  0  0  0  0  0  0  0  0  0  0  0
    5.2949   -1.4549   -0.2098 H   0  0  0  0  0  0  0  0  0  0  0  0
    6.8222   -0.4698   -3.7533 H   0  0  0  0  0  0  0  0  0  0  0  0
    6.3383   -2.8896   -3.3085 H   0  0  0  0  0  0  0  0  0  0  0  0
    0.8202   -5.9634   -3.4396 H   0  0  0  0  0  0  0  0  0  0  0  0
    0.9038   -7.5937   -2.7626 H   0  0  0  0  0  0  0  0  0  0  0  0
    1.0113   -6.1785   -1.7019 H   0  0  0  0  0  0  0  0  0  0  0  0
    1.4513   -6.2581   -5.5955 H   0  0  0  0  0  0  0  0  0  0  0  0
    2.9120   -5.2057   -5.6234 H   0  0  0  0  0  0  0  0  0  0  0  0
    2.8009   -6.6312   -6.6875 H   0  0  0  0  0  0  0  0  0  0  0  0
    4.5600   -7.4423   -1.8331 H   0  0  0  0  0  0  0  0  0  0  0  0
    3.2226   -7.0477   -0.7458 H   0  0  0  0  0  0  0  0  0  0  0  0
    3.1194   -8.4665   -1.8027 H   0  0  0  0  0  0  0  0  0  0  0  0
    4.6324    3.3517   -4.9944 H   0  0  0  0  0  0  0  0  0  0  0  0
    6.6304    2.1823   -4.1148 H   0  0  0  0  0  0  0  0  0  0  0  0
    5.2434    1.5855    2.0370 H   0  0  0  0  0  0  0  0  0  0  0  0
    4.0665    2.4950    2.5823 H   0  0  0  0  0  0  0  0  0  0  0  0
    2.1939    5.9598    0.1102 H   0  0  0  0  0  0  0  0  0  0  0  0
    4.6469    6.3297   -3.4125 H   0  0  0  0  0  0  0  0  0  0  0  0
    3.4165    5.4727   -4.3088 H   0  0  0  0  0  0  0  0  0  0  0  0
    3.3850    7.0840   -4.4799 H   0  0  0  0  0  0  0  0  0  0  0  0
  1  2  1  0  0  0  0
  1  3  2  0  0  0  0
  1  4  1  0  0  0  0
  2 67  1  0  0  0  0
  2 68  1  0  0  0  0
  2  6  1  0  0  0  0
  4 69  1  0  0  0  0
  5  6  1  0  0  0  0
  5  9  2  0  0  0  0
  6  7  1  0  0  0  0
  7  8  2  0  0  0  0
  8  9  1  0  0  0  0
  9 14  1  0  0  0  0
 10 11  1  0  0  0  0
 10  8  1  0  0  0  0
 10 65  1  6  0  0  0
 11 12  1  0  0  0  0
 11 66  1  6  0  0  0
 12  7  1  0  0  0  0
 12 18  1  0  0  0  0
 12 19  1  0  0  0  0
 13 10  1  0  0  0  0
 13 11  1  0  0  0  0
 13 70  1  0  0  0  0
 13 71  1  0  0  0  0
 14 15  1  0  0  0  0
 14 16  1  0  0  0  0
 14 17  1  0  0  0  0
 20 21  1  0  0  0  0
 20 30  1  0  0  0  0
 20  4  1  0  0  0  0
 20 72  1  6  0  0  0
 21 22  1  0  0  0  0
 21 73  1  0  0  0  0
 21 74  1  0  0  0  0
 22 23  1  0  0  0  0
 22 27  2  0  0  0  0
 23 24  2  0  0  0  0
 23 75  1  0  0  0  0
 24 25  1  0  0  0  0
 24 29  1  0  0  0  0
 25 26  2  0  0  0  0
 25 76  1  0  0  0  0
 26 27  1  0  0  0  0
 26 28  1  0  0  0  0
 27 77  1  0  0  0  0
 30 31  1  0  0  0  0
 30 35  2  0  0  0  0
 31 32  2  0  0  0  0
 31 52  1  0  0  0  0
 32 33  1  0  0  0  0
 32 78  1  0  0  0  0
 33 34  2  0  0  0  0
 33 79  1  0  0  0  0
 34 35  1  0  0  0  0
 34 36  1  0  0  0  0
 36 37  3  0  0  0  0
 37 38  1  0  0  0  0
 38 39  1  0  0  0  0
 38 40  1  0  0  0  0
 38 44  1  0  0  0  0
 39 80  1  0  0  0  0
 39 81  1  0  0  0  0
 39 82  1  0  0  0  0
 40 41  2  0  0  0  0
 40 42  2  0  0  0  0
 40 43  1  0  0  0  0
 43 83  1  0  0  0  0
 43 84  1  0  0  0  0
 43 85  1  0  0  0  0
 44 86  1  0  0  0  0
 44 87  1  0  0  0  0
 44 88  1  0  0  0  0
 45 46  1  0  0  0  0
 45 53  1  0  0  0  0
 45 54  1  0  0  0  0
 46 47  2  0  0  0  0
 47 48  1  0  0  0  0
 47 59  1  0  0  0  0
 48 49  1  0  0  0  0
 48 53  2  0  0  0  0
 49 50  2  0  0  0  0
 49 64  1  0  0  0  0
 50 51  1  0  0  0  0
 50 89  1  0  0  0  0
 51 52  2  0  0  0  0
 51 90  1  0  0  0  0
 52 53  1  0  0  0  0
 54 55  1  0  0  0  0
 54 91  1  0  0  0  0
 54 92  1  0  0  0  0
 55 56  1  0  0  0  0
 55 57  1  0  0  0  0
 55 58  1  0  0  0  0
 59 60  1  0  0  0  0
 59 93  1  0  0  0  0
 60 61  2  0  0  0  0
 60 62  2  0  0  0  0
 60 63  1  0  0  0  0
 63 94  1  0  0  0  0
 63 95  1  0  0  0  0
 63 96  1  0  0  0  0
M  END
>  <DRUGBANK_ID>
DB15673

>  <COMMON_NAME>
Lenacapavir

>  <CAS_NUMBER>
2189684-44-2

>  <UNII>
A9A0O6FB4H

>  <SYNONYMS>
Lenacapavir

$$$$
