
 OpenBabel10282417133D

 31 31  0  0  0  0  0  0  0  0999 V2000
    0.9307    2.7922    0.5808 C   0  0  0  0  0  0  0  0  0  0  0  0
    0.4869    1.4052    0.1110 C   0  0  2  0  0  0  0  0  0  0  0  0
   -0.2126    1.3545   -1.2455 C   0  0  2  0  0  0  0  0  0  0  0  0
   -0.3045   -0.1109   -1.7264 C   0  0  1  0  0  0  0  0  0  0  0  0
   -0.8234   -1.0637   -0.6115 C   0  0  2  0  0  0  0  0  0  0  0  0
    1.4149   -1.3232    0.7310 C   0  0  3  0  0  0  0  0  0  0  0  0
   -0.1215   -0.8052    0.7729 C   0  0  2  0  0  0  0  0  0  0  0  0
    2.1812   -0.9826   -0.4624 N   0  0  0  0  0  0  0  0  0  0  0  0
   -0.6744   -0.8878    4.0352 N   0  5  0  0  0  0  0  0  0  0  0  0
   -0.8247   -1.6424    1.7788 N   0  0  0  0  0  0  0  0  0  0  0  0
   -0.7406   -1.2457    2.9622 N   0  3  0  0  0  0  0  0  0  0  0  0
    2.3574    2.8977    0.3775 O   0  0  0  0  0  0  0  0  0  0  0  0
    0.5451    2.1355   -2.1763 O   0  0  0  0  0  0  0  0  0  0  0  0
   -1.0749   -0.2334   -2.9279 O   0  0  0  0  0  0  0  0  0  0  0  0
   -0.7312   -2.4378   -1.0292 O   0  0  0  0  0  0  0  0  0  0  0  0
    2.1298   -0.7982    1.8356 O   0  0  0  0  0  0  0  0  0  0  0  0
   -0.1966    0.6201    1.0797 O   0  0  0  0  0  0  0  0  0  0  0  0
    1.4495    0.9529   -0.0249 H   0  0  0  0  0  0  0  0  0  0  0  0
   -1.2217    1.7763   -1.1896 H   0  0  0  0  0  0  0  0  0  0  0  0
    0.6746   -0.4076   -2.0950 H   0  0  0  0  0  0  0  0  0  0  0  0
   -1.8982   -0.8739   -0.5014 H   0  0  0  0  0  0  0  0  0  0  0  0
    1.4330   -2.4127    0.8208 H   0  0  0  0  0  0  0  0  0  0  0  0
    0.7639    2.9458    1.6487 H   0  0  0  0  0  0  0  0  0  0  0  0
    0.4672    3.5965    0.0082 H   0  0  0  0  0  0  0  0  0  0  0  0
    3.1769   -1.0905   -0.2909 H   0  0  0  0  0  0  0  0  0  0  0  0
    1.9455   -1.5852   -1.2454 H   0  0  0  0  0  0  0  0  0  0  0  0
    2.5301    2.7848   -0.5758 H   0  0  0  0  0  0  0  0  0  0  0  0
    1.4174    1.7113   -2.2756 H   0  0  0  0  0  0  0  0  0  0  0  0
   -1.9953    0.0009   -2.7347 H   0  0  0  0  0  0  0  0  0  0  0  0
    0.1984   -2.6987   -1.1182 H   0  0  0  0  0  0  0  0  0  0  0  0
    1.9149    0.1520    1.8891 H   0  0  0  0  0  0  0  0  0  0  0  0
  1 23  1  0  0  0  0
  1 24  1  0  0  0  0
  2 17  1  0  0  0  0
  2 18  1  6  0  0  0
  2  1  1  0  0  0  0
  3  2  1  0  0  0  0
  3  4  1  0  0  0  0
  3 13  1  0  0  0  0
  3 19  1  1  0  0  0
  4  5  1  0  0  0  0
  4 14  1  0  0  0  0
  4 20  1  6  0  0  0
  5  7  1  0  0  0  0
  5 15  1  0  0  0  0
  5 21  1  1  0  0  0
  7 17  1  0  0  0  0
  7 10  1  1  0  0  0
  7  6  1  0  0  0  0
  8  6  1  0  0  0  0
  8 25  1  0  0  0  0
  8 26  1  0  0  0  0
 11  9  2  0  0  0  0
 11 10  2  0  0  0  0
 12  1  1  0  0  0  0
 12 27  1  0  0  0  0
 13 28  1  0  0  0  0
 14 29  1  0  0  0  0
 15 30  1  0  0  0  0
 16  6  1  0  0  0  0
 16 31  1  0  0  0  0
 22  6  1  0  0  0  0
M  CHG  2   9  -1  11   1
M  END
>  <DRUGBANK_ID>
DB03286

>  <SECONDARY_ACCESSION_NUMBERS>
EXPT00899

>  <COMMON_NAME>
C-(1-Azido-Alpha-D-Glucopyranosyl) Formamide

$$$$
