
 OpenBabel10282417243D

 62 62  0  0  1  0  0  0  0  0999 V2000
   11.2161  -11.2868   -5.8170 C   0  0  0  0  0  0  0  0  0  0  0  0
   11.0274   -9.7940   -6.0227 C   0  0  0  0  0  0  0  0  0  0  0  0
   11.6517   -9.0834   -4.9452 O   0  0  0  0  0  0  0  0  0  0  0  0
   11.0194   -9.2059   -3.7386 C   0  0  0  0  0  0  0  0  0  0  0  0
    9.9707   -9.7955   -3.5505 O   0  0  0  0  0  0  0  0  0  0  0  0
   11.8098   -8.5854   -2.7678 O   0  0  0  0  0  0  0  0  0  0  0  0
   11.2255   -8.5298   -1.4961 C   0  0  0  0  0  0  0  0  0  0  0  0
   11.0248   -9.7569   -0.8561 C   0  0  0  0  0  0  0  0  0  0  0  0
   10.6137   -9.8095    0.4664 C   0  0  0  0  0  0  0  0  0  0  0  0
   10.4107   -8.6261    1.1800 C   0  0  0  0  0  0  0  0  0  0  0  0
    9.9641   -8.7196    2.6211 C   0  0  0  0  0  0  0  0  0  0  0  0
   10.9967   -8.1817    3.6182 C   0  0  0  0  0  0  0  0  0  0  0  0
   11.2168   -6.7391    3.4902 N   0  0  0  0  0  0  0  0  0  0  0  0
   10.9196   -5.7016    4.3383 C   0  0  0  0  0  0  0  0  0  0  0  0
   11.1204   -4.5422    3.9793 O   0  0  0  0  0  0  0  0  0  0  0  0
   10.3237   -6.0533    5.7026 C   0  0  2  0  0  0  0  0  0  0  0  0
    8.8001   -6.2996    5.6124 C   0  0  0  0  0  0  0  0  0  0  0  0
    8.3156   -7.7326    5.9267 C   0  0  0  0  0  0  0  0  0  0  0  0
    8.5355   -8.4568    7.6036 S   0  0  0  0  0  0  0  0  0  0  0  0
   10.3249   -8.4104    7.7847 C   0  0  0  0  0  0  0  0  0  0  0  0
   10.6534   -5.0886    6.7782 N   0  0  0  0  0  0  0  0  0  0  0  0
   11.5835   -5.3219    7.7788 C   0  0  0  0  0  0  0  0  0  0  0  0
   11.6466   -4.2918    8.8712 C   0  0  0  0  0  0  0  0  0  0  0  0
   12.2953   -6.3220    7.8579 O   0  0  0  0  0  0  0  0  0  0  0  0
   10.5895   -7.3854    0.5221 C   0  0  0  0  0  0  0  0  0  0  0  0
   10.9724   -7.3237   -0.8287 C   0  0  0  0  0  0  0  0  0  0  0  0
   11.0667   -6.0088   -1.3831 O   0  0  0  0  0  0  0  0  0  0  0  0
   10.9770   -5.7841   -2.7544 C   0  0  0  0  0  0  0  0  0  0  0  0
   10.7863   -6.6414   -3.6182 O   0  0  0  0  0  0  0  0  0  0  0  0
   11.1410   -4.4730   -3.0870 O   0  0  0  0  0  0  0  0  0  0  0  0
   11.2543   -4.3179   -4.5219 C   0  0  0  0  0  0  0  0  0  0  0  0
   12.6233   -4.8037   -4.9947 C   0  0  0  0  0  0  0  0  0  0  0  0
   12.2813  -11.5156   -5.7118 H   0  0  0  0  0  0  0  0  0  0  0  0
   10.7959  -11.8602   -6.6447 H   0  0  0  0  0  0  0  0  0  0  0  0
   10.7368  -11.6275   -4.8945 H   0  0  0  0  0  0  0  0  0  0  0  0
   11.5273   -9.4898   -6.9501 H   0  0  0  0  0  0  0  0  0  0  0  0
    9.9707   -9.5162   -6.1233 H   0  0  0  0  0  0  0  0  0  0  0  0
   11.1733  -10.6819   -1.4052 H   0  0  0  0  0  0  0  0  0  0  0  0
   10.4639  -10.7856    0.9231 H   0  0  0  0  0  0  0  0  0  0  0  0
    8.9995   -8.2093    2.7255 H   0  0  0  0  0  0  0  0  0  0  0  0
    9.7683   -9.7730    2.8769 H   0  0  0  0  0  0  0  0  0  0  0  0
   10.6682   -8.4399    4.6222 H   0  0  0  0  0  0  0  0  0  0  0  0
   11.9633   -8.6761    3.4818 H   0  0  0  0  0  0  0  0  0  0  0  0
   11.7291   -6.4350    2.6720 H   0  0  0  0  0  0  0  0  0  0  0  0
   10.8606   -6.9657    5.9211 H   0  0  0  0  0  0  0  0  0  0  0  0
    8.2556   -5.5955    6.2548 H   0  0  0  0  0  0  0  0  0  0  0  0
    8.4539   -6.0703    4.5910 H   0  0  0  0  0  0  0  0  0  0  0  0
    7.2317   -7.7503    5.7606 H   0  0  0  0  0  0  0  0  0  0  0  0
    8.7144   -8.4472    5.2071 H   0  0  0  0  0  0  0  0  0  0  0  0
   10.8935   -8.9528    7.0208 H   0  0  0  0  0  0  0  0  0  0  0  0
   10.4863   -7.3667    7.6871 H   0  0  0  0  0  0  0  0  0  0  0  0
   10.7179   -8.6194    8.7812 H   0  0  0  0  0  0  0  0  0  0  0  0
   10.3364   -4.1382    6.6390 H   0  0  0  0  0  0  0  0  0  0  0  0
   11.1581   -4.6717    9.7769 H   0  0  0  0  0  0  0  0  0  0  0  0
   12.7042   -4.1240    9.0931 H   0  0  0  0  0  0  0  0  0  0  0  0
   11.1854   -3.3494    8.5768 H   0  0  0  0  0  0  0  0  0  0  0  0
   10.4236   -6.4558    1.0619 H   0  0  0  0  0  0  0  0  0  0  0  0
   10.4475   -4.8531   -5.0473 H   0  0  0  0  0  0  0  0  0  0  0  0
   11.1275   -3.2609   -4.7730 H   0  0  0  0  0  0  0  0  0  0  0  0
   12.7818   -5.8689   -4.7891 H   0  0  0  0  0  0  0  0  0  0  0  0
   12.7461   -4.6604   -6.0710 H   0  0  0  0  0  0  0  0  0  0  0  0
   13.4129   -4.2690   -4.4597 H   0  0  0  0  0  0  0  0  0  0  0  0
  1  2  1  0  0  0  0
  1 33  1  0  0  0  0
  1 34  1  0  0  0  0
  1 35  1  0  0  0  0
  2  3  1  0  0  0  0
  2 36  1  0  0  0  0
  2 37  1  0  0  0  0
  3  4  1  0  0  0  0
  4  5  2  0  0  0  0
  4  6  1  0  0  0  0
  6  7  1  0  0  0  0
  7  8  2  0  0  0  0
  7 26  1  0  0  0  0
  8  9  1  0  0  0  0
  8 38  1  0  0  0  0
  9 10  2  0  0  0  0
  9 39  1  0  0  0  0
 10 11  1  0  0  0  0
 10 25  1  0  0  0  0
 11 12  1  0  0  0  0
 11 40  1  0  0  0  0
 11 41  1  0  0  0  0
 12 13  1  0  0  0  0
 12 42  1  0  0  0  0
 12 43  1  0  0  0  0
 13 14  1  0  0  0  0
 13 44  1  0  0  0  0
 14 15  2  0  0  0  0
 16 21  1  0  0  0  0
 16 45  1  1  0  0  0
 16 17  1  0  0  0  0
 16 14  1  0  0  0  0
 17 18  1  0  0  0  0
 17 46  1  0  0  0  0
 17 47  1  0  0  0  0
 18 19  1  0  0  0  0
 18 48  1  0  0  0  0
 18 49  1  0  0  0  0
 19 20  1  0  0  0  0
 20 50  1  0  0  0  0
 20 51  1  0  0  0  0
 20 52  1  0  0  0  0
 21 22  1  0  0  0  0
 21 53  1  0  0  0  0
 22 23  1  0  0  0  0
 22 24  2  0  0  0  0
 23 54  1  0  0  0  0
 23 55  1  0  0  0  0
 23 56  1  0  0  0  0
 25 26  2  0  0  0  0
 25 57  1  0  0  0  0
 26 27  1  0  0  0  0
 27 28  1  0  0  0  0
 28 29  2  0  0  0  0
 28 30  1  0  0  0  0
 30 31  1  0  0  0  0
 31 32  1  0  0  0  0
 31 58  1  0  0  0  0
 31 59  1  0  0  0  0
 32 60  1  0  0  0  0
 32 61  1  0  0  0  0
 32 62  1  0  0  0  0
M  END
>  <DRUGBANK_ID>
DB18046

>  <COMMON_NAME>
Docarpamine

>  <CAS_NUMBER>
74639-40-0

>  <UNII>
RPQ57D8S72

>  <SYNONYMS>
(-)-(s)-2-acetamido-n-(3,4-dihydroxyphenethyl)-4-(methylthio)butyramide bis(ethyl carbonate) (ester); Docarpamine; Tanadopa

$$$$
