
 OpenBabel10282417223D

 74 79  0  0  0  0  0  0  0  0999 V2000
    0.9740   -0.0496    0.3718 C   0  0  0  0  0  0  0  0  0  0  0  0
    0.5948   -1.3362   -0.0958 O   0  0  0  0  0  0  0  0  0  0  0  0
    1.1774   -1.7103   -1.3550 C   0  0  0  0  0  0  0  0  0  0  0  0
    0.6945   -0.8439   -2.4889 C   0  0  0  0  0  0  0  0  0  0  0  0
    1.1091    0.5531   -2.5496 N   0  0  0  0  0  0  0  0  0  0  0  0
    0.2498    1.2536   -3.5057 C   0  0  0  0  0  0  0  0  0  0  0  0
   -1.2492    0.9269   -3.2481 C   0  0  0  0  0  0  0  0  0  0  0  0
   -2.0022   -0.1813   -3.5160 C   0  0  0  0  0  0  0  0  0  0  0  0
   -3.3571   -0.3259   -3.0432 C   0  0  0  0  0  0  0  0  0  0  0  0
   -4.1060    0.6382   -2.3610 C   0  0  0  0  0  0  0  0  0  0  0  0
   -3.4299    1.8035   -2.1913 N   0  0  0  0  0  0  0  0  0  0  0  0
   -2.0581    1.8018   -2.5900 C   0  0  0  0  0  0  0  0  0  0  0  0
   -5.6874    0.4500   -2.2330 C   0  0  0  0  0  0  0  0  0  0  0  0
   -6.7973   -0.1651   -1.4787 C   0  0  0  0  0  0  0  0  0  0  0  0
   -8.1682    0.0090   -2.1665 C   0  0  0  0  0  0  0  0  0  0  0  0
   -7.8096    0.4828   -3.4033 C   0  0  0  0  0  0  0  0  0  0  0  0
   -6.3773   -0.4651   -3.6242 S   0  0  0  0  0  0  0  0  0  0  0  0
   -8.6366    1.2296   -4.2336 C   0  0  0  0  0  0  0  0  0  0  0  0
   -8.1952    1.9974   -5.3088 O   0  0  0  0  0  0  0  0  0  0  0  0
   -6.8218    2.1115   -5.4290 C   0  0  0  0  0  0  0  0  0  0  0  0
   -6.0396    1.0790   -5.9795 C   0  0  0  0  0  0  0  0  0  0  0  0
   -6.6533   -0.0560   -6.3601 F   0  0  0  0  0  0  0  0  0  0  0  0
   -4.6287    1.0823   -5.8982 C   0  0  0  0  0  0  0  0  0  0  0  0
   -3.9929    2.1588   -5.2965 C   0  0  0  0  0  0  0  0  0  0  0  0
   -2.5932    2.3633   -5.3460 N   0  0  0  0  0  0  0  0  0  0  0  0
   -1.7481    3.4178   -4.8491 C   0  0  0  0  0  0  0  0  0  0  0  0
   -0.6080    3.4509   -5.2143 O   0  0  0  0  0  0  0  0  0  0  0  0
   -2.2946    4.5530   -3.8323 C   0  0  0  0  0  0  0  0  0  0  0  0
   -3.3993    5.3185   -4.6149 C   0  0  0  0  0  0  0  0  0  0  0  0
   -2.1409    6.0046   -4.3435 C   0  0  0  0  0  0  0  0  0  0  0  0
   -1.9089    4.5441   -2.1593 C   0  0  0  0  0  0  0  0  0  0  0  0
   -0.7734    4.2258   -1.7618 O   0  0  0  0  0  0  0  0  0  0  0  0
   -2.7985    4.6960   -1.0882 N   0  0  0  0  0  0  0  0  0  0  0  0
   -3.5141    5.8736   -1.0788 C   0  0  0  0  0  0  0  0  0  0  0  0
   -4.6433    5.8628   -1.8643 C   0  0  0  0  0  0  0  0  0  0  0  0
   -5.2239    7.0563   -2.2208 C   0  0  0  0  0  0  0  0  0  0  0  0
   -4.6489    8.2354   -1.7667 C   0  0  0  0  0  0  0  0  0  0  0  0
   -5.2196    9.3954   -2.1032 F   0  0  0  0  0  0  0  0  0  0  0  0
   -3.5196    8.2374   -0.9428 C   0  0  0  0  0  0  0  0  0  0  0  0
   -2.9921    7.0305   -0.5074 C   0  0  0  0  0  0  0  0  0  0  0  0
   -4.8218    3.0234   -4.6065 C   0  0  0  0  0  0  0  0  0  0  0  0
   -6.1858    3.1542   -4.8010 C   0  0  0  0  0  0  0  0  0  0  0  0
   -9.9859    1.1776   -3.9092 C   0  0  0  0  0  0  0  0  0  0  0  0
  -10.3651    0.3384   -2.8566 C   0  0  0  0  0  0  0  0  0  0  0  0
   -9.5075   -0.2536   -1.9332 N   0  0  0  0  0  0  0  0  0  0  0  0
    0.7603    0.0290    1.4366 H   0  0  0  0  0  0  0  0  0  0  0  0
    0.3474    0.7297   -0.0694 H   0  0  0  0  0  0  0  0  0  0  0  0
    2.0380    0.1301    0.1893 H   0  0  0  0  0  0  0  0  0  0  0  0
    2.2624   -1.7675   -1.3109 H   0  0  0  0  0  0  0  0  0  0  0  0
    0.7768   -2.7097   -1.5753 H   0  0  0  0  0  0  0  0  0  0  0  0
    0.8758   -1.2915   -3.4719 H   0  0  0  0  0  0  0  0  0  0  0  0
   -0.3592   -0.8914   -2.2565 H   0  0  0  0  0  0  0  0  0  0  0  0
    0.9001    1.0296   -1.6806 H   0  0  0  0  0  0  0  0  0  0  0  0
    0.5084    2.3172   -3.3222 H   0  0  0  0  0  0  0  0  0  0  0  0
    0.6145    1.0769   -4.5265 H   0  0  0  0  0  0  0  0  0  0  0  0
   -1.5507   -1.0170   -4.0293 H   0  0  0  0  0  0  0  0  0  0  0  0
   -3.8481   -1.2417   -3.3063 H   0  0  0  0  0  0  0  0  0  0  0  0
   -1.4985    2.6910   -2.6472 H   0  0  0  0  0  0  0  0  0  0  0  0
   -6.6518   -0.9379   -0.7334 H   0  0  0  0  0  0  0  0  0  0  0  0
   -4.0897    0.1742   -6.1617 H   0  0  0  0  0  0  0  0  0  0  0  0
   -2.0543    1.6241   -5.7968 H   0  0  0  0  0  0  0  0  0  0  0  0
   -3.5844    4.9751   -5.6398 H   0  0  0  0  0  0  0  0  0  0  0  0
   -4.3429    5.5897   -4.1888 H   0  0  0  0  0  0  0  0  0  0  0  0
   -2.2336    6.8183   -3.6410 H   0  0  0  0  0  0  0  0  0  0  0  0
   -1.5016    6.1667   -5.1964 H   0  0  0  0  0  0  0  0  0  0  0  0
   -2.2697    4.5364   -0.2273 H   0  0  0  0  0  0  0  0  0  0  0  0
   -4.9769    4.9113   -2.2620 H   0  0  0  0  0  0  0  0  0  0  0  0
   -6.0723    7.0530   -2.8919 H   0  0  0  0  0  0  0  0  0  0  0  0
   -3.0481    9.1761   -0.6721 H   0  0  0  0  0  0  0  0  0  0  0  0
   -2.1537    7.0034    0.1857 H   0  0  0  0  0  0  0  0  0  0  0  0
   -4.4117    3.5390   -3.7571 H   0  0  0  0  0  0  0  0  0  0  0  0
   -6.6985    3.9956   -4.3497 H   0  0  0  0  0  0  0  0  0  0  0  0
  -10.7199    1.7326   -4.4899 H   0  0  0  0  0  0  0  0  0  0  0  0
  -11.4391    0.1459   -2.7237 H   0  0  0  0  0  0  0  0  0  0  0  0
  1  2  1  0  0  0  0
  1 46  1  0  0  0  0
  1 47  1  0  0  0  0
  1 48  1  0  0  0  0
  2  3  1  0  0  0  0
  3  4  1  0  0  0  0
  3 49  1  0  0  0  0
  3 50  1  0  0  0  0
  4  5  1  0  0  0  0
  4 51  1  0  0  0  0
  4 52  1  0  0  0  0
  5  6  1  0  0  0  0
  5 53  1  0  0  0  0
  6  7  1  0  0  0  0
  6 54  1  0  0  0  0
  6 55  1  0  0  0  0
  7  8  2  0  0  0  0
  7 12  1  0  0  0  0
  8  9  1  0  0  0  0
  8 56  1  0  0  0  0
  9 10  2  0  0  0  0
  9 57  1  0  0  0  0
 10 11  1  0  0  0  0
 10 13  1  0  0  0  0
 11 12  2  0  0  0  0
 12 58  1  0  0  0  0
 13 14  2  0  0  0  0
 13 17  1  0  0  0  0
 14 15  1  0  0  0  0
 14 59  1  0  0  0  0
 15 16  2  0  0  0  0
 15 45  1  0  0  0  0
 16 17  1  0  0  0  0
 16 18  1  0  0  0  0
 18 19  1  0  0  0  0
 18 43  2  0  0  0  0
 19 20  1  0  0  0  0
 20 21  2  0  0  0  0
 20 42  1  0  0  0  0
 21 22  1  0  0  0  0
 21 23  1  0  0  0  0
 23 24  2  0  0  0  0
 23 60  1  0  0  0  0
 24 25  1  0  0  0  0
 24 41  1  0  0  0  0
 25 26  1  0  0  0  0
 25 61  1  0  0  0  0
 26 27  2  0  0  0  0
 26 28  1  0  0  0  0
 28 29  1  0  0  0  0
 28 30  1  0  0  0  0
 28 31  1  0  0  0  0
 29 30  1  0  0  0  0
 29 62  1  0  0  0  0
 29 63  1  0  0  0  0
 30 64  1  0  0  0  0
 30 65  1  0  0  0  0
 31 32  2  0  0  0  0
 31 33  1  0  0  0  0
 33 34  1  0  0  0  0
 33 66  1  0  0  0  0
 34 35  2  0  0  0  0
 34 40  1  0  0  0  0
 35 36  1  0  0  0  0
 35 67  1  0  0  0  0
 36 37  2  0  0  0  0
 36 68  1  0  0  0  0
 37 38  1  0  0  0  0
 37 39  1  0  0  0  0
 39 40  2  0  0  0  0
 39 69  1  0  0  0  0
 40 70  1  0  0  0  0
 41 42  2  0  0  0  0
 41 71  1  0  0  0  0
 42 72  1  0  0  0  0
 43 44  1  0  0  0  0
 43 73  1  0  0  0  0
 44 45  2  0  0  0  0
 44 74  1  0  0  0  0
M  END
>  <DRUGBANK_ID>
DB15036

>  <COMMON_NAME>
Sitravatinib

>  <CAS_NUMBER>
1123837-84-2

>  <UNII>
CWG62Q1VTB

>  <SYNONYMS>
Sitravatinib

$$$$
