APQ
 OpenBabel10282417123D

 34 35  0  0  0  0  0  0  0  0999 V2000
    0.9321    0.0847   -0.2420 C   0  0  0  0  0  0  0  0  0  0  0  0
    0.3530   -1.0838    0.5500 C   0  0  0  0  0  0  0  0  0  0  0  0
    0.8509   -0.8660    1.8837 C   0  0  0  0  0  0  0  0  0  0  0  0
    0.1487    1.8142    0.1227 S   0  0  0  0  0  0  0  0  0  0  0  0
    0.9311    2.6452    1.7006 C   0  0  0  0  0  0  0  0  0  0  0  0
    0.5901    2.1093    3.1139 C   0  0  0  0  0  0  0  0  0  0  0  0
   -0.2300    2.6960    4.0575 C   0  0  0  0  0  0  0  0  0  0  0  0
   -0.5058    4.0630    3.9686 N   0  0  0  0  0  0  0  0  0  0  0  0
   -0.9395    4.6601    5.0393 C   0  0  0  0  0  0  0  0  0  0  0  0
   -1.2277    4.0040    6.1957 N   0  0  0  0  0  0  0  0  0  0  0  0
   -1.0901    2.6504    6.3754 C   0  0  0  0  0  0  0  0  0  0  0  0
   -1.3204    2.0894    7.4219 O   0  0  0  0  0  0  0  0  0  0  0  0
   -0.5551    1.9426    5.2151 C   0  0  0  0  0  0  0  0  0  0  0  0
   -0.2315    0.6017    5.4027 C   0  0  0  0  0  0  0  0  0  0  0  0
    0.6669    0.0553    4.5381 C   0  0  0  0  0  0  0  0  0  0  0  0
    1.0315   -1.2969    4.7430 N   0  0  0  0  0  0  0  0  0  0  0  0
    1.2699    0.9803    3.6300 C   0  0  0  0  0  0  0  0  0  0  0  0
   -1.1078    5.9910    5.0147 N   0  0  0  0  0  0  0  0  0  0  0  0
    0.6952   -0.1730   -1.2760 H   0  0  0  0  0  0  0  0  0  0  0  0
    2.0222    0.1508   -0.1366 H   0  0  0  0  0  0  0  0  0  0  0  0
   -0.7367   -1.0285    0.6586 H   0  0  0  0  0  0  0  0  0  0  0  0
    0.6692   -2.1032    0.3257 H   0  0  0  0  0  0  0  0  0  0  0  0
    0.4563    0.1207    1.9940 H   0  0  0  0  0  0  0  0  0  0  0  0
    0.2732   -1.4680    2.5589 H   0  0  0  0  0  0  0  0  0  0  0  0
    1.9456   -0.8965    2.0169 H   0  0  0  0  0  0  0  0  0  0  0  0
    2.0139    2.6883    1.5571 H   0  0  0  0  0  0  0  0  0  0  0  0
    0.5871    3.6896    1.6034 H   0  0  0  0  0  0  0  0  0  0  0  0
   -1.5592    4.4926    7.0087 H   0  0  0  0  0  0  0  0  0  0  0  0
   -0.5695    0.0293    6.2614 H   0  0  0  0  0  0  0  0  0  0  0  0
    1.2679   -1.8587    3.9276 H   0  0  0  0  0  0  0  0  0  0  0  0
    0.3097   -1.8350    5.2305 H   0  0  0  0  0  0  0  0  0  0  0  0
    2.1600    0.7469    3.0561 H   0  0  0  0  0  0  0  0  0  0  0  0
   -0.8994    6.4585    4.1413 H   0  0  0  0  0  0  0  0  0  0  0  0
   -1.4998    6.5236    5.7741 H   0  0  0  0  0  0  0  0  0  0  0  0
  1  2  1  0  0  0  0
  1  4  1  0  0  0  0
  1 19  1  0  0  0  0
  1 20  1  0  0  0  0
  2  3  1  0  0  0  0
  2 21  1  0  0  0  0
  2 22  1  0  0  0  0
  3 23  1  0  0  0  0
  3 24  1  0  0  0  0
  3 25  1  0  0  0  0
  4  5  1  0  0  0  0
  5  6  1  0  0  0  0
  5 26  1  0  0  0  0
  5 27  1  0  0  0  0
  6  7  1  0  0  0  0
  6 17  2  0  0  0  0
  7  8  1  0  0  0  0
  7 13  2  0  0  0  0
  8  9  2  0  0  0  0
  9 10  1  0  0  0  0
  9 18  1  0  0  0  0
 10 11  1  0  0  0  0
 10 28  1  0  0  0  0
 11 12  2  0  0  0  0
 11 13  1  0  0  0  0
 13 14  1  0  0  0  0
 14 15  2  0  0  0  0
 14 29  1  0  0  0  0
 15 16  1  0  0  0  0
 15 17  1  0  0  0  0
 16 30  1  0  0  0  0
 16 31  1  0  0  0  0
 17 32  1  0  0  0  0
 18 33  1  0  0  0  0
 18 34  1  0  0  0  0
M  END
>  <DRUGBANK_ID>
DB02599

>  <SECONDARY_ACCESSION_NUMBERS>
EXPT00543

>  <COMMON_NAME>
2,6-Diamino-8-Propylsulfanylmethyl-3h-Quinazoline-4-One

$$$$
