L15
 OpenBabel10282417173D

 30 31  0  0  0  0  0  0  0  0999 V2000
    2.2309   -0.0184    0.0002 C   0  0  0  0  0  0  0  0  0  0  0  0
    0.7490    0.0419   -0.0090 C   0  0  0  0  0  0  0  0  0  0  0  0
    0.0190   -1.0816   -0.0035 N   0  0  0  0  0  0  0  0  0  0  0  0
   -1.2530   -0.6445    0.0029 N   0  0  0  0  0  0  0  0  0  0  0  0
   -1.3618    0.7136    0.0074 C   0  0  0  0  0  0  0  0  0  0  0  0
   -0.0744    1.1933   -0.0098 C   0  0  0  0  0  0  0  0  0  0  0  0
    0.2654    2.5937   -0.0228 C   0  0  0  0  0  0  0  0  0  0  0  0
    1.0140    3.1327   -1.0745 C   0  0  0  0  0  0  0  0  0  0  0  0
    1.3158    4.4968   -1.0979 C   0  0  0  0  0  0  0  0  0  0  0  0
    0.8916    5.3278   -0.0542 C   0  0  0  0  0  0  0  0  0  0  0  0
    1.2157    6.8048   -0.0501 C   0  0  0  0  0  0  0  0  0  0  0  0
   -0.0074    7.7371   -0.1475 C   0  0  0  0  0  0  0  0  0  0  0  0
   -0.9498    7.6123    0.9673 N   0  0  0  0  0  0  0  0  0  0  0  0
    0.1946    4.7578    1.0218 C   0  0  0  0  0  0  0  0  0  0  0  0
   -0.1342    3.4077    1.0332 C   0  0  0  0  0  0  0  0  0  0  0  0
    2.5899   -0.5498    0.8864 H   0  0  0  0  0  0  0  0  0  0  0  0
    2.5975   -0.5294   -0.8948 H   0  0  0  0  0  0  0  0  0  0  0  0
    2.6745    0.9823    0.0169 H   0  0  0  0  0  0  0  0  0  0  0  0
   -1.9977   -1.3306    0.0011 H   0  0  0  0  0  0  0  0  0  0  0  0
   -2.3249    1.2073    0.0080 H   0  0  0  0  0  0  0  0  0  0  0  0
    1.3651    2.4939   -1.8818 H   0  0  0  0  0  0  0  0  0  0  0  0
    1.8904    4.8957   -1.9307 H   0  0  0  0  0  0  0  0  0  0  0  0
    1.7960    7.0284    0.8538 H   0  0  0  0  0  0  0  0  0  0  0  0
    1.8800    7.0332   -0.8948 H   0  0  0  0  0  0  0  0  0  0  0  0
    0.3472    8.7732   -0.1732 H   0  0  0  0  0  0  0  0  0  0  0  0
   -0.5449    7.5499   -1.0837 H   0  0  0  0  0  0  0  0  0  0  0  0
   -1.7094    8.2802    0.8537 H   0  0  0  0  0  0  0  0  0  0  0  0
   -1.3988    6.6977    0.8981 H   0  0  0  0  0  0  0  0  0  0  0  0
   -0.1040    5.3646    1.8731 H   0  0  0  0  0  0  0  0  0  0  0  0
   -0.6789    2.9996    1.8804 H   0  0  0  0  0  0  0  0  0  0  0  0
  1  2  1  0  0  0  0
  1 16  1  0  0  0  0
  1 17  1  0  0  0  0
  1 18  1  0  0  0  0
  2  3  2  0  0  0  0
  2  6  1  0  0  0  0
  3  4  1  0  0  0  0
  4  5  1  0  0  0  0
  4 19  1  0  0  0  0
  5  6  2  0  0  0  0
  5 20  1  0  0  0  0
  6  7  1  0  0  0  0
  7  8  1  0  0  0  0
  7 15  2  0  0  0  0
  8  9  2  0  0  0  0
  8 21  1  0  0  0  0
  9 10  1  0  0  0  0
  9 22  1  0  0  0  0
 10 11  1  0  0  0  0
 10 14  2  0  0  0  0
 11 12  1  0  0  0  0
 11 23  1  0  0  0  0
 11 24  1  0  0  0  0
 12 13  1  0  0  0  0
 12 25  1  0  0  0  0
 12 26  1  0  0  0  0
 13 27  1  0  0  0  0
 13 28  1  0  0  0  0
 14 15  1  0  0  0  0
 14 29  1  0  0  0  0
 15 30  1  0  0  0  0
M  END
>  <DRUGBANK_ID>
DB08070

>  <COMMON_NAME>
2-[4-(3-METHYL-1H-PYRAZOL-4-YL)PHENYL]ETHANAMINE

$$$$
