
 OpenBabel10282417143D

 34 34  0  0  1  0  0  0  0  0999 V2000
    1.0143    0.1594   -1.9245 O   0  0  0  0  0  0  0  0  0  0  0  0
    0.5761    1.0297   -0.9301 C   0  0  1  0  0  0  0  0  0  0  0  0
    1.3201    2.3453   -0.8666 C   0  0  2  0  0  0  0  0  0  0  0  0
    1.7402    2.5801    0.4848 O   0  0  0  0  0  0  0  0  0  0  0  0
    0.3136    3.4298   -1.2574 C   0  0  1  0  0  0  0  0  0  0  0  0
    0.6748    4.1895   -2.5362 C   0  0  0  0  0  0  0  0  0  0  0  0
    0.0956    3.6349   -3.7223 O   0  0  0  0  0  0  0  0  0  0  0  0
    0.5451    1.9794   -3.9462 P   0  0  0  0  0  0  0  0  0  0  0  0
   -1.0394    1.7738   -4.3045 O   0  0  0  0  0  0  0  0  0  0  0  0
    1.0231    2.4737   -5.4304 O   0  0  0  0  0  0  0  0  0  0  0  0
    0.9473    0.4977   -4.1466 O   0  0  0  0  0  0  0  0  0  0  0  0
   -0.9606    2.8365   -1.4142 O   0  0  0  0  0  0  0  0  0  0  0  0
   -0.9113    1.4919   -0.9737 C   0  0  2  0  0  0  0  0  0  0  0  0
   -1.4230    1.4177    0.4967 C   0  0  0  0  0  0  0  0  0  0  0  0
   -0.6210    0.4546    1.2333 O   0  0  0  0  0  0  0  0  0  0  0  0
   -0.7544   -1.1925    0.7211 P   0  0  0  0  0  0  0  0  0  0  0  0
   -1.8973   -1.3356    1.8723 O   0  0  0  0  0  0  0  0  0  0  0  0
   -1.7005   -0.8041   -0.5304 O   0  0  0  0  0  0  0  0  0  0  0  0
   -0.8738   -2.6666    0.2627 O   0  0  0  0  0  0  0  0  0  0  0  0
   -1.7490    0.8938   -1.9605 O   0  0  0  0  0  0  0  0  0  0  0  0
    0.4499   -0.6299   -2.0547 H   0  0  0  0  0  0  0  0  0  0  0  0
    0.9038    0.4645   -0.0653 H   0  0  0  0  0  0  0  0  0  0  0  0
    2.2140    2.3373   -1.4926 H   0  0  0  0  0  0  0  0  0  0  0  0
    1.0007    2.3969    1.0957 H   0  0  0  0  0  0  0  0  0  0  0  0
    0.1996    4.1449   -0.4381 H   0  0  0  0  0  0  0  0  0  0  0  0
    0.2956    5.2121   -2.4554 H   0  0  0  0  0  0  0  0  0  0  0  0
    1.7604    4.2514   -2.6556 H   0  0  0  0  0  0  0  0  0  0  0  0
   -1.5868    1.7910   -3.4883 H   0  0  0  0  0  0  0  0  0  0  0  0
    1.0313    3.4427   -5.4788 H   0  0  0  0  0  0  0  0  0  0  0  0
   -1.2915    2.3837    0.9938 H   0  0  0  0  0  0  0  0  0  0  0  0
   -2.4852    1.1650    0.5845 H   0  0  0  0  0  0  0  0  0  0  0  0
   -1.5182   -1.8487    2.6181 H   0  0  0  0  0  0  0  0  0  0  0  0
   -2.6236   -0.6335   -0.4103 H   0  0  0  0  0  0  0  0  0  0  0  0
   -1.2890    0.1231   -2.3532 H   0  0  0  0  0  0  0  0  0  0  0  0
  1 21  1  0  0  0  0
  2  3  1  0  0  0  0
  2 13  1  0  0  0  0
  2 22  1  1  0  0  0
  2  1  1  0  0  0  0
  3  4  1  0  0  0  0
  3  5  1  0  0  0  0
  3 23  1  6  0  0  0
  4 24  1  0  0  0  0
  5 12  1  0  0  0  0
  5 25  1  1  0  0  0
  5  6  1  0  0  0  0
  6  7  1  0  0  0  0
  6 26  1  0  0  0  0
  6 27  1  0  0  0  0
  7  8  1  0  0  0  0
  8  9  1  0  0  0  0
  8 10  1  0  0  0  0
  8 11  2  0  0  0  0
  9 28  1  0  0  0  0
 10 29  1  0  0  0  0
 12 13  1  0  0  0  0
 13 20  1  6  0  0  0
 13 14  1  0  0  0  0
 14 15  1  0  0  0  0
 14 30  1  0  0  0  0
 14 31  1  0  0  0  0
 15 16  1  0  0  0  0
 16 17  1  0  0  0  0
 16 18  1  0  0  0  0
 16 19  2  0  0  0  0
 17 32  1  0  0  0  0
 18 33  1  0  0  0  0
 20 34  1  0  0  0  0
M  END
>  <DRUGBANK_ID>
DB04551

>  <SECONDARY_ACCESSION_NUMBERS>
EXPT01395

>  <COMMON_NAME>
beta-D-fructofuranose 1,6-bisphosphate

>  <UNII>
WCH874XLB1

>  <SYNONYMS>
1,6-di-O-phosphono-β-D-fructofuranose; beta-D-Fructose 1,6-bisphosphate; β-D-fructofuranose 1,6-bisphosphate

$$$$
