
 OpenBabel10282417153D

 34 37  0  0  0  0  0  0  0  0999 V2000
    1.4499    0.0727   -0.0094 C   0  0  0  0  0  0  0  0  0  0  0  0
    0.6814    1.2265    0.0022 C   0  0  0  0  0  0  0  0  0  0  0  0
   -0.6966    1.0914    0.0101 C   0  0  0  0  0  0  0  0  0  0  0  0
   -1.3373   -0.1004    0.0354 N   0  0  0  0  0  0  0  0  0  0  0  0
   -0.5709   -1.2273    0.0511 C   0  0  0  0  0  0  0  0  0  0  0  0
    0.8193   -1.1674   -0.0032 C   0  0  0  0  0  0  0  0  0  0  0  0
   -1.3117   -2.5442    0.0632 C   0  0  0  0  0  0  0  0  0  0  0  0
   -2.5394   -2.5820   -0.0196 O   0  0  0  0  0  0  0  0  0  0  0  0
   -0.5472   -3.7809    0.0605 C   0  0  0  0  0  0  0  0  0  0  0  0
   -0.6143   -4.8143   -0.8904 C   0  0  0  0  0  0  0  0  0  0  0  0
    0.2417   -5.8064   -0.6510 N   0  0  0  0  0  0  0  0  0  0  0  0
    0.8517   -5.4662    0.5155 N   0  0  0  0  0  0  0  0  0  0  0  0
    0.3829   -4.2247    0.9845 C   0  0  0  0  0  0  0  0  0  0  0  0
    0.8451   -3.6685    2.1470 N   0  0  0  0  0  0  0  0  0  0  0  0
    1.7458   -4.3503    2.7862 C   0  0  0  0  0  0  0  0  0  0  0  0
    2.3317   -5.6494    2.3630 C   0  0  0  0  0  0  0  0  0  0  0  0
    1.8385   -6.1807    1.2272 C   0  0  0  0  0  0  0  0  0  0  0  0
    2.3132   -7.5091    0.7791 C   0  0  0  0  0  0  0  0  0  0  0  0
    2.1605   -8.6197    1.6162 C   0  0  0  0  0  0  0  0  0  0  0  0
    2.5452   -9.8671    1.1509 C   0  0  0  0  0  0  0  0  0  0  0  0
    3.0842  -10.0790   -0.0660 N   0  0  0  0  0  0  0  0  0  0  0  0
    3.2301   -8.9969   -0.8597 C   0  0  0  0  0  0  0  0  0  0  0  0
    2.8667   -7.7095   -0.4887 C   0  0  0  0  0  0  0  0  0  0  0  0
    2.5345    0.1267   -0.0204 H   0  0  0  0  0  0  0  0  0  0  0  0
    1.1475    2.2056    0.0026 H   0  0  0  0  0  0  0  0  0  0  0  0
   -1.3391    1.9686   -0.0009 H   0  0  0  0  0  0  0  0  0  0  0  0
    1.4328   -2.0574   -0.0330 H   0  0  0  0  0  0  0  0  0  0  0  0
   -1.2384   -4.8654   -1.7745 H   0  0  0  0  0  0  0  0  0  0  0  0
    2.1283   -3.9552    3.7430 H   0  0  0  0  0  0  0  0  0  0  0  0
    3.0939   -6.0999    2.9846 H   0  0  0  0  0  0  0  0  0  0  0  0
    1.7225   -8.5314    2.6044 H   0  0  0  0  0  0  0  0  0  0  0  0
    2.4142  -10.7558    1.7617 H   0  0  0  0  0  0  0  0  0  0  0  0
    3.6540   -9.2010   -1.8395 H   0  0  0  0  0  0  0  0  0  0  0  0
    2.9981   -6.8946   -1.1930 H   0  0  0  0  0  0  0  0  0  0  0  0
  1  2  2  0  0  0  0
  1  6  1  0  0  0  0
  1 24  1  0  0  0  0
  2  3  1  0  0  0  0
  2 25  1  0  0  0  0
  3  4  2  0  0  0  0
  3 26  1  0  0  0  0
  4  5  1  0  0  0  0
  5  6  2  0  0  0  0
  5  7  1  0  0  0  0
  6 27  1  0  0  0  0
  7  8  2  0  0  0  0
  7  9  1  0  0  0  0
  9 10  1  0  0  0  0
  9 13  2  0  0  0  0
 10 11  2  0  0  0  0
 10 28  1  0  0  0  0
 11 12  1  0  0  0  0
 12 13  1  0  0  0  0
 12 17  1  0  0  0  0
 13 14  1  0  0  0  0
 14 15  2  0  0  0  0
 15 16  1  0  0  0  0
 15 29  1  0  0  0  0
 16 17  2  0  0  0  0
 16 30  1  0  0  0  0
 17 18  1  0  0  0  0
 18 19  2  0  0  0  0
 18 23  1  0  0  0  0
 19 20  1  0  0  0  0
 19 31  1  0  0  0  0
 20 21  2  0  0  0  0
 20 32  1  0  0  0  0
 21 22  1  0  0  0  0
 22 23  2  0  0  0  0
 22 33  1  0  0  0  0
 23 34  1  0  0  0  0
M  END
>  <DRUGBANK_ID>
DB06529

>  <COMMON_NAME>
Ocinaplon

>  <CAS_NUMBER>
96604-21-6

>  <UNII>
2H6KVC5E76

>  <SYNONYMS>
Ocinaplon

$$$$
