PA6
 OpenBabel10282417173D

 35 34  0  0  0  0  0  0  0  0999 V2000
    0.8910    0.4930    0.3678 O   0  0  0  0  0  0  0  0  0  0  0  0
    2.0957    0.4047    0.1401 C   0  0  0  0  0  0  0  0  0  0  0  0
    2.7795    1.2609   -0.9385 C   0  0  0  0  0  0  0  0  0  0  0  0
    2.3002    1.0864   -2.4491 C   0  0  0  0  0  0  0  0  0  0  0  0
    0.8123    1.0727   -2.6188 C   0  0  0  0  0  0  0  0  0  0  0  0
    0.4253    2.4760   -2.3316 C   0  0  0  0  0  0  0  0  0  0  0  0
    2.8222   -0.4577    0.8770 O   0  0  0  0  0  0  0  0  0  0  0  0
    4.2416   -0.6611    0.9301 C   0  0  0  0  0  0  0  0  0  0  0  0
    4.9402   -1.4373   -0.1827 C   0  0  1  0  0  0  0  0  0  0  0  0
    4.7975   -0.9048   -1.4389 O   0  0  0  0  0  0  0  0  0  0  0  0
    3.6102   -1.2359   -1.9491 C   0  0  0  0  0  0  0  0  0  0  0  0
    2.6616   -1.7918   -1.4754 O   0  0  0  0  0  0  0  0  0  0  0  0
    6.4245   -1.3009   -0.0823 C   0  0  0  0  0  0  0  0  0  0  0  0
    6.7677   -2.1694    0.9357 O   0  0  0  0  0  0  0  0  0  0  0  0
    7.0557   -1.8517    2.4589 P   0  0  0  0  0  0  0  0  0  0  0  0
    7.9911   -0.5724    2.3702 O   0  0  0  0  0  0  0  0  0  0  0  0
    7.5422   -3.0581    3.1665 O   0  0  0  0  0  0  0  0  0  0  0  0
    5.7905   -1.2164    3.1855 O   0  0  0  0  0  0  0  0  0  0  0  0
    4.6439   -2.4958   -0.1890 H   0  0  0  0  0  0  0  0  0  0  0  0
    2.5957    2.3010   -0.6313 H   0  0  0  0  0  0  0  0  0  0  0  0
    3.8677    1.2109   -0.8314 H   0  0  0  0  0  0  0  0  0  0  0  0
    2.8582    1.7907   -3.0857 H   0  0  0  0  0  0  0  0  0  0  0  0
    2.3893    0.1841   -3.0381 H   0  0  0  0  0  0  0  0  0  0  0  0
    0.5486    0.7559   -3.6415 H   0  0  0  0  0  0  0  0  0  0  0  0
    0.3753    0.3081   -1.9658 H   0  0  0  0  0  0  0  0  0  0  0  0
    1.0228    3.1318   -2.9765 H   0  0  0  0  0  0  0  0  0  0  0  0
   -0.6318    2.6186   -2.4967 H   0  0  0  0  0  0  0  0  0  0  0  0
    0.6698    2.7140   -1.2953 H   0  0  0  0  0  0  0  0  0  0  0  0
    4.7461    0.2757    1.1889 H   0  0  0  0  0  0  0  0  0  0  0  0
    4.3167   -1.3486    1.7650 H   0  0  0  0  0  0  0  0  0  0  0  0
    3.7307   -0.5867   -2.8117 H   0  0  0  0  0  0  0  0  0  0  0  0
    6.8845   -1.6428   -1.0313 H   0  0  0  0  0  0  0  0  0  0  0  0
    6.7533   -0.2516    0.0026 H   0  0  0  0  0  0  0  0  0  0  0  0
    8.4071   -0.4932    1.4965 H   0  0  0  0  0  0  0  0  0  0  0  0
    5.9280   -1.3465    4.1479 H   0  0  0  0  0  0  0  0  0  0  0  0
  1  2  2  0  0  0  0
  2  7  1  0  0  0  0
  2  3  1  0  0  0  0
  3  4  1  0  0  0  0
  3 20  1  0  0  0  0
  3 21  1  0  0  0  0
  4  5  1  0  0  0  0
  4 22  1  0  0  0  0
  4 23  1  0  0  0  0
  5  6  1  0  0  0  0
  5 24  1  0  0  0  0
  5 25  1  0  0  0  0
  6 26  1  0  0  0  0
  6 27  1  0  0  0  0
  6 28  1  0  0  0  0
  7  8  1  0  0  0  0
  8  9  1  0  0  0  0
  8 29  1  0  0  0  0
  8 30  1  0  0  0  0
  9 10  1  0  0  0  0
  9 13  1  0  0  0  0
  9 19  1  1  0  0  0
 10 11  1  0  0  0  0
 11 12  2  0  0  0  0
 11 31  1  0  0  0  0
 13 14  1  0  0  0  0
 13 32  1  0  0  0  0
 13 33  1  0  0  0  0
 14 15  1  0  0  0  0
 15 17  2  0  0  0  0
 15 16  1  0  0  0  0
 15 18  1  0  0  0  0
 16 34  1  0  0  0  0
 18 35  1  0  0  0  0
M  END
>  <DRUGBANK_ID>
DB08367

>  <COMMON_NAME>
(R)-2-(FORMYLOXY)-3-(PHOSPHONOOXY)PROPYL PENTANOATE

$$$$
