
 OpenBabel10282417213D

 34 36  0  0  0  0  0  0  0  0999 V2000
   -1.5717   -1.0257   -0.0051 O   0  0  0  0  0  0  0  0  0  0  0  0
   -2.3680    0.0867   -0.0035 C   0  0  0  0  0  0  0  0  0  0  0  0
   -0.2697   -0.6031   -0.0035 C   0  0  0  0  0  0  0  0  0  0  0  0
   -0.2369    0.7852   -0.0029 C   0  0  0  0  0  0  0  0  0  0  0  0
   -1.5826    1.2204   -0.0034 C   0  0  0  0  0  0  0  0  0  0  0  0
    0.8875   -1.3868   -0.0021 C   0  0  0  0  0  0  0  0  0  0  0  0
    2.1228   -0.7189   -0.0003 C   0  0  0  0  0  0  0  0  0  0  0  0
    1.0070    1.4358   -0.0006 C   0  0  0  0  0  0  0  0  0  0  0  0
    2.1849    0.6765    0.0019 C   0  0  0  0  0  0  0  0  0  0  0  0
   -4.6998   -2.8717   -0.0003 N   0  0  0  0  0  0  0  0  0  0  0  0
   -3.8606   -0.0713    0.0027 C   0  0  0  0  0  0  0  0  0  0  0  0
    0.8362   -3.2729   -0.0005 Br  0  0  0  0  0  0  0  0  0  0  0  0
    3.3280    1.4304    0.0073 O   0  0  0  0  0  0  0  0  0  0  0  0
   -4.1176   -2.2796    1.2074 C   0  0  0  0  0  0  0  0  0  0  0  0
   -4.1363   -2.2722   -1.2134 C   0  0  0  0  0  0  0  0  0  0  0  0
   -4.3735   -0.7761    1.2606 C   0  0  0  0  0  0  0  0  0  0  0  0
   -4.3886   -0.7676   -1.2537 C   0  0  0  0  0  0  0  0  0  0  0  0
    4.5628    0.7262    0.0169 C   0  0  0  0  0  0  0  0  0  0  0  0
   -1.9458    2.2351   -0.0012 H   0  0  0  0  0  0  0  0  0  0  0  0
    3.0303   -1.3154   -0.0005 H   0  0  0  0  0  0  0  0  0  0  0  0
    1.0515    2.5199   -0.0001 H   0  0  0  0  0  0  0  0  0  0  0  0
   -4.4894   -3.8697   -0.0050 H   0  0  0  0  0  0  0  0  0  0  0  0
   -4.2762    0.9466    0.0083 H   0  0  0  0  0  0  0  0  0  0  0  0
   -3.0459   -2.4973    1.2590 H   0  0  0  0  0  0  0  0  0  0  0  0
   -4.5668   -2.7499    2.0885 H   0  0  0  0  0  0  0  0  0  0  0  0
   -4.6023   -2.7356   -2.0895 H   0  0  0  0  0  0  0  0  0  0  0  0
   -3.0659   -2.4914   -1.2846 H   0  0  0  0  0  0  0  0  0  0  0  0
   -3.9224   -0.3454    2.1624 H   0  0  0  0  0  0  0  0  0  0  0  0
   -5.4569   -0.6062    1.3432 H   0  0  0  0  0  0  0  0  0  0  0  0
   -5.4724   -0.5948   -1.3229 H   0  0  0  0  0  0  0  0  0  0  0  0
   -3.9470   -0.3323   -2.1581 H   0  0  0  0  0  0  0  0  0  0  0  0
    4.6592    0.1151    0.9202 H   0  0  0  0  0  0  0  0  0  0  0  0
    4.6745    0.1194   -0.8874 H   0  0  0  0  0  0  0  0  0  0  0  0
    5.3699    1.4647    0.0257 H   0  0  0  0  0  0  0  0  0  0  0  0
  2  1  1  0  0  0  0
  3  1  1  0  0  0  0
  4  3  2  0  0  0  0
  5  2  2  0  0  0  0
  5  4  1  0  0  0  0
  5 19  1  0  0  0  0
  6  3  1  0  0  0  0
  7  6  2  0  0  0  0
  7 20  1  0  0  0  0
  8  4  1  0  0  0  0
  8 21  1  0  0  0  0
  9  7  1  0  0  0  0
  9  8  2  0  0  0  0
 10 15  1  0  0  0  0
 10 14  1  0  0  0  0
 10 22  1  0  0  0  0
 11  2  1  0  0  0  0
 11 23  1  0  0  0  0
 12  6  1  0  0  0  0
 13  9  1  0  0  0  0
 14 16  1  0  0  0  0
 14 24  1  0  0  0  0
 14 25  1  0  0  0  0
 15 17  1  0  0  0  0
 15 26  1  0  0  0  0
 15 27  1  0  0  0  0
 16 11  1  0  0  0  0
 16 28  1  0  0  0  0
 16 29  1  0  0  0  0
 17 11  1  0  0  0  0
 17 30  1  0  0  0  0
 17 31  1  0  0  0  0
 18 13  1  0  0  0  0
 18 32  1  0  0  0  0
 18 33  1  0  0  0  0
 18 34  1  0  0  0  0
M  END
>  <DRUGBANK_ID>
DB13876

>  <COMMON_NAME>
Brofaromine

>  <CAS_NUMBER>
63638-91-5

>  <UNII>
6WV4B8Q07H

>  <SYNONYMS>
Brofaromine; Consonar

$$$$
