
 OpenBabel10282417223D

 58 60  0  0  1  0  0  0  0  0999 V2000
    1.0147   -0.2906   -0.4278 O   0  0  0  0  0  0  0  0  0  0  0  0
    0.2654   -1.3344   -0.0598 C   0  0  0  0  0  0  0  0  0  0  0  0
    0.8163   -2.3717    0.2810 O   0  0  0  0  0  0  0  0  0  0  0  0
   -1.2573   -1.0498    0.0074 C   0  0  1  0  0  0  0  0  0  0  0  0
   -1.7127   -0.4022    1.3573 C   0  0  0  0  0  0  0  0  0  0  0  0
   -1.2647    1.0381    1.5931 C   0  0  0  0  0  0  0  0  0  0  0  0
    0.1084    1.3600    1.6413 C   0  0  0  0  0  0  0  0  0  0  0  0
    0.5363    2.6669    1.4081 C   0  0  0  0  0  0  0  0  0  0  0  0
    1.8536    2.9752    1.1942 O   0  0  0  0  0  0  0  0  0  0  0  0
   -0.3953    3.6926    1.3272 C   0  0  0  0  0  0  0  0  0  0  0  0
    0.0121    4.9821    1.1282 O   0  0  0  0  0  0  0  0  0  0  0  0
   -1.7533    3.4195    1.4380 C   0  0  0  0  0  0  0  0  0  0  0  0
   -2.1949    2.0928    1.5436 C   0  0  0  0  0  0  0  0  0  0  0  0
   -1.9593   -0.4512   -1.1065 O   0  0  0  0  0  0  0  0  0  0  0  0
   -1.6572    0.8347   -1.3978 C   0  0  0  0  0  0  0  0  0  0  0  0
   -0.7093    1.4648   -0.9951 O   0  0  0  0  0  0  0  0  0  0  0  0
   -2.5221    1.5126   -2.3710 C   0  0  0  0  0  0  0  0  0  0  0  0
   -2.9909    0.8636   -3.4417 C   0  0  0  0  0  0  0  0  0  0  0  0
   -3.2164    1.5510   -4.7369 C   0  0  0  0  0  0  0  0  0  0  0  0
   -2.2546    2.3256   -5.4850 C   0  0  0  0  0  0  0  0  0  0  0  0
   -0.8781    2.6669   -5.0118 C   0  0  0  0  0  0  0  0  0  0  0  0
   -0.2049    2.0237   -4.0541 C   0  0  0  0  0  0  0  0  0  0  0  0
    1.0217    2.4291   -3.3742 C   0  0  0  0  0  0  0  0  0  0  0  0
    1.4698    3.7470   -3.2681 C   0  0  0  0  0  0  0  0  0  0  0  0
    2.6948    3.9859   -2.6524 C   0  0  0  0  0  0  0  0  0  0  0  0
    3.2463    5.2373   -2.6272 O   0  0  0  0  0  0  0  0  0  0  0  0
    3.4157    2.9383   -2.0762 C   0  0  0  0  0  0  0  0  0  0  0  0
    4.6335    3.1478   -1.5001 O   0  0  0  0  0  0  0  0  0  0  0  0
    2.9220    1.6500   -2.0796 C   0  0  0  0  0  0  0  0  0  0  0  0
    1.7210    1.4040   -2.7243 C   0  0  0  0  0  0  0  0  0  0  0  0
   -2.6834    2.8572   -6.7267 C   0  0  0  0  0  0  0  0  0  0  0  0
   -1.9152    3.6449   -7.5561 O   0  0  0  0  0  0  0  0  0  0  0  0
   -3.9697    2.6038   -7.2149 C   0  0  0  0  0  0  0  0  0  0  0  0
   -4.3701    3.0912   -8.4294 O   0  0  0  0  0  0  0  0  0  0  0  0
   -4.8759    1.8500   -6.4942 C   0  0  0  0  0  0  0  0  0  0  0  0
   -4.5013    1.3253   -5.2630 C   0  0  0  0  0  0  0  0  0  0  0  0
    1.9330   -0.4048   -0.1220 H   0  0  0  0  0  0  0  0  0  0  0  0
   -1.6675   -2.0728    0.0256 H   0  0  0  0  0  0  0  0  0  0  0  0
   -2.8129   -0.4266    1.3556 H   0  0  0  0  0  0  0  0  0  0  0  0
   -1.3867   -1.0084    2.2091 H   0  0  0  0  0  0  0  0  0  0  0  0
    0.8416    0.5695    1.7193 H   0  0  0  0  0  0  0  0  0  0  0  0
    2.3260    2.1614    0.9445 H   0  0  0  0  0  0  0  0  0  0  0  0
    0.9855    4.9207    1.0524 H   0  0  0  0  0  0  0  0  0  0  0  0
   -2.4656    4.2353    1.3872 H   0  0  0  0  0  0  0  0  0  0  0  0
   -3.2640    1.8945    1.5074 H   0  0  0  0  0  0  0  0  0  0  0  0
   -2.3358    2.5852   -2.3939 H   0  0  0  0  0  0  0  0  0  0  0  0
   -3.0581   -0.2213   -3.4497 H   0  0  0  0  0  0  0  0  0  0  0  0
   -0.3720    3.5136   -5.4560 H   0  0  0  0  0  0  0  0  0  0  0  0
   -0.5849    1.0910   -3.6716 H   0  0  0  0  0  0  0  0  0  0  0  0
    0.8694    4.5607   -3.6608 H   0  0  0  0  0  0  0  0  0  0  0  0
    2.6326    5.8430   -3.0791 H   0  0  0  0  0  0  0  0  0  0  0  0
    4.8126    4.0967   -1.6412 H   0  0  0  0  0  0  0  0  0  0  0  0
    3.4666    0.8399   -1.6123 H   0  0  0  0  0  0  0  0  0  0  0  0
    1.3007    0.4008   -2.6952 H   0  0  0  0  0  0  0  0  0  0  0  0
   -1.0311    3.7661   -7.1803 H   0  0  0  0  0  0  0  0  0  0  0  0
   -3.5985    3.5723   -8.7865 H   0  0  0  0  0  0  0  0  0  0  0  0
   -5.8693    1.6704   -6.8907 H   0  0  0  0  0  0  0  0  0  0  0  0
   -5.2272    0.7331   -4.7084 H   0  0  0  0  0  0  0  0  0  0  0  0
  1  2  1  0  0  0  0
  1 37  1  0  0  0  0
  2  3  2  0  0  0  0
  4  2  1  0  0  0  0
  4  5  1  0  0  0  0
  4 14  1  0  0  0  0
  4 38  1  1  0  0  0
  5  6  1  0  0  0  0
  5 39  1  0  0  0  0
  5 40  1  0  0  0  0
  6  7  2  0  0  0  0
  6 13  1  0  0  0  0
  7  8  1  0  0  0  0
  7 41  1  0  0  0  0
  8  9  1  0  0  0  0
  8 10  2  0  0  0  0
  9 42  1  0  0  0  0
 10 11  1  0  0  0  0
 10 12  1  0  0  0  0
 11 43  1  0  0  0  0
 12 13  2  0  0  0  0
 12 44  1  0  0  0  0
 13 45  1  0  0  0  0
 14 15  1  0  0  0  0
 15 16  2  0  0  0  0
 15 17  1  0  0  0  0
 17 18  2  0  0  0  0
 17 46  1  0  0  0  0
 18 19  1  0  0  0  0
 18 47  1  0  0  0  0
 19 20  2  0  0  0  0
 19 36  1  0  0  0  0
 20 21  1  0  0  0  0
 20 31  1  0  0  0  0
 21 22  2  0  0  0  0
 21 48  1  0  0  0  0
 22 23  1  0  0  0  0
 22 49  1  0  0  0  0
 23 24  2  0  0  0  0
 23 30  1  0  0  0  0
 24 25  1  0  0  0  0
 24 50  1  0  0  0  0
 25 26  1  0  0  0  0
 25 27  2  0  0  0  0
 26 51  1  0  0  0  0
 27 28  1  0  0  0  0
 27 29  1  0  0  0  0
 28 52  1  0  0  0  0
 29 30  2  0  0  0  0
 29 53  1  0  0  0  0
 30 54  1  0  0  0  0
 31 32  1  0  0  0  0
 31 33  2  0  0  0  0
 32 55  1  0  0  0  0
 33 34  1  0  0  0  0
 33 35  1  0  0  0  0
 34 56  1  0  0  0  0
 35 36  2  0  0  0  0
 35 57  1  0  0  0  0
 36 58  1  0  0  0  0
M  END
>  <DRUGBANK_ID>
DB15246

>  <COMMON_NAME>
Salvianolic acid A

>  <CAS_NUMBER>
96574-01-5

>  <UNII>
51622542XO

$$$$
