
 OpenBabel10282417153D

 56 58  0  0  0  0  0  0  0  0999 V2000
    2.6658   -0.0651   -0.5298 C   0  0  0  0  0  0  0  0  0  0  0  0
    1.5120   -1.4900   -0.6621 C   0  0  0  0  0  0  0  0  0  0  0  0
   -0.3254   -1.2293   -0.5065 C   0  0  0  0  0  0  0  0  0  0  0  0
   -1.0167    0.5030   -0.1426 C   0  0  0  0  0  0  0  0  0  0  0  0
    0.1744    1.9383    0.0342 C   0  0  0  0  0  0  0  0  0  0  0  0
    2.0008    1.6469   -0.1706 C   0  0  0  0  0  0  0  0  0  0  0  0
    2.9627    2.7677    0.0591 C   0  0  0  0  0  0  0  0  0  0  0  0
    3.7171    2.6355    1.3093 N   0  0  0  0  0  0  0  0  0  0  0  0
    2.8252    2.6162    2.4767 C   0  0  0  0  0  0  0  0  0  0  0  0
    3.6644    2.5865    3.7480 C   0  0  0  0  0  0  0  0  0  0  0  0
    4.6031    1.3630    3.7761 C   0  0  0  0  0  0  0  0  0  0  0  0
    5.4405    1.3139    2.5030 C   0  0  0  0  0  0  0  0  0  0  0  0
    4.5276    1.4135    1.3167 C   0  0  0  0  0  0  0  0  0  0  0  0
    5.5314    1.4516    4.8834 N   0  0  0  0  0  0  0  0  0  0  0  0
    5.4938    0.5271    5.9012 C   0  0  0  0  0  0  0  0  0  0  0  0
    5.2544    0.9055    7.2324 C   0  0  0  0  0  0  0  0  0  0  0  0
    4.9264    2.1618    7.8490 C   0  0  0  0  0  0  0  0  0  0  0  0
    4.7437    2.0199    9.2000 C   0  0  0  0  0  0  0  0  0  0  0  0
    4.9484    0.4361    9.7517 S   0  0  0  0  0  0  0  0  0  0  0  0
    5.2889   -0.1116    8.1744 C   0  0  0  0  0  0  0  0  0  0  0  0
    5.5536   -1.4070    7.9473 N   0  0  0  0  0  0  0  0  0  0  0  0
    5.7700   -1.6532    6.6524 C   0  0  0  0  0  0  0  0  0  0  0  0
    5.7351   -0.7763    5.6320 N   0  0  0  0  0  0  0  0  0  0  0  0
    4.3414    3.2534   10.3240 Cl  0  0  0  0  0  0  0  0  0  0  0  0
   -2.4113    0.7054   -0.0541 C   0  0  0  0  0  0  0  0  0  0  0  0
   -3.5777    0.8443   -0.0317 N   0  0  0  0  0  0  0  0  0  0  0  0
   -1.0266   -2.3123   -0.1240 F   0  0  0  0  0  0  0  0  0  0  0  0
    0.8691    0.0639    0.4999 C   0  0  0  0  0  0  0  0  0  0  0  0
    0.6861    0.4176   -1.2829 C   0  0  0  0  0  0  0  0  0  0  0  0
    1.2608    1.1656   -2.5535 C   0  0  0  0  0  0  0  0  0  0  0  0
    0.5778    1.7618   -3.3752 O   0  0  0  0  0  0  0  0  0  0  0  0
    2.5879    1.1129   -2.6177 O   0  0  0  0  0  0  0  0  0  0  0  0
    0.2322   -0.5885    1.8361 C   0  0  0  0  0  0  0  0  0  0  0  0
    0.9652   -1.0476    2.6963 O   0  0  0  0  0  0  0  0  0  0  0  0
   -1.1098   -0.6003    1.8857 O   0  0  0  0  0  0  0  0  0  0  0  0
    3.7315   -0.2852   -0.3628 H   0  0  0  0  0  0  0  0  0  0  0  0
    1.9618   -2.4227   -0.2547 H   0  0  0  0  0  0  0  0  0  0  0  0
   -0.1576    2.9683    0.1322 H   0  0  0  0  0  0  0  0  0  0  0  0
    3.6265    2.7993   -0.8132 H   0  0  0  0  0  0  0  0  0  0  0  0
    2.3824    3.6968    0.0453 H   0  0  0  0  0  0  0  0  0  0  0  0
    2.1708    1.7381    2.4817 H   0  0  0  0  0  0  0  0  0  0  0  0
    2.1699    3.4941    2.4693 H   0  0  0  0  0  0  0  0  0  0  0  0
    2.9913    2.5731    4.6117 H   0  0  0  0  0  0  0  0  0  0  0  0
    4.2447    3.5149    3.7915 H   0  0  0  0  0  0  0  0  0  0  0  0
    3.9780    0.4582    3.8458 H   0  0  0  0  0  0  0  0  0  0  0  0
    6.1741    2.1235    2.4588 H   0  0  0  0  0  0  0  0  0  0  0  0
    5.9791    0.3585    2.4528 H   0  0  0  0  0  0  0  0  0  0  0  0
    5.1096    1.3217    0.3939 H   0  0  0  0  0  0  0  0  0  0  0  0
    3.8833    0.5431    1.4415 H   0  0  0  0  0  0  0  0  0  0  0  0
    6.0366    2.3149    5.0120 H   0  0  0  0  0  0  0  0  0  0  0  0
    4.8206    3.0956    7.3111 H   0  0  0  0  0  0  0  0  0  0  0  0
    6.0030   -2.6850    6.4036 H   0  0  0  0  0  0  0  0  0  0  0  0
    1.7645    0.2106    1.1321 H   0  0  0  0  0  0  0  0  0  0  0  0
   -0.2935    0.3427   -1.8911 H   0  0  0  0  0  0  0  0  0  0  0  0
    2.9255    1.7172   -3.2912 H   0  0  0  0  0  0  0  0  0  0  0  0
   -1.6050   -1.1451    2.5235 H   0  0  0  0  0  0  0  0  0  0  0  0
  1  2  2  0  0  0  0
  1  6  1  0  0  0  0
  1 36  1  0  0  0  0
  2  3  1  0  0  0  0
  2 37  1  0  0  0  0
  3  4  2  0  0  0  0
  3 27  1  0  0  0  0
  4  5  1  0  0  0  0
  4 25  1  0  0  0  0
  5  6  2  0  0  0  0
  5 38  1  0  0  0  0
  6  7  1  0  0  0  0
  7  8  1  0  0  0  0
  7 39  1  0  0  0  0
  7 40  1  0  0  0  0
  8  9  1  0  0  0  0
  8 13  1  0  0  0  0
  9 10  1  0  0  0  0
  9 41  1  0  0  0  0
  9 42  1  0  0  0  0
 10 11  1  0  0  0  0
 10 43  1  0  0  0  0
 10 44  1  0  0  0  0
 11 12  1  0  0  0  0
 11 14  1  0  0  0  0
 11 45  1  0  0  0  0
 12 13  1  0  0  0  0
 12 46  1  0  0  0  0
 12 47  1  0  0  0  0
 13 48  1  0  0  0  0
 13 49  1  0  0  0  0
 14 15  1  0  0  0  0
 14 50  1  0  0  0  0
 15 16  2  0  0  0  0
 15 23  1  0  0  0  0
 16 17  1  0  0  0  0
 16 20  1  0  0  0  0
 17 18  2  0  0  0  0
 17 51  1  0  0  0  0
 18 19  1  0  0  0  0
 18 24  1  0  0  0  0
 19 20  1  0  0  0  0
 20 21  2  0  0  0  0
 21 22  1  0  0  0  0
 22 23  2  0  0  0  0
 22 52  1  0  0  0  0
 25 26  3  0  0  0  0
 28 29  2  0  0  0  0
 28 33  1  0  0  0  0
 28 53  1  0  0  0  0
 29 30  1  0  0  0  0
 29 54  1  0  0  0  0
 30 31  2  0  0  0  0
 30 32  1  0  0  0  0
 32 55  1  0  0  0  0
 33 34  2  0  0  0  0
 33 35  1  0  0  0  0
 35 56  1  0  0  0  0
M  END
>  <DRUGBANK_ID>
DB05607

>  <COMMON_NAME>
PRX-08066

>  <UNII>
92E9B7675Y

>  <SYNONYMS>
5-((4-(6-CHLOROTHIENO(2,3-D)PYRIMIDINE-4-YLAMINO)PIPERIDIN-1-YL)METHYL)-2-FLUOROBENZONITRILE MONOFUMURATE; 5-((4-(6-chlorothieno[2,3-d]pyrimidine-4-ylamino)piperidin-1-yl)methyl)-2-fluorobenzonitrile monofumurate

$$$$
