
 OpenBabel10282417213D

 59 62  0  0  1  0  0  0  0  0999 V2000
    0.2984   -5.7102    2.0063 C   0  0  0  0  0  0  0  0  0  0  0  0
    1.0943   -5.0104    0.6911 C   0  0  0  0  0  0  0  0  0  0  0  0
    1.8807   -4.0623    0.6780 O   0  0  0  0  0  0  0  0  0  0  0  0
    0.5233   -5.4762   -0.4659 O   0  0  0  0  0  0  0  0  0  0  0  0
    0.7309   -4.6465   -1.6085 C   0  0  0  0  0  0  0  0  0  0  0  0
   -0.1265   -3.3891   -1.6222 C   0  0  0  0  0  0  0  0  0  0  0  0
    0.4803   -2.3316   -1.8942 O   0  0  0  0  0  0  0  0  0  0  0  0
   -1.8340   -3.4739   -1.5052 C   0  0  1  0  0  0  0  0  0  0  0  0
   -3.1600   -3.9963    0.0298 C   0  0  0  0  0  0  0  0  0  0  0  0
   -2.7020   -3.7624    1.5164 C   0  0  0  0  0  0  0  0  0  0  0  0
   -1.4587   -3.5485    0.8002 C   0  0  2  0  0  0  0  0  0  0  0  0
   -2.2425   -3.0867   -0.3577 C   0  0  2  0  0  0  0  0  0  0  0  0
   -2.7951   -1.6219   -0.2122 C   0  0  0  0  0  0  0  0  0  0  0  0
   -1.6805   -0.6899    0.3740 C   0  0  1  0  0  0  0  0  0  0  0  0
   -1.0240   -1.2633    1.6706 C   0  0  1  0  0  0  0  0  0  0  0  0
   -0.4750   -2.5824    1.3231 C   0  0  1  0  0  0  0  0  0  0  0  0
   -0.0770   -3.2341    2.5699 C   0  0  0  0  0  0  0  0  0  0  0  0
    0.7387   -2.6294    3.5479 C   0  0  1  0  0  0  0  0  0  0  0  0
   -0.1577   -1.3800    3.8608 C   0  0  0  0  0  0  0  0  0  0  0  0
   -0.2231   -0.7031    5.0221 C   0  0  0  0  0  0  0  0  0  0  0  0
    1.0813   -0.8717    5.6271 C   0  0  0  0  0  0  0  0  0  0  0  0
    1.2138   -1.0125    6.8282 O   0  0  0  0  0  0  0  0  0  0  0  0
    2.1443   -0.8856    4.4937 C   0  0  0  0  0  0  0  0  0  0  0  0
    1.7376   -0.4655    3.1350 C   0  0  0  0  0  0  0  0  0  0  0  0
    0.0347   -0.4727    2.6585 C   0  0  2  0  0  0  0  0  0  0  0  0
   -0.6666    0.8787    2.6900 C   0  0  0  0  0  0  0  0  0  0  0  0
    0.9714   -3.5275    4.5355 F   0  0  0  0  0  0  0  0  0  0  0  0
   -0.6632   -0.3601   -0.5514 O   0  0  0  0  0  0  0  0  0  0  0  0
   -2.6410   -4.6713   -1.6004 C   0  0  0  0  0  0  0  0  0  0  0  0
   -1.8565   -2.3071   -2.4124 O   0  0  0  0  0  0  0  0  0  0  0  0
    0.4817   -5.3104    3.0286 H   0  0  0  0  0  0  0  0  0  0  0  0
    0.5927   -6.7170    2.1671 H   0  0  0  0  0  0  0  0  0  0  0  0
   -0.7973   -5.5768    1.9842 H   0  0  0  0  0  0  0  0  0  0  0  0
    1.7985   -4.3685   -1.7111 H   0  0  0  0  0  0  0  0  0  0  0  0
    0.4822   -5.2029   -2.5146 H   0  0  0  0  0  0  0  0  0  0  0  0
   -3.3300   -5.0872    0.3391 H   0  0  0  0  0  0  0  0  0  0  0  0
   -4.2494   -3.8004   -0.2166 H   0  0  0  0  0  0  0  0  0  0  0  0
   -2.6573   -4.6025    2.2252 H   0  0  0  0  0  0  0  0  0  0  0  0
   -3.2115   -2.9389    2.0131 H   0  0  0  0  0  0  0  0  0  0  0  0
   -1.0849   -4.5206    0.5126 H   0  0  0  0  0  0  0  0  0  0  0  0
   -3.2947   -1.2245   -1.0900 H   0  0  0  0  0  0  0  0  0  0  0  0
   -3.6486   -1.6516    0.4827 H   0  0  0  0  0  0  0  0  0  0  0  0
   -2.2240    0.2269    0.5790 H   0  0  0  0  0  0  0  0  0  0  0  0
   -1.9074   -1.4489    2.3086 H   0  0  0  0  0  0  0  0  0  0  0  0
    0.3195   -2.4068    0.5949 H   0  0  0  0  0  0  0  0  0  0  0  0
    0.7393   -3.8242    2.2959 H   0  0  0  0  0  0  0  0  0  0  0  0
   -0.8866   -3.6611    3.1442 H   0  0  0  0  0  0  0  0  0  0  0  0
    1.7213   -2.5665    2.9850 H   0  0  0  0  0  0  0  0  0  0  0  0
   -0.3957    0.3732    5.0225 H   0  0  0  0  0  0  0  0  0  0  0  0
    2.5773   -1.9077    4.7926 H   0  0  0  0  0  0  0  0  0  0  0  0
    2.2368   -0.8605    2.2295 H   0  0  0  0  0  0  0  0  0  0  0  0
   -1.6150    0.7553    3.2333 H   0  0  0  0  0  0  0  0  0  0  0  0
   -0.0348    1.6387    3.1211 H   0  0  0  0  0  0  0  0  0  0  0  0
   -0.9623    1.2497    1.7021 H   0  0  0  0  0  0  0  0  0  0  0  0
   -0.2481   -1.1558   -0.9537 H   0  0  0  0  0  0  0  0  0  0  0  0
   -3.3987   -4.3954   -2.3793 H   0  0  0  0  0  0  0  0  0  0  0  0
   -1.7533   -5.3314   -1.8728 H   0  0  0  0  0  0  0  0  0  0  0  0
   -3.1736   -5.5714   -1.1795 H   0  0  0  0  0  0  0  0  0  0  0  0
   -2.5360   -1.6340   -2.4967 H   0  0  0  0  0  0  0  0  0  0  0  0
  1  2  1  0  0  0  0
  1 31  1  0  0  0  0
  1 32  1  0  0  0  0
  1 33  1  0  0  0  0
  2  3  2  0  0  0  0
  2  4  1  0  0  0  0
  4  5  1  0  0  0  0
  5  6  1  0  0  0  0
  5 34  1  0  0  0  0
  5 35  1  0  0  0  0
  6  7  2  0  0  0  0
  8  6  1  1  0  0  0
  8  9  1  0  0  0  0
  8 12  1  0  0  0  0
  8 30  1  0  0  0  0
  9 10  1  0  0  0  0
  9 36  1  0  0  0  0
  9 37  1  0  0  0  0
 10 38  1  0  0  0  0
 10 39  1  0  0  0  0
 11 10  1  0  0  0  0
 11 12  1  0  0  0  0
 11 16  1  0  0  0  0
 11 40  1  1  0  0  0
 12 13  1  0  0  0  0
 12 29  1  6  0  0  0
 13 14  1  0  0  0  0
 13 41  1  0  0  0  0
 13 42  1  0  0  0  0
 14 28  1  0  0  0  0
 14 43  1  1  0  0  0
 15 14  1  0  0  0  0
 15 16  1  0  0  0  0
 15 25  1  0  0  0  0
 15 44  1  1  0  0  0
 16 17  1  0  0  0  0
 16 45  1  6  0  0  0
 17 18  1  0  0  0  0
 17 46  1  0  0  0  0
 17 47  1  0  0  0  0
 18 19  1  0  0  0  0
 18 48  1  6  0  0  0
 18 27  1  0  0  0  0
 19 20  2  0  0  0  0
 19 25  1  0  0  0  0
 20 21  1  0  0  0  0
 20 49  1  0  0  0  0
 21 22  2  0  0  0  0
 21 23  1  0  0  0  0
 23 24  2  0  0  0  0
 23 50  1  0  0  0  0
 24 25  1  0  0  0  0
 24 51  1  0  0  0  0
 25 26  1  6  0  0  0
 26 52  1  0  0  0  0
 26 53  1  0  0  0  0
 26 54  1  0  0  0  0
 28 55  1  0  0  0  0
 29 56  1  0  0  0  0
 29 57  1  0  0  0  0
 29 58  1  0  0  0  0
 30 59  1  0  0  0  0
M  END
>  <DRUGBANK_ID>
DB14637

>  <SECONDARY_ACCESSION_NUMBERS>
DBSALT002198

>  <COMMON_NAME>
Fluprednisolone acetate

>  <CAS_NUMBER>
570-36-5

>  <UNII>
5YEO81H7EG

$$$$
