
 OpenBabel10282417233D

 53 54  0  0  0  0  0  0  0  0999 V2000
    1.1874   -0.1201    0.1974 C   0  0  0  0  0  0  0  0  0  0  0  0
    0.9295   -1.3330    0.8490 O   0  0  0  0  0  0  0  0  0  0  0  0
    1.4011   -2.8371    0.3897 C   0  0  0  0  0  0  0  0  0  0  0  0
    0.3835    0.7926    0.0083 O   0  0  0  0  0  0  0  0  0  0  0  0
    2.6288    0.0342    0.0093 C   0  0  0  0  0  0  0  0  0  0  0  0
    3.2198    1.2709   -0.0114 C   0  0  0  0  0  0  0  0  0  0  0  0
    3.4648   -1.0665    0.0922 C   0  0  0  0  0  0  0  0  0  0  0  0
    4.8095   -1.0695    0.2503 C   0  0  0  0  0  0  0  0  0  0  0  0
    4.6143    1.3103    0.1092 C   0  0  0  0  0  0  0  0  0  0  0  0
    5.4009    0.1478    0.2231 C   0  0  0  0  0  0  0  0  0  0  0  0
   -3.2231   -5.8328   -0.6312 N   0  0  0  0  0  0  0  0  0  0  0  0
   -3.2731   -3.4628   -0.8693 C   0  0  0  0  0  0  0  0  0  0  0  0
   -2.9937   -4.7368   -1.3489 C   0  0  0  0  0  0  0  0  0  0  0  0
   -1.4376   -2.4671   -1.9200 N   0  0  0  0  0  0  0  0  0  0  0  0
   -0.5859   -2.4226   -3.0697 C   0  0  0  0  0  0  0  0  0  0  0  0
   -2.8336   -2.2498   -1.6535 C   0  0  0  0  0  0  0  0  0  0  0  0
   -3.9466   -4.4747    1.1959 N   0  0  0  0  0  0  0  0  0  0  0  0
    0.8070   -2.6358   -3.0853 C   0  0  0  0  0  0  0  0  0  0  0  0
   -3.7354   -5.6615    0.5989 C   0  0  0  0  0  0  0  0  0  0  0  0
   -0.8342   -2.2562   -0.7767 C   0  0  0  0  0  0  0  0  0  0  0  0
   -3.6937   -3.3900    0.4488 C   0  0  0  0  0  0  0  0  0  0  0  0
    2.0139   -3.2838   -1.6503 S   0  0  0  0  0  0  0  0  0  0  0  0
    0.2051   -1.6546   -1.0246 O   0  0  0  0  0  0  0  0  0  0  0  0
   -2.5457   -4.9396   -2.6487 N   0  0  0  0  0  0  0  0  0  0  0  0
    1.6061   -2.5064   -4.4339 C   0  0  0  0  0  0  0  0  0  0  0  0
   -1.3230   -2.1746   -4.3474 C   0  0  0  0  0  0  0  0  0  0  0  0
    3.6306   -1.3390   -3.6498 O   0  0  0  0  0  0  0  0  0  0  0  0
   -4.1381   -6.9007    1.3241 C   0  0  0  0  0  0  0  0  0  0  0  0
    2.5509   -1.2972   -4.5679 C   0  0  0  0  0  0  0  0  0  0  0  0
    2.1448   -3.0402    1.1800 H   0  0  0  0  0  0  0  0  0  0  0  0
    0.6075   -3.5667    0.5574 H   0  0  0  0  0  0  0  0  0  0  0  0
    2.6170    2.1737   -0.0659 H   0  0  0  0  0  0  0  0  0  0  0  0
    3.1641   -2.0650    0.0394 H   0  0  0  0  0  0  0  0  0  0  0  0
    5.2899   -2.0343    0.3756 H   0  0  0  0  0  0  0  0  0  0  0  0
    5.1081    2.2683    0.1553 H   0  0  0  0  0  0  0  0  0  0  0  0
    6.4764    0.1623    0.2826 H   0  0  0  0  0  0  0  0  0  0  0  0
   -2.9196   -1.3426   -1.0111 H   0  0  0  0  0  0  0  0  0  0  0  0
   -3.4291   -2.0696   -2.5364 H   0  0  0  0  0  0  0  0  0  0  0  0
   -1.2688   -2.4502    0.2172 H   0  0  0  0  0  0  0  0  0  0  0  0
   -3.7860   -2.4445    0.9827 H   0  0  0  0  0  0  0  0  0  0  0  0
   -2.2002   -5.8790   -2.8041 H   0  0  0  0  0  0  0  0  0  0  0  0
   -1.9372   -4.2220   -3.0158 H   0  0  0  0  0  0  0  0  0  0  0  0
    2.1651   -3.4342   -4.6032 H   0  0  0  0  0  0  0  0  0  0  0  0
    0.9209   -2.4302   -5.2882 H   0  0  0  0  0  0  0  0  0  0  0  0
   -0.9873   -1.2692   -4.8579 H   0  0  0  0  0  0  0  0  0  0  0  0
   -1.1965   -3.0635   -4.9696 H   0  0  0  0  0  0  0  0  0  0  0  0
   -2.3931   -2.0712   -4.1881 H   0  0  0  0  0  0  0  0  0  0  0  0
    3.2333   -1.4399   -2.7644 H   0  0  0  0  0  0  0  0  0  0  0  0
   -4.8883   -7.4374    0.7342 H   0  0  0  0  0  0  0  0  0  0  0  0
   -3.2657   -7.5445    1.4614 H   0  0  0  0  0  0  0  0  0  0  0  0
   -4.5656   -6.6603    2.3002 H   0  0  0  0  0  0  0  0  0  0  0  0
    2.9965   -1.2903   -5.5723 H   0  0  0  0  0  0  0  0  0  0  0  0
    2.0173   -0.3501   -4.4423 H   0  0  0  0  0  0  0  0  0  0  0  0
  1  2  1  0  0  0  0
  2  3  1  0  0  0  0
  3 30  1  0  0  0  0
  3 31  1  0  0  0  0
  4  1  2  0  0  0  0
  5  1  1  0  0  0  0
  6  5  1  0  0  0  0
  6 32  1  0  0  0  0
  7  5  2  0  0  0  0
  7 33  1  0  0  0  0
  8  7  1  0  0  0  0
  8 34  1  0  0  0  0
  9  6  2  0  0  0  0
  9 10  1  0  0  0  0
  9 35  1  0  0  0  0
 10  8  2  0  0  0  0
 10 36  1  0  0  0  0
 12 13  1  0  0  0  0
 12 21  2  0  0  0  0
 13 11  2  0  0  0  0
 14 16  1  0  0  0  0
 15 14  1  0  0  0  0
 16 12  1  0  0  0  0
 16 37  1  0  0  0  0
 16 38  1  0  0  0  0
 17 19  2  0  0  0  0
 18 15  2  0  0  0  0
 19 11  1  0  0  0  0
 20 14  1  0  0  0  0
 20 39  1  0  0  0  0
 21 17  1  0  0  0  0
 21 40  1  0  0  0  0
 22 18  1  0  0  0  0
 22  3  1  0  0  0  0
 23 20  2  0  0  0  0
 24 13  1  0  0  0  0
 24 41  1  0  0  0  0
 24 42  1  0  0  0  0
 25 18  1  0  0  0  0
 25 43  1  0  0  0  0
 25 44  1  0  0  0  0
 26 15  1  0  0  0  0
 26 45  1  0  0  0  0
 26 46  1  0  0  0  0
 26 47  1  0  0  0  0
 27 29  1  0  0  0  0
 27 48  1  0  0  0  0
 28 19  1  0  0  0  0
 28 49  1  0  0  0  0
 28 50  1  0  0  0  0
 28 51  1  0  0  0  0
 29 25  1  0  0  0  0
 29 52  1  0  0  0  0
 29 53  1  0  0  0  0
M  END
>  <DRUGBANK_ID>
DB16535

>  <COMMON_NAME>
Benzoyloxymethylthiamine

>  <CAS_NUMBER>
18481-26-0

$$$$
