Malic acid.mol
 OpenBabel10282417193D

 15 14  0  0  0  0  0  0  0  0999 V2000
    1.0159    0.0177   -0.1645 C   0  0  0  0  0  0  0  0  0  0  0  0
    0.2994    1.1205    0.6332 C   0  0  3  0  0  0  0  0  0  0  0  0
   -0.5440    1.9083   -0.2108 O   0  0  0  0  0  0  0  0  0  0  0  0
   -0.5691    0.4965    1.7183 C   0  0  0  0  0  0  0  0  0  0  0  0
    0.2576   -0.2053    2.7548 C   0  0  0  0  0  0  0  0  0  0  0  0
    0.4382   -0.8458   -0.8099 O   0  0  0  0  0  0  0  0  0  0  0  0
    2.3689    0.0943   -0.1278 O   0  0  0  0  0  0  0  0  0  0  0  0
    0.3123    0.0784    3.9415 O   0  0  0  0  0  0  0  0  0  0  0  0
    0.9816   -1.2212    2.2590 O   0  0  0  0  0  0  0  0  0  0  0  0
    1.0289    1.8059    1.0778 H   0  0  0  0  0  0  0  0  0  0  0  0
   -0.0230    2.1933   -0.9828 H   0  0  0  0  0  0  0  0  0  0  0  0
   -1.1507    1.2812    2.2195 H   0  0  0  0  0  0  0  0  0  0  0  0
   -1.3073   -0.2005    1.3048 H   0  0  0  0  0  0  0  0  0  0  0  0
    2.7502    0.8041    0.4212 H   0  0  0  0  0  0  0  0  0  0  0  0
    1.4546   -1.6400    3.0083 H   0  0  0  0  0  0  0  0  0  0  0  0
  1  2  1  0  0  0  0
  1  6  2  0  0  0  0
  1  7  1  0  0  0  0
  2  3  1  0  0  0  0
  2  4  1  0  0  0  0
  2 10  1  0  0  0  0
  3 11  1  0  0  0  0
  4  5  1  0  0  0  0
  4 12  1  0  0  0  0
  4 13  1  0  0  0  0
  5  8  2  0  0  0  0
  5  9  1  0  0  0  0
  7 14  1  0  0  0  0
  9 15  1  0  0  0  0
M  END
>  <DRUGBANK_ID>
DB12751

>  <COMMON_NAME>
Malic acid

>  <CAS_NUMBER>
6915-15-7

>  <UNII>
817L1N4CKP

>  <SYNONYMS>
Malic acid

$$$$
