
 OpenBabel10282417133D

 61 65  0  0  0  0  0  0  0  0999 V2000
    1.0278   -1.6904    0.3256 C   0  0  2  0  0  0  0  0  0  0  0  0
   -0.0283   -0.7129   -0.2039 C   0  0  1  0  0  0  0  0  0  0  0  0
    2.5765   -1.3958    0.1583 C   0  0  1  0  0  0  0  0  0  0  0  0
    1.0826   -1.7520    1.9553 C   0  0  0  0  0  0  0  0  0  0  0  0
    0.7871   -2.8992   -0.4199 O   0  0  0  0  0  0  0  0  0  0  0  0
    0.1102    0.7033    0.3030 C   0  0  1  0  0  0  0  0  0  0  0  0
   -1.4651   -1.1138    0.1060 C   0  0  0  0  0  0  0  0  0  0  0  0
    3.0528   -2.9076    1.1917 C   0  0  2  0  0  0  0  0  0  0  0  0
    2.6379    0.1796    0.7683 C   0  0  0  0  0  0  0  0  0  0  0  0
    3.2560   -1.0349   -1.2509 C   0  0  0  0  0  0  0  0  0  0  0  0
    2.5249   -2.1639    2.4019 C   0  0  0  0  0  0  0  0  0  0  0  0
   -0.9275    1.6478   -0.3561 C   0  0  2  0  0  0  0  0  0  0  0  0
    1.5974    1.0557    0.0404 C   0  0  0  0  0  0  0  0  0  0  0  0
   -2.5206   -0.1042   -0.6193 C   0  0  0  0  0  0  0  0  0  0  0  0
    3.0201   -4.6365    1.6620 C   0  0  0  0  0  0  0  0  0  0  0  0
   -2.3825    1.6278   -0.5874 C   0  0  2  0  0  0  0  0  0  0  0  0
   -0.8523    1.3301   -2.1287 C   0  0  0  0  0  0  0  0  0  0  0  0
   -1.1019    2.9358    0.7103 C   0  0  0  0  0  0  0  0  0  0  0  0
    4.2829   -5.4584    1.7279 C   0  0  0  0  0  0  0  0  0  0  0  0
    2.0528   -5.5243    2.0611 C   0  0  0  0  0  0  0  0  0  0  0  0
   -2.0090    3.2201   -1.6058 C   0  0  0  0  0  0  0  0  0  0  0  0
    0.1311    2.2411   -2.7432 C   0  0  0  0  0  0  0  0  0  0  0  0
    3.9654   -6.7801    2.1991 O   0  0  0  0  0  0  0  0  0  0  0  0
    2.6210   -6.8893    2.4091 C   0  0  0  0  0  0  0  0  0  0  0  0
   -0.3148    3.5127   -2.0695 C   0  0  2  0  0  0  0  0  0  0  0  0
    2.0529   -7.8545    2.7991 O   0  0  0  0  0  0  0  0  0  0  0  0
    0.6809    3.7285   -1.0776 O   0  0  0  0  0  0  0  0  0  0  0  0
   -3.1135    1.9212    0.1816 H   0  0  0  0  0  0  0  0  0  0  0  0
    0.1204   -0.7569   -1.2840 H   0  0  0  0  0  0  0  0  0  0  0  0
   -0.0875    0.7475    1.3782 H   0  0  0  0  0  0  0  0  0  0  0  0
    0.3265   -2.0679    2.6785 H   0  0  0  0  0  0  0  0  0  0  0  0
    0.9627   -0.7028    2.1860 H   0  0  0  0  0  0  0  0  0  0  0  0
    0.2373   -2.7227   -1.2029 H   0  0  0  0  0  0  0  0  0  0  0  0
   -1.7022   -2.1379   -0.2335 H   0  0  0  0  0  0  0  0  0  0  0  0
   -1.5004   -1.2522    1.2016 H   0  0  0  0  0  0  0  0  0  0  0  0
    2.1986   -3.4042    0.7413 H   0  0  0  0  0  0  0  0  0  0  0  0
    3.6209    0.6467    0.6055 H   0  0  0  0  0  0  0  0  0  0  0  0
    2.4459    0.3810    1.8258 H   0  0  0  0  0  0  0  0  0  0  0  0
    3.5573    0.0458   -1.2893 H   0  0  0  0  0  0  0  0  0  0  0  0
    4.2411   -1.4608   -1.4548 H   0  0  0  0  0  0  0  0  0  0  0  0
    2.5829   -1.0506   -2.1155 H   0  0  0  0  0  0  0  0  0  0  0  0
    2.7058   -2.6531    3.3562 H   0  0  0  0  0  0  0  0  0  0  0  0
    3.1228   -1.2529    2.5132 H   0  0  0  0  0  0  0  0  0  0  0  0
    1.8927    2.0797    0.2694 H   0  0  0  0  0  0  0  0  0  0  0  0
    1.7471    0.9133   -1.0233 H   0  0  0  0  0  0  0  0  0  0  0  0
   -3.4962   -0.4002   -0.2093 H   0  0  0  0  0  0  0  0  0  0  0  0
   -2.5399   -0.4692   -1.6489 H   0  0  0  0  0  0  0  0  0  0  0  0
   -1.8291    1.4486   -2.6757 H   0  0  0  0  0  0  0  0  0  0  0  0
   -0.7376    0.2877   -2.3998 H   0  0  0  0  0  0  0  0  0  0  0  0
   -1.1035    2.5831    1.7450 H   0  0  0  0  0  0  0  0  0  0  0  0
   -0.4040    3.7607    0.6464 H   0  0  0  0  0  0  0  0  0  0  0  0
   -2.0824    3.4583    0.6894 H   0  0  0  0  0  0  0  0  0  0  0  0
    4.9810   -5.0526    2.4553 H   0  0  0  0  0  0  0  0  0  0  0  0
    4.7261   -5.6039    0.7449 H   0  0  0  0  0  0  0  0  0  0  0  0
    0.9821   -5.4802    2.2026 H   0  0  0  0  0  0  0  0  0  0  0  0
   -2.2923    4.1457   -1.0750 H   0  0  0  0  0  0  0  0  0  0  0  0
   -2.5342    3.2681   -2.5672 H   0  0  0  0  0  0  0  0  0  0  0  0
    0.2149    2.3346   -3.8243 H   0  0  0  0  0  0  0  0  0  0  0  0
    1.0592    1.7633   -2.4630 H   0  0  0  0  0  0  0  0  0  0  0  0
   -0.2035    4.4373   -2.6342 H   0  0  0  0  0  0  0  0  0  0  0  0
    0.7514    2.8776   -0.6397 H   0  0  0  0  0  0  0  0  0  0  0  0
  1  2  1  0  0  0  0
  1  3  1  0  0  0  0
  1  4  1  0  0  0  0
  1  5  1  1  0  0  0
  2  6  1  0  0  0  0
  2  7  1  0  0  0  0
  2 29  1  1  0  0  0
  3  8  1  0  0  0  0
  3  9  1  0  0  0  0
  3 10  1  1  0  0  0
  4 11  1  0  0  0  0
  4 31  1  0  0  0  0
  4 32  1  0  0  0  0
  5 33  1  0  0  0  0
  6 12  1  0  0  0  0
  6 13  1  0  0  0  0
  6 30  1  6  0  0  0
  7 14  1  0  0  0  0
  7 34  1  0  0  0  0
  7 35  1  0  0  0  0
  8 11  1  0  0  0  0
  8 15  1  0  0  0  0
  8 36  1  6  0  0  0
  9 13  1  0  0  0  0
  9 37  1  0  0  0  0
  9 38  1  0  0  0  0
 10 39  1  0  0  0  0
 10 40  1  0  0  0  0
 10 41  1  0  0  0  0
 11 42  1  0  0  0  0
 11 43  1  0  0  0  0
 12 16  1  0  0  0  0
 12 17  1  0  0  0  0
 12 18  1  1  0  0  0
 13 44  1  0  0  0  0
 13 45  1  0  0  0  0
 14 16  1  0  0  0  0
 14 46  1  0  0  0  0
 14 47  1  0  0  0  0
 15 19  1  0  0  0  0
 15 20  2  0  0  0  0
 16 21  1  0  0  0  0
 16 28  1  1  0  0  0
 17 22  1  0  0  0  0
 17 48  1  0  0  0  0
 17 49  1  0  0  0  0
 18 50  1  0  0  0  0
 18 51  1  0  0  0  0
 18 52  1  0  0  0  0
 19 23  1  0  0  0  0
 19 53  1  0  0  0  0
 19 54  1  0  0  0  0
 20 24  1  0  0  0  0
 20 55  1  0  0  0  0
 21 25  1  0  0  0  0
 21 56  1  0  0  0  0
 21 57  1  0  0  0  0
 22 25  1  0  0  0  0
 22 58  1  0  0  0  0
 22 59  1  0  0  0  0
 23 24  1  0  0  0  0
 24 26  2  0  0  0  0
 25 60  1  6  0  0  0
 25 27  1  0  0  0  0
 27 61  1  0  0  0  0
M  END
>  <DRUGBANK_ID>
DB04177

>  <SECONDARY_ACCESSION_NUMBERS>
EXPT01294

>  <COMMON_NAME>
Digitoxigenin

>  <CAS_NUMBER>
143-62-4

>  <UNII>
S63WOD4VOL

>  <SYNONYMS>
Cerberigenin; Echujetin; Evonogenin; Thevetigenin

$$$$
