
 OpenBabel10282417203D

 32 34  0  0  0  0  0  0  0  0999 V2000
   -2.4465    0.6641   -0.0025 C   0  0  0  0  0  0  0  0  0  0  0  0
   -2.4459   -0.7359   -0.0835 C   0  0  0  0  0  0  0  0  0  0  0  0
   -1.2525   -1.4773   -0.0801 C   0  0  0  0  0  0  0  0  0  0  0  0
   -0.0403   -0.7509   -0.0296 C   0  0  0  0  0  0  0  0  0  0  0  0
   -0.0430    0.6578    0.0148 C   0  0  0  0  0  0  0  0  0  0  0  0
   -1.2432    1.3586    0.0486 C   0  0  0  0  0  0  0  0  0  0  0  0
    1.0959    1.4244    0.0483 O   0  0  0  0  0  0  0  0  0  0  0  0
    2.2499    0.6761   -0.3381 C   0  0  0  0  0  0  0  0  0  0  0  0
    2.2625   -0.6788    0.3417 C   0  0  0  0  0  0  0  0  0  0  0  0
    1.1390   -1.4624   -0.0611 O   0  0  0  0  0  0  0  0  0  0  0  0
   -1.3302   -2.8619   -0.0347 N   0  0  0  0  0  0  0  0  0  0  0  0
   -0.5972   -3.6159    0.9832 C   0  0  0  0  0  0  0  0  0  0  0  0
    0.4285   -4.5740    0.3409 C   0  0  0  0  0  0  0  0  0  0  0  0
   -0.1606   -5.4684   -0.6829 N   0  0  0  0  0  0  0  0  0  0  0  0
   -0.8206   -4.6235   -1.7076 C   0  0  0  0  0  0  0  0  0  0  0  0
   -1.8908   -3.6553   -1.1328 C   0  0  0  0  0  0  0  0  0  0  0  0
   -3.3871    1.2060    0.0366 H   0  0  0  0  0  0  0  0  0  0  0  0
   -3.4000   -1.2572   -0.0849 H   0  0  0  0  0  0  0  0  0  0  0  0
   -1.2385    2.4449    0.1075 H   0  0  0  0  0  0  0  0  0  0  0  0
    3.1330    1.2517   -0.0416 H   0  0  0  0  0  0  0  0  0  0  0  0
    2.2566    0.5816   -1.4307 H   0  0  0  0  0  0  0  0  0  0  0  0
    3.1654   -1.2296    0.0600 H   0  0  0  0  0  0  0  0  0  0  0  0
    2.2491   -0.5820    1.4340 H   0  0  0  0  0  0  0  0  0  0  0  0
   -0.1139   -2.9677    1.7224 H   0  0  0  0  0  0  0  0  0  0  0  0
   -1.3350   -4.2116    1.5368 H   0  0  0  0  0  0  0  0  0  0  0  0
    1.2458   -4.0087   -0.1192 H   0  0  0  0  0  0  0  0  0  0  0  0
    0.8779   -5.1908    1.1267 H   0  0  0  0  0  0  0  0  0  0  0  0
   -0.8793   -6.0317   -0.2289 H   0  0  0  0  0  0  0  0  0  0  0  0
   -0.0506   -4.0535   -2.2419 H   0  0  0  0  0  0  0  0  0  0  0  0
   -1.2885   -5.2867   -2.4443 H   0  0  0  0  0  0  0  0  0  0  0  0
   -2.7186   -4.2536   -0.7308 H   0  0  0  0  0  0  0  0  0  0  0  0
   -2.2991   -3.0351   -1.9387 H   0  0  0  0  0  0  0  0  0  0  0  0
  1  2  2  0  0  0  0
  1  6  1  0  0  0  0
  1 17  1  0  0  0  0
  2  3  1  0  0  0  0
  2 18  1  0  0  0  0
  3  4  2  0  0  0  0
  3 11  1  0  0  0  0
  4  5  1  0  0  0  0
  4 10  1  0  0  0  0
  5  6  2  0  0  0  0
  5  7  1  0  0  0  0
  6 19  1  0  0  0  0
  7  8  1  0  0  0  0
  8  9  1  0  0  0  0
  8 20  1  0  0  0  0
  8 21  1  0  0  0  0
  9 10  1  0  0  0  0
  9 22  1  0  0  0  0
  9 23  1  0  0  0  0
 11 12  1  0  0  0  0
 11 16  1  0  0  0  0
 12 13  1  0  0  0  0
 12 24  1  0  0  0  0
 12 25  1  0  0  0  0
 13 14  1  0  0  0  0
 13 26  1  0  0  0  0
 13 27  1  0  0  0  0
 14 15  1  0  0  0  0
 14 28  1  0  0  0  0
 15 16  1  0  0  0  0
 15 29  1  0  0  0  0
 15 30  1  0  0  0  0
 16 31  1  0  0  0  0
 16 32  1  0  0  0  0
M  END
>  <DRUGBANK_ID>
DB12883

>  <COMMON_NAME>
Eltoprazine

>  <CAS_NUMBER>
98224-03-4

>  <UNII>
510M006KO6

>  <SYNONYMS>
Eltoprazine

$$$$
