
 OpenBabel10282417113D

 52 52  0  0  0  0  0  0  0  0999 V2000
    1.5325   -0.0760   -0.2098 C   0  0  0  0  0  0  0  0  0  0  0  0
    0.5957   -1.0855   -0.3187 C   0  0  0  0  0  0  0  0  0  0  0  0
    1.0939    1.3154   -0.1208 C   0  0  0  0  0  0  0  0  0  0  0  0
    2.8387   -0.2338    0.1845 O   0  0  0  0  0  0  0  0  0  0  0  0
   -0.6555   -0.4136    0.1890 C   0  0  0  0  0  0  0  0  0  0  0  0
    1.0769   -2.7714   -0.9779 C   0  0  0  0  0  0  0  0  0  0  0  0
   -0.2679    1.7397   -0.1041 C   0  0  0  0  0  0  0  0  0  0  0  0
    3.3196   -1.5440    0.4892 C   0  0  0  0  0  0  0  0  0  0  0  0
   -1.2268    0.7977   -0.1136 C   0  0  0  0  0  0  0  0  0  0  0  0
    0.7229   -4.6084   -0.8004 C   0  0  0  0  0  0  0  0  0  0  0  0
    2.0952   -2.7361   -1.6969 O   0  0  0  0  0  0  0  0  0  0  0  0
    2.6544   -2.3467    1.6884 C   0  0  3  0  0  0  0  0  0  0  0  0
   -2.6633    0.8802   -0.1510 N   0  0  0  0  0  0  0  0  0  0  0  0
    0.9959   -2.3972    1.9931 C   0  0  0  0  0  0  0  0  0  0  0  0
    3.1947   -3.6883    1.7249 O   0  0  0  0  0  0  0  0  0  0  0  0
   -3.2938    2.0914   -0.3959 C   0  0  0  0  0  0  0  0  0  0  0  0
    0.1980   -3.4069    1.2029 N   0  0  0  0  0  0  0  0  0  0  0  0
   -4.8277    2.0958   -0.4259 C   0  0  0  0  0  0  0  0  0  0  0  0
   -2.6952    3.1016   -0.5512 O   0  0  0  0  0  0  0  0  0  0  0  0
   -1.2261   -3.5535    0.2151 C   0  0  0  0  0  0  0  0  0  0  0  0
   -5.3557    2.8783    0.7826 C   0  0  0  0  0  0  0  0  0  0  0  0
   -1.8180   -2.3250   -0.3019 C   0  0  0  0  0  0  0  0  0  0  0  0
   -1.6310   -4.1302   -1.3794 C   0  0  0  0  0  0  0  0  0  0  0  0
   -4.7003    4.2498    0.9405 C   0  0  0  0  0  0  0  0  0  0  0  0
    1.8301    2.1051   -0.0157 H   0  0  0  0  0  0  0  0  0  0  0  0
   -1.2804   -0.6477    1.0862 H   0  0  0  0  0  0  0  0  0  0  0  0
   -0.5405    2.7735    0.0757 H   0  0  0  0  0  0  0  0  0  0  0  0
    3.5040   -2.0727   -0.4420 H   0  0  0  0  0  0  0  0  0  0  0  0
    4.3852   -1.4263    0.7543 H   0  0  0  0  0  0  0  0  0  0  0  0
    0.8697   -5.1193   -1.7463 H   0  0  0  0  0  0  0  0  0  0  0  0
    1.2958   -5.1516   -0.0242 H   0  0  0  0  0  0  0  0  0  0  0  0
   -0.1897   -5.1022   -0.4006 H   0  0  0  0  0  0  0  0  0  0  0  0
    3.0822   -1.8716    2.5829 H   0  0  0  0  0  0  0  0  0  0  0  0
   -3.2247    0.0336   -0.1832 H   0  0  0  0  0  0  0  0  0  0  0  0
    0.9239   -2.7922    3.0121 H   0  0  0  0  0  0  0  0  0  0  0  0
    0.6512   -1.3730    2.0427 H   0  0  0  0  0  0  0  0  0  0  0  0
    2.9757   -4.1711    0.9111 H   0  0  0  0  0  0  0  0  0  0  0  0
    1.0427   -3.7942    0.8133 H   0  0  0  0  0  0  0  0  0  0  0  0
   -5.0912    2.6182   -1.3551 H   0  0  0  0  0  0  0  0  0  0  0  0
   -5.2905    1.1039   -0.4807 H   0  0  0  0  0  0  0  0  0  0  0  0
   -1.8937   -3.9373    0.9862 H   0  0  0  0  0  0  0  0  0  0  0  0
   -6.4383    3.0201    0.6749 H   0  0  0  0  0  0  0  0  0  0  0  0
   -5.1913    2.2972    1.6969 H   0  0  0  0  0  0  0  0  0  0  0  0
   -1.3045   -1.8936   -1.2022 H   0  0  0  0  0  0  0  0  0  0  0  0
   -2.8722   -2.1629   -0.4517 H   0  0  0  0  0  0  0  0  0  0  0  0
   -1.6487   -2.0350    0.6846 H   0  0  0  0  0  0  0  0  0  0  0  0
   -1.5067   -5.1826   -1.6270 H   0  0  0  0  0  0  0  0  0  0  0  0
   -2.6945   -3.9276   -1.5825 H   0  0  0  0  0  0  0  0  0  0  0  0
   -1.0764   -3.5724   -2.1763 H   0  0  0  0  0  0  0  0  0  0  0  0
   -4.8010    4.8327    0.0182 H   0  0  0  0  0  0  0  0  0  0  0  0
   -5.1388    4.8080    1.7683 H   0  0  0  0  0  0  0  0  0  0  0  0
   -3.6357    4.1668    1.1816 H   0  0  0  0  0  0  0  0  0  0  0  0
  1  2  1  0  0  0  0
  1  3  2  0  0  0  0
  1  4  1  0  0  0  0
  2  5  2  0  0  0  0
  2  6  1  0  0  0  0
  3  7  1  0  0  0  0
  3 25  1  0  0  0  0
  4  8  1  0  0  0  0
  5  9  1  0  0  0  0
  5 26  1  0  0  0  0
  6 10  1  0  0  0  0
  6 11  2  0  0  0  0
  7  9  2  0  0  0  0
  7 27  1  0  0  0  0
  8 12  1  0  0  0  0
  8 28  1  0  0  0  0
  8 29  1  0  0  0  0
  9 13  1  0  0  0  0
 10 30  1  0  0  0  0
 10 31  1  0  0  0  0
 10 32  1  0  0  0  0
 12 14  1  0  0  0  0
 12 15  1  0  0  0  0
 12 33  1  0  0  0  0
 13 16  1  0  0  0  0
 13 34  1  0  0  0  0
 14 17  1  0  0  0  0
 14 35  1  0  0  0  0
 14 36  1  0  0  0  0
 15 37  1  0  0  0  0
 16 18  1  0  0  0  0
 16 19  2  0  0  0  0
 17 20  1  0  0  0  0
 17 38  1  0  0  0  0
 18 21  1  0  0  0  0
 18 39  1  0  0  0  0
 18 40  1  0  0  0  0
 20 22  1  0  0  0  0
 20 23  1  0  0  0  0
 20 41  1  0  0  0  0
 21 24  1  0  0  0  0
 21 42  1  0  0  0  0
 21 43  1  0  0  0  0
 22 44  1  0  0  0  0
 22 45  1  0  0  0  0
 22 46  1  0  0  0  0
 23 47  1  0  0  0  0
 23 48  1  0  0  0  0
 23 49  1  0  0  0  0
 24 50  1  0  0  0  0
 24 51  1  0  0  0  0
 24 52  1  0  0  0  0
M  END
>  <DRUGBANK_ID>
DB01193

>  <SECONDARY_ACCESSION_NUMBERS>
APRD00772

>  <COMMON_NAME>
Acebutolol

>  <CAS_NUMBER>
37517-30-9

>  <UNII>
67P356D8GH

>  <SYNONYMS>
(Â±)-acebutolol; 3'-acetyl-4'-(2-hydroxy-3-(isopropylamino)propoxy)butyranilide; 5'-butyramido-2'-(2-hydroxy-3-isopropylaminopropoxy)acetophenone; Acebutolol; Acebutololum; Acetobutolol; N-(3-acetyl-4-[2-hydroxy-3-(isopropylamino)propoxy]phenyl)butanamide; N-[3-acetyl-4-[2-hydroxy-3-[(1-methylethyl)amino]propoxy]phenyl]butanamide

$$$$
