2KL
 OpenBabel10282417163D

 54 57  0  0  0  0  0  0  0  0999 V2000
    1.1680    0.0752    0.1067 O   0  0  0  0  0  0  0  0  0  0  0  0
    2.3702   -0.0041    0.0267 C   0  0  0  0  0  0  0  0  0  0  0  0
    3.1451    0.7468    0.8991 N   0  0  0  0  0  0  0  0  0  0  0  0
    4.5844    0.8829    0.9618 C   0  0  0  0  0  0  0  0  0  0  0  0
    5.0551    2.2786    0.6304 C   0  0  0  0  0  0  0  0  0  0  0  0
    3.0695   -0.8450   -0.9306 C   0  0  0  0  0  0  0  0  0  0  0  0
    2.5365   -0.8660   -2.5565 S   0  0  0  0  0  0  0  0  0  0  0  0
    4.1269   -1.6993   -0.7362 C   0  0  0  0  0  0  0  0  0  0  0  0
    4.4527   -2.4421   -1.8973 C   0  0  0  0  0  0  0  0  0  0  0  0
    3.7797   -1.9449   -3.0036 C   0  0  0  0  0  0  0  0  0  0  0  0
    3.9804   -2.2715   -4.2878 N   0  0  0  0  0  0  0  0  0  0  0  0
    4.9872   -3.1232   -4.4581 C   0  0  0  0  0  0  0  0  0  0  0  0
    5.2933   -3.3967   -5.7751 N   0  0  0  0  0  0  0  0  0  0  0  0
    5.6851   -3.7231   -3.4436 N   0  0  0  0  0  0  0  0  0  0  0  0
    5.3315   -3.5125   -2.1014 C   0  0  0  0  0  0  0  0  0  0  0  0
    6.1854   -4.0550   -0.9000 C   0  0  0  0  0  0  0  0  0  0  0  0
    7.5081   -3.6975   -0.8573 C   0  0  0  0  0  0  0  0  0  0  0  0
    6.0000   -4.6440    0.2995 C   0  0  0  0  0  0  0  0  0  0  0  0
    4.4012   -5.0944    0.7007 Cl  0  0  0  0  0  0  0  0  0  0  0  0
    7.1329   -4.8742    1.2571 C   0  0  0  0  0  0  0  0  0  0  0  0
    8.5125   -4.4573    1.1113 C   0  0  0  0  0  0  0  0  0  0  0  0
    9.7414   -4.8634    2.2416 Cl  0  0  0  0  0  0  0  0  0  0  0  0
    8.7961   -3.7586   -0.0091 C   0  0  0  0  0  0  0  0  0  0  0  0
   10.1897   -3.2521   -0.2452 O   0  0  0  0  0  0  0  0  0  0  0  0
   11.0397   -2.4016   -1.4230 C   0  0  0  0  0  0  0  0  0  0  0  0
   10.9743   -2.7753   -3.0247 C   0  0  0  0  0  0  0  0  0  0  0  0
    9.6399   -2.7932   -3.6067 N   0  0  0  0  0  0  0  0  0  0  0  0
    8.8429   -1.5642   -3.7725 C   0  0  0  0  0  0  0  0  0  0  0  0
    9.0572   -3.3354   -2.4732 C   0  0  0  0  0  0  0  0  0  0  0  0
    8.5544   -1.7423   -1.5505 C   0  0  0  0  0  0  0  0  0  0  0  0
    8.7034   -0.6908   -2.5456 C   0  0  0  0  0  0  0  0  0  0  0  0
    2.5720    1.3193    1.5091 H   0  0  0  0  0  0  0  0  0  0  0  0
    4.8982    0.5758    1.9635 H   0  0  0  0  0  0  0  0  0  0  0  0
    5.0819    0.2350    0.2469 H   0  0  0  0  0  0  0  0  0  0  0  0
    4.6969    3.0035    1.3641 H   0  0  0  0  0  0  0  0  0  0  0  0
    6.1500    2.2942    0.6218 H   0  0  0  0  0  0  0  0  0  0  0  0
    4.7043    2.5788   -0.3624 H   0  0  0  0  0  0  0  0  0  0  0  0
    4.6396   -1.8377    0.2092 H   0  0  0  0  0  0  0  0  0  0  0  0
    4.5777   -3.1849   -6.4608 H   0  0  0  0  0  0  0  0  0  0  0  0
    6.0014   -4.0785   -5.9840 H   0  0  0  0  0  0  0  0  0  0  0  0
    7.3727   -3.1910   -1.7999 H   0  0  0  0  0  0  0  0  0  0  0  0
    6.8924   -5.4244    2.1545 H   0  0  0  0  0  0  0  0  0  0  0  0
   10.8170   -1.3358   -1.3094 H   0  0  0  0  0  0  0  0  0  0  0  0
   12.1018   -2.4610   -1.1607 H   0  0  0  0  0  0  0  0  0  0  0  0
   11.5549   -2.1581   -3.7043 H   0  0  0  0  0  0  0  0  0  0  0  0
   11.3727   -3.8060   -3.1192 H   0  0  0  0  0  0  0  0  0  0  0  0
    7.8110   -1.8772   -4.0339 H   0  0  0  0  0  0  0  0  0  0  0  0
    9.2478   -0.9950   -4.5844 H   0  0  0  0  0  0  0  0  0  0  0  0
    9.7093   -4.1018   -1.9619 H   0  0  0  0  0  0  0  0  0  0  0  0
    8.3440   -4.1288   -2.7906 H   0  0  0  0  0  0  0  0  0  0  0  0
    8.9563   -1.5048   -0.5346 H   0  0  0  0  0  0  0  0  0  0  0  0
    7.4836   -1.5990   -1.2743 H   0  0  0  0  0  0  0  0  0  0  0  0
    9.5429   -0.0595   -2.2727 H   0  0  0  0  0  0  0  0  0  0  0  0
    7.7848   -0.0890   -2.5101 H   0  0  0  0  0  0  0  0  0  0  0  0
  1  2  2  0  0  0  0
  2  3  1  0  0  0  0
  2  6  1  0  0  0  0
  3  4  1  0  0  0  0
  3 32  1  0  0  0  0
  4  5  1  0  0  0  0
  4 33  1  0  0  0  0
  4 34  1  0  0  0  0
  5 35  1  0  0  0  0
  5 36  1  0  0  0  0
  5 37  1  0  0  0  0
  6  7  1  0  0  0  0
  6  8  2  0  0  0  0
  7 10  1  0  0  0  0
  8  9  1  0  0  0  0
  8 38  1  0  0  0  0
  9 10  1  0  0  0  0
  9 15  2  0  0  0  0
 10 11  2  0  0  0  0
 11 12  1  0  0  0  0
 12 13  1  0  0  0  0
 12 14  2  0  0  0  0
 13 39  1  0  0  0  0
 13 40  1  0  0  0  0
 14 15  1  0  0  0  0
 15 16  1  0  0  0  0
 16 17  1  0  0  0  0
 16 18  2  0  0  0  0
 17 23  2  0  0  0  0
 17 41  1  0  0  0  0
 18 19  1  0  0  0  0
 18 20  1  0  0  0  0
 20 21  2  0  0  0  0
 20 42  1  0  0  0  0
 21 22  1  0  0  0  0
 21 23  1  0  0  0  0
 23 24  1  0  0  0  0
 24 25  1  0  0  0  0
 25 26  1  0  0  0  0
 25 43  1  0  0  0  0
 25 44  1  0  0  0  0
 26 27  1  0  0  0  0
 26 45  1  0  0  0  0
 26 46  1  0  0  0  0
 27 28  1  0  0  0  0
 27 29  1  0  0  0  0
 28 31  1  0  0  0  0
 28 47  1  0  0  0  0
 28 48  1  0  0  0  0
 29 30  1  0  0  0  0
 29 49  1  0  0  0  0
 29 50  1  0  0  0  0
 30 31  1  0  0  0  0
 30 51  1  0  0  0  0
 30 52  1  0  0  0  0
 31 53  1  0  0  0  0
 31 54  1  0  0  0  0
M  END
>  <DRUGBANK_ID>
DB06969

>  <COMMON_NAME>
2-amino-4-[2,4-dichloro-5-(2-pyrrolidin-1-ylethoxy)phenyl]-N-ethylthieno[2,3-d]pyrimidine-6-carboxamide

$$$$
