89I
 OpenBabel10282417163D

 54 57  0  0  0  0  0  0  0  0999 V2000
   -0.6698    1.0304    0.0003 C   0  0  0  0  0  0  0  0  0  0  0  0
   -1.4088   -0.1013    0.0052 N   0  0  0  0  0  0  0  0  0  0  0  0
   -0.7095   -1.2546    0.0094 C   0  0  0  0  0  0  0  0  0  0  0  0
    0.6942   -1.2634    0.0004 C   0  0  0  0  0  0  0  0  0  0  0  0
    1.3463   -0.0218   -0.0121 C   0  0  0  0  0  0  0  0  0  0  0  0
    0.6720    1.1313   -0.0055 N   0  0  0  0  0  0  0  0  0  0  0  0
    1.4510   -2.5033   -0.0142 C   0  0  0  0  0  0  0  0  0  0  0  0
    1.2821   -3.3981   -1.0617 C   0  0  0  0  0  0  0  0  0  0  0  0
    1.8248   -4.6698   -0.9715 C   0  0  0  0  0  0  0  0  0  0  0  0
    2.6850   -5.0450    0.0689 C   0  0  0  0  0  0  0  0  0  0  0  0
    3.0149   -4.0403    0.9934 C   0  0  0  0  0  0  0  0  0  0  0  0
    2.3495   -2.8189    1.0052 C   0  0  0  0  0  0  0  0  0  0  0  0
   -4.1321   -5.0272   -0.2241 C   0  0  0  0  0  0  0  0  0  0  0  0
   -4.7958   -6.2254   -0.4326 N   0  0  0  0  0  0  0  0  0  0  0  0
   -4.1237   -7.3915   -0.2962 C   0  0  0  0  0  0  0  0  0  0  0  0
   -2.7849   -7.3299    0.0905 C   0  0  0  0  0  0  0  0  0  0  0  0
   -2.0938   -6.0862    0.1674 C   0  0  0  0  0  0  0  0  0  0  0  0
   -2.7675   -4.8756   -0.0011 C   0  0  0  0  0  0  0  0  0  0  0  0
   -5.3402   -8.9469   -1.8221 C   0  0  0  0  0  0  0  0  0  0  0  0
   -6.6744   -9.7072   -1.6349 C   0  0  0  0  0  0  0  0  0  0  0  0
   -6.5122  -10.8593   -0.7823 O   0  0  0  0  0  0  0  0  0  0  0  0
   -6.0116  -10.4489    0.5038 C   0  0  0  0  0  0  0  0  0  0  0  0
   -4.6361   -9.7557    0.3762 C   0  0  0  0  0  0  0  0  0  0  0  0
   -4.7925   -8.5861   -0.4966 N   0  0  0  0  0  0  0  0  0  0  0  0
   -1.5147   -2.4919    0.0371 C   0  0  0  0  0  0  0  0  0  0  0  0
   -2.1035   -3.5676    0.0412 C   0  0  0  0  0  0  0  0  0  0  0  0
    3.1836   -6.3308    0.1808 N   0  0  0  0  0  0  0  0  0  0  0  0
    2.7570   -7.4252   -0.6811 C   0  0  0  0  0  0  0  0  0  0  0  0
    4.0614   -6.6803    1.2915 C   0  0  0  0  0  0  0  0  0  0  0  0
    2.7306    0.0698    0.0352 N   0  0  0  0  0  0  0  0  0  0  0  0
   -1.2072    1.9749    0.0035 H   0  0  0  0  0  0  0  0  0  0  0  0
    0.6780   -3.1394   -1.9289 H   0  0  0  0  0  0  0  0  0  0  0  0
    1.5239   -5.3513   -1.7549 H   0  0  0  0  0  0  0  0  0  0  0  0
    3.7735   -4.1924    1.7551 H   0  0  0  0  0  0  0  0  0  0  0  0
    2.5421   -2.1124    1.8119 H   0  0  0  0  0  0  0  0  0  0  0  0
   -4.7866   -4.1586   -0.2287 H   0  0  0  0  0  0  0  0  0  0  0  0
   -2.2457   -8.2475    0.3037 H   0  0  0  0  0  0  0  0  0  0  0  0
   -1.0240   -6.0996    0.3618 H   0  0  0  0  0  0  0  0  0  0  0  0
   -4.6377   -9.6338   -2.3198 H   0  0  0  0  0  0  0  0  0  0  0  0
   -5.4887   -8.0868   -2.4809 H   0  0  0  0  0  0  0  0  0  0  0  0
   -7.4376   -9.0526   -1.1997 H   0  0  0  0  0  0  0  0  0  0  0  0
   -7.0551  -10.0707   -2.5965 H   0  0  0  0  0  0  0  0  0  0  0  0
   -5.9342  -11.3437    1.1295 H   0  0  0  0  0  0  0  0  0  0  0  0
   -6.7457   -9.7778    0.9661 H   0  0  0  0  0  0  0  0  0  0  0  0
   -3.9228  -10.4613   -0.0712 H   0  0  0  0  0  0  0  0  0  0  0  0
   -4.2816   -9.4781    1.3722 H   0  0  0  0  0  0  0  0  0  0  0  0
    3.6311   -7.8558   -1.1767 H   0  0  0  0  0  0  0  0  0  0  0  0
    2.2579   -8.2017   -0.0928 H   0  0  0  0  0  0  0  0  0  0  0  0
    2.0588   -7.1548   -1.4741 H   0  0  0  0  0  0  0  0  0  0  0  0
    4.9960   -6.1121    1.2295 H   0  0  0  0  0  0  0  0  0  0  0  0
    3.5832   -6.4841    2.2591 H   0  0  0  0  0  0  0  0  0  0  0  0
    4.3255   -7.7422    1.2716 H   0  0  0  0  0  0  0  0  0  0  0  0
    3.1596    0.9807   -0.0271 H   0  0  0  0  0  0  0  0  0  0  0  0
    3.3023   -0.7500   -0.1163 H   0  0  0  0  0  0  0  0  0  0  0  0
  1  2  2  0  0  0  0
  1  6  1  0  0  0  0
  1 31  1  0  0  0  0
  2  3  1  0  0  0  0
  3 25  1  0  0  0  0
  3  4  2  0  0  0  0
  4  7  1  0  0  0  0
  4  5  1  0  0  0  0
  5 30  1  0  0  0  0
  5  6  2  0  0  0  0
  7 12  2  0  0  0  0
  7  8  1  0  0  0  0
  8  9  2  0  0  0  0
  8 32  1  0  0  0  0
  9 10  1  0  0  0  0
  9 33  1  0  0  0  0
 10 27  1  0  0  0  0
 10 11  2  0  0  0  0
 11 12  1  0  0  0  0
 11 34  1  0  0  0  0
 12 35  1  0  0  0  0
 13 14  2  0  0  0  0
 13 18  1  0  0  0  0
 13 36  1  0  0  0  0
 14 15  1  0  0  0  0
 15 24  1  0  0  0  0
 15 16  2  0  0  0  0
 16 17  1  0  0  0  0
 16 37  1  0  0  0  0
 17 18  2  0  0  0  0
 17 38  1  0  0  0  0
 18 26  1  0  0  0  0
 19 20  1  0  0  0  0
 19 24  1  0  0  0  0
 19 39  1  0  0  0  0
 19 40  1  0  0  0  0
 20 21  1  0  0  0  0
 20 41  1  0  0  0  0
 20 42  1  0  0  0  0
 21 22  1  0  0  0  0
 22 23  1  0  0  0  0
 22 43  1  0  0  0  0
 22 44  1  0  0  0  0
 23 24  1  0  0  0  0
 23 45  1  0  0  0  0
 23 46  1  0  0  0  0
 25 26  3  0  0  0  0
 27 28  1  0  0  0  0
 27 29  1  0  0  0  0
 28 47  1  0  0  0  0
 28 48  1  0  0  0  0
 28 49  1  0  0  0  0
 29 50  1  0  0  0  0
 29 51  1  0  0  0  0
 29 52  1  0  0  0  0
 30 53  1  0  0  0  0
 30 54  1  0  0  0  0
M  END
>  <DRUGBANK_ID>
DB07280

>  <COMMON_NAME>
5-[4-(DIMETHYLAMINO)PHENYL]-6-[(6-MORPHOLIN-4-YLPYRIDIN-3-YL)ETHYNYL]PYRIMIDIN-4-AMINE

$$$$
