
 OpenBabel10282417143D

 51 50  0  0  0  0  0  0  0  0999 V2000
    0.5894   -0.2548   -0.4564 O   0  0  0  0  0  0  0  0  0  0  0  0
    0.1825    0.0985    3.7075 O   0  0  0  0  0  0  0  0  0  0  0  0
    4.6774    0.6880    0.2485 O   0  0  0  0  0  0  0  0  0  0  0  0
    0.4321   -0.9178    5.6534 O   0  0  0  0  0  0  0  0  0  0  0  0
    6.5366    1.3338   -0.7570 O   0  0  0  0  0  0  0  0  0  0  0  0
    2.4410   -0.5942    4.2784 C   0  0  0  0  0  0  0  0  0  0  0  0
    4.4954    2.6691   -1.1718 C   0  0  0  0  0  0  0  0  0  0  0  0
    2.9071   -0.4831    2.8019 C   0  0  0  0  0  0  0  0  0  0  0  0
    2.9219    2.6437   -1.2249 C   0  0  0  0  0  0  0  0  0  0  0  0
    2.4478   -1.6559    1.9241 C   0  0  0  0  0  0  0  0  0  0  0  0
    2.2602    1.6213   -2.1824 C   0  0  0  0  0  0  0  0  0  0  0  0
    0.9267   -1.6557    1.5595 C   0  0  0  0  0  0  0  0  0  0  0  0
    2.5707    0.1900   -1.8452 C   0  0  0  0  0  0  0  0  0  0  0  0
    2.9884   -1.9152    4.8234 C   0  0  0  0  0  0  0  0  0  0  0  0
    3.0251    0.5954    5.0456 C   0  0  0  0  0  0  0  0  0  0  0  0
    4.9845    2.8886   -2.6033 C   0  0  0  0  0  0  0  0  0  0  0  0
    4.9034    3.8482   -0.2730 C   0  0  0  0  0  0  0  0  0  0  0  0
    0.2648   -0.3792    0.9277 C   0  0  0  0  0  0  0  0  0  0  0  0
    1.9876   -0.1242   -0.5132 C   0  0  0  0  0  0  0  0  0  0  0  0
    0.9273   -0.5406    4.6285 C   0  0  0  0  0  0  0  0  0  0  0  0
    5.3429    1.4940   -0.5890 C   0  0  0  0  0  0  0  0  0  0  0  0
    0.7863    0.3292    3.0020 H   0  0  0  0  0  0  0  0  0  0  0  0
    3.7925    1.0471    0.2598 H   0  0  0  0  0  0  0  0  0  0  0  0
    4.0117   -0.4656    2.7746 H   0  0  0  0  0  0  0  0  0  0  0  0
    2.6409    0.4872    2.3641 H   0  0  0  0  0  0  0  0  0  0  0  0
    2.5667    3.6281   -1.5687 H   0  0  0  0  0  0  0  0  0  0  0  0
    2.4961    2.5724   -0.2141 H   0  0  0  0  0  0  0  0  0  0  0  0
    2.6794   -2.6186    2.3842 H   0  0  0  0  0  0  0  0  0  0  0  0
    3.1449   -1.7391    1.0855 H   0  0  0  0  0  0  0  0  0  0  0  0
    2.5608    1.7971   -3.2157 H   0  0  0  0  0  0  0  0  0  0  0  0
    1.1706    1.7481   -2.1523 H   0  0  0  0  0  0  0  0  0  0  0  0
    0.3993   -1.9319    2.4763 H   0  0  0  0  0  0  0  0  0  0  0  0
    0.7406   -2.4866    0.8709 H   0  0  0  0  0  0  0  0  0  0  0  0
    3.6528    0.0186   -1.8472 H   0  0  0  0  0  0  0  0  0  0  0  0
    2.1567   -0.5291   -2.5521 H   0  0  0  0  0  0  0  0  0  0  0  0
    4.0794   -1.9461    4.7330 H   0  0  0  0  0  0  0  0  0  0  0  0
    2.7038   -2.0664    5.8630 H   0  0  0  0  0  0  0  0  0  0  0  0
    2.5822   -2.7773    4.2854 H   0  0  0  0  0  0  0  0  0  0  0  0
    2.6569    1.5448    4.6344 H   0  0  0  0  0  0  0  0  0  0  0  0
    2.7151    0.5531    6.0941 H   0  0  0  0  0  0  0  0  0  0  0  0
    4.1176    0.6066    5.0063 H   0  0  0  0  0  0  0  0  0  0  0  0
    4.5725    3.8152   -3.0140 H   0  0  0  0  0  0  0  0  0  0  0  0
    6.0737    2.9376   -2.6502 H   0  0  0  0  0  0  0  0  0  0  0  0
    4.6812    2.0600   -3.2523 H   0  0  0  0  0  0  0  0  0  0  0  0
    4.5337    3.7040    0.7510 H   0  0  0  0  0  0  0  0  0  0  0  0
    5.9944    3.9261   -0.2125 H   0  0  0  0  0  0  0  0  0  0  0  0
    4.5137    4.7980   -0.6481 H   0  0  0  0  0  0  0  0  0  0  0  0
    0.5592    0.5850    1.3650 H   0  0  0  0  0  0  0  0  0  0  0  0
   -0.8228   -0.3980    1.0396 H   0  0  0  0  0  0  0  0  0  0  0  0
    2.2325    0.6023    0.2595 H   0  0  0  0  0  0  0  0  0  0  0  0
    2.4238   -1.0803   -0.3174 H   0  0  0  0  0  0  0  0  0  0  0  0
  1 18  1  0  0  0  0
  1 19  1  0  0  0  0
  2 20  1  0  0  0  0
  2 22  1  0  0  0  0
  3 21  1  0  0  0  0
  3 23  1  0  0  0  0
  4 20  2  0  0  0  0
  5 21  2  0  0  0  0
  6  8  1  0  0  0  0
  6 14  1  0  0  0  0
  6 15  1  0  0  0  0
  6 20  1  0  0  0  0
  7  9  1  0  0  0  0
  7 16  1  0  0  0  0
  7 17  1  0  0  0  0
  7 21  1  0  0  0  0
  8 10  1  0  0  0  0
  8 24  1  0  0  0  0
  8 25  1  0  0  0  0
  9 11  1  0  0  0  0
  9 26  1  0  0  0  0
  9 27  1  0  0  0  0
 10 12  1  0  0  0  0
 10 28  1  0  0  0  0
 10 29  1  0  0  0  0
 11 13  1  0  0  0  0
 11 30  1  0  0  0  0
 11 31  1  0  0  0  0
 12 18  1  0  0  0  0
 12 32  1  0  0  0  0
 12 33  1  0  0  0  0
 13 19  1  0  0  0  0
 13 34  1  0  0  0  0
 13 35  1  0  0  0  0
 14 36  1  0  0  0  0
 14 37  1  0  0  0  0
 14 38  1  0  0  0  0
 15 39  1  0  0  0  0
 15 40  1  0  0  0  0
 15 41  1  0  0  0  0
 16 42  1  0  0  0  0
 16 43  1  0  0  0  0
 16 44  1  0  0  0  0
 17 45  1  0  0  0  0
 17 46  1  0  0  0  0
 17 47  1  0  0  0  0
 18 48  1  0  0  0  0
 18 49  1  0  0  0  0
 19 50  1  0  0  0  0
 19 51  1  0  0  0  0
M  END
>  <DRUGBANK_ID>
DB05123

>  <COMMON_NAME>
Gemcabene

>  <CAS_NUMBER>
183293-82-5

>  <UNII>
B96UX1DDKS

>  <SYNONYMS>
Gemcabene

$$$$
