
 OpenBabel10282417213D

 39 40  0  0  0  0  0  0  0  0999 V2000
    0.8524   -0.0133    0.0557 N   0  0  0  0  0  0  0  0  0  0  0  0
   -0.0327    1.7988   -3.0721 C   0  0  0  0  0  0  0  0  0  0  0  0
   -1.1925    2.4671   -2.7141 C   0  0  0  0  0  0  0  0  0  0  0  0
   -1.5981    2.4590   -1.3902 C   0  0  0  0  0  0  0  0  0  0  0  0
   -0.9092    1.6485   -0.4733 C   0  0  0  0  0  0  0  0  0  0  0  0
    0.1874    0.8605   -0.8641 C   0  0  0  0  0  0  0  0  0  0  0  0
    0.6736    0.9911   -2.1723 C   0  0  0  0  0  0  0  0  0  0  0  0
    1.7979    0.2788   -2.5148 O   0  0  0  0  0  0  0  0  0  0  0  0
    2.2575    0.3250   -3.8807 C   0  0  0  0  0  0  0  0  0  0  0  0
   -1.9963    3.0852   -3.7772 N   0  3  0  0  0  0  0  0  0  0  0  0
    0.0280   -0.9510    1.1690 S   0  0  0  0  0  0  0  0  0  0  0  0
    0.5274   -2.6113    0.7522 C   0  0  0  0  0  0  0  0  0  0  0  0
    0.5780   -0.6497    2.4679 O   0  0  0  0  0  0  0  0  0  0  0  0
   -1.4003   -0.8737    0.9184 O   0  0  0  0  0  0  0  0  0  0  0  0
    1.6527   -0.1208   -6.3185 C   0  0  0  0  0  0  0  0  0  0  0  0
    2.0326    1.3239   -6.6322 C   0  0  0  0  0  0  0  0  0  0  0  0
    3.1620    1.8186   -5.7323 C   0  0  0  0  0  0  0  0  0  0  0  0
    2.8019    1.7185   -4.2607 C   0  0  0  0  0  0  0  0  0  0  0  0
    1.2462   -0.3024   -4.8667 C   0  0  0  0  0  0  0  0  0  0  0  0
   -3.0552    3.6339   -3.4525 O   0  0  0  0  0  0  0  0  0  0  0  0
   -1.5844    2.9855   -4.9448 O   0  5  0  0  0  0  0  0  0  0  0  0
    1.8722    0.0064    0.0833 H   0  0  0  0  0  0  0  0  0  0  0  0
    0.2725    1.9140   -4.1017 H   0  0  0  0  0  0  0  0  0  0  0  0
   -2.4509    3.0458   -1.0636 H   0  0  0  0  0  0  0  0  0  0  0  0
   -1.2761    1.6135    0.5494 H   0  0  0  0  0  0  0  0  0  0  0  0
    3.1312   -0.3425   -3.9021 H   0  0  0  0  0  0  0  0  0  0  0  0
    1.6014   -2.7254    0.9087 H   0  0  0  0  0  0  0  0  0  0  0  0
   -0.0072   -3.2880    1.4270 H   0  0  0  0  0  0  0  0  0  0  0  0
    0.2461   -2.8359   -0.2773 H   0  0  0  0  0  0  0  0  0  0  0  0
    0.8187   -0.4252   -6.9620 H   0  0  0  0  0  0  0  0  0  0  0  0
    2.4952   -0.7829   -6.5407 H   0  0  0  0  0  0  0  0  0  0  0  0
    1.1542    1.9736   -6.5206 H   0  0  0  0  0  0  0  0  0  0  0  0
    2.3469    1.3954   -7.6788 H   0  0  0  0  0  0  0  0  0  0  0  0
    3.3883    2.8639   -5.9726 H   0  0  0  0  0  0  0  0  0  0  0  0
    4.0687    1.2351   -5.9204 H   0  0  0  0  0  0  0  0  0  0  0  0
    2.1045    2.5305   -4.0457 H   0  0  0  0  0  0  0  0  0  0  0  0
    3.6587    1.9656   -3.6226 H   0  0  0  0  0  0  0  0  0  0  0  0
    1.1019   -1.3615   -4.6225 H   0  0  0  0  0  0  0  0  0  0  0  0
    0.2365    0.1000   -4.7704 H   0  0  0  0  0  0  0  0  0  0  0  0
  1 11  1  0  0  0  0
  1 22  1  0  0  0  0
  2 23  1  0  0  0  0
  3  2  1  0  0  0  0
  4  3  2  0  0  0  0
  4 24  1  0  0  0  0
  5  4  1  0  0  0  0
  5 25  1  0  0  0  0
  6  1  1  0  0  0  0
  6  5  2  0  0  0  0
  7  2  2  0  0  0  0
  7  6  1  0  0  0  0
  8  7  1  0  0  0  0
  9  8  1  0  0  0  0
  9 19  1  0  0  0  0
  9 26  1  0  0  0  0
 10  3  1  0  0  0  0
 10 20  2  0  0  0  0
 10 21  1  0  0  0  0
 11 12  1  0  0  0  0
 11 13  2  0  0  0  0
 12 27  1  0  0  0  0
 12 28  1  0  0  0  0
 12 29  1  0  0  0  0
 14 11  2  0  0  0  0
 15 16  1  0  0  0  0
 15 19  1  0  0  0  0
 15 30  1  0  0  0  0
 15 31  1  0  0  0  0
 16 17  1  0  0  0  0
 16 32  1  0  0  0  0
 16 33  1  0  0  0  0
 17 18  1  0  0  0  0
 17 34  1  0  0  0  0
 17 35  1  0  0  0  0
 18  9  1  0  0  0  0
 18 36  1  0  0  0  0
 18 37  1  0  0  0  0
 19 38  1  0  0  0  0
 19 39  1  0  0  0  0
M  CHG  2  10   1  21  -1
M  END
>  <DRUGBANK_ID>
DB14060

>  <COMMON_NAME>
NS-398

>  <CAS_NUMBER>
123653-11-2

>  <UNII>
9SP55KM2KS

>  <SYNONYMS>
N-(2-Cyclohexyloxy-4-nitrophenyl)methanesulfonamide

$$$$
