OHN
 OpenBabel10282417173D

 48 48  0  0  0  0  0  0  0  0999 V2000
    1.0902    0.1650    0.1041 C   0  0  0  0  0  0  0  0  0  0  0  0
    0.6519    0.5826   -1.2895 C   0  0  0  0  0  0  0  0  0  0  0  0
    1.1651   -0.4240   -2.3195 C   0  0  0  0  0  0  0  0  0  0  0  0
    0.6475   -1.8380   -2.0158 C   0  0  0  0  0  0  0  0  0  0  0  0
   -0.8776   -1.8702   -2.0215 C   0  0  0  0  0  0  0  0  0  0  0  0
   -1.3674   -1.4489   -3.3904 C   0  0  0  0  0  0  0  0  0  0  0  0
   -0.8117   -2.3897   -4.4631 C   0  0  0  0  0  0  0  0  0  0  0  0
   -1.4007   -3.7862   -4.3220 C   0  0  0  0  0  0  0  0  0  0  0  0
   -2.9117   -3.7385   -4.4092 C   0  0  0  0  0  0  0  0  0  0  0  0
   -3.3024   -3.3220   -5.8178 C   0  0  0  0  0  0  0  0  0  0  0  0
   -3.5841   -4.2115   -6.6319 O   0  0  0  0  0  0  0  0  0  0  0  0
   -3.2930   -1.8745   -6.2838 C   0  0  0  0  0  0  0  0  0  0  0  0
   -3.7919   -0.7941   -5.3594 C   0  0  0  0  0  0  0  0  0  0  0  0
   -3.0945    0.1610   -5.0220 O   0  0  0  0  0  0  0  0  0  0  0  0
   -5.0813   -0.8443   -4.9291 N   0  0  0  0  0  0  0  0  0  0  0  0
   -6.1214   -1.6763   -5.5087 C   0  0  1  0  0  0  0  0  0  0  0  0
   -6.0512   -3.0986   -5.0260 C   0  0  0  0  0  0  0  0  0  0  0  0
   -7.4673   -3.5379   -4.8989 C   0  0  0  0  0  0  0  0  0  0  0  0
   -7.5031   -1.2625   -5.0502 C   0  0  0  0  0  0  0  0  0  0  0  0
   -7.9144   -0.1208   -5.0078 O   0  0  0  0  0  0  0  0  0  0  0  0
   -8.2225   -2.3603   -4.6646 O   0  0  0  0  0  0  0  0  0  0  0  0
   -6.0626   -1.6130   -6.6005 H   0  0  0  0  0  0  0  0  0  0  0  0
    0.6891   -0.8143    0.3855 H   0  0  0  0  0  0  0  0  0  0  0  0
    0.7368    0.8731    0.8526 H   0  0  0  0  0  0  0  0  0  0  0  0
    2.1817    0.1029    0.1425 H   0  0  0  0  0  0  0  0  0  0  0  0
   -0.4415    0.6675   -1.3251 H   0  0  0  0  0  0  0  0  0  0  0  0
    1.0299    1.5805   -1.5279 H   0  0  0  0  0  0  0  0  0  0  0  0
    0.8745   -0.0917   -3.3252 H   0  0  0  0  0  0  0  0  0  0  0  0
    2.2581   -0.4361   -2.3359 H   0  0  0  0  0  0  0  0  0  0  0  0
    1.0680   -2.5416   -2.7391 H   0  0  0  0  0  0  0  0  0  0  0  0
    1.0141   -2.2187   -1.0629 H   0  0  0  0  0  0  0  0  0  0  0  0
   -1.2493   -2.8671   -1.7663 H   0  0  0  0  0  0  0  0  0  0  0  0
   -1.3179   -1.2148   -1.2634 H   0  0  0  0  0  0  0  0  0  0  0  0
   -2.4551   -1.4289   -3.3365 H   0  0  0  0  0  0  0  0  0  0  0  0
   -1.0973   -0.4159   -3.6297 H   0  0  0  0  0  0  0  0  0  0  0  0
   -0.9777   -1.9760   -5.4473 H   0  0  0  0  0  0  0  0  0  0  0  0
    0.2766   -2.4481   -4.4660 H   0  0  0  0  0  0  0  0  0  0  0  0
   -1.0053   -4.4361   -5.1082 H   0  0  0  0  0  0  0  0  0  0  0  0
   -1.0948   -4.2391   -3.3719 H   0  0  0  0  0  0  0  0  0  0  0  0
   -3.3162   -4.7406   -4.2094 H   0  0  0  0  0  0  0  0  0  0  0  0
   -3.3830   -3.1170   -3.6430 H   0  0  0  0  0  0  0  0  0  0  0  0
   -2.2951   -1.6110   -6.6321 H   0  0  0  0  0  0  0  0  0  0  0  0
   -3.8899   -1.8100   -7.1965 H   0  0  0  0  0  0  0  0  0  0  0  0
   -5.3632   -0.0292   -4.3843 H   0  0  0  0  0  0  0  0  0  0  0  0
   -5.5875   -3.7677   -5.7413 H   0  0  0  0  0  0  0  0  0  0  0  0
   -5.5346   -3.1709   -4.0636 H   0  0  0  0  0  0  0  0  0  0  0  0
   -7.8035   -4.0156   -5.8245 H   0  0  0  0  0  0  0  0  0  0  0  0
   -7.5630   -4.2504   -4.0746 H   0  0  0  0  0  0  0  0  0  0  0  0
  1  2  1  0  0  0  0
  1 23  1  0  0  0  0
  1 24  1  0  0  0  0
  1 25  1  0  0  0  0
  2  3  1  0  0  0  0
  2 26  1  0  0  0  0
  2 27  1  0  0  0  0
  3  4  1  0  0  0  0
  3 28  1  0  0  0  0
  3 29  1  0  0  0  0
  4  5  1  0  0  0  0
  4 30  1  0  0  0  0
  4 31  1  0  0  0  0
  5  6  1  0  0  0  0
  5 32  1  0  0  0  0
  5 33  1  0  0  0  0
  6  7  1  0  0  0  0
  6 34  1  0  0  0  0
  6 35  1  0  0  0  0
  7  8  1  0  0  0  0
  7 36  1  0  0  0  0
  7 37  1  0  0  0  0
  8  9  1  0  0  0  0
  8 38  1  0  0  0  0
  8 39  1  0  0  0  0
  9 10  1  0  0  0  0
  9 40  1  0  0  0  0
  9 41  1  0  0  0  0
 10 11  2  0  0  0  0
 10 12  1  0  0  0  0
 12 13  1  0  0  0  0
 12 42  1  0  0  0  0
 12 43  1  0  0  0  0
 13 14  2  0  0  0  0
 13 15  1  0  0  0  0
 15 44  1  0  0  0  0
 16 15  1  0  0  0  0
 16 17  1  0  0  0  0
 16 19  1  0  0  0  0
 16 22  1  6  0  0  0
 17 18  1  0  0  0  0
 17 45  1  0  0  0  0
 17 46  1  0  0  0  0
 18 21  1  0  0  0  0
 18 47  1  0  0  0  0
 18 48  1  0  0  0  0
 19 20  2  0  0  0  0
 19 21  1  0  0  0  0
M  END
>  <DRUGBANK_ID>
DB08324

>  <COMMON_NAME>
N-3-OXO-DODECANOYL-L-HOMOSERINE LACTONE

$$$$
