
 OpenBabel10282417133D

 55 54  0  0  1  0  0  0  0  0999 V2000
    1.1431    0.0793    0.0263 O   0  0  0  0  0  0  0  0  0  0  0  0
    0.3785    1.1080   -0.3957 C   0  0  0  0  0  0  0  0  0  0  0  0
    1.1658    2.2428   -1.0253 C   0  0  0  0  0  0  0  0  0  0  0  0
    0.7585    2.4581   -2.4835 C   0  0  0  0  0  0  0  0  0  0  0  0
   -0.7277    2.8037   -2.6232 C   0  0  0  0  0  0  0  0  0  0  0  0
   -1.0783    4.0608   -1.8184 C   0  0  0  0  0  0  0  0  0  0  0  0
   -0.3212    5.2789   -2.3593 C   0  0  0  0  0  0  0  0  0  0  0  0
   -0.6864    5.5245   -3.8207 C   0  0  0  0  0  0  0  0  0  0  0  0
   -0.8291    1.0953   -0.2619 O   0  0  0  0  0  0  0  0  0  0  0  0
   -2.1899    5.6909   -3.9661 C   0  0  0  0  0  0  0  0  0  0  0  0
   -5.3729    9.5190   -5.0204 C   0  0  0  0  0  0  0  0  0  0  0  0
   -6.1181   13.3160   -7.6087 C   0  0  0  0  0  0  0  0  0  0  0  0
   -6.8635   12.1494   -6.9789 C   0  0  0  0  0  0  0  0  0  0  0  0
   -6.3258   10.8306   -7.5312 C   0  0  0  0  0  0  0  0  0  0  0  0
   -4.8307   10.7054   -7.2223 C   0  0  0  0  0  0  0  0  0  0  0  0
   -4.5937   10.6517   -5.7109 C   0  0  0  0  0  0  0  0  0  0  0  0
   -3.0891    8.0014   -3.8743 C   0  0  0  0  0  0  0  0  0  0  0  0
   -3.4226    7.9928   -5.3316 C   0  0  0  0  0  0  0  0  0  0  0  0
   -2.6034    6.9347   -3.2468 C   0  0  0  0  0  0  0  0  0  0  0  0
   -4.9325    8.1324   -5.4941 C   0  0  2  0  0  0  0  0  0  0  0  0
   -5.3202    7.8648   -6.8396 O   0  0  0  0  0  0  0  0  0  0  0  0
    2.1002    0.2069   -0.0858 H   0  0  0  0  0  0  0  0  0  0  0  0
    1.0043    3.1402   -0.4172 H   0  0  0  0  0  0  0  0  0  0  0  0
    2.2422    2.0587   -0.9726 H   0  0  0  0  0  0  0  0  0  0  0  0
    1.3707    3.2622   -2.9137 H   0  0  0  0  0  0  0  0  0  0  0  0
    0.9852    1.5713   -3.0827 H   0  0  0  0  0  0  0  0  0  0  0  0
   -0.9808    2.9166   -3.6831 H   0  0  0  0  0  0  0  0  0  0  0  0
   -1.3620    1.9732   -2.3072 H   0  0  0  0  0  0  0  0  0  0  0  0
   -2.1625    4.2120   -1.8367 H   0  0  0  0  0  0  0  0  0  0  0  0
   -0.8648    3.9443   -0.7536 H   0  0  0  0  0  0  0  0  0  0  0  0
   -0.5486    6.1556   -1.7446 H   0  0  0  0  0  0  0  0  0  0  0  0
    0.7616    5.1577   -2.2718 H   0  0  0  0  0  0  0  0  0  0  0  0
   -0.1537    6.4030   -4.2049 H   0  0  0  0  0  0  0  0  0  0  0  0
   -0.3623    4.6970   -4.4609 H   0  0  0  0  0  0  0  0  0  0  0  0
   -2.3964    5.6797   -5.0322 H   0  0  0  0  0  0  0  0  0  0  0  0
   -2.7823    4.8527   -3.5947 H   0  0  0  0  0  0  0  0  0  0  0  0
   -6.4517    9.6310   -5.1548 H   0  0  0  0  0  0  0  0  0  0  0  0
   -5.2253    9.6086   -3.9381 H   0  0  0  0  0  0  0  0  0  0  0  0
   -6.2296   13.2789   -8.6964 H   0  0  0  0  0  0  0  0  0  0  0  0
   -6.4876   14.2668   -7.2290 H   0  0  0  0  0  0  0  0  0  0  0  0
   -5.0471   13.2976   -7.3836 H   0  0  0  0  0  0  0  0  0  0  0  0
   -7.9357   12.2257   -7.1771 H   0  0  0  0  0  0  0  0  0  0  0  0
   -6.7594   12.1885   -5.8878 H   0  0  0  0  0  0  0  0  0  0  0  0
   -6.4931   10.7663   -8.6107 H   0  0  0  0  0  0  0  0  0  0  0  0
   -6.8995    9.9963   -7.1093 H   0  0  0  0  0  0  0  0  0  0  0  0
   -4.2558   11.5313   -7.6457 H   0  0  0  0  0  0  0  0  0  0  0  0
   -4.3967    9.8611   -7.7545 H   0  0  0  0  0  0  0  0  0  0  0  0
   -4.8691   11.5994   -5.2396 H   0  0  0  0  0  0  0  0  0  0  0  0
   -3.5185   10.5871   -5.5177 H   0  0  0  0  0  0  0  0  0  0  0  0
   -3.3090    8.8872   -3.2799 H   0  0  0  0  0  0  0  0  0  0  0  0
   -2.8392    8.7637   -5.8391 H   0  0  0  0  0  0  0  0  0  0  0  0
   -3.1280    7.1000   -5.8764 H   0  0  0  0  0  0  0  0  0  0  0  0
   -2.4647    6.9950   -2.1681 H   0  0  0  0  0  0  0  0  0  0  0  0
   -5.4504    7.3693   -4.9011 H   0  0  0  0  0  0  0  0  0  0  0  0
   -4.5842    8.1054   -7.4252 H   0  0  0  0  0  0  0  0  0  0  0  0
  1  2  1  0  0  0  0
  1 22  1  0  0  0  0
  3  2  1  0  0  0  0
  3 23  1  0  0  0  0
  3 24  1  0  0  0  0
  4  3  1  0  0  0  0
  4  5  1  0  0  0  0
  4 25  1  0  0  0  0
  4 26  1  0  0  0  0
  5 27  1  0  0  0  0
  5 28  1  0  0  0  0
  6  5  1  0  0  0  0
  6  7  1  0  0  0  0
  6 29  1  0  0  0  0
  6 30  1  0  0  0  0
  7 31  1  0  0  0  0
  7 32  1  0  0  0  0
  8  7  1  0  0  0  0
  8 10  1  0  0  0  0
  8 33  1  0  0  0  0
  8 34  1  0  0  0  0
  9  2  2  0  0  0  0
 10 19  1  0  0  0  0
 10 35  1  0  0  0  0
 10 36  1  0  0  0  0
 11 20  1  0  0  0  0
 11 37  1  0  0  0  0
 11 38  1  0  0  0  0
 12 13  1  0  0  0  0
 12 39  1  0  0  0  0
 12 40  1  0  0  0  0
 12 41  1  0  0  0  0
 13 14  1  0  0  0  0
 13 42  1  0  0  0  0
 13 43  1  0  0  0  0
 14 15  1  0  0  0  0
 14 44  1  0  0  0  0
 14 45  1  0  0  0  0
 15 16  1  0  0  0  0
 15 46  1  0  0  0  0
 15 47  1  0  0  0  0
 16 11  1  0  0  0  0
 16 48  1  0  0  0  0
 16 49  1  0  0  0  0
 17 50  1  0  0  0  0
 18 17  1  0  0  0  0
 18 51  1  0  0  0  0
 18 52  1  0  0  0  0
 19 17  2  0  0  0  0
 19 53  1  0  0  0  0
 20 18  1  0  0  0  0
 20 21  1  0  0  0  0
 20 54  1  1  0  0  0
 21 55  1  0  0  0  0
M  END
>  <DRUGBANK_ID>
DB02955

>  <SECONDARY_ACCESSION_NUMBERS>
EXPT02762

>  <COMMON_NAME>
Ricinoleic acid

>  <CAS_NUMBER>
141-22-0

>  <UNII>
I2D0F69854

>  <SYNONYMS>
(cis,R)-12-hydroxyoctadec-9-enoic acid; (Z,R)-12-hydroxyoctadec-9-enoic acid; 12-Hydroxy-9-octadecenoic acid; 12-Hydroxy-cis-9-octadecenoic acid; 12-hydroxyoleic acid; Ricinoleic acid; Ricinolic acid; Ricinols√§ure

$$$$
