458
 OpenBabel10282417103D

 45 47  0  0  0  0  0  0  0  0999 V2000
    0.0943   -0.9006   -0.9179 N   0  0  0  0  0  0  0  0  0  0  0  0
   -2.9978   -1.7371   -3.2422 N   0  0  0  0  0  0  0  0  0  0  0  0
    0.1605   -1.4355   -2.3092 C   0  0  0  0  0  0  0  0  0  0  0  0
    1.3396   -0.4426   -0.4410 C   0  0  0  0  0  0  0  0  0  0  0  0
   -1.0824   -0.5593   -0.2532 C   0  0  0  0  0  0  0  0  0  0  0  0
    0.5538    2.0042    0.0273 C   0  0  0  0  0  0  0  0  0  0  0  0
   -0.7234    1.8487   -0.8014 C   0  0  0  0  0  0  0  0  0  0  0  0
    1.5391    0.8439    0.0883 C   0  0  0  0  0  0  0  0  0  0  0  0
   -1.5690    0.7619   -0.1982 C   0  0  0  0  0  0  0  0  0  0  0  0
   -0.6430   -2.7069   -2.5807 C   0  0  0  0  0  0  0  0  0  0  0  0
   -2.1650   -2.6462   -2.4311 C   0  0  0  0  0  0  0  0  0  0  0  0
    2.3477   -1.4190   -0.3465 C   0  0  0  0  0  0  0  0  0  0  0  0
   -1.7811   -1.5326    0.4732 C   0  0  0  0  0  0  0  0  0  0  0  0
    2.7442    1.0815    0.7751 C   0  0  0  0  0  0  0  0  0  0  0  0
   -2.7988    1.0416    0.4135 C   0  0  0  0  0  0  0  0  0  0  0  0
    3.5366   -1.1568    0.3160 C   0  0  0  0  0  0  0  0  0  0  0  0
   -3.0401   -1.2785    1.0036 C   0  0  0  0  0  0  0  0  0  0  0  0
    3.7189    0.0881    0.8909 C   0  0  0  0  0  0  0  0  0  0  0  0
   -3.5598    0.0146    0.9721 C   0  0  0  0  0  0  0  0  0  0  0  0
   -4.3273   -1.6754   -2.6050 C   0  0  0  0  0  0  0  0  0  0  0  0
   -2.5319   -0.3547   -3.3142 C   0  0  0  0  0  0  0  0  0  0  0  0
   -0.0091   -0.6459   -3.0386 H   0  0  0  0  0  0  0  0  0  0  0  0
    1.1954   -1.7135   -2.5664 H   0  0  0  0  0  0  0  0  0  0  0  0
    0.2616    2.2442    1.0589 H   0  0  0  0  0  0  0  0  0  0  0  0
    1.0866    2.8786   -0.3683 H   0  0  0  0  0  0  0  0  0  0  0  0
   -0.5020    1.6268   -1.8524 H   0  0  0  0  0  0  0  0  0  0  0  0
   -1.2804    2.7962   -0.8074 H   0  0  0  0  0  0  0  0  0  0  0  0
   -0.4114   -3.0784   -3.5881 H   0  0  0  0  0  0  0  0  0  0  0  0
   -0.2611   -3.4803   -1.8957 H   0  0  0  0  0  0  0  0  0  0  0  0
   -2.5371   -3.6718   -2.5644 H   0  0  0  0  0  0  0  0  0  0  0  0
   -2.3926   -2.4755   -1.3962 H   0  0  0  0  0  0  0  0  0  0  0  0
    2.1675   -2.4215   -0.7246 H   0  0  0  0  0  0  0  0  0  0  0  0
   -1.3779   -2.5454    0.5076 H   0  0  0  0  0  0  0  0  0  0  0  0
    2.9073    2.0439    1.2498 H   0  0  0  0  0  0  0  0  0  0  0  0
   -3.1900    2.0586    0.4388 H   0  0  0  0  0  0  0  0  0  0  0  0
    4.2735   -1.9445    0.4099 H   0  0  0  0  0  0  0  0  0  0  0  0
   -3.6370   -2.1001    1.3909 H   0  0  0  0  0  0  0  0  0  0  0  0
    4.6272    0.2874    1.4540 H   0  0  0  0  0  0  0  0  0  0  0  0
   -4.5441    0.2122    1.3782 H   0  0  0  0  0  0  0  0  0  0  0  0
   -4.2786   -1.2501   -1.5947 H   0  0  0  0  0  0  0  0  0  0  0  0
   -4.9968   -1.0403   -3.1913 H   0  0  0  0  0  0  0  0  0  0  0  0
   -4.7780   -2.6682   -2.5330 H   0  0  0  0  0  0  0  0  0  0  0  0
   -2.4288    0.0854   -2.3307 H   0  0  0  0  0  0  0  0  0  0  0  0
   -1.6080   -0.2498   -3.8760 H   0  0  0  0  0  0  0  0  0  0  0  0
   -3.2411    0.2859   -3.8449 H   0  0  0  0  0  0  0  0  0  0  0  0
  1  3  1  0  0  0  0
  1  4  1  0  0  0  0
  1  5  1  0  0  0  0
  2 11  1  0  0  0  0
  2 20  1  0  0  0  0
  2 21  1  0  0  0  0
  3 10  1  0  0  0  0
  3 22  1  0  0  0  0
  3 23  1  0  0  0  0
  4  8  1  0  0  0  0
  4 12  2  0  0  0  0
  5  9  1  0  0  0  0
  5 13  2  0  0  0  0
  6  7  1  0  0  0  0
  6  8  1  0  0  0  0
  6 24  1  0  0  0  0
  6 25  1  0  0  0  0
  7  9  1  0  0  0  0
  7 26  1  0  0  0  0
  7 27  1  0  0  0  0
  8 14  2  0  0  0  0
  9 15  2  0  0  0  0
 10 11  1  0  0  0  0
 10 28  1  0  0  0  0
 10 29  1  0  0  0  0
 11 30  1  0  0  0  0
 11 31  1  0  0  0  0
 12 16  1  0  0  0  0
 12 32  1  0  0  0  0
 13 17  1  0  0  0  0
 13 33  1  0  0  0  0
 14 18  1  0  0  0  0
 14 34  1  0  0  0  0
 15 19  1  0  0  0  0
 15 35  1  0  0  0  0
 16 18  2  0  0  0  0
 16 36  1  0  0  0  0
 17 19  2  0  0  0  0
 17 37  1  0  0  0  0
 18 38  1  0  0  0  0
 19 39  1  0  0  0  0
 20 40  1  0  0  0  0
 20 41  1  0  0  0  0
 20 42  1  0  0  0  0
 21 43  1  0  0  0  0
 21 44  1  0  0  0  0
 21 45  1  0  0  0  0
M  END
>  <DRUGBANK_ID>
DB00458

>  <SECONDARY_ACCESSION_NUMBERS>
APRD00672; DB08002

>  <COMMON_NAME>
Imipramine

>  <CAS_NUMBER>
50-49-7

>  <UNII>
OGG85SX4E4

>  <SYNONYMS>
10,11-dihydro-N,N-dimethyl-5H-dibenz[b,f]azepine-5-propanamine; 5-[3-(dimethylamino)propyl]-10,11-dihydro-5H-dibenz[b,f]azepine; Imipramin; Imipramina; Imipramine; Imipraminum; Imizine; N-(gamma-Dimethylaminopropyl)iminodibenzyl; N-(Î³-dimethylaminopropyl)iminodibenzyl

$$$$
