
 OpenBabel10282417213D

  1  0  0  0  0  0  0  0  0  0999 V2000
    0.9318   -0.0704   -0.0200 Fe  0  2  0  0  0  0  0  0  0  0  0  0
M  CHG  1   1   2
M  END
>  <DRUGBANK_ID>
DB14510

>  <COMMON_NAME>
Ferrous cation

>  <CAS_NUMBER>
15438-31-0

>  <UNII>
GW89581OWR

>  <SYNONYMS>
Fe2+; Ferrous ion; Iron, ion (Fe2+); Iron(2+); Iron(2+) ion; Iron(II) ion

$$$$
