6JZ
 OpenBabel10282417123D

 43 42  0  0  0  0  0  0  0  0999 V2000
    0.8756   -0.4301    0.0244 C   0  0  0  0  0  0  0  0  0  0  0  0
    0.3363    0.3020   -1.1852 C   0  0  0  0  0  0  0  0  0  0  0  0
    1.0833    0.2614   -2.3735 O   0  0  0  0  0  0  0  0  0  0  0  0
    2.4735    0.5415   -2.0601 C   0  0  0  0  0  0  0  0  0  0  0  0
    2.8973    1.6889   -0.9877 C   0  0  0  0  0  0  0  0  0  0  0  0
    2.2811    2.0461    0.2709 O   0  0  0  0  0  0  0  0  0  0  0  0
    0.9187    2.6743    0.2130 C   0  0  0  0  0  0  0  0  0  0  0  0
    0.1465    3.2151   -1.2697 C   0  0  0  0  0  0  0  0  0  0  0  0
    0.8557    3.3328   -2.5785 O   0  0  0  0  0  0  0  0  0  0  0  0
    2.3006    3.5874   -2.8558 C   0  0  0  0  0  0  0  0  0  0  0  0
    3.3620    4.4693   -1.7683 C   0  0  0  0  0  0  0  0  0  0  0  0
    2.8841    5.2622   -0.5863 O   0  0  0  0  0  0  0  0  0  0  0  0
    1.4581    5.4687   -0.4628 C   0  0  0  0  0  0  0  0  0  0  0  0
    0.4547    6.3505   -1.3912 C   0  0  0  0  0  0  0  0  0  0  0  0
    0.5905    6.3971   -2.8364 O   0  0  0  0  0  0  0  0  0  0  0  0
    1.9552    6.4716   -3.1589 C   0  0  0  0  0  0  0  0  0  0  0  0
    2.8151    7.4641   -2.4069 C   0  0  0  0  0  0  0  0  0  0  0  0
    0.6618   -1.4803   -0.1168 H   0  0  0  0  0  0  0  0  0  0  0  0
    0.4598   -0.0635    0.9704 H   0  0  0  0  0  0  0  0  0  0  0  0
    1.9564   -0.3164    0.1569 H   0  0  0  0  0  0  0  0  0  0  0  0
   -0.7220    0.5863   -1.1849 H   0  0  0  0  0  0  0  0  0  0  0  0
    0.6993    1.2843   -1.0369 H   0  0  0  0  0  0  0  0  0  0  0  0
    2.8732   -0.3924   -1.6880 H   0  0  0  0  0  0  0  0  0  0  0  0
    2.9330    0.7129   -3.0439 H   0  0  0  0  0  0  0  0  0  0  0  0
    3.9614    1.9514   -1.1033 H   0  0  0  0  0  0  0  0  0  0  0  0
    2.4276    2.5501   -1.3637 H   0  0  0  0  0  0  0  0  0  0  0  0
    0.2481    1.8749    0.4997 H   0  0  0  0  0  0  0  0  0  0  0  0
    0.6939    3.2000    1.1535 H   0  0  0  0  0  0  0  0  0  0  0  0
   -0.8874    2.8336   -1.3944 H   0  0  0  0  0  0  0  0  0  0  0  0
   -0.2825    4.1871   -1.0436 H   0  0  0  0  0  0  0  0  0  0  0  0
    2.7754    2.6238   -3.0176 H   0  0  0  0  0  0  0  0  0  0  0  0
    2.4814    3.8101   -3.9272 H   0  0  0  0  0  0  0  0  0  0  0  0
    4.3812    4.0915   -1.5951 H   0  0  0  0  0  0  0  0  0  0  0  0
    3.7544    5.2167   -2.4453 H   0  0  0  0  0  0  0  0  0  0  0  0
    1.3700    4.5037   -0.8688 H   0  0  0  0  0  0  0  0  0  0  0  0
    1.0280    5.3241    0.5414 H   0  0  0  0  0  0  0  0  0  0  0  0
   -0.5967    6.0689   -1.2372 H   0  0  0  0  0  0  0  0  0  0  0  0
    0.5534    7.3772   -1.0647 H   0  0  0  0  0  0  0  0  0  0  0  0
    2.0948    5.5830   -2.6025 H   0  0  0  0  0  0  0  0  0  0  0  0
    2.3435    6.0626   -4.0983 H   0  0  0  0  0  0  0  0  0  0  0  0
    2.5927    7.5102   -1.3358 H   0  0  0  0  0  0  0  0  0  0  0  0
    3.8833    7.2188   -2.4382 H   0  0  0  0  0  0  0  0  0  0  0  0
    2.6241    8.4390   -2.8332 H   0  0  0  0  0  0  0  0  0  0  0  0
  1  2  1  0  0  0  0
  1 18  1  0  0  0  0
  1 19  1  0  0  0  0
  1 20  1  0  0  0  0
  2  3  1  0  0  0  0
  2 21  1  0  0  0  0
  2 22  1  0  0  0  0
  3  4  1  0  0  0  0
  4  5  1  0  0  0  0
  4 23  1  0  0  0  0
  4 24  1  0  0  0  0
  5  6  1  0  0  0  0
  5 25  1  0  0  0  0
  5 26  1  0  0  0  0
  6  7  1  0  0  0  0
  7  8  1  0  0  0  0
  7 27  1  0  0  0  0
  7 28  1  0  0  0  0
  8  9  1  0  0  0  0
  8 29  1  0  0  0  0
  8 30  1  0  0  0  0
  9 10  1  0  0  0  0
 10 11  1  0  0  0  0
 10 31  1  0  0  0  0
 10 32  1  0  0  0  0
 11 12  1  0  0  0  0
 11 33  1  0  0  0  0
 11 34  1  0  0  0  0
 12 13  1  0  0  0  0
 13 14  1  0  0  0  0
 13 35  1  0  0  0  0
 13 36  1  0  0  0  0
 14 15  1  0  0  0  0
 14 37  1  0  0  0  0
 14 38  1  0  0  0  0
 15 16  1  0  0  0  0
 16 17  1  0  0  0  0
 16 39  1  0  0  0  0
 16 40  1  0  0  0  0
 17 41  1  0  0  0  0
 17 42  1  0  0  0  0
 17 43  1  0  0  0  0
M  END
>  <DRUGBANK_ID>
DB02343

>  <SECONDARY_ACCESSION_NUMBERS>
EXPT02478

>  <COMMON_NAME>
3,6,9,12,15-Pentaoxaheptadecane

>  <CAS_NUMBER>
4353-28-0

>  <UNII>
XO8API468S

$$$$
