
 OpenBabel10282417223D

 57 59  0  0  0  0  0  0  0  0999 V2000
    1.0711    0.0594   -0.0376 H   0  0  0  0  0  0  0  0  0  0  0  0
    2.1411    0.0594   -0.0376 C   0  0  0  0  0  0  0  0  0  0  0  0
    2.4978   -0.0527   -1.0401 H   0  0  0  0  0  0  0  0  0  0  0  0
    2.4978    0.9837    0.3666 H   0  0  0  0  0  0  0  0  0  0  0  0
    2.6478   -1.0944    0.8125 C   0  0  0  0  0  0  0  0  0  0  0  0
    2.1411   -0.9351    2.2366 C   0  0  0  0  0  0  0  0  0  0  0  0
    2.0327    0.3253    2.7918 C   0  0  0  0  0  0  0  0  0  0  0  0
    1.6120    0.4763    4.0909 C   0  0  0  0  0  0  0  0  0  0  0  0
    1.3058   -0.6299    4.8527 C   0  0  0  0  0  0  0  0  0  0  0  0
    0.8688   -0.4511    6.2448 N   0  0  0  0  0  0  0  0  0  0  0  0
    0.7614    0.9000    6.8138 C   0  0  0  0  0  0  0  0  0  0  0  0
    0.3836    1.0545    8.0173 O   0  0  0  0  0  0  0  0  0  0  0  0
    1.1022    2.1124    5.9626 C   0  0  0  0  0  0  0  0  0  0  0  0
    1.9866    3.0290    6.4217 C   0  0  0  0  0  0  0  0  0  0  0  0
    2.4531    4.0373    5.6105 N   0  0  0  0  0  0  0  0  0  0  0  0
    2.0374    4.1256    4.2769 C   0  0  0  0  0  0  0  0  0  0  0  0
    1.1135    3.1868    3.7840 C   0  0  0  0  0  0  0  0  0  0  0  0
    0.7286    3.2726    2.4455 C   0  0  0  0  0  0  0  0  0  0  0  0
    1.2182    4.2448    1.6273 C   0  0  0  0  0  0  0  0  0  0  0  0
    2.1242    5.1809    2.1246 C   0  0  0  0  0  0  0  0  0  0  0  0
    2.5299    5.1232    3.4326 C   0  0  0  0  0  0  0  0  0  0  0  0
    0.5826    2.1287    4.6379 C   0  0  0  0  0  0  0  0  0  0  0  0
   -0.2625    1.3077    4.2259 O   0  0  0  0  0  0  0  0  0  0  0  0
    1.4042   -1.9205    4.3223 C   0  0  0  0  0  0  0  0  0  0  0  0
    1.8099   -2.0445    2.9774 C   0  0  0  0  0  0  0  0  0  0  0  0
    1.9101   -3.2505    2.3739 O   0  0  0  0  0  0  0  0  0  0  0  0
    1.4841    1.8677    4.6892 C   0  0  0  0  0  0  0  0  0  0  0  0
    2.8373    2.5593    4.6574 C   0  0  0  0  0  0  0  0  0  0  0  0
    0.4825    2.6766    3.8812 C   0  0  0  0  0  0  0  0  0  0  0  0
    1.0046    1.7586    6.1275 C   0  0  0  0  0  0  0  0  0  0  0  0
    2.1411   -2.4074    0.2383 C   0  0  0  0  0  0  0  0  0  0  0  0
    2.4978   -2.5195   -0.7643 H   0  0  0  0  0  0  0  0  0  0  0  0
    2.4978   -3.2196    0.8367 H   0  0  0  0  0  0  0  0  0  0  0  0
    1.0711   -2.4074    0.2383 H   0  0  0  0  0  0  0  0  0  0  0  0
    4.1678   -1.0944    0.8125 C   0  0  0  0  0  0  0  0  0  0  0  0
    4.5245   -1.2065   -0.1901 H   0  0  0  0  0  0  0  0  0  0  0  0
    4.5245   -0.1701    1.2166 H   0  0  0  0  0  0  0  0  0  0  0  0
    4.5245   -1.9065    1.4108 H   0  0  0  0  0  0  0  0  0  0  0  0
    2.2775    1.1876    2.2074 H   0  0  0  0  0  0  0  0  0  0  0  0
    0.6401   -1.2647    6.8160 H   0  0  0  0  0  0  0  0  0  0  0  0
    2.3288    2.9680    7.4337 H   0  0  0  0  0  0  0  0  0  0  0  0
    3.1068    4.7257    5.9836 H   0  0  0  0  0  0  0  0  0  0  0  0
    0.0340    2.5592    2.0537 H   0  0  0  0  0  0  0  0  0  0  0  0
    0.9082    4.2903    0.6042 H   0  0  0  0  0  0  0  0  0  0  0  0
    2.5044    5.9475    1.4823 H   0  0  0  0  0  0  0  0  0  0  0  0
    3.2256    5.8443    3.8077 H   0  0  0  0  0  0  0  0  0  0  0  0
    1.1799   -2.7823    4.9155 H   0  0  0  0  0  0  0  0  0  0  0  0
    1.6786   -4.0826    2.8778 H   0  0  0  0  0  0  0  0  0  0  0  0
    3.1748    2.6361    3.6449 H   0  0  0  0  0  0  0  0  0  0  0  0
    2.7472    3.5388    5.0786 H   0  0  0  0  0  0  0  0  0  0  0  0
    3.5424    1.9899    5.2262 H   0  0  0  0  0  0  0  0  0  0  0  0
   -0.4700    2.1898    3.9036 H   0  0  0  0  0  0  0  0  0  0  0  0
    0.3925    3.6561    4.3024 H   0  0  0  0  0  0  0  0  0  0  0  0
    0.8201    2.7534    2.8687 H   0  0  0  0  0  0  0  0  0  0  0  0
    0.0520    1.2718    6.1499 H   0  0  0  0  0  0  0  0  0  0  0  0
    1.7097    1.1892    6.6963 H   0  0  0  0  0  0  0  0  0  0  0  0
    0.9146    2.7381    6.5487 H   0  0  0  0  0  0  0  0  0  0  0  0
  1  2  1  0  0  0  0
  2  3  1  0  0  0  0
  2  4  1  0  0  0  0
  2  5  1  0  0  0  0
  5  6  1  0  0  0  0
  5 31  1  0  0  0  0
  5 35  1  0  0  0  0
  6  7  2  0  0  0  0
  6 25  1  0  0  0  0
  7  8  1  0  0  0  0
  7 39  1  0  0  0  0
  8  9  2  0  0  0  0
  8 27  1  0  0  0  0
  9 10  1  0  0  0  0
  9 24  1  0  0  0  0
 10 11  1  0  0  0  0
 10 40  1  0  0  0  0
 11 12  2  0  0  0  0
 11 13  1  0  0  0  0
 13 14  2  0  0  0  0
 13 22  1  0  0  0  0
 14 15  1  0  0  0  0
 14 41  1  0  0  0  0
 15 16  1  0  0  0  0
 15 42  1  0  0  0  0
 16 17  2  0  0  0  0
 16 21  1  0  0  0  0
 17 18  1  0  0  0  0
 17 22  1  0  0  0  0
 18 19  2  0  0  0  0
 18 43  1  0  0  0  0
 19 20  1  0  0  0  0
 19 44  1  0  0  0  0
 20 21  2  0  0  0  0
 20 45  1  0  0  0  0
 21 46  1  0  0  0  0
 22 23  2  0  0  0  0
 24 25  2  0  0  0  0
 24 47  1  0  0  0  0
 25 26  1  0  0  0  0
 26 48  1  0  0  0  0
 27 28  1  0  0  0  0
 27 29  1  0  0  0  0
 27 30  1  0  0  0  0
 28 49  1  0  0  0  0
 28 50  1  0  0  0  0
 28 51  1  0  0  0  0
 29 52  1  0  0  0  0
 29 53  1  0  0  0  0
 29 54  1  0  0  0  0
 30 55  1  0  0  0  0
 30 56  1  0  0  0  0
 30 57  1  0  0  0  0
 31 32  1  0  0  0  0
 31 33  1  0  0  0  0
 31 34  1  0  0  0  0
 35 36  1  0  0  0  0
 35 37  1  0  0  0  0
 35 38  1  0  0  0  0
M  ISO  8   1   2   3   2   4   2  32   2  33   2  34   2  36   2  37   2
M  ISO  1  38   2
M  END
>  <DRUGBANK_ID>
DB15141

>  <COMMON_NAME>
Deutivacaftor

>  <CAS_NUMBER>
1413431-07-8

>  <UNII>
SHA6U5FJZL

>  <SYNONYMS>
D9-Ivacaftor; Deutivacaftor

$$$$
