
 OpenBabel10282417143D

 40 39  0  0  0  0  0  0  0  0999 V2000
    0.9570   -0.0000   -0.1522 O   0  0  0  0  0  0  0  0  0  0  0  0
    0.3675    1.1839    0.1033 C   0  0  0  0  0  0  0  0  0  0  0  0
   -1.1408    1.1186    0.0640 C   0  0  0  0  0  0  0  0  0  0  0  0
   -1.6127    0.5536   -1.2028 N   0  0  0  0  0  0  0  0  0  0  0  0
   -2.4284   -0.5645   -1.2310 C   0  0  0  0  0  0  0  0  0  0  0  0
   -3.0301   -0.9300   -2.6058 C   0  0  1  0  0  0  0  0  0  0  0  0
   -2.6066   -2.3209   -2.9279 N   0  0  0  0  0  0  0  0  0  0  0  0
   -3.4861   -3.3539   -3.1414 C   0  0  0  0  0  0  0  0  0  0  0  0
   -2.9170   -4.7414   -3.3217 C   0  0  0  0  0  0  0  0  0  0  0  0
   -3.5350   -5.7194   -2.3017 C   0  0  0  0  0  0  0  0  0  0  0  0
   -5.0814   -5.8084   -2.3156 C   0  0  1  0  0  0  0  0  0  0  0  0
   -5.6222   -6.2317   -3.7050 C   0  0  0  0  0  0  0  0  0  0  0  0
   -6.3785   -7.3557   -3.6991 O   0  0  0  0  0  0  0  0  0  0  0  0
    1.0362    2.1714    0.3856 O   0  0  0  0  0  0  0  0  0  0  0  0
   -2.6899   -1.2010   -0.2118 O   0  0  0  0  0  0  0  0  0  0  0  0
   -4.5642   -0.7207   -2.5512 C   0  0  0  0  0  0  0  0  0  0  0  0
   -5.2158    0.9813   -2.3838 S   0  0  0  0  0  0  0  0  0  0  0  0
   -4.7320    1.3788   -0.6932 C   0  0  0  0  0  0  0  0  0  0  0  0
   -4.7007   -3.1957   -3.2023 O   0  0  0  0  0  0  0  0  0  0  0  0
   -5.5380   -6.7251   -1.2451 N   0  0  0  0  0  0  0  0  0  0  0  0
   -5.3914   -5.6500   -4.7586 O   0  0  0  0  0  0  0  0  0  0  0  0
    1.9165    0.1629   -0.0503 H   0  0  0  0  0  0  0  0  0  0  0  0
   -1.4923    0.5356    0.9218 H   0  0  0  0  0  0  0  0  0  0  0  0
   -1.5452    2.1331    0.1616 H   0  0  0  0  0  0  0  0  0  0  0  0
   -1.4990    1.1246   -2.0323 H   0  0  0  0  0  0  0  0  0  0  0  0
   -2.5979   -0.2979   -3.3901 H   0  0  0  0  0  0  0  0  0  0  0  0
   -1.6159   -2.5262   -2.8856 H   0  0  0  0  0  0  0  0  0  0  0  0
   -3.1496   -5.0546   -4.3443 H   0  0  0  0  0  0  0  0  0  0  0  0
   -1.8254   -4.7419   -3.2498 H   0  0  0  0  0  0  0  0  0  0  0  0
   -3.1142   -6.7163   -2.4861 H   0  0  0  0  0  0  0  0  0  0  0  0
   -3.1995   -5.4173   -1.2991 H   0  0  0  0  0  0  0  0  0  0  0  0
   -5.5391   -4.8542   -2.0477 H   0  0  0  0  0  0  0  0  0  0  0  0
   -6.4976   -7.7101   -2.8018 H   0  0  0  0  0  0  0  0  0  0  0  0
   -4.9819   -1.0358   -3.5147 H   0  0  0  0  0  0  0  0  0  0  0  0
   -5.0156   -1.3459   -1.7691 H   0  0  0  0  0  0  0  0  0  0  0  0
   -5.0439    0.6296    0.0392 H   0  0  0  0  0  0  0  0  0  0  0  0
   -3.6617    1.5152   -0.6493 H   0  0  0  0  0  0  0  0  0  0  0  0
   -5.1455    2.3514   -0.4281 H   0  0  0  0  0  0  0  0  0  0  0  0
   -6.5482   -6.6764   -1.1291 H   0  0  0  0  0  0  0  0  0  0  0  0
   -5.1787   -7.6670   -1.3465 H   0  0  0  0  0  0  0  0  0  0  0  0
  1  2  1  0  0  0  0
  1 22  1  0  0  0  0
  2 14  2  0  0  0  0
  2  3  1  0  0  0  0
  3  4  1  0  0  0  0
  3 23  1  0  0  0  0
  3 24  1  0  0  0  0
  4  5  1  0  0  0  0
  4 25  1  0  0  0  0
  5  6  1  0  0  0  0
  5 15  2  0  0  0  0
  6  7  1  0  0  0  0
  6 16  1  0  0  0  0
  6 26  1  6  0  0  0
  7  8  1  0  0  0  0
  7 27  1  0  0  0  0
  8  9  1  0  0  0  0
  8 19  2  0  0  0  0
  9 10  1  0  0  0  0
  9 28  1  0  0  0  0
  9 29  1  0  0  0  0
 10 11  1  0  0  0  0
 10 30  1  0  0  0  0
 10 31  1  0  0  0  0
 11 12  1  0  0  0  0
 11 20  1  0  0  0  0
 11 32  1  1  0  0  0
 12 13  1  0  0  0  0
 12 21  2  0  0  0  0
 13 33  1  0  0  0  0
 16 17  1  0  0  0  0
 16 34  1  0  0  0  0
 16 35  1  0  0  0  0
 17 18  1  0  0  0  0
 18 36  1  0  0  0  0
 18 37  1  0  0  0  0
 18 38  1  0  0  0  0
 20 39  1  0  0  0  0
 20 40  1  0  0  0  0
M  END
>  <DRUGBANK_ID>
DB04701

>  <COMMON_NAME>
S-Methyl glutathione

>  <CAS_NUMBER>
2922-56-7

>  <UNII>
OOW3025SR1

>  <SYNONYMS>
Glutathione ester; Glutathione S-methyl ester; L-gamma-Glutamyl-S-methyl-L-cysteinylglycine

$$$$
