
 OpenBabel10282417123D

 59 62  0  0  1  0  0  0  0  0999 V2000
    1.0696    0.2133   -0.1311 N   0  0  0  0  0  0  0  0  0  0  0  0
    0.3427    0.7795    0.9088 C   0  0  0  0  0  0  0  0  0  0  0  0
   -0.8070    0.1633    1.4182 C   0  0  0  0  0  0  0  0  0  0  0  0
   -1.3574   -1.0849    1.1893 N   0  0  0  0  0  0  0  0  0  0  0  0
   -2.4323   -1.1085    1.9386 C   0  0  0  0  0  0  0  0  0  0  0  0
   -2.6371    0.0897    2.5540 N   0  0  0  0  0  0  0  0  0  0  0  0
   -3.7897    0.3308    3.3629 C   0  0  2  0  0  0  0  0  0  0  0  0
   -4.4630    1.5130    2.8780 O   0  0  0  0  0  0  0  0  0  0  0  0
   -4.7335    2.3502    4.0186 C   0  0  2  0  0  0  0  0  0  0  0  0
   -3.8872    3.6622    3.9141 C   0  0  0  0  0  0  0  0  0  0  0  0
   -2.7460    3.7989    4.7910 O   0  0  0  0  0  0  0  0  0  0  0  0
   -2.9539    3.5152    6.4848 P   0  0  1  0  0  0  0  0  0  0  0  0
   -4.4659    3.7884    6.1441 O   0  0  0  0  0  0  0  0  0  0  0  0
   -2.2003    2.2183    6.4065 O   0  0  0  0  0  0  0  0  0  0  0  0
   -3.1619    3.2316    8.1787 O   0  0  0  0  0  0  0  0  0  0  0  0
   -4.6789    2.4063    8.3335 P   0  0  1  0  0  0  0  0  0  0  0  0
   -5.5942    3.6056    7.7565 O   0  0  0  0  0  0  0  0  0  0  0  0
   -4.6315    0.9890    7.8097 O   0  0  0  0  0  0  0  0  0  0  0  0
   -5.7414    2.2782    9.5101 O   0  0  0  0  0  0  0  0  0  0  0  0
   -6.9069    3.1019    9.6969 C   0  0  0  0  0  0  0  0  0  0  0  0
   -6.4965    3.7559   10.9879 C   0  0  1  0  0  0  0  0  0  0  0  0
   -5.1088    3.3963   11.2819 O   0  0  0  0  0  0  0  0  0  0  0  0
   -4.2364    4.4783   11.0395 C   0  0  2  0  0  0  0  0  0  0  0  0
   -3.6457    4.7086   12.2925 O   0  0  0  0  0  0  0  0  0  0  0  0
   -5.0871    5.6578   10.5791 C   0  0  2  0  0  0  0  0  0  0  0  0
   -4.6573    6.8888   11.1315 O   0  0  0  0  0  0  0  0  0  0  0  0
   -6.5058    5.2670   10.9979 C   0  0  2  0  0  0  0  0  0  0  0  0
   -6.7490    5.6765   12.3446 O   0  0  0  0  0  0  0  0  0  0  0  0
   -4.5749    1.3700    5.1590 C   0  0  1  0  0  0  0  0  0  0  0  0
   -5.8343    0.7269    5.3882 O   0  0  0  0  0  0  0  0  0  0  0  0
   -3.4219    0.4821    4.7979 C   0  0  1  0  0  0  0  0  0  0  0  0
   -3.3688   -0.7403    5.5311 O   0  0  0  0  0  0  0  0  0  0  0  0
   -1.5661    0.9018    2.3059 C   0  0  0  0  0  0  0  0  0  0  0  0
   -1.2912    2.1348    2.7675 N   0  0  0  0  0  0  0  0  0  0  0  0
   -0.1198    2.5898    2.2766 C   0  0  0  0  0  0  0  0  0  0  0  0
    0.7120    1.9829    1.4012 N   0  0  0  0  0  0  0  0  0  0  0  0
    0.6852   -0.6754   -0.4360 H   0  0  0  0  0  0  0  0  0  0  0  0
    2.0677    0.2657    0.0108 H   0  0  0  0  0  0  0  0  0  0  0  0
   -3.1177   -1.9346    2.0779 H   0  0  0  0  0  0  0  0  0  0  0  0
   -4.4778   -0.5170    3.2975 H   0  0  0  0  0  0  0  0  0  0  0  0
   -5.7888    2.6515    3.9714 H   0  0  0  0  0  0  0  0  0  0  0  0
   -3.5678    3.8396    2.8848 H   0  0  0  0  0  0  0  0  0  0  0  0
   -4.5383    4.5301    4.1229 H   0  0  0  0  0  0  0  0  0  0  0  0
   -4.8714    4.6339    6.3881 H   0  0  0  0  0  0  0  0  0  0  0  0
   -5.5141    4.3998    8.3140 H   0  0  0  0  0  0  0  0  0  0  0  0
   -7.2138    3.8363    8.9237 H   0  0  0  0  0  0  0  0  0  0  0  0
   -7.8413    2.5219    9.7823 H   0  0  0  0  0  0  0  0  0  0  0  0
   -7.0919    3.2914   11.7732 H   0  0  0  0  0  0  0  0  0  0  0  0
   -3.4551    4.2314   10.3119 H   0  0  0  0  0  0  0  0  0  0  0  0
   -4.2647    4.2727   12.9023 H   0  0  0  0  0  0  0  0  0  0  0  0
   -5.0244    5.7657    9.4936 H   0  0  0  0  0  0  0  0  0  0  0  0
   -4.5648    6.7261   12.0919 H   0  0  0  0  0  0  0  0  0  0  0  0
   -7.2715    5.7149   10.3575 H   0  0  0  0  0  0  0  0  0  0  0  0
   -6.1850    5.1391   12.9281 H   0  0  0  0  0  0  0  0  0  0  0  0
   -4.3359    1.8005    6.0733 H   0  0  0  0  0  0  0  0  0  0  0  0
   -5.6874   -0.2224    5.5112 H   0  0  0  0  0  0  0  0  0  0  0  0
   -2.4402    0.9564    4.8496 H   0  0  0  0  0  0  0  0  0  0  0  0
   -3.8531   -0.6070    6.3715 H   0  0  0  0  0  0  0  0  0  0  0  0
    0.1867    3.5811    2.6037 H   0  0  0  0  0  0  0  0  0  0  0  0
  1  2  1  0  0  0  0
  1 37  1  0  0  0  0
  1 38  1  0  0  0  0
  2  3  2  0  0  0  0
  2 36  1  0  0  0  0
  3  4  1  0  0  0  0
  3 33  1  0  0  0  0
  4  5  2  0  0  0  0
  5  6  1  0  0  0  0
  5 39  1  0  0  0  0
  6 33  1  0  0  0  0
  7  6  1  0  0  0  0
  7  8  1  0  0  0  0
  7 31  1  0  0  0  0
  7 40  1  6  0  0  0
  8  9  1  0  0  0  0
  9 29  1  0  0  0  0
  9 41  1  6  0  0  0
  9 10  1  0  0  0  0
 10 11  1  0  0  0  0
 10 42  1  0  0  0  0
 10 43  1  0  0  0  0
 12 11  1  0  0  0  0
 12 13  1  0  0  0  0
 12 14  2  6  0  0  0
 12 15  1  0  0  0  0
 13 44  1  0  0  0  0
 16 15  1  0  0  0  0
 16 17  1  0  0  0  0
 16 18  2  6  0  0  0
 16 19  1  0  0  0  0
 17 45  1  0  0  0  0
 19 20  1  0  0  0  0
 20 46  1  0  0  0  0
 20 47  1  0  0  0  0
 21 20  1  0  0  0  0
 21 22  1  0  0  0  0
 21 27  1  0  0  0  0
 21 48  1  1  0  0  0
 22 23  1  0  0  0  0
 23 24  1  0  0  0  0
 23 25  1  0  0  0  0
 23 49  1  6  0  0  0
 24 50  1  0  0  0  0
 25 26  1  0  0  0  0
 25 27  1  0  0  0  0
 25 51  1  6  0  0  0
 26 52  1  0  0  0  0
 27 28  1  0  0  0  0
 27 53  1  6  0  0  0
 28 54  1  0  0  0  0
 29 30  1  0  0  0  0
 29 31  1  0  0  0  0
 29 55  1  1  0  0  0
 30 56  1  0  0  0  0
 31 32  1  0  0  0  0
 31 57  1  1  0  0  0
 32 58  1  0  0  0  0
 33 34  2  0  0  0  0
 34 35  1  0  0  0  0
 35 36  2  0  0  0  0
 35 59  1  0  0  0  0
M  END
>  <DRUGBANK_ID>
DB02059

>  <SECONDARY_ACCESSION_NUMBERS>
EXPT00544

>  <COMMON_NAME>
Adenosine-5-Diphosphoribose

>  <SYNONYMS>
ADPR

$$$$
