
 OpenBabel10282417123D

 52 51  0  0  1  0  0  0  0  0999 V2000
    5.3255    2.7382    7.2971 C   0  0  0  0  0  0  0  0  0  0  0  0
    3.9408    2.9892    6.7986 C   0  0  0  0  0  0  0  0  0  0  0  0
    3.7287    3.0269    5.3039 C   0  0  0  0  0  0  0  0  0  0  0  0
    2.9201    3.1372    7.6650 C   0  0  0  0  0  0  0  0  0  0  0  0
    3.0039    3.2729    9.1763 C   0  0  0  0  0  0  0  0  0  0  0  0
    2.6533    4.6693    9.7700 C   0  0  0  0  0  0  0  0  0  0  0  0
    1.1968    5.0789    9.6065 C   0  0  0  0  0  0  0  0  0  0  0  0
    0.3050    5.3276   10.7663 C   0  0  0  0  0  0  0  0  0  0  0  0
    0.7296    5.2360    8.3810 C   0  0  0  0  0  0  0  0  0  0  0  0
   -0.6053    5.5827    7.8336 C   0  0  0  0  0  0  0  0  0  0  0  0
   -0.4838    6.8456    6.9759 C   0  0  0  0  0  0  0  0  0  0  0  0
    0.3506    6.7435    5.6992 C   0  0  0  0  0  0  0  0  0  0  0  0
   -0.2442    7.0097    4.5540 C   0  0  0  0  0  0  0  0  0  0  0  0
    0.2788    6.7355    3.1923 C   0  0  0  0  0  0  0  0  0  0  0  0
   -0.4924    5.6570    2.7996 O   0  0  0  0  0  0  0  0  0  0  0  0
   -2.0327    5.9413    2.5811 P   0  0  2  0  0  0  0  0  0  0  0  0
   -1.9319    6.6477    1.1466 O   0  0  0  0  0  0  0  0  0  0  0  0
   -2.8325    6.8398    3.4705 O   0  0  0  0  0  0  0  0  0  0  0  0
   -2.5623    4.4436    2.6850 O   0  0  0  0  0  0  0  0  0  0  0  0
   -4.2522    4.2985    2.3443 P   0  0  0  0  0  0  0  0  0  0  0  0
   -4.1475    5.5369    1.2927 O   0  0  0  0  0  0  0  0  0  0  0  0
   -3.7829    3.1245    1.3031 O   0  0  0  0  0  0  0  0  0  0  0  0
   -5.7647    4.1687    2.0394 O   0  0  0  0  0  0  0  0  0  0  0  0
    1.7895    6.3530    5.7061 C   0  0  0  0  0  0  0  0  0  0  0  0
    2.4643    6.9654    6.6972 F   0  0  0  0  0  0  0  0  0  0  0  0
    1.8793    5.0170    5.8164 F   0  0  0  0  0  0  0  0  0  0  0  0
    2.4745    6.6511    4.5734 F   0  0  0  0  0  0  0  0  0  0  0  0
    6.0280    2.5456    6.4841 H   0  0  0  0  0  0  0  0  0  0  0  0
    5.3109    1.8437    7.9307 H   0  0  0  0  0  0  0  0  0  0  0  0
    5.6900    3.5880    7.8806 H   0  0  0  0  0  0  0  0  0  0  0  0
    2.9186    2.3575    4.9984 H   0  0  0  0  0  0  0  0  0  0  0  0
    3.4926    4.0378    4.9594 H   0  0  0  0  0  0  0  0  0  0  0  0
    4.6293    2.7469    4.7517 H   0  0  0  0  0  0  0  0  0  0  0  0
    1.9174    3.1773    7.2429 H   0  0  0  0  0  0  0  0  0  0  0  0
    2.3416    2.5209    9.6163 H   0  0  0  0  0  0  0  0  0  0  0  0
    4.0171    3.0325    9.5131 H   0  0  0  0  0  0  0  0  0  0  0  0
    2.9120    4.6670   10.8336 H   0  0  0  0  0  0  0  0  0  0  0  0
    3.3002    5.4340    9.3103 H   0  0  0  0  0  0  0  0  0  0  0  0
   -0.0892    6.3493   10.7014 H   0  0  0  0  0  0  0  0  0  0  0  0
   -0.5341    4.6260   10.7253 H   0  0  0  0  0  0  0  0  0  0  0  0
    0.8231    5.2156   11.7159 H   0  0  0  0  0  0  0  0  0  0  0  0
    1.4944    5.1034    7.6534 H   0  0  0  0  0  0  0  0  0  0  0  0
   -0.9897    4.7391    7.2444 H   0  0  0  0  0  0  0  0  0  0  0  0
   -1.3264    5.7513    8.6406 H   0  0  0  0  0  0  0  0  0  0  0  0
   -1.5235    7.1209    6.7319 H   0  0  0  0  0  0  0  0  0  0  0  0
   -0.0927    7.6745    7.5700 H   0  0  0  0  0  0  0  0  0  0  0  0
   -1.2761    7.3172    4.6568 H   0  0  0  0  0  0  0  0  0  0  0  0
    0.1725    7.5983    2.5360 H   0  0  0  0  0  0  0  0  0  0  0  0
    1.2895    6.3613    3.0842 H   0  0  0  0  0  0  0  0  0  0  0  0
   -1.8412    7.6128    1.3094 H   0  0  0  0  0  0  0  0  0  0  0  0
   -4.5347    6.3450    1.6829 H   0  0  0  0  0  0  0  0  0  0  0  0
   -3.0544    2.5949    1.6685 H   0  0  0  0  0  0  0  0  0  0  0  0
  1  2  1  0  0  0  0
  1 28  1  0  0  0  0
  1 29  1  0  0  0  0
  1 30  1  0  0  0  0
  2  3  1  0  0  0  0
  2  4  2  0  0  0  0
  3 31  1  0  0  0  0
  3 32  1  0  0  0  0
  3 33  1  0  0  0  0
  4  5  1  0  0  0  0
  4 34  1  0  0  0  0
  5  6  1  0  0  0  0
  5 35  1  0  0  0  0
  5 36  1  0  0  0  0
  6  7  1  0  0  0  0
  6 37  1  0  0  0  0
  6 38  1  0  0  0  0
  7  8  1  0  0  0  0
  7  9  2  0  0  0  0
  8 39  1  0  0  0  0
  8 40  1  0  0  0  0
  8 41  1  0  0  0  0
  9 10  1  0  0  0  0
  9 42  1  0  0  0  0
 10 11  1  0  0  0  0
 10 43  1  0  0  0  0
 10 44  1  0  0  0  0
 11 12  1  0  0  0  0
 11 45  1  0  0  0  0
 11 46  1  0  0  0  0
 12 13  2  0  0  0  0
 12 24  1  0  0  0  0
 13 14  1  0  0  0  0
 13 47  1  0  0  0  0
 14 15  1  0  0  0  0
 14 48  1  0  0  0  0
 14 49  1  0  0  0  0
 16 18  2  1  0  0  0
 16 19  1  0  0  0  0
 16 17  1  0  0  0  0
 16 15  1  0  0  0  0
 17 50  1  0  0  0  0
 19 20  1  0  0  0  0
 20 21  1  0  0  0  0
 20 22  1  0  0  0  0
 20 23  2  0  0  0  0
 21 51  1  0  0  0  0
 22 52  1  0  0  0  0
 24 25  1  0  0  0  0
 24 26  1  0  0  0  0
 24 27  1  0  0  0  0
M  END
>  <DRUGBANK_ID>
DB02808

>  <SECONDARY_ACCESSION_NUMBERS>
EXPT01427

>  <COMMON_NAME>
Trifluorofurnesyl Diphosphate

$$$$
