
 OpenBabel10282417233D

 47 47  0  0  0  0  0  0  0  0999 V2000
   -0.5121    3.0627   -0.3460 C   0  0  2  0  0  0  0  0  0  0  0  0
    0.2751    1.8138    0.3399 C   0  0  1  0  0  0  0  0  0  0  0  0
   -0.3176    0.4460    0.2252 C   0  0  2  0  0  0  0  0  0  0  0  0
   -1.7220    0.8978    0.3901 C   0  0  1  0  0  0  0  0  0  0  0  0
   -2.5447    2.6235    0.3597 C   0  0  2  0  0  0  0  0  0  0  0  0
   -1.6293    3.6390    0.4416 O   0  0  0  0  0  0  0  0  0  0  0  0
   -0.8791    2.7879   -1.8013 O   0  0  0  0  0  0  0  0  0  0  0  0
   -1.9950    1.6426   -2.2397 C   0  0  2  0  0  0  0  0  0  0  0  0
   -3.5978    1.4400   -1.1682 C   0  0  2  0  0  0  0  0  0  0  0  0
   -4.0071    2.8391   -1.6983 O   0  0  0  0  0  0  0  0  0  0  0  0
   -3.7602    0.8224    0.8797 C   0  0  0  0  0  0  0  0  0  0  0  0
   -3.1086   -0.4764    1.5918 O   0  0  0  0  0  0  0  0  0  0  0  0
   -1.1773    0.3415   -2.5133 C   0  0  2  0  0  0  0  0  0  0  0  0
    0.2688    0.4241   -2.6291 O   0  0  0  0  0  0  0  0  0  0  0  0
   -1.7152   -1.1542   -2.6869 C   0  0  1  0  0  0  0  0  0  0  0  0
   -0.9332   -2.1161   -1.9746 O   0  0  0  0  0  0  0  0  0  0  0  0
   -3.1544   -1.5530   -2.2962 C   0  0  0  0  0  0  0  0  0  0  0  0
   -3.9910   -0.4892   -2.6236 O   0  0  0  0  0  0  0  0  0  0  0  0
   -4.4928    2.8172    0.5757 C   0  0  0  0  0  0  0  0  0  0  0  0
   -5.2051    3.9089    0.1047 O   0  0  0  0  0  0  0  0  0  0  0  0
   -2.5160   -0.3053   -0.3572 O   0  0  0  0  0  0  0  0  0  0  0  0
    0.0985   -0.6630    1.0431 O   0  0  0  0  0  0  0  0  0  0  0  0
    1.5153    1.7103   -0.3169 O   0  0  0  0  0  0  0  0  0  0  0  0
   -2.1987    2.0201   -3.2793 H   0  0  0  0  0  0  0  0  0  0  0  0
    0.1828    3.9036   -0.2815 H   0  0  0  0  0  0  0  0  0  0  0  0
    0.3300    1.9695    1.4216 H   0  0  0  0  0  0  0  0  0  0  0  0
   -0.0614   -0.1539   -0.6362 H   0  0  0  0  0  0  0  0  0  0  0  0
   -1.6435    0.8360    1.4762 H   0  0  0  0  0  0  0  0  0  0  0  0
   -2.4082    2.6257   -0.6553 H   0  0  0  0  0  0  0  0  0  0  0  0
   -4.5085    1.0218   -1.5520 H   0  0  0  0  0  0  0  0  0  0  0  0
   -4.8185    2.7747   -2.2387 H   0  0  0  0  0  0  0  0  0  0  0  0
   -3.2743    1.5700    1.7047 H   0  0  0  0  0  0  0  0  0  0  0  0
   -4.7183    0.6347    1.2536 H   0  0  0  0  0  0  0  0  0  0  0  0
   -2.6059   -0.9784    0.8967 H   0  0  0  0  0  0  0  0  0  0  0  0
   -1.2534    0.3479   -1.5105 H   0  0  0  0  0  0  0  0  0  0  0  0
    0.5549    1.2534   -3.0461 H   0  0  0  0  0  0  0  0  0  0  0  0
   -1.6396   -1.2681   -3.7530 H   0  0  0  0  0  0  0  0  0  0  0  0
    0.0112   -1.9385   -2.0960 H   0  0  0  0  0  0  0  0  0  0  0  0
   -3.6876   -2.4004   -2.6890 H   0  0  0  0  0  0  0  0  0  0  0  0
   -3.1808   -1.9106   -1.2496 H   0  0  0  0  0  0  0  0  0  0  0  0
   -3.3702    0.2391   -2.7218 H   0  0  0  0  0  0  0  0  0  0  0  0
   -5.1724    1.9713    0.1243 H   0  0  0  0  0  0  0  0  0  0  0  0
   -4.7491    2.6881    1.6273 H   0  0  0  0  0  0  0  0  0  0  0  0
   -4.5047    4.5542    0.1606 H   0  0  0  0  0  0  0  0  0  0  0  0
   -3.5215   -0.3123   -0.5827 H   0  0  0  0  0  0  0  0  0  0  0  0
   -0.3771   -0.7323    1.8771 H   0  0  0  0  0  0  0  0  0  0  0  0
    1.2566    1.4290   -1.2209 H   0  0  0  0  0  0  0  0  0  0  0  0
  1  2  1  0  0  0  0
  1  6  1  0  0  0  0
  1 25  1  6  0  0  0
  1  7  1  0  0  0  0
  2  3  1  0  0  0  0
  2 23  1  0  0  0  0
  2 26  1  1  0  0  0
  3  4  1  0  0  0  0
  3 22  1  0  0  0  0
  3 27  1  6  0  0  0
  4  5  1  0  0  0  0
  4 21  1  0  0  0  0
  4 28  1  1  0  0  0
  5  6  1  0  0  0  0
  5 19  1  0  0  0  0
  5 29  1  6  0  0  0
  8 24  1  6  0  0  0
  8  9  1  0  0  0  0
  8  7  1  0  0  0  0
  9 30  1  6  0  0  0
  9 11  1  0  0  0  0
  9 10  1  0  0  0  0
 10 31  1  0  0  0  0
 11 12  1  0  0  0  0
 11 32  1  0  0  0  0
 11 33  1  0  0  0  0
 12 34  1  0  0  0  0
 13 15  1  0  0  0  0
 13 35  1  1  0  0  0
 13 14  1  0  0  0  0
 13  8  1  0  0  0  0
 14 36  1  0  0  0  0
 15 16  1  0  0  0  0
 15 17  1  0  0  0  0
 15 37  1  6  0  0  0
 16 38  1  0  0  0  0
 17 18  1  0  0  0  0
 17 39  1  0  0  0  0
 17 40  1  0  0  0  0
 18 41  1  0  0  0  0
 19 20  1  0  0  0  0
 19 42  1  0  0  0  0
 19 43  1  0  0  0  0
 20 44  1  0  0  0  0
 21 45  1  0  0  0  0
 22 46  1  0  0  0  0
 23 47  1  0  0  0  0
M  END
>  <DRUGBANK_ID>
DB16867

>  <COMMON_NAME>
Maltitol

>  <CAS_NUMBER>
585-88-6

>  <UNII>
D65DG142WK

>  <SYNONYMS>
Maltitol

$$$$
