
 OpenBabel10282417133D

 27 27  0  0  1  0  0  0  0  0999 V2000
    0.5190    1.9101    3.6782 C   0  0  0  0  0  0  0  0  0  0  0  0
    0.7695    1.2326    2.4545 O   0  0  0  0  0  0  0  0  0  0  0  0
    0.9886    2.0792    1.3188 C   0  0  2  0  0  0  0  0  0  0  0  0
    2.4003    2.3016    1.1460 O   0  0  0  0  0  0  0  0  0  0  0  0
    2.6846    3.0173   -0.0796 C   0  0  2  0  0  0  0  0  0  0  0  0
    4.2007    3.0658   -0.2971 C   0  0  0  0  0  0  0  0  0  0  0  0
    4.7108    1.7438   -0.4605 O   0  0  0  0  0  0  0  0  0  0  0  0
    2.0945    4.4257    0.0422 C   0  0  2  0  0  0  0  0  0  0  0  0
    2.6193    5.0916    1.2067 O   0  0  0  0  0  0  0  0  0  0  0  0
    0.5728    4.3134    0.1803 C   0  0  2  0  0  0  0  0  0  0  0  0
    0.0050    5.6154    0.3621 O   0  0  0  0  0  0  0  0  0  0  0  0
    0.2035    3.4189    1.3656 C   0  0  1  0  0  0  0  0  0  0  0  0
   -1.2107    3.2117    1.4317 O   0  0  0  0  0  0  0  0  0  0  0  0
   -0.4678    2.3840    3.6590 H   0  0  0  0  0  0  0  0  0  0  0  0
    1.2965    2.6525    3.8826 H   0  0  0  0  0  0  0  0  0  0  0  0
    0.5038    1.1834    4.4928 H   0  0  0  0  0  0  0  0  0  0  0  0
    0.6383    1.4858    0.4640 H   0  0  0  0  0  0  0  0  0  0  0  0
    2.2342    2.4668   -0.9166 H   0  0  0  0  0  0  0  0  0  0  0  0
    4.4408    3.6286   -1.2055 H   0  0  0  0  0  0  0  0  0  0  0  0
    4.7240    3.5213    0.5486 H   0  0  0  0  0  0  0  0  0  0  0  0
    4.4726    1.2591    0.3528 H   0  0  0  0  0  0  0  0  0  0  0  0
    2.3466    5.0481   -0.8222 H   0  0  0  0  0  0  0  0  0  0  0  0
    2.7204    4.4252    1.9151 H   0  0  0  0  0  0  0  0  0  0  0  0
    0.1355    3.9070   -0.7385 H   0  0  0  0  0  0  0  0  0  0  0  0
    0.4062    5.9851    1.1731 H   0  0  0  0  0  0  0  0  0  0  0  0
    0.4630    3.9710    2.2766 H   0  0  0  0  0  0  0  0  0  0  0  0
   -1.5010    2.7690    0.6110 H   0  0  0  0  0  0  0  0  0  0  0  0
  1  2  1  0  0  0  0
  1 14  1  0  0  0  0
  1 15  1  0  0  0  0
  1 16  1  0  0  0  0
  3  4  1  0  0  0  0
  3 12  1  0  0  0  0
  3 17  1  6  0  0  0
  3  2  1  0  0  0  0
  4  5  1  0  0  0  0
  5  6  1  0  0  0  0
  5  8  1  0  0  0  0
  5 18  1  6  0  0  0
  6  7  1  0  0  0  0
  6 19  1  0  0  0  0
  6 20  1  0  0  0  0
  7 21  1  0  0  0  0
  8  9  1  0  0  0  0
  8 10  1  0  0  0  0
  8 22  1  6  0  0  0
  9 23  1  0  0  0  0
 10 11  1  0  0  0  0
 10 12  1  0  0  0  0
 10 24  1  6  0  0  0
 11 25  1  0  0  0  0
 12 13  1  0  0  0  0
 12 26  1  1  0  0  0
 13 27  1  0  0  0  0
M  END
>  <DRUGBANK_ID>
DB04046

>  <SECONDARY_ACCESSION_NUMBERS>
EXPT02122; DB03324

>  <COMMON_NAME>
Methyl beta-galactoside

>  <UNII>
64RYD088RJ

$$$$
