KHP
 OpenBabel10282417133D

 32 33  0  0  0  0  0  0  0  0999 V2000
    0.9124   -0.0059    0.0646 O   0  0  0  0  0  0  0  0  0  0  0  0
    0.4736   -1.2671    0.5611 C   0  0  0  0  0  0  0  0  0  0  0  0
    0.9869   -2.4100   -0.3147 C   0  0  2  0  0  0  0  0  0  0  0  0
    0.1437   -2.5920   -1.4748 O   0  0  0  0  0  0  0  0  0  0  0  0
   -0.2748   -3.9675   -1.5063 C   0  0  2  0  0  0  0  0  0  0  0  0
    0.7094   -4.7325   -0.6125 C   0  0  2  0  0  0  0  0  0  0  0  0
    0.2483   -5.9935   -0.1466 O   0  0  0  0  0  0  0  0  0  0  0  0
    0.9984   -3.7207    0.4718 C   0  0  1  0  0  0  0  0  0  0  0  0
    2.2649   -3.9376    1.0948 O   0  0  0  0  0  0  0  0  0  0  0  0
   -0.5148   -4.4770   -2.8262 O   0  0  0  0  0  0  0  0  0  0  0  0
    0.5454   -4.5945   -3.6770 C   0  0  0  0  0  0  0  0  0  0  0  0
    1.6045   -5.4689   -3.4335 C   0  0  0  0  0  0  0  0  0  0  0  0
    2.6576   -5.5971   -4.3341 C   0  0  0  0  0  0  0  0  0  0  0  0
    2.5740   -4.9523   -5.5674 C   0  0  0  0  0  0  0  0  0  0  0  0
    3.6876   -5.0754   -6.5121 N   0  3  0  0  0  0  0  0  0  0  0  0
    3.5720   -4.5140   -7.6135 O   0  5  0  0  0  0  0  0  0  0  0  0
    4.6851   -5.7097   -6.1480 O   0  0  0  0  0  0  0  0  0  0  0  0
    1.4454   -4.1890   -5.8914 C   0  0  0  0  0  0  0  0  0  0  0  0
    0.4569   -3.9696   -4.9221 C   0  0  0  0  0  0  0  0  0  0  0  0
    1.9860   -2.1654   -0.6962 H   0  0  0  0  0  0  0  0  0  0  0  0
   -1.2627   -3.9916   -1.0253 H   0  0  0  0  0  0  0  0  0  0  0  0
    1.6697   -4.9067   -1.0877 H   0  0  0  0  0  0  0  0  0  0  0  0
    0.2356   -3.7608    1.2556 H   0  0  0  0  0  0  0  0  0  0  0  0
    1.8853   -0.0068    0.0766 H   0  0  0  0  0  0  0  0  0  0  0  0
    0.8377   -1.3621    1.5891 H   0  0  0  0  0  0  0  0  0  0  0  0
   -0.6208   -1.2522    0.5735 H   0  0  0  0  0  0  0  0  0  0  0  0
   -0.5638   -5.8732    0.3748 H   0  0  0  0  0  0  0  0  0  0  0  0
    2.9547   -3.9863    0.4062 H   0  0  0  0  0  0  0  0  0  0  0  0
    1.6263   -6.1075   -2.5581 H   0  0  0  0  0  0  0  0  0  0  0  0
    3.5010   -6.2292   -4.0674 H   0  0  0  0  0  0  0  0  0  0  0  0
    1.3205   -3.7670   -6.8865 H   0  0  0  0  0  0  0  0  0  0  0  0
   -0.3899   -3.3258   -5.1518 H   0  0  0  0  0  0  0  0  0  0  0  0
  1  2  1  0  0  0  0
  1 24  1  0  0  0  0
  2 25  1  0  0  0  0
  2 26  1  0  0  0  0
  3  2  1  0  0  0  0
  3  4  1  0  0  0  0
  3  8  1  0  0  0  0
  3 20  1  6  0  0  0
  4  5  1  0  0  0  0
  5  6  1  0  0  0  0
  5 10  1  0  0  0  0
  5 21  1  1  0  0  0
  6  7  1  0  0  0  0
  6  8  1  0  0  0  0
  6 22  1  6  0  0  0
  7 27  1  0  0  0  0
  8  9  1  0  0  0  0
  8 23  1  1  0  0  0
  9 28  1  0  0  0  0
 10 11  1  0  0  0  0
 11 12  2  0  0  0  0
 11 19  1  0  0  0  0
 12 13  1  0  0  0  0
 12 29  1  0  0  0  0
 13 14  2  0  0  0  0
 13 30  1  0  0  0  0
 14 15  1  0  0  0  0
 14 18  1  0  0  0  0
 15 16  1  0  0  0  0
 15 17  2  0  0  0  0
 18 19  2  0  0  0  0
 18 31  1  0  0  0  0
 19 32  1  0  0  0  0
M  CHG  2  15   1  16  -1
M  END
>  <DRUGBANK_ID>
DB03196

>  <SECONDARY_ACCESSION_NUMBERS>
EXPT01972

>  <COMMON_NAME>
4-Nitrophenyl-Ara

$$$$
