1408
 OpenBabel10282417113D

 55 55  0  0  1  0  0  0  0  0999 V2000
    1.0452   -0.0410   -0.0403 O   0  0  0  0  0  0  0  0  0  0  0  0
    3.0853    0.9076   -4.6235 O   0  0  0  0  0  0  0  0  0  0  0  0
    1.0843    5.1579   -3.2885 O   0  0  0  0  0  0  0  0  0  0  0  0
    3.6714    2.6693   -6.0502 O   0  0  0  0  0  0  0  0  0  0  0  0
    0.0861    5.6750   -1.2309 O   0  0  0  0  0  0  0  0  0  0  0  0
    2.5432    2.2986    0.9025 N   0  0  0  0  0  0  0  0  0  0  0  0
    4.6694    0.6695   -6.3620 N   0  0  0  0  0  0  0  0  0  0  0  0
    0.4461    7.3465   -2.7011 N   0  0  0  0  0  0  0  0  0  0  0  0
    3.0309    3.2207    1.9418 C   0  0  0  0  0  0  0  0  0  0  0  0
    1.0674    2.2055    0.8364 C   0  0  0  0  0  0  0  0  0  0  0  0
    0.5787    1.2776   -0.3116 C   0  0  3  0  0  0  0  0  0  0  0  0
    2.5696    2.7355    3.3232 C   0  0  0  0  0  0  0  0  0  0  0  0
    4.5699    3.1972    1.8995 C   0  0  0  0  0  0  0  0  0  0  0  0
    2.5641    4.6626    1.6846 C   0  0  0  0  0  0  0  0  0  0  0  0
    1.0391    1.7755   -1.6674 C   0  0  0  0  0  0  0  0  0  0  0  0
    0.7908    3.1279   -1.9286 C   0  0  0  0  0  0  0  0  0  0  0  0
    1.7299    1.0220   -2.6242 C   0  0  0  0  0  0  0  0  0  0  0  0
    2.2219    1.6656   -3.7722 C   0  0  0  0  0  0  0  0  0  0  0  0
    1.2457    3.7674   -3.0593 C   0  0  0  0  0  0  0  0  0  0  0  0
    1.9227    3.0189   -4.0063 C   0  0  0  0  0  0  0  0  0  0  0  0
    3.7912    1.4982   -5.6864 C   0  0  0  0  0  0  0  0  0  0  0  0
    0.5193    6.0174   -2.3331 C   0  0  0  0  0  0  0  0  0  0  0  0
    4.9845   -0.6932   -5.9968 C   0  0  0  0  0  0  0  0  0  0  0  0
    5.3268    1.2475   -7.5216 C   0  0  0  0  0  0  0  0  0  0  0  0
    0.9494    7.8993   -3.9385 C   0  0  0  0  0  0  0  0  0  0  0  0
   -0.1903    8.2343   -1.7463 C   0  0  0  0  0  0  0  0  0  0  0  0
    2.0128    0.0290   -0.0907 H   0  0  0  0  0  0  0  0  0  0  0  0
    2.9269    1.3733    1.0785 H   0  0  0  0  0  0  0  0  0  0  0  0
    0.6333    3.2009    0.7151 H   0  0  0  0  0  0  0  0  0  0  0  0
    0.6709    1.8044    1.7712 H   0  0  0  0  0  0  0  0  0  0  0  0
   -0.5184    1.2624   -0.2963 H   0  0  0  0  0  0  0  0  0  0  0  0
    2.8983    1.7046    3.5038 H   0  0  0  0  0  0  0  0  0  0  0  0
    2.9715    3.3676    4.1189 H   0  0  0  0  0  0  0  0  0  0  0  0
    1.4799    2.7605    3.4239 H   0  0  0  0  0  0  0  0  0  0  0  0
    4.9550    3.5458    0.9336 H   0  0  0  0  0  0  0  0  0  0  0  0
    4.9868    3.8502    2.6753 H   0  0  0  0  0  0  0  0  0  0  0  0
    4.9652    2.1893    2.0726 H   0  0  0  0  0  0  0  0  0  0  0  0
    2.8956    5.0183    0.7015 H   0  0  0  0  0  0  0  0  0  0  0  0
    1.4757    4.7648    1.7272 H   0  0  0  0  0  0  0  0  0  0  0  0
    2.9652    5.3422    2.4432 H   0  0  0  0  0  0  0  0  0  0  0  0
    0.2352    3.6699   -1.1843 H   0  0  0  0  0  0  0  0  0  0  0  0
    1.8904   -0.0408   -2.4610 H   0  0  0  0  0  0  0  0  0  0  0  0
    2.1970    3.5284   -4.9158 H   0  0  0  0  0  0  0  0  0  0  0  0
    4.7165   -1.3447   -6.8334 H   0  0  0  0  0  0  0  0  0  0  0  0
    6.0618   -0.7632   -5.8147 H   0  0  0  0  0  0  0  0  0  0  0  0
    4.4498   -1.0117   -5.1011 H   0  0  0  0  0  0  0  0  0  0  0  0
    4.5594    1.5695   -8.2355 H   0  0  0  0  0  0  0  0  0  0  0  0
    5.8950    2.1329   -7.2134 H   0  0  0  0  0  0  0  0  0  0  0  0
    5.9945    0.5310   -8.0025 H   0  0  0  0  0  0  0  0  0  0  0  0
    0.1142    8.3580   -4.4755 H   0  0  0  0  0  0  0  0  0  0  0  0
    1.6910    8.6666   -3.6967 H   0  0  0  0  0  0  0  0  0  0  0  0
    1.4124    7.1404   -4.5710 H   0  0  0  0  0  0  0  0  0  0  0  0
   -1.2132    7.8829   -1.5656 H   0  0  0  0  0  0  0  0  0  0  0  0
    0.3554    8.1888   -0.7966 H   0  0  0  0  0  0  0  0  0  0  0  0
   -0.2139    9.2619   -2.1101 H   0  0  0  0  0  0  0  0  0  0  0  0
  1 11  1  0  0  0  0
  1 27  1  0  0  0  0
  2 18  1  0  0  0  0
  2 21  1  0  0  0  0
  3 19  1  0  0  0  0
  3 22  1  0  0  0  0
  4 21  2  0  0  0  0
  5 22  2  0  0  0  0
  6  9  1  0  0  0  0
  6 10  1  0  0  0  0
  6 28  1  0  0  0  0
  7 21  1  0  0  0  0
  7 23  1  0  0  0  0
  7 24  1  0  0  0  0
  8 22  1  0  0  0  0
  8 25  1  0  0  0  0
  8 26  1  0  0  0  0
  9 12  1  0  0  0  0
  9 13  1  0  0  0  0
  9 14  1  0  0  0  0
 10 11  1  0  0  0  0
 10 29  1  0  0  0  0
 10 30  1  0  0  0  0
 11 15  1  0  0  0  0
 11 31  1  0  0  0  0
 12 32  1  0  0  0  0
 12 33  1  0  0  0  0
 12 34  1  0  0  0  0
 13 35  1  0  0  0  0
 13 36  1  0  0  0  0
 13 37  1  0  0  0  0
 14 38  1  0  0  0  0
 14 39  1  0  0  0  0
 14 40  1  0  0  0  0
 15 16  2  0  0  0  0
 15 17  1  0  0  0  0
 16 19  1  0  0  0  0
 16 41  1  0  0  0  0
 17 18  2  0  0  0  0
 17 42  1  0  0  0  0
 18 20  1  0  0  0  0
 19 20  2  0  0  0  0
 20 43  1  0  0  0  0
 23 44  1  0  0  0  0
 23 45  1  0  0  0  0
 23 46  1  0  0  0  0
 24 47  1  0  0  0  0
 24 48  1  0  0  0  0
 24 49  1  0  0  0  0
 25 50  1  0  0  0  0
 25 51  1  0  0  0  0
 25 52  1  0  0  0  0
 26 53  1  0  0  0  0
 26 54  1  0  0  0  0
 26 55  1  0  0  0  0
M  END
>  <DRUGBANK_ID>
DB01408

>  <COMMON_NAME>
Bambuterol

>  <CAS_NUMBER>
81732-65-2

>  <UNII>
Y1850G1OVC

>  <SYNONYMS>
(±)-5-(2-(tert-butylamino)-1-hydroxyethyl)-m-phenylene bis(dimethylcarbamate); bambutérol; Bambuterol; Bambuterolum

$$$$
