
 OpenBabel10282417153D

 36 39  0  0  0  0  0  0  0  0999 V2000
   -0.9194    2.0261   -1.0642 C   0  0  3  0  0  0  0  0  0  0  0  0
   -0.0420    0.9865   -0.6968 C   0  0  3  0  0  0  0  0  0  0  0  0
   -1.7262    0.7440    0.0688 C   0  0  0  0  0  0  0  0  0  0  0  0
   -0.1232   -1.4210   -0.5438 O   0  0  0  0  0  0  0  0  0  0  0  0
   -1.2661   -0.7923    0.1114 C   0  0  0  0  0  0  0  0  0  0  0  0
    1.2622    0.4674   -0.3189 C   0  0  0  0  0  0  0  0  0  0  0  0
    1.1453   -0.8922   -0.3888 C   0  0  0  0  0  0  0  0  0  0  0  0
   -1.1578    1.2358   -3.2445 N   0  0  0  0  0  0  0  0  0  0  0  0
   -0.0924    1.8209   -2.5220 C   0  0  0  0  0  0  0  0  0  0  0  0
   -1.3021    0.3519   -2.0946 C   0  0  0  0  0  0  0  0  0  0  0  0
   -2.9518    1.1301    0.5540 C   0  0  0  0  0  0  0  0  0  0  0  0
   -2.1788   -1.7572    0.4372 C   0  0  0  0  0  0  0  0  0  0  0  0
   -3.7669    0.0813    0.9736 C   0  0  0  0  0  0  0  0  0  0  0  0
   -3.4126   -1.3036    0.8838 C   0  0  0  0  0  0  0  0  0  0  0  0
   -5.3405    0.4843    1.5409 Cl  0  0  0  0  0  0  0  0  0  0  0  0
   -0.7856    0.4936   -4.4306 C   0  0  0  0  0  0  0  0  0  0  0  0
    2.3995    1.0274    0.3298 C   0  0  0  0  0  0  0  0  0  0  0  0
    2.2755   -1.6764   -0.2855 C   0  0  0  0  0  0  0  0  0  0  0  0
    3.4978    0.2043    0.6219 C   0  0  0  0  0  0  0  0  0  0  0  0
    3.4580   -1.1351    0.2350 C   0  0  0  0  0  0  0  0  0  0  0  0
   -1.0412    3.0273   -0.6869 H   0  0  0  0  0  0  0  0  0  0  0  0
   -0.0512    1.5993    0.2740 H   0  0  0  0  0  0  0  0  0  0  0  0
    0.4927    2.6637   -2.8722 H   0  0  0  0  0  0  0  0  0  0  0  0
    0.6983    1.0075   -2.5661 H   0  0  0  0  0  0  0  0  0  0  0  0
   -2.3740    0.6539   -1.8757 H   0  0  0  0  0  0  0  0  0  0  0  0
   -1.5429   -0.7050   -2.2837 H   0  0  0  0  0  0  0  0  0  0  0  0
   -3.2789    2.1582    0.4750 H   0  0  0  0  0  0  0  0  0  0  0  0
   -1.9567   -2.8057    0.2438 H   0  0  0  0  0  0  0  0  0  0  0  0
   -4.1447   -2.0603    1.1437 H   0  0  0  0  0  0  0  0  0  0  0  0
   -0.2832   -0.4560   -4.2142 H   0  0  0  0  0  0  0  0  0  0  0  0
   -1.6850    0.2666   -5.0164 H   0  0  0  0  0  0  0  0  0  0  0  0
   -0.1324    1.1068   -5.0528 H   0  0  0  0  0  0  0  0  0  0  0  0
    2.4449    2.0573    0.6945 H   0  0  0  0  0  0  0  0  0  0  0  0
    2.2248   -2.7158   -0.5751 H   0  0  0  0  0  0  0  0  0  0  0  0
    4.3830    0.5820    1.1406 H   0  0  0  0  0  0  0  0  0  0  0  0
    4.3196   -1.7781    0.3948 H   0  0  0  0  0  0  0  0  0  0  0  0
  1  3  1  0  0  0  0
  1  9  1  0  0  0  0
  1 21  1  0  0  0  0
  2  1  1  0  0  0  0
  2  6  1  0  0  0  0
  2 10  1  0  0  0  0
  2 22  1  0  0  0  0
  4  5  1  0  0  0  0
  5  3  1  0  0  0  0
  7  6  2  0  0  0  0
  7  4  1  0  0  0  0
  8  9  1  0  0  0  0
  8 10  1  0  0  0  0
  9 23  1  0  0  0  0
  9 24  1  0  0  0  0
 10 25  1  0  0  0  0
 10 26  1  0  0  0  0
 11  3  2  0  0  0  0
 11 27  1  0  0  0  0
 12  5  2  0  0  0  0
 12 28  1  0  0  0  0
 13 11  1  0  0  0  0
 14 12  1  0  0  0  0
 14 13  2  0  0  0  0
 14 29  1  0  0  0  0
 15 13  1  0  0  0  0
 16  8  1  0  0  0  0
 16 30  1  0  0  0  0
 16 31  1  0  0  0  0
 16 32  1  0  0  0  0
 17  6  1  0  0  0  0
 17 33  1  0  0  0  0
 18  7  1  0  0  0  0
 18 34  1  0  0  0  0
 19 17  2  0  0  0  0
 19 20  1  0  0  0  0
 19 35  1  0  0  0  0
 20 18  2  0  0  0  0
 20 36  1  0  0  0  0
M  END
>  <DRUGBANK_ID>
DB06216

>  <COMMON_NAME>
Asenapine

>  <CAS_NUMBER>
65576-45-6

>  <UNII>
JKZ19V908O

>  <SYNONYMS>
Asenapina; Asenapine

$$$$
