
 OpenBabel10282417143D

 98101  0  0  0  0  0  0  0  0999 V2000
    7.7126    1.8313   11.7104 C   0  0  0  0  0  0  0  0  0  0  0  0
    5.8060    2.1070   13.4719 C   0  0  0  0  0  0  0  0  0  0  0  0
    3.9789    2.2588   14.9447 C   0  0  0  0  0  0  0  0  0  0  0  0
    1.8425    1.6849   16.0892 C   0  0  1  0  0  0  0  0  0  0  0  0
    2.3425    0.8426   16.8034 N   0  0  0  0  0  0  0  0  0  0  0  0
    2.4384    0.6978   15.3070 C   0  0  0  0  0  0  0  0  0  0  0  0
    3.9069    0.4889   14.9724 C   0  0  2  0  0  0  0  0  0  0  0  0
    3.5909    1.7559   13.4516 N   0  0  0  0  0  0  0  0  0  0  0  0
    4.1901    1.8735   12.4614 C   0  0  0  0  0  0  0  0  0  0  0  0
    5.1248    2.6562   11.5141 C   0  0  0  0  0  0  0  0  0  0  0  0
    5.8281    2.0017   10.2294 C   0  0  1  0  0  0  0  0  0  0  0  0
    6.9471    2.7604    9.9635 N   0  0  0  0  0  0  0  0  0  0  0  0
    7.0847    3.6312    8.9654 C   0  0  0  0  0  0  0  0  0  0  0  0
    8.3784    4.3521    8.6425 C   0  0  2  0  0  0  0  0  0  0  0  0
    8.1517    5.8096    8.5001 C   0  0  0  0  0  0  0  0  0  0  0  0
    8.1863    6.0969    7.0028 C   0  0  0  0  0  0  0  0  0  0  0  0
    8.4482    4.7792    6.2795 C   0  0  0  0  0  0  0  0  0  0  0  0
    9.0831    4.0574    7.2523 N   0  0  0  0  0  0  0  0  0  0  0  0
   10.3464    3.2205    7.1073 C   0  0  0  0  0  0  0  0  0  0  0  0
   10.9432    3.4014    8.4143 C   0  0  2  0  0  0  0  0  0  0  0  0
   11.4421    2.2964    8.5559 C   0  0  0  0  0  0  0  0  0  0  0  0
    9.5436    1.7933   10.0181 N   0  0  0  0  0  0  0  0  0  0  0  0
    8.9152    1.1923   10.6811 O   0  0  0  0  0  0  0  0  0  0  0  0
    0.3205    0.5781   17.5266 C   0  0  0  0  0  0  0  0  0  0  0  0
   -1.6031    0.3454   17.8188 C   0  0  0  0  0  0  0  0  0  0  0  0
   -2.2487    1.2945   17.0709 C   0  0  0  0  0  0  0  0  0  0  0  0
   -3.6363    1.4295   17.0496 C   0  0  0  0  0  0  0  0  0  0  0  0
   -4.4134    0.5661   17.8063 C   0  0  0  0  0  0  0  0  0  0  0  0
   -3.8134   -0.3984   18.6070 C   0  0  0  0  0  0  0  0  0  0  0  0
   -2.4171   -0.5259   18.6205 C   0  0  0  0  0  0  0  0  0  0  0  0
   -5.7776    0.6155   17.8234 O   0  0  0  0  0  0  0  0  0  0  0  0
    1.7400    1.4413   14.4083 O   0  0  0  0  0  0  0  0  0  0  0  0
    4.8513   -0.2540   14.3252 C   0  0  0  0  0  0  0  0  0  0  0  0
    4.4867   -0.6551   13.0302 C   0  0  0  0  0  0  0  0  0  0  0  0
    3.1619   -1.1804   12.7494 C   0  0  0  0  0  0  0  0  0  0  0  0
    2.3724   -1.1753   11.5304 C   0  0  0  0  0  0  0  0  0  0  0  0
    2.4107   -0.3079   10.4943 C   0  0  0  0  0  0  0  0  0  0  0  0
    3.7611    1.1042   10.8389 C   0  0  0  0  0  0  0  0  0  0  0  0
    5.0576    0.2498   12.0643 C   0  0  0  0  0  0  0  0  0  0  0  0
    3.3529    0.9983   12.6547 O   0  0  0  0  0  0  0  0  0  0  0  0
    5.8235    3.4992   12.0442 O   0  0  0  0  0  0  0  0  0  0  0  0
    6.0506    0.4417   10.3975 C   0  0  0  0  0  0  0  0  0  0  0  0
    4.6266   -0.5542   10.3513 C   0  0  0  0  0  0  0  0  0  0  0  0
    3.9165    0.0377    9.0664 C   0  0  0  0  0  0  0  0  0  0  0  0
    4.4270   -0.7640    8.2472 N   0  0  0  0  0  0  0  0  0  0  0  0
    3.7325   -1.7477    7.6526 C   0  0  0  0  0  0  0  0  0  0  0  0
    4.4085   -2.4379    6.6792 N   0  0  0  0  0  0  0  0  0  0  0  0
    2.5049   -2.0401    7.9329 N   0  0  0  0  0  0  0  0  0  0  0  0
    6.1123    4.3529    8.8332 O   0  0  0  0  0  0  0  0  0  0  0  0
   10.7381    2.9666    5.9936 O   0  0  0  0  0  0  0  0  0  0  0  0
    9.7849    2.9143    8.6725 N   0  0  0  0  0  0  0  0  0  0  0  0
    8.8092    1.9643    7.7984 C   0  0  0  0  0  0  0  0  0  0  0  0
    7.7091    1.6598    8.1540 O   0  0  0  0  0  0  0  0  0  0  0  0
    8.9748    4.1383    9.5572 H   0  0  0  0  0  0  0  0  0  0  0  0
    4.6738    2.2030   14.7426 H   0  0  0  0  0  0  0  0  0  0  0  0
    2.3985    2.7151   15.5600 H   0  0  0  0  0  0  0  0  0  0  0  0
    0.4056    0.8136   15.9472 H   0  0  0  0  0  0  0  0  0  0  0  0
    2.6823    1.4880   17.4581 H   0  0  0  0  0  0  0  0  0  0  0  0
    4.5610    0.6369   15.9160 H   0  0  0  0  0  0  0  0  0  0  0  0
    3.8770    2.9650   13.6815 H   0  0  0  0  0  0  0  0  0  0  0  0
    5.2867    2.1554    9.3008 H   0  0  0  0  0  0  0  0  0  0  0  0
    7.6713    2.9197   10.6003 H   0  0  0  0  0  0  0  0  0  0  0  0
    8.4905    6.4438    9.3243 H   0  0  0  0  0  0  0  0  0  0  0  0
    7.2242    6.2202    8.8196 H   0  0  0  0  0  0  0  0  0  0  0  0
    8.5348    7.1267    7.0178 H   0  0  0  0  0  0  0  0  0  0  0  0
    7.4622    6.3050    6.2202 H   0  0  0  0  0  0  0  0  0  0  0  0
    9.0270    4.9278    5.3951 H   0  0  0  0  0  0  0  0  0  0  0  0
    7.5102    4.2872    5.9472 H   0  0  0  0  0  0  0  0  0  0  0  0
   11.6550    2.8708    9.2551 H   0  0  0  0  0  0  0  0  0  0  0  0
   12.9849    3.1480    8.0657 H   0  0  0  0  0  0  0  0  0  0  0  0
   12.2452    3.4820    7.3968 H   0  0  0  0  0  0  0  0  0  0  0  0
   10.3433    1.5504    8.5648 H   0  0  0  0  0  0  0  0  0  0  0  0
    0.1905   -0.7842   17.7373 H   0  0  0  0  0  0  0  0  0  0  0  0
    0.2062    0.5118   18.9110 H   0  0  0  0  0  0  0  0  0  0  0  0
   -1.6228    1.9414   16.4869 H   0  0  0  0  0  0  0  0  0  0  0  0
   -4.0873    2.2073   16.4467 H   0  0  0  0  0  0  0  0  0  0  0  0
   -4.4224   -1.0461   19.2214 H   0  0  0  0  0  0  0  0  0  0  0  0
   -1.9745   -1.2854   19.2382 H   0  0  0  0  0  0  0  0  0  0  0  0
   -6.2064    1.2866   17.2608 H   0  0  0  0  0  0  0  0  0  0  0  0
    5.8652    0.0980   14.2689 H   0  0  0  0  0  0  0  0  0  0  0  0
    4.6773   -1.0852   14.8644 H   0  0  0  0  0  0  0  0  0  0  0  0
    2.8212   -1.7279   13.5192 H   0  0  0  0  0  0  0  0  0  0  0  0
    1.5756   -1.7092   11.3691 H   0  0  0  0  0  0  0  0  0  0  0  0
    1.8589   -0.8247    9.1716 H   0  0  0  0  0  0  0  0  0  0  0  0
    4.2218    1.5847   10.0329 H   0  0  0  0  0  0  0  0  0  0  0  0
    5.8179    1.0244   12.0977 H   0  0  0  0  0  0  0  0  0  0  0  0
    6.4685   -0.1533    9.7589 H   0  0  0  0  0  0  0  0  0  0  0  0
    6.6640    0.1682   11.3957 H   0  0  0  0  0  0  0  0  0  0  0  0
    4.4890   -1.3415   11.0419 H   0  0  0  0  0  0  0  0  0  0  0  0
    3.6837   -0.1553   11.4510 H   0  0  0  0  0  0  0  0  0  0  0  0
    3.2845    0.4574    9.6041 H   0  0  0  0  0  0  0  0  0  0  0  0
    3.5665    1.0982    8.8779 H   0  0  0  0  0  0  0  0  0  0  0  0
    5.3714   -0.4365    8.1729 H   0  0  0  0  0  0  0  0  0  0  0  0
    3.9544   -3.1962    6.1529 H   0  0  0  0  0  0  0  0  0  0  0  0
    5.3796   -2.2392    6.4351 H   0  0  0  0  0  0  0  0  0  0  0  0
    2.0017   -2.7674    7.4472 H   0  0  0  0  0  0  0  0  0  0  0  0
    9.8132    2.7225    9.7655 H   0  0  0  0  0  0  0  0  0  0  0  0
    9.0394    2.0296    6.7103 H   0  0  0  0  0  0  0  0  0  0  0  0
  1  2  1  0  0  0  0
  1 22  1  0  0  0  0
  1 23  2  0  0  0  0
  2  3  2  0  0  0  0
  2 55  1  0  0  0  0
  3  4  1  0  0  0  0
  3 56  1  0  0  0  0
  4  5  1  0  0  0  0
  4 24  1  0  0  0  0
  4 57  1  6  0  0  0
  5  6  1  0  0  0  0
  5 58  1  0  0  0  0
  6  7  1  0  0  0  0
  6 32  2  0  0  0  0
  7  8  1  0  0  0  0
  7 59  1  1  0  0  0
  7 33  1  0  0  0  0
  8  9  1  0  0  0  0
  8 60  1  0  0  0  0
  9 10  1  0  0  0  0
  9 40  2  0  0  0  0
 10 11  1  0  0  0  0
 10 41  2  0  0  0  0
 11 12  1  0  0  0  0
 11 42  1  0  0  0  0
 11 61  1  6  0  0  0
 12 13  1  0  0  0  0
 12 62  1  0  0  0  0
 13 14  1  0  0  0  0
 13 49  2  0  0  0  0
 14 15  1  0  0  0  0
 14 18  1  0  0  0  0
 14 54  1  1  0  0  0
 15 16  1  0  0  0  0
 15 63  1  0  0  0  0
 15 64  1  0  0  0  0
 16 17  1  0  0  0  0
 16 65  1  0  0  0  0
 16 66  1  0  0  0  0
 17 18  1  0  0  0  0
 17 67  1  0  0  0  0
 17 68  1  0  0  0  0
 18 19  1  0  0  0  0
 19 20  1  0  0  0  0
 19 50  2  0  0  0  0
 20 21  1  0  0  0  0
 20 69  1  1  0  0  0
 20 51  1  0  0  0  0
 21 22  1  0  0  0  0
 21 70  1  0  0  0  0
 21 71  1  0  0  0  0
 22 72  1  0  0  0  0
 24 25  1  0  0  0  0
 24 73  1  0  0  0  0
 24 74  1  0  0  0  0
 25 26  2  0  0  0  0
 25 30  1  0  0  0  0
 26 27  1  0  0  0  0
 26 75  1  0  0  0  0
 27 28  2  0  0  0  0
 27 76  1  0  0  0  0
 28 29  1  0  0  0  0
 28 31  1  0  0  0  0
 29 30  2  0  0  0  0
 29 77  1  0  0  0  0
 30 78  1  0  0  0  0
 31 79  1  0  0  0  0
 33 34  1  0  0  0  0
 33 80  1  0  0  0  0
 33 81  1  0  0  0  0
 34 35  2  0  0  0  0
 34 39  1  0  0  0  0
 35 36  1  0  0  0  0
 35 82  1  0  0  0  0
 36 37  2  0  0  0  0
 36 83  1  0  0  0  0
 37 38  1  0  0  0  0
 37 84  1  0  0  0  0
 38 39  2  0  0  0  0
 38 85  1  0  0  0  0
 39 86  1  0  0  0  0
 42 43  1  0  0  0  0
 42 87  1  0  0  0  0
 42 88  1  0  0  0  0
 43 44  1  0  0  0  0
 43 89  1  0  0  0  0
 43 90  1  0  0  0  0
 44 45  1  0  0  0  0
 44 91  1  0  0  0  0
 44 92  1  0  0  0  0
 45 46  1  0  0  0  0
 45 93  1  0  0  0  0
 46 47  1  0  0  0  0
 46 48  2  0  0  0  0
 47 94  1  0  0  0  0
 47 95  1  0  0  0  0
 48 96  1  0  0  0  0
 51 52  1  0  0  0  0
 51 97  1  0  0  0  0
 52 53  2  0  0  0  0
 52 98  1  0  0  0  0
M  END
>  <DRUGBANK_ID>
DB04269

>  <SECONDARY_ACCESSION_NUMBERS>
EXPT01047

>  <COMMON_NAME>
Cyclotheonamide A

>  <CAS_NUMBER>
129033-04-1

>  <UNII>
2Y1TEH8EW7

$$$$
