S80
 OpenBabel10282417123D

 66 66  0  0  0  0  0  0  0  0999 V2000
    1.0136    0.0618   -0.2570 C   0  0  0  0  0  0  0  0  0  0  0  0
    2.0173    0.2996   -0.9646 O   0  0  0  0  0  0  0  0  0  0  0  0
    0.4189   -1.1727   -0.2645 N   0  0  0  0  0  0  0  0  0  0  0  0
   -0.9875   -1.3249    0.0699 C   0  0  0  0  0  0  0  0  0  0  0  0
   -1.9957   -0.5168   -0.6814 C   0  0  0  0  0  0  0  0  0  0  0  0
   -2.0789    0.9062   -0.1424 C   0  0  0  0  0  0  0  0  0  0  0  0
   -0.7903    1.7264   -0.2796 C   0  0  0  0  0  0  0  0  0  0  0  0
    0.3503    1.1839    0.5752 C   0  0  2  0  0  0  0  0  0  0  0  0
    1.3918    2.1618    0.9428 N   0  0  0  0  0  0  0  0  0  0  0  0
    2.3990    1.5875    1.7022 C   0  0  0  0  0  0  0  0  0  0  0  0
    3.6927    2.3391    1.9288 C   0  0  1  0  0  0  0  0  0  0  0  0
    3.8645    2.8983    3.3646 C   0  0  1  0  0  0  0  0  0  0  0  0
    3.7449    1.8156    4.4477 C   0  0  0  0  0  0  0  0  0  0  0  0
    4.7323    1.4156    5.0674 O   0  0  0  0  0  0  0  0  0  0  0  0
    2.5321    1.2542    4.6955 N   0  0  0  0  0  0  0  0  0  0  0  0
    1.3005    1.8601    4.4024 O   0  0  0  0  0  0  0  0  0  0  0  0
    5.2563    3.5978    3.4595 C   0  0  0  0  0  0  0  0  0  0  0  0
    5.4301    4.7426    2.4472 C   0  0  0  0  0  0  0  0  0  0  0  0
    4.3909    5.8349    2.6594 C   0  0  0  0  0  0  0  0  0  0  0  0
    4.5216    6.3984    3.9550 O   0  0  0  0  0  0  0  0  0  0  0  0
    4.8288    1.3326    1.6095 C   0  0  0  0  0  0  0  0  0  0  0  0
    4.6970    0.7483    0.2122 C   0  0  0  0  0  0  0  0  0  0  0  0
    4.7276    1.8397   -0.8543 C   0  0  0  0  0  0  0  0  0  0  0  0
    5.7149   -0.3403   -0.0486 C   0  0  0  0  0  0  0  0  0  0  0  0
    2.2362    0.4710    2.1966 O   0  0  0  0  0  0  0  0  0  0  0  0
    1.2211   -2.3765   -0.6050 C   0  0  0  0  0  0  0  0  0  0  0  0
    1.4400   -3.4617    0.5040 C   0  0  0  0  0  0  0  0  0  0  0  0
    0.2560   -4.0940    1.0218 O   0  0  0  0  0  0  0  0  0  0  0  0
   -0.3841   -3.2561    1.9687 C   0  0  0  0  0  0  0  0  0  0  0  0
   -0.0270    0.8052    1.5353 H   0  0  0  0  0  0  0  0  0  0  0  0
    3.7037    3.1821    1.2313 H   0  0  0  0  0  0  0  0  0  0  0  0
    3.0775    3.6293    3.5802 H   0  0  0  0  0  0  0  0  0  0  0  0
   -1.1355   -1.0302    1.1156 H   0  0  0  0  0  0  0  0  0  0  0  0
   -1.2512   -2.3665   -0.1118 H   0  0  0  0  0  0  0  0  0  0  0  0
   -2.9618   -1.0020   -0.4785 H   0  0  0  0  0  0  0  0  0  0  0  0
   -1.8015   -0.5750   -1.7526 H   0  0  0  0  0  0  0  0  0  0  0  0
   -2.3707    0.8748    0.9182 H   0  0  0  0  0  0  0  0  0  0  0  0
   -2.8902    1.4044   -0.6767 H   0  0  0  0  0  0  0  0  0  0  0  0
   -1.0117    2.7594   -0.0039 H   0  0  0  0  0  0  0  0  0  0  0  0
   -0.4874    1.7163   -1.3334 H   0  0  0  0  0  0  0  0  0  0  0  0
    1.6520    2.8503    0.2437 H   0  0  0  0  0  0  0  0  0  0  0  0
    2.4988    0.4161    5.2664 H   0  0  0  0  0  0  0  0  0  0  0  0
    1.3466    2.0863    3.4601 H   0  0  0  0  0  0  0  0  0  0  0  0
    5.4270    3.9613    4.4777 H   0  0  0  0  0  0  0  0  0  0  0  0
    6.0727    2.8797    3.3153 H   0  0  0  0  0  0  0  0  0  0  0  0
    6.4385    5.1580    2.5539 H   0  0  0  0  0  0  0  0  0  0  0  0
    5.3750    4.3751    1.4150 H   0  0  0  0  0  0  0  0  0  0  0  0
    4.5171    6.6315    1.9232 H   0  0  0  0  0  0  0  0  0  0  0  0
    3.3711    5.4547    2.5446 H   0  0  0  0  0  0  0  0  0  0  0  0
    4.4325    5.6904    4.6161 H   0  0  0  0  0  0  0  0  0  0  0  0
    5.8216    1.7788    1.6927 H   0  0  0  0  0  0  0  0  0  0  0  0
    4.7912    0.5123    2.3397 H   0  0  0  0  0  0  0  0  0  0  0  0
    3.7580    0.2138    0.1926 H   0  0  0  0  0  0  0  0  0  0  0  0
    5.6829    2.3727   -0.8288 H   0  0  0  0  0  0  0  0  0  0  0  0
    4.5786    1.4180   -1.8501 H   0  0  0  0  0  0  0  0  0  0  0  0
    3.9354    2.5832   -0.7179 H   0  0  0  0  0  0  0  0  0  0  0  0
    5.5945   -1.1432    0.6878 H   0  0  0  0  0  0  0  0  0  0  0  0
    5.5378   -0.7715   -1.0385 H   0  0  0  0  0  0  0  0  0  0  0  0
    6.7339    0.0444    0.0071 H   0  0  0  0  0  0  0  0  0  0  0  0
    0.7585   -2.8165   -1.4914 H   0  0  0  0  0  0  0  0  0  0  0  0
    2.2321   -2.0513   -0.8868 H   0  0  0  0  0  0  0  0  0  0  0  0
    2.0426   -4.2676    0.0671 H   0  0  0  0  0  0  0  0  0  0  0  0
    2.0152   -3.0587    1.3457 H   0  0  0  0  0  0  0  0  0  0  0  0
   -0.0435   -3.3127    2.9978 H   0  0  0  0  0  0  0  0  0  0  0  0
   -0.0514   -2.2592    1.7664 H   0  0  0  0  0  0  0  0  0  0  0  0
   -1.4755   -3.3321    1.8667 H   0  0  0  0  0  0  0  0  0  0  0  0
  1  2  2  0  0  0  0
  1  3  1  0  0  0  0
  1  8  1  0  0  0  0
  3  4  1  0  0  0  0
  3 26  1  0  0  0  0
  4  5  1  0  0  0  0
  4 33  1  0  0  0  0
  4 34  1  0  0  0  0
  5  6  1  0  0  0  0
  5 35  1  0  0  0  0
  5 36  1  0  0  0  0
  6  7  1  0  0  0  0
  6 37  1  0  0  0  0
  6 38  1  0  0  0  0
  7  8  1  0  0  0  0
  7 39  1  0  0  0  0
  7 40  1  0  0  0  0
  8 30  1  1  0  0  0
  8  9  1  0  0  0  0
  9 10  1  0  0  0  0
  9 41  1  0  0  0  0
 10 11  1  0  0  0  0
 10 25  2  0  0  0  0
 11 12  1  0  0  0  0
 11 21  1  0  0  0  0
 11 31  1  6  0  0  0
 12 13  1  0  0  0  0
 12 17  1  0  0  0  0
 12 32  1  1  0  0  0
 13 14  2  0  0  0  0
 13 15  1  0  0  0  0
 15 16  1  0  0  0  0
 15 42  1  0  0  0  0
 16 43  1  0  0  0  0
 17 18  1  0  0  0  0
 17 44  1  0  0  0  0
 17 45  1  0  0  0  0
 18 19  1  0  0  0  0
 18 46  1  0  0  0  0
 18 47  1  0  0  0  0
 19 20  1  0  0  0  0
 19 48  1  0  0  0  0
 19 49  1  0  0  0  0
 20 50  1  0  0  0  0
 21 22  1  0  0  0  0
 21 51  1  0  0  0  0
 21 52  1  0  0  0  0
 22 23  1  0  0  0  0
 22 24  1  0  0  0  0
 22 53  1  0  0  0  0
 23 54  1  0  0  0  0
 23 55  1  0  0  0  0
 23 56  1  0  0  0  0
 24 57  1  0  0  0  0
 24 58  1  0  0  0  0
 24 59  1  0  0  0  0
 26 27  1  0  0  0  0
 26 60  1  0  0  0  0
 26 61  1  0  0  0  0
 27 28  1  0  0  0  0
 27 62  1  0  0  0  0
 27 63  1  0  0  0  0
 28 29  1  0  0  0  0
 29 64  1  0  0  0  0
 29 65  1  0  0  0  0
 29 66  1  0  0  0  0
M  END
>  <DRUGBANK_ID>
DB02090

>  <SECONDARY_ACCESSION_NUMBERS>
EXPT02835

>  <COMMON_NAME>
A Disubstituted Succinyl Caprolactam Hydroxymate Mmp3inhibitor

$$$$
