
 OpenBabel10282417173D

 90 96  0  0  0  0  0  0  0  0999 V2000
   -1.4152    0.3637   -0.2537 C   0  0  1  0  0  0  0  0  0  0  0  0
   -1.0554   -1.1355    0.3562 C   0  0  1  0  0  0  0  0  0  0  0  0
    0.1084   -1.5788   -0.1237 C   0  0  2  0  0  0  0  0  0  0  0  0
    0.8179   -0.3160    0.3637 C   0  0  1  0  0  0  0  0  0  0  0  0
    0.6345    1.3350   -0.5923 C   0  0  2  0  0  0  0  0  0  0  0  0
   -0.7098    1.5897   -0.2928 C   0  0  1  0  0  0  0  0  0  0  0  0
    1.1197    1.5705   -2.4988 O   0  0  0  0  0  0  0  0  0  0  0  0
   -1.3018    2.6970   -0.8817 O   0  0  0  0  0  0  0  0  0  0  0  0
   -0.8103   -1.4594    2.2791 O   0  0  0  0  0  0  0  0  0  0  0  0
    0.0293   -1.7770   -2.0262 O   0  0  0  0  0  0  0  0  0  0  0  0
   -1.2774    0.2295   -1.4946 O   0  0  0  0  0  0  0  0  0  0  0  0
    1.4463   -0.7440    1.4646 O   0  0  0  0  0  0  0  0  0  0  0  0
    6.4633    0.1661   -1.3227 N   0  0  0  0  0  0  0  0  0  0  0  0
    5.5600    0.7472   -2.2376 C   0  0  0  0  0  0  0  0  0  0  0  0
    4.3000    0.5558   -2.0633 C   0  0  0  0  0  0  0  0  0  0  0  0
    4.3083   -0.4113   -0.6320 C   0  0  0  0  0  0  0  0  0  0  0  0
    4.9832   -0.9237    0.4476 C   0  0  0  0  0  0  0  0  0  0  0  0
    6.1470   -0.6426   -0.0896 C   0  0  0  0  0  0  0  0  0  0  0  0
    2.8705    1.2936   -3.2298 C   0  0  0  0  0  0  0  0  0  0  0  0
    3.0614    1.3138   -4.4271 O   0  0  0  0  0  0  0  0  0  0  0  0
   -3.3390    1.5992    1.7031 N   0  0  0  0  0  0  0  0  0  0  0  0
   -2.1757    1.2811    2.3254 C   0  0  0  0  0  0  0  0  0  0  0  0
   -1.4200    0.2073    1.9126 C   0  0  0  0  0  0  0  0  0  0  0  0
   -2.6793   -0.9409    1.5337 C   0  0  0  0  0  0  0  0  0  0  0  0
   -3.6417   -0.5869    0.5967 C   0  0  0  0  0  0  0  0  0  0  0  0
   -3.9776    0.7306    0.8092 C   0  0  0  0  0  0  0  0  0  0  0  0
    0.5854   -0.3377    2.3007 C   0  0  0  0  0  0  0  0  0  0  0  0
    1.2117   -0.5015    3.4218 O   0  0  0  0  0  0  0  0  0  0  0  0
    3.3590    3.5142   -1.6380 N   0  0  0  0  0  0  0  0  0  0  0  0
    2.4315    2.6002   -1.7771 C   0  0  0  0  0  0  0  0  0  0  0  0
    2.2803    0.7848   -1.4838 C   0  0  0  0  0  0  0  0  0  0  0  0
    2.9286    1.0988   -0.1646 C   0  0  0  0  0  0  0  0  0  0  0  0
    4.0181    1.9860    0.0493 C   0  0  0  0  0  0  0  0  0  0  0  0
    4.2081    3.0781   -0.7534 C   0  0  0  0  0  0  0  0  0  0  0  0
    1.2553   -0.5289   -2.9349 C   0  0  0  0  0  0  0  0  0  0  0  0
    1.4639   -1.2359   -3.9113 O   0  0  0  0  0  0  0  0  0  0  0  0
    2.6003    2.6141    2.0052 N   0  0  0  0  0  0  0  0  0  0  0  0
    1.8384    1.6823    2.7457 C   0  0  0  0  0  0  0  0  0  0  0  0
    0.3292    1.6204    2.9460 C   0  0  0  0  0  0  0  0  0  0  0  0
   -0.0556    2.8620    1.8572 C   0  0  0  0  0  0  0  0  0  0  0  0
    0.7586    3.5965    0.8286 C   0  0  0  0  0  0  0  0  0  0  0  0
    2.0562    3.5176    1.1206 C   0  0  0  0  0  0  0  0  0  0  0  0
   -0.6720   -0.0748    3.6157 C   0  0  0  0  0  0  0  0  0  0  0  0
   -1.2540   -0.4549    4.6059 O   0  0  0  0  0  0  0  0  0  0  0  0
    0.2824    0.9571   -5.1706 N   0  0  0  0  0  0  0  0  0  0  0  0
   -0.3121    2.0608   -4.4200 C   0  0  0  0  0  0  0  0  0  0  0  0
   -1.5396    1.8973   -3.5497 C   0  0  0  0  0  0  0  0  0  0  0  0
   -2.2372    0.3640   -3.5861 C   0  0  0  0  0  0  0  0  0  0  0  0
   -1.4829   -0.8111   -4.3029 C   0  0  0  0  0  0  0  0  0  0  0  0
   -0.3221   -0.4072   -5.1288 C   0  0  0  0  0  0  0  0  0  0  0  0
   -1.3663    2.9641   -2.2322 C   0  0  0  0  0  0  0  0  0  0  0  0
   -1.2019    4.1688   -2.4460 O   0  0  0  0  0  0  0  0  0  0  0  0
    3.8452   -2.1334   -2.5617 N   0  0  0  0  0  0  0  0  0  0  0  0
    2.9121   -1.3239   -2.3801 C   0  0  0  0  0  0  0  0  0  0  0  0
    1.6831   -1.3708   -1.3757 C   0  0  0  0  0  0  0  0  0  0  0  0
    1.6703   -2.7195   -1.1068 C   0  0  0  0  0  0  0  0  0  0  0  0
    2.7859   -2.9532   -0.4664 C   0  0  0  0  0  0  0  0  0  0  0  0
    3.8448   -2.7582   -1.4028 C   0  0  0  0  0  0  0  0  0  0  0  0
   -0.0582   -0.0961   -1.7472 C   0  0  0  0  0  0  0  0  0  0  0  0
   -0.2787    0.3632   -2.8392 O   0  0  0  0  0  0  0  0  0  0  0  0
   -2.3137    0.8620   -0.1562 H   0  0  0  0  0  0  0  0  0  0  0  0
   -1.6506   -1.8481   -0.3047 H   0  0  0  0  0  0  0  0  0  0  0  0
    0.3792   -2.4610    0.5303 H   0  0  0  0  0  0  0  0  0  0  0  0
    1.7890   -0.3988    0.1547 H   0  0  0  0  0  0  0  0  0  0  0  0
    1.2324    1.7757    0.1423 H   0  0  0  0  0  0  0  0  0  0  0  0
   -0.6353    1.5322    0.7274 H   0  0  0  0  0  0  0  0  0  0  0  0
    5.6449    1.4144   -3.0640 H   0  0  0  0  0  0  0  0  0  0  0  0
    3.3519   -0.8054   -0.3616 H   0  0  0  0  0  0  0  0  0  0  0  0
    4.5602   -1.6995    1.1302 H   0  0  0  0  0  0  0  0  0  0  0  0
    6.9113   -1.3165    0.2439 H   0  0  0  0  0  0  0  0  0  0  0  0
   -1.8084    2.0025    3.0483 H   0  0  0  0  0  0  0  0  0  0  0  0
   -2.3275   -2.1058    1.3302 H   0  0  0  0  0  0  0  0  0  0  0  0
   -3.5160   -0.9127   -0.4988 H   0  0  0  0  0  0  0  0  0  0  0  0
   -4.5038    1.2485    0.0086 H   0  0  0  0  0  0  0  0  0  0  0  0
    1.8094    3.1283   -2.6488 H   0  0  0  0  0  0  0  0  0  0  0  0
    2.9885    0.5069    0.7809 H   0  0  0  0  0  0  0  0  0  0  0  0
    4.6119    1.7003    0.9119 H   0  0  0  0  0  0  0  0  0  0  0  0
    4.7614    3.8656   -0.3286 H   0  0  0  0  0  0  0  0  0  0  0  0
    2.5880    0.8348    2.9097 H   0  0  0  0  0  0  0  0  0  0  0  0
   -1.0926    3.0070    1.4272 H   0  0  0  0  0  0  0  0  0  0  0  0
    0.6180    3.6069   -0.3551 H   0  0  0  0  0  0  0  0  0  0  0  0
    2.6632    3.9469    0.3408 H   0  0  0  0  0  0  0  0  0  0  0  0
    0.4364    2.9123   -4.2421 H   0  0  0  0  0  0  0  0  0  0  0  0
   -2.6718   -0.1100   -2.6168 H   0  0  0  0  0  0  0  0  0  0  0  0
   -1.3125   -1.8071   -3.6855 H   0  0  0  0  0  0  0  0  0  0  0  0
    0.4221   -1.2159   -5.4600 H   0  0  0  0  0  0  0  0  0  0  0  0
    2.9796   -0.5347   -3.1901 H   0  0  0  0  0  0  0  0  0  0  0  0
    0.7221   -3.2636   -0.9674 H   0  0  0  0  0  0  0  0  0  0  0  0
    2.7294   -2.5629    0.5916 H   0  0  0  0  0  0  0  0  0  0  0  0
    4.8372   -2.4683   -1.1138 H   0  0  0  0  0  0  0  0  0  0  0  0
  1  2  1  0  0  0  0
  1  6  1  0  0  0  0
  1 11  1  0  0  0  0
  1 61  1  1  0  0  0
  2  3  1  0  0  0  0
  2  9  1  0  0  0  0
  2 62  1  6  0  0  0
  3  4  1  0  0  0  0
  3 63  1  1  0  0  0
  3 10  1  0  0  0  0
  4  5  1  0  0  0  0
  4 12  1  0  0  0  0
  4 64  1  6  0  0  0
  5  6  1  0  0  0  0
  5 65  1  1  0  0  0
  5  7  1  0  0  0  0
  6  8  1  0  0  0  0
  6 66  1  1  0  0  0
  8 51  1  0  0  0  0
 13 14  2  0  0  0  0
 13 18  1  0  0  0  0
 14 15  1  0  0  0  0
 14 67  1  0  0  0  0
 15 16  2  0  0  0  0
 15 19  1  0  0  0  0
 16 17  1  0  0  0  0
 16 68  1  0  0  0  0
 17 18  2  0  0  0  0
 17 69  1  0  0  0  0
 18 70  1  0  0  0  0
 19  7  1  0  0  0  0
 19 20  2  0  0  0  0
 21 22  2  0  0  0  0
 21 26  1  0  0  0  0
 22 23  1  0  0  0  0
 22 71  1  0  0  0  0
 23 24  2  0  0  0  0
 23 27  1  0  0  0  0
 24 25  1  0  0  0  0
 24 72  1  0  0  0  0
 25 26  2  0  0  0  0
 25 73  1  0  0  0  0
 26 74  1  0  0  0  0
 27 12  1  0  0  0  0
 27 28  2  0  0  0  0
 29 30  2  0  0  0  0
 29 34  1  0  0  0  0
 30 31  1  0  0  0  0
 30 75  1  0  0  0  0
 31 32  2  0  0  0  0
 31 35  1  0  0  0  0
 32 33  1  0  0  0  0
 32 76  1  0  0  0  0
 33 34  2  0  0  0  0
 33 77  1  0  0  0  0
 34 78  1  0  0  0  0
 35 10  1  0  0  0  0
 35 36  2  0  0  0  0
 37 38  2  0  0  0  0
 37 42  1  0  0  0  0
 38 39  1  0  0  0  0
 38 79  1  0  0  0  0
 39 40  2  0  0  0  0
 39 43  1  0  0  0  0
 40 41  1  0  0  0  0
 40 80  1  0  0  0  0
 41 42  2  0  0  0  0
 41 81  1  0  0  0  0
 42 82  1  0  0  0  0
 43  9  1  0  0  0  0
 43 44  2  0  0  0  0
 45 46  2  0  0  0  0
 45 50  1  0  0  0  0
 46 47  1  0  0  0  0
 46 83  1  0  0  0  0
 47 48  2  0  0  0  0
 47 51  1  0  0  0  0
 48 49  1  0  0  0  0
 48 84  1  0  0  0  0
 49 50  2  0  0  0  0
 49 85  1  0  0  0  0
 50 86  1  0  0  0  0
 51 52  2  0  0  0  0
 53 54  2  0  0  0  0
 53 58  1  0  0  0  0
 54 55  1  0  0  0  0
 54 87  1  0  0  0  0
 55 56  2  0  0  0  0
 55 59  1  0  0  0  0
 56 57  1  0  0  0  0
 56 88  1  0  0  0  0
 57 58  2  0  0  0  0
 57 89  1  0  0  0  0
 58 90  1  0  0  0  0
 59 11  1  0  0  0  0
 59 60  2  0  0  0  0
M  END
>  <DRUGBANK_ID>
DB08949

>  <COMMON_NAME>
Inositol nicotinate

>  <CAS_NUMBER>
6556-11-2

>  <UNII>
A99MK953KZ

>  <SYNONYMS>
hexanicotol; Inositol hexanicotinate; Inositol niacinate; Inositol nicotinate; mesoinositol hexanicotinate; myo-inositol hexanicotinate

$$$$
