
 OpenBabel10282417133D

 27 28  0  0  1  0  0  0  0  0999 V2000
    0.9423    0.2301    0.4881 N   0  0  0  0  0  0  0  0  0  0  0  0
    0.4759    1.5519    0.0453 C   0  0  1  0  0  0  0  0  0  0  0  0
    1.0675    2.0432   -1.2945 C   0  0  0  0  0  0  0  0  0  0  0  0
    0.7213    1.2469   -2.5265 C   0  0  0  0  0  0  0  0  0  0  0  0
    0.0873    1.7574   -3.6471 C   0  0  0  0  0  0  0  0  0  0  0  0
   -0.0983    0.7398   -4.5448 N   0  0  0  0  0  0  0  0  0  0  0  0
    0.3657   -0.4460   -4.0257 C   0  0  0  0  0  0  0  0  0  0  0  0
    0.9396   -0.1537   -2.7871 C   0  0  0  0  0  0  0  0  0  0  0  0
    1.5457   -1.2244   -2.0962 C   0  0  0  0  0  0  0  0  0  0  0  0
    1.4283   -2.5250   -2.5608 C   0  0  0  0  0  0  0  0  0  0  0  0
    1.8984   -3.5239   -1.8011 F   0  0  0  0  0  0  0  0  0  0  0  0
    0.8525   -2.7907   -3.7842 C   0  0  0  0  0  0  0  0  0  0  0  0
    0.3393   -1.7457   -4.5600 C   0  0  0  0  0  0  0  0  0  0  0  0
   -1.0608    1.5130    0.0041 C   0  0  0  0  0  0  0  0  0  0  0  0
   -1.6593    2.1730    1.0202 O   0  0  0  0  0  0  0  0  0  0  0  0
   -1.7174    0.8782   -0.8173 O   0  0  0  0  0  0  0  0  0  0  0  0
    0.4515   -0.4428   -0.1173 H   0  0  0  0  0  0  0  0  0  0  0  0
    1.9319    0.1461    0.2591 H   0  0  0  0  0  0  0  0  0  0  0  0
    0.8085    2.2433    0.8281 H   0  0  0  0  0  0  0  0  0  0  0  0
    0.7306    3.0814   -1.4351 H   0  0  0  0  0  0  0  0  0  0  0  0
    2.1621    2.0919   -1.2256 H   0  0  0  0  0  0  0  0  0  0  0  0
   -0.2645    2.7561   -3.8774 H   0  0  0  0  0  0  0  0  0  0  0  0
   -0.5299    0.8384   -5.4533 H   0  0  0  0  0  0  0  0  0  0  0  0
    2.0967   -1.1085   -1.1773 H   0  0  0  0  0  0  0  0  0  0  0  0
    0.8300   -3.8159   -4.1362 H   0  0  0  0  0  0  0  0  0  0  0  0
   -0.0820   -1.9463   -5.5383 H   0  0  0  0  0  0  0  0  0  0  0  0
   -1.0361    2.5000    1.6949 H   0  0  0  0  0  0  0  0  0  0  0  0
  1 17  1  0  0  0  0
  1 18  1  0  0  0  0
  2  1  1  0  0  0  0
  2  3  1  0  0  0  0
  2 14  1  0  0  0  0
  2 19  1  1  0  0  0
  3  4  1  0  0  0  0
  3 20  1  0  0  0  0
  3 21  1  0  0  0  0
  4  5  2  0  0  0  0
  4  8  1  0  0  0  0
  5  6  1  0  0  0  0
  5 22  1  0  0  0  0
  6  7  1  0  0  0  0
  6 23  1  0  0  0  0
  7  8  2  0  0  0  0
  7 13  1  0  0  0  0
  8  9  1  0  0  0  0
  9 10  2  0  0  0  0
  9 24  1  0  0  0  0
 10 11  1  0  0  0  0
 10 12  1  0  0  0  0
 12 13  2  0  0  0  0
 12 25  1  0  0  0  0
 13 26  1  0  0  0  0
 14 15  1  0  0  0  0
 14 16  2  0  0  0  0
 15 27  1  0  0  0  0
M  END
>  <DRUGBANK_ID>
DB03314

>  <SECONDARY_ACCESSION_NUMBERS>
EXPT01505

>  <COMMON_NAME>
5-fluorotryptophan

>  <CAS_NUMBER>
16626-02-1

>  <UNII>
17H03VO4KZ

>  <SYNONYMS>
5-fluoro-L-tryptophan; Fluorotryptophane; L-5-fluorotryptophan

$$$$
