
 OpenBabel10282417203D

 19 19  0  0  0  0  0  0  0  0999 V2000
   -1.8964    0.6711    0.0021 C   0  0  0  0  0  0  0  0  0  0  0  0
   -0.7064    1.4223    0.0124 C   0  0  0  0  0  0  0  0  0  0  0  0
    0.5147    0.7705    0.0033 C   0  0  0  0  0  0  0  0  0  0  0  0
    0.5561   -0.6107    0.0055 C   0  0  0  0  0  0  0  0  0  0  0  0
   -0.6196   -1.3563    0.0128 C   0  0  0  0  0  0  0  0  0  0  0  0
   -1.8797   -0.7440   -0.0054 C   0  0  0  0  0  0  0  0  0  0  0  0
   -3.2183   -1.4493   -0.0351 C   0  0  0  0  0  0  0  0  0  0  0  0
   -4.2371   -0.7589   -0.0511 O   0  0  0  0  0  0  0  0  0  0  0  0
   -3.4028   -2.8053   -0.0531 N   0  0  0  0  0  0  0  0  0  0  0  0
   -2.5145   -3.8702   -0.0165 O   0  0  0  0  0  0  0  0  0  0  0  0
    1.7763   -1.2322    0.0049 O   0  0  0  0  0  0  0  0  0  0  0  0
    1.6744    1.4856   -0.0049 O   0  0  0  0  0  0  0  0  0  0  0  0
   -2.8427    1.2147    0.0028 H   0  0  0  0  0  0  0  0  0  0  0  0
   -0.7354    2.5081    0.0253 H   0  0  0  0  0  0  0  0  0  0  0  0
   -0.4529   -2.4106    0.0479 H   0  0  0  0  0  0  0  0  0  0  0  0
   -4.3755   -3.1028   -0.0856 H   0  0  0  0  0  0  0  0  0  0  0  0
   -1.6515   -3.4961   -0.1834 H   0  0  0  0  0  0  0  0  0  0  0  0
    1.6431   -2.1972    0.0061 H   0  0  0  0  0  0  0  0  0  0  0  0
    2.3867    0.8145   -0.0209 H   0  0  0  0  0  0  0  0  0  0  0  0
  1  2  2  0  0  0  0
  1  6  1  0  0  0  0
  1 13  1  0  0  0  0
  2  3  1  0  0  0  0
  2 14  1  0  0  0  0
  3  4  2  0  0  0  0
  3 12  1  0  0  0  0
  4  5  1  0  0  0  0
  4 11  1  0  0  0  0
  5  6  2  0  0  0  0
  5 15  1  0  0  0  0
  6  7  1  0  0  0  0
  7  8  2  0  0  0  0
  7  9  1  0  0  0  0
  9 10  1  0  0  0  0
  9 16  1  0  0  0  0
 10 17  1  0  0  0  0
 11 18  1  0  0  0  0
 12 19  1  0  0  0  0
M  END
>  <DRUGBANK_ID>
DB12948

>  <COMMON_NAME>
Didox

>  <CAS_NUMBER>
69839-83-4

>  <UNII>
L106XFV0RQ

$$$$
