
 OpenBabel10282417143D

 52 51  0  0  0  0  0  0  0  0999 V2000
    1.1533   -0.0284   -0.1525 C   0  0  0  0  0  0  0  0  0  0  0  0
    0.3549   -1.1896   -0.6895 C   0  0  0  0  0  0  0  0  0  0  0  0
   -0.5456   -1.8390    0.3810 C   0  0  0  0  0  0  0  0  0  0  0  0
   -1.6332   -0.8994    0.9231 C   0  0  0  0  0  0  0  0  0  0  0  0
    0.5647    1.0935    0.2708 C   0  0  0  0  0  0  0  0  0  0  0  0
    1.1537    2.1860    0.9782 C   0  0  0  0  0  0  0  0  0  0  0  0
   -2.5103   -0.3569   -0.2194 C   0  0  0  0  0  0  0  0  0  0  0  0
   -3.2881   -1.4994   -0.8645 C   0  0  0  0  0  0  0  0  0  0  0  0
   -4.1856   -2.1709    0.1767 C   0  0  0  0  0  0  0  0  0  0  0  0
   -5.2357   -1.1923    0.7165 C   0  0  0  0  0  0  0  0  0  0  0  0
   -6.1323   -0.6441   -0.3936 C   0  0  0  0  0  0  0  0  0  0  0  0
   -6.8646   -1.7599   -1.1070 C   0  0  0  0  0  0  0  0  0  0  0  0
   -8.2042   -1.6943   -1.0127 O   0  0  0  0  0  0  0  0  0  0  0  0
   -6.3164   -2.6633   -1.7320 O   0  0  0  0  0  0  0  0  0  0  0  0
    0.4110    3.1459    1.5513 C   0  0  0  0  0  0  0  0  0  0  0  0
   -1.0992    3.1934    1.6436 C   0  0  0  0  0  0  0  0  0  0  0  0
   -1.5717    3.2474    3.0976 C   0  0  0  0  0  0  0  0  0  0  0  0
   -1.1495    4.5416    3.7949 C   0  0  0  0  0  0  0  0  0  0  0  0
   -1.6570    5.7877    3.0640 C   0  0  0  0  0  0  0  0  0  0  0  0
   -3.1767    5.8131    3.0048 C   0  0  0  0  0  0  0  0  0  0  0  0
    2.2234   -0.1565   -0.0564 H   0  0  0  0  0  0  0  0  0  0  0  0
   -0.2289   -0.8744   -1.5636 H   0  0  0  0  0  0  0  0  0  0  0  0
    1.0446   -1.9471   -1.0730 H   0  0  0  0  0  0  0  0  0  0  0  0
   -1.0162   -2.7332   -0.0472 H   0  0  0  0  0  0  0  0  0  0  0  0
    0.0590   -2.2059    1.2166 H   0  0  0  0  0  0  0  0  0  0  0  0
   -2.2286   -1.4142    1.6814 H   0  0  0  0  0  0  0  0  0  0  0  0
   -1.2045   -0.0916    1.5182 H   0  0  0  0  0  0  0  0  0  0  0  0
   -0.4963    1.1932    0.1115 H   0  0  0  0  0  0  0  0  0  0  0  0
    2.2355    2.2174    1.0575 H   0  0  0  0  0  0  0  0  0  0  0  0
   -3.1723    0.4301    0.1571 H   0  0  0  0  0  0  0  0  0  0  0  0
   -1.9351    0.1483   -1.0011 H   0  0  0  0  0  0  0  0  0  0  0  0
   -3.8570   -1.1217   -1.7198 H   0  0  0  0  0  0  0  0  0  0  0  0
   -2.6101   -2.2371   -1.3054 H   0  0  0  0  0  0  0  0  0  0  0  0
   -4.6427   -3.0640   -0.2493 H   0  0  0  0  0  0  0  0  0  0  0  0
   -3.6043   -2.5782    1.0085 H   0  0  0  0  0  0  0  0  0  0  0  0
   -5.8320   -1.6894    1.4870 H   0  0  0  0  0  0  0  0  0  0  0  0
   -4.7474   -0.3532    1.2312 H   0  0  0  0  0  0  0  0  0  0  0  0
   -6.8325    0.0815    0.0303 H   0  0  0  0  0  0  0  0  0  0  0  0
   -5.5620   -0.0811   -1.1418 H   0  0  0  0  0  0  0  0  0  0  0  0
   -8.5390   -0.9147   -0.5356 H   0  0  0  0  0  0  0  0  0  0  0  0
    0.9488    3.9662    2.0232 H   0  0  0  0  0  0  0  0  0  0  0  0
   -1.4634    4.0442    1.0595 H   0  0  0  0  0  0  0  0  0  0  0  0
   -1.6004    2.3338    1.1982 H   0  0  0  0  0  0  0  0  0  0  0  0
   -2.6638    3.1448    3.1214 H   0  0  0  0  0  0  0  0  0  0  0  0
   -1.1920    2.3803    3.6521 H   0  0  0  0  0  0  0  0  0  0  0  0
   -1.5212    4.5358    4.8253 H   0  0  0  0  0  0  0  0  0  0  0  0
   -0.0571    4.5839    3.8708 H   0  0  0  0  0  0  0  0  0  0  0  0
   -1.2874    6.6826    3.5733 H   0  0  0  0  0  0  0  0  0  0  0  0
   -1.2502    5.8411    2.0478 H   0  0  0  0  0  0  0  0  0  0  0  0
   -3.5911    5.8100    4.0172 H   0  0  0  0  0  0  0  0  0  0  0  0
   -3.5268    6.7037    2.4793 H   0  0  0  0  0  0  0  0  0  0  0  0
   -3.5827    4.9479    2.4707 H   0  0  0  0  0  0  0  0  0  0  0  0
  1  2  1  0  0  0  0
  1  5  2  0  0  0  0
  1 21  1  0  0  0  0
  2  3  1  0  0  0  0
  2 22  1  0  0  0  0
  2 23  1  0  0  0  0
  3  4  1  0  0  0  0
  3 24  1  0  0  0  0
  3 25  1  0  0  0  0
  4  7  1  0  0  0  0
  4 26  1  0  0  0  0
  4 27  1  0  0  0  0
  5  6  1  0  0  0  0
  5 28  1  0  0  0  0
  6 15  2  0  0  0  0
  6 29  1  0  0  0  0
  7  8  1  0  0  0  0
  7 30  1  0  0  0  0
  7 31  1  0  0  0  0
  8  9  1  0  0  0  0
  8 32  1  0  0  0  0
  8 33  1  0  0  0  0
  9 10  1  0  0  0  0
  9 34  1  0  0  0  0
  9 35  1  0  0  0  0
 10 11  1  0  0  0  0
 10 36  1  0  0  0  0
 10 37  1  0  0  0  0
 11 12  1  0  0  0  0
 11 38  1  0  0  0  0
 11 39  1  0  0  0  0
 12 13  1  0  0  0  0
 12 14  2  0  0  0  0
 13 40  1  0  0  0  0
 15 16  1  0  0  0  0
 15 41  1  0  0  0  0
 16 17  1  0  0  0  0
 16 42  1  0  0  0  0
 16 43  1  0  0  0  0
 17 18  1  0  0  0  0
 17 44  1  0  0  0  0
 17 45  1  0  0  0  0
 18 19  1  0  0  0  0
 18 46  1  0  0  0  0
 18 47  1  0  0  0  0
 19 20  1  0  0  0  0
 19 48  1  0  0  0  0
 19 49  1  0  0  0  0
 20 50  1  0  0  0  0
 20 51  1  0  0  0  0
 20 52  1  0  0  0  0
M  END
>  <DRUGBANK_ID>
DB04746

>  <COMMON_NAME>
(10E,12Z)-octadecadienoic acid

>  <CAS_NUMBER>
2420-56-6

>  <UNII>
N151ZM4M27

>  <SYNONYMS>
(10E,12Z)-octadeca-10,12-dienoic acid; (E,Z)-octadeca-10,12-dienoic acid; 10-trans-12-cis-CLA; 10-trans-12-cis-conjugated linoleic acid; 10-trans-12-cis-linoleic acid; 10-trans-12-cis-octadecadienoic acid; 10,12-trans,cis-octadecanoic acid; C18:2, n-6,8 cis,trans

$$$$
