
 OpenBabel10282417163D

 36 37  0  0  0  0  0  0  0  0999 V2000
   -2.1302   -1.1967   -0.0389 S   0  0  0  0  0  0  0  0  0  0  0  0
    0.8100    2.3516    0.4980 O   0  0  0  0  0  0  0  0  0  0  0  0
    3.0557   -1.7962   -0.0463 O   0  0  0  0  0  0  0  0  0  0  0  0
    0.5514   -3.0018   -0.0217 O   0  0  0  0  0  0  0  0  0  0  0  0
   -1.4163    1.2788    0.0157 N   0  0  0  0  0  0  0  0  0  0  0  0
    2.8427    3.0609   -1.3418 C   0  0  0  0  0  0  0  0  0  0  0  0
    3.7587    1.8392   -1.2800 C   0  0  0  0  0  0  0  0  0  0  0  0
    3.0222    3.9669   -0.0852 C   0  0  0  0  0  0  0  0  0  0  0  0
    3.5339    0.9826   -0.0176 C   0  0  0  0  0  0  0  0  0  0  0  0
    4.3684    4.6308   -0.0476 C   0  0  0  0  0  0  0  0  0  0  0  0
    2.1365    0.3842    0.0478 C   0  0  0  0  0  0  0  0  0  0  0  0
    4.5188    5.4947   -1.2748 C   0  0  0  0  0  0  0  0  0  0  0  0
    0.9658    1.0427    0.1911 C   0  0  0  0  0  0  0  0  0  0  0  0
    2.0410   -1.1130   -0.0311 C   0  0  0  0  0  0  0  0  0  0  0  0
   -0.3051    0.4801    0.0637 C   0  0  0  0  0  0  0  0  0  0  0  0
    3.4082    6.5365   -1.3174 C   0  0  0  0  0  0  0  0  0  0  0  0
   -0.4628   -0.8617   -0.0136 C   0  0  0  0  0  0  0  0  0  0  0  0
    0.6366   -1.7927   -0.0240 C   0  0  0  0  0  0  0  0  0  0  0  0
   -2.4680    0.5010   -0.0132 C   0  0  0  0  0  0  0  0  0  0  0  0
    1.6923    2.6509    0.6390 H   0  0  0  0  0  0  0  0  0  0  0  0
    3.0016    3.6157   -2.2709 H   0  0  0  0  0  0  0  0  0  0  0  0
    1.8107    2.7329   -1.5012 H   0  0  0  0  0  0  0  0  0  0  0  0
    4.8028    2.1740   -1.3202 H   0  0  0  0  0  0  0  0  0  0  0  0
    3.6138    1.2255   -2.1774 H   0  0  0  0  0  0  0  0  0  0  0  0
    2.1771    4.6643   -0.0140 H   0  0  0  0  0  0  0  0  0  0  0  0
    3.0280    3.4686    0.8895 H   0  0  0  0  0  0  0  0  0  0  0  0
    3.7394    1.5541    0.8944 H   0  0  0  0  0  0  0  0  0  0  0  0
    4.3141    0.2116   -0.0171 H   0  0  0  0  0  0  0  0  0  0  0  0
    4.4487    5.2144    0.8773 H   0  0  0  0  0  0  0  0  0  0  0  0
    5.1445    3.8595    0.0152 H   0  0  0  0  0  0  0  0  0  0  0  0
    5.5046    5.9551   -1.2616 H   0  0  0  0  0  0  0  0  0  0  0  0
    4.4865    4.8822   -2.1810 H   0  0  0  0  0  0  0  0  0  0  0  0
    3.4343    7.1431   -0.4071 H   0  0  0  0  0  0  0  0  0  0  0  0
    3.5180    7.1692   -2.1948 H   0  0  0  0  0  0  0  0  0  0  0  0
    2.4053    6.0960   -1.3852 H   0  0  0  0  0  0  0  0  0  0  0  0
   -3.4631    0.9290   -0.0137 H   0  0  0  0  0  0  0  0  0  0  0  0
  1 17  1  0  0  0  0
  1 19  1  0  0  0  0
  2 13  1  0  0  0  0
  2 20  1  0  0  0  0
  3 14  2  0  0  0  0
  4 18  2  0  0  0  0
  5 15  1  0  0  0  0
  5 19  2  0  0  0  0
  6  7  1  0  0  0  0
  6  8  1  0  0  0  0
  6 21  1  0  0  0  0
  6 22  1  0  0  0  0
  7  9  1  0  0  0  0
  7 23  1  0  0  0  0
  7 24  1  0  0  0  0
  8 10  1  0  0  0  0
  8 25  1  0  0  0  0
  8 26  1  0  0  0  0
  9 11  1  0  0  0  0
  9 27  1  0  0  0  0
  9 28  1  0  0  0  0
 10 12  1  0  0  0  0
 10 29  1  0  0  0  0
 10 30  1  0  0  0  0
 11 13  2  0  0  0  0
 11 14  1  0  0  0  0
 12 16  1  0  0  0  0
 12 31  1  0  0  0  0
 12 32  1  0  0  0  0
 13 15  1  0  0  0  0
 14 18  1  0  0  0  0
 15 17  2  0  0  0  0
 16 33  1  0  0  0  0
 16 34  1  0  0  0  0
 16 35  1  0  0  0  0
 17 18  1  0  0  0  0
 19 36  1  0  0  0  0
M  END
>  <DRUGBANK_ID>
DB07636

>  <COMMON_NAME>
5-Heptyl-6-hydroxy-1,3-benzothiazole-4,7-dione

>  <CAS_NUMBER>
611207-02-4

$$$$
