
 OpenBabel10282417153D

 41 42  0  0  1  0  0  0  0  0999 V2000
    0.9745   -0.0771    0.0178 C   0  0  0  0  0  0  0  0  0  0  0  0
    0.5660   -0.7294    1.3386 C   0  0  1  0  0  0  0  0  0  0  0  0
    1.2466    0.1293    2.4196 C   0  0  0  0  0  0  0  0  0  0  0  0
    0.7869    1.1711    2.8833 O   0  0  0  0  0  0  0  0  0  0  0  0
    2.5299   -0.1778    2.7605 N   0  0  0  0  0  0  0  0  0  0  0  0
   -0.9128   -0.7510    1.3819 N   0  0  0  0  0  0  0  0  0  0  0  0
   -1.5080   -1.4190    2.5458 C   0  0  0  0  0  0  0  0  0  0  0  0
   -1.3558   -0.6808    3.8500 C   0  0  0  0  0  0  0  0  0  0  0  0
   -1.6320    0.6911    3.9010 C   0  0  0  0  0  0  0  0  0  0  0  0
   -1.3554    1.4323    5.0407 C   0  0  0  0  0  0  0  0  0  0  0  0
   -0.8978    0.8022    6.1924 C   0  0  0  0  0  0  0  0  0  0  0  0
   -0.7204   -0.5840    6.1902 C   0  0  0  0  0  0  0  0  0  0  0  0
   -0.8952   -1.3161    5.0097 C   0  0  0  0  0  0  0  0  0  0  0  0
   -0.4655    1.4577    7.3167 O   0  0  0  0  0  0  0  0  0  0  0  0
   -0.3223    2.8815    7.2201 C   0  0  0  0  0  0  0  0  0  0  0  0
    0.7396    3.4192    6.2750 C   0  0  0  0  0  0  0  0  0  0  0  0
    0.7454    4.7943    5.9770 C   0  0  0  0  0  0  0  0  0  0  0  0
    1.6807    5.3310    5.0851 C   0  0  0  0  0  0  0  0  0  0  0  0
    2.6244    4.5068    4.4776 C   0  0  0  0  0  0  0  0  0  0  0  0
    2.6484    3.1528    4.7838 C   0  0  0  0  0  0  0  0  0  0  0  0
    1.7152    2.6191    5.6678 C   0  0  0  0  0  0  0  0  0  0  0  0
    1.7820    1.3003    5.8917 F   0  0  0  0  0  0  0  0  0  0  0  0
    0.6158    0.9603   -0.0307 H   0  0  0  0  0  0  0  0  0  0  0  0
    0.5758   -0.6174   -0.8447 H   0  0  0  0  0  0  0  0  0  0  0  0
    2.0651   -0.0405   -0.0718 H   0  0  0  0  0  0  0  0  0  0  0  0
    0.9409   -1.7578    1.3772 H   0  0  0  0  0  0  0  0  0  0  0  0
    3.1798   -0.3965    2.0170 H   0  0  0  0  0  0  0  0  0  0  0  0
    2.8775    0.5024    3.4276 H   0  0  0  0  0  0  0  0  0  0  0  0
   -1.2697    0.1996    1.3097 H   0  0  0  0  0  0  0  0  0  0  0  0
   -2.5896   -1.5031    2.3716 H   0  0  0  0  0  0  0  0  0  0  0  0
   -1.1383   -2.4479    2.6178 H   0  0  0  0  0  0  0  0  0  0  0  0
   -1.8691    1.2441    2.9958 H   0  0  0  0  0  0  0  0  0  0  0  0
   -1.3831    2.5100    4.9303 H   0  0  0  0  0  0  0  0  0  0  0  0
   -0.3578   -1.0812    7.0859 H   0  0  0  0  0  0  0  0  0  0  0  0
   -0.6092   -2.3651    4.9911 H   0  0  0  0  0  0  0  0  0  0  0  0
   -1.3043    3.3216    6.9939 H   0  0  0  0  0  0  0  0  0  0  0  0
   -0.0645    3.2319    8.2261 H   0  0  0  0  0  0  0  0  0  0  0  0
    0.0096    5.4574    6.4284 H   0  0  0  0  0  0  0  0  0  0  0  0
    1.6721    6.3945    4.8611 H   0  0  0  0  0  0  0  0  0  0  0  0
    3.3385    4.9115    3.7669 H   0  0  0  0  0  0  0  0  0  0  0  0
    3.3815    2.4950    4.3334 H   0  0  0  0  0  0  0  0  0  0  0  0
  1 23  1  0  0  0  0
  1 24  1  0  0  0  0
  1 25  1  0  0  0  0
  2  1  1  0  0  0  0
  2  3  1  0  0  0  0
  2  6  1  0  0  0  0
  2 26  1  1  0  0  0
  3  4  2  0  0  0  0
  3  5  1  0  0  0  0
  5 27  1  0  0  0  0
  5 28  1  0  0  0  0
  6  7  1  0  0  0  0
  6 29  1  0  0  0  0
  7  8  1  0  0  0  0
  7 30  1  0  0  0  0
  7 31  1  0  0  0  0
  8  9  2  0  0  0  0
  8 13  1  0  0  0  0
  9 10  1  0  0  0  0
  9 32  1  0  0  0  0
 10 11  2  0  0  0  0
 10 33  1  0  0  0  0
 11 12  1  0  0  0  0
 11 14  1  0  0  0  0
 12 13  2  0  0  0  0
 12 34  1  0  0  0  0
 13 35  1  0  0  0  0
 14 15  1  0  0  0  0
 15 16  1  0  0  0  0
 15 36  1  0  0  0  0
 15 37  1  0  0  0  0
 16 17  2  0  0  0  0
 16 21  1  0  0  0  0
 17 18  1  0  0  0  0
 17 38  1  0  0  0  0
 18 19  2  0  0  0  0
 18 39  1  0  0  0  0
 19 20  1  0  0  0  0
 19 40  1  0  0  0  0
 20 21  2  0  0  0  0
 20 41  1  0  0  0  0
 21 22  1  0  0  0  0
M  END
>  <DRUGBANK_ID>
DB06649

>  <COMMON_NAME>
Priralfinamide

>  <CAS_NUMBER>
133865-88-0

>  <UNII>
3LPF0S0GVV

>  <SYNONYMS>
Priralfinamide; Ralfinamide

$$$$
