
 OpenBabel10282417123D

 24 24  0  0  1  0  0  0  0  0999 V2000
    0.7963    0.1109   -0.0053 C   0  0  0  0  0  0  0  0  0  0  0  0
    0.4260   -0.5813   -1.3423 C   0  0  2  0  0  0  0  0  0  0  0  0
    1.4020   -2.8761   -0.9700 C   0  0  2  0  0  0  0  0  0  0  0  0
    2.4937   -2.5658   -2.0086 C   0  0  2  0  0  0  0  0  0  0  0  0
    0.1033   -2.0826   -1.2195 C   0  0  2  0  0  0  0  0  0  0  0  0
    2.6744   -1.0360   -2.1454 C   0  0  2  0  0  0  0  0  0  0  0  0
    0.3005   -0.5529    1.1502 O   0  0  0  0  0  0  0  0  0  0  0  0
    1.8686   -2.6028    0.3713 O   0  0  0  0  0  0  0  0  0  0  0  0
    2.1331   -3.1736   -3.2542 O   0  0  0  0  0  0  0  0  0  0  0  0
    1.4372   -0.3464   -2.3450 O   0  0  0  0  0  0  0  0  0  0  0  0
   -0.8658   -2.6594   -2.6782 S   0  0  0  0  0  0  0  0  0  0  0  0
    3.7896   -0.6782   -3.5371 S   0  0  0  0  0  0  0  0  0  0  0  0
   -0.4728   -0.0635   -1.7026 H   0  0  0  0  0  0  0  0  0  0  0  0
    1.1775   -3.9482   -0.9824 H   0  0  0  0  0  0  0  0  0  0  0  0
    3.4390   -3.0210   -1.6874 H   0  0  0  0  0  0  0  0  0  0  0  0
   -0.5823   -2.2457   -0.3821 H   0  0  0  0  0  0  0  0  0  0  0  0
    3.1703   -0.6384   -1.2552 H   0  0  0  0  0  0  0  0  0  0  0  0
    0.3776    1.1225    0.0002 H   0  0  0  0  0  0  0  0  0  0  0  0
    1.8737    0.2487    0.1152 H   0  0  0  0  0  0  0  0  0  0  0  0
    0.6803   -1.4561    1.1935 H   0  0  0  0  0  0  0  0  0  0  0  0
    2.5141   -1.8743    0.3756 H   0  0  0  0  0  0  0  0  0  0  0  0
    2.8819   -3.0430   -3.8699 H   0  0  0  0  0  0  0  0  0  0  0  0
   -0.1195   -2.0508   -3.6152 H   0  0  0  0  0  0  0  0  0  0  0  0
    2.8960   -1.0322   -4.4711 H   0  0  0  0  0  0  0  0  0  0  0  0
  1 18  1  0  0  0  0
  1 19  1  0  0  0  0
  2  1  1  0  0  0  0
  2 13  1  6  0  0  0
  3  8  1  0  0  0  0
  3 14  1  6  0  0  0
  4  3  1  0  0  0  0
  4 15  1  1  0  0  0
  4  9  1  0  0  0  0
  5  2  1  0  0  0  0
  5  3  1  0  0  0  0
  5 16  1  1  0  0  0
  5 11  1  0  0  0  0
  6  4  1  0  0  0  0
  6 17  1  1  0  0  0
  6 12  1  0  0  0  0
  7  1  1  0  0  0  0
  7 20  1  0  0  0  0
  8 21  1  0  0  0  0
  9 22  1  0  0  0  0
 10  2  1  0  0  0  0
 10  6  1  0  0  0  0
 11 23  1  0  0  0  0
 12 24  1  0  0  0  0
M  END
>  <DRUGBANK_ID>
DB01870

>  <SECONDARY_ACCESSION_NUMBERS>
EXPT02092

>  <COMMON_NAME>
1,4-dithio-alpha-D-glucopyranose

$$$$
