
 OpenBabel10282417223D

 73 75  0  0  1  0  0  0  0  0999 V2000
   -4.2630   -6.0895    2.0816 O   0  0  0  0  0  0  0  0  0  0  0  0
   -4.1621   -5.7724    0.7176 N   0  0  0  0  0  0  0  0  0  0  0  0
   -4.4420   -6.4368   -0.4599 C   0  0  0  0  0  0  0  0  0  0  0  0
   -4.5388   -5.8078   -1.5274 O   0  0  0  0  0  0  0  0  0  0  0  0
   -4.5882   -7.9149   -0.7101 C   0  0  0  0  0  0  0  0  0  0  0  0
   -3.3786   -8.7681   -1.1786 C   0  0  0  0  0  0  0  0  0  0  0  0
   -2.3577   -8.9461   -0.1126 C   0  0  0  0  0  0  0  0  0  0  0  0
   -3.1238   -9.2093    1.2481 C   0  0  0  0  0  0  0  0  0  0  0  0
   -2.9878  -10.6326    1.6238 C   0  0  0  0  0  0  0  0  0  0  0  0
   -1.5291  -11.0976    1.5429 C   0  0  0  0  0  0  0  0  0  0  0  0
   -0.4482  -10.5702    2.5282 C   0  0  0  0  0  0  0  0  0  0  0  0
   -0.1689  -11.3664    3.4831 O   0  0  0  0  0  0  0  0  0  0  0  0
    0.3616   -9.4199    2.4370 N   0  0  0  0  0  0  0  0  0  0  0  0
    0.1054   -8.1368    1.8120 C   0  0  0  0  0  0  0  0  0  0  0  0
   -1.0501   -7.6086    2.0587 C   0  0  0  0  0  0  0  0  0  0  0  0
   -1.6128   -6.6459    1.1714 C   0  0  0  0  0  0  0  0  0  0  0  0
   -0.9299   -5.8045    0.3101 C   0  0  0  0  0  0  0  0  0  0  0  0
   -1.5952   -4.8241   -0.6825 C   0  0  0  0  0  0  0  0  0  0  0  0
   -1.8806   -3.5440   -0.0632 N   0  0  0  0  0  0  0  0  0  0  0  0
   -2.5368   -2.4432   -0.8436 C   0  0  2  0  0  0  0  0  0  0  0  0
   -1.5225   -1.2651   -0.7501 C   0  0  0  0  0  0  0  0  0  0  0  0
   -0.2895   -1.4485   -0.6651 O   0  0  0  0  0  0  0  0  0  0  0  0
   -2.0594   -0.0196   -0.8040 O   0  0  0  0  0  0  0  0  0  0  0  0
   -1.1135    1.0402   -0.6976 C   0  0  0  0  0  0  0  0  0  0  0  0
   -1.7307    2.4044   -0.3886 C   0  0  0  0  0  0  0  0  0  0  0  0
   -0.6911    3.4039   -0.9089 C   0  0  0  0  0  0  0  0  0  0  0  0
    0.1895    2.6329   -1.8947 C   0  0  0  0  0  0  0  0  0  0  0  0
   -0.4741    1.2817   -2.0535 C   0  0  0  0  0  0  0  0  0  0  0  0
   -3.9772   -2.1564   -0.3459 C   0  0  0  0  0  0  0  0  0  0  0  0
   -4.8770   -3.1994   -0.1974 C   0  0  0  0  0  0  0  0  0  0  0  0
   -6.1027   -3.1929    0.4697 C   0  0  0  0  0  0  0  0  0  0  0  0
   -6.5969   -1.9752    0.8411 C   0  0  0  0  0  0  0  0  0  0  0  0
   -5.8405   -0.8491    0.5306 C   0  0  0  0  0  0  0  0  0  0  0  0
   -4.5759   -0.9413   -0.0881 C   0  0  0  0  0  0  0  0  0  0  0  0
    0.3908   -5.9597    0.5715 C   0  0  0  0  0  0  0  0  0  0  0  0
    0.9491   -7.1476    1.2659 C   0  0  0  0  0  0  0  0  0  0  0  0
   -3.4456   -6.5417    2.3731 H   0  0  0  0  0  0  0  0  0  0  0  0
   -3.6950   -4.8679    0.6071 H   0  0  0  0  0  0  0  0  0  0  0  0
   -5.2046   -8.3234    0.0741 H   0  0  0  0  0  0  0  0  0  0  0  0
   -5.2493   -7.9803   -1.5730 H   0  0  0  0  0  0  0  0  0  0  0  0
   -3.6920   -9.7844   -1.4297 H   0  0  0  0  0  0  0  0  0  0  0  0
   -2.8770   -8.3610   -2.0724 H   0  0  0  0  0  0  0  0  0  0  0  0
   -1.5807   -9.6688   -0.3595 H   0  0  0  0  0  0  0  0  0  0  0  0
   -1.6874   -8.1161   -0.3266 H   0  0  0  0  0  0  0  0  0  0  0  0
   -3.0195   -8.6590    2.1721 H   0  0  0  0  0  0  0  0  0  0  0  0
   -4.1677   -8.9385    1.2480 H   0  0  0  0  0  0  0  0  0  0  0  0
   -3.4207  -10.7861    2.6205 H   0  0  0  0  0  0  0  0  0  0  0  0
   -3.6454  -11.1492    0.9110 H   0  0  0  0  0  0  0  0  0  0  0  0
   -1.6292  -12.1834    1.6763 H   0  0  0  0  0  0  0  0  0  0  0  0
   -1.1039  -11.0758    0.5417 H   0  0  0  0  0  0  0  0  0  0  0  0
    0.9088   -9.3382    3.2843 H   0  0  0  0  0  0  0  0  0  0  0  0
   -1.6191   -8.1664    2.8049 H   0  0  0  0  0  0  0  0  0  0  0  0
   -2.5862   -6.9054    0.8794 H   0  0  0  0  0  0  0  0  0  0  0  0
   -0.9998   -4.7553   -1.6028 H   0  0  0  0  0  0  0  0  0  0  0  0
   -2.5277   -5.1829   -1.1022 H   0  0  0  0  0  0  0  0  0  0  0  0
   -2.1032   -3.5431    0.9223 H   0  0  0  0  0  0  0  0  0  0  0  0
   -2.5913   -2.7194   -1.9072 H   0  0  0  0  0  0  0  0  0  0  0  0
   -0.3782    0.8183    0.0869 H   0  0  0  0  0  0  0  0  0  0  0  0
   -2.6921    2.5435   -0.8978 H   0  0  0  0  0  0  0  0  0  0  0  0
   -1.9164    2.5434    0.6825 H   0  0  0  0  0  0  0  0  0  0  0  0
   -1.1715    4.2619   -1.3901 H   0  0  0  0  0  0  0  0  0  0  0  0
   -0.0757    3.7933   -0.0894 H   0  0  0  0  0  0  0  0  0  0  0  0
    0.2890    3.1453   -2.8552 H   0  0  0  0  0  0  0  0  0  0  0  0
    1.1946    2.5045   -1.4763 H   0  0  0  0  0  0  0  0  0  0  0  0
    0.2285    0.4917   -2.3304 H   0  0  0  0  0  0  0  0  0  0  0  0
   -1.2459    1.3128   -2.8339 H   0  0  0  0  0  0  0  0  0  0  0  0
   -4.6176   -4.0780   -0.7178 H   0  0  0  0  0  0  0  0  0  0  0  0
   -6.6437   -4.1225    0.6467 H   0  0  0  0  0  0  0  0  0  0  0  0
   -7.5798   -1.9000    1.2911 H   0  0  0  0  0  0  0  0  0  0  0  0
   -6.2236    0.1340    0.7709 H   0  0  0  0  0  0  0  0  0  0  0  0
   -4.1264   -0.0110   -0.3946 H   0  0  0  0  0  0  0  0  0  0  0  0
    1.0275   -5.1395    0.2467 H   0  0  0  0  0  0  0  0  0  0  0  0
    2.0104   -7.2074    1.3531 H   0  0  0  0  0  0  0  0  0  0  0  0
  1  2  1  0  0  0  0
  1 37  1  0  0  0  0
  2  3  1  0  0  0  0
  2 38  1  0  0  0  0
  3  4  2  0  0  0  0
  3  5  1  0  0  0  0
  5  6  1  0  0  0  0
  5 39  1  0  0  0  0
  5 40  1  0  0  0  0
  6  7  1  0  0  0  0
  6 41  1  0  0  0  0
  6 42  1  0  0  0  0
  7  8  1  0  0  0  0
  7 43  1  0  0  0  0
  7 44  1  0  0  0  0
  8  9  1  0  0  0  0
  8 45  1  0  0  0  0
  8 46  1  0  0  0  0
  9 10  1  0  0  0  0
  9 47  1  0  0  0  0
  9 48  1  0  0  0  0
 10 11  1  0  0  0  0
 10 49  1  0  0  0  0
 10 50  1  0  0  0  0
 11 12  2  0  0  0  0
 11 13  1  0  0  0  0
 13 14  1  0  0  0  0
 13 51  1  0  0  0  0
 14 15  2  0  0  0  0
 14 36  1  0  0  0  0
 15 16  1  0  0  0  0
 15 52  1  0  0  0  0
 16 17  2  0  0  0  0
 16 53  1  0  0  0  0
 17 18  1  0  0  0  0
 17 35  1  0  0  0  0
 18 19  1  0  0  0  0
 18 54  1  0  0  0  0
 18 55  1  0  0  0  0
 19 56  1  0  0  0  0
 20 29  1  0  0  0  0
 20 57  1  6  0  0  0
 20 21  1  0  0  0  0
 20 19  1  0  0  0  0
 21 22  2  0  0  0  0
 21 23  1  0  0  0  0
 23 24  1  0  0  0  0
 24 25  1  0  0  0  0
 24 28  1  0  0  0  0
 24 58  1  0  0  0  0
 25 26  1  0  0  0  0
 25 59  1  0  0  0  0
 25 60  1  0  0  0  0
 26 27  1  0  0  0  0
 26 61  1  0  0  0  0
 26 62  1  0  0  0  0
 27 28  1  0  0  0  0
 27 63  1  0  0  0  0
 27 64  1  0  0  0  0
 28 65  1  0  0  0  0
 28 66  1  0  0  0  0
 29 30  2  0  0  0  0
 29 34  1  0  0  0  0
 30 31  1  0  0  0  0
 30 67  1  0  0  0  0
 31 32  2  0  0  0  0
 31 68  1  0  0  0  0
 32 33  1  0  0  0  0
 32 69  1  0  0  0  0
 33 34  2  0  0  0  0
 33 70  1  0  0  0  0
 34 71  1  0  0  0  0
 35 36  2  0  0  0  0
 35 72  1  0  0  0  0
 36 73  1  0  0  0  0
M  END
>  <DRUGBANK_ID>
DB15321

>  <COMMON_NAME>
Tefinostat

>  <CAS_NUMBER>
914382-60-8

>  <UNII>
ZAU91150SB

>  <SYNONYMS>
Tefinostat

$$$$
