
 OpenBabel10282417183D

 29 29  0  0  0  0  0  0  0  0999 V2000
    1.4102   -0.1945   -0.1096 C   0  0  0  0  0  0  0  0  0  0  0  0
    2.2516    0.2059   -3.8129 C   0  0  0  0  0  0  0  0  0  0  0  0
   -1.0342    1.0023    0.5618 C   0  0  0  0  0  0  0  0  0  0  0  0
   -2.6770    1.8593   -0.8729 C   0  0  0  0  0  0  0  0  0  0  0  0
   -1.9002    0.0417    1.0825 C   0  0  0  0  0  0  0  0  0  0  0  0
   -3.6338    1.0323   -0.2308 C   0  0  0  0  0  0  0  0  0  0  0  0
   -1.3220    1.7104   -0.6031 C   0  0  0  0  0  0  0  0  0  0  0  0
   -3.2205    0.0657    0.6929 C   0  0  0  0  0  0  0  0  0  0  0  0
   -5.3132    0.0206    2.3842 N   0  0  0  0  0  0  0  0  0  0  0  0
   -5.1451   -1.7096    0.5411 O   0  0  0  0  0  0  0  0  0  0  0  0
   -3.5959   -1.7619    2.5367 O   0  0  0  0  0  0  0  0  0  0  0  0
    0.5888    0.0976   -1.2591 O   0  0  0  0  0  0  0  0  0  0  0  0
    1.0182    0.8116   -3.4004 O   0  0  0  0  0  0  0  0  0  0  0  0
   -0.3959    2.1908   -1.5446 O   0  0  0  0  0  0  0  0  0  0  0  0
    1.1654    1.5793   -1.9409 P   0  0  0  0  0  0  0  0  0  0  0  0
    1.7979    3.2043   -2.6887 S   0  0  0  0  0  0  0  0  0  0  0  0
   -4.3343   -1.0373    1.5121 S   0  0  0  0  0  0  0  0  0  0  0  0
    0.9308   -0.9745    0.4879 H   0  0  0  0  0  0  0  0  0  0  0  0
    1.5359    0.7114    0.4990 H   0  0  0  0  0  0  0  0  0  0  0  0
    2.4282   -0.4671   -0.3769 H   0  0  0  0  0  0  0  0  0  0  0  0
    3.0705    0.9366   -3.8201 H   0  0  0  0  0  0  0  0  0  0  0  0
    2.5227   -0.5875   -3.1107 H   0  0  0  0  0  0  0  0  0  0  0  0
    2.1572   -0.1997   -4.8202 H   0  0  0  0  0  0  0  0  0  0  0  0
   -0.1160    1.1136    1.1056 H   0  0  0  0  0  0  0  0  0  0  0  0
   -2.9969    2.6228   -1.5761 H   0  0  0  0  0  0  0  0  0  0  0  0
   -1.5286   -0.6935    1.7969 H   0  0  0  0  0  0  0  0  0  0  0  0
   -4.6843    1.1272   -0.4879 H   0  0  0  0  0  0  0  0  0  0  0  0
   -6.0522   -0.5266    2.8315 H   0  0  0  0  0  0  0  0  0  0  0  0
   -4.7746    0.5327    3.0834 H   0  0  0  0  0  0  0  0  0  0  0  0
  1 18  1  0  0  0  0
  1 19  1  0  0  0  0
  1 20  1  0  0  0  0
  2 21  1  0  0  0  0
  2 22  1  0  0  0  0
  2 23  1  0  0  0  0
  3 24  1  0  0  0  0
  4 25  1  0  0  0  0
  5  3  1  0  0  0  0
  5 26  1  0  0  0  0
  6  4  2  0  0  0  0
  6 27  1  0  0  0  0
  7  3  2  0  0  0  0
  7  4  1  0  0  0  0
  8  5  2  0  0  0  0
  8  6  1  0  0  0  0
  9 28  1  0  0  0  0
  9 29  1  0  0  0  0
 12  1  1  0  0  0  0
 13  2  1  0  0  0  0
 14  7  1  0  0  0  0
 15 12  1  0  0  0  0
 15 13  1  0  0  0  0
 15 14  1  0  0  0  0
 16 15  2  0  0  0  0
 17  8  1  0  0  0  0
 17  9  1  0  0  0  0
 17 10  2  0  0  0  0
 17 11  2  0  0  0  0
M  END
>  <DRUGBANK_ID>
DB11392

>  <COMMON_NAME>
Cythioate

>  <CAS_NUMBER>
115-93-5

>  <UNII>
3OOH7Q4333

$$$$
