
 OpenBabel10282417133D

 64 67  0  0  0  0  0  0  0  0999 V2000
   -2.9311   -2.4942    0.1823 C   0  0  0  0  0  0  0  0  0  0  0  0
   -1.7764   -2.0244   -0.5544 N   0  0  0  0  0  0  0  0  0  0  0  0
   -0.4187   -2.1423   -0.0017 C   0  0  1  0  0  0  0  0  0  0  0  0
   -0.2920   -1.7703    1.4940 C   0  0  0  0  0  0  0  0  0  0  0  0
   -0.8395   -2.7988    2.4922 C   0  0  0  0  0  0  0  0  0  0  0  0
   -0.3623   -4.2298    2.1644 C   0  0  1  0  0  0  0  0  0  0  0  0
   -0.4773   -4.5924    0.6571 C   0  0  0  0  0  0  0  0  0  0  0  0
    0.1441   -3.5339   -0.2734 C   0  0  0  0  0  0  0  0  0  0  0  0
    1.0539   -4.3513    2.6749 C   0  0  0  0  0  0  0  0  0  0  0  0
    1.3547   -4.0333    4.0077 C   0  0  0  0  0  0  0  0  0  0  0  0
    2.6629   -4.0731    4.4669 C   0  0  0  0  0  0  0  0  0  0  0  0
    3.6913   -4.3847    3.5807 C   0  0  0  0  0  0  0  0  0  0  0  0
    5.1176   -4.5150    4.0410 C   0  0  0  0  0  0  0  0  0  0  0  0
    5.6938   -5.8713    3.9205 N   0  0  0  0  0  0  0  0  0  0  0  0
    4.9934   -6.8454    4.7696 C   0  0  0  0  0  0  0  0  0  0  0  0
    5.6889   -8.2069    4.6728 C   0  0  0  0  0  0  0  0  0  0  0  0
    5.7744   -8.7070    3.2303 C   0  0  0  0  0  0  0  0  0  0  0  0
    6.4218   -7.6587    2.3363 C   0  0  0  0  0  0  0  0  0  0  0  0
    5.7022   -6.3468    2.5312 C   0  0  0  0  0  0  0  0  0  0  0  0
    3.3836   -4.6233    2.2436 C   0  0  0  0  0  0  0  0  0  0  0  0
    2.0889   -4.7015    1.8218 C   0  0  0  0  0  0  0  0  0  0  0  0
   -2.0738   -1.6742   -1.8738 C   0  0  0  0  0  0  0  0  0  0  0  0
   -3.2265   -1.6647   -2.2762 O   0  0  0  0  0  0  0  0  0  0  0  0
   -0.9620   -1.3512   -2.6599 O   0  0  0  0  0  0  0  0  0  0  0  0
   -1.2474   -0.8439   -3.9474 C   0  0  0  0  0  0  0  0  0  0  0  0
   -2.2361    0.1246   -4.1534 C   0  0  0  0  0  0  0  0  0  0  0  0
   -2.4901    0.6059   -5.4377 C   0  0  0  0  0  0  0  0  0  0  0  0
   -1.7121    0.1649   -6.5039 C   0  0  0  0  0  0  0  0  0  0  0  0
   -2.0661    0.7092   -8.0977 Cl  0  0  0  0  0  0  0  0  0  0  0  0
   -0.6702   -0.7396   -6.2909 C   0  0  0  0  0  0  0  0  0  0  0  0
   -0.4591   -1.2779   -5.0147 C   0  0  0  0  0  0  0  0  0  0  0  0
   -2.6743   -3.0547    1.0573 H   0  0  0  0  0  0  0  0  0  0  0  0
   -3.4960   -3.2147   -0.4123 H   0  0  0  0  0  0  0  0  0  0  0  0
   -3.5436   -1.6374    0.4668 H   0  0  0  0  0  0  0  0  0  0  0  0
    0.2206   -1.4377   -0.5521 H   0  0  0  0  0  0  0  0  0  0  0  0
    0.7785   -1.6515    1.7237 H   0  0  0  0  0  0  0  0  0  0  0  0
   -0.7485   -0.7940    1.6817 H   0  0  0  0  0  0  0  0  0  0  0  0
   -0.5580   -2.4708    3.4983 H   0  0  0  0  0  0  0  0  0  0  0  0
   -1.9232   -2.7727    2.6022 H   0  0  0  0  0  0  0  0  0  0  0  0
   -0.9641   -4.9560    2.7266 H   0  0  0  0  0  0  0  0  0  0  0  0
   -0.0233   -5.5747    0.4636 H   0  0  0  0  0  0  0  0  0  0  0  0
   -1.5259   -4.7389    0.3846 H   0  0  0  0  0  0  0  0  0  0  0  0
    0.0168   -3.8399   -1.3181 H   0  0  0  0  0  0  0  0  0  0  0  0
    1.2286   -3.4488   -0.1491 H   0  0  0  0  0  0  0  0  0  0  0  0
    0.5711   -3.7320    4.6984 H   0  0  0  0  0  0  0  0  0  0  0  0
    2.8646   -3.8542    5.5105 H   0  0  0  0  0  0  0  0  0  0  0  0
    5.7160   -3.8042    3.4574 H   0  0  0  0  0  0  0  0  0  0  0  0
    5.1990   -4.1724    5.0804 H   0  0  0  0  0  0  0  0  0  0  0  0
    3.9418   -6.9585    4.4718 H   0  0  0  0  0  0  0  0  0  0  0  0
    4.9990   -6.5134    5.8146 H   0  0  0  0  0  0  0  0  0  0  0  0
    5.1460   -8.9368    5.2813 H   0  0  0  0  0  0  0  0  0  0  0  0
    6.7023   -8.1217    5.0818 H   0  0  0  0  0  0  0  0  0  0  0  0
    6.3427   -9.6380    3.1725 H   0  0  0  0  0  0  0  0  0  0  0  0
    4.7597   -8.9217    2.8656 H   0  0  0  0  0  0  0  0  0  0  0  0
    7.4861   -7.5387    2.5535 H   0  0  0  0  0  0  0  0  0  0  0  0
    6.3194   -7.9531    1.2841 H   0  0  0  0  0  0  0  0  0  0  0  0
    6.1342   -5.5906    1.8658 H   0  0  0  0  0  0  0  0  0  0  0  0
    4.6838   -6.5816    2.2067 H   0  0  0  0  0  0  0  0  0  0  0  0
    4.1304   -4.8344    1.4885 H   0  0  0  0  0  0  0  0  0  0  0  0
    1.9616   -5.0062    0.7907 H   0  0  0  0  0  0  0  0  0  0  0  0
   -2.8457    0.4844   -3.3291 H   0  0  0  0  0  0  0  0  0  0  0  0
   -3.2959    1.3178   -5.5930 H   0  0  0  0  0  0  0  0  0  0  0  0
   -0.0284   -1.0313   -7.1182 H   0  0  0  0  0  0  0  0  0  0  0  0
    0.3037   -2.0370   -4.8701 H   0  0  0  0  0  0  0  0  0  0  0  0
  1  2  1  0  0  0  0
  1 32  1  0  0  0  0
  1 33  1  0  0  0  0
  1 34  1  0  0  0  0
  2 22  1  0  0  0  0
  3  4  1  0  0  0  0
  3  8  1  0  0  0  0
  3 35  1  6  0  0  0
  3  2  1  0  0  0  0
  4  5  1  0  0  0  0
  4 36  1  0  0  0  0
  4 37  1  0  0  0  0
  5  6  1  0  0  0  0
  5 38  1  0  0  0  0
  5 39  1  0  0  0  0
  6  7  1  0  0  0  0
  6  9  1  0  0  0  0
  6 40  1  1  0  0  0
  7  8  1  0  0  0  0
  7 41  1  0  0  0  0
  7 42  1  0  0  0  0
  8 43  1  0  0  0  0
  8 44  1  0  0  0  0
  9 10  2  0  0  0  0
  9 21  1  0  0  0  0
 10 11  1  0  0  0  0
 10 45  1  0  0  0  0
 11 12  2  0  0  0  0
 11 46  1  0  0  0  0
 12 13  1  0  0  0  0
 12 20  1  0  0  0  0
 13 14  1  0  0  0  0
 13 47  1  0  0  0  0
 13 48  1  0  0  0  0
 14 15  1  0  0  0  0
 14 19  1  0  0  0  0
 15 16  1  0  0  0  0
 15 49  1  0  0  0  0
 15 50  1  0  0  0  0
 16 17  1  0  0  0  0
 16 51  1  0  0  0  0
 16 52  1  0  0  0  0
 17 18  1  0  0  0  0
 17 53  1  0  0  0  0
 17 54  1  0  0  0  0
 18 19  1  0  0  0  0
 18 55  1  0  0  0  0
 18 56  1  0  0  0  0
 19 57  1  0  0  0  0
 19 58  1  0  0  0  0
 20 21  2  0  0  0  0
 20 59  1  0  0  0  0
 21 60  1  0  0  0  0
 22 23  2  0  0  0  0
 22 24  1  0  0  0  0
 24 25  1  0  0  0  0
 25 26  2  0  0  0  0
 25 31  1  0  0  0  0
 26 27  1  0  0  0  0
 26 61  1  0  0  0  0
 27 28  2  0  0  0  0
 27 62  1  0  0  0  0
 28 29  1  0  0  0  0
 28 30  1  0  0  0  0
 30 31  2  0  0  0  0
 30 63  1  0  0  0  0
 31 64  1  0  0  0  0
M  END
>  <DRUGBANK_ID>
DB03748

>  <SECONDARY_ACCESSION_NUMBERS>
EXPT02744

>  <COMMON_NAME>
Methyl-[4-(4-Piperidine-1-Ylmethyl-Phenyl)-Cyclohexyl]-Carbaminic Acid-(4-Chlorophenyl)-Ester

$$$$
