
 OpenBabel10282417223D

 51 53  0  0  1  0  0  0  0  0999 V2000
    1.3785   -8.6294    1.9271 C   0  0  0  0  0  0  0  0  0  0  0  0
    2.6099   -7.7637    1.7762 C   0  0  0  0  0  0  0  0  0  0  0  0
    3.8813   -8.2193    2.1881 C   0  0  0  0  0  0  0  0  0  0  0  0
    5.0000   -7.3770    2.0288 C   0  0  0  0  0  0  0  0  0  0  0  0
    4.8803   -6.1133    1.4601 C   0  0  0  0  0  0  0  0  0  0  0  0
    3.6296   -5.6606    1.0600 C   0  0  0  0  0  0  0  0  0  0  0  0
    2.4879   -6.4663    1.2271 C   0  0  0  0  0  0  0  0  0  0  0  0
    1.1365   -5.8909    0.8754 C   0  0  0  0  0  0  0  0  0  0  0  0
    0.8550   -4.6974    1.6349 O   0  0  0  0  0  0  0  0  0  0  0  0
    0.7701   -4.8063    3.0003 C   0  0  0  0  0  0  0  0  0  0  0  0
    0.8178   -5.8299    3.6484 O   0  0  0  0  0  0  0  0  0  0  0  0
    0.5931   -3.4513    3.6117 C   0  0  2  0  0  0  0  0  0  0  0  0
    0.8672   -3.0643    5.0586 C   0  0  2  0  0  0  0  0  0  0  0  0
    1.2674   -3.9778    6.1424 C   0  0  0  0  0  0  0  0  0  0  0  0
    0.6086   -4.2715    7.2862 C   0  0  0  0  0  0  0  0  0  0  0  0
   -0.8088   -3.3977    7.8093 Cl  0  0  0  0  0  0  0  0  0  0  0  0
    0.9986   -5.3707    8.2227 C   0  0  0  0  0  0  0  0  0  0  0  0
    1.5383   -6.4419    7.5845 F   0  0  0  0  0  0  0  0  0  0  0  0
    1.9225   -4.9333    9.1133 F   0  0  0  0  0  0  0  0  0  0  0  0
   -0.0500   -5.8527    8.9440 F   0  0  0  0  0  0  0  0  0  0  0  0
   -0.5707   -3.1227    4.5364 C   0  0  0  0  0  0  0  0  0  0  0  0
   -1.2663   -1.7909    4.3838 C   0  0  0  0  0  0  0  0  0  0  0  0
   -1.5195   -4.2453    4.9230 C   0  0  0  0  0  0  0  0  0  0  0  0
    4.0860   -9.5598    2.7480 C   0  0  0  0  0  0  0  0  0  0  0  0
    3.7616  -10.6972    1.9899 C   0  0  0  0  0  0  0  0  0  0  0  0
    3.9583  -11.9759    2.4980 C   0  0  0  0  0  0  0  0  0  0  0  0
    4.5422  -12.1334    3.7509 C   0  0  0  0  0  0  0  0  0  0  0  0
    4.9013  -11.0156    4.5040 C   0  0  0  0  0  0  0  0  0  0  0  0
    4.6212   -9.7351    4.0305 C   0  0  0  0  0  0  0  0  0  0  0  0
    0.6259   -8.1334    2.5434 H   0  0  0  0  0  0  0  0  0  0  0  0
    0.9672   -8.8543    0.9369 H   0  0  0  0  0  0  0  0  0  0  0  0
    1.5590   -9.5839    2.4211 H   0  0  0  0  0  0  0  0  0  0  0  0
    5.9852   -7.7236    2.3376 H   0  0  0  0  0  0  0  0  0  0  0  0
    5.7596   -5.4867    1.3374 H   0  0  0  0  0  0  0  0  0  0  0  0
    3.5383   -4.6627    0.6354 H   0  0  0  0  0  0  0  0  0  0  0  0
    1.1552   -5.6212   -0.1901 H   0  0  0  0  0  0  0  0  0  0  0  0
    0.3067   -6.5962    0.9759 H   0  0  0  0  0  0  0  0  0  0  0  0
    0.8152   -2.6781    2.8779 H   0  0  0  0  0  0  0  0  0  0  0  0
    1.3488   -2.0919    5.1611 H   0  0  0  0  0  0  0  0  0  0  0  0
    2.2493   -4.4393    6.0145 H   0  0  0  0  0  0  0  0  0  0  0  0
   -0.5634   -0.9503    4.3728 H   0  0  0  0  0  0  0  0  0  0  0  0
   -1.8414   -1.7752    3.4549 H   0  0  0  0  0  0  0  0  0  0  0  0
   -1.9555   -1.6175    5.2182 H   0  0  0  0  0  0  0  0  0  0  0  0
   -2.0102   -4.6888    4.0566 H   0  0  0  0  0  0  0  0  0  0  0  0
   -1.0251   -5.0630    5.4550 H   0  0  0  0  0  0  0  0  0  0  0  0
   -2.3099   -3.8593    5.5776 H   0  0  0  0  0  0  0  0  0  0  0  0
    3.3133  -10.5790    1.0050 H   0  0  0  0  0  0  0  0  0  0  0  0
    3.6678  -12.8392    1.9073 H   0  0  0  0  0  0  0  0  0  0  0  0
    4.7137  -13.1303    4.1445 H   0  0  0  0  0  0  0  0  0  0  0  0
    5.4032  -11.1395    5.4589 H   0  0  0  0  0  0  0  0  0  0  0  0
    4.8191   -8.8720    4.6637 H   0  0  0  0  0  0  0  0  0  0  0  0
  1  2  1  0  0  0  0
  1 30  1  0  0  0  0
  1 31  1  0  0  0  0
  1 32  1  0  0  0  0
  2  3  2  0  0  0  0
  2  7  1  0  0  0  0
  3  4  1  0  0  0  0
  3 24  1  0  0  0  0
  4  5  2  0  0  0  0
  4 33  1  0  0  0  0
  5  6  1  0  0  0  0
  5 34  1  0  0  0  0
  6  7  2  0  0  0  0
  6 35  1  0  0  0  0
  7  8  1  0  0  0  0
  8  9  1  0  0  0  0
  8 36  1  0  0  0  0
  8 37  1  0  0  0  0
  9 10  1  0  0  0  0
 10 11  2  0  0  0  0
 12 13  1  0  0  0  0
 12 21  1  0  0  0  0
 12 38  1  6  0  0  0
 12 10  1  0  0  0  0
 13 21  1  0  0  0  0
 13 39  1  1  0  0  0
 13 14  1  0  0  0  0
 14 15  2  0  0  0  0
 14 40  1  0  0  0  0
 15 16  1  0  0  0  0
 15 17  1  0  0  0  0
 17 18  1  0  0  0  0
 17 19  1  0  0  0  0
 17 20  1  0  0  0  0
 21 22  1  0  0  0  0
 21 23  1  0  0  0  0
 22 41  1  0  0  0  0
 22 42  1  0  0  0  0
 22 43  1  0  0  0  0
 23 44  1  0  0  0  0
 23 45  1  0  0  0  0
 23 46  1  0  0  0  0
 24 25  2  0  0  0  0
 24 29  1  0  0  0  0
 25 26  1  0  0  0  0
 25 47  1  0  0  0  0
 26 27  2  0  0  0  0
 26 48  1  0  0  0  0
 27 28  1  0  0  0  0
 27 49  1  0  0  0  0
 28 29  2  0  0  0  0
 28 50  1  0  0  0  0
 29 51  1  0  0  0  0
M  END
>  <DRUGBANK_ID>
DB15056

>  <COMMON_NAME>
Bifenthrin

>  <CAS_NUMBER>
82657-04-3

>  <UNII>
6B66JED0KN

>  <SYNONYMS>
CAPTURE

$$$$
