
 OpenBabel10282417183D

 64 68  0  0  1  0  0  0  0  0999 V2000
    3.1434    0.6758    0.6025 C   0  0  0  0  0  0  0  0  0  0  0  0
    3.6225   -0.6451    0.2485 C   0  0  0  0  0  0  0  0  0  0  0  0
    4.3144   -0.2892   -1.0577 C   0  0  0  0  0  0  0  0  0  0  0  0
    4.5812   -1.1270    1.3988 C   0  0  0  0  0  0  0  0  0  0  0  0
    3.8968   -1.4466    2.6237 O   0  0  0  0  0  0  0  0  0  0  0  0
    2.3642   -1.5149    0.1480 C   0  0  0  0  0  0  0  0  0  0  0  0
    2.4994   -2.8239   -0.1864 C   0  0  0  0  0  0  0  0  0  0  0  0
    1.2624   -3.4348   -0.0160 C   0  0  0  0  0  0  0  0  0  0  0  0
    0.9035   -4.7683   -0.0336 C   0  0  0  0  0  0  0  0  0  0  0  0
   -0.3485   -5.2229   -0.2696 C   0  0  0  0  0  0  0  0  0  0  0  0
   -1.3495   -4.3405    0.0837 C   0  0  0  0  0  0  0  0  0  0  0  0
   -1.0508   -2.9841    0.4403 C   0  0  0  0  0  0  0  0  0  0  0  0
    0.2889   -2.5088    0.2975 C   0  0  0  0  0  0  0  0  0  0  0  0
    0.9994   -1.3114    0.5317 N   0  0  0  0  0  0  0  0  0  0  0  0
    0.3515   -0.1208    1.1363 C   0  0  0  0  0  0  0  0  0  0  0  0
    0.8610    0.4470    2.5283 C   0  0  2  0  0  0  0  0  0  0  0  0
    1.7682    1.7746    2.5831 C   0  0  0  0  0  0  0  0  0  0  0  0
    1.5626    2.7314    1.5394 O   0  0  0  0  0  0  0  0  0  0  0  0
    1.4535   -0.6072    3.3118 O   0  0  0  0  0  0  0  0  0  0  0  0
   -2.6109   -4.7873    0.1918 F   0  0  0  0  0  0  0  0  0  0  0  0
   -0.4743   -6.5343   -0.7556 N   0  0  0  0  0  0  0  0  0  0  0  0
    0.4947   -7.3182   -1.3596 C   0  0  0  0  0  0  0  0  0  0  0  0
    0.1175   -8.4509   -1.7639 O   0  0  0  0  0  0  0  0  0  0  0  0
    1.9987   -7.0254   -1.4780 C   0  0  0  0  0  0  0  0  0  0  0  0
    2.8464   -5.7296   -1.5662 C   0  0  0  0  0  0  0  0  0  0  0  0
    2.4532   -6.3784   -2.8180 C   0  0  0  0  0  0  0  0  0  0  0  0
    2.8081   -8.1547   -0.8833 C   0  0  0  0  0  0  0  0  0  0  0  0
    2.6931   -8.6979    0.4008 C   0  0  0  0  0  0  0  0  0  0  0  0
    3.2151   -9.9929    0.6027 C   0  0  0  0  0  0  0  0  0  0  0  0
    4.1406  -10.4404   -0.3455 C   0  0  0  0  0  0  0  0  0  0  0  0
    4.7082   -9.4963   -1.1265 C   0  0  0  0  0  0  0  0  0  0  0  0
    3.7305   -8.7454   -1.7041 C   0  0  0  0  0  0  0  0  0  0  0  0
    5.7524  -10.0117   -1.8444 O   0  0  0  0  0  0  0  0  0  0  0  0
    5.0065  -11.1146   -2.2945 C   0  0  0  0  0  0  0  0  0  0  0  0
    4.1191  -11.5880   -1.1901 O   0  0  0  0  0  0  0  0  0  0  0  0
    4.3289  -10.6550   -3.3928 F   0  0  0  0  0  0  0  0  0  0  0  0
    5.8337  -12.0800   -2.7505 F   0  0  0  0  0  0  0  0  0  0  0  0
    3.8781    1.4521    0.8003 H   0  0  0  0  0  0  0  0  0  0  0  0
    2.7293    0.3417    1.5123 H   0  0  0  0  0  0  0  0  0  0  0  0
    2.3804    0.9871   -0.1102 H   0  0  0  0  0  0  0  0  0  0  0  0
    5.0731    0.4875   -0.8640 H   0  0  0  0  0  0  0  0  0  0  0  0
    4.7851   -1.1314   -1.5491 H   0  0  0  0  0  0  0  0  0  0  0  0
    3.5910    0.1715   -1.7490 H   0  0  0  0  0  0  0  0  0  0  0  0
    5.1174   -2.0312    1.1077 H   0  0  0  0  0  0  0  0  0  0  0  0
    5.3196   -0.3525    1.6419 H   0  0  0  0  0  0  0  0  0  0  0  0
    3.7000   -0.6314    3.1253 H   0  0  0  0  0  0  0  0  0  0  0  0
    3.4511   -3.2625   -0.4620 H   0  0  0  0  0  0  0  0  0  0  0  0
    1.6743   -5.4812    0.1663 H   0  0  0  0  0  0  0  0  0  0  0  0
   -1.8468   -2.3579    0.8213 H   0  0  0  0  0  0  0  0  0  0  0  0
    0.2884    0.6434    0.3567 H   0  0  0  0  0  0  0  0  0  0  0  0
   -0.6924   -0.4224    1.3040 H   0  0  0  0  0  0  0  0  0  0  0  0
   -0.0269    0.7461    3.0904 H   0  0  0  0  0  0  0  0  0  0  0  0
    1.6638    2.3250    3.5134 H   0  0  0  0  0  0  0  0  0  0  0  0
    2.8444    1.5450    2.7127 H   0  0  0  0  0  0  0  0  0  0  0  0
    1.5828    2.3602    0.6419 H   0  0  0  0  0  0  0  0  0  0  0  0
    1.9016   -1.2635    2.7276 H   0  0  0  0  0  0  0  0  0  0  0  0
   -1.3913   -6.9675   -0.7592 H   0  0  0  0  0  0  0  0  0  0  0  0
    2.5819   -4.6972   -1.6948 H   0  0  0  0  0  0  0  0  0  0  0  0
    3.7987   -5.7855   -1.0331 H   0  0  0  0  0  0  0  0  0  0  0  0
    3.3347   -6.5646   -3.4184 H   0  0  0  0  0  0  0  0  0  0  0  0
    1.6872   -5.8359   -3.3712 H   0  0  0  0  0  0  0  0  0  0  0  0
    2.1139   -8.1744    1.1583 H   0  0  0  0  0  0  0  0  0  0  0  0
    3.0155  -10.4882    1.5523 H   0  0  0  0  0  0  0  0  0  0  0  0
    3.5246   -8.7442   -2.7747 H   0  0  0  0  0  0  0  0  0  0  0  0
  1  2  1  0  0  0  0
  1 38  1  0  0  0  0
  1 39  1  0  0  0  0
  1 40  1  0  0  0  0
  2  3  1  0  0  0  0
  2  4  1  0  0  0  0
  2  6  1  0  0  0  0
  3 41  1  0  0  0  0
  3 42  1  0  0  0  0
  3 43  1  0  0  0  0
  4  5  1  0  0  0  0
  4 44  1  0  0  0  0
  4 45  1  0  0  0  0
  5 46  1  0  0  0  0
  6  7  2  0  0  0  0
  6 14  1  0  0  0  0
  7  8  1  0  0  0  0
  7 47  1  0  0  0  0
  8  9  2  0  0  0  0
  8 13  1  0  0  0  0
  9 10  1  0  0  0  0
  9 48  1  0  0  0  0
 10 11  2  0  0  0  0
 10 21  1  0  0  0  0
 11 12  1  0  0  0  0
 11 20  1  0  0  0  0
 12 13  2  0  0  0  0
 12 49  1  0  0  0  0
 13 14  1  0  0  0  0
 14 15  1  0  0  0  0
 15 50  1  0  0  0  0
 15 51  1  0  0  0  0
 16 19  1  0  0  0  0
 16 52  1  1  0  0  0
 16 17  1  0  0  0  0
 16 15  1  0  0  0  0
 17 18  1  0  0  0  0
 17 53  1  0  0  0  0
 17 54  1  0  0  0  0
 18 55  1  0  0  0  0
 19 56  1  0  0  0  0
 21 22  1  0  0  0  0
 21 57  1  0  0  0  0
 22 23  2  0  0  0  0
 22 24  1  0  0  0  0
 24 25  1  0  0  0  0
 24 26  1  0  0  0  0
 24 27  1  0  0  0  0
 25 26  1  0  0  0  0
 25 58  1  0  0  0  0
 25 59  1  0  0  0  0
 26 60  1  0  0  0  0
 26 61  1  0  0  0  0
 27 28  2  0  0  0  0
 27 32  1  0  0  0  0
 28 29  1  0  0  0  0
 28 62  1  0  0  0  0
 29 30  2  0  0  0  0
 29 63  1  0  0  0  0
 30 31  1  0  0  0  0
 30 35  1  0  0  0  0
 31 32  2  0  0  0  0
 31 33  1  0  0  0  0
 32 64  1  0  0  0  0
 33 34  1  0  0  0  0
 34 35  1  0  0  0  0
 34 36  1  0  0  0  0
 34 37  1  0  0  0  0
M  END
>  <DRUGBANK_ID>
DB11712

>  <COMMON_NAME>
Tezacaftor

>  <CAS_NUMBER>
1152311-62-0

>  <UNII>
8RW88Y506K

>  <SYNONYMS>
Tezacaftor

$$$$
