
 OpenBabel10282417183D

 41 43  0  0  0  0  0  0  0  0999 V2000
    1.0380   -0.0580    0.0318 C   0  0  0  0  0  0  0  0  0  0  0  0
    0.3707   -2.9836    3.5414 C   0  0  0  0  0  0  0  0  0  0  0  0
   -0.1579   -7.2089    3.3124 C   0  0  0  0  0  0  0  0  0  0  0  0
    1.1469   -6.0759    1.6079 C   0  0  0  0  0  0  0  0  0  0  0  0
   -0.9313   -7.8143    2.3155 C   0  0  0  0  0  0  0  0  0  0  0  0
    0.4183   -6.7439    0.6075 C   0  0  0  0  0  0  0  0  0  0  0  0
    0.0007   -1.8376    2.8321 C   0  0  0  0  0  0  0  0  0  0  0  0
    2.6711   -2.6507    2.8627 C   0  0  0  0  0  0  0  0  0  0  0  0
    3.0403   -4.6315    5.2879 C   0  0  0  0  0  0  0  0  0  0  0  0
    1.7050   -3.4008    3.5299 C   0  0  0  0  0  0  0  0  0  0  0  0
    0.9011   -6.3651    2.9605 C   0  0  0  0  0  0  0  0  0  0  0  0
   -0.6252   -7.6042    0.9656 C   0  0  0  0  0  0  0  0  0  0  0  0
    2.2969   -1.5217    2.1625 C   0  0  0  0  0  0  0  0  0  0  0  0
    3.2108   -5.9981    5.5780 C   0  0  0  0  0  0  0  0  0  0  0  0
    2.1494   -4.5783    4.2389 C   0  0  0  0  0  0  0  0  0  0  0  0
    0.9590   -1.1330    2.0959 C   0  0  0  0  0  0  0  0  0  0  0  0
    4.1768   -6.5402    6.5938 C   0  0  0  0  0  0  0  0  0  0  0  0
    3.2667   -0.8153    1.5680 F   0  0  0  0  0  0  0  0  0  0  0  0
    3.5634   -7.3020    7.5368 F   0  0  0  0  0  0  0  0  0  0  0  0
    5.1481   -7.3082    6.0288 F   0  0  0  0  0  0  0  0  0  0  0  0
   -2.2255   -7.2103   -1.2044 N   0  0  0  0  0  0  0  0  0  0  0  0
    2.3773   -6.7539    4.8361 N   0  0  0  0  0  0  0  0  0  0  0  0
    1.7623   -5.8810    3.9861 N   0  0  0  0  0  0  0  0  0  0  0  0
   -0.6569   -9.1864   -1.1349 O   0  0  0  0  0  0  0  0  0  0  0  0
   -2.7021   -9.0869    0.3496 O   0  0  0  0  0  0  0  0  0  0  0  0
    0.5255   -0.0580    1.3675 O   0  0  0  0  0  0  0  0  0  0  0  0
   -1.5669   -8.4575   -0.2776 S   0  0  0  0  0  0  0  0  0  0  0  0
    0.6495    0.8272   -0.4774 H   0  0  0  0  0  0  0  0  0  0  0  0
    0.6970   -0.9475   -0.5097 H   0  0  0  0  0  0  0  0  0  0  0  0
    2.1276    0.0133   -0.0137 H   0  0  0  0  0  0  0  0  0  0  0  0
   -0.3805   -3.5402    4.1000 H   0  0  0  0  0  0  0  0  0  0  0  0
   -0.4066   -7.3742    4.3591 H   0  0  0  0  0  0  0  0  0  0  0  0
    1.9408   -5.3945    1.3114 H   0  0  0  0  0  0  0  0  0  0  0  0
   -1.7475   -8.4737    2.6038 H   0  0  0  0  0  0  0  0  0  0  0  0
    0.6902   -6.6168   -0.4395 H   0  0  0  0  0  0  0  0  0  0  0  0
   -1.0357   -1.5091    2.8442 H   0  0  0  0  0  0  0  0  0  0  0  0
    3.7177   -2.9398    2.8734 H   0  0  0  0  0  0  0  0  0  0  0  0
    3.5260   -3.7865    5.7592 H   0  0  0  0  0  0  0  0  0  0  0  0
    4.6814   -5.7168    7.1133 H   0  0  0  0  0  0  0  0  0  0  0  0
   -2.7187   -7.6329   -1.9966 H   0  0  0  0  0  0  0  0  0  0  0  0
   -2.8682   -6.6408   -0.6541 H   0  0  0  0  0  0  0  0  0  0  0  0
  1 28  1  0  0  0  0
  1 29  1  0  0  0  0
  1 30  1  0  0  0  0
  2 31  1  0  0  0  0
  3 32  1  0  0  0  0
  4 33  1  0  0  0  0
  5  3  1  0  0  0  0
  5 34  1  0  0  0  0
  6  4  2  0  0  0  0
  6 35  1  0  0  0  0
  7  2  2  0  0  0  0
  7 36  1  0  0  0  0
  8 37  1  0  0  0  0
  9 38  1  0  0  0  0
 10  2  1  0  0  0  0
 10  8  2  0  0  0  0
 11  3  2  0  0  0  0
 11  4  1  0  0  0  0
 12  5  2  0  0  0  0
 12  6  1  0  0  0  0
 13  8  1  0  0  0  0
 14  9  1  0  0  0  0
 15  9  2  0  0  0  0
 15 10  1  0  0  0  0
 16  7  1  0  0  0  0
 16 13  2  0  0  0  0
 17 14  1  0  0  0  0
 17 39  1  0  0  0  0
 18 13  1  0  0  0  0
 19 17  1  0  0  0  0
 20 17  1  0  0  0  0
 21 40  1  0  0  0  0
 21 41  1  0  0  0  0
 22 14  2  0  0  0  0
 23 11  1  0  0  0  0
 23 15  1  0  0  0  0
 23 22  1  0  0  0  0
 26  1  1  0  0  0  0
 26 16  1  0  0  0  0
 27 12  1  0  0  0  0
 27 21  1  0  0  0  0
 27 24  2  0  0  0  0
 27 25  2  0  0  0  0
M  END
>  <DRUGBANK_ID>
DB11395

>  <COMMON_NAME>
Deracoxib

>  <CAS_NUMBER>
169590-41-4

>  <UNII>
VX29JB5XWV

>  <SYNONYMS>
DÃ©racoxib; Deracoxib; Deracoxibum

$$$$
