1199
 OpenBabel10282417113D

 86 92  0  0  1  0  0  0  0  0999 V2000
    5.0975   -1.8844   -4.1555 O   0  0  0  0  0  0  0  0  0  0  0  0
   11.0786   -2.9428   -7.5035 O   0  0  0  0  0  0  0  0  0  0  0  0
    9.0823   -1.4294   -8.4521 O   0  0  0  0  0  0  0  0  0  0  0  0
    6.7092   -3.5149   -4.6526 O   0  0  0  0  0  0  0  0  0  0  0  0
    6.1548   -5.8566   -4.1579 O   0  0  0  0  0  0  0  0  0  0  0  0
    3.9806   -2.4777   -5.8354 O   0  0  0  0  0  0  0  0  0  0  0  0
    6.5137   -6.1886  -10.1841 N   0  3  0  0  0  0  0  0  0  0  0  0
    6.3340    2.1748   -1.9248 N   0  0  0  0  0  0  0  0  0  0  0  0
    6.7024   -4.2991   -9.5126 C   0  0  1  0  0  0  0  0  0  0  0  0
    6.8068   -6.9478   -9.0163 C   0  0  0  0  0  0  0  0  0  0  0  0
    7.0341   -3.3870   -7.6074 C   0  0  0  0  0  0  0  0  0  0  0  0
    8.0549   -6.5175   -8.4096 C   0  0  0  0  0  0  0  0  0  0  0  0
    5.3120   -3.9889   -9.4193 C   0  0  0  0  0  0  0  0  0  0  0  0
    8.2132   -4.6944   -8.2676 C   0  0  0  0  0  0  0  0  0  0  0  0
    7.5373   -6.8435  -11.1929 C   0  0  0  0  0  0  0  0  0  0  0  0
    5.1490   -6.6495  -10.8817 C   0  0  0  0  0  0  0  0  0  0  0  0
    6.3196   -2.0785   -6.1062 C   0  0  0  0  0  0  0  0  0  0  0  0
    5.1030   -4.5561   -8.0778 C   0  0  0  0  0  0  0  0  0  0  0  0
    9.5292   -4.6199   -8.0571 C   0  0  0  0  0  0  0  0  0  0  0  0
    8.1732   -2.1484   -6.9250 C   0  0  0  0  0  0  0  0  0  0  0  0
    9.5025   -3.2629   -7.7310 C   0  0  0  0  0  0  0  0  0  0  0  0
    5.2140   -3.8191   -6.9682 C   0  0  0  0  0  0  0  0  0  0  0  0
    4.8444   -5.7821   -7.6621 C   0  0  0  0  0  0  0  0  0  0  0  0
    6.7882    0.7598   -1.9056 C   0  0  2  0  0  0  0  0  0  0  0  0
    6.2004   -0.0248   -3.0455 C   0  0  0  0  0  0  0  0  0  0  0  0
    6.5968    0.0547   -0.5353 C   0  0  0  0  0  0  0  0  0  0  0  0
    4.8955    2.3102   -2.0653 C   0  0  0  0  0  0  0  0  0  0  0  0
    5.9284   -4.2185   -5.6607 C   0  0  0  0  0  0  0  0  0  0  0  0
    4.9787    0.5169   -3.7617 C   0  0  0  0  0  0  0  0  0  0  0  0
    4.2059    1.6655   -3.1916 C   0  0  0  0  0  0  0  0  0  0  0  0
    3.9577   -0.9858   -2.4976 C   0  0  0  0  0  0  0  0  0  0  0  0
    5.2312   -6.2410   -6.3702 C   0  0  0  0  0  0  0  0  0  0  0  0
    5.2087   -0.0454   -0.0073 C   0  0  0  0  0  0  0  0  0  0  0  0
    5.8219   -5.4873   -5.3941 C   0  0  0  0  0  0  0  0  0  0  0  0
    6.9138   -1.2838   -3.3785 C   0  0  0  0  0  0  0  0  0  0  0  0
    6.5491   -2.0502   -4.4669 C   0  0  0  0  0  0  0  0  0  0  0  0
    4.2748   -0.1130   -4.9353 C   0  0  0  0  0  0  0  0  0  0  0  0
    6.8587    2.8676   -0.7557 C   0  0  0  0  0  0  0  0  0  0  0  0
    3.5104    0.3653   -1.0849 C   0  0  0  0  0  0  0  0  0  0  0  0
    3.5180   -1.4920   -0.9068 C   0  0  0  0  0  0  0  0  0  0  0  0
    4.9158   -1.2780   -5.5379 C   0  0  0  0  0  0  0  0  0  0  0  0
    4.3924    0.9489    0.1664 C   0  0  0  0  0  0  0  0  0  0  0  0
    4.5055   -1.2333    0.1027 C   0  0  0  0  0  0  0  0  0  0  0  0
   11.8576   -3.9037   -6.6423 C   0  0  0  0  0  0  0  0  0  0  0  0
    2.8311   -2.0322   -6.4169 C   0  0  0  0  0  0  0  0  0  0  0  0
    6.6970   -4.2606  -10.9671 H   0  0  0  0  0  0  0  0  0  0  0  0
    7.8622    0.7524   -2.1568 H   0  0  0  0  0  0  0  0  0  0  0  0
   10.2782   -1.1835   -8.6517 H   0  0  0  0  0  0  0  0  0  0  0  0
    5.9840   -6.7815   -3.9884 H   0  0  0  0  0  0  0  0  0  0  0  0
    6.3889   -6.3917   -8.3071 H   0  0  0  0  0  0  0  0  0  0  0  0
    6.3479   -7.9278   -8.9010 H   0  0  0  0  0  0  0  0  0  0  0  0
    8.1031   -6.8351   -7.3723 H   0  0  0  0  0  0  0  0  0  0  0  0
    8.7382   -7.2187   -8.9654 H   0  0  0  0  0  0  0  0  0  0  0  0
    4.5144   -4.2955  -10.0625 H   0  0  0  0  0  0  0  0  0  0  0  0
    5.5588   -2.9470   -9.5953 H   0  0  0  0  0  0  0  0  0  0  0  0
    7.4135   -7.9547  -11.1893 H   0  0  0  0  0  0  0  0  0  0  0  0
    7.4060   -6.4893  -12.2092 H   0  0  0  0  0  0  0  0  0  0  0  0
    8.5145   -6.6013  -10.8215 H   0  0  0  0  0  0  0  0  0  0  0  0
    4.3388   -6.2635  -10.2962 H   0  0  0  0  0  0  0  0  0  0  0  0
    5.0776   -6.2797  -11.9089 H   0  0  0  0  0  0  0  0  0  0  0  0
    5.0732   -7.7545  -10.9030 H   0  0  0  0  0  0  0  0  0  0  0  0
   10.0994   -5.3939   -7.4421 H   0  0  0  0  0  0  0  0  0  0  0  0
    5.2878   -2.7345   -7.4454 H   0  0  0  0  0  0  0  0  0  0  0  0
    4.7386   -6.5126   -8.4610 H   0  0  0  0  0  0  0  0  0  0  0  0
    7.1657    0.5984    0.2110 H   0  0  0  0  0  0  0  0  0  0  0  0
    6.9967   -0.9542   -0.5727 H   0  0  0  0  0  0  0  0  0  0  0  0
    4.5472    1.5909   -1.4976 H   0  0  0  0  0  0  0  0  0  0  0  0
    4.3748    3.1464   -1.6053 H   0  0  0  0  0  0  0  0  0  0  0  0
    3.1347    1.4185   -2.9895 H   0  0  0  0  0  0  0  0  0  0  0  0
    4.3097    2.3874   -3.9295 H   0  0  0  0  0  0  0  0  0  0  0  0
    4.9619   -7.2387   -6.1507 H   0  0  0  0  0  0  0  0  0  0  0  0
    7.7340   -1.6211   -2.8683 H   0  0  0  0  0  0  0  0  0  0  0  0
    3.1869   -0.0896   -4.8924 H   0  0  0  0  0  0  0  0  0  0  0  0
    6.6135    2.3981    0.2010 H   0  0  0  0  0  0  0  0  0  0  0  0
    7.9434    2.8838   -0.8069 H   0  0  0  0  0  0  0  0  0  0  0  0
    6.4768    3.8831   -0.7036 H   0  0  0  0  0  0  0  0  0  0  0  0
    2.7802    1.4718   -0.2069 H   0  0  0  0  0  0  0  0  0  0  0  0
    2.6261   -2.0892   -0.2190 H   0  0  0  0  0  0  0  0  0  0  0  0
    4.8541    2.0415    0.0590 H   0  0  0  0  0  0  0  0  0  0  0  0
    5.0673   -2.1225    0.2005 H   0  0  0  0  0  0  0  0  0  0  0  0
   11.2264   -4.2306   -5.8185 H   0  0  0  0  0  0  0  0  0  0  0  0
   12.2493   -4.7906   -7.1742 H   0  0  0  0  0  0  0  0  0  0  0  0
   12.7461   -3.4120   -6.1943 H   0  0  0  0  0  0  0  0  0  0  0  0
    2.1430   -1.9640   -5.5934 H   0  0  0  0  0  0  0  0  0  0  0  0
    3.0012   -1.0827   -6.9080 H   0  0  0  0  0  0  0  0  0  0  0  0
    2.5395   -2.7842   -7.1309 H   0  0  0  0  0  0  0  0  0  0  0  0
  1 17  1  0  0  0  0
  1 31  1  0  0  0  0
  2 21  1  0  0  0  0
  2 44  1  0  0  0  0
  3 20  1  0  0  0  0
  3 48  1  0  0  0  0
  4 28  1  0  0  0  0
  4 36  1  0  0  0  0
  5 34  1  0  0  0  0
  5 49  1  0  0  0  0
  6 41  1  0  0  0  0
  6 45  1  0  0  0  0
  7  9  1  0  0  0  0
  7 10  1  0  0  0  0
  7 15  1  0  0  0  0
  7 16  1  0  0  0  0
  8 24  1  0  0  0  0
  8 27  1  0  0  0  0
  8 38  1  0  0  0  0
  9 11  1  0  0  0  0
  9 13  1  0  0  0  0
  9 46  1  1  0  0  0
 10 12  1  0  0  0  0
 10 50  1  0  0  0  0
 10 51  1  0  0  0  0
 11 14  1  0  0  0  0
 11 17  2  0  0  0  0
 12 14  1  0  0  0  0
 12 52  1  0  0  0  0
 12 53  1  0  0  0  0
 13 18  1  0  0  0  0
 13 54  1  0  0  0  0
 13 55  1  0  0  0  0
 14 19  2  0  0  0  0
 15 56  1  0  0  0  0
 15 57  1  0  0  0  0
 15 58  1  0  0  0  0
 16 59  1  0  0  0  0
 16 60  1  0  0  0  0
 16 61  1  0  0  0  0
 17 20  1  0  0  0  0
 18 22  2  0  0  0  0
 18 23  1  0  0  0  0
 19 21  1  0  0  0  0
 19 62  1  0  0  0  0
 20 21  2  0  0  0  0
 22 28  1  0  0  0  0
 22 63  1  0  0  0  0
 23 32  2  0  0  0  0
 23 64  1  0  0  0  0
 24 25  1  0  0  0  0
 24 26  1  0  0  0  0
 24 47  1  6  0  0  0
 25 29  1  0  0  0  0
 25 35  2  0  0  0  0
 26 33  1  0  0  0  0
 26 65  1  0  0  0  0
 26 66  1  0  0  0  0
 27 30  1  0  0  0  0
 27 67  1  0  0  0  0
 27 68  1  0  0  0  0
 28 34  2  0  0  0  0
 29 30  1  0  0  0  0
 29 37  2  0  0  0  0
 30 69  1  0  0  0  0
 30 70  1  0  0  0  0
 31 39  2  0  0  0  0
 31 40  1  0  0  0  0
 32 34  1  0  0  0  0
 32 71  1  0  0  0  0
 33 42  2  0  0  0  0
 33 43  1  0  0  0  0
 35 36  1  0  0  0  0
 35 72  1  0  0  0  0
 36 41  2  0  0  0  0
 37 41  1  0  0  0  0
 37 73  1  0  0  0  0
 38 74  1  0  0  0  0
 38 75  1  0  0  0  0
 38 76  1  0  0  0  0
 39 42  1  0  0  0  0
 39 77  1  0  0  0  0
 40 43  2  0  0  0  0
 40 78  1  0  0  0  0
 42 79  1  0  0  0  0
 43 80  1  0  0  0  0
 44 81  1  0  0  0  0
 44 82  1  0  0  0  0
 44 83  1  0  0  0  0
 45 84  1  0  0  0  0
 45 85  1  0  0  0  0
 45 86  1  0  0  0  0
M  CHG  1   7   1
M  END
>  <DRUGBANK_ID>
DB01199

>  <SECONDARY_ACCESSION_NUMBERS>
APRD00176

>  <COMMON_NAME>
Tubocurarine

>  <CAS_NUMBER>
57-95-4

>  <UNII>
W9YXS298BM

>  <SYNONYMS>
(+)-tubocurarine; 7',12'-dihydroxy-6,6'-dimethoxy-2,2',2'-trimethyltubocuraranium; d-tubocurarine; Tubocurarin; Tubocurarine; Tubocurarinum

$$$$
