
 OpenBabel10282417183D

310318  0  0  1  0  0  0  0  0999 V2000
    5.5504   -1.2729    1.8803 C   0  0  1  0  0  0  0  0  0  0  0  0
    6.4069   -0.1598    2.3850 C   0  0  0  0  0  0  0  0  0  0  0  0
    6.9069    0.7673    1.4328 O   0  0  0  0  0  0  0  0  0  0  0  0
    6.7381    0.0298    3.6634 C   0  0  0  0  0  0  0  0  0  0  0  0
    6.2431   -0.8880    4.7541 C   0  0  2  0  0  0  0  0  0  0  0  0
    6.9798   -1.6396    4.9474 H   0  0  0  0  0  0  0  0  0  0  0  0
    4.9311   -1.5330    4.2966 C   0  0  0  0  0  0  0  0  0  0  0  0
    5.1667   -2.2581    2.9740 C   0  0  1  0  0  0  0  0  0  0  0  0
    5.9567   -2.9689    3.0991 H   0  0  0  0  0  0  0  0  0  0  0  0
    6.0553   -2.8944   -2.9581 C   0  0  1  0  0  0  0  0  0  0  0  0
    6.5623   -2.8042   -1.5280 C   0  0  0  0  0  0  0  0  0  0  0  0
    7.7847   -3.4303   -1.1672 O   0  0  0  0  0  0  0  0  0  0  0  0
    5.8450   -2.1236   -0.5937 C   0  0  0  0  0  0  0  0  0  0  0  0
    6.3519   -2.0334    0.8364 C   0  0  0  0  0  0  0  0  0  0  0  0
    7.4460   -2.5937    1.1593 O   0  0  0  0  0  0  0  0  0  0  0  0
    6.3519   -2.0334    0.8364 C   0  0  0  0  0  0  0  0  0  0  0  0
    5.5768   -1.2980    1.8460 N   0  0  0  0  0  0  0  0  0  0  0  0
    7.4460   -2.5937    1.1593 O   0  0  0  0  0  0  0  0  0  0  0  0
    5.8514   -4.3051   -3.3176 N   0  0  0  0  0  0  0  0  0  0  0  0
    5.3611   -4.3924   -4.7007 C   0  0  0  0  0  0  0  0  0  0  0  0
    7.1256   -5.0291   -3.2028 C   0  0  0  0  0  0  0  0  0  0  0  0
    6.0118   -0.1497    5.9527 C   0  0  1  0  0  0  0  0  0  0  0  0
    4.8448    0.6323    5.7451 O   0  0  0  0  0  0  0  0  0  0  0  0
    5.9197   -1.2139    7.0341 C   0  0  0  0  0  0  0  0  0  0  0  0
    6.9819    0.6879    6.3924 C   0  0  0  0  0  0  0  0  0  0  0  0
    7.1739    0.8944    7.7493 C   0  0  0  0  0  0  0  0  0  0  0  0
    8.1501    1.7713    8.1815 C   0  0  0  0  0  0  0  0  0  0  0  0
    8.9425    2.4499    7.2706 C   0  0  0  0  0  0  0  0  0  0  0  0
    8.7703    2.2499    5.9161 C   0  0  0  0  0  0  0  0  0  0  0  0
    9.5856    2.9430    4.9827 O   0  0  0  0  0  0  0  0  0  0  0  0
    7.7930    1.3649    5.4698 C   0  0  0  0  0  0  0  0  0  0  0  0
    7.5898    1.1146    4.0260 C   0  0  0  0  0  0  0  0  0  0  0  0
    8.1516    1.8372    3.1443 O   0  0  0  0  0  0  0  0  0  0  0  0
    4.3641   -0.7201    1.3296 O   0  0  0  0  0  0  0  0  0  0  0  0
    0.3223    0.1578    2.8401 P   0  0  0  0  0  0  0  0  0  0  0  0
    1.5428   -1.3923    2.6378 O   0  0  0  0  0  0  0  0  0  0  0  0
   -0.7725    0.0791    1.7244 O   0  0  0  0  0  0  0  0  0  0  0  0
    1.7764   -0.0322    2.5758 O   0  0  0  0  0  0  0  0  0  0  0  0
    2.9092   -0.0334    0.2331 O   0  0  0  0  0  0  0  0  0  0  0  0
    3.7183    2.1093    0.9643 O   0  0  0  0  0  0  0  0  0  0  0  0
    5.1769    0.6039   -0.7517 O   0  5  0  0  0  0  0  0  0  0  0  0
    3.7875    1.1815   -0.1961 P   0  0  0  0  0  0  0  0  0  0  0  0
   -0.3902   -0.1512   -0.2032 Na  0  3  0  0  0  0  0  0  0  0  0  0
   -0.1220    1.8307   -2.3068 P   0  0  0  0  0  0  0  0  0  0  0  0
    0.2951    3.3992   -1.0440 O   0  0  0  0  0  0  0  0  0  0  0  0
   -1.1036    0.7950   -1.7607 O   0  0  0  0  0  0  0  0  0  0  0  0
    1.1042    1.0881   -2.7569 O   0  0  0  0  0  0  0  0  0  0  0  0
    1.6683   -0.7617   -1.3210 P   0  0  0  0  0  0  0  0  0  0  0  0
    1.2168   -0.1174    0.5315 O   0  0  0  0  0  0  0  0  0  0  0  0
    0.4521   -1.4700   -1.6046 O   0  0  0  0  0  0  0  0  0  0  0  0
    2.9286   -1.5507   -1.2867 O   0  0  0  0  0  0  0  0  0  0  0  0
    1.3611    1.9568    0.1462 P   0  0  0  0  0  0  0  0  0  0  0  0
    1.7183    1.9969    1.8582 O   0  0  0  0  0  0  0  0  0  0  0  0
   -0.0766    1.8256    0.1825 O   0  0  0  0  0  0  0  0  0  0  0  0
    2.2172    2.4705   -1.1011 O   0  0  0  0  0  0  0  0  0  0  0  0
    0.1797   -2.7827    0.8188 P   0  0  0  0  0  0  0  0  0  0  0  0
   -0.1530   -1.9847    2.1395 O   0  0  0  0  0  0  0  0  0  0  0  0
   -0.9272   -2.0088    0.2222 O   0  0  0  0  0  0  0  0  0  0  0  0
    1.6948   -2.5785    0.7036 O   0  0  0  0  0  0  0  0  0  0  0  0
    5.5504   -1.2729    1.8803 C   0  0  1  0  0  0  0  0  0  0  0  0
    6.4069   -0.1598    2.3850 C   0  0  0  0  0  0  0  0  0  0  0  0
    6.9069    0.7673    1.4328 O   0  0  0  0  0  0  0  0  0  0  0  0
    6.7381    0.0298    3.6634 C   0  0  0  0  0  0  0  0  0  0  0  0
    6.2431   -0.8880    4.7541 C   0  0  2  0  0  0  0  0  0  0  0  0
    6.9798   -1.6396    4.9474 H   0  0  0  0  0  0  0  0  0  0  0  0
    4.9311   -1.5330    4.2966 C   0  0  0  0  0  0  0  0  0  0  0  0
    5.1667   -2.2581    2.9740 C   0  0  1  0  0  0  0  0  0  0  0  0
    5.9567   -2.9689    3.0991 H   0  0  0  0  0  0  0  0  0  0  0  0
    6.0553   -2.8944   -2.9581 C   0  0  1  0  0  0  0  0  0  0  0  0
    6.5623   -2.8042   -1.5280 C   0  0  0  0  0  0  0  0  0  0  0  0
    7.7847   -3.4303   -1.1672 O   0  0  0  0  0  0  0  0  0  0  0  0
    5.8450   -2.1236   -0.5937 C   0  0  0  0  0  0  0  0  0  0  0  0
    6.3519   -2.0334    0.8364 C   0  0  0  0  0  0  0  0  0  0  0  0
    7.4460   -2.5937    1.1593 O   0  0  0  0  0  0  0  0  0  0  0  0
    6.3519   -2.0334    0.8364 C   0  0  0  0  0  0  0  0  0  0  0  0
    5.5768   -1.2980    1.8460 N   0  0  0  0  0  0  0  0  0  0  0  0
    7.4460   -2.5937    1.1593 O   0  0  0  0  0  0  0  0  0  0  0  0
    5.8514   -4.3051   -3.3176 N   0  0  0  0  0  0  0  0  0  0  0  0
    5.3611   -4.3924   -4.7007 C   0  0  0  0  0  0  0  0  0  0  0  0
    7.1256   -5.0291   -3.2028 C   0  0  0  0  0  0  0  0  0  0  0  0
    6.0118   -0.1497    5.9527 C   0  0  1  0  0  0  0  0  0  0  0  0
    4.8448    0.6323    5.7451 O   0  0  0  0  0  0  0  0  0  0  0  0
    5.9197   -1.2139    7.0341 C   0  0  0  0  0  0  0  0  0  0  0  0
    6.9819    0.6879    6.3924 C   0  0  0  0  0  0  0  0  0  0  0  0
    7.1739    0.8944    7.7493 C   0  0  0  0  0  0  0  0  0  0  0  0
    8.1501    1.7713    8.1815 C   0  0  0  0  0  0  0  0  0  0  0  0
    8.9425    2.4499    7.2706 C   0  0  0  0  0  0  0  0  0  0  0  0
    8.7703    2.2499    5.9161 C   0  0  0  0  0  0  0  0  0  0  0  0
    9.5856    2.9430    4.9827 O   0  0  0  0  0  0  0  0  0  0  0  0
    7.7930    1.3649    5.4698 C   0  0  0  0  0  0  0  0  0  0  0  0
    7.5898    1.1146    4.0260 C   0  0  0  0  0  0  0  0  0  0  0  0
    8.1516    1.8372    3.1443 O   0  0  0  0  0  0  0  0  0  0  0  0
    4.3641   -0.7201    1.3296 O   0  0  0  0  0  0  0  0  0  0  0  0
    5.5504   -1.2729    1.8803 C   0  0  1  0  0  0  0  0  0  0  0  0
    6.4069   -0.1598    2.3850 C   0  0  0  0  0  0  0  0  0  0  0  0
    6.9069    0.7673    1.4328 O   0  0  0  0  0  0  0  0  0  0  0  0
    6.7381    0.0298    3.6634 C   0  0  0  0  0  0  0  0  0  0  0  0
    6.2431   -0.8880    4.7541 C   0  0  2  0  0  0  0  0  0  0  0  0
    6.9798   -1.6396    4.9474 H   0  0  0  0  0  0  0  0  0  0  0  0
    4.9311   -1.5330    4.2966 C   0  0  0  0  0  0  0  0  0  0  0  0
    5.1667   -2.2581    2.9740 C   0  0  1  0  0  0  0  0  0  0  0  0
    5.9567   -2.9689    3.0991 H   0  0  0  0  0  0  0  0  0  0  0  0
    6.0553   -2.8944   -2.9581 C   0  0  1  0  0  0  0  0  0  0  0  0
    6.5623   -2.8042   -1.5280 C   0  0  0  0  0  0  0  0  0  0  0  0
    7.7847   -3.4303   -1.1672 O   0  0  0  0  0  0  0  0  0  0  0  0
    5.8450   -2.1236   -0.5937 C   0  0  0  0  0  0  0  0  0  0  0  0
    6.3519   -2.0334    0.8364 C   0  0  0  0  0  0  0  0  0  0  0  0
    7.4460   -2.5937    1.1593 O   0  0  0  0  0  0  0  0  0  0  0  0
    6.3519   -2.0334    0.8364 C   0  0  0  0  0  0  0  0  0  0  0  0
    5.5768   -1.2980    1.8460 N   0  0  0  0  0  0  0  0  0  0  0  0
    7.4460   -2.5937    1.1593 O   0  0  0  0  0  0  0  0  0  0  0  0
    5.8514   -4.3051   -3.3176 N   0  0  0  0  0  0  0  0  0  0  0  0
    5.3611   -4.3924   -4.7007 C   0  0  0  0  0  0  0  0  0  0  0  0
    7.1256   -5.0291   -3.2028 C   0  0  0  0  0  0  0  0  0  0  0  0
    6.0118   -0.1497    5.9527 C   0  0  1  0  0  0  0  0  0  0  0  0
    4.8448    0.6323    5.7451 O   0  0  0  0  0  0  0  0  0  0  0  0
    5.9197   -1.2139    7.0341 C   0  0  0  0  0  0  0  0  0  0  0  0
    6.9819    0.6879    6.3924 C   0  0  0  0  0  0  0  0  0  0  0  0
    7.1739    0.8944    7.7493 C   0  0  0  0  0  0  0  0  0  0  0  0
    8.1501    1.7713    8.1815 C   0  0  0  0  0  0  0  0  0  0  0  0
    8.9425    2.4499    7.2706 C   0  0  0  0  0  0  0  0  0  0  0  0
    8.7703    2.2499    5.9161 C   0  0  0  0  0  0  0  0  0  0  0  0
    9.5856    2.9430    4.9827 O   0  0  0  0  0  0  0  0  0  0  0  0
    7.7930    1.3649    5.4698 C   0  0  0  0  0  0  0  0  0  0  0  0
    7.5898    1.1146    4.0260 C   0  0  0  0  0  0  0  0  0  0  0  0
    8.1516    1.8372    3.1443 O   0  0  0  0  0  0  0  0  0  0  0  0
    4.3641   -0.7201    1.3296 O   0  0  0  0  0  0  0  0  0  0  0  0
    5.5504   -1.2729    1.8803 C   0  0  1  0  0  0  0  0  0  0  0  0
    6.4069   -0.1598    2.3850 C   0  0  0  0  0  0  0  0  0  0  0  0
    6.9069    0.7673    1.4328 O   0  0  0  0  0  0  0  0  0  0  0  0
    6.7381    0.0298    3.6634 C   0  0  0  0  0  0  0  0  0  0  0  0
    6.2431   -0.8880    4.7541 C   0  0  2  0  0  0  0  0  0  0  0  0
    6.9798   -1.6396    4.9474 H   0  0  0  0  0  0  0  0  0  0  0  0
    4.9311   -1.5330    4.2966 C   0  0  0  0  0  0  0  0  0  0  0  0
    5.1667   -2.2581    2.9740 C   0  0  1  0  0  0  0  0  0  0  0  0
    5.9567   -2.9689    3.0991 H   0  0  0  0  0  0  0  0  0  0  0  0
    6.0553   -2.8944   -2.9581 C   0  0  1  0  0  0  0  0  0  0  0  0
    6.5623   -2.8042   -1.5280 C   0  0  0  0  0  0  0  0  0  0  0  0
    7.7847   -3.4303   -1.1672 O   0  0  0  0  0  0  0  0  0  0  0  0
    5.8450   -2.1236   -0.5937 C   0  0  0  0  0  0  0  0  0  0  0  0
    6.3519   -2.0334    0.8364 C   0  0  0  0  0  0  0  0  0  0  0  0
    7.4460   -2.5937    1.1593 O   0  0  0  0  0  0  0  0  0  0  0  0
    6.3519   -2.0334    0.8364 C   0  0  0  0  0  0  0  0  0  0  0  0
    5.5768   -1.2980    1.8460 N   0  0  0  0  0  0  0  0  0  0  0  0
    7.4460   -2.5937    1.1593 O   0  0  0  0  0  0  0  0  0  0  0  0
    5.8514   -4.3051   -3.3176 N   0  0  0  0  0  0  0  0  0  0  0  0
    5.3611   -4.3924   -4.7007 C   0  0  0  0  0  0  0  0  0  0  0  0
    7.1256   -5.0291   -3.2028 C   0  0  0  0  0  0  0  0  0  0  0  0
    6.0118   -0.1497    5.9527 C   0  0  1  0  0  0  0  0  0  0  0  0
    4.8448    0.6323    5.7451 O   0  0  0  0  0  0  0  0  0  0  0  0
    5.9197   -1.2139    7.0341 C   0  0  0  0  0  0  0  0  0  0  0  0
    6.9819    0.6879    6.3924 C   0  0  0  0  0  0  0  0  0  0  0  0
    7.1739    0.8944    7.7493 C   0  0  0  0  0  0  0  0  0  0  0  0
    8.1501    1.7713    8.1815 C   0  0  0  0  0  0  0  0  0  0  0  0
    8.9425    2.4499    7.2706 C   0  0  0  0  0  0  0  0  0  0  0  0
    8.7703    2.2499    5.9161 C   0  0  0  0  0  0  0  0  0  0  0  0
    9.5856    2.9430    4.9827 O   0  0  0  0  0  0  0  0  0  0  0  0
    7.7930    1.3649    5.4698 C   0  0  0  0  0  0  0  0  0  0  0  0
    7.5898    1.1146    4.0260 C   0  0  0  0  0  0  0  0  0  0  0  0
    8.1516    1.8372    3.1443 O   0  0  0  0  0  0  0  0  0  0  0  0
    4.3641   -0.7201    1.3296 O   0  0  0  0  0  0  0  0  0  0  0  0
    5.5504   -1.2729    1.8803 C   0  0  1  0  0  0  0  0  0  0  0  0
    6.4069   -0.1598    2.3850 C   0  0  0  0  0  0  0  0  0  0  0  0
    6.9069    0.7673    1.4328 O   0  0  0  0  0  0  0  0  0  0  0  0
    6.7381    0.0298    3.6634 C   0  0  0  0  0  0  0  0  0  0  0  0
    6.2431   -0.8880    4.7541 C   0  0  2  0  0  0  0  0  0  0  0  0
    6.9798   -1.6396    4.9474 H   0  0  0  0  0  0  0  0  0  0  0  0
    4.9311   -1.5330    4.2966 C   0  0  0  0  0  0  0  0  0  0  0  0
    5.1667   -2.2581    2.9740 C   0  0  1  0  0  0  0  0  0  0  0  0
    5.9567   -2.9689    3.0991 H   0  0  0  0  0  0  0  0  0  0  0  0
    6.0553   -2.8944   -2.9581 C   0  0  1  0  0  0  0  0  0  0  0  0
    6.5623   -2.8042   -1.5280 C   0  0  0  0  0  0  0  0  0  0  0  0
    7.7847   -3.4303   -1.1672 O   0  0  0  0  0  0  0  0  0  0  0  0
    5.8450   -2.1236   -0.5937 C   0  0  0  0  0  0  0  0  0  0  0  0
    6.3519   -2.0334    0.8364 C   0  0  0  0  0  0  0  0  0  0  0  0
    7.4460   -2.5937    1.1593 O   0  0  0  0  0  0  0  0  0  0  0  0
    6.3519   -2.0334    0.8364 C   0  0  0  0  0  0  0  0  0  0  0  0
    5.5768   -1.2980    1.8460 N   0  0  0  0  0  0  0  0  0  0  0  0
    7.4460   -2.5937    1.1593 O   0  0  0  0  0  0  0  0  0  0  0  0
    5.8514   -4.3051   -3.3176 N   0  0  0  0  0  0  0  0  0  0  0  0
    5.3611   -4.3924   -4.7007 C   0  0  0  0  0  0  0  0  0  0  0  0
    7.1256   -5.0291   -3.2028 C   0  0  0  0  0  0  0  0  0  0  0  0
    6.0118   -0.1497    5.9527 C   0  0  1  0  0  0  0  0  0  0  0  0
    4.8448    0.6323    5.7451 O   0  0  0  0  0  0  0  0  0  0  0  0
    5.9197   -1.2139    7.0341 C   0  0  0  0  0  0  0  0  0  0  0  0
    6.9819    0.6879    6.3924 C   0  0  0  0  0  0  0  0  0  0  0  0
    7.1739    0.8944    7.7493 C   0  0  0  0  0  0  0  0  0  0  0  0
    8.1501    1.7713    8.1815 C   0  0  0  0  0  0  0  0  0  0  0  0
    8.9425    2.4499    7.2706 C   0  0  0  0  0  0  0  0  0  0  0  0
    8.7703    2.2499    5.9161 C   0  0  0  0  0  0  0  0  0  0  0  0
    9.5856    2.9430    4.9827 O   0  0  0  0  0  0  0  0  0  0  0  0
    7.7930    1.3649    5.4698 C   0  0  0  0  0  0  0  0  0  0  0  0
    7.5898    1.1146    4.0260 C   0  0  0  0  0  0  0  0  0  0  0  0
    8.1516    1.8372    3.1443 O   0  0  0  0  0  0  0  0  0  0  0  0
    4.3641   -0.7201    1.3296 O   0  0  0  0  0  0  0  0  0  0  0  0
    6.6815    0.6602    0.4644 H   0  0  0  0  0  0  0  0  0  0  0  0
    4.1841   -0.7781    4.1663 H   0  0  0  0  0  0  0  0  0  0  0  0
    4.5991   -2.2327    5.0349 H   0  0  0  0  0  0  0  0  0  0  0  0
    5.1279   -2.3674   -3.0417 H   0  0  0  0  0  0  0  0  0  0  0  0
    8.3120   -3.9306   -1.8540 H   0  0  0  0  0  0  0  0  0  0  0  0
    5.9170   -1.2374    2.8057 H   0  0  0  0  0  0  0  0  0  0  0  0
    4.6988   -0.8482    1.5868 H   0  0  0  0  0  0  0  0  0  0  0  0
    6.0801   -3.9561   -5.3622 H   0  0  0  0  0  0  0  0  0  0  0  0
    5.2127   -5.4192   -4.9624 H   0  0  0  0  0  0  0  0  0  0  0  0
    4.4337   -3.8654   -4.7842 H   0  0  0  0  0  0  0  0  0  0  0  0
    7.8446   -4.5928   -3.8643 H   0  0  0  0  0  0  0  0  0  0  0  0
    7.4825   -4.9656   -2.1961 H   0  0  0  0  0  0  0  0  0  0  0  0
    6.9772   -6.0560   -3.4645 H   0  0  0  0  0  0  0  0  0  0  0  0
    4.6525    1.2541    6.8275 H   0  0  0  0  0  0  0  0  0  0  0  0
    5.9811   -0.7472    7.9950 H   0  0  0  0  0  0  0  0  0  0  0  0
    5.0097   -1.7726    6.9664 H   0  0  0  0  0  0  0  0  0  0  0  0
    6.7531   -1.8722    6.9035 H   0  0  0  0  0  0  0  0  0  0  0  0
    6.5668    0.3754    8.4613 H   0  0  0  0  0  0  0  0  0  0  0  0
    8.2954    1.9276    9.2300 H   0  0  0  0  0  0  0  0  0  0  0  0
    9.6906    3.1314    7.6182 H   0  0  0  0  0  0  0  0  0  0  0  0
    9.4585    2.7960    4.0018 H   0  0  0  0  0  0  0  0  0  0  0  0
    3.7807   -1.4567    0.9873 H   0  0  0  0  0  0  0  0  0  0  0  0
    2.0340   -1.2959    1.6288 H   0  0  0  0  0  0  0  0  0  0  0  0
    1.1911    3.3140   -0.0793 H   0  0  0  0  0  0  0  0  0  0  0  0
    2.1205    0.7646    0.9813 H   0  0  0  0  0  0  0  0  0  0  0  0
    2.0040    1.0729    2.5074 H   0  0  0  0  0  0  0  0  0  0  0  0
    0.5960   -1.0704    1.9054 H   0  0  0  0  0  0  0  0  0  0  0  0
    6.6815    0.6602    0.4644 H   0  0  0  0  0  0  0  0  0  0  0  0
    4.1841   -0.7781    4.1663 H   0  0  0  0  0  0  0  0  0  0  0  0
    4.5991   -2.2327    5.0349 H   0  0  0  0  0  0  0  0  0  0  0  0
    5.1279   -2.3674   -3.0417 H   0  0  0  0  0  0  0  0  0  0  0  0
    8.3120   -3.9306   -1.8540 H   0  0  0  0  0  0  0  0  0  0  0  0
    5.9170   -1.2374    2.8057 H   0  0  0  0  0  0  0  0  0  0  0  0
    4.6988   -0.8482    1.5868 H   0  0  0  0  0  0  0  0  0  0  0  0
    6.0801   -3.9561   -5.3622 H   0  0  0  0  0  0  0  0  0  0  0  0
    5.2127   -5.4192   -4.9624 H   0  0  0  0  0  0  0  0  0  0  0  0
    4.4337   -3.8654   -4.7842 H   0  0  0  0  0  0  0  0  0  0  0  0
    7.8446   -4.5928   -3.8643 H   0  0  0  0  0  0  0  0  0  0  0  0
    7.4825   -4.9656   -2.1961 H   0  0  0  0  0  0  0  0  0  0  0  0
    6.9772   -6.0560   -3.4645 H   0  0  0  0  0  0  0  0  0  0  0  0
    4.1847    0.8448    4.7192 H   0  0  0  0  0  0  0  0  0  0  0  0
    5.9811   -0.7472    7.9950 H   0  0  0  0  0  0  0  0  0  0  0  0
    5.0097   -1.7726    6.9664 H   0  0  0  0  0  0  0  0  0  0  0  0
    6.7531   -1.8722    6.9035 H   0  0  0  0  0  0  0  0  0  0  0  0
    6.5668    0.3754    8.4613 H   0  0  0  0  0  0  0  0  0  0  0  0
    8.2954    1.9276    9.2300 H   0  0  0  0  0  0  0  0  0  0  0  0
    9.6906    3.1314    7.6182 H   0  0  0  0  0  0  0  0  0  0  0  0
    9.4585    2.7960    4.0018 H   0  0  0  0  0  0  0  0  0  0  0  0
    3.7807   -1.4567    0.9873 H   0  0  0  0  0  0  0  0  0  0  0  0
    6.6815    0.6602    0.4644 H   0  0  0  0  0  0  0  0  0  0  0  0
    4.1841   -0.7781    4.1663 H   0  0  0  0  0  0  0  0  0  0  0  0
    4.5991   -2.2327    5.0349 H   0  0  0  0  0  0  0  0  0  0  0  0
    5.1279   -2.3674   -3.0417 H   0  0  0  0  0  0  0  0  0  0  0  0
    8.3120   -3.9306   -1.8540 H   0  0  0  0  0  0  0  0  0  0  0  0
    5.9170   -1.2374    2.8057 H   0  0  0  0  0  0  0  0  0  0  0  0
    4.6988   -0.8482    1.5868 H   0  0  0  0  0  0  0  0  0  0  0  0
    6.0801   -3.9561   -5.3622 H   0  0  0  0  0  0  0  0  0  0  0  0
    5.2127   -5.4192   -4.9624 H   0  0  0  0  0  0  0  0  0  0  0  0
    4.4337   -3.8654   -4.7842 H   0  0  0  0  0  0  0  0  0  0  0  0
    7.8446   -4.5928   -3.8643 H   0  0  0  0  0  0  0  0  0  0  0  0
    7.4825   -4.9656   -2.1961 H   0  0  0  0  0  0  0  0  0  0  0  0
    6.9772   -6.0560   -3.4645 H   0  0  0  0  0  0  0  0  0  0  0  0
    4.8062    1.9091    5.7808 H   0  0  0  0  0  0  0  0  0  0  0  0
    5.9811   -0.7472    7.9950 H   0  0  0  0  0  0  0  0  0  0  0  0
    5.0097   -1.7726    6.9664 H   0  0  0  0  0  0  0  0  0  0  0  0
    6.7531   -1.8722    6.9035 H   0  0  0  0  0  0  0  0  0  0  0  0
    6.5668    0.3754    8.4613 H   0  0  0  0  0  0  0  0  0  0  0  0
    8.2954    1.9276    9.2300 H   0  0  0  0  0  0  0  0  0  0  0  0
    9.6906    3.1314    7.6182 H   0  0  0  0  0  0  0  0  0  0  0  0
    9.4585    2.7960    4.0018 H   0  0  0  0  0  0  0  0  0  0  0  0
    3.7807   -1.4567    0.9873 H   0  0  0  0  0  0  0  0  0  0  0  0
    6.6815    0.6602    0.4644 H   0  0  0  0  0  0  0  0  0  0  0  0
    4.1841   -0.7781    4.1663 H   0  0  0  0  0  0  0  0  0  0  0  0
    4.5991   -2.2327    5.0349 H   0  0  0  0  0  0  0  0  0  0  0  0
    5.1279   -2.3674   -3.0417 H   0  0  0  0  0  0  0  0  0  0  0  0
    8.3120   -3.9306   -1.8540 H   0  0  0  0  0  0  0  0  0  0  0  0
    5.9170   -1.2374    2.8057 H   0  0  0  0  0  0  0  0  0  0  0  0
    4.6988   -0.8482    1.5868 H   0  0  0  0  0  0  0  0  0  0  0  0
    6.0801   -3.9561   -5.3622 H   0  0  0  0  0  0  0  0  0  0  0  0
    5.2127   -5.4192   -4.9624 H   0  0  0  0  0  0  0  0  0  0  0  0
    4.4337   -3.8654   -4.7842 H   0  0  0  0  0  0  0  0  0  0  0  0
    7.8446   -4.5928   -3.8643 H   0  0  0  0  0  0  0  0  0  0  0  0
    7.4825   -4.9656   -2.1961 H   0  0  0  0  0  0  0  0  0  0  0  0
    6.9772   -6.0560   -3.4645 H   0  0  0  0  0  0  0  0  0  0  0  0
    3.8867    0.2113    6.3753 H   0  0  0  0  0  0  0  0  0  0  0  0
    5.9811   -0.7472    7.9950 H   0  0  0  0  0  0  0  0  0  0  0  0
    5.0097   -1.7726    6.9664 H   0  0  0  0  0  0  0  0  0  0  0  0
    6.7531   -1.8722    6.9035 H   0  0  0  0  0  0  0  0  0  0  0  0
    6.5668    0.3754    8.4613 H   0  0  0  0  0  0  0  0  0  0  0  0
    8.2954    1.9276    9.2300 H   0  0  0  0  0  0  0  0  0  0  0  0
    9.6906    3.1314    7.6182 H   0  0  0  0  0  0  0  0  0  0  0  0
    9.4585    2.7960    4.0018 H   0  0  0  0  0  0  0  0  0  0  0  0
    3.7807   -1.4567    0.9873 H   0  0  0  0  0  0  0  0  0  0  0  0
    6.6815    0.6602    0.4644 H   0  0  0  0  0  0  0  0  0  0  0  0
    4.1841   -0.7781    4.1663 H   0  0  0  0  0  0  0  0  0  0  0  0
    4.5991   -2.2327    5.0349 H   0  0  0  0  0  0  0  0  0  0  0  0
    5.1279   -2.3674   -3.0417 H   0  0  0  0  0  0  0  0  0  0  0  0
    8.3120   -3.9306   -1.8540 H   0  0  0  0  0  0  0  0  0  0  0  0
    5.9170   -1.2374    2.8057 H   0  0  0  0  0  0  0  0  0  0  0  0
    4.6988   -0.8482    1.5868 H   0  0  0  0  0  0  0  0  0  0  0  0
    6.0801   -3.9561   -5.3622 H   0  0  0  0  0  0  0  0  0  0  0  0
    5.2127   -5.4192   -4.9624 H   0  0  0  0  0  0  0  0  0  0  0  0
    4.4337   -3.8654   -4.7842 H   0  0  0  0  0  0  0  0  0  0  0  0
    7.8446   -4.5928   -3.8643 H   0  0  0  0  0  0  0  0  0  0  0  0
    7.4825   -4.9656   -2.1961 H   0  0  0  0  0  0  0  0  0  0  0  0
    6.9772   -6.0560   -3.4645 H   0  0  0  0  0  0  0  0  0  0  0  0
    5.3051    1.4088    4.7960 H   0  0  0  0  0  0  0  0  0  0  0  0
    5.9811   -0.7472    7.9950 H   0  0  0  0  0  0  0  0  0  0  0  0
    5.0097   -1.7726    6.9664 H   0  0  0  0  0  0  0  0  0  0  0  0
    6.7531   -1.8722    6.9035 H   0  0  0  0  0  0  0  0  0  0  0  0
    6.5668    0.3754    8.4613 H   0  0  0  0  0  0  0  0  0  0  0  0
    8.2954    1.9276    9.2300 H   0  0  0  0  0  0  0  0  0  0  0  0
    9.6906    3.1314    7.6182 H   0  0  0  0  0  0  0  0  0  0  0  0
    9.4585    2.7960    4.0018 H   0  0  0  0  0  0  0  0  0  0  0  0
    3.7807   -1.4567    0.9873 H   0  0  0  0  0  0  0  0  0  0  0  0
  1 34  1  1  0  0  0
  2  1  1  0  0  0  0
  3  2  1  0  0  0  0
  3196  1  0  0  0  0
  4  2  2  0  0  0  0
  4  5  1  0  0  0  0
  5  6  1  1  0  0  0
  5  7  1  0  0  0  0
  7  8  1  0  0  0  0
  7197  1  0  0  0  0
  7198  1  0  0  0  0
  8  1  1  0  0  0  0
  8  9  1  1  0  0  0
 10  8  1  0  0  0  0
 10 19  1  0  0  0  0
 10199  1  6  0  0  0
 11 10  1  0  0  0  0
 12 11  1  0  0  0  0
 12200  1  0  0  0  0
 13 11  2  0  0  0  0
 13 14  1  0  0  0  0
 14  1  1  0  0  0  0
 15 14  2  0  0  0  0
 16 13  1  0  0  0  0
 17 16  1  0  0  0  0
 17201  1  0  0  0  0
 17202  1  0  0  0  0
 18 16  2  0  0  0  0
 20 19  1  0  0  0  0
 20203  1  0  0  0  0
 20204  1  0  0  0  0
 20205  1  0  0  0  0
 21 19  1  0  0  0  0
 21206  1  0  0  0  0
 21207  1  0  0  0  0
 21208  1  0  0  0  0
 22  5  1  0  0  0  0
 22 24  1  0  0  0  0
 22 23  1  6  0  0  0
 23209  1  0  0  0  0
 24210  1  0  0  0  0
 24211  1  0  0  0  0
 24212  1  0  0  0  0
 25 22  1  0  0  0  0
 26 25  2  0  0  0  0
 26213  1  0  0  0  0
 27 26  1  0  0  0  0
 27 28  2  0  0  0  0
 27214  1  0  0  0  0
 28 29  1  0  0  0  0
 28215  1  0  0  0  0
 29 31  2  0  0  0  0
 30 29  1  0  0  0  0
 30216  1  0  0  0  0
 31 25  1  0  0  0  0
 31 32  1  0  0  0  0
 32  4  1  0  0  0  0
 33 32  2  0  0  0  0
 34217  1  0  0  0  0
 35 36  1  0  0  0  0
 35 37  2  0  0  0  0
 35 38  2  0  0  0  0
 36218  1  0  0  0  0
 42 39  2  0  0  0  0
 42 40  2  0  0  0  0
 42 41  1  0  0  0  0
 44 45  1  0  0  0  0
 44 46  2  0  0  0  0
 44 47  2  0  0  0  0
 45219  1  0  0  0  0
 48 49  1  0  0  0  0
 48 50  2  0  0  0  0
 48 51  2  0  0  0  0
 49220  1  0  0  0  0
 52 53  1  0  0  0  0
 52 54  2  0  0  0  0
 52 55  2  0  0  0  0
 53221  1  0  0  0  0
 56 57  1  0  0  0  0
 56 58  2  0  0  0  0
 56 59  2  0  0  0  0
 57222  1  0  0  0  0
 60 93  1  1  0  0  0
 61 60  1  0  0  0  0
 62 61  1  0  0  0  0
 62223  1  0  0  0  0
 63 61  2  0  0  0  0
 63 64  1  0  0  0  0
 64 65  1  1  0  0  0
 64 66  1  0  0  0  0
 66 67  1  0  0  0  0
 66224  1  0  0  0  0
 66225  1  0  0  0  0
 67 60  1  0  0  0  0
 67 68  1  1  0  0  0
 69 67  1  0  0  0  0
 69 78  1  0  0  0  0
 69226  1  6  0  0  0
 70 69  1  0  0  0  0
 71 70  1  0  0  0  0
 71227  1  0  0  0  0
 72 70  2  0  0  0  0
 72 73  1  0  0  0  0
 73 60  1  0  0  0  0
 74 73  2  0  0  0  0
 75 72  1  0  0  0  0
 76 75  1  0  0  0  0
 76228  1  0  0  0  0
 76229  1  0  0  0  0
 77 75  2  0  0  0  0
 79 78  1  0  0  0  0
 79230  1  0  0  0  0
 79231  1  0  0  0  0
 79232  1  0  0  0  0
 80 78  1  0  0  0  0
 80233  1  0  0  0  0
 80234  1  0  0  0  0
 80235  1  0  0  0  0
 81 64  1  0  0  0  0
 81 83  1  0  0  0  0
 81 82  1  6  0  0  0
 82236  1  0  0  0  0
 83237  1  0  0  0  0
 83238  1  0  0  0  0
 83239  1  0  0  0  0
 84 81  1  0  0  0  0
 85 84  2  0  0  0  0
 85240  1  0  0  0  0
 86 85  1  0  0  0  0
 86 87  2  0  0  0  0
 86241  1  0  0  0  0
 87 88  1  0  0  0  0
 87242  1  0  0  0  0
 88 90  2  0  0  0  0
 89 88  1  0  0  0  0
 89243  1  0  0  0  0
 90 84  1  0  0  0  0
 90 91  1  0  0  0  0
 91 63  1  0  0  0  0
 92 91  2  0  0  0  0
 93244  1  0  0  0  0
 94127  1  1  0  0  0
 95 94  1  0  0  0  0
 96 95  1  0  0  0  0
 96245  1  0  0  0  0
 97 95  2  0  0  0  0
 97 98  1  0  0  0  0
 98 99  1  1  0  0  0
 98100  1  0  0  0  0
100101  1  0  0  0  0
100246  1  0  0  0  0
100247  1  0  0  0  0
101 94  1  0  0  0  0
101102  1  1  0  0  0
103101  1  0  0  0  0
103112  1  0  0  0  0
103248  1  6  0  0  0
104103  1  0  0  0  0
105104  1  0  0  0  0
105249  1  0  0  0  0
106104  2  0  0  0  0
106107  1  0  0  0  0
107 94  1  0  0  0  0
108107  2  0  0  0  0
109106  1  0  0  0  0
110109  1  0  0  0  0
110250  1  0  0  0  0
110251  1  0  0  0  0
111109  2  0  0  0  0
113112  1  0  0  0  0
113252  1  0  0  0  0
113253  1  0  0  0  0
113254  1  0  0  0  0
114112  1  0  0  0  0
114255  1  0  0  0  0
114256  1  0  0  0  0
114257  1  0  0  0  0
115 98  1  0  0  0  0
115117  1  0  0  0  0
115116  1  6  0  0  0
116258  1  0  0  0  0
117259  1  0  0  0  0
117260  1  0  0  0  0
117261  1  0  0  0  0
118115  1  0  0  0  0
119118  2  0  0  0  0
119262  1  0  0  0  0
120119  1  0  0  0  0
120121  2  0  0  0  0
120263  1  0  0  0  0
121122  1  0  0  0  0
121264  1  0  0  0  0
122124  2  0  0  0  0
123122  1  0  0  0  0
123265  1  0  0  0  0
124118  1  0  0  0  0
124125  1  0  0  0  0
125 97  1  0  0  0  0
126125  2  0  0  0  0
127266  1  0  0  0  0
128161  1  1  0  0  0
129128  1  0  0  0  0
130129  1  0  0  0  0
130267  1  0  0  0  0
131129  2  0  0  0  0
131132  1  0  0  0  0
132133  1  1  0  0  0
132134  1  0  0  0  0
134135  1  0  0  0  0
134268  1  0  0  0  0
134269  1  0  0  0  0
135128  1  0  0  0  0
135136  1  1  0  0  0
137135  1  0  0  0  0
137146  1  0  0  0  0
137270  1  6  0  0  0
138137  1  0  0  0  0
139138  1  0  0  0  0
139271  1  0  0  0  0
140138  2  0  0  0  0
140141  1  0  0  0  0
141128  1  0  0  0  0
142141  2  0  0  0  0
143140  1  0  0  0  0
144143  1  0  0  0  0
144272  1  0  0  0  0
144273  1  0  0  0  0
145143  2  0  0  0  0
147146  1  0  0  0  0
147274  1  0  0  0  0
147275  1  0  0  0  0
147276  1  0  0  0  0
148146  1  0  0  0  0
148277  1  0  0  0  0
148278  1  0  0  0  0
148279  1  0  0  0  0
149132  1  0  0  0  0
149151  1  0  0  0  0
149150  1  6  0  0  0
150280  1  0  0  0  0
151281  1  0  0  0  0
151282  1  0  0  0  0
151283  1  0  0  0  0
152149  1  0  0  0  0
153152  2  0  0  0  0
153284  1  0  0  0  0
154153  1  0  0  0  0
154155  2  0  0  0  0
154285  1  0  0  0  0
155156  1  0  0  0  0
155286  1  0  0  0  0
156158  2  0  0  0  0
157156  1  0  0  0  0
157287  1  0  0  0  0
158152  1  0  0  0  0
158159  1  0  0  0  0
159131  1  0  0  0  0
160159  2  0  0  0  0
161288  1  0  0  0  0
162195  1  1  0  0  0
163162  1  0  0  0  0
164163  1  0  0  0  0
164289  1  0  0  0  0
165163  2  0  0  0  0
165166  1  0  0  0  0
166167  1  1  0  0  0
166168  1  0  0  0  0
168169  1  0  0  0  0
168290  1  0  0  0  0
168291  1  0  0  0  0
169162  1  0  0  0  0
169170  1  1  0  0  0
171169  1  0  0  0  0
171180  1  0  0  0  0
171292  1  6  0  0  0
172171  1  0  0  0  0
173172  1  0  0  0  0
173293  1  0  0  0  0
174172  2  0  0  0  0
174175  1  0  0  0  0
175162  1  0  0  0  0
176175  2  0  0  0  0
177174  1  0  0  0  0
178177  1  0  0  0  0
178294  1  0  0  0  0
178295  1  0  0  0  0
179177  2  0  0  0  0
181180  1  0  0  0  0
181296  1  0  0  0  0
181297  1  0  0  0  0
181298  1  0  0  0  0
182180  1  0  0  0  0
182299  1  0  0  0  0
182300  1  0  0  0  0
182301  1  0  0  0  0
183166  1  0  0  0  0
183185  1  0  0  0  0
183184  1  6  0  0  0
184302  1  0  0  0  0
185303  1  0  0  0  0
185304  1  0  0  0  0
185305  1  0  0  0  0
186183  1  0  0  0  0
187186  2  0  0  0  0
187306  1  0  0  0  0
188187  1  0  0  0  0
188189  2  0  0  0  0
188307  1  0  0  0  0
189190  1  0  0  0  0
189308  1  0  0  0  0
190192  2  0  0  0  0
191190  1  0  0  0  0
191309  1  0  0  0  0
192186  1  0  0  0  0
192193  1  0  0  0  0
193165  1  0  0  0  0
194193  2  0  0  0  0
195310  1  0  0  0  0
M  CHG  2  41  -1  43   1
M  END
>  <DRUGBANK_ID>
DB09550

>  <COMMON_NAME>
Tetracycline phosphate complex

>  <CAS_NUMBER>
1336-20-5

>  <UNII>
6B7BK5H33B

>  <SYNONYMS>
Tetracycline metaphosphate; Tetracycline phosphate complex

$$$$
