
 OpenBabel10282417193D

 73 72  0  0  0  0  0  0  0  0999 V2000
    6.1444   -2.0055   -0.7524 C   0  0  0  0  0  0  0  0  0  0  0  0
    6.7025   -0.6639   -2.5800 C   0  0  0  0  0  0  0  0  0  0  0  0
    5.8384   -5.2413   -1.6837 C   0  0  0  0  0  0  0  0  0  0  0  0
    6.6661   -5.1308    0.6032 C   0  0  0  0  0  0  0  0  0  0  0  0
    1.4648   -4.4624   -5.1571 C   0  0  0  0  0  0  0  0  0  0  0  0
    4.0867    1.2147   -7.3211 C   0  0  0  0  0  0  0  0  0  0  0  0
    2.4183    0.0615    1.6286 C   0  0  0  0  0  0  0  0  0  0  0  0
    3.9035   -3.6219   -2.8543 C   0  0  0  0  0  0  0  0  0  0  0  0
    4.3990   -3.2283    1.5871 C   0  0  0  0  0  0  0  0  0  0  0  0
    3.0515   -2.2356   -6.6153 C   0  0  0  0  0  0  0  0  0  0  0  0
    4.5322    1.5449   -4.4129 C   0  0  0  0  0  0  0  0  0  0  0  0
    5.0119   -2.4855   -2.9957 C   0  0  0  0  0  0  0  0  0  0  0  0
    4.4563   -4.0463    0.2805 C   0  0  0  0  0  0  0  0  0  0  0  0
    2.4080   -3.4366   -3.0307 C   0  0  0  0  0  0  0  0  0  0  0  0
    4.3123   -1.6340    1.5834 C   0  0  0  0  0  0  0  0  0  0  0  0
    2.9161   -2.4901   -5.1763 C   0  0  0  0  0  0  0  0  0  0  0  0
    2.5453   -0.8132   -6.8601 C   0  0  0  0  0  0  0  0  0  0  0  0
    3.6635    0.5109   -5.0360 C   0  0  0  0  0  0  0  0  0  0  0  0
    3.7919    2.2772   -3.3110 C   0  0  0  0  0  0  0  0  0  0  0  0
    2.9195   -0.9908   -0.5229 C   0  0  0  0  0  0  0  0  0  0  0  0
    1.8846   -0.2609   -1.3333 C   0  0  0  0  0  0  0  0  0  0  0  0
    5.8959   -1.8424   -2.1826 C   0  0  0  0  0  0  0  0  0  0  0  0
    5.4803   -4.8137   -0.2339 C   0  0  0  0  0  0  0  0  0  0  0  0
    2.1951   -3.3728   -4.4917 C   0  0  0  0  0  0  0  0  0  0  0  0
    3.4520    0.2942   -6.3418 C   0  0  0  0  0  0  0  0  0  0  0  0
    3.1925   -0.9086    0.7974 C   0  0  0  0  0  0  0  0  0  0  0  0
    3.3638    1.4797   -2.0821 C   0  0  0  0  0  0  0  0  0  0  0  0
    3.7212    1.7664   -0.9665 O   0  0  0  0  0  0  0  0  0  0  0  0
    2.4620    0.5047   -2.4004 O   0  0  0  0  0  0  0  0  0  0  0  0
    3.5338   -1.8409   -4.5959 H   0  0  0  0  0  0  0  0  0  0  0  0
    3.1461   -0.1112   -4.3246 H   0  0  0  0  0  0  0  0  0  0  0  0
    3.5073   -1.6156   -1.1667 H   0  0  0  0  0  0  0  0  0  0  0  0
    6.6469   -1.1958   -0.2163 H   0  0  0  0  0  0  0  0  0  0  0  0
    6.7361   -2.8774   -0.5563 H   0  0  0  0  0  0  0  0  0  0  0  0
    5.1674   -2.0304   -0.3632 H   0  0  0  0  0  0  0  0  0  0  0  0
    7.4266   -0.8966   -3.3490 H   0  0  0  0  0  0  0  0  0  0  0  0
    5.9750    0.0849   -2.8140 H   0  0  0  0  0  0  0  0  0  0  0  0
    7.2322   -0.1880   -1.7430 H   0  0  0  0  0  0  0  0  0  0  0  0
    6.9149   -5.3044   -1.8999 H   0  0  0  0  0  0  0  0  0  0  0  0
    5.3117   -6.1098   -2.0800 H   0  0  0  0  0  0  0  0  0  0  0  0
    5.7371   -4.4388   -2.3748 H   0  0  0  0  0  0  0  0  0  0  0  0
    7.1870   -4.2184    0.8942 H   0  0  0  0  0  0  0  0  0  0  0  0
    6.3335   -5.6985    1.4642 H   0  0  0  0  0  0  0  0  0  0  0  0
    7.3780   -5.7356    0.0321 H   0  0  0  0  0  0  0  0  0  0  0  0
    0.6422   -4.0246   -5.7193 H   0  0  0  0  0  0  0  0  0  0  0  0
    2.1598   -4.9887   -5.8198 H   0  0  0  0  0  0  0  0  0  0  0  0
    1.0833   -5.1867   -4.4357 H   0  0  0  0  0  0  0  0  0  0  0  0
    3.7845    2.2419   -7.0859 H   0  0  0  0  0  0  0  0  0  0  0  0
    5.1761    1.1341   -7.2506 H   0  0  0  0  0  0  0  0  0  0  0  0
    3.7779    0.9991   -8.3414 H   0  0  0  0  0  0  0  0  0  0  0  0
    1.9816   -0.4777    2.4681 H   0  0  0  0  0  0  0  0  0  0  0  0
    3.0724    0.8666    1.9724 H   0  0  0  0  0  0  0  0  0  0  0  0
    1.5950    0.5299    1.0919 H   0  0  0  0  0  0  0  0  0  0  0  0
    4.1734   -4.4539   -3.5281 H   0  0  0  0  0  0  0  0  0  0  0  0
    3.8919   -4.0847   -1.9032 H   0  0  0  0  0  0  0  0  0  0  0  0
    5.2728   -3.4942    2.1860 H   0  0  0  0  0  0  0  0  0  0  0  0
    3.5018   -3.5603    2.1133 H   0  0  0  0  0  0  0  0  0  0  0  0
    4.1022   -2.3540   -6.9075 H   0  0  0  0  0  0  0  0  0  0  0  0
    2.4590   -2.9672   -7.1651 H   0  0  0  0  0  0  0  0  0  0  0  0
    5.4469    1.0880   -4.0719 H   0  0  0  0  0  0  0  0  0  0  0  0
    4.9036    2.2639   -5.1445 H   0  0  0  0  0  0  0  0  0  0  0  0
    5.2387   -2.2838   -4.0398 H   0  0  0  0  0  0  0  0  0  0  0  0
    3.5622   -3.7502   -0.2597 H   0  0  0  0  0  0  0  0  0  0  0  0
    1.8729   -4.2929   -2.5867 H   0  0  0  0  0  0  0  0  0  0  0  0
    2.0379   -2.5799   -2.4940 H   0  0  0  0  0  0  0  0  0  0  0  0
    5.2773   -1.1599    1.3459 H   0  0  0  0  0  0  0  0  0  0  0  0
    4.2421   -1.3341    2.6386 H   0  0  0  0  0  0  0  0  0  0  0  0
    2.4017   -0.7057   -7.9357 H   0  0  0  0  0  0  0  0  0  0  0  0
    1.5531   -0.6990   -6.3982 H   0  0  0  0  0  0  0  0  0  0  0  0
    4.4554    3.0647   -2.9400 H   0  0  0  0  0  0  0  0  0  0  0  0
    2.9068    2.7646   -3.7299 H   0  0  0  0  0  0  0  0  0  0  0  0
    1.1938    0.3680   -0.7829 H   0  0  0  0  0  0  0  0  0  0  0  0
    1.2366   -1.0085   -1.8021 H   0  0  0  0  0  0  0  0  0  0  0  0
  1 33  1  0  0  0  0
  1 34  1  0  0  0  0
  1 35  1  0  0  0  0
  2 36  1  0  0  0  0
  2 37  1  0  0  0  0
  2 38  1  0  0  0  0
  3 39  1  0  0  0  0
  3 40  1  0  0  0  0
  3 41  1  0  0  0  0
  4 42  1  0  0  0  0
  4 43  1  0  0  0  0
  4 44  1  0  0  0  0
  5 45  1  0  0  0  0
  5 46  1  0  0  0  0
  5 47  1  0  0  0  0
  6 48  1  0  0  0  0
  6 49  1  0  0  0  0
  6 50  1  0  0  0  0
  7 51  1  0  0  0  0
  7 52  1  0  0  0  0
  7 53  1  0  0  0  0
  8 54  1  0  0  0  0
  8 55  1  0  0  0  0
  9 56  1  0  0  0  0
  9 57  1  0  0  0  0
 10 58  1  0  0  0  0
 10 59  1  0  0  0  0
 11 60  1  0  0  0  0
 11 61  1  0  0  0  0
 12  8  1  0  0  0  0
 12 62  1  0  0  0  0
 13  9  1  0  0  0  0
 13 63  1  0  0  0  0
 14  8  1  0  0  0  0
 14 64  1  0  0  0  0
 14 65  1  0  0  0  0
 15  9  1  0  0  0  0
 15 66  1  0  0  0  0
 15 67  1  0  0  0  0
 16 10  1  0  0  0  0
 17 10  1  0  0  0  0
 17 68  1  0  0  0  0
 17 69  1  0  0  0  0
 18 11  1  0  0  0  0
 19 11  1  0  0  0  0
 19 70  1  0  0  0  0
 19 71  1  0  0  0  0
 21 20  1  0  0  0  0
 21 72  1  0  0  0  0
 21 73  1  0  0  0  0
 22  1  1  0  0  0  0
 22  2  1  0  0  0  0
 22 12  2  0  0  0  0
 23  3  1  0  0  0  0
 23  4  1  0  0  0  0
 23 13  2  0  0  0  0
 24  5  1  0  0  0  0
 24 14  1  0  0  0  0
 24 16  2  0  0  0  0
 25  6  1  0  0  0  0
 25 17  1  0  0  0  0
 25 18  2  0  0  0  0
 26  7  1  0  0  0  0
 26 15  1  0  0  0  0
 26 20  2  0  0  0  0
 27 19  1  0  0  0  0
 28 27  2  0  0  0  0
 29 21  1  0  0  0  0
 29 27  1  0  0  0  0
 30 16  1  0  0  0  0
 31 18  1  0  0  0  0
 32 20  1  0  0  0  0
M  END
>  <DRUGBANK_ID>
DB12079

>  <COMMON_NAME>
Gefarnate

>  <CAS_NUMBER>
51-77-4

>  <UNII>
1ISE2Y6ULA

>  <SYNONYMS>
Gefarnate

$$$$
