
 OpenBabel10282417183D

 43 46  0  0  0  0  0  0  0  0999 V2000
    2.3416   -0.6888   -0.1557 C   0  0  0  0  0  0  0  0  0  0  0  0
    2.4322    0.6944   -0.0570 C   0  0  0  0  0  0  0  0  0  0  0  0
    1.2481    1.4115    0.0349 C   0  0  0  0  0  0  0  0  0  0  0  0
    0.0173    0.7333    0.0199 C   0  0  0  0  0  0  0  0  0  0  0  0
   -0.0291   -0.6825    0.0196 C   0  0  0  0  0  0  0  0  0  0  0  0
    1.1526   -1.3889   -0.0268 C   0  0  0  0  0  0  0  0  0  0  0  0
   -1.1780    1.4338   -0.0357 C   0  0  0  0  0  0  0  0  0  0  0  0
   -2.3805    0.7424   -0.1274 C   0  0  0  0  0  0  0  0  0  0  0  0
   -2.4385   -0.6553   -0.0545 C   0  0  0  0  0  0  0  0  0  0  0  0
   -1.2444   -1.3698    0.0138 C   0  0  0  0  0  0  0  0  0  0  0  0
   -3.7635   -1.3788   -0.0199 C   0  0  0  0  0  0  0  0  0  0  0  0
   -4.6220   -1.0934    1.2245 C   0  0  3  0  0  0  0  0  0  0  0  0
   -3.8319   -1.3719    2.4878 C   0  0  0  0  0  0  0  0  0  0  0  0
   -3.6321   -0.2447    3.2269 N   0  0  0  0  0  0  0  0  0  0  0  0
   -4.1519    0.9254    2.7821 C   0  0  0  0  0  0  0  0  0  0  0  0
   -5.2284    0.6232    1.4345 S   0  0  0  0  0  0  0  0  0  0  0  0
   -3.9293    2.0266    3.2426 O   0  0  0  0  0  0  0  0  0  0  0  0
   -3.3936   -2.4716    2.8027 O   0  0  0  0  0  0  0  0  0  0  0  0
    3.5989    1.4100   -0.0506 O   0  0  0  0  0  0  0  0  0  0  0  0
    4.8523    0.6954   -0.1033 C   0  0  0  0  0  0  0  0  0  0  0  0
    5.1134   -0.1765    1.1061 C   0  0  0  0  0  0  0  0  0  0  0  0
    5.3210    0.3992    2.3552 C   0  0  0  0  0  0  0  0  0  0  0  0
    5.3639   -0.3859    3.5045 C   0  0  0  0  0  0  0  0  0  0  0  0
    5.1516   -1.7631    3.4202 C   0  0  0  0  0  0  0  0  0  0  0  0
    4.9665   -2.3600    2.1797 C   0  0  0  0  0  0  0  0  0  0  0  0
    5.0298   -1.5801    1.0289 C   0  0  0  0  0  0  0  0  0  0  0  0
    5.4817    1.7253    2.4642 F   0  0  0  0  0  0  0  0  0  0  0  0
    3.1951   -1.2945   -0.3641 H   0  0  0  0  0  0  0  0  0  0  0  0
    1.2770    2.4979    0.0744 H   0  0  0  0  0  0  0  0  0  0  0  0
    1.1810   -2.4748   -0.0263 H   0  0  0  0  0  0  0  0  0  0  0  0
   -1.1918    2.5198   -0.0442 H   0  0  0  0  0  0  0  0  0  0  0  0
   -3.2797    1.3370   -0.2397 H   0  0  0  0  0  0  0  0  0  0  0  0
   -1.2523   -2.4597    0.0385 H   0  0  0  0  0  0  0  0  0  0  0  0
   -4.3113   -1.1577   -0.9438 H   0  0  0  0  0  0  0  0  0  0  0  0
   -3.5705   -2.4628   -0.0516 H   0  0  0  0  0  0  0  0  0  0  0  0
   -5.5093   -1.7305    1.2120 H   0  0  0  0  0  0  0  0  0  0  0  0
   -3.0487   -0.2591    4.0471 H   0  0  0  0  0  0  0  0  0  0  0  0
    4.9103    0.1291   -1.0415 H   0  0  0  0  0  0  0  0  0  0  0  0
    5.6468    1.4494   -0.1655 H   0  0  0  0  0  0  0  0  0  0  0  0
    5.5350    0.0871    4.4648 H   0  0  0  0  0  0  0  0  0  0  0  0
    5.1383   -2.3736    4.3179 H   0  0  0  0  0  0  0  0  0  0  0  0
    4.7533   -3.4236    2.0998 H   0  0  0  0  0  0  0  0  0  0  0  0
    4.9124   -2.0821    0.0704 H   0  0  0  0  0  0  0  0  0  0  0  0
  1  2  2  0  0  0  0
  1  6  1  0  0  0  0
  1 28  1  0  0  0  0
  2  3  1  0  0  0  0
  2 19  1  0  0  0  0
  3  4  2  0  0  0  0
  3 29  1  0  0  0  0
  4  5  1  0  0  0  0
  4  7  1  0  0  0  0
  5  6  2  0  0  0  0
  5 10  1  0  0  0  0
  6 30  1  0  0  0  0
  7  8  2  0  0  0  0
  7 31  1  0  0  0  0
  8  9  1  0  0  0  0
  8 32  1  0  0  0  0
  9 10  2  0  0  0  0
  9 11  1  0  0  0  0
 10 33  1  0  0  0  0
 11 12  1  0  0  0  0
 11 34  1  0  0  0  0
 11 35  1  0  0  0  0
 12 13  1  0  0  0  0
 12 16  1  0  0  0  0
 12 36  1  0  0  0  0
 13 14  1  0  0  0  0
 13 18  2  0  0  0  0
 14 15  1  0  0  0  0
 14 37  1  0  0  0  0
 15 16  1  0  0  0  0
 15 17  2  0  0  0  0
 19 20  1  0  0  0  0
 20 21  1  0  0  0  0
 20 38  1  0  0  0  0
 20 39  1  0  0  0  0
 21 22  2  0  0  0  0
 21 26  1  0  0  0  0
 22 23  1  0  0  0  0
 22 27  1  0  0  0  0
 23 24  2  0  0  0  0
 23 40  1  0  0  0  0
 24 25  1  0  0  0  0
 24 41  1  0  0  0  0
 25 26  2  0  0  0  0
 25 42  1  0  0  0  0
 26 43  1  0  0  0  0
M  END
>  <DRUGBANK_ID>
DB09199

>  <COMMON_NAME>
Netoglitazone

>  <CAS_NUMBER>
161600-01-7

>  <UNII>
QOV2JZ647A

>  <SYNONYMS>
Netoglitazone

$$$$
