
 OpenBabel10282417183D

 62 67  0  0  0  0  0  0  0  0999 V2000
    0.8301    0.0666    0.0901 C   0  0  0  0  0  0  0  0  0  0  0  0
    0.4159    0.2214   -1.3845 C   0  0  0  0  0  0  0  0  0  0  0  0
   -0.5290    1.3978   -1.8544 C   0  0  0  0  0  0  0  0  0  0  0  0
   -1.4363    0.4902   -2.4913 O   0  0  0  0  0  0  0  0  0  0  0  0
   -0.8975   -0.5759   -1.6837 C   0  0  0  0  0  0  0  0  0  0  0  0
    1.6821   -0.0022   -2.2242 C   0  0  0  0  0  0  0  0  0  0  0  0
    2.8086    0.8573   -1.8274 O   0  0  0  0  0  0  0  0  0  0  0  0
    2.6827    2.2096   -2.0005 C   0  0  0  0  0  0  0  0  0  0  0  0
    1.6452    2.9534   -1.4594 C   0  0  0  0  0  0  0  0  0  0  0  0
    1.2988    4.2382   -1.8676 C   0  0  0  0  0  0  0  0  0  0  0  0
    2.3134    4.9155   -2.5122 C   0  0  0  0  0  0  0  0  0  0  0  0
    3.5109    4.2910   -2.8712 C   0  0  0  0  0  0  0  0  0  0  0  0
    3.6990    2.9102   -2.6292 C   0  0  0  0  0  0  0  0  0  0  0  0
    4.3489    5.1981   -3.4652 N   0  0  0  0  0  0  0  0  0  0  0  0
    3.6721    6.3299   -3.4947 C   0  0  0  0  0  0  0  0  0  0  0  0
    2.4286    6.2227   -2.9237 N   0  0  0  0  0  0  0  0  0  0  0  0
    1.4262    7.2398   -2.8540 C   0  0  0  0  0  0  0  0  0  0  0  0
    0.9585    7.7579   -4.0289 C   0  0  0  0  0  0  0  0  0  0  0  0
   -0.3323    8.3140   -4.0031 C   0  0  0  0  0  0  0  0  0  0  0  0
   -0.9802    8.5724   -2.7514 C   0  0  0  0  0  0  0  0  0  0  0  0
   -2.2453    9.2730   -2.5751 C   0  0  0  0  0  0  0  0  0  0  0  0
   -2.0396   10.4949   -2.9826 C   0  0  0  0  0  0  0  0  0  0  0  0
   -1.3184   10.8094   -1.7766 C   0  0  0  0  0  0  0  0  0  0  0  0
   -0.4204    9.6014   -0.8692 C   0  0  0  0  0  0  0  0  0  0  0  0
   -0.1519    8.5106   -1.7083 C   0  0  0  0  0  0  0  0  0  0  0  0
    0.8932    7.5809   -1.6477 N   0  0  0  0  0  0  0  0  0  0  0  0
   -0.0004    9.2969    0.6366 N   0  0  0  0  0  0  0  0  0  0  0  0
    1.5657    8.8817    0.8881 C   0  0  0  0  0  0  0  0  0  0  0  0
    2.0866    7.4089    1.3656 C   0  0  0  0  0  0  0  0  0  0  0  0
    1.3889    6.8166    2.5904 C   0  0  0  0  0  0  0  0  0  0  0  0
   -0.0796    6.8474    2.1864 C   0  0  0  0  0  0  0  0  0  0  0  0
   -0.6899    8.2920    1.7655 C   0  0  0  0  0  0  0  0  0  0  0  0
    1.8611    5.4384    2.9377 N   0  0  0  0  0  0  0  0  0  0  0  0
    0.5079   -0.8967    0.4928 H   0  0  0  0  0  0  0  0  0  0  0  0
    0.4607    0.8826    0.7122 H   0  0  0  0  0  0  0  0  0  0  0  0
    1.9242    0.0677    0.2063 H   0  0  0  0  0  0  0  0  0  0  0  0
   -1.0020    1.9604   -1.0357 H   0  0  0  0  0  0  0  0  0  0  0  0
   -0.1668    2.0900   -2.6158 H   0  0  0  0  0  0  0  0  0  0  0  0
   -0.8225   -1.4975   -2.2556 H   0  0  0  0  0  0  0  0  0  0  0  0
   -1.5648   -0.7091   -0.8246 H   0  0  0  0  0  0  0  0  0  0  0  0
    2.0349   -1.0250   -2.0057 H   0  0  0  0  0  0  0  0  0  0  0  0
    1.5306    0.0375   -3.3064 H   0  0  0  0  0  0  0  0  0  0  0  0
    1.0157    2.5233   -0.7020 H   0  0  0  0  0  0  0  0  0  0  0  0
    0.3406    4.6856   -1.6259 H   0  0  0  0  0  0  0  0  0  0  0  0
    4.6234    2.4075   -2.8897 H   0  0  0  0  0  0  0  0  0  0  0  0
    4.0467    7.2677   -3.8687 H   0  0  0  0  0  0  0  0  0  0  0  0
    1.4704    7.6368   -4.9818 H   0  0  0  0  0  0  0  0  0  0  0  0
   -0.8314    8.5558   -4.9216 H   0  0  0  0  0  0  0  0  0  0  0  0
   -2.6578    9.3723   -1.4755 H   0  0  0  0  0  0  0  0  0  0  0  0
   -1.8985   10.4180   -4.1026 H   0  0  0  0  0  0  0  0  0  0  0  0
   -2.1103   11.5445   -1.4195 H   0  0  0  0  0  0  0  0  0  0  0  0
    2.2031    9.2280    0.0764 H   0  0  0  0  0  0  0  0  0  0  0  0
    1.7981    9.4719    1.7850 H   0  0  0  0  0  0  0  0  0  0  0  0
    2.0479    6.6667    0.5577 H   0  0  0  0  0  0  0  0  0  0  0  0
    3.1597    7.4590    1.6356 H   0  0  0  0  0  0  0  0  0  0  0  0
    1.6021    7.3989    3.4999 H   0  0  0  0  0  0  0  0  0  0  0  0
   -0.2226    6.1167    1.3837 H   0  0  0  0  0  0  0  0  0  0  0  0
   -0.6161    6.4377    3.0652 H   0  0  0  0  0  0  0  0  0  0  0  0
   -0.4882    8.8445    2.7036 H   0  0  0  0  0  0  0  0  0  0  0  0
   -1.7765    8.1839    1.7010 H   0  0  0  0  0  0  0  0  0  0  0  0
    1.3523    5.0421    3.7350 H   0  0  0  0  0  0  0  0  0  0  0  0
    1.7100    4.7809    2.1724 H   0  0  0  0  0  0  0  0  0  0  0  0
  1  2  1  0  0  0  0
  1 34  1  0  0  0  0
  1 35  1  0  0  0  0
  1 36  1  0  0  0  0
  2  3  1  0  0  0  0
  2  5  1  0  0  0  0
  2  6  1  0  0  0  0
  3  4  1  0  0  0  0
  3 37  1  0  0  0  0
  3 38  1  0  0  0  0
  4  5  1  0  0  0  0
  5 39  1  0  0  0  0
  5 40  1  0  0  0  0
  6  7  1  0  0  0  0
  6 41  1  0  0  0  0
  6 42  1  0  0  0  0
  7  8  1  0  0  0  0
  8  9  2  0  0  0  0
  8 13  1  0  0  0  0
  9 10  1  0  0  0  0
  9 43  1  0  0  0  0
 10 11  2  0  0  0  0
 10 44  1  0  0  0  0
 11 12  1  0  0  0  0
 11 16  1  0  0  0  0
 12 13  2  0  0  0  0
 12 14  1  0  0  0  0
 13 45  1  0  0  0  0
 14 15  2  0  0  0  0
 15 16  1  0  0  0  0
 15 46  1  0  0  0  0
 16 17  1  0  0  0  0
 17 18  2  0  0  0  0
 17 26  1  0  0  0  0
 18 19  1  0  0  0  0
 18 47  1  0  0  0  0
 19 20  2  0  0  0  0
 19 48  1  0  0  0  0
 20 21  1  0  0  0  0
 20 25  1  0  0  0  0
 21 22  2  0  0  0  0
 21 49  1  0  0  0  0
 22 23  1  0  0  0  0
 22 50  1  0  0  0  0
 23 24  2  0  0  0  0
 23 51  1  0  0  0  0
 24 25  1  0  0  0  0
 24 27  1  0  0  0  0
 25 26  2  0  0  0  0
 27 28  1  0  0  0  0
 27 32  1  0  0  0  0
 28 29  1  0  0  0  0
 28 52  1  0  0  0  0
 28 53  1  0  0  0  0
 29 30  1  0  0  0  0
 29 54  1  0  0  0  0
 29 55  1  0  0  0  0
 30 31  1  0  0  0  0
 30 33  1  0  0  0  0
 30 56  1  0  0  0  0
 31 32  1  0  0  0  0
 31 57  1  0  0  0  0
 31 58  1  0  0  0  0
 32 59  1  0  0  0  0
 32 60  1  0  0  0  0
 33 61  1  0  0  0  0
 33 62  1  0  0  0  0
M  END
>  <DRUGBANK_ID>
DB11832

>  <COMMON_NAME>
Crenolanib

>  <CAS_NUMBER>
670220-88-9

>  <UNII>
LQF7I567TQ

>  <SYNONYMS>
Crenolanib

$$$$
