
 OpenBabel10282417233D

 48 50  0  0  1  0  0  0  0  0999 V2000
    0.9358   -0.1109   -0.0253 O   0  0  0  0  0  0  0  0  0  0  0  0
    0.4643    0.0684    1.3068 C   0  0  0  0  0  0  0  0  0  0  0  0
    0.9564   -1.0826    2.1999 C   0  0  1  0  0  0  0  0  0  0  0  0
    2.3845   -1.0713    2.2378 O   0  0  0  0  0  0  0  0  0  0  0  0
    0.4691   -0.9625    3.6116 C   0  0  0  0  0  0  0  0  0  0  0  0
    0.1614   -2.0868    4.3703 C   0  0  0  0  0  0  0  0  0  0  0  0
   -0.2820   -2.0355    5.6456 N   0  0  0  0  0  0  0  0  0  0  0  0
   -0.3893   -0.8032    6.2070 C   0  0  0  0  0  0  0  0  0  0  0  0
   -0.0942    0.3806    5.5306 C   0  0  0  0  0  0  0  0  0  0  0  0
   -0.1816    1.9720    6.1979 Cl  0  0  0  0  0  0  0  0  0  0  0  0
    0.3430    0.2849    4.2270 C   0  0  0  0  0  0  0  0  0  0  0  0
   -0.8982   -0.7846    7.5713 C   0  0  0  0  0  0  0  0  0  0  0  0
   -0.2921   -1.3751    8.6164 C   0  0  0  0  0  0  0  0  0  0  0  0
   -0.7676   -1.2721   10.0533 C   0  0  0  0  0  0  0  0  0  0  0  0
   -1.9575   -0.4134   10.1794 N   0  0  0  0  0  0  0  0  0  0  0  0
   -2.8032   -0.4121    9.0122 C   0  0  0  0  0  0  0  0  0  0  0  0
   -2.1532   -0.0276    7.7319 C   0  0  0  0  0  0  0  0  0  0  0  0
   -2.2204    0.2472   11.3752 C   0  0  0  0  0  0  0  0  0  0  0  0
   -1.4048    0.2396   12.2936 O   0  0  0  0  0  0  0  0  0  0  0  0
   -3.3584    1.0092   11.5507 N   0  0  0  0  0  0  0  0  0  0  0  0
   -4.5561    1.1074   10.8286 C   0  0  0  0  0  0  0  0  0  0  0  0
   -5.1651   -0.0455   10.3406 C   0  0  0  0  0  0  0  0  0  0  0  0
   -5.9795    0.0550    9.2102 C   0  0  0  0  0  0  0  0  0  0  0  0
   -6.3366    1.3106    8.7213 C   0  0  0  0  0  0  0  0  0  0  0  0
   -5.8284    2.4150    9.3946 C   0  0  0  0  0  0  0  0  0  0  0  0
   -4.9439    2.3411   10.4319 N   0  0  0  0  0  0  0  0  0  0  0  0
   -7.2770    1.4612    7.5645 C   0  0  0  0  0  0  0  0  0  0  0  0
   -8.4589    2.0159    7.9438 F   0  0  0  0  0  0  0  0  0  0  0  0
   -6.7923    2.2455    6.5641 F   0  0  0  0  0  0  0  0  0  0  0  0
   -7.5963    0.2720    6.9776 F   0  0  0  0  0  0  0  0  0  0  0  0
    1.8846    0.1060   -0.0112 H   0  0  0  0  0  0  0  0  0  0  0  0
    0.8387    1.0412    1.6445 H   0  0  0  0  0  0  0  0  0  0  0  0
   -0.6304    0.1084    1.2964 H   0  0  0  0  0  0  0  0  0  0  0  0
    0.6416   -2.0386    1.7651 H   0  0  0  0  0  0  0  0  0  0  0  0
    2.6877   -1.2915    1.3410 H   0  0  0  0  0  0  0  0  0  0  0  0
    0.2703   -3.0917    3.9684 H   0  0  0  0  0  0  0  0  0  0  0  0
    0.6027    1.2031    3.7123 H   0  0  0  0  0  0  0  0  0  0  0  0
    0.6198   -1.9397    8.4396 H   0  0  0  0  0  0  0  0  0  0  0  0
    0.0478   -0.8963   10.6791 H   0  0  0  0  0  0  0  0  0  0  0  0
   -1.0398   -2.2734   10.4066 H   0  0  0  0  0  0  0  0  0  0  0  0
   -3.3071   -1.3834    8.9461 H   0  0  0  0  0  0  0  0  0  0  0  0
   -3.4768    0.4132    9.0577 H   0  0  0  0  0  0  0  0  0  0  0  0
   -2.8753   -0.1969    6.9217 H   0  0  0  0  0  0  0  0  0  0  0  0
   -1.9705    1.0490    7.7875 H   0  0  0  0  0  0  0  0  0  0  0  0
   -3.2427    1.7211   12.2604 H   0  0  0  0  0  0  0  0  0  0  0  0
   -4.8119   -1.0188   10.6688 H   0  0  0  0  0  0  0  0  0  0  0  0
   -6.2453   -0.8489    8.6630 H   0  0  0  0  0  0  0  0  0  0  0  0
   -6.1018    3.4266    9.0943 H   0  0  0  0  0  0  0  0  0  0  0  0
  1  2  1  0  0  0  0
  1 31  1  0  0  0  0
  2 32  1  0  0  0  0
  2 33  1  0  0  0  0
  3  2  1  0  0  0  0
  3  4  1  0  0  0  0
  3  5  1  0  0  0  0
  3 34  1  6  0  0  0
  4 35  1  0  0  0  0
  5  6  2  0  0  0  0
  5 11  1  0  0  0  0
  6  7  1  0  0  0  0
  6 36  1  0  0  0  0
  7  8  2  0  0  0  0
  8  9  1  0  0  0  0
  8 12  1  0  0  0  0
  9 10  1  0  0  0  0
  9 11  2  0  0  0  0
 11 37  1  0  0  0  0
 12 13  2  0  0  0  0
 12 17  1  0  0  0  0
 13 14  1  0  0  0  0
 13 38  1  0  0  0  0
 14 15  1  0  0  0  0
 14 39  1  0  0  0  0
 14 40  1  0  0  0  0
 15 16  1  0  0  0  0
 15 18  1  0  0  0  0
 16 17  1  0  0  0  0
 16 41  1  0  0  0  0
 16 42  1  0  0  0  0
 17 43  1  0  0  0  0
 17 44  1  0  0  0  0
 18 19  2  0  0  0  0
 18 20  1  0  0  0  0
 20 21  1  0  0  0  0
 20 45  1  0  0  0  0
 21 22  2  0  0  0  0
 21 26  1  0  0  0  0
 22 23  1  0  0  0  0
 22 46  1  0  0  0  0
 23 24  2  0  0  0  0
 23 47  1  0  0  0  0
 24 25  1  0  0  0  0
 24 27  1  0  0  0  0
 25 26  2  0  0  0  0
 25 48  1  0  0  0  0
 27 28  1  0  0  0  0
 27 29  1  0  0  0  0
 27 30  1  0  0  0  0
M  END
>  <DRUGBANK_ID>
DB16060

>  <COMMON_NAME>
V116517

>  <CAS_NUMBER>
1073616-61-1

>  <UNII>
TBJ73RQT8F

$$$$
