
 OpenBabel10282417223D

 36 38  0  0  1  0  0  0  0  0999 V2000
    4.0065    0.4256    3.1746 N   0  0  0  0  0  0  0  0  0  0  0  0
    4.5256    1.8116    2.9764 C   0  0  0  0  0  0  0  0  0  0  0  0
    3.9456    3.0119    2.0764 C   0  0  0  0  0  0  0  0  0  0  0  0
    2.5024    3.4317    2.1512 C   0  0  0  0  0  0  0  0  0  0  0  0
    2.0977    4.6968    2.4600 C   0  0  0  0  0  0  0  0  0  0  0  0
    0.7377    4.7388    2.4735 N   0  0  0  0  0  0  0  0  0  0  0  0
    0.2151    3.4859    2.1547 C   0  0  0  0  0  0  0  0  0  0  0  0
   -1.3975    3.1239    2.2054 S   0  0  0  0  0  0  0  0  0  0  0  0
    1.3514    2.6797    1.8347 N   0  0  0  0  0  0  0  0  0  0  0  0
    1.2309    1.3243    1.2244 C   0  0  1  0  0  0  0  0  0  0  0  0
    0.5231    1.2789   -0.1218 C   0  0  0  0  0  0  0  0  0  0  0  0
    1.2054    2.0862   -1.1222 O   0  0  0  0  0  0  0  0  0  0  0  0
    2.5639    1.8884   -1.2456 C   0  0  0  0  0  0  0  0  0  0  0  0
    3.2595    1.0839   -0.3624 C   0  0  0  0  0  0  0  0  0  0  0  0
    2.5075    0.6194    0.8273 C   0  0  0  0  0  0  0  0  0  0  0  0
    4.6801    0.9823   -0.3884 C   0  0  0  0  0  0  0  0  0  0  0  0
    5.3975    1.7196   -1.3106 C   0  0  0  0  0  0  0  0  0  0  0  0
    6.7377    1.7267   -1.2610 F   0  0  0  0  0  0  0  0  0  0  0  0
    4.7205    2.5045   -2.2285 C   0  0  0  0  0  0  0  0  0  0  0  0
    3.3170    2.5892   -2.1843 C   0  0  0  0  0  0  0  0  0  0  0  0
    2.7034    3.4006   -3.0536 F   0  0  0  0  0  0  0  0  0  0  0  0
    2.9895    0.4416    3.2949 H   0  0  0  0  0  0  0  0  0  0  0  0
    4.1872   -0.1636    2.3524 H   0  0  0  0  0  0  0  0  0  0  0  0
    4.5476    2.1922    3.9912 H   0  0  0  0  0  0  0  0  0  0  0  0
    5.5502    1.6522    2.6218 H   0  0  0  0  0  0  0  0  0  0  0  0
    4.5876    3.8730    2.3225 H   0  0  0  0  0  0  0  0  0  0  0  0
    4.1789    2.9147    1.0157 H   0  0  0  0  0  0  0  0  0  0  0  0
    2.6907    5.5714    2.6619 H   0  0  0  0  0  0  0  0  0  0  0  0
    0.1602    5.5491    2.6845 H   0  0  0  0  0  0  0  0  0  0  0  0
    0.7365    0.7212    2.0018 H   0  0  0  0  0  0  0  0  0  0  0  0
    0.5030    0.2342   -0.4698 H   0  0  0  0  0  0  0  0  0  0  0  0
   -0.5199    1.5822   -0.0444 H   0  0  0  0  0  0  0  0  0  0  0  0
    3.1296    1.0482    1.5271 H   0  0  0  0  0  0  0  0  0  0  0  0
    2.4713   -0.4666    0.9189 H   0  0  0  0  0  0  0  0  0  0  0  0
    5.2418    0.4804    0.4010 H   0  0  0  0  0  0  0  0  0  0  0  0
    5.2833    3.0648   -2.9641 H   0  0  0  0  0  0  0  0  0  0  0  0
  1  2  1  0  0  0  0
  1 22  1  0  0  0  0
  1 23  1  0  0  0  0
  2  3  1  0  0  0  0
  2 24  1  0  0  0  0
  2 25  1  0  0  0  0
  3  4  1  0  0  0  0
  3 26  1  0  0  0  0
  3 27  1  0  0  0  0
  4  5  2  0  0  0  0
  4  9  1  0  0  0  0
  5  6  1  0  0  0  0
  5 28  1  0  0  0  0
  6  7  1  0  0  0  0
  6 29  1  0  0  0  0
  7  8  2  0  0  0  0
  7  9  1  0  0  0  0
 10 11  1  0  0  0  0
 10 15  1  0  0  0  0
 10 30  1  1  0  0  0
 10  9  1  0  0  0  0
 11 12  1  0  0  0  0
 11 31  1  0  0  0  0
 11 32  1  0  0  0  0
 12 13  1  0  0  0  0
 13 14  2  0  0  0  0
 13 20  1  0  0  0  0
 14 15  1  0  0  0  0
 14 16  1  0  0  0  0
 15 33  1  0  0  0  0
 15 34  1  0  0  0  0
 16 17  2  0  0  0  0
 16 35  1  0  0  0  0
 17 18  1  0  0  0  0
 17 19  1  0  0  0  0
 19 20  2  0  0  0  0
 19 36  1  0  0  0  0
 20 21  1  0  0  0  0
M  END
>  <DRUGBANK_ID>
DB15288

>  <COMMON_NAME>
Etamicastat

>  <CAS_NUMBER>
760173-05-5

>  <UNII>
9X96V6DBU4

>  <SYNONYMS>
Etamicastat

$$$$
