
 OpenBabel10282417203D

 45 47  0  0  0  0  0  0  0  0999 V2000
   -3.4898    0.0782    0.1198 C   0  0  0  0  0  0  0  0  0  0  0  0
   -2.0367   -0.2755    0.0432 C   0  0  0  0  0  0  0  0  0  0  0  0
   -1.0661    0.8406   -0.0133 C   0  0  0  0  0  0  0  0  0  0  0  0
   -1.4238    2.0148   -0.0763 O   0  0  0  0  0  0  0  0  0  0  0  0
    0.3590    0.4943    0.0168 C   0  0  0  0  0  0  0  0  0  0  0  0
    1.3233    1.5031    0.0435 C   0  0  0  0  0  0  0  0  0  0  0  0
    2.6759    1.1723    0.0813 C   0  0  0  0  0  0  0  0  0  0  0  0
    3.0766   -0.1666    0.0717 C   0  0  0  0  0  0  0  0  0  0  0  0
    2.1002   -1.1916    0.0261 C   0  0  0  0  0  0  0  0  0  0  0  0
    0.7332   -0.8442    0.0204 C   0  0  0  0  0  0  0  0  0  0  0  0
   -0.2015   -1.8542    0.0083 O   0  0  0  0  0  0  0  0  0  0  0  0
   -1.5479   -1.5310    0.0467 C   0  0  0  0  0  0  0  0  0  0  0  0
   -2.4359   -2.7120    0.0685 C   0  0  0  0  0  0  0  0  0  0  0  0
   -3.3691   -2.9115   -0.9614 C   0  0  0  0  0  0  0  0  0  0  0  0
   -4.2231   -4.0133   -0.9560 C   0  0  0  0  0  0  0  0  0  0  0  0
   -4.1140   -4.9654    0.0517 C   0  0  0  0  0  0  0  0  0  0  0  0
   -3.1641   -4.8043    1.0604 C   0  0  0  0  0  0  0  0  0  0  0  0
   -2.3585   -3.6606    1.0956 C   0  0  0  0  0  0  0  0  0  0  0  0
    2.5105   -2.6491   -0.0880 C   0  0  0  0  0  0  0  0  0  0  0  0
    3.2780   -2.9374   -1.3145 N   0  0  0  0  0  0  0  0  0  0  0  0
    3.6833   -4.3394   -1.3343 C   0  0  0  0  0  0  0  0  0  0  0  0
    2.5135   -2.6105   -2.5172 C   0  0  0  0  0  0  0  0  0  0  0  0
    4.3886   -0.5663    0.0959 O   0  0  0  0  0  0  0  0  0  0  0  0
    5.3866    0.4465    0.0854 C   0  0  0  0  0  0  0  0  0  0  0  0
   -4.0373   -0.3087   -0.7437 H   0  0  0  0  0  0  0  0  0  0  0  0
   -3.9272   -0.3354    1.0343 H   0  0  0  0  0  0  0  0  0  0  0  0
   -3.6631    1.1563    0.1299 H   0  0  0  0  0  0  0  0  0  0  0  0
    1.0261    2.5494    0.0436 H   0  0  0  0  0  0  0  0  0  0  0  0
    3.3936    1.9852    0.1112 H   0  0  0  0  0  0  0  0  0  0  0  0
   -3.4496   -2.1962   -1.7765 H   0  0  0  0  0  0  0  0  0  0  0  0
   -4.9583   -4.1306   -1.7477 H   0  0  0  0  0  0  0  0  0  0  0  0
   -4.7681   -5.8334    0.0491 H   0  0  0  0  0  0  0  0  0  0  0  0
   -3.0494   -5.5749    1.8186 H   0  0  0  0  0  0  0  0  0  0  0  0
   -1.6779   -3.5169    1.9320 H   0  0  0  0  0  0  0  0  0  0  0  0
    3.1017   -2.8945    0.8046 H   0  0  0  0  0  0  0  0  0  0  0  0
    1.6341   -3.3084   -0.0502 H   0  0  0  0  0  0  0  0  0  0  0  0
    2.8193   -5.0127   -1.3615 H   0  0  0  0  0  0  0  0  0  0  0  0
    4.3098   -4.5429   -2.2092 H   0  0  0  0  0  0  0  0  0  0  0  0
    4.2847   -4.5838   -0.4515 H   0  0  0  0  0  0  0  0  0  0  0  0
    1.5918   -3.1976   -2.5859 H   0  0  0  0  0  0  0  0  0  0  0  0
    2.2466   -1.5483   -2.5495 H   0  0  0  0  0  0  0  0  0  0  0  0
    3.1167   -2.7887   -3.4131 H   0  0  0  0  0  0  0  0  0  0  0  0
    5.3137    1.0762   -0.8085 H   0  0  0  0  0  0  0  0  0  0  0  0
    5.3303    1.0477    0.9984 H   0  0  0  0  0  0  0  0  0  0  0  0
    6.3667   -0.0396    0.0671 H   0  0  0  0  0  0  0  0  0  0  0  0
  1  2  1  0  0  0  0
  1 25  1  0  0  0  0
  1 26  1  0  0  0  0
  1 27  1  0  0  0  0
  2  3  1  0  0  0  0
  2 12  2  0  0  0  0
  3  4  2  0  0  0  0
  3  5  1  0  0  0  0
  5  6  2  0  0  0  0
  5 10  1  0  0  0  0
  6  7  1  0  0  0  0
  6 28  1  0  0  0  0
  7  8  2  0  0  0  0
  7 29  1  0  0  0  0
  8  9  1  0  0  0  0
  8 23  1  0  0  0  0
  9 10  2  0  0  0  0
  9 19  1  0  0  0  0
 10 11  1  0  0  0  0
 11 12  1  0  0  0  0
 12 13  1  0  0  0  0
 13 14  2  0  0  0  0
 13 18  1  0  0  0  0
 14 15  1  0  0  0  0
 14 30  1  0  0  0  0
 15 16  2  0  0  0  0
 15 31  1  0  0  0  0
 16 17  1  0  0  0  0
 16 32  1  0  0  0  0
 17 18  2  0  0  0  0
 17 33  1  0  0  0  0
 18 34  1  0  0  0  0
 19 20  1  0  0  0  0
 19 35  1  0  0  0  0
 19 36  1  0  0  0  0
 20 21  1  0  0  0  0
 20 22  1  0  0  0  0
 21 37  1  0  0  0  0
 21 38  1  0  0  0  0
 21 39  1  0  0  0  0
 22 40  1  0  0  0  0
 22 41  1  0  0  0  0
 22 42  1  0  0  0  0
 23 24  1  0  0  0  0
 24 43  1  0  0  0  0
 24 44  1  0  0  0  0
 24 45  1  0  0  0  0
M  END
>  <DRUGBANK_ID>
DB13482

>  <COMMON_NAME>
Dimefline

>  <CAS_NUMBER>
1165-48-6

>  <UNII>
9WII5M0DU3

>  <SYNONYMS>
Dimefline

$$$$
