
 OpenBabel10282417113D

 37 39  0  0  0  0  0  0  0  0999 V2000
   -1.5254    1.7539    0.0669 C   0  0  0  0  0  0  0  0  0  0  0  0
   -2.8230    1.2378    0.0352 C   0  0  0  0  0  0  0  0  0  0  0  0
   -3.0378   -0.1378   -0.0434 C   0  0  0  0  0  0  0  0  0  0  0  0
   -1.9503   -0.9971   -0.0910 C   0  0  0  0  0  0  0  0  0  0  0  0
   -0.6490   -0.4810   -0.0779 C   0  0  0  0  0  0  0  0  0  0  0  0
   -0.4487    0.8818    0.0166 C   0  0  0  0  0  0  0  0  0  0  0  0
    0.8441    1.4184    0.0517 O   0  0  0  0  0  0  0  0  0  0  0  0
    0.5034   -1.3472   -0.1473 C   0  0  0  0  0  0  0  0  0  0  0  0
    1.7509   -0.8801    0.0465 C   0  0  0  0  0  0  0  0  0  0  0  0
    1.9738    0.6020    0.0573 C   0  0  0  0  0  0  0  0  0  0  0  0
    2.9989   -1.7466    0.1329 C   0  0  3  0  0  0  0  0  0  0  0  0
    3.0295   -2.5963    1.4177 C   0  0  0  0  0  0  0  0  0  0  0  0
    2.0963   -4.3661    2.8507 C   0  0  0  0  0  0  0  0  0  0  0  0
    2.0098   -3.4995    1.7719 C   0  0  0  0  0  0  0  0  0  0  0  0
    4.1225   -2.5222    2.2890 C   0  0  0  0  0  0  0  0  0  0  0  0
    4.2212   -3.4010    3.3790 C   0  0  0  0  0  0  0  0  0  0  0  0
    3.2094   -4.3197    3.6589 C   0  0  0  0  0  0  0  0  0  0  0  0
    3.2154   -2.6155   -1.1399 C   0  0  0  0  0  0  0  0  0  0  0  0
    3.2271   -1.7908   -2.4218 C   0  0  0  0  0  0  0  0  0  0  0  0
    0.1517   -2.6467   -0.4193 O   0  0  0  0  0  0  0  0  0  0  0  0
    3.0910    1.0923    0.0150 O   0  0  0  0  0  0  0  0  0  0  0  0
   -1.3528    2.8227    0.1242 H   0  0  0  0  0  0  0  0  0  0  0  0
   -3.6733    1.9106    0.0716 H   0  0  0  0  0  0  0  0  0  0  0  0
   -4.0429   -0.5478   -0.0742 H   0  0  0  0  0  0  0  0  0  0  0  0
   -2.1202   -2.0720   -0.1407 H   0  0  0  0  0  0  0  0  0  0  0  0
    3.8858   -1.0956    0.1697 H   0  0  0  0  0  0  0  0  0  0  0  0
    1.2774   -5.0576    3.0317 H   0  0  0  0  0  0  0  0  0  0  0  0
    1.0617   -3.5775    1.2759 H   0  0  0  0  0  0  0  0  0  0  0  0
    4.9075   -1.7825    2.1384 H   0  0  0  0  0  0  0  0  0  0  0  0
    5.1020   -3.3790    4.0131 H   0  0  0  0  0  0  0  0  0  0  0  0
    3.2671   -4.9830    4.5145 H   0  0  0  0  0  0  0  0  0  0  0  0
    4.1508   -3.1798   -1.0531 H   0  0  0  0  0  0  0  0  0  0  0  0
    2.4609   -3.3926   -1.2656 H   0  0  0  0  0  0  0  0  0  0  0  0
    4.0971   -1.1300   -2.4453 H   0  0  0  0  0  0  0  0  0  0  0  0
    3.2635   -2.4531   -3.2918 H   0  0  0  0  0  0  0  0  0  0  0  0
    2.3251   -1.1788   -2.5265 H   0  0  0  0  0  0  0  0  0  0  0  0
    0.9359   -3.2020   -0.4772 H   0  0  0  0  0  0  0  0  0  0  0  0
  1  2  2  0  0  0  0
  1  6  1  0  0  0  0
  1 22  1  0  0  0  0
  2  3  1  0  0  0  0
  2 23  1  0  0  0  0
  3  4  2  0  0  0  0
  3 24  1  0  0  0  0
  4  5  1  0  0  0  0
  4 25  1  0  0  0  0
  5  8  1  0  0  0  0
  6  5  2  0  0  0  0
  7  6  1  0  0  0  0
  7 10  1  0  0  0  0
  8  9  2  0  0  0  0
  8 20  1  0  0  0  0
  9 10  1  0  0  0  0
  9 11  1  0  0  0  0
 10 21  2  0  0  0  0
 11 12  1  0  0  0  0
 11 18  1  0  0  0  0
 11 26  1  0  0  0  0
 12 15  1  0  0  0  0
 13 14  1  0  0  0  0
 13 17  2  0  0  0  0
 13 27  1  0  0  0  0
 14 12  2  0  0  0  0
 14 28  1  0  0  0  0
 15 16  2  0  0  0  0
 15 29  1  0  0  0  0
 16 17  1  0  0  0  0
 16 30  1  0  0  0  0
 17 31  1  0  0  0  0
 18 19  1  0  0  0  0
 18 32  1  0  0  0  0
 18 33  1  0  0  0  0
 19 34  1  0  0  0  0
 19 35  1  0  0  0  0
 19 36  1  0  0  0  0
 20 37  1  0  0  0  0
M  END
>  <DRUGBANK_ID>
DB00946

>  <SECONDARY_ACCESSION_NUMBERS>
APRD00228

>  <COMMON_NAME>
Phenprocoumon

>  <CAS_NUMBER>
435-97-2

>  <UNII>
Q08SIO485D

>  <SYNONYMS>
3-(1-Phenylpropyl)-4-hydroxycoumarin; 3-(1'-Phenyl-propyl)-4-oxycoumarin; 3-(alpha-Ethylbenzyl)-4-hydroxycoumarin; 3-(alpha-Phenylpropyl)-4-hydroxycoumarin; 4-Hydroxy-3-(1-phenylpropyl)-2H-1-benzopyran-2-one; 4-hydroxy-3-(1-phenylpropyl)-2H-chromen-2-one; Fenprocumon; Fenprocumone; Phenprocoumarol; Phenprocoumarole; Phenprocoumon; Phenprocoumone; Phenprocoumonum; Phenprocumone

$$$$
