GVK
 OpenBabel10282417163D

 48 52  0  0  0  0  0  0  0  0999 V2000
   -2.2330   -0.0797   -0.0008 Cl  0  0  0  0  0  0  0  0  0  0  0  0
   -0.5186   -0.0601   -0.0213 C   0  0  0  0  0  0  0  0  0  0  0  0
    0.1492    1.1471   -0.0159 C   0  0  0  0  0  0  0  0  0  0  0  0
    1.5422    1.1594   -0.0065 C   0  0  0  0  0  0  0  0  0  0  0  0
    2.3271   -0.0085   -0.0168 C   0  0  0  0  0  0  0  0  0  0  0  0
    1.6019   -1.2137   -0.0811 C   0  0  0  0  0  0  0  0  0  0  0  0
    0.2025   -1.2433   -0.0537 C   0  0  0  0  0  0  0  0  0  0  0  0
    3.8986    0.0325    0.0447 C   0  0  0  0  0  0  0  0  0  0  0  0
    4.4057    0.7762    1.3171 C   0  0  0  0  0  0  0  0  0  0  0  0
    4.2005    2.2887    1.2838 C   0  0  0  0  0  0  0  0  0  0  0  0
    4.7114    2.9072    0.0632 N   0  0  0  0  0  0  0  0  0  0  0  0
    4.2454    2.2992   -1.1794 C   0  0  0  0  0  0  0  0  0  0  0  0
    4.4597    0.7934   -1.1942 C   0  0  0  0  0  0  0  0  0  0  0  0
    4.4931   -1.4137    0.0981 C   0  0  0  0  0  0  0  0  0  0  0  0
    4.1729   -2.2640    1.1780 C   0  0  0  0  0  0  0  0  0  0  0  0
    4.5031   -3.6206    1.1543 C   0  0  0  0  0  0  0  0  0  0  0  0
    5.2410   -4.1543    0.0931 C   0  0  0  0  0  0  0  0  0  0  0  0
    5.5884   -3.3118   -0.9676 C   0  0  0  0  0  0  0  0  0  0  0  0
    5.2463   -1.9608   -0.9537 C   0  0  0  0  0  0  0  0  0  0  0  0
    5.7264   -5.5218    0.1342 C   0  0  0  0  0  0  0  0  0  0  0  0
    4.8437   -6.5524    0.2208 N   0  0  0  0  0  0  0  0  0  0  0  0
    5.3499   -7.8015    0.3060 C   0  0  0  0  0  0  0  0  0  0  0  0
    6.6460   -8.1792    0.3505 N   0  0  0  0  0  0  0  0  0  0  0  0
    7.4583   -7.1164    0.2797 C   0  0  0  0  0  0  0  0  0  0  0  0
    8.8197   -7.1098    0.3335 N   0  0  0  0  0  0  0  0  0  0  0  0
    9.2394   -5.8133    0.2353 C   0  0  0  0  0  0  0  0  0  0  0  0
    8.2236   -4.9833    0.1178 N   0  0  0  0  0  0  0  0  0  0  0  0
    7.0998   -5.7835    0.1595 C   0  0  0  0  0  0  0  0  0  0  0  0
   -0.3840    2.0932   -0.0129 H   0  0  0  0  0  0  0  0  0  0  0  0
    1.9635    2.1515    0.0048 H   0  0  0  0  0  0  0  0  0  0  0  0
    2.0942   -2.1802   -0.1442 H   0  0  0  0  0  0  0  0  0  0  0  0
   -0.3054   -2.2024   -0.0612 H   0  0  0  0  0  0  0  0  0  0  0  0
    3.9280    0.3776    2.2216 H   0  0  0  0  0  0  0  0  0  0  0  0
    5.4847    0.5962    1.4421 H   0  0  0  0  0  0  0  0  0  0  0  0
    3.1532    2.5435    1.4575 H   0  0  0  0  0  0  0  0  0  0  0  0
    4.7111    2.7330    2.1450 H   0  0  0  0  0  0  0  0  0  0  0  0
    4.4867    3.9010    0.0614 H   0  0  0  0  0  0  0  0  0  0  0  0
    4.8032    2.7361   -2.0153 H   0  0  0  0  0  0  0  0  0  0  0  0
    3.2093    2.5561   -1.4057 H   0  0  0  0  0  0  0  0  0  0  0  0
    5.5502    0.6601   -1.2506 H   0  0  0  0  0  0  0  0  0  0  0  0
    4.0414    0.3739   -2.1195 H   0  0  0  0  0  0  0  0  0  0  0  0
    3.5764   -1.8948    2.0104 H   0  0  0  0  0  0  0  0  0  0  0  0
    4.1779   -4.2610    1.9715 H   0  0  0  0  0  0  0  0  0  0  0  0
    6.1357   -3.7050   -1.8227 H   0  0  0  0  0  0  0  0  0  0  0  0
    5.5862   -1.3692   -1.7979 H   0  0  0  0  0  0  0  0  0  0  0  0
    4.6200   -8.6043    0.3483 H   0  0  0  0  0  0  0  0  0  0  0  0
    9.4027   -7.9290    0.4478 H   0  0  0  0  0  0  0  0  0  0  0  0
   10.2827   -5.5316    0.2610 H   0  0  0  0  0  0  0  0  0  0  0  0
  1  2  1  0  0  0  0
  2  3  1  0  0  0  0
  2  7  2  0  0  0  0
  3  4  2  0  0  0  0
  3 29  1  0  0  0  0
  4  5  1  0  0  0  0
  4 30  1  0  0  0  0
  5  6  2  0  0  0  0
  5  8  1  0  0  0  0
  6  7  1  0  0  0  0
  6 31  1  0  0  0  0
  7 32  1  0  0  0  0
  8  9  1  0  0  0  0
  8 13  1  0  0  0  0
  8 14  1  0  0  0  0
  9 10  1  0  0  0  0
  9 33  1  0  0  0  0
  9 34  1  0  0  0  0
 10 11  1  0  0  0  0
 10 35  1  0  0  0  0
 10 36  1  0  0  0  0
 11 12  1  0  0  0  0
 11 37  1  0  0  0  0
 12 13  1  0  0  0  0
 12 38  1  0  0  0  0
 12 39  1  0  0  0  0
 13 40  1  0  0  0  0
 13 41  1  0  0  0  0
 14 15  1  0  0  0  0
 14 19  2  0  0  0  0
 15 16  2  0  0  0  0
 15 42  1  0  0  0  0
 16 17  1  0  0  0  0
 16 43  1  0  0  0  0
 17 18  2  0  0  0  0
 17 20  1  0  0  0  0
 18 19  1  0  0  0  0
 18 44  1  0  0  0  0
 19 45  1  0  0  0  0
 20 21  1  0  0  0  0
 20 28  2  0  0  0  0
 21 22  2  0  0  0  0
 22 23  1  0  0  0  0
 22 46  1  0  0  0  0
 23 24  2  0  0  0  0
 24 25  1  0  0  0  0
 24 28  1  0  0  0  0
 25 26  1  0  0  0  0
 25 47  1  0  0  0  0
 26 27  2  0  0  0  0
 26 48  1  0  0  0  0
 27 28  1  0  0  0  0
M  END
>  <DRUGBANK_ID>
DB07856

>  <COMMON_NAME>
6-{4-[4-(4-CHLOROPHENYL)PIPERIDIN-4-YL]PHENYL}-9H-PURINE

$$$$
