LZE
 OpenBabel10282417173D

 42 44  0  0  0  0  0  0  0  0999 V2000
    0.9284    1.3688   -0.3086 C   0  0  0  0  0  0  0  0  0  0  0  0
   -0.5078    1.5053    0.1422 C   0  0  0  0  0  0  0  0  0  0  0  0
   -1.2661    0.3387   -0.4215 C   0  0  0  0  0  0  0  0  0  0  0  0
   -2.6925    0.6422   -0.0814 N   0  0  0  0  0  0  0  0  0  0  0  0
   -3.8270    0.8140   -0.8277 C   0  0  0  0  0  0  0  0  0  0  0  0
   -4.8360    1.3754   -0.3400 O   0  0  0  0  0  0  0  0  0  0  0  0
   -3.8445    0.2963   -2.1440 C   0  0  0  0  0  0  0  0  0  0  0  0
   -4.5274    0.9575   -3.0875 N   0  0  0  0  0  0  0  0  0  0  0  0
   -4.1306    0.3928   -4.2118 N   0  0  0  0  0  0  0  0  0  0  0  0
   -3.2179   -0.6203   -4.0000 C   0  0  0  0  0  0  0  0  0  0  0  0
   -3.1733   -0.8508   -2.6243 C   0  0  0  0  0  0  0  0  0  0  0  0
   -2.5524   -1.9307   -1.9403 N   0  0  0  0  0  0  0  0  0  0  0  0
   -2.5797   -2.4729   -0.5383 C   0  0  0  0  0  0  0  0  0  0  0  0
   -1.9559   -3.5352   -0.3876 O   0  0  0  0  0  0  0  0  0  0  0  0
   -3.2372   -1.7987    0.7753 C   0  0  0  0  0  0  0  0  0  0  0  0
   -2.6961   -1.0987    2.0118 C   0  0  0  0  0  0  0  0  0  0  0  0
   -3.4565   -0.0929    2.6692 C   0  0  0  0  0  0  0  0  0  0  0  0
   -4.7570    0.1221    2.2920 C   0  0  0  0  0  0  0  0  0  0  0  0
   -5.3374   -0.7140    1.3342 C   0  0  0  0  0  0  0  0  0  0  0  0
   -4.6082   -1.6521    0.5792 C   0  0  0  0  0  0  0  0  0  0  0  0
   -0.4804   -0.9875   -0.0790 C   0  0  0  0  0  0  0  0  0  0  0  0
    1.5840    0.1681    0.2073 N   0  0  0  0  0  0  0  0  0  0  0  0
    0.9817   -1.0115   -0.3493 C   0  0  0  0  0  0  0  0  0  0  0  0
   -5.4598   -2.3720   -0.7553 Cl  0  0  0  0  0  0  0  0  0  0  0  0
   -1.1236   -1.0126    2.8595 Cl  0  0  0  0  0  0  0  0  0  0  0  0
    0.9343    1.3414   -1.4052 H   0  0  0  0  0  0  0  0  0  0  0  0
    1.4715    2.2434    0.0319 H   0  0  0  0  0  0  0  0  0  0  0  0
   -0.9635    2.4220   -0.2535 H   0  0  0  0  0  0  0  0  0  0  0  0
   -0.6118    1.5571    1.2354 H   0  0  0  0  0  0  0  0  0  0  0  0
   -1.2233    0.3744   -1.5066 H   0  0  0  0  0  0  0  0  0  0  0  0
   -2.8753    1.0422    0.8256 H   0  0  0  0  0  0  0  0  0  0  0  0
   -4.5182    0.7830   -5.0676 H   0  0  0  0  0  0  0  0  0  0  0  0
   -2.7847   -1.0852   -4.8728 H   0  0  0  0  0  0  0  0  0  0  0  0
   -1.9253   -2.4572   -2.5556 H   0  0  0  0  0  0  0  0  0  0  0  0
   -2.9745    0.6662    3.3065 H   0  0  0  0  0  0  0  0  0  0  0  0
   -5.2644    1.0330    2.6041 H   0  0  0  0  0  0  0  0  0  0  0  0
   -6.3254   -0.4392    0.9770 H   0  0  0  0  0  0  0  0  0  0  0  0
   -0.6142   -1.5197    0.8421 H   0  0  0  0  0  0  0  0  0  0  0  0
   -0.7081   -1.7461   -0.7886 H   0  0  0  0  0  0  0  0  0  0  0  0
    2.5612    0.1554   -0.0720 H   0  0  0  0  0  0  0  0  0  0  0  0
    1.4026   -1.9396    0.0706 H   0  0  0  0  0  0  0  0  0  0  0  0
    1.0850   -1.0871   -1.4375 H   0  0  0  0  0  0  0  0  0  0  0  0
  1  2  1  0  0  0  0
  1 22  1  0  0  0  0
  1 26  1  0  0  0  0
  1 27  1  0  0  0  0
  2  3  1  0  0  0  0
  2 28  1  0  0  0  0
  2 29  1  0  0  0  0
  3  4  1  0  0  0  0
  3 21  1  0  0  0  0
  3 30  1  0  0  0  0
  4  5  1  0  0  0  0
  4 31  1  0  0  0  0
  5  6  2  0  0  0  0
  5  7  1  0  0  0  0
  7  8  2  0  0  0  0
  7 11  1  0  0  0  0
  8  9  1  0  0  0  0
  9 10  1  0  0  0  0
  9 32  1  0  0  0  0
 10 11  2  0  0  0  0
 10 33  1  0  0  0  0
 11 12  1  0  0  0  0
 12 13  1  0  0  0  0
 12 34  1  0  0  0  0
 13 14  2  0  0  0  0
 13 15  1  0  0  0  0
 15 16  1  0  0  0  0
 15 20  2  0  0  0  0
 16 17  2  0  0  0  0
 16 25  1  0  0  0  0
 17 18  1  0  0  0  0
 17 35  1  0  0  0  0
 18 19  2  0  0  0  0
 18 36  1  0  0  0  0
 19 20  1  0  0  0  0
 19 37  1  0  0  0  0
 20 24  1  0  0  0  0
 21 23  1  0  0  0  0
 21 38  1  0  0  0  0
 21 39  1  0  0  0  0
 22 23  1  0  0  0  0
 22 40  1  0  0  0  0
 23 41  1  0  0  0  0
 23 42  1  0  0  0  0
M  END
>  <DRUGBANK_ID>
DB08142

>  <SECONDARY_ACCESSION_NUMBERS>
DB05037

>  <COMMON_NAME>
AT-7519

>  <CAS_NUMBER>
844442-38-2

>  <UNII>
X1BF92PW9T

>  <SYNONYMS>
4-{[(2,6-dichlorophenyl)carbonyl]amino}-N-piperidin-4-yl-1H-pyrazole-3-carboxamide

$$$$
