DD1
 OpenBabel10282417163D

 52 55  0  0  0  0  0  0  0  0999 V2000
    2.1597    0.0405    0.0045 F   0  0  0  0  0  0  0  0  0  0  0  0
    0.8204    0.0511   -0.0644 C   0  0  0  0  0  0  0  0  0  0  0  0
    0.1538    1.2720   -0.0121 C   0  0  0  0  0  0  0  0  0  0  0  0
   -1.2419    1.3092   -0.0058 C   0  0  0  0  0  0  0  0  0  0  0  0
   -1.9665    0.1315   -0.1030 C   0  0  0  0  0  0  0  0  0  0  0  0
   -1.2891   -1.0669   -0.2676 C   0  0  0  0  0  0  0  0  0  0  0  0
    0.1113   -1.1417   -0.1830 C   0  0  0  0  0  0  0  0  0  0  0  0
    0.8198   -2.4758   -0.1537 C   0  0  0  0  0  0  0  0  0  0  0  0
    0.4622   -3.3399    0.9782 N   0  0  0  0  0  0  0  0  0  0  0  0
    0.9032   -2.6973    2.1854 C   0  0  0  0  0  0  0  0  0  0  0  0
    0.6947   -3.7131    3.2608 C   0  0  0  0  0  0  0  0  0  0  0  0
   -0.7879   -3.9986    3.5584 C   0  0  0  0  0  0  0  0  0  0  0  0
   -1.3145   -4.6038    2.2513 C   0  0  0  0  0  0  0  0  0  0  0  0
   -0.9638   -3.6651    1.1019 C   0  0  0  0  0  0  0  0  0  0  0  0
   -1.0383   -4.9590    4.7347 C   0  0  0  0  0  0  0  0  0  0  0  0
   -0.8768   -4.4294    6.0739 O   0  0  0  0  0  0  0  0  0  0  0  0
    0.3743   -4.0166    6.4364 C   0  0  0  0  0  0  0  0  0  0  0  0
    1.0855   -4.5284    7.5268 C   0  0  0  0  0  0  0  0  0  0  0  0
    0.6062   -5.5270    8.3530 C   0  0  0  0  0  0  0  0  0  0  0  0
   -0.4890   -6.3060    7.9727 N   0  0  0  0  0  0  0  0  0  0  0  0
    1.2518   -5.8500    9.4861 N   0  0  0  0  0  0  0  0  0  0  0  0
    2.3735   -5.1704    9.7566 C   0  0  0  0  0  0  0  0  0  0  0  0
    3.0465   -5.4865   10.9069 N   0  0  0  0  0  0  0  0  0  0  0  0
    2.9388   -4.2288    9.0199 N   0  0  0  0  0  0  0  0  0  0  0  0
    2.2998   -3.9240    7.8922 C   0  0  0  0  0  0  0  0  0  0  0  0
    2.9005   -3.0009    7.0696 C   0  0  0  0  0  0  0  0  0  0  0  0
    2.2452   -2.6204    5.9308 C   0  0  0  0  0  0  0  0  0  0  0  0
    0.8819   -2.8661    5.8995 C   0  0  0  0  0  0  0  0  0  0  0  0
    0.7287    2.1899    0.0316 H   0  0  0  0  0  0  0  0  0  0  0  0
   -1.7694    2.2549    0.0566 H   0  0  0  0  0  0  0  0  0  0  0  0
   -3.0525    0.1272   -0.0648 H   0  0  0  0  0  0  0  0  0  0  0  0
   -1.8895   -1.9603   -0.4064 H   0  0  0  0  0  0  0  0  0  0  0  0
    0.6426   -3.0237   -1.0802 H   0  0  0  0  0  0  0  0  0  0  0  0
    1.9107   -2.3199   -0.1156 H   0  0  0  0  0  0  0  0  0  0  0  0
    0.3502   -1.7740    2.4323 H   0  0  0  0  0  0  0  0  0  0  0  0
    1.9662   -2.4129    2.1686 H   0  0  0  0  0  0  0  0  0  0  0  0
    1.2346   -3.1608    3.9683 H   0  0  0  0  0  0  0  0  0  0  0  0
    1.2751   -4.6339    3.1764 H   0  0  0  0  0  0  0  0  0  0  0  0
   -1.3348   -3.0638    3.7667 H   0  0  0  0  0  0  0  0  0  0  0  0
   -0.8760   -5.5916    2.0807 H   0  0  0  0  0  0  0  0  0  0  0  0
   -2.4052   -4.7169    2.2882 H   0  0  0  0  0  0  0  0  0  0  0  0
   -1.3228   -4.0840    0.1616 H   0  0  0  0  0  0  0  0  0  0  0  0
   -1.5303   -2.7672    1.3629 H   0  0  0  0  0  0  0  0  0  0  0  0
   -2.1014   -5.2482    4.6939 H   0  0  0  0  0  0  0  0  0  0  0  0
   -0.4802   -5.8940    4.6103 H   0  0  0  0  0  0  0  0  0  0  0  0
   -1.1237   -5.8412    7.3261 H   0  0  0  0  0  0  0  0  0  0  0  0
   -0.9054   -6.8560    8.7071 H   0  0  0  0  0  0  0  0  0  0  0  0
    3.9070   -5.0018   11.0810 H   0  0  0  0  0  0  0  0  0  0  0  0
    2.6649   -6.2187   11.4691 H   0  0  0  0  0  0  0  0  0  0  0  0
    3.8374   -2.5105    7.3051 H   0  0  0  0  0  0  0  0  0  0  0  0
    2.7662   -2.1066    5.1269 H   0  0  0  0  0  0  0  0  0  0  0  0
    0.2335   -2.2829    5.2542 H   0  0  0  0  0  0  0  0  0  0  0  0
  1  2  1  0  0  0  0
  2  3  2  0  0  0  0
  2  7  1  0  0  0  0
  3  4  1  0  0  0  0
  3 29  1  0  0  0  0
  4  5  2  0  0  0  0
  4 30  1  0  0  0  0
  5  6  1  0  0  0  0
  5 31  1  0  0  0  0
  6  7  2  0  0  0  0
  6 32  1  0  0  0  0
  7  8  1  0  0  0  0
  8  9  1  0  0  0  0
  8 33  1  0  0  0  0
  8 34  1  0  0  0  0
  9 10  1  0  0  0  0
  9 14  1  0  0  0  0
 10 11  1  0  0  0  0
 10 35  1  0  0  0  0
 10 36  1  0  0  0  0
 11 12  1  0  0  0  0
 11 37  1  0  0  0  0
 11 38  1  0  0  0  0
 12 13  1  0  0  0  0
 12 15  1  0  0  0  0
 12 39  1  0  0  0  0
 13 14  1  0  0  0  0
 13 40  1  0  0  0  0
 13 41  1  0  0  0  0
 14 42  1  0  0  0  0
 14 43  1  0  0  0  0
 15 16  1  0  0  0  0
 15 44  1  0  0  0  0
 15 45  1  0  0  0  0
 16 17  1  0  0  0  0
 17 18  2  0  0  0  0
 17 28  1  0  0  0  0
 18 19  1  0  0  0  0
 18 25  1  0  0  0  0
 19 20  1  0  0  0  0
 19 21  2  0  0  0  0
 20 46  1  0  0  0  0
 20 47  1  0  0  0  0
 21 22  1  0  0  0  0
 22 23  1  0  0  0  0
 22 24  2  0  0  0  0
 23 48  1  0  0  0  0
 23 49  1  0  0  0  0
 24 25  1  0  0  0  0
 25 26  2  0  0  0  0
 26 27  1  0  0  0  0
 26 50  1  0  0  0  0
 27 28  2  0  0  0  0
 27 51  1  0  0  0  0
 28 52  1  0  0  0  0
M  END
>  <DRUGBANK_ID>
DB07642

>  <COMMON_NAME>
5-{[1-(2-fluorobenzyl)piperidin-4-yl]methoxy}quinazoline-2,4-diamine

$$$$
