
 OpenBabel10282417183D

 16 15  0  0  0  0  0  0  0  0999 V2000
   -0.7296   -3.0387   -2.9056 C   0  0  0  0  0  0  0  0  0  0  0  0
    0.1238   -2.3200   -1.8592 C   0  0  1  0  0  0  0  0  0  0  0  0
    0.2918    0.2478   -1.2511 C   0  0  0  0  0  0  0  0  0  0  0  0
    0.5504   -0.8812   -2.2555 C   0  0  2  0  0  0  0  0  0  0  0  0
    0.1847   -0.1092    0.0374 O   0  0  0  0  0  0  0  0  0  0  0  0
   -1.4002   -4.0922   -2.3794 O   0  0  0  0  0  0  0  0  0  0  0  0
    0.1948    1.4356   -1.5347 O   0  0  0  0  0  0  0  0  0  0  0  0
   -0.9190   -2.7539   -4.0766 O   0  0  0  0  0  0  0  0  0  0  0  0
    0.0032   -0.4412   -3.5079 O   0  0  0  0  0  0  0  0  0  0  0  0
   -0.6472   -2.3818   -0.6500 O   0  0  0  0  0  0  0  0  0  0  0  0
    1.0292   -2.9165   -1.6829 H   0  0  0  0  0  0  0  0  0  0  0  0
    1.6355   -0.8947   -2.4247 H   0  0  0  0  0  0  0  0  0  0  0  0
   -0.1673    0.6867    0.4858 H   0  0  0  0  0  0  0  0  0  0  0  0
   -2.0158   -4.3339   -3.1061 H   0  0  0  0  0  0  0  0  0  0  0  0
   -0.9548   -0.6256   -3.5033 H   0  0  0  0  0  0  0  0  0  0  0  0
   -0.8089   -3.3287   -0.4745 H   0  0  0  0  0  0  0  0  0  0  0  0
  2 11  1  1  0  0  0
  2 10  1  0  0  0  0
  2  1  1  0  0  0  0
  4  9  1  0  0  0  0
  4 12  1  6  0  0  0
  4  3  1  0  0  0  0
  4  2  1  0  0  0  0
  5  3  1  0  0  0  0
  5 13  1  0  0  0  0
  6  1  1  0  0  0  0
  6 14  1  0  0  0  0
  7  3  2  0  0  0  0
  8  1  2  0  0  0  0
  9 15  1  0  0  0  0
 10 16  1  0  0  0  0
M  END
>  <DRUGBANK_ID>
DB09459

>  <COMMON_NAME>
L-tartaric acid

>  <CAS_NUMBER>
87-69-4

>  <UNII>
W4888I119H

>  <SYNONYMS>
(+)-(R,R)-tartaric acid; (+)-L-tartaric acid; (+)-Tartaric acid; (+)-Weinsäure; (2R,3R)-2,3-Dihydroxybernsteinsäure; (2R,3R)-2,3-dihydroxysuccinic acid; (2R,3R)-Tartaric acid; (R,R)-(+)-tartaric acid; (R,R)-Tartaric acid; ácido tartárico; L-threaric acid; Rechtsweinsäure; Tartaric acid; Weinsteinsäure

$$$$
