
 OpenBabel10282417233D

 52 57  0  0  0  0  0  0  0  0999 V2000
    0.3412    1.0227   -0.1648 C   0  0  0  0  0  0  0  0  0  0  0  0
   -1.0017    0.3214    0.1645 C   0  0  0  0  0  0  0  0  0  0  0  0
   -0.3127   -1.0050   -0.2434 C   0  0  0  0  0  0  0  0  0  0  0  0
    1.0170   -0.3322    0.1655 C   0  0  0  0  0  0  0  0  0  0  0  0
   -1.6624    0.5403    1.5544 C   0  0  0  0  0  0  0  0  0  0  0  0
   -2.0392    1.8376    1.9472 C   0  0  0  0  0  0  0  0  0  0  0  0
   -2.7766    2.0636    3.0995 C   0  0  0  0  0  0  0  0  0  0  0  0
   -3.1636    0.9952    3.9203 C   0  0  0  0  0  0  0  0  0  0  0  0
   -3.9580    1.2305    5.1341 C   0  0  0  0  0  0  0  0  0  0  0  0
   -3.3649    0.8208    6.2902 N   0  0  0  0  0  0  0  0  0  0  0  0
   -4.0159    1.0778    7.4464 C   0  0  0  0  0  0  0  0  0  0  0  0
   -3.3433    0.6549    8.6798 C   0  0  0  0  0  0  0  0  0  0  0  0
   -3.9337    0.8748    9.8634 C   0  0  0  0  0  0  0  0  0  0  0  0
   -5.1539    1.4908    9.9154 N   0  0  0  0  0  0  0  0  0  0  0  0
   -5.8547    1.9257    8.8276 C   0  0  0  0  0  0  0  0  0  0  0  0
   -5.2544    1.7157    7.5045 C   0  0  0  0  0  0  0  0  0  0  0  0
   -5.8602    2.1138    6.3197 C   0  0  0  0  0  0  0  0  0  0  0  0
   -5.2118    1.8714    5.0971 C   0  0  0  0  0  0  0  0  0  0  0  0
   -5.8497    2.2642    3.8346 C   0  0  0  0  0  0  0  0  0  0  0  0
   -6.1598    1.3036    2.8559 C   0  0  0  0  0  0  0  0  0  0  0  0
   -6.7552    1.6763    1.6537 C   0  0  0  0  0  0  0  0  0  0  0  0
   -7.0775    3.0115    1.4290 C   0  0  0  0  0  0  0  0  0  0  0  0
   -6.7876    3.9744    2.3943 C   0  0  0  0  0  0  0  0  0  0  0  0
   -6.1325    3.6105    3.5688 C   0  0  0  0  0  0  0  0  0  0  0  0
   -6.9973    2.4873    9.1047 N   0  0  0  0  0  0  0  0  0  0  0  0
   -7.0620    2.4206   10.4808 N   0  0  0  0  0  0  0  0  0  0  0  0
   -5.9242    1.8046   11.0077 C   0  0  0  0  0  0  0  0  0  0  0  0
   -5.6964    1.6041   12.1960 O   0  0  0  0  0  0  0  0  0  0  0  0
   -2.8121   -0.3022    3.5320 C   0  0  0  0  0  0  0  0  0  0  0  0
   -2.0298   -0.5168    2.3999 C   0  0  0  0  0  0  0  0  0  0  0  0
   -2.0093    0.6396   -0.8509 N   0  0  0  0  0  0  0  0  0  0  0  0
    0.4737    1.3507   -1.2024 H   0  0  0  0  0  0  0  0  0  0  0  0
    0.6350    1.8434    0.4980 H   0  0  0  0  0  0  0  0  0  0  0  0
   -0.5762   -1.9036    0.3198 H   0  0  0  0  0  0  0  0  0  0  0  0
   -0.3678   -1.2549   -1.3109 H   0  0  0  0  0  0  0  0  0  0  0  0
    1.8943   -0.6028   -0.4252 H   0  0  0  0  0  0  0  0  0  0  0  0
    1.2598   -0.4490    1.2296 H   0  0  0  0  0  0  0  0  0  0  0  0
   -1.7891    2.6819    1.3048 H   0  0  0  0  0  0  0  0  0  0  0  0
   -3.0913    3.0818    3.3146 H   0  0  0  0  0  0  0  0  0  0  0  0
   -2.3763    0.1756    8.5889 H   0  0  0  0  0  0  0  0  0  0  0  0
   -3.4845    0.5841   10.8080 H   0  0  0  0  0  0  0  0  0  0  0  0
   -6.8330    2.5990    6.3372 H   0  0  0  0  0  0  0  0  0  0  0  0
   -5.9133    0.2551    3.0163 H   0  0  0  0  0  0  0  0  0  0  0  0
   -6.9766    0.9219    0.9038 H   0  0  0  0  0  0  0  0  0  0  0  0
   -7.5515    3.3044    0.4968 H   0  0  0  0  0  0  0  0  0  0  0  0
   -7.0749    5.0098    2.2358 H   0  0  0  0  0  0  0  0  0  0  0  0
   -5.8272    4.3842    4.2711 H   0  0  0  0  0  0  0  0  0  0  0  0
   -7.8435    2.7775   11.0150 H   0  0  0  0  0  0  0  0  0  0  0  0
   -3.1818   -1.1620    4.0854 H   0  0  0  0  0  0  0  0  0  0  0  0
   -1.7367   -1.5341    2.1531 H   0  0  0  0  0  0  0  0  0  0  0  0
   -2.7997   -0.0062   -0.7837 H   0  0  0  0  0  0  0  0  0  0  0  0
   -2.4514    1.5430   -0.6643 H   0  0  0  0  0  0  0  0  0  0  0  0
  1  4  1  0  0  0  0
  1 32  1  0  0  0  0
  1 33  1  0  0  0  0
  2  1  1  0  0  0  0
  2  3  1  0  0  0  0
  2 31  1  0  0  0  0
  3 34  1  0  0  0  0
  3 35  1  0  0  0  0
  4  3  1  0  0  0  0
  4 36  1  0  0  0  0
  4 37  1  0  0  0  0
  5  2  1  0  0  0  0
  5 30  2  0  0  0  0
  6  5  1  0  0  0  0
  6 38  1  0  0  0  0
  7  6  2  0  0  0  0
  7 39  1  0  0  0  0
  8  7  1  0  0  0  0
  8 29  2  0  0  0  0
  9  8  1  0  0  0  0
  9 18  1  0  0  0  0
 10  9  2  0  0  0  0
 10 11  1  0  0  0  0
 12 11  1  0  0  0  0
 12 40  1  0  0  0  0
 13 12  2  0  0  0  0
 13 41  1  0  0  0  0
 14 13  1  0  0  0  0
 14 27  1  0  0  0  0
 15 14  1  0  0  0  0
 15 25  2  0  0  0  0
 16 15  1  0  0  0  0
 16 11  2  0  0  0  0
 17 16  1  0  0  0  0
 17 42  1  0  0  0  0
 18 17  2  0  0  0  0
 18 19  1  0  0  0  0
 19 20  1  0  0  0  0
 19 24  2  0  0  0  0
 20 21  2  0  0  0  0
 20 43  1  0  0  0  0
 21 22  1  0  0  0  0
 21 44  1  0  0  0  0
 22 23  2  0  0  0  0
 22 45  1  0  0  0  0
 23 24  1  0  0  0  0
 23 46  1  0  0  0  0
 24 47  1  0  0  0  0
 26 25  1  0  0  0  0
 26 27  1  0  0  0  0
 26 48  1  0  0  0  0
 27 28  2  0  0  0  0
 29 49  1  0  0  0  0
 30 29  1  0  0  0  0
 30 50  1  0  0  0  0
 31 51  1  0  0  0  0
 31 52  1  0  0  0  0
M  END
>  <DRUGBANK_ID>
DB16828

>  <COMMON_NAME>
MK-2206

>  <CAS_NUMBER>
1032349-93-1

>  <UNII>
51HZG6MP1K

>  <SYNONYMS>
1,2,4-Triazolo(3,4-f)(1,6)naphthyridin-3(2H)-one, 8-(4-(1-aminocyclobutyl)phenyl)-9-phenyl-; 8-(4-(1-aminocyclobutyl)phenyl)-9-phenyl-[1,2,4]triazolo[3,4-f][1,6]naphthyridin-3(2H)-one; MK-2206 free base

$$$$
