IQS
 OpenBabel10282417173D

 33 34  0  0  0  0  0  0  0  0999 V2000
   -1.2938    1.3962   -0.0780 C   0  0  0  0  0  0  0  0  0  0  0  0
   -2.4698    0.6347   -0.1417 C   0  0  0  0  0  0  0  0  0  0  0  0
   -2.4279   -0.7528   -0.0476 C   0  0  0  0  0  0  0  0  0  0  0  0
   -1.2005   -1.3991    0.0127 C   0  0  0  0  0  0  0  0  0  0  0  0
   -0.0063   -0.6580    0.0063 C   0  0  0  0  0  0  0  0  0  0  0  0
    1.2392   -1.2881    0.0053 C   0  0  0  0  0  0  0  0  0  0  0  0
    2.4274   -0.6446    0.0055 N   0  0  0  0  0  0  0  0  0  0  0  0
    2.3808    0.6991    0.0117 C   0  0  0  0  0  0  0  0  0  0  0  0
    1.2059    1.4275    0.0060 C   0  0  0  0  0  0  0  0  0  0  0  0
   -0.0327    0.7564   -0.0112 C   0  0  0  0  0  0  0  0  0  0  0  0
   -1.3629    3.1779   -0.0755 S   0  0  0  0  0  0  0  0  0  0  0  0
   -0.6851    3.6621    1.1011 O   0  0  0  0  0  0  0  0  0  0  0  0
   -0.9383    3.6292   -1.3874 O   0  0  0  0  0  0  0  0  0  0  0  0
   -2.9935    3.6015    0.0597 N   0  0  0  0  0  0  0  0  0  0  0  0
   -3.7725    3.2078    1.2597 C   0  0  0  0  0  0  0  0  0  0  0  0
   -3.1928    3.7520    2.5545 C   0  0  0  0  0  0  0  0  0  0  0  0
   -3.1782    5.2154    2.5101 N   0  0  0  0  0  0  0  0  0  0  0  0
   -2.5052    5.7125    3.6999 C   0  0  0  0  0  0  0  0  0  0  0  0
   -3.4414    1.0942   -0.2817 H   0  0  0  0  0  0  0  0  0  0  0  0
   -3.3518   -1.3270   -0.0478 H   0  0  0  0  0  0  0  0  0  0  0  0
   -1.1808   -2.4873    0.0398 H   0  0  0  0  0  0  0  0  0  0  0  0
    1.3216   -2.3721   -0.0085 H   0  0  0  0  0  0  0  0  0  0  0  0
    3.3398    1.2077    0.0133 H   0  0  0  0  0  0  0  0  0  0  0  0
    1.2838    2.5099   -0.0015 H   0  0  0  0  0  0  0  0  0  0  0  0
   -3.1055    4.5908   -0.1770 H   0  0  0  0  0  0  0  0  0  0  0  0
   -4.7998    3.5658    1.1180 H   0  0  0  0  0  0  0  0  0  0  0  0
   -3.8510    2.1273    1.3535 H   0  0  0  0  0  0  0  0  0  0  0  0
   -3.7965    3.3864    3.3909 H   0  0  0  0  0  0  0  0  0  0  0  0
   -2.1919    3.3444    2.7198 H   0  0  0  0  0  0  0  0  0  0  0  0
   -2.6294    5.5147    1.7029 H   0  0  0  0  0  0  0  0  0  0  0  0
   -1.4554    5.4014    3.7100 H   0  0  0  0  0  0  0  0  0  0  0  0
   -2.5428    6.8037    3.7033 H   0  0  0  0  0  0  0  0  0  0  0  0
   -3.0002    5.3471    4.6041 H   0  0  0  0  0  0  0  0  0  0  0  0
  1  2  2  0  0  0  0
  1 10  1  0  0  0  0
  1 11  1  0  0  0  0
  2  3  1  0  0  0  0
  2 19  1  0  0  0  0
  3  4  2  0  0  0  0
  3 20  1  0  0  0  0
  4  5  1  0  0  0  0
  4 21  1  0  0  0  0
  5  6  1  0  0  0  0
  5 10  2  0  0  0  0
  6  7  2  0  0  0  0
  6 22  1  0  0  0  0
  7  8  1  0  0  0  0
  8  9  2  0  0  0  0
  8 23  1  0  0  0  0
  9 10  1  0  0  0  0
  9 24  1  0  0  0  0
 11 12  2  0  0  0  0
 11 13  2  0  0  0  0
 11 14  1  0  0  0  0
 14 15  1  0  0  0  0
 14 25  1  0  0  0  0
 15 16  1  0  0  0  0
 15 26  1  0  0  0  0
 15 27  1  0  0  0  0
 16 17  1  0  0  0  0
 16 28  1  0  0  0  0
 16 29  1  0  0  0  0
 17 18  1  0  0  0  0
 17 30  1  0  0  0  0
 18 31  1  0  0  0  0
 18 32  1  0  0  0  0
 18 33  1  0  0  0  0
M  END
>  <DRUGBANK_ID>
DB07997

>  <COMMON_NAME>
N-[2-(METHYLAMINO)ETHYL]-5-ISOQUINOLINESULFONAMIDE

>  <UNII>
TX277E49WT

$$$$
