
 OpenBabel10282417183D

 52 56  0  0  1  0  0  0  0  0999 V2000
    2.6674   -1.5168   -0.0210 C   0  0  0  0  0  0  0  0  0  0  0  0
    1.2700   -1.5730   -0.0858 C   0  0  0  0  0  0  0  0  0  0  0  0
    0.5166   -0.3970   -0.0928 C   0  0  0  0  0  0  0  0  0  0  0  0
    1.1564    0.8661   -0.0447 C   0  0  0  0  0  0  0  0  0  0  0  0
    2.5695    0.9045    0.0466 C   0  0  0  0  0  0  0  0  0  0  0  0
    3.3289   -0.2831    0.0577 C   0  0  0  0  0  0  0  0  0  0  0  0
    4.8215   -0.2961    0.1447 C   0  0  0  0  0  0  0  0  0  0  0  0
    5.5239   -1.2914    0.1440 O   0  0  0  0  0  0  0  0  0  0  0  0
    5.3606    0.9356    0.2251 O   0  0  0  0  0  0  0  0  0  0  0  0
    0.3546    2.1599   -0.0775 C   0  0  0  0  0  0  0  0  0  0  0  0
   -1.1128    1.9010    0.2449 C   0  0  0  0  0  0  0  0  0  0  0  0
   -1.7441    0.7349   -0.5117 C   0  0  1  0  0  0  0  0  0  0  0  0
   -0.9675   -0.4881   -0.1060 C   0  0  0  0  0  0  0  0  0  0  0  0
   -1.6690   -1.5224    0.2660 N   0  0  0  0  0  0  0  0  0  0  0  0
   -2.9849   -1.1722    0.1628 N   0  0  0  0  0  0  0  0  0  0  0  0
   -3.1822    0.2647   -0.1282 C   0  0  1  0  0  0  0  0  0  0  0  0
   -3.8143    1.0658    1.0416 C   0  0  0  0  0  0  0  0  0  0  0  0
   -3.0279    1.0817    2.3572 C   0  0  0  0  0  0  0  0  0  0  0  0
   -3.9946    1.4738    3.4454 C   0  0  0  0  0  0  0  0  0  0  0  0
   -5.3814    1.2800    2.8681 C   0  0  0  0  0  0  0  0  0  0  0  0
   -5.1844    0.5995    1.5259 C   0  0  0  0  0  0  0  0  0  0  0  0
   -4.0250   -2.0603    0.4721 C   0  0  0  0  0  0  0  0  0  0  0  0
   -5.0699   -2.2903   -0.4385 C   0  0  0  0  0  0  0  0  0  0  0  0
   -6.1991   -3.0583   -0.0957 C   0  0  0  0  0  0  0  0  0  0  0  0
   -6.3998   -3.4706    1.2258 C   0  0  0  0  0  0  0  0  0  0  0  0
   -5.3809   -3.2345    2.1535 C   0  0  0  0  0  0  0  0  0  0  0  0
   -4.1700   -2.6238    1.7563 C   0  0  0  0  0  0  0  0  0  0  0  0
   -5.6100   -3.5865    3.8357 Cl  0  0  0  0  0  0  0  0  0  0  0  0
   -7.6401   -4.0885    1.6013 C   0  0  0  0  0  0  0  0  0  0  0  0
   -8.6563   -4.5754    1.9034 N   0  0  0  0  0  0  0  0  0  0  0  0
    3.2343   -2.4473   -0.0258 H   0  0  0  0  0  0  0  0  0  0  0  0
    0.7718   -2.5388   -0.1372 H   0  0  0  0  0  0  0  0  0  0  0  0
    3.0850    1.8612    0.1199 H   0  0  0  0  0  0  0  0  0  0  0  0
    6.3310    0.7884    0.2753 H   0  0  0  0  0  0  0  0  0  0  0  0
    0.4493    2.6705   -1.0388 H   0  0  0  0  0  0  0  0  0  0  0  0
    0.7341    2.8452    0.6979 H   0  0  0  0  0  0  0  0  0  0  0  0
   -1.7291    2.8054    0.1826 H   0  0  0  0  0  0  0  0  0  0  0  0
   -1.0122    1.6081    1.2825 H   0  0  0  0  0  0  0  0  0  0  0  0
   -1.6726    0.8950   -1.5947 H   0  0  0  0  0  0  0  0  0  0  0  0
   -3.8265    0.3621   -1.0145 H   0  0  0  0  0  0  0  0  0  0  0  0
   -3.9337    2.0989    0.6830 H   0  0  0  0  0  0  0  0  0  0  0  0
   -2.5496    0.1160    2.5534 H   0  0  0  0  0  0  0  0  0  0  0  0
   -2.2800    1.8652    2.4201 H   0  0  0  0  0  0  0  0  0  0  0  0
   -3.7929    0.8879    4.3461 H   0  0  0  0  0  0  0  0  0  0  0  0
   -3.8388    2.5295    3.6979 H   0  0  0  0  0  0  0  0  0  0  0  0
   -5.9900    0.6676    3.5387 H   0  0  0  0  0  0  0  0  0  0  0  0
   -5.8707    2.2457    2.7265 H   0  0  0  0  0  0  0  0  0  0  0  0
   -5.9878    0.7812    0.8088 H   0  0  0  0  0  0  0  0  0  0  0  0
   -5.2006   -0.4534    1.7569 H   0  0  0  0  0  0  0  0  0  0  0  0
   -5.0122   -1.8612   -1.4362 H   0  0  0  0  0  0  0  0  0  0  0  0
   -6.9280   -3.3064   -0.8659 H   0  0  0  0  0  0  0  0  0  0  0  0
   -3.3940   -2.4576    2.4992 H   0  0  0  0  0  0  0  0  0  0  0  0
  1  2  2  0  0  0  0
  1  6  1  0  0  0  0
  1 31  1  0  0  0  0
  2  3  1  0  0  0  0
  2 32  1  0  0  0  0
  3  4  2  0  0  0  0
  3 13  1  0  0  0  0
  4  5  1  0  0  0  0
  4 10  1  0  0  0  0
  5  6  2  0  0  0  0
  5 33  1  0  0  0  0
  6  7  1  0  0  0  0
  7  8  2  0  0  0  0
  7  9  1  0  0  0  0
  9 34  1  0  0  0  0
 10 11  1  0  0  0  0
 10 35  1  0  0  0  0
 10 36  1  0  0  0  0
 11 12  1  0  0  0  0
 11 37  1  0  0  0  0
 11 38  1  0  0  0  0
 12 13  1  0  0  0  0
 12 16  1  0  0  0  0
 12 39  1  6  0  0  0
 13 14  2  0  0  0  0
 14 15  1  0  0  0  0
 15 16  1  0  0  0  0
 15 22  1  0  0  0  0
 16 40  1  6  0  0  0
 16 17  1  0  0  0  0
 17 18  1  0  0  0  0
 17 21  1  0  0  0  0
 17 41  1  0  0  0  0
 18 19  1  0  0  0  0
 18 42  1  0  0  0  0
 18 43  1  0  0  0  0
 19 20  1  0  0  0  0
 19 44  1  0  0  0  0
 19 45  1  0  0  0  0
 20 21  1  0  0  0  0
 20 46  1  0  0  0  0
 20 47  1  0  0  0  0
 21 48  1  0  0  0  0
 21 49  1  0  0  0  0
 22 23  2  0  0  0  0
 22 27  1  0  0  0  0
 23 24  1  0  0  0  0
 23 50  1  0  0  0  0
 24 25  2  0  0  0  0
 24 51  1  0  0  0  0
 25 26  1  0  0  0  0
 25 29  1  0  0  0  0
 26 27  2  0  0  0  0
 26 28  1  0  0  0  0
 27 52  1  0  0  0  0
 29 30  3  0  0  0  0
M  END
>  <DRUGBANK_ID>
DB11814

>  <COMMON_NAME>
PF-03882845

>  <CAS_NUMBER>
1023650-66-9

>  <UNII>
34ZKU73FU3

$$$$
