
 OpenBabel10282417243D

 58 59  0  0  1  0  0  0  0  0999 V2000
   -8.7431   -2.9816    6.4249 C   0  0  0  0  0  0  0  0  0  0  0  0
   -8.9849   -1.6063    6.0228 N   0  0  0  0  0  0  0  0  0  0  0  0
   -8.8098   -0.6956    7.1652 C   0  0  0  0  0  0  0  0  0  0  0  0
   -9.2279    0.7082    6.7260 C   0  0  0  0  0  0  0  0  0  0  0  0
   -8.3997    1.1780    5.6170 N   0  0  0  0  0  0  0  0  0  0  0  0
   -8.3314    0.2638    4.4803 C   0  0  0  0  0  0  0  0  0  0  0  0
   -8.0693   -1.1923    4.9360 C   0  0  0  0  0  0  0  0  0  0  0  0
   -7.7454    2.3929    5.5754 C   0  0  0  0  0  0  0  0  0  0  0  0
   -7.1803    2.8284    4.5788 O   0  0  0  0  0  0  0  0  0  0  0  0
   -7.7127    3.1929    6.8801 C   0  0  1  0  0  0  0  0  0  0  0  0
   -9.0697    3.7480    7.1591 N   0  0  0  0  0  0  0  0  0  0  0  0
   -7.0480    2.4541    8.0885 C   0  0  0  0  0  0  0  0  0  0  0  0
   -5.4725    1.4126    8.0631 S   0  0  0  0  0  0  0  0  0  0  0  0
   -5.2873    0.5893    6.1952 S   0  0  0  0  0  0  0  0  0  0  0  0
   -3.5226    0.5123    5.7310 C   0  0  0  0  0  0  0  0  0  0  0  0
   -2.8620    1.8393    5.3523 C   0  0  2  0  0  0  0  0  0  0  0  0
   -1.5527    1.5538    4.6925 N   0  0  0  0  0  0  0  0  0  0  0  0
   -2.6021    2.6580    6.6342 C   0  0  0  0  0  0  0  0  0  0  0  0
   -1.8184    2.2287    7.4843 O   0  0  0  0  0  0  0  0  0  0  0  0
   -3.2179    3.9096    6.7693 N   0  0  0  0  0  0  0  0  0  0  0  0
   -4.5760    4.1196    6.2865 C   0  0  0  0  0  0  0  0  0  0  0  0
   -5.0980    5.5592    6.3642 C   0  0  0  0  0  0  0  0  0  0  0  0
   -4.9287    6.1674    7.7038 N   0  0  0  0  0  0  0  0  0  0  0  0
   -5.7915    5.5972    8.7416 C   0  0  0  0  0  0  0  0  0  0  0  0
   -3.5122    6.0113    8.1017 C   0  0  0  0  0  0  0  0  0  0  0  0
   -2.9630    4.5710    8.0477 C   0  0  0  0  0  0  0  0  0  0  0  0
   -8.9186   -3.6507    5.5778 H   0  0  0  0  0  0  0  0  0  0  0  0
   -7.7251   -3.1359    6.7971 H   0  0  0  0  0  0  0  0  0  0  0  0
   -9.4500   -3.2693    7.2107 H   0  0  0  0  0  0  0  0  0  0  0  0
   -9.4329   -0.9926    8.0149 H   0  0  0  0  0  0  0  0  0  0  0  0
   -7.7683   -0.7086    7.5185 H   0  0  0  0  0  0  0  0  0  0  0  0
  -10.2645    0.7348    6.3852 H   0  0  0  0  0  0  0  0  0  0  0  0
   -9.2210    1.3597    7.5893 H   0  0  0  0  0  0  0  0  0  0  0  0
   -9.2999    0.3287    3.9756 H   0  0  0  0  0  0  0  0  0  0  0  0
   -7.5589    0.5759    3.7684 H   0  0  0  0  0  0  0  0  0  0  0  0
   -7.0339   -1.2988    5.2769 H   0  0  0  0  0  0  0  0  0  0  0  0
   -8.1782   -1.8526    4.0707 H   0  0  0  0  0  0  0  0  0  0  0  0
   -7.1503    4.0844    6.6473 H   0  0  0  0  0  0  0  0  0  0  0  0
   -9.0115    4.4584    7.8863 H   0  0  0  0  0  0  0  0  0  0  0  0
   -9.3866    4.2459    6.3195 H   0  0  0  0  0  0  0  0  0  0  0  0
   -6.9238    3.1920    8.8846 H   0  0  0  0  0  0  0  0  0  0  0  0
   -7.7292    1.7571    8.5583 H   0  0  0  0  0  0  0  0  0  0  0  0
   -2.9924   -0.0161    6.5282 H   0  0  0  0  0  0  0  0  0  0  0  0
   -3.5013   -0.1473    4.8521 H   0  0  0  0  0  0  0  0  0  0  0  0
   -3.4505    2.3853    4.6146 H   0  0  0  0  0  0  0  0  0  0  0  0
   -0.8049    1.8769    5.3150 H   0  0  0  0  0  0  0  0  0  0  0  0
   -1.4708    2.1193    3.8490 H   0  0  0  0  0  0  0  0  0  0  0  0
   -4.7861    3.6470    5.3287 H   0  0  0  0  0  0  0  0  0  0  0  0
   -5.1616    3.5914    7.0118 H   0  0  0  0  0  0  0  0  0  0  0  0
   -4.5867    6.1561    5.6038 H   0  0  0  0  0  0  0  0  0  0  0  0
   -6.1541    5.6105    6.0783 H   0  0  0  0  0  0  0  0  0  0  0  0
   -5.5122    4.5759    9.0061 H   0  0  0  0  0  0  0  0  0  0  0  0
   -5.7143    6.1733    9.6696 H   0  0  0  0  0  0  0  0  0  0  0  0
   -6.8488    5.6106    8.4560 H   0  0  0  0  0  0  0  0  0  0  0  0
   -2.9187    6.6376    7.4282 H   0  0  0  0  0  0  0  0  0  0  0  0
   -3.3749    6.4100    9.1120 H   0  0  0  0  0  0  0  0  0  0  0  0
   -3.4289    3.9512    8.8260 H   0  0  0  0  0  0  0  0  0  0  0  0
   -1.8876    4.5731    8.2498 H   0  0  0  0  0  0  0  0  0  0  0  0
  1  2  1  0  0  0  0
  1 27  1  0  0  0  0
  1 28  1  0  0  0  0
  1 29  1  0  0  0  0
  2  3  1  0  0  0  0
  2  7  1  0  0  0  0
  3  4  1  0  0  0  0
  3 30  1  0  0  0  0
  3 31  1  0  0  0  0
  4  5  1  0  0  0  0
  4 32  1  0  0  0  0
  4 33  1  0  0  0  0
  5  6  1  0  0  0  0
  5  8  1  0  0  0  0
  6  7  1  0  0  0  0
  6 34  1  0  0  0  0
  6 35  1  0  0  0  0
  7 36  1  0  0  0  0
  7 37  1  0  0  0  0
  8  9  2  0  0  0  0
 10  8  1  0  0  0  0
 10 11  1  0  0  0  0
 10 12  1  0  0  0  0
 10 38  1  6  0  0  0
 11 39  1  0  0  0  0
 11 40  1  0  0  0  0
 12 13  1  0  0  0  0
 12 41  1  0  0  0  0
 12 42  1  0  0  0  0
 13 14  1  0  0  0  0
 14 15  1  0  0  0  0
 15 43  1  0  0  0  0
 15 44  1  0  0  0  0
 16 18  1  0  0  0  0
 16 45  1  6  0  0  0
 16 17  1  0  0  0  0
 16 15  1  0  0  0  0
 17 46  1  0  0  0  0
 17 47  1  0  0  0  0
 18 19  2  0  0  0  0
 18 20  1  0  0  0  0
 20 21  1  0  0  0  0
 20 26  1  0  0  0  0
 21 22  1  0  0  0  0
 21 48  1  0  0  0  0
 21 49  1  0  0  0  0
 22 23  1  0  0  0  0
 22 50  1  0  0  0  0
 22 51  1  0  0  0  0
 23 24  1  0  0  0  0
 23 25  1  0  0  0  0
 24 52  1  0  0  0  0
 24 53  1  0  0  0  0
 24 54  1  0  0  0  0
 25 26  1  0  0  0  0
 25 55  1  0  0  0  0
 25 56  1  0  0  0  0
 26 57  1  0  0  0  0
 26 58  1  0  0  0  0
M  END
>  <DRUGBANK_ID>
DB17636

>  <COMMON_NAME>
LH-708

>  <CAS_NUMBER>
1616758-14-5

>  <UNII>
KS0Q58NC7L

>  <SYNONYMS>
1-propanone, 3,3'-dithiobis(2-amino-1-(4-methyl-1-piperazinyl)-, (2r,2'r)-; L-cystine bis(n-methylpiperazide)

$$$$
