
 OpenBabel10282417133D

 13 14  0  0  0  0  0  0  0  0999 V2000
    1.1502    0.0612   -0.0405 F   0  0  0  0  0  0  0  0  0  0  0  0
    2.4920    0.0619   -0.0352 C   0  0  0  0  0  0  0  0  0  0  0  0
    3.0870   -1.1529   -0.0324 N   0  0  0  0  0  0  0  0  0  0  0  0
    4.4229   -1.0470   -0.0239 C   0  0  0  0  0  0  0  0  0  0  0  0
    5.1763    0.1149   -0.0186 C   0  0  0  0  0  0  0  0  0  0  0  0
    6.5212   -0.1868   -0.0088 N   0  0  0  0  0  0  0  0  0  0  0  0
    6.5787   -1.5021   -0.0080 C   0  0  0  0  0  0  0  0  0  0  0  0
    5.3318   -2.0660   -0.0177 N   0  0  0  0  0  0  0  0  0  0  0  0
    4.4270    1.2811   -0.0236 C   0  0  0  0  0  0  0  0  0  0  0  0
    5.2313    2.7730   -0.0169 Cl  0  0  0  0  0  0  0  0  0  0  0  0
    3.0839    1.2706   -0.0317 N   0  0  0  0  0  0  0  0  0  0  0  0
    7.4845   -2.0951   -0.0006 H   0  0  0  0  0  0  0  0  0  0  0  0
    5.1119   -3.0517   -0.0191 H   0  0  0  0  0  0  0  0  0  0  0  0
  1  2  1  0  0  0  0
  2  3  2  0  0  0  0
  2 11  1  0  0  0  0
  3  4  1  0  0  0  0
  4  5  2  0  0  0  0
  4  8  1  0  0  0  0
  5  6  1  0  0  0  0
  5  9  1  0  0  0  0
  6  7  2  0  0  0  0
  7  8  1  0  0  0  0
  7 12  1  0  0  0  0
  8 13  1  0  0  0  0
  9 10  1  0  0  0  0
  9 11  2  0  0  0  0
M  END
>  <DRUGBANK_ID>
DB03520

>  <SECONDARY_ACCESSION_NUMBERS>
EXPT00896

>  <COMMON_NAME>
6-Chloro-2-fluoropurine

>  <CAS_NUMBER>
1651-29-2

>  <UNII>
726CLW3V39

$$$$
