
 OpenBabel10282417203D

 62 66  0  0  0  0  0  0  0  0999 V2000
    2.5132   -0.8282   -0.0286 C   0  0  0  0  0  0  0  0  0  0  0  0
    2.5546    0.5469    0.0055 C   0  0  0  0  0  0  0  0  0  0  0  0
    1.3577    1.1953    0.0581 C   0  0  0  0  0  0  0  0  0  0  0  0
    0.1239    0.5251   -0.0465 C   0  0  0  0  0  0  0  0  0  0  0  0
    0.0550   -0.8562   -0.0175 C   0  0  0  0  0  0  0  0  0  0  0  0
    1.2868   -1.5240   -0.0011 C   0  0  0  0  0  0  0  0  0  0  0  0
   -1.2175   -1.4763   -0.0010 C   0  0  0  0  0  0  0  0  0  0  0  0
   -2.3962   -0.7237   -0.0203 C   0  0  0  0  0  0  0  0  0  0  0  0
   -2.3079    0.6615   -0.0834 C   0  0  0  0  0  0  0  0  0  0  0  0
   -1.0387    1.2722   -0.1414 C   0  0  0  0  0  0  0  0  0  0  0  0
   -0.8426    2.6241   -0.1208 N   0  0  0  0  0  0  0  0  0  0  0  0
   -0.2579    3.4302   -1.1889 C   0  0  0  0  0  0  0  0  0  0  0  0
    0.5738    4.5959   -0.5531 C   0  0  0  0  0  0  0  0  0  0  0  0
    0.0089    5.3547    0.5899 N   0  0  0  0  0  0  0  0  0  0  0  0
   -0.5257    4.4439    1.6141 C   0  0  0  0  0  0  0  0  0  0  0  0
   -1.2991    3.2293    1.0762 C   0  0  0  0  0  0  0  0  0  0  0  0
   -1.0041    6.2653    0.1395 C   0  0  0  0  0  0  0  0  0  0  0  0
   -2.2408    5.5843   -0.3818 C   0  0  0  0  0  0  0  0  0  0  0  0
   -3.3960    5.0099    0.4939 C   0  0  0  0  0  0  0  0  0  0  0  0
   -4.0576    6.0100    1.3607 C   0  0  0  0  0  0  0  0  0  0  0  0
   -5.0877    6.6953    0.6647 O   0  0  0  0  0  0  0  0  0  0  0  0
   -4.6878    7.4446   -0.4125 C   0  0  0  0  0  0  0  0  0  0  0  0
   -4.2954    6.8847   -1.6366 C   0  0  0  0  0  0  0  0  0  0  0  0
   -3.4161    7.6315   -2.4341 C   0  0  0  0  0  0  0  0  0  0  0  0
   -3.3534    8.9852   -2.2302 C   0  0  0  0  0  0  0  0  0  0  0  0
   -4.0987    9.4978   -1.1691 C   0  0  0  0  0  0  0  0  0  0  0  0
   -4.6559    8.7597   -0.1962 N   0  0  0  0  0  0  0  0  0  0  0  0
   -4.2923   10.8626   -1.0872 N   0  0  0  0  0  0  0  0  0  0  0  0
   -3.5682   11.7276   -1.8777 C   0  0  0  0  0  0  0  0  0  0  0  0
   -3.1944   12.8032   -1.5055 O   0  0  0  0  0  0  0  0  0  0  0  0
   -3.3274   11.1783   -3.2747 C   0  0  0  0  0  0  0  0  0  0  0  0
   -2.5991    9.8593   -3.1815 C   0  0  0  0  0  0  0  0  0  0  0  0
    3.4504   -1.3640   -0.0593 H   0  0  0  0  0  0  0  0  0  0  0  0
    3.4645    1.1357   -0.0017 H   0  0  0  0  0  0  0  0  0  0  0  0
    1.4017    2.2651    0.1809 H   0  0  0  0  0  0  0  0  0  0  0  0
    1.2979   -2.6049    0.0172 H   0  0  0  0  0  0  0  0  0  0  0  0
   -1.2854   -2.5581    0.0335 H   0  0  0  0  0  0  0  0  0  0  0  0
   -3.3667   -1.2155    0.0051 H   0  0  0  0  0  0  0  0  0  0  0  0
   -3.2251    1.2524   -0.0757 H   0  0  0  0  0  0  0  0  0  0  0  0
    0.3686    2.8343   -1.8573 H   0  0  0  0  0  0  0  0  0  0  0  0
   -1.0327    3.7743   -1.8776 H   0  0  0  0  0  0  0  0  0  0  0  0
    1.4914    4.1803   -0.1386 H   0  0  0  0  0  0  0  0  0  0  0  0
    0.9038    5.2812   -1.3414 H   0  0  0  0  0  0  0  0  0  0  0  0
    0.3051    4.1051    2.2358 H   0  0  0  0  0  0  0  0  0  0  0  0
   -1.1690    5.0228    2.2995 H   0  0  0  0  0  0  0  0  0  0  0  0
   -2.1279    3.5044    0.5000 H   0  0  0  0  0  0  0  0  0  0  0  0
   -1.7806    2.6394    1.8682 H   0  0  0  0  0  0  0  0  0  0  0  0
   -1.3075    7.0024    0.8952 H   0  0  0  0  0  0  0  0  0  0  0  0
   -0.5863    6.8999   -0.6656 H   0  0  0  0  0  0  0  0  0  0  0  0
   -2.5475    6.5020   -0.7768 H   0  0  0  0  0  0  0  0  0  0  0  0
   -2.1384    5.0196   -1.3073 H   0  0  0  0  0  0  0  0  0  0  0  0
   -4.0577    4.3783   -0.1252 H   0  0  0  0  0  0  0  0  0  0  0  0
   -3.1427    4.3571    1.3240 H   0  0  0  0  0  0  0  0  0  0  0  0
   -4.5162    5.4174    2.1753 H   0  0  0  0  0  0  0  0  0  0  0  0
   -3.2824    6.6040    1.8672 H   0  0  0  0  0  0  0  0  0  0  0  0
   -4.3225    5.8106   -1.8062 H   0  0  0  0  0  0  0  0  0  0  0  0
   -2.6991    7.1528   -3.1055 H   0  0  0  0  0  0  0  0  0  0  0  0
   -4.7890   11.1975   -0.2765 H   0  0  0  0  0  0  0  0  0  0  0  0
   -4.3128   11.0250   -3.7378 H   0  0  0  0  0  0  0  0  0  0  0  0
   -2.7837   11.9018   -3.8829 H   0  0  0  0  0  0  0  0  0  0  0  0
   -2.5896    9.3864   -4.1714 H   0  0  0  0  0  0  0  0  0  0  0  0
   -1.5572    9.9952   -2.8657 H   0  0  0  0  0  0  0  0  0  0  0  0
  1  2  2  0  0  0  0
  1  6  1  0  0  0  0
  1 33  1  0  0  0  0
  2  3  1  0  0  0  0
  2 34  1  0  0  0  0
  3  4  2  0  0  0  0
  3 35  1  0  0  0  0
  4  5  1  0  0  0  0
  4 10  1  0  0  0  0
  5  6  2  0  0  0  0
  5  7  1  0  0  0  0
  6 36  1  0  0  0  0
  7  8  2  0  0  0  0
  7 37  1  0  0  0  0
  8  9  1  0  0  0  0
  8 38  1  0  0  0  0
  9 10  2  0  0  0  0
  9 39  1  0  0  0  0
 10 11  1  0  0  0  0
 11 12  1  0  0  0  0
 11 16  1  0  0  0  0
 12 13  1  0  0  0  0
 12 40  1  0  0  0  0
 12 41  1  0  0  0  0
 13 14  1  0  0  0  0
 13 42  1  0  0  0  0
 13 43  1  0  0  0  0
 14 15  1  0  0  0  0
 14 17  1  0  0  0  0
 15 16  1  0  0  0  0
 15 44  1  0  0  0  0
 15 45  1  0  0  0  0
 16 46  1  0  0  0  0
 16 47  1  0  0  0  0
 17 18  1  0  0  0  0
 17 48  1  0  0  0  0
 17 49  1  0  0  0  0
 18 19  1  0  0  0  0
 18 50  1  0  0  0  0
 18 51  1  0  0  0  0
 19 20  1  0  0  0  0
 19 52  1  0  0  0  0
 19 53  1  0  0  0  0
 20 21  1  0  0  0  0
 20 54  1  0  0  0  0
 20 55  1  0  0  0  0
 21 22  1  0  0  0  0
 22 23  2  0  0  0  0
 22 27  1  0  0  0  0
 23 24  1  0  0  0  0
 23 56  1  0  0  0  0
 24 25  2  0  0  0  0
 24 57  1  0  0  0  0
 25 26  1  0  0  0  0
 25 32  1  0  0  0  0
 26 27  2  0  0  0  0
 26 28  1  0  0  0  0
 28 29  1  0  0  0  0
 28 58  1  0  0  0  0
 29 30  2  0  0  0  0
 29 31  1  0  0  0  0
 31 32  1  0  0  0  0
 31 59  1  0  0  0  0
 31 60  1  0  0  0  0
 32 61  1  0  0  0  0
 32 62  1  0  0  0  0
M  END
>  <DRUGBANK_ID>
DB12998

>  <COMMON_NAME>
PF-00217830

>  <CAS_NUMBER>
846032-02-8

>  <UNII>
8BC08N1MS5

$$$$
