
 OpenBabel10282417233D

104109  0  0  1  0  0  0  0  0999 V2000
    0.6661    1.5693    1.3298 S   0  0  0  0  0  0  0  0  0  0  0  0
   -0.5512    0.5008    0.6516 C   0  0  0  0  0  0  0  0  0  0  0  0
   -0.2772   -0.8315    0.2852 C   0  0  0  0  0  0  0  0  0  0  0  0
    1.1464   -1.5025    0.4209 C   0  0  1  0  0  0  0  0  0  0  0  0
    1.2784   -3.0457    0.4418 C   0  0  0  0  0  0  0  0  0  0  0  0
    2.4913   -3.7628    0.5320 C   0  0  0  0  0  0  0  0  0  0  0  0
    2.5430   -5.1602    0.3737 C   0  0  0  0  0  0  0  0  0  0  0  0
    1.3806   -5.8579    0.0905 C   0  0  0  0  0  0  0  0  0  0  0  0
    1.4499   -7.2241    0.1302 O   0  0  0  0  0  0  0  0  0  0  0  0
    0.2008   -7.9218    0.1833 C   0  0  0  0  0  0  0  0  0  0  0  0
   -0.5012   -7.8480    1.5359 C   0  0  0  0  0  0  0  0  0  0  0  0
   -0.9722   -8.9991    2.1390 C   0  0  0  0  0  0  0  0  0  0  0  0
   -1.7190   -8.8940    3.3099 C   0  0  0  0  0  0  0  0  0  0  0  0
   -2.1140   -7.6482    3.8347 C   0  0  0  0  0  0  0  0  0  0  0  0
   -3.1725   -7.4821    4.8715 C   0  0  0  0  0  0  0  0  0  0  0  0
   -4.5387   -7.9238    4.3899 N   0  3  3  0  0  0  0  0  0  0  0  0
   -4.5569   -9.4149    3.9898 C   0  0  0  0  0  0  0  0  0  0  0  0
   -5.9632   -9.8514    3.5691 C   0  0  0  0  0  0  0  0  0  0  0  0
   -6.9360   -8.7363    3.6233 N   0  0  3  0  0  0  0  0  0  0  0  0
   -6.4243   -7.6405    2.7469 C   0  0  0  0  0  0  0  0  0  0  0  0
   -5.0262   -7.1094    3.1601 C   0  0  0  0  0  0  0  0  0  0  0  0
   -6.9418   -8.2339    5.0260 C   0  0  0  0  0  0  0  0  0  0  0  0
   -5.5630   -7.7297    5.5174 C   0  0  0  0  0  0  0  0  0  0  0  0
   -1.5473   -6.5116    3.3253 C   0  0  0  0  0  0  0  0  0  0  0  0
   -0.7211   -6.6476    2.2376 C   0  0  0  0  0  0  0  0  0  0  0  0
    0.1960   -5.1459   -0.0187 C   0  0  0  0  0  0  0  0  0  0  0  0
    0.1519   -3.8307    0.3956 C   0  0  0  0  0  0  0  0  0  0  0  0
    2.1115   -0.9023   -0.6759 C   0  0  2  0  0  0  0  0  0  0  0  0
    2.7471    0.4848   -0.3155 C   0  0  0  0  0  0  0  0  0  0  0  0
    1.7238    1.5808   -0.0762 C   0  0  0  0  0  0  0  0  0  0  0  0
    3.5119    0.3630    1.0279 C   0  0  0  0  0  0  0  0  0  0  0  0
    4.6550   -0.6140    1.1155 C   0  0  0  0  0  0  0  0  0  0  0  0
    5.8734   -0.2017    0.3387 C   0  0  0  0  0  0  0  0  0  0  0  0
    6.2800    1.2153    0.6917 C   0  0  0  0  0  0  0  0  0  0  0  0
    3.6810    0.9839   -1.4943 C   0  0  0  0  0  0  0  0  0  0  0  0
    3.1265    1.2820   -2.8898 C   0  0  0  0  0  0  0  0  0  0  0  0
    2.1131    2.4032   -2.9767 C   0  0  0  0  0  0  0  0  0  0  0  0
    2.6612    3.6995   -2.3988 C   0  0  0  0  0  0  0  0  0  0  0  0
    1.4542   -0.8927   -1.9474 O   0  0  0  0  0  0  0  0  0  0  0  0
   -1.3660   -1.4639   -0.3550 C   0  0  0  0  0  0  0  0  0  0  0  0
   -2.6677   -0.9347   -0.4709 C   0  0  0  0  0  0  0  0  0  0  0  0
   -3.7384   -1.7158   -0.8646 N   0  0  0  0  0  0  0  0  0  0  0  0
   -5.0671   -1.1559   -1.0717 C   0  0  0  0  0  0  0  0  0  0  0  0
   -3.6069   -3.1574   -1.0507 C   0  0  0  0  0  0  0  0  0  0  0  0
   -2.7935    0.4181   -0.1883 C   0  0  0  0  0  0  0  0  0  0  0  0
   -1.7410    1.1413    0.3196 C   0  0  0  0  0  0  0  0  0  0  0  0
    0.1133    2.9243    1.3980 O   0  0  0  0  0  0  0  0  0  0  0  0
    1.1688    0.9423    2.5097 O   0  0  0  0  0  0  0  0  0  0  0  0
    1.4879   -1.2774    1.4295 H   0  0  0  0  0  0  0  0  0  0  0  0
    3.4313   -3.2828    0.7694 H   0  0  0  0  0  0  0  0  0  0  0  0
    3.4840   -5.6964    0.4788 H   0  0  0  0  0  0  0  0  0  0  0  0
   -0.4626   -7.6084   -0.6381 H   0  0  0  0  0  0  0  0  0  0  0  0
    0.4223   -8.9709   -0.0495 H   0  0  0  0  0  0  0  0  0  0  0  0
   -0.7400   -9.9813    1.7333 H   0  0  0  0  0  0  0  0  0  0  0  0
   -2.0406   -9.8224    3.7686 H   0  0  0  0  0  0  0  0  0  0  0  0
   -2.9082   -8.0450    5.7699 H   0  0  0  0  0  0  0  0  0  0  0  0
   -3.2795   -6.4233    5.1533 H   0  0  0  0  0  0  0  0  0  0  0  0
   -4.1583   -9.9859    4.8351 H   0  0  0  0  0  0  0  0  0  0  0  0
   -3.9481   -9.5272    3.0953 H   0  0  0  0  0  0  0  0  0  0  0  0
   -5.9050  -10.2543    2.5485 H   0  0  0  0  0  0  0  0  0  0  0  0
   -6.2770  -10.6929    4.1966 H   0  0  0  0  0  0  0  0  0  0  0  0
   -6.3787   -7.9879    1.7060 H   0  0  0  0  0  0  0  0  0  0  0  0
   -7.1389   -6.8099    2.7484 H   0  0  0  0  0  0  0  0  0  0  0  0
   -4.3064   -7.2485    2.3460 H   0  0  0  0  0  0  0  0  0  0  0  0
   -5.0588   -6.0531    3.4507 H   0  0  0  0  0  0  0  0  0  0  0  0
   -7.6750   -7.4264    5.1177 H   0  0  0  0  0  0  0  0  0  0  0  0
   -7.2825   -9.0324    5.6958 H   0  0  0  0  0  0  0  0  0  0  0  0
   -5.2019   -8.3028    6.3785 H   0  0  0  0  0  0  0  0  0  0  0  0
   -5.5837   -6.6616    5.7630 H   0  0  0  0  0  0  0  0  0  0  0  0
   -1.7028   -5.5180    3.7423 H   0  0  0  0  0  0  0  0  0  0  0  0
   -0.2290   -5.7230    2.0143 H   0  0  0  0  0  0  0  0  0  0  0  0
   -0.7720   -5.6172   -0.1444 H   0  0  0  0  0  0  0  0  0  0  0  0
   -0.8101   -3.4569    0.7203 H   0  0  0  0  0  0  0  0  0  0  0  0
    2.9624   -1.5725   -0.8553 H   0  0  0  0  0  0  0  0  0  0  0  0
    2.1797    2.5673   -0.0589 H   0  0  0  0  0  0  0  0  0  0  0  0
    0.9944    1.5512   -0.8748 H   0  0  0  0  0  0  0  0  0  0  0  0
    3.7604    1.3563    1.4206 H   0  0  0  0  0  0  0  0  0  0  0  0
    2.8580   -0.0362    1.7895 H   0  0  0  0  0  0  0  0  0  0  0  0
    4.9066   -0.7355    2.1758 H   0  0  0  0  0  0  0  0  0  0  0  0
    4.3208   -1.5878    0.7799 H   0  0  0  0  0  0  0  0  0  0  0  0
    6.6749   -0.9173    0.5201 H   0  0  0  0  0  0  0  0  0  0  0  0
    5.7085   -0.3041   -0.7258 H   0  0  0  0  0  0  0  0  0  0  0  0
    6.6084    1.2428    1.7322 H   0  0  0  0  0  0  0  0  0  0  0  0
    7.0691    1.5562    0.0251 H   0  0  0  0  0  0  0  0  0  0  0  0
    5.4725    1.9494    0.5991 H   0  0  0  0  0  0  0  0  0  0  0  0
    4.2594    1.8537   -1.1583 H   0  0  0  0  0  0  0  0  0  0  0  0
    4.3991    0.2136   -1.7468 H   0  0  0  0  0  0  0  0  0  0  0  0
    3.9774    1.5464   -3.5341 H   0  0  0  0  0  0  0  0  0  0  0  0
    2.7364    0.3618   -3.3298 H   0  0  0  0  0  0  0  0  0  0  0  0
    1.8122    2.5422   -4.0168 H   0  0  0  0  0  0  0  0  0  0  0  0
    1.1746    2.1273   -2.5085 H   0  0  0  0  0  0  0  0  0  0  0  0
    3.4373    4.0939   -3.0558 H   0  0  0  0  0  0  0  0  0  0  0  0
    1.8565    4.4262   -2.2782 H   0  0  0  0  0  0  0  0  0  0  0  0
    3.1335    3.5988   -1.4180 H   0  0  0  0  0  0  0  0  0  0  0  0
    0.7078   -0.2731   -1.9368 H   0  0  0  0  0  0  0  0  0  0  0  0
   -1.2166   -2.4247   -0.8280 H   0  0  0  0  0  0  0  0  0  0  0  0
   -5.3692   -1.3263   -2.1076 H   0  0  0  0  0  0  0  0  0  0  0  0
   -5.7869   -1.6284   -0.3966 H   0  0  0  0  0  0  0  0  0  0  0  0
   -5.1545   -0.0830   -0.9024 H   0  0  0  0  0  0  0  0  0  0  0  0
   -2.8834   -3.3890   -1.8391 H   0  0  0  0  0  0  0  0  0  0  0  0
   -3.2985   -3.6546   -0.1220 H   0  0  0  0  0  0  0  0  0  0  0  0
   -4.5588   -3.6076   -1.3523 H   0  0  0  0  0  0  0  0  0  0  0  0
   -3.7009    0.9827   -0.3474 H   0  0  0  0  0  0  0  0  0  0  0  0
   -1.8673    2.2153    0.4470 H   0  0  0  0  0  0  0  0  0  0  0  0
  2  1  1  0  0  0  0
  3  2  1  0  0  0  0
  4  3  1  0  0  0  0
  4  5  1  0  0  0  0
  4 49  1  1  0  0  0
  6  5  1  0  0  0  0
  6 50  1  0  0  0  0
  7  6  2  0  0  0  0
  7 51  1  0  0  0  0
  8  7  1  0  0  0  0
  9  8  1  0  0  0  0
 10  9  1  0  0  0  0
 10 52  1  0  0  0  0
 10 53  1  0  0  0  0
 11 10  1  0  0  0  0
 12 11  1  0  0  0  0
 12 54  1  0  0  0  0
 13 12  2  0  0  0  0
 13 14  1  0  0  0  0
 13 55  1  0  0  0  0
 14 24  2  0  0  0  0
 15 14  1  0  0  0  0
 15 56  1  0  0  0  0
 15 57  1  0  0  0  0
 16 15  1  0  0  0  0
 17 16  1  0  0  0  0
 17 58  1  0  0  0  0
 17 59  1  0  0  0  0
 18 17  1  0  0  0  0
 18 60  1  0  0  0  0
 18 61  1  0  0  0  0
 19 18  1  0  0  0  0
 20 19  1  0  0  0  0
 20 21  1  0  0  0  0
 20 62  1  0  0  0  0
 20 63  1  0  0  0  0
 21 16  1  0  0  0  0
 21 64  1  0  0  0  0
 21 65  1  0  0  0  0
 22 19  1  0  0  0  0
 22 23  1  0  0  0  0
 22 66  1  0  0  0  0
 22 67  1  0  0  0  0
 23 16  1  0  0  0  0
 23 68  1  0  0  0  0
 23 69  1  0  0  0  0
 24 25  1  0  0  0  0
 24 70  1  0  0  0  0
 25 11  2  0  0  0  0
 25 71  1  0  0  0  0
 26  8  2  0  0  0  0
 26 27  1  0  0  0  0
 26 72  1  0  0  0  0
 27  5  2  0  0  0  0
 27 73  1  0  0  0  0
 28  4  1  0  0  0  0
 28 29  1  0  0  0  0
 28 39  1  0  0  0  0
 28 74  1  6  0  0  0
 29 30  1  0  0  0  0
 30  1  1  0  0  0  0
 30 75  1  0  0  0  0
 30 76  1  0  0  0  0
 31 29  1  0  0  0  0
 31 77  1  0  0  0  0
 31 78  1  0  0  0  0
 32 31  1  0  0  0  0
 32 79  1  0  0  0  0
 32 80  1  0  0  0  0
 33 32  1  0  0  0  0
 33 81  1  0  0  0  0
 33 82  1  0  0  0  0
 34 33  1  0  0  0  0
 34 83  1  0  0  0  0
 34 84  1  0  0  0  0
 34 85  1  0  0  0  0
 35 29  1  0  0  0  0
 35 86  1  0  0  0  0
 35 87  1  0  0  0  0
 36 35  1  0  0  0  0
 36 88  1  0  0  0  0
 36 89  1  0  0  0  0
 37 36  1  0  0  0  0
 37 90  1  0  0  0  0
 37 91  1  0  0  0  0
 38 37  1  0  0  0  0
 38 92  1  0  0  0  0
 38 93  1  0  0  0  0
 38 94  1  0  0  0  0
 39 95  1  0  0  0  0
 40  3  2  0  0  0  0
 40 96  1  0  0  0  0
 41 40  1  0  0  0  0
 42 41  1  0  0  0  0
 43 42  1  0  0  0  0
 43 97  1  0  0  0  0
 43 98  1  0  0  0  0
 43 99  1  0  0  0  0
 44 42  1  0  0  0  0
 44100  1  0  0  0  0
 44101  1  0  0  0  0
 44102  1  0  0  0  0
 45 41  2  0  0  0  0
 45 46  1  0  0  0  0
 45103  1  0  0  0  0
 46  2  2  0  0  0  0
 46104  1  0  0  0  0
 47  1  2  0  0  0  0
 48  1  2  0  0  0  0
M  CHG  1  16   1
M  END
>  <DRUGBANK_ID>
DB16226

>  <COMMON_NAME>
Maralixibat

>  <CAS_NUMBER>
716313-53-0

>  <UNII>
UYB6UOF69L

>  <SYNONYMS>
Lopixibat; Lopixibat cation; Maralixibat; Maralixibat cation

$$$$
