
 OpenBabel10282417123D

 22 23  0  0  0  0  0  0  0  0999 V2000
    0.0184    0.8703   -0.1492 C   0  0  1  0  0  0  0  0  0  0  0  0
   -0.0339    2.0111    0.8435 C   0  0  0  0  0  0  0  0  0  0  0  0
    0.7940   -0.3864    0.1897 C   0  0  1  0  0  0  0  0  0  0  0  0
   -0.6841   -0.4554   -0.0358 C   0  0  0  0  0  0  0  0  0  0  0  0
    1.1101    2.8144    1.0060 C   0  0  0  0  0  0  0  0  0  0  0  0
   -1.2153    2.4558    1.4671 C   0  0  0  0  0  0  0  0  0  0  0  0
    1.7034   -0.9161   -0.8371 N   0  3  0  0  0  0  0  0  0  0  0  0
    1.0775    4.0315    1.6915 C   0  0  0  0  0  0  0  0  0  0  0  0
   -1.2582    3.6915    2.1338 C   0  0  0  0  0  0  0  0  0  0  0  0
   -0.1184    4.4788    2.2438 C   0  0  0  0  0  0  0  0  0  0  0  0
    0.0519    1.2408   -1.1732 H   0  0  0  0  0  0  0  0  0  0  0  0
    1.1157   -0.5405    1.2185 H   0  0  0  0  0  0  0  0  0  0  0  0
   -1.3069   -0.6779    0.8243 H   0  0  0  0  0  0  0  0  0  0  0  0
   -1.0952   -0.8479   -0.9621 H   0  0  0  0  0  0  0  0  0  0  0  0
    2.0459    2.5301    0.5279 H   0  0  0  0  0  0  0  0  0  0  0  0
   -2.1360    1.8840    1.3916 H   0  0  0  0  0  0  0  0  0  0  0  0
    2.6321   -0.4808   -0.7441 H   0  0  0  0  0  0  0  0  0  0  0  0
    1.8333   -1.9309   -0.7245 H   0  0  0  0  0  0  0  0  0  0  0  0
    1.3752   -0.7448   -1.7959 H   0  0  0  0  0  0  0  0  0  0  0  0
    1.9666    4.6522    1.7505 H   0  0  0  0  0  0  0  0  0  0  0  0
   -2.2018    4.0662    2.5335 H   0  0  0  0  0  0  0  0  0  0  0  0
   -0.1587    5.4470    2.7395 H   0  0  0  0  0  0  0  0  0  0  0  0
  1  2  1  0  0  0  0
  1  3  1  0  0  0  0
  1  4  1  0  0  0  0
  1 11  1  6  0  0  0
  2  5  2  0  0  0  0
  2  6  1  0  0  0  0
  3  7  1  0  0  0  0
  3  4  1  0  0  0  0
  3 12  1  1  0  0  0
  4 13  1  0  0  0  0
  4 14  1  0  0  0  0
  5  8  1  0  0  0  0
  5 15  1  0  0  0  0
  6  9  2  0  0  0  0
  6 16  1  0  0  0  0
  7 17  1  0  0  0  0
  7 18  1  0  0  0  0
  7 19  1  0  0  0  0
  8 10  2  0  0  0  0
  8 20  1  0  0  0  0
  9 10  1  0  0  0  0
  9 21  1  0  0  0  0
 10 22  1  0  0  0  0
M  CHG  1   7   1
M  END
>  <DRUGBANK_ID>
DB02665

>  <SECONDARY_ACCESSION_NUMBERS>
EXPT03088

>  <COMMON_NAME>
(1R,2S)-2-Phenylcyclopropanaminium

>  <CAS_NUMBER>
1986-47-6

>  <UNII>
7H4CZX4FYH

>  <SYNONYMS>
(1R,2S)-tranylcypromine(1+)

$$$$
