
 OpenBabel10282417213D

 77 81  0  0  0  0  0  0  0  0999 V2000
    2.5954   -0.4535   -0.2843 C   0  0  1  0  0  0  0  0  0  0  0  0
    1.8097   -1.5341   -0.7875 C   0  0  2  0  0  0  0  0  0  0  0  0
    3.5062   -1.7323    0.4668 C   0  0  2  0  0  0  0  0  0  0  0  0
    2.4938    0.7854    0.6138 C   0  0  0  0  0  0  0  0  0  0  0  0
    2.3266   -0.0354   -2.1371 C   0  0  0  0  0  0  0  0  0  0  0  0
    0.2670   -0.6712   -0.5137 C   0  0  1  0  0  0  0  0  0  0  0  0
    3.7231   -1.3610   -1.2108 C   0  0  0  0  0  0  0  0  0  0  0  0
    4.5355   -0.8041    0.1011 C   0  0  0  0  0  0  0  0  0  0  0  0
    4.6809   -2.5354    1.1139 C   0  0  0  0  0  0  0  0  0  0  0  0
    2.6883   -2.3328    1.4326 O   0  0  0  0  0  0  0  0  0  0  0  0
    1.4495    1.5696    0.0094 C   0  0  1  0  0  0  0  0  0  0  0  0
    0.1837    0.7815    0.1558 C   0  0  2  0  0  0  0  0  0  0  0  0
   -1.1527   -1.1198    0.0065 C   0  0  0  0  0  0  0  0  0  0  0  0
    5.3256   -3.6052    0.2390 C   0  0  0  0  0  0  0  0  0  0  0  0
    5.0079   -2.4378    2.2984 O   0  0  0  0  0  0  0  0  0  0  0  0
    1.7883    2.9168   -0.1518 O   0  0  0  0  0  0  0  0  0  0  0  0
   -0.8564    1.6633   -0.4396 C   0  0  2  0  0  0  0  0  0  0  0  0
   -2.4456   -0.0018   -0.6401 C   0  0  0  0  0  0  0  0  0  0  0  0
    6.7061   -3.7477    0.5412 O   0  0  0  0  0  0  0  0  0  0  0  0
   -2.2303    1.6914   -0.8007 C   0  0  0  0  0  0  0  0  0  0  0  0
   -0.7198    1.3624   -2.2122 C   0  0  0  0  0  0  0  0  0  0  0  0
   -1.0839    2.8395    0.6894 C   0  0  0  0  0  0  0  0  0  0  0  0
    7.6605   -2.8372    0.2065 C   0  0  0  0  0  0  0  0  0  0  0  0
   -2.1955    2.9640   -1.5565 C   0  0  0  0  0  0  0  0  0  0  0  0
    0.1495    2.4254   -2.7285 C   0  0  0  0  0  0  0  0  0  0  0  0
    7.2459   -1.4302   -0.2447 C   0  0  0  0  0  0  0  0  0  0  0  0
    8.8179   -3.1917    0.2097 O   0  0  0  0  0  0  0  0  0  0  0  0
   -0.5520    3.5014   -1.9162 C   0  0  0  0  0  0  0  0  0  0  0  0
    7.1332   -0.2564    0.7964 C   0  0  0  0  0  0  0  0  0  0  0  0
   -0.0307    4.4963   -1.4841 O   0  0  0  0  0  0  0  0  0  0  0  0
    8.4806    0.2467    1.2395 C   0  0  0  0  0  0  0  0  0  0  0  0
    9.2895   -0.9276    1.7277 C   0  0  0  0  0  0  0  0  0  0  0  0
    8.4563    1.1959    2.4280 C   0  0  0  0  0  0  0  0  0  0  0  0
   10.1909   -0.4452    2.8205 C   0  0  0  0  0  0  0  0  0  0  0  0
    9.8709    1.0311    2.9704 C   0  0  0  0  0  0  0  0  0  0  0  0
    1.6067   -2.4807   -0.3090 H   0  0  0  0  0  0  0  0  0  0  0  0
   -0.0175   -0.8111   -1.5408 H   0  0  0  0  0  0  0  0  0  0  0  0
   -0.0143    0.6448    1.2332 H   0  0  0  0  0  0  0  0  0  0  0  0
    3.3766    1.4371    0.5402 H   0  0  0  0  0  0  0  0  0  0  0  0
    2.3292    0.5875    1.6781 H   0  0  0  0  0  0  0  0  0  0  0  0
    2.9596    0.7807   -2.4870 H   0  0  0  0  0  0  0  0  0  0  0  0
    2.4752   -0.9304   -2.8069 H   0  0  0  0  0  0  0  0  0  0  0  0
    1.3058    0.1192   -2.4464 H   0  0  0  0  0  0  0  0  0  0  0  0
    4.1788   -2.2254   -1.6996 H   0  0  0  0  0  0  0  0  0  0  0  0
    4.1278   -0.6380   -1.9860 H   0  0  0  0  0  0  0  0  0  0  0  0
    5.2179   -0.3008   -0.5856 H   0  0  0  0  0  0  0  0  0  0  0  0
    4.4716    0.0358    0.8062 H   0  0  0  0  0  0  0  0  0  0  0  0
    2.5422   -3.2321    1.0384 H   0  0  0  0  0  0  0  0  0  0  0  0
    1.5752    1.3928   -1.0056 H   0  0  0  0  0  0  0  0  0  0  0  0
   -1.4470   -2.1418   -0.2619 H   0  0  0  0  0  0  0  0  0  0  0  0
   -1.0655   -1.1587    1.1095 H   0  0  0  0  0  0  0  0  0  0  0  0
    4.8115   -4.5530    0.4352 H   0  0  0  0  0  0  0  0  0  0  0  0
    5.2149   -3.4549   -0.8306 H   0  0  0  0  0  0  0  0  0  0  0  0
    1.4703    3.5493    0.4967 H   0  0  0  0  0  0  0  0  0  0  0  0
   -3.3553   -0.2265   -0.0781 H   0  0  0  0  0  0  0  0  0  0  0  0
   -2.5540   -0.4030   -1.6515 H   0  0  0  0  0  0  0  0  0  0  0  0
   -1.6612    1.4213   -2.8398 H   0  0  0  0  0  0  0  0  0  0  0  0
   -0.6022    0.3395   -2.5401 H   0  0  0  0  0  0  0  0  0  0  0  0
   -1.2441    2.4104    1.6911 H   0  0  0  0  0  0  0  0  0  0  0  0
   -0.2614    3.5295    0.7599 H   0  0  0  0  0  0  0  0  0  0  0  0
   -1.9727    3.4988    0.6007 H   0  0  0  0  0  0  0  0  0  0  0  0
   -2.5422    3.3607   -2.5203 H   0  0  0  0  0  0  0  0  0  0  0  0
    0.1330    2.5803   -3.7963 H   0  0  0  0  0  0  0  0  0  0  0  0
    1.1537    2.1351   -2.4939 H   0  0  0  0  0  0  0  0  0  0  0  0
    7.8667   -1.0860   -1.0756 H   0  0  0  0  0  0  0  0  0  0  0  0
    6.3462   -1.6438   -0.7978 H   0  0  0  0  0  0  0  0  0  0  0  0
    6.6463    0.6389    0.3750 H   0  0  0  0  0  0  0  0  0  0  0  0
    6.5437   -0.5331    1.6807 H   0  0  0  0  0  0  0  0  0  0  0  0
    8.9685    0.7384    0.3870 H   0  0  0  0  0  0  0  0  0  0  0  0
    8.6298   -1.6904    2.1594 H   0  0  0  0  0  0  0  0  0  0  0  0
    9.8651   -1.3278    0.8925 H   0  0  0  0  0  0  0  0  0  0  0  0
    8.2361    2.2294    2.1383 H   0  0  0  0  0  0  0  0  0  0  0  0
    7.7129    0.8902    3.1746 H   0  0  0  0  0  0  0  0  0  0  0  0
    9.9622   -1.0111    3.7297 H   0  0  0  0  0  0  0  0  0  0  0  0
   11.2302   -0.6387    2.5473 H   0  0  0  0  0  0  0  0  0  0  0  0
    9.9639    1.3547    4.0072 H   0  0  0  0  0  0  0  0  0  0  0  0
   10.5665    1.6070    2.3505 H   0  0  0  0  0  0  0  0  0  0  0  0
  1  2  1  0  0  0  0
  1  3  1  0  0  0  0
  1  4  1  0  0  0  0
  1  5  1  1  0  0  0
  2  6  1  0  0  0  0
  2  7  1  0  0  0  0
  2 36  1  6  0  0  0
  3  8  1  0  0  0  0
  3  9  1  6  0  0  0
  3 10  1  0  0  0  0
  4 11  1  0  0  0  0
  4 39  1  0  0  0  0
  4 40  1  0  0  0  0
  5 41  1  0  0  0  0
  5 42  1  0  0  0  0
  5 43  1  0  0  0  0
  6 12  1  0  0  0  0
  6 13  1  0  0  0  0
  6 37  1  1  0  0  0
  7  8  1  0  0  0  0
  7 44  1  0  0  0  0
  7 45  1  0  0  0  0
  8 46  1  0  0  0  0
  8 47  1  0  0  0  0
  9 14  1  0  0  0  0
  9 15  2  0  0  0  0
 10 48  1  0  0  0  0
 11 12  1  0  0  0  0
 11 16  1  0  0  0  0
 11 49  1  6  0  0  0
 12 17  1  0  0  0  0
 12 38  1  6  0  0  0
 13 18  1  0  0  0  0
 13 50  1  0  0  0  0
 13 51  1  0  0  0  0
 14 19  1  0  0  0  0
 14 52  1  0  0  0  0
 14 53  1  0  0  0  0
 16 54  1  0  0  0  0
 17 20  1  0  0  0  0
 17 21  1  0  0  0  0
 17 22  1  1  0  0  0
 18 20  1  0  0  0  0
 18 55  1  0  0  0  0
 18 56  1  0  0  0  0
 19 23  1  0  0  0  0
 20 24  2  0  0  0  0
 21 25  1  0  0  0  0
 21 57  1  0  0  0  0
 21 58  1  0  0  0  0
 22 59  1  0  0  0  0
 22 60  1  0  0  0  0
 22 61  1  0  0  0  0
 23 26  1  0  0  0  0
 23 27  2  0  0  0  0
 24 28  1  0  0  0  0
 24 62  1  0  0  0  0
 25 28  1  0  0  0  0
 25 63  1  0  0  0  0
 25 64  1  0  0  0  0
 26 29  1  0  0  0  0
 26 65  1  0  0  0  0
 26 66  1  0  0  0  0
 28 30  2  0  0  0  0
 29 31  1  0  0  0  0
 29 67  1  0  0  0  0
 29 68  1  0  0  0  0
 31 32  1  0  0  0  0
 31 33  1  0  0  0  0
 31 69  1  0  0  0  0
 32 34  1  0  0  0  0
 32 70  1  0  0  0  0
 32 71  1  0  0  0  0
 33 35  1  0  0  0  0
 33 72  1  0  0  0  0
 33 73  1  0  0  0  0
 34 35  1  0  0  0  0
 34 74  1  0  0  0  0
 34 75  1  0  0  0  0
 35 76  1  0  0  0  0
 35 77  1  0  0  0  0
M  END
>  <DRUGBANK_ID>
DB14541

>  <SECONDARY_ACCESSION_NUMBERS>
DBSALT001388

>  <COMMON_NAME>
Hydrocortisone cypionate

>  <CAS_NUMBER>
508-99-6

>  <UNII>
4XDY25L70B

>  <SYNONYMS>
Cortisol 21-cyclopentanepropionate; Hydrocortisone cipionate

$$$$
