
 OpenBabel10282417123D

 47 48  0  0  1  0  0  0  0  0999 V2000
   -0.7420   -1.3665    0.5327 C   0  0  0  0  0  0  0  0  0  0  0  0
    0.1940    2.3471   -4.1676 C   0  0  0  0  0  0  0  0  0  0  0  0
   -1.5302   -0.0028    0.5877 C   0  0  1  0  0  0  0  0  0  0  0  0
    0.5485   -1.3525    0.2927 C   0  0  0  0  0  0  0  0  0  0  0  0
    0.3525    2.0997   -2.7179 C   0  0  2  0  0  0  0  0  0  0  0  0
    2.1984   -0.2464   -1.7052 C   0  0  2  0  0  0  0  0  0  0  0  0
    2.7015    0.9099   -2.4259 C   0  0  2  0  0  0  0  0  0  0  0  0
   -1.0402    1.4361    0.0460 C   0  0  2  0  0  0  0  0  0  0  0  0
    1.7139    2.0540   -2.1039 C   0  0  2  0  0  0  0  0  0  0  0  0
    1.6924   -2.6578    0.0715 C   0  0  0  0  0  0  0  0  0  0  0  0
    0.4902   -0.3099   -2.4862 C   0  0  1  0  0  0  0  0  0  0  0  0
    0.3917    1.1562   -0.0332 C   0  0  1  0  0  0  0  0  0  0  0  0
    2.7597    0.1449    0.0756 N   0  0  0  0  0  0  0  0  0  0  0  0
    1.1585    3.2534   -4.6365 O   0  0  0  0  0  0  0  0  0  0  0  0
   -2.6889   -0.2784   -0.1728 O   0  0  0  0  0  0  0  0  0  0  0  0
    2.8307    0.5922   -3.8047 O   0  0  0  0  0  0  0  0  0  0  0  0
    1.1248   -3.7902    0.0644 O   0  0  0  0  0  0  0  0  0  0  0  0
    2.9259   -2.4076   -0.1187 O   0  5  0  0  0  0  0  0  0  0  0  0
   -0.4753   -1.3455   -2.2701 O   0  0  0  0  0  0  0  0  0  0  0  0
    2.8041    1.1941    2.6403 O   0  5  0  0  0  0  0  0  0  0  0  0
    3.9603    2.4222    0.7684 O   0  0  0  0  0  0  0  0  0  0  0  0
    1.6413    2.6592    1.2514 O   0  0  0  0  0  0  0  0  0  0  0  0
   -0.4699    2.9301    2.8207 O   0  5  0  0  0  0  0  0  0  0  0  0
    0.0884    4.5374    0.9790 O   0  0  0  0  0  0  0  0  0  0  0  0
   -2.0776    4.5654    1.9949 O   0  0  0  0  0  0  0  0  0  0  0  0
   -0.3201    0.8750   -2.4907 O   0  0  0  0  0  0  0  0  0  0  0  0
    0.7310   -0.1690   -0.3290 O   0  0  0  0  0  0  0  0  0  0  0  0
    1.2827    2.1155   -0.7485 O   0  0  0  0  0  0  0  0  0  0  0  0
   -1.5409    2.6538    0.6261 O   0  0  0  0  0  0  0  0  0  0  0  0
    2.7361    1.7671    1.2921 S   0  0  0  0  0  0  0  0  0  0  0  0
   -0.9138    3.7391    1.6808 S   0  0  0  0  0  0  0  0  0  0  0  0
   -1.6313    0.1205    1.6662 H   0  0  0  0  0  0  0  0  0  0  0  0
   -0.1841    2.9290   -2.2027 H   0  0  0  0  0  0  0  0  0  0  0  0
    2.5197   -1.2765   -1.9567 H   0  0  0  0  0  0  0  0  0  0  0  0
    3.6980    1.0463   -2.0068 H   0  0  0  0  0  0  0  0  0  0  0  0
   -1.4226    1.5972   -0.9491 H   0  0  0  0  0  0  0  0  0  0  0  0
    2.2904    2.9574   -2.3431 H   0  0  0  0  0  0  0  0  0  0  0  0
    0.6663   -0.4983   -3.5392 H   0  0  0  0  0  0  0  0  0  0  0  0
    0.5677    1.0778    1.0240 H   0  0  0  0  0  0  0  0  0  0  0  0
   -1.1571   -2.3541    0.4210 H   0  0  0  0  0  0  0  0  0  0  0  0
    0.2641    1.3881   -4.6773 H   0  0  0  0  0  0  0  0  0  0  0  0
   -0.8257    2.7076   -4.3382 H   0  0  0  0  0  0  0  0  0  0  0  0
    3.5467   -0.4631    0.3321 H   0  0  0  0  0  0  0  0  0  0  0  0
    1.1111    4.0314   -4.0473 H   0  0  0  0  0  0  0  0  0  0  0  0
   -2.3119   -0.3173   -1.0828 H   0  0  0  0  0  0  0  0  0  0  0  0
    1.9561    0.6762   -4.2116 H   0  0  0  0  0  0  0  0  0  0  0  0
    0.0117   -2.1681   -2.1282 H   0  0  0  0  0  0  0  0  0  0  0  0
  1 40  1  0  0  0  0
  2 41  1  0  0  0  0
  2 42  1  0  0  0  0
  3  1  1  0  0  0  0
  3 15  1  0  0  0  0
  3 32  1  1  0  0  0
  4  1  2  0  0  0  0
  5 33  1  1  0  0  0
  5  2  1  0  0  0  0
  6 34  1  6  0  0  0
  6 13  1  0  0  0  0
  7  6  1  0  0  0  0
  7 16  1  0  0  0  0
  7 35  1  1  0  0  0
  8  3  1  0  0  0  0
  8 36  1  6  0  0  0
  8 29  1  0  0  0  0
  9  5  1  0  0  0  0
  9  7  1  0  0  0  0
  9 28  1  0  0  0  0
  9 37  1  6  0  0  0
 10  4  1  0  0  0  0
 11  6  1  0  0  0  0
 11 38  1  6  0  0  0
 11 19  1  0  0  0  0
 12  8  1  0  0  0  0
 12 28  1  0  0  0  0
 12 39  1  1  0  0  0
 13 43  1  0  0  0  0
 14  2  1  0  0  0  0
 14 44  1  0  0  0  0
 15 45  1  0  0  0  0
 16 46  1  0  0  0  0
 17 10  2  0  0  0  0
 18 10  1  0  0  0  0
 19 47  1  0  0  0  0
 26  5  1  0  0  0  0
 26 11  1  0  0  0  0
 27  4  1  0  0  0  0
 27 12  1  0  0  0  0
 30 13  1  0  0  0  0
 30 20  1  0  0  0  0
 30 21  2  0  0  0  0
 30 22  2  0  0  0  0
 31 23  1  0  0  0  0
 31 24  2  0  0  0  0
 31 25  2  0  0  0  0
 31 29  1  0  0  0  0
M  CHG  3  18  -1  20  -1  23  -1
M  END
>  <DRUGBANK_ID>
DB02353

>  <SECONDARY_ACCESSION_NUMBERS>
EXPT01679

>  <COMMON_NAME>
Heparin Disaccharide Iii-S

$$$$
