
 OpenBabel10282417233D

127133  0  0  1  0  0  0  0  0999 V2000
   -2.4137    8.6121    4.5265 H   0  0  0  0  0  0  0  0  0  0  0  0
   -2.0908    7.5518    4.7313 C   0  0  2  0  0  0  0  0  0  0  0  0
   -0.9059    7.7603    3.6420 C   0  0  0  0  0  0  0  0  0  0  0  0
   -1.5854    8.0305    2.3062 C   0  0  2  0  0  0  0  0  0  0  0  0
   -2.0215    9.3298    2.6273 O   0  0  0  0  0  0  0  0  0  0  0  0
   -3.0428   10.1073    2.4299 C   0  0  0  0  0  0  0  0  0  0  0  0
   -3.6050   10.5382    3.4144 O   0  0  0  0  0  0  0  0  0  0  0  0
   -3.3544   10.2643    1.1394 O   0  0  0  0  0  0  0  0  0  0  0  0
   -4.6558   10.8373    0.9020 C   0  0  0  0  0  0  0  0  0  0  0  0
   -5.9347   10.2681    1.6781 C   0  0  3  0  0  0  0  0  0  0  0  0
   -5.8535   10.2828    3.0867 O   0  0  0  0  0  0  0  0  0  0  0  0
   -7.1425   11.0518    1.2299 C   0  0  0  0  0  0  0  0  0  0  0  0
   -7.3939   10.8912   -0.1601 O   0  0  0  0  0  0  0  0  0  0  0  0
   -2.1789    6.5644    2.1162 C   0  0  1  0  0  0  0  0  0  0  0  0
   -0.4270    6.0129    1.4023 C   0  0  0  0  0  0  0  0  0  0  0  0
   -2.2370    6.8291    0.3672 C   0  0  0  0  0  0  0  0  0  0  0  0
   -1.2490    7.3452   -0.1326 O   0  0  0  0  0  0  0  0  0  0  0  0
   -2.8451    6.3491   -0.8723 C   0  0  2  0  0  0  0  0  0  0  0  0
   -2.1001    6.9402   -2.2192 O   0  0  0  0  0  0  0  0  0  0  0  0
   -0.7634    7.5194   -2.4444 C   0  0  0  0  0  0  0  0  0  0  0  0
   -0.1038    8.5905   -1.4460 C   0  0  0  0  0  0  0  0  0  0  0  0
   -0.1251    7.2982   -3.4931 O   0  0  0  0  0  0  0  0  0  0  0  0
   -4.0536    5.7779   -0.1417 C   0  0  0  0  0  0  0  0  0  0  0  0
   -3.7206    4.5484    0.2606 C   0  0  0  0  0  0  0  0  0  0  0  0
   -2.4201    3.8202    0.4625 C   0  0  0  0  0  0  0  0  0  0  0  0
   -4.6624    4.4227    1.2527 C   0  0  2  0  0  0  0  0  0  0  0  0
   -4.2824    3.8014    2.3945 C   0  0  0  0  0  0  0  0  0  0  0  0
   -5.0522    5.0179    2.9401 C   0  0  1  0  0  0  0  0  0  0  0  0
   -5.5199    4.0857    4.3738 O   0  0  0  0  0  0  0  0  0  0  0  0
   -3.8190    4.8570    4.1290 C   0  0  1  0  0  0  0  0  0  0  0  0
   -2.4104    4.4467    4.1423 O   0  0  0  0  0  0  0  0  0  0  0  0
   -1.6629    3.7204    5.0329 C   0  0  0  0  0  0  0  0  0  0  0  0
   -0.8316    4.3413    5.6792 O   0  0  0  0  0  0  0  0  0  0  0  0
   -1.9664    2.2111    5.2646 C   0  0  0  0  0  0  0  0  0  0  0  0
   -2.6436    1.6675    4.2235 C   0  0  0  0  0  0  0  0  0  0  0  0
   -2.9555    0.3303    4.2303 C   0  0  0  0  0  0  0  0  0  0  0  0
   -2.7553   -0.4682    5.3585 C   0  0  0  0  0  0  0  0  0  0  0  0
   -2.2795    0.0688    6.5249 C   0  0  0  0  0  0  0  0  0  0  0  0
   -1.9434    1.4021    6.4963 C   0  0  0  0  0  0  0  0  0  0  0  0
   -3.4499    6.2276    3.7289 C   0  0  2  0  0  0  0  0  0  0  0  0
   -4.5057    6.6787    3.7916 H   0  0  0  0  0  0  0  0  0  0  0  0
   -3.3388    6.4725    5.3920 C   0  0  2  0  0  0  0  0  0  0  0  0
   -3.2348    7.7768    6.2285 C   0  0  0  0  0  0  0  0  0  0  0  0
   -1.7267    7.4710    6.1299 O   0  0  0  0  0  0  0  0  0  0  0  0
   -4.2295    5.6605    6.7797 O   0  0  0  0  0  0  0  0  0  0  0  0
   -3.9158    4.4101    7.7437 C   0  0  0  0  0  0  0  0  0  0  0  0
   -3.0678    3.6235    7.0077 C   0  0  0  0  0  0  0  0  0  0  0  0
   -4.4227    3.7749    8.6836 O   0  0  0  0  0  0  0  0  0  0  0  0
   -5.2285    6.5000    1.1685 C   0  0  0  0  0  0  0  0  0  0  0  0
   -6.1110    6.9675   -0.4015 C   0  0  0  0  0  0  0  0  0  0  0  0
   -4.5644    8.0063    0.6295 C   0  0  0  0  0  0  0  0  0  0  0  0
   -6.1494    4.3943    0.9329 O   0  0  0  0  0  0  0  0  0  0  0  0
   -7.1836    4.0094    1.7789 C   0  0  0  0  0  0  0  0  0  0  0  0
   -8.3927    4.2281    1.6865 O   0  0  0  0  0  0  0  0  0  0  0  0
   -6.7960    3.5075    3.0791 C   0  0  2  0  0  0  0  0  0  0  0  0
   -7.0852    5.0035    3.9493 O   0  0  0  0  0  0  0  0  0  0  0  0
   -5.8855    2.0592    3.3875 C   0  0  1  0  0  0  0  0  0  0  0  0
   -5.5124    1.4694    4.7205 N   0  0  0  0  0  0  0  0  0  0  0  0
   -5.5539    0.1465    5.2108 C   0  0  0  0  0  0  0  0  0  0  0  0
   -5.1146   -0.0811    6.3457 O   0  0  0  0  0  0  0  0  0  0  0  0
   -6.2469   -1.0302    4.5915 C   0  0  0  0  0  0  0  0  0  0  0  0
   -6.0878   -1.8425    3.4083 C   0  0  0  0  0  0  0  0  0  0  0  0
   -7.2506   -2.5816    2.9750 C   0  0  0  0  0  0  0  0  0  0  0  0
   -8.3793   -2.6575    3.7390 C   0  0  0  0  0  0  0  0  0  0  0  0
   -8.2688   -2.2360    5.0296 C   0  0  0  0  0  0  0  0  0  0  0  0
   -7.2940   -1.3449    5.4379 C   0  0  0  0  0  0  0  0  0  0  0  0
   -6.9194    1.2353    2.8101 C   0  0  0  0  0  0  0  0  0  0  0  0
   -6.3769    0.2827    2.0459 C   0  0  0  0  0  0  0  0  0  0  0  0
   -7.2403   -0.5339    1.3864 C   0  0  0  0  0  0  0  0  0  0  0  0
   -8.6227   -0.5040    1.7893 C   0  0  0  0  0  0  0  0  0  0  0  0
   -9.1210    0.4545    2.6224 C   0  0  0  0  0  0  0  0  0  0  0  0
   -8.2712    1.4141    2.9455 C   0  0  0  0  0  0  0  0  0  0  0  0
   -0.1644    6.9712    3.6110 H   0  0  0  0  0  0  0  0  0  0  0  0
   -0.3411    8.6848    3.8432 H   0  0  0  0  0  0  0  0  0  0  0  0
   -1.0000    8.3711    1.4409 H   0  0  0  0  0  0  0  0  0  0  0  0
   -4.5326   11.8968    1.0849 H   0  0  0  0  0  0  0  0  0  0  0  0
   -4.8052   10.7026   -0.1835 H   0  0  0  0  0  0  0  0  0  0  0  0
   -6.2242    9.2289    1.5293 H   0  0  0  0  0  0  0  0  0  0  0  0
   -5.0294    9.8174    3.3305 H   0  0  0  0  0  0  0  0  0  0  0  0
   -8.0133   10.6937    1.7847 H   0  0  0  0  0  0  0  0  0  0  0  0
   -6.9774   12.1007    1.4731 H   0  0  0  0  0  0  0  0  0  0  0  0
   -6.6524   11.2534   -0.6722 H   0  0  0  0  0  0  0  0  0  0  0  0
    0.3603    6.8597    1.2372 H   0  0  0  0  0  0  0  0  0  0  0  0
   -0.0211    5.0314    1.5505 H   0  0  0  0  0  0  0  0  0  0  0  0
   -0.2855    5.7955    0.1979 H   0  0  0  0  0  0  0  0  0  0  0  0
   -2.5233    5.3954   -1.2975 H   0  0  0  0  0  0  0  0  0  0  0  0
    0.8662    8.2170   -1.0557 H   0  0  0  0  0  0  0  0  0  0  0  0
   -0.1600    9.6024   -1.8256 H   0  0  0  0  0  0  0  0  0  0  0  0
   -0.5915    8.9000   -0.5219 H   0  0  0  0  0  0  0  0  0  0  0  0
   -2.1811    3.3617    1.4386 H   0  0  0  0  0  0  0  0  0  0  0  0
   -2.5641    3.0408   -0.2383 H   0  0  0  0  0  0  0  0  0  0  0  0
   -1.5315    4.3932    0.3022 H   0  0  0  0  0  0  0  0  0  0  0  0
   -3.9497    5.3860    1.7001 H   0  0  0  0  0  0  0  0  0  0  0  0
   -4.2743    2.8317    1.9408 H   0  0  0  0  0  0  0  0  0  0  0  0
   -3.2362    3.9173    2.5781 H   0  0  0  0  0  0  0  0  0  0  0  0
   -6.3712    3.7634    4.9783 H   0  0  0  0  0  0  0  0  0  0  0  0
   -4.1080    4.1742    5.1214 H   0  0  0  0  0  0  0  0  0  0  0  0
   -3.2883    2.3309    3.6820 H   0  0  0  0  0  0  0  0  0  0  0  0
   -3.6639   -0.0096    3.4968 H   0  0  0  0  0  0  0  0  0  0  0  0
   -3.2708   -1.4225    5.4329 H   0  0  0  0  0  0  0  0  0  0  0  0
   -2.2328   -0.4935    7.4544 H   0  0  0  0  0  0  0  0  0  0  0  0
   -1.9682    1.7522    7.5527 H   0  0  0  0  0  0  0  0  0  0  0  0
   -3.8014    7.6676    7.1539 H   0  0  0  0  0  0  0  0  0  0  0  0
   -3.5649    8.7199    5.7876 H   0  0  0  0  0  0  0  0  0  0  0  0
   -2.0611    3.4760    7.3751 H   0  0  0  0  0  0  0  0  0  0  0  0
   -3.7077    2.8152    6.5943 H   0  0  0  0  0  0  0  0  0  0  0  0
   -2.9124    4.4101    6.3453 H   0  0  0  0  0  0  0  0  0  0  0  0
   -6.5961    8.0027   -0.4548 H   0  0  0  0  0  0  0  0  0  0  0  0
   -5.3887    7.2656   -1.3385 H   0  0  0  0  0  0  0  0  0  0  0  0
   -6.8783    6.3927   -0.8761 H   0  0  0  0  0  0  0  0  0  0  0  0
   -5.2977    8.7507    0.2594 H   0  0  0  0  0  0  0  0  0  0  0  0
   -4.0718    8.4657    1.4053 H   0  0  0  0  0  0  0  0  0  0  0  0
   -4.0494    8.2201   -0.4045 H   0  0  0  0  0  0  0  0  0  0  0  0
   -7.5491    3.2056    3.7210 H   0  0  0  0  0  0  0  0  0  0  0  0
   -6.3241    5.1113    4.6161 H   0  0  0  0  0  0  0  0  0  0  0  0
   -5.0405    1.7647    2.7341 H   0  0  0  0  0  0  0  0  0  0  0  0
   -4.7299    1.9179    5.1959 H   0  0  0  0  0  0  0  0  0  0  0  0
   -5.3383   -1.6551    2.5784 H   0  0  0  0  0  0  0  0  0  0  0  0
   -7.5645   -2.7692    1.9268 H   0  0  0  0  0  0  0  0  0  0  0  0
   -9.3005   -3.0106    3.2771 H   0  0  0  0  0  0  0  0  0  0  0  0
   -8.8950   -2.7273    5.7400 H   0  0  0  0  0  0  0  0  0  0  0  0
   -7.3126   -0.9282    6.4456 H   0  0  0  0  0  0  0  0  0  0  0  0
   -5.3621    0.0575    2.4452 H   0  0  0  0  0  0  0  0  0  0  0  0
   -6.7225   -1.4393    1.0337 H   0  0  0  0  0  0  0  0  0  0  0  0
   -9.3123   -1.3421    1.7335 H   0  0  0  0  0  0  0  0  0  0  0  0
  -10.1075    0.5571    3.0378 H   0  0  0  0  0  0  0  0  0  0  0  0
   -8.7688    2.3175    3.2364 H   0  0  0  0  0  0  0  0  0  0  0  0
  2  3  1  0  0  0  0
  2 44  1  0  0  0  0
  2  1  1  1  0  0  0
  3 73  1  0  0  0  0
  3 74  1  0  0  0  0
  4  3  1  0  0  0  0
  4 75  1  6  0  0  0
  4  5  1  0  0  0  0
  5  6  1  0  0  0  0
  6  7  2  0  0  0  0
  6  8  1  0  0  0  0
  8  9  1  0  0  0  0
  9 10  1  0  0  0  0
  9 76  1  0  0  0  0
  9 77  1  0  0  0  0
 10 11  1  0  0  0  0
 10 12  1  0  0  0  0
 10 78  1  0  0  0  0
 11 79  1  0  0  0  0
 12 13  1  0  0  0  0
 12 80  1  0  0  0  0
 12 81  1  0  0  0  0
 13 82  1  0  0  0  0
 14  4  1  0  0  0  0
 14 16  1  0  0  0  0
 14 15  1  6  0  0  0
 15 83  1  0  0  0  0
 15 84  1  0  0  0  0
 15 85  1  0  0  0  0
 16 17  2  0  0  0  0
 18 16  1  0  0  0  0
 18 23  1  0  0  0  0
 18 86  1  6  0  0  0
 18 19  1  0  0  0  0
 19 20  1  0  0  0  0
 20 21  1  0  0  0  0
 20 22  2  0  0  0  0
 21 87  1  0  0  0  0
 21 88  1  0  0  0  0
 21 89  1  0  0  0  0
 23 24  2  0  0  0  0
 23 49  1  0  0  0  0
 24 25  1  0  0  0  0
 25 90  1  0  0  0  0
 25 91  1  0  0  0  0
 25 92  1  0  0  0  0
 26 24  1  0  0  0  0
 26 27  1  0  0  0  0
 26 52  1  0  0  0  0
 26 93  1  1  0  0  0
 27 94  1  0  0  0  0
 27 95  1  0  0  0  0
 28 27  1  0  0  0  0
 28 49  1  0  0  0  0
 28 29  1  1  0  0  0
 29 96  1  0  0  0  0
 30 28  1  0  0  0  0
 30 97  1  1  0  0  0
 30 31  1  0  0  0  0
 31 32  1  0  0  0  0
 32 33  2  0  0  0  0
 32 34  1  0  0  0  0
 34 35  2  0  0  0  0
 34 39  1  0  0  0  0
 35 36  1  0  0  0  0
 35 98  1  0  0  0  0
 36 37  2  0  0  0  0
 36 99  1  0  0  0  0
 37 38  1  0  0  0  0
 37100  1  0  0  0  0
 38 39  2  0  0  0  0
 38101  1  0  0  0  0
 39102  1  0  0  0  0
 40 30  1  0  0  0  0
 40 14  1  0  0  0  0
 40 42  1  0  0  0  0
 40 41  1  1  0  0  0
 42  2  1  0  0  0  0
 42 43  1  0  0  0  0
 42 45  1  1  0  0  0
 43 44  1  0  0  0  0
 43103  1  0  0  0  0
 43104  1  0  0  0  0
 45 46  1  0  0  0  0
 46 47  1  0  0  0  0
 46 48  2  0  0  0  0
 47105  1  0  0  0  0
 47106  1  0  0  0  0
 47107  1  0  0  0  0
 49 50  1  0  0  0  0
 49 51  1  0  0  0  0
 50108  1  0  0  0  0
 50109  1  0  0  0  0
 50110  1  0  0  0  0
 51111  1  0  0  0  0
 51112  1  0  0  0  0
 51113  1  0  0  0  0
 52 53  1  0  0  0  0
 53 54  2  0  0  0  0
 55 57  1  0  0  0  0
 55114  1  1  0  0  0
 55 56  1  0  0  0  0
 55 53  1  0  0  0  0
 56115  1  0  0  0  0
 57 58  1  0  0  0  0
 57 67  1  0  0  0  0
 57116  1  6  0  0  0
 58 59  1  0  0  0  0
 58117  1  0  0  0  0
 59 60  2  0  0  0  0
 59 61  1  0  0  0  0
 61 62  2  0  0  0  0
 61 66  1  0  0  0  0
 62 63  1  0  0  0  0
 62118  1  0  0  0  0
 63 64  2  0  0  0  0
 63119  1  0  0  0  0
 64 65  1  0  0  0  0
 64120  1  0  0  0  0
 65 66  2  0  0  0  0
 65121  1  0  0  0  0
 66122  1  0  0  0  0
 67 68  2  0  0  0  0
 67 72  1  0  0  0  0
 68 69  1  0  0  0  0
 68123  1  0  0  0  0
 69 70  2  0  0  0  0
 69124  1  0  0  0  0
 70 71  1  0  0  0  0
 70125  1  0  0  0  0
 71 72  2  0  0  0  0
 71126  1  0  0  0  0
 72127  1  0  0  0  0
M  END
>  <DRUGBANK_ID>
DB17223

>  <COMMON_NAME>
Paclitaxel ceribate

>  <CAS_NUMBER>
186040-50-6

>  <UNII>
B3C86E80A0

>  <SYNONYMS>
Paclitaxel ceribate; Protaxel

$$$$
