
 OpenBabel10282417223D

 34 37  0  0  0  0  0  0  0  0999 V2000
    1.0584   -0.0576    0.0573 O   0  0  0  0  0  0  0  0  0  0  0  0
    2.3293   -0.0576    0.0573 C   0  0  0  0  0  0  0  0  0  0  0  0
    3.1019   -1.1339    0.0579 N   0  0  0  0  0  0  0  0  0  0  0  0
    2.6093   -2.5189    0.0591 C   0  0  0  0  0  0  0  0  0  0  0  0
    1.7648   -2.7553    1.3006 C   0  0  0  0  0  0  0  0  0  0  0  0
    0.6231   -1.8292    1.3001 N   0  0  0  0  0  0  0  0  0  0  0  0
    0.7218   -0.5155    1.3007 Se  0  0  0  0  0  0  0  0  0  0  0  0
   -0.5172    0.0021    1.3024 C   0  0  0  0  0  0  0  0  0  0  0  0
   -1.4106   -1.1057    1.3013 C   0  0  0  0  0  0  0  0  0  0  0  0
   -2.7992   -0.8577    1.3021 C   0  0  0  0  0  0  0  0  0  0  0  0
   -3.2445    0.4175    1.3048 C   0  0  0  0  0  0  0  0  0  0  0  0
   -2.3858    1.4710    1.2999 C   0  0  0  0  0  0  0  0  0  0  0  0
   -1.0457    1.2944    1.3042 C   0  0  0  0  0  0  0  0  0  0  0  0
   -0.6492   -2.1989    1.2995 C   0  0  0  0  0  0  0  0  0  0  0  0
   -1.0728   -3.3971    1.2975 O   0  0  0  0  0  0  0  0  0  0  0  0
    4.3734   -0.7891    0.0573 Se  0  0  0  0  0  0  0  0  0  0  0  0
    4.4484    0.5516    0.0583 C   0  0  0  0  0  0  0  0  0  0  0  0
    3.1061    1.0246    0.0579 C   0  0  0  0  0  0  0  0  0  0  0  0
    2.8770    2.4166    0.0580 C   0  0  0  0  0  0  0  0  0  0  0  0
    3.9309    3.2614    0.0595 C   0  0  0  0  0  0  0  0  0  0  0  0
    5.2104    2.8030    0.0540 C   0  0  0  0  0  0  0  0  0  0  0  0
    5.4906    1.4807    0.0588 C   0  0  0  0  0  0  0  0  0  0  0  0
    2.0144   -2.6867   -0.8143 H   0  0  0  0  0  0  0  0  0  0  0  0
    3.4403   -3.1930    0.0594 H   0  0  0  0  0  0  0  0  0  0  0  0
    1.4062   -3.7634    1.3014 H   0  0  0  0  0  0  0  0  0  0  0  0
    2.3597   -2.5875    2.1739 H   0  0  0  0  0  0  0  0  0  0  0  0
   -3.4933   -1.6721    1.3004 H   0  0  0  0  0  0  0  0  0  0  0  0
   -4.2983    0.6027    1.3111 H   0  0  0  0  0  0  0  0  0  0  0  0
   -2.7807    2.4654    1.2924 H   0  0  0  0  0  0  0  0  0  0  0  0
   -0.3924    2.1418    1.3090 H   0  0  0  0  0  0  0  0  0  0  0  0
    1.8779    2.7995    0.0569 H   0  0  0  0  0  0  0  0  0  0  0  0
    3.7543    4.3167    0.0653 H   0  0  0  0  0  0  0  0  0  0  0  0
    6.0163    3.5068    0.0455 H   0  0  0  0  0  0  0  0  0  0  0  0
    6.5073    1.1472    0.0631 H   0  0  0  0  0  0  0  0  0  0  0  0
  1  2  2  0  0  0  0
  2  3  1  0  0  0  0
  2 18  1  0  0  0  0
  3  4  1  0  0  0  0
  3 16  1  0  0  0  0
  4  5  1  0  0  0  0
  4 23  1  0  0  0  0
  4 24  1  0  0  0  0
  5  6  1  0  0  0  0
  5 25  1  0  0  0  0
  5 26  1  0  0  0  0
  6  7  1  0  0  0  0
  6 14  1  0  0  0  0
  7  8  1  0  0  0  0
  8  9  2  0  0  0  0
  8 13  1  0  0  0  0
  9 10  1  0  0  0  0
  9 14  1  0  0  0  0
 10 11  2  0  0  0  0
 10 27  1  0  0  0  0
 11 12  1  0  0  0  0
 11 28  1  0  0  0  0
 12 13  2  0  0  0  0
 12 29  1  0  0  0  0
 13 30  1  0  0  0  0
 14 15  2  0  0  0  0
 16 17  1  0  0  0  0
 17 18  2  0  0  0  0
 17 22  1  0  0  0  0
 18 19  1  0  0  0  0
 19 20  2  0  0  0  0
 19 31  1  0  0  0  0
 20 21  1  0  0  0  0
 20 32  1  0  0  0  0
 21 22  2  0  0  0  0
 21 33  1  0  0  0  0
 22 34  1  0  0  0  0
M  END
>  <DRUGBANK_ID>
DB15051

>  <COMMON_NAME>
Ethaselen

>  <CAS_NUMBER>
217798-39-5

>  <UNII>
4Q2EZS1IWG

$$$$
