601
 OpenBabel10282417103D

 44 46  0  0  1  0  0  0  0  0999 V2000
    2.1790   -0.0270   -0.0230 F   0  0  0  0  0  0  0  0  0  0  0  0
   -3.4524   -3.9900   -0.6124 O   0  0  0  0  0  0  0  0  0  0  0  0
    2.6062    4.5803    0.7164 O   0  0  0  0  0  0  0  0  0  0  0  0
   -3.1519   -2.2218   -2.0117 O   0  0  0  0  0  0  0  0  0  0  0  0
   -2.6387   -7.2808    4.1282 O   0  0  0  0  0  0  0  0  0  0  0  0
   -1.9756   -2.4140   -0.0037 N   0  0  0  0  0  0  0  0  0  0  0  0
    0.8472    2.4580    0.0159 N   0  0  0  0  0  0  0  0  0  0  0  0
   -2.3870   -6.1855    2.1889 N   0  0  0  0  0  0  0  0  0  0  0  0
   -3.0503   -4.3057    0.7295 C   0  0  2  0  0  0  0  0  0  0  0  0
   -1.8565   -3.4090    1.0102 C   0  0  0  0  0  0  0  0  0  0  0  0
    1.8508    2.9217   -0.9557 C   0  0  0  0  0  0  0  0  0  0  0  0
    0.4304    3.4759    0.9808 C   0  0  0  0  0  0  0  0  0  0  0  0
   -1.2504   -1.2126   -0.0143 C   0  0  0  0  0  0  0  0  0  0  0  0
   -2.7301   -5.7937    0.8325 C   0  0  0  0  0  0  0  0  0  0  0  0
    0.1762    1.2551   -0.0543 C   0  0  0  0  0  0  0  0  0  0  0  0
    3.0392    3.5569   -0.2034 C   0  0  0  0  0  0  0  0  0  0  0  0
    1.6859    4.0262    1.6725 C   0  0  0  0  0  0  0  0  0  0  0  0
   -2.8860   -2.7945   -0.9645 C   0  0  0  0  0  0  0  0  0  0  0  0
    0.1427   -1.2047    0.0145 C   0  0  0  0  0  0  0  0  0  0  0  0
   -1.9333    0.0027   -0.0494 C   0  0  0  0  0  0  0  0  0  0  0  0
    0.8360    0.0139   -0.0466 C   0  0  0  0  0  0  0  0  0  0  0  0
   -1.2266    1.2137   -0.0362 C   0  0  0  0  0  0  0  0  0  0  0  0
   -3.0435   -7.0781    2.9866 C   0  0  0  0  0  0  0  0  0  0  0  0
   -4.2488   -7.7761    2.4210 C   0  0  0  0  0  0  0  0  0  0  0  0
   -1.5621   -5.7935    2.6316 H   0  0  0  0  0  0  0  0  0  0  0  0
   -3.8917   -4.0609    1.3907 H   0  0  0  0  0  0  0  0  0  0  0  0
   -0.8985   -3.9293    0.9170 H   0  0  0  0  0  0  0  0  0  0  0  0
   -1.9321   -2.9604    2.0070 H   0  0  0  0  0  0  0  0  0  0  0  0
    1.3854    3.7024   -1.5744 H   0  0  0  0  0  0  0  0  0  0  0  0
    2.2028    2.1334   -1.6284 H   0  0  0  0  0  0  0  0  0  0  0  0
   -0.0928    4.2781    0.4479 H   0  0  0  0  0  0  0  0  0  0  0  0
   -0.2393    3.0641    1.7432 H   0  0  0  0  0  0  0  0  0  0  0  0
   -3.5888   -6.3670    0.4715 H   0  0  0  0  0  0  0  0  0  0  0  0
   -1.8930   -6.0644    0.1797 H   0  0  0  0  0  0  0  0  0  0  0  0
    3.5961    2.7961    0.3550 H   0  0  0  0  0  0  0  0  0  0  0  0
    3.7313    4.0288   -0.9090 H   0  0  0  0  0  0  0  0  0  0  0  0
    1.4064    4.8162    2.3747 H   0  0  0  0  0  0  0  0  0  0  0  0
    2.1976    3.2362    2.2366 H   0  0  0  0  0  0  0  0  0  0  0  0
    0.7114   -2.1278    0.0292 H   0  0  0  0  0  0  0  0  0  0  0  0
   -3.0210    0.0256   -0.0422 H   0  0  0  0  0  0  0  0  0  0  0  0
   -1.7944    2.1411   -0.0241 H   0  0  0  0  0  0  0  0  0  0  0  0
   -5.0164   -7.0431    2.1582 H   0  0  0  0  0  0  0  0  0  0  0  0
   -3.9619   -8.3589    1.5410 H   0  0  0  0  0  0  0  0  0  0  0  0
   -4.6625   -8.4598    3.1665 H   0  0  0  0  0  0  0  0  0  0  0  0
  1 21  1  0  0  0  0
  2  9  1  0  0  0  0
  2 18  1  0  0  0  0
  3 16  1  0  0  0  0
  3 17  1  0  0  0  0
  4 18  2  0  0  0  0
  5 23  2  0  0  0  0
  6 10  1  0  0  0  0
  6 13  1  0  0  0  0
  6 18  1  0  0  0  0
  7 11  1  0  0  0  0
  7 12  1  0  0  0  0
  7 15  1  0  0  0  0
  8 14  1  0  0  0  0
  8 23  1  0  0  0  0
  8 25  1  0  0  0  0
  9 10  1  0  0  0  0
  9 14  1  0  0  0  0
  9 26  1  1  0  0  0
 10 27  1  0  0  0  0
 10 28  1  0  0  0  0
 11 16  1  0  0  0  0
 11 29  1  0  0  0  0
 11 30  1  0  0  0  0
 12 17  1  0  0  0  0
 12 31  1  0  0  0  0
 12 32  1  0  0  0  0
 13 19  2  0  0  0  0
 13 20  1  0  0  0  0
 14 33  1  0  0  0  0
 14 34  1  0  0  0  0
 15 21  2  0  0  0  0
 15 22  1  0  0  0  0
 16 35  1  0  0  0  0
 16 36  1  0  0  0  0
 17 37  1  0  0  0  0
 17 38  1  0  0  0  0
 19 21  1  0  0  0  0
 19 39  1  0  0  0  0
 20 22  2  0  0  0  0
 20 40  1  0  0  0  0
 22 41  1  0  0  0  0
 23 24  1  0  0  0  0
 24 42  1  0  0  0  0
 24 43  1  0  0  0  0
 24 44  1  0  0  0  0
M  END
>  <DRUGBANK_ID>
DB00601

>  <SECONDARY_ACCESSION_NUMBERS>
APRD01073; DB08769

>  <COMMON_NAME>
Linezolid

>  <CAS_NUMBER>
165800-03-3

>  <UNII>
ISQ9I6J12J

>  <SYNONYMS>
Linezolid; Linezolide; Linezolidum; N-(((S)-3-(3-Fluoro-4-morpholinophenyl)-2-oxo-5-oxazolidinyl)methyl)acetamide

$$$$
