
 OpenBabel10282417113D

 24 25  0  0  0  0  0  0  0  0999 V2000
    1.6957   -0.2584    0.6942 C   0  0  0  0  0  0  0  0  0  0  0  0
   -2.0464    0.2511    0.1375 C   0  0  0  0  0  0  0  0  0  0  0  0
    1.4033    0.9825    0.0162 O   0  0  0  0  0  0  0  0  0  0  0  0
   -1.2020   -0.8341    0.2707 O   0  0  0  0  0  0  0  0  0  0  0  0
   -1.0633    1.3985    0.2521 C   0  0  1  0  0  0  0  0  0  0  0  0
    1.0093   -1.4089   -0.0662 C   0  0  2  0  0  0  0  0  0  0  0  0
    0.1191    0.8501   -0.6230 C   0  0  2  0  0  0  0  0  0  0  0  0
   -0.1509   -0.6573   -0.6582 C   0  0  2  0  0  0  0  0  0  0  0  0
    0.1806    1.3210   -1.6122 H   0  0  0  0  0  0  0  0  0  0  0  0
   -0.4528   -1.0196   -1.6476 H   0  0  0  0  0  0  0  0  0  0  0  0
    0.7774   -2.4893    0.8578 O   0  0  0  0  0  0  0  0  0  0  0  0
   -1.6652    2.5929   -0.2289 O   0  0  0  0  0  0  0  0  0  0  0  0
   -1.2561   -3.1345   -0.0377 O   0  5  0  0  0  0  0  0  0  0  0  0
   -0.5046   -3.1423    0.9403 N   0  3  0  0  0  0  0  0  0  0  0  0
   -0.6269   -3.7715    1.9929 O   0  0  0  0  0  0  0  0  0  0  0  0
   -3.1492    2.2665    1.4745 O   0  5  0  0  0  0  0  0  0  0  0  0
   -2.9176    2.8485    0.4232 N   0  3  0  0  0  0  0  0  0  0  0  0
   -3.6348    3.6253   -0.2174 O   0  0  0  0  0  0  0  0  0  0  0  0
    1.3211   -0.1710    1.7203 H   0  0  0  0  0  0  0  0  0  0  0  0
    2.7822   -0.3880    0.7540 H   0  0  0  0  0  0  0  0  0  0  0  0
   -2.7770    0.1388    0.9336 H   0  0  0  0  0  0  0  0  0  0  0  0
   -2.5623    0.2201   -0.8298 H   0  0  0  0  0  0  0  0  0  0  0  0
   -0.6877    1.5402    1.2746 H   0  0  0  0  0  0  0  0  0  0  0  0
    1.6973   -1.7534   -0.8483 H   0  0  0  0  0  0  0  0  0  0  0  0
  1  6  1  0  0  0  0
  1 19  1  0  0  0  0
  1 20  1  0  0  0  0
  2  5  1  0  0  0  0
  2 21  1  0  0  0  0
  2 22  1  0  0  0  0
  3  1  1  0  0  0  0
  3  7  1  0  0  0  0
  4  8  1  0  0  0  0
  4  2  1  0  0  0  0
  5  7  1  0  0  0  0
  5 23  1  1  0  0  0
  5 12  1  0  0  0  0
  6  8  1  0  0  0  0
  6 24  1  6  0  0  0
  6 11  1  0  0  0  0
  7  8  1  0  0  0  0
  7  9  1  6  0  0  0
  8 10  1  6  0  0  0
 11 14  1  0  0  0  0
 12 17  1  0  0  0  0
 14 13  1  0  0  0  0
 14 15  2  0  0  0  0
 17 16  1  0  0  0  0
 17 18  2  0  0  0  0
M  CHG  4  13  -1  14   1  16  -1  17   1
M  END
>  <DRUGBANK_ID>
DB00883

>  <SECONDARY_ACCESSION_NUMBERS>
APRD00455

>  <COMMON_NAME>
Isosorbide dinitrate

>  <CAS_NUMBER>
87-33-2

>  <UNII>
IA7306519N

>  <SYNONYMS>
1,4:3,6-Dianhydrosorbitol 2,5-dinitrate; D-Isosorbide dinitrate; Dianhydrosorbitol 2,5-dinitrate; Dinitrate d'isosorbide; Dinitrato de isosorbida; Dinitroisosorbide; Dinitrosorbide; ISDN; Isosorbide 2,5-dinitrate; Isosorbide dinitrate; Isosorbidi dinitras; Sorbide nitrate; Sorbidnitrate

$$$$
