473
 OpenBabel10282417103D

 42 43  0  0  1  0  0  0  0  0999 V2000
    1.2611   -0.0095   -0.1507 O   0  0  0  0  0  0  0  0  0  0  0  0
    3.0645   -1.3824    0.0654 O   0  0  0  0  0  0  0  0  0  0  0  0
    1.6628    2.8550    0.8444 N   0  0  0  0  0  0  0  0  0  0  0  0
    2.0931    4.0368    1.5104 C   0  0  0  0  0  0  0  0  0  0  0  0
    1.1363    4.0711    2.6500 C   0  0  0  0  0  0  0  0  0  0  0  0
    2.3212    5.2788    0.6331 C   0  0  0  0  0  0  0  0  0  0  0  0
    1.4747    5.2310    3.5064 C   0  0  0  0  0  0  0  0  0  0  0  0
    2.6803    6.4030    1.5759 C   0  0  0  0  0  0  0  0  0  0  0  0
    1.5798    6.4774    2.6259 C   0  0  0  0  0  0  0  0  0  0  0  0
    0.3612    2.3662    0.5063 C   0  0  0  0  0  0  0  0  0  0  0  0
    0.4102    1.1677   -0.5151 C   0  0  3  0  0  0  0  0  0  0  0  0
    0.6416    1.5638   -1.9586 C   0  0  0  0  0  0  0  0  0  0  0  0
    2.5759   -0.3460   -0.4453 C   0  0  0  0  0  0  0  0  0  0  0  0
    3.5155    0.6871   -1.0249 C   0  0  0  0  0  0  0  0  0  0  0  0
    3.5334    1.7319   -0.1864 C   0  0  0  0  0  0  0  0  0  0  0  0
    4.6477    0.7739   -1.8053 C   0  0  0  0  0  0  0  0  0  0  0  0
    4.1467    2.9731   -0.3545 C   0  0  0  0  0  0  0  0  0  0  0  0
    5.3896    2.0276   -1.9426 C   0  0  0  0  0  0  0  0  0  0  0  0
    4.9900    3.2100   -1.3649 C   0  0  0  0  0  0  0  0  0  0  0  0
    1.9329    2.1864    1.5697 H   0  0  0  0  0  0  0  0  0  0  0  0
    3.0768    3.8289    1.9913 H   0  0  0  0  0  0  0  0  0  0  0  0
    0.1203    4.1567    2.2597 H   0  0  0  0  0  0  0  0  0  0  0  0
    1.2068    3.1264    3.2194 H   0  0  0  0  0  0  0  0  0  0  0  0
    3.1499    5.2645   -0.0908 H   0  0  0  0  0  0  0  0  0  0  0  0
    1.4471    5.4568    0.0059 H   0  0  0  0  0  0  0  0  0  0  0  0
    0.6598    5.2974    4.2256 H   0  0  0  0  0  0  0  0  0  0  0  0
    2.4139    5.0129    4.0298 H   0  0  0  0  0  0  0  0  0  0  0  0
    2.7784    7.3291    1.0009 H   0  0  0  0  0  0  0  0  0  0  0  0
    3.6625    6.2049    2.0346 H   0  0  0  0  0  0  0  0  0  0  0  0
    0.6372    6.5845    2.0722 H   0  0  0  0  0  0  0  0  0  0  0  0
    1.7357    7.3417    3.2596 H   0  0  0  0  0  0  0  0  0  0  0  0
   -0.2697    3.1731    0.1308 H   0  0  0  0  0  0  0  0  0  0  0  0
   -0.0550    1.9739    1.4422 H   0  0  0  0  0  0  0  0  0  0  0  0
   -0.6205    0.7826   -0.4642 H   0  0  0  0  0  0  0  0  0  0  0  0
    0.3958    0.7160   -2.6068 H   0  0  0  0  0  0  0  0  0  0  0  0
    0.0380    2.4279   -2.2399 H   0  0  0  0  0  0  0  0  0  0  0  0
    1.6768    1.8174   -2.1660 H   0  0  0  0  0  0  0  0  0  0  0  0
    3.0521    1.4386    0.7164 H   0  0  0  0  0  0  0  0  0  0  0  0
    5.0653   -0.1253   -2.2258 H   0  0  0  0  0  0  0  0  0  0  0  0
    4.0923    3.7275    0.3967 H   0  0  0  0  0  0  0  0  0  0  0  0
    6.3835    2.0552   -2.3680 H   0  0  0  0  0  0  0  0  0  0  0  0
    5.4538    4.1938   -1.4069 H   0  0  0  0  0  0  0  0  0  0  0  0
  1 11  1  0  0  0  0
  1 13  1  0  0  0  0
  2 13  2  0  0  0  0
  3  4  1  0  0  0  0
  3 10  1  0  0  0  0
  3 20  1  0  0  0  0
  4  5  1  0  0  0  0
  4  6  1  0  0  0  0
  4 21  1  0  0  0  0
  5  7  1  0  0  0  0
  5 22  1  0  0  0  0
  5 23  1  0  0  0  0
  6  8  1  0  0  0  0
  6 24  1  0  0  0  0
  6 25  1  0  0  0  0
  7  9  1  0  0  0  0
  7 26  1  0  0  0  0
  7 27  1  0  0  0  0
  8  9  1  0  0  0  0
  8 28  1  0  0  0  0
  8 29  1  0  0  0  0
  9 30  1  0  0  0  0
  9 31  1  0  0  0  0
 10 11  1  0  0  0  0
 10 32  1  0  0  0  0
 10 33  1  0  0  0  0
 11 12  1  0  0  0  0
 11 34  1  0  0  0  0
 12 35  1  0  0  0  0
 12 36  1  0  0  0  0
 12 37  1  0  0  0  0
 13 14  1  0  0  0  0
 14 15  2  0  0  0  0
 14 16  1  0  0  0  0
 15 17  1  0  0  0  0
 15 38  1  0  0  0  0
 16 18  2  0  0  0  0
 16 39  1  0  0  0  0
 17 19  2  0  0  0  0
 17 40  1  0  0  0  0
 18 19  1  0  0  0  0
 18 41  1  0  0  0  0
 19 42  1  0  0  0  0
M  END
>  <DRUGBANK_ID>
DB00473

>  <SECONDARY_ACCESSION_NUMBERS>
APRD01014

>  <COMMON_NAME>
Hexylcaine

>  <CAS_NUMBER>
532-77-4

>  <UNII>
511IU0826Z

>  <SYNONYMS>
Hexilcaina; Hexylcaine; Hexylcainum

$$$$
