
 OpenBabel10282417163D

 57 61  0  0  0  0  0  0  0  0999 V2000
    2.5155   -0.0082   -0.0997 C   0  0  0  0  0  0  0  0  0  0  0  0
    0.3944    1.3246    0.0877 C   0  0  0  0  0  0  0  0  0  0  0  0
    0.3338   -1.2379   -0.1618 C   0  0  0  0  0  0  0  0  0  0  0  0
   -1.8431    0.1637   -4.6994 C   0  0  0  0  0  0  0  0  0  0  0  0
    2.2576    4.2231   -9.8908 C   0  0  0  0  0  0  0  0  0  0  0  0
    0.2152    5.0748  -10.8276 C   0  0  0  0  0  0  0  0  0  0  0  0
    2.9838    5.1546  -10.6557 C   0  0  0  0  0  0  0  0  0  0  0  0
    0.9291    6.0871  -11.4874 C   0  0  0  0  0  0  0  0  0  0  0  0
   -1.1242    1.2701    0.3266 C   0  0  0  0  0  0  0  0  0  0  0  0
   -1.1486   -1.2272    0.1968 C   0  0  0  0  0  0  0  0  0  0  0  0
   -1.8259    0.2478   -6.0849 C   0  0  0  0  0  0  0  0  0  0  0  0
   -0.3726    2.1221   -4.5059 C   0  0  0  0  0  0  0  0  0  0  0  0
    0.4150    3.2407   -6.7192 C   0  0  0  0  0  0  0  0  0  0  0  0
   -1.1197    1.0070   -2.4339 C   0  0  0  0  0  0  0  0  0  0  0  0
    1.0746   -0.0127    0.4055 C   0  0  1  0  0  0  0  0  0  0  0  0
   -1.1536    1.1028   -3.9195 C   0  0  0  0  0  0  0  0  0  0  0  0
    0.8699    4.1242  -10.0381 C   0  0  0  0  0  0  0  0  0  0  0  0
    2.3272    6.0852  -11.4802 C   0  0  0  0  0  0  0  0  0  0  0  0
   -0.3470    2.2051   -5.8768 C   0  0  0  0  0  0  0  0  0  0  0  0
   -1.8426    0.0493   -0.3006 C   0  0  2  0  0  0  0  0  0  0  0  0
   -1.0878    1.2684   -6.6452 C   0  0  0  0  0  0  0  0  0  0  0  0
   -0.0252    2.7494   -8.0485 C   0  0  0  0  0  0  0  0  0  0  0  0
    0.1027    3.0494   -9.4116 C   0  0  0  0  0  0  0  0  0  0  0  0
   -0.8528    1.6632   -7.9847 C   0  0  0  0  0  0  0  0  0  0  0  0
    3.1700    6.9914  -12.3305 C   0  0  0  0  0  0  0  0  0  0  0  0
   -1.9671    0.0234   -1.7742 N   0  0  0  0  0  0  0  0  0  0  0  0
   -0.6444    2.1859  -10.1437 N   0  0  0  0  0  0  0  0  0  0  0  0
   -1.1987    1.3350   -9.2377 N   0  0  0  0  0  0  0  0  0  0  0  0
    2.5112    7.8777  -13.1112 O   0  0  0  0  0  0  0  0  0  0  0  0
    4.3839    6.9235  -12.3415 O   0  0  0  0  0  0  0  0  0  0  0  0
    1.0903   -0.1013    1.4983 H   0  0  0  0  0  0  0  0  0  0  0  0
   -2.8697    0.0304    0.0882 H   0  0  0  0  0  0  0  0  0  0  0  0
    3.0458   -0.8988    0.2513 H   0  0  0  0  0  0  0  0  0  0  0  0
    2.5530   -0.0036   -1.1957 H   0  0  0  0  0  0  0  0  0  0  0  0
    3.0516    0.8750    0.2599 H   0  0  0  0  0  0  0  0  0  0  0  0
    0.8218    2.1332    0.6894 H   0  0  0  0  0  0  0  0  0  0  0  0
    0.6658    1.6445   -0.9202 H   0  0  0  0  0  0  0  0  0  0  0  0
    0.4432   -1.2887   -1.2519 H   0  0  0  0  0  0  0  0  0  0  0  0
    0.7918   -2.1540    0.2306 H   0  0  0  0  0  0  0  0  0  0  0  0
   -2.3753   -0.6472   -4.2077 H   0  0  0  0  0  0  0  0  0  0  0  0
    2.7941    3.5535   -9.2220 H   0  0  0  0  0  0  0  0  0  0  0  0
   -0.8664    5.0261  -10.9381 H   0  0  0  0  0  0  0  0  0  0  0  0
    4.0736    5.1356  -10.6175 H   0  0  0  0  0  0  0  0  0  0  0  0
    0.3492    6.8385  -12.0073 H   0  0  0  0  0  0  0  0  0  0  0  0
   -1.2807    1.2333    1.4109 H   0  0  0  0  0  0  0  0  0  0  0  0
   -1.6010    2.2008   -0.0020 H   0  0  0  0  0  0  0  0  0  0  0  0
   -1.2495   -1.2862    1.2895 H   0  0  0  0  0  0  0  0  0  0  0  0
   -1.6400   -2.1241   -0.2013 H   0  0  0  0  0  0  0  0  0  0  0  0
   -2.3726   -0.4787   -6.6690 H   0  0  0  0  0  0  0  0  0  0  0  0
    0.2071    2.8121   -3.8953 H   0  0  0  0  0  0  0  0  0  0  0  0
    0.0518    4.2502   -6.5126 H   0  0  0  0  0  0  0  0  0  0  0  0
    1.4947    3.1467   -6.5849 H   0  0  0  0  0  0  0  0  0  0  0  0
   -1.3425    2.0140   -2.0638 H   0  0  0  0  0  0  0  0  0  0  0  0
   -0.0901    0.7009   -2.2741 H   0  0  0  0  0  0  0  0  0  0  0  0
   -2.9362    0.1904   -2.0385 H   0  0  0  0  0  0  0  0  0  0  0  0
   -1.7962    0.5809   -9.5609 H   0  0  0  0  0  0  0  0  0  0  0  0
    1.5423    7.8739  -13.1030 H   0  0  0  0  0  0  0  0  0  0  0  0
  1 33  1  0  0  0  0
  1 34  1  0  0  0  0
  1 35  1  0  0  0  0
  2 36  1  0  0  0  0
  2 37  1  0  0  0  0
  3 38  1  0  0  0  0
  3 39  1  0  0  0  0
  4 40  1  0  0  0  0
  5 41  1  0  0  0  0
  6 42  1  0  0  0  0
  7  5  1  0  0  0  0
  7 43  1  0  0  0  0
  8  6  2  0  0  0  0
  8 44  1  0  0  0  0
  9  2  1  0  0  0  0
  9 45  1  0  0  0  0
  9 46  1  0  0  0  0
 10  3  1  0  0  0  0
 10 47  1  0  0  0  0
 10 48  1  0  0  0  0
 11  4  2  0  0  0  0
 11 49  1  0  0  0  0
 12 50  1  0  0  0  0
 13 51  1  0  0  0  0
 13 52  1  0  0  0  0
 14 53  1  0  0  0  0
 14 54  1  0  0  0  0
 15  1  1  0  0  0  0
 15  2  1  0  0  0  0
 15  3  1  0  0  0  0
 15 31  1  1  0  0  0
 16  4  1  0  0  0  0
 16 12  2  0  0  0  0
 16 14  1  0  0  0  0
 17  5  2  0  0  0  0
 17  6  1  0  0  0  0
 18  7  2  0  0  0  0
 18  8  1  0  0  0  0
 19 12  1  0  0  0  0
 19 13  1  0  0  0  0
 20  9  1  0  0  0  0
 20 10  1  0  0  0  0
 20 32  1  1  0  0  0
 20 26  1  0  0  0  0
 21 11  1  0  0  0  0
 21 19  2  0  0  0  0
 22 13  1  0  0  0  0
 23 17  1  0  0  0  0
 23 22  1  0  0  0  0
 24 21  1  0  0  0  0
 24 22  2  0  0  0  0
 25 18  1  0  0  0  0
 26 14  1  0  0  0  0
 26 55  1  0  0  0  0
 27 23  2  0  0  0  0
 28 24  1  0  0  0  0
 28 27  1  0  0  0  0
 28 56  1  0  0  0  0
 29 25  1  0  0  0  0
 29 57  1  0  0  0  0
 30 25  2  0  0  0  0
M  END
>  <DRUGBANK_ID>
DB07320

>  <COMMON_NAME>
4-(6-{[(4-METHYLCYCLOHEXYL)AMINO]METHYL}-1,4-DIHYDROINDENO[1,2-C]PYRAZOL-3-YL)BENZOIC ACID

$$$$
