37A
 OpenBabel10282417163D

 49 52  0  0  0  0  0  0  0  0999 V2000
    0.9202    0.0441    0.0411 O   0  0  0  0  0  0  0  0  0  0  0  0
    2.1523   -0.0048    0.0494 C   0  0  0  0  0  0  0  0  0  0  0  0
    2.9743    0.9958   -0.7717 C   0  0  2  0  0  0  0  0  0  0  0  0
    4.1818    0.4617   -1.3249 O   0  0  0  0  0  0  0  0  0  0  0  0
    3.4156    2.1822    0.0776 C   0  0  2  0  0  0  0  0  0  0  0  0
    3.4109    3.4926   -0.7451 C   0  0  0  0  0  0  0  0  0  0  0  0
    4.4623    3.5803   -1.7803 N   0  0  0  0  0  0  0  0  0  0  0  0
    4.5365    4.7331   -2.5304 C   0  0  0  0  0  0  0  0  0  0  0  0
    3.6902    5.6313   -2.3944 O   0  0  0  0  0  0  0  0  0  0  0  0
    5.5079    4.9506   -3.4389 N   0  0  0  0  0  0  0  0  0  0  0  0
    6.6368    4.2334   -3.8276 O   0  0  0  0  0  0  0  0  0  0  0  0
    5.4330    2.4913   -1.8198 C   0  0  0  0  0  0  0  0  0  0  0  0
    4.7767    1.8407    0.4122 O   0  0  0  0  0  0  0  0  0  0  0  0
    5.2141    1.3252   -0.8421 C   0  0  1  0  0  0  0  0  0  0  0  0
    2.8529   -0.8968    0.8215 N   0  0  0  0  0  0  0  0  0  0  0  0
    2.1862   -1.9401    1.5765 C   0  0  0  0  0  0  0  0  0  0  0  0
    2.5318   -3.3388    1.1236 C   0  0  0  0  0  0  0  0  0  0  0  0
    1.6805   -4.3942    1.4811 C   0  0  0  0  0  0  0  0  0  0  0  0
    2.0182   -5.7111    1.1712 C   0  0  0  0  0  0  0  0  0  0  0  0
    3.1677   -6.0028    0.4216 C   0  0  0  0  0  0  0  0  0  0  0  0
    4.0276   -4.9545    0.0836 C   0  0  0  0  0  0  0  0  0  0  0  0
    3.7163   -3.6400    0.4368 C   0  0  0  0  0  0  0  0  0  0  0  0
    3.3987   -7.3671   -0.0562 C   0  0  0  0  0  0  0  0  0  0  0  0
    4.5565   -8.0838    0.2698 C   0  0  0  0  0  0  0  0  0  0  0  0
    4.7127   -9.4044   -0.1574 C   0  0  0  0  0  0  0  0  0  0  0  0
    2.4183   -7.9944   -0.8446 C   0  0  0  0  0  0  0  0  0  0  0  0
    2.5512   -9.3257   -1.2290 C   0  0  0  0  0  0  0  0  0  0  0  0
    3.7089  -10.0245   -0.9015 C   0  0  0  0  0  0  0  0  0  0  0  0
    2.3266    1.3001   -1.6012 H   0  0  0  0  0  0  0  0  0  0  0  0
    2.8321    2.3046    0.9949 H   0  0  0  0  0  0  0  0  0  0  0  0
    6.1443    0.7568   -0.7479 H   0  0  0  0  0  0  0  0  0  0  0  0
    3.5585    4.3410   -0.0652 H   0  0  0  0  0  0  0  0  0  0  0  0
    2.4376    3.6314   -1.2324 H   0  0  0  0  0  0  0  0  0  0  0  0
    5.4243    5.8374   -3.9275 H   0  0  0  0  0  0  0  0  0  0  0  0
    6.5608    3.3531   -3.4551 H   0  0  0  0  0  0  0  0  0  0  0  0
    5.3914    2.0913   -2.8373 H   0  0  0  0  0  0  0  0  0  0  0  0
    6.3994    2.9459   -1.5830 H   0  0  0  0  0  0  0  0  0  0  0  0
    3.8649   -0.8732    0.8023 H   0  0  0  0  0  0  0  0  0  0  0  0
    2.4892   -1.8328    2.6235 H   0  0  0  0  0  0  0  0  0  0  0  0
    1.1003   -1.8014    1.5225 H   0  0  0  0  0  0  0  0  0  0  0  0
    0.7399   -4.2027    1.9946 H   0  0  0  0  0  0  0  0  0  0  0  0
    1.3710   -6.5202    1.5070 H   0  0  0  0  0  0  0  0  0  0  0  0
    4.9362   -5.1493   -0.4813 H   0  0  0  0  0  0  0  0  0  0  0  0
    4.4066   -2.8572    0.1398 H   0  0  0  0  0  0  0  0  0  0  0  0
    5.3349   -7.6218    0.8726 H   0  0  0  0  0  0  0  0  0  0  0  0
    5.6104   -9.9560    0.1075 H   0  0  0  0  0  0  0  0  0  0  0  0
    1.5379   -7.4359   -1.1598 H   0  0  0  0  0  0  0  0  0  0  0  0
    1.7481   -9.8127   -1.7746 H   0  0  0  0  0  0  0  0  0  0  0  0
    3.8287  -11.0531   -1.2293 H   0  0  0  0  0  0  0  0  0  0  0  0
  1  2  2  0  0  0  0
  2 15  1  0  0  0  0
  3  2  1  0  0  0  0
  3  5  1  0  0  0  0
  3  4  1  0  0  0  0
  3 29  1  6  0  0  0
  4 14  1  0  0  0  0
  5  6  1  0  0  0  0
  5 13  1  0  0  0  0
  5 30  1  1  0  0  0
  6  7  1  0  0  0  0
  6 32  1  0  0  0  0
  6 33  1  0  0  0  0
  7 12  1  0  0  0  0
  7  8  1  0  0  0  0
  8  9  2  0  0  0  0
  8 10  1  0  0  0  0
 10 11  1  0  0  0  0
 10 34  1  0  0  0  0
 11 35  1  0  0  0  0
 12 14  1  0  0  0  0
 12 36  1  0  0  0  0
 12 37  1  0  0  0  0
 13 14  1  0  0  0  0
 14 31  1  1  0  0  0
 15 16  1  0  0  0  0
 15 38  1  0  0  0  0
 16 17  1  0  0  0  0
 16 39  1  0  0  0  0
 16 40  1  0  0  0  0
 17 22  1  0  0  0  0
 17 18  2  0  0  0  0
 18 19  1  0  0  0  0
 18 41  1  0  0  0  0
 19 20  2  0  0  0  0
 19 42  1  0  0  0  0
 20 21  1  0  0  0  0
 20 23  1  0  0  0  0
 21 22  2  0  0  0  0
 21 43  1  0  0  0  0
 22 44  1  0  0  0  0
 23 24  2  0  0  0  0
 23 26  1  0  0  0  0
 24 25  1  0  0  0  0
 24 45  1  0  0  0  0
 25 28  2  0  0  0  0
 25 46  1  0  0  0  0
 26 27  2  0  0  0  0
 26 47  1  0  0  0  0
 27 28  1  0  0  0  0
 27 48  1  0  0  0  0
 28 49  1  0  0  0  0
M  END
>  <DRUGBANK_ID>
DB07026

>  <COMMON_NAME>
(1S,5S,7R)-N~7~-(BIPHENYL-4-YLMETHYL)-N~3~-HYDROXY-6,8-DIOXA-3-AZABICYCLO[3.2.1]OCTANE-3,7-DICARBOXAMIDE

$$$$
