
 OpenBabel10282417163D

 50 52  0  0  0  0  0  0  0  0999 V2000
   -4.5350    0.1168    1.1830 C   0  0  0  0  0  0  0  0  0  0  0  0
   -5.9416   -0.0315    1.7283 C   0  0  0  0  0  0  0  0  0  0  0  0
   -6.0875    0.6577    2.9680 O   0  0  0  0  0  0  0  0  0  0  0  0
   -5.7944    2.0553    2.7983 C   0  0  0  0  0  0  0  0  0  0  0  0
   -4.3552    2.2623    2.3303 C   0  0  0  0  0  0  0  0  0  0  0  0
   -4.1353    1.5203    1.0901 N   0  0  0  0  0  0  0  0  0  0  0  0
   -3.6256    2.1896   -0.0023 C   0  0  0  0  0  0  0  0  0  0  0  0
   -3.5637    3.4238    0.0309 O   0  0  0  0  0  0  0  0  0  0  0  0
   -3.2296    1.4100   -1.2834 C   0  0  1  0  0  0  0  0  0  0  0  0
   -2.3579    2.2257   -2.1998 N   0  0  0  0  0  0  0  0  0  0  0  0
   -1.2644    1.6821   -2.8424 C   0  0  0  0  0  0  0  0  0  0  0  0
   -0.5494    2.7314   -3.6361 C   0  0  2  0  0  0  0  0  0  0  0  0
   -1.4012    3.9971   -3.4772 C   0  0  0  0  0  0  0  0  0  0  0  0
   -2.3630    3.6732   -2.3317 C   0  0  0  0  0  0  0  0  0  0  0  0
   -0.9078    0.5300   -2.8075 O   0  0  0  0  0  0  0  0  0  0  0  0
   -2.5206    0.0768   -0.9696 C   0  0  0  0  0  0  0  0  0  0  0  0
   -0.3202    2.3461   -5.0626 N   0  0  0  0  0  0  0  0  0  0  0  0
   -1.0494    0.9185   -5.7391 S   0  0  0  0  0  0  0  0  0  0  0  0
   -0.8026    1.0369   -7.1621 O   0  0  0  0  0  0  0  0  0  0  0  0
   -0.4750   -0.2332   -5.0819 O   0  0  0  0  0  0  0  0  0  0  0  0
   -2.7872    0.9612   -5.4903 C   0  0  0  0  0  0  0  0  0  0  0  0
   -3.4060    2.1179   -5.2209 C   0  0  0  0  0  0  0  0  0  0  0  0
   -4.7894    2.2804   -4.9427 C   0  0  0  0  0  0  0  0  0  0  0  0
   -5.6679    1.4693   -4.2467 C   0  0  0  0  0  0  0  0  0  0  0  0
   -7.0025    1.9729   -4.2300 C   0  0  0  0  0  0  0  0  0  0  0  0
   -7.0864    3.1703   -4.8874 C   0  0  0  0  0  0  0  0  0  0  0  0
   -5.5895    3.7409   -5.4251 S   0  0  0  0  0  0  0  0  0  0  0  0
   -8.5195    4.0684   -5.1874 Cl  0  0  0  0  0  0  0  0  0  0  0  0
   -3.8016   -0.3703    1.8405 H   0  0  0  0  0  0  0  0  0  0  0  0
   -4.5826   -0.3647    0.2103 H   0  0  0  0  0  0  0  0  0  0  0  0
   -6.6541    0.3636    0.9947 H   0  0  0  0  0  0  0  0  0  0  0  0
   -6.1566   -1.0944    1.8746 H   0  0  0  0  0  0  0  0  0  0  0  0
   -5.9517    2.5460    3.7601 H   0  0  0  0  0  0  0  0  0  0  0  0
   -6.4976    2.4764    2.0698 H   0  0  0  0  0  0  0  0  0  0  0  0
   -3.6458    1.8582    3.0619 H   0  0  0  0  0  0  0  0  0  0  0  0
   -4.1426    3.3296    2.2163 H   0  0  0  0  0  0  0  0  0  0  0  0
   -4.1614    1.2234   -1.8353 H   0  0  0  0  0  0  0  0  0  0  0  0
    0.4110    2.8856   -3.1302 H   0  0  0  0  0  0  0  0  0  0  0  0
   -0.7932    4.8802   -3.2533 H   0  0  0  0  0  0  0  0  0  0  0  0
   -1.9280    4.3212   -4.3759 H   0  0  0  0  0  0  0  0  0  0  0  0
   -1.9442    4.1127   -1.4223 H   0  0  0  0  0  0  0  0  0  0  0  0
   -3.3793    4.0375   -2.5109 H   0  0  0  0  0  0  0  0  0  0  0  0
   -2.8596   -0.5764   -0.1815 H   0  0  0  0  0  0  0  0  0  0  0  0
   -2.5465   -0.5783   -1.8498 H   0  0  0  0  0  0  0  0  0  0  0  0
   -1.4993    0.2962   -0.6465 H   0  0  0  0  0  0  0  0  0  0  0  0
    0.6863    2.2140   -5.2182 H   0  0  0  0  0  0  0  0  0  0  0  0
   -3.3201    0.0321   -5.6191 H   0  0  0  0  0  0  0  0  0  0  0  0
   -2.8311    3.0169   -5.2017 H   0  0  0  0  0  0  0  0  0  0  0  0
   -5.3650    0.5399   -3.7837 H   0  0  0  0  0  0  0  0  0  0  0  0
   -7.8497    1.4663   -3.7872 H   0  0  0  0  0  0  0  0  0  0  0  0
  1  2  1  0  0  0  0
  1  6  1  0  0  0  0
  1 29  1  0  0  0  0
  1 30  1  0  0  0  0
  2  3  1  0  0  0  0
  2 31  1  0  0  0  0
  2 32  1  0  0  0  0
  3  4  1  0  0  0  0
  4  5  1  0  0  0  0
  4 33  1  0  0  0  0
  4 34  1  0  0  0  0
  5  6  1  0  0  0  0
  5 35  1  0  0  0  0
  5 36  1  0  0  0  0
  6  7  1  0  0  0  0
  7  8  2  0  0  0  0
  9 10  1  0  0  0  0
  9 37  1  6  0  0  0
  9  7  1  0  0  0  0
  9 16  1  0  0  0  0
 10 11  1  0  0  0  0
 11 12  1  0  0  0  0
 11 15  2  0  0  0  0
 12 13  1  0  0  0  0
 12 38  1  1  0  0  0
 12 17  1  0  0  0  0
 13 14  1  0  0  0  0
 13 39  1  0  0  0  0
 13 40  1  0  0  0  0
 14 10  1  0  0  0  0
 14 41  1  0  0  0  0
 14 42  1  0  0  0  0
 16 43  1  0  0  0  0
 16 44  1  0  0  0  0
 16 45  1  0  0  0  0
 17 18  1  0  0  0  0
 17 46  1  0  0  0  0
 18 19  2  0  0  0  0
 18 20  2  0  0  0  0
 18 21  1  0  0  0  0
 21 22  2  0  0  0  0
 21 47  1  0  0  0  0
 22 23  1  0  0  0  0
 22 48  1  0  0  0  0
 23 24  2  0  0  0  0
 24 25  1  0  0  0  0
 24 49  1  0  0  0  0
 25 26  2  0  0  0  0
 25 50  1  0  0  0  0
 26 27  1  0  0  0  0
 26 28  1  0  0  0  0
 27 23  1  0  0  0  0
M  END
>  <DRUGBANK_ID>
DB07278

>  <COMMON_NAME>
GW-813893

>  <CAS_NUMBER>
478644-12-1

>  <UNII>
1Y3JD5PEMS

$$$$
