BIR
 OpenBabel10282417123D

 56 57  0  0  0  0  0  0  0  0999 V2000
   -7.1722    6.0295   -0.0373 C   0  0  0  0  0  0  0  0  0  0  0  0
   -5.7604    6.4577    0.4134 C   0  0  2  0  0  0  0  0  0  0  0  0
   -5.3530    7.6288   -0.3755 N   0  0  0  0  0  0  0  0  0  0  0  0
   -4.5070    5.1310    0.2801 P   0  0  1  0  0  0  0  0  0  0  0  0
   -4.6618    4.9313    1.7823 O   0  0  0  0  0  0  0  0  0  0  0  0
   -5.3702    4.3446   -0.8727 O   0  0  0  0  0  0  0  0  0  0  0  0
   -3.2536    3.8043    0.1468 C   0  0  0  0  0  0  0  0  0  0  0  0
   -3.7943    2.5510    0.8548 C   0  0  2  0  0  0  0  0  0  0  0  0
   -3.2883    1.1992    0.0848 C   0  0  0  0  0  0  0  0  0  0  0  0
   -2.0620    1.0428   -0.0452 O   0  0  0  0  0  0  0  0  0  0  0  0
   -4.1486    0.0856   -0.2511 N   0  0  0  0  0  0  0  0  0  0  0  0
   -5.6904   -0.2346    0.0081 C   0  0  1  0  0  0  0  0  0  0  0  0
   -6.4349   -0.3492   -1.2819 C   0  0  0  0  0  0  0  0  0  0  0  0
   -6.3259   -1.3817    0.8848 C   0  0  0  0  0  0  0  0  0  0  0  0
   -7.3712   -0.9900    1.6699 O   0  0  0  0  0  0  0  0  0  0  0  0
   -5.9863   -2.5769    0.8417 O   0  0  0  0  0  0  0  0  0  0  0  0
   -5.3284    2.5877    1.2287 C   0  0  0  0  0  0  0  0  0  0  0  0
   -5.5307    1.7663    2.4775 C   0  0  0  0  0  0  0  0  0  0  0  0
   -4.8038    0.6060    2.4703 C   0  0  0  0  0  0  0  0  0  0  0  0
   -4.9569   -0.5291    3.1715 C   0  0  0  0  0  0  0  0  0  0  0  0
   -5.8678   -0.4609    4.1565 C   0  0  0  0  0  0  0  0  0  0  0  0
   -6.3439    0.8331    4.4990 C   0  0  0  0  0  0  0  0  0  0  0  0
   -6.2476    1.9460    3.6227 C   0  0  0  0  0  0  0  0  0  0  0  0
   -6.3068   -1.7166    4.7302 C   0  0  0  0  0  0  0  0  0  0  0  0
   -5.4280   -2.8112    4.8115 C   0  0  0  0  0  0  0  0  0  0  0  0
   -5.6763   -3.8231    5.7139 C   0  0  0  0  0  0  0  0  0  0  0  0
   -6.8464   -3.7845    6.4596 C   0  0  0  0  0  0  0  0  0  0  0  0
   -7.8169   -2.8153    6.2047 C   0  0  0  0  0  0  0  0  0  0  0  0
   -7.5862   -1.8360    5.2565 C   0  0  0  0  0  0  0  0  0  0  0  0
   -5.8534    6.8022    1.4511 H   0  0  0  0  0  0  0  0  0  0  0  0
   -3.2642    2.5987    1.8293 H   0  0  0  0  0  0  0  0  0  0  0  0
   -6.1545    0.6350    0.4229 H   0  0  0  0  0  0  0  0  0  0  0  0
   -7.2940    6.1203   -1.1253 H   0  0  0  0  0  0  0  0  0  0  0  0
   -7.9625    6.6275    0.4184 H   0  0  0  0  0  0  0  0  0  0  0  0
   -7.3573    4.9805    0.2232 H   0  0  0  0  0  0  0  0  0  0  0  0
   -5.0333    7.4187   -1.3138 H   0  0  0  0  0  0  0  0  0  0  0  0
   -4.6349    8.1603    0.1161 H   0  0  0  0  0  0  0  0  0  0  0  0
   -5.8241    4.9095   -1.5343 H   0  0  0  0  0  0  0  0  0  0  0  0
   -3.0876    3.5742   -0.9128 H   0  0  0  0  0  0  0  0  0  0  0  0
   -2.2932    4.1461    0.5464 H   0  0  0  0  0  0  0  0  0  0  0  0
   -3.5826   -0.7604   -0.3702 H   0  0  0  0  0  0  0  0  0  0  0  0
   -6.1906   -1.3051   -1.7412 H   0  0  0  0  0  0  0  0  0  0  0  0
   -7.5124   -0.3164   -1.0615 H   0  0  0  0  0  0  0  0  0  0  0  0
   -6.1750    0.5040   -1.9029 H   0  0  0  0  0  0  0  0  0  0  0  0
   -7.2755   -0.0897    2.0581 H   0  0  0  0  0  0  0  0  0  0  0  0
   -5.9232    3.4808    1.4094 H   0  0  0  0  0  0  0  0  0  0  0  0
   -5.8200    2.3092    0.2909 H   0  0  0  0  0  0  0  0  0  0  0  0
   -4.2014    0.4344    1.6539 H   0  0  0  0  0  0  0  0  0  0  0  0
   -4.5612   -1.4396    2.7196 H   0  0  0  0  0  0  0  0  0  0  0  0
   -6.8021    0.9552    5.4713 H   0  0  0  0  0  0  0  0  0  0  0  0
   -6.7147    2.8988    3.8505 H   0  0  0  0  0  0  0  0  0  0  0  0
   -4.4998   -2.8499    4.2435 H   0  0  0  0  0  0  0  0  0  0  0  0
   -4.9139   -4.5753    5.8823 H   0  0  0  0  0  0  0  0  0  0  0  0
   -7.0053   -4.5175    7.2398 H   0  0  0  0  0  0  0  0  0  0  0  0
   -8.7273   -2.7766    6.7904 H   0  0  0  0  0  0  0  0  0  0  0  0
   -8.3686   -1.1300    4.9870 H   0  0  0  0  0  0  0  0  0  0  0  0
  1 33  1  0  0  0  0
  1 34  1  0  0  0  0
  1 35  1  0  0  0  0
  2  4  1  0  0  0  0
  2 30  1  1  0  0  0
  2  3  1  0  0  0  0
  2  1  1  0  0  0  0
  3 36  1  0  0  0  0
  3 37  1  0  0  0  0
  4  5  2  1  0  0  0
  4  6  1  0  0  0  0
  4  7  1  0  0  0  0
  6 38  1  0  0  0  0
  7 39  1  0  0  0  0
  7 40  1  0  0  0  0
  8 17  1  0  0  0  0
  8 31  1  1  0  0  0
  8  9  1  0  0  0  0
  8  7  1  0  0  0  0
  9 10  2  0  0  0  0
  9 11  1  0  0  0  0
 11 12  1  0  0  0  0
 11 41  1  0  0  0  0
 12 13  1  0  0  0  0
 12 14  1  0  0  0  0
 12 32  1  1  0  0  0
 13 42  1  0  0  0  0
 13 43  1  0  0  0  0
 13 44  1  0  0  0  0
 14 15  1  0  0  0  0
 14 16  2  0  0  0  0
 15 45  1  0  0  0  0
 17 18  1  0  0  0  0
 17 46  1  0  0  0  0
 17 47  1  0  0  0  0
 18 19  2  0  0  0  0
 18 23  1  0  0  0  0
 19 20  1  0  0  0  0
 19 48  1  0  0  0  0
 20 21  2  0  0  0  0
 20 49  1  0  0  0  0
 21 22  1  0  0  0  0
 21 24  1  0  0  0  0
 22 23  2  0  0  0  0
 22 50  1  0  0  0  0
 23 51  1  0  0  0  0
 24 25  2  0  0  0  0
 24 29  1  0  0  0  0
 25 26  1  0  0  0  0
 25 52  1  0  0  0  0
 26 27  2  0  0  0  0
 26 53  1  0  0  0  0
 27 28  1  0  0  0  0
 27 54  1  0  0  0  0
 28 29  2  0  0  0  0
 28 55  1  0  0  0  0
 29 56  1  0  0  0  0
M  END
>  <DRUGBANK_ID>
DB02062

>  <SECONDARY_ACCESSION_NUMBERS>
EXPT00710

>  <COMMON_NAME>
N-[3-[(1-Aminoethyl)(Hydroxy)Phosphoryl]-2-(1,1'-Biphenyl-4-Ylmethyl)Propanoyl]Alanine

$$$$
