
 OpenBabel10282417203D

  8  7  0  0  0  0  0  0  0  0999 V2000
    1.0607    0.0723   -0.0100 C   0  0  0  0  0  0  0  0  0  0  0  0
    0.9885    2.7417    0.2198 F   0  0  0  0  0  0  0  0  0  0  0  0
   -0.9997    1.4852    0.7792 O   0  0  0  0  0  0  0  0  0  0  0  0
    1.0678    1.4155    2.2394 O   0  0  0  0  0  0  0  0  0  0  0  0
    0.4397    1.4359    0.9346 S   0  0  0  0  0  0  0  0  0  0  0  0
    0.6858    0.1553   -1.0315 H   0  0  0  0  0  0  0  0  0  0  0  0
    0.7058   -0.8527    0.4484 H   0  0  0  0  0  0  0  0  0  0  0  0
    2.1514    0.1059    0.0037 H   0  0  0  0  0  0  0  0  0  0  0  0
  1  6  1  0  0  0  0
  1  7  1  0  0  0  0
  1  8  1  0  0  0  0
  5  1  1  0  0  0  0
  5  2  1  0  0  0  0
  5  3  2  0  0  0  0
  5  4  2  0  0  0  0
M  END
>  <DRUGBANK_ID>
DB13058

>  <COMMON_NAME>
Methanesulfonyl Fluoride

>  <CAS_NUMBER>
558-25-8

>  <UNII>
9H250YYY0R

$$$$
