P44
 OpenBabel10282417173D

 47 50  0  0  0  0  0  0  0  0999 V2000
    1.5329   -1.0598   -0.0814 N   0  0  0  0  0  0  0  0  0  0  0  0
    2.3019    0.0232   -0.0227 C   0  0  0  0  0  0  0  0  0  0  0  0
    1.5409    1.1991   -0.0043 C   0  0  0  0  0  0  0  0  0  0  0  0
    0.2250    0.7892   -0.0066 C   0  0  0  0  0  0  0  0  0  0  0  0
    0.2694   -0.5790   -0.0214 N   0  0  0  0  0  0  0  0  0  0  0  0
   -0.9666    1.4260    0.0024 N   0  0  0  0  0  0  0  0  0  0  0  0
   -2.0577    0.7052    0.0074 C   0  0  0  0  0  0  0  0  0  0  0  0
   -2.0591   -0.6858    0.0185 N   0  0  0  0  0  0  0  0  0  0  0  0
   -0.9190   -1.3448    0.0110 C   0  0  0  0  0  0  0  0  0  0  0  0
   -0.9025   -2.7381    0.0086 N   0  0  0  0  0  0  0  0  0  0  0  0
    0.2202   -3.5885    0.0380 C   0  0  0  0  0  0  0  0  0  0  0  0
    1.1515   -3.5203    1.0849 C   0  0  0  0  0  0  0  0  0  0  0  0
    2.3507   -4.2345    1.0355 C   0  0  0  0  0  0  0  0  0  0  0  0
    2.6099   -5.0783   -0.0388 C   0  0  0  0  0  0  0  0  0  0  0  0
    1.6696   -5.2056   -1.0600 C   0  0  0  0  0  0  0  0  0  0  0  0
    0.4784   -4.4683   -1.0212 C   0  0  0  0  0  0  0  0  0  0  0  0
   -3.2734    1.3367   -0.0016 N   0  0  0  0  0  0  0  0  0  0  0  0
   -3.4738    2.7801    0.0211 C   0  0  0  0  0  0  0  0  0  0  0  0
   -4.2558    3.2798   -1.2110 C   0  0  0  0  0  0  0  0  0  0  0  0
   -4.4726    4.8052   -1.1222 C   0  0  0  0  0  0  0  0  0  0  0  0
   -5.2647    5.3398   -2.3147 C   0  0  0  0  0  0  0  0  0  0  0  0
   -6.6033    4.6256   -2.4560 C   0  0  0  0  0  0  0  0  0  0  0  0
   -6.4074    3.1186   -2.5531 C   0  0  0  0  0  0  0  0  0  0  0  0
   -5.6124    2.5754   -1.3683 C   0  0  0  0  0  0  0  0  0  0  0  0
    2.0350    2.5264    0.0046 C   0  0  0  0  0  0  0  0  0  0  0  0
    2.4984    3.5936    0.0055 N   0  0  0  0  0  0  0  0  0  0  0  0
    3.3784   -0.1028   -0.0123 H   0  0  0  0  0  0  0  0  0  0  0  0
   -1.7951   -3.2062   -0.0812 H   0  0  0  0  0  0  0  0  0  0  0  0
    0.9880   -2.8297    1.9087 H   0  0  0  0  0  0  0  0  0  0  0  0
    3.0919   -4.0982    1.8181 H   0  0  0  0  0  0  0  0  0  0  0  0
    3.5470   -5.6267   -0.0854 H   0  0  0  0  0  0  0  0  0  0  0  0
    1.8802   -5.8596   -1.9024 H   0  0  0  0  0  0  0  0  0  0  0  0
   -0.2100   -4.5473   -1.8584 H   0  0  0  0  0  0  0  0  0  0  0  0
   -4.0949    0.7495    0.0463 H   0  0  0  0  0  0  0  0  0  0  0  0
   -4.0084    3.0616    0.9369 H   0  0  0  0  0  0  0  0  0  0  0  0
   -2.5139    3.3087    0.0536 H   0  0  0  0  0  0  0  0  0  0  0  0
   -3.6538    3.0702   -2.1059 H   0  0  0  0  0  0  0  0  0  0  0  0
   -5.0174    5.0495   -0.2003 H   0  0  0  0  0  0  0  0  0  0  0  0
   -3.5084    5.3237   -1.0692 H   0  0  0  0  0  0  0  0  0  0  0  0
   -5.4345    6.4159   -2.1964 H   0  0  0  0  0  0  0  0  0  0  0  0
   -4.6790    5.2036   -3.2321 H   0  0  0  0  0  0  0  0  0  0  0  0
   -7.2375    4.8579   -1.5914 H   0  0  0  0  0  0  0  0  0  0  0  0
   -7.1276    4.9893   -3.3466 H   0  0  0  0  0  0  0  0  0  0  0  0
   -7.3826    2.6219   -2.5974 H   0  0  0  0  0  0  0  0  0  0  0  0
   -5.8799    2.8795   -3.4848 H   0  0  0  0  0  0  0  0  0  0  0  0
   -5.4656    1.5014   -1.5194 H   0  0  0  0  0  0  0  0  0  0  0  0
   -6.2010    2.6998   -0.4506 H   0  0  0  0  0  0  0  0  0  0  0  0
  1  2  2  0  0  0  0
  1  5  1  0  0  0  0
  2  3  1  0  0  0  0
  2 27  1  0  0  0  0
  3 25  1  0  0  0  0
  3  4  2  0  0  0  0
  4  6  1  0  0  0  0
  4  5  1  0  0  0  0
  5  9  1  0  0  0  0
  6  7  2  0  0  0  0
  7 17  1  0  0  0  0
  7  8  1  0  0  0  0
  8  9  2  0  0  0  0
  9 10  1  0  0  0  0
 10 11  1  0  0  0  0
 10 28  1  0  0  0  0
 11 12  2  0  0  0  0
 11 16  1  0  0  0  0
 12 13  1  0  0  0  0
 12 29  1  0  0  0  0
 13 14  2  0  0  0  0
 13 30  1  0  0  0  0
 14 15  1  0  0  0  0
 14 31  1  0  0  0  0
 15 16  2  0  0  0  0
 15 32  1  0  0  0  0
 16 33  1  0  0  0  0
 17 18  1  0  0  0  0
 17 34  1  0  0  0  0
 18 19  1  0  0  0  0
 18 35  1  0  0  0  0
 18 36  1  0  0  0  0
 19 20  1  0  0  0  0
 19 24  1  0  0  0  0
 19 37  1  0  0  0  0
 20 21  1  0  0  0  0
 20 38  1  0  0  0  0
 20 39  1  0  0  0  0
 21 22  1  0  0  0  0
 21 40  1  0  0  0  0
 21 41  1  0  0  0  0
 22 23  1  0  0  0  0
 22 42  1  0  0  0  0
 22 43  1  0  0  0  0
 23 24  1  0  0  0  0
 23 44  1  0  0  0  0
 23 45  1  0  0  0  0
 24 46  1  0  0  0  0
 24 47  1  0  0  0  0
 25 26  3  0  0  0  0
M  END
>  <DRUGBANK_ID>
DB08353

>  <COMMON_NAME>
2-(CYCLOHEXYLMETHYLAMINO)-4-(PHENYLAMINO)PYRAZOLO[1,5-A][1,3,5]TRIAZINE-8-CARBONITRILE

$$$$
