
 OpenBabel10282417103D

 37 36  0  0  0  0  0  0  0  0999 V2000
    1.2256   -0.0269    0.5610 N   0  0  0  0  0  0  0  0  0  0  0  0
    0.6649    0.8115    1.7611 C   0  0  1  0  0  0  0  0  0  0  0  0
    1.1244    2.2131    1.5841 C   0  0  0  0  0  0  0  0  0  0  0  0
    0.5618    2.9039    0.3301 C   0  0  0  0  0  0  0  0  0  0  0  0
   -0.9609    2.9386    0.0790 C   0  0  0  0  0  0  0  0  0  0  0  0
   -1.5861    3.9658    0.3760 O   0  0  0  0  0  0  0  0  0  0  0  0
   -1.6930    1.8309   -0.4003 N   0  0  0  0  0  0  0  0  0  0  0  0
   -1.3628    0.3287   -0.3885 C   0  0  1  0  0  0  0  0  0  0  0  0
   -1.4890   -0.9623    0.7782 C   0  0  0  0  0  0  0  0  0  0  0  0
   -1.5909   -0.3550   -1.6918 C   0  0  0  0  0  0  0  0  0  0  0  0
   -0.6670   -0.6320   -2.4560 O   0  0  0  0  0  0  0  0  0  0  0  0
   -2.8847   -0.6973   -1.9231 N   0  0  0  0  0  0  0  0  0  0  0  0
   -3.9826   -0.4335   -1.0114 C   0  0  0  0  0  0  0  0  0  0  0  0
   -5.0383    0.5618   -1.4112 C   0  0  0  0  0  0  0  0  0  0  0  0
   -6.2156    0.4047   -1.3182 O   0  0  0  0  0  0  0  0  0  0  0  0
   -4.4761    1.7782   -1.6504 O   0  0  0  0  0  0  0  0  0  0  0  0
   -0.8653    0.9421    2.4718 C   0  0  0  0  0  0  0  0  0  0  0  0
   -1.1951    0.4522    3.5323 O   0  0  0  0  0  0  0  0  0  0  0  0
   -1.8252    1.6181    1.8250 O   0  0  0  0  0  0  0  0  0  0  0  0
   -3.0301   -1.5452    1.6624 S   0  0  0  0  0  0  0  0  0  0  0  0
    1.1970    0.4276   -0.3723 H   0  0  0  0  0  0  0  0  0  0  0  0
    2.2549   -0.0245    0.5945 H   0  0  0  0  0  0  0  0  0  0  0  0
    1.1603    0.2423    2.5485 H   0  0  0  0  0  0  0  0  0  0  0  0
    0.8287    2.7401    2.4950 H   0  0  0  0  0  0  0  0  0  0  0  0
    2.2200    2.2084    1.5524 H   0  0  0  0  0  0  0  0  0  0  0  0
    0.8988    3.9485    0.4201 H   0  0  0  0  0  0  0  0  0  0  0  0
    1.0266    2.5303   -0.5848 H   0  0  0  0  0  0  0  0  0  0  0  0
   -2.6628    2.1126   -0.5082 H   0  0  0  0  0  0  0  0  0  0  0  0
   -0.3519    0.5447   -0.4696 H   0  0  0  0  0  0  0  0  0  0  0  0
   -1.0251   -1.8658    0.3533 H   0  0  0  0  0  0  0  0  0  0  0  0
   -0.8296   -0.9205    1.6413 H   0  0  0  0  0  0  0  0  0  0  0  0
   -3.0292   -1.2406   -2.7615 H   0  0  0  0  0  0  0  0  0  0  0  0
   -4.4252   -1.3771   -0.6947 H   0  0  0  0  0  0  0  0  0  0  0  0
   -3.6037    0.0794   -0.1298 H   0  0  0  0  0  0  0  0  0  0  0  0
   -5.2347    2.3672   -1.8448 H   0  0  0  0  0  0  0  0  0  0  0  0
   -2.7156    1.2296    1.7013 H   0  0  0  0  0  0  0  0  0  0  0  0
   -3.6614   -0.3749    1.8381 H   0  0  0  0  0  0  0  0  0  0  0  0
  1 21  1  0  0  0  0
  1 22  1  0  0  0  0
  2  1  1  0  0  0  0
  2  3  1  0  0  0  0
  2 17  1  0  0  0  0
  2 23  1  1  0  0  0
  3  4  1  0  0  0  0
  3 24  1  0  0  0  0
  3 25  1  0  0  0  0
  4  5  1  0  0  0  0
  4 26  1  0  0  0  0
  4 27  1  0  0  0  0
  5  6  2  0  0  0  0
  5  7  1  0  0  0  0
  7  8  1  0  0  0  0
  7 28  1  0  0  0  0
  8  9  1  0  0  0  0
  8 10  1  0  0  0  0
  8 29  1  6  0  0  0
  9 20  1  0  0  0  0
  9 30  1  0  0  0  0
  9 31  1  0  0  0  0
 10 11  2  0  0  0  0
 10 12  1  0  0  0  0
 12 13  1  0  0  0  0
 12 32  1  0  0  0  0
 13 14  1  0  0  0  0
 13 33  1  0  0  0  0
 13 34  1  0  0  0  0
 14 15  2  0  0  0  0
 14 16  1  0  0  0  0
 16 35  1  0  0  0  0
 17 18  2  0  0  0  0
 17 19  1  0  0  0  0
 19 36  1  0  0  0  0
 20 37  1  0  0  0  0
M  END
>  <DRUGBANK_ID>
DB00143

>  <SECONDARY_ACCESSION_NUMBERS>
NUTR00029; EXPT01650

>  <COMMON_NAME>
Glutathione

>  <CAS_NUMBER>
70-18-8

>  <UNII>
GAN16C9B8O

>  <SYNONYMS>
5-L-Glutamyl-L-cysteinylglycine; AEC GLUTATHIONE; gamma-L-Glutamyl-L-cysteinyl-glycine; Glutathion; Glutathione; Glutathione-SH; GLYCINE, L-.GAMMA.-GLUTAMYL-L-CYSTEINYL-; GSH; L-GLUTATHIONE REDUCED; Liposomal glutathione; N-(N-gamma-L-Glutamyl-L-cysteinyl)glycine; Reduced glutathione; REDUCED L-GLUTATHIONE

$$$$
