
 OpenBabel10282417153D

 42 43  0  0  0  0  0  0  0  0999 V2000
   -0.2482    1.3144   -0.2880 C   0  0  0  0  0  0  0  0  0  0  0  0
   -1.1690    0.1379   -0.3966 C   0  0  0  0  0  0  0  0  0  0  0  0
   -0.5071   -1.1820   -0.2475 C   0  0  0  0  0  0  0  0  0  0  0  0
    0.8067   -1.3217   -0.1206 C   0  0  0  0  0  0  0  0  0  0  0  0
    1.7270   -0.1505   -0.1209 C   0  0  0  0  0  0  0  0  0  0  0  0
    1.1181    1.0866   -0.2187 N   0  0  0  0  0  0  0  0  0  0  0  0
   -2.9651   -0.2144   -0.3579 C   0  0  0  0  0  0  0  0  0  0  0  0
   -3.3575   -1.4013   -0.3294 O   0  0  0  0  0  0  0  0  0  0  0  0
   -4.0405    0.6953   -0.1930 N   0  0  0  0  0  0  0  0  0  0  0  0
    2.9098   -0.2902    0.0182 O   0  0  0  0  0  0  0  0  0  0  0  0
    1.5282   -2.6106    0.0147 C   0  0  0  0  0  0  0  0  0  0  0  0
    2.0277    2.1990    0.0194 C   0  0  0  0  0  0  0  0  0  0  0  0
   -3.9606    2.0571    0.0010 O   0  0  0  0  0  0  0  0  0  0  0  0
   -2.6252    2.1813   -0.0438 C   0  0  0  0  0  0  0  0  0  0  0  0
   -1.9989    1.4768    1.6123 C   0  0  0  0  0  0  0  0  0  0  0  0
   -2.4490    0.2284    2.0852 O   0  0  0  0  0  0  0  0  0  0  0  0
   -0.4995    2.6961    0.2032 N   0  0  0  0  0  0  0  0  0  0  0  0
   -0.3932    4.0732   -0.1326 C   0  0  0  0  0  0  0  0  0  0  0  0
    0.2594    4.4223   -1.2717 C   0  0  0  0  0  0  0  0  0  0  0  0
    1.0338    5.5421   -1.1958 C   0  0  0  0  0  0  0  0  0  0  0  0
    1.1159    6.2474    0.0247 C   0  0  0  0  0  0  0  0  0  0  0  0
    0.3531    5.9109    1.1449 C   0  0  0  0  0  0  0  0  0  0  0  0
   -0.6002    4.9513    0.9739 C   0  0  0  0  0  0  0  0  0  0  0  0
    2.3246    7.9079    0.1353 I   0  0  0  0  0  0  0  0  0  0  0  0
    0.3874    3.5128   -2.2445 F   0  0  0  0  0  0  0  0  0  0  0  0
   -1.1461   -2.0674   -0.1316 H   0  0  0  0  0  0  0  0  0  0  0  0
   -5.0097    0.4309   -0.0806 H   0  0  0  0  0  0  0  0  0  0  0  0
    2.1841   -2.6990   -0.8560 H   0  0  0  0  0  0  0  0  0  0  0  0
    2.1365   -2.6215    0.9251 H   0  0  0  0  0  0  0  0  0  0  0  0
    0.8493   -3.4652    0.0299 H   0  0  0  0  0  0  0  0  0  0  0  0
    2.6104    2.0486    0.9255 H   0  0  0  0  0  0  0  0  0  0  0  0
    2.5741    2.3941   -0.9001 H   0  0  0  0  0  0  0  0  0  0  0  0
    1.5640    3.1335    0.2762 H   0  0  0  0  0  0  0  0  0  0  0  0
   -2.3081    1.7189   -1.0457 H   0  0  0  0  0  0  0  0  0  0  0  0
   -2.4006    3.1828   -0.4321 H   0  0  0  0  0  0  0  0  0  0  0  0
   -0.8908    1.2926    1.7483 H   0  0  0  0  0  0  0  0  0  0  0  0
   -2.1431    2.2360    2.3717 H   0  0  0  0  0  0  0  0  0  0  0  0
   -3.3759    0.1724    1.8362 H   0  0  0  0  0  0  0  0  0  0  0  0
   -1.1260    2.8876    0.9626 H   0  0  0  0  0  0  0  0  0  0  0  0
    1.6614    5.7501   -2.0473 H   0  0  0  0  0  0  0  0  0  0  0  0
    0.5196    6.3117    2.1448 H   0  0  0  0  0  0  0  0  0  0  0  0
   -1.2865    4.7272    1.7995 H   0  0  0  0  0  0  0  0  0  0  0  0
  1  2  2  0  0  0  0
  1  6  1  0  0  0  0
  1 17  1  0  0  0  0
  2  3  1  0  0  0  0
  2  7  1  0  0  0  0
  3  4  2  0  0  0  0
  3 26  1  0  0  0  0
  4  5  1  0  0  0  0
  4 11  1  0  0  0  0
  5  6  1  0  0  0  0
  5 10  2  0  0  0  0
  6 12  1  0  0  0  0
  7  8  2  0  0  0  0
  7  9  1  0  0  0  0
  9 13  1  0  0  0  0
  9 27  1  0  0  0  0
 11 28  1  0  0  0  0
 11 29  1  0  0  0  0
 11 30  1  0  0  0  0
 12 31  1  0  0  0  0
 12 32  1  0  0  0  0
 12 33  1  0  0  0  0
 13 14  1  0  0  0  0
 14 15  1  0  0  0  0
 14 34  1  0  0  0  0
 14 35  1  0  0  0  0
 15 16  1  0  0  0  0
 15 36  1  0  0  0  0
 15 37  1  0  0  0  0
 16 38  1  0  0  0  0
 17 18  1  0  0  0  0
 17 39  1  0  0  0  0
 18 19  1  0  0  0  0
 18 23  2  0  0  0  0
 19 20  2  0  0  0  0
 19 25  1  0  0  0  0
 20 21  1  0  0  0  0
 20 40  1  0  0  0  0
 21 22  2  0  0  0  0
 21 24  1  0  0  0  0
 22 23  1  0  0  0  0
 22 41  1  0  0  0  0
 23 42  1  0  0  0  0
M  END
>  <DRUGBANK_ID>
DB06061

>  <COMMON_NAME>
AZD-8330

>  <CAS_NUMBER>
869357-68-6

>  <UNII>
G4990BOZ66

$$$$
