
 OpenBabel10282417153D

 46 49  0  0  0  0  0  0  0  0999 V2000
   -1.6569   -1.2507   -0.0076 C   0  0  0  0  0  0  0  0  0  0  0  0
   -2.5877   -0.2258   -0.0319 C   0  0  0  0  0  0  0  0  0  0  0  0
   -2.1597    1.0850   -0.1826 C   0  0  0  0  0  0  0  0  0  0  0  0
   -0.7885    1.4604   -0.3399 C   0  0  0  0  0  0  0  0  0  0  0  0
   -0.4436    2.8785   -0.5724 C   0  0  0  0  0  0  0  0  0  0  0  0
    0.8240   -1.6584    0.0077 N   0  0  0  0  0  0  0  0  0  0  0  0
   -0.3041   -0.8867   -0.0375 C   0  0  0  0  0  0  0  0  0  0  0  0
    0.1588    0.4273   -0.1643 C   0  0  0  0  0  0  0  0  0  0  0  0
    1.5760    0.3034   -0.0536 C   0  0  0  0  0  0  0  0  0  0  0  0
    1.9699   -0.9648    0.0275 N   0  0  0  0  0  0  0  0  0  0  0  0
    0.5242    3.4504   -1.4018 C   0  0  0  0  0  0  0  0  0  0  0  0
   -1.2694    3.8008    0.0343 C   0  0  0  0  0  0  0  0  0  0  0  0
   -1.1085    5.1700   -0.0468 C   0  0  0  0  0  0  0  0  0  0  0  0
    0.0659    5.6933   -0.4942 C   0  0  0  0  0  0  0  0  0  0  0  0
    0.7963    4.8583   -1.3484 C   0  0  0  0  0  0  0  0  0  0  0  0
   -1.0076    6.1553    2.6038 C   0  0  0  0  0  0  0  0  0  0  0  0
   -0.0368    5.1494    2.6821 C   0  0  0  0  0  0  0  0  0  0  0  0
   -0.4080    3.8235    2.8933 C   0  0  0  0  0  0  0  0  0  0  0  0
   -1.7543    3.4912    3.0719 C   0  0  0  0  0  0  0  0  0  0  0  0
   -2.7445    4.4854    3.0755 C   0  0  0  0  0  0  0  0  0  0  0  0
   -2.3669    5.8259    2.8454 C   0  0  0  0  0  0  0  0  0  0  0  0
    0.4696    6.9802   -0.0638 N   0  0  0  0  0  0  0  0  0  0  0  0
    0.0960    7.7942    0.9899 C   0  0  0  0  0  0  0  0  0  0  0  0
    0.4745    8.9577    0.9818 O   0  0  0  0  0  0  0  0  0  0  0  0
    1.2259    5.3983    2.3041 F   0  0  0  0  0  0  0  0  0  0  0  0
   -0.7313    7.4135    2.0186 N   0  0  0  0  0  0  0  0  0  0  0  0
    2.4395    1.3242   -0.0283 N   0  0  0  0  0  0  0  0  0  0  0  0
   -4.1745    4.0670    3.2738 C   0  0  0  0  0  0  0  0  0  0  0  0
   -1.9789   -2.2851    0.0458 H   0  0  0  0  0  0  0  0  0  0  0  0
   -3.6534   -0.4360    0.0281 H   0  0  0  0  0  0  0  0  0  0  0  0
   -2.9401    1.8461   -0.1897 H   0  0  0  0  0  0  0  0  0  0  0  0
    0.8707   -2.6698    0.0319 H   0  0  0  0  0  0  0  0  0  0  0  0
    1.0899    2.8138   -2.0806 H   0  0  0  0  0  0  0  0  0  0  0  0
   -2.0318    3.4400    0.7066 H   0  0  0  0  0  0  0  0  0  0  0  0
   -1.8505    5.7959    0.4146 H   0  0  0  0  0  0  0  0  0  0  0  0
    1.5812    5.2630   -1.9809 H   0  0  0  0  0  0  0  0  0  0  0  0
    0.3174    3.0426    2.6774 H   0  0  0  0  0  0  0  0  0  0  0  0
   -2.0489    2.4423    2.9962 H   0  0  0  0  0  0  0  0  0  0  0  0
   -3.1464    6.5591    2.6260 H   0  0  0  0  0  0  0  0  0  0  0  0
    1.1949    7.4293   -0.6108 H   0  0  0  0  0  0  0  0  0  0  0  0
   -1.0406    8.2099    2.5677 H   0  0  0  0  0  0  0  0  0  0  0  0
    2.1565    2.2900    0.0789 H   0  0  0  0  0  0  0  0  0  0  0  0
    3.4325    1.1457    0.0401 H   0  0  0  0  0  0  0  0  0  0  0  0
   -4.4870    4.4316    4.2538 H   0  0  0  0  0  0  0  0  0  0  0  0
   -4.8583    4.4367    2.5017 H   0  0  0  0  0  0  0  0  0  0  0  0
   -4.2666    2.9725    3.2849 H   0  0  0  0  0  0  0  0  0  0  0  0
  1  2  1  0  0  0  0
  1 29  1  0  0  0  0
  2  3  2  0  0  0  0
  2 30  1  0  0  0  0
  3  4  1  0  0  0  0
  3 31  1  0  0  0  0
  4  5  1  0  0  0  0
  5 12  1  0  0  0  0
  6  7  1  0  0  0  0
  6 32  1  0  0  0  0
  7  1  2  0  0  0  0
  7  8  1  0  0  0  0
  8  4  2  0  0  0  0
  8  9  1  0  0  0  0
  9 10  2  0  0  0  0
  9 27  1  0  0  0  0
 10  6  1  0  0  0  0
 11  5  2  0  0  0  0
 11 33  1  0  0  0  0
 12 13  2  0  0  0  0
 12 34  1  0  0  0  0
 13 14  1  0  0  0  0
 13 35  1  0  0  0  0
 14 15  2  0  0  0  0
 15 11  1  0  0  0  0
 15 36  1  0  0  0  0
 16 17  2  0  0  0  0
 16 26  1  0  0  0  0
 17 18  1  0  0  0  0
 18 19  2  0  0  0  0
 18 37  1  0  0  0  0
 19 20  1  0  0  0  0
 19 38  1  0  0  0  0
 20 21  2  0  0  0  0
 20 28  1  0  0  0  0
 21 16  1  0  0  0  0
 21 39  1  0  0  0  0
 22 14  1  0  0  0  0
 22 40  1  0  0  0  0
 23 22  1  0  0  0  0
 23 24  2  0  0  0  0
 23 26  1  0  0  0  0
 25 17  1  0  0  0  0
 26 41  1  0  0  0  0
 27 42  1  0  0  0  0
 27 43  1  0  0  0  0
 28 44  1  0  0  0  0
 28 45  1  0  0  0  0
 28 46  1  0  0  0  0
M  END
>  <DRUGBANK_ID>
DB06080

>  <COMMON_NAME>
Linifanib

>  <CAS_NUMBER>
796967-16-3

>  <UNII>
CO93X137CW

>  <SYNONYMS>
1-(4-(3-AMINO-1H-INDAZOL-4-YL)PHENYL)-3-(2-FLUORO-5-METHYLPHENYL)UREA; Linifanib; N-[4-(3-amino-1H-indazol-4-yl)phenyl]-N1-(2-fluoro-5-methylphenyl) urea; UREA, N-(4-(3-AMINO-1H-INDAZOL-4-YL)PHENYL)-N'-(2-FLUORO-5-METHYLPHENYL)-

$$$$
