
 OpenBabel10282417123D

 58 61  0  0  0  0  0  0  0  0999 V2000
   -3.0336   -0.2885   -0.0120 Cl  0  0  0  0  0  0  0  0  0  0  0  0
   -1.3608    0.1003    0.0254 C   0  0  0  0  0  0  0  0  0  0  0  0
   -0.4471   -0.9328    0.0454 C   0  0  0  0  0  0  0  0  0  0  0  0
    0.9036   -0.5894    0.0306 C   0  0  0  0  0  0  0  0  0  0  0  0
    1.3421    0.7228    0.0012 C   0  0  0  0  0  0  0  0  0  0  0  0
    2.7236    0.6846   -0.0462 N   0  0  0  0  0  0  0  0  0  0  0  0
    3.1637   -0.6341   -0.0318 C   0  0  0  0  0  0  0  0  0  0  0  0
    2.0302   -1.3953    0.0471 C   0  0  0  0  0  0  0  0  0  0  0  0
    4.5563   -1.0041   -0.0659 C   0  0  0  0  0  0  0  0  0  0  0  0
    5.4455   -0.1713   -0.1512 O   0  0  0  0  0  0  0  0  0  0  0  0
    4.9267   -2.3327    0.0610 N   0  0  0  0  0  0  0  0  0  0  0  0
    4.2416   -3.6726    0.1284 C   0  0  0  0  0  0  0  0  0  0  0  0
    4.4125   -4.7955   -0.9347 C   0  0  0  0  0  0  0  0  0  0  0  0
    5.6977   -5.0238   -1.4374 O   0  0  0  0  0  0  0  0  0  0  0  0
    6.6148   -3.9634   -1.5467 C   0  0  0  0  0  0  0  0  0  0  0  0
    6.3324   -2.9173   -2.6339 C   0  0  0  0  0  0  0  0  0  0  0  0
    5.0735   -2.2877   -2.6205 O   0  0  0  0  0  0  0  0  0  0  0  0
    3.8928   -2.9893   -2.9088 C   0  0  0  0  0  0  0  0  0  0  0  0
    3.9476   -4.1649   -3.9421 C   0  0  0  0  0  0  0  0  0  0  0  0
    5.1314   -5.0849   -4.0460 N   0  0  0  0  0  0  0  0  0  0  0  0
    5.3506   -6.4456   -3.8682 C   0  0  0  0  0  0  0  0  0  0  0  0
    6.4709   -6.8766   -3.8512 O   0  0  0  0  0  0  0  0  0  0  0  0
    4.1778   -7.2722   -3.7767 C   0  0  0  0  0  0  0  0  0  0  0  0
    3.0219   -7.1723   -4.5040 C   0  0  0  0  0  0  0  0  0  0  0  0
    2.1273   -8.1503   -4.0414 C   0  0  0  0  0  0  0  0  0  0  0  0
    2.8071   -8.9163   -3.0945 C   0  0  0  0  0  0  0  0  0  0  0  0
    4.0738   -8.3831   -2.9734 N   0  0  0  0  0  0  0  0  0  0  0  0
    2.2137  -10.0054   -2.4518 C   0  0  0  0  0  0  0  0  0  0  0  0
    0.8806  -10.2860   -2.7748 C   0  0  0  0  0  0  0  0  0  0  0  0
    0.1825   -9.5095   -3.6986 C   0  0  0  0  0  0  0  0  0  0  0  0
   -1.4678   -9.8594   -4.0372 Cl  0  0  0  0  0  0  0  0  0  0  0  0
    0.7936   -8.4437   -4.3529 C   0  0  0  0  0  0  0  0  0  0  0  0
    0.4322    1.7759    0.0175 C   0  0  0  0  0  0  0  0  0  0  0  0
   -0.9320    1.4289    0.0251 C   0  0  0  0  0  0  0  0  0  0  0  0
   -0.7408   -1.9786    0.0584 H   0  0  0  0  0  0  0  0  0  0  0  0
    3.3326    1.4941   -0.0870 H   0  0  0  0  0  0  0  0  0  0  0  0
    1.8878   -2.4495    0.1018 H   0  0  0  0  0  0  0  0  0  0  0  0
    5.9271   -2.2852    0.1773 H   0  0  0  0  0  0  0  0  0  0  0  0
    4.3922   -4.0784    1.1203 H   0  0  0  0  0  0  0  0  0  0  0  0
    3.2056   -3.4605    0.0193 H   0  0  0  0  0  0  0  0  0  0  0  0
    3.3790   -4.9685   -1.3439 H   0  0  0  0  0  0  0  0  0  0  0  0
    4.2780   -5.8671   -0.7661 H   0  0  0  0  0  0  0  0  0  0  0  0
    6.7861   -3.5447   -0.5635 H   0  0  0  0  0  0  0  0  0  0  0  0
    7.5825   -4.4206   -1.7540 H   0  0  0  0  0  0  0  0  0  0  0  0
    7.0741   -2.1233   -2.5330 H   0  0  0  0  0  0  0  0  0  0  0  0
    6.5336   -3.2673   -3.6367 H   0  0  0  0  0  0  0  0  0  0  0  0
    3.3865   -2.0255   -3.0397 H   0  0  0  0  0  0  0  0  0  0  0  0
    2.9010   -3.1266   -2.3997 H   0  0  0  0  0  0  0  0  0  0  0  0
    3.0939   -4.8025   -3.6980 H   0  0  0  0  0  0  0  0  0  0  0  0
    3.8190   -3.7314   -4.9267 H   0  0  0  0  0  0  0  0  0  0  0  0
    6.0389   -4.7270   -4.2879 H   0  0  0  0  0  0  0  0  0  0  0  0
    2.8384   -6.4235   -5.2648 H   0  0  0  0  0  0  0  0  0  0  0  0
    4.7931   -8.7166   -2.3444 H   0  0  0  0  0  0  0  0  0  0  0  0
    2.7550  -10.6099   -1.7319 H   0  0  0  0  0  0  0  0  0  0  0  0
    0.3858  -11.1242   -2.2921 H   0  0  0  0  0  0  0  0  0  0  0  0
    0.2587   -7.8412   -5.0799 H   0  0  0  0  0  0  0  0  0  0  0  0
    0.7538    2.8099    0.0143 H   0  0  0  0  0  0  0  0  0  0  0  0
   -1.6741    2.2194    0.0242 H   0  0  0  0  0  0  0  0  0  0  0  0
  1  2  1  0  0  0  0
  2  3  2  0  0  0  0
  2 34  1  0  0  0  0
  3  4  1  0  0  0  0
  3 35  1  0  0  0  0
  4  5  2  0  0  0  0
  4  8  1  0  0  0  0
  5  6  1  0  0  0  0
  5 33  1  0  0  0  0
  6  7  1  0  0  0  0
  6 36  1  0  0  0  0
  7  8  2  0  0  0  0
  7  9  1  0  0  0  0
  8 37  1  0  0  0  0
  9 10  2  0  0  0  0
  9 11  1  0  0  0  0
 11 12  1  0  0  0  0
 11 38  1  0  0  0  0
 12 13  1  0  0  0  0
 12 39  1  0  0  0  0
 12 40  1  0  0  0  0
 13 14  1  0  0  0  0
 13 41  1  0  0  0  0
 13 42  1  0  0  0  0
 14 15  1  0  0  0  0
 15 16  1  0  0  0  0
 15 43  1  0  0  0  0
 15 44  1  0  0  0  0
 16 17  1  0  0  0  0
 16 45  1  0  0  0  0
 16 46  1  0  0  0  0
 17 18  1  0  0  0  0
 18 19  1  0  0  0  0
 18 47  1  0  0  0  0
 18 48  1  0  0  0  0
 19 20  1  0  0  0  0
 19 49  1  0  0  0  0
 19 50  1  0  0  0  0
 20 21  1  0  0  0  0
 20 51  1  0  0  0  0
 21 22  2  0  0  0  0
 21 23  1  0  0  0  0
 23 24  2  0  0  0  0
 23 27  1  0  0  0  0
 24 25  1  0  0  0  0
 24 52  1  0  0  0  0
 25 26  2  0  0  0  0
 25 32  1  0  0  0  0
 26 27  1  0  0  0  0
 26 28  1  0  0  0  0
 27 53  1  0  0  0  0
 28 29  2  0  0  0  0
 28 54  1  0  0  0  0
 29 30  1  0  0  0  0
 29 55  1  0  0  0  0
 30 31  1  0  0  0  0
 30 32  2  0  0  0  0
 32 56  1  0  0  0  0
 33 34  2  0  0  0  0
 33 57  1  0  0  0  0
 34 58  1  0  0  0  0
M  END
>  <DRUGBANK_ID>
DB02089

>  <SECONDARY_ACCESSION_NUMBERS>
EXPT00994

>  <COMMON_NAME>
CP-526423

>  <SYNONYMS>
1,2-bis(2-(5-chloroindole-2-carbonylamino)ethoxy)ethane; bis[5-chloro-1h-indol-2-yl-carbonyl-aminoethyl]-ethylene glycol; N,N'-[1,2-Ethanediylbis(oxy-2,1-ethanediyl)]bis(5-chloro-1H-indole-2-carboxamide)

$$$$
