5ID
 OpenBabel10282417143D

 33 35  0  0  0  0  0  0  0  0999 V2000
    0.9705   -0.0218    0.0029 O   0  0  0  0  0  0  0  0  0  0  0  0
    0.5835    1.2000   -0.6209 C   0  0  0  0  0  0  0  0  0  0  0  0
    1.1767    2.4060    0.1218 C   0  0  1  0  0  0  0  0  0  0  0  0
    2.4932    2.0262    0.5976 O   0  0  0  0  0  0  0  0  0  0  0  0
    3.4901    2.7227   -0.1729 C   0  0  1  0  0  0  0  0  0  0  0  0
    4.4954    1.7690   -0.6180 N   0  0  0  0  0  0  0  0  0  0  0  0
    4.2632    0.6873   -1.4371 C   0  0  0  0  0  0  0  0  0  0  0  0
    5.4827    0.1481   -1.7549 C   0  0  0  0  0  0  0  0  0  0  0  0
    6.4981    0.8787   -1.0918 C   0  0  0  0  0  0  0  0  0  0  0  0
    7.8939    0.8505   -1.0021 C   0  0  0  0  0  0  0  0  0  0  0  0
    8.5209    1.7562   -0.2287 N   0  0  0  0  0  0  0  0  0  0  0  0
    7.7685    2.6659    0.4233 C   0  0  0  0  0  0  0  0  0  0  0  0
    6.4300    2.8078    0.4033 N   0  0  0  0  0  0  0  0  0  0  0  0
    5.8451    1.8805   -0.3725 C   0  0  0  0  0  0  0  0  0  0  0  0
    8.6639   -0.0695   -1.6790 N   0  0  0  0  0  0  0  0  0  0  0  0
    2.7736    3.4159   -1.3354 C   0  0  2  0  0  0  0  0  0  0  0  0
    3.4094    4.6220   -1.7415 O   0  0  0  0  0  0  0  0  0  0  0  0
    1.3695    3.6275   -0.7827 C   0  0  2  0  0  0  0  0  0  0  0  0
    1.3164    4.8553   -0.0444 O   0  0  0  0  0  0  0  0  0  0  0  0
    5.7206   -1.4294   -3.0119 I   0  0  0  0  0  0  0  0  0  0  0  0
    0.5681    2.6374    1.0038 H   0  0  0  0  0  0  0  0  0  0  0  0
    3.9667    3.4488    0.4938 H   0  0  0  0  0  0  0  0  0  0  0  0
    2.7148    2.7650   -2.2143 H   0  0  0  0  0  0  0  0  0  0  0  0
    0.6130    3.6973   -1.5713 H   0  0  0  0  0  0  0  0  0  0  0  0
    1.9167    0.0723    0.2344 H   0  0  0  0  0  0  0  0  0  0  0  0
    0.9251    1.1564   -1.6584 H   0  0  0  0  0  0  0  0  0  0  0  0
   -0.5097    1.2502   -0.6306 H   0  0  0  0  0  0  0  0  0  0  0  0
    3.2671    0.4159   -1.7588 H   0  0  0  0  0  0  0  0  0  0  0  0
    8.3152    3.3727    1.0401 H   0  0  0  0  0  0  0  0  0  0  0  0
    8.2204   -0.7588   -2.2648 H   0  0  0  0  0  0  0  0  0  0  0  0
    9.6625   -0.0385   -1.5665 H   0  0  0  0  0  0  0  0  0  0  0  0
    3.3196    5.2694   -1.0181 H   0  0  0  0  0  0  0  0  0  0  0  0
    1.9063    4.8046    0.7266 H   0  0  0  0  0  0  0  0  0  0  0  0
  1  2  1  0  0  0  0
  1 25  1  0  0  0  0
  2 26  1  0  0  0  0
  2 27  1  0  0  0  0
  3  2  1  0  0  0  0
  3  4  1  0  0  0  0
  3 18  1  0  0  0  0
  3 21  1  1  0  0  0
  4  5  1  0  0  0  0
  5 16  1  0  0  0  0
  5 22  1  1  0  0  0
  5  6  1  0  0  0  0
  6  7  1  0  0  0  0
  6 14  1  0  0  0  0
  7  8  2  0  0  0  0
  7 28  1  0  0  0  0
  8  9  1  0  0  0  0
  8 20  1  0  0  0  0
  9 10  2  0  0  0  0
  9 14  1  0  0  0  0
 10 11  1  0  0  0  0
 10 15  1  0  0  0  0
 11 12  2  0  0  0  0
 12 13  1  0  0  0  0
 12 29  1  0  0  0  0
 13 14  2  0  0  0  0
 15 30  1  0  0  0  0
 15 31  1  0  0  0  0
 16 17  1  0  0  0  0
 16 18  1  0  0  0  0
 16 23  1  6  0  0  0
 17 32  1  0  0  0  0
 18 19  1  0  0  0  0
 18 24  1  6  0  0  0
 19 33  1  0  0  0  0
M  END
>  <DRUGBANK_ID>
DB04604

>  <COMMON_NAME>
5-iodotubercidin

>  <CAS_NUMBER>
24386-93-4

$$$$
