
 OpenBabel10282417213D

 62 65  0  0  0  0  0  0  0  0999 V2000
   -1.6161    0.0554   -0.6459 C   0  0  0  0  0  0  0  0  0  0  0  0
   -0.4556   -0.6456   -0.7666 C   0  0  0  0  0  0  0  0  0  0  0  0
   -1.1840   -1.7617   -0.1533 C   0  0  0  0  0  0  0  0  0  0  0  0
   -1.8364   -2.5263   -1.2563 C   0  0  0  0  0  0  0  0  0  0  0  0
   -2.9872   -1.9446   -1.6745 C   0  0  0  0  0  0  0  0  0  0  0  0
   -4.0069   -2.7267   -2.5105 C   0  0  0  0  0  0  0  0  0  0  0  0
   -3.2884   -0.6060   -1.0144 C   0  0  2  0  0  0  0  0  0  0  0  0
   -6.8335   -0.2929    0.8558 C   0  0  0  0  0  0  0  0  0  0  0  0
   -7.9010   -0.9307    0.0142 C   0  0  1  0  0  0  0  0  0  0  0  0
   -8.1314   -1.8558   -0.9314 C   0  0  1  0  0  0  0  0  0  0  0  0
   -9.6392   -0.6932   -0.2398 C   0  0  0  0  0  0  0  0  0  0  0  0
   -9.0342   -1.8644    1.0152 C   0  0  1  0  0  0  0  0  0  0  0  0
   -8.2159   -0.0989   -1.6580 C   0  0  0  0  0  0  0  0  0  0  0  0
   -3.5020    0.7638   -1.6131 C   0  0  0  0  0  0  0  0  0  0  0  0
   -8.2610   -2.9521   -0.7369 H   0  0  0  0  0  0  0  0  0  0  0  0
   -1.6016   -1.6687    1.0051 O   0  0  0  0  0  0  0  0  0  0  0  0
   -4.9671   -1.0184   -0.4419 C   0  0  1  0  0  0  0  0  0  0  0  0
   -6.2284   -1.8361   -1.4237 C   0  0  1  0  0  0  0  0  0  0  0  0
   -6.2533   -1.4183   -2.4353 H   0  0  0  0  0  0  0  0  0  0  0  0
   -5.3906   -3.1462   -1.7914 C   0  0  0  0  0  0  0  0  0  0  0  0
   -9.6313   -2.9637    3.2170 C   0  0  0  0  0  0  0  0  0  0  0  0
   -8.5476   -2.6034    2.2325 C   0  0  0  0  0  0  0  0  0  0  0  0
   -4.7865   -1.9515    0.5708 F   0  0  0  0  0  0  0  0  0  0  0  0
   -5.6319    0.1810    0.1590 C   0  0  1  0  0  0  0  0  0  0  0  0
   -5.9876    1.2603   -0.7000 O   0  0  0  0  0  0  0  0  0  0  0  0
   -9.9000   -0.7512    1.3158 C   0  0  1  0  0  0  0  0  0  0  0  0
   -9.2833    0.3015    2.2529 C   0  0  0  0  0  0  0  0  0  0  0  0
   -9.9663   -2.8035    0.2568 O   0  0  0  0  0  0  0  0  0  0  0  0
   -7.3826   -2.9757    2.3777 O   0  0  0  0  0  0  0  0  0  0  0  0
   -9.8368   -4.3475    3.2098 O   0  0  0  0  0  0  0  0  0  0  0  0
  -10.3409   -5.0306    1.7025 P   0  0  0  0  0  0  0  0  0  0  0  0
  -11.5617   -3.9641    1.5570 O   0  0  0  0  0  0  0  0  0  0  0  0
   -9.0050   -4.8311    1.0247 O   0  0  0  0  0  0  0  0  0  0  0  0
  -10.8451   -5.7136    0.1951 O   0  0  0  0  0  0  0  0  0  0  0  0
   -1.3789    0.8550    0.0678 H   0  0  0  0  0  0  0  0  0  0  0  0
   -0.0024   -0.8882   -1.7404 H   0  0  0  0  0  0  0  0  0  0  0  0
   -1.2030   -2.9488   -2.0249 H   0  0  0  0  0  0  0  0  0  0  0  0
   -3.5062   -3.6567   -2.8200 H   0  0  0  0  0  0  0  0  0  0  0  0
   -4.2325   -2.1954   -3.4429 H   0  0  0  0  0  0  0  0  0  0  0  0
   -7.2439    0.6265    1.2430 H   0  0  0  0  0  0  0  0  0  0  0  0
   -6.5584   -0.9195    1.7039 H   0  0  0  0  0  0  0  0  0  0  0  0
  -10.6567   -0.6623   -0.7083 H   0  0  0  0  0  0  0  0  0  0  0  0
   -9.5092    0.4290   -0.2525 H   0  0  0  0  0  0  0  0  0  0  0  0
   -7.4526   -0.1934   -2.4169 H   0  0  0  0  0  0  0  0  0  0  0  0
   -9.0799   -0.5951   -2.2229 H   0  0  0  0  0  0  0  0  0  0  0  0
   -8.4764    0.9512   -1.5717 H   0  0  0  0  0  0  0  0  0  0  0  0
   -4.2583    0.7281   -2.3751 H   0  0  0  0  0  0  0  0  0  0  0  0
   -3.7530    1.3999   -0.7421 H   0  0  0  0  0  0  0  0  0  0  0  0
   -2.6336    1.2855   -2.0294 H   0  0  0  0  0  0  0  0  0  0  0  0
   -5.1216   -3.7219   -0.8947 H   0  0  0  0  0  0  0  0  0  0  0  0
   -5.9245   -3.8431   -2.4535 H   0  0  0  0  0  0  0  0  0  0  0  0
   -9.3421   -2.5954    4.2019 H   0  0  0  0  0  0  0  0  0  0  0  0
  -10.5889   -2.4866    2.9992 H   0  0  0  0  0  0  0  0  0  0  0  0
   -4.9844    0.5998    0.9220 H   0  0  0  0  0  0  0  0  0  0  0  0
   -6.5248    0.9614   -1.4382 H   0  0  0  0  0  0  0  0  0  0  0  0
  -10.9300   -0.9691    1.6146 H   0  0  0  0  0  0  0  0  0  0  0  0
   -9.9438    0.6124    3.0650 H   0  0  0  0  0  0  0  0  0  0  0  0
   -8.3992   -0.0832    2.7825 H   0  0  0  0  0  0  0  0  0  0  0  0
   -9.0366    1.2152    1.7055 H   0  0  0  0  0  0  0  0  0  0  0  0
  -10.8071   -2.4153   -0.0561 H   0  0  0  0  0  0  0  0  0  0  0  0
  -12.3805   -4.3128    1.9544 H   0  0  0  0  0  0  0  0  0  0  0  0
  -10.3910   -5.1109   -0.4335 H   0  0  0  0  0  0  0  0  0  0  0  0
  1  7  1  0  0  0  0
  1 35  1  0  0  0  0
  2  1  2  0  0  0  0
  2 36  1  0  0  0  0
  3  2  1  0  0  0  0
  3  4  1  0  0  0  0
  3 16  2  0  0  0  0
  4  5  2  0  0  0  0
  4 37  1  0  0  0  0
  5  7  1  0  0  0  0
  6  5  1  0  0  0  0
  6 20  1  0  0  0  0
  6 38  1  0  0  0  0
  6 39  1  0  0  0  0
  7 17  1  0  0  0  0
  7 14  1  6  0  0  0
  8  9  1  0  0  0  0
  8 40  1  0  0  0  0
  8 41  1  0  0  0  0
  9 13  1  6  0  0  0
 10  9  1  0  0  0  0
 10 15  1  1  0  0  0
 11 10  1  0  0  0  0
 11 42  1  0  0  0  0
 11 43  1  0  0  0  0
 12  9  1  0  0  0  0
 12 28  1  6  0  0  0
 12 22  1  0  0  0  0
 13 44  1  0  0  0  0
 13 45  1  0  0  0  0
 13 46  1  0  0  0  0
 14 47  1  0  0  0  0
 14 48  1  0  0  0  0
 14 49  1  0  0  0  0
 17 23  1  1  0  0  0
 18 10  1  0  0  0  0
 18 17  1  0  0  0  0
 18 19  1  6  0  0  0
 20 18  1  0  0  0  0
 20 50  1  0  0  0  0
 20 51  1  0  0  0  0
 21 30  1  0  0  0  0
 21 22  1  0  0  0  0
 21 52  1  0  0  0  0
 21 53  1  0  0  0  0
 22 29  2  0  0  0  0
 24  8  1  0  0  0  0
 24 17  1  0  0  0  0
 24 25  1  0  0  0  0
 24 54  1  1  0  0  0
 25 55  1  0  0  0  0
 26 11  1  0  0  0  0
 26 12  1  0  0  0  0
 26 56  1  1  0  0  0
 26 27  1  0  0  0  0
 27 57  1  0  0  0  0
 27 58  1  0  0  0  0
 27 59  1  0  0  0  0
 28 60  1  0  0  0  0
 30 31  1  0  0  0  0
 31 32  1  0  0  0  0
 31 33  2  0  0  0  0
 31 34  1  0  0  0  0
 32 61  1  0  0  0  0
 34 62  1  0  0  0  0
M  END
>  <DRUGBANK_ID>
DB14669

>  <SECONDARY_ACCESSION_NUMBERS>
DBSALT002245

>  <COMMON_NAME>
Betamethasone phosphate

>  <CAS_NUMBER>
360-63-4

>  <UNII>
YJO1F9W10R

>  <SYNONYMS>
Betamethasone 21-(dihydrogen phosphate); Betamethasone 21-phosphate; Betamethasone dihydrogen phosphate

$$$$
