
 OpenBabel10282417243D

 73 76  0  0  1  0  0  0  0  0999 V2000
   -4.0384   -1.0900    1.8935 C   0  0  0  0  0  0  0  0  0  0  0  0
   -2.8332   -0.5595    2.6352 C   0  0  0  0  0  0  0  0  0  0  0  0
   -1.7650   -1.3787    2.0285 C   0  0  0  0  0  0  0  0  0  0  0  0
   -2.5891    0.8577    2.2567 N   0  0  0  0  0  0  0  0  0  0  0  0
   -2.7561   -0.8563    4.1446 C   0  0  0  0  0  0  0  0  0  0  0  0
   -3.6502   -1.4485    4.7503 O   0  0  0  0  0  0  0  0  0  0  0  0
   -1.5981   -0.5862    4.8210 N   0  0  0  0  0  0  0  0  0  0  0  0
   -0.3107   -0.0230    4.3631 C   0  0  2  0  0  0  0  0  0  0  0  0
    0.6530   -1.0487    3.8183 C   0  0  0  0  0  0  0  0  0  0  0  0
    1.9171   -0.5983    3.3848 O   0  0  0  0  0  0  0  0  0  0  0  0
    1.8217    0.3608    2.3159 C   0  0  0  0  0  0  0  0  0  0  0  0
    1.3372   -0.2138    0.9838 C   0  0  0  0  0  0  0  0  0  0  0  0
    1.4370    0.5435   -0.1734 C   0  0  0  0  0  0  0  0  0  0  0  0
    0.8247    0.1123   -1.3655 C   0  0  0  0  0  0  0  0  0  0  0  0
   -0.0155   -0.9959   -1.3984 C   0  0  0  0  0  0  0  0  0  0  0  0
   -0.0145   -1.8229   -0.3113 C   0  0  0  0  0  0  0  0  0  0  0  0
    0.7554   -1.4786    0.8015 C   0  0  0  0  0  0  0  0  0  0  0  0
    0.2531    0.6496    5.5595 C   0  0  0  0  0  0  0  0  0  0  0  0
    0.5333    1.8450    5.5872 O   0  0  0  0  0  0  0  0  0  0  0  0
    0.2442   -0.2095    6.6535 N   0  0  0  0  0  0  0  0  0  0  0  0
    0.9929   -1.7743    6.5117 C   0  0  0  0  0  0  0  0  0  0  0  0
    0.8441   -2.4831    7.7856 C   0  0  0  0  0  0  0  0  0  0  0  0
    1.3743   -1.2993    8.6782 C   0  0  3  0  0  0  0  0  0  0  0  0
    2.3804   -0.3264    7.6865 C   0  0  0  0  0  0  0  0  0  0  0  0
    3.4150    0.2638    8.3554 N   0  0  0  0  0  0  0  0  0  0  0  0
    3.6928   -0.7636    9.2342 C   0  0  0  0  0  0  0  0  0  0  0  0
    4.9483   -0.9813    9.6619 C   0  0  0  0  0  0  0  0  0  0  0  0
    5.0580   -1.8390   10.7135 C   0  0  0  0  0  0  0  0  0  0  0  0
    3.9176   -2.4609   11.2747 C   0  0  0  0  0  0  0  0  0  0  0  0
    2.6258   -2.3047   10.7458 C   0  0  0  0  0  0  0  0  0  0  0  0
    2.5210   -1.4949    9.6442 C   0  0  0  0  0  0  0  0  0  0  0  0
    4.3864    1.1074    7.2635 S   0  0  0  0  0  0  0  0  0  0  0  0
    4.9976    2.2609    8.4193 C   0  0  0  0  0  0  0  0  0  0  0  0
    5.3720    0.2361    6.7300 O   0  0  0  0  0  0  0  0  0  0  0  0
    3.5242    1.9003    6.3545 O   0  0  0  0  0  0  0  0  0  0  0  0
    0.0485   -0.4859    9.0729 C   0  0  0  0  0  0  0  0  0  0  0  0
    0.0416    0.6230    8.0755 C   0  0  0  0  0  0  0  0  0  0  0  0
   -3.8992   -0.9365    0.8102 H   0  0  0  0  0  0  0  0  0  0  0  0
   -4.9520   -0.5997    2.2035 H   0  0  0  0  0  0  0  0  0  0  0  0
   -4.1150   -2.1762    2.0355 H   0  0  0  0  0  0  0  0  0  0  0  0
   -1.8594   -1.3393    0.9558 H   0  0  0  0  0  0  0  0  0  0  0  0
   -0.8887   -0.8178    2.2426 H   0  0  0  0  0  0  0  0  0  0  0  0
   -1.6867   -2.4196    2.3745 H   0  0  0  0  0  0  0  0  0  0  0  0
   -1.7310    1.2212    2.6558 H   0  0  0  0  0  0  0  0  0  0  0  0
   -2.3598    0.8801    1.2577 H   0  0  0  0  0  0  0  0  0  0  0  0
   -1.6329   -0.8317    5.8082 H   0  0  0  0  0  0  0  0  0  0  0  0
   -0.4682    0.7777    3.6656 H   0  0  0  0  0  0  0  0  0  0  0  0
    0.6295   -1.9503    4.3723 H   0  0  0  0  0  0  0  0  0  0  0  0
    0.2649   -1.7051    3.0902 H   0  0  0  0  0  0  0  0  0  0  0  0
    1.1997    1.2103    2.6459 H   0  0  0  0  0  0  0  0  0  0  0  0
    2.8130    0.8020    2.1772 H   0  0  0  0  0  0  0  0  0  0  0  0
    2.0384    1.4480   -0.1698 H   0  0  0  0  0  0  0  0  0  0  0  0
    1.0215    0.6399   -2.2892 H   0  0  0  0  0  0  0  0  0  0  0  0
   -0.6162   -1.2602   -2.2614 H   0  0  0  0  0  0  0  0  0  0  0  0
   -0.6744   -2.6906   -0.2522 H   0  0  0  0  0  0  0  0  0  0  0  0
    0.7229   -2.2387    1.5640 H   0  0  0  0  0  0  0  0  0  0  0  0
    1.4025   -2.1768    5.5998 H   0  0  0  0  0  0  0  0  0  0  0  0
    2.1037   -1.8337    6.5644 H   0  0  0  0  0  0  0  0  0  0  0  0
   -0.2197   -2.7516    7.7744 H   0  0  0  0  0  0  0  0  0  0  0  0
    1.4314   -3.4126    7.7884 H   0  0  0  0  0  0  0  0  0  0  0  0
    2.5351   -0.3070    6.5853 H   0  0  0  0  0  0  0  0  0  0  0  0
    1.8692    0.5467    7.5807 H   0  0  0  0  0  0  0  0  0  0  0  0
    5.7744   -0.5113    9.1499 H   0  0  0  0  0  0  0  0  0  0  0  0
    6.0525   -1.9764   11.1072 H   0  0  0  0  0  0  0  0  0  0  0  0
    4.0713   -3.1029   12.1338 H   0  0  0  0  0  0  0  0  0  0  0  0
    1.7701   -2.7924   11.2042 H   0  0  0  0  0  0  0  0  0  0  0  0
    5.4491    1.6890    9.2236 H   0  0  0  0  0  0  0  0  0  0  0  0
    5.7146    2.8933    7.9107 H   0  0  0  0  0  0  0  0  0  0  0  0
    4.1401    2.8309    8.7898 H   0  0  0  0  0  0  0  0  0  0  0  0
   -0.8982   -1.0097    8.8595 H   0  0  0  0  0  0  0  0  0  0  0  0
    0.0112   -0.1713   10.1179 H   0  0  0  0  0  0  0  0  0  0  0  0
    0.8568    1.2904    8.4748 H   0  0  0  0  0  0  0  0  0  0  0  0
   -0.6479    1.4755    7.9702 H   0  0  0  0  0  0  0  0  0  0  0  0
  1  2  1  0  0  0  0
  1 38  1  0  0  0  0
  1 39  1  0  0  0  0
  1 40  1  0  0  0  0
  2  3  1  0  0  0  0
  2  4  1  0  0  0  0
  2  5  1  0  0  0  0
  3 41  1  0  0  0  0
  3 42  1  0  0  0  0
  3 43  1  0  0  0  0
  4 44  1  0  0  0  0
  4 45  1  0  0  0  0
  5  6  2  0  0  0  0
  5  7  1  0  0  0  0
  7 46  1  0  0  0  0
  8 18  1  0  0  0  0
  8 47  1  6  0  0  0
  8  9  1  0  0  0  0
  8  7  1  0  0  0  0
  9 10  1  0  0  0  0
  9 48  1  0  0  0  0
  9 49  1  0  0  0  0
 10 11  1  0  0  0  0
 11 12  1  0  0  0  0
 11 50  1  0  0  0  0
 11 51  1  0  0  0  0
 12 13  2  0  0  0  0
 12 17  1  0  0  0  0
 13 14  1  0  0  0  0
 13 52  1  0  0  0  0
 14 15  2  0  0  0  0
 14 53  1  0  0  0  0
 15 16  1  0  0  0  0
 15 54  1  0  0  0  0
 16 17  2  0  0  0  0
 16 55  1  0  0  0  0
 17 56  1  0  0  0  0
 18 19  2  0  0  0  0
 18 20  1  0  0  0  0
 20 21  1  0  0  0  0
 20 37  1  0  0  0  0
 21 22  1  0  0  0  0
 21 57  1  0  0  0  0
 21 58  1  0  0  0  0
 22 23  1  0  0  0  0
 22 59  1  0  0  0  0
 22 60  1  0  0  0  0
 23 24  1  0  0  0  0
 23 31  1  0  0  0  0
 23 36  1  0  0  0  0
 24 25  1  0  0  0  0
 24 61  1  0  0  0  0
 24 62  1  0  0  0  0
 25 26  1  0  0  0  0
 25 32  1  0  0  0  0
 26 27  2  0  0  0  0
 26 31  1  0  0  0  0
 27 28  1  0  0  0  0
 27 63  1  0  0  0  0
 28 29  2  0  0  0  0
 28 64  1  0  0  0  0
 29 30  1  0  0  0  0
 29 65  1  0  0  0  0
 30 31  2  0  0  0  0
 30 66  1  0  0  0  0
 32 33  1  0  0  0  0
 32 34  2  0  0  0  0
 32 35  2  0  0  0  0
 33 67  1  0  0  0  0
 33 68  1  0  0  0  0
 33 69  1  0  0  0  0
 36 37  1  0  0  0  0
 36 70  1  0  0  0  0
 36 71  1  0  0  0  0
 37 72  1  0  0  0  0
 37 73  1  0  0  0  0
M  END
>  <DRUGBANK_ID>
DB18214

>  <COMMON_NAME>
Ibutamoren

>  <CAS_NUMBER>
159634-47-6

>  <UNII>
GJ0EGN38UL

>  <SYNONYMS>
2-amino-n-((r)-2-(benzyloxy)-1-((1-(methylsulfonyl)spiro(indoline-3,4'-piperidin)-1'-yl)carbonyl)ethyl)-2-methylpropionamide; 2-amino-n-(3-(benzyloxy)-1-(1-methanesulfonyl-1,2-dihydrospiro(indole-3,4'-piperidin)-1'-yl)-1-oxopropan-2-yl)-2-methylpropanamide

$$$$
