
 OpenBabel10282417223D

 38 39  0  0  0  0  0  0  0  0999 V2000
    1.0005    0.0716   -0.0720 C   0  0  0  0  0  0  0  0  0  0  0  0
    0.4507   -1.2515   -0.3444 N   0  0  0  0  0  0  0  0  0  0  0  0
   -1.0152   -1.2313   -0.4752 C   0  0  0  0  0  0  0  0  0  0  0  0
   -1.7747   -0.2938    0.4881 C   0  0  0  0  0  0  0  0  0  0  0  0
   -2.6652   -1.3914    0.6719 N   0  0  0  0  0  0  0  0  0  0  0  0
   -1.6687   -2.3660    0.3716 C   0  0  0  0  0  0  0  0  0  0  0  0
   -3.9634   -1.4512    1.1928 C   0  0  0  0  0  0  0  0  0  0  0  0
   -4.9394   -0.7058    0.5474 C   0  0  0  0  0  0  0  0  0  0  0  0
   -6.2240   -0.7876    1.0223 C   0  0  0  0  0  0  0  0  0  0  0  0
   -7.2630   -0.0834    0.4772 N   0  0  0  0  0  0  0  0  0  0  0  0
   -6.5300   -1.5749    2.0448 N   0  0  0  0  0  0  0  0  0  0  0  0
   -5.5361   -2.2360    2.6574 C   0  0  0  0  0  0  0  0  0  0  0  0
   -5.9309   -3.0373    3.8749 C   0  0  0  0  0  0  0  0  0  0  0  0
   -6.5645   -2.1982    5.0145 C   0  0  0  0  0  0  0  0  0  0  0  0
   -7.8656   -1.4917    4.6092 C   0  0  0  0  0  0  0  0  0  0  0  0
   -6.8762   -3.0993    6.2145 C   0  0  0  0  0  0  0  0  0  0  0  0
   -4.2508   -2.2326    2.2493 N   0  0  0  0  0  0  0  0  0  0  0  0
    0.7649    0.3928    0.9464 H   0  0  0  0  0  0  0  0  0  0  0  0
    0.6444    0.8214   -0.7854 H   0  0  0  0  0  0  0  0  0  0  0  0
    2.0928    0.0354   -0.1344 H   0  0  0  0  0  0  0  0  0  0  0  0
    0.8866   -1.5917   -1.2055 H   0  0  0  0  0  0  0  0  0  0  0  0
   -1.3741   -1.1729   -1.5114 H   0  0  0  0  0  0  0  0  0  0  0  0
   -1.2886   -0.0272    1.4339 H   0  0  0  0  0  0  0  0  0  0  0  0
   -2.2178    0.5912    0.0287 H   0  0  0  0  0  0  0  0  0  0  0  0
   -2.0468   -3.2179   -0.1983 H   0  0  0  0  0  0  0  0  0  0  0  0
   -1.1159   -2.7063    1.2544 H   0  0  0  0  0  0  0  0  0  0  0  0
   -4.7070   -0.1152   -0.3256 H   0  0  0  0  0  0  0  0  0  0  0  0
   -8.1470   -0.1653    0.9652 H   0  0  0  0  0  0  0  0  0  0  0  0
   -7.1543    0.5770   -0.2725 H   0  0  0  0  0  0  0  0  0  0  0  0
   -6.6355   -3.8145    3.5534 H   0  0  0  0  0  0  0  0  0  0  0  0
   -5.0440   -3.5563    4.2598 H   0  0  0  0  0  0  0  0  0  0  0  0
   -5.8443   -1.4339    5.3341 H   0  0  0  0  0  0  0  0  0  0  0  0
   -8.5998   -2.2111    4.2305 H   0  0  0  0  0  0  0  0  0  0  0  0
   -8.3086   -0.9631    5.4590 H   0  0  0  0  0  0  0  0  0  0  0  0
   -7.7035   -0.7287    3.8457 H   0  0  0  0  0  0  0  0  0  0  0  0
   -5.9745   -3.5949    6.5856 H   0  0  0  0  0  0  0  0  0  0  0  0
   -7.3010   -2.5142    7.0382 H   0  0  0  0  0  0  0  0  0  0  0  0
   -7.6056   -3.8720    5.9454 H   0  0  0  0  0  0  0  0  0  0  0  0
  1  2  1  0  0  0  0
  1 18  1  0  0  0  0
  1 19  1  0  0  0  0
  1 20  1  0  0  0  0
  2  3  1  0  0  0  0
  2 21  1  0  0  0  0
  3  4  1  0  0  0  0
  3  6  1  0  0  0  0
  3 22  1  0  0  0  0
  4  5  1  0  0  0  0
  4 23  1  0  0  0  0
  4 24  1  0  0  0  0
  5  6  1  0  0  0  0
  5  7  1  0  0  0  0
  6 25  1  0  0  0  0
  6 26  1  0  0  0  0
  7  8  2  0  0  0  0
  7 17  1  0  0  0  0
  8  9  1  0  0  0  0
  8 27  1  0  0  0  0
  9 10  1  0  0  0  0
  9 11  2  0  0  0  0
 10 28  1  0  0  0  0
 10 29  1  0  0  0  0
 11 12  1  0  0  0  0
 12 13  1  0  0  0  0
 12 17  2  0  0  0  0
 13 14  1  0  0  0  0
 13 30  1  0  0  0  0
 13 31  1  0  0  0  0
 14 15  1  0  0  0  0
 14 16  1  0  0  0  0
 14 32  1  0  0  0  0
 15 33  1  0  0  0  0
 15 34  1  0  0  0  0
 15 35  1  0  0  0  0
 16 36  1  0  0  0  0
 16 37  1  0  0  0  0
 16 38  1  0  0  0  0
M  END
>  <DRUGBANK_ID>
DB15220

>  <COMMON_NAME>
Seliforant

>  <CAS_NUMBER>
1164115-89-2

>  <UNII>
B61N8R7TDH

>  <SYNONYMS>
Seliforant

$$$$
