
 OpenBabel10282417153D

 56 58  0  0  0  0  0  0  0  0999 V2000
    1.1282   -0.2075   -1.1259 C   0  0  0  0  0  0  0  0  0  0  0  0
    0.3969   -1.3593   -0.7722 C   0  0  0  0  0  0  0  0  0  0  0  0
   -0.9661   -1.1970   -0.4733 C   0  0  0  0  0  0  0  0  0  0  0  0
   -1.5449    0.0941   -0.3927 C   0  0  0  0  0  0  0  0  0  0  0  0
   -0.7560    1.2493   -0.5712 C   0  0  0  0  0  0  0  0  0  0  0  0
    0.5150    1.0667   -1.1074 C   0  0  0  0  0  0  0  0  0  0  0  0
    0.9795   -2.5790   -0.5405 O   0  0  0  0  0  0  0  0  0  0  0  0
    2.3804   -2.7921   -0.3889 C   0  0  0  0  0  0  0  0  0  0  0  0
   -1.8503   -2.1755   -0.0610 O   0  0  0  0  0  0  0  0  0  0  0  0
   -1.3578   -3.5012    0.0689 C   0  0  0  0  0  0  0  0  0  0  0  0
   -1.1859    2.5764    0.0621 C   0  0  0  0  0  0  0  0  0  0  0  0
   -0.6847    2.9071    1.4983 C   0  0  0  0  0  0  0  0  0  0  0  0
    0.7150    2.8680    1.7098 O   0  0  0  0  0  0  0  0  0  0  0  0
    1.4201    1.6383    1.7305 C   0  0  2  0  0  0  0  0  0  0  0  0
    3.5013    0.3450    2.3224 C   0  0  0  0  0  0  0  0  0  0  0  0
    2.6064   -0.7982    2.8587 C   0  0  0  0  0  0  0  0  0  0  0  0
    1.2765   -0.7943    2.1606 C   0  0  0  0  0  0  0  0  0  0  0  0
    0.5681    0.5167    2.2986 C   0  0  0  0  0  0  0  0  0  0  0  0
    2.8010    1.7294    2.4473 C   0  0  1  0  0  0  0  0  0  0  0  0
    3.6415    2.9029    2.0763 N   0  0  3  0  0  0  0  0  0  0  0  0
    4.2802    2.9869    0.7510 C   0  0  0  0  0  0  0  0  0  0  0  0
    4.0889    4.4380    0.2639 C   0  0  0  0  0  0  0  0  0  0  0  0
    2.7678    4.8318    0.8727 C   0  0  2  0  0  0  0  0  0  0  0  0
    2.9061    4.1771    2.2628 C   0  0  0  0  0  0  0  0  0  0  0  0
    1.7668    4.3646   -0.0277 O   0  0  0  0  0  0  0  0  0  0  0  0
    2.2082   -0.2449   -1.1892 H   0  0  0  0  0  0  0  0  0  0  0  0
   -2.5638    0.1944   -0.0404 H   0  0  0  0  0  0  0  0  0  0  0  0
    1.1588    1.9371   -1.2845 H   0  0  0  0  0  0  0  0  0  0  0  0
    2.9568   -2.3708   -1.2110 H   0  0  0  0  0  0  0  0  0  0  0  0
    2.7738   -2.4430    0.5701 H   0  0  0  0  0  0  0  0  0  0  0  0
    2.5386   -3.8769   -0.3724 H   0  0  0  0  0  0  0  0  0  0  0  0
   -0.8571   -3.8389   -0.8432 H   0  0  0  0  0  0  0  0  0  0  0  0
   -0.7151   -3.5931    0.9536 H   0  0  0  0  0  0  0  0  0  0  0  0
   -2.2103   -4.1688    0.2127 H   0  0  0  0  0  0  0  0  0  0  0  0
   -0.8854    3.3970   -0.5988 H   0  0  0  0  0  0  0  0  0  0  0  0
   -2.2807    2.6096    0.1215 H   0  0  0  0  0  0  0  0  0  0  0  0
   -0.9607    3.9502    1.7132 H   0  0  0  0  0  0  0  0  0  0  0  0
   -1.1874    2.3396    2.2884 H   0  0  0  0  0  0  0  0  0  0  0  0
    1.7397    1.4429    0.7180 H   0  0  0  0  0  0  0  0  0  0  0  0
    4.4436    0.3255    2.8747 H   0  0  0  0  0  0  0  0  0  0  0  0
    3.7432    0.1428    1.2672 H   0  0  0  0  0  0  0  0  0  0  0  0
    2.4301   -0.7035    3.9309 H   0  0  0  0  0  0  0  0  0  0  0  0
    3.0856   -1.7652    2.6735 H   0  0  0  0  0  0  0  0  0  0  0  0
    0.6130   -1.6282    2.4058 H   0  0  0  0  0  0  0  0  0  0  0  0
    1.5505   -0.9016    1.1306 H   0  0  0  0  0  0  0  0  0  0  0  0
    0.2938    0.7305    3.3319 H   0  0  0  0  0  0  0  0  0  0  0  0
   -0.3815    0.4393    1.7788 H   0  0  0  0  0  0  0  0  0  0  0  0
    2.5879    1.8563    3.5159 H   0  0  0  0  0  0  0  0  0  0  0  0
    5.3547    2.7813    0.8181 H   0  0  0  0  0  0  0  0  0  0  0  0
    3.8527    2.2906    0.0210 H   0  0  0  0  0  0  0  0  0  0  0  0
    4.0876    4.5066   -0.8289 H   0  0  0  0  0  0  0  0  0  0  0  0
    4.8679    5.0943    0.6657 H   0  0  0  0  0  0  0  0  0  0  0  0
    2.6047    5.9056    0.9678 H   0  0  0  0  0  0  0  0  0  0  0  0
    3.5490    4.8119    2.8811 H   0  0  0  0  0  0  0  0  0  0  0  0
    1.9919    4.0886    2.8533 H   0  0  0  0  0  0  0  0  0  0  0  0
    1.6745    3.4136    0.1467 H   0  0  0  0  0  0  0  0  0  0  0  0
  1  2  1  0  0  0  0
  1  6  2  0  0  0  0
  1 26  1  0  0  0  0
  2  3  2  0  0  0  0
  2  7  1  0  0  0  0
  3  4  1  0  0  0  0
  3  9  1  0  0  0  0
  4  5  2  0  0  0  0
  4 27  1  0  0  0  0
  5  6  1  0  0  0  0
  5 11  1  0  0  0  0
  6 28  1  0  0  0  0
  7  8  1  0  0  0  0
  8 29  1  0  0  0  0
  8 30  1  0  0  0  0
  8 31  1  0  0  0  0
  9 10  1  0  0  0  0
 10 32  1  0  0  0  0
 10 33  1  0  0  0  0
 10 34  1  0  0  0  0
 11 12  1  0  0  0  0
 11 35  1  0  0  0  0
 11 36  1  0  0  0  0
 12 13  1  0  0  0  0
 12 37  1  0  0  0  0
 12 38  1  0  0  0  0
 14 13  1  0  0  0  0
 14 19  1  0  0  0  0
 14 39  1  6  0  0  0
 15 16  1  0  0  0  0
 15 40  1  0  0  0  0
 15 41  1  0  0  0  0
 16 17  1  0  0  0  0
 16 42  1  0  0  0  0
 16 43  1  0  0  0  0
 17 18  1  0  0  0  0
 17 44  1  0  0  0  0
 17 45  1  0  0  0  0
 18 14  1  0  0  0  0
 18 46  1  0  0  0  0
 18 47  1  0  0  0  0
 19 15  1  0  0  0  0
 19 20  1  0  0  0  0
 19 48  1  1  0  0  0
 20 21  1  0  0  0  0
 20 24  1  0  0  0  0
 21 22  1  0  0  0  0
 21 49  1  0  0  0  0
 21 50  1  0  0  0  0
 22 23  1  0  0  0  0
 22 51  1  0  0  0  0
 22 52  1  0  0  0  0
 23 24  1  0  0  0  0
 23 25  1  0  0  0  0
 23 53  1  1  0  0  0
 24 54  1  0  0  0  0
 24 55  1  0  0  0  0
 25 56  1  0  0  0  0
M  END
>  <DRUGBANK_ID>
DB06217

>  <COMMON_NAME>
Vernakalant

>  <CAS_NUMBER>
794466-70-9

>  <UNII>
9G468C8B13

>  <SYNONYMS>
(3R)-1-((1R,2R)-2-(2-(3,4-dimethoxyphenyl)ethoxy)cyclohexyl)pyrrolidin-3-ol; Vernakalant

$$$$
