
 OpenBabel10282417173D

 44 45  0  0  0  0  0  0  0  0999 V2000
    1.0163    0.0554    0.1282 C   0  0  0  0  0  0  0  0  0  0  0  0
    0.8984   -8.2397   -2.5183 C   0  0  0  0  0  0  0  0  0  0  0  0
    0.5227   -0.6048   -1.1401 C   0  0  0  0  0  0  0  0  0  0  0  0
    4.1167   -4.9652    2.1526 C   0  0  0  0  0  0  0  0  0  0  0  0
    4.5007   -6.4374    2.3362 C   0  0  0  0  0  0  0  0  0  0  0  0
    2.6523   -4.8602    1.8097 C   0  0  0  0  0  0  0  0  0  0  0  0
    2.1518   -2.3317   -2.0035 C   0  0  0  0  0  0  0  0  0  0  0  0
    0.2043   -3.0614   -0.7900 C   0  0  0  0  0  0  0  0  0  0  0  0
    2.4647   -3.6596   -2.3073 C   0  0  0  0  0  0  0  0  0  0  0  0
    0.4571   -4.3743   -1.1818 C   0  0  0  0  0  0  0  0  0  0  0  0
    4.1379   -7.3223    1.1231 C   0  0  0  0  0  0  0  0  0  0  0  0
    2.3784   -5.8165    0.6895 C   0  0  0  0  0  0  0  0  0  0  0  0
    2.2904   -8.0026   -0.3714 C   0  0  0  0  0  0  0  0  0  0  0  0
    1.3676   -7.2941   -1.4228 C   0  0  3  0  0  0  0  0  0  0  0  0
    0.9869   -2.0254   -1.2928 C   0  0  0  0  0  0  0  0  0  0  0  0
    1.5983   -4.6984   -1.9350 C   0  0  0  0  0  0  0  0  0  0  0  0
    2.0763   -6.1245   -2.1273 C   0  0  0  0  0  0  0  0  0  0  0  0
    2.6970   -7.2236    0.8407 N   0  0  0  0  0  0  0  0  0  0  0  0
    3.1226   -6.3178   -2.7619 O   0  0  0  0  0  0  0  0  0  0  0  0
    0.6594   -0.4760    1.0161 H   0  0  0  0  0  0  0  0  0  0  0  0
    0.6483    1.0852    0.1748 H   0  0  0  0  0  0  0  0  0  0  0  0
    2.1096    0.0780    0.1582 H   0  0  0  0  0  0  0  0  0  0  0  0
    1.7431   -8.6578   -3.0726 H   0  0  0  0  0  0  0  0  0  0  0  0
    0.3056   -9.0570   -2.0995 H   0  0  0  0  0  0  0  0  0  0  0  0
    0.2679   -7.6910   -3.2286 H   0  0  0  0  0  0  0  0  0  0  0  0
   -0.5752   -0.5898   -1.1654 H   0  0  0  0  0  0  0  0  0  0  0  0
    0.8439   -0.0313   -2.0175 H   0  0  0  0  0  0  0  0  0  0  0  0
    4.3111   -4.3776    3.0526 H   0  0  0  0  0  0  0  0  0  0  0  0
    4.7114   -4.5276    1.3387 H   0  0  0  0  0  0  0  0  0  0  0  0
    5.5744   -6.5006    2.5291 H   0  0  0  0  0  0  0  0  0  0  0  0
    3.9759   -6.8216    3.2191 H   0  0  0  0  0  0  0  0  0  0  0  0
    1.9969   -5.0892    2.6531 H   0  0  0  0  0  0  0  0  0  0  0  0
    2.4080   -3.8463    1.4625 H   0  0  0  0  0  0  0  0  0  0  0  0
    2.8218   -1.5370   -2.3247 H   0  0  0  0  0  0  0  0  0  0  0  0
   -0.6105   -2.8553   -0.0974 H   0  0  0  0  0  0  0  0  0  0  0  0
    3.4051   -3.8791   -2.8108 H   0  0  0  0  0  0  0  0  0  0  0  0
   -0.2130   -5.1278   -0.7828 H   0  0  0  0  0  0  0  0  0  0  0  0
    4.7256   -7.0037    0.2501 H   0  0  0  0  0  0  0  0  0  0  0  0
    4.4088   -8.3615    1.3396 H   0  0  0  0  0  0  0  0  0  0  0  0
    1.3105   -5.7538    0.5403 H   0  0  0  0  0  0  0  0  0  0  0  0
    2.9882   -5.4372   -0.1322 H   0  0  0  0  0  0  0  0  0  0  0  0
    1.7314   -8.8674    0.0164 H   0  0  0  0  0  0  0  0  0  0  0  0
    3.1646   -8.4255   -0.8824 H   0  0  0  0  0  0  0  0  0  0  0  0
    0.4583   -6.9814   -0.9089 H   0  0  0  0  0  0  0  0  0  0  0  0
  1 20  1  0  0  0  0
  1 21  1  0  0  0  0
  1 22  1  0  0  0  0
  2 23  1  0  0  0  0
  2 24  1  0  0  0  0
  2 25  1  0  0  0  0
  3  1  1  0  0  0  0
  3 26  1  0  0  0  0
  3 27  1  0  0  0  0
  4 28  1  0  0  0  0
  4 29  1  0  0  0  0
  5  4  1  0  0  0  0
  5 30  1  0  0  0  0
  5 31  1  0  0  0  0
  6  4  1  0  0  0  0
  6 32  1  0  0  0  0
  6 33  1  0  0  0  0
  7 34  1  0  0  0  0
  8 35  1  0  0  0  0
  9  7  1  0  0  0  0
  9 36  1  0  0  0  0
 10  8  2  0  0  0  0
 10 37  1  0  0  0  0
 11  5  1  0  0  0  0
 11 38  1  0  0  0  0
 11 39  1  0  0  0  0
 12  6  1  0  0  0  0
 12 40  1  0  0  0  0
 12 41  1  0  0  0  0
 13 42  1  0  0  0  0
 13 43  1  0  0  0  0
 14  2  1  0  0  0  0
 14 13  1  0  0  0  0
 14 44  1  0  0  0  0
 15  3  1  0  0  0  0
 15  7  2  0  0  0  0
 15  8  1  0  0  0  0
 16  9  2  0  0  0  0
 16 10  1  0  0  0  0
 17 14  1  0  0  0  0
 17 16  1  0  0  0  0
 18 11  1  0  0  0  0
 18 12  1  0  0  0  0
 18 13  1  0  0  0  0
 19 17  2  0  0  0  0
M  END
>  <DRUGBANK_ID>
DB08992

>  <COMMON_NAME>
Eperisone

>  <CAS_NUMBER>
64840-90-0

>  <UNII>
2M2P0551D3

>  <SYNONYMS>
(2RS)-1-(4-ethylphenyl)-2-methyl-3-(1-piperidyl)propan-1-one; Eperison; Eperisona; Eperisone; Ep√©risone; Eperisonum

$$$$
