
 OpenBabel10282417213D

  1  0  0  0  0  0  0  0  0  0999 V2000
    1.0254    0.0341    0.0905 Au  0  3  0  0  0  0  0  0  0  0  0  0
M  CHG  1   1   1
M  END
>  <DRUGBANK_ID>
DB14534

>  <COMMON_NAME>
Gold cation (1+)

>  <CAS_NUMBER>
20681-14-5

>  <UNII>
3D8CUH9F21

>  <SYNONYMS>
Au+; Au1+; Gold (Au1+); Gold ion(1+); Gold, ion (Au1+); Gold(1+); Gold(1+) ion

$$$$
