XMK
 OpenBabel10282417173D

 60 63  0  0  0  0  0  0  0  0999 V2000
    1.1566    0.0399    0.2280 C   0  0  0  0  0  0  0  0  0  0  0  0
   -3.1066   -5.3307   -2.5018 C   0  0  0  0  0  0  0  0  0  0  0  0
   -0.7858   -3.0551   -0.8282 N   0  0  0  0  0  0  0  0  0  0  0  0
   -1.5417   -4.1516   -1.1314 C   0  0  0  0  0  0  0  0  0  0  0  0
   -2.3509   -4.1952   -2.2713 C   0  0  0  0  0  0  0  0  0  0  0  0
    0.6638   -3.0314   -0.6614 C   0  0  0  0  0  0  0  0  0  0  0  0
   -1.5808   -5.2144   -0.2464 C   0  0  0  0  0  0  0  0  0  0  0  0
   -1.5004   -1.8666   -0.5099 C   0  0  0  0  0  0  0  0  0  0  0  0
    0.4280   -1.1631    1.0892 C   0  0  0  0  0  0  0  0  0  0  0  0
    1.0632   -2.5174    0.7355 C   0  0  0  0  0  0  0  0  0  0  0  0
   -3.1436   -6.3838   -1.6596 N   0  0  0  0  0  0  0  0  0  0  0  0
   -2.3893   -6.2906   -0.5440 C   0  0  0  0  0  0  0  0  0  0  0  0
   -1.1570   -1.4692    0.9630 C   0  0  0  0  0  0  0  0  0  0  0  0
   -1.8024    4.7233    0.5656 C   0  0  0  0  0  0  0  0  0  0  0  0
   -2.2031    3.6152   -0.0649 C   0  0  0  0  0  0  0  0  0  0  0  0
   -1.1753    3.9046    2.8839 C   0  0  0  0  0  0  0  0  0  0  0  0
   -2.0074    3.4103   -1.7916 S   0  0  0  0  0  0  0  0  0  0  0  0
   -1.8451    4.8073    2.0331 C   0  0  0  0  0  0  0  0  0  0  0  0
   -2.1309    5.2488    6.5305 Cl  0  0  0  0  0  0  0  0  0  0  0  0
   -1.6781    4.6642   -2.4009 O   0  0  0  0  0  0  0  0  0  0  0  0
   -0.8345    1.0955   -0.2123 C   0  0  0  0  0  0  0  0  0  0  0  0
   -0.9571    1.0300   -1.7238 C   0  0  0  0  0  0  0  0  0  0  0  0
   -0.6881    2.3661   -2.1611 N   0  0  0  0  0  0  0  0  0  0  0  0
   -2.5762    5.8497    2.6019 C   0  0  0  0  0  0  0  0  0  0  0  0
    0.9411    2.5889   -0.2209 C   0  0  0  0  0  0  0  0  0  0  0  0
    0.7341    2.6824   -1.7562 C   0  0  0  0  0  0  0  0  0  0  0  0
   -1.2551    4.0433    4.2772 C   0  0  0  0  0  0  0  0  0  0  0  0
    0.4507    1.3358    0.4116 N   0  0  0  0  0  0  0  0  0  0  0  0
   -2.6582    5.9868    3.9899 C   0  0  0  0  0  0  0  0  0  0  0  0
   -2.0040    5.0819    4.8228 C   0  0  0  0  0  0  0  0  0  0  0  0
   -3.1921    2.6617   -2.2176 O   0  0  0  0  0  0  0  0  0  0  0  0
    1.1607   -0.2456   -0.8290 H   0  0  0  0  0  0  0  0  0  0  0  0
    2.2231    0.1180    0.4805 H   0  0  0  0  0  0  0  0  0  0  0  0
   -3.7159   -5.4270   -3.3958 H   0  0  0  0  0  0  0  0  0  0  0  0
   -2.3830   -3.3724   -2.9794 H   0  0  0  0  0  0  0  0  0  0  0  0
    1.0817   -2.3613   -1.4248 H   0  0  0  0  0  0  0  0  0  0  0  0
    1.0980   -4.0164   -0.8412 H   0  0  0  0  0  0  0  0  0  0  0  0
   -1.0225   -5.1683    0.6800 H   0  0  0  0  0  0  0  0  0  0  0  0
   -2.5777   -1.8343   -0.7241 H   0  0  0  0  0  0  0  0  0  0  0  0
   -1.0857   -1.2176   -1.2707 H   0  0  0  0  0  0  0  0  0  0  0  0
    0.6213   -0.9157    2.1420 H   0  0  0  0  0  0  0  0  0  0  0  0
    2.1505   -2.4538    0.8193 H   0  0  0  0  0  0  0  0  0  0  0  0
    0.7126   -3.2413    1.4809 H   0  0  0  0  0  0  0  0  0  0  0  0
   -2.4519   -7.1280    0.1406 H   0  0  0  0  0  0  0  0  0  0  0  0
   -1.4780   -2.2538    1.6530 H   0  0  0  0  0  0  0  0  0  0  0  0
   -1.7800   -0.6214    1.3063 H   0  0  0  0  0  0  0  0  0  0  0  0
   -1.4618    5.5836    0.0029 H   0  0  0  0  0  0  0  0  0  0  0  0
   -2.6677    2.8381    0.5266 H   0  0  0  0  0  0  0  0  0  0  0  0
   -0.5778    3.0845    2.4884 H   0  0  0  0  0  0  0  0  0  0  0  0
   -1.6678    1.4110    0.3876 H   0  0  0  0  0  0  0  0  0  0  0  0
   -0.9889    0.1064   -0.0741 H   0  0  0  0  0  0  0  0  0  0  0  0
   -1.9337    0.6186   -2.0006 H   0  0  0  0  0  0  0  0  0  0  0  0
   -0.2330    0.3426   -2.1890 H   0  0  0  0  0  0  0  0  0  0  0  0
   -3.1015    6.5548    1.9628 H   0  0  0  0  0  0  0  0  0  0  0  0
    0.3359    3.3949    0.2004 H   0  0  0  0  0  0  0  0  0  0  0  0
    1.9537    2.8647    0.0898 H   0  0  0  0  0  0  0  0  0  0  0  0
    1.4048    1.9228   -2.1935 H   0  0  0  0  0  0  0  0  0  0  0  0
    1.0203    3.6423   -2.1799 H   0  0  0  0  0  0  0  0  0  0  0  0
   -0.7346    3.3436    4.9285 H   0  0  0  0  0  0  0  0  0  0  0  0
   -3.2387    6.8024    4.4104 H   0  0  0  0  0  0  0  0  0  0  0  0
  1  9  1  0  0  0  0
  1 28  1  0  0  0  0
  1 32  1  0  0  0  0
  1 33  1  0  0  0  0
  2  5  2  0  0  0  0
  2 11  1  0  0  0  0
  2 34  1  0  0  0  0
  3  4  1  0  0  0  0
  3  6  1  0  0  0  0
  3  8  1  0  0  0  0
  4  5  1  0  0  0  0
  4  7  2  0  0  0  0
  5 35  1  0  0  0  0
  6 10  1  0  0  0  0
  6 36  1  0  0  0  0
  6 37  1  0  0  0  0
  7 12  1  0  0  0  0
  7 38  1  0  0  0  0
  8 13  1  0  0  0  0
  8 39  1  0  0  0  0
  8 40  1  0  0  0  0
  9 10  1  0  0  0  0
  9 13  1  0  0  0  0
  9 41  1  0  0  0  0
 10 42  1  0  0  0  0
 10 43  1  0  0  0  0
 11 12  2  0  0  0  0
 12 44  1  0  0  0  0
 13 45  1  0  0  0  0
 13 46  1  0  0  0  0
 14 15  2  0  0  0  0
 14 18  1  0  0  0  0
 14 47  1  0  0  0  0
 15 17  1  0  0  0  0
 15 48  1  0  0  0  0
 16 18  2  0  0  0  0
 16 27  1  0  0  0  0
 16 49  1  0  0  0  0
 17 20  2  0  0  0  0
 17 23  1  0  0  0  0
 17 31  2  0  0  0  0
 18 24  1  0  0  0  0
 19 30  1  0  0  0  0
 21 22  1  0  0  0  0
 21 28  1  0  0  0  0
 21 50  1  0  0  0  0
 21 51  1  0  0  0  0
 22 23  1  0  0  0  0
 22 52  1  0  0  0  0
 22 53  1  0  0  0  0
 23 26  1  0  0  0  0
 24 29  2  0  0  0  0
 24 54  1  0  0  0  0
 25 26  1  0  0  0  0
 25 28  1  0  0  0  0
 25 55  1  0  0  0  0
 25 56  1  0  0  0  0
 26 57  1  0  0  0  0
 26 58  1  0  0  0  0
 27 30  2  0  0  0  0
 27 59  1  0  0  0  0
 29 30  1  0  0  0  0
 29 60  1  0  0  0  0
M  END
>  <DRUGBANK_ID>
DB08746

>  <COMMON_NAME>
1-[[(1E)-2-(4-CHLOROPHENYL)ETHENYL]SULFONYL]-4-[[1-(4-PYRIDINYL)-4-PIPERIDINYL]METHYL]PIPERAZINE

$$$$
