
 OpenBabel10282417153D

 24 23  0  0  0  0  0  0  0  0999 V2000
    1.1350    0.0058    0.2363 C   0  0  0  0  0  0  0  0  0  0  0  0
    0.6029    1.3960   -0.1366 C   0  0  0  0  0  0  0  0  0  0  0  0
    1.0428    1.9863   -1.4970 C   0  0  0  0  0  0  0  0  0  0  0  0
    0.5031    1.3323   -2.8059 C   0  0  3  0  0  0  0  0  0  0  0  0
   -1.0507    1.3458   -2.7669 C   0  0  0  0  0  0  0  0  0  0  0  0
   -1.7084    1.9008   -3.8024 O   0  0  0  0  0  0  0  0  0  0  0  0
    0.7067   -1.1162   -0.5755 N   0  0  0  0  0  0  0  0  0  0  0  0
   -1.6747    0.7676   -1.8941 O   0  0  0  0  0  0  0  0  0  0  0  0
    1.0701    2.0684   -4.0221 C   0  0  0  0  0  0  0  0  0  0  0  0
    2.4236    2.0015   -4.0541 F   0  0  0  0  0  0  0  0  0  0  0  0
    0.6262    1.4270   -5.1464 F   0  0  0  0  0  0  0  0  0  0  0  0
    0.8783   -0.1051   -2.9377 N   0  0  0  0  0  0  0  0  0  0  0  0
    0.8109   -0.2405    1.2479 H   0  0  0  0  0  0  0  0  0  0  0  0
    2.2275    0.0283    0.2159 H   0  0  0  0  0  0  0  0  0  0  0  0
   -0.4857    1.4363   -0.0318 H   0  0  0  0  0  0  0  0  0  0  0  0
    0.9679    2.0777    0.6455 H   0  0  0  0  0  0  0  0  0  0  0  0
    0.7217    3.0420   -1.4957 H   0  0  0  0  0  0  0  0  0  0  0  0
    2.1409    2.0241   -1.5127 H   0  0  0  0  0  0  0  0  0  0  0  0
   -1.2054    2.0958   -4.6130 H   0  0  0  0  0  0  0  0  0  0  0  0
   -0.2779   -0.9900   -0.8180 H   0  0  0  0  0  0  0  0  0  0  0  0
    1.2920   -1.0805   -1.4241 H   0  0  0  0  0  0  0  0  0  0  0  0
    0.7610    3.1115   -4.0950 H   0  0  0  0  0  0  0  0  0  0  0  0
    0.1200   -0.5960   -2.4542 H   0  0  0  0  0  0  0  0  0  0  0  0
    0.7405   -0.4233   -3.8995 H   0  0  0  0  0  0  0  0  0  0  0  0
  1 13  1  0  0  0  0
  1 14  1  0  0  0  0
  2  1  1  0  0  0  0
  2 15  1  0  0  0  0
  2 16  1  0  0  0  0
  3  2  1  0  0  0  0
  3 17  1  0  0  0  0
  3 18  1  0  0  0  0
  4  3  1  0  0  0  0
  4 12  1  0  0  0  0
  5  4  1  0  0  0  0
  6  5  1  0  0  0  0
  6 19  1  0  0  0  0
  7  1  1  0  0  0  0
  7 20  1  0  0  0  0
  7 21  1  0  0  0  0
  8  5  2  0  0  0  0
  9  4  1  0  0  0  0
  9 22  1  0  0  0  0
 10  9  1  0  0  0  0
 11  9  1  0  0  0  0
 12 23  1  0  0  0  0
 12 24  1  0  0  0  0
M  END
>  <DRUGBANK_ID>
DB06243

>  <COMMON_NAME>
Eflornithine

>  <CAS_NUMBER>
70052-12-9

>  <UNII>
ZQN1G5V6SR

>  <SYNONYMS>
(RS)-2,5-diamino-2-(difluoromethyl)pentanoic acid; 2-(difluoromethyl)ornithine; alpha-difluoromethylornithine; DFMO; Eflornithine; Î±-difluoromethylornithine

$$$$
