N76
 OpenBabel10282417173D

 50 53  0  0  0  0  0  0  0  0999 V2000
   -1.9137   -0.7515    0.2338 C   0  0  0  0  0  0  0  0  0  0  0  0
    2.3687    0.0328   -0.0078 C   0  0  0  0  0  0  0  0  0  0  0  0
   -2.2469    3.3783    0.1683 C   0  0  0  0  0  0  0  0  0  0  0  0
   -3.0960    3.1735   -1.1132 C   0  0  0  0  0  0  0  0  0  0  0  0
   -4.3209    4.0947   -1.1633 C   0  0  0  0  0  0  0  0  0  0  0  0
   -5.2246    3.7437   -2.3540 C   0  0  0  0  0  0  0  0  0  0  0  0
   -5.6903    2.2894   -2.3241 C   0  0  0  0  0  0  0  0  0  0  0  0
   -4.5043    1.3640   -2.3172 C   0  0  0  0  0  0  0  0  0  0  0  0
   -3.5708    1.7316   -1.2052 C   0  0  0  0  0  0  0  0  0  0  0  0
   -3.5434   -5.6407   -0.0770 C   0  0  0  0  0  0  0  0  0  0  0  0
   -2.8496   -5.0265    0.9675 C   0  0  0  0  0  0  0  0  0  0  0  0
   -3.1051   -1.4523    0.0271 N   0  0  0  0  0  0  0  0  0  0  0  0
   -2.6990   -3.6408    0.9961 C   0  0  0  0  0  0  0  0  0  0  0  0
   -3.2525   -2.8448   -0.0172 C   0  0  0  0  0  0  0  0  0  0  0  0
   -0.6080   -5.7391    2.3468 N   0  0  0  0  0  0  0  0  0  0  0  0
   -1.9762    0.5821    0.4739 N   0  0  0  0  0  0  0  0  0  0  0  0
   -0.8734    1.3648    0.2679 C   0  0  0  0  0  0  0  0  0  0  0  0
   -0.9598    2.7421    0.1439 O   0  0  0  0  0  0  0  0  0  0  0  0
    0.3524    0.7257    0.0937 C   0  0  0  0  0  0  0  0  0  0  0  0
    1.6603    1.1436   -0.0156 N   0  0  0  0  0  0  0  0  0  0  0  0
    1.5778   -1.0788   -0.0117 N   0  0  0  0  0  0  0  0  0  0  0  0
    0.2921   -0.6510    0.0334 C   0  0  0  0  0  0  0  0  0  0  0  0
   -0.7795   -1.4346    0.0433 N   0  0  0  0  0  0  0  0  0  0  0  0
   -3.9241   -3.4685   -1.0773 C   0  0  0  0  0  0  0  0  0  0  0  0
   -4.0958   -4.8574   -1.0907 C   0  0  0  0  0  0  0  0  0  0  0  0
   -2.2728   -6.0027    2.3239 S   0  0  0  0  0  0  0  0  0  0  0  0
   -2.8074   -5.4415    3.5485 O   0  0  0  0  0  0  0  0  0  0  0  0
   -2.4243   -7.3956    1.9923 O   0  0  0  0  0  0  0  0  0  0  0  0
    3.4462   -0.0319    0.0184 H   0  0  0  0  0  0  0  0  0  0  0  0
   -2.7857    3.1138    1.0852 H   0  0  0  0  0  0  0  0  0  0  0  0
   -2.0325    4.4546    0.2486 H   0  0  0  0  0  0  0  0  0  0  0  0
   -2.4602    3.3755   -1.9849 H   0  0  0  0  0  0  0  0  0  0  0  0
   -4.8959    4.0051   -0.2327 H   0  0  0  0  0  0  0  0  0  0  0  0
   -4.0009    5.1402   -1.2434 H   0  0  0  0  0  0  0  0  0  0  0  0
   -6.0998    4.3982   -2.3614 H   0  0  0  0  0  0  0  0  0  0  0  0
   -4.6695    3.9195   -3.2841 H   0  0  0  0  0  0  0  0  0  0  0  0
   -6.2981    2.1088   -1.4289 H   0  0  0  0  0  0  0  0  0  0  0  0
   -6.3045    2.0558   -3.1976 H   0  0  0  0  0  0  0  0  0  0  0  0
   -4.8114    0.3196   -2.1797 H   0  0  0  0  0  0  0  0  0  0  0  0
   -3.9493    1.4176   -3.2595 H   0  0  0  0  0  0  0  0  0  0  0  0
   -2.7054    1.1226   -1.4402 H   0  0  0  0  0  0  0  0  0  0  0  0
   -4.0436    1.4591   -0.2495 H   0  0  0  0  0  0  0  0  0  0  0  0
   -3.6710   -6.7205   -0.1005 H   0  0  0  0  0  0  0  0  0  0  0  0
   -3.9323   -0.8799   -0.0366 H   0  0  0  0  0  0  0  0  0  0  0  0
   -2.1722   -3.1662    1.8215 H   0  0  0  0  0  0  0  0  0  0  0  0
   -0.2316   -6.1986    3.1808 H   0  0  0  0  0  0  0  0  0  0  0  0
   -0.1672   -6.1061    1.5042 H   0  0  0  0  0  0  0  0  0  0  0  0
    1.8576   -2.0470    0.0199 H   0  0  0  0  0  0  0  0  0  0  0  0
   -4.2849   -2.8853   -1.9226 H   0  0  0  0  0  0  0  0  0  0  0  0
   -4.6689   -5.3292   -1.8862 H   0  0  0  0  0  0  0  0  0  0  0  0
  1 12  1  0  0  0  0
  1 16  2  0  0  0  0
  1 23  1  0  0  0  0
  2 20  2  0  0  0  0
  2 21  1  0  0  0  0
  2 29  1  0  0  0  0
  3  4  1  0  0  0  0
  3 18  1  0  0  0  0
  3 30  1  0  0  0  0
  3 31  1  0  0  0  0
  4  5  1  0  0  0  0
  4  9  1  0  0  0  0
  4 32  1  0  0  0  0
  5  6  1  0  0  0  0
  5 33  1  0  0  0  0
  5 34  1  0  0  0  0
  6  7  1  0  0  0  0
  6 35  1  0  0  0  0
  6 36  1  0  0  0  0
  7  8  1  0  0  0  0
  7 37  1  0  0  0  0
  7 38  1  0  0  0  0
  8  9  1  0  0  0  0
  8 39  1  0  0  0  0
  8 40  1  0  0  0  0
  9 41  1  0  0  0  0
  9 42  1  0  0  0  0
 10 11  2  0  0  0  0
 10 25  1  0  0  0  0
 10 43  1  0  0  0  0
 11 13  1  0  0  0  0
 11 26  1  0  0  0  0
 12 14  1  0  0  0  0
 12 44  1  0  0  0  0
 13 14  2  0  0  0  0
 13 45  1  0  0  0  0
 14 24  1  0  0  0  0
 15 26  1  0  0  0  0
 15 46  1  0  0  0  0
 15 47  1  0  0  0  0
 16 17  1  0  0  0  0
 17 18  1  0  0  0  0
 17 19  2  0  0  0  0
 19 20  1  0  0  0  0
 19 22  1  0  0  0  0
 21 22  1  0  0  0  0
 21 48  1  0  0  0  0
 22 23  2  0  0  0  0
 24 25  2  0  0  0  0
 24 49  1  0  0  0  0
 25 50  1  0  0  0  0
 26 27  2  0  0  0  0
 26 28  2  0  0  0  0
M  END
>  <DRUGBANK_ID>
DB08248

>  <COMMON_NAME>
3-(6-CYCLOHEXYLMETHOXY-9H-PURIN-2-YLAMINO)-BENZENESULFONAMIDE

$$$$
