
 OpenBabel10282417193D

 22 22  0  0  0  0  0  0  0  0999 V2000
    1.0215   -0.1132   -0.1078 O   0  0  0  0  0  0  0  0  0  0  0  0
    2.2519   -0.0732   -0.0547 C   0  0  0  0  0  0  0  0  0  0  0  0
    3.0201    1.1692   -0.4172 C   0  0  0  0  0  0  0  0  0  0  0  0
    4.9255   -4.8967    1.1795 O   0  0  0  0  0  0  0  0  0  0  0  0
    4.3062   -3.7063    0.9150 C   0  0  0  0  0  0  0  0  0  0  0  0
    3.2127   -3.7098    0.0485 C   0  0  0  0  0  0  0  0  0  0  0  0
    2.5575   -2.5158   -0.2543 C   0  0  0  0  0  0  0  0  0  0  0  0
    3.0020   -1.3086    0.2951 C   0  0  0  0  0  0  0  0  0  0  0  0
    4.0962   -1.3050    1.1703 C   0  0  0  0  0  0  0  0  0  0  0  0
    4.7526   -2.5089    1.4961 C   0  0  0  0  0  0  0  0  0  0  0  0
    5.7899   -2.3653    2.3867 O   0  0  0  0  0  0  0  0  0  0  0  0
    6.4855   -3.5509    2.7706 C   0  0  0  0  0  0  0  0  0  0  0  0
    3.6334    1.5139    0.4165 H   0  0  0  0  0  0  0  0  0  0  0  0
    3.6350    0.9803   -1.3016 H   0  0  0  0  0  0  0  0  0  0  0  0
    2.3115    1.9676   -0.6674 H   0  0  0  0  0  0  0  0  0  0  0  0
    4.5048   -5.6215    0.6927 H   0  0  0  0  0  0  0  0  0  0  0  0
    2.8546   -4.6350   -0.3925 H   0  0  0  0  0  0  0  0  0  0  0  0
    1.6995   -2.5277   -0.9241 H   0  0  0  0  0  0  0  0  0  0  0  0
    4.4296   -0.3794    1.6331 H   0  0  0  0  0  0  0  0  0  0  0  0
    5.8190   -4.2576    3.2794 H   0  0  0  0  0  0  0  0  0  0  0  0
    6.9896   -4.0055    1.9101 H   0  0  0  0  0  0  0  0  0  0  0  0
    7.2667   -3.2844    3.4876 H   0  0  0  0  0  0  0  0  0  0  0  0
  1  2  2  0  0  0  0
  2  3  1  0  0  0  0
  2  8  1  0  0  0  0
  3 13  1  0  0  0  0
  3 14  1  0  0  0  0
  3 15  1  0  0  0  0
  4  5  1  0  0  0  0
  4 16  1  0  0  0  0
  5  6  1  0  0  0  0
  5 10  2  0  0  0  0
  6  7  2  0  0  0  0
  6 17  1  0  0  0  0
  7  8  1  0  0  0  0
  7 18  1  0  0  0  0
  8  9  2  0  0  0  0
  9 10  1  0  0  0  0
  9 19  1  0  0  0  0
 10 11  1  0  0  0  0
 11 12  1  0  0  0  0
 12 20  1  0  0  0  0
 12 21  1  0  0  0  0
 12 22  1  0  0  0  0
M  END
>  <DRUGBANK_ID>
DB12618

>  <COMMON_NAME>
Apocynin

>  <CAS_NUMBER>
498-02-2

>  <UNII>
B6J7B9UDTR

>  <SYNONYMS>
Acetovanillone

$$$$
