
 OpenBabel10282417143D

 31 32  0  0  1  0  0  0  0  0999 V2000
    0.9976    0.1184   -0.0172 C   0  0  0  0  0  0  0  0  0  0  0  0
   -0.3472   -0.3578   -2.0444 C   0  0  0  0  0  0  0  0  0  0  0  0
    3.0865    5.3324   -3.8128 C   0  0  0  0  0  0  0  0  0  0  0  0
    2.6460    3.8680   -3.5828 C   0  0  2  0  0  0  0  0  0  0  0  0
    0.3607    3.7939   -2.6552 C   0  0  2  0  0  0  0  0  0  0  0  0
    1.6839    3.3665   -4.6664 C   0  0  2  0  0  0  0  0  0  0  0  0
    0.2941    3.8457   -4.1918 C   0  0  2  0  0  0  0  0  0  0  0  0
    1.8317    3.6807   -2.2776 C   0  0  1  0  0  0  0  0  0  0  0  0
    0.6970    1.8197   -1.7640 C   0  0  0  0  0  0  0  0  0  0  0  0
   -0.2694    2.5474   -2.2035 N   0  0  0  0  0  0  0  0  0  0  0  0
    0.5941    0.5128   -1.3526 N   0  0  0  0  0  0  0  0  0  0  0  0
    2.1759    6.1288   -4.5583 O   0  0  0  0  0  0  0  0  0  0  0  0
    1.7280    1.9407   -4.7094 O   0  0  0  0  0  0  0  0  0  0  0  0
   -0.0473    5.1556   -4.6527 O   0  0  0  0  0  0  0  0  0  0  0  0
    1.9488    2.3609   -1.7200 O   0  0  0  0  0  0  0  0  0  0  0  0
    3.5488    3.2466   -3.5225 H   0  0  0  0  0  0  0  0  0  0  0  0
   -0.1084    4.6614   -2.1800 H   0  0  0  0  0  0  0  0  0  0  0  0
    1.9439    3.7316   -5.6642 H   0  0  0  0  0  0  0  0  0  0  0  0
   -0.4899    3.1890   -4.5778 H   0  0  0  0  0  0  0  0  0  0  0  0
    2.1377    4.3905   -1.5013 H   0  0  0  0  0  0  0  0  0  0  0  0
    0.6358   -0.8847    0.2420 H   0  0  0  0  0  0  0  0  0  0  0  0
    0.5917    0.8048    0.7341 H   0  0  0  0  0  0  0  0  0  0  0  0
    2.0872    0.1008    0.0655 H   0  0  0  0  0  0  0  0  0  0  0  0
   -1.3224    0.1173   -2.1931 H   0  0  0  0  0  0  0  0  0  0  0  0
    0.0638   -0.6190   -3.0261 H   0  0  0  0  0  0  0  0  0  0  0  0
   -0.5188   -1.3002   -1.5120 H   0  0  0  0  0  0  0  0  0  0  0  0
    3.2397    5.8528   -2.8635 H   0  0  0  0  0  0  0  0  0  0  0  0
    4.0381    5.3558   -4.3536 H   0  0  0  0  0  0  0  0  0  0  0  0
    2.0612    5.7444   -5.4521 H   0  0  0  0  0  0  0  0  0  0  0  0
    2.1967    1.6741   -5.5172 H   0  0  0  0  0  0  0  0  0  0  0  0
    0.5524    5.8083   -4.2304 H   0  0  0  0  0  0  0  0  0  0  0  0
  1 21  1  0  0  0  0
  1 22  1  0  0  0  0
  1 23  1  0  0  0  0
  2 24  1  0  0  0  0
  2 25  1  0  0  0  0
  2 26  1  0  0  0  0
  3 27  1  0  0  0  0
  3 28  1  0  0  0  0
  4 16  1  1  0  0  0
  4  3  1  0  0  0  0
  5 17  1  1  0  0  0
  6  4  1  0  0  0  0
  6 18  1  6  0  0  0
  6 13  1  0  0  0  0
  7  5  1  0  0  0  0
  7  6  1  0  0  0  0
  7 14  1  0  0  0  0
  7 19  1  6  0  0  0
  8  4  1  0  0  0  0
  8  5  1  0  0  0  0
  8 20  1  1  0  0  0
 10  5  1  0  0  0  0
 10  9  2  0  0  0  0
 11  1  1  0  0  0  0
 11  2  1  0  0  0  0
 11  9  1  0  0  0  0
 12  3  1  0  0  0  0
 12 29  1  0  0  0  0
 13 30  1  0  0  0  0
 14 31  1  0  0  0  0
 15  8  1  0  0  0  0
 15  9  1  0  0  0  0
M  END
>  <DRUGBANK_ID>
DB04404

>  <SECONDARY_ACCESSION_NUMBERS>
EXPT00509

>  <COMMON_NAME>
Allosamizoline

$$$$
