
 OpenBabel10282417233D

 86 88  0  0  1  0  0  0  0  0999 V2000
   -1.4201    0.5757    0.6581 S   0  0  0  0  0  0  0  0  0  0  0  0
   -4.2148    2.2448    2.4245 O   0  0  0  0  0  0  0  0  0  0  0  0
   -2.3445    1.2649   -3.0057 O   0  0  0  0  0  0  0  0  0  0  0  0
   -3.1750   -2.9429    0.1251 O   0  0  0  0  0  0  0  0  0  0  0  0
   -7.7858    1.2629   -0.9744 O   0  0  0  0  0  0  0  0  0  0  0  0
   -4.8550    2.8067   -6.7767 O   0  0  0  0  0  0  0  0  0  0  0  0
   -5.2166    5.4114   -2.6907 O   0  0  0  0  0  0  0  0  0  0  0  0
   -4.2777    0.3154    1.2809 N   0  0  0  0  0  0  0  0  0  0  0  0
   -3.2240    2.2681   -1.1780 N   0  0  0  0  0  0  0  0  0  0  0  0
   -6.0796    1.0563   -2.4045 N   0  0  0  0  0  0  0  0  0  0  0  0
   -0.6502   -1.7752    0.0568 N   0  0  0  0  0  0  0  0  0  0  0  0
   -7.0153   -1.2247   -2.9201 N   0  0  0  0  0  0  0  0  0  0  0  0
   -3.5968    1.1757   -5.8394 N   0  0  0  0  0  0  0  0  0  0  0  0
   -6.9107    4.1161   -2.1790 N   0  0  0  0  0  0  0  0  0  0  0  0
   -7.3232   -1.0281   -0.6597 N   0  0  0  0  0  0  0  0  0  0  0  0
   -9.0338   -0.2852   -2.0539 N   0  0  0  0  0  0  0  0  0  0  0  0
   -4.0755    2.5862    0.0700 C   0  0  1  0  0  0  0  0  0  0  0  0
   -4.1971   -0.8612    0.3010 C   0  0  1  0  0  0  0  0  0  0  0  0
   -4.0647   -0.5171   -1.1612 C   0  0  0  0  0  0  0  0  0  0  0  0
   -5.5502    2.4100   -0.0477 C   0  0  0  0  0  0  0  0  0  0  0  0
   -4.8050    1.3442   -3.0930 C   0  0  1  0  0  0  0  0  0  0  0  0
   -4.0535    1.6955    1.3267 C   0  0  0  0  0  0  0  0  0  0  0  0
   -4.3461   -1.3793   -2.4266 C   0  0  0  0  0  0  0  0  0  0  0  0
   -5.0119    2.6167   -3.6889 C   0  0  0  0  0  0  0  0  0  0  0  0
   -3.3704    1.6070   -2.3940 C   0  0  0  0  0  0  0  0  0  0  0  0
   -3.0004   -1.7507    0.4101 C   0  0  0  0  0  0  0  0  0  0  0  0
   -6.7095    2.9914    0.7559 C   0  0  0  0  0  0  0  0  0  0  0  0
   -5.7435   -2.0240   -2.6974 C   0  0  0  0  0  0  0  0  0  0  0  0
   -4.0098    3.1956   -4.6084 C   0  0  0  0  0  0  0  0  0  0  0  0
   -1.7015   -1.0986    0.4174 C   0  0  0  0  0  0  0  0  0  0  0  0
   -7.6090    2.0639    1.3477 C   0  0  0  0  0  0  0  0  0  0  0  0
   -7.1514    4.3050    0.6277 C   0  0  0  0  0  0  0  0  0  0  0  0
   -7.2016    1.6909   -1.9173 C   0  0  0  0  0  0  0  0  0  0  0  0
   -4.1590    2.4261   -5.8787 C   0  0  0  0  0  0  0  0  0  0  0  0
   -8.9569    2.3647    1.5166 C   0  0  0  0  0  0  0  0  0  0  0  0
   -8.4304    4.6553    1.0506 C   0  0  0  0  0  0  0  0  0  0  0  0
    0.1671    0.4328    0.1403 C   0  0  0  0  0  0  0  0  0  0  0  0
    0.4187   -0.9279    0.0226 C   0  0  0  0  0  0  0  0  0  0  0  0
   -7.7508    2.9751   -2.4256 C   0  0  0  0  0  0  0  0  0  0  0  0
   -9.3467    3.6865    1.4532 C   0  0  0  0  0  0  0  0  0  0  0  0
    1.1394    1.4195   -0.0041 C   0  0  0  0  0  0  0  0  0  0  0  0
    1.7258   -1.3695   -0.0538 C   0  0  0  0  0  0  0  0  0  0  0  0
   -7.8394   -0.9970   -1.9336 C   0  0  0  0  0  0  0  0  0  0  0  0
    2.4488    0.9506   -0.0501 C   0  0  0  0  0  0  0  0  0  0  0  0
    2.7352   -0.4183   -0.0388 C   0  0  0  0  0  0  0  0  0  0  0  0
   -6.2458    4.8646   -3.0688 C   0  0  0  0  0  0  0  0  0  0  0  0
   -6.7530    4.7128   -4.4582 C   0  0  0  0  0  0  0  0  0  0  0  0
   -4.5792    0.0305    2.2072 H   0  0  0  0  0  0  0  0  0  0  0  0
   -2.2303    2.3742   -0.9848 H   0  0  0  0  0  0  0  0  0  0  0  0
   -6.1823    0.0655   -2.3026 H   0  0  0  0  0  0  0  0  0  0  0  0
   -3.1314    0.7917   -5.0240 H   0  0  0  0  0  0  0  0  0  0  0  0
   -3.8037    0.5562   -6.6076 H   0  0  0  0  0  0  0  0  0  0  0  0
   -6.2928    4.1064   -1.3899 H   0  0  0  0  0  0  0  0  0  0  0  0
   -7.6421   -0.2416   -0.0898 H   0  0  0  0  0  0  0  0  0  0  0  0
   -6.3536   -0.7643   -0.7354 H   0  0  0  0  0  0  0  0  0  0  0  0
   -9.0792    0.3304   -2.8701 H   0  0  0  0  0  0  0  0  0  0  0  0
   -9.1722    0.3842   -1.2743 H   0  0  0  0  0  0  0  0  0  0  0  0
   -3.9145    3.6609    0.2315 H   0  0  0  0  0  0  0  0  0  0  0  0
   -5.0898   -1.4570    0.4863 H   0  0  0  0  0  0  0  0  0  0  0  0
   -4.6208    0.3726   -1.1533 H   0  0  0  0  0  0  0  0  0  0  0  0
   -3.0313   -0.2079   -1.3152 H   0  0  0  0  0  0  0  0  0  0  0  0
   -5.5969    2.6748   -1.0609 H   0  0  0  0  0  0  0  0  0  0  0  0
   -5.7667    1.3432   -0.0366 H   0  0  0  0  0  0  0  0  0  0  0  0
   -4.8131    0.6132   -3.9040 H   0  0  0  0  0  0  0  0  0  0  0  0
   -4.0169   -0.8523   -3.3333 H   0  0  0  0  0  0  0  0  0  0  0  0
   -3.5545   -2.1361   -2.4481 H   0  0  0  0  0  0  0  0  0  0  0  0
   -5.9839    2.4112   -4.1276 H   0  0  0  0  0  0  0  0  0  0  0  0
   -4.9522    3.2030   -2.7968 H   0  0  0  0  0  0  0  0  0  0  0  0
   -5.6354   -2.5586   -3.6477 H   0  0  0  0  0  0  0  0  0  0  0  0
   -5.9209   -2.7255   -1.8931 H   0  0  0  0  0  0  0  0  0  0  0  0
   -4.2702    4.2366   -4.7712 H   0  0  0  0  0  0  0  0  0  0  0  0
   -3.0177    3.2108   -4.1694 H   0  0  0  0  0  0  0  0  0  0  0  0
   -7.3449    1.0144    1.4490 H   0  0  0  0  0  0  0  0  0  0  0  0
   -6.6079    5.0799    0.0900 H   0  0  0  0  0  0  0  0  0  0  0  0
   -9.6762    1.5612    1.6703 H   0  0  0  0  0  0  0  0  0  0  0  0
   -8.6986    5.7040    1.0234 H   0  0  0  0  0  0  0  0  0  0  0  0
   -8.0043    2.7335   -3.4495 H   0  0  0  0  0  0  0  0  0  0  0  0
   -8.6543    3.1276   -1.8289 H   0  0  0  0  0  0  0  0  0  0  0  0
  -10.3510    3.9630    1.7499 H   0  0  0  0  0  0  0  0  0  0  0  0
    0.9061    2.4809    0.0367 H   0  0  0  0  0  0  0  0  0  0  0  0
    1.8916   -2.4377   -0.0383 H   0  0  0  0  0  0  0  0  0  0  0  0
    3.2638    1.6675   -0.0459 H   0  0  0  0  0  0  0  0  0  0  0  0
    3.7582   -0.7681   -0.0133 H   0  0  0  0  0  0  0  0  0  0  0  0
   -6.5519    3.7613   -4.9361 H   0  0  0  0  0  0  0  0  0  0  0  0
   -7.8344    4.7130   -4.4014 H   0  0  0  0  0  0  0  0  0  0  0  0
   -6.2592    5.4373   -5.0797 H   0  0  0  0  0  0  0  0  0  0  0  0
  1 30  1  0  0  0  0
  1 37  1  0  0  0  0
  2 22  2  0  0  0  0
  3 25  2  0  0  0  0
  4 26  2  0  0  0  0
  5 33  2  0  0  0  0
  6 34  2  0  0  0  0
  7 46  2  0  0  0  0
  8 22  1  0  0  0  0
  8 48  1  0  0  0  0
  9 25  1  0  0  0  0
  9 49  1  0  0  0  0
 10 33  1  0  0  0  0
 10 50  1  0  0  0  0
 11 30  2  0  0  0  0
 11 38  1  0  0  0  0
 12 28  1  0  0  0  0
 12 43  2  0  0  0  0
 13 34  1  0  0  0  0
 13 51  1  0  0  0  0
 13 52  1  0  0  0  0
 14 39  1  0  0  0  0
 14 46  1  0  0  0  0
 14 53  1  0  0  0  0
 15 43  1  0  0  0  0
 15 54  1  0  0  0  0
 15 55  1  0  0  0  0
 16 43  1  0  0  0  0
 16 56  1  0  0  0  0
 16 57  1  0  0  0  0
 17  9  1  0  0  0  0
 17 20  1  0  0  0  0
 17 22  1  0  0  0  0
 17 58  1  1  0  0  0
 18  8  1  0  0  0  0
 18 19  1  0  0  0  0
 18 26  1  0  0  0  0
 18 59  1  1  0  0  0
 19 23  1  0  0  0  0
 19 60  1  0  0  0  0
 19 61  1  0  0  0  0
 20 27  1  0  0  0  0
 20 62  1  0  0  0  0
 20 63  1  0  0  0  0
 21 10  1  0  0  0  0
 21 24  1  0  0  0  0
 21 25  1  0  0  0  0
 21 64  1  6  0  0  0
 23 28  1  0  0  0  0
 23 65  1  0  0  0  0
 23 66  1  0  0  0  0
 24 29  1  0  0  0  0
 24 67  1  0  0  0  0
 24 68  1  0  0  0  0
 26 30  1  0  0  0  0
 27 31  2  0  0  0  0
 27 32  1  0  0  0  0
 28 69  1  0  0  0  0
 28 70  1  0  0  0  0
 29 34  1  0  0  0  0
 29 71  1  0  0  0  0
 29 72  1  0  0  0  0
 31 35  1  0  0  0  0
 31 73  1  0  0  0  0
 32 36  2  0  0  0  0
 32 74  1  0  0  0  0
 33 39  1  0  0  0  0
 35 40  2  0  0  0  0
 35 75  1  0  0  0  0
 36 40  1  0  0  0  0
 36 76  1  0  0  0  0
 37 38  1  0  0  0  0
 37 41  2  0  0  0  0
 38 42  2  0  0  0  0
 39 77  1  0  0  0  0
 39 78  1  0  0  0  0
 40 79  1  0  0  0  0
 41 44  1  0  0  0  0
 41 80  1  0  0  0  0
 42 45  1  0  0  0  0
 42 81  1  0  0  0  0
 44 45  2  0  0  0  0
 44 82  1  0  0  0  0
 45 83  1  0  0  0  0
 46 47  1  0  0  0  0
 47 84  1  0  0  0  0
 47 85  1  0  0  0  0
 47 86  1  0  0  0  0
M  END
>  <DRUGBANK_ID>
DB16737

>  <COMMON_NAME>
MM3122

>  <SYNONYMS>
Ac-GQFR-kbt

$$$$
