672
 OpenBabel10282417103D

 30 30  0  0  0  0  0  0  0  0999 V2000
   -2.4646   -0.4871   -0.0062 Cl  0  0  0  0  0  0  0  0  0  0  0  0
    4.1810   -0.1553   -0.2513 S   0  0  0  0  0  0  0  0  0  0  0  0
    4.3876   -0.7315    1.0755 O   0  0  0  0  0  0  0  0  0  0  0  0
    4.8480   -0.7727   -1.3792 O   0  0  0  0  0  0  0  0  0  0  0  0
    4.8485    4.0057   -0.0839 O   0  0  0  0  0  0  0  0  0  0  0  0
    4.8202    1.6258   -0.1324 N   0  0  0  0  0  0  0  0  0  0  0  0
    2.9089    3.0694    0.5793 N   0  0  0  0  0  0  0  0  0  0  0  0
    2.3977    1.8022    0.7584 C   0  0  0  0  0  0  0  0  0  0  0  0
    2.0843   -0.3819   -0.7074 C   0  0  0  0  0  0  0  0  0  0  0  0
    1.2680    1.3304    1.6742 C   0  0  0  0  0  0  0  0  0  0  0  0
    4.2005    2.9386    0.0963 C   0  0  0  0  0  0  0  0  0  0  0  0
    1.0863    0.7015   -1.1180 C   0  0  0  0  0  0  0  0  0  0  0  0
    1.5079   -1.5706   -0.2620 C   0  0  0  0  0  0  0  0  0  0  0  0
   -0.0559    2.0641    1.7343 C   0  0  0  0  0  0  0  0  0  0  0  0
   -0.3046    0.6655   -0.9908 C   0  0  0  0  0  0  0  0  0  0  0  0
    0.0662   -1.5980   -0.1975 C   0  0  0  0  0  0  0  0  0  0  0  0
   -0.8056   -0.4958   -0.4817 C   0  0  0  0  0  0  0  0  0  0  0  0
    5.8461    1.6569   -0.0352 H   0  0  0  0  0  0  0  0  0  0  0  0
    2.3336    3.7737    0.1169 H   0  0  0  0  0  0  0  0  0  0  0  0
    2.6004    1.5794   -0.2928 H   0  0  0  0  0  0  0  0  0  0  0  0
    3.1764    1.2322    1.2244 H   0  0  0  0  0  0  0  0  0  0  0  0
    1.0589    0.2485    1.6056 H   0  0  0  0  0  0  0  0  0  0  0  0
    1.7478    1.3637    2.6539 H   0  0  0  0  0  0  0  0  0  0  0  0
    1.2460    1.7905   -1.1861 H   0  0  0  0  0  0  0  0  0  0  0  0
    2.1029   -2.4299    0.0648 H   0  0  0  0  0  0  0  0  0  0  0  0
   -0.8194    1.7975    1.0079 H   0  0  0  0  0  0  0  0  0  0  0  0
   -0.5726    1.8243    2.6694 H   0  0  0  0  0  0  0  0  0  0  0  0
    0.1130    3.1267    1.6065 H   0  0  0  0  0  0  0  0  0  0  0  0
   -0.8631    1.6234   -1.0261 H   0  0  0  0  0  0  0  0  0  0  0  0
   -0.4279   -2.5083    0.1249 H   0  0  0  0  0  0  0  0  0  0  0  0
  1 17  1  0  0  0  0
  2  3  2  0  0  0  0
  2  4  2  0  0  0  0
  2  6  1  0  0  0  0
  2  9  1  0  0  0  0
  5 11  2  0  0  0  0
  6 11  1  0  0  0  0
  6 18  1  0  0  0  0
  7  8  1  0  0  0  0
  7 11  1  0  0  0  0
  7 19  1  0  0  0  0
  8 10  1  0  0  0  0
  8 20  1  0  0  0  0
  8 21  1  0  0  0  0
  9 12  2  0  0  0  0
  9 13  1  0  0  0  0
 10 14  1  0  0  0  0
 10 22  1  0  0  0  0
 10 23  1  0  0  0  0
 12 15  1  0  0  0  0
 12 24  1  0  0  0  0
 13 16  2  0  0  0  0
 13 25  1  0  0  0  0
 14 26  1  0  0  0  0
 14 27  1  0  0  0  0
 14 28  1  0  0  0  0
 15 17  2  0  0  0  0
 15 29  1  0  0  0  0
 16 17  1  0  0  0  0
 16 30  1  0  0  0  0
M  END
>  <DRUGBANK_ID>
DB00672

>  <SECONDARY_ACCESSION_NUMBERS>
APRD00029

>  <COMMON_NAME>
Chlorpropamide

>  <CAS_NUMBER>
94-20-2

>  <UNII>
WTM2C3IL2X

>  <SYNONYMS>
1-(p-chlorobenzenesulfonyl)-3-propylurea; 1-(p-chlorophenylsulfonyl)-3-propylurea; 1-propyl-3-(p-chlorobenzenesulfonyl)urea; 4-chloro-N-((propylamino)carbonyl)benzenesulfonamide; 4-chloro-N-[(propylamino)carbonyl]benzenesulfonamide; Chlorpropamid; Chlorpropamide; Chlorpropamidum; Clorpropamida; N-(4-chlorophenylsulfonyl)-N'-propylurea; N-(p-chlorobenzenesulfonyl)-N'-propylurea; n-propyl-N'-(p-chlorobenzenesulfonyl)urea; n-propyl-N'-p-chlorophenylsulfonylcarbamide

$$$$
