XX4
 OpenBabel10282417173D

 61 64  0  0  0  0  0  0  0  0999 V2000
    0.7566   -0.0121   -0.3474 C   0  0  0  0  0  0  0  0  0  0  0  0
   -0.0303   -1.2514   -0.6833 N   0  0  0  0  0  0  0  0  0  0  0  0
    0.6476   -1.9710   -1.7192 C   0  0  0  0  0  0  0  0  0  0  0  0
    1.5239   -1.4534   -2.4138 O   0  0  0  0  0  0  0  0  0  0  0  0
    0.3516   -3.4557   -1.8953 C   0  0  0  0  0  0  0  0  0  0  0  0
    1.1128   -4.5542   -0.9984 C   0  0  0  0  0  0  0  0  0  0  0  0
    1.3349   -4.4550    0.5819 N   0  0  0  0  0  0  0  0  0  0  0  0
    1.8289   -3.0622    1.0957 C   0  0  0  0  0  0  0  0  0  0  0  0
    1.5198   -2.5536    2.6381 C   0  0  0  0  0  0  0  0  0  0  0  0
    1.2808   -1.0417    3.1353 C   0  0  0  0  0  0  0  0  0  0  0  0
    0.5263   -0.4969    4.2980 C   0  0  0  0  0  0  0  0  0  0  0  0
   -0.0538    0.9898    4.4462 C   0  0  0  0  0  0  0  0  0  0  0  0
   -0.6405    1.3940    5.3931 O   0  0  0  0  0  0  0  0  0  0  0  0
    0.2823    1.9854    3.3563 C   0  0  0  0  0  0  0  0  0  0  0  0
   -0.4599    2.1807    2.1857 C   0  0  0  0  0  0  0  0  0  0  0  0
    0.1429    2.8300    1.0914 C   0  0  0  0  0  0  0  0  0  0  0  0
    1.3987    3.4137    1.2312 C   0  0  0  0  0  0  0  0  0  0  0  0
    2.0222    3.4072    2.4751 C   0  0  0  0  0  0  0  0  0  0  0  0
    1.4913    2.6489    3.5205 C   0  0  0  0  0  0  0  0  0  0  0  0
    0.0721   -1.4556    5.1796 C   0  0  0  0  0  0  0  0  0  0  0  0
    0.3639   -2.8816    4.8183 C   0  0  0  0  0  0  0  0  0  0  0  0
    1.1060   -3.5404    3.5140 C   0  0  0  0  0  0  0  0  0  0  0  0
    0.9459   -5.0667    2.9350 N   0  0  0  0  0  0  0  0  0  0  0  0
    0.9238   -5.3955    1.5882 C   0  0  0  0  0  0  0  0  0  0  0  0
    0.1311   -6.4951    1.0631 N   0  0  0  0  0  0  0  0  0  0  0  0
   -1.3261   -1.7877    0.2771 C   0  0  0  0  0  0  0  0  0  0  0  0
   -1.2015   -1.2891    1.7124 C   0  0  0  0  0  0  0  0  0  0  0  0
   -1.8497   -2.1669    2.9695 C   0  0  0  0  0  0  0  0  0  0  0  0
   -1.7006   -3.6929    3.2428 C   0  0  0  0  0  0  0  0  0  0  0  0
   -1.5861   -4.0879    1.8285 C   0  0  0  0  0  0  0  0  0  0  0  0
   -1.3100   -3.2676    0.5701 C   0  0  0  0  0  0  0  0  0  0  0  0
    0.4829    0.3843    0.6156 H   0  0  0  0  0  0  0  0  0  0  0  0
    0.6402    0.7777   -1.0985 H   0  0  0  0  0  0  0  0  0  0  0  0
    1.8466   -0.2133   -0.2714 H   0  0  0  0  0  0  0  0  0  0  0  0
   -0.7366   -3.5568   -1.9496 H   0  0  0  0  0  0  0  0  0  0  0  0
    0.6130   -3.6813   -2.9522 H   0  0  0  0  0  0  0  0  0  0  0  0
    0.6493   -5.5161   -1.3054 H   0  0  0  0  0  0  0  0  0  0  0  0
    2.1283   -4.5984   -1.4023 H   0  0  0  0  0  0  0  0  0  0  0  0
    1.2132   -2.4697    0.4703 H   0  0  0  0  0  0  0  0  0  0  0  0
    2.7356   -2.6811    0.6230 H   0  0  0  0  0  0  0  0  0  0  0  0
    1.4356   -0.2353    2.4149 H   0  0  0  0  0  0  0  0  0  0  0  0
   -1.4588    1.7753    2.0525 H   0  0  0  0  0  0  0  0  0  0  0  0
   -0.3274    2.8150    0.1074 H   0  0  0  0  0  0  0  0  0  0  0  0
    1.8906    3.8759    0.3765 H   0  0  0  0  0  0  0  0  0  0  0  0
    2.9437    3.9590    2.6265 H   0  0  0  0  0  0  0  0  0  0  0  0
    2.0410    2.5409    4.4505 H   0  0  0  0  0  0  0  0  0  0  0  0
   -0.7284   -1.1853    5.9151 H   0  0  0  0  0  0  0  0  0  0  0  0
   -0.3785   -3.4550    5.4219 H   0  0  0  0  0  0  0  0  0  0  0  0
   -0.4246   -7.1365    1.6398 H   0  0  0  0  0  0  0  0  0  0  0  0
    0.2003   -6.8871    0.1239 H   0  0  0  0  0  0  0  0  0  0  0  0
   -2.2481   -1.5207   -0.2237 H   0  0  0  0  0  0  0  0  0  0  0  0
   -0.1361   -1.2465    1.7205 H   0  0  0  0  0  0  0  0  0  0  0  0
   -1.4555   -0.2425    1.8123 H   0  0  0  0  0  0  0  0  0  0  0  0
   -1.7584   -1.5563    3.8522 H   0  0  0  0  0  0  0  0  0  0  0  0
   -2.9028   -2.1646    2.7349 H   0  0  0  0  0  0  0  0  0  0  0  0
   -0.9332   -4.2530    3.8495 H   0  0  0  0  0  0  0  0  0  0  0  0
   -2.4539   -4.2600    3.8154 H   0  0  0  0  0  0  0  0  0  0  0  0
   -0.5686   -4.2569    1.9827 H   0  0  0  0  0  0  0  0  0  0  0  0
   -2.0769   -5.0196    1.6345 H   0  0  0  0  0  0  0  0  0  0  0  0
   -1.2592   -3.9631   -0.2418 H   0  0  0  0  0  0  0  0  0  0  0  0
   -0.2892   -3.1338    0.7723 H   0  0  0  0  0  0  0  0  0  0  0  0
  1  2  1  0  0  0  0
  1 32  1  0  0  0  0
  1 33  1  0  0  0  0
  1 34  1  0  0  0  0
  2 26  1  0  0  0  0
  2  3  1  0  0  0  0
  3  4  2  0  0  0  0
  3  5  1  0  0  0  0
  5  6  1  0  0  0  0
  5 35  1  0  0  0  0
  5 36  1  0  0  0  0
  6  7  1  0  0  0  0
  6 37  1  0  0  0  0
  6 38  1  0  0  0  0
  7 24  1  0  0  0  0
  7  8  1  0  0  0  0
  8  9  1  0  0  0  0
  8 39  1  0  0  0  0
  8 40  1  0  0  0  0
  9 10  2  0  0  0  0
  9 22  1  0  0  0  0
 10 11  1  0  0  0  0
 10 41  1  0  0  0  0
 11 12  1  0  0  0  0
 11 20  2  0  0  0  0
 12 14  1  0  0  0  0
 12 13  2  0  0  0  0
 14 15  2  0  0  0  0
 14 19  1  0  0  0  0
 15 16  1  0  0  0  0
 15 42  1  0  0  0  0
 16 17  2  0  0  0  0
 16 43  1  0  0  0  0
 17 18  1  0  0  0  0
 17 44  1  0  0  0  0
 18 19  2  0  0  0  0
 18 45  1  0  0  0  0
 19 46  1  0  0  0  0
 20 21  1  0  0  0  0
 20 47  1  0  0  0  0
 21 22  2  0  0  0  0
 21 48  1  0  0  0  0
 22 23  1  0  0  0  0
 23 24  2  0  0  0  0
 24 25  1  0  0  0  0
 25 49  1  0  0  0  0
 25 50  1  0  0  0  0
 26 27  1  0  0  0  0
 26 31  1  0  0  0  0
 26 51  1  0  0  0  0
 27 28  1  0  0  0  0
 27 52  1  0  0  0  0
 27 53  1  0  0  0  0
 28 29  1  0  0  0  0
 28 54  1  0  0  0  0
 28 55  1  0  0  0  0
 29 30  1  0  0  0  0
 29 56  1  0  0  0  0
 29 57  1  0  0  0  0
 30 31  1  0  0  0  0
 30 58  1  0  0  0  0
 30 59  1  0  0  0  0
 31 60  1  0  0  0  0
 31 61  1  0  0  0  0
M  END
>  <DRUGBANK_ID>
DB08749

>  <COMMON_NAME>
3-(2-AMINO-6-BENZOYLQUINAZOLIN-3(4H)-YL)-N-CYCLOHEXYL-N-METHYLPROPANAMIDE

$$$$
