1BD
 OpenBabel10282417163D

 28 28  0  0  0  0  0  0  0  0999 V2000
   -4.3648    4.3102    0.6706 C   0  0  0  0  0  0  0  0  0  0  0  0
   -3.0038    4.0661    0.8695 C   0  0  0  0  0  0  0  0  0  0  0  0
   -2.4629    2.7883    0.6587 C   0  0  0  0  0  0  0  0  0  0  0  0
   -3.3277    1.7134    0.4075 C   0  0  0  0  0  0  0  0  0  0  0  0
   -4.7068    1.9641    0.2528 C   0  0  0  0  0  0  0  0  0  0  0  0
   -5.2174    3.2579    0.3588 C   0  0  0  0  0  0  0  0  0  0  0  0
   -0.9819    2.6269    0.5670 C   0  0  0  0  0  0  0  0  0  0  0  0
   -0.1758    3.5868    0.8942 N   0  0  0  0  0  0  0  0  0  0  0  0
    1.1156    3.3136    0.4071 O   0  0  0  0  0  0  0  0  0  0  0  0
    1.9029    4.5085    0.5083 C   0  0  0  0  0  0  0  0  0  0  0  0
    1.5836    5.5563   -0.5550 C   0  0  0  0  0  0  0  0  0  0  0  0
    0.2246    6.1730   -0.4153 C   0  0  0  0  0  0  0  0  0  0  0  0
   -0.0247    7.2673    0.0776 O   0  0  0  0  0  0  0  0  0  0  0  0
   -0.7641    5.4168   -0.9191 O   0  0  0  0  0  0  0  0  0  0  0  0
   -2.8129    0.3028    0.4067 C   0  0  0  0  0  0  0  0  0  0  0  0
   -2.1630    0.0076    1.5665 F   0  0  0  0  0  0  0  0  0  0  0  0
   -1.9322    0.0521   -0.5978 F   0  0  0  0  0  0  0  0  0  0  0  0
   -3.7920   -0.6350    0.2841 F   0  0  0  0  0  0  0  0  0  0  0  0
   -4.7589    5.3210    0.7554 H   0  0  0  0  0  0  0  0  0  0  0  0
   -2.3647    4.8866    1.1843 H   0  0  0  0  0  0  0  0  0  0  0  0
   -5.3956    1.1431    0.0545 H   0  0  0  0  0  0  0  0  0  0  0  0
   -6.2834    3.4384    0.2334 H   0  0  0  0  0  0  0  0  0  0  0  0
   -0.5816    1.6956    0.1298 H   0  0  0  0  0  0  0  0  0  0  0  0
    1.8200    4.9132    1.5226 H   0  0  0  0  0  0  0  0  0  0  0  0
    2.9476    4.2015    0.3717 H   0  0  0  0  0  0  0  0  0  0  0  0
    2.3070    6.3776   -0.4711 H   0  0  0  0  0  0  0  0  0  0  0  0
    1.6753    5.1516   -1.5677 H   0  0  0  0  0  0  0  0  0  0  0  0
   -1.5768    5.7870   -0.5233 H   0  0  0  0  0  0  0  0  0  0  0  0
  1  6  1  0  0  0  0
  1 19  1  0  0  0  0
  2  1  2  0  0  0  0
  2 20  1  0  0  0  0
  3  2  1  0  0  0  0
  3  4  2  0  0  0  0
  4  5  1  0  0  0  0
  5  6  2  0  0  0  0
  5 21  1  0  0  0  0
  6 22  1  0  0  0  0
  7  3  1  0  0  0  0
  7 23  1  0  0  0  0
  8  7  2  0  0  0  0
  9  8  1  0  0  0  0
 10  9  1  0  0  0  0
 10 24  1  0  0  0  0
 10 25  1  0  0  0  0
 11 10  1  0  0  0  0
 11 26  1  0  0  0  0
 11 27  1  0  0  0  0
 12 11  1  0  0  0  0
 13 12  2  0  0  0  0
 14 12  1  0  0  0  0
 14 28  1  0  0  0  0
 15  4  1  0  0  0  0
 15 17  1  0  0  0  0
 16 15  1  0  0  0  0
 18 15  1  0  0  0  0
M  END
>  <DRUGBANK_ID>
DB06885

>  <COMMON_NAME>
3-[({(1E)-[2-(trifluoromethyl)phenyl]methylidene}amino)oxy]propanoic acid

$$$$
