
 OpenBabel10282417183D

 14 13  0  0  0  0  0  0  0  0999 V2000
    1.0160   -0.0858   -0.1373 C   0  0  0  0  0  0  0  0  0  0  0  0
    0.5239   -1.4308    0.3755 C   0  0  0  0  0  0  0  0  0  0  0  0
    0.9709   -1.7223    1.8119 C   0  0  0  0  0  0  0  0  0  0  0  0
    0.4916   -0.7139    2.8535 C   0  0  0  0  0  0  0  0  0  0  0  0
   -1.2827   -0.6468    2.9551 Cl  0  0  0  0  0  0  0  0  0  0  0  0
    0.6216    0.7423    0.4595 H   0  0  0  0  0  0  0  0  0  0  0  0
    0.6861    0.0697   -1.1692 H   0  0  0  0  0  0  0  0  0  0  0  0
    2.1082   -0.0371   -0.1157 H   0  0  0  0  0  0  0  0  0  0  0  0
   -0.5662   -1.4767    0.2961 H   0  0  0  0  0  0  0  0  0  0  0  0
    0.9143   -2.2204   -0.2795 H   0  0  0  0  0  0  0  0  0  0  0  0
    0.6247   -2.7259    2.0918 H   0  0  0  0  0  0  0  0  0  0  0  0
    2.0663   -1.7567    1.8408 H   0  0  0  0  0  0  0  0  0  0  0  0
    0.8630   -0.9918    3.8442 H   0  0  0  0  0  0  0  0  0  0  0  0
    0.8554    0.2941    2.6365 H   0  0  0  0  0  0  0  0  0  0  0  0
  1  6  1  0  0  0  0
  1  7  1  0  0  0  0
  1  8  1  0  0  0  0
  2  1  1  0  0  0  0
  2  9  1  0  0  0  0
  2 10  1  0  0  0  0
  3  2  1  0  0  0  0
  3 11  1  0  0  0  0
  3 12  1  0  0  0  0
  4  3  1  0  0  0  0
  4 13  1  0  0  0  0
  4 14  1  0  0  0  0
  5  4  1  0  0  0  0
M  END
>  <DRUGBANK_ID>
DB11534

>  <COMMON_NAME>
Butyl chloride

>  <CAS_NUMBER>
109-69-3

>  <UNII>
ZP7R667SGD

>  <SYNONYMS>
n-Butyl chloride; n-Propylcarbinyl chloride

$$$$
