
 OpenBabel10282417233D

 17 16  0  0  0  0  0  0  0  0999 V2000
    0.9279   -0.0690   -0.1290 C   0  0  0  0  0  0  0  0  0  0  0  0
    0.4257   -1.0767    0.8964 C   0  0  0  0  0  0  0  0  0  0  0  0
    0.9060   -0.7769    2.3274 C   0  0  0  0  0  0  0  0  0  0  0  0
    0.4222    0.5877    2.8221 C   0  0  0  0  0  0  0  0  0  0  0  0
    0.4212   -1.8687    3.2846 C   0  0  0  0  0  0  0  0  0  0  0  0
    0.5417    0.9351    0.0697 H   0  0  0  0  0  0  0  0  0  0  0  0
    0.5943   -0.3514   -1.1324 H   0  0  0  0  0  0  0  0  0  0  0  0
    2.0209   -0.0254   -0.1311 H   0  0  0  0  0  0  0  0  0  0  0  0
   -0.6693   -1.1053    0.8651 H   0  0  0  0  0  0  0  0  0  0  0  0
    0.7761   -2.0740    0.5994 H   0  0  0  0  0  0  0  0  0  0  0  0
    2.0023   -0.7795    2.3375 H   0  0  0  0  0  0  0  0  0  0  0  0
   -0.6705    0.6481    2.8048 H   0  0  0  0  0  0  0  0  0  0  0  0
    0.7580    0.7700    3.8484 H   0  0  0  0  0  0  0  0  0  0  0  0
    0.8187    1.4013    2.2074 H   0  0  0  0  0  0  0  0  0  0  0  0
    0.7900   -2.8528    2.9761 H   0  0  0  0  0  0  0  0  0  0  0  0
    0.7829   -1.6811    4.3016 H   0  0  0  0  0  0  0  0  0  0  0  0
   -0.6724   -1.9108    3.3179 H   0  0  0  0  0  0  0  0  0  0  0  0
  1  2  1  0  0  0  0
  1  6  1  0  0  0  0
  1  7  1  0  0  0  0
  1  8  1  0  0  0  0
  2  3  1  0  0  0  0
  2  9  1  0  0  0  0
  2 10  1  0  0  0  0
  3  4  1  0  0  0  0
  3  5  1  0  0  0  0
  3 11  1  0  0  0  0
  4 12  1  0  0  0  0
  4 13  1  0  0  0  0
  4 14  1  0  0  0  0
  5 15  1  0  0  0  0
  5 16  1  0  0  0  0
  5 17  1  0  0  0  0
M  END
>  <DRUGBANK_ID>
DB16203

>  <COMMON_NAME>
Isopentane

>  <CAS_NUMBER>
78-78-4

>  <UNII>
ZH67814I0O

>  <SYNONYMS>
Methylbutane

$$$$
