
 OpenBabel10282417163D

 58 60  0  0  0  0  0  0  0  0999 V2000
    3.6031   -2.1379   -3.0928 C   0  0  0  0  0  0  0  0  0  0  0  0
    5.5670    0.1223   -6.0557 C   0  0  0  0  0  0  0  0  0  0  0  0
    2.7413   -1.6308    0.2958 C   0  0  0  0  0  0  0  0  0  0  0  0
    3.6171   -2.4783    2.1109 C   0  0  0  0  0  0  0  0  0  0  0  0
    4.5192   -2.0252   -0.4563 C   0  0  0  0  0  0  0  0  0  0  0  0
    5.1750   -2.7241    1.4494 C   0  0  0  0  0  0  0  0  0  0  0  0
    0.9568   -2.5585   -2.3925 C   0  0  0  0  0  0  0  0  0  0  0  0
    2.5535   -4.3294   -1.5350 C   0  0  0  0  0  0  0  0  0  0  0  0
    5.8135    1.3374   -3.4290 C   0  0  0  0  0  0  0  0  0  0  0  0
    6.0871   -1.1911   -3.6419 C   0  0  0  0  0  0  0  0  0  0  0  0
    1.1622   -3.8657   -1.5452 C   0  0  1  0  0  0  0  0  0  0  0  0
    5.8154   -0.0471   -2.7329 C   0  0  1  0  0  0  0  0  0  0  0  0
    3.7487    0.0178   -0.7468 C   0  0  0  0  0  0  0  0  0  0  0  0
    8.1156    0.1649   -6.0386 C   0  0  0  0  0  0  0  0  0  0  0  0
    1.2525   -3.2328    1.1086 C   0  0  0  0  0  0  0  0  0  0  0  0
    6.6831   -1.1004   -0.1786 C   0  0  0  0  0  0  0  0  0  0  0  0
    3.0061   -1.4511   -1.8506 C   0  0  1  0  0  0  0  0  0  0  0  0
    6.8556    0.2312   -5.2123 C   0  0  1  0  0  0  0  0  0  0  0  0
    2.4925   -2.6261    1.1925 N   0  0  0  0  0  0  0  0  0  0  0  0
    5.6159   -1.8769    0.3321 N   0  0  0  0  0  0  0  0  0  0  0  0
    4.0232    0.0786    0.5342 O   0  0  0  0  0  0  0  0  0  0  0  0
    4.6690    0.9883   -1.0635 O   0  0  0  0  0  0  0  0  0  0  0  0
    9.0457    0.9548   -5.9975 O   0  0  0  0  0  0  0  0  0  0  0  0
    8.1870   -0.9583   -6.7991 O   0  0  0  0  0  0  0  0  0  0  0  0
    0.5640   -3.4180    2.1385 O   0  0  0  0  0  0  0  0  0  0  0  0
    7.6707   -0.8893    0.5767 O   0  0  0  0  0  0  0  0  0  0  0  0
    1.6378   -1.3137   -2.1929 O   0  0  0  0  0  0  0  0  0  0  0  0
    3.0213   -3.0764   -1.1612 O   0  0  0  0  0  0  0  0  0  0  0  0
    6.8517    1.3866   -4.3780 O   0  0  0  0  0  0  0  0  0  0  0  0
    7.1420   -0.9512   -4.4684 O   0  0  0  0  0  0  0  0  0  0  0  0
    0.6903   -3.6639   -0.1138 O   0  0  0  0  0  0  0  0  0  0  0  0
    6.6710   -0.3148   -1.4228 O   0  0  0  0  0  0  0  0  0  0  0  0
    0.5837   -4.6655   -2.0173 H   0  0  0  0  0  0  0  0  0  0  0  0
    4.7454   -0.0814   -2.5822 H   0  0  0  0  0  0  0  0  0  0  0  0
    4.6137   -2.2599   -2.8348 H   0  0  0  0  0  0  0  0  0  0  0  0
    3.5845   -3.2109   -3.3324 H   0  0  0  0  0  0  0  0  0  0  0  0
    3.3112   -1.5841   -3.9562 H   0  0  0  0  0  0  0  0  0  0  0  0
    5.4874    0.9977   -6.6944 H   0  0  0  0  0  0  0  0  0  0  0  0
    5.5247   -0.8124   -6.6237 H   0  0  0  0  0  0  0  0  0  0  0  0
    4.6345    0.1226   -5.4668 H   0  0  0  0  0  0  0  0  0  0  0  0
    1.7914   -1.5721   -0.2772 H   0  0  0  0  0  0  0  0  0  0  0  0
    2.3714   -0.6089    0.6461 H   0  0  0  0  0  0  0  0  0  0  0  0
    3.5866   -1.4456    2.4967 H   0  0  0  0  0  0  0  0  0  0  0  0
    3.4134   -3.2133    2.8609 H   0  0  0  0  0  0  0  0  0  0  0  0
    4.7921   -3.0004   -0.9565 H   0  0  0  0  0  0  0  0  0  0  0  0
    4.8567   -1.4394   -1.2776 H   0  0  0  0  0  0  0  0  0  0  0  0
    5.0983   -3.7454    1.0142 H   0  0  0  0  0  0  0  0  0  0  0  0
    5.9389   -2.6169    2.1874 H   0  0  0  0  0  0  0  0  0  0  0  0
   -0.0545   -2.2484   -2.2030 H   0  0  0  0  0  0  0  0  0  0  0  0
    1.1537   -2.8064   -3.4377 H   0  0  0  0  0  0  0  0  0  0  0  0
    2.7267   -5.1630   -0.8022 H   0  0  0  0  0  0  0  0  0  0  0  0
    3.0932   -4.6920   -2.4100 H   0  0  0  0  0  0  0  0  0  0  0  0
    5.8233    2.2020   -2.7547 H   0  0  0  0  0  0  0  0  0  0  0  0
    4.8531    1.4855   -3.9747 H   0  0  0  0  0  0  0  0  0  0  0  0
    6.3155   -2.0853   -3.0670 H   0  0  0  0  0  0  0  0  0  0  0  0
    5.2194   -1.3502   -4.2880 H   0  0  0  0  0  0  0  0  0  0  0  0
    5.4157    0.8216   -0.3781 H   0  0  0  0  0  0  0  0  0  0  0  0
    9.0844   -0.9285   -7.1797 H   0  0  0  0  0  0  0  0  0  0  0  0
  1 35  1  0  0  0  0
  1 36  1  0  0  0  0
  1 37  1  0  0  0  0
  2 38  1  0  0  0  0
  2 39  1  0  0  0  0
  2 40  1  0  0  0  0
  3 41  1  0  0  0  0
  3 42  1  0  0  0  0
  4 43  1  0  0  0  0
  4 44  1  0  0  0  0
  5  3  1  0  0  0  0
  5 45  1  0  0  0  0
  5 46  1  0  0  0  0
  6  4  1  0  0  0  0
  6 47  1  0  0  0  0
  6 48  1  0  0  0  0
  7 49  1  0  0  0  0
  7 50  1  0  0  0  0
  8 51  1  0  0  0  0
  8 52  1  0  0  0  0
  9 53  1  0  0  0  0
  9 54  1  0  0  0  0
 10 55  1  0  0  0  0
 10 56  1  0  0  0  0
 11  7  1  0  0  0  0
 11  8  1  0  0  0  0
 11 31  1  0  0  0  0
 11 33  1  6  0  0  0
 12  9  1  0  0  0  0
 12 10  1  0  0  0  0
 12 34  1  1  0  0  0
 12 32  1  0  0  0  0
 17 13  1  1  0  0  0
 17  1  1  0  0  0  0
 18 14  1  6  0  0  0
 18  2  1  0  0  0  0
 19  3  1  0  0  0  0
 19  4  1  0  0  0  0
 19 15  1  0  0  0  0
 20  5  1  0  0  0  0
 20  6  1  0  0  0  0
 20 16  1  0  0  0  0
 21 13  2  0  0  0  0
 22 13  1  0  0  0  0
 22 57  1  0  0  0  0
 23 14  2  0  0  0  0
 24 14  1  0  0  0  0
 24 58  1  0  0  0  0
 25 15  2  0  0  0  0
 26 16  2  0  0  0  0
 27  7  1  0  0  0  0
 27 17  1  0  0  0  0
 28  8  1  0  0  0  0
 28 17  1  0  0  0  0
 29  9  1  0  0  0  0
 29 18  1  0  0  0  0
 30 10  1  0  0  0  0
 30 18  1  0  0  0  0
 31 15  1  0  0  0  0
 32 16  1  0  0  0  0
M  END
>  <DRUGBANK_ID>
DB07580

>  <COMMON_NAME>
BIS-1,2-{[(Z)-2CARBOXY-2-METHYL-1,3-DIOXANE]-5-YLOXYCARBONYL}-PIPERAZINE

$$$$
