
 OpenBabel10282417103D

 51 54  0  0  0  0  0  0  0  0999 V2000
   -0.8009    0.3813    0.6930 N   0  0  0  0  0  0  0  0  0  0  0  0
   -0.4783   -1.0660    0.6032 C   0  0  1  0  0  0  0  0  0  0  0  0
   -1.9766    0.2395   -0.0045 C   0  0  0  0  0  0  0  0  0  0  0  0
   -1.8829   -1.3124    0.0136 C   0  0  1  0  0  0  0  0  0  0  0  0
    0.2095    1.3417    0.2206 C   0  0  2  0  0  0  0  0  0  0  0  0
    0.9586   -1.1335   -0.5236 S   0  0  0  0  0  0  0  0  0  0  0  0
   -2.1286   -3.4219   -1.3019 C   0  0  0  0  0  0  0  0  0  0  0  0
    1.5298    0.5440    0.0252 C   0  0  0  0  0  0  0  0  0  0  0  0
   -1.9636   -2.0463   -1.2881 N   0  0  0  0  0  0  0  0  0  0  0  0
   -2.2472   -4.0875   -2.6387 C   0  0  0  0  0  0  0  0  0  0  0  0
    0.3404    2.5609    1.1629 C   0  0  0  0  0  0  0  0  0  0  0  0
   -3.3333   -4.9895   -2.8764 C   0  0  0  0  0  0  0  0  0  0  0  0
   -2.6637    1.0891   -0.5204 O   0  0  0  0  0  0  0  0  0  0  0  0
   -1.2980   -3.8326   -3.6485 C   0  0  0  0  0  0  0  0  0  0  0  0
   -2.2312   -4.0648   -0.2613 O   0  0  0  0  0  0  0  0  0  0  0  0
   -0.4980    3.5902    0.8958 O   0  0  0  0  0  0  0  0  0  0  0  0
    1.0981    2.6360    2.1197 O   0  0  0  0  0  0  0  0  0  0  0  0
   -3.4420   -5.6010   -4.1521 C   0  0  0  0  0  0  0  0  0  0  0  0
   -1.4885   -4.3987   -4.9113 C   0  0  0  0  0  0  0  0  0  0  0  0
   -2.5237   -5.2937   -5.1522 C   0  0  0  0  0  0  0  0  0  0  0  0
    2.4150    1.0993   -1.0911 C   0  0  0  0  0  0  0  0  0  0  0  0
    2.3579    0.3404    1.3020 C   0  0  0  0  0  0  0  0  0  0  0  0
   -0.2036   -3.0749   -3.3233 O   0  0  0  0  0  0  0  0  0  0  0  0
   -4.3334   -5.3201   -1.9310 C   0  0  0  0  0  0  0  0  0  0  0  0
   -4.4796   -6.5011   -4.4360 C   0  0  0  0  0  0  0  0  0  0  0  0
    0.8182   -2.8723   -4.3055 C   0  0  0  0  0  0  0  0  0  0  0  0
   -5.3659   -6.2139   -2.2242 C   0  0  0  0  0  0  0  0  0  0  0  0
    1.5999   -4.1349   -4.6617 C   0  0  0  0  0  0  0  0  0  0  0  0
   -5.4395   -6.8043   -3.4768 C   0  0  0  0  0  0  0  0  0  0  0  0
   -0.3065   -1.5176    1.5846 H   0  0  0  0  0  0  0  0  0  0  0  0
   -2.5866   -1.7406    0.7404 H   0  0  0  0  0  0  0  0  0  0  0  0
   -0.1128    1.7298   -0.7582 H   0  0  0  0  0  0  0  0  0  0  0  0
   -1.7656   -1.5788   -2.1661 H   0  0  0  0  0  0  0  0  0  0  0  0
   -1.1832    3.4300    0.2189 H   0  0  0  0  0  0  0  0  0  0  0  0
   -0.8282   -4.1936   -5.7463 H   0  0  0  0  0  0  0  0  0  0  0  0
   -2.5965   -5.7477   -6.1390 H   0  0  0  0  0  0  0  0  0  0  0  0
    2.7756    2.1022   -0.8423 H   0  0  0  0  0  0  0  0  0  0  0  0
    3.2974    0.4653   -1.2485 H   0  0  0  0  0  0  0  0  0  0  0  0
    1.8818    1.1649   -2.0469 H   0  0  0  0  0  0  0  0  0  0  0  0
    3.1620   -0.3899    1.1666 H   0  0  0  0  0  0  0  0  0  0  0  0
    2.8579    1.2692    1.5961 H   0  0  0  0  0  0  0  0  0  0  0  0
    1.7367    0.0123    2.1438 H   0  0  0  0  0  0  0  0  0  0  0  0
   -4.3215   -4.8864   -0.9334 H   0  0  0  0  0  0  0  0  0  0  0  0
   -4.5526   -6.9714   -5.4150 H   0  0  0  0  0  0  0  0  0  0  0  0
    0.3970   -2.3744   -5.1867 H   0  0  0  0  0  0  0  0  0  0  0  0
    1.5267   -2.1595   -3.8674 H   0  0  0  0  0  0  0  0  0  0  0  0
   -6.1067   -6.4448   -1.4640 H   0  0  0  0  0  0  0  0  0  0  0  0
    0.9814   -4.9296   -5.0850 H   0  0  0  0  0  0  0  0  0  0  0  0
    2.3706   -3.9071   -5.4032 H   0  0  0  0  0  0  0  0  0  0  0  0
    2.0617   -4.5681   -3.7712 H   0  0  0  0  0  0  0  0  0  0  0  0
   -6.2439   -7.4959   -3.7092 H   0  0  0  0  0  0  0  0  0  0  0  0
  2  1  1  0  0  0  0
  2 30  1  1  0  0  0
  2  4  1  0  0  0  0
  3  1  1  0  0  0  0
  4  3  1  0  0  0  0
  4 31  1  1  0  0  0
  4  9  1  0  0  0  0
  5  1  1  0  0  0  0
  5 32  1  6  0  0  0
  5 11  1  0  0  0  0
  6  2  1  0  0  0  0
  6  8  1  0  0  0  0
  7  9  1  0  0  0  0
  8  5  1  0  0  0  0
  9 33  1  0  0  0  0
 10  7  1  0  0  0  0
 12 10  1  0  0  0  0
 13  3  2  0  0  0  0
 14 10  2  0  0  0  0
 15  7  2  0  0  0  0
 16 11  1  0  0  0  0
 16 34  1  0  0  0  0
 17 11  2  0  0  0  0
 18 12  1  0  0  0  0
 18 20  1  0  0  0  0
 19 14  1  0  0  0  0
 19 35  1  0  0  0  0
 20 19  2  0  0  0  0
 20 36  1  0  0  0  0
 21  8  1  0  0  0  0
 21 37  1  0  0  0  0
 21 38  1  0  0  0  0
 21 39  1  0  0  0  0
 22  8  1  0  0  0  0
 22 40  1  0  0  0  0
 22 41  1  0  0  0  0
 22 42  1  0  0  0  0
 23 14  1  0  0  0  0
 24 12  2  0  0  0  0
 24 43  1  0  0  0  0
 25 18  2  0  0  0  0
 25 29  1  0  0  0  0
 25 44  1  0  0  0  0
 26 23  1  0  0  0  0
 26 45  1  0  0  0  0
 26 46  1  0  0  0  0
 27 24  1  0  0  0  0
 27 47  1  0  0  0  0
 28 26  1  0  0  0  0
 28 48  1  0  0  0  0
 28 49  1  0  0  0  0
 28 50  1  0  0  0  0
 29 27  2  0  0  0  0
 29 51  1  0  0  0  0
M  END
>  <DRUGBANK_ID>
DB00607

>  <SECONDARY_ACCESSION_NUMBERS>
APRD01130; DB08269

>  <COMMON_NAME>
Nafcillin

>  <CAS_NUMBER>
147-52-4

>  <UNII>
4CNZ27M7RV

>  <SYNONYMS>
(2-ethoxy-1-naphthalenyl)penicillin; (2-ethoxy-1-naphthyl)penicillin; (2S,5R,6R)-6-[(2-ethoxy-1-naphthoyl)amino]-3,3-dimethyl-7-oxo-4-thia-1-azabicyclo[3.2.0]heptane-2-carboxylic acid; 6-(2-ethoxy-1-naphthamido)penicillanic acid; Nafcilina; Nafcillin; Nafcilline; Nafcillinum; Naphcillin

$$$$
