NBF
 OpenBabel10282417123D

 36 37  0  0  0  0  0  0  0  0999 V2000
    0.9232   -0.0411   -0.0492 C   0  0  0  0  0  0  0  0  0  0  0  0
    0.4166   -0.4444    1.3260 C   0  0  0  0  0  0  0  0  0  0  0  0
    0.8899    0.4798    2.2946 O   0  0  0  0  0  0  0  0  0  0  0  0
    2.2860    0.6589    2.4823 C   0  0  0  0  0  0  0  0  0  0  0  0
    2.8027    0.7065    3.7527 C   0  0  0  0  0  0  0  0  0  0  0  0
    1.8747    0.5192    4.9419 C   0  0  0  0  0  0  0  0  0  0  0  0
    2.3400    0.5609    6.1238 O   0  0  0  0  0  0  0  0  0  0  0  0
    0.4391    0.2897    4.7248 N   0  0  0  0  0  0  0  0  0  0  0  0
   -0.0991    0.2414    3.3577 C   0  0  0  0  0  0  0  0  0  0  0  0
   -0.7738   -1.1863    3.1003 B   0  0  0  0  0  0  0  0  0  0  0  0
   -2.2294   -1.2756    2.7492 O   0  0  0  0  0  0  0  0  0  0  0  0
    0.0492   -2.4356    3.2101 O   0  0  0  0  0  0  0  0  0  0  0  0
    4.1833    0.9267    3.9778 C   0  0  0  0  0  0  0  0  0  0  0  0
    5.0444    1.0713    2.8415 C   0  0  0  0  0  0  0  0  0  0  0  0
    6.4054    1.3268    3.0448 C   0  0  0  0  0  0  0  0  0  0  0  0
    6.9527    1.4200    4.3136 C   0  0  0  0  0  0  0  0  0  0  0  0
    6.0976    1.2784    5.4183 C   0  0  0  0  0  0  0  0  0  0  0  0
    4.7710    1.0297    5.2731 C   0  0  0  0  0  0  0  0  0  0  0  0
    4.4804    0.9520    1.5456 C   0  0  0  0  0  0  0  0  0  0  0  0
    3.1360    0.7865    1.3608 C   0  0  0  0  0  0  0  0  0  0  0  0
    0.5666    0.9392   -0.2873 H   0  0  0  0  0  0  0  0  0  0  0  0
    0.5666   -0.7375   -0.7790 H   0  0  0  0  0  0  0  0  0  0  0  0
    1.9932   -0.0411   -0.0492 H   0  0  0  0  0  0  0  0  0  0  0  0
   -0.6534   -0.4444    1.3260 H   0  0  0  0  0  0  0  0  0  0  0  0
    0.7732   -1.4247    1.5641 H   0  0  0  0  0  0  0  0  0  0  0  0
   -0.1837    0.1640    5.5228 H   0  0  0  0  0  0  0  0  0  0  0  0
   -0.8335    1.0101    3.2362 H   0  0  0  0  0  0  0  0  0  0  0  0
    0.6947    0.3924    2.6564 H   0  0  0  0  0  0  0  0  0  0  0  0
   -2.6220   -0.3564    2.7189 H   0  0  0  0  0  0  0  0  0  0  0  0
   -0.5257   -3.2313    3.0195 H   0  0  0  0  0  0  0  0  0  0  0  0
    7.0422    1.4538    2.1944 H   0  0  0  0  0  0  0  0  0  0  0  0
    7.9996    1.5953    4.4485 H   0  0  0  0  0  0  0  0  0  0  0  0
    6.5038    1.3691    6.4041 H   0  0  0  0  0  0  0  0  0  0  0  0
    4.1582    0.9095    6.1420 H   0  0  0  0  0  0  0  0  0  0  0  0
    5.1232    0.9924    0.6912 H   0  0  0  0  0  0  0  0  0  0  0  0
    2.7294    0.7538    0.3716 H   0  0  0  0  0  0  0  0  0  0  0  0
  1  2  1  0  0  0  0
  1 21  1  0  0  0  0
  1 22  1  0  0  0  0
  1 23  1  0  0  0  0
  2  3  1  0  0  0  0
  2 24  1  0  0  0  0
  2 25  1  0  0  0  0
  3  4  1  0  0  0  0
  4  5  2  0  0  0  0
  4 20  1  0  0  0  0
  5  6  1  0  0  0  0
  5 13  1  0  0  0  0
  6  7  2  0  0  0  0
  6  8  1  0  0  0  0
  8  9  1  0  0  0  0
  8 26  1  0  0  0  0
  9 10  1  0  0  0  0
  9 27  1  0  0  0  0
  9 28  1  0  0  0  0
 10 11  1  0  0  0  0
 10 12  1  0  0  0  0
 11 29  1  0  0  0  0
 12 30  1  0  0  0  0
 13 14  2  0  0  0  0
 13 18  1  0  0  0  0
 14 15  1  0  0  0  0
 14 19  1  0  0  0  0
 15 16  2  0  0  0  0
 15 31  1  0  0  0  0
 16 17  1  0  0  0  0
 16 32  1  0  0  0  0
 17 18  2  0  0  0  0
 17 33  1  0  0  0  0
 18 34  1  0  0  0  0
 19 20  2  0  0  0  0
 19 35  1  0  0  0  0
 20 36  1  0  0  0  0
M  END
>  <DRUGBANK_ID>
DB02841

>  <SECONDARY_ACCESSION_NUMBERS>
EXPT02299

>  <COMMON_NAME>
[(2-Ethoxy-1-Naphthoyl)Amino]Methylboronic Acid

$$$$
