
 OpenBabel10282417153D

 66 68  0  0  1  0  0  0  0  0999 V2000
    8.2084   -1.5970   -7.1383 C   0  0  0  0  0  0  0  0  0  0  0  0
    7.6594   -2.9119   -7.6676 C   0  0  0  0  0  0  0  0  0  0  0  0
    6.2322   -3.0984   -7.1789 C   0  0  0  0  0  0  0  0  0  0  0  0
    5.3708   -1.9509   -7.6807 C   0  0  0  0  0  0  0  0  0  0  0  0
    5.3875   -1.9318   -9.2005 C   0  0  0  0  0  0  0  0  0  0  0  0
    4.8385   -3.2466   -9.7298 C   0  0  0  0  0  0  0  0  0  0  0  0
    3.4113   -3.4331   -9.2411 C   0  0  0  0  0  0  0  0  0  0  0  0
    2.5499   -2.2857   -9.7429 C   0  0  0  0  0  0  0  0  0  0  0  0
    2.8622   -4.7479   -9.7704 C   0  0  0  0  0  0  0  0  0  0  0  0
    3.3946   -3.4522   -7.7213 C   0  0  0  0  0  0  0  0  0  0  0  0
    3.3212   -4.6653   -7.0334 C   0  0  0  0  0  0  0  0  0  0  0  0
    3.2986   -4.6657   -5.6571 C   0  0  0  0  0  0  0  0  0  0  0  0
    3.3503   -3.4724   -4.9441 C   0  0  0  0  0  0  0  0  0  0  0  0
    3.4267   -2.2721   -5.6179 C   0  0  0  0  0  0  0  0  0  0  0  0
    3.4524   -2.2597   -7.0033 C   0  0  0  0  0  0  0  0  0  0  0  0
    3.4940   -0.9461   -4.9054 O   0  0  0  0  0  0  0  0  0  0  0  0
    3.0342   -1.0905   -3.4566 C   0  0  0  0  0  0  0  0  0  0  0  0
    3.8062   -2.2505   -2.8176 C   0  0  2  0  0  0  0  0  0  0  0  0
    3.3147   -3.5559   -3.4404 C   0  0  2  0  0  0  0  0  0  0  0  0
    7.1968    0.5157   -0.8558 C   0  0  0  0  0  0  0  0  0  0  0  0
    6.7253   -0.7900   -1.4749 C   0  0  0  0  0  0  0  0  0  0  0  0
    5.7687   -0.7779   -2.4421 C   0  0  0  0  0  0  0  0  0  0  0  0
    5.2972   -2.0836   -3.0612 C   0  0  0  0  0  0  0  0  0  0  0  0
    7.1968    0.5157   -0.8558 C   0  0  0  0  0  0  0  0  0  0  0  0
    7.7424    1.3494   -1.8676 O   0  0  0  0  0  0  0  0  0  0  0  0
    1.5404   -1.3672   -3.4076 C   0  0  0  0  0  0  0  0  0  0  0  0
    3.3182    0.1953   -2.6972 C   0  0  0  0  0  0  0  0  0  0  0  0
    3.2215   -5.8987   -4.9570 O   0  0  0  0  0  0  0  0  0  0  0  0
    7.6021   -0.7893   -7.4915 H   0  0  0  0  0  0  0  0  0  0  0  0
    9.2131   -1.4658   -7.4823 H   0  0  0  0  0  0  0  0  0  0  0  0
    8.1967   -1.6105   -6.0684 H   0  0  0  0  0  0  0  0  0  0  0  0
    7.6711   -2.8984   -8.7374 H   0  0  0  0  0  0  0  0  0  0  0  0
    8.2657   -3.7196   -7.3144 H   0  0  0  0  0  0  0  0  0  0  0  0
    5.8457   -4.0239   -7.5515 H   0  0  0  0  0  0  0  0  0  0  0  0
    6.2204   -3.1118   -6.1091 H   0  0  0  0  0  0  0  0  0  0  0  0
    4.3662   -2.0822   -7.3367 H   0  0  0  0  0  0  0  0  0  0  0  0
    5.7573   -1.0253   -7.3081 H   0  0  0  0  0  0  0  0  0  0  0  0
    4.7812   -1.1241   -9.5537 H   0  0  0  0  0  0  0  0  0  0  0  0
    6.3922   -1.8005   -9.5445 H   0  0  0  0  0  0  0  0  0  0  0  0
    4.8502   -3.2332  -10.7996 H   0  0  0  0  0  0  0  0  0  0  0  0
    5.4448   -4.0544   -9.3766 H   0  0  0  0  0  0  0  0  0  0  0  0
    2.5617   -2.2722  -10.8127 H   0  0  0  0  0  0  0  0  0  0  0  0
    1.5453   -2.4169   -9.3989 H   0  0  0  0  0  0  0  0  0  0  0  0
    2.9364   -1.3601   -9.3703 H   0  0  0  0  0  0  0  0  0  0  0  0
    3.4686   -5.5557   -9.4172 H   0  0  0  0  0  0  0  0  0  0  0  0
    1.8576   -4.8792   -9.4264 H   0  0  0  0  0  0  0  0  0  0  0  0
    2.8740   -4.7345  -10.8403 H   0  0  0  0  0  0  0  0  0  0  0  0
    3.2827   -5.5886   -7.5728 H   0  0  0  0  0  0  0  0  0  0  0  0
    3.5170   -1.3278   -7.5252 H   0  0  0  0  0  0  0  0  0  0  0  0
    3.6299   -2.2644   -1.7623 H   0  0  0  0  0  0  0  0  0  0  0  0
    2.3100   -3.7409   -3.1222 H   0  0  0  0  0  0  0  0  0  0  0  0
    8.2464    0.6332   -1.0273 H   0  0  0  0  0  0  0  0  0  0  0  0
    6.6690    1.3328   -1.3015 H   0  0  0  0  0  0  0  0  0  0  0  0
    5.3481    0.1508   -2.7670 H   0  0  0  0  0  0  0  0  0  0  0  0
    5.8251   -2.9007   -2.6155 H   0  0  0  0  0  0  0  0  0  0  0  0
    5.4871   -2.0681   -4.1141 H   0  0  0  0  0  0  0  0  0  0  0  0
    6.3685    1.0109   -0.3938 H   0  0  0  0  0  0  0  0  0  0  0  0
    7.9459    0.3113   -0.1197 H   0  0  0  0  0  0  0  0  0  0  0  0
    8.5166    0.8865   -2.2993 H   0  0  0  0  0  0  0  0  0  0  0  0
    1.2301   -1.4713   -2.3889 H   0  0  0  0  0  0  0  0  0  0  0  0
    1.0121   -0.5542   -3.8601 H   0  0  0  0  0  0  0  0  0  0  0  0
    1.3275   -2.2710   -3.9394 H   0  0  0  0  0  0  0  0  0  0  0  0
    4.3689    0.3966   -2.7170 H   0  0  0  0  0  0  0  0  0  0  0  0
    2.7912    1.0050   -3.1571 H   0  0  0  0  0  0  0  0  0  0  0  0
    2.9944    0.0894   -1.6829 H   0  0  0  0  0  0  0  0  0  0  0  0
    3.2047   -5.9058   -3.9572 H   0  0  0  0  0  0  0  0  0  0  0  0
  1  2  1  0  0  0  0
  1 29  1  0  0  0  0
  1 30  1  0  0  0  0
  1 31  1  0  0  0  0
  2  3  1  0  0  0  0
  2 32  1  0  0  0  0
  2 33  1  0  0  0  0
  3  4  1  0  0  0  0
  3 34  1  0  0  0  0
  3 35  1  0  0  0  0
  4  5  1  0  0  0  0
  4 36  1  0  0  0  0
  4 37  1  0  0  0  0
  5  6  1  0  0  0  0
  5 38  1  0  0  0  0
  5 39  1  0  0  0  0
  6  7  1  0  0  0  0
  6 40  1  0  0  0  0
  6 41  1  0  0  0  0
  7  8  1  0  0  0  0
  7  9  1  0  0  0  0
  7 10  1  0  0  0  0
  8 42  1  0  0  0  0
  8 43  1  0  0  0  0
  8 44  1  0  0  0  0
  9 45  1  0  0  0  0
  9 46  1  0  0  0  0
  9 47  1  0  0  0  0
 10 11  2  0  0  0  0
 10 15  1  0  0  0  0
 11 12  1  0  0  0  0
 11 48  1  0  0  0  0
 12 13  2  0  0  0  0
 12 28  1  0  0  0  0
 13 14  1  0  0  0  0
 14 15  2  0  0  0  0
 14 16  1  0  0  0  0
 15 49  1  0  0  0  0
 16 17  1  0  0  0  0
 17 18  1  0  0  0  0
 17 26  1  0  0  0  0
 17 27  1  0  0  0  0
 18 19  1  0  0  0  0
 18 23  1  0  0  0  0
 18 50  1  6  0  0  0
 19 13  1  0  0  0  0
 19 20  1  0  0  0  0
 19 51  1  1  0  0  0
 20 21  1  0  0  0  0
 20 52  1  0  0  0  0
 20 53  1  0  0  0  0
 21 22  2  0  0  0  0
 21 24  1  0  0  0  0
 22 23  1  0  0  0  0
 22 54  1  0  0  0  0
 23 55  1  0  0  0  0
 23 56  1  0  0  0  0
 24 25  1  0  0  0  0
 24 57  1  0  0  0  0
 24 58  1  0  0  0  0
 25 59  1  0  0  0  0
 26 60  1  0  0  0  0
 26 61  1  0  0  0  0
 26 62  1  0  0  0  0
 27 63  1  0  0  0  0
 27 64  1  0  0  0  0
 27 65  1  0  0  0  0
 28 66  1  0  0  0  0
M  END
>  <DRUGBANK_ID>
DB06444

>  <COMMON_NAME>
Dexanabinol

>  <CAS_NUMBER>
112924-45-5

>  <UNII>
R6VT8U5372

>  <SYNONYMS>
Sinnabidol

$$$$
