
 OpenBabel10282417193D

 52 54  0  0  0  0  0  0  0  0999 V2000
    0.9719   -0.1002    0.1466 C   0  0  0  0  0  0  0  0  0  0  0  0
    0.7004   -2.1515   -1.3279 C   0  0  0  0  0  0  0  0  0  0  0  0
    2.1990    3.6226   -5.0626 C   0  0  0  0  0  0  0  0  0  0  0  0
    0.7035    4.0267   -2.1002 C   0  0  0  0  0  0  0  0  0  0  0  0
   -0.1048    5.0310   -1.6804 C   0  0  0  0  0  0  0  0  0  0  0  0
    1.9509    2.8360   -6.1707 C   0  0  0  0  0  0  0  0  0  0  0  0
    3.0457    3.1350   -4.0772 C   0  0  0  0  0  0  0  0  0  0  0  0
    0.3341    2.6996   -1.9679 C   0  0  0  0  0  0  0  0  0  0  0  0
   -1.2941    4.7058   -1.0521 C   0  0  0  0  0  0  0  0  0  0  0  0
    2.3695    1.4973   -6.1776 C   0  0  0  0  0  0  0  0  0  0  0  0
   -1.1422   -0.4019   -1.2568 C   0  0  0  0  0  0  0  0  0  0  0  0
    4.3831    1.6258   -2.9194 C   0  0  0  0  0  0  0  0  0  0  0  0
   -2.7273    1.4136   -0.4566 C   0  0  0  0  0  0  0  0  0  0  0  0
    2.2941    0.0368   -2.3267 C   0  0  0  0  0  0  0  0  0  0  0  0
    2.6903   -1.3603   -4.2359 C   0  0  0  0  0  0  0  0  0  0  0  0
    3.6048    1.8588   -4.1206 C   0  0  0  0  0  0  0  0  0  0  0  0
   -1.5412    1.0486   -1.0558 C   0  0  0  0  0  0  0  0  0  0  0  0
    3.1812   -1.1161   -2.8217 C   0  0  3  0  0  0  0  0  0  0  0  0
   -0.8679    2.2980   -1.3687 C   0  0  0  0  0  0  0  0  0  0  0  0
   -1.6551    3.3482   -0.9065 C   0  0  0  0  0  0  0  0  0  0  0  0
    3.1091    0.9519   -5.1083 C   0  0  0  0  0  0  0  0  0  0  0  0
    0.3465   -0.6841   -1.1473 C   0  0  0  0  0  0  0  0  0  0  0  0
    4.8220    1.4747   -1.8339 N   0  0  0  0  0  0  0  0  0  0  0  0
   -2.7629    2.7741   -0.3414 N   0  0  0  0  0  0  0  0  0  0  0  0
    0.8882   -0.1407   -2.3367 N   0  0  0  0  0  0  0  0  0  0  0  0
    4.6043   -1.0306   -2.8419 O   0  0  0  0  0  0  0  0  0  0  0  0
    3.3027   -0.4191   -5.1834 O   0  0  0  0  0  0  0  0  0  0  0  0
    0.6289   -0.6649    1.0097 H   0  0  0  0  0  0  0  0  0  0  0  0
    0.7356    0.9586    0.3071 H   0  0  0  0  0  0  0  0  0  0  0  0
    2.0681   -0.1518    0.1778 H   0  0  0  0  0  0  0  0  0  0  0  0
    0.1785   -2.8115   -0.6537 H   0  0  0  0  0  0  0  0  0  0  0  0
    0.5512   -2.4745   -2.3733 H   0  0  0  0  0  0  0  0  0  0  0  0
    1.7472   -2.3009   -1.0758 H   0  0  0  0  0  0  0  0  0  0  0  0
    1.7530    4.6095   -4.9613 H   0  0  0  0  0  0  0  0  0  0  0  0
    1.6224    4.3217   -2.5543 H   0  0  0  0  0  0  0  0  0  0  0  0
    0.2391    6.0407   -1.8702 H   0  0  0  0  0  0  0  0  0  0  0  0
    1.4228    3.2687   -7.0173 H   0  0  0  0  0  0  0  0  0  0  0  0
    3.2348    3.6997   -3.1652 H   0  0  0  0  0  0  0  0  0  0  0  0
    1.0342    2.0127   -2.3661 H   0  0  0  0  0  0  0  0  0  0  0  0
   -1.9204    5.5098   -0.6996 H   0  0  0  0  0  0  0  0  0  0  0  0
    2.1136    0.8840   -7.0379 H   0  0  0  0  0  0  0  0  0  0  0  0
   -1.5195   -0.7348   -2.2376 H   0  0  0  0  0  0  0  0  0  0  0  0
   -1.6249   -1.0418   -0.5111 H   0  0  0  0  0  0  0  0  0  0  0  0
   -3.5316    0.7946   -0.0861 H   0  0  0  0  0  0  0  0  0  0  0  0
    2.2147    0.7402   -3.1085 H   0  0  0  0  0  0  0  0  0  0  0  0
    2.6151    0.6459   -1.4827 H   0  0  0  0  0  0  0  0  0  0  0  0
    3.0046   -2.3737   -4.5045 H   0  0  0  0  0  0  0  0  0  0  0  0
    1.5910   -1.3870   -4.3198 H   0  0  0  0  0  0  0  0  0  0  0  0
    3.0800   -1.9496   -2.1486 H   0  0  0  0  0  0  0  0  0  0  0  0
   -3.5053    3.3024    0.0844 H   0  0  0  0  0  0  0  0  0  0  0  0
    0.3611   -0.0828   -3.2079 H   0  0  0  0  0  0  0  0  0  0  0  0
    4.8919   -0.4570   -3.5689 H   0  0  0  0  0  0  0  0  0  0  0  0
  1 28  1  0  0  0  0
  1 29  1  0  0  0  0
  1 30  1  0  0  0  0
  2 31  1  0  0  0  0
  2 32  1  0  0  0  0
  2 33  1  0  0  0  0
  3 34  1  0  0  0  0
  4 35  1  0  0  0  0
  5  4  2  0  0  0  0
  5 36  1  0  0  0  0
  6  3  2  0  0  0  0
  6 37  1  0  0  0  0
  7  3  1  0  0  0  0
  7 38  1  0  0  0  0
  8  4  1  0  0  0  0
  8 39  1  0  0  0  0
  9  5  1  0  0  0  0
  9 40  1  0  0  0  0
 10  6  1  0  0  0  0
 10 41  1  0  0  0  0
 11 42  1  0  0  0  0
 11 43  1  0  0  0  0
 13 44  1  0  0  0  0
 14 45  1  0  0  0  0
 14 46  1  0  0  0  0
 15 47  1  0  0  0  0
 15 48  1  0  0  0  0
 16  7  2  0  0  0  0
 16 12  1  0  0  0  0
 17 11  1  0  0  0  0
 17 13  2  0  0  0  0
 18 14  1  0  0  0  0
 18 15  1  0  0  0  0
 18 49  1  0  0  0  0
 19  8  2  0  0  0  0
 19 17  1  0  0  0  0
 20  9  2  0  0  0  0
 20 19  1  0  0  0  0
 21 10  2  0  0  0  0
 21 16  1  0  0  0  0
 22  1  1  0  0  0  0
 22  2  1  0  0  0  0
 22 11  1  0  0  0  0
 23 12  3  0  0  0  0
 24 13  1  0  0  0  0
 24 20  1  0  0  0  0
 24 50  1  0  0  0  0
 25 14  1  0  0  0  0
 25 22  1  0  0  0  0
 25 51  1  0  0  0  0
 26 18  1  0  0  0  0
 26 52  1  0  0  0  0
 27 15  1  0  0  0  0
 27 21  1  0  0  0  0
M  END
>  <DRUGBANK_ID>
DB12752

>  <COMMON_NAME>
Bucindolol

>  <CAS_NUMBER>
71119-11-4

>  <UNII>
E9UO06K7CE

>  <SYNONYMS>
Bucindolol

$$$$
