
 OpenBabel10282417183D

102106  0  0  0  0  0  0  0  0999 V2000
    1.7523   -0.7187   -1.1414 S   0  0  2  0  0  0  0  0  0  0  0  0
   -0.1348    1.7614   -7.8939 O   0  0  0  0  0  0  0  0  0  0  0  0
   -2.4830   -7.2348  -12.0089 O   0  0  0  0  0  0  0  0  0  0  0  0
    0.8409   -1.5530   -0.2797 O   0  0  0  0  0  0  0  0  0  0  0  0
   -2.0944   -9.7132   -9.7320 O   0  0  0  0  0  0  0  0  0  0  0  0
    1.5981   -2.3330   -4.8641 N   0  0  0  0  0  0  0  0  0  0  0  0
   -0.2350    2.2142   -5.6859 N   0  0  0  0  0  0  0  0  0  0  0  0
    2.5269    2.5915    0.2082 N   0  0  0  0  0  0  0  0  0  0  0  0
    4.4800    3.3251   -0.6785 N   0  0  0  0  0  0  0  0  0  0  0  0
    1.2234   -3.0938   -5.9553 C   0  0  0  0  0  0  0  0  0  0  0  0
    0.7832   -2.5018   -7.1589 C   0  0  0  0  0  0  0  0  0  0  0  0
    0.2036   -4.7581   -7.8507 C   0  0  0  0  0  0  0  0  0  0  0  0
    0.2771   -3.3673   -8.1008 C   0  0  0  0  0  0  0  0  0  0  0  0
    0.6061   -1.0260   -7.3660 C   0  0  0  0  0  0  0  0  0  0  0  0
   -0.2964   -0.3014   -6.6539 C   0  0  0  0  0  0  0  0  0  0  0  0
    1.0481   -4.4681   -5.6738 C   0  0  0  0  0  0  0  0  0  0  0  0
   -0.3809   -5.5585   -8.8880 C   0  0  0  0  0  0  0  0  0  0  0  0
    0.5414   -5.3086   -6.6210 C   0  0  0  0  0  0  0  0  0  0  0  0
   -0.2709    1.2582   -6.7171 C   0  0  0  0  0  0  0  0  0  0  0  0
    0.4795   -2.3496   -3.9451 C   0  0  0  0  0  0  0  0  0  0  0  0
    2.9155   -1.6598   -4.8333 C   0  0  0  0  0  0  0  0  0  0  0  0
   -1.2500   -1.1478   -5.8212 C   0  0  0  0  0  0  0  0  0  0  0  0
    0.2050   -5.5903  -10.1564 C   0  0  0  0  0  0  0  0  0  0  0  0
   -1.6232   -6.1428   -8.6516 C   0  0  0  0  0  0  0  0  0  0  0  0
   -0.6089   -1.4500   -4.4790 C   0  0  0  0  0  0  0  0  0  0  0  0
   -0.3323    2.0961   -4.2673 C   0  0  0  0  0  0  0  0  0  0  0  0
    0.6332    0.8219   -1.9656 C   0  0  0  0  0  0  0  0  0  0  0  0
    3.2869    1.4707   -0.1690 C   0  0  0  0  0  0  0  0  0  0  0  0
   -1.8713   -6.5299  -11.0067 C   0  0  0  0  0  0  0  0  0  0  0  0
   -0.5529   -6.0463  -11.2302 C   0  0  0  0  0  0  0  0  0  0  0  0
   -2.3741   -6.6038   -9.7114 C   0  0  0  0  0  0  0  0  0  0  0  0
    2.9918   -0.1270   -5.0166 C   0  0  0  0  0  0  0  0  0  0  0  0
    3.0443    0.0079   -0.1281 C   0  0  0  0  0  0  0  0  0  0  0  0
    0.2990    2.8860   -3.3404 C   0  0  0  0  0  0  0  0  0  0  0  0
   -0.9979    1.0806   -3.6860 C   0  0  0  0  0  0  0  0  0  0  0  0
    0.9446    2.1632   -2.2969 C   0  0  0  0  0  0  0  0  0  0  0  0
   -0.5610    0.4194   -2.5101 C   0  0  0  0  0  0  0  0  0  0  0  0
    4.4883    1.9765   -0.6463 C   0  0  0  0  0  0  0  0  0  0  0  0
    3.3185    3.6702   -0.1790 C   0  0  0  0  0  0  0  0  0  0  0  0
    1.1995    2.8298    0.8629 C   0  0  0  0  0  0  0  0  0  0  0  0
    2.5101    0.4906   -3.7867 C   0  0  0  0  0  0  0  0  0  0  0  0
    4.3604    0.5365   -5.0241 C   0  0  0  0  0  0  0  0  0  0  0  0
   -3.2818   -8.4280  -11.7358 C   0  0  0  0  0  0  0  0  0  0  0  0
   -0.1991    2.3158    0.3535 C   0  0  0  0  0  0  0  0  0  0  0  0
   -2.8594   -9.7359  -10.9344 C   0  0  0  0  0  0  0  0  0  0  0  0
   -0.1289    0.8411    0.5325 C   0  0  0  0  0  0  0  0  0  0  0  0
   -0.8388   -9.0835   -9.8572 C   0  0  0  0  0  0  0  0  0  0  0  0
    0.3398   -9.6485  -10.6109 C   0  0  0  0  0  0  0  0  0  0  0  0
    0.0993  -10.0673  -12.0739 C   0  0  0  0  0  0  0  0  0  0  0  0
   -0.2702   -8.9870  -13.0875 C   0  0  0  0  0  0  0  0  0  0  0  0
    0.0816    3.1181   -6.0239 H   0  0  0  0  0  0  0  0  0  0  0  0
   -0.1463   -2.9709   -9.0217 H   0  0  0  0  0  0  0  0  0  0  0  0
    1.2860   -0.5703   -8.0760 H   0  0  0  0  0  0  0  0  0  0  0  0
    1.2486   -4.8464   -4.6702 H   0  0  0  0  0  0  0  0  0  0  0  0
    0.3962   -6.3576   -6.3835 H   0  0  0  0  0  0  0  0  0  0  0  0
    0.8256   -2.0118   -2.9804 H   0  0  0  0  0  0  0  0  0  0  0  0
    0.0185   -3.3135   -3.6865 H   0  0  0  0  0  0  0  0  0  0  0  0
    3.3931   -1.9248   -3.8840 H   0  0  0  0  0  0  0  0  0  0  0  0
    3.5247   -2.0750   -5.6372 H   0  0  0  0  0  0  0  0  0  0  0  0
   -1.5929   -2.0861   -6.2641 H   0  0  0  0  0  0  0  0  0  0  0  0
   -2.1865   -0.5852   -5.7086 H   0  0  0  0  0  0  0  0  0  0  0  0
    1.2370   -5.2532  -10.2829 H   0  0  0  0  0  0  0  0  0  0  0  0
   -1.9925   -6.2810   -7.6397 H   0  0  0  0  0  0  0  0  0  0  0  0
    0.0416   -0.5953   -4.4613 H   0  0  0  0  0  0  0  0  0  0  0  0
   -1.4393   -1.4735   -3.7762 H   0  0  0  0  0  0  0  0  0  0  0  0
   -0.0475   -6.1414  -12.1900 H   0  0  0  0  0  0  0  0  0  0  0  0
   -3.2345   -7.2210   -9.4894 H   0  0  0  0  0  0  0  0  0  0  0  0
    2.3640    0.2365   -5.8323 H   0  0  0  0  0  0  0  0  0  0  0  0
    3.0955   -0.4024    0.8893 H   0  0  0  0  0  0  0  0  0  0  0  0
    3.9135   -0.4697   -0.6162 H   0  0  0  0  0  0  0  0  0  0  0  0
    0.4150    3.9551   -3.4332 H   0  0  0  0  0  0  0  0  0  0  0  0
   -1.6820    0.6103   -4.3647 H   0  0  0  0  0  0  0  0  0  0  0  0
    1.7016    2.7346   -1.8061 H   0  0  0  0  0  0  0  0  0  0  0  0
   -0.9288   -0.5538   -2.2097 H   0  0  0  0  0  0  0  0  0  0  0  0
    5.3458    1.4026   -0.9933 H   0  0  0  0  0  0  0  0  0  0  0  0
    2.9793    4.6923   -0.1057 H   0  0  0  0  0  0  0  0  0  0  0  0
    1.3315    2.4076    1.8587 H   0  0  0  0  0  0  0  0  0  0  0  0
    1.0916    3.9153    0.9227 H   0  0  0  0  0  0  0  0  0  0  0  0
    3.1670    0.3550   -2.9244 H   0  0  0  0  0  0  0  0  0  0  0  0
    2.3779    1.5571   -3.9413 H   0  0  0  0  0  0  0  0  0  0  0  0
    1.6008   -0.0321   -3.6303 H   0  0  0  0  0  0  0  0  0  0  0  0
    4.9471    0.2495   -5.8812 H   0  0  0  0  0  0  0  0  0  0  0  0
    4.2362    1.6362   -5.0211 H   0  0  0  0  0  0  0  0  0  0  0  0
    4.9018    0.3092   -4.0929 H   0  0  0  0  0  0  0  0  0  0  0  0
   -4.2672   -8.0996  -11.4080 H   0  0  0  0  0  0  0  0  0  0  0  0
   -3.4362   -8.8316  -12.7499 H   0  0  0  0  0  0  0  0  0  0  0  0
   -1.1083    2.5819    0.8892 H   0  0  0  0  0  0  0  0  0  0  0  0
   -0.4298    2.7028   -0.6454 H   0  0  0  0  0  0  0  0  0  0  0  0
   -3.7953  -10.2522  -10.6783 H   0  0  0  0  0  0  0  0  0  0  0  0
   -2.3971  -10.4695  -11.5877 H   0  0  0  0  0  0  0  0  0  0  0  0
   -0.0687    0.4282    1.5269 H   0  0  0  0  0  0  0  0  0  0  0  0
   -0.7941    0.2392   -0.0884 H   0  0  0  0  0  0  0  0  0  0  0  0
    0.8861    0.7164    0.2556 H   0  0  0  0  0  0  0  0  0  0  0  0
   -1.0133   -8.2936  -10.5142 H   0  0  0  0  0  0  0  0  0  0  0  0
   -0.5501   -8.6537   -8.8901 H   0  0  0  0  0  0  0  0  0  0  0  0
    1.0946   -8.8460  -10.6180 H   0  0  0  0  0  0  0  0  0  0  0  0
    0.7365  -10.4767  -10.0269 H   0  0  0  0  0  0  0  0  0  0  0  0
    1.0089  -10.5381  -12.4388 H   0  0  0  0  0  0  0  0  0  0  0  0
   -0.6572  -10.8485  -12.1025 H   0  0  0  0  0  0  0  0  0  0  0  0
    0.4947   -8.2196  -13.2212 H   0  0  0  0  0  0  0  0  0  0  0  0
   -0.5615   -9.4022  -14.0571 H   0  0  0  0  0  0  0  0  0  0  0  0
   -1.1512   -8.4713  -12.7944 H   0  0  0  0  0  0  0  0  0  0  0  0
  1 33  1  0  0  0  0
  1 27  1  0  0  0  0
  1  4  2  6  0  0  0
  2 19  2  0  0  0  0
  3 29  1  0  0  0  0
  3 43  1  0  0  0  0
  5 45  1  0  0  0  0
  5 47  1  0  0  0  0
  6 10  1  0  0  0  0
  6 20  1  0  0  0  0
  6 21  1  0  0  0  0
  7 19  1  0  0  0  0
  7 26  1  0  0  0  0
  7 51  1  0  0  0  0
  8 28  1  0  0  0  0
  8 39  1  0  0  0  0
  8 40  1  0  0  0  0
  9 38  1  0  0  0  0
  9 39  2  0  0  0  0
 10 11  2  0  0  0  0
 10 16  1  0  0  0  0
 11 13  1  0  0  0  0
 11 14  1  0  0  0  0
 12 13  2  0  0  0  0
 12 17  1  0  0  0  0
 12 18  1  0  0  0  0
 13 52  1  0  0  0  0
 14 15  2  0  0  0  0
 14 53  1  0  0  0  0
 15 19  1  0  0  0  0
 15 22  1  0  0  0  0
 16 18  2  0  0  0  0
 16 54  1  0  0  0  0
 17 23  2  0  0  0  0
 17 24  1  0  0  0  0
 18 55  1  0  0  0  0
 20 25  1  0  0  0  0
 20 56  1  0  0  0  0
 20 57  1  0  0  0  0
 21 32  1  0  0  0  0
 21 58  1  0  0  0  0
 21 59  1  0  0  0  0
 22 25  1  0  0  0  0
 22 60  1  0  0  0  0
 22 61  1  0  0  0  0
 23 30  1  0  0  0  0
 23 62  1  0  0  0  0
 24 31  2  0  0  0  0
 24 63  1  0  0  0  0
 25 64  1  0  0  0  0
 25 65  1  0  0  0  0
 26 34  2  0  0  0  0
 26 35  1  0  0  0  0
 27 36  2  0  0  0  0
 27 37  1  0  0  0  0
 28 33  1  0  0  0  0
 28 38  2  0  0  0  0
 29 30  2  0  0  0  0
 29 31  1  0  0  0  0
 30 66  1  0  0  0  0
 31 67  1  0  0  0  0
 32 41  1  0  0  0  0
 32 42  1  0  0  0  0
 32 68  1  0  0  0  0
 33 69  1  0  0  0  0
 33 70  1  0  0  0  0
 34 36  1  0  0  0  0
 34 71  1  0  0  0  0
 35 37  2  0  0  0  0
 35 72  1  0  0  0  0
 36 73  1  0  0  0  0
 37 74  1  0  0  0  0
 38 75  1  0  0  0  0
 39 76  1  0  0  0  0
 40 44  1  0  0  0  0
 40 77  1  0  0  0  0
 40 78  1  0  0  0  0
 41 79  1  0  0  0  0
 41 80  1  0  0  0  0
 41 81  1  0  0  0  0
 42 82  1  0  0  0  0
 42 83  1  0  0  0  0
 42 84  1  0  0  0  0
 43 45  1  0  0  0  0
 43 85  1  0  0  0  0
 43 86  1  0  0  0  0
 44 46  1  0  0  0  0
 44 87  1  0  0  0  0
 44 88  1  0  0  0  0
 45 89  1  0  0  0  0
 45 90  1  0  0  0  0
 46 91  1  0  0  0  0
 46 92  1  0  0  0  0
 46 93  1  0  0  0  0
 47 48  1  0  0  0  0
 47 94  1  0  0  0  0
 47 95  1  0  0  0  0
 48 49  1  0  0  0  0
 48 96  1  0  0  0  0
 48 97  1  0  0  0  0
 49 50  1  0  0  0  0
 49 98  1  0  0  0  0
 49 99  1  0  0  0  0
 50100  1  0  0  0  0
 50101  1  0  0  0  0
 50102  1  0  0  0  0
M  END
>  <DRUGBANK_ID>
DB11758

>  <COMMON_NAME>
Cenicriviroc

>  <CAS_NUMBER>
497223-25-3

>  <UNII>
15C116UA4Y

>  <SYNONYMS>
CÃ©nicriviroc; Cenicriviroc; Cenicrivirocum

$$$$
