929
 OpenBabel10282417113D

 65 65  0  0  1  0  0  0  0  0999 V2000
   -0.2552   -1.0417    1.4909 O   0  0  0  0  0  0  0  0  0  0  0  0
   -1.3636   -3.5956   -1.4272 O   0  0  0  0  0  0  0  0  0  0  0  0
    4.9624    0.5189    2.6808 O   0  0  0  0  0  0  0  0  0  0  0  0
    6.2658   -9.1381    0.8347 O   0  0  0  0  0  0  0  0  0  0  0  0
    5.9620   -7.1912   -0.1999 O   0  0  0  0  0  0  0  0  0  0  0  0
    0.8566   -3.6240   -0.4772 C   0  0  1  0  0  0  0  0  0  0  0  0
    1.3230   -2.6285    0.5960 C   0  0  2  0  0  0  0  0  0  0  0  0
    0.5625   -1.3082    0.3495 C   0  0  1  0  0  0  0  0  0  0  0  0
   -0.3188   -1.5036   -0.8740 C   0  0  0  0  0  0  0  0  0  0  0  0
    0.6663   -5.0498    0.0336 C   0  0  0  0  0  0  0  0  0  0  0  0
   -0.4293   -2.9939   -0.9332 C   0  0  0  0  0  0  0  0  0  0  0  0
    2.8122   -2.4439    0.5968 C   0  0  0  0  0  0  0  0  0  0  0  0
    1.4319   -6.0420   -0.8443 C   0  0  0  0  0  0  0  0  0  0  0  0
    2.9466   -5.8107   -0.7827 C   0  0  0  0  0  0  0  0  0  0  0  0
    3.4512   -1.8267    1.5984 C   0  0  0  0  0  0  0  0  0  0  0  0
    5.3501   -0.1697    1.4794 C   0  0  3  0  0  0  0  0  0  0  0  0
    4.9360   -1.6499    1.5948 C   0  0  0  0  0  0  0  0  0  0  0  0
    3.4843   -5.9260    0.6492 C   0  0  0  0  0  0  0  0  0  0  0  0
    6.8951   -0.0978    1.4141 C   0  0  0  0  0  0  0  0  0  0  0  0
    4.6105    0.5342    0.3289 C   0  0  0  0  0  0  0  0  0  0  0  0
    3.2833   -7.3316    1.2172 C   0  0  0  0  0  0  0  0  0  0  0  0
    7.5580   -0.8113    0.2203 C   0  0  0  0  0  0  0  0  0  0  0  0
    7.2012   -0.2554   -1.1570 C   0  0  0  0  0  0  0  0  0  0  0  0
    3.9589   -8.4034    0.3651 C   0  0  0  0  0  0  0  0  0  0  0  0
    7.4385    1.2448   -1.2427 C   0  0  0  0  0  0  0  0  0  0  0  0
    5.4630   -8.1924    0.3038 C   0  0  0  0  0  0  0  0  0  0  0  0
    5.7420  -10.3789    1.3019 C   0  0  0  0  0  0  0  0  0  0  0  0
    0.1941   -0.3640    2.0262 H   0  0  0  0  0  0  0  0  0  0  0  0
    3.9906    0.5541    2.6904 H   0  0  0  0  0  0  0  0  0  0  0  0
    1.5128   -3.5839   -1.3574 H   0  0  0  0  0  0  0  0  0  0  0  0
    1.0605   -3.0218    1.5868 H   0  0  0  0  0  0  0  0  0  0  0  0
    1.2070   -0.4342    0.2032 H   0  0  0  0  0  0  0  0  0  0  0  0
   -1.2983   -1.0324   -0.8044 H   0  0  0  0  0  0  0  0  0  0  0  0
    0.2120   -1.1947   -1.7806 H   0  0  0  0  0  0  0  0  0  0  0  0
    0.9935   -5.1439    1.0744 H   0  0  0  0  0  0  0  0  0  0  0  0
   -0.3888   -5.3376    0.0516 H   0  0  0  0  0  0  0  0  0  0  0  0
    3.3989   -2.8510   -0.2255 H   0  0  0  0  0  0  0  0  0  0  0  0
    1.1887   -7.0611   -0.5238 H   0  0  0  0  0  0  0  0  0  0  0  0
    1.0892   -5.9692   -1.8824 H   0  0  0  0  0  0  0  0  0  0  0  0
    3.4456   -6.5160   -1.4549 H   0  0  0  0  0  0  0  0  0  0  0  0
    3.2142   -4.8337   -1.1919 H   0  0  0  0  0  0  0  0  0  0  0  0
    2.8971   -1.4006    2.4293 H   0  0  0  0  0  0  0  0  0  0  0  0
    5.3407   -2.0900    2.5137 H   0  0  0  0  0  0  0  0  0  0  0  0
    5.3498   -2.2215    0.7568 H   0  0  0  0  0  0  0  0  0  0  0  0
    4.5377   -5.6370    0.6725 H   0  0  0  0  0  0  0  0  0  0  0  0
    3.0120   -5.2015    1.3174 H   0  0  0  0  0  0  0  0  0  0  0  0
    7.2257    0.9462    1.4773 H   0  0  0  0  0  0  0  0  0  0  0  0
    7.3035   -0.5385    2.3375 H   0  0  0  0  0  0  0  0  0  0  0  0
    4.6442   -0.0252   -0.6020 H   0  0  0  0  0  0  0  0  0  0  0  0
    3.5411    0.6454    0.5294 H   0  0  0  0  0  0  0  0  0  0  0  0
    4.9849    1.5483    0.1721 H   0  0  0  0  0  0  0  0  0  0  0  0
    3.6561   -7.3686    2.2463 H   0  0  0  0  0  0  0  0  0  0  0  0
    2.2105   -7.5548    1.2873 H   0  0  0  0  0  0  0  0  0  0  0  0
    8.6460   -0.7529    0.3387 H   0  0  0  0  0  0  0  0  0  0  0  0
    7.3268   -1.8822    0.2467 H   0  0  0  0  0  0  0  0  0  0  0  0
    7.7833   -0.7659   -1.9300 H   0  0  0  0  0  0  0  0  0  0  0  0
    6.1804   -0.5145   -1.4300 H   0  0  0  0  0  0  0  0  0  0  0  0
    3.6658   -9.3756    0.7579 H   0  0  0  0  0  0  0  0  0  0  0  0
    3.5857   -8.4143   -0.6645 H   0  0  0  0  0  0  0  0  0  0  0  0
    8.5122    1.4430   -1.2314 H   0  0  0  0  0  0  0  0  0  0  0  0
    6.9997    1.6572   -2.1537 H   0  0  0  0  0  0  0  0  0  0  0  0
    7.0073    1.8066   -0.4103 H   0  0  0  0  0  0  0  0  0  0  0  0
    5.0915  -10.2102    2.1645 H   0  0  0  0  0  0  0  0  0  0  0  0
    5.2189  -10.8963    0.4921 H   0  0  0  0  0  0  0  0  0  0  0  0
    6.5859  -10.9937    1.6175 H   0  0  0  0  0  0  0  0  0  0  0  0
  1 28  1  0  0  0  0
  2 11  2  0  0  0  0
  3 16  1  0  0  0  0
  3 29  1  0  0  0  0
  4 26  1  0  0  0  0
  4 27  1  0  0  0  0
  5 26  2  0  0  0  0
  6  7  1  0  0  0  0
  6 11  1  0  0  0  0
  6 30  1  6  0  0  0
  6 10  1  0  0  0  0
  7  8  1  0  0  0  0
  7 31  1  1  0  0  0
  7 12  1  0  0  0  0
  8  9  1  0  0  0  0
  8 32  1  6  0  0  0
  8  1  1  0  0  0  0
  9 11  1  0  0  0  0
  9 33  1  0  0  0  0
  9 34  1  0  0  0  0
 10 13  1  0  0  0  0
 10 35  1  0  0  0  0
 10 36  1  0  0  0  0
 12 15  2  0  0  0  0
 12 37  1  0  0  0  0
 13 14  1  0  0  0  0
 13 38  1  0  0  0  0
 13 39  1  0  0  0  0
 14 18  1  0  0  0  0
 14 40  1  0  0  0  0
 14 41  1  0  0  0  0
 15 17  1  0  0  0  0
 15 42  1  0  0  0  0
 16 17  1  0  0  0  0
 16 19  1  0  0  0  0
 16 20  1  0  0  0  0
 17 43  1  0  0  0  0
 17 44  1  0  0  0  0
 18 21  1  0  0  0  0
 18 45  1  0  0  0  0
 18 46  1  0  0  0  0
 19 22  1  0  0  0  0
 19 47  1  0  0  0  0
 19 48  1  0  0  0  0
 20 49  1  0  0  0  0
 20 50  1  0  0  0  0
 20 51  1  0  0  0  0
 21 24  1  0  0  0  0
 21 52  1  0  0  0  0
 21 53  1  0  0  0  0
 22 23  1  0  0  0  0
 22 54  1  0  0  0  0
 22 55  1  0  0  0  0
 23 25  1  0  0  0  0
 23 56  1  0  0  0  0
 23 57  1  0  0  0  0
 24 26  1  0  0  0  0
 24 58  1  0  0  0  0
 24 59  1  0  0  0  0
 25 60  1  0  0  0  0
 25 61  1  0  0  0  0
 25 62  1  0  0  0  0
 27 63  1  0  0  0  0
 27 64  1  0  0  0  0
 27 65  1  0  0  0  0
M  END
>  <DRUGBANK_ID>
DB00929

>  <SECONDARY_ACCESSION_NUMBERS>
APRD00037; DB05379

>  <COMMON_NAME>
Misoprostol

>  <CAS_NUMBER>
59122-46-2

>  <UNII>
0E43V0BB57

>  <SYNONYMS>
Misoprostol; Misoprostolum

$$$$
