
 OpenBabel10282417213D

 30 32  0  0  0  0  0  0  0  0999 V2000
    2.4353   -0.0334   -0.2958 C   0  0  0  0  0  0  0  0  0  0  0  0
   -2.1434    0.7241   -0.0583 C   0  0  0  0  0  0  0  0  0  0  0  0
    1.6255    1.1927    0.1317 C   0  0  0  0  0  0  0  0  0  0  0  0
   -0.9344    1.4036    0.0129 C   0  0  0  0  0  0  0  0  0  0  0  0
    1.6155   -1.2674    0.1228 C   0  0  0  0  0  0  0  0  0  0  0  0
   -2.1734   -0.6797   -0.0871 C   0  0  0  0  0  0  0  0  0  0  0  0
   -3.8139   -5.0479    0.4064 C   0  0  0  0  0  0  0  0  0  0  0  0
   -4.3296   -4.1472   -0.7219 C   0  0  0  0  0  0  0  0  0  0  0  0
    0.2287    0.6561    0.0499 C   0  0  0  0  0  0  0  0  0  0  0  0
    0.2045   -0.7552    0.0230 C   0  0  0  0  0  0  0  0  0  0  0  0
   -1.0044   -1.4617   -0.0421 C   0  0  0  0  0  0  0  0  0  0  0  0
   -2.1960   -3.6143   -0.0901 C   0  0  0  0  0  0  0  0  0  0  0  0
   -2.4850   -4.4880    0.8323 N   0  0  0  0  0  0  0  0  0  0  0  0
   -3.1243   -3.4572   -1.0666 N   0  0  0  0  0  0  0  0  0  0  0  0
   -1.0429   -2.8785   -0.1709 N   0  0  0  0  0  0  0  0  0  0  0  0
    2.5468   -0.0254   -1.3891 H   0  0  0  0  0  0  0  0  0  0  0  0
    3.4453   -0.0294    0.1277 H   0  0  0  0  0  0  0  0  0  0  0  0
   -3.0780    1.2769   -0.1000 H   0  0  0  0  0  0  0  0  0  0  0  0
    1.8650    1.4975    1.1558 H   0  0  0  0  0  0  0  0  0  0  0  0
    1.7868    2.0334   -0.5507 H   0  0  0  0  0  0  0  0  0  0  0  0
   -0.9102    2.4882    0.0281 H   0  0  0  0  0  0  0  0  0  0  0  0
    1.8117   -2.1116   -0.5420 H   0  0  0  0  0  0  0  0  0  0  0  0
    1.8469   -1.5424    1.1582 H   0  0  0  0  0  0  0  0  0  0  0  0
   -3.1506   -1.1515   -0.1295 H   0  0  0  0  0  0  0  0  0  0  0  0
   -4.5221   -5.0890    1.2413 H   0  0  0  0  0  0  0  0  0  0  0  0
   -3.6534   -6.0687    0.0416 H   0  0  0  0  0  0  0  0  0  0  0  0
   -4.7636   -4.7164   -1.5490 H   0  0  0  0  0  0  0  0  0  0  0  0
   -5.0724   -3.4344   -0.3467 H   0  0  0  0  0  0  0  0  0  0  0  0
   -2.9529   -2.9731   -1.9306 H   0  0  0  0  0  0  0  0  0  0  0  0
   -0.3065   -3.2903    0.3908 H   0  0  0  0  0  0  0  0  0  0  0  0
  1 16  1  0  0  0  0
  1 17  1  0  0  0  0
  2 18  1  0  0  0  0
  3  1  1  0  0  0  0
  3 19  1  0  0  0  0
  3 20  1  0  0  0  0
  4  2  2  0  0  0  0
  4 21  1  0  0  0  0
  5  1  1  0  0  0  0
  5 22  1  0  0  0  0
  5 23  1  0  0  0  0
  6  2  1  0  0  0  0
  6 24  1  0  0  0  0
  7 25  1  0  0  0  0
  7 26  1  0  0  0  0
  8  7  1  0  0  0  0
  8 27  1  0  0  0  0
  8 28  1  0  0  0  0
  9  3  1  0  0  0  0
  9  4  1  0  0  0  0
 10  5  1  0  0  0  0
 10  9  2  0  0  0  0
 11  6  2  0  0  0  0
 11 10  1  0  0  0  0
 13  7  1  0  0  0  0
 13 12  2  0  0  0  0
 14  8  1  0  0  0  0
 14 12  1  0  0  0  0
 14 29  1  0  0  0  0
 15 11  1  0  0  0  0
 15 12  1  0  0  0  0
 15 30  1  0  0  0  0
M  END
>  <DRUGBANK_ID>
DB13827

>  <COMMON_NAME>
Indanazoline

>  <CAS_NUMBER>
40507-78-6

>  <UNII>
L0U38EHD86

>  <SYNONYMS>
Indanazoline

$$$$
