
 OpenBabel10282417233D

 57 61  0  0  0  0  0  0  0  0999 V2000
   -2.3802   -1.5082   -0.0552 C   0  0  0  0  0  0  0  0  0  0  0  0
   -1.4958   -0.3693    0.0038 N   0  0  0  0  0  0  0  0  0  0  0  0
   -2.0026    0.8804    0.0163 N   0  0  0  0  0  0  0  0  0  0  0  0
   -0.9132    1.6543    0.0092 C   0  0  0  0  0  0  0  0  0  0  0  0
    0.2873    0.9101    0.0018 C   0  0  0  0  0  0  0  0  0  0  0  0
   -0.1238   -0.4173    0.0203 C   0  0  0  0  0  0  0  0  0  0  0  0
    0.7789   -1.4853    0.0381 C   0  0  0  0  0  0  0  0  0  0  0  0
    2.1440   -1.1706    0.0256 C   0  0  0  0  0  0  0  0  0  0  0  0
    2.6085    0.1537   -0.0223 C   0  0  0  0  0  0  0  0  0  0  0  0
    1.6635    1.2036   -0.0227 C   0  0  0  0  0  0  0  0  0  0  0  0
    4.0602    0.4563   -0.0565 C   0  0  0  0  0  0  0  0  0  0  0  0
    4.9212    0.0171   -1.1151 C   0  0  0  0  0  0  0  0  0  0  0  0
    4.3123   -0.7523   -2.0806 O   0  0  0  0  0  0  0  0  0  0  0  0
    4.9929   -1.3359   -3.1937 C   0  0  0  0  0  0  0  0  0  0  0  0
    6.0503   -2.4140   -2.8088 C   0  0  0  0  0  0  0  0  0  0  0  0
    7.0609   -2.2415   -3.9165 C   0  0  0  0  0  0  0  0  0  0  0  0
    6.8192   -1.0765   -4.6803 C   0  0  0  0  0  0  0  0  0  0  0  0
    5.6064   -0.3180   -4.1987 C   0  0  0  0  0  0  0  0  0  0  0  0
    7.7319   -0.6539   -5.6353 C   0  0  0  0  0  0  0  0  0  0  0  0
    8.8484   -1.4544   -5.8870 C   0  0  0  0  0  0  0  0  0  0  0  0
    9.0872   -2.6118   -5.1294 C   0  0  0  0  0  0  0  0  0  0  0  0
    8.2133   -2.9891   -4.1073 C   0  0  0  0  0  0  0  0  0  0  0  0
    6.2704    0.4145   -1.0837 C   0  0  0  0  0  0  0  0  0  0  0  0
    7.2677    0.2400   -2.0407 N   0  0  0  0  0  0  0  0  0  0  0  0
    6.6844    1.3032   -0.1162 C   0  0  0  0  0  0  0  0  0  0  0  0
    5.9403    1.6104    0.9962 C   0  0  0  0  0  0  0  0  0  0  0  0
    6.6831    2.3139    2.0901 C   0  0  0  0  0  0  0  0  0  0  0  0
    7.7920    1.4514    2.7394 C   0  0  0  0  0  0  0  0  0  0  0  0
    8.9285    0.9346    1.8582 C   0  0  0  0  0  0  0  0  0  0  0  0
   10.1151    1.5524    2.0151 O   0  0  0  0  0  0  0  0  0  0  0  0
    8.8311   -0.0033    1.0663 O   0  0  0  0  0  0  0  0  0  0  0  0
    4.6049    1.2254    1.0073 C   0  0  0  0  0  0  0  0  0  0  0  0
   -2.1972   -2.0324   -0.9970 H   0  0  0  0  0  0  0  0  0  0  0  0
   -2.1608   -2.1609    0.7935 H   0  0  0  0  0  0  0  0  0  0  0  0
   -3.4188   -1.1729   -0.0097 H   0  0  0  0  0  0  0  0  0  0  0  0
   -1.0320    2.7300    0.0080 H   0  0  0  0  0  0  0  0  0  0  0  0
    0.4459   -2.5175    0.0555 H   0  0  0  0  0  0  0  0  0  0  0  0
    2.8636   -1.9873    0.0428 H   0  0  0  0  0  0  0  0  0  0  0  0
    1.9916    2.2393   -0.0591 H   0  0  0  0  0  0  0  0  0  0  0  0
    4.2256   -1.8768   -3.7655 H   0  0  0  0  0  0  0  0  0  0  0  0
    6.4931   -2.2450   -1.8168 H   0  0  0  0  0  0  0  0  0  0  0  0
    5.6368   -3.4246   -2.7715 H   0  0  0  0  0  0  0  0  0  0  0  0
    4.9226   -0.0520   -5.0069 H   0  0  0  0  0  0  0  0  0  0  0  0
    5.8626    0.6450   -3.7435 H   0  0  0  0  0  0  0  0  0  0  0  0
    7.6003    0.2856   -6.1645 H   0  0  0  0  0  0  0  0  0  0  0  0
    9.5483   -1.1731   -6.6705 H   0  0  0  0  0  0  0  0  0  0  0  0
    9.9703   -3.2128   -5.3342 H   0  0  0  0  0  0  0  0  0  0  0  0
    8.4486   -3.8379   -3.4717 H   0  0  0  0  0  0  0  0  0  0  0  0
    8.2272    0.2599   -1.7117 H   0  0  0  0  0  0  0  0  0  0  0  0
    7.1794   -0.6037   -2.5485 H   0  0  0  0  0  0  0  0  0  0  0  0
    7.6965    1.6856   -0.2175 H   0  0  0  0  0  0  0  0  0  0  0  0
    7.1125    3.2334    1.6709 H   0  0  0  0  0  0  0  0  0  0  0  0
    5.9659    2.6207    2.8588 H   0  0  0  0  0  0  0  0  0  0  0  0
    8.2324    2.0293    3.5583 H   0  0  0  0  0  0  0  0  0  0  0  0
    7.3413    0.5630    3.1969 H   0  0  0  0  0  0  0  0  0  0  0  0
   10.1838    2.1562    2.7750 H   0  0  0  0  0  0  0  0  0  0  0  0
    3.9663    1.5278    1.8352 H   0  0  0  0  0  0  0  0  0  0  0  0
  1  2  1  0  0  0  0
  1 33  1  0  0  0  0
  1 34  1  0  0  0  0
  1 35  1  0  0  0  0
  2  3  1  0  0  0  0
  2  6  1  0  0  0  0
  3  4  2  0  0  0  0
  4  5  1  0  0  0  0
  4 36  1  0  0  0  0
  5  6  2  0  0  0  0
  5 10  1  0  0  0  0
  6  7  1  0  0  0  0
  7  8  2  0  0  0  0
  7 37  1  0  0  0  0
  8  9  1  0  0  0  0
  8 38  1  0  0  0  0
  9 10  2  0  0  0  0
  9 11  1  0  0  0  0
 10 39  1  0  0  0  0
 11 12  2  0  0  0  0
 11 32  1  0  0  0  0
 12 13  1  0  0  0  0
 12 23  1  0  0  0  0
 13 14  1  0  0  0  0
 14 15  1  0  0  0  0
 14 18  1  0  0  0  0
 14 40  1  0  0  0  0
 15 16  1  0  0  0  0
 15 41  1  0  0  0  0
 15 42  1  0  0  0  0
 16 17  2  0  0  0  0
 16 22  1  0  0  0  0
 17 18  1  0  0  0  0
 17 19  1  0  0  0  0
 18 43  1  0  0  0  0
 18 44  1  0  0  0  0
 19 20  2  0  0  0  0
 19 45  1  0  0  0  0
 20 21  1  0  0  0  0
 20 46  1  0  0  0  0
 21 22  2  0  0  0  0
 21 47  1  0  0  0  0
 22 48  1  0  0  0  0
 23 24  1  0  0  0  0
 23 25  2  0  0  0  0
 24 49  1  0  0  0  0
 24 50  1  0  0  0  0
 25 26  1  0  0  0  0
 25 51  1  0  0  0  0
 26 27  1  0  0  0  0
 26 32  2  0  0  0  0
 27 28  1  0  0  0  0
 27 52  1  0  0  0  0
 27 53  1  0  0  0  0
 28 29  1  0  0  0  0
 28 54  1  0  0  0  0
 28 55  1  0  0  0  0
 29 30  1  0  0  0  0
 29 31  2  0  0  0  0
 30 56  1  0  0  0  0
 32 57  1  0  0  0  0
M  END
>  <DRUGBANK_ID>
DB16058

>  <COMMON_NAME>
AK106-001616

>  <CAS_NUMBER>
590416-75-4

>  <UNII>
I2CST2BV1Q

$$$$
