
 OpenBabel10282417133D

 56 57  0  0  0  0  0  0  0  0999 V2000
    3.2121    0.1322    0.1738 S   0  0  0  0  0  0  0  0  0  0  0  0
   -0.9222   -3.6517   -2.0892 O   0  0  0  0  0  0  0  0  0  0  0  0
    3.7970   -3.7152    0.8096 O   0  0  0  0  0  0  0  0  0  0  0  0
    4.7424   -2.5659   -2.1818 O   0  0  0  0  0  0  0  0  0  0  0  0
    5.0521   -1.2766   -3.9621 O   0  0  0  0  0  0  0  0  0  0  0  0
   -0.6542   -1.9250    3.9139 O   0  0  0  0  0  0  0  0  0  0  0  0
   -0.4657   -3.7696    2.5810 O   0  0  0  0  0  0  0  0  0  0  0  0
    0.7776   -3.2269   -0.7499 N   0  0  0  0  0  0  0  0  0  0  0  0
    2.1955   -2.7558    2.1026 N   0  0  0  0  0  0  0  0  0  0  0  0
    2.8992    0.3678   -2.7842 N   0  0  0  0  0  0  0  0  0  0  0  0
    2.0126   -2.6067   -0.3283 C   0  0  1  0  0  0  0  0  0  0  0  0
    1.8551   -1.0137   -0.2216 C   0  0  0  0  0  0  0  0  0  0  0  0
    1.5416   -1.5022   -3.6398 C   0  0  0  0  0  0  0  0  0  0  0  0
    1.0448   -2.9284   -3.3182 C   0  0  0  0  0  0  0  0  0  0  0  0
    2.8479   -1.1042   -2.9504 C   0  0  1  0  0  0  0  0  0  0  0  0
    0.2455   -3.2597   -2.0127 C   0  0  0  0  0  0  0  0  0  0  0  0
    5.2919    0.1048    2.0449 C   0  0  0  0  0  0  0  0  0  0  0  0
    4.0056   -0.5384    1.6398 C   0  0  0  0  0  0  0  0  0  0  0  0
    2.7090   -3.1450    0.9015 C   0  0  0  0  0  0  0  0  0  0  0  0
    6.2852    0.5573    1.1279 C   0  0  0  0  0  0  0  0  0  0  0  0
    7.4011    1.2164    1.6650 C   0  0  0  0  0  0  0  0  0  0  0  0
    5.4995    0.1525    3.4383 C   0  0  0  0  0  0  0  0  0  0  0  0
    6.2443    0.4019   -0.2892 C   0  0  0  0  0  0  0  0  0  0  0  0
    7.5436    1.3228    3.0659 C   0  0  0  0  0  0  0  0  0  0  0  0
    6.6207    0.7668    3.9487 C   0  0  0  0  0  0  0  0  0  0  0  0
    4.2665   -1.6899   -3.1043 C   0  0  0  0  0  0  0  0  0  0  0  0
    8.3646    1.7490    0.7864 C   0  0  0  0  0  0  0  0  0  0  0  0
    7.1628    0.9861   -1.1491 C   0  0  0  0  0  0  0  0  0  0  0  0
    0.9984   -1.9601    2.2511 C   0  0  0  0  0  0  0  0  0  0  0  0
    8.2350    1.6587   -0.6046 C   0  0  0  0  0  0  0  0  0  0  0  0
   -0.0864   -2.6693    2.9526 C   0  0  0  0  0  0  0  0  0  0  0  0
    0.1811   -3.6407   -0.0340 H   0  0  0  0  0  0  0  0  0  0  0  0
    2.7974   -2.9336    2.9002 H   0  0  0  0  0  0  0  0  0  0  0  0
    1.9820    0.7702   -2.5806 H   0  0  0  0  0  0  0  0  0  0  0  0
    3.4358    0.5748   -1.9281 H   0  0  0  0  0  0  0  0  0  0  0  0
    4.3952   -2.9396   -1.3442 H   0  0  0  0  0  0  0  0  0  0  0  0
   -0.2605   -1.0356    4.0247 H   0  0  0  0  0  0  0  0  0  0  0  0
    2.6586   -3.0074   -1.1049 H   0  0  0  0  0  0  0  0  0  0  0  0
    1.0877   -0.5982    0.4102 H   0  0  0  0  0  0  0  0  0  0  0  0
    1.3465   -0.6718   -1.1236 H   0  0  0  0  0  0  0  0  0  0  0  0
    1.6754   -1.3443   -4.7138 H   0  0  0  0  0  0  0  0  0  0  0  0
    0.7227   -0.8290   -3.3280 H   0  0  0  0  0  0  0  0  0  0  0  0
    1.8628   -3.6443   -3.4277 H   0  0  0  0  0  0  0  0  0  0  0  0
    0.3290   -3.1617   -4.1232 H   0  0  0  0  0  0  0  0  0  0  0  0
    2.6602   -1.5340   -2.0264 H   0  0  0  0  0  0  0  0  0  0  0  0
    3.2784   -0.3479    2.4313 H   0  0  0  0  0  0  0  0  0  0  0  0
    4.2714   -1.5876    1.6062 H   0  0  0  0  0  0  0  0  0  0  0  0
    4.7769   -0.2924    4.1228 H   0  0  0  0  0  0  0  0  0  0  0  0
    5.4908   -0.1925   -0.7884 H   0  0  0  0  0  0  0  0  0  0  0  0
    8.4030    1.8374    3.4845 H   0  0  0  0  0  0  0  0  0  0  0  0
    6.7657    0.8201    5.0236 H   0  0  0  0  0  0  0  0  0  0  0  0
    9.2414    2.2460    1.1891 H   0  0  0  0  0  0  0  0  0  0  0  0
    7.0272    0.8870   -2.2250 H   0  0  0  0  0  0  0  0  0  0  0  0
    1.2398   -0.9514    2.6039 H   0  0  0  0  0  0  0  0  0  0  0  0
    0.4602   -1.8612    1.3153 H   0  0  0  0  0  0  0  0  0  0  0  0
    8.9828    2.0875   -1.2632 H   0  0  0  0  0  0  0  0  0  0  0  0
  1 12  1  0  0  0  0
  1 18  1  0  0  0  0
  2 16  2  0  0  0  0
  3 19  2  0  0  0  0
  4 26  1  0  0  0  0
  4 36  1  0  0  0  0
  5 26  2  0  0  0  0
  6 31  1  0  0  0  0
  6 37  1  0  0  0  0
  7 31  2  0  0  0  0
  8 16  1  0  0  0  0
  8 32  1  0  0  0  0
  9 19  1  0  0  0  0
  9 29  1  0  0  0  0
  9 33  1  0  0  0  0
 10 34  1  0  0  0  0
 10 35  1  0  0  0  0
 11 19  1  0  0  0  0
 11 38  1  6  0  0  0
 11 12  1  0  0  0  0
 11  8  1  0  0  0  0
 12 39  1  0  0  0  0
 12 40  1  0  0  0  0
 13 14  1  0  0  0  0
 13 41  1  0  0  0  0
 13 42  1  0  0  0  0
 14 16  1  0  0  0  0
 14 43  1  0  0  0  0
 14 44  1  0  0  0  0
 15 26  1  0  0  0  0
 15 45  1  1  0  0  0
 15 13  1  0  0  0  0
 15 10  1  0  0  0  0
 17 18  1  0  0  0  0
 17 20  1  0  0  0  0
 17 22  2  0  0  0  0
 18 46  1  0  0  0  0
 18 47  1  0  0  0  0
 20 21  1  0  0  0  0
 20 23  2  0  0  0  0
 21 24  1  0  0  0  0
 21 27  2  0  0  0  0
 22 25  1  0  0  0  0
 22 48  1  0  0  0  0
 23 28  1  0  0  0  0
 23 49  1  0  0  0  0
 24 25  2  0  0  0  0
 24 50  1  0  0  0  0
 25 51  1  0  0  0  0
 27 30  1  0  0  0  0
 27 52  1  0  0  0  0
 28 30  2  0  0  0  0
 28 53  1  0  0  0  0
 29 31  1  0  0  0  0
 29 54  1  0  0  0  0
 29 55  1  0  0  0  0
 30 56  1  0  0  0  0
M  END
>  <DRUGBANK_ID>
DB03885

>  <SECONDARY_ACCESSION_NUMBERS>
EXPT01588

>  <COMMON_NAME>
L-gamma-glutamyl-S-(naphthalen-1-ylmethyl)-L-cysteinylglycine

>  <SYNONYMS>
1-menaphthyl glutathione conjugate; L-gammaGlu-S-(1-Naphthylmethyl)-L-Cys-Gly-OH

$$$$
