
 OpenBabel10282417203D

 40 42  0  0  0  0  0  0  0  0999 V2000
   -1.8620    1.2021    0.0056 C   0  0  0  0  0  0  0  0  0  0  0  0
   -1.0513   -1.4854   -0.1863 C   0  0  0  0  0  0  0  0  0  0  0  0
   -2.4195   -1.1192   -0.1439 C   0  0  0  0  0  0  0  0  0  0  0  0
   -2.8209    0.2052   -0.0100 C   0  0  0  0  0  0  0  0  0  0  0  0
   -0.0408   -0.4677   -0.1158 C   0  0  0  0  0  0  0  0  0  0  0  0
   -0.4969    0.8826   -0.0521 C   0  0  0  0  0  0  0  0  0  0  0  0
    0.4362    1.9244   -0.0180 C   0  0  0  0  0  0  0  0  0  0  0  0
    1.7741    1.7664   -0.0163 N   0  0  0  0  0  0  0  0  0  0  0  0
    2.2041    0.4954   -0.0226 C   0  0  0  0  0  0  0  0  0  0  0  0
    1.3692   -0.6094   -0.0528 C   0  0  0  0  0  0  0  0  0  0  0  0
    1.9854   -1.7830    0.0638 F   0  0  0  0  0  0  0  0  0  0  0  0
   -0.7220   -3.2696   -0.3016 S   0  0  0  0  0  0  0  0  0  0  0  0
   -1.4101   -3.9515    1.1267 N   0  0  0  0  0  0  0  0  0  0  0  0
   -2.8882   -3.9694    1.1699 C   0  0  0  0  0  0  0  0  0  0  0  0
   -3.4283   -5.1675    1.9223 C   0  0  0  0  0  0  0  0  0  0  0  0
   -0.7239   -3.6503    2.4383 C   0  0  2  0  0  0  0  0  0  0  0  0
   -3.6280   -4.8752    3.4095 C   0  0  0  0  0  0  0  0  0  0  0  0
   -1.2002   -4.5777    3.5946 C   0  0  0  0  0  0  0  0  0  0  0  0
   -2.5310   -4.1964    4.0833 N   0  0  0  0  0  0  0  0  0  0  0  0
   -0.9432   -2.1954    2.8529 C   0  0  0  0  0  0  0  0  0  0  0  0
   -1.4809   -3.7324   -1.4400 O   0  0  0  0  0  0  0  0  0  0  0  0
    0.6929   -3.5677   -0.2288 O   0  0  0  0  0  0  0  0  0  0  0  0
   -2.1911    2.2392    0.0707 H   0  0  0  0  0  0  0  0  0  0  0  0
   -3.2084   -1.8610   -0.1962 H   0  0  0  0  0  0  0  0  0  0  0  0
   -3.8766    0.4591    0.0677 H   0  0  0  0  0  0  0  0  0  0  0  0
    0.1196    2.9649    0.0170 H   0  0  0  0  0  0  0  0  0  0  0  0
    3.2783    0.3459    0.0134 H   0  0  0  0  0  0  0  0  0  0  0  0
   -3.2640   -3.0448    1.6100 H   0  0  0  0  0  0  0  0  0  0  0  0
   -3.2768   -4.0334    0.1498 H   0  0  0  0  0  0  0  0  0  0  0  0
   -4.4084   -5.4170    1.4988 H   0  0  0  0  0  0  0  0  0  0  0  0
   -2.7894   -6.0459    1.7772 H   0  0  0  0  0  0  0  0  0  0  0  0
    0.3520   -3.8359    2.3144 H   0  0  0  0  0  0  0  0  0  0  0  0
   -4.5211   -4.2481    3.5262 H   0  0  0  0  0  0  0  0  0  0  0  0
   -3.8361   -5.8170    3.9258 H   0  0  0  0  0  0  0  0  0  0  0  0
   -0.4989   -4.4538    4.4301 H   0  0  0  0  0  0  0  0  0  0  0  0
   -1.1535   -5.6397    3.3256 H   0  0  0  0  0  0  0  0  0  0  0  0
   -2.6047   -4.2981    5.0934 H   0  0  0  0  0  0  0  0  0  0  0  0
   -2.0060   -1.9572    2.9647 H   0  0  0  0  0  0  0  0  0  0  0  0
   -0.4375   -1.9573    3.7892 H   0  0  0  0  0  0  0  0  0  0  0  0
   -0.5443   -1.5088    2.1235 H   0  0  0  0  0  0  0  0  0  0  0  0
  1  6  2  0  0  0  0
  1 23  1  0  0  0  0
  2  3  1  0  0  0  0
  2 12  1  0  0  0  0
  3  4  2  0  0  0  0
  3 24  1  0  0  0  0
  4  1  1  0  0  0  0
  4 25  1  0  0  0  0
  5  2  2  0  0  0  0
  5  6  1  0  0  0  0
  6  7  1  0  0  0  0
  7  8  2  0  0  0  0
  7 26  1  0  0  0  0
  8  9  1  0  0  0  0
  9 10  2  0  0  0  0
  9 27  1  0  0  0  0
 10  5  1  0  0  0  0
 10 11  1  0  0  0  0
 12 13  1  0  0  0  0
 12 21  2  0  0  0  0
 12 22  2  0  0  0  0
 13 14  1  0  0  0  0
 13 16  1  0  0  0  0
 14 15  1  0  0  0  0
 14 28  1  0  0  0  0
 14 29  1  0  0  0  0
 15 17  1  0  0  0  0
 15 30  1  0  0  0  0
 15 31  1  0  0  0  0
 16 18  1  0  0  0  0
 16 32  1  6  0  0  0
 16 20  1  0  0  0  0
 17 19  1  0  0  0  0
 17 33  1  0  0  0  0
 17 34  1  0  0  0  0
 18 19  1  0  0  0  0
 18 35  1  0  0  0  0
 18 36  1  0  0  0  0
 19 37  1  0  0  0  0
 20 38  1  0  0  0  0
 20 39  1  0  0  0  0
 20 40  1  0  0  0  0
M  END
>  <DRUGBANK_ID>
DB13165

>  <COMMON_NAME>
Ripasudil

>  <CAS_NUMBER>
223645-67-8

>  <UNII>
11978226XX

>  <SYNONYMS>
Ripasudil

$$$$
