IHE
 OpenBabel10282417173D

 55 58  0  0  0  0  0  0  0  0999 V2000
   -1.2494    1.0859   -0.4527 C   0  0  0  0  0  0  0  0  0  0  0  0
    0.2343   -1.4496   -0.0464 C   0  0  0  0  0  0  0  0  0  0  0  0
    0.8341   -0.3968   -0.8696 N   0  0  0  0  0  0  0  0  0  0  0  0
    0.2669    0.8976   -0.4461 C   0  0  0  0  0  0  0  0  0  0  0  0
   -1.2649   -1.3371   -0.2443 C   0  0  0  0  0  0  0  0  0  0  0  0
   -1.8935   -0.0699    0.2094 N   0  0  0  0  0  0  0  0  0  0  0  0
    2.2427   -0.5118   -0.5949 C   0  0  0  0  0  0  0  0  0  0  0  0
   -1.9380    0.0504    1.6906 C   0  0  0  0  0  0  0  0  0  0  0  0
   -0.6391    0.1662    2.6576 C   0  0  0  0  0  0  0  0  0  0  0  0
    0.2260    1.3619    2.5978 N   0  0  0  0  0  0  0  0  0  0  0  0
   -0.4369    2.5600    2.4985 C   0  0  0  0  0  0  0  0  0  0  0  0
    0.2572    3.4048    1.8020 N   0  0  0  0  0  0  0  0  0  0  0  0
    1.5853    1.5945    2.1343 C   0  0  0  0  0  0  0  0  0  0  0  0
    2.6908    0.8023    1.9609 N   0  0  0  0  0  0  0  0  0  0  0  0
    3.6559    1.3678    1.1047 C   0  0  0  0  0  0  0  0  0  0  0  0
    3.6348    2.5794    0.5250 N   0  0  0  0  0  0  0  0  0  0  0  0
    2.6037    3.3786    0.8139 C   0  0  0  0  0  0  0  0  0  0  0  0
    1.4994    2.8546    1.5550 C   0  0  0  0  0  0  0  0  0  0  0  0
    2.7147    4.6787    0.3645 N   0  0  0  0  0  0  0  0  0  0  0  0
    1.8060    5.6844    0.8763 C   0  0  0  0  0  0  0  0  0  0  0  0
    1.6937    5.6707    2.4246 C   0  0  0  0  0  0  0  0  0  0  0  0
    0.5436    6.5259    2.9173 C   0  0  0  0  0  0  0  0  0  0  0  0
   -0.7649    6.2669    2.1702 C   0  0  0  0  0  0  0  0  0  0  0  0
   -0.6081    6.4215    0.6602 C   0  0  0  0  0  0  0  0  0  0  0  0
    0.4927    5.5605    0.0809 C   0  0  0  0  0  0  0  0  0  0  0  0
    5.2719   -0.2530   -0.2298 N   0  0  0  0  0  0  0  0  0  0  0  0
    4.6288    0.4826    0.4424 C   0  0  0  0  0  0  0  0  0  0  0  0
   -1.5632    1.2343   -1.4901 H   0  0  0  0  0  0  0  0  0  0  0  0
   -1.5535    2.0074    0.0708 H   0  0  0  0  0  0  0  0  0  0  0  0
    0.6327   -2.4197   -0.3505 H   0  0  0  0  0  0  0  0  0  0  0  0
    0.5338   -1.3788    1.0031 H   0  0  0  0  0  0  0  0  0  0  0  0
    0.4146    0.8201    0.5879 H   0  0  0  0  0  0  0  0  0  0  0  0
    0.7881    1.8045   -0.7661 H   0  0  0  0  0  0  0  0  0  0  0  0
   -1.4152   -1.4255   -1.3276 H   0  0  0  0  0  0  0  0  0  0  0  0
   -1.7438   -2.1947    0.2255 H   0  0  0  0  0  0  0  0  0  0  0  0
    2.7084    0.3988   -0.9608 H   0  0  0  0  0  0  0  0  0  0  0  0
    2.4360   -0.7223    0.4673 H   0  0  0  0  0  0  0  0  0  0  0  0
    2.7229   -1.3619   -1.0747 H   0  0  0  0  0  0  0  0  0  0  0  0
   -2.6429    0.8676    1.9162 H   0  0  0  0  0  0  0  0  0  0  0  0
   -2.4984   -0.8405    2.0167 H   0  0  0  0  0  0  0  0  0  0  0  0
   -1.0359    0.1502    3.6808 H   0  0  0  0  0  0  0  0  0  0  0  0
   -0.0228   -0.7175    2.5875 H   0  0  0  0  0  0  0  0  0  0  0  0
   -1.4759    2.7138    2.7762 H   0  0  0  0  0  0  0  0  0  0  0  0
    3.6260    4.9471    0.0112 H   0  0  0  0  0  0  0  0  0  0  0  0
    2.2289    6.6659    0.6271 H   0  0  0  0  0  0  0  0  0  0  0  0
    1.5397    4.6995    2.8888 H   0  0  0  0  0  0  0  0  0  0  0  0
    2.6501    5.9478    2.8820 H   0  0  0  0  0  0  0  0  0  0  0  0
    0.3915    6.3340    3.9864 H   0  0  0  0  0  0  0  0  0  0  0  0
    0.8315    7.5721    2.8006 H   0  0  0  0  0  0  0  0  0  0  0  0
   -1.1593    5.2739    2.4110 H   0  0  0  0  0  0  0  0  0  0  0  0
   -1.5237    6.9704    2.5256 H   0  0  0  0  0  0  0  0  0  0  0  0
   -1.5515    6.1690    0.1639 H   0  0  0  0  0  0  0  0  0  0  0  0
   -0.3770    7.4645    0.4289 H   0  0  0  0  0  0  0  0  0  0  0  0
    0.6765    5.8038   -0.9730 H   0  0  0  0  0  0  0  0  0  0  0  0
    0.1217    4.5354   -0.0001 H   0  0  0  0  0  0  0  0  0  0  0  0
  1  4  1  0  0  0  0
  1  6  1  0  0  0  0
  1 28  1  0  0  0  0
  1 29  1  0  0  0  0
  2  3  1  0  0  0  0
  2  5  1  0  0  0  0
  2 30  1  0  0  0  0
  2 31  1  0  0  0  0
  3  4  1  0  0  0  0
  3  7  1  0  0  0  0
  4 32  1  0  0  0  0
  4 33  1  0  0  0  0
  5  6  1  0  0  0  0
  5 34  1  0  0  0  0
  5 35  1  0  0  0  0
  6  8  1  0  0  0  0
  7 36  1  0  0  0  0
  7 37  1  0  0  0  0
  7 38  1  0  0  0  0
  8  9  1  0  0  0  0
  8 39  1  0  0  0  0
  8 40  1  0  0  0  0
  9 10  1  0  0  0  0
  9 41  1  0  0  0  0
  9 42  1  0  0  0  0
 10 11  1  0  0  0  0
 10 13  1  0  0  0  0
 11 12  2  0  0  0  0
 11 43  1  0  0  0  0
 12 18  1  0  0  0  0
 13 14  2  0  0  0  0
 13 18  1  0  0  0  0
 14 15  1  0  0  0  0
 15 16  2  0  0  0  0
 15 27  1  0  0  0  0
 16 17  1  0  0  0  0
 17 18  2  0  0  0  0
 17 19  1  0  0  0  0
 19 20  1  0  0  0  0
 19 44  1  0  0  0  0
 20 21  1  0  0  0  0
 20 25  1  0  0  0  0
 20 45  1  0  0  0  0
 21 22  1  0  0  0  0
 21 46  1  0  0  0  0
 21 47  1  0  0  0  0
 22 23  1  0  0  0  0
 22 48  1  0  0  0  0
 22 49  1  0  0  0  0
 23 24  1  0  0  0  0
 23 50  1  0  0  0  0
 23 51  1  0  0  0  0
 24 25  1  0  0  0  0
 24 52  1  0  0  0  0
 24 53  1  0  0  0  0
 25 54  1  0  0  0  0
 25 55  1  0  0  0  0
 26 27  3  0  0  0  0
M  END
>  <DRUGBANK_ID>
DB07965

>  <COMMON_NAME>
6-(cyclohexylamino)-9-[2-(4-methylpiperazin-1-yl)-ethyl]-9H-purine-2-carbonitrile

>  <SYNONYMS>
6-(Cyclohexylamino)-9-[2-(4-methyl-1-piperazinyl)ethyl]-9H-purine-2-carbonitrile

$$$$
