
 OpenBabel10282417203D

 62 63  0  0  0  0  0  0  0  0999 V2000
    0.5166    1.3174    0.0776 C   0  0  0  0  0  0  0  0  0  0  0  0
   -0.8876    0.9278    0.1258 C   0  0  0  0  0  0  0  0  0  0  0  0
    1.4773    0.2152    0.0785 C   0  0  0  0  0  0  0  0  0  0  0  0
    0.7793    2.7712    0.0789 N   0  0  0  0  0  0  0  0  0  0  0  0
   -1.3560   -0.4451    0.1664 C   0  0  0  0  0  0  0  0  0  0  0  0
   -2.3311    2.6351   -0.0231 I   0  0  0  0  0  0  0  0  0  0  0  0
    1.0837   -1.1825    0.1171 C   0  0  0  0  0  0  0  0  0  0  0  0
    3.8258    0.4449   -0.1132 I   0  0  0  0  0  0  0  0  0  0  0  0
    1.9618    3.4031   -0.1187 C   0  0  0  0  0  0  0  0  0  0  0  0
   -0.3317   -1.4648    0.1072 C   0  0  0  0  0  0  0  0  0  0  0  0
   -2.8753   -0.7709    0.3065 C   0  0  0  0  0  0  0  0  0  0  0  0
    2.1829   -2.2949    0.2066 C   0  0  0  0  0  0  0  0  0  0  0  0
    2.2337    4.8604    0.0278 C   0  0  0  0  0  0  0  0  0  0  0  0
    2.9661    2.8289   -0.5237 O   0  0  0  0  0  0  0  0  0  0  0  0
   -0.9394   -3.6226   -0.3650 I   0  0  0  0  0  0  0  0  0  0  0  0
   -3.2749   -2.0797    0.4480 N   0  0  0  0  0  0  0  0  0  0  0  0
   -3.7480    0.0854    0.3342 O   0  0  0  0  0  0  0  0  0  0  0  0
    1.8311   -3.5789    0.2999 O   0  0  0  0  0  0  0  0  0  0  0  0
    3.3879   -2.1638    0.2621 O   0  0  0  0  0  0  0  0  0  0  0  0
    3.2171    5.0836    1.2025 C   0  0  0  0  0  0  0  0  0  0  0  0
   -4.6387   -2.5591    0.4973 C   0  0  0  0  0  0  0  0  0  0  0  0
    4.5983    4.3475    1.1706 C   0  0  0  0  0  0  0  0  0  0  0  0
    5.4558    4.5839   -0.0884 C   0  0  0  0  0  0  0  0  0  0  0  0
    5.7708    6.0607   -0.2907 C   0  0  0  0  0  0  0  0  0  0  0  0
    7.0930    6.4556   -0.1004 N   0  0  0  0  0  0  0  0  0  0  0  0
    4.8792    6.8502   -0.6033 O   0  0  0  0  0  0  0  0  0  0  0  0
    7.4611    7.8527   -0.1788 C   0  0  0  0  0  0  0  0  0  0  0  0
    6.8435    8.8193    0.6670 C   0  0  0  0  0  0  0  0  0  0  0  0
    8.4840    8.2886   -1.0740 C   0  0  0  0  0  0  0  0  0  0  0  0
    7.1640   10.2137    0.6116 C   0  0  0  0  0  0  0  0  0  0  0  0
    5.7247    7.9726    2.4320 I   0  0  0  0  0  0  0  0  0  0  0  0
    8.8863    9.6696   -1.1742 C   0  0  0  0  0  0  0  0  0  0  0  0
    9.3761    6.6784   -2.2567 I   0  0  0  0  0  0  0  0  0  0  0  0
    8.2290   10.6009   -0.2872 C   0  0  0  0  0  0  0  0  0  0  0  0
    6.3435   11.1819    1.4768 C   0  0  0  0  0  0  0  0  0  0  0  0
    9.9454   10.0739   -2.2150 C   0  0  0  0  0  0  0  0  0  0  0  0
    9.1383   12.6735   -0.0657 I   0  0  0  0  0  0  0  0  0  0  0  0
    6.6006   12.5247    1.4267 N   0  0  0  0  0  0  0  0  0  0  0  0
    5.4202   10.8241    2.1947 O   0  0  0  0  0  0  0  0  0  0  0  0
   10.2672   11.3675   -2.3868 O   0  0  0  0  0  0  0  0  0  0  0  0
   10.5158    9.2932   -2.9548 O   0  0  0  0  0  0  0  0  0  0  0  0
    5.9443   13.5050    2.2542 C   0  0  0  0  0  0  0  0  0  0  0  0
   -0.0456    3.3756    0.0903 H   0  0  0  0  0  0  0  0  0  0  0  0
    2.7473    5.1296   -0.9111 H   0  0  0  0  0  0  0  0  0  0  0  0
    1.3356    5.4750    0.0723 H   0  0  0  0  0  0  0  0  0  0  0  0
   -2.5909   -2.8133    0.4166 H   0  0  0  0  0  0  0  0  0  0  0  0
    0.8895   -3.7682    0.2594 H   0  0  0  0  0  0  0  0  0  0  0  0
    3.4088    6.1560    1.2625 H   0  0  0  0  0  0  0  0  0  0  0  0
    2.7142    4.8077    2.1358 H   0  0  0  0  0  0  0  0  0  0  0  0
   -4.8094   -3.2013   -0.3745 H   0  0  0  0  0  0  0  0  0  0  0  0
   -4.7339   -3.1746    1.3962 H   0  0  0  0  0  0  0  0  0  0  0  0
   -5.3578   -1.7427    0.5088 H   0  0  0  0  0  0  0  0  0  0  0  0
    5.1778    4.6357    2.0576 H   0  0  0  0  0  0  0  0  0  0  0  0
    4.4487    3.2693    1.3097 H   0  0  0  0  0  0  0  0  0  0  0  0
    6.3712    3.9800   -0.0436 H   0  0  0  0  0  0  0  0  0  0  0  0
    4.9246    4.2472   -0.9849 H   0  0  0  0  0  0  0  0  0  0  0  0
    7.7927    5.7702   -0.3740 H   0  0  0  0  0  0  0  0  0  0  0  0
    7.3223   12.8781    0.8255 H   0  0  0  0  0  0  0  0  0  0  0  0
    9.8718   12.0216   -1.7900 H   0  0  0  0  0  0  0  0  0  0  0  0
    6.7093   13.9875    2.8689 H   0  0  0  0  0  0  0  0  0  0  0  0
    5.4995   14.2464    1.5878 H   0  0  0  0  0  0  0  0  0  0  0  0
    5.1814   13.0598    2.8930 H   0  0  0  0  0  0  0  0  0  0  0  0
  1  2  2  0  0  0  0
  1  3  1  0  0  0  0
  1  4  1  0  0  0  0
  2  5  1  0  0  0  0
  2  6  1  0  0  0  0
  3  7  2  0  0  0  0
  3  8  1  0  0  0  0
  4  9  1  0  0  0  0
  4 43  1  0  0  0  0
  5 10  2  0  0  0  0
  5 11  1  0  0  0  0
  7 12  1  0  0  0  0
  7 10  1  0  0  0  0
  9 13  1  0  0  0  0
  9 14  2  0  0  0  0
 10 15  1  0  0  0  0
 11 16  1  0  0  0  0
 11 17  2  0  0  0  0
 12 18  1  0  0  0  0
 12 19  2  0  0  0  0
 13 20  1  0  0  0  0
 13 44  1  0  0  0  0
 13 45  1  0  0  0  0
 16 21  1  0  0  0  0
 16 46  1  0  0  0  0
 18 47  1  0  0  0  0
 20 22  1  0  0  0  0
 20 48  1  0  0  0  0
 20 49  1  0  0  0  0
 21 50  1  0  0  0  0
 21 51  1  0  0  0  0
 21 52  1  0  0  0  0
 22 23  1  0  0  0  0
 22 53  1  0  0  0  0
 22 54  1  0  0  0  0
 23 24  1  0  0  0  0
 23 55  1  0  0  0  0
 23 56  1  0  0  0  0
 24 25  1  0  0  0  0
 24 26  2  0  0  0  0
 25 27  1  0  0  0  0
 25 57  1  0  0  0  0
 27 28  1  0  0  0  0
 27 29  2  0  0  0  0
 28 30  2  0  0  0  0
 28 31  1  0  0  0  0
 29 32  1  0  0  0  0
 29 33  1  0  0  0  0
 30 34  1  0  0  0  0
 30 35  1  0  0  0  0
 32 36  1  0  0  0  0
 32 34  2  0  0  0  0
 34 37  1  0  0  0  0
 35 38  1  0  0  0  0
 35 39  2  0  0  0  0
 36 40  1  0  0  0  0
 36 41  2  0  0  0  0
 38 42  1  0  0  0  0
 38 58  1  0  0  0  0
 40 59  1  0  0  0  0
 42 60  1  0  0  0  0
 42 61  1  0  0  0  0
 42 62  1  0  0  0  0
M  END
>  <DRUGBANK_ID>
DB13755

>  <COMMON_NAME>
Iocarmic acid

>  <CAS_NUMBER>
10397-75-8

>  <UNII>
82PB24K6TZ

>  <SYNONYMS>
Acido iocarmico; Acidum iocarmicum; Iocarmic acid

$$$$
