
 OpenBabel10282417183D

 48 48  0  0  0  0  0  0  0  0999 V2000
    5.3306   -6.5292    2.7647 N   0  0  0  0  0  0  0  0  0  0  0  0
    7.0319   -4.7565    3.1624 C   0  0  0  0  0  0  0  0  0  0  0  0
    7.4642   -4.3152    4.2302 O   0  0  0  0  0  0  0  0  0  0  0  0
    6.7595   -6.2536    2.9794 C   0  0  0  0  0  0  0  0  0  0  0  0
    6.7791   -3.8751    2.1417 N   0  0  0  0  0  0  0  0  0  0  0  0
    7.3950   -3.7855   -0.2988 C   0  0  0  0  0  0  0  0  0  0  0  0
    4.8493   -3.6089    0.5859 C   0  0  0  0  0  0  0  0  0  0  0  0
    6.2962   -4.1119    0.7541 C   0  0  2  0  0  0  0  0  0  0  0  0
    8.4292   -4.4723   -0.2944 O   0  0  0  0  0  0  0  0  0  0  0  0
    7.3439   -2.8380   -1.2653 N   0  0  0  0  0  0  0  0  0  0  0  0
    3.9993   -2.1777   -1.2540 N   0  0  0  0  0  0  0  0  0  0  0  0
    4.3269   -3.4384   -0.8012 C   0  0  0  0  0  0  0  0  0  0  0  0
    3.9282   -3.5953   -2.9362 N   0  0  0  0  0  0  0  0  0  0  0  0
    3.8195   -2.2956   -2.5470 C   0  0  0  0  0  0  0  0  0  0  0  0
    4.0591   -4.3486   -1.7976 C   0  0  0  0  0  0  0  0  0  0  0  0
    6.3854   -1.2738   -2.9092 C   0  0  0  0  0  0  0  0  0  0  0  0
    6.4204   -2.1217   -3.8106 O   0  0  0  0  0  0  0  0  0  0  0  0
    6.7004   -1.5212   -1.3982 C   0  0  2  0  0  0  0  0  0  0  0  0
    7.5807   -0.3893   -0.9100 C   0  0  0  0  0  0  0  0  0  0  0  0
    6.7776    0.9268   -0.7590 C   0  0  0  0  0  0  0  0  0  0  0  0
    5.6570    0.8935    0.2926 C   0  0  0  0  0  0  0  0  0  0  0  0
    6.1966    0.5656    1.6759 C   0  0  0  0  0  0  0  0  0  0  0  0
    7.2183    1.5392    2.0383 N   0  0  0  0  0  0  0  0  0  0  0  0
    5.9796   -0.0311   -3.2272 O   0  0  0  0  0  0  0  0  0  0  0  0
    4.8001   -6.1279    3.5380 H   0  0  0  0  0  0  0  0  0  0  0  0
    5.0052   -6.0580    1.9300 H   0  0  0  0  0  0  0  0  0  0  0  0
    7.0680   -6.7818    3.8899 H   0  0  0  0  0  0  0  0  0  0  0  0
    7.3737   -6.6344    2.1588 H   0  0  0  0  0  0  0  0  0  0  0  0
    7.0475   -2.9297    2.3884 H   0  0  0  0  0  0  0  0  0  0  0  0
    4.1658   -4.2977    1.0964 H   0  0  0  0  0  0  0  0  0  0  0  0
    4.7597   -2.6592    1.1275 H   0  0  0  0  0  0  0  0  0  0  0  0
    6.2405   -5.2028    0.6416 H   0  0  0  0  0  0  0  0  0  0  0  0
    8.0233   -3.0214   -1.9919 H   0  0  0  0  0  0  0  0  0  0  0  0
    3.9587   -3.9138   -3.8957 H   0  0  0  0  0  0  0  0  0  0  0  0
    3.7554   -1.4738   -3.2505 H   0  0  0  0  0  0  0  0  0  0  0  0
    4.0231   -5.4255   -1.8219 H   0  0  0  0  0  0  0  0  0  0  0  0
    5.8754   -1.5044   -0.7071 H   0  0  0  0  0  0  0  0  0  0  0  0
    8.0362   -0.6713    0.0461 H   0  0  0  0  0  0  0  0  0  0  0  0
    8.4018   -0.2649   -1.6216 H   0  0  0  0  0  0  0  0  0  0  0  0
    7.4894    1.7296   -0.5612 H   0  0  0  0  0  0  0  0  0  0  0  0
    6.3024    1.2627   -1.6764 H   0  0  0  0  0  0  0  0  0  0  0  0
    5.1548    1.8698    0.3012 H   0  0  0  0  0  0  0  0  0  0  0  0
    4.8662    0.1804    0.0223 H   0  0  0  0  0  0  0  0  0  0  0  0
    5.3857    0.5795    2.4086 H   0  0  0  0  0  0  0  0  0  0  0  0
    6.6192   -0.4448    1.6881 H   0  0  0  0  0  0  0  0  0  0  0  0
    7.6544    1.2793    2.9177 H   0  0  0  0  0  0  0  0  0  0  0  0
    7.9703    1.5331    1.3496 H   0  0  0  0  0  0  0  0  0  0  0  0
    5.6912    0.0119   -4.1596 H   0  0  0  0  0  0  0  0  0  0  0  0
  1 25  1  0  0  0  0
  1 26  1  0  0  0  0
  3  2  2  0  0  0  0
  4  2  1  0  0  0  0
  4  1  1  0  0  0  0
  4 27  1  0  0  0  0
  4 28  1  0  0  0  0
  5  2  1  0  0  0  0
  5 29  1  0  0  0  0
  7 12  1  0  0  0  0
  7 30  1  0  0  0  0
  7 31  1  0  0  0  0
  8  5  1  0  0  0  0
  8 32  1  6  0  0  0
  8  7  1  0  0  0  0
  8  6  1  0  0  0  0
  9  6  2  0  0  0  0
 10  6  1  0  0  0  0
 10 33  1  0  0  0  0
 12 11  1  0  0  0  0
 13 34  1  0  0  0  0
 14 11  2  0  0  0  0
 14 13  1  0  0  0  0
 14 35  1  0  0  0  0
 15 12  2  0  0  0  0
 15 13  1  0  0  0  0
 15 36  1  0  0  0  0
 16 24  1  0  0  0  0
 17 16  2  0  0  0  0
 18 37  1  1  0  0  0
 18 10  1  0  0  0  0
 18 16  1  0  0  0  0
 19 18  1  0  0  0  0
 19 20  1  0  0  0  0
 19 38  1  0  0  0  0
 19 39  1  0  0  0  0
 20 21  1  0  0  0  0
 20 40  1  0  0  0  0
 20 41  1  0  0  0  0
 21 22  1  0  0  0  0
 21 42  1  0  0  0  0
 21 43  1  0  0  0  0
 22 23  1  0  0  0  0
 22 44  1  0  0  0  0
 22 45  1  0  0  0  0
 23 46  1  0  0  0  0
 23 47  1  0  0  0  0
 24 48  1  0  0  0  0
M  END
>  <DRUGBANK_ID>
DB11296

>  <COMMON_NAME>
Prezatide

>  <CAS_NUMBER>
49557-75-7

>  <UNII>
39TG2H631E

>  <SYNONYMS>
GHK; Gly-His-Lys; Glycyl-L-histidyl-L-lysine; Glycylhistidyllysine; Growth-modulating peptide (human); Liver cell growth factor; Tripeptide-1

$$$$
