
 OpenBabel10282417123D

 16 16  0  0  0  0  0  0  0  0999 V2000
    1.0691    0.0320   -0.0649 O   0  0  0  0  0  0  0  0  0  0  0  0
    0.5691   -1.0897    0.7964 B   0  0  0  0  0  0  0  0  0  0  0  0
    1.5438   -1.9940    1.4907 O   0  0  0  0  0  0  0  0  0  0  0  0
   -1.0040   -1.3216    0.9745 C   0  0  0  0  0  0  0  0  0  0  0  0
   -1.7939   -1.2763   -0.0919 C   0  0  0  0  0  0  0  0  0  0  0  0
   -3.1200   -1.6226    0.0047 C   0  0  0  0  0  0  0  0  0  0  0  0
   -3.6794   -1.9331    1.2131 C   0  0  0  0  0  0  0  0  0  0  0  0
   -2.8492   -2.0399    2.2346 C   0  0  0  0  0  0  0  0  0  0  0  0
   -1.5160   -1.5660    2.2381 C   0  0  0  0  0  0  0  0  0  0  0  0
    2.0691    0.0320   -0.0649 H   0  0  0  0  0  0  0  0  0  0  0  0
    2.4770   -1.7090    1.2719 H   0  0  0  0  0  0  0  0  0  0  0  0
   -1.3941   -0.9672   -1.0351 H   0  0  0  0  0  0  0  0  0  0  0  0
   -3.7237   -1.6497   -0.8783 H   0  0  0  0  0  0  0  0  0  0  0  0
   -4.7331   -2.0816    1.3251 H   0  0  0  0  0  0  0  0  0  0  0  0
   -3.2098   -2.5182    3.1212 H   0  0  0  0  0  0  0  0  0  0  0  0
   -0.9544   -1.4104    3.1354 H   0  0  0  0  0  0  0  0  0  0  0  0
  1  2  1  0  0  0  0
  1 10  1  0  0  0  0
  2  3  1  0  0  0  0
  2  4  1  0  0  0  0
  3 11  1  0  0  0  0
  4  5  2  0  0  0  0
  4  9  1  0  0  0  0
  5  6  1  0  0  0  0
  5 12  1  0  0  0  0
  6  7  2  0  0  0  0
  6 13  1  0  0  0  0
  7  8  1  0  0  0  0
  7 14  1  0  0  0  0
  8  9  2  0  0  0  0
  8 15  1  0  0  0  0
  9 16  1  0  0  0  0
M  END
>  <DRUGBANK_ID>
DB01795

>  <SECONDARY_ACCESSION_NUMBERS>
EXPT02505

>  <COMMON_NAME>
Phenylboronic acid

>  <CAS_NUMBER>
98-80-6

>  <UNII>
L12H7B02G5

>  <SYNONYMS>
Benzeneboronic acid; Borophenylic acid; dihydroxy(phenyl)borane; Phenyldihydroxyborane

$$$$
