806
 OpenBabel10282417113D

 38 39  0  0  0  0  0  0  0  0999 V2000
    1.1721    0.3071   -0.5515 O   0  0  0  0  0  0  0  0  0  0  0  0
    5.0087   -2.1885    0.0157 O   0  0  0  0  0  0  0  0  0  0  0  0
   -2.6011   -2.8245    0.0979 O   0  0  0  0  0  0  0  0  0  0  0  0
    3.0470   -1.0011   -0.0281 N   0  0  0  0  0  0  0  0  0  0  0  0
    5.1600    0.1015    0.0024 N   0  0  0  0  0  0  0  0  0  0  0  0
    2.7775    2.6573    0.0023 N   0  0  0  0  0  0  0  0  0  0  0  0
    5.0054    2.5634    0.0501 N   0  0  0  0  0  0  0  0  0  0  0  0
    2.3273   -2.2629    0.0689 C   0  0  0  0  0  0  0  0  0  0  0  0
    1.5372   -2.3487    1.3788 C   0  0  0  0  0  0  0  0  0  0  0  0
    0.2987   -1.4501    1.4126 C   0  0  0  0  0  0  0  0  0  0  0  0
    3.1343    1.3439   -0.0587 C   0  0  0  0  0  0  0  0  0  0  0  0
    2.3507    0.1921   -0.2286 C   0  0  0  0  0  0  0  0  0  0  0  0
    4.4881    1.3041    0.0170 C   0  0  0  0  0  0  0  0  0  0  0  0
    4.4426   -1.0911    0.0016 C   0  0  0  0  0  0  0  0  0  0  0  0
   -0.5856   -1.5612    0.1604 C   0  0  0  0  0  0  0  0  0  0  0  0
    3.9497    3.3629    0.0290 C   0  0  0  0  0  0  0  0  0  0  0  0
    6.6005    0.0333    0.0007 C   0  0  0  0  0  0  0  0  0  0  0  0
    1.4324    3.1866    0.0162 C   0  0  0  0  0  0  0  0  0  0  0  0
   -1.3706   -2.8481    0.0955 C   0  0  0  0  0  0  0  0  0  0  0  0
   -0.6239   -4.1569   -0.0226 C   0  0  0  0  0  0  0  0  0  0  0  0
    1.7185   -2.3892   -0.8295 H   0  0  0  0  0  0  0  0  0  0  0  0
    3.0071   -3.1230    0.0530 H   0  0  0  0  0  0  0  0  0  0  0  0
    1.2509   -3.3814    1.5559 H   0  0  0  0  0  0  0  0  0  0  0  0
    2.1875   -2.1238    2.2320 H   0  0  0  0  0  0  0  0  0  0  0  0
   -0.3000   -1.6529    2.3051 H   0  0  0  0  0  0  0  0  0  0  0  0
    0.6439   -0.4193    1.5657 H   0  0  0  0  0  0  0  0  0  0  0  0
   -1.2839   -0.7143    0.1458 H   0  0  0  0  0  0  0  0  0  0  0  0
   -0.0547   -1.4914   -0.7941 H   0  0  0  0  0  0  0  0  0  0  0  0
    3.9739    4.4446    0.0269 H   0  0  0  0  0  0  0  0  0  0  0  0
    6.9731    0.5218   -0.9021 H   0  0  0  0  0  0  0  0  0  0  0  0
    6.9805    0.5204    0.9004 H   0  0  0  0  0  0  0  0  0  0  0  0
    6.9540   -1.0030   -0.0038 H   0  0  0  0  0  0  0  0  0  0  0  0
    0.9040    2.8491   -0.8798 H   0  0  0  0  0  0  0  0  0  0  0  0
    0.9173    2.8256    0.9129 H   0  0  0  0  0  0  0  0  0  0  0  0
    1.4627    4.2784    0.0282 H   0  0  0  0  0  0  0  0  0  0  0  0
    0.0976   -4.1278   -0.8446 H   0  0  0  0  0  0  0  0  0  0  0  0
   -0.1332   -4.4152    0.9123 H   0  0  0  0  0  0  0  0  0  0  0  0
   -1.3322   -4.9656   -0.1986 H   0  0  0  0  0  0  0  0  0  0  0  0
  1 12  2  0  0  0  0
  2 14  2  0  0  0  0
  3 19  2  0  0  0  0
  4  8  1  0  0  0  0
  4 12  1  0  0  0  0
  4 14  1  0  0  0  0
  5 13  1  0  0  0  0
  5 14  1  0  0  0  0
  5 17  1  0  0  0  0
  6 11  1  0  0  0  0
  6 16  1  0  0  0  0
  6 18  1  0  0  0  0
  7 13  1  0  0  0  0
  7 16  2  0  0  0  0
  8  9  1  0  0  0  0
  8 21  1  0  0  0  0
  8 22  1  0  0  0  0
  9 10  1  0  0  0  0
  9 23  1  0  0  0  0
  9 24  1  0  0  0  0
 10 15  1  0  0  0  0
 10 25  1  0  0  0  0
 10 26  1  0  0  0  0
 11 12  1  0  0  0  0
 11 13  2  0  0  0  0
 15 19  1  0  0  0  0
 15 27  1  0  0  0  0
 15 28  1  0  0  0  0
 16 29  1  0  0  0  0
 17 30  1  0  0  0  0
 17 31  1  0  0  0  0
 17 32  1  0  0  0  0
 18 33  1  0  0  0  0
 18 34  1  0  0  0  0
 18 35  1  0  0  0  0
 19 20  1  0  0  0  0
 20 36  1  0  0  0  0
 20 37  1  0  0  0  0
 20 38  1  0  0  0  0
M  END
>  <DRUGBANK_ID>
DB00806

>  <SECONDARY_ACCESSION_NUMBERS>
APRD00121

>  <COMMON_NAME>
Pentoxifylline

>  <CAS_NUMBER>
6493-05-6

>  <UNII>
SD6QCT3TSU

>  <SYNONYMS>
Oxpentifylline; Pentoxifilina; Pentoxifyllin; Pentoxifylline; Pentoxifyllinum

$$$$
