
 OpenBabel10282417213D

 71 75  0  0  1  0  0  0  0  0999 V2000
    0.9800    0.0376   -0.1042 C   0  0  0  0  0  0  0  0  0  0  0  0
    0.5663    1.4436    0.3150 C   0  0  0  0  0  0  0  0  0  0  0  0
    1.0573    2.4343   -0.6170 O   0  0  0  0  0  0  0  0  0  0  0  0
    2.4168    2.5759   -0.5898 C   0  0  0  0  0  0  0  0  0  0  0  0
    3.1354    2.0256    0.2126 O   0  0  0  0  0  0  0  0  0  0  0  0
    2.8221    3.4238   -1.5927 O   0  0  0  0  0  0  0  0  0  0  0  0
    4.2707    3.6391   -1.7482 C   0  0  1  0  0  0  0  0  0  0  0  0
    4.8621    4.1108   -0.4194 C   0  0  0  0  0  0  0  0  0  0  0  0
    4.9245    2.4786   -2.3668 N   0  0  0  0  0  0  0  0  0  0  0  0
    4.4489    1.2484   -2.0705 N   0  0  0  0  0  0  0  0  0  0  0  0
    5.1722    0.3864   -2.7530 N   0  0  0  0  0  0  0  0  0  0  0  0
    6.0798    1.0305   -3.5361 N   0  0  0  0  0  0  0  0  0  0  0  0
    5.9321    2.3253   -3.3209 C   0  0  0  0  0  0  0  0  0  0  0  0
    6.8261    3.2599   -3.9519 C   0  0  0  0  0  0  0  0  0  0  0  0
    7.8607    3.9964   -3.4149 C   0  0  0  0  0  0  0  0  0  0  0  0
    8.4001    4.7748   -4.4517 C   0  0  0  0  0  0  0  0  0  0  0  0
    7.8836    4.4284   -5.6239 N   0  0  0  0  0  0  0  0  0  0  0  0
    7.0084    3.4403   -5.3093 N   0  0  0  0  0  0  0  0  0  0  0  0
    6.3548    2.7763   -6.4081 C   0  0  0  0  0  0  0  0  0  0  0  0
    8.1855    4.0458   -2.0374 C   0  0  0  0  0  0  0  0  0  0  0  0
    8.6340    2.9377   -1.3209 C   0  0  0  0  0  0  0  0  0  0  0  0
    8.8516    3.0474    0.0572 C   0  0  0  0  0  0  0  0  0  0  0  0
    8.6351    4.2656    0.7255 C   0  0  0  0  0  0  0  0  0  0  0  0
    8.2106    5.3398   -0.0668 C   0  0  0  0  0  0  0  0  0  0  0  0
    7.9864    5.2444   -1.4102 C   0  0  0  0  0  0  0  0  0  0  0  0
    7.4053    6.2868   -2.0268 F   0  0  0  0  0  0  0  0  0  0  0  0
    8.7946    4.2766    2.2349 C   0  0  0  0  0  0  0  0  0  0  0  0
    9.0442    3.1786    2.7426 O   0  0  0  0  0  0  0  0  0  0  0  0
    8.6402    5.4514    3.0205 N   0  0  0  0  0  0  0  0  0  0  0  0
    7.8832    6.6202    2.5052 C   0  0  2  0  0  0  0  0  0  0  0  0
    7.8432    7.9882    3.2013 C   0  0  0  0  0  0  0  0  0  0  0  0
    6.9677    7.9625    4.4225 C   0  0  0  0  0  0  0  0  0  0  0  0
    5.6732    7.1225    4.2332 C   0  0  0  0  0  0  0  0  0  0  0  0
    5.7501    5.9224    3.4100 N   0  0  0  0  0  0  0  0  0  0  0  0
    6.4292    6.1917    2.1708 C   0  0  0  0  0  0  0  0  0  0  0  0
    8.8068    5.2691    4.4448 C   0  0  0  0  0  0  0  0  0  0  0  0
    7.7944    5.5864    5.2837 N   0  0  0  0  0  0  0  0  0  0  0  0
    8.0217    5.8040    6.5998 C   0  0  0  0  0  0  0  0  0  0  0  0
    9.2225    5.5358    7.1905 C   0  0  0  0  0  0  0  0  0  0  0  0
   10.2191    5.0177    6.3719 C   0  0  0  0  0  0  0  0  0  0  0  0
   10.0401    4.9187    4.9837 C   0  0  0  0  0  0  0  0  0  0  0  0
   11.4301    4.5338    4.0338 Cl  0  0  0  0  0  0  0  0  0  0  0  0
    0.6321   -0.1711   -1.1198 H   0  0  0  0  0  0  0  0  0  0  0  0
    0.5781   -0.7157    0.5787 H   0  0  0  0  0  0  0  0  0  0  0  0
    2.0675   -0.0808   -0.1171 H   0  0  0  0  0  0  0  0  0  0  0  0
   -0.5283    1.5048    0.3195 H   0  0  0  0  0  0  0  0  0  0  0  0
    0.8970    1.6699    1.3378 H   0  0  0  0  0  0  0  0  0  0  0  0
    4.3771    4.4611   -2.4692 H   0  0  0  0  0  0  0  0  0  0  0  0
    4.7881    3.3873    0.3931 H   0  0  0  0  0  0  0  0  0  0  0  0
    5.9144    4.3017   -0.5157 H   0  0  0  0  0  0  0  0  0  0  0  0
    4.3686    5.0243   -0.0656 H   0  0  0  0  0  0  0  0  0  0  0  0
    9.1471    5.5600   -4.3861 H   0  0  0  0  0  0  0  0  0  0  0  0
    5.7742    3.5300   -6.9450 H   0  0  0  0  0  0  0  0  0  0  0  0
    7.1212    2.3519   -7.0645 H   0  0  0  0  0  0  0  0  0  0  0  0
    5.7050    1.9893   -6.0325 H   0  0  0  0  0  0  0  0  0  0  0  0
    8.7945    1.9863   -1.8230 H   0  0  0  0  0  0  0  0  0  0  0  0
    9.1665    2.1588    0.6058 H   0  0  0  0  0  0  0  0  0  0  0  0
    7.8589    6.2977    0.2428 H   0  0  0  0  0  0  0  0  0  0  0  0
    8.4937    6.9371    1.6603 H   0  0  0  0  0  0  0  0  0  0  0  0
    8.8615    8.3247    3.4303 H   0  0  0  0  0  0  0  0  0  0  0  0
    7.4205    8.7367    2.5120 H   0  0  0  0  0  0  0  0  0  0  0  0
    7.6523    7.6396    5.1930 H   0  0  0  0  0  0  0  0  0  0  0  0
    6.7177    8.9512    4.8066 H   0  0  0  0  0  0  0  0  0  0  0  0
    5.2866    6.8196    5.2087 H   0  0  0  0  0  0  0  0  0  0  0  0
    4.9376    7.7682    3.7529 H   0  0  0  0  0  0  0  0  0  0  0  0
    4.8749    5.4229    3.2928 H   0  0  0  0  0  0  0  0  0  0  0  0
    5.8955    6.9422    1.5735 H   0  0  0  0  0  0  0  0  0  0  0  0
    6.3843    5.2629    1.6017 H   0  0  0  0  0  0  0  0  0  0  0  0
    7.2226    6.3232    7.1307 H   0  0  0  0  0  0  0  0  0  0  0  0
    9.3791    5.7419    8.2416 H   0  0  0  0  0  0  0  0  0  0  0  0
   11.1693    4.7387    6.8085 H   0  0  0  0  0  0  0  0  0  0  0  0
  1  2  1  0  0  0  0
  1 43  1  0  0  0  0
  1 44  1  0  0  0  0
  1 45  1  0  0  0  0
  2  3  1  0  0  0  0
  2 46  1  0  0  0  0
  2 47  1  0  0  0  0
  3  4  1  0  0  0  0
  4  5  2  0  0  0  0
  4  6  1  0  0  0  0
  7  6  1  0  0  0  0
  7  8  1  0  0  0  0
  7  9  1  0  0  0  0
  7 48  1  6  0  0  0
  8 49  1  0  0  0  0
  8 50  1  0  0  0  0
  8 51  1  0  0  0  0
  9 10  1  0  0  0  0
  9 13  1  0  0  0  0
 10 11  2  0  0  0  0
 11 12  1  0  0  0  0
 12 13  2  0  0  0  0
 13 14  1  0  0  0  0
 14 15  2  0  0  0  0
 14 18  1  0  0  0  0
 15 16  1  0  0  0  0
 15 20  1  0  0  0  0
 16 17  2  0  0  0  0
 16 52  1  0  0  0  0
 17 18  1  0  0  0  0
 18 19  1  0  0  0  0
 19 53  1  0  0  0  0
 19 54  1  0  0  0  0
 19 55  1  0  0  0  0
 20 21  2  0  0  0  0
 20 25  1  0  0  0  0
 21 22  1  0  0  0  0
 21 56  1  0  0  0  0
 22 23  2  0  0  0  0
 22 57  1  0  0  0  0
 23 24  1  0  0  0  0
 23 27  1  0  0  0  0
 24 25  2  0  0  0  0
 24 58  1  0  0  0  0
 25 26  1  0  0  0  0
 27 28  2  0  0  0  0
 27 29  1  0  0  0  0
 29 36  1  0  0  0  0
 30 29  1  0  0  0  0
 30 31  1  0  0  0  0
 30 35  1  0  0  0  0
 30 59  1  6  0  0  0
 31 32  1  0  0  0  0
 31 60  1  0  0  0  0
 31 61  1  0  0  0  0
 32 33  1  0  0  0  0
 32 62  1  0  0  0  0
 32 63  1  0  0  0  0
 33 34  1  0  0  0  0
 33 64  1  0  0  0  0
 33 65  1  0  0  0  0
 34 35  1  0  0  0  0
 34 66  1  0  0  0  0
 35 67  1  0  0  0  0
 35 68  1  0  0  0  0
 36 37  2  0  0  0  0
 36 41  1  0  0  0  0
 37 38  1  0  0  0  0
 38 39  2  0  0  0  0
 38 69  1  0  0  0  0
 39 40  1  0  0  0  0
 39 70  1  0  0  0  0
 40 41  2  0  0  0  0
 40 71  1  0  0  0  0
 41 42  1  0  0  0  0
M  END
>  <DRUGBANK_ID>
DB14862

>  <COMMON_NAME>
PF-06815345

>  <CAS_NUMBER>
1900686-46-5

>  <UNII>
4H9X9HO87K

$$$$
