665
 OpenBabel10282417163D

 43 45  0  0  0  0  0  0  0  0999 V2000
   -1.4096    0.3328   -0.2211 C   0  0  0  0  0  0  0  0  0  0  0  0
   -0.9763   -1.0494    0.2590 C   0  0  0  0  0  0  0  0  0  0  0  0
    0.4579   -1.4043   -0.1878 C   0  0  0  0  0  0  0  0  0  0  0  0
    1.4350   -0.2998    0.2340 C   0  0  0  0  0  0  0  0  0  0  0  0
    0.9929    1.0794   -0.2395 C   0  0  0  0  0  0  0  0  0  0  0  0
   -0.4230    1.4040    0.2215 C   0  0  0  0  0  0  0  0  0  0  0  0
    0.1276   -3.8774    0.0196 C   0  0  0  0  0  0  0  0  0  0  0  0
    0.6029   -4.9648    0.9412 C   0  0  0  0  0  0  0  0  0  0  0  0
    2.0145   -4.5097    1.3146 C   0  0  1  0  0  0  0  0  0  0  0  0
    1.8801   -2.9860    1.3007 C   0  0  0  0  0  0  0  0  0  0  0  0
    0.8570   -2.7323    0.3008 N   0  0  0  0  0  0  0  0  0  0  0  0
    2.4212   -5.0240    2.6848 C   0  0  0  0  0  0  0  0  0  0  0  0
    3.5837   -5.7898    2.7121 N   0  0  0  0  0  0  0  0  0  0  0  0
    1.7598   -4.7353    3.6800 O   0  0  0  0  0  0  0  0  0  0  0  0
   -0.7831   -3.9883   -0.7893 O   0  0  0  0  0  0  0  0  0  0  0  0
    2.5444   -8.3933    7.2032 Br  0  0  0  0  0  0  0  0  0  0  0  0
    3.2229   -6.9493    4.8413 C   0  0  0  0  0  0  0  0  0  0  0  0
    3.7312   -7.5670    5.9844 C   0  0  0  0  0  0  0  0  0  0  0  0
    5.1015   -7.5978    6.2246 C   0  0  0  0  0  0  0  0  0  0  0  0
    5.9709   -7.0219    5.2979 C   0  0  0  0  0  0  0  0  0  0  0  0
    5.4686   -6.4433    4.1220 C   0  0  0  0  0  0  0  0  0  0  0  0
    4.0867   -6.3844    3.8983 C   0  0  0  0  0  0  0  0  0  0  0  0
    2.7188   -4.8279    0.5370 H   0  0  0  0  0  0  0  0  0  0  0  0
   -1.4928    0.3349   -1.3153 H   0  0  0  0  0  0  0  0  0  0  0  0
   -2.4064    0.5618    0.1733 H   0  0  0  0  0  0  0  0  0  0  0  0
   -1.0400   -1.0939    1.3533 H   0  0  0  0  0  0  0  0  0  0  0  0
   -1.6975   -1.7808   -0.1218 H   0  0  0  0  0  0  0  0  0  0  0  0
    0.4546   -1.4749   -1.2847 H   0  0  0  0  0  0  0  0  0  0  0  0
    1.5194   -0.2820    1.3282 H   0  0  0  0  0  0  0  0  0  0  0  0
    2.4353   -0.5135   -0.1598 H   0  0  0  0  0  0  0  0  0  0  0  0
    1.6863    1.8334    0.1488 H   0  0  0  0  0  0  0  0  0  0  0  0
    1.0447    1.1233   -1.3338 H   0  0  0  0  0  0  0  0  0  0  0  0
   -0.7279    2.3773   -0.1772 H   0  0  0  0  0  0  0  0  0  0  0  0
   -0.4429    1.4820    1.3156 H   0  0  0  0  0  0  0  0  0  0  0  0
   -0.0760   -4.9998    1.8020 H   0  0  0  0  0  0  0  0  0  0  0  0
    0.6006   -5.9285    0.4295 H   0  0  0  0  0  0  0  0  0  0  0  0
    1.5646   -2.5555    2.2571 H   0  0  0  0  0  0  0  0  0  0  0  0
    2.8230   -2.5236    0.9908 H   0  0  0  0  0  0  0  0  0  0  0  0
    4.1958   -5.7929    1.9049 H   0  0  0  0  0  0  0  0  0  0  0  0
    2.1503   -6.9481    4.6700 H   0  0  0  0  0  0  0  0  0  0  0  0
    5.4954   -8.0673    7.1230 H   0  0  0  0  0  0  0  0  0  0  0  0
    7.0406   -7.0222    5.4986 H   0  0  0  0  0  0  0  0  0  0  0  0
    6.1714   -5.9903    3.4275 H   0  0  0  0  0  0  0  0  0  0  0  0
  1  2  1  0  0  0  0
  1  6  1  0  0  0  0
  1 24  1  0  0  0  0
  1 25  1  0  0  0  0
  2  3  1  0  0  0  0
  2 26  1  0  0  0  0
  2 27  1  0  0  0  0
  3  4  1  0  0  0  0
  3 11  1  0  0  0  0
  3 28  1  0  0  0  0
  4  5  1  0  0  0  0
  4 29  1  0  0  0  0
  4 30  1  0  0  0  0
  5  6  1  0  0  0  0
  5 31  1  0  0  0  0
  5 32  1  0  0  0  0
  6 33  1  0  0  0  0
  6 34  1  0  0  0  0
  7  8  1  0  0  0  0
  7 11  1  0  0  0  0
  7 15  2  0  0  0  0
  8  9  1  0  0  0  0
  8 35  1  0  0  0  0
  8 36  1  0  0  0  0
  9 10  1  0  0  0  0
  9 12  1  0  0  0  0
  9 23  1  6  0  0  0
 10 11  1  0  0  0  0
 10 37  1  0  0  0  0
 10 38  1  0  0  0  0
 12 13  1  0  0  0  0
 12 14  2  0  0  0  0
 13 22  1  0  0  0  0
 13 39  1  0  0  0  0
 16 18  1  0  0  0  0
 17 18  2  0  0  0  0
 17 22  1  0  0  0  0
 17 40  1  0  0  0  0
 18 19  1  0  0  0  0
 19 20  2  0  0  0  0
 19 41  1  0  0  0  0
 20 21  1  0  0  0  0
 20 42  1  0  0  0  0
 21 22  2  0  0  0  0
 21 43  1  0  0  0  0
M  END
>  <DRUGBANK_ID>
DB07192

>  <COMMON_NAME>
(3S)-N-(3-BROMOPHENYL)-1-CYCLOHEXYL-5-OXOPYRROLIDINE-3-CARBOXAMIDE

$$$$
