FRZ
 OpenBabel10282417163D

 38 42  0  0  0  0  0  0  0  0999 V2000
   -2.0617   -0.7533    0.0010 C   0  0  0  0  0  0  0  0  0  0  0  0
   -0.8642   -1.3635    0.0043 C   0  0  0  0  0  0  0  0  0  0  0  0
    0.3164   -0.6060    0.0190 N   0  0  0  0  0  0  0  0  0  0  0  0
    0.2846    0.7930    0.0370 C   0  0  0  0  0  0  0  0  0  0  0  0
   -0.9830    1.4391    0.0113 C   0  0  0  0  0  0  0  0  0  0  0  0
   -2.1096    0.6977   -0.0017 C   0  0  0  0  0  0  0  0  0  0  0  0
    1.5991   -1.0703   -0.0049 N   0  0  0  0  0  0  0  0  0  0  0  0
    2.3702    0.0249    0.0589 C   0  0  0  0  0  0  0  0  0  0  0  0
    1.5935    1.2195    0.0598 C   0  0  0  0  0  0  0  0  0  0  0  0
    2.0434    2.5950   -0.0359 C   0  0  0  0  0  0  0  0  0  0  0  0
    3.8329   -0.0182    0.0754 C   0  0  0  0  0  0  0  0  0  0  0  0
    4.5260    0.6912    1.0692 C   0  0  0  0  0  0  0  0  0  0  0  0
    5.8999    0.9040    0.9594 C   0  0  0  0  0  0  0  0  0  0  0  0
    6.6080    0.3239   -0.0894 C   0  0  0  0  0  0  0  0  0  0  0  0
    5.9429   -0.4714   -1.0241 C   0  0  0  0  0  0  0  0  0  0  0  0
    4.5517   -0.6087   -0.9689 C   0  0  0  0  0  0  0  0  0  0  0  0
    2.8375    2.9635   -1.1161 C   0  0  0  0  0  0  0  0  0  0  0  0
    3.3016    4.2762   -1.1056 C   0  0  0  0  0  0  0  0  0  0  0  0
    2.9364    5.0759   -0.0424 C   0  0  0  0  0  0  0  0  0  0  0  0
    2.1629    4.7086    0.9951 N   0  0  0  0  0  0  0  0  0  0  0  0
    1.7182    3.4430    0.9772 N   0  0  0  0  0  0  0  0  0  0  0  0
    4.1007    5.1079   -1.9225 C   0  0  0  0  0  0  0  0  0  0  0  0
    4.2313    6.3356   -1.4218 N   0  0  0  0  0  0  0  0  0  0  0  0
    3.5142    6.2886   -0.2758 N   0  0  0  0  0  0  0  0  0  0  0  0
    4.6521    4.7030   -3.0709 N   0  0  0  0  0  0  0  0  0  0  0  0
   -2.9961   -1.3062   -0.0021 H   0  0  0  0  0  0  0  0  0  0  0  0
   -0.7481   -2.4396   -0.0015 H   0  0  0  0  0  0  0  0  0  0  0  0
   -1.0315    2.5227    0.0136 H   0  0  0  0  0  0  0  0  0  0  0  0
   -3.0827    1.1777   -0.0116 H   0  0  0  0  0  0  0  0  0  0  0  0
    3.9900    1.1181    1.9151 H   0  0  0  0  0  0  0  0  0  0  0  0
    6.4115    1.5289    1.6872 H   0  0  0  0  0  0  0  0  0  0  0  0
    7.6794    0.4889   -0.1746 H   0  0  0  0  0  0  0  0  0  0  0  0
    6.5087   -0.9684   -1.8080 H   0  0  0  0  0  0  0  0  0  0  0  0
    4.0327   -1.1469   -1.7585 H   0  0  0  0  0  0  0  0  0  0  0  0
    3.0971    2.2751   -1.9085 H   0  0  0  0  0  0  0  0  0  0  0  0
    3.4563    7.1210    0.2980 H   0  0  0  0  0  0  0  0  0  0  0  0
    5.2206    5.3399   -3.6151 H   0  0  0  0  0  0  0  0  0  0  0  0
    4.5688    3.7618   -3.4323 H   0  0  0  0  0  0  0  0  0  0  0  0
  1  2  2  0  0  0  0
  1  6  1  0  0  0  0
  1 26  1  0  0  0  0
  2  3  1  0  0  0  0
  2 27  1  0  0  0  0
  3  4  1  0  0  0  0
  3  7  1  0  0  0  0
  4  5  1  0  0  0  0
  4  9  2  0  0  0  0
  5  6  2  0  0  0  0
  5 28  1  0  0  0  0
  6 29  1  0  0  0  0
  7  8  2  0  0  0  0
  8  9  1  0  0  0  0
  8 11  1  0  0  0  0
  9 10  1  0  0  0  0
 10 17  2  0  0  0  0
 10 21  1  0  0  0  0
 11 12  2  0  0  0  0
 11 16  1  0  0  0  0
 12 13  1  0  0  0  0
 12 30  1  0  0  0  0
 13 14  2  0  0  0  0
 13 31  1  0  0  0  0
 14 15  1  0  0  0  0
 14 32  1  0  0  0  0
 15 16  2  0  0  0  0
 15 33  1  0  0  0  0
 16 34  1  0  0  0  0
 17 18  1  0  0  0  0
 17 35  1  0  0  0  0
 18 19  2  0  0  0  0
 18 22  1  0  0  0  0
 19 20  1  0  0  0  0
 19 24  1  0  0  0  0
 20 21  2  0  0  0  0
 22 23  2  0  0  0  0
 22 25  1  0  0  0  0
 23 24  1  0  0  0  0
 24 36  1  0  0  0  0
 25 37  1  0  0  0  0
 25 38  1  0  0  0  0
M  END
>  <DRUGBANK_ID>
DB07794

>  <COMMON_NAME>
5-(2-PHENYLPYRAZOLO[1,5-A]PYRIDIN-3-YL)-1H-PYRAZOLO[3,4-C]PYRIDAZIN-3-AMINE

>  <UNII>
4C7X7GV82C

$$$$
