
 OpenBabel10282417203D

 35 37  0  0  0  0  0  0  0  0999 V2000
    1.3405   -0.2141    0.0153 C   0  0  0  0  0  0  0  0  0  0  0  0
    0.4561   -1.2948    0.0382 C   0  0  0  0  0  0  0  0  0  0  0  0
    0.8462    1.0896   -0.0243 C   0  0  0  0  0  0  0  0  0  0  0  0
   -0.9281   -1.0768    0.0226 C   0  0  0  0  0  0  0  0  0  0  0  0
   -0.5319    1.3171   -0.0390 C   0  0  0  0  0  0  0  0  0  0  0  0
   -6.4174    2.8893   -1.5840 C   0  0  0  0  0  0  0  0  0  0  0  0
   -5.7496    1.3124   -3.2717 C   0  0  0  0  0  0  0  0  0  0  0  0
   -7.5447    3.2390   -2.3366 C   0  0  0  0  0  0  0  0  0  0  0  0
   -6.8698    1.6726   -4.0387 C   0  0  0  0  0  0  0  0  0  0  0  0
   -6.3660    0.2928    0.6880 C   0  0  0  0  0  0  0  0  0  0  0  0
   -3.8059    0.0045    0.6172 C   0  0  0  0  0  0  0  0  0  0  0  0
   -5.5542    1.8670   -2.0011 C   0  0  0  0  0  0  0  0  0  0  0  0
   -4.9949    0.5103    0.1288 C   0  0  0  0  0  0  0  0  0  0  0  0
   -7.7707    2.6234   -3.5610 C   0  0  0  0  0  0  0  0  0  0  0  0
   -1.4177    0.2348   -0.0506 C   0  0  0  0  0  0  0  0  0  0  0  0
   -7.0771    1.5725    1.0463 C   0  0  0  0  0  0  0  0  0  0  0  0
   -4.6225    1.2446   -1.0464 C   0  0  0  0  0  0  0  0  0  0  0  0
   -9.1442    3.0658   -4.4987 Cl  0  0  0  0  0  0  0  0  0  0  0  0
   -3.2888    1.2656   -1.1945 N   0  0  0  0  0  0  0  0  0  0  0  0
   -2.8051    0.4864   -0.1883 N   0  0  0  0  0  0  0  0  0  0  0  0
   -8.1862    1.9162    0.6475 O   0  0  0  0  0  0  0  0  0  0  0  0
   -6.3783    2.3793    1.8690 O   0  0  0  0  0  0  0  0  0  0  0  0
    2.4149   -0.3866    0.0283 H   0  0  0  0  0  0  0  0  0  0  0  0
    0.8530   -2.3080    0.0398 H   0  0  0  0  0  0  0  0  0  0  0  0
    1.5344    1.9305   -0.0580 H   0  0  0  0  0  0  0  0  0  0  0  0
   -1.5950   -1.9347   -0.0035 H   0  0  0  0  0  0  0  0  0  0  0  0
   -0.9099    2.3360   -0.0002 H   0  0  0  0  0  0  0  0  0  0  0  0
   -6.2599    3.3858   -0.6315 H   0  0  0  0  0  0  0  0  0  0  0  0
   -5.0508    0.5759   -3.6607 H   0  0  0  0  0  0  0  0  0  0  0  0
   -8.2548    3.9607   -1.9395 H   0  0  0  0  0  0  0  0  0  0  0  0
   -7.0487    1.1883   -4.9950 H   0  0  0  0  0  0  0  0  0  0  0  0
   -6.9710   -0.2468   -0.0499 H   0  0  0  0  0  0  0  0  0  0  0  0
   -6.3312   -0.3223    1.5934 H   0  0  0  0  0  0  0  0  0  0  0  0
   -3.5848   -0.5881    1.4946 H   0  0  0  0  0  0  0  0  0  0  0  0
   -6.9181    3.1935    1.9529 H   0  0  0  0  0  0  0  0  0  0  0  0
  1 23  1  0  0  0  0
  2  1  2  0  0  0  0
  2 24  1  0  0  0  0
  3  1  1  0  0  0  0
  3 25  1  0  0  0  0
  4  2  1  0  0  0  0
  4 26  1  0  0  0  0
  5  3  2  0  0  0  0
  5 27  1  0  0  0  0
  6 28  1  0  0  0  0
  7 29  1  0  0  0  0
  8  6  1  0  0  0  0
  8 30  1  0  0  0  0
  9  7  2  0  0  0  0
  9 31  1  0  0  0  0
 10 32  1  0  0  0  0
 10 33  1  0  0  0  0
 11 34  1  0  0  0  0
 12  6  2  0  0  0  0
 12  7  1  0  0  0  0
 13 10  1  0  0  0  0
 13 11  2  0  0  0  0
 14  8  2  0  0  0  0
 14  9  1  0  0  0  0
 15  4  2  0  0  0  0
 15  5  1  0  0  0  0
 16 10  1  0  0  0  0
 17 12  1  0  0  0  0
 17 13  1  0  0  0  0
 18 14  1  0  0  0  0
 19 17  2  0  0  0  0
 20 11  1  0  0  0  0
 20 15  1  0  0  0  0
 20 19  1  0  0  0  0
 21 16  2  0  0  0  0
 22 16  1  0  0  0  0
 22 35  1  0  0  0  0
M  END
>  <DRUGBANK_ID>
DB13432

>  <COMMON_NAME>
Lonazolac

>  <CAS_NUMBER>
53808-88-1

>  <UNII>
13097143QI

>  <SYNONYMS>
Lonazolac; lonazolaco

$$$$
