735
 OpenBabel10282417103D

 43 45  0  0  1  0  0  0  0  0999 V2000
    0.9762    0.0011   -0.2518 N   0  0  0  0  0  0  0  0  0  0  0  0
    0.5160    1.4120   -0.3654 C   0  0  0  0  0  0  0  0  0  0  0  0
    0.9815    2.2120   -1.5659 C   0  0  0  0  0  0  0  0  0  0  0  0
    0.7667    3.5351   -1.8731 C   0  0  0  0  0  0  0  0  0  0  0  0
    1.1431    4.0419   -3.1721 C   0  0  0  0  0  0  0  0  0  0  0  0
    0.3969   -1.0295   -1.1638 C   0  0  0  0  0  0  0  0  0  0  0  0
    1.6186    1.5634   -2.5766 C   0  0  0  0  0  0  0  0  0  0  0  0
    2.4074   -0.0898    0.0299 C   0  0  0  0  0  0  0  0  0  0  0  0
    0.2203    4.4209   -0.9578 C   0  0  0  0  0  0  0  0  0  0  0  0
    1.4989    3.1975   -4.1896 C   0  0  0  0  0  0  0  0  0  0  0  0
    1.3676    1.9129   -3.8817 C   0  0  0  0  0  0  0  0  0  0  0  0
    1.0455    5.3489   -3.5239 C   0  0  0  0  0  0  0  0  0  0  0  0
    0.6523   -0.9604   -2.6824 C   0  0  0  0  0  0  0  0  0  0  0  0
    0.0993    5.7507   -1.3302 C   0  0  0  0  0  0  0  0  0  0  0  0
    0.5086    6.2128   -2.5913 C   0  0  0  0  0  0  0  0  0  0  0  0
    1.7357   -1.4911   -3.3210 C   0  0  0  0  0  0  0  0  0  0  0  0
    2.4140   -1.0093   -4.5893 C   0  0  0  0  0  0  0  0  0  0  0  0
    3.3146    0.0949   -4.6368 C   0  0  0  0  0  0  0  0  0  0  0  0
    2.1563   -1.6155   -5.8091 C   0  0  0  0  0  0  0  0  0  0  0  0
    3.6035    0.7724   -5.8399 C   0  0  0  0  0  0  0  0  0  0  0  0
    2.6799   -1.0846   -7.0058 C   0  0  0  0  0  0  0  0  0  0  0  0
    3.2933    0.1664   -7.0379 C   0  0  0  0  0  0  0  0  0  0  0  0
   -0.5831    1.4090   -0.3542 H   0  0  0  0  0  0  0  0  0  0  0  0
    0.8157    1.9444    0.5484 H   0  0  0  0  0  0  0  0  0  0  0  0
    0.7184   -2.0163   -0.8145 H   0  0  0  0  0  0  0  0  0  0  0  0
   -0.6920   -1.0152   -1.0096 H   0  0  0  0  0  0  0  0  0  0  0  0
    2.1031    0.6412   -2.3671 H   0  0  0  0  0  0  0  0  0  0  0  0
    2.6702    0.5443    0.8867 H   0  0  0  0  0  0  0  0  0  0  0  0
    2.7083   -1.1098    0.2776 H   0  0  0  0  0  0  0  0  0  0  0  0
    3.0599    0.2419   -0.7803 H   0  0  0  0  0  0  0  0  0  0  0  0
   -0.0857    4.0831    0.0253 H   0  0  0  0  0  0  0  0  0  0  0  0
    1.7623    3.4752   -5.1996 H   0  0  0  0  0  0  0  0  0  0  0  0
    1.2833    1.1813   -4.6717 H   0  0  0  0  0  0  0  0  0  0  0  0
    1.3260    5.6778   -4.5222 H   0  0  0  0  0  0  0  0  0  0  0  0
    0.0054   -0.2200   -3.1628 H   0  0  0  0  0  0  0  0  0  0  0  0
   -0.3196    6.4489   -0.6166 H   0  0  0  0  0  0  0  0  0  0  0  0
    0.3923    7.2488   -2.8682 H   0  0  0  0  0  0  0  0  0  0  0  0
    2.3122   -2.2381   -2.7932 H   0  0  0  0  0  0  0  0  0  0  0  0
    3.6526    0.6050   -3.7357 H   0  0  0  0  0  0  0  0  0  0  0  0
    1.5488   -2.5115   -5.8435 H   0  0  0  0  0  0  0  0  0  0  0  0
    4.0041    1.7887   -5.8247 H   0  0  0  0  0  0  0  0  0  0  0  0
    2.5788   -1.6427   -7.9301 H   0  0  0  0  0  0  0  0  0  0  0  0
    3.5369    0.6535   -7.9791 H   0  0  0  0  0  0  0  0  0  0  0  0
  1  2  1  0  0  0  0
  1  6  1  0  0  0  0
  1  8  1  0  0  0  0
  2  3  1  0  0  0  0
  2 23  1  0  0  0  0
  2 24  1  0  0  0  0
  3  4  1  0  0  0  0
  3  7  2  0  0  0  0
  4  5  1  0  0  0  0
  4  9  2  0  0  0  0
  5 10  1  0  0  0  0
  5 12  2  0  0  0  0
  6 13  1  0  0  0  0
  6 25  1  0  0  0  0
  6 26  1  0  0  0  0
  7 11  1  0  0  0  0
  7 27  1  0  0  0  0
  8 28  1  0  0  0  0
  8 29  1  0  0  0  0
  8 30  1  0  0  0  0
  9 14  1  0  0  0  0
  9 31  1  0  0  0  0
 10 11  2  0  0  0  0
 10 32  1  0  0  0  0
 11 33  1  0  0  0  0
 12 15  1  0  0  0  0
 12 34  1  0  0  0  0
 13 16  2  3  0  0  0
 13 35  1  0  0  0  0
 14 15  2  0  0  0  0
 14 36  1  0  0  0  0
 15 37  1  0  0  0  0
 16 17  1  0  0  0  0
 16 38  1  0  0  0  0
 17 18  2  0  0  0  0
 17 19  1  0  0  0  0
 18 20  1  0  0  0  0
 18 39  1  0  0  0  0
 19 21  2  0  0  0  0
 19 40  1  0  0  0  0
 20 22  2  0  0  0  0
 20 41  1  0  0  0  0
 21 22  1  0  0  0  0
 21 42  1  0  0  0  0
 22 43  1  0  0  0  0
M  END
>  <DRUGBANK_ID>
DB00735

>  <SECONDARY_ACCESSION_NUMBERS>
APRD01131

>  <COMMON_NAME>
Naftifine

>  <CAS_NUMBER>
65472-88-0

>  <UNII>
4FB1TON47A

>  <SYNONYMS>
Naftifin; Naftifina; Naftifine; Naftifinum

$$$$
