
 OpenBabel10282417233D

 45 48  0  0  0  0  0  0  0  0999 V2000
    0.9380   -0.0136    0.0734 C   0  0  0  0  0  0  0  0  0  0  0  0
    0.4279   -0.1490    1.4661 C   0  0  0  0  0  0  0  0  0  0  0  0
    0.2594   -1.3105    2.0674 N   0  0  0  0  0  0  0  0  0  0  0  0
   -0.2348   -1.0434    3.3328 C   0  0  0  0  0  0  0  0  0  0  0  0
   -0.5495   -1.9655    4.3921 C   0  0  0  0  0  0  0  0  0  0  0  0
   -1.0093   -1.3951    5.5965 C   0  0  0  0  0  0  0  0  0  0  0  0
   -1.1622   -0.0237    5.7488 C   0  0  0  0  0  0  0  0  0  0  0  0
   -0.9084    0.8395    4.6926 C   0  0  0  0  0  0  0  0  0  0  0  0
   -0.3912    0.3357    3.5004 C   0  0  0  0  0  0  0  0  0  0  0  0
    0.0703    0.8793    2.3176 N   0  0  0  0  0  0  0  0  0  0  0  0
    0.1710    2.5148    1.8662 S   0  0  0  0  0  0  0  0  0  0  0  0
    1.5858    2.7495    1.6113 O   0  0  0  0  0  0  0  0  0  0  0  0
   -0.8106    2.6391    0.8097 O   0  0  0  0  0  0  0  0  0  0  0  0
   -0.3107    3.6048    3.1849 C   0  0  0  0  0  0  0  0  0  0  0  0
    0.3472    3.5934    4.4214 C   0  0  0  0  0  0  0  0  0  0  0  0
   -0.2141    4.2904    5.5001 C   0  0  0  0  0  0  0  0  0  0  0  0
   -1.2927    5.1501    5.2945 C   0  0  0  0  0  0  0  0  0  0  0  0
   -1.8216    5.3043    4.0150 C   0  0  0  0  0  0  0  0  0  0  0  0
   -1.3788    4.4859    2.9742 C   0  0  0  0  0  0  0  0  0  0  0  0
   -0.2284   -3.3245    4.3777 N   0  0  0  0  0  0  0  0  0  0  0  0
   -1.2059   -4.4127    4.5739 C   0  0  0  0  0  0  0  0  0  0  0  0
   -0.4393   -5.6756    5.0833 C   0  0  0  0  0  0  0  0  0  0  0  0
    0.7068   -6.0798    4.2279 N   0  0  0  0  0  0  0  0  0  0  0  0
    1.5925   -4.9081    4.0564 C   0  0  0  0  0  0  0  0  0  0  0  0
    0.8601   -3.6937    3.4698 C   0  0  0  0  0  0  0  0  0  0  0  0
    0.5916    0.8886   -0.4315 H   0  0  0  0  0  0  0  0  0  0  0  0
    0.5957   -0.8659   -0.5269 H   0  0  0  0  0  0  0  0  0  0  0  0
    2.0324   -0.0261    0.0651 H   0  0  0  0  0  0  0  0  0  0  0  0
   -1.1869   -2.0277    6.4625 H   0  0  0  0  0  0  0  0  0  0  0  0
   -1.4722    0.3998    6.7015 H   0  0  0  0  0  0  0  0  0  0  0  0
   -1.1286    1.8768    4.8553 H   0  0  0  0  0  0  0  0  0  0  0  0
    1.2061    2.9488    4.5964 H   0  0  0  0  0  0  0  0  0  0  0  0
    0.1650    4.1388    6.5095 H   0  0  0  0  0  0  0  0  0  0  0  0
   -1.7179    5.7049    6.1287 H   0  0  0  0  0  0  0  0  0  0  0  0
   -2.5938    6.0480    3.8320 H   0  0  0  0  0  0  0  0  0  0  0  0
   -1.8769    4.5446    2.0083 H   0  0  0  0  0  0  0  0  0  0  0  0
   -2.0026   -4.1611    5.2831 H   0  0  0  0  0  0  0  0  0  0  0  0
   -1.6836   -4.6609    3.6151 H   0  0  0  0  0  0  0  0  0  0  0  0
   -0.0601   -5.4803    6.0944 H   0  0  0  0  0  0  0  0  0  0  0  0
   -1.1209   -6.5300    5.1618 H   0  0  0  0  0  0  0  0  0  0  0  0
    0.3405   -6.3167    3.3055 H   0  0  0  0  0  0  0  0  0  0  0  0
    2.0223   -4.6361    5.0297 H   0  0  0  0  0  0  0  0  0  0  0  0
    2.4250   -5.1655    3.3957 H   0  0  0  0  0  0  0  0  0  0  0  0
    0.4550   -3.9238    2.4764 H   0  0  0  0  0  0  0  0  0  0  0  0
    1.6013   -2.8930    3.3865 H   0  0  0  0  0  0  0  0  0  0  0  0
  1  2  1  0  0  0  0
  1 26  1  0  0  0  0
  1 27  1  0  0  0  0
  1 28  1  0  0  0  0
  2  3  2  0  0  0  0
  2 10  1  0  0  0  0
  3  4  1  0  0  0  0
  4  5  2  0  0  0  0
  4  9  1  0  0  0  0
  5  6  1  0  0  0  0
  5 20  1  0  0  0  0
  6  7  2  0  0  0  0
  6 29  1  0  0  0  0
  7  8  1  0  0  0  0
  7 30  1  0  0  0  0
  8  9  2  0  0  0  0
  8 31  1  0  0  0  0
  9 10  1  0  0  0  0
 10 11  1  0  0  0  0
 11 12  2  0  0  0  0
 11 13  2  0  0  0  0
 11 14  1  0  0  0  0
 14 15  2  0  0  0  0
 14 19  1  0  0  0  0
 15 16  1  0  0  0  0
 15 32  1  0  0  0  0
 16 17  2  0  0  0  0
 16 33  1  0  0  0  0
 17 18  1  0  0  0  0
 17 34  1  0  0  0  0
 18 19  2  0  0  0  0
 18 35  1  0  0  0  0
 19 36  1  0  0  0  0
 20 21  1  0  0  0  0
 20 25  1  0  0  0  0
 21 22  1  0  0  0  0
 21 37  1  0  0  0  0
 21 38  1  0  0  0  0
 22 23  1  0  0  0  0
 22 39  1  0  0  0  0
 22 40  1  0  0  0  0
 23 24  1  0  0  0  0
 23 41  1  0  0  0  0
 24 25  1  0  0  0  0
 24 42  1  0  0  0  0
 24 43  1  0  0  0  0
 25 44  1  0  0  0  0
 25 45  1  0  0  0  0
M  END
>  <DRUGBANK_ID>
DB16044

>  <COMMON_NAME>
PF-05212377

>  <CAS_NUMBER>
1226793-34-5

>  <UNII>
4JEH3BL51N

$$$$
