
 OpenBabel10282417183D

 29 30  0  0  0  0  0  0  0  0999 V2000
    1.4696    0.0246    0.0027 C   0  0  0  0  0  0  0  0  0  0  0  0
    0.7388    1.2116    0.0068 C   0  0  0  0  0  0  0  0  0  0  0  0
   -0.6350    1.1277    0.0334 C   0  0  0  0  0  0  0  0  0  0  0  0
   -1.2934   -0.0417    0.0874 N   0  0  0  0  0  0  0  0  0  0  0  0
   -0.5939   -1.2102    0.0770 C   0  0  0  0  0  0  0  0  0  0  0  0
    0.8043   -1.2115    0.0242 C   0  0  0  0  0  0  0  0  0  0  0  0
   -3.4096   -3.1384    1.0894 C   0  0  0  0  0  0  0  0  0  0  0  0
   -2.7443   -2.4990    0.0290 C   0  0  0  0  0  0  0  0  0  0  0  0
   -1.3438   -2.3969    0.0923 N   0  0  0  0  0  0  0  0  0  0  0  0
   -4.8018   -3.1862    1.1372 C   0  0  0  0  0  0  0  0  0  0  0  0
   -5.5447   -2.6088    0.1127 C   0  0  0  0  0  0  0  0  0  0  0  0
   -4.8968   -1.9916   -0.9612 C   0  0  0  0  0  0  0  0  0  0  0  0
   -3.4930   -1.9363   -1.0292 C   0  0  0  0  0  0  0  0  0  0  0  0
    1.5472   -2.4931   -0.0104 C   0  0  0  0  0  0  0  0  0  0  0  0
    1.0476   -3.6084   -0.0133 O   0  0  0  0  0  0  0  0  0  0  0  0
    2.8834   -2.3378   -0.0335 O   0  0  0  0  0  0  0  0  0  0  0  0
   -2.8202   -1.2904   -2.2156 C   0  0  0  0  0  0  0  0  0  0  0  0
   -5.8898   -1.2911   -2.1942 Cl  0  0  0  0  0  0  0  0  0  0  0  0
    2.5545    0.0737   -0.0191 H   0  0  0  0  0  0  0  0  0  0  0  0
    1.2250    2.1800   -0.0081 H   0  0  0  0  0  0  0  0  0  0  0  0
   -1.2684    2.0101    0.0129 H   0  0  0  0  0  0  0  0  0  0  0  0
   -2.8373   -3.5551    1.9156 H   0  0  0  0  0  0  0  0  0  0  0  0
   -0.8212   -3.2688    0.1374 H   0  0  0  0  0  0  0  0  0  0  0  0
   -5.3044   -3.6518    1.9808 H   0  0  0  0  0  0  0  0  0  0  0  0
   -6.6303   -2.6366    0.1547 H   0  0  0  0  0  0  0  0  0  0  0  0
    3.2437   -3.2511   -0.0487 H   0  0  0  0  0  0  0  0  0  0  0  0
   -3.1183   -1.7890   -3.1420 H   0  0  0  0  0  0  0  0  0  0  0  0
   -3.0744   -0.2264   -2.2634 H   0  0  0  0  0  0  0  0  0  0  0  0
   -1.7308   -1.3628   -2.1937 H   0  0  0  0  0  0  0  0  0  0  0  0
  1  2  2  0  0  0  0
  1  6  1  0  0  0  0
  1 19  1  0  0  0  0
  2  3  1  0  0  0  0
  2 20  1  0  0  0  0
  3  4  2  0  0  0  0
  3 21  1  0  0  0  0
  4  5  1  0  0  0  0
  5  6  2  0  0  0  0
  5  9  1  0  0  0  0
  6 14  1  0  0  0  0
  7  8  1  0  0  0  0
  7 10  2  0  0  0  0
  7 22  1  0  0  0  0
  8  9  1  0  0  0  0
  8 13  2  0  0  0  0
  9 23  1  0  0  0  0
 10 11  1  0  0  0  0
 10 24  1  0  0  0  0
 11 12  2  0  0  0  0
 11 25  1  0  0  0  0
 12 13  1  0  0  0  0
 12 18  1  0  0  0  0
 13 17  1  0  0  0  0
 14 15  2  0  0  0  0
 14 16  1  0  0  0  0
 16 26  1  0  0  0  0
 17 27  1  0  0  0  0
 17 28  1  0  0  0  0
 17 29  1  0  0  0  0
M  END
>  <DRUGBANK_ID>
DB09218

>  <COMMON_NAME>
Clonixin

>  <CAS_NUMBER>
17737-65-4

>  <UNII>
V7DXN0M42R

>  <SYNONYMS>
Clonixin; clonixino

$$$$
