DRG
 OpenBabel10282417133D

 26 28  0  0  0  0  0  0  0  0999 V2000
   -2.8771    0.7775   -0.0058 C   0  0  0  0  0  0  0  0  0  0  0  0
   -1.4769    0.8035   -0.0027 C   0  0  0  0  0  0  0  0  0  0  0  0
   -0.8134    2.1397    0.0303 C   0  0  0  0  0  0  0  0  0  0  0  0
    0.7074    2.1578    0.0223 C   0  0  0  0  0  0  0  0  0  0  0  0
    1.4119    0.8304   -0.0012 C   0  0  0  0  0  0  0  0  0  0  0  0
    2.8179    0.8632   -0.0039 C   0  0  0  0  0  0  0  0  0  0  0  0
    3.5501   -0.3142   -0.0034 C   0  0  0  0  0  0  0  0  0  0  0  0
    2.8805   -1.5329   -0.0032 C   0  0  0  0  0  0  0  0  0  0  0  0
    1.4769   -1.5744   -0.0066 C   0  0  0  0  0  0  0  0  0  0  0  0
    0.7094   -0.3949   -0.0059 C   0  0  0  0  0  0  0  0  0  0  0  0
   -0.7672   -0.3895   -0.0072 C   0  0  0  0  0  0  0  0  0  0  0  0
   -1.4461   -1.5566   -0.0094 N   0  0  0  0  0  0  0  0  0  0  0  0
   -2.8505   -1.5683   -0.0069 N   0  0  0  0  0  0  0  0  0  0  0  0
   -3.5489   -0.4205   -0.0071 C   0  0  0  0  0  0  0  0  0  0  0  0
   -4.9305   -0.4237    0.0093 N   0  0  0  0  0  0  0  0  0  0  0  0
   -3.4271    1.7136   -0.0008 H   0  0  0  0  0  0  0  0  0  0  0  0
   -1.1570    2.6571    0.9351 H   0  0  0  0  0  0  0  0  0  0  0  0
   -1.1749    2.7252   -0.8245 H   0  0  0  0  0  0  0  0  0  0  0  0
    1.0412    2.7013    0.9156 H   0  0  0  0  0  0  0  0  0  0  0  0
    1.0402    2.7440   -0.8437 H   0  0  0  0  0  0  0  0  0  0  0  0
    3.3386    1.8191   -0.0008 H   0  0  0  0  0  0  0  0  0  0  0  0
    4.6362   -0.2751    0.0001 H   0  0  0  0  0  0  0  0  0  0  0  0
    3.4533   -2.4569    0.0007 H   0  0  0  0  0  0  0  0  0  0  0  0
    0.9880   -2.5476   -0.0070 H   0  0  0  0  0  0  0  0  0  0  0  0
   -5.4027   -1.3127   -0.0005 H   0  0  0  0  0  0  0  0  0  0  0  0
   -5.4526    0.4382   -0.0105 H   0  0  0  0  0  0  0  0  0  0  0  0
  1  2  2  0  0  0  0
  1 14  1  0  0  0  0
  1 16  1  0  0  0  0
  2  3  1  0  0  0  0
  2 11  1  0  0  0  0
  3  4  1  0  0  0  0
  3 17  1  0  0  0  0
  3 18  1  0  0  0  0
  4  5  1  0  0  0  0
  4 19  1  0  0  0  0
  4 20  1  0  0  0  0
  5  6  2  0  0  0  0
  5 10  1  0  0  0  0
  6  7  1  0  0  0  0
  6 21  1  0  0  0  0
  7  8  2  0  0  0  0
  7 22  1  0  0  0  0
  8  9  1  0  0  0  0
  8 23  1  0  0  0  0
  9 10  2  0  0  0  0
  9 24  1  0  0  0  0
 10 11  1  0  0  0  0
 11 12  2  0  0  0  0
 12 13  1  0  0  0  0
 13 14  2  0  0  0  0
 14 15  1  0  0  0  0
 15 25  1  0  0  0  0
 15 26  1  0  0  0  0
M  END
>  <DRUGBANK_ID>
DB04069

>  <SECONDARY_ACCESSION_NUMBERS>
EXPT01270

>  <COMMON_NAME>
5,6-Dihydro-Benzo[H]Cinnolin-3-Ylamine

$$$$
