
 OpenBabel10282417243D

 68 73  0  0  1  0  0  0  0  0999 V2000
    1.0343    0.0950    0.0115 C   0  0  0  0  0  0  0  0  0  0  0  0
    0.5160   -0.6277   -1.2092 C   0  0  0  0  0  0  0  0  0  0  0  0
   -0.3157   -1.4999   -1.0600 O   0  0  0  0  0  0  0  0  0  0  0  0
    0.9685   -0.2360   -2.5629 C   0  0  0  0  0  0  0  0  0  0  0  0
    2.1206    0.3875   -2.8707 N   0  0  0  0  0  0  0  0  0  0  0  0
    2.0721    0.5645   -4.2240 N   0  0  0  0  0  0  0  0  0  0  0  0
    3.1295    1.3242   -4.9300 C   0  0  0  0  0  0  0  0  0  0  0  0
    3.6498    2.7016   -4.4149 C   0  0  0  0  0  0  0  0  0  0  0  0
    4.8197    2.7873   -3.9740 O   0  0  0  0  0  0  0  0  0  0  0  0
    2.9120    3.8663   -4.6676 N   0  0  0  0  0  0  0  0  0  0  0  0
    1.5068    3.9420   -4.7649 C   0  0  2  0  0  0  0  0  0  0  0  0
    0.5684    4.3792   -5.7875 C   0  0  0  0  0  0  0  0  0  0  0  0
    1.1408    5.5476   -5.1312 C   0  0  1  0  0  0  0  0  0  0  0  0
    0.0653    6.6352   -5.1473 C   0  0  0  0  0  0  0  0  0  0  0  0
    2.4868    6.0339   -5.4488 C   0  0  0  0  0  0  0  0  0  0  0  0
    3.2689    5.2556   -4.3536 C   0  0  1  0  0  0  0  0  0  0  0  0
    2.7128    5.7365   -2.8752 C   0  0  0  0  0  0  0  0  0  0  0  0
    3.4262    6.6132   -2.3342 O   0  0  0  0  0  0  0  0  0  0  0  0
    1.4494    5.5682   -2.2288 N   0  0  0  0  0  0  0  0  0  0  0  0
    0.1465    4.8829   -2.3891 C   0  0  0  0  0  0  0  0  0  0  0  0
    0.0132    3.5596   -2.5659 N   0  0  0  0  0  0  0  0  0  0  0  0
   -1.0910    3.1262   -3.2755 C   0  0  0  0  0  0  0  0  0  0  0  0
   -0.9326    2.1718   -4.8468 Br  0  0  0  0  0  0  0  0  0  0  0  0
   -2.2148    3.8288   -3.5771 C   0  0  0  0  0  0  0  0  0  0  0  0
   -2.2617    5.0396   -3.0119 C   0  0  0  0  0  0  0  0  0  0  0  0
   -1.0699    5.5968   -2.4554 C   0  0  0  0  0  0  0  0  0  0  0  0
   -1.2527    7.0203   -2.1019 C   0  0  0  0  0  0  0  0  0  0  0  0
    0.9671   -0.0893   -4.8090 C   0  0  0  0  0  0  0  0  0  0  0  0
    0.4355   -0.1171   -6.1324 C   0  0  0  0  0  0  0  0  0  0  0  0
   -0.9763   -0.3354   -6.2734 C   0  0  0  0  0  0  0  0  0  0  0  0
   -1.8337   -0.5917   -5.1650 C   0  0  0  0  0  0  0  0  0  0  0  0
   -1.2356   -0.7139   -3.8967 C   0  0  0  0  0  0  0  0  0  0  0  0
    0.1617   -0.4519   -3.7184 C   0  0  0  0  0  0  0  0  0  0  0  0
   -3.3004   -0.5695   -5.3215 C   0  0  0  0  0  0  0  0  0  0  0  0
   -3.8495   -1.4275   -6.2460 C   0  0  0  0  0  0  0  0  0  0  0  0
   -5.1615   -1.6276   -6.4416 N   0  0  0  0  0  0  0  0  0  0  0  0
   -5.9920   -0.9117   -5.6701 C   0  0  0  0  0  0  0  0  0  0  0  0
   -7.4519   -1.1926   -5.8298 C   0  0  0  0  0  0  0  0  0  0  0  0
   -5.5959    0.0173   -4.7762 N   0  0  0  0  0  0  0  0  0  0  0  0
   -4.2523    0.1691   -4.6213 C   0  0  0  0  0  0  0  0  0  0  0  0
    0.6677   -0.4450    0.8941 H   0  0  0  0  0  0  0  0  0  0  0  0
    0.6341    1.1107    0.0532 H   0  0  0  0  0  0  0  0  0  0  0  0
    2.1224    0.0946    0.0411 H   0  0  0  0  0  0  0  0  0  0  0  0
    3.9808    0.6268   -4.9583 H   0  0  0  0  0  0  0  0  0  0  0  0
    2.8052    1.4663   -5.9644 H   0  0  0  0  0  0  0  0  0  0  0  0
    1.2569    3.3415   -3.9351 H   0  0  0  0  0  0  0  0  0  0  0  0
    0.7567    4.0634   -6.7827 H   0  0  0  0  0  0  0  0  0  0  0  0
   -0.4915    4.4129   -5.5538 H   0  0  0  0  0  0  0  0  0  0  0  0
    0.3248    7.5096   -4.5365 H   0  0  0  0  0  0  0  0  0  0  0  0
   -0.0230    6.9951   -6.1807 H   0  0  0  0  0  0  0  0  0  0  0  0
   -0.9594    6.3503   -4.8925 H   0  0  0  0  0  0  0  0  0  0  0  0
    2.6726    5.6572   -6.4679 H   0  0  0  0  0  0  0  0  0  0  0  0
    2.5581    7.1203   -5.4534 H   0  0  0  0  0  0  0  0  0  0  0  0
    4.3426    5.4270   -4.4937 H   0  0  0  0  0  0  0  0  0  0  0  0
    1.4026    6.2865   -1.5156 H   0  0  0  0  0  0  0  0  0  0  0  0
   -2.8244    3.6228   -4.4691 H   0  0  0  0  0  0  0  0  0  0  0  0
   -3.1690    5.5928   -3.2208 H   0  0  0  0  0  0  0  0  0  0  0  0
   -1.6610    7.5676   -2.9601 H   0  0  0  0  0  0  0  0  0  0  0  0
   -1.9834    7.0240   -1.2913 H   0  0  0  0  0  0  0  0  0  0  0  0
   -0.3240    7.4806   -1.7902 H   0  0  0  0  0  0  0  0  0  0  0  0
    0.9496    0.3932   -6.9483 H   0  0  0  0  0  0  0  0  0  0  0  0
   -1.4461    0.0379   -7.1966 H   0  0  0  0  0  0  0  0  0  0  0  0
   -1.8737   -0.7497   -3.0099 H   0  0  0  0  0  0  0  0  0  0  0  0
   -3.1914   -2.0324   -6.8606 H   0  0  0  0  0  0  0  0  0  0  0  0
   -7.8775   -1.5391   -4.8841 H   0  0  0  0  0  0  0  0  0  0  0  0
   -7.9711   -0.2896   -6.1577 H   0  0  0  0  0  0  0  0  0  0  0  0
   -7.6110   -1.9749   -6.5814 H   0  0  0  0  0  0  0  0  0  0  0  0
   -3.9981    0.9303   -3.8840 H   0  0  0  0  0  0  0  0  0  0  0  0
  1  2  1  0  0  0  0
  1 41  1  0  0  0  0
  1 42  1  0  0  0  0
  1 43  1  0  0  0  0
  2  3  2  0  0  0  0
  2  4  1  0  0  0  0
  4  5  2  0  0  0  0
  4 33  1  0  0  0  0
  5  6  1  0  0  0  0
  6  7  1  0  0  0  0
  6 28  1  0  0  0  0
  7  8  1  0  0  0  0
  7 44  1  0  0  0  0
  7 45  1  0  0  0  0
  8  9  2  0  0  0  0
  8 10  1  0  0  0  0
 11 10  1  0  0  0  0
 11 12  1  0  0  0  0
 11 13  1  0  0  0  0
 11 46  1  1  0  0  0
 12 47  1  0  0  0  0
 12 48  1  0  0  0  0
 13 12  1  0  0  0  0
 13 14  1  1  0  0  0
 13 15  1  0  0  0  0
 14 49  1  0  0  0  0
 14 50  1  0  0  0  0
 14 51  1  0  0  0  0
 15 52  1  0  0  0  0
 15 53  1  0  0  0  0
 16 15  1  0  0  0  0
 16 10  1  0  0  0  0
 16 17  1  0  0  0  0
 16 54  1  6  0  0  0
 17 18  2  0  0  0  0
 17 19  1  0  0  0  0
 19 20  1  0  0  0  0
 19 55  1  0  0  0  0
 20 21  2  0  0  0  0
 20 26  1  0  0  0  0
 21 22  1  0  0  0  0
 22 23  1  0  0  0  0
 22 24  2  0  0  0  0
 24 25  1  0  0  0  0
 24 56  1  0  0  0  0
 25 26  2  0  0  0  0
 25 57  1  0  0  0  0
 26 27  1  0  0  0  0
 27 58  1  0  0  0  0
 27 59  1  0  0  0  0
 27 60  1  0  0  0  0
 28 29  2  0  0  0  0
 28 33  1  0  0  0  0
 29 30  1  0  0  0  0
 29 61  1  0  0  0  0
 30 31  2  0  0  0  0
 30 62  1  0  0  0  0
 31 32  1  0  0  0  0
 31 34  1  0  0  0  0
 32 33  2  0  0  0  0
 32 63  1  0  0  0  0
 34 35  2  0  0  0  0
 34 40  1  0  0  0  0
 35 36  1  0  0  0  0
 35 64  1  0  0  0  0
 36 37  2  0  0  0  0
 37 38  1  0  0  0  0
 37 39  1  0  0  0  0
 38 65  1  0  0  0  0
 38 66  1  0  0  0  0
 38 67  1  0  0  0  0
 39 40  2  0  0  0  0
 40 68  1  0  0  0  0
M  END
>  <DRUGBANK_ID>
DB18012

>  <COMMON_NAME>
Vemircopan

>  <CAS_NUMBER>
2086178-00-7

>  <UNII>
HN6I4K50QB

>  <SYNONYMS>
2-azabicyclo(3.1.0)hexane-3-carboxamide, 2-(2-(3-acetyl-5-(2-methyl-5-pyrimidinyl)-1h-indazol-1-yl)acetyl)-n-(6-bromo-3-methyl-2-pyridinyl)-5-methyl-, (1r,3s,5r)-

$$$$
