207
 OpenBabel10282417123D

 36 38  0  0  0  0  0  0  0  0999 V2000
    2.0255   -0.5790    0.5053 N   0  0  0  0  0  0  0  0  0  0  0  0
    2.0198    0.7577    0.2785 C   0  0  0  0  0  0  0  0  0  0  0  0
    0.8581    1.4859    0.0833 C   0  0  0  0  0  0  0  0  0  0  0  0
   -0.3136    0.7435    0.0795 C   0  0  0  0  0  0  0  0  0  0  0  0
   -0.3321   -0.6494    0.1396 C   0  0  0  0  0  0  0  0  0  0  0  0
    0.8918   -1.3228    0.2976 C   0  0  0  0  0  0  0  0  0  0  0  0
    0.9451   -2.6937    0.0871 O   0  0  0  0  0  0  0  0  0  0  0  0
    2.2190   -3.3533    0.0180 C   0  0  0  0  0  0  0  0  0  0  0  0
   -1.6256   -1.1123    0.0044 N   0  0  0  0  0  0  0  0  0  0  0  0
   -2.3799   -0.0343   -0.0284 C   0  0  0  0  0  0  0  0  0  0  0  0
   -1.6282    1.1015   -0.0211 N   0  0  0  0  0  0  0  0  0  0  0  0
    3.2341    1.3771   -0.0175 N   0  0  0  0  0  0  0  0  0  0  0  0
    3.0234   -3.1254   -1.2942 C   0  0  0  0  0  0  0  0  0  0  0  0
    4.2880   -3.9970   -1.3657 C   0  0  0  0  0  0  0  0  0  0  0  0
    5.1668   -3.6109   -2.5656 C   0  0  0  0  0  0  0  0  0  0  0  0
    5.5700   -2.1383   -2.5425 C   0  0  0  0  0  0  0  0  0  0  0  0
    4.3418   -1.2640   -2.5361 C   0  0  0  0  0  0  0  0  0  0  0  0
    3.4299   -1.6651   -1.4138 C   0  0  0  0  0  0  0  0  0  0  0  0
    0.8750    2.5536   -0.0902 H   0  0  0  0  0  0  0  0  0  0  0  0
    2.8051   -3.1407    0.9190 H   0  0  0  0  0  0  0  0  0  0  0  0
    1.9829   -4.4269    0.0639 H   0  0  0  0  0  0  0  0  0  0  0  0
   -3.4586   -0.0188   -0.0495 H   0  0  0  0  0  0  0  0  0  0  0  0
   -1.9809    2.0515   -0.0373 H   0  0  0  0  0  0  0  0  0  0  0  0
    3.3284    2.3593    0.1929 H   0  0  0  0  0  0  0  0  0  0  0  0
    4.0437    0.7985    0.1692 H   0  0  0  0  0  0  0  0  0  0  0  0
    2.3757   -3.3679   -2.1466 H   0  0  0  0  0  0  0  0  0  0  0  0
    4.8717   -3.8876   -0.4423 H   0  0  0  0  0  0  0  0  0  0  0  0
    4.0120   -5.0552   -1.4431 H   0  0  0  0  0  0  0  0  0  0  0  0
    6.0693   -4.2283   -2.5809 H   0  0  0  0  0  0  0  0  0  0  0  0
    4.6134   -3.8120   -3.4911 H   0  0  0  0  0  0  0  0  0  0  0  0
    6.1741   -1.9294   -1.6502 H   0  0  0  0  0  0  0  0  0  0  0  0
    6.1758   -1.8829   -3.4162 H   0  0  0  0  0  0  0  0  0  0  0  0
    4.6139   -0.2098   -2.3979 H   0  0  0  0  0  0  0  0  0  0  0  0
    3.7926   -1.3367   -3.4797 H   0  0  0  0  0  0  0  0  0  0  0  0
    2.5299   -1.0827   -1.5973 H   0  0  0  0  0  0  0  0  0  0  0  0
    3.9341   -1.3889   -0.4778 H   0  0  0  0  0  0  0  0  0  0  0  0
  1  2  2  0  0  0  0
  1  6  1  0  0  0  0
  2  3  1  0  0  0  0
  2 12  1  0  0  0  0
  3  4  2  0  0  0  0
  3 19  1  0  0  0  0
  4  5  1  0  0  0  0
  4 11  1  0  0  0  0
  5  6  2  0  0  0  0
  5  9  1  0  0  0  0
  6  7  1  0  0  0  0
  7  8  1  0  0  0  0
  8 13  1  0  0  0  0
  8 20  1  0  0  0  0
  8 21  1  0  0  0  0
  9 10  2  0  0  0  0
 10 11  1  0  0  0  0
 10 22  1  0  0  0  0
 11 23  1  0  0  0  0
 12 24  1  0  0  0  0
 12 25  1  0  0  0  0
 13 14  1  0  0  0  0
 13 18  1  0  0  0  0
 13 26  1  0  0  0  0
 14 15  1  0  0  0  0
 14 27  1  0  0  0  0
 14 28  1  0  0  0  0
 15 16  1  0  0  0  0
 15 29  1  0  0  0  0
 15 30  1  0  0  0  0
 16 17  1  0  0  0  0
 16 31  1  0  0  0  0
 16 32  1  0  0  0  0
 17 18  1  0  0  0  0
 17 33  1  0  0  0  0
 17 34  1  0  0  0  0
 18 35  1  0  0  0  0
 18 36  1  0  0  0  0
M  END
>  <DRUGBANK_ID>
DB02603

>  <SECONDARY_ACCESSION_NUMBERS>
EXPT00086

>  <COMMON_NAME>
1-Amino-6-Cyclohex-3-Enylmethyloxypurine

$$$$
