W22
 OpenBabel10282417173D

 31 32  0  0  0  0  0  0  0  0999 V2000
    1.1536    0.0338   -0.1482 O   0  0  0  0  0  0  0  0  0  0  0  0
    2.3764   -0.0073   -0.0158 C   0  0  0  0  0  0  0  0  0  0  0  0
    3.2739    1.2428   -0.2269 C   0  0  2  0  0  0  0  0  0  0  0  0
    4.1532    1.0900   -1.4780 C   0  0  0  0  0  0  0  0  0  0  0  0
    3.4032    0.7293   -2.7288 C   0  0  0  0  0  0  0  0  0  0  0  0
    3.6501    1.5238   -3.7877 O   0  0  0  0  0  0  0  0  0  0  0  0
    2.6805   -0.2502   -2.8491 O   0  0  0  0  0  0  0  0  0  0  0  0
    3.0400   -1.1815    0.2780 N   0  0  0  0  0  0  0  0  0  0  0  0
    3.1725   -2.2683   -0.6814 C   0  0  0  0  0  0  0  0  0  0  0  0
    3.7589   -1.2267    1.5220 C   0  0  0  0  0  0  0  0  0  0  0  0
    5.1181   -0.6110    1.4042 C   0  0  0  0  0  0  0  0  0  0  0  0
    5.2611    0.7703    1.1883 C   0  0  0  0  0  0  0  0  0  0  0  0
    4.1686    1.5969    0.9193 N   0  0  0  0  0  0  0  0  0  0  0  0
    6.2459   -1.4445    1.4555 C   0  0  0  0  0  0  0  0  0  0  0  0
    7.5208   -0.9122    1.3198 C   0  0  0  0  0  0  0  0  0  0  0  0
    7.6759    0.4633    1.1777 C   0  0  0  0  0  0  0  0  0  0  0  0
    6.5552    1.3039    1.1455 C   0  0  0  0  0  0  0  0  0  0  0  0
    2.5875    2.0893   -0.3751 H   0  0  0  0  0  0  0  0  0  0  0  0
    4.7246    2.0139   -1.6269 H   0  0  0  0  0  0  0  0  0  0  0  0
    4.8947    0.2954   -1.3351 H   0  0  0  0  0  0  0  0  0  0  0  0
    4.2686    2.2599   -3.6361 H   0  0  0  0  0  0  0  0  0  0  0  0
    4.2235   -2.3605   -0.9820 H   0  0  0  0  0  0  0  0  0  0  0  0
    2.8444   -3.2031   -0.2234 H   0  0  0  0  0  0  0  0  0  0  0  0
    2.5691   -2.1025   -1.5735 H   0  0  0  0  0  0  0  0  0  0  0  0
    3.7985   -2.2624    1.8736 H   0  0  0  0  0  0  0  0  0  0  0  0
    3.1849   -0.6630    2.2692 H   0  0  0  0  0  0  0  0  0  0  0  0
    3.8070    2.1854    1.6651 H   0  0  0  0  0  0  0  0  0  0  0  0
    6.1251   -2.5191    1.5711 H   0  0  0  0  0  0  0  0  0  0  0  0
    8.3852   -1.5713    1.3212 H   0  0  0  0  0  0  0  0  0  0  0  0
    8.6739    0.8765    1.0569 H   0  0  0  0  0  0  0  0  0  0  0  0
    6.7043    2.3698    0.9905 H   0  0  0  0  0  0  0  0  0  0  0  0
  1  2  2  0  0  0  0
  2  3  1  0  0  0  0
  2  8  1  0  0  0  0
  3  4  1  0  0  0  0
  3 13  1  0  0  0  0
  3 18  1  6  0  0  0
  4  5  1  0  0  0  0
  4 19  1  0  0  0  0
  4 20  1  0  0  0  0
  5  6  1  0  0  0  0
  5  7  2  0  0  0  0
  6 21  1  0  0  0  0
  8  9  1  0  0  0  0
  8 10  1  0  0  0  0
  9 22  1  0  0  0  0
  9 23  1  0  0  0  0
  9 24  1  0  0  0  0
 10 11  1  0  0  0  0
 10 25  1  0  0  0  0
 10 26  1  0  0  0  0
 11 12  1  0  0  0  0
 11 14  2  0  0  0  0
 12 13  1  0  0  0  0
 12 17  2  0  0  0  0
 13 27  1  0  0  0  0
 14 15  1  0  0  0  0
 14 28  1  0  0  0  0
 15 16  2  0  0  0  0
 15 29  1  0  0  0  0
 16 17  1  0  0  0  0
 16 30  1  0  0  0  0
 17 31  1  0  0  0  0
M  END
>  <DRUGBANK_ID>
DB08717

>  <COMMON_NAME>
[(2S)-4-methyl-3-oxo-2,3,4,5-tetrahydro-1H-1,4-benzodiazepin-2-yl]acetic acid

$$$$
