
 OpenBabel10282417193D

 22 21  0  0  0  0  0  0  0  0999 V2000
    1.1638   -0.0589    0.0308 C   0  0  0  0  0  0  0  0  0  0  0  0
    0.6841   -0.3505    1.4540 C   0  0  0  0  0  0  0  0  0  0  0  0
    1.0059    0.8076    2.3957 C   0  0  0  0  0  0  0  0  0  0  0  0
    0.3674    2.1330    1.9602 C   0  0  0  0  0  0  0  0  0  0  0  0
   -1.0794    2.0479    1.9657 O   0  0  0  0  0  0  0  0  0  0  0  0
   -1.7250    1.4511    0.9277 C   0  0  0  0  0  0  0  0  0  0  0  0
   -1.2415    1.0357   -0.1165 O   0  0  0  0  0  0  0  0  0  0  0  0
   -3.1565    1.2900    1.1436 C   0  0  0  0  0  0  0  0  0  0  0  0
   -3.8356    2.1099    1.9660 C   0  0  0  0  0  0  0  0  0  0  0  0
   -3.9165    0.3305    0.2424 C   0  0  0  0  0  0  0  0  0  0  0  0
   -4.5470   -0.4655   -0.5052 N   0  0  0  0  0  0  0  0  0  0  0  0
    0.8838    0.9300   -0.3438 H   0  0  0  0  0  0  0  0  0  0  0  0
    0.7496   -0.7874   -0.6707 H   0  0  0  0  0  0  0  0  0  0  0  0
    2.2520   -0.0668   -0.0161 H   0  0  0  0  0  0  0  0  0  0  0  0
   -0.3911   -0.5609    1.5003 H   0  0  0  0  0  0  0  0  0  0  0  0
    1.1507   -1.2755    1.8045 H   0  0  0  0  0  0  0  0  0  0  0  0
    0.6465    0.5537    3.4012 H   0  0  0  0  0  0  0  0  0  0  0  0
    2.0952    0.9164    2.4615 H   0  0  0  0  0  0  0  0  0  0  0  0
    0.6537    2.9045    2.6873 H   0  0  0  0  0  0  0  0  0  0  0  0
    0.7390    2.4950    0.9957 H   0  0  0  0  0  0  0  0  0  0  0  0
   -4.9204    2.0882    2.0170 H   0  0  0  0  0  0  0  0  0  0  0  0
   -3.3346    2.8586    2.5733 H   0  0  0  0  0  0  0  0  0  0  0  0
  1  2  1  0  0  0  0
  1 12  1  0  0  0  0
  1 13  1  0  0  0  0
  1 14  1  0  0  0  0
  2  3  1  0  0  0  0
  2 15  1  0  0  0  0
  2 16  1  0  0  0  0
  3  4  1  0  0  0  0
  3 17  1  0  0  0  0
  3 18  1  0  0  0  0
  4  5  1  0  0  0  0
  4 19  1  0  0  0  0
  4 20  1  0  0  0  0
  5  6  1  0  0  0  0
  6  7  2  0  0  0  0
  6  8  1  0  0  0  0
  8  9  2  0  0  0  0
  8 10  1  0  0  0  0
  9 21  1  0  0  0  0
  9 22  1  0  0  0  0
 10 11  3  0  0  0  0
M  END
>  <DRUGBANK_ID>
DB12358

>  <COMMON_NAME>
Enbucrilate

>  <CAS_NUMBER>
6606-65-1

>  <UNII>
F8CEP82QNP

>  <SYNONYMS>
Butyl 2-cyanoacrylate; Enbucrilate; N-butyl cyanoacrylate; N-butyl-2-cyanoacrylate

$$$$
