
 OpenBabel10282417143D

 43 45  0  0  0  0  0  0  0  0999 V2000
    0.8717   -0.0860   -0.0730 Cl  0  0  0  0  0  0  0  0  0  0  0  0
    9.4389   -0.0804    0.0826 N   0  0  0  0  0  0  0  0  0  0  0  0
    9.6622   -2.5386    1.6888 N   0  0  0  0  0  0  0  0  0  0  0  0
    4.6501   -0.7221    0.0357 N   0  0  0  0  0  0  0  0  0  0  0  0
   10.0841   -4.0639    3.3820 N   0  0  0  0  0  0  0  0  0  0  0  0
   11.6707   -3.7398    1.6655 N   0  0  0  0  0  0  0  0  0  0  0  0
    4.6968    0.6200    0.1475 N   0  0  0  0  0  0  0  0  0  0  0  0
    9.7521   -1.3961   -0.5090 C   0  0  0  0  0  0  0  0  0  0  0  0
    9.8453   -0.0793    1.5077 C   0  0  0  0  0  0  0  0  0  0  0  0
    8.1267    0.5549   -0.0836 C   0  0  0  0  0  0  0  0  0  0  0  0
    9.3203   -2.6552    0.2884 C   0  0  0  0  0  0  0  0  0  0  0  0
    9.3273   -1.2861    2.3430 C   0  0  0  0  0  0  0  0  0  0  0  0
    7.3016    0.2372   -1.3354 C   0  0  0  0  0  0  0  0  0  0  0  0
    6.6734   -1.1616   -1.3270 C   0  0  0  0  0  0  0  0  0  0  0  0
    5.8749   -1.4877   -0.0603 C   0  0  0  0  0  0  0  0  0  0  0  0
   10.5113   -3.4445    2.2716 C   0  0  0  0  0  0  0  0  0  0  0  0
    3.3831   -1.2183   -0.0091 C   0  0  0  0  0  0  0  0  0  0  0  0
   10.8562   -5.0582    3.8744 C   0  0  0  0  0  0  0  0  0  0  0  0
   12.4401   -4.6961    2.2348 C   0  0  0  0  0  0  0  0  0  0  0  0
    2.5578   -0.1220   -0.0126 C   0  0  0  0  0  0  0  0  0  0  0  0
    3.4177    0.9871    0.0426 C   0  0  0  0  0  0  0  0  0  0  0  0
   12.0656   -5.4137    3.3399 C   0  0  0  0  0  0  0  0  0  0  0  0
    9.4286   -1.4612   -1.5536 H   0  0  0  0  0  0  0  0  0  0  0  0
   10.8461   -1.4402   -0.5850 H   0  0  0  0  0  0  0  0  0  0  0  0
   10.9408   -0.0772    1.5245 H   0  0  0  0  0  0  0  0  0  0  0  0
    9.5319    0.8581    1.9837 H   0  0  0  0  0  0  0  0  0  0  0  0
    8.3066    1.6400   -0.0951 H   0  0  0  0  0  0  0  0  0  0  0  0
    7.5038    0.4131    0.8063 H   0  0  0  0  0  0  0  0  0  0  0  0
    8.2351   -2.7775    0.2641 H   0  0  0  0  0  0  0  0  0  0  0  0
    9.7225   -3.5622   -0.1800 H   0  0  0  0  0  0  0  0  0  0  0  0
    8.2347   -1.2299    2.4207 H   0  0  0  0  0  0  0  0  0  0  0  0
    9.7246   -1.2200    3.3610 H   0  0  0  0  0  0  0  0  0  0  0  0
    7.9033    0.3890   -2.2379 H   0  0  0  0  0  0  0  0  0  0  0  0
    6.5016    0.9838   -1.4212 H   0  0  0  0  0  0  0  0  0  0  0  0
    7.4497   -1.9134   -1.4471 H   0  0  0  0  0  0  0  0  0  0  0  0
    6.0463   -1.2853   -2.2160 H   0  0  0  0  0  0  0  0  0  0  0  0
    6.4315   -1.3205    0.8660 H   0  0  0  0  0  0  0  0  0  0  0  0
    5.6106   -2.5509   -0.0626 H   0  0  0  0  0  0  0  0  0  0  0  0
    3.1875   -2.2793   -0.0503 H   0  0  0  0  0  0  0  0  0  0  0  0
   10.4501   -5.5773    4.7373 H   0  0  0  0  0  0  0  0  0  0  0  0
   13.3946   -4.8752    1.7490 H   0  0  0  0  0  0  0  0  0  0  0  0
    3.1754    2.0413    0.0252 H   0  0  0  0  0  0  0  0  0  0  0  0
   12.6781   -6.2021    3.7587 H   0  0  0  0  0  0  0  0  0  0  0  0
  1 20  1  0  0  0  0
  2  8  1  0  0  0  0
  2  9  1  0  0  0  0
  2 10  1  0  0  0  0
  3 11  1  0  0  0  0
  3 12  1  0  0  0  0
  3 16  1  0  0  0  0
  4  7  1  0  0  0  0
  4 15  1  0  0  0  0
  4 17  1  0  0  0  0
  5 16  1  0  0  0  0
  5 18  2  0  0  0  0
  6 16  2  0  0  0  0
  6 19  1  0  0  0  0
  7 21  2  0  0  0  0
  8 11  1  0  0  0  0
  8 23  1  0  0  0  0
  8 24  1  0  0  0  0
  9 12  1  0  0  0  0
  9 25  1  0  0  0  0
  9 26  1  0  0  0  0
 10 13  1  0  0  0  0
 10 27  1  0  0  0  0
 10 28  1  0  0  0  0
 11 29  1  0  0  0  0
 11 30  1  0  0  0  0
 12 31  1  0  0  0  0
 12 32  1  0  0  0  0
 13 14  1  0  0  0  0
 13 33  1  0  0  0  0
 13 34  1  0  0  0  0
 14 15  1  0  0  0  0
 14 35  1  0  0  0  0
 14 36  1  0  0  0  0
 15 37  1  0  0  0  0
 15 38  1  0  0  0  0
 17 20  2  0  0  0  0
 17 39  1  0  0  0  0
 18 22  1  0  0  0  0
 18 40  1  0  0  0  0
 19 22  2  0  0  0  0
 19 41  1  0  0  0  0
 20 21  1  0  0  0  0
 21 42  1  0  0  0  0
 22 43  1  0  0  0  0
M  END
>  <DRUGBANK_ID>
DB04970

>  <COMMON_NAME>
Lesopitron

>  <CAS_NUMBER>
132449-46-8

>  <UNII>
H1CGM4755H

>  <SYNONYMS>
2-(4-(4-(4-Chloropyrazol-1-yl)butyl)-1-piperazinyl)pyrimidine; Lesopitron

$$$$
