
 OpenBabel10282417143D

 19 18  0  0  1  0  0  0  0  0999 V2000
    1.1586    0.2247    0.3212 N   0  0  0  0  0  0  0  0  0  0  0  0
    0.5425    1.0983   -0.7143 C   0  0  1  0  0  0  0  0  0  0  0  0
    1.0785    0.7767   -2.1141 C   0  0  0  0  0  0  0  0  0  0  0  0
    0.7499   -0.5035   -2.6351 O   0  0  0  0  0  0  0  0  0  0  0  0
    0.8172   -1.8941   -1.8378 P   0  0  0  0  0  0  0  0  0  0  0  0
   -0.4422   -1.8973   -0.8706 O   0  0  0  0  0  0  0  0  0  0  0  0
    0.3695   -2.8661   -3.0146 O   0  0  0  0  0  0  0  0  0  0  0  0
    2.1159   -2.1846   -1.1716 O   0  0  0  0  0  0  0  0  0  0  0  0
   -1.0105    1.1202   -0.7452 C   0  0  0  0  0  0  0  0  0  0  0  0
   -1.5921    2.2267   -0.2266 O   0  0  0  0  0  0  0  0  0  0  0  0
   -1.7050    0.2464   -1.2213 O   0  0  0  0  0  0  0  0  0  0  0  0
    1.2236   -0.7643    0.0672 H   0  0  0  0  0  0  0  0  0  0  0  0
    2.1738    0.4036    0.2930 H   0  0  0  0  0  0  0  0  0  0  0  0
    0.8586    2.1132   -0.4488 H   0  0  0  0  0  0  0  0  0  0  0  0
    0.6593    1.5081   -2.8173 H   0  0  0  0  0  0  0  0  0  0  0  0
    2.1663    0.9178   -2.1446 H   0  0  0  0  0  0  0  0  0  0  0  0
   -0.4799   -1.2477   -0.1405 H   0  0  0  0  0  0  0  0  0  0  0  0
    0.1985   -2.3276   -3.8073 H   0  0  0  0  0  0  0  0  0  0  0  0
   -1.0065    2.9058    0.1465 H   0  0  0  0  0  0  0  0  0  0  0  0
  1 12  1  0  0  0  0
  1 13  1  0  0  0  0
  2  1  1  0  0  0  0
  2  3  1  0  0  0  0
  2  9  1  0  0  0  0
  2 14  1  1  0  0  0
  3  4  1  0  0  0  0
  3 15  1  0  0  0  0
  3 16  1  0  0  0  0
  4  5  1  0  0  0  0
  5  6  1  0  0  0  0
  5  7  1  0  0  0  0
  5  8  2  0  0  0  0
  6 17  1  0  0  0  0
  7 18  1  0  0  0  0
  9 10  1  0  0  0  0
  9 11  2  0  0  0  0
 10 19  1  0  0  0  0
M  END
>  <DRUGBANK_ID>
DB04522

>  <SECONDARY_ACCESSION_NUMBERS>
EXPT02883

>  <COMMON_NAME>
Dexfosfoserine

>  <CAS_NUMBER>
407-41-0

>  <UNII>
VI4F0K069V

>  <SYNONYMS>
Dexfosfoserine; Phosphoserine; Serine phosphate

$$$$
