TTR
 OpenBabel10282417173D

 30 32  0  0  0  0  0  0  0  0999 V2000
   -3.4299   -0.0960    0.3861 C   0  0  0  0  0  0  0  0  0  0  0  0
   -3.0145    1.1593   -0.3796 C   0  0  0  0  0  0  0  0  0  0  0  0
   -1.6034    1.5637    0.0427 C   0  0  0  0  0  0  0  0  0  0  0  0
   -0.6922    0.3756    0.0093 C   0  0  0  0  0  0  0  0  0  0  0  0
   -1.1155   -0.9459   -0.0297 C   0  0  0  0  0  0  0  0  0  0  0  0
    0.7092    0.3945    0.0137 C   0  0  0  0  0  0  0  0  0  0  0  0
    0.0148   -1.7832   -0.0686 N   0  0  0  0  0  0  0  0  0  0  0  0
   -0.0072   -3.2072   -0.0980 C   0  0  0  0  0  0  0  0  0  0  0  0
   -1.0677   -3.8219   -0.0671 O   0  0  0  0  0  0  0  0  0  0  0  0
    1.2930   -3.9400   -0.1292 C   0  0  0  0  0  0  0  0  0  0  0  0
    1.1526   -0.9335   -0.0359 C   0  0  0  0  0  0  0  0  0  0  0  0
    1.6294    1.4621    0.0551 C   0  0  0  0  0  0  0  0  0  0  0  0
    2.5440   -1.1762   -0.0384 C   0  0  0  0  0  0  0  0  0  0  0  0
    2.9938    1.2041    0.0482 C   0  0  0  0  0  0  0  0  0  0  0  0
    3.4427   -0.1033    0.0028 C   0  0  0  0  0  0  0  0  0  0  0  0
   -2.5428   -1.2668   -0.0384 C   0  0  0  0  0  0  0  0  0  0  0  0
   -3.0652   -2.3250   -0.3699 O   0  0  0  0  0  0  0  0  0  0  0  0
   -4.4762   -0.3389    0.1798 H   0  0  0  0  0  0  0  0  0  0  0  0
   -3.3203    0.0481    1.4682 H   0  0  0  0  0  0  0  0  0  0  0  0
   -3.0231    0.9518   -1.4585 H   0  0  0  0  0  0  0  0  0  0  0  0
   -3.7132    1.9812   -0.1958 H   0  0  0  0  0  0  0  0  0  0  0  0
   -1.2320    2.3538   -0.6200 H   0  0  0  0  0  0  0  0  0  0  0  0
   -1.6218    1.9713    1.0612 H   0  0  0  0  0  0  0  0  0  0  0  0
    1.8577   -3.6999   -1.0327 H   0  0  0  0  0  0  0  0  0  0  0  0
    1.8566   -3.7609    0.7896 H   0  0  0  0  0  0  0  0  0  0  0  0
    1.0910   -5.0166   -0.1652 H   0  0  0  0  0  0  0  0  0  0  0  0
    1.2728    2.4884    0.0913 H   0  0  0  0  0  0  0  0  0  0  0  0
    2.9763   -2.1665   -0.0718 H   0  0  0  0  0  0  0  0  0  0  0  0
    3.6994    2.0288    0.0779 H   0  0  0  0  0  0  0  0  0  0  0  0
    4.5111   -0.3053   -0.0020 H   0  0  0  0  0  0  0  0  0  0  0  0
  1  2  1  0  0  0  0
  1 16  1  0  0  0  0
  1 18  1  0  0  0  0
  1 19  1  0  0  0  0
  2  3  1  0  0  0  0
  2 20  1  0  0  0  0
  2 21  1  0  0  0  0
  3  4  1  0  0  0  0
  3 22  1  0  0  0  0
  3 23  1  0  0  0  0
  4  5  2  0  0  0  0
  4  6  1  0  0  0  0
  5  7  1  0  0  0  0
  5 16  1  0  0  0  0
  6 11  1  0  0  0  0
  6 12  2  0  0  0  0
  7  8  1  0  0  0  0
  7 11  1  0  0  0  0
  8  9  2  0  0  0  0
  8 10  1  0  0  0  0
 10 24  1  0  0  0  0
 10 25  1  0  0  0  0
 10 26  1  0  0  0  0
 11 13  2  0  0  0  0
 12 14  1  0  0  0  0
 12 27  1  0  0  0  0
 13 15  1  0  0  0  0
 13 28  1  0  0  0  0
 14 15  2  0  0  0  0
 14 29  1  0  0  0  0
 15 30  1  0  0  0  0
 16 17  2  0  0  0  0
M  END
>  <DRUGBANK_ID>
DB08655

>  <COMMON_NAME>
9-ACETYL-2,3,4,9-TETRAHYDRO-1H-CARBAZOL-1-ONE

$$$$
