CMF
 OpenBabel10282417163D

 63 67  0  0  0  0  0  0  0  0999 V2000
   -0.7160    1.2327    0.2098 C   0  0  0  0  0  0  0  0  0  0  0  0
    0.7321    1.1561   -0.2675 C   0  0  0  0  0  0  0  0  0  0  0  0
    1.3613   -0.0453    0.1987 O   0  0  0  0  0  0  0  0  0  0  0  0
    0.6555   -1.2066   -0.2794 C   0  0  0  0  0  0  0  0  0  0  0  0
   -0.7996   -1.2063    0.1998 C   0  0  0  0  0  0  0  0  0  0  0  0
   -1.4454    0.0362   -0.2239 N   0  0  0  0  0  0  0  0  0  0  0  0
   -2.5971    0.0046   -0.9940 C   0  0  0  0  0  0  0  0  0  0  0  0
   -3.0900   -1.0563   -1.3878 O   0  0  0  0  0  0  0  0  0  0  0  0
   -3.2587    1.3155   -1.3711 C   0  0  0  0  0  0  0  0  0  0  0  0
   -3.6201    2.1432   -0.2246 N   0  0  0  0  0  0  0  0  0  0  0  0
   -4.0337    1.6730    1.0166 C   0  0  0  0  0  0  0  0  0  0  0  0
   -4.3595    0.3832    1.4891 C   0  0  0  0  0  0  0  0  0  0  0  0
   -4.6717    0.2169    2.8508 C   0  0  0  0  0  0  0  0  0  0  0  0
   -4.9800   -1.1419    3.3530 C   0  0  0  0  0  0  0  0  0  0  0  0
   -4.9751   -2.1700    2.6938 O   0  0  0  0  0  0  0  0  0  0  0  0
   -5.2788   -1.1535    4.6647 O   0  0  0  0  0  0  0  0  0  0  0  0
   -4.6842    1.3080    3.7128 C   0  0  0  0  0  0  0  0  0  0  0  0
   -4.3727    2.5749    3.2353 C   0  0  0  0  0  0  0  0  0  0  0  0
   -4.0355    2.7660    1.8795 C   0  0  0  0  0  0  0  0  0  0  0  0
   -3.6636    3.9159    1.1264 C   0  0  0  0  0  0  0  0  0  0  0  0
   -3.5720    5.3190    1.6564 C   0  0  0  0  0  0  0  0  0  0  0  0
   -2.4828    5.4296    2.7328 C   0  0  0  0  0  0  0  0  0  0  0  0
   -2.4303    6.8282    3.3255 C   0  0  0  0  0  0  0  0  0  0  0  0
   -3.7983    7.2525    3.8512 C   0  0  0  0  0  0  0  0  0  0  0  0
   -4.8631    7.1881    2.7607 C   0  0  0  0  0  0  0  0  0  0  0  0
   -4.9425    5.8003    2.1476 C   0  0  0  0  0  0  0  0  0  0  0  0
   -3.4155    3.5117   -0.1766 C   0  0  0  0  0  0  0  0  0  0  0  0
   -2.9966    4.3704   -1.2877 C   0  0  0  0  0  0  0  0  0  0  0  0
   -1.8187    5.1244   -1.1737 C   0  0  0  0  0  0  0  0  0  0  0  0
   -1.6110    6.2251   -2.0024 C   0  0  0  0  0  0  0  0  0  0  0  0
   -2.4997    6.4821   -3.0429 C   0  0  0  0  0  0  0  0  0  0  0  0
   -3.5798    5.6279   -3.2665 C   0  0  0  0  0  0  0  0  0  0  0  0
   -3.8609    4.6070   -2.3581 C   0  0  0  0  0  0  0  0  0  0  0  0
   -0.7606    1.2547    1.3056 H   0  0  0  0  0  0  0  0  0  0  0  0
   -1.1470    2.1495   -0.1765 H   0  0  0  0  0  0  0  0  0  0  0  0
    0.7738    1.1808   -1.3631 H   0  0  0  0  0  0  0  0  0  0  0  0
    1.2956    2.0133    0.1126 H   0  0  0  0  0  0  0  0  0  0  0  0
    1.1802   -2.0901    0.0932 H   0  0  0  0  0  0  0  0  0  0  0  0
    0.7005   -1.2152   -1.3747 H   0  0  0  0  0  0  0  0  0  0  0  0
   -0.8324   -1.2213    1.2967 H   0  0  0  0  0  0  0  0  0  0  0  0
   -1.3306   -2.0882   -0.1686 H   0  0  0  0  0  0  0  0  0  0  0  0
   -2.5668    1.8626   -2.0201 H   0  0  0  0  0  0  0  0  0  0  0  0
   -4.1825    1.1363   -1.9314 H   0  0  0  0  0  0  0  0  0  0  0  0
   -4.3558   -0.4838    0.8345 H   0  0  0  0  0  0  0  0  0  0  0  0
   -5.4689   -2.0918    4.8702 H   0  0  0  0  0  0  0  0  0  0  0  0
   -4.9345    1.1975    4.7639 H   0  0  0  0  0  0  0  0  0  0  0  0
   -4.3868    3.4100    3.9284 H   0  0  0  0  0  0  0  0  0  0  0  0
   -3.2846    6.0013    0.8468 H   0  0  0  0  0  0  0  0  0  0  0  0
   -2.6630    4.7199    3.5462 H   0  0  0  0  0  0  0  0  0  0  0  0
   -1.5050    5.1616    2.3123 H   0  0  0  0  0  0  0  0  0  0  0  0
   -1.6964    6.8485    4.1381 H   0  0  0  0  0  0  0  0  0  0  0  0
   -2.0912    7.5352    2.5596 H   0  0  0  0  0  0  0  0  0  0  0  0
   -4.0882    6.5976    4.6830 H   0  0  0  0  0  0  0  0  0  0  0  0
   -3.7399    8.2713    4.2458 H   0  0  0  0  0  0  0  0  0  0  0  0
   -5.8405    7.4501    3.1788 H   0  0  0  0  0  0  0  0  0  0  0  0
   -4.6350    7.9190    1.9765 H   0  0  0  0  0  0  0  0  0  0  0  0
   -5.6582    5.7968    1.3155 H   0  0  0  0  0  0  0  0  0  0  0  0
   -5.3499    5.1168    2.8983 H   0  0  0  0  0  0  0  0  0  0  0  0
   -1.1062    4.9146   -0.3793 H   0  0  0  0  0  0  0  0  0  0  0  0
   -0.7776    6.8976   -1.8151 H   0  0  0  0  0  0  0  0  0  0  0  0
   -2.3560    7.3547   -3.6747 H   0  0  0  0  0  0  0  0  0  0  0  0
   -4.2328    5.7892   -4.1194 H   0  0  0  0  0  0  0  0  0  0  0  0
   -4.7856    4.0436   -2.4533 H   0  0  0  0  0  0  0  0  0  0  0  0
  1  2  1  0  0  0  0
  1  6  1  0  0  0  0
  1 34  1  0  0  0  0
  1 35  1  0  0  0  0
  2  3  1  0  0  0  0
  2 36  1  0  0  0  0
  2 37  1  0  0  0  0
  3  4  1  0  0  0  0
  4  5  1  0  0  0  0
  4 38  1  0  0  0  0
  4 39  1  0  0  0  0
  5  6  1  0  0  0  0
  5 40  1  0  0  0  0
  5 41  1  0  0  0  0
  6  7  1  0  0  0  0
  7  8  2  0  0  0  0
  7  9  1  0  0  0  0
  9 10  1  0  0  0  0
  9 42  1  0  0  0  0
  9 43  1  0  0  0  0
 10 11  1  0  0  0  0
 10 27  1  0  0  0  0
 11 12  2  0  0  0  0
 11 19  1  0  0  0  0
 12 13  1  0  0  0  0
 12 44  1  0  0  0  0
 13 14  1  0  0  0  0
 13 17  2  0  0  0  0
 14 15  2  0  0  0  0
 14 16  1  0  0  0  0
 16 45  1  0  0  0  0
 17 18  1  0  0  0  0
 17 46  1  0  0  0  0
 18 19  2  0  0  0  0
 18 47  1  0  0  0  0
 19 20  1  0  0  0  0
 20 21  1  0  0  0  0
 20 27  2  0  0  0  0
 21 22  1  0  0  0  0
 21 26  1  0  0  0  0
 21 48  1  0  0  0  0
 22 23  1  0  0  0  0
 22 49  1  0  0  0  0
 22 50  1  0  0  0  0
 23 24  1  0  0  0  0
 23 51  1  0  0  0  0
 23 52  1  0  0  0  0
 24 25  1  0  0  0  0
 24 53  1  0  0  0  0
 24 54  1  0  0  0  0
 25 26  1  0  0  0  0
 25 55  1  0  0  0  0
 25 56  1  0  0  0  0
 26 57  1  0  0  0  0
 26 58  1  0  0  0  0
 27 28  1  0  0  0  0
 28 29  2  0  0  0  0
 28 33  1  0  0  0  0
 29 30  1  0  0  0  0
 29 59  1  0  0  0  0
 30 31  2  0  0  0  0
 30 60  1  0  0  0  0
 31 32  1  0  0  0  0
 31 61  1  0  0  0  0
 32 33  2  0  0  0  0
 32 62  1  0  0  0  0
 33 63  1  0  0  0  0
M  END
>  <DRUGBANK_ID>
DB07570

>  <COMMON_NAME>
3-CYCLOHEXYL-1-(2-MORPHOLIN-4-YL-2-OXOETHYL)-2-PHENYL-1H-INDOLE-6-CARBOXYLIC ACID

$$$$
