
 OpenBabel10282417133D

 32 32  0  0  0  0  0  0  0  0999 V2000
    1.0438    0.1263   -0.0232 N   0  3  0  0  0  0  0  0  0  0  0  0
    0.5948   -1.2014   -0.4878 C   0  0  0  0  0  0  0  0  0  0  0  0
    1.0330   -2.3185    0.4096 C   0  0  0  0  0  0  0  0  0  0  0  0
    1.4422   -2.0912    1.7345 C   0  0  0  0  0  0  0  0  0  0  0  0
    1.6455   -3.1539    2.6006 C   0  0  0  0  0  0  0  0  0  0  0  0
    1.4543   -4.4623    2.1543 C   0  0  0  0  0  0  0  0  0  0  0  0
    1.7555   -5.6127    3.0669 C   0  0  0  0  0  0  0  0  0  0  0  0
    0.5808   -6.4495    3.2867 N   0  0  0  0  0  0  0  0  0  0  0  0
    0.8736   -7.5185    4.2478 C   0  0  0  0  0  0  0  0  0  0  0  0
    1.3042   -7.0301    5.6353 C   0  0  0  0  0  0  0  0  0  0  0  0
    0.2556   -6.1246    6.2333 C   0  0  0  0  0  0  0  0  0  0  0  0
   -0.2077   -6.5066    7.4352 O   0  0  0  0  0  0  0  0  0  0  0  0
   -0.1514   -5.1031    5.6809 O   0  0  0  0  0  0  0  0  0  0  0  0
    1.0434   -4.6979    0.8409 C   0  0  0  0  0  0  0  0  0  0  0  0
    0.8840   -3.6378   -0.0425 C   0  0  0  0  0  0  0  0  0  0  0  0
    0.6705    0.3134    0.9149 H   0  0  0  0  0  0  0  0  0  0  0  0
    0.7196    0.8777   -0.6388 H   0  0  0  0  0  0  0  0  0  0  0  0
    2.0693    0.1502    0.0252 H   0  0  0  0  0  0  0  0  0  0  0  0
   -0.4998   -1.1686   -0.5036 H   0  0  0  0  0  0  0  0  0  0  0  0
    0.9749   -1.3258   -1.5062 H   0  0  0  0  0  0  0  0  0  0  0  0
    1.5992   -1.1011    2.1486 H   0  0  0  0  0  0  0  0  0  0  0  0
    1.9308   -2.9551    3.6334 H   0  0  0  0  0  0  0  0  0  0  0  0
    2.5691   -6.1979    2.6255 H   0  0  0  0  0  0  0  0  0  0  0  0
    2.1312   -5.1923    4.0044 H   0  0  0  0  0  0  0  0  0  0  0  0
   -0.1497   -5.8463    3.6881 H   0  0  0  0  0  0  0  0  0  0  0  0
   -0.0275   -8.1351    4.3474 H   0  0  0  0  0  0  0  0  0  0  0  0
    1.6466   -8.1720    3.8244 H   0  0  0  0  0  0  0  0  0  0  0  0
    1.4984   -7.8905    6.2820 H   0  0  0  0  0  0  0  0  0  0  0  0
    2.2493   -6.4764    5.5971 H   0  0  0  0  0  0  0  0  0  0  0  0
    0.1754   -7.3282    7.7958 H   0  0  0  0  0  0  0  0  0  0  0  0
    0.8310   -5.7181    0.5230 H   0  0  0  0  0  0  0  0  0  0  0  0
    0.6158   -3.8654   -1.0729 H   0  0  0  0  0  0  0  0  0  0  0  0
  1  2  1  0  0  0  0
  1 16  1  0  0  0  0
  1 17  1  0  0  0  0
  1 18  1  0  0  0  0
  2  3  1  0  0  0  0
  2 19  1  0  0  0  0
  2 20  1  0  0  0  0
  3  4  2  0  0  0  0
  3 15  1  0  0  0  0
  4  5  1  0  0  0  0
  4 21  1  0  0  0  0
  5  6  2  0  0  0  0
  5 22  1  0  0  0  0
  6  7  1  0  0  0  0
  6 14  1  0  0  0  0
  7  8  1  0  0  0  0
  7 23  1  0  0  0  0
  7 24  1  0  0  0  0
  8  9  1  0  0  0  0
  8 25  1  0  0  0  0
  9 10  1  0  0  0  0
  9 26  1  0  0  0  0
  9 27  1  0  0  0  0
 10 11  1  0  0  0  0
 10 28  1  0  0  0  0
 10 29  1  0  0  0  0
 11 12  1  0  0  0  0
 11 13  2  0  0  0  0
 12 30  1  0  0  0  0
 14 15  2  0  0  0  0
 14 31  1  0  0  0  0
 15 32  1  0  0  0  0
M  CHG  1   1   1
M  END
>  <DRUGBANK_ID>
DB02960

>  <SECONDARY_ACCESSION_NUMBERS>
EXPT02200

>  <COMMON_NAME>
1-Carboxyethylaminomethyl-4-Aminomethylbenzene

$$$$
