
 OpenBabel10282417123D

 85 87  0  0  1  0  0  0  0  0999 V2000
   -3.1580   -1.4276    0.5733 C   0  0  2  0  0  0  0  0  0  0  0  0
   -2.5887   -0.3448   -0.4243 C   0  0  1  0  0  0  0  0  0  0  0  0
   -4.5922   -1.5605    0.4307 O   0  0  0  0  0  0  0  0  0  0  0  0
   -2.7088   -1.2849    1.9367 O   0  0  0  0  0  0  0  0  0  0  0  0
   -3.7851    1.0901   -0.5585 C   0  0  2  0  0  0  0  0  0  0  0  0
   -0.9070   -0.2804   -0.3584 N   0  0  0  0  0  0  0  0  0  0  0  0
   -5.3415   -0.4745    0.9908 C   0  0  1  0  0  0  0  0  0  0  0  0
   -2.9888    0.0403    2.8672 P   0  0  3  0  0  0  0  0  0  0  0  0
   -5.2239    0.8767    0.2876 C   0  0  1  0  0  0  0  0  0  0  0  0
   -3.0469    2.1484   -1.1372 O   0  0  0  0  0  0  0  0  0  0  0  0
    0.1257    0.2802   -1.1231 C   0  0  0  0  0  0  0  0  0  0  0  0
   -6.8263   -0.6527    1.1613 C   0  0  0  0  0  0  0  0  0  0  0  0
   -3.2712    0.7410    1.2396 O   0  0  0  0  0  0  0  0  0  0  0  0
   -4.0099   -1.0676    3.5427 O   0  0  0  0  0  0  0  0  0  0  0  0
   -3.9004    1.0928    3.4314 O   0  0  0  0  0  0  0  0  0  0  0  0
   -5.5400    1.9246    1.2962 O   0  0  0  0  0  0  0  0  0  0  0  0
   -3.5551    2.3757   -2.4028 C   0  0  1  0  0  0  0  0  0  0  0  0
    1.5141   -0.3123   -0.9448 C   0  0  0  0  0  0  0  0  0  0  0  0
    0.0190    1.1935   -1.9395 O   0  0  0  0  0  0  0  0  0  0  0  0
   -7.1499   -1.7895    1.9260 O   0  0  0  0  0  0  0  0  0  0  0  0
   -1.7997    1.5767    0.8798 P   0  0  3  0  0  0  0  0  0  0  0  0
   -2.9123    1.1845   -3.0629 C   0  0  0  0  0  0  0  0  0  0  0  0
   -5.0508    2.3724   -2.2260 C   0  0  0  0  0  0  0  0  0  0  0  0
   -2.1889    2.6887    2.0435 O   0  0  0  0  0  0  0  0  0  0  0  0
   -0.9720    0.6009    1.9606 O   0  0  0  0  0  0  0  0  0  0  0  0
   -0.4828    2.3246    0.5577 O   0  0  0  0  0  0  0  0  0  0  0  0
   -3.4868   -0.0609   -2.9932 N   0  0  0  0  0  0  0  0  0  0  0  0
   -1.7370    1.2605   -3.5061 O   0  0  0  0  0  0  0  0  0  0  0  0
   -2.7856    3.9174    1.6614 C   0  0  0  0  0  0  0  0  0  0  0  0
   -2.7261   -1.2190   -3.5003 C   0  0  2  0  0  0  0  0  0  0  0  0
   -2.1575    4.6504    0.4669 C   0  0  1  0  0  0  0  0  0  0  0  0
   -1.2336   -1.5648   -3.1125 C   0  0  0  0  0  0  0  0  0  0  0  0
   -2.9167   -1.1818   -4.9758 C   0  0  0  0  0  0  0  0  0  0  0  0
   -3.1614    4.6401   -0.5789 O   0  0  0  0  0  0  0  0  0  0  0  0
   -1.8418    6.1177    0.7007 C   0  0  2  0  0  0  0  0  0  0  0  0
   -0.2751   -1.2942   -4.0214 O   0  0  0  0  0  0  0  0  0  0  0  0
   -0.9366   -2.1416   -2.0683 O   0  0  0  0  0  0  0  0  0  0  0  0
   -3.8328    5.8897   -0.6027 C   0  0  2  0  0  0  0  0  0  0  0  0
   -3.1856    6.7867    0.4596 C   0  0  2  0  0  0  0  0  0  0  0  0
   -0.9013    6.6074   -0.2776 O   0  0  0  0  0  0  0  0  0  0  0  0
   -5.2900    5.7136   -0.5001 N   0  0  0  0  0  0  0  0  0  0  0  0
   -3.0581    8.1200   -0.0313 O   0  0  0  0  0  0  0  0  0  0  0  0
   -5.8836    5.3395    0.7033 C   0  0  0  0  0  0  0  0  0  0  0  0
   -6.0746    6.1315   -1.5624 C   0  0  0  0  0  0  0  0  0  0  0  0
   -7.2477    5.2714    0.7045 N   0  0  0  0  0  0  0  0  0  0  0  0
   -5.2938    5.1385    1.7594 O   0  0  0  0  0  0  0  0  0  0  0  0
   -7.3862    6.3396   -1.4252 C   0  0  0  0  0  0  0  0  0  0  0  0
   -8.0343    5.9652   -0.1601 C   0  0  0  0  0  0  0  0  0  0  0  0
   -9.2035    6.2502    0.0632 O   0  0  0  0  0  0  0  0  0  0  0  0
   -2.6932   -2.3628    0.2340 H   0  0  0  0  0  0  0  0  0  0  0  0
   -2.6938   -0.8145   -1.3427 H   0  0  0  0  0  0  0  0  0  0  0  0
   -3.8214    1.9691    0.1513 H   0  0  0  0  0  0  0  0  0  0  0  0
   -0.4294   -0.8671    0.3181 H   0  0  0  0  0  0  0  0  0  0  0  0
   -5.0960   -0.3901    2.0251 H   0  0  0  0  0  0  0  0  0  0  0  0
   -6.0505    0.9606   -0.3900 H   0  0  0  0  0  0  0  0  0  0  0  0
   -7.1838    0.2249    1.7168 H   0  0  0  0  0  0  0  0  0  0  0  0
   -7.2831   -0.6845    0.1748 H   0  0  0  0  0  0  0  0  0  0  0  0
   -4.2626   -1.8621    3.0382 H   0  0  0  0  0  0  0  0  0  0  0  0
   -4.9422    1.8613    2.0930 H   0  0  0  0  0  0  0  0  0  0  0  0
   -3.1085    3.3171   -2.7206 H   0  0  0  0  0  0  0  0  0  0  0  0
    1.6925   -1.0098   -1.7712 H   0  0  0  0  0  0  0  0  0  0  0  0
    2.2446    0.5025   -1.0366 H   0  0  0  0  0  0  0  0  0  0  0  0
    1.6823   -0.8186    0.0078 H   0  0  0  0  0  0  0  0  0  0  0  0
   -7.1250   -2.5428    1.3194 H   0  0  0  0  0  0  0  0  0  0  0  0
   -5.3797    2.9721   -1.3532 H   0  0  0  0  0  0  0  0  0  0  0  0
   -5.5811    2.5499   -3.1338 H   0  0  0  0  0  0  0  0  0  0  0  0
   -5.3591    1.3540   -2.0010 H   0  0  0  0  0  0  0  0  0  0  0  0
   -1.0208   -0.3386    1.7199 H   0  0  0  0  0  0  0  0  0  0  0  0
   -4.4520   -0.2067   -2.7038 H   0  0  0  0  0  0  0  0  0  0  0  0
   -3.7915    3.6342    1.3909 H   0  0  0  0  0  0  0  0  0  0  0  0
   -2.8764    4.5611    2.5444 H   0  0  0  0  0  0  0  0  0  0  0  0
   -3.2503   -2.0912   -3.0773 H   0  0  0  0  0  0  0  0  0  0  0  0
   -1.2771    4.1795    0.0477 H   0  0  0  0  0  0  0  0  0  0  0  0
   -2.4010   -2.0177   -5.4365 H   0  0  0  0  0  0  0  0  0  0  0  0
   -3.9859   -1.2117   -5.1907 H   0  0  0  0  0  0  0  0  0  0  0  0
   -2.5163   -0.2368   -5.3561 H   0  0  0  0  0  0  0  0  0  0  0  0
   -1.4076    6.2916    1.6904 H   0  0  0  0  0  0  0  0  0  0  0  0
   -0.5575   -0.8115   -4.8193 H   0  0  0  0  0  0  0  0  0  0  0  0
   -3.6122    6.2815   -1.6041 H   0  0  0  0  0  0  0  0  0  0  0  0
   -3.7472    6.8125    1.3924 H   0  0  0  0  0  0  0  0  0  0  0  0
   -1.1171    6.2135   -1.1417 H   0  0  0  0  0  0  0  0  0  0  0  0
   -2.3752    8.0846   -0.7292 H   0  0  0  0  0  0  0  0  0  0  0  0
   -5.5774    6.3475   -2.5035 H   0  0  0  0  0  0  0  0  0  0  0  0
   -7.6551    5.0205    1.5927 H   0  0  0  0  0  0  0  0  0  0  0  0
   -8.0089    6.7762   -2.1925 H   0  0  0  0  0  0  0  0  0  0  0  0
  1  2  1  0  0  0  0
  1  3  1  0  0  0  0
  1 50  1  6  0  0  0
  1  4  1  0  0  0  0
  2  5  1  0  0  0  0
  2 51  1  6  0  0  0
  2  6  1  0  0  0  0
  3  7  1  0  0  0  0
  4  8  1  0  0  0  0
  5  9  1  0  0  0  0
  5 10  1  0  0  0  0
  5 52  1  1  0  0  0
  6 11  1  0  0  0  0
  6 53  1  0  0  0  0
  7  9  1  0  0  0  0
  7 54  1  1  0  0  0
  7 12  1  0  0  0  0
  8 13  1  0  0  0  0
  8 14  1  0  0  0  0
  8 15  2  0  0  0  0
  9 16  1  0  0  0  0
  9 55  1  6  0  0  0
 10 17  1  0  0  0  0
 11 18  1  0  0  0  0
 11 19  2  0  0  0  0
 12 20  1  0  0  0  0
 12 56  1  0  0  0  0
 12 57  1  0  0  0  0
 13 21  1  0  0  0  0
 14 58  1  0  0  0  0
 16 59  1  0  0  0  0
 17 22  1  0  0  0  0
 17 23  1  0  0  0  0
 17 60  1  6  0  0  0
 18 61  1  0  0  0  0
 18 62  1  0  0  0  0
 18 63  1  0  0  0  0
 20 64  1  0  0  0  0
 21 24  1  0  0  0  0
 21 25  1  0  0  0  0
 21 26  2  0  0  0  0
 22 27  1  0  0  0  0
 22 28  2  0  0  0  0
 23 65  1  0  0  0  0
 23 66  1  0  0  0  0
 23 67  1  0  0  0  0
 24 29  1  0  0  0  0
 25 68  1  0  0  0  0
 27 69  1  0  0  0  0
 29 70  1  0  0  0  0
 29 71  1  0  0  0  0
 30 33  1  0  0  0  0
 30 72  1  1  0  0  0
 30 32  1  0  0  0  0
 30 27  1  0  0  0  0
 31 29  1  0  0  0  0
 31 34  1  0  0  0  0
 31 35  1  0  0  0  0
 31 73  1  6  0  0  0
 32 36  1  0  0  0  0
 32 37  2  0  0  0  0
 33 74  1  0  0  0  0
 33 75  1  0  0  0  0
 33 76  1  0  0  0  0
 34 38  1  0  0  0  0
 35 39  1  0  0  0  0
 35 40  1  0  0  0  0
 35 77  1  1  0  0  0
 36 78  1  0  0  0  0
 38 39  1  0  0  0  0
 38 79  1  6  0  0  0
 38 41  1  0  0  0  0
 39 42  1  0  0  0  0
 39 80  1  1  0  0  0
 40 81  1  0  0  0  0
 41 43  1  0  0  0  0
 41 44  1  0  0  0  0
 42 82  1  0  0  0  0
 43 45  1  0  0  0  0
 43 46  2  0  0  0  0
 44 47  2  0  0  0  0
 44 83  1  0  0  0  0
 45 48  1  0  0  0  0
 45 84  1  0  0  0  0
 47 48  1  0  0  0  0
 47 85  1  0  0  0  0
 48 49  2  0  0  0  0
M  END
>  <DRUGBANK_ID>
DB01673

>  <SECONDARY_ACCESSION_NUMBERS>
EXPT03184

>  <COMMON_NAME>
Uridine-5'-Diphosphate-N-Acetylmuramoyl-L-Alanine

$$$$
