1089
 OpenBabel10282417113D

 80 85  0  0  1  0  0  0  0  0999 V2000
   -1.0425    0.9459   -0.5556 O   0  0  0  0  0  0  0  0  0  0  0  0
    2.3699    1.5037   -1.9668 O   0  0  0  0  0  0  0  0  0  0  0  0
    1.6608    0.8985    2.8451 O   0  0  0  0  0  0  0  0  0  0  0  0
   -0.4165    0.7844    2.2124 O   0  0  0  0  0  0  0  0  0  0  0  0
    4.3354    0.5291   -2.3880 O   0  0  0  0  0  0  0  0  0  0  0  0
    2.9647   -4.0091   -3.8359 O   0  0  0  0  0  0  0  0  0  0  0  0
   -0.4017   -0.9534   -5.6064 O   0  0  0  0  0  0  0  0  0  0  0  0
    0.7011   -3.5464   -5.5212 O   0  0  0  0  0  0  0  0  0  0  0  0
   -0.7046    5.1886    0.6373 N   0  0  3  0  0  0  0  0  0  0  0  0
   -1.8055    2.7308    3.2543 N   0  0  0  0  0  0  0  0  0  0  0  0
    1.5100    3.2876    0.3833 C   0  0  2  0  0  0  0  0  0  0  0  0
    1.0563    4.0402   -0.9536 C   0  0  1  0  0  0  0  0  0  0  0  0
    0.6636    3.5668    1.6267 C   0  0  0  0  0  0  0  0  0  0  0  0
    1.1461    1.7240    0.4283 C   0  0  1  0  0  0  0  0  0  0  0  0
   -0.3600    4.5581    1.8873 C   0  0  2  0  0  0  0  0  0  0  0  0
   -0.0011    5.1671   -0.6383 C   0  0  0  0  0  0  0  0  0  0  0  0
    0.6603    3.0899   -2.1622 C   0  0  0  0  0  0  0  0  0  0  0  0
    0.4464    0.9419   -0.6505 C   0  0  2  0  0  0  0  0  0  0  0  0
    0.9278    1.5852   -1.9277 C   0  0  2  0  0  0  0  0  0  0  0  0
   -1.6713    3.8658    2.4628 C   0  0  0  0  0  0  0  0  0  0  0  0
   -1.8214    6.0856    0.8359 C   0  0  0  0  0  0  0  0  0  0  0  0
   -3.1408    5.3039    1.0783 C   0  0  0  0  0  0  0  0  0  0  0  0
   -2.9476    4.2067    2.0690 C   0  0  0  0  0  0  0  0  0  0  0  0
    0.7082    1.0121    1.8792 C   0  0  0  0  0  0  0  0  0  0  0  0
   -3.8741    3.3865    2.7772 C   0  0  0  0  0  0  0  0  0  0  0  0
   -3.1380    2.4238    3.4643 C   0  0  0  0  0  0  0  0  0  0  0  0
   -1.7900    2.1540   -0.8054 C   0  0  0  0  0  0  0  0  0  0  0  0
   -5.2714    3.3765    2.9212 C   0  0  0  0  0  0  0  0  0  0  0  0
    3.1234    0.5479   -2.5329 C   0  0  0  0  0  0  0  0  0  0  0  0
   -3.7276    1.3899    4.2165 C   0  0  0  0  0  0  0  0  0  0  0  0
   -5.8701    2.4336    3.7701 C   0  0  0  0  0  0  0  0  0  0  0  0
    2.9599    0.6795    2.3821 C   0  0  0  0  0  0  0  0  0  0  0  0
   -5.1133    1.4408    4.3918 C   0  0  0  0  0  0  0  0  0  0  0  0
    2.4293   -0.4988   -3.2987 C   0  0  0  0  0  0  0  0  0  0  0  0
    1.3814   -0.2012   -4.1741 C   0  0  0  0  0  0  0  0  0  0  0  0
    2.9019   -1.7979   -3.1925 C   0  0  0  0  0  0  0  0  0  0  0  0
    2.3214   -2.8012   -3.9689 C   0  0  0  0  0  0  0  0  0  0  0  0
    0.7053   -1.1979   -4.8513 C   0  0  0  0  0  0  0  0  0  0  0  0
    1.2053   -2.5068   -4.7926 C   0  0  0  0  0  0  0  0  0  0  0  0
    2.4917   -5.0814   -4.6410 C   0  0  0  0  0  0  0  0  0  0  0  0
   -1.0011    0.3280   -5.6333 C   0  0  0  0  0  0  0  0  0  0  0  0
   -0.3901   -3.3560   -6.3966 C   0  0  0  0  0  0  0  0  0  0  0  0
    2.5424    3.6008    0.6014 H   0  0  0  0  0  0  0  0  0  0  0  0
    1.9186    4.5920   -1.3853 H   0  0  0  0  0  0  0  0  0  0  0  0
    0.0716    5.1895    2.6607 H   0  0  0  0  0  0  0  0  0  0  0  0
   -1.0749    2.0833    3.5288 H   0  0  0  0  0  0  0  0  0  0  0  0
   -0.1397    2.8479    1.5454 H   0  0  0  0  0  0  0  0  0  0  0  0
    1.2357    3.2875    2.5030 H   0  0  0  0  0  0  0  0  0  0  0  0
    0.2453    2.2228    0.1716 H   0  0  0  0  0  0  0  0  0  0  0  0
    0.5063    6.1331   -0.7446 H   0  0  0  0  0  0  0  0  0  0  0  0
   -0.7561    5.1527   -1.4395 H   0  0  0  0  0  0  0  0  0  0  0  0
    1.2178    3.3625   -3.0789 H   0  0  0  0  0  0  0  0  0  0  0  0
   -0.3561    3.2891   -2.4979 H   0  0  0  0  0  0  0  0  0  0  0  0
    0.7425   -0.1008   -0.5024 H   0  0  0  0  0  0  0  0  0  0  0  0
    0.3673    1.0186   -2.6502 H   0  0  0  0  0  0  0  0  0  0  0  0
   -1.5856    6.6710    1.7354 H   0  0  0  0  0  0  0  0  0  0  0  0
   -1.9200    6.7865    0.0098 H   0  0  0  0  0  0  0  0  0  0  0  0
   -3.8884    5.9904    1.4718 H   0  0  0  0  0  0  0  0  0  0  0  0
   -3.4891    4.8795    0.1284 H   0  0  0  0  0  0  0  0  0  0  0  0
   -1.4128    3.0329   -0.2924 H   0  0  0  0  0  0  0  0  0  0  0  0
   -1.8156    2.3433   -1.8744 H   0  0  0  0  0  0  0  0  0  0  0  0
   -2.8340    2.0774   -0.4951 H   0  0  0  0  0  0  0  0  0  0  0  0
   -5.8629    4.1448    2.4376 H   0  0  0  0  0  0  0  0  0  0  0  0
   -3.1335    0.6171    4.6993 H   0  0  0  0  0  0  0  0  0  0  0  0
   -6.9386    2.4905    3.9560 H   0  0  0  0  0  0  0  0  0  0  0  0
    2.9131    0.0371    1.5013 H   0  0  0  0  0  0  0  0  0  0  0  0
    3.4035    1.6513    2.1727 H   0  0  0  0  0  0  0  0  0  0  0  0
    3.5074    0.1707    3.1759 H   0  0  0  0  0  0  0  0  0  0  0  0
   -5.6004    0.7172    5.0441 H   0  0  0  0  0  0  0  0  0  0  0  0
    1.0724    0.8257   -4.3218 H   0  0  0  0  0  0  0  0  0  0  0  0
    3.7504   -2.0181   -2.5455 H   0  0  0  0  0  0  0  0  0  0  0  0
    1.4660   -5.3451   -4.3595 H   0  0  0  0  0  0  0  0  0  0  0  0
    2.5888   -4.8449   -5.7079 H   0  0  0  0  0  0  0  0  0  0  0  0
    3.1062   -5.9629   -4.4559 H   0  0  0  0  0  0  0  0  0  0  0  0
   -1.3932    0.5996   -4.6489 H   0  0  0  0  0  0  0  0  0  0  0  0
   -0.3044    1.0776   -6.0164 H   0  0  0  0  0  0  0  0  0  0  0  0
   -1.8427    0.2718   -6.3307 H   0  0  0  0  0  0  0  0  0  0  0  0
   -1.2871   -3.0955   -5.8274 H   0  0  0  0  0  0  0  0  0  0  0  0
   -0.1481   -2.6286   -7.1786 H   0  0  0  0  0  0  0  0  0  0  0  0
   -0.5823   -4.3085   -6.8918 H   0  0  0  0  0  0  0  0  0  0  0  0
  1 27  1  0  0  0  0
  2 29  1  0  0  0  0
  3 24  1  0  0  0  0
  3 32  1  0  0  0  0
  4 24  2  0  0  0  0
  5 29  2  0  0  0  0
  6 37  1  0  0  0  0
  6 40  1  0  0  0  0
  7 38  1  0  0  0  0
  7 41  1  0  0  0  0
  8 39  1  0  0  0  0
  8 42  1  0  0  0  0
  9 15  1  0  0  0  0
  9 16  1  0  0  0  0
  9 21  1  0  0  0  0
 10 20  1  0  0  0  0
 10 26  1  0  0  0  0
 10 46  1  0  0  0  0
 11 12  1  0  0  0  0
 11 13  1  0  0  0  0
 11 14  1  0  0  0  0
 11 43  1  6  0  0  0
 12 16  1  0  0  0  0
 12 17  1  0  0  0  0
 12 44  1  1  0  0  0
 13 15  1  0  0  0  0
 13 47  1  0  0  0  0
 13 48  1  0  0  0  0
 14 18  1  0  0  0  0
 14 49  1  1  0  0  0
 14 24  1  0  0  0  0
 15 20  1  0  0  0  0
 15 45  1  1  0  0  0
 16 50  1  0  0  0  0
 16 51  1  0  0  0  0
 17 19  1  0  0  0  0
 17 52  1  0  0  0  0
 17 53  1  0  0  0  0
 18 19  1  0  0  0  0
 18 54  1  1  0  0  0
 18  1  1  0  0  0  0
 19 55  1  6  0  0  0
 19  2  1  0  0  0  0
 20 23  2  0  0  0  0
 21 22  1  0  0  0  0
 21 56  1  0  0  0  0
 21 57  1  0  0  0  0
 22 23  1  0  0  0  0
 22 58  1  0  0  0  0
 22 59  1  0  0  0  0
 23 25  1  0  0  0  0
 25 26  1  0  0  0  0
 25 28  2  0  0  0  0
 26 30  2  0  0  0  0
 27 60  1  0  0  0  0
 27 61  1  0  0  0  0
 27 62  1  0  0  0  0
 28 31  1  0  0  0  0
 28 63  1  0  0  0  0
 29 34  1  0  0  0  0
 30 33  1  0  0  0  0
 30 64  1  0  0  0  0
 31 33  2  0  0  0  0
 31 65  1  0  0  0  0
 32 66  1  0  0  0  0
 32 67  1  0  0  0  0
 32 68  1  0  0  0  0
 33 69  1  0  0  0  0
 34 35  2  0  0  0  0
 34 36  1  0  0  0  0
 35 38  1  0  0  0  0
 35 70  1  0  0  0  0
 36 37  2  0  0  0  0
 36 71  1  0  0  0  0
 37 39  1  0  0  0  0
 38 39  2  0  0  0  0
 40 72  1  0  0  0  0
 40 73  1  0  0  0  0
 40 74  1  0  0  0  0
 41 75  1  0  0  0  0
 41 76  1  0  0  0  0
 41 77  1  0  0  0  0
 42 78  1  0  0  0  0
 42 79  1  0  0  0  0
 42 80  1  0  0  0  0
M  END
>  <DRUGBANK_ID>
DB01089

>  <SECONDARY_ACCESSION_NUMBERS>
APRD00906

>  <COMMON_NAME>
Deserpidine

>  <CAS_NUMBER>
131-01-1

>  <UNII>
9016E3VB47

>  <SYNONYMS>
(3β,16β,17α,18β,20α)-17-methoxy-18-[(3,4,5-trimethoxybenzoyl)oxy]yohimban-16-carboxylic acid methyl ester; 11-demethoxyreserpine; 11-desmethoxyreserpine; Canescine; Deserpidina; Deserpidine; Deserpidinum; Raunormine; Recanescine

$$$$
