
 OpenBabel10282417133D

 18 18  0  0  0  0  0  0  0  0999 V2000
    1.0686   -0.0144   -0.1124 C   0  0  0  0  0  0  0  0  0  0  0  0
    0.1852   -1.2716   -0.7452 S   0  0  0  0  0  0  0  0  0  0  0  0
    0.4536    1.0445    0.4910 N   0  0  0  0  0  0  0  0  0  0  0  0
    2.4186   -0.0629   -0.1284 N   0  0  0  0  0  0  0  0  0  0  0  0
    2.8810    3.7599    1.1745 C   0  0  0  0  0  0  0  0  0  0  0  0
    2.5076    4.1101    2.4703 C   0  0  0  0  0  0  0  0  0  0  0  0
    1.4041    3.4976    3.0684 C   0  0  0  0  0  0  0  0  0  0  0  0
    0.6630    2.5423    2.3709 C   0  0  0  0  0  0  0  0  0  0  0  0
    1.0843    2.1397    1.1018 C   0  0  0  0  0  0  0  0  0  0  0  0
    2.1613    2.7881    0.4902 C   0  0  0  0  0  0  0  0  0  0  0  0
   -0.5263    0.8860    0.7025 H   0  0  0  0  0  0  0  0  0  0  0  0
    2.8778   -0.8970   -0.4754 H   0  0  0  0  0  0  0  0  0  0  0  0
    2.9799    0.5507    0.4451 H   0  0  0  0  0  0  0  0  0  0  0  0
    3.7417    4.2262    0.7030 H   0  0  0  0  0  0  0  0  0  0  0  0
    3.0755    4.8612    3.0109 H   0  0  0  0  0  0  0  0  0  0  0  0
    1.1421    3.7453    4.0949 H   0  0  0  0  0  0  0  0  0  0  0  0
   -0.1815    2.0627    2.8587 H   0  0  0  0  0  0  0  0  0  0  0  0
    2.4459    2.5313   -0.5286 H   0  0  0  0  0  0  0  0  0  0  0  0
  2  1  2  0  0  0  0
  3  1  1  0  0  0  0
  3 11  1  0  0  0  0
  4  1  1  0  0  0  0
  4 12  1  0  0  0  0
  4 13  1  0  0  0  0
  5 14  1  0  0  0  0
  6  5  1  0  0  0  0
  6 15  1  0  0  0  0
  7  6  2  0  0  0  0
  7 16  1  0  0  0  0
  8  7  1  0  0  0  0
  8 17  1  0  0  0  0
  9  3  1  0  0  0  0
  9  8  2  0  0  0  0
 10  5  2  0  0  0  0
 10  9  1  0  0  0  0
 10 18  1  0  0  0  0
M  END
>  <DRUGBANK_ID>
DB03694

>  <SECONDARY_ACCESSION_NUMBERS>
EXPT03208

>  <COMMON_NAME>
N-phenylthiourea

>  <CAS_NUMBER>
103-85-5

>  <UNII>
6F82C6Q54C

>  <SYNONYMS>
1-phenyl-2-thiourea; monophenyl thiourea; phenyl-2-thiourea; phenylthiocarbamide; phenylthiourea; Î±-phenylthiourea

$$$$
