
 OpenBabel10282417133D

129134  0  0  1  0  0  0  0  0999 V2000
    1.6892   -0.2424    0.1527 C   0  0  0  0  0  0  0  0  0  0  0  0
   -0.5678    2.3670   -2.8016 C   0  0  0  0  0  0  0  0  0  0  0  0
   -0.7398    3.0361   -5.7888 C   0  0  0  0  0  0  0  0  0  0  0  0
   -0.7313    4.1146   -2.4416 C   0  0  0  0  0  0  0  0  0  0  0  0
   -2.7947    5.5003   -0.3472 C   0  0  0  0  0  0  0  0  0  0  0  0
   -1.5562   -2.3282   -4.5902 C   0  0  0  0  0  0  0  0  0  0  0  0
   -3.0834   -0.9308   -0.3898 C   0  0  0  0  0  0  0  0  0  0  0  0
    1.4330    1.2484    0.1556 C   0  0  2  0  0  0  0  0  0  0  0  0
   -1.3436    2.7935   -4.5961 C   0  0  0  0  0  0  0  0  0  0  0  0
   -1.9011    1.8999   -0.9073 C   0  0  1  0  0  0  0  0  0  0  0  0
   -1.8443    3.1827   -2.6565 C   0  0  2  0  0  0  0  0  0  0  0  0
   -1.3374    4.8215   -0.6968 C   0  0  2  0  0  0  0  0  0  0  0  0
   -1.3605   -1.4946   -3.5098 C   0  0  2  0  0  0  0  0  0  0  0  0
   -3.0672    0.3376    1.2713 C   0  0  2  0  0  0  0  0  0  0  0  0
    0.4578    0.0389   -0.3772 C   0  0  2  0  0  0  0  0  0  0  0  0
   -4.3430    2.0087   -0.7440 C   0  0  1  0  0  0  0  0  0  0  0  0
   -3.4705    3.5974   -3.6364 C   0  0  2  0  0  0  0  0  0  0  0  0
   -3.8406    1.8918    1.2310 C   0  0  2  0  0  0  0  0  0  0  0  0
    1.0273    0.2221   -2.2157 C   0  0  1  0  0  0  0  0  0  0  0  0
   -2.9467    3.0071    0.7032 C   0  0  1  0  0  0  0  0  0  0  0  0
   -4.2553    3.0382   -1.9581 C   0  0  1  0  0  0  0  0  0  0  0  0
   -5.1044    2.1296   -2.9094 C   0  0  2  0  0  0  0  0  0  0  0  0
   -1.8997    4.3675   -3.8434 C   0  0  2  0  0  0  0  0  0  0  0  0
   -3.7900   -1.9587   -2.2681 C   0  0  2  0  0  0  0  0  0  0  0  0
   -1.4033    3.0934    1.1280 C   0  0  2  0  0  0  0  0  0  0  0  0
    1.5035    1.6104   -3.0889 C   0  0  2  0  0  0  0  0  0  0  0  0
   -3.4556    0.9238   -1.2981 C   0  0  2  0  0  0  0  0  0  0  0  0
   -2.1983    1.9258   -3.6957 C   0  0  2  0  0  0  0  0  0  0  0  0
   -4.6696   -0.7806   -3.1726 C   0  0  2  0  0  0  0  0  0  0  0  0
   -3.6378    2.0910   -4.4122 C   0  0  2  0  0  0  0  0  0  0  0  0
   -0.7606    5.6924   -2.3875 C   0  0  2  0  0  0  0  0  0  0  0  0
   -1.9117   -2.1499   -2.2177 C   0  0  2  0  0  0  0  0  0  0  0  0
   -0.8298    1.8678    0.8630 C   0  0  2  0  0  0  0  0  0  0  0  0
   -2.3803    1.7258   -2.4315 C   0  0  1  0  0  0  0  0  0  0  0  0
    1.5795    3.0926   -1.8073 C   0  0  2  0  0  0  0  0  0  0  0  0
   -2.1153    0.3273   -0.9218 C   0  0  2  0  0  0  0  0  0  0  0  0
   -3.6770   -0.2764   -4.2710 C   0  0  2  0  0  0  0  0  0  0  0  0
   -0.8394    0.2919    0.1737 N   0  0  0  0  0  0  0  0  0  0  0  0
    0.1553    3.9622   -5.3637 O   0  0  0  0  0  0  0  0  0  0  0  0
    0.2432    4.9789   -3.6977 O   0  0  0  0  0  0  0  0  0  0  0  0
   -2.2193    5.8656    0.7788 O   0  0  0  0  0  0  0  0  0  0  0  0
   -1.6008   -1.4580   -5.6935 O   0  0  0  0  0  0  0  0  0  0  0  0
   -5.3115    0.4757   -0.2414 O   0  0  0  0  0  0  0  0  0  0  0  0
   -3.3768    3.2682   -5.5677 O   0  0  0  0  0  0  0  0  0  0  0  0
   -3.8224    2.5749    2.3723 O   0  0  0  0  0  0  0  0  0  0  0  0
    2.3017   -0.0365   -2.3531 O   0  0  0  0  0  0  0  0  0  0  0  0
   -2.8823    3.2073   -1.0325 O   0  0  0  0  0  0  0  0  0  0  0  0
   -4.1876    4.2803   -1.4051 O   0  0  0  0  0  0  0  0  0  0  0  0
   -5.7293    3.7952   -2.9459 O   0  0  0  0  0  0  0  0  0  0  0  0
   -3.2152    5.3690   -3.1010 O   0  0  0  0  0  0  0  0  0  0  0  0
   -4.0747   -2.8970   -3.1360 O   0  0  0  0  0  0  0  0  0  0  0  0
   -1.1466    3.9668    2.0263 O   0  0  0  0  0  0  0  0  0  0  0  0
    0.3854    1.0923   -3.6043 O   0  0  0  0  0  0  0  0  0  0  0  0
   -3.5414    0.4877   -2.4025 O   0  0  0  0  0  0  0  0  0  0  0  0
   -1.0042    0.8606   -4.8447 O   0  0  0  0  0  0  0  0  0  0  0  0
   -5.1650    0.3462   -2.2555 O   0  0  0  0  0  0  0  0  0  0  0  0
   -0.3281    1.3580   -1.0208 O   0  0  0  0  0  0  0  0  0  0  0  0
   -2.2051   -0.3521   -2.2280 O   0  0  0  0  0  0  0  0  0  0  0  0
    1.3822    2.6725   -0.4382 O   0  0  0  0  0  0  0  0  0  0  0  0
   -1.7014    0.8950    1.8516 O   0  0  0  0  0  0  0  0  0  0  0  0
   -1.2092    1.0122   -2.5768 O   0  0  0  0  0  0  0  0  0  0  0  0
   -0.9796    2.9851   -1.2875 O   0  0  0  0  0  0  0  0  0  0  0  0
   -2.2825   -0.4349   -4.0620 O   0  0  0  0  0  0  0  0  0  0  0  0
   -4.1282    0.8880   -4.9060 O   0  0  0  0  0  0  0  0  0  0  0  0
    1.0980    4.8661   -2.1199 O   0  0  0  0  0  0  0  0  0  0  0  0
   -1.2880   -1.2929   -1.0913 O   0  0  0  0  0  0  0  0  0  0  0  0
    1.3161    1.6430    1.1727 H   0  0  0  0  0  0  0  0  0  0  0  0
   -1.8097    2.7187   -0.2762 H   0  0  0  0  0  0  0  0  0  0  0  0
   -0.6171    3.6930   -3.4556 H   0  0  0  0  0  0  0  0  0  0  0  0
   -0.3783    5.0102   -0.1843 H   0  0  0  0  0  0  0  0  0  0  0  0
   -0.2709   -1.3526   -3.5467 H   0  0  0  0  0  0  0  0  0  0  0  0
   -3.6942   -0.3708    1.6390 H   0  0  0  0  0  0  0  0  0  0  0  0
    0.1125   -1.0324   -0.1737 H   0  0  0  0  0  0  0  0  0  0  0  0
   -4.6443    2.8846   -0.1299 H   0  0  0  0  0  0  0  0  0  0  0  0
   -3.6761    4.3881   -4.3081 H   0  0  0  0  0  0  0  0  0  0  0  0
   -5.0301    1.8115    0.9031 H   0  0  0  0  0  0  0  0  0  0  0  0
    0.2345   -0.3077   -2.7062 H   0  0  0  0  0  0  0  0  0  0  0  0
   -3.3916    3.8869    0.5792 H   0  0  0  0  0  0  0  0  0  0  0  0
   -5.5787    2.7886   -1.4868 H   0  0  0  0  0  0  0  0  0  0  0  0
   -5.7348    1.4911   -3.4047 H   0  0  0  0  0  0  0  0  0  0  0  0
   -1.8886    4.7180   -4.8725 H   0  0  0  0  0  0  0  0  0  0  0  0
   -4.3540   -2.0089   -1.3372 H   0  0  0  0  0  0  0  0  0  0  0  0
   -0.6092    3.4595    0.3697 H   0  0  0  0  0  0  0  0  0  0  0  0
    1.2624    2.2393   -3.9393 H   0  0  0  0  0  0  0  0  0  0  0  0
   -3.7197    0.6658   -0.2303 H   0  0  0  0  0  0  0  0  0  0  0  0
   -2.3519    1.2366   -4.6331 H   0  0  0  0  0  0  0  0  0  0  0  0
   -5.6218   -0.3485   -3.0908 H   0  0  0  0  0  0  0  0  0  0  0  0
   -4.6695    2.9439   -4.5009 H   0  0  0  0  0  0  0  0  0  0  0  0
   -1.2262    6.3363   -3.0598 H   0  0  0  0  0  0  0  0  0  0  0  0
   -1.4743   -2.7799   -1.4982 H   0  0  0  0  0  0  0  0  0  0  0  0
    0.0664    2.2208    0.7433 H   0  0  0  0  0  0  0  0  0  0  0  0
   -3.1852    2.0864   -2.8303 H   0  0  0  0  0  0  0  0  0  0  0  0
    2.5101    2.6665   -1.8936 H   0  0  0  0  0  0  0  0  0  0  0  0
   -2.2581    0.8520    0.0524 H   0  0  0  0  0  0  0  0  0  0  0  0
   -3.7835   -0.9754   -4.9737 H   0  0  0  0  0  0  0  0  0  0  0  0
    1.5385   -1.0549   -0.9108 H   0  0  0  0  0  0  0  0  0  0  0  0
    1.0889   -0.7251    1.1075 H   0  0  0  0  0  0  0  0  0  0  0  0
    2.6778   -0.1690    0.0828 H   0  0  0  0  0  0  0  0  0  0  0  0
    0.3252    2.2695   -2.1409 H   0  0  0  0  0  0  0  0  0  0  0  0
   -0.4582    2.0640   -6.0123 H   0  0  0  0  0  0  0  0  0  0  0  0
   -1.7062    3.2375   -6.0807 H   0  0  0  0  0  0  0  0  0  0  0  0
   -1.8491    4.4754   -2.1745 H   0  0  0  0  0  0  0  0  0  0  0  0
   -0.0771    4.1272   -1.5468 H   0  0  0  0  0  0  0  0  0  0  0  0
   -2.8156    5.7431   -1.3741 H   0  0  0  0  0  0  0  0  0  0  0  0
   -4.0635    5.1290    0.0032 H   0  0  0  0  0  0  0  0  0  0  0  0
   -0.6972   -2.9064   -4.4201 H   0  0  0  0  0  0  0  0  0  0  0  0
   -2.4500   -2.8711   -4.5297 H   0  0  0  0  0  0  0  0  0  0  0  0
   -3.9509   -0.7064   -0.8790 H   0  0  0  0  0  0  0  0  0  0  0  0
   -2.8022   -1.9224   -0.3213 H   0  0  0  0  0  0  0  0  0  0  0  0
   -1.4646   -0.2657    0.7653 H   0  0  0  0  0  0  0  0  0  0  0  0
   -0.2451    4.6883   -4.7650 H   0  0  0  0  0  0  0  0  0  0  0  0
    0.8765    4.2198   -3.5550 H   0  0  0  0  0  0  0  0  0  0  0  0
   -2.3909    5.0686    1.3220 H   0  0  0  0  0  0  0  0  0  0  0  0
   -2.0347   -0.6057   -5.3623 H   0  0  0  0  0  0  0  0  0  0  0  0
   -5.3474   -0.1056   -1.0850 H   0  0  0  0  0  0  0  0  0  0  0  0
   -3.0477    2.1848   -5.8316 H   0  0  0  0  0  0  0  0  0  0  0  0
   -3.6391    1.6987    2.6819 H   0  0  0  0  0  0  0  0  0  0  0  0
    2.4436    0.7360   -1.7655 H   0  0  0  0  0  0  0  0  0  0  0  0
   -3.1641    2.3926   -1.4717 H   0  0  0  0  0  0  0  0  0  0  0  0
   -3.1978    4.1556   -1.1504 H   0  0  0  0  0  0  0  0  0  0  0  0
   -4.8578    4.2616   -2.9454 H   0  0  0  0  0  0  0  0  0  0  0  0
   -3.4689    4.7339   -2.3808 H   0  0  0  0  0  0  0  0  0  0  0  0
   -3.6327   -2.3466   -3.7977 H   0  0  0  0  0  0  0  0  0  0  0  0
   -0.8246    4.5453    1.3125 H   0  0  0  0  0  0  0  0  0  0  0  0
   -0.1741    1.0819   -2.4304 H   0  0  0  0  0  0  0  0  0  0  0  0
   -3.2158   -0.3658   -2.3389 H   0  0  0  0  0  0  0  0  0  0  0  0
   -0.0770    1.2841   -4.7413 H   0  0  0  0  0  0  0  0  0  0  0  0
   -4.3430    0.8780   -2.8754 H   0  0  0  0  0  0  0  0  0  0  0  0
   -0.8774    0.3242   -1.7119 H   0  0  0  0  0  0  0  0  0  0  0  0
  1 96  1  0  0  0  0
  1 97  1  0  0  0  0
  1 98  1  0  0  0  0
  2 99  1  0  0  0  0
  3100  1  0  0  0  0
  3101  1  0  0  0  0
  4102  1  0  0  0  0
  4103  1  0  0  0  0
  5104  1  0  0  0  0
  5105  1  0  0  0  0
  6106  1  0  0  0  0
  6107  1  0  0  0  0
  7108  1  0  0  0  0
  7109  1  0  0  0  0
  8  1  1  0  0  0  0
  8 67  1  1  0  0  0
  9  2  2  0  0  0  0
  9  3  1  0  0  0  0
 10  2  1  0  0  0  0
 10 38  1  0  0  0  0
 10 68  1  1  0  0  0
 11 69  1  6  0  0  0
 11  4  1  0  0  0  0
 12 70  1  1  0  0  0
 12  5  1  0  0  0  0
 13 71  1  1  0  0  0
 13  6  1  0  0  0  0
 14  7  1  0  0  0  0
 14 72  1  1  0  0  0
 15  8  1  0  0  0  0
 15 73  1  1  0  0  0
 15 38  1  0  0  0  0
 16 10  1  0  0  0  0
 16 74  1  1  0  0  0
 16 43  1  0  0  0  0
 17 11  1  0  0  0  0
 17 75  1  1  0  0  0
 17 44  1  0  0  0  0
 18 14  1  0  0  0  0
 18 76  1  6  0  0  0
 18 45  1  0  0  0  0
 19 15  1  0  0  0  0
 19 46  1  0  0  0  0
 19 77  1  6  0  0  0
 20 18  1  0  0  0  0
 20 47  1  0  0  0  0
 20 78  1  1  0  0  0
 21 17  1  0  0  0  0
 21 48  1  0  0  0  0
 21 79  1  6  0  0  0
 22 16  1  0  0  0  0
 22 80  1  6  0  0  0
 22 49  1  0  0  0  0
 23 50  1  0  0  0  0
 23 81  1  6  0  0  0
 24 51  1  0  0  0  0
 24 82  1  1  0  0  0
 25 20  1  0  0  0  0
 25 83  1  6  0  0  0
 25 52  1  0  0  0  0
 26 19  1  0  0  0  0
 26 84  1  6  0  0  0
 26 53  1  0  0  0  0
 27 21  1  0  0  0  0
 27 85  1  1  0  0  0
 27 54  1  0  0  0  0
 28 23  1  0  0  0  0
 28 86  1  6  0  0  0
 28 55  1  0  0  0  0
 29 24  1  0  0  0  0
 29 87  1  6  0  0  0
 29 56  1  0  0  0  0
 30  9  1  0  0  0  0
 30 22  1  0  0  0  0
 30 64  1  0  0  0  0
 30 88  1  6  0  0  0
 31 12  1  0  0  0  0
 31 23  1  0  0  0  0
 31 65  1  0  0  0  0
 31 89  1  6  0  0  0
 32 13  1  0  0  0  0
 32 24  1  0  0  0  0
 32 90  1  1  0  0  0
 32 66  1  0  0  0  0
 33 25  1  0  0  0  0
 33 57  1  0  0  0  0
 33 91  1  1  0  0  0
 34 28  1  0  0  0  0
 34 92  1  1  0  0  0
 34 58  1  0  0  0  0
 35 26  1  0  0  0  0
 35 93  1  1  0  0  0
 35 65  1  0  0  0  0
 36 27  1  0  0  0  0
 36 66  1  0  0  0  0
 36 94  1  1  0  0  0
 37 29  1  0  0  0  0
 37 64  1  0  0  0  0
 37 95  1  6  0  0  0
 38110  1  0  0  0  0
 39  3  1  0  0  0  0
 39111  1  0  0  0  0
 40  4  1  0  0  0  0
 40112  1  0  0  0  0
 41  5  1  0  0  0  0
 41113  1  0  0  0  0
 42  6  1  0  0  0  0
 42114  1  0  0  0  0
 43115  1  0  0  0  0
 44116  1  0  0  0  0
 45117  1  0  0  0  0
 46118  1  0  0  0  0
 47119  1  0  0  0  0
 48120  1  0  0  0  0
 49121  1  0  0  0  0
 50122  1  0  0  0  0
 51123  1  0  0  0  0
 52124  1  0  0  0  0
 53125  1  0  0  0  0
 54126  1  0  0  0  0
 55127  1  0  0  0  0
 56128  1  0  0  0  0
 57129  1  0  0  0  0
 58  7  1  0  0  0  0
 59  8  1  0  0  0  0
 59 35  1  0  0  0  0
 60 14  1  0  0  0  0
 60 33  1  0  0  0  0
 61 11  1  0  0  0  0
 61 36  1  0  0  0  0
 62 12  1  0  0  0  0
 62 34  1  0  0  0  0
 63 13  1  0  0  0  0
 63 37  1  0  0  0  0
M  END
>  <DRUGBANK_ID>
DB03971

>  <SECONDARY_ACCESSION_NUMBERS>
EXPT00291

>  <COMMON_NAME>
Acarbose Derived Hexasaccharide

$$$$
