
 OpenBabel10282417243D

 66 70  0  0  1  0  0  0  0  0999 V2000
    1.0792    0.0017   -0.1179 C   0  0  0  0  0  0  0  0  0  0  0  0
    0.4637   -0.0017    1.2977 C   0  0  2  0  0  0  0  0  0  0  0  0
   -0.5445   -1.2019    1.4181 C   0  0  0  0  0  0  0  0  0  0  0  0
   -1.7260   -0.9055    0.5924 N   0  0  0  0  0  0  0  0  0  0  0  0
   -2.4051    0.3475    0.9517 C   0  0  0  0  0  0  0  0  0  0  0  0
   -1.4089    1.5267    0.8877 C   0  0  0  0  0  0  0  0  0  0  0  0
   -0.1781    1.2932    1.6789 N   0  0  0  0  0  0  0  0  0  0  0  0
    0.7188    2.4421    1.5551 C   0  0  0  0  0  0  0  0  0  0  0  0
   -2.2057   -1.7153   -0.4171 C   0  0  0  0  0  0  0  0  0  0  0  0
   -2.5146   -3.0492   -0.2283 C   0  0  0  0  0  0  0  0  0  0  0  0
   -3.0742   -3.8630   -1.1553 N   0  0  0  0  0  0  0  0  0  0  0  0
   -3.3073   -3.3507   -2.3749 C   0  0  0  0  0  0  0  0  0  0  0  0
   -3.9428   -4.1109   -3.3697 N   0  0  0  0  0  0  0  0  0  0  0  0
   -4.2674   -5.4673   -3.2390 C   0  0  0  0  0  0  0  0  0  0  0  0
   -5.2080   -5.7996   -2.2644 C   0  0  0  0  0  0  0  0  0  0  0  0
   -5.5870   -7.1199   -2.0145 C   0  0  0  0  0  0  0  0  0  0  0  0
   -6.5809   -7.5040   -0.9440 C   0  0  0  0  0  0  0  0  0  0  0  0
   -8.0270   -7.0822   -1.0350 C   0  0  0  0  0  0  0  0  0  0  0  0
   -7.1377   -6.4715    0.0093 C   0  0  0  0  0  0  0  0  0  0  0  0
   -4.9471   -8.0849   -2.7879 C   0  0  0  0  0  0  0  0  0  0  0  0
   -5.2219   -9.3826   -2.5765 F   0  0  0  0  0  0  0  0  0  0  0  0
   -4.0198   -7.7137   -3.7620 C   0  0  0  0  0  0  0  0  0  0  0  0
   -3.3184   -8.7876   -4.5449 C   0  0  0  0  0  0  0  0  0  0  0  0
   -3.6978   -6.4107   -4.0232 N   0  0  0  0  0  0  0  0  0  0  0  0
   -2.9662   -2.1048   -2.6994 N   0  0  0  0  0  0  0  0  0  0  0  0
   -2.4587   -1.2913   -1.7387 C   0  0  0  0  0  0  0  0  0  0  0  0
   -2.1578    0.0629   -2.0773 N   0  0  0  0  0  0  0  0  0  0  0  0
   -2.3179    0.5826   -3.3211 C   0  0  0  0  0  0  0  0  0  0  0  0
   -1.2457    1.0381   -4.1308 C   0  0  0  0  0  0  0  0  0  0  0  0
   -1.8283    1.4132   -5.3301 C   0  0  0  0  0  0  0  0  0  0  0  0
   -1.2275    1.8761   -6.6057 C   0  0  0  0  0  0  0  0  0  0  0  0
   -3.1725    1.2392   -5.1366 N   0  0  0  0  0  0  0  0  0  0  0  0
   -4.2424    1.5050   -6.0673 C   0  0  0  0  0  0  0  0  0  0  0  0
   -3.4843    0.7645   -3.9240 N   0  0  0  0  0  0  0  0  0  0  0  0
    0.7712    0.8610   -0.7201 H   0  0  0  0  0  0  0  0  0  0  0  0
    0.7942   -0.8862   -0.6901 H   0  0  0  0  0  0  0  0  0  0  0  0
    2.1707    0.0343   -0.0586 H   0  0  0  0  0  0  0  0  0  0  0  0
    1.2720   -0.1944    2.0175 H   0  0  0  0  0  0  0  0  0  0  0  0
   -0.0510   -2.1381    1.1282 H   0  0  0  0  0  0  0  0  0  0  0  0
   -0.8468   -1.3148    2.4691 H   0  0  0  0  0  0  0  0  0  0  0  0
   -3.2709    0.5483    0.3134 H   0  0  0  0  0  0  0  0  0  0  0  0
   -2.7853    0.2576    1.9780 H   0  0  0  0  0  0  0  0  0  0  0  0
   -1.1330    1.7179   -0.1527 H   0  0  0  0  0  0  0  0  0  0  0  0
   -1.9182    2.4321    1.2342 H   0  0  0  0  0  0  0  0  0  0  0  0
    1.0724    2.5974    0.5308 H   0  0  0  0  0  0  0  0  0  0  0  0
    0.2040    3.3614    1.8581 H   0  0  0  0  0  0  0  0  0  0  0  0
    1.5892    2.3325    2.2089 H   0  0  0  0  0  0  0  0  0  0  0  0
   -2.3704   -3.5208    0.7398 H   0  0  0  0  0  0  0  0  0  0  0  0
   -3.6171   -3.8197   -4.2769 H   0  0  0  0  0  0  0  0  0  0  0  0
   -5.6545   -4.9817   -1.7103 H   0  0  0  0  0  0  0  0  0  0  0  0
   -6.4231   -8.4955   -0.5204 H   0  0  0  0  0  0  0  0  0  0  0  0
   -8.3455   -6.4689   -1.8703 H   0  0  0  0  0  0  0  0  0  0  0  0
   -8.7786   -7.7892   -0.7007 H   0  0  0  0  0  0  0  0  0  0  0  0
   -7.2603   -6.7634    1.0448 H   0  0  0  0  0  0  0  0  0  0  0  0
   -6.8687   -5.4278   -0.0957 H   0  0  0  0  0  0  0  0  0  0  0  0
   -3.5154   -8.6631   -5.6125 H   0  0  0  0  0  0  0  0  0  0  0  0
   -2.2399   -8.7484   -4.3637 H   0  0  0  0  0  0  0  0  0  0  0  0
   -3.6609   -9.7894   -4.2590 H   0  0  0  0  0  0  0  0  0  0  0  0
   -1.3417    0.3253   -1.5526 H   0  0  0  0  0  0  0  0  0  0  0  0
   -0.1886    1.0274   -3.9112 H   0  0  0  0  0  0  0  0  0  0  0  0
   -0.6612    2.7994   -6.4531 H   0  0  0  0  0  0  0  0  0  0  0  0
   -0.5483    1.1148   -7.0035 H   0  0  0  0  0  0  0  0  0  0  0  0
   -1.9810    2.0728   -7.3748 H   0  0  0  0  0  0  0  0  0  0  0  0
   -4.2206    2.5680   -6.3178 H   0  0  0  0  0  0  0  0  0  0  0  0
   -4.0886    0.8879   -6.9552 H   0  0  0  0  0  0  0  0  0  0  0  0
   -5.2000    1.2534   -5.6034 H   0  0  0  0  0  0  0  0  0  0  0  0
  1 35  1  0  0  0  0
  1 36  1  0  0  0  0
  1 37  1  0  0  0  0
  2  1  1  0  0  0  0
  2  3  1  0  0  0  0
  2  7  1  0  0  0  0
  2 38  1  1  0  0  0
  3  4  1  0  0  0  0
  3 39  1  0  0  0  0
  3 40  1  0  0  0  0
  4  5  1  0  0  0  0
  4  9  1  0  0  0  0
  5  6  1  0  0  0  0
  5 41  1  0  0  0  0
  5 42  1  0  0  0  0
  6  7  1  0  0  0  0
  6 43  1  0  0  0  0
  6 44  1  0  0  0  0
  7  8  1  0  0  0  0
  8 45  1  0  0  0  0
  8 46  1  0  0  0  0
  8 47  1  0  0  0  0
  9 10  2  0  0  0  0
  9 26  1  0  0  0  0
 10 11  1  0  0  0  0
 10 48  1  0  0  0  0
 11 12  2  0  0  0  0
 12 13  1  0  0  0  0
 12 25  1  0  0  0  0
 13 14  1  0  0  0  0
 13 49  1  0  0  0  0
 14 15  2  0  0  0  0
 14 24  1  0  0  0  0
 15 16  1  0  0  0  0
 15 50  1  0  0  0  0
 16 17  1  0  0  0  0
 16 20  2  0  0  0  0
 17 18  1  0  0  0  0
 17 19  1  0  0  0  0
 17 51  1  0  0  0  0
 18 19  1  0  0  0  0
 18 52  1  0  0  0  0
 18 53  1  0  0  0  0
 19 54  1  0  0  0  0
 19 55  1  0  0  0  0
 20 21  1  0  0  0  0
 20 22  1  0  0  0  0
 22 23  1  0  0  0  0
 22 24  2  0  0  0  0
 23 56  1  0  0  0  0
 23 57  1  0  0  0  0
 23 58  1  0  0  0  0
 25 26  2  0  0  0  0
 26 27  1  0  0  0  0
 27 28  1  0  0  0  0
 27 59  1  0  0  0  0
 28 29  1  0  0  0  0
 28 34  2  0  0  0  0
 29 30  2  0  0  0  0
 29 60  1  0  0  0  0
 30 31  1  0  0  0  0
 30 32  1  0  0  0  0
 31 61  1  0  0  0  0
 31 62  1  0  0  0  0
 31 63  1  0  0  0  0
 32 33  1  0  0  0  0
 32 34  1  0  0  0  0
 33 64  1  0  0  0  0
 33 65  1  0  0  0  0
 33 66  1  0  0  0  0
M  END
>  <DRUGBANK_ID>
DB18062

>  <COMMON_NAME>
ZY19489

>  <CAS_NUMBER>
1821293-40-6

>  <UNII>
VL8W9427Y4

>  <SYNONYMS>
ZY-19489

$$$$
