
 OpenBabel10282417203D

 45 47  0  0  0  0  0  0  0  0999 V2000
    1.1863    0.0502    0.0494 C   0  0  0  0  0  0  0  0  0  0  0  0
    0.3742   -1.0981   -0.0058 C   0  0  0  0  0  0  0  0  0  0  0  0
   -1.0133   -0.9599   -0.0468 C   0  0  0  0  0  0  0  0  0  0  0  0
   -1.5585    0.3098   -0.0233 C   0  0  0  0  0  0  0  0  0  0  0  0
   -0.7502    1.4470   -0.0083 C   0  0  0  0  0  0  0  0  0  0  0  0
    0.6318    1.3095   -0.0269 C   0  0  0  0  0  0  0  0  0  0  0  0
    2.6584    0.0401    0.3129 C   0  0  0  0  0  0  0  0  0  0  0  0
    3.4920    0.1860   -0.8903 N   0  0  0  0  0  0  0  0  0  0  0  0
    4.5524    1.0789   -0.7830 C   0  0  0  0  0  0  0  0  0  0  0  0
    3.1968   -0.4353   -2.2076 C   0  0  0  0  0  0  0  0  0  0  0  0
    3.5256   -1.9696   -2.3380 C   0  0  0  0  0  0  0  0  0  0  0  0
    2.8154   -2.8400   -1.3825 N   0  0  0  0  0  0  0  0  0  0  0  0
    3.3716   -2.6544   -0.0543 C   0  0  0  0  0  0  0  0  0  0  0  0
    4.3165   -3.7379    0.2802 C   0  0  0  0  0  0  0  0  0  0  0  0
    3.6270   -4.8836   -0.3880 C   0  0  0  0  0  0  0  0  0  0  0  0
    2.8998   -4.2838   -1.6055 C   0  0  0  0  0  0  0  0  0  0  0  0
    5.5020    0.9351    0.2389 C   0  0  0  0  0  0  0  0  0  0  0  0
    6.5629    1.8308    0.3727 C   0  0  0  0  0  0  0  0  0  0  0  0
    6.6947    2.8854   -0.5250 C   0  0  0  0  0  0  0  0  0  0  0  0
    5.7650    3.0437   -1.5498 C   0  0  0  0  0  0  0  0  0  0  0  0
    4.6886    2.1607   -1.6594 C   0  0  0  0  0  0  0  0  0  0  0  0
    0.7586   -2.1067    0.0006 H   0  0  0  0  0  0  0  0  0  0  0  0
   -1.6380   -1.8497   -0.0630 H   0  0  0  0  0  0  0  0  0  0  0  0
   -2.6404    0.4287   -0.0174 H   0  0  0  0  0  0  0  0  0  0  0  0
   -1.1638    2.4387    0.0471 H   0  0  0  0  0  0  0  0  0  0  0  0
    1.2887    2.1747   -0.0410 H   0  0  0  0  0  0  0  0  0  0  0  0
    2.8925    0.8347    1.0358 H   0  0  0  0  0  0  0  0  0  0  0  0
    2.8636   -0.7901    0.9827 H   0  0  0  0  0  0  0  0  0  0  0  0
    2.1575   -0.2455   -2.4970 H   0  0  0  0  0  0  0  0  0  0  0  0
    3.8006    0.0499   -2.9899 H   0  0  0  0  0  0  0  0  0  0  0  0
    3.2657   -2.2610   -3.3663 H   0  0  0  0  0  0  0  0  0  0  0  0
    4.6104   -2.1142   -2.2470 H   0  0  0  0  0  0  0  0  0  0  0  0
    2.5574   -2.6862    0.6757 H   0  0  0  0  0  0  0  0  0  0  0  0
    4.0104   -1.7899    0.0242 H   0  0  0  0  0  0  0  0  0  0  0  0
    5.2949   -3.4932   -0.1451 H   0  0  0  0  0  0  0  0  0  0  0  0
    4.4002   -3.7935    1.3706 H   0  0  0  0  0  0  0  0  0  0  0  0
    4.3519   -5.6505   -0.6491 H   0  0  0  0  0  0  0  0  0  0  0  0
    2.8924   -5.2908    0.3182 H   0  0  0  0  0  0  0  0  0  0  0  0
    3.3905   -4.5473   -2.5454 H   0  0  0  0  0  0  0  0  0  0  0  0
    1.8795   -4.6889   -1.6393 H   0  0  0  0  0  0  0  0  0  0  0  0
    5.4278    0.1016    0.9324 H   0  0  0  0  0  0  0  0  0  0  0  0
    7.2868    1.6941    1.1706 H   0  0  0  0  0  0  0  0  0  0  0  0
    7.5188    3.5854   -0.4241 H   0  0  0  0  0  0  0  0  0  0  0  0
    5.8719    3.8551   -2.2638 H   0  0  0  0  0  0  0  0  0  0  0  0
    3.9308    2.3429   -2.4173 H   0  0  0  0  0  0  0  0  0  0  0  0
  1  2  2  0  0  0  0
  1  7  1  0  0  0  0
  2  3  1  0  0  0  0
  2 22  1  0  0  0  0
  3  4  2  0  0  0  0
  3 23  1  0  0  0  0
  4  5  1  0  0  0  0
  4 24  1  0  0  0  0
  5  6  2  0  0  0  0
  5 25  1  0  0  0  0
  6  1  1  0  0  0  0
  6 26  1  0  0  0  0
  7  8  1  0  0  0  0
  7 27  1  0  0  0  0
  7 28  1  0  0  0  0
  8  9  1  0  0  0  0
  8 10  1  0  0  0  0
  9 17  2  0  0  0  0
 10 11  1  0  0  0  0
 10 29  1  0  0  0  0
 10 30  1  0  0  0  0
 11 12  1  0  0  0  0
 11 31  1  0  0  0  0
 11 32  1  0  0  0  0
 12 13  1  0  0  0  0
 12 16  1  0  0  0  0
 13 14  1  0  0  0  0
 13 33  1  0  0  0  0
 13 34  1  0  0  0  0
 14 15  1  0  0  0  0
 14 35  1  0  0  0  0
 14 36  1  0  0  0  0
 15 16  1  0  0  0  0
 15 37  1  0  0  0  0
 15 38  1  0  0  0  0
 16 39  1  0  0  0  0
 16 40  1  0  0  0  0
 17 18  1  0  0  0  0
 17 41  1  0  0  0  0
 18 19  2  0  0  0  0
 18 42  1  0  0  0  0
 19 20  1  0  0  0  0
 19 43  1  0  0  0  0
 20 21  2  0  0  0  0
 20 44  1  0  0  0  0
 21  9  1  0  0  0  0
 21 45  1  0  0  0  0
M  END
>  <DRUGBANK_ID>
DB13479

>  <COMMON_NAME>
Histapyrrodine

>  <CAS_NUMBER>
493-80-1

>  <UNII>
0FYM61NG4D

>  <SYNONYMS>
Histapyrrodine

$$$$
