
 OpenBabel10282417123D

 46 48  0  0  1  0  0  0  0  0999 V2000
   -0.0867    1.9771   -0.6271 C   0  0  0  0  0  0  0  0  0  0  0  0
   -2.6602    1.9134    0.2482 C   0  0  0  0  0  0  0  0  0  0  0  0
    1.7033   -2.8721   -4.0636 C   0  0  0  0  0  0  0  0  0  0  0  0
   -2.0295   -1.1836   -2.5570 C   0  0  0  0  0  0  0  0  0  0  0  0
   -1.2385    1.4058    0.2544 C   0  0  1  0  0  0  0  0  0  0  0  0
    0.7897    0.7590   -0.7966 C   0  0  2  0  0  0  0  0  0  0  0  0
   -0.8859   -2.2716   -3.9700 C   0  0  0  0  0  0  0  0  0  0  0  0
   -0.3895   -3.0653   -5.0200 C   0  0  0  0  0  0  0  0  0  0  0  0
    0.0461   -1.7483   -3.0654 C   0  0  0  0  0  0  0  0  0  0  0  0
   -0.3635   -0.2313   -1.0047 C   0  0  2  0  0  0  0  0  0  0  0  0
   -1.2231   -3.5479   -6.0125 N   0  0  0  0  0  0  0  0  0  0  0  0
    0.9184   -3.3653   -5.0475 N   0  0  0  0  0  0  0  0  0  0  0  0
    1.3462   -2.0255   -3.0664 N   0  0  0  0  0  0  0  0  0  0  0  0
   -2.1511   -1.9031   -3.6645 N   0  0  0  0  0  0  0  0  0  0  0  0
   -0.7103   -0.9590   -2.2105 N   0  0  0  0  0  0  0  0  0  0  0  0
    1.5078    0.7007    0.4748 O   0  0  0  0  0  0  0  0  0  0  0  0
    0.4755   -2.7988    1.4944 O   0  0  0  0  0  0  0  0  0  0  0  0
    0.9021   -4.0968   -0.5261 O   0  0  0  0  0  0  0  0  0  0  0  0
    1.2774   -1.7643   -0.4613 O   0  0  0  0  0  0  0  0  0  0  0  0
   -4.4322   -0.1826   -0.1671 O   0  0  0  0  0  0  0  0  0  0  0  0
   -2.4097   -0.7157    1.7600 O   0  0  0  0  0  0  0  0  0  0  0  0
   -3.2172   -4.0565    1.5107 O   0  0  0  0  0  0  0  0  0  0  0  0
   -3.0794   -3.3050   -0.8838 O   0  0  0  0  0  0  0  0  0  0  0  0
   -3.6372    1.1743    1.0829 O   0  0  0  0  0  0  0  0  0  0  0  0
   -1.5592    0.2371   -0.4686 O   0  0  0  0  0  0  0  0  0  0  0  0
   -1.1797   -3.7991    0.2935 O   0  0  0  0  0  0  0  0  0  0  0  0
   -4.0889   -1.9796    0.7375 O   0  0  0  0  0  0  0  0  0  0  0  0
    0.1170   -2.7253   -0.1048 P   0  0  0  0  0  0  0  0  0  0  0  0
   -3.8115   -0.4512    1.3489 P   0  0  3  0  0  0  0  0  0  0  0  0
   -2.6343   -2.8894    0.5155 P   0  0  3  0  0  0  0  0  0  0  0  0
   -0.8768    1.1585    1.2674 H   0  0  0  0  0  0  0  0  0  0  0  0
    1.5454    0.6981   -1.5856 H   0  0  0  0  0  0  0  0  0  0  0  0
   -0.3227   -0.8144   -0.1230 H   0  0  0  0  0  0  0  0  0  0  0  0
    0.4746    2.7933   -0.1728 H   0  0  0  0  0  0  0  0  0  0  0  0
   -0.4353    2.2281   -1.6298 H   0  0  0  0  0  0  0  0  0  0  0  0
   -2.6494    2.9594    0.5469 H   0  0  0  0  0  0  0  0  0  0  0  0
   -3.0234    1.8581   -0.7889 H   0  0  0  0  0  0  0  0  0  0  0  0
    2.7380   -3.1921   -4.0841 H   0  0  0  0  0  0  0  0  0  0  0  0
   -2.8628   -0.8520   -1.9704 H   0  0  0  0  0  0  0  0  0  0  0  0
   -2.1680   -3.1899   -6.0198 H   0  0  0  0  0  0  0  0  0  0  0  0
   -0.7800   -3.8671   -6.8619 H   0  0  0  0  0  0  0  0  0  0  0  0
    1.2747   -0.0975    0.9812 H   0  0  0  0  0  0  0  0  0  0  0  0
    0.2378   -2.0163    2.0174 H   0  0  0  0  0  0  0  0  0  0  0  0
    0.3380   -4.6351   -1.1132 H   0  0  0  0  0  0  0  0  0  0  0  0
   -5.3730    0.0670   -0.1236 H   0  0  0  0  0  0  0  0  0  0  0  0
   -2.9252   -3.9896    2.4335 H   0  0  0  0  0  0  0  0  0  0  0  0
  1 34  1  0  0  0  0
  1 35  1  0  0  0  0
  2 36  1  0  0  0  0
  2 37  1  0  0  0  0
  3 38  1  0  0  0  0
  4 39  1  0  0  0  0
  5  1  1  0  0  0  0
  5  2  1  0  0  0  0
  5 31  1  1  0  0  0
  6  1  1  0  0  0  0
  6 16  1  0  0  0  0
  6 32  1  6  0  0  0
  8  7  2  0  0  0  0
  9  7  1  0  0  0  0
 10  6  1  0  0  0  0
 10 15  1  0  0  0  0
 10 33  1  1  0  0  0
 11  8  1  0  0  0  0
 11 40  1  0  0  0  0
 11 41  1  0  0  0  0
 12  3  2  0  0  0  0
 12  8  1  0  0  0  0
 13  3  1  0  0  0  0
 13  9  2  0  0  0  0
 14  4  2  0  0  0  0
 14  7  1  0  0  0  0
 15  4  1  0  0  0  0
 15  9  1  0  0  0  0
 16 42  1  0  0  0  0
 17 43  1  0  0  0  0
 18 44  1  0  0  0  0
 20 45  1  0  0  0  0
 22 46  1  0  0  0  0
 24  2  1  0  0  0  0
 25  5  1  0  0  0  0
 25 10  1  0  0  0  0
 28 17  1  0  0  0  0
 28 18  1  0  0  0  0
 28 19  2  0  0  0  0
 28 26  1  0  0  0  0
 29 20  1  0  0  0  0
 29 21  2  0  0  0  0
 29 24  1  0  0  0  0
 29 27  1  0  0  0  0
 30 22  1  0  0  0  0
 30 23  2  0  0  0  0
 30 26  1  0  0  0  0
 30 27  1  0  0  0  0
M  END
>  <DRUGBANK_ID>
DB01860

>  <SECONDARY_ACCESSION_NUMBERS>
EXPT00163

>  <COMMON_NAME>
Cordycepin Triphosphate

>  <CAS_NUMBER>
73-04-1

>  <UNII>
59P84ZU54H

$$$$
