
 OpenBabel10282417233D

 43 44  0  0  0  0  0  0  0  0999 V2000
    1.3126   -0.2478    0.1974 C   0  0  0  0  0  0  0  0  0  0  0  0
    0.4168   -1.3177    0.0481 C   0  0  0  0  0  0  0  0  0  0  0  0
    0.7322    1.0001    0.3206 C   0  0  0  0  0  0  0  0  0  0  0  0
    2.7983   -0.4825    0.2242 C   0  0  0  0  0  0  0  0  0  0  0  0
   -0.9889   -1.0968   -0.0289 C   0  0  0  0  0  0  0  0  0  0  0  0
   -0.6163    1.2238    0.2071 C   0  0  0  0  0  0  0  0  0  0  0  0
    3.7102    0.5273    0.1728 O   0  0  0  0  0  0  0  0  0  0  0  0
    3.2039   -1.6487    0.2793 O   0  0  0  0  0  0  0  0  0  0  0  0
   -1.5102    0.2044   -0.0045 C   0  0  0  0  0  0  0  0  0  0  0  0
    3.4397    1.9337    0.0078 C   0  0  0  0  0  0  0  0  0  0  0  0
   -2.8815    0.5209   -0.1740 N   0  0  0  0  0  0  0  0  0  0  0  0
    2.8295    2.2130   -1.3679 C   0  0  0  0  0  0  0  0  0  0  0  0
   -3.3578    1.8353   -0.3034 C   0  0  0  0  0  0  0  0  0  0  0  0
   -4.8691    2.0127   -0.4089 C   0  0  0  0  0  0  0  0  0  0  0  0
   -2.6589    2.8498   -0.3647 O   0  0  0  0  0  0  0  0  0  0  0  0
   -5.3345    2.8303    0.7321 N   0  0  0  0  0  0  0  0  0  0  0  0
   -5.1478    4.2745    0.4705 C   0  0  0  0  0  0  0  0  0  0  0  0
   -6.7342    2.5628    1.0638 C   0  0  0  0  0  0  0  0  0  0  0  0
   -5.4716    5.0972    1.7161 C   0  0  0  0  0  0  0  0  0  0  0  0
   -7.1267    3.3203    2.3357 C   0  0  0  0  0  0  0  0  0  0  0  0
   -6.8902    4.8211    2.1941 C   0  0  0  0  0  0  0  0  0  0  0  0
    0.8090   -2.3340   -0.0118 H   0  0  0  0  0  0  0  0  0  0  0  0
    1.2252    1.9391    0.4412 H   0  0  0  0  0  0  0  0  0  0  0  0
   -1.6378   -1.9638   -0.1101 H   0  0  0  0  0  0  0  0  0  0  0  0
   -0.8808    2.2666    0.3024 H   0  0  0  0  0  0  0  0  0  0  0  0
    2.8868    2.2800    0.8886 H   0  0  0  0  0  0  0  0  0  0  0  0
    4.3735    2.4936    0.1005 H   0  0  0  0  0  0  0  0  0  0  0  0
   -3.5287   -0.2499   -0.2654 H   0  0  0  0  0  0  0  0  0  0  0  0
    2.0525    1.5033   -1.6722 H   0  0  0  0  0  0  0  0  0  0  0  0
    2.3930    3.2149   -1.4112 H   0  0  0  0  0  0  0  0  0  0  0  0
    3.5914    2.1027   -2.1402 H   0  0  0  0  0  0  0  0  0  0  0  0
   -5.0636    2.5132   -1.3663 H   0  0  0  0  0  0  0  0  0  0  0  0
   -5.3466    1.0299   -0.4437 H   0  0  0  0  0  0  0  0  0  0  0  0
   -5.7878    4.5974   -0.3617 H   0  0  0  0  0  0  0  0  0  0  0  0
   -4.1210    4.5181    0.1867 H   0  0  0  0  0  0  0  0  0  0  0  0
   -6.8771    1.4915    1.2461 H   0  0  0  0  0  0  0  0  0  0  0  0
   -7.3925    2.8489    0.2340 H   0  0  0  0  0  0  0  0  0  0  0  0
   -5.3539    6.1645    1.4952 H   0  0  0  0  0  0  0  0  0  0  0  0
   -4.7564    4.8552    2.5128 H   0  0  0  0  0  0  0  0  0  0  0  0
   -6.5399    2.9414    3.1830 H   0  0  0  0  0  0  0  0  0  0  0  0
   -8.1806    3.1335    2.5665 H   0  0  0  0  0  0  0  0  0  0  0  0
   -7.0678    5.3259    3.1497 H   0  0  0  0  0  0  0  0  0  0  0  0
   -7.6029    5.2355    1.4709 H   0  0  0  0  0  0  0  0  0  0  0  0
  1  2  1  0  0  0  0
  1  3  2  0  0  0  0
  1  4  1  0  0  0  0
  2  5  2  0  0  0  0
  2 22  1  0  0  0  0
  3  6  1  0  0  0  0
  3 23  1  0  0  0  0
  4  7  1  0  0  0  0
  4  8  2  0  0  0  0
  5  9  1  0  0  0  0
  5 24  1  0  0  0  0
  6  9  2  0  0  0  0
  6 25  1  0  0  0  0
  7 10  1  0  0  0  0
  9 11  1  0  0  0  0
 10 12  1  0  0  0  0
 10 26  1  0  0  0  0
 10 27  1  0  0  0  0
 11 13  1  0  0  0  0
 11 28  1  0  0  0  0
 12 29  1  0  0  0  0
 12 30  1  0  0  0  0
 12 31  1  0  0  0  0
 13 14  1  0  0  0  0
 13 15  2  0  0  0  0
 14 16  1  0  0  0  0
 14 32  1  0  0  0  0
 14 33  1  0  0  0  0
 16 17  1  0  0  0  0
 16 18  1  0  0  0  0
 17 19  1  0  0  0  0
 17 34  1  0  0  0  0
 17 35  1  0  0  0  0
 18 20  1  0  0  0  0
 18 36  1  0  0  0  0
 18 37  1  0  0  0  0
 19 21  1  0  0  0  0
 19 38  1  0  0  0  0
 19 39  1  0  0  0  0
 20 21  1  0  0  0  0
 20 40  1  0  0  0  0
 20 41  1  0  0  0  0
 21 42  1  0  0  0  0
 21 43  1  0  0  0  0
M  END
>  <DRUGBANK_ID>
DB16527

>  <COMMON_NAME>
Ethyl piperidinoacetylaminobenzoate

>  <CAS_NUMBER>
41653-21-8

>  <UNII>
6M452G7O1F

>  <SYNONYMS>
EPAB; Ethyl p-(piperidinoacetylamino)benzoate; Ethyl piperidinoacetylaminobenzoate; Sulcain; Sulcaine

$$$$
