N41
 OpenBabel10282417173D

 49 52  0  0  0  0  0  0  0  0999 V2000
   -1.9636   -0.7120    0.2098 C   0  0  0  0  0  0  0  0  0  0  0  0
   -2.2480    3.3845    0.1674 C   0  0  0  0  0  0  0  0  0  0  0  0
   -3.0962    3.1779   -1.1161 C   0  0  0  0  0  0  0  0  0  0  0  0
   -4.3220    4.0972   -1.1646 C   0  0  0  0  0  0  0  0  0  0  0  0
   -5.2264    3.7464   -2.3551 C   0  0  0  0  0  0  0  0  0  0  0  0
   -5.6931    2.2924   -2.3263 C   0  0  0  0  0  0  0  0  0  0  0  0
   -4.5073    1.3674   -2.3226 C   0  0  0  0  0  0  0  0  0  0  0  0
   -3.5724    1.7371   -1.2128 C   0  0  0  0  0  0  0  0  0  0  0  0
   -3.5789   -4.8850   -1.1951 C   0  0  0  0  0  0  0  0  0  0  0  0
   -2.8579   -5.5595   -0.1928 C   0  0  0  0  0  0  0  0  0  0  0  0
   -2.4188   -4.8449    0.9196 C   0  0  0  0  0  0  0  0  0  0  0  0
   -2.6662   -3.4870    1.0111 C   0  0  0  0  0  0  0  0  0  0  0  0
   -1.9189   -7.6432    0.6982 N   0  0  0  0  0  0  0  0  0  0  0  0
   -1.9961    0.6129    0.4759 N   0  0  0  0  0  0  0  0  0  0  0  0
   -0.8819    1.3774    0.2717 C   0  0  0  0  0  0  0  0  0  0  0  0
   -0.9585    2.7537    0.1471 O   0  0  0  0  0  0  0  0  0  0  0  0
    0.3376    0.7284    0.0974 C   0  0  0  0  0  0  0  0  0  0  0  0
    1.6486    1.1382   -0.0081 N   0  0  0  0  0  0  0  0  0  0  0  0
    1.5484   -1.0835   -0.0136 N   0  0  0  0  0  0  0  0  0  0  0  0
    0.2613   -0.6469    0.0287 C   0  0  0  0  0  0  0  0  0  0  0  0
   -0.8297   -1.4094    0.0235 N   0  0  0  0  0  0  0  0  0  0  0  0
   -3.1844   -1.3903    0.0152 N   0  0  0  0  0  0  0  0  0  0  0  0
   -3.3006   -2.7854   -0.0163 C   0  0  0  0  0  0  0  0  0  0  0  0
   -3.8369   -3.5037   -1.0899 C   0  0  0  0  0  0  0  0  0  0  0  0
   -2.5972   -7.0205   -0.3137 C   0  0  0  0  0  0  0  0  0  0  0  0
    2.3496    0.0232   -0.0070 C   0  0  0  0  0  0  0  0  0  0  0  0
   -2.9910   -7.6672   -1.2846 O   0  0  0  0  0  0  0  0  0  0  0  0
   -2.7874    3.1172    1.0835 H   0  0  0  0  0  0  0  0  0  0  0  0
   -2.0355    4.4602    0.2492 H   0  0  0  0  0  0  0  0  0  0  0  0
   -2.4596    3.3804   -1.9869 H   0  0  0  0  0  0  0  0  0  0  0  0
   -4.8961    4.0062   -0.2335 H   0  0  0  0  0  0  0  0  0  0  0  0
   -4.0023    5.1426   -1.2439 H   0  0  0  0  0  0  0  0  0  0  0  0
   -6.1012    4.4012   -2.3618 H   0  0  0  0  0  0  0  0  0  0  0  0
   -4.6713    3.9221   -3.2851 H   0  0  0  0  0  0  0  0  0  0  0  0
   -6.2996    2.1106   -1.4303 H   0  0  0  0  0  0  0  0  0  0  0  0
   -6.3085    2.0595   -3.1990 H   0  0  0  0  0  0  0  0  0  0  0  0
   -4.8145    0.3230   -2.1843 H   0  0  0  0  0  0  0  0  0  0  0  0
   -3.9540    1.4199   -3.2658 H   0  0  0  0  0  0  0  0  0  0  0  0
   -2.7066    1.1294   -1.4506 H   0  0  0  0  0  0  0  0  0  0  0  0
   -4.0468    1.4652   -0.2577 H   0  0  0  0  0  0  0  0  0  0  0  0
   -3.9074   -5.4299   -2.0808 H   0  0  0  0  0  0  0  0  0  0  0  0
   -1.8453   -5.2849    1.7219 H   0  0  0  0  0  0  0  0  0  0  0  0
   -2.3008   -2.9367    1.8751 H   0  0  0  0  0  0  0  0  0  0  0  0
   -1.7900   -8.6433    0.6302 H   0  0  0  0  0  0  0  0  0  0  0  0
   -1.5849   -7.1946    1.5369 H   0  0  0  0  0  0  0  0  0  0  0  0
    1.8308   -2.0516    0.0099 H   0  0  0  0  0  0  0  0  0  0  0  0
   -4.0012   -0.8132   -0.0916 H   0  0  0  0  0  0  0  0  0  0  0  0
   -4.3866   -3.0086   -1.8876 H   0  0  0  0  0  0  0  0  0  0  0  0
    3.4280   -0.0457    0.0152 H   0  0  0  0  0  0  0  0  0  0  0  0
  1 14  2  0  0  0  0
  1 21  1  0  0  0  0
  1 22  1  0  0  0  0
  2  3  1  0  0  0  0
  2 16  1  0  0  0  0
  2 28  1  0  0  0  0
  2 29  1  0  0  0  0
  3  4  1  0  0  0  0
  3  8  1  0  0  0  0
  3 30  1  0  0  0  0
  4  5  1  0  0  0  0
  4 31  1  0  0  0  0
  4 32  1  0  0  0  0
  5  6  1  0  0  0  0
  5 33  1  0  0  0  0
  5 34  1  0  0  0  0
  6  7  1  0  0  0  0
  6 35  1  0  0  0  0
  6 36  1  0  0  0  0
  7  8  1  0  0  0  0
  7 37  1  0  0  0  0
  7 38  1  0  0  0  0
  8 39  1  0  0  0  0
  8 40  1  0  0  0  0
  9 10  2  0  0  0  0
  9 24  1  0  0  0  0
  9 41  1  0  0  0  0
 10 11  1  0  0  0  0
 10 25  1  0  0  0  0
 11 12  2  0  0  0  0
 11 42  1  0  0  0  0
 12 23  1  0  0  0  0
 12 43  1  0  0  0  0
 13 25  1  0  0  0  0
 13 44  1  0  0  0  0
 13 45  1  0  0  0  0
 14 15  1  0  0  0  0
 15 16  1  0  0  0  0
 15 17  2  0  0  0  0
 17 18  1  0  0  0  0
 17 20  1  0  0  0  0
 18 26  2  0  0  0  0
 19 20  1  0  0  0  0
 19 26  1  0  0  0  0
 19 46  1  0  0  0  0
 20 21  2  0  0  0  0
 22 23  1  0  0  0  0
 22 47  1  0  0  0  0
 23 24  2  0  0  0  0
 24 48  1  0  0  0  0
 25 27  2  0  0  0  0
 26 49  1  0  0  0  0
M  END
>  <DRUGBANK_ID>
DB08241

>  <COMMON_NAME>
4-(6-CYCLOHEXYLMETHOXY-9H-PURIN-2-YLAMINO)--BENZAMIDE

$$$$
