MD7
 OpenBabel10282417173D

 39 41  0  0  0  0  0  0  0  0999 V2000
    0.0071    0.8354   -0.0951 C   0  0  0  0  0  0  0  0  0  0  0  0
    0.8653   -0.3944    0.0124 C   0  0  0  0  0  0  0  0  0  0  0  0
   -0.6120   -0.5430   -0.1842 C   0  0  0  0  0  0  0  0  0  0  0  0
   -1.3721   -1.1311    0.9306 C   0  0  0  0  0  0  0  0  0  0  0  0
   -1.6942   -0.1786    1.8559 O   0  0  0  0  0  0  0  0  0  0  0  0
   -1.7049   -2.4506    1.0221 C   0  0  0  0  0  0  0  0  0  0  0  0
   -0.8780   -3.3134    0.2309 C   0  0  0  0  0  0  0  0  0  0  0  0
   -0.0834   -3.8889   -0.4104 N   0  0  0  0  0  0  0  0  0  0  0  0
   -2.7064   -3.1624    1.9326 C   0  0  0  0  0  0  0  0  0  0  0  0
   -2.6475   -4.3917    2.0474 O   0  0  0  0  0  0  0  0  0  0  0  0
   -3.6914   -2.5216    2.6659 N   0  0  0  0  0  0  0  0  0  0  0  0
   -4.2191   -1.2229    2.5466 C   0  0  0  0  0  0  0  0  0  0  0  0
   -4.3222   -0.6296    1.2872 C   0  0  0  0  0  0  0  0  0  0  0  0
   -4.2953    0.7643    1.1663 C   0  0  0  0  0  0  0  0  0  0  0  0
   -4.2670   -0.4148    3.6963 C   0  0  0  0  0  0  0  0  0  0  0  0
   -4.3682    0.9812    3.5592 C   0  0  0  0  0  0  0  0  0  0  0  0
   -4.3010    1.5941    2.2966 C   0  0  0  0  0  0  0  0  0  0  0  0
   -4.2846    3.0585    2.1553 C   0  0  0  0  0  0  0  0  0  0  0  0
   -5.2649    3.6558    1.3514 C   0  0  0  0  0  0  0  0  0  0  0  0
   -5.4153    5.0381    1.2976 C   0  0  0  0  0  0  0  0  0  0  0  0
   -4.5796    5.8555    2.0499 C   0  0  0  0  0  0  0  0  0  0  0  0
   -3.5890    5.2874    2.8490 C   0  0  0  0  0  0  0  0  0  0  0  0
   -3.3996    3.8992    2.8543 C   0  0  0  0  0  0  0  0  0  0  0  0
   -0.1069    1.4581    0.7875 H   0  0  0  0  0  0  0  0  0  0  0  0
    0.0138    1.4206   -1.0088 H   0  0  0  0  0  0  0  0  0  0  0  0
    1.4829   -0.7192   -0.8117 H   0  0  0  0  0  0  0  0  0  0  0  0
    1.2689   -0.6410    0.9907 H   0  0  0  0  0  0  0  0  0  0  0  0
   -1.0516   -0.7363   -1.1587 H   0  0  0  0  0  0  0  0  0  0  0  0
   -2.2695   -0.5754    2.5129 H   0  0  0  0  0  0  0  0  0  0  0  0
   -4.1665   -3.1392    3.3227 H   0  0  0  0  0  0  0  0  0  0  0  0
   -4.1628   -1.2187    0.3883 H   0  0  0  0  0  0  0  0  0  0  0  0
   -4.1244    1.1955    0.1802 H   0  0  0  0  0  0  0  0  0  0  0  0
   -4.0161   -0.8035    4.6849 H   0  0  0  0  0  0  0  0  0  0  0  0
   -4.4466    1.6074    4.4469 H   0  0  0  0  0  0  0  0  0  0  0  0
   -5.9455    3.0263    0.7833 H   0  0  0  0  0  0  0  0  0  0  0  0
   -6.2115    5.4642    0.6953 H   0  0  0  0  0  0  0  0  0  0  0  0
   -4.6999    6.9346    2.0097 H   0  0  0  0  0  0  0  0  0  0  0  0
   -2.9823    5.9284    3.4850 H   0  0  0  0  0  0  0  0  0  0  0  0
   -2.5616    3.4891    3.4162 H   0  0  0  0  0  0  0  0  0  0  0  0
  1  2  1  0  0  0  0
  1  3  1  0  0  0  0
  1 24  1  0  0  0  0
  1 25  1  0  0  0  0
  2  3  1  0  0  0  0
  2 26  1  0  0  0  0
  2 27  1  0  0  0  0
  3  4  1  0  0  0  0
  3 28  1  0  0  0  0
  4  5  1  0  0  0  0
  4  6  2  0  0  0  0
  5 29  1  0  0  0  0
  6  7  1  0  0  0  0
  6  9  1  0  0  0  0
  7  8  3  0  0  0  0
  9 10  2  0  0  0  0
  9 11  1  0  0  0  0
 11 12  1  0  0  0  0
 11 30  1  0  0  0  0
 12 13  2  0  0  0  0
 12 15  1  0  0  0  0
 13 14  1  0  0  0  0
 13 31  1  0  0  0  0
 14 17  2  0  0  0  0
 14 32  1  0  0  0  0
 15 16  2  0  0  0  0
 15 33  1  0  0  0  0
 16 17  1  0  0  0  0
 16 34  1  0  0  0  0
 17 18  1  0  0  0  0
 18 19  2  0  0  0  0
 18 23  1  0  0  0  0
 19 20  1  0  0  0  0
 19 35  1  0  0  0  0
 20 21  2  0  0  0  0
 20 36  1  0  0  0  0
 21 22  1  0  0  0  0
 21 37  1  0  0  0  0
 22 23  2  0  0  0  0
 22 38  1  0  0  0  0
 23 39  1  0  0  0  0
M  END
>  <DRUGBANK_ID>
DB08169

>  <COMMON_NAME>
(2Z)-N-biphenyl-4-yl-2-cyano-3-cyclopropyl-3-hydroxyprop-2-enamide

$$$$
