
 OpenBabel10282417133D

 84 90  0  0  1  0  0  0  0  0999 V2000
    0.8462    0.4096    0.0326 C   0  0  0  0  0  0  0  0  0  0  0  0
    0.3716    0.9235   -1.9095 N   0  0  0  0  0  0  0  0  0  0  0  0
   -0.7487   -0.5395   -2.8133 C   0  0  0  0  0  0  0  0  0  0  0  0
   -1.6896   -1.6039   -1.2859 C   0  0  0  0  0  0  0  0  0  0  0  0
   -0.8617   -3.2217   -0.7146 C   0  0  0  0  0  0  0  0  0  0  0  0
   -0.0599   -3.9051   -2.2611 N   0  0  0  0  0  0  0  0  0  0  0  0
    0.8243   -2.8880   -3.5577 C   0  0  0  0  0  0  0  0  0  0  0  0
    0.1016   -1.4766   -3.9289 C   0  0  0  0  0  0  0  0  0  0  0  0
    0.1525   -5.2224   -2.1775 C   0  0  0  0  0  0  0  0  0  0  0  0
   -0.2913   -5.8951   -1.2649 O   0  0  0  0  0  0  0  0  0  0  0  0
    0.7795   -5.7433   -3.3612 C   0  0  0  0  0  0  0  0  0  0  0  0
   -0.1237   -6.3428   -4.2168 C   0  0  0  0  0  0  0  0  0  0  0  0
    0.3866   -7.0473   -5.2772 C   0  0  0  0  0  0  0  0  0  0  0  0
   -0.4687   -7.8311   -6.0443 C   0  0  0  0  0  0  0  0  0  0  0  0
    0.0612   -8.6225   -7.0529 C   0  0  0  0  0  0  0  0  0  0  0  0
    1.4323   -8.6096   -7.3083 C   0  0  0  0  0  0  0  0  0  0  0  0
    2.2890   -7.8080   -6.5554 C   0  0  0  0  0  0  0  0  0  0  0  0
    1.7837   -7.0162   -5.5319 C   0  0  0  0  0  0  0  0  0  0  0  0
    2.6420   -6.2260   -4.7538 C   0  0  0  0  0  0  0  0  0  0  0  0
    2.1408   -5.5901   -3.6371 C   0  0  0  0  0  0  0  0  0  0  0  0
    0.6790    2.1741   -2.5519 C   0  0  0  0  0  0  0  0  0  0  0  0
    1.1401    3.2530   -2.1971 O   0  0  0  0  0  0  0  0  0  0  0  0
    0.2442    2.1472   -3.8307 C   0  0  0  0  0  0  0  0  0  0  0  0
    1.2175    2.6734   -4.6498 C   0  0  0  0  0  0  0  0  0  0  0  0
    0.6966    3.1475   -5.7722 C   0  0  0  0  0  0  0  0  0  0  0  0
    1.5541    3.8596   -6.5770 C   0  0  0  0  0  0  0  0  0  0  0  0
    1.0165    4.3285   -7.7469 C   0  0  0  0  0  0  0  0  0  0  0  0
   -0.3334    4.0924   -8.0529 C   0  0  0  0  0  0  0  0  0  0  0  0
   -1.1890    3.4028   -7.1996 C   0  0  0  0  0  0  0  0  0  0  0  0
   -0.6969    2.9138   -6.0338 C   0  0  0  0  0  0  0  0  0  0  0  0
   -1.5866    2.2526   -5.1587 C   0  0  0  0  0  0  0  0  0  0  0  0
   -1.1227    1.9289   -3.9379 C   0  0  0  0  0  0  0  0  0  0  0  0
   -2.0257    1.3285   -2.7751 C   0  0  0  0  0  0  0  0  0  0  0  0
   -3.2157    1.0897   -3.0032 O   0  0  0  0  0  0  0  0  0  0  0  0
   -1.3048    0.6737   -1.3679 C   0  0  1  0  0  0  0  0  0  0  0  0
    0.3359   -0.6921   -1.3085 C   0  0  0  0  0  0  0  0  0  0  0  0
    0.5353   -1.9309   -1.5725 C   0  0  0  0  0  0  0  0  0  0  0  0
    1.6053   -2.6074   -1.0047 C   0  0  0  0  0  0  0  0  0  0  0  0
    2.8356   -2.2606   -1.3935 C   0  0  0  0  0  0  0  0  0  0  0  0
    3.0378   -0.9849   -1.8064 C   0  0  0  0  0  0  0  0  0  0  0  0
    4.2222   -0.4705   -2.2673 C   0  0  0  0  0  0  0  0  0  0  0  0
    4.4570    0.9191   -2.4093 C   0  0  0  0  0  0  0  0  0  0  0  0
    3.5802    1.8537   -2.0579 C   0  0  0  0  0  0  0  0  0  0  0  0
    2.5803    1.2212   -1.4649 C   0  0  0  0  0  0  0  0  0  0  0  0
    2.0068   -0.1681   -1.6221 C   0  0  0  0  0  0  0  0  0  0  0  0
   -0.6887    2.1387   -0.4607 P   0  0  0  0  0  0  0  0  0  0  0  0
    0.5172    2.1318    0.6741 O   0  0  0  0  0  0  0  0  0  0  0  0
   -1.2613    3.3407   -1.3852 O   0  0  0  0  0  0  0  0  0  0  0  0
   -0.1674    3.3782    0.3069 O   0  0  0  0  0  0  0  0  0  0  0  0
    0.7212   -0.7024    0.4296 H   0  0  0  0  0  0  0  0  0  0  0  0
    0.1071    0.4596    0.8993 H   0  0  0  0  0  0  0  0  0  0  0  0
    1.9390    0.3136    0.3575 H   0  0  0  0  0  0  0  0  0  0  0  0
   -1.4642   -0.2539   -3.5775 H   0  0  0  0  0  0  0  0  0  0  0  0
   -1.6149   -1.1131   -0.2230 H   0  0  0  0  0  0  0  0  0  0  0  0
   -2.7150   -1.8519   -1.4823 H   0  0  0  0  0  0  0  0  0  0  0  0
   -0.0754   -2.8179    0.1442 H   0  0  0  0  0  0  0  0  0  0  0  0
   -1.1354   -3.9254    0.1007 H   0  0  0  0  0  0  0  0  0  0  0  0
    1.2674   -3.4598   -4.3713 H   0  0  0  0  0  0  0  0  0  0  0  0
    1.8315   -2.4840   -3.2966 H   0  0  0  0  0  0  0  0  0  0  0  0
   -0.7041   -1.8543   -4.5416 H   0  0  0  0  0  0  0  0  0  0  0  0
    0.7886   -0.7552   -4.4001 H   0  0  0  0  0  0  0  0  0  0  0  0
   -1.1847   -6.2924   -3.9790 H   0  0  0  0  0  0  0  0  0  0  0  0
   -1.5372   -7.8572   -5.8422 H   0  0  0  0  0  0  0  0  0  0  0  0
   -0.5988   -9.2575   -7.6341 H   0  0  0  0  0  0  0  0  0  0  0  0
    1.8404   -9.2290   -8.0998 H   0  0  0  0  0  0  0  0  0  0  0  0
    3.3563   -7.8271   -6.7525 H   0  0  0  0  0  0  0  0  0  0  0  0
    3.7012   -6.1447   -4.9804 H   0  0  0  0  0  0  0  0  0  0  0  0
    2.7866   -4.9703   -3.0213 H   0  0  0  0  0  0  0  0  0  0  0  0
    2.2317    2.8676   -4.2887 H   0  0  0  0  0  0  0  0  0  0  0  0
    2.5969    4.0359   -6.3090 H   0  0  0  0  0  0  0  0  0  0  0  0
    1.6542    4.8736   -8.4283 H   0  0  0  0  0  0  0  0  0  0  0  0
   -0.7401    4.4552   -8.9838 H   0  0  0  0  0  0  0  0  0  0  0  0
   -2.2352    3.2536   -7.4253 H   0  0  0  0  0  0  0  0  0  0  0  0
   -2.6196    2.0358   -5.3836 H   0  0  0  0  0  0  0  0  0  0  0  0
   -2.1516    0.4242   -0.7136 H   0  0  0  0  0  0  0  0  0  0  0  0
   -0.3737   -2.2680   -2.1900 H   0  0  0  0  0  0  0  0  0  0  0  0
    1.4928   -3.6575   -0.7829 H   0  0  0  0  0  0  0  0  0  0  0  0
    3.4199   -3.1202   -1.6373 H   0  0  0  0  0  0  0  0  0  0  0  0
    4.9734   -1.2087   -2.4134 H   0  0  0  0  0  0  0  0  0  0  0  0
    5.4169    1.3172   -2.6130 H   0  0  0  0  0  0  0  0  0  0  0  0
    3.5699    2.9431   -2.0808 H   0  0  0  0  0  0  0  0  0  0  0  0
    1.9989    1.9819   -0.9640 H   0  0  0  0  0  0  0  0  0  0  0  0
    1.4834    2.2457    0.5584 H   0  0  0  0  0  0  0  0  0  0  0  0
   -1.6563    3.2874   -2.2615 H   0  0  0  0  0  0  0  0  0  0  0  0
  1  2  1  0  0  0  0
  1 50  1  0  0  0  0
  1 51  1  0  0  0  0
  1 52  1  0  0  0  0
  2  3  1  0  0  0  0
  2 21  1  0  0  0  0
  3  4  1  0  0  0  0
  3  8  1  0  0  0  0
  3 53  1  0  0  0  0
  4  5  1  0  0  0  0
  4 54  1  0  0  0  0
  4 55  1  0  0  0  0
  5  6  1  0  0  0  0
  5 56  1  0  0  0  0
  5 57  1  0  0  0  0
  6  7  1  0  0  0  0
  6  9  1  0  0  0  0
  7  8  1  0  0  0  0
  7 58  1  0  0  0  0
  7 59  1  0  0  0  0
  8 60  1  0  0  0  0
  8 61  1  0  0  0  0
  9 10  2  0  0  0  0
  9 11  1  0  0  0  0
 11 12  2  0  0  0  0
 11 20  1  0  0  0  0
 12 13  1  0  0  0  0
 12 62  1  0  0  0  0
 13 14  2  0  0  0  0
 13 18  1  0  0  0  0
 14 15  1  0  0  0  0
 14 63  1  0  0  0  0
 15 16  2  0  0  0  0
 15 64  1  0  0  0  0
 16 17  1  0  0  0  0
 16 65  1  0  0  0  0
 17 18  2  0  0  0  0
 17 66  1  0  0  0  0
 18 19  1  0  0  0  0
 19 20  2  0  0  0  0
 19 67  1  0  0  0  0
 20 68  1  0  0  0  0
 21 22  2  0  0  0  0
 21 23  1  0  0  0  0
 23 24  2  0  0  0  0
 23 32  1  0  0  0  0
 24 25  1  0  0  0  0
 24 69  1  0  0  0  0
 25 26  2  0  0  0  0
 25 30  1  0  0  0  0
 26 27  1  0  0  0  0
 26 70  1  0  0  0  0
 27 28  2  0  0  0  0
 27 71  1  0  0  0  0
 28 29  1  0  0  0  0
 28 72  1  0  0  0  0
 29 30  2  0  0  0  0
 29 73  1  0  0  0  0
 30 31  1  0  0  0  0
 31 32  2  0  0  0  0
 31 74  1  0  0  0  0
 32 33  1  0  0  0  0
 33 34  2  0  0  0  0
 33 35  1  0  0  0  0
 35 36  1  0  0  0  0
 35 46  1  0  0  0  0
 35 75  1  1  0  0  0
 36 37  2  0  0  0  0
 36 45  1  0  0  0  0
 37 38  1  0  0  0  0
 37 76  1  0  0  0  0
 38 39  2  0  0  0  0
 38 77  1  0  0  0  0
 39 40  1  0  0  0  0
 39 78  1  0  0  0  0
 40 41  2  0  0  0  0
 40 45  1  0  0  0  0
 41 42  1  0  0  0  0
 41 79  1  0  0  0  0
 42 43  2  0  0  0  0
 42 80  1  0  0  0  0
 43 44  1  0  0  0  0
 43 81  1  0  0  0  0
 44 45  2  0  0  0  0
 44 82  1  0  0  0  0
 46 47  1  0  0  0  0
 46 48  1  0  0  0  0
 46 49  2  0  0  0  0
 47 83  1  0  0  0  0
 48 84  1  0  0  0  0
M  END
>  <DRUGBANK_ID>
DB04016

>  <SECONDARY_ACCESSION_NUMBERS>
EXPT02424

>  <COMMON_NAME>
2-[3-({Methyl[1-(2-Naphthoyl)Piperidin-4-Yl]Amino}Carbonyl)-2-Naphthyl]-1-(1-Naphthyl)-2-Oxoethylphosphonic Acid

$$$$
