
 OpenBabel10282417133D

 20 19  0  0  0  0  0  0  0  0999 V2000
    0.9740   -0.0274    0.0457 O   0  0  0  0  0  0  0  0  0  0  0  0
    5.2478    2.8239   -2.6455 O   0  0  0  0  0  0  0  0  0  0  0  0
    5.1012    1.4483   -0.8790 O   0  0  0  0  0  0  0  0  0  0  0  0
    2.6101   -1.8983   -1.6678 N   0  0  0  0  0  0  0  0  0  0  0  0
    2.9596    0.2302    1.0671 N   0  0  0  0  0  0  0  0  0  0  0  0
    2.6820    0.4461   -2.4353 C   0  0  0  0  0  0  0  0  0  0  0  0
    2.9798   -0.5260   -1.2811 C   0  0  1  0  0  0  0  0  0  0  0  0
    3.0811    1.8938   -2.1260 C   0  0  0  0  0  0  0  0  0  0  0  0
    2.1977   -0.1020   -0.0176 C   0  0  0  0  0  0  0  0  0  0  0  0
    4.5558    2.0217   -1.8159 C   0  0  0  0  0  0  0  0  0  0  0  0
    4.7264    3.2724   -3.3367 H   0  0  0  0  0  0  0  0  0  0  0  0
    3.1659   -2.1826   -2.4720 H   0  0  0  0  0  0  0  0  0  0  0  0
    2.8669   -2.5258   -0.9053 H   0  0  0  0  0  0  0  0  0  0  0  0
    3.9652    0.3531    1.0132 H   0  0  0  0  0  0  0  0  0  0  0  0
    2.4745    0.5810    1.8829 H   0  0  0  0  0  0  0  0  0  0  0  0
    3.2025    0.1169   -3.3443 H   0  0  0  0  0  0  0  0  0  0  0  0
    1.6073    0.4244   -2.6667 H   0  0  0  0  0  0  0  0  0  0  0  0
    4.0495   -0.5596   -1.0653 H   0  0  0  0  0  0  0  0  0  0  0  0
    2.8088    2.5350   -2.9719 H   0  0  0  0  0  0  0  0  0  0  0  0
    2.5239    2.2780   -1.2642 H   0  0  0  0  0  0  0  0  0  0  0  0
  1  9  2  0  0  0  0
  2 10  1  0  0  0  0
  2 11  1  0  0  0  0
  3 10  2  0  0  0  0
  4 12  1  0  0  0  0
  4 13  1  0  0  0  0
  5  9  1  0  0  0  0
  5 14  1  0  0  0  0
  5 15  1  0  0  0  0
  6  7  1  0  0  0  0
  6  8  1  0  0  0  0
  6 16  1  0  0  0  0
  6 17  1  0  0  0  0
  7  4  1  0  0  0  0
  7  9  1  0  0  0  0
  7 18  1  1  0  0  0
  8 10  1  0  0  0  0
  8 19  1  0  0  0  0
  8 20  1  0  0  0  0
M  END
>  <DRUGBANK_ID>
DB03091

>  <SECONDARY_ACCESSION_NUMBERS>
EXPT01619

>  <COMMON_NAME>
Isoglutamine

>  <CAS_NUMBER>
636-65-7

>  <UNII>
WL74QNU57B

>  <SYNONYMS>
Glutamic acid alpha-amide; L-alpha-Glutamine; L-Glutamic acid alpha-amide; L-Isoglutamine

$$$$
