
 OpenBabel10282417223D

 59 61  0  0  1  0  0  0  0  0999 V2000
   10.6525   12.3373   -4.9206 C   0  0  0  0  0  0  0  0  0  0  0  0
    9.9292   12.8216   -3.6793 C   0  0  0  0  0  0  0  0  0  0  0  0
    8.4206   12.7957   -3.8934 C   0  0  0  0  0  0  0  0  0  0  0  0
    7.8921   11.3827   -4.1952 C   0  0  0  0  0  0  0  0  0  0  0  0
    8.1561   10.4097   -3.0474 C   0  0  0  0  0  0  0  0  0  0  0  0
    7.5016   10.8492   -1.7406 C   0  0  0  0  0  0  0  0  0  0  0  0
    5.9788   10.9626   -1.8861 C   0  0  2  0  0  0  0  0  0  0  0  0
    5.5017   12.3715   -2.2852 C   0  0  0  0  0  0  0  0  0  0  0  0
    4.0097   12.3663   -2.5356 C   0  0  0  0  0  0  0  0  0  0  0  0
    3.2780   11.6872   -1.4184 C   0  0  0  0  0  0  0  0  0  0  0  0
    3.8808   10.8637   -0.4813 C   0  0  0  0  0  0  0  0  0  0  0  0
    5.3479   10.5691   -0.5474 C   0  0  0  0  0  0  0  0  0  0  0  0
    3.1256   10.3433    0.5773 C   0  0  0  0  0  0  0  0  0  0  0  0
    1.7689   10.6646    0.7088 C   0  0  0  0  0  0  0  0  0  0  0  0
    1.1479   11.4785   -0.2348 C   0  0  0  0  0  0  0  0  0  0  0  0
    1.9134   11.9117   -1.3302 C   0  0  0  0  0  0  0  0  0  0  0  0
   -0.3083   11.9021   -0.1114 C   0  0  1  0  0  0  0  0  0  0  0  0
   -0.7360   12.5435    1.2300 C   0  0  0  0  0  0  0  0  0  0  0  0
   -0.7538   14.0748    1.0295 C   0  0  0  0  0  0  0  0  0  0  0  0
   -0.2529   14.3343   -0.3992 C   0  0  2  0  0  0  0  0  0  0  0  0
    1.1939   14.5960   -0.2896 N   0  0  0  0  0  0  0  0  0  0  0  0
   -0.8547   15.5551   -1.1272 C   0  0  0  0  0  0  0  0  0  0  0  0
   -0.9566   16.7070   -0.3002 O   0  0  0  0  0  0  0  0  0  0  0  0
   -0.6963   13.0210   -1.0950 C   0  0  0  0  0  0  0  0  0  0  0  0
   10.3849   11.3061   -5.1698 H   0  0  0  0  0  0  0  0  0  0  0  0
   11.7319   12.3608   -4.7698 H   0  0  0  0  0  0  0  0  0  0  0  0
   10.3920   12.9704   -5.7742 H   0  0  0  0  0  0  0  0  0  0  0  0
   10.2074   12.2065   -2.8156 H   0  0  0  0  0  0  0  0  0  0  0  0
   10.2416   13.8420   -3.4341 H   0  0  0  0  0  0  0  0  0  0  0  0
    7.9607   13.2197   -2.9945 H   0  0  0  0  0  0  0  0  0  0  0  0
    8.1373   13.4690   -4.7100 H   0  0  0  0  0  0  0  0  0  0  0  0
    6.8223   11.4104   -4.4256 H   0  0  0  0  0  0  0  0  0  0  0  0
    8.3322   10.9896   -5.1152 H   0  0  0  0  0  0  0  0  0  0  0  0
    7.7840    9.4152   -3.3216 H   0  0  0  0  0  0  0  0  0  0  0  0
    9.2318   10.2839   -2.8840 H   0  0  0  0  0  0  0  0  0  0  0  0
    7.7594   10.1040   -0.9778 H   0  0  0  0  0  0  0  0  0  0  0  0
    7.9220   11.7934   -1.3746 H   0  0  0  0  0  0  0  0  0  0  0  0
    5.6322   10.2493   -2.6489 H   0  0  0  0  0  0  0  0  0  0  0  0
    5.7589   13.0937   -1.5007 H   0  0  0  0  0  0  0  0  0  0  0  0
    5.9435   12.7509   -3.2040 H   0  0  0  0  0  0  0  0  0  0  0  0
    3.6774   13.4087   -2.6400 H   0  0  0  0  0  0  0  0  0  0  0  0
    3.7799   11.8588   -3.4810 H   0  0  0  0  0  0  0  0  0  0  0  0
    5.5047    9.4953   -0.3925 H   0  0  0  0  0  0  0  0  0  0  0  0
    5.8411   11.1124    0.2669 H   0  0  0  0  0  0  0  0  0  0  0  0
    3.6025    9.7038    1.3125 H   0  0  0  0  0  0  0  0  0  0  0  0
    1.2219   10.2699    1.5612 H   0  0  0  0  0  0  0  0  0  0  0  0
    1.5098   12.5386   -2.1117 H   0  0  0  0  0  0  0  0  0  0  0  0
   -0.9037   10.9978   -0.2898 H   0  0  0  0  0  0  0  0  0  0  0  0
   -1.7694   12.2387    1.4496 H   0  0  0  0  0  0  0  0  0  0  0  0
   -0.1340   12.2523    2.0952 H   0  0  0  0  0  0  0  0  0  0  0  0
   -1.7780   14.4436    1.1565 H   0  0  0  0  0  0  0  0  0  0  0  0
   -0.1424   14.5726    1.7921 H   0  0  0  0  0  0  0  0  0  0  0  0
    1.6156   14.7565   -1.2016 H   0  0  0  0  0  0  0  0  0  0  0  0
    1.7010   13.8230    0.1393 H   0  0  0  0  0  0  0  0  0  0  0  0
   -0.2213   15.8261   -1.9834 H   0  0  0  0  0  0  0  0  0  0  0  0
   -1.8451   15.3356   -1.5342 H   0  0  0  0  0  0  0  0  0  0  0  0
   -1.4809   16.4605    0.4782 H   0  0  0  0  0  0  0  0  0  0  0  0
   -0.3306   12.9021   -2.1165 H   0  0  0  0  0  0  0  0  0  0  0  0
   -1.7901   13.0080   -1.2036 H   0  0  0  0  0  0  0  0  0  0  0  0
  1  2  1  0  0  0  0
  1 25  1  0  0  0  0
  1 26  1  0  0  0  0
  1 27  1  0  0  0  0
  2  3  1  0  0  0  0
  2 28  1  0  0  0  0
  2 29  1  0  0  0  0
  3  4  1  0  0  0  0
  3 30  1  0  0  0  0
  3 31  1  0  0  0  0
  4  5  1  0  0  0  0
  4 32  1  0  0  0  0
  4 33  1  0  0  0  0
  5  6  1  0  0  0  0
  5 34  1  0  0  0  0
  5 35  1  0  0  0  0
  6 36  1  0  0  0  0
  6 37  1  0  0  0  0
  7  6  1  0  0  0  0
  7  8  1  0  0  0  0
  7 12  1  0  0  0  0
  7 38  1  6  0  0  0
  8  9  1  0  0  0  0
  8 39  1  0  0  0  0
  8 40  1  0  0  0  0
  9 10  1  0  0  0  0
  9 41  1  0  0  0  0
  9 42  1  0  0  0  0
 10 11  2  0  0  0  0
 10 16  1  0  0  0  0
 11 12  1  0  0  0  0
 11 13  1  0  0  0  0
 12 43  1  0  0  0  0
 12 44  1  0  0  0  0
 13 14  2  0  0  0  0
 13 45  1  0  0  0  0
 14 15  1  0  0  0  0
 14 46  1  0  0  0  0
 15 16  2  0  0  0  0
 16 47  1  0  0  0  0
 17 18  1  0  0  0  0
 17 24  1  0  0  0  0
 17 48  1  6  0  0  0
 17 15  1  0  0  0  0
 18 19  1  0  0  0  0
 18 49  1  0  0  0  0
 18 50  1  0  0  0  0
 19 51  1  0  0  0  0
 19 52  1  0  0  0  0
 20 19  1  0  0  0  0
 20 24  1  0  0  0  0
 20 22  1  6  0  0  0
 20 21  1  0  0  0  0
 21 53  1  0  0  0  0
 21 54  1  0  0  0  0
 22 23  1  0  0  0  0
 22 55  1  0  0  0  0
 22 56  1  0  0  0  0
 23 57  1  0  0  0  0
 24 58  1  0  0  0  0
 24 59  1  0  0  0  0
M  END
>  <DRUGBANK_ID>
DB15214

>  <COMMON_NAME>
BMS-986104

>  <CAS_NUMBER>
1622180-31-7

>  <UNII>
KJ9D084FO4

$$$$
