
 OpenBabel10282417193D

 92 93  0  0  0  0  0  0  0  0999 V2000
   -4.8855  -18.4421    4.9598 C   0  0  0  0  0  0  0  0  0  0  0  0
   -7.2478  -15.7338    6.0403 C   0  0  0  0  0  0  0  0  0  0  0  0
   -4.3640  -18.4330    6.1795 C   0  0  0  0  0  0  0  0  0  0  0  0
   -6.4971  -17.5134    5.2139 C   0  0  0  0  0  0  0  0  0  0  0  0
   -7.8377  -13.8794    6.1560 N   0  0  0  0  0  0  0  0  0  0  0  0
   -6.7648  -17.1154    6.9884 C   0  0  0  0  0  0  0  0  0  0  0  0
   -5.3321  -18.3415    7.2878 C   0  0  0  0  0  0  0  0  0  0  0  0
   -8.3677  -11.9656    5.8434 C   0  0  0  0  0  0  0  0  0  0  0  0
   -2.6329  -11.4827    3.8095 C   0  0  0  0  0  0  0  0  0  0  0  0
   -3.3626  -12.5401    3.7544 C   0  0  0  0  0  0  0  0  0  0  0  0
   -2.4608  -10.7420    5.1725 C   0  0  2  0  0  0  0  0  0  0  0  0
   -2.3086  -12.4548    6.7930 C   0  0  0  0  0  0  0  0  0  0  0  0
   -7.8897  -10.0886    6.3500 C   0  0  0  0  0  0  0  0  0  0  0  0
   -3.4909  -13.7195    2.8042 C   0  0  1  0  0  0  0  0  0  0  0  0
   -2.9052  -11.3158    6.4065 O   0  0  0  0  0  0  0  0  0  0  0  0
   -4.1835  -18.3598    3.5423 C   0  0  0  0  0  0  0  0  0  0  0  0
   -2.7019  -14.9823    3.0449 C   0  0  2  0  0  0  0  0  0  0  0  0
   -3.3919  -15.7124    4.1486 C   0  0  2  0  0  0  0  0  0  0  0  0
   -5.7730   -9.2738    5.5222 C   0  0  0  0  0  0  0  0  0  0  0  0
   -6.7759  -18.7974    4.9749 O   0  0  0  0  0  0  0  0  0  0  0  0
   -7.1446   -9.7008    5.3121 C   0  0  0  0  0  0  0  0  0  0  0  0
   -9.5051  -11.3925    5.4144 O   0  0  0  0  0  0  0  0  0  0  0  0
   -4.9124  -18.6686    8.4078 O   0  0  0  0  0  0  0  0  0  0  0  0
   -3.2373   -9.5165    5.0123 C   0  0  2  0  0  0  0  0  0  0  0  0
   -4.7991  -16.0949    4.1496 C   0  0  0  0  0  0  0  0  0  0  0  0
   -3.7544  -17.2823    6.3743 N   0  0  0  0  0  0  0  0  0  0  0  0
   -2.6984  -13.0377    7.8017 O   0  0  0  0  0  0  0  0  0  0  0  0
   -4.7758   -9.8432    4.8253 C   0  0  0  0  0  0  0  0  0  0  0  0
   -4.9231  -17.1326    3.0974 C   0  0  2  0  0  0  0  0  0  0  0  0
   -1.5451  -13.0049    5.8035 N   0  0  0  0  0  0  0  0  0  0  0  0
   -1.2942  -14.6392    3.1162 O   0  0  0  0  0  0  0  0  0  0  0  0
   -3.4546  -15.0500    5.4230 O   0  0  0  0  0  0  0  0  0  0  0  0
   -2.2489  -11.2920    2.4402 C   0  0  0  0  0  0  0  0  0  0  0  0
   -2.7112   -8.7961    3.7232 O   0  0  0  0  0  0  0  0  0  0  0  0
   -7.7677   -8.4144    7.2809 C   0  0  0  0  0  0  0  0  0  0  0  0
   -4.9514  -13.9917    2.6688 C   0  0  0  0  0  0  0  0  0  0  0  0
   -6.3825  -17.3730    2.8994 C   0  0  0  0  0  0  0  0  0  0  0  0
   -4.2555  -14.0013    5.6685 C   0  0  0  0  0  0  0  0  0  0  0  0
   -1.3209   -8.9757    3.5780 C   0  0  0  0  0  0  0  0  0  0  0  0
   -3.8611  -16.2579    7.3831 C   0  0  0  0  0  0  0  0  0  0  0  0
   -2.3997  -15.9350    7.7009 C   0  0  0  0  0  0  0  0  0  0  0  0
   -1.5627  -15.2716    6.7098 N   0  0  0  0  0  0  0  0  0  0  0  0
   -0.2548  -14.8277    6.9666 C   0  0  0  0  0  0  0  0  0  0  0  0
   -1.3744  -16.0661    5.5810 C   0  0  0  0  0  0  0  0  0  0  0  0
   -8.5493  -13.2728    6.9271 H   0  0  0  0  0  0  0  0  0  0  0  0
   -6.5150  -18.5357    6.8203 H   0  0  0  0  0  0  0  0  0  0  0  0
   -3.6909  -12.3892    4.7554 H   0  0  0  0  0  0  0  0  0  0  0  0
   -1.4244  -10.5242    5.3551 H   0  0  0  0  0  0  0  0  0  0  0  0
   -3.0693  -13.3998    1.8916 H   0  0  0  0  0  0  0  0  0  0  0  0
   -3.0765  -18.2535    3.5833 H   0  0  0  0  0  0  0  0  0  0  0  0
   -4.2586  -19.1019    2.7251 H   0  0  0  0  0  0  0  0  0  0  0  0
   -2.7380  -15.7799    2.2994 H   0  0  0  0  0  0  0  0  0  0  0  0
   -2.7986  -16.6864    4.1598 H   0  0  0  0  0  0  0  0  0  0  0  0
   -5.4441   -8.5473    6.2745 H   0  0  0  0  0  0  0  0  0  0  0  0
   -7.3995  -10.2735    4.4578 H   0  0  0  0  0  0  0  0  0  0  0  0
   -3.1057   -8.7667    5.8084 H   0  0  0  0  0  0  0  0  0  0  0  0
   -5.4667  -15.2735    4.2904 H   0  0  0  0  0  0  0  0  0  0  0  0
   -5.1595  -16.3241    5.1284 H   0  0  0  0  0  0  0  0  0  0  0  0
   -3.7281  -16.8750    5.4928 H   0  0  0  0  0  0  0  0  0  0  0  0
   -4.2988   -9.0344    4.3883 H   0  0  0  0  0  0  0  0  0  0  0  0
   -4.4939  -16.7131    2.2091 H   0  0  0  0  0  0  0  0  0  0  0  0
   -1.4119  -12.7675    4.8413 H   0  0  0  0  0  0  0  0  0  0  0  0
   -1.6671  -14.0155    5.8364 H   0  0  0  0  0  0  0  0  0  0  0  0
   -1.1270  -14.1531    3.9463 H   0  0  0  0  0  0  0  0  0  0  0  0
   -1.4653  -11.9957    2.1866 H   0  0  0  0  0  0  0  0  0  0  0  0
   -3.1519  -11.3290    1.8328 H   0  0  0  0  0  0  0  0  0  0  0  0
   -1.9552  -10.3244    2.2051 H   0  0  0  0  0  0  0  0  0  0  0  0
   -6.9915   -8.6120    8.0211 H   0  0  0  0  0  0  0  0  0  0  0  0
   -7.2447   -7.4063    6.8114 H   0  0  0  0  0  0  0  0  0  0  0  0
   -8.5836   -7.8422    7.8135 H   0  0  0  0  0  0  0  0  0  0  0  0
   -5.2833  -13.9029    1.6735 H   0  0  0  0  0  0  0  0  0  0  0  0
   -5.2504  -15.0099    2.6904 H   0  0  0  0  0  0  0  0  0  0  0  0
   -5.5365  -13.4696    3.4242 H   0  0  0  0  0  0  0  0  0  0  0  0
   -6.6805  -17.2019    1.9076 H   0  0  0  0  0  0  0  0  0  0  0  0
   -6.6492  -18.4053    3.1044 H   0  0  0  0  0  0  0  0  0  0  0  0
   -6.9568  -16.6947    3.5461 H   0  0  0  0  0  0  0  0  0  0  0  0
   -3.6458  -13.8567    4.8754 H   0  0  0  0  0  0  0  0  0  0  0  0
   -5.2255  -13.9054    5.2946 H   0  0  0  0  0  0  0  0  0  0  0  0
   -4.0901  -13.2150    6.3602 H   0  0  0  0  0  0  0  0  0  0  0  0
   -0.8138   -8.6220    4.4415 H   0  0  0  0  0  0  0  0  0  0  0  0
   -1.0080  -10.0205    3.6173 H   0  0  0  0  0  0  0  0  0  0  0  0
   -1.0243   -8.6183    2.6001 H   0  0  0  0  0  0  0  0  0  0  0  0
   -4.5311  -15.3977    7.1982 H   0  0  0  0  0  0  0  0  0  0  0  0
   -4.3359  -16.7158    8.2027 H   0  0  0  0  0  0  0  0  0  0  0  0
   -2.4270  -15.3455    8.5851 H   0  0  0  0  0  0  0  0  0  0  0  0
   -1.9061  -16.8936    7.7693 H   0  0  0  0  0  0  0  0  0  0  0  0
    0.2664  -15.7540    6.9725 H   0  0  0  0  0  0  0  0  0  0  0  0
    0.1114  -14.2439    6.0888 H   0  0  0  0  0  0  0  0  0  0  0  0
   -0.3673  -14.1820    7.8135 H   0  0  0  0  0  0  0  0  0  0  0  0
   -1.0906  -17.0465    5.3508 H   0  0  0  0  0  0  0  0  0  0  0  0
   -2.3172  -16.3818    5.6614 H   0  0  0  0  0  0  0  0  0  0  0  0
   -1.3921  -15.4865    4.7280 H   0  0  0  0  0  0  0  0  0  0  0  0
  2  4  1  0  0  0  0
  3  1  2  0  0  0  0
  4  1  1  0  0  0  0
  5  2  1  0  0  0  0
  5 45  1  0  0  0  0
  6  2  2  0  0  0  0
  6 46  1  0  0  0  0
  7  3  1  0  0  0  0
  7  6  1  0  0  0  0
  8  5  1  0  0  0  0
  9 10  2  0  0  0  0
 10 14  1  0  0  0  0
 10 47  1  0  0  0  0
 11  9  1  0  0  0  0
 11 24  1  0  0  0  0
 11 48  1  1  0  0  0
 11 15  1  0  0  0  0
 12 15  1  0  0  0  0
 13  8  1  0  0  0  0
 14 17  1  0  0  0  0
 14 49  1  6  0  0  0
 14 36  1  0  0  0  0
 16  1  1  0  0  0  0
 16 50  1  0  0  0  0
 16 51  1  0  0  0  0
 17 18  1  0  0  0  0
 17 31  1  0  0  0  0
 17 52  1  6  0  0  0
 18 25  1  0  0  0  0
 18 32  1  0  0  0  0
 18 53  1  1  0  0  0
 19 21  1  0  0  0  0
 19 54  1  0  0  0  0
 20  4  2  0  0  0  0
 21 13  2  0  0  0  0
 21 55  1  0  0  0  0
 22  8  2  0  0  0  0
 23  7  2  0  0  0  0
 24 28  1  0  0  0  0
 24 56  1  1  0  0  0
 24 34  1  0  0  0  0
 25 29  1  0  0  0  0
 25 57  1  0  0  0  0
 25 58  1  0  0  0  0
 26  3  1  0  0  0  0
 26 40  1  0  0  0  0
 26 59  1  0  0  0  0
 27 12  2  0  0  0  0
 28 19  2  0  0  0  0
 28 60  1  0  0  0  0
 29 16  1  0  0  0  0
 29 61  1  6  0  0  0
 29 37  1  0  0  0  0
 30 12  1  0  0  0  0
 30 62  1  0  0  0  0
 30 63  1  0  0  0  0
 31 64  1  0  0  0  0
 33  9  1  0  0  0  0
 33 65  1  0  0  0  0
 33 66  1  0  0  0  0
 33 67  1  0  0  0  0
 35 13  1  0  0  0  0
 35 68  1  0  0  0  0
 35 69  1  0  0  0  0
 35 70  1  0  0  0  0
 36 71  1  0  0  0  0
 36 72  1  0  0  0  0
 36 73  1  0  0  0  0
 37 74  1  0  0  0  0
 37 75  1  0  0  0  0
 37 76  1  0  0  0  0
 38 32  1  0  0  0  0
 38 77  1  0  0  0  0
 38 78  1  0  0  0  0
 38 79  1  0  0  0  0
 39 34  1  0  0  0  0
 39 80  1  0  0  0  0
 39 81  1  0  0  0  0
 39 82  1  0  0  0  0
 40 41  1  0  0  0  0
 40 83  1  0  0  0  0
 40 84  1  0  0  0  0
 41 42  1  0  0  0  0
 41 85  1  0  0  0  0
 41 86  1  0  0  0  0
 42 43  1  0  0  0  0
 42 44  1  0  0  0  0
 43 87  1  0  0  0  0
 43 88  1  0  0  0  0
 43 89  1  0  0  0  0
 44 90  1  0  0  0  0
 44 91  1  0  0  0  0
 44 92  1  0  0  0  0
M  END
>  <DRUGBANK_ID>
DB12442

>  <COMMON_NAME>
Alvespimycin

>  <CAS_NUMBER>
467214-20-6

>  <UNII>
001L2FE0M3

>  <SYNONYMS>
17-(dimethylaminoethylamino)-17-demethoxygeldanamycin; 17-DMAG; Alvespimycin; DMAG

$$$$
