
 OpenBabel10282417153D

 32 34  0  0  0  0  0  0  0  0999 V2000
    0.5457   -0.0893   -0.2193 C   0  0  0  0  0  0  0  0  0  0  0  0
    0.2432    0.7491    1.0464 C   0  0  0  0  0  0  0  0  0  0  0  0
    1.2297    1.9807    1.2914 C   0  0  3  0  0  0  0  0  0  0  0  0
    1.0436    3.1931    0.2748 C   0  0  0  0  0  0  0  0  0  0  0  0
    1.0353    4.4502    1.1327 C   0  0  0  0  0  0  0  0  0  0  0  0
    1.0219    5.8083    0.7819 C   0  0  0  0  0  0  0  0  0  0  0  0
    1.0258    6.7876    1.7996 C   0  0  0  0  0  0  0  0  0  0  0  0
    1.0362    6.4030    3.1399 C   0  0  0  0  0  0  0  0  0  0  0  0
    1.0302    5.0614    3.4889 C   0  0  0  0  0  0  0  0  0  0  0  0
    1.0255    4.1037    2.4786 C   0  0  0  0  0  0  0  0  0  0  0  0
    1.0226    2.6231    2.7002 C   0  0  0  0  0  0  0  0  0  0  0  0
    1.0541    7.3338    4.1054 F   0  0  0  0  0  0  0  0  0  0  0  0
    2.5891    1.2792    1.2785 C   0  0  0  0  0  0  0  0  0  0  0  0
    3.4757    1.1148    0.2296 C   0  0  0  0  0  0  0  0  0  0  0  0
    4.0904   -0.0898    0.4726 N   0  0  0  0  0  0  0  0  0  0  0  0
    3.5889   -0.6036    1.6304 C   0  0  0  0  0  0  0  0  0  0  0  0
    2.7778    0.2596    2.2047 N   0  0  0  0  0  0  0  0  0  0  0  0
    0.3048    0.4647   -1.1270 H   0  0  0  0  0  0  0  0  0  0  0  0
    0.0062   -1.0420   -0.2064 H   0  0  0  0  0  0  0  0  0  0  0  0
    1.5871   -0.4002   -0.3145 H   0  0  0  0  0  0  0  0  0  0  0  0
   -0.8110    1.0404    1.0464 H   0  0  0  0  0  0  0  0  0  0  0  0
    0.3436    0.0566    1.8999 H   0  0  0  0  0  0  0  0  0  0  0  0
    1.8479    3.2562   -0.4642 H   0  0  0  0  0  0  0  0  0  0  0  0
    0.0837    3.1309   -0.2539 H   0  0  0  0  0  0  0  0  0  0  0  0
    1.0140    6.1445   -0.2522 H   0  0  0  0  0  0  0  0  0  0  0  0
    1.0250    7.8517    1.5703 H   0  0  0  0  0  0  0  0  0  0  0  0
    1.0424    4.7703    4.5322 H   0  0  0  0  0  0  0  0  0  0  0  0
    1.8539    2.4044    3.3779 H   0  0  0  0  0  0  0  0  0  0  0  0
    0.0752    2.3371    3.1650 H   0  0  0  0  0  0  0  0  0  0  0  0
    3.5294    1.5846   -0.7381 H   0  0  0  0  0  0  0  0  0  0  0  0
    4.6517   -0.6104   -0.1929 H   0  0  0  0  0  0  0  0  0  0  0  0
    3.7832   -1.6104    1.9709 H   0  0  0  0  0  0  0  0  0  0  0  0
  1  2  1  0  0  0  0
  1 18  1  0  0  0  0
  1 19  1  0  0  0  0
  1 20  1  0  0  0  0
  2  3  1  0  0  0  0
  2 21  1  0  0  0  0
  2 22  1  0  0  0  0
  3  4  1  0  0  0  0
  3 11  1  0  0  0  0
  3 13  1  0  0  0  0
  4  5  1  0  0  0  0
  4 23  1  0  0  0  0
  4 24  1  0  0  0  0
  5  6  2  0  0  0  0
  5 10  1  0  0  0  0
  6  7  1  0  0  0  0
  6 25  1  0  0  0  0
  7  8  2  0  0  0  0
  7 26  1  0  0  0  0
  8  9  1  0  0  0  0
  8 12  1  0  0  0  0
  9 10  2  0  0  0  0
  9 27  1  0  0  0  0
 10 11  1  0  0  0  0
 11 28  1  0  0  0  0
 11 29  1  0  0  0  0
 13 14  2  0  0  0  0
 13 17  1  0  0  0  0
 14 15  1  0  0  0  0
 14 30  1  0  0  0  0
 15 16  1  0  0  0  0
 15 31  1  0  0  0  0
 16 17  2  0  0  0  0
 16 32  1  0  0  0  0
M  END
>  <DRUGBANK_ID>
DB06585

>  <COMMON_NAME>
Fipamezole

>  <CAS_NUMBER>
150586-58-6

>  <UNII>
T5RCK09KHV

>  <SYNONYMS>
Fipamezole

$$$$
