
 OpenBabel10282417243D

 73 75  0  0  1  0  0  0  0  0999 V2000
    4.6035   -4.8816   -2.6951 H   0  0  0  0  0  0  0  0  0  0  0  0
    4.2732   -4.0120   -2.1166 C   0  0  2  0  0  0  0  0  0  0  0  0
    5.3596   -2.5682   -3.0587 C   0  0  0  0  0  0  0  0  0  0  0  0
    4.1947   -1.0078   -3.3498 C   0  0  0  0  0  0  0  0  0  0  0  0
    2.0456   -1.5678   -3.3280 C   0  0  1  0  0  0  0  0  0  0  0  0
    1.0049   -1.4008   -4.1622 N   0  0  0  0  0  0  0  0  0  0  0  0
    1.2346   -2.5974   -1.8511 C   0  0  1  0  0  0  0  0  0  0  0  0
    1.4949   -2.3021   -0.8231 H   0  0  0  0  0  0  0  0  0  0  0  0
   -0.0745   -1.8480   -1.8244 O   0  0  0  0  0  0  0  0  0  0  0  0
   -0.0643   -0.2085   -1.5462 C   0  0  2  0  0  0  0  0  0  0  0  0
    0.6002    1.0275   -2.6020 C   0  0  1  0  0  0  0  0  0  0  0  0
    0.0011    2.3453   -2.5074 N   0  0  0  0  0  0  0  0  0  0  0  0
    2.1825    1.5764   -2.3997 C   0  0  0  0  0  0  0  0  0  0  0  0
    2.6700    1.6297   -0.9766 C   0  0  1  0  0  0  0  0  0  0  0  0
    2.2651    2.9372   -0.7198 N   0  0  0  0  0  0  0  0  0  0  0  0
    2.1643    0.5126   -0.0885 C   0  0  2  0  0  0  0  0  0  0  0  0
    3.1329   -0.3696   -0.6007 O   0  0  0  0  0  0  0  0  0  0  0  0
    2.7734   -0.6303   -1.9406 C   0  0  1  0  0  0  0  0  0  0  0  0
    1.7782   -0.6136   -1.6390 H   0  0  0  0  0  0  0  0  0  0  0  0
    2.7299    0.1150   -3.8530 O   0  0  0  0  0  0  0  0  0  0  0  0
    2.4241   -0.6499   -5.5692 C   0  0  0  0  0  0  0  0  0  0  0  0
    2.7028   -2.4672   -5.3898 C   0  0  2  0  0  0  0  0  0  0  0  0
    4.1450   -2.6466   -5.4909 C   0  0  0  0  0  0  0  0  0  0  0  0
    2.2191   -3.0597   -6.5578 O   0  0  0  0  0  0  0  0  0  0  0  0
    2.2814   -3.4066   -3.8537 C   0  0  2  0  0  0  0  0  0  0  0  0
    0.5568   -3.5997   -3.9352 N   0  0  0  0  0  0  0  0  0  0  0  0
   -0.1277   -4.3227   -2.8561 C   0  0  0  0  0  0  0  0  0  0  0  0
    2.9941   -2.4805   -2.1056 C   0  0  1  0  0  0  0  0  0  0  0  0
    4.1091   -2.0260   -1.7607 O   0  0  0  0  0  0  0  0  0  0  0  0
    0.5922    0.1790   -0.1656 C   0  0  1  0  0  0  0  0  0  0  0  0
    0.0115    1.4133    0.2415 O   0  0  0  0  0  0  0  0  0  0  0  0
    2.3297   -4.2226   -1.9981 O   0  0  0  0  0  0  0  0  0  0  0  0
    4.7279   -3.3172   -0.4399 C   0  0  1  0  0  0  0  0  0  0  0  0
    3.5314   -3.0689    0.6250 C   0  0  0  0  0  0  0  0  0  0  0  0
    5.7331   -4.2158   -0.1121 N   0  0  0  0  0  0  0  0  0  0  0  0
    6.4500   -2.4085   -3.0276 H   0  0  0  0  0  0  0  0  0  0  0  0
    5.2278   -2.3689   -4.0322 H   0  0  0  0  0  0  0  0  0  0  0  0
    4.6369   -0.3591   -2.3075 H   0  0  0  0  0  0  0  0  0  0  0  0
    4.6868   -0.1444   -3.9003 H   0  0  0  0  0  0  0  0  0  0  0  0
    1.4291   -0.7117   -3.0035 H   0  0  0  0  0  0  0  0  0  0  0  0
    1.9200   -0.9369   -4.2393 H   0  0  0  0  0  0  0  0  0  0  0  0
    0.4933   -0.5460   -4.2566 H   0  0  0  0  0  0  0  0  0  0  0  0
   -1.1490   -0.0622   -1.5924 H   0  0  0  0  0  0  0  0  0  0  0  0
    0.2785    0.8266   -3.6203 H   0  0  0  0  0  0  0  0  0  0  0  0
    0.2298    2.7616   -3.4186 H   0  0  0  0  0  0  0  0  0  0  0  0
    0.6419    2.8663   -1.8997 H   0  0  0  0  0  0  0  0  0  0  0  0
    3.1531    1.1156   -2.5643 H   0  0  0  0  0  0  0  0  0  0  0  0
    2.5025    2.2045   -3.2605 H   0  0  0  0  0  0  0  0  0  0  0  0
    3.8043    1.4989   -0.9726 H   0  0  0  0  0  0  0  0  0  0  0  0
    2.6708    3.4364   -1.5182 H   0  0  0  0  0  0  0  0  0  0  0  0
    2.8088    3.1250    0.1075 H   0  0  0  0  0  0  0  0  0  0  0  0
    2.4359    0.6141    0.9558 H   0  0  0  0  0  0  0  0  0  0  0  0
    1.2263   -0.6460   -5.8515 H   0  0  0  0  0  0  0  0  0  0  0  0
    2.7316    0.1017   -6.2634 H   0  0  0  0  0  0  0  0  0  0  0  0
    4.6484   -3.0116   -6.3523 H   0  0  0  0  0  0  0  0  0  0  0  0
    4.5206   -1.6206   -5.3712 H   0  0  0  0  0  0  0  0  0  0  0  0
    4.3830   -3.4565   -4.7757 H   0  0  0  0  0  0  0  0  0  0  0  0
    2.6540   -2.4445   -7.1673 H   0  0  0  0  0  0  0  0  0  0  0  0
    2.5406   -4.4587   -4.0953 H   0  0  0  0  0  0  0  0  0  0  0  0
    0.2379   -2.5972   -3.8124 H   0  0  0  0  0  0  0  0  0  0  0  0
    0.0766   -4.1366   -1.7899 H   0  0  0  0  0  0  0  0  0  0  0  0
   -1.1959   -4.0773   -2.8524 H   0  0  0  0  0  0  0  0  0  0  0  0
    0.1702   -5.3386   -2.9838 H   0  0  0  0  0  0  0  0  0  0  0  0
    2.8747   -2.9899   -1.1564 H   0  0  0  0  0  0  0  0  0  0  0  0
    3.9127   -2.4005   -2.6698 H   0  0  0  0  0  0  0  0  0  0  0  0
    0.3446   -0.6186    0.5341 H   0  0  0  0  0  0  0  0  0  0  0  0
    0.4155    2.0820   -0.3587 H   0  0  0  0  0  0  0  0  0  0  0  0
    5.2616   -2.2908   -0.4721 H   0  0  0  0  0  0  0  0  0  0  0  0
    2.8750   -3.9387    0.6052 H   0  0  0  0  0  0  0  0  0  0  0  0
    3.8898   -2.6638    1.5575 H   0  0  0  0  0  0  0  0  0  0  0  0
    2.7887   -2.2611    0.4517 H   0  0  0  0  0  0  0  0  0  0  0  0
    5.9478   -3.8929    0.8150 H   0  0  0  0  0  0  0  0  0  0  0  0
    5.1534   -5.0409   -0.1499 H   0  0  0  0  0  0  0  0  0  0  0  0
  2  3  1  0  0  0  0
  2 32  1  0  0  0  0
  2 33  1  0  0  0  0
  2  1  1  6  0  0  0
  3  4  1  0  0  0  0
  3 36  1  0  0  0  0
  3 37  1  0  0  0  0
  4 38  1  0  0  0  0
  4 39  1  0  0  0  0
  5  4  1  0  0  0  0
  5  7  1  0  0  0  0
  5 40  1  1  0  0  0
  5  6  1  0  0  0  0
  6 41  1  0  0  0  0
  6 42  1  0  0  0  0
  7  8  1  1  0  0  0
  7  9  1  0  0  0  0
  7 32  1  0  0  0  0
 10  9  1  0  0  0  0
 10 11  1  0  0  0  0
 10 30  1  0  0  0  0
 10 43  1  1  0  0  0
 11 13  1  0  0  0  0
 11 44  1  6  0  0  0
 11 12  1  0  0  0  0
 12 45  1  0  0  0  0
 12 46  1  0  0  0  0
 13 47  1  0  0  0  0
 13 48  1  0  0  0  0
 14 13  1  0  0  0  0
 14 49  1  6  0  0  0
 14 15  1  0  0  0  0
 15 50  1  0  0  0  0
 15 51  1  0  0  0  0
 16 14  1  0  0  0  0
 16 17  1  0  0  0  0
 16 52  1  1  0  0  0
 18 20  1  0  0  0  0
 18 19  1  1  0  0  0
 18 17  1  0  0  0  0
 20 21  1  0  0  0  0
 21 53  1  0  0  0  0
 21 54  1  0  0  0  0
 22 21  1  0  0  0  0
 22 24  1  6  0  0  0
 22 23  1  0  0  0  0
 23 55  1  0  0  0  0
 23 56  1  0  0  0  0
 23 57  1  0  0  0  0
 24 58  1  0  0  0  0
 25 22  1  0  0  0  0
 25 26  1  0  0  0  0
 25 28  1  0  0  0  0
 25 59  1  6  0  0  0
 26 27  1  0  0  0  0
 26 60  1  0  0  0  0
 27 61  1  0  0  0  0
 27 62  1  0  0  0  0
 27 63  1  0  0  0  0
 28 18  1  0  0  0  0
 28 29  1  0  0  0  0
 28 64  1  1  0  0  0
 29 65  1  0  0  0  0
 30 16  1  0  0  0  0
 30 31  1  0  0  0  0
 30 66  1  1  0  0  0
 31 67  1  0  0  0  0
 33 34  1  0  0  0  0
 33 35  1  0  0  0  0
 33 68  1  6  0  0  0
 34 69  1  0  0  0  0
 34 70  1  0  0  0  0
 34 71  1  0  0  0  0
 35 72  1  0  0  0  0
 35 73  1  0  0  0  0
M  END
>  <DRUGBANK_ID>
DB17884

>  <COMMON_NAME>
Gentamicin C2

>  <CAS_NUMBER>
25876-11-3

>  <UNII>
3P99H114B8

$$$$
