
 OpenBabel10282417173D

 22 23  0  0  0  0  0  0  0  0999 V2000
    1.0058   -1.4136    0.0233 C   0  0  0  0  0  0  0  0  0  0  0  0
    2.1885   -0.6721   -0.0150 C   0  0  0  0  0  0  0  0  0  0  0  0
    2.1494    0.7195   -0.0286 C   0  0  0  0  0  0  0  0  0  0  0  0
    0.9321    1.4104   -0.0016 C   0  0  0  0  0  0  0  0  0  0  0  0
   -0.2445    0.6499    0.0083 C   0  0  0  0  0  0  0  0  0  0  0  0
   -1.5641    1.0413    0.0020 N   0  0  0  0  0  0  0  0  0  0  0  0
   -2.3820   -0.0560   -0.0440 C   0  0  0  0  0  0  0  0  0  0  0  0
   -1.5920   -1.1882    0.0145 C   0  0  0  0  0  0  0  0  0  0  0  0
   -0.2342   -0.7450    0.0201 C   0  0  0  0  0  0  0  0  0  0  0  0
   -2.0597   -2.6057    0.0343 C   0  0  0  0  0  0  0  0  0  0  0  0
   -2.9560   -2.8924    1.2102 C   0  0  0  0  0  0  0  0  0  0  0  0
   -4.1151   -3.2787    1.1493 O   0  0  0  0  0  0  0  0  0  0  0  0
   -2.3576   -2.7133    2.4063 O   0  0  0  0  0  0  0  0  0  0  0  0
    1.0458   -2.4981    0.0363 H   0  0  0  0  0  0  0  0  0  0  0  0
    3.1425   -1.1923   -0.0389 H   0  0  0  0  0  0  0  0  0  0  0  0
    3.0823    1.2771   -0.0644 H   0  0  0  0  0  0  0  0  0  0  0  0
    0.9110    2.4952   -0.0052 H   0  0  0  0  0  0  0  0  0  0  0  0
   -1.8808    2.0011    0.0033 H   0  0  0  0  0  0  0  0  0  0  0  0
   -3.4577    0.0550   -0.0961 H   0  0  0  0  0  0  0  0  0  0  0  0
   -2.6123   -2.8155   -0.8885 H   0  0  0  0  0  0  0  0  0  0  0  0
   -1.2232   -3.3124    0.0676 H   0  0  0  0  0  0  0  0  0  0  0  0
   -3.0553   -2.8882    3.0700 H   0  0  0  0  0  0  0  0  0  0  0  0
  1  2  1  0  0  0  0
  1  9  2  0  0  0  0
  1 14  1  0  0  0  0
  2  3  2  0  0  0  0
  2 15  1  0  0  0  0
  3  4  1  0  0  0  0
  3 16  1  0  0  0  0
  4  5  2  0  0  0  0
  4 17  1  0  0  0  0
  5  6  1  0  0  0  0
  5  9  1  0  0  0  0
  6  7  1  0  0  0  0
  6 18  1  0  0  0  0
  7  8  2  0  0  0  0
  7 19  1  0  0  0  0
  8  9  1  0  0  0  0
 10  8  1  0  0  0  0
 10 11  1  0  0  0  0
 10 20  1  0  0  0  0
 10 21  1  0  0  0  0
 12 11  2  0  0  0  0
 13 11  1  0  0  0  0
 13 22  1  0  0  0  0
M  END
>  <DRUGBANK_ID>
DB07950

>  <COMMON_NAME>
Indoleacetic acid

>  <CAS_NUMBER>
87-51-4

>  <UNII>
6U1S09C61L

>  <SYNONYMS>
(Indol-3-yl)acetate; (indol-3-yl)acetic acid; 2-(indol-3-yl)ethanoic acid; 3-Indolylessigs√§ure; heteroauxin; IAA; IES; Indole-3-acetic acid

$$$$
