
 OpenBabel10282417193D

 47 51  0  0  0  0  0  0  0  0999 V2000
    2.4123   -0.0818   -0.0031 C   0  0  0  0  0  0  0  0  0  0  0  0
    0.9113   -0.0417    0.0332 C   0  0  0  0  0  0  0  0  0  0  0  0
    0.1809   -1.2252    0.0163 C   0  0  0  0  0  0  0  0  0  0  0  0
   -1.2072   -1.1519    0.0356 C   0  0  0  0  0  0  0  0  0  0  0  0
   -1.8294    0.0941    0.1108 C   0  0  0  0  0  0  0  0  0  0  0  0
   -1.0388    1.2380    0.1590 C   0  0  0  0  0  0  0  0  0  0  0  0
    0.3228    1.1824    0.0897 N   0  0  0  0  0  0  0  0  0  0  0  0
   -1.6501    2.5839    0.0990 C   0  0  0  0  0  0  0  0  0  0  0  0
   -1.4313    3.5351   -0.9652 C   0  0  0  0  0  0  0  0  0  0  0  0
   -2.1810    4.6252   -0.6230 C   0  0  0  0  0  0  0  0  0  0  0  0
   -2.7917    4.3028    0.5394 N   0  0  0  0  0  0  0  0  0  0  0  0
   -2.5409    3.0745    1.0053 N   0  0  0  0  0  0  0  0  0  0  0  0
   -3.6449    5.3590    1.0605 C   0  0  0  0  0  0  0  0  0  0  0  0
   -3.7759    6.2915   -0.1666 C   0  0  0  0  0  0  0  0  0  0  0  0
   -2.5532    5.9794   -1.0655 C   0  0  0  0  0  0  0  0  0  0  0  0
   -0.6591    3.4246   -2.1831 C   0  0  0  0  0  0  0  0  0  0  0  0
    0.3865    4.3243   -2.3784 C   0  0  0  0  0  0  0  0  0  0  0  0
    1.1352    4.1987   -3.5257 C   0  0  0  0  0  0  0  0  0  0  0  0
    0.9113    3.2604   -4.4697 N   0  0  0  0  0  0  0  0  0  0  0  0
   -0.0934    2.3886   -4.2758 C   0  0  0  0  0  0  0  0  0  0  0  0
   -0.9294    2.4178   -3.1449 C   0  0  0  0  0  0  0  0  0  0  0  0
   -1.9750    1.4579   -3.0443 C   0  0  0  0  0  0  0  0  0  0  0  0
   -2.1669    0.4610   -4.0039 C   0  0  0  0  0  0  0  0  0  0  0  0
   -1.3356    0.4580   -5.1185 C   0  0  0  0  0  0  0  0  0  0  0  0
   -0.3228    1.4181   -5.2414 C   0  0  0  0  0  0  0  0  0  0  0  0
   -3.2473   -0.5441   -3.7824 C   0  0  0  0  0  0  0  0  0  0  0  0
   -3.9436   -0.5324   -2.7694 O   0  0  0  0  0  0  0  0  0  0  0  0
   -3.4502   -1.4978   -4.7384 N   0  0  0  0  0  0  0  0  0  0  0  0
    2.7868    0.4204   -0.9006 H   0  0  0  0  0  0  0  0  0  0  0  0
    2.8160    0.4175    0.8825 H   0  0  0  0  0  0  0  0  0  0  0  0
    2.7919   -1.1101   -0.0102 H   0  0  0  0  0  0  0  0  0  0  0  0
    0.6773   -2.1907   -0.0116 H   0  0  0  0  0  0  0  0  0  0  0  0
   -1.8033   -2.0590   -0.0178 H   0  0  0  0  0  0  0  0  0  0  0  0
   -2.9119    0.1650    0.0696 H   0  0  0  0  0  0  0  0  0  0  0  0
   -3.1115    5.8540    1.8772 H   0  0  0  0  0  0  0  0  0  0  0  0
   -4.6043    4.9559    1.3901 H   0  0  0  0  0  0  0  0  0  0  0  0
   -4.7007    6.0607   -0.7126 H   0  0  0  0  0  0  0  0  0  0  0  0
   -3.8220    7.3513    0.1071 H   0  0  0  0  0  0  0  0  0  0  0  0
   -2.8086    6.0276   -2.1274 H   0  0  0  0  0  0  0  0  0  0  0  0
   -1.7408    6.6829   -0.8563 H   0  0  0  0  0  0  0  0  0  0  0  0
    0.6221    5.0876   -1.6447 H   0  0  0  0  0  0  0  0  0  0  0  0
    1.9664    4.8691   -3.7224 H   0  0  0  0  0  0  0  0  0  0  0  0
   -2.6538    1.4823   -2.1951 H   0  0  0  0  0  0  0  0  0  0  0  0
   -1.4434   -0.2679   -5.9139 H   0  0  0  0  0  0  0  0  0  0  0  0
    0.3118    1.4030   -6.1246 H   0  0  0  0  0  0  0  0  0  0  0  0
   -2.9247   -1.5824   -5.5933 H   0  0  0  0  0  0  0  0  0  0  0  0
   -4.1916   -2.1668   -4.5763 H   0  0  0  0  0  0  0  0  0  0  0  0
  1  2  1  0  0  0  0
  1 29  1  0  0  0  0
  1 30  1  0  0  0  0
  1 31  1  0  0  0  0
  2  3  2  0  0  0  0
  2  7  1  0  0  0  0
  3  4  1  0  0  0  0
  3 32  1  0  0  0  0
  4  5  2  0  0  0  0
  4 33  1  0  0  0  0
  5  6  1  0  0  0  0
  5 34  1  0  0  0  0
  6  7  2  0  0  0  0
  6  8  1  0  0  0  0
  8  9  1  0  0  0  0
  8 12  2  0  0  0  0
  9 10  2  0  0  0  0
  9 16  1  0  0  0  0
 10 11  1  0  0  0  0
 10 15  1  0  0  0  0
 11 12  1  0  0  0  0
 11 13  1  0  0  0  0
 13 14  1  0  0  0  0
 13 35  1  0  0  0  0
 13 36  1  0  0  0  0
 14 15  1  0  0  0  0
 14 37  1  0  0  0  0
 14 38  1  0  0  0  0
 15 39  1  0  0  0  0
 15 40  1  0  0  0  0
 16 17  1  0  0  0  0
 16 21  2  0  0  0  0
 17 18  2  0  0  0  0
 17 41  1  0  0  0  0
 18 19  1  0  0  0  0
 18 42  1  0  0  0  0
 19 20  2  0  0  0  0
 20 21  1  0  0  0  0
 20 25  1  0  0  0  0
 21 22  1  0  0  0  0
 22 23  2  0  0  0  0
 22 43  1  0  0  0  0
 23 24  1  0  0  0  0
 23 26  1  0  0  0  0
 24 25  2  0  0  0  0
 24 44  1  0  0  0  0
 25 45  1  0  0  0  0
 26 27  2  0  0  0  0
 26 28  1  0  0  0  0
 28 46  1  0  0  0  0
 28 47  1  0  0  0  0
M  END
>  <DRUGBANK_ID>
DB11911

>  <COMMON_NAME>
Galunisertib

>  <CAS_NUMBER>
700874-72-2

>  <UNII>
3OKH1W5LZE

>  <SYNONYMS>
Galunisertib; Galunisertibum

$$$$
