
 OpenBabel10282417243D

 52 55  0  0  1  0  0  0  0  0999 V2000
   -2.4373    0.3301   -1.3693 C   0  0  0  0  0  0  0  0  0  0  0  0
   -3.1725   -0.5222   -0.4893 O   0  0  0  0  0  0  0  0  0  0  0  0
   -2.3018   -1.3284    0.3087 C   0  0  0  0  0  0  0  0  0  0  0  0
   -1.4823   -2.3744   -0.4641 C   0  0  0  0  0  0  0  0  0  0  0  0
   -0.6191   -1.7937   -1.4186 O   0  0  0  0  0  0  0  0  0  0  0  0
    0.6143   -1.1130   -1.0812 C   0  0  1  0  0  0  0  0  0  0  0  0
    0.8349   -0.2998   -2.3884 C   0  0  2  0  0  0  0  0  0  0  0  0
    1.1023   -1.1603   -3.5053 O   0  0  0  0  0  0  0  0  0  0  0  0
    1.8865    0.7952   -2.1676 C   0  0  2  0  0  0  0  0  0  0  0  0
    1.3253    1.6701   -1.1479 N   0  0  0  0  0  0  0  0  0  0  0  0
    0.9194    1.1449    0.0693 C   0  0  0  0  0  0  0  0  0  0  0  0
    0.6619   -0.1956    0.1731 C   0  0  0  0  0  0  0  0  0  0  0  0
    0.3537   -0.7862    1.4771 C   0  0  0  0  0  0  0  0  0  0  0  0
   -0.0369    0.0320    2.4819 C   0  0  0  0  0  0  0  0  0  0  0  0
    0.1548    1.3929    2.3563 N   0  0  0  0  0  0  0  0  0  0  0  0
   -0.0296    2.3764    3.3031 C   0  0  0  0  0  0  0  0  0  0  0  0
   -0.5428    2.1519    4.6758 C   0  0  0  0  0  0  0  0  0  0  0  0
    0.4790    3.5249    2.7292 C   0  0  0  0  0  0  0  0  0  0  0  0
    0.6559    4.8394    3.3918 C   0  0  0  0  0  0  0  0  0  0  0  0
    0.8826    3.2900    1.4285 N   0  0  0  0  0  0  0  0  0  0  0  0
    0.6920    1.9973    1.2229 C   0  0  0  0  0  0  0  0  0  0  0  0
    2.1444    1.5263   -3.4649 C   0  0  0  0  0  0  0  0  0  0  0  0
    1.1248    2.2488   -4.1018 C   0  0  0  0  0  0  0  0  0  0  0  0
    1.3367    2.8091   -5.3568 C   0  0  0  0  0  0  0  0  0  0  0  0
    2.5154    2.5347   -6.0454 C   0  0  0  0  0  0  0  0  0  0  0  0
    3.5071    1.7569   -5.4522 C   0  0  0  0  0  0  0  0  0  0  0  0
    3.3649    1.3411   -4.1308 C   0  0  0  0  0  0  0  0  0  0  0  0
   -3.0738    1.1195   -1.7635 H   0  0  0  0  0  0  0  0  0  0  0  0
   -2.0996   -0.2610   -2.2197 H   0  0  0  0  0  0  0  0  0  0  0  0
   -1.5954    0.8238   -0.8732 H   0  0  0  0  0  0  0  0  0  0  0  0
   -1.6962   -0.5932    0.7943 H   0  0  0  0  0  0  0  0  0  0  0  0
   -2.8522   -1.8120    1.1213 H   0  0  0  0  0  0  0  0  0  0  0  0
   -0.9056   -3.0596    0.1646 H   0  0  0  0  0  0  0  0  0  0  0  0
   -2.1934   -2.9952   -1.0246 H   0  0  0  0  0  0  0  0  0  0  0  0
    1.3742   -1.8951   -0.9838 H   0  0  0  0  0  0  0  0  0  0  0  0
   -0.1066    0.2056   -2.6408 H   0  0  0  0  0  0  0  0  0  0  0  0
    0.3873   -0.9712   -4.1450 H   0  0  0  0  0  0  0  0  0  0  0  0
    2.8199    0.3465   -1.8033 H   0  0  0  0  0  0  0  0  0  0  0  0
    1.5254    2.6681   -1.1668 H   0  0  0  0  0  0  0  0  0  0  0  0
    0.2025   -1.8491    1.5767 H   0  0  0  0  0  0  0  0  0  0  0  0
   -0.5178   -0.3429    3.3690 H   0  0  0  0  0  0  0  0  0  0  0  0
    0.2538    2.3512    5.4001 H   0  0  0  0  0  0  0  0  0  0  0  0
   -1.3760    2.8304    4.8836 H   0  0  0  0  0  0  0  0  0  0  0  0
   -0.8986    1.1348    4.8493 H   0  0  0  0  0  0  0  0  0  0  0  0
    1.7133    5.1187    3.4131 H   0  0  0  0  0  0  0  0  0  0  0  0
    0.0817    5.6174    2.8849 H   0  0  0  0  0  0  0  0  0  0  0  0
    0.3132    4.7962    4.4329 H   0  0  0  0  0  0  0  0  0  0  0  0
    0.1505    2.3522   -3.6290 H   0  0  0  0  0  0  0  0  0  0  0  0
    0.5670    3.4282   -5.8072 H   0  0  0  0  0  0  0  0  0  0  0  0
    2.6610    2.9256   -7.0478 H   0  0  0  0  0  0  0  0  0  0  0  0
    4.3850    1.4626   -6.0211 H   0  0  0  0  0  0  0  0  0  0  0  0
    4.1915    0.8272   -3.6441 H   0  0  0  0  0  0  0  0  0  0  0  0
  1  2  1  0  0  0  0
  1 28  1  0  0  0  0
  1 29  1  0  0  0  0
  1 30  1  0  0  0  0
  2  3  1  0  0  0  0
  3  4  1  0  0  0  0
  3 31  1  0  0  0  0
  3 32  1  0  0  0  0
  4  5  1  0  0  0  0
  4 33  1  0  0  0  0
  4 34  1  0  0  0  0
  6 12  1  0  0  0  0
  6 35  1  1  0  0  0
  6  5  1  0  0  0  0
  7  6  1  0  0  0  0
  7  9  1  0  0  0  0
  7 36  1  6  0  0  0
  7  8  1  0  0  0  0
  8 37  1  0  0  0  0
  9 10  1  0  0  0  0
  9 38  1  1  0  0  0
  9 22  1  0  0  0  0
 10 11  1  0  0  0  0
 10 39  1  0  0  0  0
 11 12  2  0  0  0  0
 11 21  1  0  0  0  0
 12 13  1  0  0  0  0
 13 14  2  0  0  0  0
 13 40  1  0  0  0  0
 14 15  1  0  0  0  0
 14 41  1  0  0  0  0
 15 16  1  0  0  0  0
 15 21  1  0  0  0  0
 16 17  1  0  0  0  0
 16 18  2  0  0  0  0
 17 42  1  0  0  0  0
 17 43  1  0  0  0  0
 17 44  1  0  0  0  0
 18 19  1  0  0  0  0
 18 20  1  0  0  0  0
 19 45  1  0  0  0  0
 19 46  1  0  0  0  0
 19 47  1  0  0  0  0
 20 21  2  0  0  0  0
 22 23  2  0  0  0  0
 22 27  1  0  0  0  0
 23 24  1  0  0  0  0
 23 48  1  0  0  0  0
 24 25  2  0  0  0  0
 24 49  1  0  0  0  0
 25 26  1  0  0  0  0
 25 50  1  0  0  0  0
 26 27  2  0  0  0  0
 26 51  1  0  0  0  0
 27 52  1  0  0  0  0
M  END
>  <DRUGBANK_ID>
DB17856

>  <COMMON_NAME>
Soraprazan

>  <CAS_NUMBER>
261944-46-1

>  <UNII>
5XB3671655

>  <SYNONYMS>
(7r,8r,9r)-7-(2-methoxyethoxy)-2,3-dimethyl-9-phenyl-7,8,9,10-tetrahydroimidazo(1,2-h)(1,7)naphtyridin-8-ol; Soraprazan

$$$$
