
 OpenBabel10282417183D

 58 59  0  0  0  0  0  0  0  0999 V2000
    0.9619    0.0376   -0.0581 C   0  0  0  0  0  0  0  0  0  0  0  0
    0.5051   -0.3700   -1.4605 C   0  0  0  0  0  0  0  0  0  0  0  0
    0.9957   -1.7628   -1.8599 C   0  0  0  0  0  0  0  0  0  0  0  0
    0.4784   -2.7857   -0.8853 C   0  0  0  0  0  0  0  0  0  0  0  0
   -1.0520   -2.8953   -0.7996 C   0  0  3  0  0  0  0  0  0  0  0  0
   -1.6510   -3.3435   -2.1315 C   0  0  0  0  0  0  0  0  0  0  0  0
   -1.1514   -4.7215   -2.5365 C   0  0  0  0  0  0  0  0  0  0  0  0
   -1.4061   -3.8077    0.3620 C   0  0  0  0  0  0  0  0  0  0  0  0
   -0.8078   -3.2179    1.5351 O   0  0  0  0  0  0  0  0  0  0  0  0
    0.4177   -3.6174    1.9561 C   0  0  0  0  0  0  0  0  0  0  0  0
    1.1660   -4.3858    1.3532 O   0  0  0  0  0  0  0  0  0  0  0  0
    0.7910   -3.0005    3.2439 C   0  0  0  0  0  0  0  0  0  0  0  0
   -0.0997   -2.7082    4.2440 C   0  0  0  0  0  0  0  0  0  0  0  0
    0.4028   -2.2479    5.5832 C   0  0  0  0  0  0  0  0  0  0  0  0
    1.4001   -1.2720    5.7070 C   0  0  0  0  0  0  0  0  0  0  0  0
    1.7813   -0.7875    6.9525 C   0  0  0  0  0  0  0  0  0  0  0  0
    1.1053   -1.2044    8.0917 C   0  0  0  0  0  0  0  0  0  0  0  0
    0.0819   -2.1430    7.9904 C   0  0  0  0  0  0  0  0  0  0  0  0
   -0.2244   -2.7105    6.7535 C   0  0  0  0  0  0  0  0  0  0  0  0
   -1.5881   -2.8626    4.0750 C   0  0  0  0  0  0  0  0  0  0  0  0
   -2.1468   -4.0382    3.5597 C   0  0  0  0  0  0  0  0  0  0  0  0
   -3.5064   -4.1260    3.2758 C   0  0  0  0  0  0  0  0  0  0  0  0
   -4.3715   -3.1199    3.6848 C   0  0  0  0  0  0  0  0  0  0  0  0
   -3.8499   -2.0096    4.3520 C   0  0  0  0  0  0  0  0  0  0  0  0
   -2.4641   -1.8430    4.4781 C   0  0  0  0  0  0  0  0  0  0  0  0
   -5.7243   -3.1290    3.4823 O   0  0  0  0  0  0  0  0  0  0  0  0
   -6.2219   -4.1942    2.6737 C   0  0  0  0  0  0  0  0  0  0  0  0
    2.2854   -2.9221    3.5104 C   0  0  0  0  0  0  0  0  0  0  0  0
    3.5251   -2.8572    3.7315 N   0  0  0  0  0  0  0  0  0  0  0  0
    0.5518   -0.6022    0.7324 H   0  0  0  0  0  0  0  0  0  0  0  0
    0.6249    1.0493    0.1732 H   0  0  0  0  0  0  0  0  0  0  0  0
    2.0531   -0.0038    0.0136 H   0  0  0  0  0  0  0  0  0  0  0  0
   -0.5887   -0.3233   -1.5039 H   0  0  0  0  0  0  0  0  0  0  0  0
    0.8727    0.3499   -2.1931 H   0  0  0  0  0  0  0  0  0  0  0  0
    0.7005   -2.0232   -2.8791 H   0  0  0  0  0  0  0  0  0  0  0  0
    2.0904   -1.8007   -1.8262 H   0  0  0  0  0  0  0  0  0  0  0  0
    0.9283   -3.7675   -1.0578 H   0  0  0  0  0  0  0  0  0  0  0  0
    0.8846   -2.4592    0.0647 H   0  0  0  0  0  0  0  0  0  0  0  0
   -1.4804   -1.9185   -0.5370 H   0  0  0  0  0  0  0  0  0  0  0  0
   -2.7455   -3.3374   -2.0786 H   0  0  0  0  0  0  0  0  0  0  0  0
   -1.3877   -2.6166   -2.9088 H   0  0  0  0  0  0  0  0  0  0  0  0
   -1.4846   -5.4796   -1.8227 H   0  0  0  0  0  0  0  0  0  0  0  0
   -1.5227   -4.9915   -3.5247 H   0  0  0  0  0  0  0  0  0  0  0  0
   -0.0590   -4.7602   -2.5790 H   0  0  0  0  0  0  0  0  0  0  0  0
   -2.4976   -3.8192    0.4949 H   0  0  0  0  0  0  0  0  0  0  0  0
   -1.0887   -4.8479    0.2407 H   0  0  0  0  0  0  0  0  0  0  0  0
    1.9082   -0.8601    4.8399 H   0  0  0  0  0  0  0  0  0  0  0  0
    2.5839   -0.0585    7.0142 H   0  0  0  0  0  0  0  0  0  0  0  0
    1.3729   -0.7883    9.0577 H   0  0  0  0  0  0  0  0  0  0  0  0
   -0.4911   -2.4191    8.8715 H   0  0  0  0  0  0  0  0  0  0  0  0
   -0.9889   -3.4863    6.7131 H   0  0  0  0  0  0  0  0  0  0  0  0
   -1.5147   -4.8635    3.2420 H   0  0  0  0  0  0  0  0  0  0  0  0
   -3.8424   -4.9932    2.7194 H   0  0  0  0  0  0  0  0  0  0  0  0
   -4.5208   -1.2610    4.7663 H   0  0  0  0  0  0  0  0  0  0  0  0
   -2.0831   -0.9157    4.9051 H   0  0  0  0  0  0  0  0  0  0  0  0
   -5.7854   -4.1670    1.6676 H   0  0  0  0  0  0  0  0  0  0  0  0
   -6.0433   -5.1653    3.1492 H   0  0  0  0  0  0  0  0  0  0  0  0
   -7.3027   -4.0703    2.5704 H   0  0  0  0  0  0  0  0  0  0  0  0
  1  2  1  0  0  0  0
  1 30  1  0  0  0  0
  1 31  1  0  0  0  0
  1 32  1  0  0  0  0
  2  3  1  0  0  0  0
  2 33  1  0  0  0  0
  2 34  1  0  0  0  0
  3  4  1  0  0  0  0
  3 35  1  0  0  0  0
  3 36  1  0  0  0  0
  4  5  1  0  0  0  0
  4 37  1  0  0  0  0
  4 38  1  0  0  0  0
  5  6  1  0  0  0  0
  5  8  1  0  0  0  0
  5 39  1  0  0  0  0
  6  7  1  0  0  0  0
  6 40  1  0  0  0  0
  6 41  1  0  0  0  0
  7 42  1  0  0  0  0
  7 43  1  0  0  0  0
  7 44  1  0  0  0  0
  8  9  1  0  0  0  0
  8 45  1  0  0  0  0
  8 46  1  0  0  0  0
  9 10  1  0  0  0  0
 10 11  2  0  0  0  0
 10 12  1  0  0  0  0
 12 13  2  3  0  0  0
 12 28  1  0  0  0  0
 13 14  1  0  0  0  0
 13 20  1  0  0  0  0
 14 15  2  0  0  0  0
 14 19  1  0  0  0  0
 15 16  1  0  0  0  0
 15 47  1  0  0  0  0
 16 17  2  0  0  0  0
 16 48  1  0  0  0  0
 17 18  1  0  0  0  0
 17 49  1  0  0  0  0
 18 19  2  0  0  0  0
 18 50  1  0  0  0  0
 19 51  1  0  0  0  0
 20 21  2  0  0  0  0
 20 25  1  0  0  0  0
 21 22  1  0  0  0  0
 21 52  1  0  0  0  0
 22 23  2  0  0  0  0
 22 53  1  0  0  0  0
 23 24  1  0  0  0  0
 23 26  1  0  0  0  0
 24 25  2  0  0  0  0
 24 54  1  0  0  0  0
 25 55  1  0  0  0  0
 26 27  1  0  0  0  0
 27 56  1  0  0  0  0
 27 57  1  0  0  0  0
 27 58  1  0  0  0  0
 28 29  3  0  0  0  0
M  END
>  <DRUGBANK_ID>
DB11226

>  <COMMON_NAME>
Ethylhexyl methoxycrylene

>  <CAS_NUMBER>
947753-66-4

>  <UNII>
S3KFG6Q5X8

$$$$
