
 OpenBabel10282417193D

110116  0  0  1  0  0  0  0  0999 V2000
    2.1490    2.5595    2.5384 C   0  0  0  0  0  0  0  0  0  0  0  0
    0.2832    2.9800    1.5728 C   0  0  0  0  0  0  0  0  0  0  0  0
   -0.7921    1.7898    1.7864 C   0  0  0  0  0  0  0  0  0  0  0  0
    0.1932    4.9819    1.6440 C   0  0  0  0  0  0  0  0  0  0  0  0
    0.9388    2.5618   -0.2608 C   0  0  2  0  0  0  0  0  0  0  0  0
   -0.2711    1.0790   -0.7713 C   0  0  0  0  0  0  0  0  0  0  0  0
   -1.4085    1.7808   -1.2413 C   0  0  0  0  0  0  0  0  0  0  0  0
   -1.8341    1.3821   -2.3254 O   0  0  0  0  0  0  0  0  0  0  0  0
   -2.0276    2.6834   -0.3742 N   0  0  0  0  0  0  0  0  0  0  0  0
   -3.1636    1.9853    0.0350 C   0  0  0  0  0  0  0  0  0  0  0  0
   -4.0653    3.1525    0.1090 C   0  0  0  0  0  0  0  0  0  0  0  0
   -3.7416    4.2975    1.1228 C   0  0  0  0  0  0  0  0  0  0  0  0
   -2.4887    5.0177    0.8326 C   0  0  0  0  0  0  0  0  0  0  0  0
   -1.7547    3.7813    0.7664 C   0  0  0  0  0  0  0  0  0  0  0  0
    3.0216    2.4105   -0.4573 C   0  0  0  0  0  0  0  0  0  0  0  0
    3.7169    3.2263   -1.1229 O   0  0  0  0  0  0  0  0  0  0  0  0
    3.7502    1.3163    0.2478 N   0  0  0  0  0  0  0  0  0  0  0  0
    3.4082   -0.1507    0.5604 C   0  0  0  0  0  0  0  0  0  0  0  0
    3.4274   -0.3508    2.0994 C   0  0  1  0  0  0  0  0  0  0  0  0
    4.6368    0.5679    2.3589 C   0  0  0  0  0  0  0  0  0  0  0  0
    4.6635    1.6715    1.2805 C   0  0  1  0  0  0  0  0  0  0  0  0
    5.8861    1.9025    0.5242 C   0  0  0  0  0  0  0  0  0  0  0  0
    6.3283    1.0532   -0.2354 O   0  0  0  0  0  0  0  0  0  0  0  0
    6.4219    3.1256    0.6501 N   0  0  0  0  0  0  0  0  0  0  0  0
    6.1679    4.1167    1.6564 C   0  0  2  0  0  0  0  0  0  0  0  0
    4.9533    4.2648    2.6280 C   0  0  0  0  0  0  0  0  0  0  0  0
    4.8816    4.9071    1.2357 C   0  0  1  0  0  0  0  0  0  0  0  0
    4.7440    6.2552    0.5798 C   0  0  0  0  0  0  0  0  0  0  0  0
    3.8173    6.4906   -0.3779 C   0  0  0  0  0  0  0  0  0  0  0  0
    7.6006    4.4578    2.1647 C   0  0  0  0  0  0  0  0  0  0  0  0
    8.4970    3.7659    1.6700 O   0  0  0  0  0  0  0  0  0  0  0  0
    7.9952    5.3846    3.1475 N   0  0  0  0  0  0  0  0  0  0  0  0
    7.1223    6.5472    4.0385 S   0  0  0  0  0  0  0  0  0  0  0  0
    7.0740    6.0539    5.3937 O   0  0  0  0  0  0  0  0  0  0  0  0
    7.6041    7.8454    3.6488 O   0  0  0  0  0  0  0  0  0  0  0  0
    5.5049    6.5569    3.4571 C   0  0  0  0  0  0  0  0  0  0  0  0
    4.4058    7.4649    3.0767 C   0  0  0  0  0  0  0  0  0  0  0  0
    4.2729    6.6262    4.3006 C   0  0  0  0  0  0  0  0  0  0  0  0
    2.2973   -0.1831    3.1258 O   0  0  0  0  0  0  0  0  0  0  0  0
    1.2688    0.8733    2.8710 C   0  0  0  0  0  0  0  0  0  0  0  0
    1.3235    1.9623    4.3470 C   0  0  0  0  0  0  0  0  0  0  0  0
    1.4447    3.6540    4.0945 C   0  0  0  0  0  0  0  0  0  0  0  0
    1.8695    4.4002    2.6439 N   0  0  0  0  0  0  0  0  0  0  0  0
    1.8182    3.6754    0.9932 C   0  0  0  0  0  0  0  0  0  0  0  0
    1.5726    1.5805    1.1241 C   0  0  0  0  0  0  0  0  0  0  0  0
    1.6677    0.8553   -0.4933 C   0  0  0  0  0  0  0  0  0  0  0  0
    1.2144    1.9053   -1.9898 C   0  0  0  0  0  0  0  0  0  0  0  0
    0.4852    3.6161   -1.8073 C   0  0  0  0  0  0  0  0  0  0  0  0
    1.0161    4.5189   -0.4449 C   0  0  0  0  0  0  0  0  0  0  0  0
   -0.2345    4.3110   -2.6733 O   0  0  0  0  0  0  0  0  0  0  0  0
   -0.0453    3.4060   -3.6958 C   0  0  0  0  0  0  0  0  0  0  0  0
    1.2057    4.5721    5.1121 C   0  0  0  0  0  0  0  0  0  0  0  0
   -0.0391    5.1204    5.3948 C   0  0  0  0  0  0  0  0  0  0  0  0
   -0.1506    5.8012    6.5840 C   0  0  0  0  0  0  0  0  0  0  0  0
    0.9768    5.9602    7.3914 C   0  0  0  0  0  0  0  0  0  0  0  0
    2.1980    5.3986    7.0503 C   0  0  0  0  0  0  0  0  0  0  0  0
    2.3312    4.7732    5.8595 C   0  0  0  0  0  0  0  0  0  0  0  0
    0.9209    2.6386    2.7620 H   0  0  0  0  0  0  0  0  0  0  0  0
    2.9578    2.8458    1.8929 H   0  0  0  0  0  0  0  0  0  0  0  0
    2.7421    1.5190    2.2877 H   0  0  0  0  0  0  0  0  0  0  0  0
   -1.1354    1.8420    2.7727 H   0  0  0  0  0  0  0  0  0  0  0  0
   -1.7007    2.0451    1.4234 H   0  0  0  0  0  0  0  0  0  0  0  0
   -0.8608    0.8366    1.2514 H   0  0  0  0  0  0  0  0  0  0  0  0
    1.2863    5.5647    1.3546 H   0  0  0  0  0  0  0  0  0  0  0  0
   -0.3850    5.6495    0.9682 H   0  0  0  0  0  0  0  0  0  0  0  0
   -0.2319    5.0645    2.6019 H   0  0  0  0  0  0  0  0  0  0  0  0
    1.9213    3.2811   -1.0967 H   0  0  0  0  0  0  0  0  0  0  0  0
    0.2585    0.2717   -1.6445 H   0  0  0  0  0  0  0  0  0  0  0  0
   -0.3588    0.1356   -0.1646 H   0  0  0  0  0  0  0  0  0  0  0  0
   -3.1112    1.4797    1.0129 H   0  0  0  0  0  0  0  0  0  0  0  0
   -3.3024    1.1196   -0.6147 H   0  0  0  0  0  0  0  0  0  0  0  0
   -4.9784    2.7002    0.3972 H   0  0  0  0  0  0  0  0  0  0  0  0
   -3.9912    3.5896   -0.8926 H   0  0  0  0  0  0  0  0  0  0  0  0
   -4.4337    5.0998    1.0336 H   0  0  0  0  0  0  0  0  0  0  0  0
   -3.6703    3.8891    2.1546 H   0  0  0  0  0  0  0  0  0  0  0  0
   -2.1972    5.4508   -0.1233 H   0  0  0  0  0  0  0  0  0  0  0  0
   -2.0961    5.5995    1.7071 H   0  0  0  0  0  0  0  0  0  0  0  0
   -0.8643    4.0790    0.4097 H   0  0  0  0  0  0  0  0  0  0  0  0
   -1.6295    3.6207    1.9157 H   0  0  0  0  0  0  0  0  0  0  0  0
    4.1109   -0.6267   -0.1048 H   0  0  0  0  0  0  0  0  0  0  0  0
    2.6308   -0.7875    0.1523 H   0  0  0  0  0  0  0  0  0  0  0  0
    3.5564   -1.4133    2.2171 H   0  0  0  0  0  0  0  0  0  0  0  0
    4.6098    0.9907    3.3687 H   0  0  0  0  0  0  0  0  0  0  0  0
    5.5205   -0.0073    2.1709 H   0  0  0  0  0  0  0  0  0  0  0  0
    4.4470    2.5721    1.7583 H   0  0  0  0  0  0  0  0  0  0  0  0
    7.3597    3.1881    0.2577 H   0  0  0  0  0  0  0  0  0  0  0  0
    4.2537    3.6322    3.1905 H   0  0  0  0  0  0  0  0  0  0  0  0
    5.0796    4.5983    3.6594 H   0  0  0  0  0  0  0  0  0  0  0  0
    4.1744    4.3661    0.6453 H   0  0  0  0  0  0  0  0  0  0  0  0
    5.2645    7.1612    0.9017 H   0  0  0  0  0  0  0  0  0  0  0  0
    3.5928    7.4603   -0.8143 H   0  0  0  0  0  0  0  0  0  0  0  0
    3.2223    5.6697   -0.7629 H   0  0  0  0  0  0  0  0  0  0  0  0
    9.0096    5.3469    3.3179 H   0  0  0  0  0  0  0  0  0  0  0  0
    5.8136    5.9657    2.6822 H   0  0  0  0  0  0  0  0  0  0  0  0
    4.6816    8.4770    2.9291 H   0  0  0  0  0  0  0  0  0  0  0  0
    3.6636    7.1868    2.3065 H   0  0  0  0  0  0  0  0  0  0  0  0
    3.3889    6.0024    4.2233 H   0  0  0  0  0  0  0  0  0  0  0  0
    4.3815    6.9804    5.3017 H   0  0  0  0  0  0  0  0  0  0  0  0
    2.0271    1.7918    5.2032 H   0  0  0  0  0  0  0  0  0  0  0  0
    1.2644   -0.0775    0.0152 H   0  0  0  0  0  0  0  0  0  0  0  0
    1.1197    1.4015   -2.9114 H   0  0  0  0  0  0  0  0  0  0  0  0
    0.5682    5.5327   -0.4987 H   0  0  0  0  0  0  0  0  0  0  0  0
    1.0193    3.1249   -3.8089 H   0  0  0  0  0  0  0  0  0  0  0  0
   -0.6225    2.4970   -3.5582 H   0  0  0  0  0  0  0  0  0  0  0  0
   -0.4040    3.9135   -4.5396 H   0  0  0  0  0  0  0  0  0  0  0  0
   -0.8954    4.9914    4.7348 H   0  0  0  0  0  0  0  0  0  0  0  0
   -1.1166    6.1572    6.9135 H   0  0  0  0  0  0  0  0  0  0  0  0
    0.9220    6.5294    8.3062 H   0  0  0  0  0  0  0  0  0  0  0  0
    3.0445    5.3946    7.7109 H   0  0  0  0  0  0  0  0  0  0  0  0
    3.2839    4.4235    5.4673 H   0  0  0  0  0  0  0  0  0  0  0  0
  1  2  1  0  0  0  0
  1 58  1  0  0  0  0
  1 59  1  0  0  0  0
  1 60  1  0  0  0  0
  2  3  1  0  0  0  0
  2  4  1  0  0  0  0
  3 61  1  0  0  0  0
  3 62  1  0  0  0  0
  3 63  1  0  0  0  0
  4 64  1  0  0  0  0
  4 65  1  0  0  0  0
  4 66  1  0  0  0  0
  5 15  1  0  0  0  0
  5 67  1  6  0  0  0
  5  6  1  0  0  0  0
  5  2  1  0  0  0  0
  6  7  1  0  0  0  0
  6 68  1  0  0  0  0
  6 69  1  0  0  0  0
  7  8  2  0  0  0  0
  7  9  1  0  0  0  0
  9 10  1  0  0  0  0
  9 14  1  0  0  0  0
 10 11  1  0  0  0  0
 10 70  1  0  0  0  0
 10 71  1  0  0  0  0
 11 12  1  0  0  0  0
 11 72  1  0  0  0  0
 11 73  1  0  0  0  0
 12 13  1  0  0  0  0
 12 74  1  0  0  0  0
 12 75  1  0  0  0  0
 13 14  1  0  0  0  0
 13 76  1  0  0  0  0
 13 77  1  0  0  0  0
 14 78  1  0  0  0  0
 14 79  1  0  0  0  0
 15 16  2  0  0  0  0
 15 17  1  0  0  0  0
 17 18  1  0  0  0  0
 17 21  1  0  0  0  0
 18 19  1  0  0  0  0
 18 80  1  0  0  0  0
 18 81  1  0  0  0  0
 19 20  1  0  0  0  0
 19 39  1  0  0  0  0
 19 82  1  1  0  0  0
 20 21  1  0  0  0  0
 20 83  1  0  0  0  0
 20 84  1  0  0  0  0
 21 85  1  1  0  0  0
 21 22  1  0  0  0  0
 22 23  2  0  0  0  0
 22 24  1  0  0  0  0
 24 86  1  0  0  0  0
 25 24  1  0  0  0  0
 25 26  1  0  0  0  0
 25 27  1  0  0  0  0
 25 30  1  1  0  0  0
 26 27  1  0  0  0  0
 26 87  1  0  0  0  0
 26 88  1  0  0  0  0
 27 28  1  0  0  0  0
 27 89  1  6  0  0  0
 28 29  2  0  0  0  0
 28 90  1  0  0  0  0
 29 91  1  0  0  0  0
 29 92  1  0  0  0  0
 30 31  2  0  0  0  0
 30 32  1  0  0  0  0
 32 33  1  0  0  0  0
 32 93  1  0  0  0  0
 33 34  2  0  0  0  0
 33 35  2  0  0  0  0
 33 36  1  0  0  0  0
 36 37  1  0  0  0  0
 36 38  1  0  0  0  0
 36 94  1  0  0  0  0
 37 38  1  0  0  0  0
 37 95  1  0  0  0  0
 37 96  1  0  0  0  0
 38 97  1  0  0  0  0
 38 98  1  0  0  0  0
 39 40  1  0  0  0  0
 40 41  1  0  0  0  0
 40 45  2  0  0  0  0
 41 42  2  0  0  0  0
 41 99  1  0  0  0  0
 42 43  1  0  0  0  0
 42 52  1  0  0  0  0
 43 44  2  0  0  0  0
 44 45  1  0  0  0  0
 44 49  1  0  0  0  0
 45 46  1  0  0  0  0
 46 47  2  0  0  0  0
 46100  1  0  0  0  0
 47 48  1  0  0  0  0
 47101  1  0  0  0  0
 48 49  2  0  0  0  0
 48 50  1  0  0  0  0
 49102  1  0  0  0  0
 50 51  1  0  0  0  0
 51103  1  0  0  0  0
 51104  1  0  0  0  0
 51105  1  0  0  0  0
 52 53  2  0  0  0  0
 52 57  1  0  0  0  0
 53 54  1  0  0  0  0
 53106  1  0  0  0  0
 54 55  2  0  0  0  0
 54107  1  0  0  0  0
 55 56  1  0  0  0  0
 55108  1  0  0  0  0
 56 57  2  0  0  0  0
 56109  1  0  0  0  0
 57110  1  0  0  0  0
M  END
>  <DRUGBANK_ID>
DB12069

>  <COMMON_NAME>
Sovaprevir

>  <CAS_NUMBER>
1001667-23-7

>  <UNII>
2ND9V3MN6O

>  <SYNONYMS>
Sovaprevir

$$$$
