CCT
 OpenBabel10282417163D

 41 43  0  0  0  0  0  0  0  0999 V2000
    0.2337   -1.1927   -0.0390 C   0  0  0  0  0  0  0  0  0  0  0  0
   -0.4686    0.0123   -0.0449 C   0  0  0  0  0  0  0  0  0  0  0  0
    0.2425    1.2164   -0.0258 C   0  0  0  0  0  0  0  0  0  0  0  0
    1.6457    1.2173    0.0668 C   0  0  0  0  0  0  0  0  0  0  0  0
    2.3591    0.0166    0.1597 C   0  0  0  0  0  0  0  0  0  0  0  0
    1.6340   -1.1883    0.0566 C   0  0  0  0  0  0  0  0  0  0  0  0
    6.2706    0.1653    0.7834 C   0  0  0  0  0  0  0  0  0  0  0  0
    6.0530   -0.5749   -0.3827 C   0  0  0  0  0  0  0  0  0  0  0  0
    4.6559   -0.6458   -0.6628 C   0  0  0  0  0  0  0  0  0  0  0  0
    3.8334   -0.0162    0.2392 C   0  0  0  0  0  0  0  0  0  0  0  0
    4.7760    0.7024    1.4772 S   0  0  0  0  0  0  0  0  0  0  0  0
   -1.9083    0.0102   -0.0235 C   0  0  0  0  0  0  0  0  0  0  0  0
   -3.0619    0.0032    0.0332 N   0  0  0  0  0  0  0  0  0  0  0  0
    7.5805    0.4915    1.3430 C   0  0  0  0  0  0  0  0  0  0  0  0
    7.5857    1.1949    2.5080 O   0  0  0  0  0  0  0  0  0  0  0  0
    8.6382    0.1721    0.8109 O   0  0  0  0  0  0  0  0  0  0  0  0
    7.0594   -1.1047   -1.2516 N   0  0  0  0  0  0  0  0  0  0  0  0
    6.7917   -1.9563   -2.7158 S   0  0  0  0  0  0  0  0  0  0  0  0
    7.3198    0.4005   -4.1628 C   0  0  0  0  0  0  0  0  0  0  0  0
    7.5364   -0.9843   -4.0385 C   0  0  0  0  0  0  0  0  0  0  0  0
    8.1887   -1.6792   -5.0752 C   0  0  0  0  0  0  0  0  0  0  0  0
    8.6226   -0.9988   -6.2206 C   0  0  0  0  0  0  0  0  0  0  0  0
    8.4234    0.3737   -6.3360 C   0  0  0  0  0  0  0  0  0  0  0  0
    7.7829    1.0661   -5.3124 C   0  0  0  0  0  0  0  0  0  0  0  0
    6.5865    1.2341   -3.1670 C   0  0  0  0  0  0  0  0  0  0  0  0
    7.5376   -3.1930   -2.6090 O   0  0  0  0  0  0  0  0  0  0  0  0
    5.3869   -1.9846   -3.0632 O   0  0  0  0  0  0  0  0  0  0  0  0
   -0.3004   -2.1413   -0.0905 H   0  0  0  0  0  0  0  0  0  0  0  0
   -0.2902    2.1653   -0.0692 H   0  0  0  0  0  0  0  0  0  0  0  0
    2.1707    2.1690    0.0512 H   0  0  0  0  0  0  0  0  0  0  0  0
    2.1514   -2.1475    0.0569 H   0  0  0  0  0  0  0  0  0  0  0  0
    4.2120   -1.1079   -1.5292 H   0  0  0  0  0  0  0  0  0  0  0  0
    6.7185    1.4223    2.8887 H   0  0  0  0  0  0  0  0  0  0  0  0
    8.0457   -0.9717   -0.9930 H   0  0  0  0  0  0  0  0  0  0  0  0
    8.3236   -2.7591   -5.0277 H   0  0  0  0  0  0  0  0  0  0  0  0
    9.0992   -1.5395   -7.0358 H   0  0  0  0  0  0  0  0  0  0  0  0
    8.7525    0.9073   -7.2252 H   0  0  0  0  0  0  0  0  0  0  0  0
    7.6170    2.1372   -5.4219 H   0  0  0  0  0  0  0  0  0  0  0  0
    7.2491    1.9811   -2.7237 H   0  0  0  0  0  0  0  0  0  0  0  0
    5.6927    1.6863   -3.5989 H   0  0  0  0  0  0  0  0  0  0  0  0
    6.2063    0.6453   -2.3621 H   0  0  0  0  0  0  0  0  0  0  0  0
  1  2  1  0  0  0  0
  1  6  2  0  0  0  0
  1 28  1  0  0  0  0
  2  3  2  0  0  0  0
  2 12  1  0  0  0  0
  3  4  1  0  0  0  0
  3 29  1  0  0  0  0
  4  5  2  0  0  0  0
  4 30  1  0  0  0  0
  5  6  1  0  0  0  0
  5 10  1  0  0  0  0
  6 31  1  0  0  0  0
  7  8  2  0  0  0  0
  7 11  1  0  0  0  0
  7 14  1  0  0  0  0
  8  9  1  0  0  0  0
  8 17  1  0  0  0  0
  9 10  2  0  0  0  0
  9 32  1  0  0  0  0
 10 11  1  0  0  0  0
 12 13  3  0  0  0  0
 14 15  1  0  0  0  0
 14 16  2  0  0  0  0
 15 33  1  0  0  0  0
 17 18  1  0  0  0  0
 17 34  1  0  0  0  0
 18 20  1  0  0  0  0
 18 26  2  0  0  0  0
 18 27  2  0  0  0  0
 19 20  1  0  0  0  0
 19 24  2  0  0  0  0
 19 25  1  0  0  0  0
 20 21  2  0  0  0  0
 21 22  1  0  0  0  0
 21 35  1  0  0  0  0
 22 23  2  0  0  0  0
 22 36  1  0  0  0  0
 23 24  1  0  0  0  0
 23 37  1  0  0  0  0
 24 38  1  0  0  0  0
 25 39  1  0  0  0  0
 25 40  1  0  0  0  0
 25 41  1  0  0  0  0
M  END
>  <DRUGBANK_ID>
DB07547

>  <COMMON_NAME>
5-(4-CYANOPHENYL)-3-{[(2-METHYLPHENYL)SULFONYL]AMINO}THIOPHENE-2-CARBOXYLIC ACID

$$$$
