PST
 OpenBabel10282417173D

 36 37  0  0  0  0  0  0  0  0999 V2000
    0.9271   -0.0462    0.0505 P   0  0  0  0  0  0  0  0  0  0  0  0
    0.8989    0.8322   -1.2984 O   0  0  0  0  0  0  0  0  0  0  0  0
    0.7873   -1.6595    0.1452 O   0  0  0  0  0  0  0  0  0  0  0  0
   -0.9703   -0.0462    0.0505 S   0  0  0  0  0  0  0  0  0  0  0  0
    2.6571   -0.0462    0.0505 O   0  0  0  0  0  0  0  0  0  0  0  0
    3.2794    0.3079   -1.2690 C   0  0  0  0  0  0  0  0  0  0  0  0
    2.8406   -0.5480   -2.5766 C   0  0  1  0  0  0  0  0  0  0  0  0
    3.9478   -1.1719   -3.2473 O   0  0  0  0  0  0  0  0  0  0  0  0
    2.0198   -1.7482   -2.2310 C   0  0  1  0  0  0  0  0  0  0  0  0
    0.8289   -2.0765   -2.8773 O   0  0  0  0  0  0  0  0  0  0  0  0
    2.9051   -2.8717   -1.8745 C   0  0  0  0  0  0  0  0  0  0  0  0
    3.8949   -2.5982   -2.9614 C   0  0  2  0  0  0  0  0  0  0  0  0
    5.2072   -3.0496   -2.6157 N   0  0  0  0  0  0  0  0  0  0  0  0
    5.8328   -2.4857   -1.5159 C   0  0  0  0  0  0  0  0  0  0  0  0
    5.3562   -1.6378   -0.7710 O   0  0  0  0  0  0  0  0  0  0  0  0
    7.0801   -2.9470   -1.2494 N   0  0  0  0  0  0  0  0  0  0  0  0
    7.8394   -3.6216   -2.1423 C   0  0  0  0  0  0  0  0  0  0  0  0
    9.0615   -3.7376   -1.9973 O   0  0  0  0  0  0  0  0  0  0  0  0
    7.1293   -4.2212   -3.2921 C   0  0  0  0  0  0  0  0  0  0  0  0
    7.9242   -5.0203   -4.2566 C   0  0  0  0  0  0  0  0  0  0  0  0
    5.8258   -3.9628   -3.4283 C   0  0  0  0  0  0  0  0  0  0  0  0
    2.2946    0.1069   -3.2678 H   0  0  0  0  0  0  0  0  0  0  0  0
    1.6968   -1.4178   -1.3416 H   0  0  0  0  0  0  0  0  0  0  0  0
    3.5144   -3.0916   -3.8668 H   0  0  0  0  0  0  0  0  0  0  0  0
    0.7495    1.7577   -0.9805 H   0  0  0  0  0  0  0  0  0  0  0  0
    1.5403   -2.2620    0.1970 H   0  0  0  0  0  0  0  0  0  0  0  0
    3.0307    1.3673   -1.4454 H   0  0  0  0  0  0  0  0  0  0  0  0
    4.3613    0.3456   -1.1453 H   0  0  0  0  0  0  0  0  0  0  0  0
    0.9959   -2.3393   -3.7862 H   0  0  0  0  0  0  0  0  0  0  0  0
    3.3228   -2.7423   -0.8640 H   0  0  0  0  0  0  0  0  0  0  0  0
    2.4289   -3.8547   -1.8737 H   0  0  0  0  0  0  0  0  0  0  0  0
    7.5373   -2.5085   -0.4665 H   0  0  0  0  0  0  0  0  0  0  0  0
    8.6912   -4.3815   -4.7074 H   0  0  0  0  0  0  0  0  0  0  0  0
    8.4091   -5.8568   -3.7495 H   0  0  0  0  0  0  0  0  0  0  0  0
    7.3037   -5.4140   -5.0676 H   0  0  0  0  0  0  0  0  0  0  0  0
    5.2307   -4.4078   -4.2231 H   0  0  0  0  0  0  0  0  0  0  0  0
  1  2  1  0  0  0  0
  1  3  1  0  0  0  0
  1  4  2  0  0  0  0
  1  5  1  0  0  0  0
  2 25  1  0  0  0  0
  3 26  1  0  0  0  0
  5  6  1  0  0  0  0
  6 27  1  0  0  0  0
  6 28  1  0  0  0  0
  7  6  1  0  0  0  0
  7  8  1  0  0  0  0
  7  9  1  0  0  0  0
  7 22  1  6  0  0  0
  8 12  1  0  0  0  0
  9 10  1  0  0  0  0
  9 11  1  0  0  0  0
  9 23  1  1  0  0  0
 10 29  1  0  0  0  0
 11 12  1  0  0  0  0
 11 30  1  0  0  0  0
 11 31  1  0  0  0  0
 12 24  1  6  0  0  0
 12 13  1  0  0  0  0
 13 14  1  0  0  0  0
 13 21  1  0  0  0  0
 14 15  2  0  0  0  0
 14 16  1  0  0  0  0
 16 17  1  0  0  0  0
 16 32  1  0  0  0  0
 17 18  2  0  0  0  0
 17 19  1  0  0  0  0
 19 20  1  0  0  0  0
 19 21  2  0  0  0  0
 20 33  1  0  0  0  0
 20 34  1  0  0  0  0
 20 35  1  0  0  0  0
 21 36  1  0  0  0  0
M  END
>  <DRUGBANK_ID>
DB08432

>  <COMMON_NAME>
THYMIDINE-5'-THIOPHOSPHATE

$$$$
