
 OpenBabel10282417123D

 41 40  0  0  0  0  0  0  0  0999 V2000
    1.7272    0.7058   -0.0715 C   0  0  0  0  0  0  0  0  0  0  0  0
    0.9675    1.1322    1.0473 O   0  0  0  0  0  0  0  0  0  0  0  0
    1.4150    0.5076    2.2481 C   0  0  0  0  0  0  0  0  0  0  0  0
    1.2606   -1.0342    2.3232 C   0  0  0  0  0  0  0  0  0  0  0  0
    1.3715   -1.9446    1.2368 O   0  0  0  0  0  0  0  0  0  0  0  0
    0.3261   -1.7399    0.1874 C   0  0  0  0  0  0  0  0  0  0  0  0
   -1.0836   -0.8960    0.1870 C   0  0  0  0  0  0  0  0  0  0  0  0
   -1.6126   -0.3098    1.4209 O   0  0  0  0  0  0  0  0  0  0  0  0
   -1.4148   -0.7918    2.8195 C   0  0  0  0  0  0  0  0  0  0  0  0
   -1.0996   -2.4660    3.2216 C   0  0  0  0  0  0  0  0  0  0  0  0
   -1.0802   -3.5961    2.2218 O   0  0  0  0  0  0  0  0  0  0  0  0
   -1.7271   -3.4660    0.8968 C   0  0  0  0  0  0  0  0  0  0  0  0
   -3.2687   -2.9330    0.4322 C   0  0  0  0  0  0  0  0  0  0  0  0
   -4.0744   -2.1031    1.2971 O   0  0  0  0  0  0  0  0  0  0  0  0
   -3.7720   -2.4320    2.6261 C   0  0  0  0  0  0  0  0  0  0  0  0
   -3.8563   -3.8852    3.1213 C   0  0  0  0  0  0  0  0  0  0  0  0
   -3.2308   -4.9201    2.3784 O   0  0  0  0  0  0  0  0  0  0  0  0
    1.1014    0.7705   -0.9808 H   0  0  0  0  0  0  0  0  0  0  0  0
    2.0054   -0.3351    0.0275 H   0  0  0  0  0  0  0  0  0  0  0  0
    2.7740    0.9283   -0.0703 H   0  0  0  0  0  0  0  0  0  0  0  0
    2.4592    0.7409    2.3828 H   0  0  0  0  0  0  0  0  0  0  0  0
    0.8612    1.0121    3.0657 H   0  0  0  0  0  0  0  0  0  0  0  0
    1.3430   -1.4361    3.3454 H   0  0  0  0  0  0  0  0  0  0  0  0
    0.2401   -1.1202    2.1613 H   0  0  0  0  0  0  0  0  0  0  0  0
    0.5230   -0.7694   -0.0478 H   0  0  0  0  0  0  0  0  0  0  0  0
    0.7096   -2.2075   -0.7268 H   0  0  0  0  0  0  0  0  0  0  0  0
   -1.2111   -0.2679   -0.7326 H   0  0  0  0  0  0  0  0  0  0  0  0
   -1.8129   -1.5370   -0.2585 H   0  0  0  0  0  0  0  0  0  0  0  0
   -0.5914   -0.2542    3.2946 H   0  0  0  0  0  0  0  0  0  0  0  0
   -2.0870   -0.2402    3.5022 H   0  0  0  0  0  0  0  0  0  0  0  0
   -0.4152   -2.6983    4.0484 H   0  0  0  0  0  0  0  0  0  0  0  0
   -1.9404   -2.6519    3.8757 H   0  0  0  0  0  0  0  0  0  0  0  0
   -1.2887   -2.4928    0.9957 H   0  0  0  0  0  0  0  0  0  0  0  0
   -1.1587   -3.8363    0.0241 H   0  0  0  0  0  0  0  0  0  0  0  0
   -3.2801   -2.4273   -0.5491 H   0  0  0  0  0  0  0  0  0  0  0  0
   -3.8887   -3.7886    0.2287 H   0  0  0  0  0  0  0  0  0  0  0  0
   -2.7645   -2.2849    2.4015 H   0  0  0  0  0  0  0  0  0  0  0  0
   -3.8862   -1.6602    3.4001 H   0  0  0  0  0  0  0  0  0  0  0  0
   -3.3700   -3.9859    4.1010 H   0  0  0  0  0  0  0  0  0  0  0  0
   -4.9051   -4.1129    3.1864 H   0  0  0  0  0  0  0  0  0  0  0  0
   -3.5786   -4.9329    1.4613 H   0  0  0  0  0  0  0  0  0  0  0  0
  1  2  1  0  0  0  0
  1 18  1  0  0  0  0
  1 19  1  0  0  0  0
  1 20  1  0  0  0  0
  2  3  1  0  0  0  0
  3  4  1  0  0  0  0
  3 21  1  0  0  0  0
  3 22  1  0  0  0  0
  4  5  1  0  0  0  0
  4 23  1  0  0  0  0
  4 24  1  0  0  0  0
  5  6  1  0  0  0  0
  6  7  1  0  0  0  0
  6 25  1  0  0  0  0
  6 26  1  0  0  0  0
  7  8  1  0  0  0  0
  7 27  1  0  0  0  0
  7 28  1  0  0  0  0
  8  9  1  0  0  0  0
  9 10  1  0  0  0  0
  9 29  1  0  0  0  0
  9 30  1  0  0  0  0
 10 11  1  0  0  0  0
 10 31  1  0  0  0  0
 10 32  1  0  0  0  0
 11 12  1  0  0  0  0
 12 13  1  0  0  0  0
 12 33  1  0  0  0  0
 12 34  1  0  0  0  0
 13 14  1  0  0  0  0
 13 35  1  0  0  0  0
 13 36  1  0  0  0  0
 14 15  1  0  0  0  0
 15 16  1  0  0  0  0
 15 37  1  0  0  0  0
 15 38  1  0  0  0  0
 16 17  1  0  0  0  0
 16 39  1  0  0  0  0
 16 40  1  0  0  0  0
 17 41  1  0  0  0  0
M  END
>  <DRUGBANK_ID>
DB02042

>  <SECONDARY_ACCESSION_NUMBERS>
EXPT00082

>  <COMMON_NAME>
2-(2-{2-[2-(2-Methoxy-Ethoxy)-Ethoxy]-Ethoxy}-Ethoxy)-Ethanol

$$$$
