
 OpenBabel10282417133D

 81 83  0  0  0  0  0  0  0  0999 V2000
    1.4710   -0.9178   -0.5125 C   0  0  1  0  0  0  0  0  0  0  0  0
    0.0900   -1.5698   -0.5535 C   0  0  0  0  0  0  0  0  0  0  0  0
   -0.9221   -0.7958    0.2671 C   0  0  1  0  0  0  0  0  0  0  0  0
   -0.9439    0.6854   -0.1477 C   0  0  0  0  0  0  0  0  0  0  0  0
    0.3862    1.3586   -0.1728 C   0  0  0  0  0  0  0  0  0  0  0  0
    1.4485    0.5706   -0.8944 C   0  0  0  0  0  0  0  0  0  0  0  0
    2.0717   -1.1011    0.7725 O   0  0  0  0  0  0  0  0  0  0  0  0
   -2.2098   -1.3967    0.1468 O   0  0  0  0  0  0  0  0  0  0  0  0
   -2.1010    1.3540   -0.3322 C   0  0  0  0  0  0  0  0  0  0  0  0
    0.7311    2.5044    0.4674 C   0  0  0  0  0  0  0  0  0  0  0  0
   -0.1427    3.2739    1.3201 C   0  0  0  0  0  0  0  0  0  0  0  0
   -0.9162    2.6825    2.2408 C   0  0  0  0  0  0  0  0  0  0  0  0
   -0.9404    1.2161    2.6101 C   0  0  0  0  0  0  0  0  0  0  0  0
   -0.8310    0.8088    4.0628 C   0  0  0  0  0  0  0  0  0  0  0  0
   -1.8910    1.4242    4.9359 C   0  0  0  0  0  0  0  0  0  0  0  0
   -2.0416    3.3219    2.9184 C   0  0  1  0  0  0  0  0  0  0  0  0
   -1.8543    2.8702    4.6796 C   0  0  1  0  0  0  0  0  0  0  0  0
   -3.1446    4.0721    5.7534 C   0  0  2  0  0  0  0  0  0  0  0  0
   -3.4859    5.5913    4.2849 C   0  0  0  0  0  0  0  0  0  0  0  0
   -2.4375    4.9873    2.6951 C   0  0  0  0  0  0  0  0  0  0  0  0
   -2.8763    2.7940    2.4412 H   0  0  0  0  0  0  0  0  0  0  0  0
   -0.0943    3.4349    4.9842 C   0  0  0  0  0  0  0  0  0  0  0  0
   -2.5604    4.4388    7.1835 C   0  0  1  0  0  0  0  0  0  0  0  0
   -3.1252    5.7792    7.5551 C   0  0  0  0  0  0  0  0  0  0  0  0
   -3.5902    3.1020    5.8733 H   0  0  0  0  0  0  0  0  0  0  0  0
   -2.9097    3.2793    7.9529 O   0  0  0  0  0  0  0  0  0  0  0  0
   -4.2254    2.6944    7.6740 C   0  0  0  0  0  0  0  0  0  0  0  0
   -5.3558    3.7541    7.6414 C   0  0  0  0  0  0  0  0  0  0  0  0
   -5.4764    4.9307    6.4854 C   0  0  0  0  0  0  0  0  0  0  0  0
   -5.4858    4.5778    4.9679 C   0  0  0  0  0  0  0  0  0  0  0  0
   -6.7794    3.8401    4.8995 C   0  0  0  0  0  0  0  0  0  0  0  0
   -7.8637    4.8739    5.3161 C   0  0  0  0  0  0  0  0  0  0  0  0
   -5.8279    5.8048    4.2270 O   0  0  0  0  0  0  0  0  0  0  0  0
   -3.9178    3.7943    4.1499 C   0  0  0  0  0  0  0  0  0  0  0  0
   -2.0059    4.7270    4.6328 C   0  0  0  0  0  0  0  0  0  0  0  0
    2.1153   -1.4420   -1.2250 H   0  0  0  0  0  0  0  0  0  0  0  0
   -0.2728   -1.6261   -1.5839 H   0  0  0  0  0  0  0  0  0  0  0  0
    0.1435   -2.5970   -0.1716 H   0  0  0  0  0  0  0  0  0  0  0  0
   -0.6563   -0.9333    1.3211 H   0  0  0  0  0  0  0  0  0  0  0  0
    2.4401    0.9986   -0.6969 H   0  0  0  0  0  0  0  0  0  0  0  0
    1.2469    0.6753   -1.9645 H   0  0  0  0  0  0  0  0  0  0  0  0
    1.5554   -0.6083    1.4340 H   0  0  0  0  0  0  0  0  0  0  0  0
   -2.5037   -1.2429   -0.7651 H   0  0  0  0  0  0  0  0  0  0  0  0
   -2.1304    2.4242   -0.5055 H   0  0  0  0  0  0  0  0  0  0  0  0
   -3.0645    0.8795   -0.1601 H   0  0  0  0  0  0  0  0  0  0  0  0
    1.7441    2.9036    0.3945 H   0  0  0  0  0  0  0  0  0  0  0  0
   -0.2078    4.3459    1.1361 H   0  0  0  0  0  0  0  0  0  0  0  0
   -1.8906    0.8003    2.2454 H   0  0  0  0  0  0  0  0  0  0  0  0
   -0.0870    0.7337    2.1567 H   0  0  0  0  0  0  0  0  0  0  0  0
   -0.9253   -0.2695    4.1427 H   0  0  0  0  0  0  0  0  0  0  0  0
    0.1753    1.0756    4.3923 H   0  0  0  0  0  0  0  0  0  0  0  0
   -2.8872    1.0488    4.6944 H   0  0  0  0  0  0  0  0  0  0  0  0
   -1.6502    1.3319    5.9914 H   0  0  0  0  0  0  0  0  0  0  0  0
   -3.0779    6.5932    4.5278 H   0  0  0  0  0  0  0  0  0  0  0  0
   -4.2180    5.6460    3.4573 H   0  0  0  0  0  0  0  0  0  0  0  0
   -1.4678    5.5443    2.5932 H   0  0  0  0  0  0  0  0  0  0  0  0
   -2.9591    5.1907    1.7715 H   0  0  0  0  0  0  0  0  0  0  0  0
    0.0850    4.4929    4.6365 H   0  0  0  0  0  0  0  0  0  0  0  0
    0.0125    3.5250    6.0756 H   0  0  0  0  0  0  0  0  0  0  0  0
    0.7000    2.9172    4.4919 H   0  0  0  0  0  0  0  0  0  0  0  0
   -1.4853    4.6484    7.2494 H   0  0  0  0  0  0  0  0  0  0  0  0
   -4.0253    5.2975    7.7014 H   0  0  0  0  0  0  0  0  0  0  0  0
   -3.3771    6.2467    8.4925 H   0  0  0  0  0  0  0  0  0  0  0  0
   -3.2072    6.4910    6.7100 H   0  0  0  0  0  0  0  0  0  0  0  0
   -4.3406    2.0405    6.7837 H   0  0  0  0  0  0  0  0  0  0  0  0
   -4.3145    1.8857    8.3921 H   0  0  0  0  0  0  0  0  0  0  0  0
   -6.3048    3.2242    7.6432 H   0  0  0  0  0  0  0  0  0  0  0  0
   -5.2659    4.2310    8.6310 H   0  0  0  0  0  0  0  0  0  0  0  0
   -6.1356    5.6957    6.9501 H   0  0  0  0  0  0  0  0  0  0  0  0
   -4.7951    5.7455    6.3173 H   0  0  0  0  0  0  0  0  0  0  0  0
   -6.8889    3.5118    3.8745 H   0  0  0  0  0  0  0  0  0  0  0  0
   -6.7735    2.9840    5.5791 H   0  0  0  0  0  0  0  0  0  0  0  0
   -7.8047    5.7936    4.7182 H   0  0  0  0  0  0  0  0  0  0  0  0
   -8.8459    4.4611    5.2115 H   0  0  0  0  0  0  0  0  0  0  0  0
   -7.7725    5.2258    6.3525 H   0  0  0  0  0  0  0  0  0  0  0  0
   -5.8973    6.5777    4.8129 H   0  0  0  0  0  0  0  0  0  0  0  0
   -4.2851    2.7500    4.5611 H   0  0  0  0  0  0  0  0  0  0  0  0
   -4.2678    3.3841    3.1656 H   0  0  0  0  0  0  0  0  0  0  0  0
   -2.0336    5.5494    5.4371 H   0  0  0  0  0  0  0  0  0  0  0  0
   -1.4700    4.3580    5.5323 H   0  0  0  0  0  0  0  0  0  0  0  0
   -1.3749    5.5143    4.1935 H   0  0  0  0  0  0  0  0  0  0  0  0
  1  6  1  0  0  0  0
  1  7  1  0  0  0  0
  1  2  1  0  0  0  0
  1 36  1  6  0  0  0
  2  3  1  0  0  0  0
  2 37  1  0  0  0  0
  2 38  1  0  0  0  0
  3  8  1  0  0  0  0
  3  4  1  0  0  0  0
  3 39  1  1  0  0  0
  4  9  2  0  0  0  0
  4  5  1  0  0  0  0
  5 10  2  0  0  0  0
  5  6  1  0  0  0  0
  6 40  1  0  0  0  0
  6 41  1  0  0  0  0
  7 42  1  0  0  0  0
  8 43  1  0  0  0  0
  9 44  1  0  0  0  0
  9 45  1  0  0  0  0
 10 11  1  0  0  0  0
 10 46  1  0  0  0  0
 11 12  2  0  0  0  0
 11 47  1  0  0  0  0
 12 13  1  0  0  0  0
 12 16  1  0  0  0  0
 13 14  1  0  0  0  0
 13 48  1  0  0  0  0
 13 49  1  0  0  0  0
 14 15  1  0  0  0  0
 14 50  1  0  0  0  0
 14 51  1  0  0  0  0
 15 17  1  0  0  0  0
 15 52  1  0  0  0  0
 15 53  1  0  0  0  0
 16 21  1  6  0  0  0
 16 17  1  0  0  0  0
 17 18  1  0  0  0  0
 17 22  1  1  0  0  0
 18 19  1  0  0  0  0
 18 25  1  1  0  0  0
 18 23  1  0  0  0  0
 19 20  1  0  0  0  0
 19 54  1  0  0  0  0
 19 55  1  0  0  0  0
 20 16  1  0  0  0  0
 20 56  1  0  0  0  0
 20 57  1  0  0  0  0
 22 58  1  0  0  0  0
 22 59  1  0  0  0  0
 22 60  1  0  0  0  0
 23 24  1  0  0  0  0
 23 26  1  0  0  0  0
 23 61  1  6  0  0  0
 24 62  1  0  0  0  0
 24 63  1  0  0  0  0
 24 64  1  0  0  0  0
 26 27  1  0  0  0  0
 27 28  1  0  0  0  0
 27 65  1  0  0  0  0
 27 66  1  0  0  0  0
 28 29  1  0  0  0  0
 28 67  1  0  0  0  0
 28 68  1  0  0  0  0
 29 30  1  0  0  0  0
 29 69  1  0  0  0  0
 29 70  1  0  0  0  0
 30 31  1  0  0  0  0
 30 33  1  0  0  0  0
 30 34  1  0  0  0  0
 31 32  1  0  0  0  0
 31 71  1  0  0  0  0
 31 72  1  0  0  0  0
 32 73  1  0  0  0  0
 32 74  1  0  0  0  0
 32 75  1  0  0  0  0
 33 76  1  0  0  0  0
 34 35  1  0  0  0  0
 34 77  1  0  0  0  0
 34 78  1  0  0  0  0
 35 79  1  0  0  0  0
 35 80  1  0  0  0  0
 35 81  1  0  0  0  0
M  END
>  <DRUGBANK_ID>
DB03451

>  <SECONDARY_ACCESSION_NUMBERS>
EXPT01970

>  <COMMON_NAME>
Lexacalcitol

>  <CAS_NUMBER>
131875-08-6

>  <UNII>
9G3DCA3958

>  <SYNONYMS>
Lexacalcitol

$$$$
