
 OpenBabel10282417103D

 53 56  0  0  0  0  0  0  0  0999 V2000
    0.9306    1.5901    0.0932 C   0  0  0  0  0  0  0  0  0  0  0  0
    2.2345    1.0857    0.0307 C   0  0  0  0  0  0  0  0  0  0  0  0
    2.4140   -0.3094   -0.0500 C   0  0  0  0  0  0  0  0  0  0  0  0
    1.2754   -1.0646   -0.4314 C   0  0  0  0  0  0  0  0  0  0  0  0
    0.1205   -0.4128   -0.8436 C   0  0  0  0  0  0  0  0  0  0  0  0
   -0.1342    0.6846   -0.0696 C   0  0  0  0  0  0  0  0  0  0  0  0
   -1.3098    0.1041    0.7414 C   0  0  0  0  0  0  0  0  0  0  0  0
   -0.9942   -1.2816   -1.1306 C   0  0  0  0  0  0  0  0  0  0  0  0
   -2.5380   -0.4717   -0.8433 C   0  0  0  0  0  0  0  0  0  0  0  0
   -2.4895    0.8198    0.4810 C   0  0  1  0  0  0  0  0  0  0  0  0
   -3.2708   -1.1025    1.9755 C   0  0  2  0  0  0  0  0  0  0  0  0
   -1.7599   -1.0951    1.4556 C   0  0  0  0  0  0  0  0  0  0  0  0
   -2.3436    1.1685    2.1311 N   0  0  0  0  0  0  0  0  0  0  0  0
   -3.3247    0.2237    2.7400 C   0  0  0  0  0  0  0  0  0  0  0  0
   -0.4951   -2.5140   -0.6886 C   0  0  0  0  0  0  0  0  0  0  0  0
    0.8772   -2.3807   -0.3784 N   0  0  0  0  0  0  0  0  0  0  0  0
   -2.8836    1.7295    0.0272 H   0  0  0  0  0  0  0  0  0  0  0  0
   -4.2100   -2.1765    2.6846 C   0  0  0  0  0  0  0  0  0  0  0  0
   -0.8353    0.8690    2.8489 C   0  0  0  0  0  0  0  0  0  0  0  0
   -5.2569   -2.6622    1.8498 N   0  0  0  0  0  0  0  0  0  0  0  0
   -6.4227   -3.4470    2.3518 C   0  0  3  0  0  0  0  0  0  0  0  0
   -7.7756   -2.7351    2.0861 C   0  0  0  0  0  0  0  0  0  0  0  0
   -8.1305   -2.5952    0.6068 C   0  0  0  0  0  0  0  0  0  0  0  0
   -4.1375   -2.4482    3.8475 O   0  0  0  0  0  0  0  0  0  0  0  0
   -6.4602   -4.8637    1.7370 C   0  0  0  0  0  0  0  0  0  0  0  0
   -5.2310   -5.5451    1.9352 O   0  0  0  0  0  0  0  0  0  0  0  0
    1.7200   -3.4690    0.0565 C   0  0  0  0  0  0  0  0  0  0  0  0
    0.7920    2.6705    0.1759 H   0  0  0  0  0  0  0  0  0  0  0  0
    3.0955    1.7497    0.1410 H   0  0  0  0  0  0  0  0  0  0  0  0
    3.3747   -0.7535    0.1871 H   0  0  0  0  0  0  0  0  0  0  0  0
   -3.2627   -1.2672   -0.6440 H   0  0  0  0  0  0  0  0  0  0  0  0
   -2.8052    0.0142   -1.7882 H   0  0  0  0  0  0  0  0  0  0  0  0
   -3.8903   -0.9438    1.0890 H   0  0  0  0  0  0  0  0  0  0  0  0
   -1.1083   -1.9033    1.7451 H   0  0  0  0  0  0  0  0  0  0  0  0
   -3.1502    0.1043    3.8122 H   0  0  0  0  0  0  0  0  0  0  0  0
   -4.3180    0.6663    2.6080 H   0  0  0  0  0  0  0  0  0  0  0  0
   -1.0218   -3.3638   -0.2697 H   0  0  0  0  0  0  0  0  0  0  0  0
   -0.2473   -0.0435    2.5541 H   0  0  0  0  0  0  0  0  0  0  0  0
   -0.1198    1.6546    2.5831 H   0  0  0  0  0  0  0  0  0  0  0  0
   -0.9057    0.6661    3.9174 H   0  0  0  0  0  0  0  0  0  0  0  0
   -5.2764   -2.4233    0.8691 H   0  0  0  0  0  0  0  0  0  0  0  0
   -6.3054   -3.5476    3.4361 H   0  0  0  0  0  0  0  0  0  0  0  0
   -8.5829   -3.3022    2.5734 H   0  0  0  0  0  0  0  0  0  0  0  0
   -7.7759   -1.7405    2.5466 H   0  0  0  0  0  0  0  0  0  0  0  0
   -8.2271   -3.5689    0.1172 H   0  0  0  0  0  0  0  0  0  0  0  0
   -9.0924   -2.0877    0.4832 H   0  0  0  0  0  0  0  0  0  0  0  0
   -7.3698   -2.0170    0.0765 H   0  0  0  0  0  0  0  0  0  0  0  0
   -7.2657   -5.4562    2.1878 H   0  0  0  0  0  0  0  0  0  0  0  0
   -6.6307   -4.8382    0.6572 H   0  0  0  0  0  0  0  0  0  0  0  0
   -4.5395   -4.9403    1.6138 H   0  0  0  0  0  0  0  0  0  0  0  0
    2.4713   -3.5699   -0.7263 H   0  0  0  0  0  0  0  0  0  0  0  0
    2.1945   -3.2653    1.0239 H   0  0  0  0  0  0  0  0  0  0  0  0
    1.1165   -4.3755    0.1256 H   0  0  0  0  0  0  0  0  0  0  0  0
  1  2  1  0  0  0  0
  1  6  2  0  0  0  0
  1 28  1  0  0  0  0
  2  3  2  0  0  0  0
  2 29  1  0  0  0  0
  3  4  1  0  0  0  0
  3 30  1  0  0  0  0
  4  5  2  0  0  0  0
  4 16  1  0  0  0  0
  5  8  1  0  0  0  0
  6  5  1  0  0  0  0
  7  6  1  0  0  0  0
  7 10  1  0  0  0  0
  8  9  1  0  0  0  0
  8 15  2  0  0  0  0
  9 10  1  0  0  0  0
  9 31  1  0  0  0  0
  9 32  1  0  0  0  0
 10 13  1  0  0  0  0
 10 17  1  6  0  0  0
 11 12  1  0  0  0  0
 11 14  1  0  0  0  0
 11 18  1  0  0  0  0
 11 33  1  6  0  0  0
 12  7  2  0  0  0  0
 12 34  1  0  0  0  0
 13 14  1  0  0  0  0
 13 19  1  0  0  0  0
 14 35  1  0  0  0  0
 14 36  1  0  0  0  0
 15 37  1  0  0  0  0
 16 15  1  0  0  0  0
 16 27  1  0  0  0  0
 18 20  1  0  0  0  0
 18 24  2  0  0  0  0
 19 38  1  0  0  0  0
 19 39  1  0  0  0  0
 19 40  1  0  0  0  0
 20 21  1  0  0  0  0
 20 41  1  0  0  0  0
 21 22  1  0  0  0  0
 21 25  1  0  0  0  0
 21 42  1  0  0  0  0
 22 23  1  0  0  0  0
 22 43  1  0  0  0  0
 22 44  1  0  0  0  0
 23 45  1  0  0  0  0
 23 46  1  0  0  0  0
 23 47  1  0  0  0  0
 25 26  1  0  0  0  0
 25 48  1  0  0  0  0
 25 49  1  0  0  0  0
 26 50  1  0  0  0  0
 27 51  1  0  0  0  0
 27 52  1  0  0  0  0
 27 53  1  0  0  0  0
M  END
>  <DRUGBANK_ID>
DB00247

>  <SECONDARY_ACCESSION_NUMBERS>
APRD00463

>  <COMMON_NAME>
Methysergide

>  <CAS_NUMBER>
361-37-5

>  <UNII>
XZA9HY6Z98

>  <SYNONYMS>
(+)-9,10-Didehydro-N-(1-(hydroxymethyl)propyl)-1,6-dimethylergoline-8β-carboxamide; (+)-N-(1-(Hydroxymethyl)propyl)-1-methyl-D-lysergamide; 1-Methyl-D-lysergic acid butanolamide; 1-Methyl-dextro-lysergic acid (+)-1-hydroxy-2-butylamide; 1-Methyllysergic acid butanolamide; 1-Methylmethylergonovine; 9,10-Didehydro-N-(1-(hydroxymethyl)propyl)-1,6-dimethylergoline-8-carboxamide; Méthysergide; Methysergide; Methysergidum; Metisergida; Metisergido; N-(1-(Hydroxymethyl)propyl)-1-methyl-dextro-(+)-lysergamide

$$$$
