
 OpenBabel10282417153D

 70 73  0  0  1  0  0  0  0  0999 V2000
    0.9019   -0.3644   -0.1016 S   0  0  0  0  0  0  0  0  0  0  0  0
    0.3489    2.2384    0.1063 Na  0  3  0  0  0  0  0  0  0  0  0  0
    6.4941   -2.0380   -1.7988 O   0  0  0  0  0  0  0  0  0  0  0  0
   10.4714   -4.8103   -1.2055 O   0  0  0  0  0  0  0  0  0  0  0  0
    7.8547    0.7690   -0.8908 O   0  0  0  0  0  0  0  0  0  0  0  0
    6.9096   -2.4967    0.6154 O   0  0  0  0  0  0  0  0  0  0  0  0
    6.5678   -8.0181   -1.2779 O   0  0  0  0  0  0  0  0  0  0  0  0
    5.0091   -3.6641    0.3387 O   0  0  0  0  0  0  0  0  0  0  0  0
    0.5900    0.3181    1.1329 O   0  5  0  0  0  0  0  0  0  0  0  0
    0.5275    0.4294   -1.2347 O   0  0  0  0  0  0  0  0  0  0  0  0
    0.5985   -1.8304   -0.1506 O   0  0  0  0  0  0  0  0  0  0  0  0
    8.6403   -2.0327   -2.6971 C   0  0  3  0  0  0  0  0  0  0  0  0
    7.3862   -2.5219   -3.9014 C   0  0  3  0  0  0  0  0  0  0  0  0
    7.3938   -3.9207   -4.3247 C   0  0  3  0  0  0  0  0  0  0  0  0
    8.4078   -4.6617   -3.0417 C   0  0  3  0  0  0  0  0  0  0  0  0
    7.5786   -1.1472   -2.1848 C   0  0  3  0  0  0  0  0  0  0  0  0
    9.1179   -2.9180   -1.5226 C   0  0  0  0  0  0  0  0  0  0  0  0
    6.5980   -1.2892   -4.3913 C   0  0  0  0  0  0  0  0  0  0  0  0
    9.7116   -4.0545   -2.1744 C   0  0  3  0  0  0  0  0  0  0  0  0
    9.0705   -5.8038   -3.7288 C   0  0  3  0  0  0  0  0  0  0  0  0
    7.2617   -0.3142   -3.4571 C   0  0  0  0  0  0  0  0  0  0  0  0
    6.3502   -4.9401   -5.0709 C   0  0  0  0  0  0  0  0  0  0  0  0
   10.0696   -1.2808   -2.9460 C   0  0  0  0  0  0  0  0  0  0  0  0
    7.3916   -5.9355   -5.5679 C   0  0  0  0  0  0  0  0  0  0  0  0
    7.8663   -6.5070   -4.2903 C   0  0  0  0  0  0  0  0  0  0  0  0
    7.7739   -0.4597   -0.8983 C   0  0  0  0  0  0  0  0  0  0  0  0
    9.9909   -4.8390   -4.6852 C   0  0  0  0  0  0  0  0  0  0  0  0
    9.5840   -6.7404   -2.6143 C   0  0  0  0  0  0  0  0  0  0  0  0
    7.0244   -7.1763   -3.4541 C   0  0  0  0  0  0  0  0  0  0  0  0
    7.7740   -1.3511    0.4188 C   0  0  0  0  0  0  0  0  0  0  0  0
    8.7419   -7.1109   -1.6075 C   0  0  0  0  0  0  0  0  0  0  0  0
    7.3642   -7.4740   -2.0307 C   0  0  0  0  0  0  0  0  0  0  0  0
    5.5612   -2.5672    0.4101 C   0  0  0  0  0  0  0  0  0  0  0  0
    4.7708   -1.3149    0.2187 C   0  0  0  0  0  0  0  0  0  0  0  0
    3.4224   -1.4220   -0.0422 C   0  0  0  0  0  0  0  0  0  0  0  0
    5.2868   -0.0216    0.3459 C   0  0  0  0  0  0  0  0  0  0  0  0
    2.6762   -0.2537   -0.1310 C   0  0  0  0  0  0  0  0  0  0  0  0
    4.5989    1.1443    0.1152 C   0  0  0  0  0  0  0  0  0  0  0  0
    3.2582    1.0355   -0.1084 C   0  0  0  0  0  0  0  0  0  0  0  0
    6.7848   -2.9895   -1.8077 H   0  0  0  0  0  0  0  0  0  0  0  0
   10.2377   -4.6646   -0.2727 H   0  0  0  0  0  0  0  0  0  0  0  0
    6.4427   -2.8594   -3.4677 H   0  0  0  0  0  0  0  0  0  0  0  0
    7.6639   -3.5583   -5.3211 H   0  0  0  0  0  0  0  0  0  0  0  0
    7.6820   -4.9041   -2.2403 H   0  0  0  0  0  0  0  0  0  0  0  0
    9.8830   -2.4461   -0.8761 H   0  0  0  0  0  0  0  0  0  0  0  0
    8.3947   -3.3341   -0.8311 H   0  0  0  0  0  0  0  0  0  0  0  0
    5.5286   -1.3200   -4.0943 H   0  0  0  0  0  0  0  0  0  0  0  0
    6.6056   -1.0285   -5.4532 H   0  0  0  0  0  0  0  0  0  0  0  0
   10.5342   -3.7224   -2.7877 H   0  0  0  0  0  0  0  0  0  0  0  0
    6.6852    0.5793   -3.2628 H   0  0  0  0  0  0  0  0  0  0  0  0
    8.1762   -0.0157   -3.9884 H   0  0  0  0  0  0  0  0  0  0  0  0
    5.5367   -5.3572   -4.4539 H   0  0  0  0  0  0  0  0  0  0  0  0
    5.8501   -4.6279   -6.0043 H   0  0  0  0  0  0  0  0  0  0  0  0
   10.3842   -0.8159   -1.9846 H   0  0  0  0  0  0  0  0  0  0  0  0
   10.9333   -1.9521   -3.1156 H   0  0  0  0  0  0  0  0  0  0  0  0
   10.1701   -0.4948   -3.6865 H   0  0  0  0  0  0  0  0  0  0  0  0
    7.2323   -6.6850   -6.3361 H   0  0  0  0  0  0  0  0  0  0  0  0
    8.1228   -5.2856   -6.0682 H   0  0  0  0  0  0  0  0  0  0  0  0
    9.5791   -3.7976   -4.7428 H   0  0  0  0  0  0  0  0  0  0  0  0
   11.0046   -4.6181   -4.3405 H   0  0  0  0  0  0  0  0  0  0  0  0
   10.0330   -5.1150   -5.7284 H   0  0  0  0  0  0  0  0  0  0  0  0
    9.8843   -7.5992   -3.2032 H   0  0  0  0  0  0  0  0  0  0  0  0
    5.9920   -7.3801   -3.7093 H   0  0  0  0  0  0  0  0  0  0  0  0
    7.6537   -0.7321    1.2998 H   0  0  0  0  0  0  0  0  0  0  0  0
    8.7940   -1.7005    0.5543 H   0  0  0  0  0  0  0  0  0  0  0  0
    9.0222   -7.3862   -0.5933 H   0  0  0  0  0  0  0  0  0  0  0  0
    2.9315   -2.3937   -0.0943 H   0  0  0  0  0  0  0  0  0  0  0  0
    6.2745    0.2112    0.6555 H   0  0  0  0  0  0  0  0  0  0  0  0
    5.1423    2.0832    0.1881 H   0  0  0  0  0  0  0  0  0  0  0  0
    2.7153    1.9584   -0.2092 H   0  0  0  0  0  0  0  0  0  0  0  0
  1  9  1  0  0  0  0
  1 10  2  0  0  0  0
  1 11  2  0  0  0  0
  1 37  1  0  0  0  0
  3 16  1  0  0  0  0
  3 40  1  0  0  0  0
  4 19  1  0  0  0  0
  4 41  1  0  0  0  0
  5 26  2  0  0  0  0
  6 30  1  0  0  0  0
  6 33  1  0  0  0  0
  7 32  2  0  0  0  0
  8 33  2  0  0  0  0
 12 13  1  0  0  0  0
 12 16  1  0  0  0  0
 12 17  1  0  0  0  0
 12 23  1  0  0  0  0
 13 14  1  0  0  0  0
 13 18  1  0  0  0  0
 13 42  1  0  0  0  0
 14 15  1  0  0  0  0
 14 22  1  0  0  0  0
 14 43  1  0  0  0  0
 15 19  1  0  0  0  0
 15 20  1  0  0  0  0
 15 44  1  0  0  0  0
 16 21  1  0  0  0  0
 16 26  1  0  0  0  0
 17 19  1  0  0  0  0
 17 45  1  0  0  0  0
 17 46  1  0  0  0  0
 18 21  1  0  0  0  0
 18 47  1  0  0  0  0
 18 48  1  0  0  0  0
 19 49  1  0  0  0  0
 20 25  1  0  0  0  0
 20 27  1  0  0  0  0
 20 28  1  0  0  0  0
 21 50  1  0  0  0  0
 21 51  1  0  0  0  0
 22 24  1  0  0  0  0
 22 52  1  0  0  0  0
 22 53  1  0  0  0  0
 23 54  1  0  0  0  0
 23 55  1  0  0  0  0
 23 56  1  0  0  0  0
 24 25  1  0  0  0  0
 24 57  1  0  0  0  0
 24 58  1  0  0  0  0
 25 29  2  0  0  0  0
 26 30  1  0  0  0  0
 27 59  1  0  0  0  0
 27 60  1  0  0  0  0
 27 61  1  0  0  0  0
 28 31  2  0  0  0  0
 28 62  1  0  0  0  0
 29 32  1  0  0  0  0
 29 63  1  0  0  0  0
 30 64  1  0  0  0  0
 30 65  1  0  0  0  0
 31 32  1  0  0  0  0
 31 66  1  0  0  0  0
 33 34  1  0  0  0  0
 34 35  2  0  0  0  0
 34 36  1  0  0  0  0
 35 37  1  0  0  0  0
 35 67  1  0  0  0  0
 36 38  2  0  0  0  0
 36 68  1  0  0  0  0
 37 39  2  0  0  0  0
 38 39  1  0  0  0  0
 38 69  1  0  0  0  0
 39 70  1  0  0  0  0
M  CHG  2   2   1   9  -1
M  END
>  <DRUGBANK_ID>
DB05340

>  <COMMON_NAME>
ATL-2502

>  <UNII>
D345THM53T

$$$$
