
 OpenBabel10282417233D

 72 75  0  0  1  0  0  0  0  0999 V2000
    1.0462   -0.4131   -0.2185 C   0  0  0  0  0  0  0  0  0  0  0  0
    0.4901    0.4380   -1.3446 C   0  0  0  0  0  0  0  0  0  0  0  0
    0.9289   -0.3413   -2.5793 C   0  0  0  0  0  0  0  0  0  0  0  0
   -1.0253    0.6257   -1.0978 C   0  0  0  0  0  0  0  0  0  0  0  0
   -1.4112    1.5782   -0.0164 O   0  0  0  0  0  0  0  0  0  0  0  0
   -1.0295    1.4728    1.3113 C   0  0  0  0  0  0  0  0  0  0  0  0
    0.2738    1.4317    1.7601 C   0  0  0  0  0  0  0  0  0  0  0  0
    0.5631    0.8951    3.0154 C   0  0  0  0  0  0  0  0  0  0  0  0
    1.7869    0.4036    3.2470 F   0  0  0  0  0  0  0  0  0  0  0  0
   -0.3885    0.8083    4.0071 C   0  0  0  0  0  0  0  0  0  0  0  0
   -1.6761    1.2541    3.7520 C   0  0  0  0  0  0  0  0  0  0  0  0
   -1.9811    1.5263    2.3447 C   0  0  0  0  0  0  0  0  0  0  0  0
   -2.5732    1.2930    4.9618 C   0  0  0  0  0  0  0  0  0  0  0  0
   -3.2511    0.2035    5.4639 C   0  0  0  0  0  0  0  0  0  0  0  0
   -4.2368    0.2775    6.4342 C   0  0  0  0  0  0  0  0  0  0  0  0
   -4.5711    1.4804    6.9284 C   0  0  0  0  0  0  0  0  0  0  0  0
   -5.8810    1.5899    7.5884 C   0  0  0  0  0  0  0  0  0  0  0  0
   -6.1109    2.4457    8.4697 O   0  0  0  0  0  0  0  0  0  0  0  0
   -6.9291    0.6740    7.3087 N   0  0  0  0  0  0  0  0  0  0  0  0
   -7.4019   -0.4846    6.1673 S   0  0  0  0  0  0  0  0  0  0  0  0
   -7.2460   -1.7473    6.8445 O   0  0  0  0  0  0  0  0  0  0  0  0
   -8.7225   -0.0689    5.7099 O   0  0  0  0  0  0  0  0  0  0  0  0
   -6.3538   -0.5890    4.6649 C   0  0  0  0  0  0  0  0  0  0  0  0
   -5.9784    0.5879    4.0306 C   0  0  0  0  0  0  0  0  0  0  0  0
   -4.9032    0.5535    3.1330 C   0  0  0  0  0  0  0  0  0  0  0  0
   -4.1847   -0.6422    2.8371 C   0  0  0  0  0  0  0  0  0  0  0  0
   -4.5416   -1.8216    3.4889 C   0  0  0  0  0  0  0  0  0  0  0  0
   -5.6537   -1.8049    4.3609 C   0  0  0  0  0  0  0  0  0  0  0  0
   -3.5981    2.4431    6.7166 C   0  0  0  0  0  0  0  0  0  0  0  0
   -2.6410    2.3820    5.7180 N   0  0  0  0  0  0  0  0  0  0  0  0
   -3.4261    3.4154    7.6327 N   0  0  0  0  0  0  0  0  0  0  0  0
   -3.2066    3.0612    9.0204 C   0  0  0  0  0  0  0  0  0  0  0  0
   -2.4691    4.2689    9.5827 C   0  0  1  0  0  0  0  0  0  0  0  0
   -1.1928    3.8346   10.2864 C   0  0  0  0  0  0  0  0  0  0  0  0
   -2.2120    5.1891    8.3649 C   0  0  0  0  0  0  0  0  0  0  0  0
   -3.2809    4.8109    7.3360 C   0  0  0  0  0  0  0  0  0  0  0  0
   -2.8816    5.1400    5.8934 C   0  0  0  0  0  0  0  0  0  0  0  0
   -4.6521    5.4337    7.6066 C   0  0  0  0  0  0  0  0  0  0  0  0
    0.9021   -1.4901   -0.2904 H   0  0  0  0  0  0  0  0  0  0  0  0
    0.4068   -0.2761    0.6182 H   0  0  0  0  0  0  0  0  0  0  0  0
    2.0803   -0.1488    0.0175 H   0  0  0  0  0  0  0  0  0  0  0  0
    0.9321    1.4446   -1.3733 H   0  0  0  0  0  0  0  0  0  0  0  0
    0.6005   -1.3845   -2.4999 H   0  0  0  0  0  0  0  0  0  0  0  0
    0.5721    0.0735   -3.5206 H   0  0  0  0  0  0  0  0  0  0  0  0
    2.0301   -0.3612   -2.6044 H   0  0  0  0  0  0  0  0  0  0  0  0
   -1.4717    1.0226   -2.0270 H   0  0  0  0  0  0  0  0  0  0  0  0
   -1.5146   -0.3485   -0.9496 H   0  0  0  0  0  0  0  0  0  0  0  0
    1.1128    1.6056    1.1022 H   0  0  0  0  0  0  0  0  0  0  0  0
   -0.1025    0.4571    4.9926 H   0  0  0  0  0  0  0  0  0  0  0  0
   -2.9704    1.7461    1.9609 H   0  0  0  0  0  0  0  0  0  0  0  0
   -3.2739   -0.7171    4.9410 H   0  0  0  0  0  0  0  0  0  0  0  0
   -4.8790   -0.5632    6.6160 H   0  0  0  0  0  0  0  0  0  0  0  0
   -7.6914    0.8163    7.9765 H   0  0  0  0  0  0  0  0  0  0  0  0
   -6.2865    1.5586    4.4203 H   0  0  0  0  0  0  0  0  0  0  0  0
   -4.4588    1.5425    2.9964 H   0  0  0  0  0  0  0  0  0  0  0  0
   -3.1648   -0.6220    2.4251 H   0  0  0  0  0  0  0  0  0  0  0  0
   -3.7728   -2.6080    3.5849 H   0  0  0  0  0  0  0  0  0  0  0  0
   -5.8180   -2.7003    4.9570 H   0  0  0  0  0  0  0  0  0  0  0  0
   -4.1534    2.9478    9.5549 H   0  0  0  0  0  0  0  0  0  0  0  0
   -2.6658    2.1112    9.1396 H   0  0  0  0  0  0  0  0  0  0  0  0
   -3.1376    4.7662   10.2964 H   0  0  0  0  0  0  0  0  0  0  0  0
   -1.0166    4.4674   11.1583 H   0  0  0  0  0  0  0  0  0  0  0  0
   -1.2498    2.7976   10.6387 H   0  0  0  0  0  0  0  0  0  0  0  0
   -0.3249    3.9059    9.6248 H   0  0  0  0  0  0  0  0  0  0  0  0
   -2.2566    6.2464    8.6318 H   0  0  0  0  0  0  0  0  0  0  0  0
   -1.2198    4.9795    7.9445 H   0  0  0  0  0  0  0  0  0  0  0  0
   -3.6374    4.7788    5.1798 H   0  0  0  0  0  0  0  0  0  0  0  0
   -2.7984    6.2197    5.7552 H   0  0  0  0  0  0  0  0  0  0  0  0
   -1.9225    4.6958    5.6044 H   0  0  0  0  0  0  0  0  0  0  0  0
   -5.0444    5.1530    8.5901 H   0  0  0  0  0  0  0  0  0  0  0  0
   -4.5927    6.5198    7.5472 H   0  0  0  0  0  0  0  0  0  0  0  0
   -5.3854    5.0807    6.8676 H   0  0  0  0  0  0  0  0  0  0  0  0
  1  2  1  0  0  0  0
  1 39  1  0  0  0  0
  1 40  1  0  0  0  0
  1 41  1  0  0  0  0
  2  3  1  0  0  0  0
  2  4  1  0  0  0  0
  2 42  1  0  0  0  0
  3 43  1  0  0  0  0
  3 44  1  0  0  0  0
  3 45  1  0  0  0  0
  4  5  1  0  0  0  0
  4 46  1  0  0  0  0
  4 47  1  0  0  0  0
  5  6  1  0  0  0  0
  6  7  2  0  0  0  0
  6 12  1  0  0  0  0
  7  8  1  0  0  0  0
  7 48  1  0  0  0  0
  8  9  1  0  0  0  0
  8 10  2  0  0  0  0
 10 11  1  0  0  0  0
 10 49  1  0  0  0  0
 11 12  2  0  0  0  0
 11 13  1  0  0  0  0
 12 50  1  0  0  0  0
 13 14  2  0  0  0  0
 13 30  1  0  0  0  0
 14 15  1  0  0  0  0
 14 51  1  0  0  0  0
 15 16  2  0  0  0  0
 15 52  1  0  0  0  0
 16 17  1  0  0  0  0
 16 29  1  0  0  0  0
 17 18  2  0  0  0  0
 17 19  1  0  0  0  0
 19 20  1  0  0  0  0
 19 53  1  0  0  0  0
 20 21  2  0  0  0  0
 20 22  2  0  0  0  0
 20 23  1  0  0  0  0
 23 24  2  0  0  0  0
 23 28  1  0  0  0  0
 24 25  1  0  0  0  0
 24 54  1  0  0  0  0
 25 26  2  0  0  0  0
 25 55  1  0  0  0  0
 26 27  1  0  0  0  0
 26 56  1  0  0  0  0
 27 28  2  0  0  0  0
 27 57  1  0  0  0  0
 28 58  1  0  0  0  0
 29 30  2  0  0  0  0
 29 31  1  0  0  0  0
 31 32  1  0  0  0  0
 31 36  1  0  0  0  0
 32 59  1  0  0  0  0
 32 60  1  0  0  0  0
 33 32  1  0  0  0  0
 33 35  1  0  0  0  0
 33 61  1  1  0  0  0
 33 34  1  0  0  0  0
 34 62  1  0  0  0  0
 34 63  1  0  0  0  0
 34 64  1  0  0  0  0
 35 36  1  0  0  0  0
 35 65  1  0  0  0  0
 35 66  1  0  0  0  0
 36 37  1  0  0  0  0
 36 38  1  0  0  0  0
 37 67  1  0  0  0  0
 37 68  1  0  0  0  0
 37 69  1  0  0  0  0
 38 70  1  0  0  0  0
 38 71  1  0  0  0  0
 38 72  1  0  0  0  0
M  END
>  <DRUGBANK_ID>
DB16262

>  <COMMON_NAME>
Olacaftor

>  <CAS_NUMBER>
1897384-89-2

>  <UNII>
RZ7027HK8F

>  <SYNONYMS>
Olacaftor

$$$$
