
 OpenBabel10282417143D

 69 72  0  0  1  0  0  0  0  0999 V2000
    1.3160    0.1224   -0.1412 C   0  0  0  0  0  0  0  0  0  0  0  0
   -2.1984   -4.9001   -2.8490 C   0  0  0  0  0  0  0  0  0  0  0  0
    2.7124   -6.7933   -0.6111 C   0  0  0  0  0  0  0  0  0  0  0  0
    0.5514   -4.5874    2.5747 C   0  0  0  0  0  0  0  0  0  0  0  0
    0.5203    0.5708   -1.3922 C   0  0  2  0  0  0  0  0  0  0  0  0
   -2.4571   -4.9204   -1.3049 C   0  0  2  0  0  0  0  0  0  0  0  0
    2.1894   -5.7406    1.8125 C   0  0  0  0  0  0  0  0  0  0  0  0
    0.5237    2.0709   -1.5673 C   0  0  2  0  0  0  0  0  0  0  0  0
   -2.3812   -3.4748   -0.9292 C   0  0  2  0  0  0  0  0  0  0  0  0
   -0.7147    2.3532   -2.4370 C   0  0  2  0  0  0  0  0  0  0  0  0
   -1.6089   -3.4594    0.4466 C   0  0  2  0  0  0  0  0  0  0  0  0
    3.5716   -6.3286    1.5929 C   0  0  2  0  0  0  0  0  0  0  0  0
    1.1316   -5.9278    0.9386 C   0  0  0  0  0  0  0  0  0  0  0  0
   -1.3571   -4.9187    0.8658 C   0  0  2  0  0  0  0  0  0  0  0  0
   -1.3241    0.9632   -2.6345 C   0  0  2  0  0  0  0  0  0  0  0  0
    4.6542   -5.3719    1.3125 N   0  3  0  0  0  0  0  0  0  0  0  0
    3.5202   -7.2729    0.4968 N   0  0  0  0  0  0  0  0  0  0  0  0
    1.3057   -6.4557   -0.3183 N   0  0  0  0  0  0  0  0  0  0  0  0
    1.8449   -4.8334    2.7732 N   0  0  0  0  0  0  0  0  0  0  0  0
    0.0208   -5.2363    1.4477 N   0  0  0  0  0  0  0  0  0  0  0  0
    1.7519    2.4291   -2.1818 O   0  0  0  0  0  0  0  0  0  0  0  0
   -3.7520   -3.0731   -1.0781 O   0  0  0  0  0  0  0  0  0  0  0  0
   -0.3452    2.9654   -3.6662 O   0  0  0  0  0  0  0  0  0  0  0  0
   -2.7290    0.9383   -2.7570 O   0  0  0  0  0  0  0  0  0  0  0  0
   -4.2859   -2.3511    1.6953 O   0  0  0  0  0  0  0  0  0  0  0  0
   -2.7358   -0.4439    1.5906 O   0  0  0  0  0  0  0  0  0  0  0  0
   -4.3377   -0.8168   -0.1061 O   0  0  0  0  0  0  0  0  0  0  0  0
    1.2702   -3.2094    0.3247 O   0  0  0  0  0  0  0  0  0  0  0  0
   -0.2007   -1.9059   -1.3454 O   0  0  0  0  0  0  0  0  0  0  0  0
   -0.0909   -4.5508   -1.1728 O   0  0  0  0  0  0  0  0  0  0  0  0
    0.0454   -3.2406   -3.4789 O   0  0  0  0  0  0  0  0  0  0  0  0
    1.9755   -1.1765   -0.2779 O   0  0  0  0  0  0  0  0  0  0  0  0
   -0.9152   -5.3152   -3.2460 O   0  0  0  0  0  0  0  0  0  0  0  0
   -1.6981   -5.7487   -0.3361 O   0  0  0  0  0  0  0  0  0  0  0  0
   -0.8937    0.2812   -1.4482 O   0  0  0  0  0  0  0  0  0  0  0  0
   -2.0571   -2.5933    1.4400 O   0  0  0  0  0  0  0  0  0  0  0  0
    1.7567   -3.5291   -1.9643 O   0  0  0  0  0  0  0  0  0  0  0  0
   -3.2606   -1.6559    0.6241 P   0  0  0  0  0  0  0  0  0  0  0  0
    1.1856   -2.3502   -1.0055 P   0  0  3  0  0  0  0  0  0  0  0  0
    0.4208   -4.4221   -2.6052 P   0  0  3  0  0  0  0  0  0  0  0  0
    1.0168    0.0832   -2.2432 H   0  0  0  0  0  0  0  0  0  0  0  0
   -3.4900   -5.2406   -1.1725 H   0  0  0  0  0  0  0  0  0  0  0  0
    0.4248    2.5700   -0.5964 H   0  0  0  0  0  0  0  0  0  0  0  0
   -1.9030   -2.8355   -1.6678 H   0  0  0  0  0  0  0  0  0  0  0  0
   -1.4316    2.9916   -1.9086 H   0  0  0  0  0  0  0  0  0  0  0  0
   -0.6862   -2.9490    0.3396 H   0  0  0  0  0  0  0  0  0  0  0  0
    3.8734   -6.8418    2.5120 H   0  0  0  0  0  0  0  0  0  0  0  0
   -2.0466   -5.1868    1.6635 H   0  0  0  0  0  0  0  0  0  0  0  0
   -0.9210    0.4826   -3.5399 H   0  0  0  0  0  0  0  0  0  0  0  0
    0.7426    0.3124    0.7896 H   0  0  0  0  0  0  0  0  0  0  0  0
    2.2093    0.7360   -0.0676 H   0  0  0  0  0  0  0  0  0  0  0  0
   -2.3488   -3.9002   -3.2977 H   0  0  0  0  0  0  0  0  0  0  0  0
   -2.9517   -5.5047   -3.3541 H   0  0  0  0  0  0  0  0  0  0  0  0
    3.1931   -5.8854   -1.0143 H   0  0  0  0  0  0  0  0  0  0  0  0
    2.7463   -7.5060   -1.4405 H   0  0  0  0  0  0  0  0  0  0  0  0
   -0.0314   -3.8712    3.1461 H   0  0  0  0  0  0  0  0  0  0  0  0
    4.3400   -4.4044    1.4215 H   0  0  0  0  0  0  0  0  0  0  0  0
    5.4300   -5.5175    1.9667 H   0  0  0  0  0  0  0  0  0  0  0  0
    5.0137   -5.5122    0.3670 H   0  0  0  0  0  0  0  0  0  0  0  0
    4.3882   -7.7248    0.2384 H   0  0  0  0  0  0  0  0  0  0  0  0
    0.6485   -7.1785   -0.6468 H   0  0  0  0  0  0  0  0  0  0  0  0
    1.6624    2.1491   -3.1162 H   0  0  0  0  0  0  0  0  0  0  0  0
   -3.7980   -2.2275   -1.6030 H   0  0  0  0  0  0  0  0  0  0  0  0
   -0.3712    3.9277   -3.5114 H   0  0  0  0  0  0  0  0  0  0  0  0
   -3.1018    1.3225   -1.9474 H   0  0  0  0  0  0  0  0  0  0  0  0
   -4.8378   -2.9915    1.2124 H   0  0  0  0  0  0  0  0  0  0  0  0
   -1.7757   -0.5206    1.7070 H   0  0  0  0  0  0  0  0  0  0  0  0
    2.1400   -3.2436    0.7432 H   0  0  0  0  0  0  0  0  0  0  0  0
    0.2608   -5.3958   -0.8382 H   0  0  0  0  0  0  0  0  0  0  0  0
  1 50  1  0  0  0  0
  1 51  1  0  0  0  0
  2 52  1  0  0  0  0
  2 53  1  0  0  0  0
  3 54  1  0  0  0  0
  3 55  1  0  0  0  0
  4 56  1  0  0  0  0
  5  1  1  0  0  0  0
  5 41  1  6  0  0  0
  6  2  1  0  0  0  0
  6 42  1  1  0  0  0
  8  5  1  0  0  0  0
  8 43  1  1  0  0  0
  8 21  1  0  0  0  0
  9  6  1  0  0  0  0
  9 44  1  6  0  0  0
  9 22  1  0  0  0  0
 10  8  1  0  0  0  0
 10 45  1  1  0  0  0
 10 23  1  0  0  0  0
 11  9  1  0  0  0  0
 11 46  1  6  0  0  0
 11 36  1  0  0  0  0
 12  7  1  0  0  0  0
 12 47  1  1  0  0  0
 12 16  1  0  0  0  0
 13  7  2  0  0  0  0
 14 11  1  0  0  0  0
 14 20  1  0  0  0  0
 14 48  1  1  0  0  0
 15 10  1  0  0  0  0
 15 24  1  0  0  0  0
 15 49  1  6  0  0  0
 16 57  1  0  0  0  0
 16 58  1  0  0  0  0
 16 59  1  0  0  0  0
 17  3  1  0  0  0  0
 17 12  1  0  0  0  0
 17 60  1  0  0  0  0
 18  3  1  0  0  0  0
 18 13  1  0  0  0  0
 18 61  1  0  0  0  0
 19  4  2  0  0  0  0
 19  7  1  0  0  0  0
 20  4  1  0  0  0  0
 20 13  1  0  0  0  0
 21 62  1  0  0  0  0
 22 63  1  0  0  0  0
 23 64  1  0  0  0  0
 24 65  1  0  0  0  0
 25 66  1  0  0  0  0
 26 67  1  0  0  0  0
 28 68  1  0  0  0  0
 30 69  1  0  0  0  0
 32  1  1  0  0  0  0
 33  2  1  0  0  0  0
 34  6  1  0  0  0  0
 34 14  1  0  0  0  0
 35  5  1  0  0  0  0
 35 15  1  0  0  0  0
 38 25  1  0  0  0  0
 38 26  1  0  0  0  0
 38 27  2  0  0  0  0
 38 36  1  0  0  0  0
 39 28  1  0  0  0  0
 39 29  2  0  0  0  0
 39 32  1  0  0  0  0
 39 37  1  0  0  0  0
 40 30  1  0  0  0  0
 40 31  2  0  0  0  0
 40 33  1  0  0  0  0
 40 37  1  0  0  0  0
M  CHG  1  16   1
M  END
>  <DRUGBANK_ID>
DB04497

>  <SECONDARY_ACCESSION_NUMBERS>
EXPT00548

>  <COMMON_NAME>
2'-Monophosphoadenosine-5'-Diphosphoribose

$$$$
