
 OpenBabel10282417133D

 15 15  0  0  0  0  0  0  0  0999 V2000
    1.0286   -0.0329   -0.0900 O   0  0  0  0  0  0  0  0  0  0  0  0
    0.3186    1.1784   -0.3023 C   0  0  0  0  0  0  0  0  0  0  0  0
    0.9540    2.2625   -0.4923 O   0  0  0  0  0  0  0  0  0  0  0  0
   -1.2014    1.1784   -0.3023 C   0  0  0  0  0  0  0  0  0  0  0  0
   -1.9252    0.4748    0.7004 C   0  0  0  0  0  0  0  0  0  0  0  0
   -3.2975    0.2363    0.5201 C   0  0  0  0  0  0  0  0  0  0  0  0
   -3.9537    0.8771   -0.4020 C   0  0  0  0  0  0  0  0  0  0  0  0
   -5.9825    0.5109   -0.6777 Hg  0  0  0  0  0  0  0  0  0  0  0  0
   -3.2956    1.8139   -1.2100 C   0  0  0  0  0  0  0  0  0  0  0  0
   -1.8801    1.8382   -1.2425 C   0  0  0  0  0  0  0  0  0  0  0  0
    2.0286   -0.0329   -0.0900 H   0  0  0  0  0  0  0  0  0  0  0  0
   -1.4286    0.1305    1.5834 H   0  0  0  0  0  0  0  0  0  0  0  0
   -3.8033   -0.4728    1.1416 H   0  0  0  0  0  0  0  0  0  0  0  0
   -3.8594    2.5068   -1.7990 H   0  0  0  0  0  0  0  0  0  0  0  0
   -1.3631    2.3771   -2.0088 H   0  0  0  0  0  0  0  0  0  0  0  0
  1  2  1  0  0  0  0
  1 11  1  0  0  0  0
  2  3  2  0  0  0  0
  2  4  1  0  0  0  0
  4  5  2  0  0  0  0
  4 10  1  0  0  0  0
  5  6  1  0  0  0  0
  5 12  1  0  0  0  0
  6  7  2  0  0  0  0
  6 13  1  0  0  0  0
  7  8  1  0  0  0  0
  7  9  1  0  0  0  0
  9 10  2  0  0  0  0
  9 14  1  0  0  0  0
 10 15  1  0  0  0  0
M  END
>  <DRUGBANK_ID>
DB03975

>  <SECONDARY_ACCESSION_NUMBERS>
EXPT02124

>  <COMMON_NAME>
Mercuribenzoic Acid

$$$$
