
 OpenBabel10282417123D

 49 51  0  0  0  0  0  0  0  0999 V2000
    1.8882   -0.2912    0.4703 P   0  0  2  0  0  0  0  0  0  0  0  0
    2.6972   -1.1929   -2.0440 P   0  0  2  0  0  0  0  0  0  0  0  0
   -2.0180    2.1168    0.6746 O   0  0  0  0  0  0  0  0  0  0  0  0
   -1.4987   -0.0232   -1.5713 O   0  0  0  0  0  0  0  0  0  0  0  0
   -1.5916    1.7414   -3.0084 O   0  0  0  0  0  0  0  0  0  0  0  0
    1.5823    1.3224    0.4162 O   0  0  0  0  0  0  0  0  0  0  0  0
   -0.4355    4.4131   -0.2682 O   0  0  0  0  0  0  0  0  0  0  0  0
    3.0494   -0.8887   -0.4968 O   0  0  0  0  0  0  0  0  0  0  0  0
    0.8939   -0.4158   -0.9399 O   0  0  0  0  0  0  0  0  0  0  0  0
    2.7781   -0.1797    1.7325 O   0  0  0  0  0  0  0  0  0  0  0  0
   -3.5226    7.5704   -0.8906 O   0  0  0  0  0  0  0  0  0  0  0  0
    1.0662   -0.8927   -1.5517 O   0  0  0  0  0  0  0  0  0  0  0  0
    2.3533   -2.6780   -2.5199 O   0  0  0  0  0  0  0  0  0  0  0  0
    4.1570   -1.4616   -2.4847 O   0  0  0  0  0  0  0  0  0  0  0  0
   -2.6067    3.7902   -0.8393 N   0  0  0  0  0  0  0  0  0  0  0  0
   -1.9021    5.9773   -0.9168 N   0  0  0  0  0  0  0  0  0  0  0  0
   -0.8450    1.0167   -0.8695 C   0  0  1  0  0  0  0  0  0  0  0  0
   -1.2322    2.1510   -1.6772 C   0  0  2  0  0  0  0  0  0  0  0  0
   -0.9544    1.1707    0.6298 C   0  0  1  0  0  0  0  0  0  0  0  0
   -2.3320    2.4306   -0.7117 C   0  0  1  0  0  0  0  0  0  0  0  0
    0.4117    1.6837    1.2490 C   0  0  0  0  0  0  0  0  0  0  0  0
   -1.5727    4.6927   -0.6379 C   0  0  0  0  0  0  0  0  0  0  0  0
   -3.8320    4.1023   -1.3211 C   0  0  0  0  0  0  0  0  0  0  0  0
   -4.2054    5.3728   -1.3435 C   0  0  0  0  0  0  0  0  0  0  0  0
   -3.1894    6.3859   -1.0282 C   0  0  0  0  0  0  0  0  0  0  0  0
    0.1783   -2.3407   -1.1704 C   0  0  0  0  0  0  0  0  0  0  0  0
    0.6787   -3.6245   -1.2477 C   0  0  0  0  0  0  0  0  0  0  0  0
   -1.1079   -2.2519   -0.6199 C   0  0  0  0  0  0  0  0  0  0  0  0
   -0.2077   -4.6719   -1.4759 C   0  0  0  0  0  0  0  0  0  0  0  0
   -2.0023   -3.3161   -0.6956 C   0  0  0  0  0  0  0  0  0  0  0  0
   -1.5665   -4.5077   -1.2406 C   0  0  0  0  0  0  0  0  0  0  0  0
   -1.1789    6.6526   -0.7305 H   0  0  0  0  0  0  0  0  0  0  0  0
   -2.4004   -0.1684   -1.2401 H   0  0  0  0  0  0  0  0  0  0  0  0
   -1.6738    0.7574   -2.9540 H   0  0  0  0  0  0  0  0  0  0  0  0
    1.1881    0.3403   -1.5246 H   0  0  0  0  0  0  0  0  0  0  0  0
    1.6608   -2.6854   -3.2072 H   0  0  0  0  0  0  0  0  0  0  0  0
    0.1597    1.2832   -1.0439 H   0  0  0  0  0  0  0  0  0  0  0  0
   -0.3727    2.8256   -1.7868 H   0  0  0  0  0  0  0  0  0  0  0  0
   -1.2403    0.2594    1.1811 H   0  0  0  0  0  0  0  0  0  0  0  0
   -3.1896    1.7949   -0.9813 H   0  0  0  0  0  0  0  0  0  0  0  0
    0.5609    1.2753    2.2656 H   0  0  0  0  0  0  0  0  0  0  0  0
    0.3925    2.7676    1.3805 H   0  0  0  0  0  0  0  0  0  0  0  0
   -4.4845    3.2825   -1.6158 H   0  0  0  0  0  0  0  0  0  0  0  0
   -5.2158    5.6495   -1.5737 H   0  0  0  0  0  0  0  0  0  0  0  0
    1.7262   -3.8820   -1.1580 H   0  0  0  0  0  0  0  0  0  0  0  0
   -1.4584   -1.4053   -0.0639 H   0  0  0  0  0  0  0  0  0  0  0  0
    0.1902   -5.6199   -1.8206 H   0  0  0  0  0  0  0  0  0  0  0  0
   -3.0197   -3.1954   -0.3334 H   0  0  0  0  0  0  0  0  0  0  0  0
   -2.2513   -5.3358   -1.3767 H   0  0  0  0  0  0  0  0  0  0  0  0
  1  6  1  0  0  0  0
  1  8  1  0  0  0  0
  1  9  1  0  0  0  0
  1 10  2  1  0  0  0
  2 13  1  0  0  0  0
  2 14  2  6  0  0  0
  2 12  1  0  0  0  0
  2  8  1  0  0  0  0
  3 19  1  0  0  0  0
  3 20  1  0  0  0  0
  4 33  1  0  0  0  0
  5 34  1  0  0  0  0
  6 21  1  0  0  0  0
  7 22  2  0  0  0  0
  9 35  1  0  0  0  0
 11 25  2  0  0  0  0
 12 26  1  0  0  0  0
 13 36  1  0  0  0  0
 15 22  1  0  0  0  0
 15 23  1  0  0  0  0
 16 22  1  0  0  0  0
 16 25  1  0  0  0  0
 16 32  1  0  0  0  0
 17  4  1  0  0  0  0
 17 18  1  0  0  0  0
 17 19  1  0  0  0  0
 17 37  1  6  0  0  0
 18  5  1  0  0  0  0
 18 20  1  0  0  0  0
 18 38  1  6  0  0  0
 19 21  1  0  0  0  0
 19 39  1  1  0  0  0
 20 40  1  6  0  0  0
 20 15  1  0  0  0  0
 21 41  1  0  0  0  0
 21 42  1  0  0  0  0
 23 24  2  0  0  0  0
 23 43  1  0  0  0  0
 24 25  1  0  0  0  0
 24 44  1  0  0  0  0
 26 27  2  0  0  0  0
 26 28  1  0  0  0  0
 27 29  1  0  0  0  0
 27 45  1  0  0  0  0
 28 30  2  0  0  0  0
 28 46  1  0  0  0  0
 29 31  2  0  0  0  0
 29 47  1  0  0  0  0
 30 31  1  0  0  0  0
 30 48  1  0  0  0  0
 31 49  1  0  0  0  0
M  END
>  <DRUGBANK_ID>
DB02790

>  <SECONDARY_ACCESSION_NUMBERS>
EXPT03199

>  <COMMON_NAME>
Phenyl-uridine-5'-diphosphate

$$$$
