
 OpenBabel10282417143D

 23 23  0  0  0  0  0  0  0  0999 V2000
    1.2124   -0.0120   -0.0958 C   0  0  0  0  0  0  0  0  0  0  0  0
    0.7565   -1.1923   -0.7506 O   0  0  0  0  0  0  0  0  0  0  0  0
    0.4922    0.2102    1.2555 C   0  0  2  0  0  0  0  0  0  0  0  0
   -0.8828   -0.4714    1.4177 C   0  0  2  0  0  0  0  0  0  0  0  0
   -0.8521   -1.8700    1.1527 O   0  0  0  0  0  0  0  0  0  0  0  0
   -1.9654    0.2346    0.5829 C   0  0  2  0  0  0  0  0  0  0  0  0
   -1.8381    0.0666   -0.8315 O   0  0  0  0  0  0  0  0  0  0  0  0
   -1.9695    1.7199    0.9132 C   0  0  0  0  0  0  0  0  0  0  0  0
   -0.5702    2.3208    0.7819 C   0  0  2  0  0  0  0  0  0  0  0  0
    0.3865    1.6102    1.5655 O   0  0  0  0  0  0  0  0  0  0  0  0
   -0.5850    3.6740    1.2078 O   0  0  0  0  0  0  0  0  0  0  0  0
    1.0581    0.8219   -0.7840 H   0  0  0  0  0  0  0  0  0  0  0  0
    2.2942   -0.0808    0.0573 H   0  0  0  0  0  0  0  0  0  0  0  0
    1.1415   -1.2126   -1.6456 H   0  0  0  0  0  0  0  0  0  0  0  0
    1.1507   -0.2251    2.0197 H   0  0  0  0  0  0  0  0  0  0  0  0
   -1.1767   -0.3683    2.4712 H   0  0  0  0  0  0  0  0  0  0  0  0
   -0.4663   -1.9659    0.2552 H   0  0  0  0  0  0  0  0  0  0  0  0
   -2.9389   -0.2052    0.8241 H   0  0  0  0  0  0  0  0  0  0  0  0
   -0.9198    0.2178   -1.1108 H   0  0  0  0  0  0  0  0  0  0  0  0
   -2.6619    2.2593    0.2567 H   0  0  0  0  0  0  0  0  0  0  0  0
   -2.3274    1.8576    1.9410 H   0  0  0  0  0  0  0  0  0  0  0  0
   -0.2545    2.3348   -0.2640 H   0  0  0  0  0  0  0  0  0  0  0  0
   -1.3952    4.0834    0.8644 H   0  0  0  0  0  0  0  0  0  0  0  0
  1  2  1  0  0  0  0
  1 12  1  0  0  0  0
  1 13  1  0  0  0  0
  2 14  1  0  0  0  0
  3  1  1  0  0  0  0
  3  4  1  0  0  0  0
  3 10  1  0  0  0  0
  3 15  1  1  0  0  0
  4  5  1  0  0  0  0
  4  6  1  0  0  0  0
  4 16  1  1  0  0  0
  5 17  1  0  0  0  0
  6  7  1  0  0  0  0
  6  8  1  0  0  0  0
  6 18  1  1  0  0  0
  7 19  1  0  0  0  0
  8 20  1  0  0  0  0
  8 21  1  0  0  0  0
  9  8  1  0  0  0  0
  9 22  1  6  0  0  0
  9 11  1  0  0  0  0
 10  9  1  0  0  0  0
 11 23  1  0  0  0  0
M  END
>  <DRUGBANK_ID>
DB04382

>  <SECONDARY_ACCESSION_NUMBERS>
EXPT00111

>  <COMMON_NAME>
2-Deoxy-alpha-D-galactopyranose

>  <CAS_NUMBER>
14215-77-1

>  <UNII>
87447VW8UN

>  <SYNONYMS>
2-Deoxy-alpha-D-lyxo-hexopyranose; 2-deoxy-beta-D-galactose; 2-Deoxy-Î±-D-lyxo-hexopyranose

$$$$
