
 OpenBabel10282417193D

112118  0  0  1  0  0  0  0  0999 V2000
   -3.0804    1.6714   -1.2522 C   0  0  0  0  0  0  0  0  0  0  0  0
   -1.7712    2.2892   -1.0917 C   0  0  0  0  0  0  0  0  0  0  0  0
   -1.6802    3.3487    0.2749 C   0  0  2  0  0  0  0  0  0  0  0  0
   -2.9471    3.0938    1.2431 C   0  0  2  0  0  0  0  0  0  0  0  0
   -2.4371    2.4910    2.6291 C   0  0  0  0  0  0  0  0  0  0  0  0
   -1.0020    2.8819    2.6690 N   0  0  0  0  0  0  0  0  0  0  0  0
   -0.5337    3.6156    1.4110 C   0  0  2  0  0  0  0  0  0  0  0  0
    0.1320    4.9889    1.3290 C   0  0  0  0  0  0  0  0  0  0  0  0
    1.3252    5.1148    1.0287 O   0  0  0  0  0  0  0  0  0  0  0  0
   -0.5165    6.1249    1.5373 N   0  0  0  0  0  0  0  0  0  0  0  0
   -1.7067    6.3470    2.2434 C   0  0  2  0  0  0  0  0  0  0  0  0
   -2.3557    4.9236    2.9262 C   0  0  0  0  0  0  0  0  0  0  0  0
   -2.8992    5.6968    1.7553 C   0  0  1  0  0  0  0  0  0  0  0  0
   -4.1619    6.2988    1.5418 C   0  0  0  0  0  0  0  0  0  0  0  0
   -3.9448    6.5963    0.2522 F   0  0  0  0  0  0  0  0  0  0  0  0
   -5.1169    5.3600    1.6512 F   0  0  0  0  0  0  0  0  0  0  0  0
   -1.5481    7.8609    3.0143 C   0  0  0  0  0  0  0  0  0  0  0  0
   -0.3940    8.2955    2.9122 O   0  0  0  0  0  0  0  0  0  0  0  0
   -2.5833    8.6984    3.8343 N   0  0  0  0  0  0  0  0  0  0  0  0
   -4.3837    8.0994    4.7266 S   0  0  0  0  0  0  0  0  0  0  0  0
   -4.2331    8.1917    6.1210 O   0  0  0  0  0  0  0  0  0  0  0  0
   -5.4159    8.8060    3.8819 O   0  0  0  0  0  0  0  0  0  0  0  0
   -4.4919    6.2919    4.4276 C   0  0  0  0  0  0  0  0  0  0  0  0
   -5.6476    5.5014    3.7113 C   0  0  0  0  0  0  0  0  0  0  0  0
   -5.1892    5.1332    5.0629 C   0  0  0  0  0  0  0  0  0  0  0  0
   -3.0930    6.4571    4.3775 C   0  0  0  0  0  0  0  0  0  0  0  0
   -0.3074    2.1860    3.6315 C   0  0  0  0  0  0  0  0  0  0  0  0
   -0.6519    2.3695    4.8153 O   0  0  0  0  0  0  0  0  0  0  0  0
    0.3568    0.8125    3.2469 C   0  0  1  0  0  0  0  0  0  0  0  0
   -0.6727   -0.1201    3.8471 N   0  0  0  0  0  0  0  0  0  0  0  0
   -0.5245   -1.4861    3.8535 C   0  0  0  0  0  0  0  0  0  0  0  0
    0.5563   -1.9815    4.1678 O   0  0  0  0  0  0  0  0  0  0  0  0
   -1.5697   -2.2742    3.2864 O   0  0  0  0  0  0  0  0  0  0  0  0
   -2.6259   -1.7689    2.3645 C   0  0  2  0  0  0  0  0  0  0  0  0
   -4.0181   -1.9046    2.9810 C   0  0  0  0  0  0  0  0  0  0  0  0
   -3.6718   -2.6218    1.6982 C   0  0  1  0  0  0  0  0  0  0  0  0
   -4.3113   -2.1720    0.3921 C   0  0  0  0  0  0  0  0  0  0  0  0
   -5.2870   -1.0374    0.6560 C   0  0  0  0  0  0  0  0  0  0  0  0
   -5.3901   -0.1210   -0.5058 C   0  0  0  0  0  0  0  0  0  0  0  0
   -6.3565    1.0365   -0.2919 C   0  0  0  0  0  0  0  0  0  0  0  0
   -6.0718    1.9114    0.9307 C   0  0  0  0  0  0  0  0  0  0  0  0
   -6.2971    3.3537    0.4232 C   0  0  0  0  0  0  0  0  0  0  0  0
   -5.1285    3.8839    0.0252 C   0  0  0  0  0  0  0  0  0  0  0  0
   -5.1468    5.1022   -0.5567 N   0  0  0  0  0  0  0  0  0  0  0  0
   -6.1793    6.0357   -0.1128 C   0  0  0  0  0  0  0  0  0  0  0  0
   -6.3091    7.4904    0.6931 C   0  0  0  0  0  0  0  0  0  0  0  0
   -5.7672    8.5388    0.1134 C   0  0  0  0  0  0  0  0  0  0  0  0
   -6.7351    8.3130   -0.8710 C   0  0  0  0  0  0  0  0  0  0  0  0
   -7.7550    6.8954   -0.8922 C   0  0  0  0  0  0  0  0  0  0  0  0
   -7.3496    5.5548   -0.3446 C   0  0  0  0  0  0  0  0  0  0  0  0
   -7.4707    4.0869    0.1430 N   0  0  0  0  0  0  0  0  0  0  0  0
   -4.4045    8.5444    0.0978 O   0  0  0  0  0  0  0  0  0  0  0  0
   -3.4621    9.3779    0.8054 C   0  0  0  0  0  0  0  0  0  0  0  0
   -4.0119    3.1202    0.2856 O   0  0  0  0  0  0  0  0  0  0  0  0
   -6.7526    1.6199    2.0610 F   0  0  0  0  0  0  0  0  0  0  0  0
   -4.7969    1.5410    1.3514 F   0  0  0  0  0  0  0  0  0  0  0  0
    0.6135    0.3269    1.7850 C   0  0  0  0  0  0  0  0  0  0  0  0
   -0.4728    0.8101    0.9470 C   0  0  0  0  0  0  0  0  0  0  0  0
    1.9445    0.6866    1.1446 C   0  0  0  0  0  0  0  0  0  0  0  0
    0.4006   -1.1176    1.4312 C   0  0  0  0  0  0  0  0  0  0  0  0
   -3.1355    1.1943   -0.2616 H   0  0  0  0  0  0  0  0  0  0  0  0
   -3.2016    0.9335   -2.0337 H   0  0  0  0  0  0  0  0  0  0  0  0
   -3.7902    2.4476   -1.4733 H   0  0  0  0  0  0  0  0  0  0  0  0
   -1.2305    1.3384   -1.0765 H   0  0  0  0  0  0  0  0  0  0  0  0
   -1.3413    2.7165   -1.9930 H   0  0  0  0  0  0  0  0  0  0  0  0
   -0.7663    2.9073   -0.0561 H   0  0  0  0  0  0  0  0  0  0  0  0
   -3.5809    3.7244    1.8519 H   0  0  0  0  0  0  0  0  0  0  0  0
   -2.8804    2.8666    3.5945 H   0  0  0  0  0  0  0  0  0  0  0  0
   -2.6213    1.4585    2.8871 H   0  0  0  0  0  0  0  0  0  0  0  0
    0.4487    3.1984    1.1331 H   0  0  0  0  0  0  0  0  0  0  0  0
    0.1665    6.8555    1.7058 H   0  0  0  0  0  0  0  0  0  0  0  0
   -1.7152    4.6608    3.8082 H   0  0  0  0  0  0  0  0  0  0  0  0
   -3.0864    4.6395    3.7468 H   0  0  0  0  0  0  0  0  0  0  0  0
   -2.7786    5.2482    0.7764 H   0  0  0  0  0  0  0  0  0  0  0  0
   -4.5965    7.1338    2.0758 H   0  0  0  0  0  0  0  0  0  0  0  0
   -2.1472    9.4376    4.4004 H   0  0  0  0  0  0  0  0  0  0  0  0
   -6.6074    5.9474    3.4554 H   0  0  0  0  0  0  0  0  0  0  0  0
   -5.6440    4.5291    3.1609 H   0  0  0  0  0  0  0  0  0  0  0  0
   -4.8269    4.0888    4.9688 H   0  0  0  0  0  0  0  0  0  0  0  0
   -5.9334    5.2232    5.8198 H   0  0  0  0  0  0  0  0  0  0  0  0
   -3.2388    6.9671    3.3994 H   0  0  0  0  0  0  0  0  0  0  0  0
   -2.6467    6.8609    5.2628 H   0  0  0  0  0  0  0  0  0  0  0  0
   -2.0561    6.1676    4.2906 H   0  0  0  0  0  0  0  0  0  0  0  0
    1.3262    0.9051    3.7536 H   0  0  0  0  0  0  0  0  0  0  0  0
   -1.6272    0.1849    3.8060 H   0  0  0  0  0  0  0  0  0  0  0  0
   -2.3135   -1.2379    1.4526 H   0  0  0  0  0  0  0  0  0  0  0  0
   -4.6791   -2.6275    3.4428 H   0  0  0  0  0  0  0  0  0  0  0  0
   -4.5164   -0.9652    3.2079 H   0  0  0  0  0  0  0  0  0  0  0  0
   -3.4606   -3.6799    1.6791 H   0  0  0  0  0  0  0  0  0  0  0  0
   -4.8478   -2.9532   -0.1558 H   0  0  0  0  0  0  0  0  0  0  0  0
   -3.5025   -1.8640   -0.2929 H   0  0  0  0  0  0  0  0  0  0  0  0
   -6.2551   -1.3164    1.0623 H   0  0  0  0  0  0  0  0  0  0  0  0
   -4.8171   -0.4317    1.4292 H   0  0  0  0  0  0  0  0  0  0  0  0
   -5.3434   -0.4401   -1.5522 H   0  0  0  0  0  0  0  0  0  0  0  0
   -4.3745    0.1801   -0.4463 H   0  0  0  0  0  0  0  0  0  0  0  0
   -7.4175    0.8046   -0.2486 H   0  0  0  0  0  0  0  0  0  0  0  0
   -6.2339    1.5858   -1.2357 H   0  0  0  0  0  0  0  0  0  0  0  0
   -7.4011    7.8696    0.9896 H   0  0  0  0  0  0  0  0  0  0  0  0
   -7.2394    9.2964   -0.9003 H   0  0  0  0  0  0  0  0  0  0  0  0
   -8.8385    7.0004   -0.7036 H   0  0  0  0  0  0  0  0  0  0  0  0
   -3.1441   10.1022    0.0641 H   0  0  0  0  0  0  0  0  0  0  0  0
   -3.7774    9.8353    1.7514 H   0  0  0  0  0  0  0  0  0  0  0  0
   -2.5206    8.8327    1.0344 H   0  0  0  0  0  0  0  0  0  0  0  0
   -0.0313    1.7217    0.7774 H   0  0  0  0  0  0  0  0  0  0  0  0
   -0.4582    0.3307   -0.0115 H   0  0  0  0  0  0  0  0  0  0  0  0
   -1.4844    0.8477    1.3408 H   0  0  0  0  0  0  0  0  0  0  0  0
    2.7333    0.1914    1.7027 H   0  0  0  0  0  0  0  0  0  0  0  0
    1.9479    0.2988    0.1122 H   0  0  0  0  0  0  0  0  0  0  0  0
    2.1363    1.7597    1.0715 H   0  0  0  0  0  0  0  0  0  0  0  0
    1.0686   -1.7762    1.9452 H   0  0  0  0  0  0  0  0  0  0  0  0
   -0.6124   -1.2287    1.7053 H   0  0  0  0  0  0  0  0  0  0  0  0
    0.3021   -1.3996    0.3767 H   0  0  0  0  0  0  0  0  0  0  0  0
  1  2  1  0  0  0  0
  1 61  1  0  0  0  0
  1 62  1  0  0  0  0
  1 63  1  0  0  0  0
  2 64  1  0  0  0  0
  2 65  1  0  0  0  0
  3  4  1  0  0  0  0
  3  7  1  0  0  0  0
  3  2  1  0  0  0  0
  3 66  1  1  0  0  0
  4  5  1  0  0  0  0
  4 54  1  0  0  0  0
  4 67  1  1  0  0  0
  5  6  1  0  0  0  0
  5 68  1  0  0  0  0
  5 69  1  0  0  0  0
  6  7  1  0  0  0  0
  6 27  1  0  0  0  0
  7  8  1  0  0  0  0
  7 70  1  6  0  0  0
  8  9  2  0  0  0  0
  8 10  1  0  0  0  0
 10 71  1  0  0  0  0
 11 10  1  0  0  0  0
 11 12  1  0  0  0  0
 11 13  1  0  0  0  0
 11 17  1  1  0  0  0
 12 13  1  0  0  0  0
 12 72  1  0  0  0  0
 12 73  1  0  0  0  0
 13 14  1  0  0  0  0
 13 74  1  6  0  0  0
 14 15  1  0  0  0  0
 14 16  1  0  0  0  0
 14 75  1  0  0  0  0
 17 18  2  0  0  0  0
 17 19  1  0  0  0  0
 19 20  1  0  0  0  0
 19 76  1  0  0  0  0
 20 21  2  0  0  0  0
 20 22  2  0  0  0  0
 20 23  1  0  0  0  0
 23 24  1  0  0  0  0
 23 25  1  0  0  0  0
 23 26  1  0  0  0  0
 24 25  1  0  0  0  0
 24 77  1  0  0  0  0
 24 78  1  0  0  0  0
 25 79  1  0  0  0  0
 25 80  1  0  0  0  0
 26 81  1  0  0  0  0
 26 82  1  0  0  0  0
 26 83  1  0  0  0  0
 27 29  1  0  0  0  0
 27 28  2  0  0  0  0
 29 30  1  0  0  0  0
 29 84  1  1  0  0  0
 29 57  1  0  0  0  0
 30 31  1  0  0  0  0
 30 85  1  0  0  0  0
 31 33  1  0  0  0  0
 31 32  2  0  0  0  0
 33 34  1  0  0  0  0
 34 35  1  0  0  0  0
 34 36  1  0  0  0  0
 34 86  1  6  0  0  0
 35 87  1  0  0  0  0
 35 88  1  0  0  0  0
 36 35  1  0  0  0  0
 36 37  1  0  0  0  0
 36 89  1  1  0  0  0
 37 38  1  0  0  0  0
 37 90  1  0  0  0  0
 37 91  1  0  0  0  0
 38 39  1  0  0  0  0
 38 92  1  0  0  0  0
 38 93  1  0  0  0  0
 39 40  1  0  0  0  0
 39 94  1  0  0  0  0
 39 95  1  0  0  0  0
 40 41  1  0  0  0  0
 40 96  1  0  0  0  0
 40 97  1  0  0  0  0
 41 42  1  0  0  0  0
 41 55  1  0  0  0  0
 41 56  1  0  0  0  0
 42 43  2  0  0  0  0
 42 51  1  0  0  0  0
 43 44  1  0  0  0  0
 43 54  1  0  0  0  0
 44 45  2  0  0  0  0
 45 46  1  0  0  0  0
 45 50  1  0  0  0  0
 46 47  2  0  0  0  0
 46 98  1  0  0  0  0
 47 48  1  0  0  0  0
 47 52  1  0  0  0  0
 48 49  2  0  0  0  0
 48 99  1  0  0  0  0
 49 50  1  0  0  0  0
 49100  1  0  0  0  0
 50 51  2  0  0  0  0
 52 53  1  0  0  0  0
 53101  1  0  0  0  0
 53102  1  0  0  0  0
 53103  1  0  0  0  0
 57 58  1  0  0  0  0
 57 59  1  0  0  0  0
 57 60  1  0  0  0  0
 58104  1  0  0  0  0
 58105  1  0  0  0  0
 58106  1  0  0  0  0
 59107  1  0  0  0  0
 59108  1  0  0  0  0
 59109  1  0  0  0  0
 60110  1  0  0  0  0
 60111  1  0  0  0  0
 60112  1  0  0  0  0
M  END
>  <DRUGBANK_ID>
DB12026

>  <COMMON_NAME>
Voxilaprevir

>  <CAS_NUMBER>
1535212-07-7

>  <UNII>
0570F37359

>  <SYNONYMS>
Voxilaprevir

$$$$
