
 OpenBabel10282417233D

 75 77  0  0  0  0  0  0  0  0999 V2000
    1.4978    0.0801    0.1714 C   0  0  0  0  0  0  0  0  0  0  0  0
    0.6441    0.9055    1.1852 C   0  0  0  0  0  0  0  0  0  0  0  0
    0.9961    2.3538    0.8711 C   0  0  0  0  0  0  0  0  0  0  0  0
   -0.9200    0.8406    1.3515 C   0  0  0  0  0  0  0  0  0  0  0  0
   -1.4943   -0.4991    1.4430 N   0  0  0  0  0  0  0  0  0  0  0  0
   -2.9941   -0.4788    1.4393 C   0  0  0  0  0  0  0  0  0  0  0  0
   -3.6813   -0.0044    0.1774 C   0  0  0  0  0  0  0  0  0  0  0  0
   -3.4047   -0.8959   -0.9829 C   0  0  0  0  0  0  0  0  0  0  0  0
   -3.8771   -2.2345   -0.9994 N   0  0  0  0  0  0  0  0  0  0  0  0
   -3.1643   -3.5778   -0.8286 C   0  0  0  0  0  0  0  0  0  0  0  0
   -2.7791   -4.4203   -2.1368 C   0  0  0  0  0  0  0  0  0  0  0  0
   -3.5793   -4.1777   -3.3690 N   0  0  0  0  0  0  0  0  0  0  0  0
   -4.9961   -4.7029   -3.2665 C   0  0  0  0  0  0  0  0  0  0  0  0
   -6.0718   -4.3155   -2.1427 C   0  0  0  0  0  0  0  0  0  0  0  0
   -6.6746   -2.8793   -2.0849 C   0  0  0  0  0  0  0  0  0  0  0  0
   -7.1416   -2.4448   -3.3530 N   0  0  0  0  0  0  0  0  0  0  0  0
   -8.0447   -1.5135   -3.3049 C   0  0  0  0  0  0  0  0  0  0  0  0
   -9.1970   -1.7025   -3.9116 N   0  0  0  0  0  0  0  0  0  0  0  0
  -10.0063   -0.8477   -3.2885 C   0  0  0  0  0  0  0  0  0  0  0  0
  -11.3592   -0.7406   -3.5379 C   0  0  0  0  0  0  0  0  0  0  0  0
  -12.0301    0.2814   -2.8951 C   0  0  0  0  0  0  0  0  0  0  0  0
  -11.3758    1.1198   -1.9784 C   0  0  0  0  0  0  0  0  0  0  0  0
  -10.0189    0.9731   -1.6590 C   0  0  0  0  0  0  0  0  0  0  0  0
   -9.3654   -0.0255   -2.3633 C   0  0  0  0  0  0  0  0  0  0  0  0
   -8.0815   -0.4759   -2.4046 N   0  0  0  0  0  0  0  0  0  0  0  0
   -3.5670   -2.7387   -3.6282 C   0  0  0  0  0  0  0  0  0  0  0  0
   -4.1382   -2.1166   -2.4213 C   0  0  0  0  0  0  0  0  0  0  0  0
   -0.9095   -1.3461    0.3832 C   0  0  0  0  0  0  0  0  0  0  0  0
   -0.6494   -0.6135   -1.0664 C   0  0  0  0  0  0  0  0  0  0  0  0
   -0.8121    0.7725   -1.8156 C   0  0  0  0  0  0  0  0  0  0  0  0
   -0.5316   -1.6639   -2.1735 C   0  0  0  0  0  0  0  0  0  0  0  0
    1.3446    0.3594   -0.8695 H   0  0  0  0  0  0  0  0  0  0  0  0
    1.4182   -1.0020    0.2379 H   0  0  0  0  0  0  0  0  0  0  0  0
    2.5616    0.2513    0.3046 H   0  0  0  0  0  0  0  0  0  0  0  0
    1.0244    0.6155    2.1661 H   0  0  0  0  0  0  0  0  0  0  0  0
    0.5985    2.6576   -0.1067 H   0  0  0  0  0  0  0  0  0  0  0  0
    0.5971    3.0286    1.6280 H   0  0  0  0  0  0  0  0  0  0  0  0
    2.0822    2.4580    0.8315 H   0  0  0  0  0  0  0  0  0  0  0  0
   -1.2132    1.3932    2.2532 H   0  0  0  0  0  0  0  0  0  0  0  0
   -1.4215    1.4320    0.5872 H   0  0  0  0  0  0  0  0  0  0  0  0
   -3.3814   -1.4829    1.6592 H   0  0  0  0  0  0  0  0  0  0  0  0
   -3.3643    0.1584    2.2508 H   0  0  0  0  0  0  0  0  0  0  0  0
   -4.7752    0.0577    0.2763 H   0  0  0  0  0  0  0  0  0  0  0  0
   -3.3940    1.0266   -0.0827 H   0  0  0  0  0  0  0  0  0  0  0  0
   -3.6546   -0.1579   -1.7811 H   0  0  0  0  0  0  0  0  0  0  0  0
   -2.5224   -1.1700   -1.4828 H   0  0  0  0  0  0  0  0  0  0  0  0
   -2.4071   -3.7255   -0.0464 H   0  0  0  0  0  0  0  0  0  0  0  0
   -3.9381   -4.1984   -0.3627 H   0  0  0  0  0  0  0  0  0  0  0  0
   -1.7339   -4.2342   -2.4059 H   0  0  0  0  0  0  0  0  0  0  0  0
   -2.7904   -5.4937   -1.9209 H   0  0  0  0  0  0  0  0  0  0  0  0
   -5.4603   -4.5041   -4.2384 H   0  0  0  0  0  0  0  0  0  0  0  0
   -4.8687   -5.7847   -3.2003 H   0  0  0  0  0  0  0  0  0  0  0  0
   -6.9080   -5.0104   -2.2039 H   0  0  0  0  0  0  0  0  0  0  0  0
   -5.6317   -4.5206   -1.1665 H   0  0  0  0  0  0  0  0  0  0  0  0
   -7.1254   -2.6578   -1.1077 H   0  0  0  0  0  0  0  0  0  0  0  0
   -6.0960   -1.9847   -1.9373 H   0  0  0  0  0  0  0  0  0  0  0  0
   -6.5908   -2.5838   -4.2035 H   0  0  0  0  0  0  0  0  0  0  0  0
  -11.7961   -1.4252   -4.2499 H   0  0  0  0  0  0  0  0  0  0  0  0
  -13.0741    0.4240   -3.1398 H   0  0  0  0  0  0  0  0  0  0  0  0
  -11.9453    1.9154   -1.5097 H   0  0  0  0  0  0  0  0  0  0  0  0
   -9.5177    1.6225   -0.9481 H   0  0  0  0  0  0  0  0  0  0  0  0
   -7.3123   -0.1590   -1.8107 H   0  0  0  0  0  0  0  0  0  0  0  0
   -2.6026   -2.3006   -3.8616 H   0  0  0  0  0  0  0  0  0  0  0  0
   -4.2480   -2.4608   -4.4405 H   0  0  0  0  0  0  0  0  0  0  0  0
   -4.7747   -2.8728   -2.1889 H   0  0  0  0  0  0  0  0  0  0  0  0
   -4.6930   -1.2171   -2.7209 H   0  0  0  0  0  0  0  0  0  0  0  0
   -0.0394   -1.8750    0.7714 H   0  0  0  0  0  0  0  0  0  0  0  0
   -1.5623   -2.2017    0.2979 H   0  0  0  0  0  0  0  0  0  0  0  0
   -1.5742   -0.2121   -0.7698 H   0  0  0  0  0  0  0  0  0  0  0  0
    0.1300    1.1946   -2.1289 H   0  0  0  0  0  0  0  0  0  0  0  0
   -1.4662    0.6680   -2.6983 H   0  0  0  0  0  0  0  0  0  0  0  0
   -1.3478    1.5475   -1.2500 H   0  0  0  0  0  0  0  0  0  0  0  0
   -1.0171   -2.5851   -1.8869 H   0  0  0  0  0  0  0  0  0  0  0  0
   -0.9965   -1.3337   -3.1106 H   0  0  0  0  0  0  0  0  0  0  0  0
    0.5028   -1.9073   -2.3925 H   0  0  0  0  0  0  0  0  0  0  0  0
  1  2  1  0  0  0  0
  1 32  1  0  0  0  0
  1 33  1  0  0  0  0
  1 34  1  0  0  0  0
  2  3  1  0  0  0  0
  2  4  1  0  0  0  0
  2 35  1  0  0  0  0
  3 36  1  0  0  0  0
  3 37  1  0  0  0  0
  3 38  1  0  0  0  0
  4  5  1  0  0  0  0
  4 39  1  0  0  0  0
  4 40  1  0  0  0  0
  5  6  1  0  0  0  0
  5 28  1  0  0  0  0
  6  7  1  0  0  0  0
  6 41  1  0  0  0  0
  6 42  1  0  0  0  0
  7  8  1  0  0  0  0
  7 43  1  0  0  0  0
  7 44  1  0  0  0  0
  8  9  1  0  0  0  0
  8 45  1  0  0  0  0
  8 46  1  0  0  0  0
  9 10  1  0  0  0  0
  9 27  1  0  0  0  0
 10 11  1  0  0  0  0
 10 47  1  0  0  0  0
 10 48  1  0  0  0  0
 11 12  1  0  0  0  0
 11 49  1  0  0  0  0
 11 50  1  0  0  0  0
 12 13  1  0  0  0  0
 12 26  1  0  0  0  0
 13 14  1  0  0  0  0
 13 51  1  0  0  0  0
 13 52  1  0  0  0  0
 14 15  1  0  0  0  0
 14 53  1  0  0  0  0
 14 54  1  0  0  0  0
 15 16  1  0  0  0  0
 15 55  1  0  0  0  0
 15 56  1  0  0  0  0
 16 17  1  0  0  0  0
 16 57  1  0  0  0  0
 17 18  2  0  0  0  0
 17 25  1  0  0  0  0
 18 19  1  0  0  0  0
 19 20  2  0  0  0  0
 19 24  1  0  0  0  0
 20 21  1  0  0  0  0
 20 58  1  0  0  0  0
 21 22  2  0  0  0  0
 21 59  1  0  0  0  0
 22 23  1  0  0  0  0
 22 60  1  0  0  0  0
 23 24  2  0  0  0  0
 23 61  1  0  0  0  0
 24 25  1  0  0  0  0
 25 62  1  0  0  0  0
 26 27  1  0  0  0  0
 26 63  1  0  0  0  0
 26 64  1  0  0  0  0
 27 65  1  0  0  0  0
 27 66  1  0  0  0  0
 28 29  1  0  0  0  0
 28 67  1  0  0  0  0
 28 68  1  0  0  0  0
 29 30  1  0  0  0  0
 29 31  1  0  0  0  0
 29 69  1  0  0  0  0
 30 70  1  0  0  0  0
 30 71  1  0  0  0  0
 30 72  1  0  0  0  0
 31 73  1  0  0  0  0
 31 74  1  0  0  0  0
 31 75  1  0  0  0  0
M  END
>  <DRUGBANK_ID>
DB16954

>  <COMMON_NAME>
Ezeprogind

>  <CAS_NUMBER>
615539-20-3

>  <UNII>
TR9YQ07ELN

>  <SYNONYMS>
1,4-piperazinedipropanamine, n'-1h-benzimidazol-2-yl-n,n-bis(2-methylpropyl)-; 1,4-piperazinedipropanamine, n4-1h-benzimidazol-2-yl-n1,n1-bis(2-methylpropyl)-; Azp-2006 free base; Azp2006 free base; N-(3-(4-(3-(diisobutylamino)propyl)piperazin-1-yl)propyl)-1h-benzo(d)imidazol-2-amine; N4-1h-benzimidazol-2-yl-n1,n1-bis(2-methylpropyl)-1,4-piperazinedipropanamine

$$$$
