
 OpenBabel10282417183D

 40 42  0  0  0  0  0  0  0  0999 V2000
   -0.6259    1.7898   -1.0298 C   0  0  0  0  0  0  0  0  0  0  0  0
   -1.5421    0.7046   -0.4856 C   0  0  0  0  0  0  0  0  0  0  0  0
   -1.3357   -0.6552   -0.7992 C   0  0  0  0  0  0  0  0  0  0  0  0
   -0.0429   -1.2469   -1.8855 S   0  0  0  0  0  0  0  0  0  0  0  0
    0.7183    1.6597   -1.1476 C   0  0  0  0  0  0  0  0  0  0  0  0
    1.3293   -0.7661   -0.8628 C   0  0  0  0  0  0  0  0  0  0  0  0
    1.5955    0.5789   -0.6121 C   0  0  0  0  0  0  0  0  0  0  0  0
   -2.1494   -1.6598   -0.2508 C   0  0  0  0  0  0  0  0  0  0  0  0
   -3.2292   -1.3436    0.5612 C   0  0  0  0  0  0  0  0  0  0  0  0
   -3.4738   -0.0127    0.8704 C   0  0  0  0  0  0  0  0  0  0  0  0
   -2.6366    1.0015    0.3732 C   0  0  0  0  0  0  0  0  0  0  0  0
    2.7180    0.8860    0.1930 C   0  0  0  0  0  0  0  0  0  0  0  0
    3.5131   -0.1085    0.7728 C   0  0  0  0  0  0  0  0  0  0  0  0
    3.2251   -1.4418    0.5112 C   0  0  0  0  0  0  0  0  0  0  0  0
    2.1346   -1.7609   -0.2956 C   0  0  0  0  0  0  0  0  0  0  0  0
   -4.8335    0.3637    1.8618 Cl  0  0  0  0  0  0  0  0  0  0  0  0
   -1.2777    3.0299   -1.1323 O   0  0  0  0  0  0  0  0  0  0  0  0
   -0.4900    4.2386   -1.1899 C   0  0  0  0  0  0  0  0  0  0  0  0
    0.2577    4.7089    0.1190 C   0  0  0  0  0  0  0  0  0  0  0  0
    1.1130    3.7276    0.8102 N   0  0  0  0  0  0  0  0  0  0  0  0
    2.1286    4.2816    1.6958 C   0  0  0  0  0  0  0  0  0  0  0  0
    0.3164    2.7901    1.6079 C   0  0  0  0  0  0  0  0  0  0  0  0
    1.3143    2.5037   -1.4930 H   0  0  0  0  0  0  0  0  0  0  0  0
   -1.9381   -2.7034   -0.4701 H   0  0  0  0  0  0  0  0  0  0  0  0
   -3.8725   -2.1391    0.9275 H   0  0  0  0  0  0  0  0  0  0  0  0
   -2.8454    2.0266    0.6805 H   0  0  0  0  0  0  0  0  0  0  0  0
    2.9770    1.9179    0.4224 H   0  0  0  0  0  0  0  0  0  0  0  0
    4.3463    0.1512    1.4228 H   0  0  0  0  0  0  0  0  0  0  0  0
    3.8497   -2.2289    0.9221 H   0  0  0  0  0  0  0  0  0  0  0  0
    1.9022   -2.8059   -0.4822 H   0  0  0  0  0  0  0  0  0  0  0  0
    0.1790    4.2024   -2.0581 H   0  0  0  0  0  0  0  0  0  0  0  0
   -1.2047    5.0402   -1.4304 H   0  0  0  0  0  0  0  0  0  0  0  0
    0.8763    5.5613   -0.1988 H   0  0  0  0  0  0  0  0  0  0  0  0
   -0.4736    5.1052    0.8310 H   0  0  0  0  0  0  0  0  0  0  0  0
    1.6840    4.6579    2.6209 H   0  0  0  0  0  0  0  0  0  0  0  0
    2.8361    3.4886    1.9749 H   0  0  0  0  0  0  0  0  0  0  0  0
    2.7209    5.0704    1.2266 H   0  0  0  0  0  0  0  0  0  0  0  0
   -0.0378    3.1983    2.5507 H   0  0  0  0  0  0  0  0  0  0  0  0
   -0.5938    2.5149    1.1068 H   0  0  0  0  0  0  0  0  0  0  0  0
    0.8721    1.8672    1.7973 H   0  0  0  0  0  0  0  0  0  0  0  0
  1  5  2  0  0  0  0
  1  2  1  0  0  0  0
  1 17  1  0  0  0  0
  2  3  1  0  0  0  0
  2 11  2  0  0  0  0
  3  4  1  0  0  0  0
  3  8  2  0  0  0  0
  4  6  1  0  0  0  0
  5  7  1  0  0  0  0
  5 23  1  0  0  0  0
  6  7  1  0  0  0  0
  6 15  2  0  0  0  0
  7 12  2  0  0  0  0
  8  9  1  0  0  0  0
  8 24  1  0  0  0  0
  9 10  2  0  0  0  0
  9 25  1  0  0  0  0
 10 11  1  0  0  0  0
 10 16  1  0  0  0  0
 11 26  1  0  0  0  0
 12 13  1  0  0  0  0
 12 27  1  0  0  0  0
 13 14  2  0  0  0  0
 13 28  1  0  0  0  0
 14 15  1  0  0  0  0
 14 29  1  0  0  0  0
 15 30  1  0  0  0  0
 17 18  1  0  0  0  0
 18 19  1  0  0  0  0
 18 31  1  0  0  0  0
 18 32  1  0  0  0  0
 19 20  1  0  0  0  0
 19 33  1  0  0  0  0
 19 34  1  0  0  0  0
 20 21  1  0  0  0  0
 20 22  1  0  0  0  0
 21 35  1  0  0  0  0
 21 36  1  0  0  0  0
 21 37  1  0  0  0  0
 22 38  1  0  0  0  0
 22 39  1  0  0  0  0
 22 40  1  0  0  0  0
M  END
>  <DRUGBANK_ID>
DB09225

>  <COMMON_NAME>
Zotepine

>  <CAS_NUMBER>
26615-21-4

>  <UNII>
U29O83JAZW

>  <SYNONYMS>
Zotepina; Zotepine

$$$$
