
 OpenBabel10282417213D

109113  0  0  0  0  0  0  0  0999 V2000
    1.2614    0.3033   -0.4229 C   0  0  0  0  0  0  0  0  0  0  0  0
    0.4920    1.4707   -0.3726 O   0  0  0  0  0  0  0  0  0  0  0  0
    1.0876    2.4208    0.5360 C   0  0  0  0  0  0  0  0  0  0  0  0
    0.9887    1.9670    2.0615 C   0  0  0  0  0  0  0  0  0  0  0  0
    1.0998    0.5581    2.4024 O   0  0  0  0  0  0  0  0  0  0  0  0
    0.2793   -0.4553    1.7351 C   0  0  0  0  0  0  0  0  0  0  0  0
   -1.2610   -0.2674    1.3971 C   0  0  0  0  0  0  0  0  0  0  0  0
   -1.9273    0.9037    0.9113 O   0  0  0  0  0  0  0  0  0  0  0  0
   -1.6895    2.0438    1.6837 C   0  0  0  0  0  0  0  0  0  0  0  0
   -1.8066    1.8428    3.2558 C   0  0  0  0  0  0  0  0  0  0  0  0
   -1.2080    0.6662    4.0113 N   0  0  0  0  0  0  0  0  0  0  0  0
   -0.2844    0.5599    5.0269 C   0  0  0  0  0  0  0  0  0  0  0  0
    0.1587   -0.5349    5.3547 O   0  0  0  0  0  0  0  0  0  0  0  0
    0.0805    1.7690    5.7651 C   0  0  0  0  0  0  0  0  0  0  0  0
   -0.9545    2.6742    6.0171 C   0  0  0  0  0  0  0  0  0  0  0  0
   -0.7238    3.8168    6.7274 C   0  0  0  0  0  0  0  0  0  0  0  0
    0.5495    4.0354    7.2029 C   0  0  0  0  0  0  0  0  0  0  0  0
    1.6146    3.1219    7.0134 C   0  0  0  0  0  0  0  0  0  0  0  0
    2.8678    3.3567    7.6028 N   0  0  0  0  0  0  0  0  0  0  0  0
    3.1639    4.4958    8.3484 C   0  0  0  0  0  0  0  0  0  0  0  0
    4.0743    5.3379    7.7989 N   0  0  0  0  0  0  0  0  0  0  0  0
    3.9273    6.6211    8.1066 C   0  0  0  0  0  0  0  0  0  0  0  0
    2.8340    7.0584    8.8636 C   0  0  0  0  0  0  0  0  0  0  0  0
    2.0123    6.0862    9.6018 C   0  0  0  0  0  0  0  0  0  0  0  0
    1.1588    6.3358   10.9221 O   0  0  0  0  0  0  0  0  0  0  0  0
    1.0854    7.5638   11.7441 C   0  0  0  0  0  0  0  0  0  0  0  0
    1.0921    8.8265   11.2157 C   0  0  0  0  0  0  0  0  0  0  0  0
    0.7134    8.8137    9.9340 C   0  0  0  0  0  0  0  0  0  0  0  0
    0.5442   10.0068    9.3189 C   0  0  0  0  0  0  0  0  0  0  0  0
    0.8694   11.1986    9.9641 C   0  0  0  0  0  0  0  0  0  0  0  0
    1.4894   11.2459   11.1958 C   0  0  0  0  0  0  0  0  0  0  0  0
    1.5723   10.0683   11.8812 C   0  0  0  0  0  0  0  0  0  0  0  0
    2.0761   10.0733   13.1503 C   0  0  0  0  0  0  0  0  0  0  0  0
    2.7203   11.1012   13.9331 N   0  0  0  0  0  0  0  0  0  0  0  0
    3.3455   11.0953   15.1833 C   0  0  0  0  0  0  0  0  0  0  0  0
    3.5002   12.1811   15.7620 O   0  0  0  0  0  0  0  0  0  0  0  0
    3.7828    9.9663   15.8578 N   0  0  0  0  0  0  0  0  0  0  0  0
    4.0108    8.6044   15.4983 C   0  0  0  0  0  0  0  0  0  0  0  0
    4.5519    8.4205   14.2514 C   0  0  0  0  0  0  0  0  0  0  0  0
    4.3687    7.2496   13.5257 C   0  0  0  0  0  0  0  0  0  0  0  0
    3.7115    6.1224   14.1020 C   0  0  0  0  0  0  0  0  0  0  0  0
    3.1997    6.2341   15.4103 C   0  0  0  0  0  0  0  0  0  0  0  0
    2.3472    5.1490   15.8694 N   0  0  0  0  0  0  0  0  0  0  0  0
    2.1991    4.9913   17.5824 S   0  0  0  0  0  0  0  0  0  0  0  0
    0.5526    4.3568   17.6994 C   0  0  0  0  0  0  0  0  0  0  0  0
    3.1766    3.9376   18.0036 O   0  0  0  0  0  0  0  0  0  0  0  0
    2.1842    6.1921   18.3340 O   0  0  0  0  0  0  0  0  0  0  0  0
    3.2312    7.5324   16.0390 C   0  0  0  0  0  0  0  0  0  0  0  0
    2.0660    7.8508   16.7659 O   0  0  0  0  0  0  0  0  0  0  0  0
    2.1260    8.9049   17.7301 C   0  0  0  0  0  0  0  0  0  0  0  0
    4.6584    7.3947   12.0655 C   0  0  0  0  0  0  0  0  0  0  0  0
    5.5692    6.2656   11.6824 C   0  0  0  0  0  0  0  0  0  0  0  0
    3.5548    6.9391   11.3054 C   0  0  0  0  0  0  0  0  0  0  0  0
    4.9492    8.7770   11.4235 C   0  0  0  0  0  0  0  0  0  0  0  0
    1.8230    8.8680   13.7031 C   0  0  0  0  0  0  0  0  0  0  0  0
    1.4034    7.6404   13.0808 C   0  0  0  0  0  0  0  0  0  0  0  0
    2.2794    4.7889    9.3595 N   0  0  0  0  0  0  0  0  0  0  0  0
    1.3657    1.9656    6.2794 C   0  0  0  0  0  0  0  0  0  0  0  0
   -1.7918    4.7303    7.0150 C   0  0  0  0  0  0  0  0  0  0  0  0
   -2.6717    5.4740    7.2930 C   0  0  0  0  0  0  0  0  0  0  0  0
    0.7875   -0.5082   -0.9894 H   0  0  0  0  0  0  0  0  0  0  0  0
    2.0746    0.9088   -0.7210 H   0  0  0  0  0  0  0  0  0  0  0  0
    2.1385   -0.1642    0.0549 H   0  0  0  0  0  0  0  0  0  0  0  0
    2.1524    2.5691    0.3391 H   0  0  0  0  0  0  0  0  0  0  0  0
    0.6295    3.3970    0.2496 H   0  0  0  0  0  0  0  0  0  0  0  0
    1.3321    2.8432    2.6630 H   0  0  0  0  0  0  0  0  0  0  0  0
    0.1189    2.0901    2.6425 H   0  0  0  0  0  0  0  0  0  0  0  0
   -0.0577   -1.5334    1.8606 H   0  0  0  0  0  0  0  0  0  0  0  0
    1.0038   -1.2358    2.0852 H   0  0  0  0  0  0  0  0  0  0  0  0
   -1.4961   -1.0255    0.6478 H   0  0  0  0  0  0  0  0  0  0  0  0
   -1.8843   -0.5840    2.2209 H   0  0  0  0  0  0  0  0  0  0  0  0
   -0.8154    2.2886    1.1452 H   0  0  0  0  0  0  0  0  0  0  0  0
   -1.9813    3.0866    1.4355 H   0  0  0  0  0  0  0  0  0  0  0  0
   -1.3762    2.7450    3.6952 H   0  0  0  0  0  0  0  0  0  0  0  0
   -2.8694    1.8134    3.4695 H   0  0  0  0  0  0  0  0  0  0  0  0
   -1.4243   -0.2883    3.7731 H   0  0  0  0  0  0  0  0  0  0  0  0
   -1.9560    2.4858    5.6508 H   0  0  0  0  0  0  0  0  0  0  0  0
    0.6856    4.9476    7.7638 H   0  0  0  0  0  0  0  0  0  0  0  0
    3.6641    2.7963    7.3505 H   0  0  0  0  0  0  0  0  0  0  0  0
    4.7655    7.3087    7.8957 H   0  0  0  0  0  0  0  0  0  0  0  0
    3.0600    8.0900    9.1699 H   0  0  0  0  0  0  0  0  0  0  0  0
    0.5308    7.8859    9.4169 H   0  0  0  0  0  0  0  0  0  0  0  0
    0.0904    9.9589    8.3481 H   0  0  0  0  0  0  0  0  0  0  0  0
    0.5901   12.1295    9.5055 H   0  0  0  0  0  0  0  0  0  0  0  0
    1.7728   12.1803   11.6555 H   0  0  0  0  0  0  0  0  0  0  0  0
    2.5675   12.0503   13.5968 H   0  0  0  0  0  0  0  0  0  0  0  0
    4.0994   10.1548   16.8019 H   0  0  0  0  0  0  0  0  0  0  0  0
    4.6657    9.3365   13.6743 H   0  0  0  0  0  0  0  0  0  0  0  0
    3.2853    5.3417   13.4305 H   0  0  0  0  0  0  0  0  0  0  0  0
    2.5450    4.2571   15.3903 H   0  0  0  0  0  0  0  0  0  0  0  0
    0.5081    3.3461   17.3081 H   0  0  0  0  0  0  0  0  0  0  0  0
    0.2981    4.3763   18.7622 H   0  0  0  0  0  0  0  0  0  0  0  0
   -0.1452    5.0196   17.1734 H   0  0  0  0  0  0  0  0  0  0  0  0
    3.1445    9.1174   18.0616 H   0  0  0  0  0  0  0  0  0  0  0  0
    1.6345    9.7676   17.2767 H   0  0  0  0  0  0  0  0  0  0  0  0
    1.5769    8.6768   18.6534 H   0  0  0  0  0  0  0  0  0  0  0  0
    5.0479    5.3042   11.8774 H   0  0  0  0  0  0  0  0  0  0  0  0
    5.7982    6.2609   10.6064 H   0  0  0  0  0  0  0  0  0  0  0  0
    6.4211    6.3995   12.3050 H   0  0  0  0  0  0  0  0  0  0  0  0
    2.9324    7.7394   10.9749 H   0  0  0  0  0  0  0  0  0  0  0  0
    4.0541    6.7386   10.3940 H   0  0  0  0  0  0  0  0  0  0  0  0
    3.1298    5.9719   11.5719 H   0  0  0  0  0  0  0  0  0  0  0  0
    4.1077    9.4933   11.4586 H   0  0  0  0  0  0  0  0  0  0  0  0
    5.7786    9.1906   11.9700 H   0  0  0  0  0  0  0  0  0  0  0  0
    5.1972    8.7270   10.3542 H   0  0  0  0  0  0  0  0  0  0  0  0
    2.1305    8.8987   14.7017 H   0  0  0  0  0  0  0  0  0  0  0  0
    1.6232    6.7561   13.6437 H   0  0  0  0  0  0  0  0  0  0  0  0
    2.1473    1.2278    6.1134 H   0  0  0  0  0  0  0  0  0  0  0  0
   -3.4602    6.1477    7.5689 H   0  0  0  0  0  0  0  0  0  0  0  0
  1  2  1  0  0  0  0
  1 61  1  0  0  0  0
  1 62  1  0  0  0  0
  1 63  1  0  0  0  0
  2  3  1  0  0  0  0
  3  4  1  0  0  0  0
  3 64  1  0  0  0  0
  3 65  1  0  0  0  0
  4  5  1  0  0  0  0
  4 66  1  0  0  0  0
  4 67  1  0  0  0  0
  5  6  1  0  0  0  0
  6  7  1  0  0  0  0
  6 68  1  0  0  0  0
  6 69  1  0  0  0  0
  7  8  1  0  0  0  0
  7 70  1  0  0  0  0
  7 71  1  0  0  0  0
  8  9  1  0  0  0  0
  9 10  1  0  0  0  0
  9 72  1  0  0  0  0
  9 73  1  0  0  0  0
 10 11  1  0  0  0  0
 10 74  1  0  0  0  0
 10 75  1  0  0  0  0
 11 12  1  0  0  0  0
 11 76  1  0  0  0  0
 12 13  2  0  0  0  0
 12 14  1  0  0  0  0
 14 15  2  0  0  0  0
 14 58  1  0  0  0  0
 15 16  1  0  0  0  0
 15 77  1  0  0  0  0
 16 17  2  0  0  0  0
 16 59  1  0  0  0  0
 17 18  1  0  0  0  0
 17 78  1  0  0  0  0
 18 19  1  0  0  0  0
 18 58  2  0  0  0  0
 19 20  1  0  0  0  0
 19 79  1  0  0  0  0
 20 21  2  0  0  0  0
 20 57  1  0  0  0  0
 21 22  1  0  0  0  0
 22 23  2  0  0  0  0
 22 80  1  0  0  0  0
 23 24  1  0  0  0  0
 23 81  1  0  0  0  0
 24 25  1  0  0  0  0
 24 57  2  0  0  0  0
 25 26  1  0  0  0  0
 26 27  2  0  0  0  0
 26 56  1  0  0  0  0
 27 28  1  0  0  0  0
 27 32  1  0  0  0  0
 28 29  2  0  0  0  0
 28 82  1  0  0  0  0
 29 30  1  0  0  0  0
 29 83  1  0  0  0  0
 30 31  2  0  0  0  0
 30 84  1  0  0  0  0
 31 32  1  0  0  0  0
 31 85  1  0  0  0  0
 32 33  2  0  0  0  0
 33 34  1  0  0  0  0
 33 55  1  0  0  0  0
 34 35  1  0  0  0  0
 34 86  1  0  0  0  0
 35 36  2  0  0  0  0
 35 37  1  0  0  0  0
 37 38  1  0  0  0  0
 37 87  1  0  0  0  0
 38 39  2  0  0  0  0
 38 48  1  0  0  0  0
 39 40  1  0  0  0  0
 39 88  1  0  0  0  0
 40 41  2  0  0  0  0
 40 51  1  0  0  0  0
 41 42  1  0  0  0  0
 41 89  1  0  0  0  0
 42 43  1  0  0  0  0
 42 48  2  0  0  0  0
 43 44  1  0  0  0  0
 43 90  1  0  0  0  0
 44 45  1  0  0  0  0
 44 46  2  0  0  0  0
 44 47  2  0  0  0  0
 45 91  1  0  0  0  0
 45 92  1  0  0  0  0
 45 93  1  0  0  0  0
 48 49  1  0  0  0  0
 49 50  1  0  0  0  0
 50 94  1  0  0  0  0
 50 95  1  0  0  0  0
 50 96  1  0  0  0  0
 51 52  1  0  0  0  0
 51 53  1  0  0  0  0
 51 54  1  0  0  0  0
 52 97  1  0  0  0  0
 52 98  1  0  0  0  0
 52 99  1  0  0  0  0
 53100  1  0  0  0  0
 53101  1  0  0  0  0
 53102  1  0  0  0  0
 54103  1  0  0  0  0
 54104  1  0  0  0  0
 54105  1  0  0  0  0
 55 56  2  0  0  0  0
 55106  1  0  0  0  0
 56107  1  0  0  0  0
 58108  1  0  0  0  0
 59 60  3  0  0  0  0
 60109  1  0  0  0  0
M  END
>  <DRUGBANK_ID>
DB14839

>  <COMMON_NAME>
TOP-1288

>  <CAS_NUMBER>
1630202-02-6

>  <UNII>
19ZTZ9YC4O

$$$$
