
 OpenBabel10282417183D

132137  0  0  0  0  0  0  0  0999 V2000
   14.7379  -20.8361    1.1906 C   0  0  0  0  0  0  0  0  0  0  0  0
   13.4236  -20.4174    1.3282 C   0  0  0  0  0  0  0  0  0  0  0  0
   13.0447  -19.0771    1.2052 C   0  0  0  0  0  0  0  0  0  0  0  0
   14.0523  -18.1649    0.8919 C   0  0  0  0  0  0  0  0  0  0  0  0
   15.3788  -18.5843    0.7129 C   0  0  0  0  0  0  0  0  0  0  0  0
   15.7273  -19.9421    0.7888 C   0  0  0  0  0  0  0  0  0  0  0  0
   11.7559  -18.7382    1.5304 N   0  0  0  0  0  0  0  0  0  0  0  0
   17.0944  -20.4389    0.3218 C   0  0  0  0  0  0  0  0  0  0  0  0
   17.2582  -20.0568   -1.1657 C   0  0  0  0  0  0  0  0  0  0  0  0
   11.2281  -18.8908    2.8941 C   0  0  1  0  0  0  0  0  0  0  0  0
    9.7278  -19.0324    2.5853 C   0  0  0  0  0  0  0  0  0  0  0  0
    9.4565  -18.0840    1.4287 C   0  0  0  0  0  0  0  0  0  0  0  0
   10.8218  -17.9513    0.6771 C   0  0  1  0  0  0  0  0  0  0  0  0
   11.2614  -15.9758    1.9699 C   0  0  0  0  0  0  0  0  0  0  0  0
   11.2288  -16.4988    0.6884 C   0  0  0  0  0  0  0  0  0  0  0  0
   11.7250  -15.7138   -0.3580 C   0  0  0  0  0  0  0  0  0  0  0  0
   12.2649  -14.4452   -0.0548 C   0  0  0  0  0  0  0  0  0  0  0  0
   12.3076  -14.0143    1.2793 C   0  0  0  0  0  0  0  0  0  0  0  0
   11.9555  -14.8731    2.2774 C   0  0  0  0  0  0  0  0  0  0  0  0
   12.7536  -21.9145    5.4901 C   0  0  0  0  0  0  0  0  0  0  0  0
   13.6417  -20.9467    5.0061 C   0  0  0  0  0  0  0  0  0  0  0  0
   13.1443  -19.9211    4.2120 C   0  0  0  0  0  0  0  0  0  0  0  0
   11.8031  -19.9593    3.7757 C   0  0  0  0  0  0  0  0  0  0  0  0
   10.9706  -20.9733    4.2237 C   0  0  0  0  0  0  0  0  0  0  0  0
   11.4254  -21.8938    5.1225 C   0  0  0  0  0  0  0  0  0  0  0  0
   13.2219  -22.9276    6.3213 N   0  0  0  0  0  0  0  0  0  0  0  0
   12.5542  -24.0828    6.6806 C   0  0  0  0  0  0  0  0  0  0  0  0
   13.3926  -25.1705    7.3791 C   0  0  1  0  0  0  0  0  0  0  0  0
   11.3639  -24.3300    6.4743 O   0  0  0  0  0  0  0  0  0  0  0  0
   14.7927  -24.9744    7.7720 N   0  0  0  0  0  0  0  0  0  0  0  0
   15.0909  -25.7777    8.9350 C   0  0  0  0  0  0  0  0  0  0  0  0
   13.7574  -26.2343    9.4948 C   0  0  0  0  0  0  0  0  0  0  0  0
   12.7352  -25.4104    8.7392 C   0  0  0  0  0  0  0  0  0  0  0  0
   15.7032  -24.4700    6.8882 C   0  0  0  0  0  0  0  0  0  0  0  0
   17.1511  -24.1113    7.2671 C   0  0  2  0  0  0  0  0  0  0  0  0
   15.2501  -24.0982    5.8068 O   0  0  0  0  0  0  0  0  0  0  0  0
   17.9945  -23.7039    6.0129 C   0  0  0  0  0  0  0  0  0  0  0  0
   17.3017  -22.8878    4.9017 C   0  0  0  0  0  0  0  0  0  0  0  0
   19.2027  -22.8772    6.4548 C   0  0  0  0  0  0  0  0  0  0  0  0
   17.7623  -25.2722    7.9139 N   0  0  0  0  0  0  0  0  0  0  0  0
   18.1513  -25.2679    9.2223 C   0  0  0  0  0  0  0  0  0  0  0  0
   18.4669  -26.4681    9.7686 O   0  0  0  0  0  0  0  0  0  0  0  0
   18.4467  -27.6951    9.0250 C   0  0  0  0  0  0  0  0  0  0  0  0
   18.1504  -24.2446    9.9186 O   0  0  0  0  0  0  0  0  0  0  0  0
   12.6152  -12.7121    1.6628 N   0  0  0  0  0  0  0  0  0  0  0  0
   12.6420  -12.2998    2.9933 C   0  0  0  0  0  0  0  0  0  0  0  0
   13.1265  -10.9101    3.2368 C   0  0  1  0  0  0  0  0  0  0  0  0
   12.2008  -12.8776    3.9899 O   0  0  0  0  0  0  0  0  0  0  0  0
   14.0309  -10.2645    2.3085 N   0  0  0  0  0  0  0  0  0  0  0  0
   13.9166   -8.8403    2.6339 C   0  0  0  0  0  0  0  0  0  0  0  0
   12.5600   -8.6127    3.2744 C   0  0  0  0  0  0  0  0  0  0  0  0
   11.9154   -9.9738    3.2077 C   0  0  0  0  0  0  0  0  0  0  0  0
   15.0606  -10.9963    1.7045 C   0  0  0  0  0  0  0  0  0  0  0  0
   16.0257  -10.3900    0.6589 C   0  0  2  0  0  0  0  0  0  0  0  0
   15.1181  -12.2266    1.8317 O   0  0  0  0  0  0  0  0  0  0  0  0
   16.3132   -8.9182    0.8987 C   0  0  0  0  0  0  0  0  0  0  0  0
   17.6808   -8.5157    0.3973 C   0  0  0  0  0  0  0  0  0  0  0  0
   15.2901   -8.0217    0.1905 C   0  0  0  0  0  0  0  0  0  0  0  0
   15.6318  -10.6582   -0.7368 N   0  0  0  0  0  0  0  0  0  0  0  0
   16.4771  -11.2572   -1.6354 C   0  0  0  0  0  0  0  0  0  0  0  0
   16.0726  -11.3034   -2.9328 O   0  0  0  0  0  0  0  0  0  0  0  0
   14.8484  -10.7275   -3.4065 C   0  0  0  0  0  0  0  0  0  0  0  0
   17.5791  -11.7172   -1.3210 O   0  0  0  0  0  0  0  0  0  0  0  0
   18.2226  -19.8019    1.1428 C   0  0  0  0  0  0  0  0  0  0  0  0
   17.2248  -21.9758    0.4192 C   0  0  0  0  0  0  0  0  0  0  0  0
   14.9404  -21.8797    1.4056 H   0  0  0  0  0  0  0  0  0  0  0  0
   12.6881  -21.1601    1.6282 H   0  0  0  0  0  0  0  0  0  0  0  0
   13.8510  -17.1019    0.8196 H   0  0  0  0  0  0  0  0  0  0  0  0
   16.1334  -17.8287    0.5025 H   0  0  0  0  0  0  0  0  0  0  0  0
   17.2195  -18.9721   -1.3187 H   0  0  0  0  0  0  0  0  0  0  0  0
   18.2173  -20.4070   -1.5604 H   0  0  0  0  0  0  0  0  0  0  0  0
   16.4613  -20.4988   -1.7773 H   0  0  0  0  0  0  0  0  0  0  0  0
   11.4013  -18.0050    3.5124 H   0  0  0  0  0  0  0  0  0  0  0  0
    9.5047  -20.0397    2.2173 H   0  0  0  0  0  0  0  0  0  0  0  0
    9.1034  -18.8353    3.4645 H   0  0  0  0  0  0  0  0  0  0  0  0
    8.6616  -18.4586    0.7808 H   0  0  0  0  0  0  0  0  0  0  0  0
    9.0695  -17.1393    1.8346 H   0  0  0  0  0  0  0  0  0  0  0  0
   10.7612  -18.3827   -0.3260 H   0  0  0  0  0  0  0  0  0  0  0  0
   10.8183  -16.4533    2.8227 H   0  0  0  0  0  0  0  0  0  0  0  0
   11.7076  -16.0622   -1.3886 H   0  0  0  0  0  0  0  0  0  0  0  0
   12.6745  -13.8286   -0.8505 H   0  0  0  0  0  0  0  0  0  0  0  0
   12.1190  -14.7425    3.3330 H   0  0  0  0  0  0  0  0  0  0  0  0
   14.7082  -20.9689    5.2174 H   0  0  0  0  0  0  0  0  0  0  0  0
   13.8232  -19.1437    3.8543 H   0  0  0  0  0  0  0  0  0  0  0  0
    9.9411  -21.0783    3.9130 H   0  0  0  0  0  0  0  0  0  0  0  0
   10.6995  -22.5956    5.4974 H   0  0  0  0  0  0  0  0  0  0  0  0
   14.2314  -22.9664    6.3549 H   0  0  0  0  0  0  0  0  0  0  0  0
   13.3413  -26.0726    6.7517 H   0  0  0  0  0  0  0  0  0  0  0  0
   15.6478  -25.1777    9.6499 H   0  0  0  0  0  0  0  0  0  0  0  0
   15.6646  -26.6526    8.6164 H   0  0  0  0  0  0  0  0  0  0  0  0
   13.7093  -26.0780   10.5751 H   0  0  0  0  0  0  0  0  0  0  0  0
   13.6071  -27.3016    9.2982 H   0  0  0  0  0  0  0  0  0  0  0  0
   12.5878  -24.4478    9.2484 H   0  0  0  0  0  0  0  0  0  0  0  0
   11.7623  -25.9039    8.6701 H   0  0  0  0  0  0  0  0  0  0  0  0
   17.1030  -23.2688    7.9735 H   0  0  0  0  0  0  0  0  0  0  0  0
   18.3533  -24.6290    5.5448 H   0  0  0  0  0  0  0  0  0  0  0  0
   16.8435  -21.9794    5.3061 H   0  0  0  0  0  0  0  0  0  0  0  0
   18.0085  -22.6014    4.1184 H   0  0  0  0  0  0  0  0  0  0  0  0
   16.5514  -23.4604    4.3506 H   0  0  0  0  0  0  0  0  0  0  0  0
   19.7934  -23.3994    7.2101 H   0  0  0  0  0  0  0  0  0  0  0  0
   19.8495  -22.6705    5.5958 H   0  0  0  0  0  0  0  0  0  0  0  0
   18.8808  -21.9144    6.8698 H   0  0  0  0  0  0  0  0  0  0  0  0
   17.6447  -26.1471    7.4278 H   0  0  0  0  0  0  0  0  0  0  0  0
   17.4219  -27.9526    8.7458 H   0  0  0  0  0  0  0  0  0  0  0  0
   19.0889  -27.6220    8.1443 H   0  0  0  0  0  0  0  0  0  0  0  0
   18.8263  -28.4883    9.6738 H   0  0  0  0  0  0  0  0  0  0  0  0
   13.0056  -12.1068    0.9570 H   0  0  0  0  0  0  0  0  0  0  0  0
   13.5923  -10.8960    4.2326 H   0  0  0  0  0  0  0  0  0  0  0  0
   13.8305   -8.2160    1.7781 H   0  0  0  0  0  0  0  0  0  0  0  0
   14.7431   -8.5082    3.2682 H   0  0  0  0  0  0  0  0  0  0  0  0
   11.9877   -7.8755    2.6970 H   0  0  0  0  0  0  0  0  0  0  0  0
   12.6746   -8.2300    4.2903 H   0  0  0  0  0  0  0  0  0  0  0  0
   11.3746  -10.0821    2.2543 H   0  0  0  0  0  0  0  0  0  0  0  0
   11.1958  -10.1245    4.0146 H   0  0  0  0  0  0  0  0  0  0  0  0
   16.9584  -10.9450    0.8440 H   0  0  0  0  0  0  0  0  0  0  0  0
   16.3423   -8.7673    1.9855 H   0  0  0  0  0  0  0  0  0  0  0  0
   17.7029   -8.5734   -0.6930 H   0  0  0  0  0  0  0  0  0  0  0  0
   17.8796   -7.4849    0.7039 H   0  0  0  0  0  0  0  0  0  0  0  0
   18.4596   -9.1624    0.8071 H   0  0  0  0  0  0  0  0  0  0  0  0
   14.2928   -8.4734    0.1335 H   0  0  0  0  0  0  0  0  0  0  0  0
   15.2426   -7.0512    0.6979 H   0  0  0  0  0  0  0  0  0  0  0  0
   15.5212   -7.8665   -0.8600 H   0  0  0  0  0  0  0  0  0  0  0  0
   14.7736  -10.2541   -1.0704 H   0  0  0  0  0  0  0  0  0  0  0  0
   13.9947  -11.1950   -2.9103 H   0  0  0  0  0  0  0  0  0  0  0  0
   14.8578   -9.6443   -3.2577 H   0  0  0  0  0  0  0  0  0  0  0  0
   14.7723  -10.9251   -4.4809 H   0  0  0  0  0  0  0  0  0  0  0  0
   18.1302  -20.0582    2.2040 H   0  0  0  0  0  0  0  0  0  0  0  0
   19.2007  -20.1509    0.7927 H   0  0  0  0  0  0  0  0  0  0  0  0
   18.2212  -18.7097    1.0629 H   0  0  0  0  0  0  0  0  0  0  0  0
   17.1308  -22.3175    1.4573 H   0  0  0  0  0  0  0  0  0  0  0  0
   16.4479  -22.4786   -0.1725 H   0  0  0  0  0  0  0  0  0  0  0  0
   18.1905  -22.3255    0.0438 H   0  0  0  0  0  0  0  0  0  0  0  0
  1  2  2  0  0  0  0
  1  6  1  0  0  0  0
  1 66  1  0  0  0  0
  2  3  1  0  0  0  0
  2 67  1  0  0  0  0
  3  4  2  0  0  0  0
  3  7  1  0  0  0  0
  4  5  1  0  0  0  0
  4 68  1  0  0  0  0
  5  6  2  0  0  0  0
  5 69  1  0  0  0  0
  6  8  1  0  0  0  0
  7 10  1  0  0  0  0
  7 13  1  0  0  0  0
  8  9  1  0  0  0  0
  8 64  1  0  0  0  0
  8 65  1  0  0  0  0
  9 70  1  0  0  0  0
  9 71  1  0  0  0  0
  9 72  1  0  0  0  0
 10 11  1  0  0  0  0
 10 73  1  1  0  0  0
 10 23  1  0  0  0  0
 11 12  1  0  0  0  0
 11 74  1  0  0  0  0
 11 75  1  0  0  0  0
 12 13  1  0  0  0  0
 12 76  1  0  0  0  0
 12 77  1  0  0  0  0
 13 78  1  6  0  0  0
 13 15  1  0  0  0  0
 14 15  2  0  0  0  0
 14 19  1  0  0  0  0
 14 79  1  0  0  0  0
 15 16  1  0  0  0  0
 16 17  2  0  0  0  0
 16 80  1  0  0  0  0
 17 18  1  0  0  0  0
 17 81  1  0  0  0  0
 18 19  2  0  0  0  0
 19 82  1  0  0  0  0
 20 21  2  0  0  0  0
 20 25  1  0  0  0  0
 20 26  1  0  0  0  0
 21 22  1  0  0  0  0
 21 83  1  0  0  0  0
 22 23  2  0  0  0  0
 22 84  1  0  0  0  0
 23 24  1  0  0  0  0
 24 25  2  0  0  0  0
 24 85  1  0  0  0  0
 25 86  1  0  0  0  0
 26 27  1  0  0  0  0
 26 87  1  0  0  0  0
 27 29  2  0  0  0  0
 28 27  1  0  0  0  0
 28 88  1  6  0  0  0
 30 31  1  0  0  0  0
 30 28  1  0  0  0  0
 30 34  1  0  0  0  0
 31 32  1  0  0  0  0
 31 89  1  0  0  0  0
 31 90  1  0  0  0  0
 32 33  1  0  0  0  0
 32 91  1  0  0  0  0
 32 92  1  0  0  0  0
 33 28  1  0  0  0  0
 33 93  1  0  0  0  0
 33 94  1  0  0  0  0
 34 36  2  0  0  0  0
 35 40  1  0  0  0  0
 35 95  1  1  0  0  0
 35 37  1  0  0  0  0
 35 34  1  0  0  0  0
 37 38  1  0  0  0  0
 37 39  1  0  0  0  0
 37 96  1  0  0  0  0
 38 97  1  0  0  0  0
 38 98  1  0  0  0  0
 38 99  1  0  0  0  0
 39100  1  0  0  0  0
 39101  1  0  0  0  0
 39102  1  0  0  0  0
 40 41  1  0  0  0  0
 40103  1  0  0  0  0
 41 42  1  0  0  0  0
 41 44  2  0  0  0  0
 42 43  1  0  0  0  0
 43104  1  0  0  0  0
 43105  1  0  0  0  0
 43106  1  0  0  0  0
 45 46  1  0  0  0  0
 45 18  1  0  0  0  0
 45107  1  0  0  0  0
 46 48  2  0  0  0  0
 47 46  1  0  0  0  0
 47108  1  1  0  0  0
 49 50  1  0  0  0  0
 49 47  1  0  0  0  0
 49 53  1  0  0  0  0
 50 51  1  0  0  0  0
 50109  1  0  0  0  0
 50110  1  0  0  0  0
 51 52  1  0  0  0  0
 51111  1  0  0  0  0
 51112  1  0  0  0  0
 52 47  1  0  0  0  0
 52113  1  0  0  0  0
 52114  1  0  0  0  0
 53 55  2  0  0  0  0
 54 59  1  0  0  0  0
 54115  1  1  0  0  0
 54 56  1  0  0  0  0
 54 53  1  0  0  0  0
 56 57  1  0  0  0  0
 56 58  1  0  0  0  0
 56116  1  0  0  0  0
 57117  1  0  0  0  0
 57118  1  0  0  0  0
 57119  1  0  0  0  0
 58120  1  0  0  0  0
 58121  1  0  0  0  0
 58122  1  0  0  0  0
 59 60  1  0  0  0  0
 59123  1  0  0  0  0
 60 61  1  0  0  0  0
 60 63  2  0  0  0  0
 61 62  1  0  0  0  0
 62124  1  0  0  0  0
 62125  1  0  0  0  0
 62126  1  0  0  0  0
 64127  1  0  0  0  0
 64128  1  0  0  0  0
 64129  1  0  0  0  0
 65130  1  0  0  0  0
 65131  1  0  0  0  0
 65132  1  0  0  0  0
M  END
>  <DRUGBANK_ID>
DB09296

>  <COMMON_NAME>
Ombitasvir

>  <CAS_NUMBER>
1258226-87-7

>  <UNII>
2302768XJ8

>  <SYNONYMS>
dimethyl ([(2S,5S)-1-(4-tert-butylphenyl)pyrrolidine-2,5-diyl]bis{(4,1-phenylene)carbamoyl(2S)pyrrolidine-2,1-diyl[(2S)-3-methyl-1-oxobutane-1,2-diyl]})biscarbamate; Ombitasvir

$$$$
