
 OpenBabel10282417203D

 59 62  0  0  0  0  0  0  0  0999 V2000
   -0.1097    1.3207   -1.1548 N   0  3  0  0  0  0  0  0  0  0  0  0
    1.7042    0.8211   -1.0141 C   0  0  0  0  0  0  0  0  0  0  0  0
   -1.6586    0.3628   -0.5562 C   0  0  0  0  0  0  0  0  0  0  0  0
   -1.7717   -0.9271   -0.3602 C   0  0  0  0  0  0  0  0  0  0  0  0
    1.6985   -0.9345    0.2546 C   0  0  0  0  0  0  0  0  0  0  0  0
    3.0177    2.0768   -0.7642 C   0  0  0  0  0  0  0  0  0  0  0  0
   -2.8578    1.3319    0.7491 C   0  0  0  0  0  0  0  0  0  0  0  0
    0.0212   -1.9466    0.1382 C   0  0  0  0  0  0  0  0  0  0  0  0
   -3.2314   -0.9707    0.9515 C   0  0  0  0  0  0  0  0  0  0  0  0
    2.9135   -1.3057    1.2274 C   0  0  0  0  0  0  0  0  0  0  0  0
   -0.1689    3.1920   -0.6887 C   0  0  0  0  0  0  0  0  0  0  0  0
   -4.1600    1.2187    1.2463 C   0  0  0  0  0  0  0  0  0  0  0  0
    4.2545    1.5159    0.5602 C   0  0  0  0  0  0  0  0  0  0  0  0
   -5.2789    1.9383    0.4249 N   0  0  0  0  0  0  0  0  0  0  0  0
    5.5867    1.8947    0.3104 N   0  0  0  0  0  0  0  0  0  0  0  0
   -4.3138   -0.1525    1.3578 C   0  0  0  0  0  0  0  0  0  0  0  0
    4.1463   -0.1156    1.4096 C   0  0  0  0  0  0  0  0  0  0  0  0
   -0.2268   -0.6030   -0.8896 N   0  0  0  0  0  0  0  0  0  0  0  0
   -0.8277   -0.5232    0.9686 C   0  0  0  0  0  0  0  0  0  0  0  0
    0.8202   -0.6361   -1.1572 C   0  0  0  0  0  0  0  0  0  0  0  0
    0.8581    0.6100    0.4928 C   0  0  0  0  0  0  0  0  0  0  0  0
   -0.9897    1.3750    0.6697 C   0  0  0  0  0  0  0  0  0  0  0  0
   -1.9641   -2.2428    0.6148 C   0  0  0  0  0  0  0  0  0  0  0  0
    2.1315   -1.8604   -1.5184 C   0  0  0  0  0  0  0  0  0  0  0  0
    0.2182    1.6363    1.1294 C   0  0  0  0  0  0  0  0  0  0  0  0
    2.3428    0.9146    0.7669 C   0  0  0  0  0  0  0  0  0  0  0  0
   -2.2823    1.8676   -0.9134 C   0  0  0  0  0  0  0  0  0  0  0  0
   -3.2578   -1.6641   -0.8952 C   0  0  0  0  0  0  0  0  0  0  0  0
    3.5671   -1.2258   -1.3783 C   0  0  0  0  0  0  0  0  0  0  0  0
   -4.9644   -1.9860   -0.7937 N   0  0  0  0  0  0  0  0  0  0  0  0
    5.0667   -1.7855   -0.8420 N   0  0  0  0  0  0  0  0  0  0  0  0
   -3.3814    0.2593   -1.3825 C   0  0  0  0  0  0  0  0  0  0  0  0
    3.4643    0.0415   -0.6236 C   0  0  0  0  0  0  0  0  0  0  0  0
    0.8594   -0.0650    3.4687 Cl  0  5  0  0  0  0  0  0  0  0  0  0
    2.4238    2.9547   -0.4540 H   0  0  0  0  0  0  0  0  0  0  0  0
   -2.3979    2.7107    0.7040 H   0  0  0  0  0  0  0  0  0  0  0  0
    0.0908   -3.0461    0.1114 H   0  0  0  0  0  0  0  0  0  0  0  0
   -3.6401   -2.3841    0.7430 H   0  0  0  0  0  0  0  0  0  0  0  0
    3.2727   -2.2719    0.6954 H   0  0  0  0  0  0  0  0  0  0  0  0
   -0.8036    3.5724   -1.4328 H   0  0  0  0  0  0  0  0  0  0  0  0
   -0.5788    3.4987    0.4359 H   0  0  0  0  0  0  0  0  0  0  0  0
    0.8266    3.5842   -0.3462 H   0  0  0  0  0  0  0  0  0  0  0  0
   -4.8965    2.7387   -0.1136 H   0  0  0  0  0  0  0  0  0  0  0  0
   -5.8537    1.2027   -0.0338 H   0  0  0  0  0  0  0  0  0  0  0  0
    5.1794    2.6998   -0.1656 H   0  0  0  0  0  0  0  0  0  0  0  0
    5.9116    1.0351   -0.1482 H   0  0  0  0  0  0  0  0  0  0  0  0
   -4.6505   -0.5230    0.4224 H   0  0  0  0  0  0  0  0  0  0  0  0
    4.5359   -0.8534    0.7266 H   0  0  0  0  0  0  0  0  0  0  0  0
   -1.6760   -3.1970    0.0503 H   0  0  0  0  0  0  0  0  0  0  0  0
    2.0286   -2.8505   -0.5901 H   0  0  0  0  0  0  0  0  0  0  0  0
    0.7573    2.1595    0.3835 H   0  0  0  0  0  0  0  0  0  0  0  0
    2.6524    2.1644    1.1779 H   0  0  0  0  0  0  0  0  0  0  0  0
   -3.1038    2.6321   -0.8613 H   0  0  0  0  0  0  0  0  0  0  0  0
   -5.0066   -2.7161   -0.0916 H   0  0  0  0  0  0  0  0  0  0  0  0
   -5.6299   -1.2749   -0.3672 H   0  0  0  0  0  0  0  0  0  0  0  0
    4.9689   -2.4701   -0.0699 H   0  0  0  0  0  0  0  0  0  0  0  0
    5.6690   -1.0125   -0.3172 H   0  0  0  0  0  0  0  0  0  0  0  0
   -4.4085    0.5538   -0.9933 H   0  0  0  0  0  0  0  0  0  0  0  0
    4.2450    0.6918   -1.2200 H   0  0  0  0  0  0  0  0  0  0  0  0
  2  1  1  0  0  0  0
  3  1  2  0  0  0  0
  4  3  1  0  0  0  0
  5  8  1  0  0  0  0
  5  2  2  0  0  0  0
  6  2  1  0  0  0  0
  6 35  1  0  0  0  0
  7  3  1  0  0  0  0
  7 36  1  0  0  0  0
  8  4  2  0  0  0  0
  8 37  1  0  0  0  0
  9 16  2  0  0  0  0
  9  4  1  0  0  0  0
  9 38  1  0  0  0  0
 10 17  2  0  0  0  0
 10  5  1  0  0  0  0
 10 39  1  0  0  0  0
 11  1  1  0  0  0  0
 11 40  1  0  0  0  0
 11 41  1  0  0  0  0
 11 42  1  0  0  0  0
 12  7  2  0  0  0  0
 13  6  2  0  0  0  0
 14 12  1  0  0  0  0
 14 43  1  0  0  0  0
 14 44  1  0  0  0  0
 15 13  1  0  0  0  0
 15 45  1  0  0  0  0
 15 46  1  0  0  0  0
 16 12  1  0  0  0  0
 16 47  1  0  0  0  0
 17 13  1  0  0  0  0
 17 48  1  0  0  0  0
 19 18  1  0  0  0  0
 20 18  2  0  0  0  0
 21 20  1  0  0  0  0
 22 19  2  0  0  0  0
 22 25  1  0  0  0  0
 23 19  1  0  0  0  0
 23 49  1  0  0  0  0
 24 20  1  0  0  0  0
 24 50  1  0  0  0  0
 25 21  2  0  0  0  0
 25 51  1  0  0  0  0
 26 21  1  0  0  0  0
 26 33  2  0  0  0  0
 26 52  1  0  0  0  0
 27 22  1  0  0  0  0
 27 32  2  0  0  0  0
 27 53  1  0  0  0  0
 28 23  2  0  0  0  0
 29 24  2  0  0  0  0
 30 28  1  0  0  0  0
 30 54  1  0  0  0  0
 30 55  1  0  0  0  0
 31 29  1  0  0  0  0
 31 56  1  0  0  0  0
 31 57  1  0  0  0  0
 32 28  1  0  0  0  0
 32 58  1  0  0  0  0
 33 29  1  0  0  0  0
 33 59  1  0  0  0  0
M  CHG  2   1   1  34  -1
M  END
>  <DRUGBANK_ID>
DB13373

>  <COMMON_NAME>
Acriflavine

>  <CAS_NUMBER>
65589-70-0

>  <UNII>
1T3A50395T

>  <SYNONYMS>
Acriflavinium chloride

$$$$
