
 OpenBabel10282417193D

 24 24  0  0  1  0  0  0  0  0999 V2000
    2.3679    0.1166    0.3391 C   0  0  0  0  0  0  0  0  0  0  0  0
    1.6756    1.2917    0.0920 C   0  0  0  0  0  0  0  0  0  0  0  0
    0.2845    1.2644    0.0173 C   0  0  0  0  0  0  0  0  0  0  0  0
   -0.4071    0.0458    0.0629 C   0  0  0  0  0  0  0  0  0  0  0  0
    0.2864   -1.1620    0.2342 C   0  0  0  0  0  0  0  0  0  0  0  0
    1.6675   -1.0786    0.4992 C   0  0  0  0  0  0  0  0  0  0  0  0
   -0.3499   -2.5244    0.0072 C   0  0  1  0  0  0  0  0  0  0  0  0
    0.0859   -3.2350   -1.3118 C   0  0  0  0  0  0  0  0  0  0  0  0
    1.4946   -3.5793   -1.3251 O   0  0  0  0  0  0  0  0  0  0  0  0
    2.3190   -2.6313   -1.8455 C   0  0  0  0  0  0  0  0  0  0  0  0
    1.9863   -1.6184   -2.4157 O   0  0  0  0  0  0  0  0  0  0  0  0
    3.6066   -2.8993   -1.4988 N   0  0  0  0  0  0  0  0  0  0  0  0
   -0.0864   -3.3710    1.1315 O   0  0  0  0  0  0  0  0  0  0  0  0
   -2.1253    0.1129   -0.1063 Cl  0  0  0  0  0  0  0  0  0  0  0  0
    3.4547    0.1108    0.3513 H   0  0  0  0  0  0  0  0  0  0  0  0
    2.2170    2.2232   -0.0448 H   0  0  0  0  0  0  0  0  0  0  0  0
   -0.2556    2.1971   -0.1209 H   0  0  0  0  0  0  0  0  0  0  0  0
    2.2431   -1.9777    0.7023 H   0  0  0  0  0  0  0  0  0  0  0  0
   -1.4391   -2.4354   -0.0323 H   0  0  0  0  0  0  0  0  0  0  0  0
   -0.4426   -4.1945   -1.3766 H   0  0  0  0  0  0  0  0  0  0  0  0
   -0.1917   -2.6562   -2.2009 H   0  0  0  0  0  0  0  0  0  0  0  0
    3.8712   -3.7815   -1.0945 H   0  0  0  0  0  0  0  0  0  0  0  0
    4.2705   -2.1389   -1.5453 H   0  0  0  0  0  0  0  0  0  0  0  0
    0.8552   -3.6037    1.0955 H   0  0  0  0  0  0  0  0  0  0  0  0
  1  2  2  0  0  0  0
  1  6  1  0  0  0  0
  1 15  1  0  0  0  0
  2  3  1  0  0  0  0
  2 16  1  0  0  0  0
  3  4  2  0  0  0  0
  3 17  1  0  0  0  0
  4  5  1  0  0  0  0
  4 14  1  0  0  0  0
  5  6  2  0  0  0  0
  5  7  1  0  0  0  0
  6 18  1  0  0  0  0
  7  8  1  0  0  0  0
  7 13  1  0  0  0  0
  7 19  1  6  0  0  0
  8  9  1  0  0  0  0
  8 20  1  0  0  0  0
  8 21  1  0  0  0  0
  9 10  1  0  0  0  0
 10 11  2  0  0  0  0
 10 12  1  0  0  0  0
 12 22  1  0  0  0  0
 12 23  1  0  0  0  0
 13 24  1  0  0  0  0
M  END
>  <DRUGBANK_ID>
DB12338

>  <COMMON_NAME>
Carisbamate

>  <CAS_NUMBER>
194085-75-1

>  <UNII>
P7725I9V3Z

>  <SYNONYMS>
Carisbamate

$$$$
