
 OpenBabel10282417143D

 70 72  0  0  0  0  0  0  0  0999 V2000
    1.0976    0.0217    0.0020 P   0  0  0  0  0  0  0  0  0  0  0  0
    1.0739   -1.6265   -0.6219 C   0  0  0  0  0  0  0  0  0  0  0  0
    2.2521   -2.3701   -0.4479 O   0  0  0  0  0  0  0  0  0  0  0  0
    3.6030   -1.8810   -0.7802 C   0  0  0  0  0  0  0  0  0  0  0  0
    4.0692   -0.4056   -1.4617 C   0  0  0  0  0  0  0  0  0  0  0  0
    3.7583   -1.6095   -2.2373 C   0  0  0  0  0  0  0  0  0  0  0  0
    4.5370   -2.6792    0.1037 C   0  0  0  0  0  0  0  0  0  0  0  0
    2.9900   -3.5364    3.8050 N   0  0  0  0  0  0  0  0  0  0  0  0
    2.8748   -3.6114    2.1624 C   0  0  0  0  0  0  0  0  0  0  0  0
    4.2120   -2.6082    1.5692 N   0  0  0  0  0  0  0  0  0  0  0  0
    5.0981   -1.9323    2.9048 C   0  0  0  0  0  0  0  0  0  0  0  0
    6.2032   -1.1165    2.9373 N   0  0  0  0  0  0  0  0  0  0  0  0
    6.4164   -0.6798    4.2178 C   0  0  0  0  0  0  0  0  0  0  0  0
    5.5827   -0.4900    5.2874 N   0  0  0  0  0  0  0  0  0  0  0  0
    4.4051   -1.1771    5.3574 C   0  0  0  0  0  0  0  0  0  0  0  0
    4.2918   -2.3533    4.3479 C   0  0  0  0  0  0  0  0  0  0  0  0
    7.7210   -0.4028    4.4746 N   0  0  0  0  0  0  0  0  0  0  0  0
    2.4669    0.9298    2.0595 C   0  0  0  0  0  0  0  0  0  0  0  0
    1.1959    0.7267    1.4442 O   0  0  0  0  0  0  0  0  0  0  0  0
   -1.1953    0.9289    0.9566 C   0  0  0  0  0  0  0  0  0  0  0  0
   -0.6324    0.0217    0.0020 O   0  0  0  0  0  0  0  0  0  0  0  0
    2.3692   -1.1011    3.0283 C   0  0  0  0  0  0  0  0  0  0  0  0
    1.2935   -1.5037    3.9301 C   0  0  0  0  0  0  0  0  0  0  0  0
    0.3827   -2.5612    3.3302 C   0  0  0  0  0  0  0  0  0  0  0  0
    3.1784   -1.9689    2.9442 O   0  0  0  0  0  0  0  0  0  0  0  0
    3.0239   -0.2789    2.2982 O   0  0  0  0  0  0  0  0  0  0  0  0
    1.3968   -1.9339    5.3795 C   0  0  0  0  0  0  0  0  0  0  0  0
    0.8501   -0.1184    4.0255 C   0  0  0  0  0  0  0  0  0  0  0  0
   -1.6111   -0.8128    2.6903 C   0  0  0  0  0  0  0  0  0  0  0  0
   -2.1099   -1.9359    1.7365 C   0  0  0  0  0  0  0  0  0  0  0  0
   -1.3885   -3.2747    1.3776 C   0  0  0  0  0  0  0  0  0  0  0  0
   -1.6462   -0.9856    3.9152 O   0  0  0  0  0  0  0  0  0  0  0  0
   -1.2386    0.4088    2.2798 O   0  0  0  0  0  0  0  0  0  0  0  0
   -3.3116   -2.3358    2.5617 C   0  0  0  0  0  0  0  0  0  0  0  0
   -2.6191   -1.3942    0.4356 C   0  0  0  0  0  0  0  0  0  0  0  0
    2.6460    0.0217    0.0020 O   0  0  0  0  0  0  0  0  0  0  0  0
    0.2357   -2.1573   -0.2368 H   0  0  0  0  0  0  0  0  0  0  0  0
    0.8978   -1.6693   -1.6946 H   0  0  0  0  0  0  0  0  0  0  0  0
    3.4356    0.4759   -1.7168 H   0  0  0  0  0  0  0  0  0  0  0  0
    4.8072    0.0280   -0.7739 H   0  0  0  0  0  0  0  0  0  0  0  0
    4.5877   -1.9588   -2.8003 H   0  0  0  0  0  0  0  0  0  0  0  0
    2.8009   -1.5681   -2.7546 H   0  0  0  0  0  0  0  0  0  0  0  0
    4.2756   -3.7433    0.0530 H   0  0  0  0  0  0  0  0  0  0  0  0
    5.5914   -2.4585    0.1416 H   0  0  0  0  0  0  0  0  0  0  0  0
    1.8634   -3.2457    1.5433 H   0  0  0  0  0  0  0  0  0  0  0  0
    3.7548   -0.7524    6.1714 H   0  0  0  0  0  0  0  0  0  0  0  0
    8.3292   -0.6042    3.7031 H   0  0  0  0  0  0  0  0  0  0  0  0
    7.9534   -0.0477    5.3805 H   0  0  0  0  0  0  0  0  0  0  0  0
    3.1107    1.5743    1.4602 H   0  0  0  0  0  0  0  0  0  0  0  0
    2.4784    1.4211    3.0189 H   0  0  0  0  0  0  0  0  0  0  0  0
   -0.6693    1.8936    0.9381 H   0  0  0  0  0  0  0  0  0  0  0  0
   -2.2260    1.2077    0.7663 H   0  0  0  0  0  0  0  0  0  0  0  0
    0.6989   -3.6053    3.2137 H   0  0  0  0  0  0  0  0  0  0  0  0
   -0.5364   -2.7705    3.8902 H   0  0  0  0  0  0  0  0  0  0  0  0
    0.2372   -2.1714    2.3331 H   0  0  0  0  0  0  0  0  0  0  0  0
    2.0526   -1.2284    5.8360 H   0  0  0  0  0  0  0  0  0  0  0  0
    0.4334   -1.8422    5.8926 H   0  0  0  0  0  0  0  0  0  0  0  0
    1.7440   -2.9469    5.5965 H   0  0  0  0  0  0  0  0  0  0  0  0
    1.6497    0.5382    4.3511 H   0  0  0  0  0  0  0  0  0  0  0  0
    0.5979    0.0361    3.0180 H   0  0  0  0  0  0  0  0  0  0  0  0
   -0.0044    0.1703    4.5887 H   0  0  0  0  0  0  0  0  0  0  0  0
   -1.2015   -3.9374    2.2228 H   0  0  0  0  0  0  0  0  0  0  0  0
   -1.9571   -3.8562    0.6513 H   0  0  0  0  0  0  0  0  0  0  0  0
   -0.4169   -3.1850    0.9123 H   0  0  0  0  0  0  0  0  0  0  0  0
   -3.8434   -1.4275    2.8735 H   0  0  0  0  0  0  0  0  0  0  0  0
   -3.9488   -2.9661    1.9596 H   0  0  0  0  0  0  0  0  0  0  0  0
   -2.9860   -2.8711    3.4641 H   0  0  0  0  0  0  0  0  0  0  0  0
   -3.0917   -0.4306    0.6047 H   0  0  0  0  0  0  0  0  0  0  0  0
   -1.8013   -1.4119   -0.2711 H   0  0  0  0  0  0  0  0  0  0  0  0
   -3.3162   -2.0052   -0.1085 H   0  0  0  0  0  0  0  0  0  0  0  0
  1  2  1  0  0  0  0
  1 19  1  0  0  0  0
  1 21  1  0  0  0  0
  1 36  2  0  0  0  0
  2  3  1  0  0  0  0
  2 37  1  0  0  0  0
  2 38  1  0  0  0  0
  3  4  1  0  0  0  0
  4  5  1  0  0  0  0
  4  6  1  0  0  0  0
  4  7  1  0  0  0  0
  5  6  1  0  0  0  0
  5 39  1  0  0  0  0
  5 40  1  0  0  0  0
  6 41  1  0  0  0  0
  6 42  1  0  0  0  0
  7 10  1  0  0  0  0
  7 43  1  0  0  0  0
  7 44  1  0  0  0  0
  8  9  2  0  0  0  0
  8 16  1  0  0  0  0
  9 10  1  0  0  0  0
  9 45  1  0  0  0  0
 10 11  1  0  0  0  0
 11 12  2  0  0  0  0
 11 16  1  0  0  0  0
 12 13  1  0  0  0  0
 13 14  2  0  0  0  0
 13 17  1  0  0  0  0
 14 15  1  0  0  0  0
 15 16  2  0  0  0  0
 15 46  1  0  0  0  0
 17 47  1  0  0  0  0
 17 48  1  0  0  0  0
 18 19  1  0  0  0  0
 18 26  1  0  0  0  0
 18 49  1  0  0  0  0
 18 50  1  0  0  0  0
 20 21  1  0  0  0  0
 20 33  1  0  0  0  0
 20 51  1  0  0  0  0
 20 52  1  0  0  0  0
 22 23  1  0  0  0  0
 22 25  2  0  0  0  0
 22 26  1  0  0  0  0
 23 24  1  0  0  0  0
 23 27  1  0  0  0  0
 23 28  1  0  0  0  0
 24 53  1  0  0  0  0
 24 54  1  0  0  0  0
 24 55  1  0  0  0  0
 27 56  1  0  0  0  0
 27 57  1  0  0  0  0
 27 58  1  0  0  0  0
 28 59  1  0  0  0  0
 28 60  1  0  0  0  0
 28 61  1  0  0  0  0
 29 30  1  0  0  0  0
 29 32  2  0  0  0  0
 29 33  1  0  0  0  0
 30 31  1  0  0  0  0
 30 34  1  0  0  0  0
 30 35  1  0  0  0  0
 31 62  1  0  0  0  0
 31 63  1  0  0  0  0
 31 64  1  0  0  0  0
 34 65  1  0  0  0  0
 34 66  1  0  0  0  0
 34 67  1  0  0  0  0
 35 68  1  0  0  0  0
 35 69  1  0  0  0  0
 35 70  1  0  0  0  0
M  END
>  <DRUGBANK_ID>
DB05020

>  <COMMON_NAME>
Besifovir dipivoxil

>  <CAS_NUMBER>
441785-26-8

>  <UNII>
S9I9P4J8IU

$$$$
