
 OpenBabel10282417133D

 26 25  0  0  0  0  0  0  0  0999 V2000
    0.9212    0.2333   -0.0214 C   0  0  0  0  0  0  0  0  0  0  0  0
    0.0723   -0.3254   -1.1403 C   0  0  0  0  0  0  0  0  0  0  0  0
   -0.9977   -0.8926   -0.9073 O   0  0  0  0  0  0  0  0  0  0  0  0
    0.7702   -0.4125   -2.3189 O   0  0  0  0  0  0  0  0  0  0  0  0
    0.3621   -1.3492   -3.3678 C   0  0  0  0  0  0  0  0  0  0  0  0
    0.9132   -2.8208   -3.2382 C   0  0  0  0  0  0  0  0  0  0  0  0
    0.4700   -3.5560   -1.9552 N   0  3  0  0  0  0  0  0  0  0  0  0
   -1.0706   -3.5629   -1.9138 C   0  0  0  0  0  0  0  0  0  0  0  0
    0.9178   -5.0069   -1.8882 C   0  0  0  0  0  0  0  0  0  0  0  0
    1.1851   -2.9648   -0.7585 C   0  0  0  0  0  0  0  0  0  0  0  0
    0.6439   -0.2797    0.9126 H   0  0  0  0  0  0  0  0  0  0  0  0
    0.7616    1.3008    0.0831 H   0  0  0  0  0  0  0  0  0  0  0  0
    1.9841    0.0001   -0.1649 H   0  0  0  0  0  0  0  0  0  0  0  0
   -0.7230   -1.3251   -3.5064 H   0  0  0  0  0  0  0  0  0  0  0  0
    0.7776   -0.9495   -4.3017 H   0  0  0  0  0  0  0  0  0  0  0  0
    0.5589   -3.4309   -4.0808 H   0  0  0  0  0  0  0  0  0  0  0  0
    2.0093   -2.8346   -3.2433 H   0  0  0  0  0  0  0  0  0  0  0  0
   -1.4208   -4.2108   -2.7265 H   0  0  0  0  0  0  0  0  0  0  0  0
   -1.4111   -3.9204   -0.9424 H   0  0  0  0  0  0  0  0  0  0  0  0
   -1.4847   -2.5821   -2.1230 H   0  0  0  0  0  0  0  0  0  0  0  0
    2.0118   -5.0288   -1.9060 H   0  0  0  0  0  0  0  0  0  0  0  0
    0.5585   -5.4009   -0.9277 H   0  0  0  0  0  0  0  0  0  0  0  0
    0.4987   -5.5618   -2.7240 H   0  0  0  0  0  0  0  0  0  0  0  0
    2.2177   -3.3253   -0.7095 H   0  0  0  0  0  0  0  0  0  0  0  0
    1.3761   -1.9396   -0.9433 H   0  0  0  0  0  0  0  0  0  0  0  0
    0.6189   -3.1315    0.1565 H   0  0  0  0  0  0  0  0  0  0  0  0
  1  2  1  0  0  0  0
  1 11  1  0  0  0  0
  1 12  1  0  0  0  0
  1 13  1  0  0  0  0
  2  3  2  0  0  0  0
  2  4  1  0  0  0  0
  4  5  1  0  0  0  0
  5  6  1  0  0  0  0
  5 14  1  0  0  0  0
  5 15  1  0  0  0  0
  6  7  1  0  0  0  0
  6 16  1  0  0  0  0
  6 17  1  0  0  0  0
  7  8  1  0  0  0  0
  7  9  1  0  0  0  0
  7 10  1  0  0  0  0
  8 18  1  0  0  0  0
  8 19  1  0  0  0  0
  8 20  1  0  0  0  0
  9 21  1  0  0  0  0
  9 22  1  0  0  0  0
  9 23  1  0  0  0  0
 10 24  1  0  0  0  0
 10 25  1  0  0  0  0
 10 26  1  0  0  0  0
M  CHG  1   7   1
M  END
>  <DRUGBANK_ID>
DB03128

>  <SECONDARY_ACCESSION_NUMBERS>
EXPT00412

>  <COMMON_NAME>
Acetylcholine

>  <CAS_NUMBER>
51-84-3

>  <UNII>
N9YNS0M02X

>  <SYNONYMS>
Acetylcholine; ACh; Choline acetate; O-Acetylcholine

$$$$
