
 OpenBabel10282417203D

 20 21  0  0  0  0  0  0  0  0999 V2000
    1.2916    0.7430    0.0168 C   0  0  0  0  0  0  0  0  0  0  0  0
    1.3968   -0.6346    0.0530 N   0  0  0  0  0  0  0  0  0  0  0  0
    0.2033   -1.1804   -0.0312 C   0  0  0  0  0  0  0  0  0  0  0  0
   -1.1082   -0.0736   -0.1430 S   0  0  0  0  0  0  0  0  0  0  0  0
    0.0044    1.2198   -0.0204 C   0  0  0  0  0  0  0  0  0  0  0  0
   -0.0401   -2.5354   -0.0352 N   0  0  0  0  0  0  0  0  0  0  0  0
   -0.8732   -3.3540   -0.8863 C   0  0  0  0  0  0  0  0  0  0  0  0
   -0.3237   -4.7613   -0.6417 C   0  0  0  0  0  0  0  0  0  0  0  0
    0.1894   -4.6583    0.6922 N   0  0  0  0  0  0  0  0  0  0  0  0
    0.5106   -3.3313    0.9830 C   0  0  0  0  0  0  0  0  0  0  0  0
    1.0993   -2.9938    1.9998 O   0  0  0  0  0  0  0  0  0  0  0  0
   -0.3791    2.6001   -0.0009 N   0  3  0  0  0  0  0  0  0  0  0  0
   -1.5842    2.8770    0.0067 O   0  0  0  0  0  0  0  0  0  0  0  0
    0.5450    3.4267    0.0061 O   0  5  0  0  0  0  0  0  0  0  0  0
    2.1924    1.3468    0.0326 H   0  0  0  0  0  0  0  0  0  0  0  0
   -0.8089   -3.0636   -1.9386 H   0  0  0  0  0  0  0  0  0  0  0  0
   -1.9087   -3.2963   -0.5354 H   0  0  0  0  0  0  0  0  0  0  0  0
    0.5207   -4.9922   -1.3043 H   0  0  0  0  0  0  0  0  0  0  0  0
   -1.0658   -5.5597   -0.7147 H   0  0  0  0  0  0  0  0  0  0  0  0
    0.4680   -5.4127    1.3070 H   0  0  0  0  0  0  0  0  0  0  0  0
  1  2  1  0  0  0  0
  1 15  1  0  0  0  0
  2  3  2  0  0  0  0
  3  4  1  0  0  0  0
  3  6  1  0  0  0  0
  4  5  1  0  0  0  0
  5  1  2  0  0  0  0
  5 12  1  0  0  0  0
  6  7  1  0  0  0  0
  7  8  1  0  0  0  0
  7 16  1  0  0  0  0
  7 17  1  0  0  0  0
  8  9  1  0  0  0  0
  8 18  1  0  0  0  0
  8 19  1  0  0  0  0
  9 10  1  0  0  0  0
  9 20  1  0  0  0  0
 10  6  1  0  0  0  0
 10 11  2  0  0  0  0
 12 13  2  0  0  0  0
 12 14  1  0  0  0  0
M  CHG  2  12   1  14  -1
M  END
>  <DRUGBANK_ID>
DB13661

>  <COMMON_NAME>
Niridazole

>  <CAS_NUMBER>
61-57-4

>  <UNII>
N116U8Y5QQ

>  <SYNONYMS>
Niridazol; Niridazole; Niridazolum

$$$$
