
 OpenBabel10282417193D

253263  0  0  1  0  0  0  0  0999 V2000
   -4.7754    5.6658   -1.1375 C   0  0  0  0  0  0  0  0  0  0  0  0
   -5.6755    4.7509   -0.6538 C   0  0  0  0  0  0  0  0  0  0  0  0
   -6.2394    4.8083    0.5847 O   0  0  0  0  0  0  0  0  0  0  0  0
   -6.0625    3.7128   -1.4618 C   0  0  0  0  0  0  0  0  0  0  0  0
   -7.2417    2.8654   -0.9011 C   0  0  0  0  0  0  0  0  0  0  0  0
   -7.1655    1.5563   -1.5752 C   0  0  1  0  0  0  0  0  0  0  0  0
   -6.9415    1.8220   -3.1076 C   0  0  0  0  0  0  0  0  0  0  0  0
   -5.5337    2.2117   -3.4790 C   0  0  2  0  0  0  0  0  0  0  0  0
   -4.3834    1.3235   -3.4082 O   0  0  0  0  0  0  0  0  0  0  0  0
   -3.9125    0.7577   -2.1288 C   0  0  1  0  0  0  0  0  0  0  0  0
   -3.7755    1.6663   -1.5473 H   0  0  0  0  0  0  0  0  0  0  0  0
   -4.8554   -0.2729   -1.4979 C   0  0  0  0  0  0  0  0  0  0  0  0
   -4.6737   -0.7719   -0.0968 C   0  0  2  0  0  0  0  0  0  0  0  0
   -4.8272    0.2090    0.9733 N   0  0  0  0  0  0  0  0  0  0  0  0
   -3.3724   -1.5100   -0.2883 C   0  0  2  0  0  0  0  0  0  0  0  0
   -2.9895   -2.0538    0.9621 O   0  0  0  0  0  0  0  0  0  0  0  0
   -2.3225   -0.5285   -0.9015 C   0  0  2  0  0  0  0  0  0  0  0  0
   -2.0599    0.6512    0.0323 C   0  0  0  0  0  0  0  0  0  0  0  0
   -2.6665    0.0410   -2.2016 O   0  0  0  0  0  0  0  0  0  0  0  0
   -5.3532    3.4552   -2.6910 C   0  0  0  0  0  0  0  0  0  0  0  0
   -4.4639    4.3618   -3.1863 C   0  0  0  0  0  0  0  0  0  0  0  0
   -3.9112    4.1994   -4.4337 O   0  0  0  0  0  0  0  0  0  0  0  0
   -4.2191    5.4841   -2.3939 C   0  0  0  0  0  0  0  0  0  0  0  0
   -3.3683    6.5021   -2.9195 C   0  0  0  0  0  0  0  0  0  0  0  0
   -3.0501    7.7487   -2.2202 C   0  0  0  0  0  0  0  0  0  0  0  0
   -2.2246    8.7618   -2.7413 C   0  0  0  0  0  0  0  0  0  0  0  0
   -1.5447    8.8678   -3.9346 O   0  0  0  0  0  0  0  0  0  0  0  0
   -1.6274    7.8210   -4.8869 C   0  0  0  0  0  0  0  0  0  0  0  0
   -2.0144    9.8996   -1.9429 C   0  0  0  0  0  0  0  0  0  0  0  0
   -2.5941   10.0448   -0.6791 C   0  0  0  0  0  0  0  0  0  0  0  0
   -3.4062    9.0451   -0.1756 C   0  0  0  0  0  0  0  0  0  0  0  0
   -3.6268    7.9042   -0.9439 C   0  0  0  0  0  0  0  0  0  0  0  0
   -4.4908    6.8664   -0.3656 C   0  0  0  0  0  0  0  0  0  0  0  0
   -5.0011    6.9940    0.7441 O   0  0  0  0  0  0  0  0  0  0  0  0
   -2.9543    6.2127   -4.0198 O   0  0  0  0  0  0  0  0  0  0  0  0
   -6.0396    1.3666   -0.6989 O   0  0  0  0  0  0  0  0  0  0  0  0
   -7.9429    0.2484   -1.3093 C   0  0  0  0  0  0  0  0  0  0  0  0
   -8.8485   -0.2603   -2.4019 C   0  0  0  0  0  0  0  0  0  0  0  0
   -8.4938   -1.4934   -3.0959 O   0  0  0  0  0  0  0  0  0  0  0  0
   -7.4530   -1.8631   -3.9047 C   0  0  0  0  0  0  0  0  0  0  0  0
   -6.3031   -0.9442   -4.0767 C   0  0  0  0  0  0  0  0  0  0  0  0
   -4.8872   -1.4463   -3.8019 C   0  0  0  0  0  0  0  0  0  0  0  0
   -4.2778   -2.4751   -4.6237 C   0  0  0  0  0  0  0  0  0  0  0  0
   -4.2164   -1.7866   -5.9236 C   0  0  0  0  0  0  0  0  0  0  0  0
   -2.9463   -1.5811   -6.3367 N   0  0  0  0  0  0  0  0  0  0  0  0
   -5.1875   -1.3024   -6.4934 O   0  0  0  0  0  0  0  0  0  0  0  0
   -7.4447   -2.9523   -4.4650 O   0  0  0  0  0  0  0  0  0  0  0  0
   -7.7017   -0.4631   -0.3269 O   0  0  0  0  0  0  0  0  0  0  0  0
   -2.7838   -1.0135   -7.6319 C   0  0  0  0  0  0  0  0  0  0  0  0
   -0.4567   -0.3453   -7.0828 C   0  0  0  0  0  0  0  0  0  0  0  0
    0.0377   -1.4922   -7.9401 C   0  0  0  0  0  0  0  0  0  0  0  0
    0.3285   -1.0656   -9.4068 C   0  0  1  0  0  0  0  0  0  0  0  0
    1.3725    0.0011   -9.4353 N   0  0  0  0  0  0  0  0  0  0  0  0
    8.1481   -1.0960  -10.6281 H   0  0  0  0  0  0  0  0  0  0  0  0
    6.7450    2.9746   -9.5685 H   0  0  0  0  0  0  0  0  0  0  0  0
   -1.6008    2.7170  -14.7263 H   0  0  0  0  0  0  0  0  0  0  0  0
   12.6510   -4.4483  -15.8897 N   0  0  0  0  0  0  0  0  0  0  0  0
   11.4400   -1.0855  -15.8930 O   0  0  0  0  0  0  0  0  0  0  0  0
   11.2623   -1.4320  -14.7201 C   0  0  0  0  0  0  0  0  0  0  0  0
   13.0732   -1.3023  -12.6392 N   0  0  0  0  0  0  0  0  0  0  0  0
   12.4861   -2.1045  -13.8688 C   0  0  1  0  0  0  0  0  0  0  0  0
   12.2054   -3.6531  -13.6022 C   0  0  0  0  0  0  0  0  0  0  0  0
   11.9142   -4.4640  -14.7635 C   0  0  0  0  0  0  0  0  0  0  0  0
   10.9319   -5.3998  -14.9489 C   0  0  0  0  0  0  0  0  0  0  0  0
   12.1415   -5.4316  -16.6764 C   0  0  0  0  0  0  0  0  0  0  0  0
   11.0969   -6.0198  -16.1373 N   0  0  0  0  0  0  0  0  0  0  0  0
    9.9916   -1.2672  -14.2680 N   0  0  0  0  0  0  0  0  0  0  0  0
    9.4891   -1.4483  -12.9524 C   0  0  2  0  0  0  0  0  0  0  0  0
    9.6438    0.8184  -12.2358 O   0  0  0  0  0  0  0  0  0  0  0  0
    8.8589   -0.1172  -12.4100 C   0  0  0  0  0  0  0  0  0  0  0  0
   10.7197   -1.7702  -11.8829 C   0  0  0  0  0  0  0  0  0  0  0  0
    9.3859   -2.6464  -10.7652 C   0  0  0  0  0  0  0  0  0  0  0  0
   10.6822   -2.5872  -10.4715 C   0  0  0  0  0  0  0  0  0  0  0  0
    9.0157   -1.4693  -10.3433 N   0  0  0  0  0  0  0  0  0  0  0  0
   10.4283   -2.4147   -9.0536 C   0  0  0  0  0  0  0  0  0  0  0  0
    9.6577   -1.3114   -9.1993 C   0  0  0  0  0  0  0  0  0  0  0  0
    9.1718   -0.6631   -8.2651 C   0  0  0  0  0  0  0  0  0  0  0  0
    9.5897   -0.6224   -6.9748 C   0  0  0  0  0  0  0  0  0  0  0  0
   10.2855   -1.7281   -6.6408 C   0  0  0  0  0  0  0  0  0  0  0  0
   10.6743   -2.6805   -7.6486 C   0  0  0  0  0  0  0  0  0  0  0  0
    7.5867   -0.1951  -11.7737 N   0  0  0  0  0  0  0  0  0  0  0  0
    7.1532    0.7126  -10.6230 C   0  0  2  0  0  0  0  0  0  0  0  0
    5.6939    1.4300  -12.1513 O   0  0  0  0  0  0  0  0  0  0  0  0
    5.7938    1.1099  -10.9708 C   0  0  0  0  0  0  0  0  0  0  0  0
    8.0993    1.8900  -10.4593 C   0  0  0  0  0  0  0  0  0  0  0  0
    7.7124    2.8994   -9.5491 O   0  0  0  0  0  0  0  0  0  0  0  0
    4.8019    1.0576   -9.9824 N   0  0  0  0  0  0  0  0  0  0  0  0
    3.3890    1.2659  -10.3244 C   0  0  2  0  0  0  0  0  0  0  0  0
    2.5497   -0.8267  -11.2253 O   0  0  0  0  0  0  0  0  0  0  0  0
    2.3898    0.0574  -10.3837 C   0  0  0  0  0  0  0  0  0  0  0  0
    3.3823    1.7566  -11.7561 C   0  0  0  0  0  0  0  0  0  0  0  0
    1.9935    2.2862  -13.6837 C   0  0  0  0  0  0  0  0  0  0  0  0
    2.1063    2.1924  -12.3033 C   0  0  0  0  0  0  0  0  0  0  0  0
    1.0572    2.4583  -11.4414 C   0  0  0  0  0  0  0  0  0  0  0  0
   -0.1707    2.7312  -11.9531 C   0  0  0  0  0  0  0  0  0  0  0  0
   -0.3360    2.6816  -13.3239 C   0  0  0  0  0  0  0  0  0  0  0  0
    0.7326    2.4743  -14.2010 C   0  0  0  0  0  0  0  0  0  0  0  0
   -1.6068    2.8554  -13.7683 O   0  0  0  0  0  0  0  0  0  0  0  0
    7.6020    1.1236   -7.7405 N   0  0  0  0  0  0  0  0  0  0  0  0
    1.7414   -3.0630   -9.7778 N   0  0  0  0  0  0  0  0  0  0  0  0
    2.6781   -2.6133   -8.7765 C   0  0  2  0  0  0  0  0  0  0  0  0
    4.4687   -1.1220   -9.0109 O   0  0  0  0  0  0  0  0  0  0  0  0
    3.9063   -2.1264   -9.4889 C   0  0  0  0  0  0  0  0  0  0  0  0
    2.8245   -3.5831   -7.6001 C   0  0  0  0  0  0  0  0  0  0  0  0
    3.6792   -4.7671   -7.9636 C   0  0  0  0  0  0  0  0  0  0  0  0
    3.7207   -5.9568   -7.0723 C   0  0  0  0  0  0  0  0  0  0  0  0
    5.0494   -4.1526   -7.8817 C   0  0  0  0  0  0  0  0  0  0  0  0
    4.5398   -2.8633  -10.4605 N   0  0  0  0  0  0  0  0  0  0  0  0
    7.3679   -7.7513  -12.8752 C   0  0  0  0  0  0  0  0  0  0  0  0
    8.5130   -7.2896  -13.4083 N   0  0  0  0  0  0  0  0  0  0  0  0
    7.1980   -9.0110  -12.7219 N   0  0  0  0  0  0  0  0  0  0  0  0
    6.4070   -6.8596  -12.5310 N   0  0  0  0  0  0  0  0  0  0  0  0
    4.7018   -4.3796  -10.6767 C   0  0  1  0  0  0  0  0  0  0  0  0
    5.2970   -6.7525   -9.6060 O   0  0  0  0  0  0  0  0  0  0  0  0
    4.4654   -4.6164  -12.1706 C   0  0  0  0  0  0  0  0  0  0  0  0
    5.6832   -4.4798  -13.0256 C   0  0  0  0  0  0  0  0  0  0  0  0
    6.6701   -5.4585  -12.5676 C   0  0  0  0  0  0  0  0  0  0  0  0
    7.1068   -2.9945   -9.9691 C   0  0  0  0  0  0  0  0  0  0  0  0
    7.9688   -4.3136   -9.7773 C   0  0  2  0  0  0  0  0  0  0  0  0
    8.9323   -4.8827  -10.9568 C   0  0  0  0  0  0  0  0  0  0  0  0
    9.3049   -6.2169  -10.5222 C   0  0  0  0  0  0  0  0  0  0  0  0
    8.0675   -6.6620   -9.7745 C   0  0  0  0  0  0  0  0  0  0  0  0
    7.1715   -5.4929   -9.5855 N   0  0  0  0  0  0  0  0  0  0  0  0
    6.8064   -2.6155  -11.1233 O   0  0  0  0  0  0  0  0  0  0  0  0
    6.7131   -2.0733   -9.0358 N   0  0  0  0  0  0  0  0  0  0  0  0
    6.9155   -1.7343   -7.6031 C   0  0  0  0  0  0  0  0  0  0  0  0
    6.6146    0.2453   -5.8950 O   0  0  0  0  0  0  0  0  0  0  0  0
    6.9614    0.0035   -7.0513 C   0  0  0  0  0  0  0  0  0  0  0  0
    5.7796   -5.6511   -9.9022 C   0  0  0  0  0  0  0  0  0  0  0  0
   -1.8007    0.1325   -7.5889 C   0  0  0  0  0  0  0  0  0  0  0  0
    0.6830   -2.3208  -10.2134 C   0  0  0  0  0  0  0  0  0  0  0  0
    0.0587   -2.6748  -11.2111 O   0  0  0  0  0  0  0  0  0  0  0  0
   12.6040   -0.2453   -7.8480 C   0  0  0  0  0  0  0  0  0  0  0  0
   13.0296   -1.4089   -8.7415 C   0  0  0  0  0  0  0  0  0  0  0  0
   13.1875   -0.7585  -10.1123 C   0  0  2  0  0  0  0  0  0  0  0  0
   12.1835    0.3248  -10.0629 N   0  0  0  0  0  0  0  0  0  0  0  0
   11.8809    0.7050   -8.7663 C   0  0  0  0  0  0  0  0  0  0  0  0
   13.2676   -1.8080  -11.3223 C   0  0  0  0  0  0  0  0  0  0  0  0
   13.4154   -3.0098  -11.0934 O   0  0  0  0  0  0  0  0  0  0  0  0
   11.1367    1.6177   -8.4423 O   0  0  0  0  0  0  0  0  0  0  0  0
   -5.9202    5.6162    1.0360 H   0  0  0  0  0  0  0  0  0  0  0  0
   -8.2080    3.3162   -1.0119 H   0  0  0  0  0  0  0  0  0  0  0  0
   -7.0562    2.7432    0.1935 H   0  0  0  0  0  0  0  0  0  0  0  0
   -7.3036    1.1337   -3.8663 H   0  0  0  0  0  0  0  0  0  0  0  0
   -7.6562    2.6176   -3.3723 H   0  0  0  0  0  0  0  0  0  0  0  0
   -5.6116    2.4502   -4.5585 H   0  0  0  0  0  0  0  0  0  0  0  0
   -5.6661    0.1855   -1.9520 H   0  0  0  0  0  0  0  0  0  0  0  0
   -5.4787   -1.1141   -1.7750 H   0  0  0  0  0  0  0  0  0  0  0  0
   -5.4562   -1.5110    0.1308 H   0  0  0  0  0  0  0  0  0  0  0  0
   -4.4082    0.0067    1.8666 H   0  0  0  0  0  0  0  0  0  0  0  0
   -4.6069    1.1609    0.6673 H   0  0  0  0  0  0  0  0  0  0  0  0
   -3.5715   -2.3550   -0.9713 H   0  0  0  0  0  0  0  0  0  0  0  0
   -3.1392   -1.3430    1.6056 H   0  0  0  0  0  0  0  0  0  0  0  0
   -1.4148   -1.1181   -1.0416 H   0  0  0  0  0  0  0  0  0  0  0  0
   -1.9699    0.3489    1.0730 H   0  0  0  0  0  0  0  0  0  0  0  0
   -1.2058    1.2226   -0.3173 H   0  0  0  0  0  0  0  0  0  0  0  0
   -2.8581    1.3921    0.0150 H   0  0  0  0  0  0  0  0  0  0  0  0
   -3.9649    3.3282   -4.8547 H   0  0  0  0  0  0  0  0  0  0  0  0
   -1.1593    6.9204   -4.4592 H   0  0  0  0  0  0  0  0  0  0  0  0
   -2.6670    7.7524   -5.2443 H   0  0  0  0  0  0  0  0  0  0  0  0
   -1.0581    7.9894   -5.7978 H   0  0  0  0  0  0  0  0  0  0  0  0
   -1.3770   10.6970   -2.3200 H   0  0  0  0  0  0  0  0  0  0  0  0
   -2.4095   10.9376   -0.0886 H   0  0  0  0  0  0  0  0  0  0  0  0
   -3.8627    9.1506    0.8076 H   0  0  0  0  0  0  0  0  0  0  0  0
   -6.2901    0.6972   -0.0066 H   0  0  0  0  0  0  0  0  0  0  0  0
   -9.7935   -0.4387   -1.8742 H   0  0  0  0  0  0  0  0  0  0  0  0
   -9.0574    0.5439   -3.1054 H   0  0  0  0  0  0  0  0  0  0  0  0
   -6.3560   -0.2845   -4.9473 H   0  0  0  0  0  0  0  0  0  0  0  0
   -6.5290   -0.3041   -3.2784 H   0  0  0  0  0  0  0  0  0  0  0  0
   -4.1856   -0.6226   -3.8903 H   0  0  0  0  0  0  0  0  0  0  0  0
   -4.7474   -1.9733   -2.8696 H   0  0  0  0  0  0  0  0  0  0  0  0
   -3.2921   -2.6423   -4.1518 H   0  0  0  0  0  0  0  0  0  0  0  0
   -4.9072   -3.3473   -4.5459 H   0  0  0  0  0  0  0  0  0  0  0  0
   -2.1721   -1.9192   -5.7729 H   0  0  0  0  0  0  0  0  0  0  0  0
   -2.4913   -1.8490   -8.2697 H   0  0  0  0  0  0  0  0  0  0  0  0
   -3.7309   -0.6558   -8.0377 H   0  0  0  0  0  0  0  0  0  0  0  0
    0.2661    0.4750   -7.0687 H   0  0  0  0  0  0  0  0  0  0  0  0
   -0.5159   -0.6872   -6.0417 H   0  0  0  0  0  0  0  0  0  0  0  0
    0.8883   -1.8646   -7.3803 H   0  0  0  0  0  0  0  0  0  0  0  0
   -0.6180   -2.3709   -7.9304 H   0  0  0  0  0  0  0  0  0  0  0  0
   -0.5785   -0.6631   -9.8724 H   0  0  0  0  0  0  0  0  0  0  0  0
    1.1304    0.8512   -8.9440 H   0  0  0  0  0  0  0  0  0  0  0  0
   13.4328   -3.8342  -16.0697 H   0  0  0  0  0  0  0  0  0  0  0  0
   12.8803   -0.3051  -12.6717 H   0  0  0  0  0  0  0  0  0  0  0  0
   13.3130   -2.0301  -14.5722 H   0  0  0  0  0  0  0  0  0  0  0  0
   13.0084   -4.0963  -13.0161 H   0  0  0  0  0  0  0  0  0  0  0  0
   11.2827   -3.9251  -13.0599 H   0  0  0  0  0  0  0  0  0  0  0  0
   10.1498   -5.6488  -14.2575 H   0  0  0  0  0  0  0  0  0  0  0  0
   12.5776   -5.6687  -17.6276 H   0  0  0  0  0  0  0  0  0  0  0  0
    9.2903   -0.9658  -14.9443 H   0  0  0  0  0  0  0  0  0  0  0  0
    8.7013   -2.1966  -13.1378 H   0  0  0  0  0  0  0  0  0  0  0  0
   11.2744   -2.5579  -12.2488 H   0  0  0  0  0  0  0  0  0  0  0  0
   11.1991   -0.8341  -11.7461 H   0  0  0  0  0  0  0  0  0  0  0  0
    8.9042   -2.9628  -11.6558 H   0  0  0  0  0  0  0  0  0  0  0  0
    8.2065   -0.4348   -8.6437 H   0  0  0  0  0  0  0  0  0  0  0  0
    9.3326    0.2065   -6.3482 H   0  0  0  0  0  0  0  0  0  0  0  0
   10.7001   -1.6206   -5.6431 H   0  0  0  0  0  0  0  0  0  0  0  0
   11.4305   -3.3911   -7.3471 H   0  0  0  0  0  0  0  0  0  0  0  0
    6.9351   -0.9722  -11.9565 H   0  0  0  0  0  0  0  0  0  0  0  0
    6.9296    0.1523   -9.7285 H   0  0  0  0  0  0  0  0  0  0  0  0
    9.0799    1.5213  -10.1280 H   0  0  0  0  0  0  0  0  0  0  0  0
    8.2252    2.3461  -11.4320 H   0  0  0  0  0  0  0  0  0  0  0  0
    4.9193    0.5367   -9.1056 H   0  0  0  0  0  0  0  0  0  0  0  0
    3.0317    1.9906   -9.5871 H   0  0  0  0  0  0  0  0  0  0  0  0
    4.0463    2.6198  -11.8404 H   0  0  0  0  0  0  0  0  0  0  0  0
    3.7068    0.9048  -12.3901 H   0  0  0  0  0  0  0  0  0  0  0  0
    2.8743    2.1715  -14.3185 H   0  0  0  0  0  0  0  0  0  0  0  0
    1.1672    2.4190  -10.3690 H   0  0  0  0  0  0  0  0  0  0  0  0
   -0.9723    2.9567  -11.2670 H   0  0  0  0  0  0  0  0  0  0  0  0
    0.6077    2.4528  -15.2745 H   0  0  0  0  0  0  0  0  0  0  0  0
    8.4154    1.0993   -8.3824 H   0  0  0  0  0  0  0  0  0  0  0  0
    7.9864    1.9614   -7.3004 H   0  0  0  0  0  0  0  0  0  0  0  0
    2.1182   -3.5733  -10.5662 H   0  0  0  0  0  0  0  0  0  0  0  0
    2.3869   -1.6774   -8.3052 H   0  0  0  0  0  0  0  0  0  0  0  0
    3.3300   -3.0494   -6.7809 H   0  0  0  0  0  0  0  0  0  0  0  0
    1.8478   -3.8963   -7.2480 H   0  0  0  0  0  0  0  0  0  0  0  0
    3.2148   -5.1790   -8.8612 H   0  0  0  0  0  0  0  0  0  0  0  0
    2.7170   -6.2118   -6.7570 H   0  0  0  0  0  0  0  0  0  0  0  0
    4.1302   -6.8172   -7.6121 H   0  0  0  0  0  0  0  0  0  0  0  0
    4.3892   -5.7420   -6.2431 H   0  0  0  0  0  0  0  0  0  0  0  0
    5.5787   -4.1570   -6.9469 H   0  0  0  0  0  0  0  0  0  0  0  0
    5.8019   -4.3043   -8.5825 H   0  0  0  0  0  0  0  0  0  0  0  0
    4.9410   -3.1374   -8.1299 H   0  0  0  0  0  0  0  0  0  0  0  0
    5.2672   -2.3143  -10.9100 H   0  0  0  0  0  0  0  0  0  0  0  0
    8.8845   -6.4077  -13.1083 H   0  0  0  0  0  0  0  0  0  0  0  0
    9.2525   -7.9729  -13.5089 H   0  0  0  0  0  0  0  0  0  0  0  0
    6.2422   -9.1361  -12.3843 H   0  0  0  0  0  0  0  0  0  0  0  0
    5.7741   -7.1931  -11.7941 H   0  0  0  0  0  0  0  0  0  0  0  0
    3.7350   -4.6924  -10.3498 H   0  0  0  0  0  0  0  0  0  0  0  0
    4.0671   -5.6286  -12.2492 H   0  0  0  0  0  0  0  0  0  0  0  0
    3.7198   -3.9037  -12.5310 H   0  0  0  0  0  0  0  0  0  0  0  0
    5.5758   -4.6191  -14.0904 H   0  0  0  0  0  0  0  0  0  0  0  0
    6.1104   -3.4779  -12.9073 H   0  0  0  0  0  0  0  0  0  0  0  0
    7.5479   -5.2582  -13.1388 H   0  0  0  0  0  0  0  0  0  0  0  0
    6.8283   -5.1062  -11.5902 H   0  0  0  0  0  0  0  0  0  0  0  0
    8.5846   -4.1485   -8.8930 H   0  0  0  0  0  0  0  0  0  0  0  0
    8.5668   -4.6398  -11.9449 H   0  0  0  0  0  0  0  0  0  0  0  0
    9.9512   -4.5576  -11.1879 H   0  0  0  0  0  0  0  0  0  0  0  0
    9.6652   -6.7917  -11.3711 H   0  0  0  0  0  0  0  0  0  0  0  0
   10.1769   -6.0443   -9.8818 H   0  0  0  0  0  0  0  0  0  0  0  0
    7.5446   -7.4042  -10.3549 H   0  0  0  0  0  0  0  0  0  0  0  0
    8.3937   -7.0665   -8.8227 H   0  0  0  0  0  0  0  0  0  0  0  0
    5.9906   -1.4631   -9.3941 H   0  0  0  0  0  0  0  0  0  0  0  0
    6.1006   -2.1450   -7.0174 H   0  0  0  0  0  0  0  0  0  0  0  0
    7.7532   -2.3901   -7.3376 H   0  0  0  0  0  0  0  0  0  0  0  0
   -1.7141    0.5457   -8.5968 H   0  0  0  0  0  0  0  0  0  0  0  0
   -2.1616    0.9397   -6.9454 H   0  0  0  0  0  0  0  0  0  0  0  0
   11.9997   -0.4630   -6.9842 H   0  0  0  0  0  0  0  0  0  0  0  0
   13.4816    0.2072   -7.4150 H   0  0  0  0  0  0  0  0  0  0  0  0
   12.3816   -2.2284   -8.9303 H   0  0  0  0  0  0  0  0  0  0  0  0
   13.7705   -2.0475   -8.2686 H   0  0  0  0  0  0  0  0  0  0  0  0
   14.1526   -0.2827  -10.0616 H   0  0  0  0  0  0  0  0  0  0  0  0
   11.5711    0.7015  -10.7896 H   0  0  0  0  0  0  0  0  0  0  0  0
  2  1  1  0  0  0  0
  3  2  1  0  0  0  0
  3141  1  0  0  0  0
  4  2  2  0  0  0  0
  5  4  1  0  0  0  0
  5142  1  0  0  0  0
  5143  1  0  0  0  0
  6  5  1  0  0  0  0
  6  7  1  0  0  0  0
  6 37  1  1  0  0  0
  6 36  1  0  0  0  0
  7  8  1  0  0  0  0
  7144  1  0  0  0  0
  7145  1  0  0  0  0
  8  9  1  0  0  0  0
  8 20  1  0  0  0  0
  8146  1  6  0  0  0
 10 11  1  1  0  0  0
 10  9  1  0  0  0  0
 12 10  1  0  0  0  0
 12147  1  0  0  0  0
 12148  1  0  0  0  0
 13 12  1  0  0  0  0
 13 14  1  0  0  0  0
 13149  1  1  0  0  0
 14150  1  0  0  0  0
 14151  1  0  0  0  0
 15 13  1  0  0  0  0
 15 16  1  0  0  0  0
 15152  1  6  0  0  0
 16153  1  0  0  0  0
 17 15  1  0  0  0  0
 17 18  1  0  0  0  0
 17 19  1  0  0  0  0
 17154  1  6  0  0  0
 18155  1  0  0  0  0
 18156  1  0  0  0  0
 18157  1  0  0  0  0
 19 10  1  0  0  0  0
 20  4  1  0  0  0  0
 21 20  2  0  0  0  0
 21 23  1  0  0  0  0
 22 21  1  0  0  0  0
 22158  1  0  0  0  0
 23  1  2  0  0  0  0
 24 23  1  0  0  0  0
 25 24  1  0  0  0  0
 25 32  1  0  0  0  0
 26 25  2  0  0  0  0
 27 26  1  0  0  0  0
 28 27  1  0  0  0  0
 28159  1  0  0  0  0
 28160  1  0  0  0  0
 28161  1  0  0  0  0
 29 26  1  0  0  0  0
 29162  1  0  0  0  0
 30 29  2  0  0  0  0
 30 31  1  0  0  0  0
 30163  1  0  0  0  0
 31 32  2  0  0  0  0
 31164  1  0  0  0  0
 32 33  1  0  0  0  0
 33  1  1  0  0  0  0
 34 33  2  0  0  0  0
 35 24  2  0  0  0  0
 36165  1  0  0  0  0
 38 37  1  0  0  0  0
 38166  1  0  0  0  0
 38167  1  0  0  0  0
 39 38  1  0  0  0  0
 39 40  1  0  0  0  0
 40 41  1  0  0  0  0
 40 47  2  0  0  0  0
 41 42  1  0  0  0  0
 41168  1  0  0  0  0
 41169  1  0  0  0  0
 42 43  1  0  0  0  0
 42170  1  0  0  0  0
 42171  1  0  0  0  0
 43 44  1  0  0  0  0
 43172  1  0  0  0  0
 43173  1  0  0  0  0
 44 45  1  0  0  0  0
 44 46  2  0  0  0  0
 45 49  1  0  0  0  0
 45174  1  0  0  0  0
 48 37  2  0  0  0  0
 49130  1  0  0  0  0
 49175  1  0  0  0  0
 49176  1  0  0  0  0
 50 51  1  0  0  0  0
 50177  1  0  0  0  0
 50178  1  0  0  0  0
 51 52  1  0  0  0  0
 51179  1  0  0  0  0
 51180  1  0  0  0  0
 52 53  1  0  0  0  0
 52131  1  0  0  0  0
 52181  1  6  0  0  0
 53182  1  0  0  0  0
 57 65  1  0  0  0  0
 57183  1  0  0  0  0
 59 58  2  0  0  0  0
 60 61  1  0  0  0  0
 60184  1  0  0  0  0
 61 59  1  0  0  0  0
 61 62  1  0  0  0  0
 61185  1  6  0  0  0
 62 63  1  0  0  0  0
 62186  1  0  0  0  0
 62187  1  0  0  0  0
 63 57  1  0  0  0  0
 64 63  2  0  0  0  0
 64188  1  0  0  0  0
 65 66  2  0  0  0  0
 65189  1  0  0  0  0
 66 64  1  0  0  0  0
 67 68  1  0  0  0  0
 67 59  1  0  0  0  0
 67190  1  0  0  0  0
 68 71  1  0  0  0  0
 68 70  1  0  0  0  0
 68191  1  1  0  0  0
 70 69  2  0  0  0  0
 71 73  1  0  0  0  0
 71192  1  0  0  0  0
 71193  1  0  0  0  0
 72 73  2  0  0  0  0
 72194  1  0  0  0  0
 73 75  1  0  0  0  0
 74 72  1  0  0  0  0
 74 54  1  0  0  0  0
 75 76  2  0  0  0  0
 76 74  1  0  0  0  0
 76 77  1  0  0  0  0
 77 78  2  0  0  0  0
 77195  1  0  0  0  0
 78 79  1  0  0  0  0
 78196  1  0  0  0  0
 79 80  2  0  0  0  0
 79197  1  0  0  0  0
 80 75  1  0  0  0  0
 80198  1  0  0  0  0
 81 82  1  0  0  0  0
 81 70  1  0  0  0  0
 81199  1  0  0  0  0
 82 84  1  0  0  0  0
 82 85  1  0  0  0  0
 82200  1  1  0  0  0
 84 83  2  0  0  0  0
 85 86  1  0  0  0  0
 85201  1  0  0  0  0
 85202  1  0  0  0  0
 86 55  1  0  0  0  0
 87 88  1  0  0  0  0
 87 84  1  0  0  0  0
 87203  1  0  0  0  0
 88 91  1  0  0  0  0
 88 90  1  0  0  0  0
 88204  1  1  0  0  0
 90 89  2  0  0  0  0
 90 53  1  0  0  0  0
 91 93  1  0  0  0  0
 91205  1  0  0  0  0
 91206  1  0  0  0  0
 92 93  2  0  0  0  0
 92207  1  0  0  0  0
 93 94  1  0  0  0  0
 94 95  2  0  0  0  0
 94208  1  0  0  0  0
 95 96  1  0  0  0  0
 95209  1  0  0  0  0
 96 98  1  0  0  0  0
 96 97  2  0  0  0  0
 97 92  1  0  0  0  0
 97210  1  0  0  0  0
 98 56  1  0  0  0  0
 99211  1  0  0  0  0
 99212  1  0  0  0  0
100101  1  0  0  0  0
100213  1  0  0  0  0
101104  1  0  0  0  0
101103  1  0  0  0  0
101214  1  1  0  0  0
103102  2  0  0  0  0
104105  1  0  0  0  0
104215  1  0  0  0  0
104216  1  0  0  0  0
105107  1  0  0  0  0
105106  1  0  0  0  0
105217  1  0  0  0  0
106218  1  0  0  0  0
106219  1  0  0  0  0
106220  1  0  0  0  0
107221  1  0  0  0  0
107222  1  0  0  0  0
107223  1  0  0  0  0
108113  1  0  0  0  0
108103  1  0  0  0  0
108224  1  0  0  0  0
109111  2  0  0  0  0
109110  1  0  0  0  0
110225  1  0  0  0  0
110226  1  0  0  0  0
111227  1  0  0  0  0
112109  1  0  0  0  0
112228  1  0  0  0  0
113115  1  0  0  0  0
113129  1  0  0  0  0
113229  1  1  0  0  0
115116  1  0  0  0  0
115230  1  0  0  0  0
115231  1  0  0  0  0
116117  1  0  0  0  0
116232  1  0  0  0  0
116233  1  0  0  0  0
117112  1  0  0  0  0
117234  1  0  0  0  0
117235  1  0  0  0  0
118124  2  0  0  0  0
119120  1  0  0  0  0
119236  1  1  0  0  0
119118  1  0  0  0  0
120237  1  0  0  0  0
120238  1  0  0  0  0
121120  1  0  0  0  0
121239  1  0  0  0  0
121240  1  0  0  0  0
122121  1  0  0  0  0
122123  1  0  0  0  0
122241  1  0  0  0  0
122242  1  0  0  0  0
123119  1  0  0  0  0
125126  1  0  0  0  0
125118  1  0  0  0  0
125243  1  0  0  0  0
126128  1  0  0  0  0
126244  1  0  0  0  0
126245  1  0  0  0  0
128127  2  0  0  0  0
128 99  1  0  0  0  0
129114  2  0  0  0  0
129123  1  0  0  0  0
130 50  1  0  0  0  0
130246  1  0  0  0  0
130247  1  0  0  0  0
131132  2  0  0  0  0
131100  1  0  0  0  0
133134  1  0  0  0  0
133137  1  0  0  0  0
133248  1  0  0  0  0
133249  1  0  0  0  0
134135  1  0  0  0  0
134250  1  0  0  0  0
134251  1  0  0  0  0
135136  1  0  0  0  0
135138  1  0  0  0  0
135252  1  1  0  0  0
136253  1  0  0  0  0
137136  1  0  0  0  0
137140  2  0  0  0  0
138139  2  0  0  0  0
138 60  1  0  0  0  0
M  END
>  <DRUGBANK_ID>
DB12755

>  <COMMON_NAME>
Zoptarelin doxorubicin

>  <CAS_NUMBER>
139570-93-7

>  <UNII>
27844X2J29

>  <SYNONYMS>
Zoptarelin doxorubicin

$$$$
