
 OpenBabel10282417123D

 32 31  0  0  1  0  0  0  0  0999 V2000
   -0.1213   -0.6169   -2.9656 C   0  0  0  0  0  0  0  0  0  0  0  0
   -0.2508    3.8561   -0.4893 C   0  0  0  0  0  0  0  0  0  0  0  0
    1.2889   -0.1176   -2.9544 C   0  0  1  0  0  0  0  0  0  0  0  0
    0.8299    2.8904    0.1613 C   0  0  2  0  0  0  0  0  0  0  0  0
    1.6076    1.1664   -1.9989 C   0  0  2  0  0  0  0  0  0  0  0  0
    1.0373    1.3989   -0.4085 C   0  0  2  0  0  0  0  0  0  0  0  0
    1.8891   -1.3798   -2.5639 N   0  0  0  0  0  0  0  0  0  0  0  0
   -0.3493   -1.1595   -1.6253 O   0  0  0  0  0  0  0  0  0  0  0  0
    0.4584    2.7662    1.5682 O   0  0  0  0  0  0  0  0  0  0  0  0
    1.4617    2.4027   -2.7809 O   0  0  0  0  0  0  0  0  0  0  0  0
   -0.1983    0.7551   -0.0352 O   0  0  0  0  0  0  0  0  0  0  0  0
   -2.8691    2.5064   -2.3981 O   0  0  0  0  0  0  0  0  0  0  0  0
   -0.7157    2.2797   -2.5651 O   0  0  0  0  0  0  0  0  0  0  0  0
   -1.9019    0.3612   -2.1152 O   0  0  0  0  0  0  0  0  0  0  0  0
   -1.5967    3.3156   -0.7275 O   0  0  0  0  0  0  0  0  0  0  0  0
   -1.7578    1.7565   -1.4598 P   0  0  0  0  0  0  0  0  0  0  0  0
    1.4863    0.1535   -4.0033 H   0  0  0  0  0  0  0  0  0  0  0  0
    1.8083    3.3832    0.1731 H   0  0  0  0  0  0  0  0  0  0  0  0
    2.6945    1.1680   -1.8931 H   0  0  0  0  0  0  0  0  0  0  0  0
    1.7467    0.8495    0.2192 H   0  0  0  0  0  0  0  0  0  0  0  0
   -0.4820   -1.4110   -3.6215 H   0  0  0  0  0  0  0  0  0  0  0  0
   -0.6372    0.2385   -3.4268 H   0  0  0  0  0  0  0  0  0  0  0  0
   -0.3859    4.7433    0.1440 H   0  0  0  0  0  0  0  0  0  0  0  0
    0.1259    4.2782   -1.4319 H   0  0  0  0  0  0  0  0  0  0  0  0
    2.8743   -1.3727   -2.4113 H   0  0  0  0  0  0  0  0  0  0  0  0
    1.3652   -1.6513   -1.7109 H   0  0  0  0  0  0  0  0  0  0  0  0
   -0.6549   -0.4204   -1.0620 H   0  0  0  0  0  0  0  0  0  0  0  0
   -0.5027    2.7042    1.7129 H   0  0  0  0  0  0  0  0  0  0  0  0
    0.7484    2.2802   -3.4754 H   0  0  0  0  0  0  0  0  0  0  0  0
   -0.6407    1.3210    0.6315 H   0  0  0  0  0  0  0  0  0  0  0  0
   -3.8146    2.2545   -2.3098 H   0  0  0  0  0  0  0  0  0  0  0  0
    0.0948    2.6110   -2.0938 H   0  0  0  0  0  0  0  0  0  0  0  0
  1 21  1  0  0  0  0
  1 22  1  0  0  0  0
  2 23  1  0  0  0  0
  2 24  1  0  0  0  0
  3  1  1  0  0  0  0
  3  7  1  0  0  0  0
  3 17  1  6  0  0  0
  4  2  1  0  0  0  0
  4  9  1  0  0  0  0
  4 18  1  6  0  0  0
  5 10  1  0  0  0  0
  5 19  1  1  0  0  0
  5  6  1  0  0  0  0
  5  3  1  0  0  0  0
  6  4  1  0  0  0  0
  6 11  1  0  0  0  0
  6 20  1  1  0  0  0
  7 25  1  0  0  0  0
  7 26  1  0  0  0  0
  8  1  1  0  0  0  0
  8 27  1  0  0  0  0
  9 28  1  0  0  0  0
 10 29  1  0  0  0  0
 11 30  1  0  0  0  0
 12 31  1  0  0  0  0
 13 32  1  0  0  0  0
 15  2  1  0  0  0  0
 16 12  1  0  0  0  0
 16 13  1  0  0  0  0
 16 14  2  0  0  0  0
 16 15  1  0  0  0  0
M  END
>  <DRUGBANK_ID>
DB02445

>  <SECONDARY_ACCESSION_NUMBERS>
EXPT00457

>  <COMMON_NAME>
2-Deoxy-2-Amino Glucitol-6-Phosphate

$$$$
