616
 OpenBabel10282417133D

 60 61  0  0  0  0  0  0  0  0999 V2000
    7.0522   -0.6326    0.5084 O   0  0  0  0  0  0  0  0  0  0  0  0
    6.3376   -1.6242    0.3935 C   0  0  0  0  0  0  0  0  0  0  0  0
    5.2412   -1.7696   -0.6597 C   0  0  1  0  0  0  0  0  0  0  0  0
    5.6250   -2.8625   -1.6997 C   0  0  0  0  0  0  0  0  0  0  0  0
    5.7973   -4.2846   -1.1257 C   0  0  0  0  0  0  0  0  0  0  0  0
    4.6586   -2.8196   -2.8964 C   0  0  0  0  0  0  0  0  0  0  0  0
    3.7844   -1.8931   -0.0610 C   0  0  1  0  0  0  0  0  0  0  0  0
    3.2337   -3.3118    0.0353 C   0  0  2  0  0  0  0  0  0  0  0  0
    1.7612   -3.4058    0.0266 N   0  0  0  0  0  0  0  0  0  0  0  0
    1.1217   -4.9727   -0.0964 S   0  0  0  0  0  0  0  0  0  0  0  0
    1.6488   -5.7462    0.9942 O   0  0  0  0  0  0  0  0  0  0  0  0
   -0.3104   -4.8082   -0.2641 O   0  0  0  0  0  0  0  0  0  0  0  0
    1.8032   -5.6527   -1.6177 C   0  0  0  0  0  0  0  0  0  0  0  0
    3.8713   -3.8129    1.3157 C   0  0  0  0  0  0  0  0  0  0  0  0
    3.9308   -2.5859    2.2114 C   0  0  0  0  0  0  0  0  0  0  0  0
    3.7079   -1.4428    1.3241 N   0  0  0  0  0  0  0  0  0  0  0  0
    3.4543   -0.1936    1.8475 C   0  0  0  0  0  0  0  0  0  0  0  0
    3.4047   -0.0191    3.0666 O   0  0  0  0  0  0  0  0  0  0  0  0
    3.1535    0.9899    0.9762 C   0  0  0  0  0  0  0  0  0  0  0  0
    3.2115    1.0605   -0.3563 C   0  0  0  0  0  0  0  0  0  0  0  0
    2.9058    2.1603   -1.3008 C   0  0  0  0  0  0  0  0  0  0  0  0
    4.0657    2.3590   -2.1845 N   0  0  0  0  0  0  0  0  0  0  0  0
    4.2283    1.2884   -3.1895 C   0  0  0  0  0  0  0  0  0  0  0  0
    5.4910    1.4989   -4.0210 C   0  0  0  0  0  0  0  0  0  0  0  0
    5.4504    2.8542   -4.7077 C   0  0  0  0  0  0  0  0  0  0  0  0
    5.1684    3.9582   -3.6949 C   0  0  0  0  0  0  0  0  0  0  0  0
    3.9296    3.6510   -2.8602 C   0  0  0  0  0  0  0  0  0  0  0  0
    5.3155   -0.8083   -1.1879 H   0  0  0  0  0  0  0  0  0  0  0  0
    3.0565   -1.3986   -0.7007 H   0  0  0  0  0  0  0  0  0  0  0  0
    3.4433   -3.8074   -0.8930 H   0  0  0  0  0  0  0  0  0  0  0  0
    6.4851   -2.4783    1.0688 H   0  0  0  0  0  0  0  0  0  0  0  0
    6.6200   -2.6095   -2.0898 H   0  0  0  0  0  0  0  0  0  0  0  0
    4.8976   -4.7726   -0.7685 H   0  0  0  0  0  0  0  0  0  0  0  0
    6.1386   -4.9958   -1.8740 H   0  0  0  0  0  0  0  0  0  0  0  0
    6.4922   -4.2815   -0.2819 H   0  0  0  0  0  0  0  0  0  0  0  0
    4.7879   -1.8892   -3.4573 H   0  0  0  0  0  0  0  0  0  0  0  0
    4.8358   -3.6617   -3.5682 H   0  0  0  0  0  0  0  0  0  0  0  0
    3.5999   -2.8455   -2.6213 H   0  0  0  0  0  0  0  0  0  0  0  0
    1.2912   -2.8453    0.7431 H   0  0  0  0  0  0  0  0  0  0  0  0
    1.4299   -5.1058   -2.4827 H   0  0  0  0  0  0  0  0  0  0  0  0
    2.8949   -5.6562   -1.5956 H   0  0  0  0  0  0  0  0  0  0  0  0
    1.4834   -6.6972   -1.6675 H   0  0  0  0  0  0  0  0  0  0  0  0
    3.3800   -4.6500    1.7927 H   0  0  0  0  0  0  0  0  0  0  0  0
    4.8959   -4.1540    1.1660 H   0  0  0  0  0  0  0  0  0  0  0  0
    3.1937   -2.6356    3.0117 H   0  0  0  0  0  0  0  0  0  0  0  0
    4.9311   -2.5095    2.6531 H   0  0  0  0  0  0  0  0  0  0  0  0
    2.8691    1.8746    1.5389 H   0  0  0  0  0  0  0  0  0  0  0  0
    3.5558    0.2367   -0.9217 H   0  0  0  0  0  0  0  0  0  0  0  0
    2.0215    1.8919   -1.8943 H   0  0  0  0  0  0  0  0  0  0  0  0
    2.6663    3.0629   -0.7303 H   0  0  0  0  0  0  0  0  0  0  0  0
    3.3498    1.2308   -3.8435 H   0  0  0  0  0  0  0  0  0  0  0  0
    4.3323    0.3044   -2.7322 H   0  0  0  0  0  0  0  0  0  0  0  0
    5.5781    0.7009   -4.7678 H   0  0  0  0  0  0  0  0  0  0  0  0
    6.3781    1.4291   -3.3773 H   0  0  0  0  0  0  0  0  0  0  0  0
    6.3974    3.0442   -5.2218 H   0  0  0  0  0  0  0  0  0  0  0  0
    4.6596    2.8460   -5.4676 H   0  0  0  0  0  0  0  0  0  0  0  0
    6.0352    4.0761   -3.0322 H   0  0  0  0  0  0  0  0  0  0  0  0
    5.0230    4.9094   -4.2155 H   0  0  0  0  0  0  0  0  0  0  0  0
    3.8073    4.4470   -2.1169 H   0  0  0  0  0  0  0  0  0  0  0  0
    3.0350    3.6485   -3.4957 H   0  0  0  0  0  0  0  0  0  0  0  0
  1  2  2  0  0  0  0
  2  3  1  0  0  0  0
  2 31  1  0  0  0  0
  3  4  1  0  0  0  0
  3 28  1  6  0  0  0
  4  5  1  0  0  0  0
  4  6  1  0  0  0  0
  4 32  1  0  0  0  0
  5 33  1  0  0  0  0
  5 34  1  0  0  0  0
  5 35  1  0  0  0  0
  6 36  1  0  0  0  0
  6 37  1  0  0  0  0
  6 38  1  0  0  0  0
  7  8  1  0  0  0  0
  7 16  1  0  0  0  0
  7 29  1  6  0  0  0
  7  3  1  0  0  0  0
  8  9  1  0  0  0  0
  8 14  1  0  0  0  0
  8 30  1  6  0  0  0
  9 10  1  0  0  0  0
  9 39  1  0  0  0  0
 10 11  2  0  0  0  0
 10 12  2  0  0  0  0
 10 13  1  0  0  0  0
 13 40  1  0  0  0  0
 13 41  1  0  0  0  0
 13 42  1  0  0  0  0
 14 15  1  0  0  0  0
 14 43  1  0  0  0  0
 14 44  1  0  0  0  0
 15 16  1  0  0  0  0
 15 45  1  0  0  0  0
 15 46  1  0  0  0  0
 16 17  1  0  0  0  0
 17 18  2  0  0  0  0
 17 19  1  0  0  0  0
 19 20  2  0  0  0  0
 19 47  1  0  0  0  0
 20 21  1  0  0  0  0
 20 48  1  0  0  0  0
 21 22  1  0  0  0  0
 21 49  1  0  0  0  0
 21 50  1  0  0  0  0
 22 23  1  0  0  0  0
 22 27  1  0  0  0  0
 23 24  1  0  0  0  0
 23 51  1  0  0  0  0
 23 52  1  0  0  0  0
 24 25  1  0  0  0  0
 24 53  1  0  0  0  0
 24 54  1  0  0  0  0
 25 26  1  0  0  0  0
 25 55  1  0  0  0  0
 25 56  1  0  0  0  0
 26 27  1  0  0  0  0
 26 57  1  0  0  0  0
 26 58  1  0  0  0  0
 27 59  1  0  0  0  0
 27 60  1  0  0  0  0
M  END
>  <DRUGBANK_ID>
DB03890

>  <SECONDARY_ACCESSION_NUMBERS>
EXPT00265

>  <COMMON_NAME>
N-[2-(1-Formyl-2-Methyl-Propyl)-1-(4-Piperidin-1-Yl-but-2-Enoyl)-Pyrrolidin-3-Yl]-Methanesulfonamide

$$$$
