
 OpenBabel10282417213D

 61 65  0  0  0  0  0  0  0  0999 V2000
   -0.2834    9.6162   -2.2121 C   0  0  0  0  0  0  0  0  0  0  0  0
    0.0085   10.2733   -1.0310 N   0  0  0  0  0  0  0  0  0  0  0  0
   -0.9388   10.2359    0.0084 C   0  0  0  0  0  0  0  0  0  0  0  0
   -1.3664    8.9985    0.4829 C   0  0  0  0  0  0  0  0  0  0  0  0
   -2.0670    8.8951    1.6871 C   0  0  0  0  0  0  0  0  0  0  0  0
   -2.3487   10.0330    2.4508 C   0  0  0  0  0  0  0  0  0  0  0  0
   -2.0184   11.2796    1.8984 C   0  0  0  0  0  0  0  0  0  0  0  0
   -1.3448   11.3904    0.6606 C   0  0  0  0  0  0  0  0  0  0  0  0
   -3.0089    9.9184    3.8140 C   0  0  0  0  0  0  0  0  0  0  0  0
   -2.2018   10.1239    5.1357 C   0  0  1  0  0  0  0  0  0  0  0  0
   -1.0708    9.1905    5.3535 N   0  0  0  0  0  0  0  0  0  0  0  0
   -0.0394    9.8689    6.1953 C   0  0  2  0  0  0  0  0  0  0  0  0
   -0.5193   11.3339    6.3671 C   0  0  0  0  0  0  0  0  0  0  0  0
   -1.6818   11.5408    5.3946 C   0  0  0  0  0  0  0  0  0  0  0  0
    1.5017    9.7055    5.7265 C   0  0  2  0  0  0  0  0  0  0  0  0
    2.3464   10.2943    6.7175 O   0  0  0  0  0  0  0  0  0  0  0  0
    1.8766   10.2632    4.3661 C   0  0  0  0  0  0  0  0  0  0  0  0
    3.1180   10.2523    3.7214 C   0  0  0  0  0  0  0  0  0  0  0  0
    3.2665   10.7018    2.3754 C   0  0  0  0  0  0  0  0  0  0  0  0
    2.2119   11.2580    1.6944 C   0  0  0  0  0  0  0  0  0  0  0  0
    1.0572   11.3449    2.3881 C   0  0  0  0  0  0  0  0  0  0  0  0
    0.8759   10.7941    3.6186 C   0  0  0  0  0  0  0  0  0  0  0  0
   -0.0913    9.4055    7.1904 H   0  0  0  0  0  0  0  0  0  0  0  0
   -1.3180    8.9741   -2.3898 O   0  0  0  0  0  0  0  0  0  0  0  0
    0.6960    9.7960   -3.3616 C   0  0  1  0  0  0  0  0  0  0  0  0
    0.6695   11.1779   -3.7297 N   0  0  0  0  0  0  0  0  0  0  0  0
    1.8894   11.7931   -3.6517 C   0  0  0  0  0  0  0  0  0  0  0  0
    2.9214   10.7956   -3.1787 C   0  0  0  0  0  0  0  0  0  0  0  0
    2.1412    9.4825   -3.0050 C   0  0  0  0  0  0  0  0  0  0  0  0
    2.0791   13.0387   -3.9473 N   0  0  0  0  0  0  0  0  0  0  0  0
    0.9577   13.7271   -4.3781 C   0  0  0  0  0  0  0  0  0  0  0  0
   -0.2665   13.2124   -4.5276 C   0  0  0  0  0  0  0  0  0  0  0  0
   -0.4628   11.7880   -4.2204 C   0  0  0  0  0  0  0  0  0  0  0  0
   -1.5361   11.2630   -4.3846 O   0  0  0  0  0  0  0  0  0  0  0  0
    0.7724   10.9375   -0.9834 H   0  0  0  0  0  0  0  0  0  0  0  0
   -1.0947    8.0946   -0.0550 H   0  0  0  0  0  0  0  0  0  0  0  0
   -2.3481    7.9025    2.0271 H   0  0  0  0  0  0  0  0  0  0  0  0
   -2.0850   12.1727    2.5179 H   0  0  0  0  0  0  0  0  0  0  0  0
   -0.9469   12.3643    0.3640 H   0  0  0  0  0  0  0  0  0  0  0  0
   -3.8424   10.6309    3.8127 H   0  0  0  0  0  0  0  0  0  0  0  0
   -3.4768    8.9255    3.8701 H   0  0  0  0  0  0  0  0  0  0  0  0
   -2.9080    9.9143    5.9496 H   0  0  0  0  0  0  0  0  0  0  0  0
   -0.6704    8.8922    4.4624 H   0  0  0  0  0  0  0  0  0  0  0  0
    0.2762   12.0639    6.1831 H   0  0  0  0  0  0  0  0  0  0  0  0
   -0.8900   11.4966    7.3845 H   0  0  0  0  0  0  0  0  0  0  0  0
   -1.3219   12.0691    4.5083 H   0  0  0  0  0  0  0  0  0  0  0  0
   -2.4564   12.2070    5.7856 H   0  0  0  0  0  0  0  0  0  0  0  0
    1.7164    8.6305    5.6980 H   0  0  0  0  0  0  0  0  0  0  0  0
    2.4688   11.2269    6.4704 H   0  0  0  0  0  0  0  0  0  0  0  0
    3.9879    9.8547    4.2278 H   0  0  0  0  0  0  0  0  0  0  0  0
    4.2010   10.6113    1.8384 H   0  0  0  0  0  0  0  0  0  0  0  0
    2.2115   11.6108    0.6722 H   0  0  0  0  0  0  0  0  0  0  0  0
    0.2071   11.8039    1.9780 H   0  0  0  0  0  0  0  0  0  0  0  0
   -0.1357   10.7602    3.9220 H   0  0  0  0  0  0  0  0  0  0  0  0
    0.3476    9.1932   -4.2061 H   0  0  0  0  0  0  0  0  0  0  0  0
    3.3763   11.1123   -2.2346 H   0  0  0  0  0  0  0  0  0  0  0  0
    3.7197   10.6756   -3.9186 H   0  0  0  0  0  0  0  0  0  0  0  0
    2.2495    9.0708   -1.9941 H   0  0  0  0  0  0  0  0  0  0  0  0
    2.5270    8.7082   -3.6802 H   0  0  0  0  0  0  0  0  0  0  0  0
    1.0996   14.7786   -4.6233 H   0  0  0  0  0  0  0  0  0  0  0  0
   -1.1368   13.7584   -4.8666 H   0  0  0  0  0  0  0  0  0  0  0  0
  1  2  1  0  0  0  0
  1 24  2  0  0  0  0
  2  3  1  0  0  0  0
  2 35  1  0  0  0  0
  3  4  2  0  0  0  0
  3  8  1  0  0  0  0
  4  5  1  0  0  0  0
  4 36  1  0  0  0  0
  5  6  2  0  0  0  0
  5 37  1  0  0  0  0
  6  9  1  0  0  0  0
  7  6  1  0  0  0  0
  7 38  1  0  0  0  0
  8  7  2  0  0  0  0
  8 39  1  0  0  0  0
  9 40  1  0  0  0  0
  9 41  1  0  0  0  0
 10  9  1  0  0  0  0
 10 11  1  0  0  0  0
 10 14  1  0  0  0  0
 10 42  1  1  0  0  0
 11 12  1  0  0  0  0
 11 43  1  0  0  0  0
 12 13  1  0  0  0  0
 12 23  1  1  0  0  0
 13 44  1  0  0  0  0
 13 45  1  0  0  0  0
 14 13  1  0  0  0  0
 14 46  1  0  0  0  0
 14 47  1  0  0  0  0
 15 17  1  0  0  0  0
 15 48  1  6  0  0  0
 15 16  1  0  0  0  0
 15 12  1  0  0  0  0
 16 49  1  0  0  0  0
 17 18  2  0  0  0  0
 17 22  1  0  0  0  0
 18 19  1  0  0  0  0
 18 50  1  0  0  0  0
 19 20  2  0  0  0  0
 19 51  1  0  0  0  0
 20 52  1  0  0  0  0
 21 20  1  0  0  0  0
 21 53  1  0  0  0  0
 22 21  2  0  0  0  0
 22 54  1  0  0  0  0
 25 26  1  0  0  0  0
 25 29  1  0  0  0  0
 25 55  1  6  0  0  0
 25  1  1  0  0  0  0
 26 27  1  0  0  0  0
 26 33  1  0  0  0  0
 27 28  1  0  0  0  0
 27 30  2  0  0  0  0
 28 56  1  0  0  0  0
 28 57  1  0  0  0  0
 29 28  1  0  0  0  0
 29 58  1  0  0  0  0
 29 59  1  0  0  0  0
 30 31  1  0  0  0  0
 31 60  1  0  0  0  0
 32 31  2  0  0  0  0
 32 61  1  0  0  0  0
 33 32  1  0  0  0  0
 33 34  2  0  0  0  0
M  END
>  <DRUGBANK_ID>
DB14895

>  <COMMON_NAME>
Vibegron

>  <CAS_NUMBER>
1190389-15-1

>  <UNII>
M5TSE03W5U

>  <SYNONYMS>
Vibégron; Vibegrón; Vibegron; Vibegronum

$$$$
