B23
 OpenBabel10282417163D

 24 25  0  0  0  0  0  0  0  0999 V2000
    0.7612    0.0019   -0.0059 O   0  0  0  0  0  0  0  0  0  0  0  0
    0.1885    0.7011   -1.0176 C   0  0  0  0  0  0  0  0  0  0  0  0
    0.8913    1.2606   -1.8540 O   0  0  0  0  0  0  0  0  0  0  0  0
   -1.2464    0.7099   -0.8930 C   0  0  0  0  0  0  0  0  0  0  0  0
   -2.0641    0.6411   -2.0044 O   0  0  0  0  0  0  0  0  0  0  0  0
   -2.0331    0.7919    0.2424 C   0  0  0  0  0  0  0  0  0  0  0  0
   -3.3773    0.7656   -0.1785 C   0  0  0  0  0  0  0  0  0  0  0  0
   -3.3588    0.6247   -1.5479 C   0  0  0  0  0  0  0  0  0  0  0  0
   -4.4396    0.4994   -2.5208 C   0  0  0  0  0  0  0  0  0  0  0  0
   -5.3954    1.5391   -2.5575 C   0  0  0  0  0  0  0  0  0  0  0  0
   -6.4840    1.5116   -3.4365 C   0  0  0  0  0  0  0  0  0  0  0  0
   -6.6326    0.4512   -4.3207 C   0  0  0  0  0  0  0  0  0  0  0  0
   -5.7076   -0.5933   -4.3049 C   0  0  0  0  0  0  0  0  0  0  0  0
   -4.6502   -0.6062   -3.3651 C   0  0  0  0  0  0  0  0  0  0  0  0
   -3.9135   -1.8768   -3.2034 N   0  3  0  0  0  0  0  0  0  0  0  0
   -4.1915   -2.7967   -3.9891 O   0  5  0  0  0  0  0  0  0  0  0  0
   -3.1203   -2.0052   -2.2637 O   0  0  0  0  0  0  0  0  0  0  0  0
    1.7243    0.0509   -0.1757 H   0  0  0  0  0  0  0  0  0  0  0  0
   -1.6606    0.8791    1.2523 H   0  0  0  0  0  0  0  0  0  0  0  0
   -4.2651    0.8103    0.4343 H   0  0  0  0  0  0  0  0  0  0  0  0
   -5.3071    2.3857   -1.8770 H   0  0  0  0  0  0  0  0  0  0  0  0
   -7.2066    2.3258   -3.4366 H   0  0  0  0  0  0  0  0  0  0  0  0
   -7.4792    0.4239   -5.0045 H   0  0  0  0  0  0  0  0  0  0  0  0
   -5.8391   -1.4071   -5.0173 H   0  0  0  0  0  0  0  0  0  0  0  0
  1  2  1  0  0  0  0
  1 18  1  0  0  0  0
  2  3  2  0  0  0  0
  2  4  1  0  0  0  0
  4  5  1  0  0  0  0
  4  6  2  0  0  0  0
  5  8  1  0  0  0  0
  6  7  1  0  0  0  0
  6 19  1  0  0  0  0
  7  8  2  0  0  0  0
  7 20  1  0  0  0  0
  8  9  1  0  0  0  0
  9 10  1  0  0  0  0
  9 14  2  0  0  0  0
 10 11  2  0  0  0  0
 10 21  1  0  0  0  0
 11 12  1  0  0  0  0
 11 22  1  0  0  0  0
 12 13  2  0  0  0  0
 12 23  1  0  0  0  0
 13 14  1  0  0  0  0
 13 24  1  0  0  0  0
 14 15  1  0  0  0  0
 15 16  1  0  0  0  0
 15 17  2  0  0  0  0
M  CHG  2  15   1  16  -1
M  END
>  <DRUGBANK_ID>
DB07408

>  <COMMON_NAME>
5-(2-NITROPHENYL)-2-FUROIC ACID

>  <UNII>
GAR5WG9DZJ

$$$$
