268
 OpenBabel10282417103D

 43 44  0  0  0  0  0  0  0  0999 V2000
    3.2259    0.0378    0.0420 O   0  0  0  0  0  0  0  0  0  0  0  0
   -3.7587   -2.9111    1.4646 N   0  0  0  0  0  0  0  0  0  0  0  0
    1.1590    1.0708   -0.0094 N   0  0  0  0  0  0  0  0  0  0  0  0
   -2.4682   -3.5090    1.0751 C   0  0  0  0  0  0  0  0  0  0  0  0
   -1.6522   -2.8849   -0.2216 C   0  0  0  0  0  0  0  0  0  0  0  0
   -1.4259   -1.3629   -0.5564 C   0  0  0  0  0  0  0  0  0  0  0  0
   -4.4460   -3.3297    2.6847 C   0  0  0  0  0  0  0  0  0  0  0  0
   -3.6272   -1.4839    1.4679 C   0  0  0  0  0  0  0  0  0  0  0  0
   -0.2107   -0.7263   -0.3585 C   0  0  0  0  0  0  0  0  0  0  0  0
    1.1674   -1.2886   -0.1404 C   0  0  0  0  0  0  0  0  0  0  0  0
   -0.1488    0.6763   -0.2013 C   0  0  0  0  0  0  0  0  0  0  0  0
   -3.8849   -2.8211    4.0409 C   0  0  0  0  0  0  0  0  0  0  0  0
   -2.4534   -0.8282    2.2221 C   0  0  0  0  0  0  0  0  0  0  0  0
   -2.4763   -0.4625   -0.9050 C   0  0  0  0  0  0  0  0  0  0  0  0
    2.0329   -0.0176   -0.0285 C   0  0  0  0  0  0  0  0  0  0  0  0
   -1.2540    1.4968   -0.1718 C   0  0  0  0  0  0  0  0  0  0  0  0
   -2.4529    0.8962   -0.4977 C   0  0  0  0  0  0  0  0  0  0  0  0
   -4.1140   -1.3156    4.4774 C   0  0  0  0  0  0  0  0  0  0  0  0
   -1.0472   -1.2277    2.6116 C   0  0  0  0  0  0  0  0  0  0  0  0
    1.4739    2.0264    0.0513 H   0  0  0  0  0  0  0  0  0  0  0  0
   -2.6091   -4.5817    0.8839 H   0  0  0  0  0  0  0  0  0  0  0  0
   -1.8138   -3.5314    1.9413 H   0  0  0  0  0  0  0  0  0  0  0  0
   -2.1095   -3.3319   -1.1071 H   0  0  0  0  0  0  0  0  0  0  0  0
   -0.6530   -3.3353   -0.1228 H   0  0  0  0  0  0  0  0  0  0  0  0
   -5.4889   -2.9856    2.6096 H   0  0  0  0  0  0  0  0  0  0  0  0
   -4.5096   -4.4249    2.6758 H   0  0  0  0  0  0  0  0  0  0  0  0
   -3.5126   -1.4136    0.4481 H   0  0  0  0  0  0  0  0  0  0  0  0
   -4.5842   -0.9430    1.5586 H   0  0  0  0  0  0  0  0  0  0  0  0
    1.4683   -1.8884   -0.9968 H   0  0  0  0  0  0  0  0  0  0  0  0
    1.2633   -1.8546    0.7929 H   0  0  0  0  0  0  0  0  0  0  0  0
   -4.3447   -3.4218    4.8284 H   0  0  0  0  0  0  0  0  0  0  0  0
   -2.8195   -3.0976    4.0710 H   0  0  0  0  0  0  0  0  0  0  0  0
   -2.6176    0.2515    2.3065 H   0  0  0  0  0  0  0  0  0  0  0  0
   -2.6860   -1.2826    3.1262 H   0  0  0  0  0  0  0  0  0  0  0  0
   -3.4665   -0.8418   -1.1853 H   0  0  0  0  0  0  0  0  0  0  0  0
   -1.2098    2.5450    0.0999 H   0  0  0  0  0  0  0  0  0  0  0  0
   -3.3926    1.4308   -0.3336 H   0  0  0  0  0  0  0  0  0  0  0  0
   -5.1645   -1.0594    4.4402 H   0  0  0  0  0  0  0  0  0  0  0  0
   -3.4839   -1.1281    5.3549 H   0  0  0  0  0  0  0  0  0  0  0  0
   -3.7989   -0.4210    3.9184 H   0  0  0  0  0  0  0  0  0  0  0  0
   -0.3046   -1.0289    1.8826 H   0  0  0  0  0  0  0  0  0  0  0  0
   -0.7717   -0.6713    3.5168 H   0  0  0  0  0  0  0  0  0  0  0  0
   -0.9578   -2.2671    2.9296 H   0  0  0  0  0  0  0  0  0  0  0  0
  1 15  2  0  0  0  0
  2  4  1  0  0  0  0
  2  7  1  0  0  0  0
  2  8  1  0  0  0  0
  3 11  1  0  0  0  0
  3 15  1  0  0  0  0
  3 20  1  0  0  0  0
  4  5  1  0  0  0  0
  4 21  1  0  0  0  0
  4 22  1  0  0  0  0
  5  6  1  0  0  0  0
  5 23  1  0  0  0  0
  5 24  1  0  0  0  0
  6  9  2  0  0  0  0
  6 14  1  0  0  0  0
  7 12  1  0  0  0  0
  7 25  1  0  0  0  0
  7 26  1  0  0  0  0
  8 13  1  0  0  0  0
  8 27  1  0  0  0  0
  8 28  1  0  0  0  0
  9 10  1  0  0  0  0
  9 11  1  0  0  0  0
 10 15  1  0  0  0  0
 10 29  1  0  0  0  0
 10 30  1  0  0  0  0
 11 16  2  0  0  0  0
 12 18  1  0  0  0  0
 12 31  1  0  0  0  0
 12 32  1  0  0  0  0
 13 19  1  0  0  0  0
 13 33  1  0  0  0  0
 13 34  1  0  0  0  0
 14 17  2  0  0  0  0
 14 35  1  0  0  0  0
 16 17  1  0  0  0  0
 16 36  1  0  0  0  0
 17 37  1  0  0  0  0
 18 38  1  0  0  0  0
 18 39  1  0  0  0  0
 18 40  1  0  0  0  0
 19 41  1  0  0  0  0
 19 42  1  0  0  0  0
 19 43  1  0  0  0  0
M  END
>  <DRUGBANK_ID>
DB00268

>  <SECONDARY_ACCESSION_NUMBERS>
APRD00302

>  <COMMON_NAME>
Ropinirole

>  <CAS_NUMBER>
91374-21-9

>  <UNII>
030PYR8953

>  <SYNONYMS>
Ropinirol; Ropinirole; Ropinirolum

$$$$
