
 OpenBabel10282417113D

 75 77  0  0  1  0  0  0  0  0999 V2000
    1.9902    3.3680    0.7822 C   0  0  0  0  0  0  0  0  0  0  0  0
    1.7499    6.2014    0.0696 C   0  0  0  0  0  0  0  0  0  0  0  0
    1.3162    5.2580   -2.4004 C   0  0  0  0  0  0  0  0  0  0  0  0
    1.2751    3.8084   -2.9230 C   0  0  0  0  0  0  0  0  0  0  0  0
    1.9548    4.4257    1.8785 C   0  0  0  0  0  0  0  0  0  0  0  0
    1.0682    7.3452   -0.1262 C   0  0  0  0  0  0  0  0  0  0  0  0
    2.4175    5.7939    1.3747 C   0  0  0  0  0  0  0  0  0  0  0  0
    0.8887    8.3791    0.8644 C   0  0  0  0  0  0  0  0  0  0  0  0
    0.2394    9.5477    0.7101 C   0  0  0  0  0  0  0  0  0  0  0  0
   -0.4424    9.9851   -0.5713 C   0  0  0  0  0  0  0  0  0  0  0  0
    0.1654   10.6044    1.8153 C   0  0  2  0  0  0  0  0  0  0  0  0
    0.1480   11.3078   -1.0651 C   0  0  2  0  0  0  0  0  0  0  0  0
    0.7538   11.9198    1.2790 C   0  0  0  0  0  0  0  0  0  0  0  0
    0.0393   12.3781    0.0160 C   0  0  0  0  0  0  0  0  0  0  0  0
   -0.0263    1.0025   -0.4817 C   0  0  0  0  0  0  0  0  0  0  0  0
    0.5476    1.5852   -1.7755 C   0  0  2  0  0  0  0  0  0  0  0  0
    1.3947    0.4538   -2.3082 C   0  0  0  0  0  0  0  0  0  0  0  0
    1.1210   -0.2017   -3.4303 C   0  0  0  0  0  0  0  0  0  0  0  0
   -0.2349   -2.4660   -4.9055 C   0  0  0  0  0  0  0  0  0  0  0  0
    0.9334   -2.6609   -3.9314 C   0  0  0  0  0  0  0  0  0  0  0  0
    1.7113   -3.9265   -4.3031 C   0  0  0  0  0  0  0  0  0  0  0  0
    1.8746   -1.4291   -3.8767 C   0  0  1  0  0  0  0  0  0  0  0  0
    1.4137    2.8729   -1.6788 C   0  0  2  0  0  0  0  0  0  0  0  0
    1.8861    5.1206   -0.9864 C   0  0  2  0  0  0  0  0  0  0  0  0
    1.2063    3.8217   -0.4725 C   0  0  2  0  0  0  0  0  0  0  0  0
   -0.2907    4.1247   -0.1824 C   0  0  0  0  0  0  0  0  0  0  0  0
    2.5473   -1.1211   -5.2132 C   0  0  0  0  0  0  0  0  0  0  0  0
    2.4733    2.5638   -1.6737 H   0  0  0  0  0  0  0  0  0  0  0  0
    0.8739   10.2989    3.1408 C   0  0  0  0  0  0  0  0  0  0  0  0
   -0.5533   11.7355   -2.2263 O   0  0  0  0  0  0  0  0  0  0  0  0
    2.9680    4.9580   -1.1158 H   0  0  0  0  0  0  0  0  0  0  0  0
    3.0414    3.1778    0.5171 H   0  0  0  0  0  0  0  0  0  0  0  0
    1.6140    2.4371    1.2037 H   0  0  0  0  0  0  0  0  0  0  0  0
    0.3035    5.6769   -2.4096 H   0  0  0  0  0  0  0  0  0  0  0  0
    1.9297    5.9086   -3.0314 H   0  0  0  0  0  0  0  0  0  0  0  0
    0.3471    3.6389   -3.4786 H   0  0  0  0  0  0  0  0  0  0  0  0
    2.1049    3.6420   -3.6217 H   0  0  0  0  0  0  0  0  0  0  0  0
    2.5915    4.1111    2.7127 H   0  0  0  0  0  0  0  0  0  0  0  0
    0.9375    4.4942    2.2818 H   0  0  0  0  0  0  0  0  0  0  0  0
    0.6057    7.5034   -1.0937 H   0  0  0  0  0  0  0  0  0  0  0  0
    3.4993    5.7727    1.2027 H   0  0  0  0  0  0  0  0  0  0  0  0
    2.2507    6.4980    2.1904 H   0  0  0  0  0  0  0  0  0  0  0  0
    1.3439    8.1917    1.8280 H   0  0  0  0  0  0  0  0  0  0  0  0
   -0.3708    9.2561   -1.3827 H   0  0  0  0  0  0  0  0  0  0  0  0
   -1.5190   10.0931   -0.3865 H   0  0  0  0  0  0  0  0  0  0  0  0
   -0.8985   10.7546    2.0459 H   0  0  0  0  0  0  0  0  0  0  0  0
    1.2024   11.1594   -1.3343 H   0  0  0  0  0  0  0  0  0  0  0  0
    1.8219   11.7803    1.0609 H   0  0  0  0  0  0  0  0  0  0  0  0
    0.6813   12.7039    2.0402 H   0  0  0  0  0  0  0  0  0  0  0  0
    0.4671   13.3228   -0.3349 H   0  0  0  0  0  0  0  0  0  0  0  0
   -1.0163   12.5837    0.2380 H   0  0  0  0  0  0  0  0  0  0  0  0
    0.7363    0.9229    0.2931 H   0  0  0  0  0  0  0  0  0  0  0  0
   -0.8776    1.5545   -0.1014 H   0  0  0  0  0  0  0  0  0  0  0  0
   -0.4360   -0.0015   -0.6300 H   0  0  0  0  0  0  0  0  0  0  0  0
   -0.2951    1.7704   -2.4553 H   0  0  0  0  0  0  0  0  0  0  0  0
    2.2098    0.1138   -1.6651 H   0  0  0  0  0  0  0  0  0  0  0  0
    0.2912    0.1385   -4.0497 H   0  0  0  0  0  0  0  0  0  0  0  0
    0.1231   -2.2998   -5.9255 H   0  0  0  0  0  0  0  0  0  0  0  0
   -0.8869   -3.3429   -4.9197 H   0  0  0  0  0  0  0  0  0  0  0  0
   -0.8563   -1.6108   -4.6230 H   0  0  0  0  0  0  0  0  0  0  0  0
    0.5094   -2.8198   -2.9284 H   0  0  0  0  0  0  0  0  0  0  0  0
    2.5244   -4.1066   -3.5917 H   0  0  0  0  0  0  0  0  0  0  0  0
    1.0564   -4.8029   -4.3007 H   0  0  0  0  0  0  0  0  0  0  0  0
    2.1458   -3.8517   -5.3043 H   0  0  0  0  0  0  0  0  0  0  0  0
    2.6672   -1.6477   -3.1454 H   0  0  0  0  0  0  0  0  0  0  0  0
   -0.8214    4.4646   -1.0761 H   0  0  0  0  0  0  0  0  0  0  0  0
   -0.8585    3.2935    0.2053 H   0  0  0  0  0  0  0  0  0  0  0  0
   -0.4207    4.8866    0.5878 H   0  0  0  0  0  0  0  0  0  0  0  0
    3.2079   -0.2528   -5.1284 H   0  0  0  0  0  0  0  0  0  0  0  0
    3.1580   -1.9611   -5.5531 H   0  0  0  0  0  0  0  0  0  0  0  0
    1.8105   -0.8974   -5.9910 H   0  0  0  0  0  0  0  0  0  0  0  0
    0.8326   11.1760    3.7967 H   0  0  0  0  0  0  0  0  0  0  0  0
    0.3972    9.4693    3.6714 H   0  0  0  0  0  0  0  0  0  0  0  0
    1.9327   10.0603    2.9887 H   0  0  0  0  0  0  0  0  0  0  0  0
    0.1136   12.0594   -2.8560 H   0  0  0  0  0  0  0  0  0  0  0  0
  1  5  1  0  0  0  0
  1 32  1  0  0  0  0
  1 33  1  0  0  0  0
  2  6  2  0  0  0  0
  2  7  1  0  0  0  0
  3  4  1  0  0  0  0
  3 34  1  0  0  0  0
  3 35  1  0  0  0  0
  4 36  1  0  0  0  0
  4 37  1  0  0  0  0
  5  7  1  0  0  0  0
  5 38  1  0  0  0  0
  5 39  1  0  0  0  0
  6  8  1  0  0  0  0
  6 40  1  0  0  0  0
  7 41  1  0  0  0  0
  7 42  1  0  0  0  0
  8  9  2  0  0  0  0
  8 43  1  0  0  0  0
  9 10  1  0  0  0  0
  9 11  1  0  0  0  0
 10 12  1  0  0  0  0
 10 44  1  0  0  0  0
 10 45  1  0  0  0  0
 11 13  1  0  0  0  0
 11 46  1  1  0  0  0
 11 29  1  0  0  0  0
 12 14  1  0  0  0  0
 12 47  1  6  0  0  0
 12 30  1  0  0  0  0
 13 14  1  0  0  0  0
 13 48  1  0  0  0  0
 13 49  1  0  0  0  0
 14 50  1  0  0  0  0
 14 51  1  0  0  0  0
 15 52  1  0  0  0  0
 15 53  1  0  0  0  0
 15 54  1  0  0  0  0
 16 17  1  0  0  0  0
 16 55  1  6  0  0  0
 16 15  1  0  0  0  0
 17 18  2  0  0  0  0
 17 56  1  0  0  0  0
 18 22  1  0  0  0  0
 18 57  1  0  0  0  0
 19 58  1  0  0  0  0
 19 59  1  0  0  0  0
 19 60  1  0  0  0  0
 20 19  1  0  0  0  0
 20 21  1  0  0  0  0
 20 61  1  0  0  0  0
 21 62  1  0  0  0  0
 21 63  1  0  0  0  0
 21 64  1  0  0  0  0
 22 20  1  0  0  0  0
 22 27  1  0  0  0  0
 22 65  1  1  0  0  0
 23  4  1  0  0  0  0
 23 16  1  0  0  0  0
 23 28  1  1  0  0  0
 24 25  1  0  0  0  0
 24  2  1  0  0  0  0
 24  3  1  0  0  0  0
 24 31  1  6  0  0  0
 25 23  1  0  0  0  0
 25  1  1  0  0  0  0
 25 26  1  1  0  0  0
 26 66  1  0  0  0  0
 26 67  1  0  0  0  0
 26 68  1  0  0  0  0
 27 69  1  0  0  0  0
 27 70  1  0  0  0  0
 27 71  1  0  0  0  0
 29 72  1  0  0  0  0
 29 73  1  0  0  0  0
 29 74  1  0  0  0  0
 30 75  1  0  0  0  0
M  END
>  <DRUGBANK_ID>
DB01070

>  <SECONDARY_ACCESSION_NUMBERS>
APRD00143

>  <COMMON_NAME>
Dihydrotachysterol

>  <CAS_NUMBER>
67-96-9

>  <UNII>
R5LM3H112R

>  <SYNONYMS>
Anti-tetany substance 10; Dihidrotaquisterol; Dihydrotachysterol; Dihydrotachysterolum

$$$$
