
 OpenBabel10282417153D

 59 63  0  0  0  0  0  0  0  0999 V2000
    1.0516    0.1458    0.1816 O   0  0  0  0  0  0  0  0  0  0  0  0
    2.5856   -3.2759    5.9064 O   0  0  0  0  0  0  0  0  0  0  0  0
    7.0125    3.8029   -1.1275 O   0  0  0  0  0  0  0  0  0  0  0  0
   -2.1723    5.2796    0.6635 O   0  0  0  0  0  0  0  0  0  0  0  0
    3.0335   -1.1043    0.0473 N   0  0  0  0  0  0  0  0  0  0  0  0
    2.1665   -4.8276    4.2447 N   0  0  0  0  0  0  0  0  0  0  0  0
    2.8663    2.6986   -0.2297 N   0  0  0  0  0  0  0  0  0  0  0  0
    4.0439    3.3799   -0.5813 N   0  0  0  0  0  0  0  0  0  0  0  0
    7.3698    1.6031   -1.1017 N   0  0  0  0  0  0  0  0  0  0  0  0
    5.1266   -0.1253   -0.6846 C   0  0  0  0  0  0  0  0  0  0  0  0
    4.1499   -1.2405   -0.8645 C   0  0  0  0  0  0  0  0  0  0  0  0
    4.4541    1.1760   -0.5371 C   0  0  0  0  0  0  0  0  0  0  0  0
    3.1100    1.3100   -0.2178 C   0  0  0  0  0  0  0  0  0  0  0  0
    1.9493   -6.2197    3.8345 C   0  0  0  0  0  0  0  0  0  0  0  0
    1.3910   -7.0996    4.9399 C   0  0  0  0  0  0  0  0  0  0  0  0
    2.2485   -6.9436    6.1786 C   0  0  0  0  0  0  0  0  0  0  0  0
    2.2357   -5.5013    6.6469 C   0  0  0  0  0  0  0  0  0  0  0  0
    2.2757    0.1181    0.0169 C   0  0  0  0  0  0  0  0  0  0  0  0
    2.8694   -2.1012    1.0513 C   0  0  0  0  0  0  0  0  0  0  0  0
    2.4289   -3.9052    3.1871 C   0  0  0  0  0  0  0  0  0  0  0  0
    2.3797   -4.4434    5.5639 C   0  0  0  0  0  0  0  0  0  0  0  0
    5.0303    2.4473   -0.6861 C   0  0  0  0  0  0  0  0  0  0  0  0
    3.9023   -2.4084    1.9619 C   0  0  0  0  0  0  0  0  0  0  0  0
    1.6596   -2.7733    1.1704 C   0  0  0  0  0  0  0  0  0  0  0  0
    3.6693   -3.2756    3.0480 C   0  0  0  0  0  0  0  0  0  0  0  0
    1.4337   -3.6475    2.2413 C   0  0  0  0  0  0  0  0  0  0  0  0
    1.6237    3.4370    0.0228 C   0  0  0  0  0  0  0  0  0  0  0  0
    6.5025    2.6922   -0.9806 C   0  0  0  0  0  0  0  0  0  0  0  0
    1.1191    4.3731   -0.9057 C   0  0  0  0  0  0  0  0  0  0  0  0
    0.8460    3.2228    1.1723 C   0  0  0  0  0  0  0  0  0  0  0  0
   -0.1615    4.9858   -0.7394 C   0  0  0  0  0  0  0  0  0  0  0  0
   -0.4284    3.8417    1.3333 C   0  0  0  0  0  0  0  0  0  0  0  0
   -0.9434    4.7323    0.3845 C   0  0  0  0  0  0  0  0  0  0  0  0
   -2.6903    6.2677   -0.2315 C   0  0  0  0  0  0  0  0  0  0  0  0
    7.1963    0.6382   -0.8895 H   0  0  0  0  0  0  0  0  0  0  0  0
    8.3379    1.7792   -1.3372 H   0  0  0  0  0  0  0  0  0  0  0  0
    5.7459   -0.2931    0.2034 H   0  0  0  0  0  0  0  0  0  0  0  0
    5.7210   -0.1300   -1.6009 H   0  0  0  0  0  0  0  0  0  0  0  0
    4.6698   -2.2019   -0.7843 H   0  0  0  0  0  0  0  0  0  0  0  0
    3.7402   -1.1787   -1.8825 H   0  0  0  0  0  0  0  0  0  0  0  0
    2.9174   -6.6185    3.5023 H   0  0  0  0  0  0  0  0  0  0  0  0
    1.2670   -6.2544    2.9783 H   0  0  0  0  0  0  0  0  0  0  0  0
    1.3824   -8.1473    4.6176 H   0  0  0  0  0  0  0  0  0  0  0  0
    0.3551   -6.8161    5.1596 H   0  0  0  0  0  0  0  0  0  0  0  0
    3.2776   -7.2554    5.9631 H   0  0  0  0  0  0  0  0  0  0  0  0
    1.8781   -7.5953    6.9785 H   0  0  0  0  0  0  0  0  0  0  0  0
    3.0596   -5.3566    7.3555 H   0  0  0  0  0  0  0  0  0  0  0  0
    1.2996   -5.2983    7.1816 H   0  0  0  0  0  0  0  0  0  0  0  0
    4.8819   -1.9413    1.8917 H   0  0  0  0  0  0  0  0  0  0  0  0
    0.8868   -2.6355    0.4207 H   0  0  0  0  0  0  0  0  0  0  0  0
    4.4543   -3.4465    3.7835 H   0  0  0  0  0  0  0  0  0  0  0  0
    0.4412   -4.0667    2.3744 H   0  0  0  0  0  0  0  0  0  0  0  0
    1.6711    4.6147   -1.8107 H   0  0  0  0  0  0  0  0  0  0  0  0
    1.2212    2.6231    1.9975 H   0  0  0  0  0  0  0  0  0  0  0  0
   -0.5359    5.6383   -1.5243 H   0  0  0  0  0  0  0  0  0  0  0  0
   -1.0311    3.6090    2.2122 H   0  0  0  0  0  0  0  0  0  0  0  0
   -2.0083    7.1187   -0.3349 H   0  0  0  0  0  0  0  0  0  0  0  0
   -2.9216    5.8284   -1.2071 H   0  0  0  0  0  0  0  0  0  0  0  0
   -3.6315    6.6607    0.1769 H   0  0  0  0  0  0  0  0  0  0  0  0
  1 18  2  0  0  0  0
  2 21  2  0  0  0  0
  3 28  2  0  0  0  0
  4 33  1  0  0  0  0
  4 34  1  0  0  0  0
  5 11  1  0  0  0  0
  5 18  1  0  0  0  0
  5 19  1  0  0  0  0
  6 14  1  0  0  0  0
  6 20  1  0  0  0  0
  6 21  1  0  0  0  0
  7  8  1  0  0  0  0
  7 13  1  0  0  0  0
  7 27  1  0  0  0  0
  8 22  2  0  0  0  0
  9 28  1  0  0  0  0
  9 35  1  0  0  0  0
  9 36  1  0  0  0  0
 10 11  1  0  0  0  0
 10 12  1  0  0  0  0
 10 37  1  0  0  0  0
 10 38  1  0  0  0  0
 11 39  1  0  0  0  0
 11 40  1  0  0  0  0
 12 13  2  0  0  0  0
 12 22  1  0  0  0  0
 13 18  1  0  0  0  0
 14 15  1  0  0  0  0
 14 41  1  0  0  0  0
 14 42  1  0  0  0  0
 15 16  1  0  0  0  0
 15 43  1  0  0  0  0
 15 44  1  0  0  0  0
 16 17  1  0  0  0  0
 16 45  1  0  0  0  0
 16 46  1  0  0  0  0
 17 21  1  0  0  0  0
 17 47  1  0  0  0  0
 17 48  1  0  0  0  0
 19 23  2  0  0  0  0
 19 24  1  0  0  0  0
 20 25  2  0  0  0  0
 20 26  1  0  0  0  0
 22 28  1  0  0  0  0
 23 25  1  0  0  0  0
 23 49  1  0  0  0  0
 24 26  2  0  0  0  0
 24 50  1  0  0  0  0
 25 51  1  0  0  0  0
 26 52  1  0  0  0  0
 27 29  2  0  0  0  0
 27 30  1  0  0  0  0
 29 31  1  0  0  0  0
 29 53  1  0  0  0  0
 30 32  2  0  0  0  0
 30 54  1  0  0  0  0
 31 33  2  0  0  0  0
 31 55  1  0  0  0  0
 32 33  1  0  0  0  0
 32 56  1  0  0  0  0
 34 57  1  0  0  0  0
 34 58  1  0  0  0  0
 34 59  1  0  0  0  0
M  END
>  <DRUGBANK_ID>
DB06605

>  <SECONDARY_ACCESSION_NUMBERS>
DB07828

>  <COMMON_NAME>
Apixaban

>  <CAS_NUMBER>
503612-47-3

>  <UNII>
3Z9Y7UWC1J

>  <SYNONYMS>
apixab√°n; Apixaban; apixabanum

$$$$
