
 OpenBabel10282417193D

 60 63  0  0  0  0  0  0  0  0999 V2000
    1.0611   -0.0898   -0.0133 C   0  0  0  0  0  0  0  0  0  0  0  0
    0.4866    1.2456   -0.4998 C   0  0  0  0  0  0  0  0  0  0  0  0
    1.0122    1.5388   -1.9057 C   0  0  0  0  0  0  0  0  0  0  0  0
   -1.0037    1.2036   -0.4577 C   0  0  0  0  0  0  0  0  0  0  0  0
   -1.6725    0.0132   -0.3283 N   0  0  0  0  0  0  0  0  0  0  0  0
   -2.9214    0.3806   -0.3423 C   0  0  0  0  0  0  0  0  0  0  0  0
   -3.0729    1.7414   -0.4934 O   0  0  0  0  0  0  0  0  0  0  0  0
   -1.7819    2.2912   -0.5272 N   0  0  0  0  0  0  0  0  0  0  0  0
   -4.0098   -0.3990   -0.4280 N   0  0  0  0  0  0  0  0  0  0  0  0
   -4.8614   -0.2280   -1.5502 C   0  0  0  0  0  0  0  0  0  0  0  0
   -6.1212    0.3100   -0.9422 C   0  0  0  0  0  0  0  0  0  0  0  0
   -6.8756   -0.7875   -0.1911 C   0  0  0  0  0  0  0  0  0  0  0  0
   -5.9323   -1.0524    1.0190 C   0  0  0  0  0  0  0  0  0  0  0  0
   -4.4622   -1.3657    0.5595 C   0  0  0  0  0  0  0  0  0  0  0  0
   -8.3143   -0.3170    0.1563 C   0  0  0  0  0  0  0  0  0  0  0  0
   -9.3058   -0.3459   -0.9323 O   0  0  0  0  0  0  0  0  0  0  0  0
   -9.1000    0.4763   -2.0060 C   0  0  0  0  0  0  0  0  0  0  0  0
   -8.1269    0.1863   -2.9386 C   0  0  0  0  0  0  0  0  0  0  0  0
   -7.5979    1.2414   -3.6851 C   0  0  0  0  0  0  0  0  0  0  0  0
   -8.3180    2.4148   -3.8269 C   0  0  0  0  0  0  0  0  0  0  0  0
   -9.4960    2.5785   -3.1814 N   0  0  0  0  0  0  0  0  0  0  0  0
   -9.8462    1.6140   -2.2666 C   0  0  0  0  0  0  0  0  0  0  0  0
   -7.8978    3.3651   -4.8698 C   0  0  0  0  0  0  0  0  0  0  0  0
   -7.5405    2.8312   -6.1289 C   0  0  0  0  0  0  0  0  0  0  0  0
   -7.1339    3.6297   -7.1925 C   0  0  0  0  0  0  0  0  0  0  0  0
   -7.0818    5.0056   -7.0166 C   0  0  0  0  0  0  0  0  0  0  0  0
   -7.4564    5.5742   -5.7892 C   0  0  0  0  0  0  0  0  0  0  0  0
   -7.8211    4.7528   -4.7066 C   0  0  0  0  0  0  0  0  0  0  0  0
   -6.4415    6.0694   -8.2909 S   0  0  0  0  0  0  0  0  0  0  0  0
   -7.5554    6.9020   -8.7348 O   0  0  0  0  0  0  0  0  0  0  0  0
   -5.2334    6.6535   -7.7645 O   0  0  0  0  0  0  0  0  0  0  0  0
   -5.9762    5.0373   -9.6596 C   0  0  0  0  0  0  0  0  0  0  0  0
    0.7362   -0.9141   -0.6615 H   0  0  0  0  0  0  0  0  0  0  0  0
    0.7118   -0.3135    1.0015 H   0  0  0  0  0  0  0  0  0  0  0  0
    2.1534   -0.0776   -0.0073 H   0  0  0  0  0  0  0  0  0  0  0  0
    0.8368    2.0365    0.1757 H   0  0  0  0  0  0  0  0  0  0  0  0
    0.6761    0.7801   -2.6218 H   0  0  0  0  0  0  0  0  0  0  0  0
    0.6670    2.5135   -2.2668 H   0  0  0  0  0  0  0  0  0  0  0  0
    2.1081    1.5478   -1.9147 H   0  0  0  0  0  0  0  0  0  0  0  0
   -5.0194   -1.1899   -2.0608 H   0  0  0  0  0  0  0  0  0  0  0  0
   -4.4784    0.4578   -2.3166 H   0  0  0  0  0  0  0  0  0  0  0  0
   -6.5905    0.7572   -1.7614 H   0  0  0  0  0  0  0  0  0  0  0  0
   -5.9914    1.1874   -0.3014 H   0  0  0  0  0  0  0  0  0  0  0  0
   -6.9671   -1.7195   -0.7699 H   0  0  0  0  0  0  0  0  0  0  0  0
   -5.9182   -0.1481    1.6419 H   0  0  0  0  0  0  0  0  0  0  0  0
   -6.3104   -1.8685    1.6441 H   0  0  0  0  0  0  0  0  0  0  0  0
   -3.7938   -1.4106    1.4224 H   0  0  0  0  0  0  0  0  0  0  0  0
   -4.4668   -2.3504    0.0759 H   0  0  0  0  0  0  0  0  0  0  0  0
   -8.7176   -1.0063    0.9134 H   0  0  0  0  0  0  0  0  0  0  0  0
   -8.2986    0.6700    0.6360 H   0  0  0  0  0  0  0  0  0  0  0  0
   -7.5711   -0.7442   -2.8778 H   0  0  0  0  0  0  0  0  0  0  0  0
   -6.5773    1.1886   -4.0667 H   0  0  0  0  0  0  0  0  0  0  0  0
  -10.7900    1.7833   -1.7589 H   0  0  0  0  0  0  0  0  0  0  0  0
   -7.5792    1.7529   -6.2839 H   0  0  0  0  0  0  0  0  0  0  0  0
   -6.8769    3.1393   -8.1234 H   0  0  0  0  0  0  0  0  0  0  0  0
   -7.4640    6.6568   -5.6705 H   0  0  0  0  0  0  0  0  0  0  0  0
   -8.0242    5.2038   -3.7364 H   0  0  0  0  0  0  0  0  0  0  0  0
   -5.2011    4.3370   -9.3390 H   0  0  0  0  0  0  0  0  0  0  0  0
   -6.8526    4.5085  -10.0385 H   0  0  0  0  0  0  0  0  0  0  0  0
   -5.5732    5.6762  -10.4493 H   0  0  0  0  0  0  0  0  0  0  0  0
  1  2  1  0  0  0  0
  1 33  1  0  0  0  0
  1 34  1  0  0  0  0
  1 35  1  0  0  0  0
  2  3  1  0  0  0  0
  2  4  1  0  0  0  0
  2 36  1  0  0  0  0
  3 37  1  0  0  0  0
  3 38  1  0  0  0  0
  3 39  1  0  0  0  0
  4  5  1  0  0  0  0
  4  8  2  0  0  0  0
  5  6  2  0  0  0  0
  6  7  1  0  0  0  0
  6  9  1  0  0  0  0
  7  8  1  0  0  0  0
  9 10  1  0  0  0  0
  9 14  1  0  0  0  0
 10 11  1  0  0  0  0
 10 40  1  0  0  0  0
 10 41  1  0  0  0  0
 11 12  1  0  0  0  0
 11 42  1  0  0  0  0
 11 43  1  0  0  0  0
 12 13  1  0  0  0  0
 12 15  1  0  0  0  0
 12 44  1  0  0  0  0
 13 14  1  0  0  0  0
 13 45  1  0  0  0  0
 13 46  1  0  0  0  0
 14 47  1  0  0  0  0
 14 48  1  0  0  0  0
 15 16  1  0  0  0  0
 15 49  1  0  0  0  0
 15 50  1  0  0  0  0
 16 17  1  0  0  0  0
 17 18  2  0  0  0  0
 17 22  1  0  0  0  0
 18 19  1  0  0  0  0
 18 51  1  0  0  0  0
 19 20  2  0  0  0  0
 19 52  1  0  0  0  0
 20 21  1  0  0  0  0
 20 23  1  0  0  0  0
 21 22  2  0  0  0  0
 22 53  1  0  0  0  0
 23 24  2  0  0  0  0
 23 28  1  0  0  0  0
 24 25  1  0  0  0  0
 24 54  1  0  0  0  0
 25 26  2  0  0  0  0
 25 55  1  0  0  0  0
 26 27  1  0  0  0  0
 26 29  1  0  0  0  0
 27 28  2  0  0  0  0
 27 56  1  0  0  0  0
 28 57  1  0  0  0  0
 29 30  2  0  0  0  0
 29 31  2  0  0  0  0
 29 32  1  0  0  0  0
 32 58  1  0  0  0  0
 32 59  1  0  0  0  0
 32 60  1  0  0  0  0
M  END
>  <DRUGBANK_ID>
DB12627

>  <COMMON_NAME>
GSK-1292263

>  <CAS_NUMBER>
1032823-75-8

>  <UNII>
R1J57STA6O

$$$$
