
 OpenBabel10282417143D

 22 22  0  0  0  0  0  0  0  0999 V2000
    0.9049   -0.0255    0.0250 N   0  0  0  0  0  0  0  0  0  0  0  0
    0.2531   -0.9355    0.8728 C   0  0  0  0  0  0  0  0  0  0  0  0
    0.7378   -1.1575    2.1586 C   0  0  0  0  0  0  0  0  0  0  0  0
   -0.0305   -1.9084    3.0643 C   0  0  0  0  0  0  0  0  0  0  0  0
   -1.2719   -2.4584    2.6866 C   0  0  0  0  0  0  0  0  0  0  0  0
   -1.7244   -2.2460    1.3872 C   0  0  0  0  0  0  0  0  0  0  0  0
   -0.9182   -1.5737    0.4745 C   0  0  0  0  0  0  0  0  0  0  0  0
   -2.0126   -3.3055    3.6654 C   0  0  0  0  0  0  0  0  0  0  0  0
   -3.1690   -3.8581    3.2475 O   0  0  0  0  0  0  0  0  0  0  0  0
   -1.5732   -3.5219    4.7893 O   0  0  0  0  0  0  0  0  0  0  0  0
    0.3010    0.9532   -0.7369 C   0  0  0  0  0  0  0  0  0  0  0  0
    0.9972    1.7671   -1.3457 O   0  0  0  0  0  0  0  0  0  0  0  0
   -1.2075    1.0769   -0.7391 C   0  0  0  0  0  0  0  0  0  0  0  0
    1.8951    0.1497    0.1618 H   0  0  0  0  0  0  0  0  0  0  0  0
    1.6723   -0.7115    2.4926 H   0  0  0  0  0  0  0  0  0  0  0  0
    0.3344   -2.0407    4.0831 H   0  0  0  0  0  0  0  0  0  0  0  0
   -2.6904   -2.5748    1.0289 H   0  0  0  0  0  0  0  0  0  0  0  0
   -1.2239   -1.5716   -0.5663 H   0  0  0  0  0  0  0  0  0  0  0  0
   -3.4720   -3.6966    2.3393 H   0  0  0  0  0  0  0  0  0  0  0  0
   -1.6737    0.2146   -1.2129 H   0  0  0  0  0  0  0  0  0  0  0  0
   -1.5791    1.2118    0.2822 H   0  0  0  0  0  0  0  0  0  0  0  0
   -1.5160    1.9398   -1.3327 H   0  0  0  0  0  0  0  0  0  0  0  0
  1  2  1  0  0  0  0
  1 14  1  0  0  0  0
  2  3  2  0  0  0  0
  2  7  1  0  0  0  0
  3  4  1  0  0  0  0
  3 15  1  0  0  0  0
  4  5  2  0  0  0  0
  4 16  1  0  0  0  0
  5  6  1  0  0  0  0
  5  8  1  0  0  0  0
  6  7  2  0  0  0  0
  6 17  1  0  0  0  0
  7 18  1  0  0  0  0
  8  9  1  0  0  0  0
  8 10  2  0  0  0  0
  9 19  1  0  0  0  0
 11 12  2  0  0  0  0
 11  1  1  0  0  0  0
 13 11  1  0  0  0  0
 13 20  1  0  0  0  0
 13 21  1  0  0  0  0
 13 22  1  0  0  0  0
M  END
>  <DRUGBANK_ID>
DB04500

>  <SECONDARY_ACCESSION_NUMBERS>
EXPT03145

>  <COMMON_NAME>
Acedoben

>  <CAS_NUMBER>
556-08-1

>  <UNII>
04Z20NMK31

>  <SYNONYMS>
4-(Acetylamino)benzoic acid; 4-acetamidobenzoic acid; 4-Acetylaminobenzoic acid; 4-Carboxyacetanilide; Acedoben; Acedobene; Acedobenum; N-Acetyl-p-aminobenzoic acid; N-Acetyl-PABA; p-Acetamidobenzoic acid; p-Acetoaminobenzoic acid; p-Acetylaminobenzoic acid; PAAB; Para acetamido benzoic acid

$$$$
