
 OpenBabel10282417203D

  1  0  0  0  0  0  0  0  0  0999 V2000
    1.0048    0.0817   -0.0575 Ag  0  0  0  0  0  0  0  0  0  0  0  0
M  END
>  <DRUGBANK_ID>
DB12965

>  <COMMON_NAME>
Silver

>  <CAS_NUMBER>
7440-22-4

>  <UNII>
3M4G523W1G

>  <SYNONYMS>
Argentum metallicum; Colloidal silver; Nanosilver; Silver colloidal; Silver nanoparticles; Silver, colloidal

$$$$
