
 OpenBabel10282417103D

119126  0  0  1  0  0  0  0  0999 V2000
    1.2047   -0.8821    0.7173 O   0  0  0  0  0  0  0  0  0  0  0  0
   -0.1166   -1.0340   -0.6226 C   0  0  2  0  0  0  0  0  0  0  0  0
   -1.6020   -0.5033   -0.5687 C   0  0  0  0  0  0  0  0  0  0  0  0
   -2.0031   -1.6559   -1.4043 C   0  0  2  0  0  0  0  0  0  0  0  0
   -1.4525   -2.9434   -0.6293 C   0  0  2  0  0  0  0  0  0  0  0  0
   -0.0105   -3.0873   -0.7023 C   0  0  0  0  0  0  0  0  0  0  0  0
    0.0534   -2.0615   -1.7574 C   0  0  0  0  0  0  0  0  0  0  0  0
   -3.4065   -1.6149   -1.5072 C   0  0  0  0  0  0  0  0  0  0  0  0
   -3.8042   -2.9715   -2.1051 C   0  0  0  0  0  0  0  0  0  0  0  0
   -3.2655   -4.3574   -1.2680 C   0  0  2  0  0  0  0  0  0  0  0  0
   -1.7559   -4.1963   -1.3458 C   0  0  2  0  0  0  0  0  0  0  0  0
   -4.0582   -6.1026   -1.1276 C   0  0  2  0  0  0  0  0  0  0  0  0
   -2.8135   -6.6775   -1.2307 C   0  0  2  0  0  0  0  0  0  0  0  0
   -1.3734   -6.5037   -1.2387 C   0  0  1  0  0  0  0  0  0  0  0  0
   -1.0207   -5.2721   -0.5992 C   0  0  0  0  0  0  0  0  0  0  0  0
   -3.9224   -8.0791   -0.4547 C   0  0  0  0  0  0  0  0  0  0  0  0
   -3.0993   -8.9055   -1.4754 C   0  0  0  0  0  0  0  0  0  0  0  0
   -3.4418   -7.7353   -2.2081 C   0  0  2  0  0  0  0  0  0  0  0  0
   -3.0438   -7.7405   -3.5732 C   0  0  0  0  0  0  0  0  0  0  0  0
   -3.3756   -8.7193   -4.3914 C   0  0  0  0  0  0  0  0  0  0  0  0
   -2.7280   -8.3361   -5.6211 C   0  0  0  0  0  0  0  0  0  0  0  0
   -2.1331   -7.1203   -5.5042 O   0  0  0  0  0  0  0  0  0  0  0  0
   -2.3015   -6.6606   -4.1899 C   0  0  0  0  0  0  0  0  0  0  0  0
   -2.7362   -9.0107   -6.6288 O   0  0  0  0  0  0  0  0  0  0  0  0
   -3.4108   -6.2006    0.4583 C   0  0  0  0  0  0  0  0  0  0  0  0
   -5.0193   -5.6302   -2.0122 O   0  0  0  0  0  0  0  0  0  0  0  0
   -3.5478   -3.9546   -0.3005 H   0  0  0  0  0  0  0  0  0  0  0  0
   -1.6925   -2.7515    0.8763 C   0  0  0  0  0  0  0  0  0  0  0  0
   -1.6289   -1.4808   -2.4695 H   0  0  0  0  0  0  0  0  0  0  0  0
   -1.3435   -4.0602   -2.3808 H   0  0  0  0  0  0  0  0  0  0  0  0
    3.2487   -0.4599    0.8273 C   0  0  2  0  0  0  0  0  0  0  0  0
    3.5930    1.1866   -0.4316 O   0  0  0  0  0  0  0  0  0  0  0  0
    3.1654    1.1949   -2.4329 C   0  0  1  0  0  0  0  0  0  0  0  0
    3.6550   -0.5421   -3.1614 C   0  0  2  0  0  0  0  0  0  0  0  0
    3.7630   -2.1075   -2.1799 C   0  0  2  0  0  0  0  0  0  0  0  0
    3.8519   -2.3017   -0.0964 C   0  0  0  0  0  0  0  0  0  0  0  0
    5.0270   -0.5353   -3.0801 O   0  0  0  0  0  0  0  0  0  0  0  0
    5.3419   -0.2805   -1.7408 C   0  0  2  0  0  0  0  0  0  0  0  0
    4.5755   -0.7791   -0.6850 O   0  0  0  0  0  0  0  0  0  0  0  0
    3.7069   -3.4765   -2.5639 O   0  0  0  0  0  0  0  0  0  0  0  0
    4.8231    0.9616   -1.4753 C   0  0  0  0  0  0  0  0  0  0  0  0
    2.8868    0.1753   -1.1699 C   0  0  1  0  0  0  0  0  0  0  0  0
    2.0692    0.7545    0.1683 C   0  0  1  0  0  0  0  0  0  0  0  0
    2.6523   -0.9895   -0.6470 C   0  0  1  0  0  0  0  0  0  0  0  0
    1.8758    1.6170   -1.1745 O   0  0  0  0  0  0  0  0  0  0  0  0
    0.8720    2.4784    1.6786 O   0  0  0  0  0  0  0  0  0  0  0  0
    2.3301    2.5147    1.7404 C   0  0  1  0  0  0  0  0  0  0  0  0
    2.9609    1.3347    1.4767 O   0  0  0  0  0  0  0  0  0  0  0  0
    0.2413    2.4719    0.3904 C   0  0  1  0  0  0  0  0  0  0  0  0
    0.9446    3.4019   -0.6323 C   0  0  2  0  0  0  0  0  0  0  0  0
    2.6774    3.5109   -0.6355 C   0  0  2  0  0  0  0  0  0  0  0  0
    3.1597    3.3940    0.7918 C   0  0  0  0  0  0  0  0  0  0  0  0
    0.6144    4.6423   -0.1329 O   0  0  0  0  0  0  0  0  0  0  0  0
    3.1274    4.1895   -1.7865 O   0  0  0  0  0  0  0  0  0  0  0  0
    1.2049    1.0226   -3.0667 C   0  0  0  0  0  0  0  0  0  0  0  0
    2.0699   -2.2222   -1.1271 C   0  0  0  0  0  0  0  0  0  0  0  0
   -0.0500    1.1819   -0.1347 C   0  0  0  0  0  0  0  0  0  0  0  0
   -0.7482   -7.5344   -0.5261 O   0  0  0  0  0  0  0  0  0  0  0  0
   -0.2724   -0.3120   -1.4285 H   0  0  0  0  0  0  0  0  0  0  0  0
   -1.8335    0.4808   -1.1263 H   0  0  0  0  0  0  0  0  0  0  0  0
   -1.9464   -0.3043    0.4347 H   0  0  0  0  0  0  0  0  0  0  0  0
    0.6777   -3.8755   -1.0128 H   0  0  0  0  0  0  0  0  0  0  0  0
    0.3777   -2.9515    0.3815 H   0  0  0  0  0  0  0  0  0  0  0  0
    0.2697   -2.2053   -2.8620 H   0  0  0  0  0  0  0  0  0  0  0  0
    0.6453   -1.2812   -2.0950 H   0  0  0  0  0  0  0  0  0  0  0  0
   -3.6765   -1.4583   -0.4715 H   0  0  0  0  0  0  0  0  0  0  0  0
   -3.5574   -0.7029   -2.1132 H   0  0  0  0  0  0  0  0  0  0  0  0
   -4.8619   -2.8322   -2.0282 H   0  0  0  0  0  0  0  0  0  0  0  0
   -3.4214   -2.9212   -3.1414 H   0  0  0  0  0  0  0  0  0  0  0  0
   -0.9548   -6.4519   -2.2129 H   0  0  0  0  0  0  0  0  0  0  0  0
   -1.2638   -5.2322    0.4514 H   0  0  0  0  0  0  0  0  0  0  0  0
    0.0639   -5.2999   -0.6077 H   0  0  0  0  0  0  0  0  0  0  0  0
   -3.6438   -9.0209    0.2162 H   0  0  0  0  0  0  0  0  0  0  0  0
   -3.2990   -8.0711    0.5039 H   0  0  0  0  0  0  0  0  0  0  0  0
   -3.5174   -9.8724   -1.7500 H   0  0  0  0  0  0  0  0  0  0  0  0
   -2.0186   -9.0430   -1.3187 H   0  0  0  0  0  0  0  0  0  0  0  0
   -4.5809   -7.7858   -2.2444 H   0  0  0  0  0  0  0  0  0  0  0  0
   -3.9531   -9.5971   -4.1601 H   0  0  0  0  0  0  0  0  0  0  0  0
   -1.2984   -6.5462   -3.8228 H   0  0  0  0  0  0  0  0  0  0  0  0
   -2.8265   -5.7040   -4.1168 H   0  0  0  0  0  0  0  0  0  0  0  0
   -3.1601   -5.2270    0.8080 H   0  0  0  0  0  0  0  0  0  0  0  0
   -4.5728   -6.3478    0.6032 H   0  0  0  0  0  0  0  0  0  0  0  0
   -2.9157   -6.7607    1.2132 H   0  0  0  0  0  0  0  0  0  0  0  0
   -5.4968   -6.2301   -2.5683 H   0  0  0  0  0  0  0  0  0  0  0  0
   -1.2493   -3.5603    1.4397 H   0  0  0  0  0  0  0  0  0  0  0  0
   -1.2322   -1.8520    1.3329 H   0  0  0  0  0  0  0  0  0  0  0  0
   -2.7511   -2.6621    0.9920 H   0  0  0  0  0  0  0  0  0  0  0  0
    2.6992   -0.3887    1.8313 H   0  0  0  0  0  0  0  0  0  0  0  0
    3.3132    2.0231   -3.1893 H   0  0  0  0  0  0  0  0  0  0  0  0
    3.0409   -0.7600   -4.1316 H   0  0  0  0  0  0  0  0  0  0  0  0
    2.6380   -1.9660   -2.9503 H   0  0  0  0  0  0  0  0  0  0  0  0
    4.5623   -2.0758    0.6701 H   0  0  0  0  0  0  0  0  0  0  0  0
    3.1930   -3.1953    0.2314 H   0  0  0  0  0  0  0  0  0  0  0  0
    6.3592   -0.4204   -1.4814 H   0  0  0  0  0  0  0  0  0  0  0  0
    3.3572   -3.8394   -1.7148 H   0  0  0  0  0  0  0  0  0  0  0  0
    5.3328    1.4282   -0.4050 H   0  0  0  0  0  0  0  0  0  0  0  0
    4.9284    1.9299   -2.0914 H   0  0  0  0  0  0  0  0  0  0  0  0
    2.1659   -0.0255   -1.9679 H   0  0  0  0  0  0  0  0  0  0  0  0
    1.3939    0.6577    0.9631 H   0  0  0  0  0  0  0  0  0  0  0  0
    2.4355   -1.8344    0.5786 H   0  0  0  0  0  0  0  0  0  0  0  0
    2.0116    2.3040   -1.8537 H   0  0  0  0  0  0  0  0  0  0  0  0
    2.6179    2.5438    2.7925 H   0  0  0  0  0  0  0  0  0  0  0  0
   -0.8656    2.5222    0.4016 H   0  0  0  0  0  0  0  0  0  0  0  0
    0.5063    3.2399   -1.6367 H   0  0  0  0  0  0  0  0  0  0  0  0
    3.3905    2.8360   -1.0883 H   0  0  0  0  0  0  0  0  0  0  0  0
    3.0155    4.3649    1.1487 H   0  0  0  0  0  0  0  0  0  0  0  0
    4.2180    3.0284    0.7780 H   0  0  0  0  0  0  0  0  0  0  0  0
    0.9968    4.4505    0.7455 H   0  0  0  0  0  0  0  0  0  0  0  0
    2.7270    5.0264   -1.6220 H   0  0  0  0  0  0  0  0  0  0  0  0
    0.4570    1.7760   -2.7362 H   0  0  0  0  0  0  0  0  0  0  0  0
    0.7936    0.5654   -3.9682 H   0  0  0  0  0  0  0  0  0  0  0  0
    0.7099    0.2085   -2.5831 H   0  0  0  0  0  0  0  0  0  0  0  0
    1.8637   -2.9501   -1.9083 H   0  0  0  0  0  0  0  0  0  0  0  0
    1.4242   -2.2016   -0.3990 H   0  0  0  0  0  0  0  0  0  0  0  0
    1.9625   -1.4557   -1.7628 H   0  0  0  0  0  0  0  0  0  0  0  0
   -0.3447    0.5062    0.6990 H   0  0  0  0  0  0  0  0  0  0  0  0
   -0.3107    1.3416   -1.1548 H   0  0  0  0  0  0  0  0  0  0  0  0
    0.6375    0.5501   -0.6726 H   0  0  0  0  0  0  0  0  0  0  0  0
   -1.2365   -7.6021    0.3110 H   0  0  0  0  0  0  0  0  0  0  0  0
  2  1  1  0  0  0  0
  2  3  1  0  0  0  0
  2  7  1  0  0  0  0
  2 59  1  6  0  0  0
  3  4  1  0  0  0  0
  3 60  1  0  0  0  0
  3 61  1  0  0  0  0
  4  5  1  0  0  0  0
  4  8  1  0  0  0  0
  4 29  1  1  0  0  0
  5  6  1  0  0  0  0
  5 11  1  0  0  0  0
  5 28  1  1  0  0  0
  6  7  1  0  0  0  0
  6 62  1  0  0  0  0
  6 63  1  0  0  0  0
  7 64  1  0  0  0  0
  7 65  1  0  0  0  0
  8  9  1  0  0  0  0
  8 66  1  0  0  0  0
  8 67  1  0  0  0  0
  9 10  1  0  0  0  0
  9 68  1  0  0  0  0
  9 69  1  0  0  0  0
 10 11  1  0  0  0  0
 10 12  1  0  0  0  0
 10 27  1  1  0  0  0
 11 15  1  0  0  0  0
 11 30  1  6  0  0  0
 12 13  1  0  0  0  0
 12 16  1  0  0  0  0
 12 26  1  1  0  0  0
 13 14  1  0  0  0  0
 13 18  1  0  0  0  0
 13 25  1  1  0  0  0
 14 15  1  0  0  0  0
 14 58  1  0  0  0  0
 14 70  1  6  0  0  0
 15 71  1  0  0  0  0
 15 72  1  0  0  0  0
 16 17  1  0  0  0  0
 16 73  1  0  0  0  0
 16 74  1  0  0  0  0
 17 18  1  0  0  0  0
 17 75  1  0  0  0  0
 17 76  1  0  0  0  0
 18 77  1  1  0  0  0
 18 19  1  0  0  0  0
 19 20  2  0  0  0  0
 19 23  1  0  0  0  0
 20 21  1  0  0  0  0
 20 78  1  0  0  0  0
 21 22  1  0  0  0  0
 21 24  2  0  0  0  0
 22 23  1  0  0  0  0
 23 79  1  0  0  0  0
 23 80  1  0  0  0  0
 25 81  1  0  0  0  0
 25 82  1  0  0  0  0
 25 83  1  0  0  0  0
 26 84  1  0  0  0  0
 28 85  1  0  0  0  0
 28 86  1  0  0  0  0
 28 87  1  0  0  0  0
 31  1  1  0  0  0  0
 31 32  1  0  0  0  0
 31 36  1  0  0  0  0
 31 88  1  1  0  0  0
 32 33  1  0  0  0  0
 33 34  1  0  0  0  0
 33 55  1  0  0  0  0
 33 89  1  6  0  0  0
 34 35  1  0  0  0  0
 34 90  1  6  0  0  0
 34 37  1  0  0  0  0
 35 36  1  0  0  0  0
 35 91  1  1  0  0  0
 35 40  1  0  0  0  0
 36 92  1  0  0  0  0
 36 93  1  0  0  0  0
 38 37  1  0  0  0  0
 38 39  1  0  0  0  0
 38 41  1  0  0  0  0
 38 94  1  1  0  0  0
 39 44  1  0  0  0  0
 40 95  1  0  0  0  0
 41 42  1  0  0  0  0
 41 96  1  0  0  0  0
 41 97  1  0  0  0  0
 42 43  1  0  0  0  0
 42 98  1  6  0  0  0
 42 45  1  0  0  0  0
 43 44  1  0  0  0  0
 43 99  1  6  0  0  0
 43 48  1  0  0  0  0
 44 56  1  0  0  0  0
 44100  1  1  0  0  0
 45101  1  0  0  0  0
 46 47  1  0  0  0  0
 46 49  1  0  0  0  0
 47 48  1  0  0  0  0
 47 52  1  0  0  0  0
 47102  1  1  0  0  0
 49 50  1  0  0  0  0
 49 57  1  0  0  0  0
 49103  1  1  0  0  0
 50 51  1  0  0  0  0
 50 53  1  0  0  0  0
 50104  1  6  0  0  0
 51 52  1  0  0  0  0
 51 54  1  0  0  0  0
 51105  1  6  0  0  0
 52106  1  0  0  0  0
 52107  1  0  0  0  0
 53108  1  0  0  0  0
 54109  1  0  0  0  0
 55110  1  0  0  0  0
 55111  1  0  0  0  0
 55112  1  0  0  0  0
 56113  1  0  0  0  0
 56114  1  0  0  0  0
 56115  1  0  0  0  0
 57116  1  0  0  0  0
 57117  1  0  0  0  0
 57118  1  0  0  0  0
 58119  1  0  0  0  0
M  END
>  <DRUGBANK_ID>
DB00390

>  <SECONDARY_ACCESSION_NUMBERS>
APRD00098

>  <COMMON_NAME>
Digoxin

>  <CAS_NUMBER>
20830-75-5

>  <UNII>
73K4184T59

>  <SYNONYMS>
12Î²-hydroxydigitoxin; Digossina; Digoxin; Digoxina; Digoxine; Digoxinum

$$$$
