
 OpenBabel10282417173D

 25 25  0  0  0  0  0  0  0  0999 V2000
    0.9832    0.0314   -0.0969 C   0  0  0  0  0  0  0  0  0  0  0  0
   -1.1616    0.9005    0.8253 C   0  0  0  0  0  0  0  0  0  0  0  0
   -1.7474    0.5107    2.1941 C   0  0  0  0  0  0  0  0  0  0  0  0
   -1.7503    2.8667    3.0982 C   0  0  0  0  0  0  0  0  0  0  0  0
   -0.7397    1.1137    4.4356 C   0  0  0  0  0  0  0  0  0  0  0  0
   -1.3671    3.8144    4.0422 C   0  0  0  0  0  0  0  0  0  0  0  0
   -0.3890    2.0631    5.3963 C   0  0  0  0  0  0  0  0  0  0  0  0
    1.1617    1.7910    1.5944 C   0  0  0  0  0  0  0  0  0  0  0  0
    0.3518    0.8610    0.7503 C   0  0  0  0  0  0  0  0  0  0  0  0
   -1.4321    1.5084    3.2810 C   0  0  0  0  0  0  0  0  0  0  0  0
   -0.7084    3.4013    5.1919 C   0  0  0  0  0  0  0  0  0  0  0  0
   -0.3708    4.3101    6.1153 F   0  0  0  0  0  0  0  0  0  0  0  0
    2.4479    1.8538    1.7203 N   0  0  0  0  0  0  0  0  0  0  0  0
    0.6017    2.5258    2.1797 H   0  0  0  0  0  0  0  0  0  0  0  0
    2.9201    1.1628    1.1443 H   0  0  0  0  0  0  0  0  0  0  0  0
    0.4226   -0.6307   -0.7472 H   0  0  0  0  0  0  0  0  0  0  0  0
    2.0597   -0.0176   -0.1837 H   0  0  0  0  0  0  0  0  0  0  0  0
   -1.5194    1.8873    0.5063 H   0  0  0  0  0  0  0  0  0  0  0  0
   -1.5836    0.1999    0.0901 H   0  0  0  0  0  0  0  0  0  0  0  0
   -2.8405    0.4402    2.1189 H   0  0  0  0  0  0  0  0  0  0  0  0
   -1.3945   -0.4915    2.4696 H   0  0  0  0  0  0  0  0  0  0  0  0
   -2.2328    3.2046    2.1838 H   0  0  0  0  0  0  0  0  0  0  0  0
   -0.4355    0.0783    4.5771 H   0  0  0  0  0  0  0  0  0  0  0  0
   -1.5612    4.8685    3.8757 H   0  0  0  0  0  0  0  0  0  0  0  0
    0.1478    1.7722    6.2934 H   0  0  0  0  0  0  0  0  0  0  0  0
  1 16  1  0  0  0  0
  1 17  1  0  0  0  0
  2 18  1  0  0  0  0
  2 19  1  0  0  0  0
  3  2  1  0  0  0  0
  3 20  1  0  0  0  0
  3 21  1  0  0  0  0
  4 22  1  0  0  0  0
  5 23  1  0  0  0  0
  6  4  1  0  0  0  0
  6 24  1  0  0  0  0
  7  5  2  0  0  0  0
  7 25  1  0  0  0  0
  9  1  2  0  0  0  0
  9  2  1  0  0  0  0
  9  8  1  0  0  0  0
 10  3  1  0  0  0  0
 10  4  2  0  0  0  0
 10  5  1  0  0  0  0
 11  6  2  0  0  0  0
 11  7  1  0  0  0  0
 12 11  1  0  0  0  0
 13  8  2  0  0  0  0
 14  8  1  0  0  0  0
 15 13  1  0  0  0  0
M  END
>  <DRUGBANK_ID>
DB08176

>  <COMMON_NAME>
(1Z)-4-(4-FLUOROPHENYL)-2-METHYLIDENEBUTAN-1-IMINE

$$$$
