
 OpenBabel10282417133D

 43 46  0  0  0  0  0  0  0  0999 V2000
    1.0769   -0.0207   -0.0016 C   0  0  0  0  0  0  0  0  0  0  0  0
    0.5965   -0.5133    1.3445 C   0  0  0  0  0  0  0  0  0  0  0  0
    0.0157    0.3922    2.2543 C   0  0  0  0  0  0  0  0  0  0  0  0
   -0.3377    0.0368    3.5114 N   0  0  0  0  0  0  0  0  0  0  0  0
   -0.1989   -1.2444    3.8852 C   0  0  0  0  0  0  0  0  0  0  0  0
   -0.7082   -1.6237    5.1295 C   0  0  0  0  0  0  0  0  0  0  0  0
   -0.8291   -2.9659    5.4908 C   0  0  0  0  0  0  0  0  0  0  0  0
   -0.1420   -3.8967    4.7534 C   0  0  0  0  0  0  0  0  0  0  0  0
   -0.0937   -5.1778    5.1327 F   0  0  0  0  0  0  0  0  0  0  0  0
    0.5577   -3.5100    3.6281 C   0  0  0  0  0  0  0  0  0  0  0  0
    0.3979   -2.2336    3.0585 C   0  0  0  0  0  0  0  0  0  0  0  0
    0.7959   -1.8653    1.7415 C   0  0  0  0  0  0  0  0  0  0  0  0
    1.3912   -2.8270    0.7053 C   0  0  0  0  0  0  0  0  0  0  0  0
    1.5581   -4.1358    0.9560 O   0  0  0  0  0  0  0  0  0  0  0  0
    1.7731   -2.4471   -0.3997 O   0  0  0  0  0  0  0  0  0  0  0  0
   -0.2363    1.8005    1.8772 C   0  0  0  0  0  0  0  0  0  0  0  0
   -1.0376    2.0987    0.7573 C   0  0  0  0  0  0  0  0  0  0  0  0
   -0.9383    3.3343    0.1136 C   0  0  0  0  0  0  0  0  0  0  0  0
   -0.1762    4.3647    0.6692 C   0  0  0  0  0  0  0  0  0  0  0  0
    0.4447    4.1321    1.9085 C   0  0  0  0  0  0  0  0  0  0  0  0
    0.4636    2.8527    2.4780 C   0  0  0  0  0  0  0  0  0  0  0  0
   -0.0512    5.6645    0.0002 C   0  0  0  0  0  0  0  0  0  0  0  0
    1.2088    6.2190   -0.2874 C   0  0  0  0  0  0  0  0  0  0  0  0
    1.3211    7.5473   -0.7078 C   0  0  0  0  0  0  0  0  0  0  0  0
    0.1744    8.2945   -0.9707 C   0  0  0  0  0  0  0  0  0  0  0  0
   -1.0795    7.7027   -0.8483 C   0  0  0  0  0  0  0  0  0  0  0  0
   -1.1848    6.4184   -0.3256 C   0  0  0  0  0  0  0  0  0  0  0  0
   -2.4117    5.9233   -0.0999 F   0  0  0  0  0  0  0  0  0  0  0  0
    0.8357    1.0100   -0.2450 H   0  0  0  0  0  0  0  0  0  0  0  0
    0.6148   -0.5990   -0.8060 H   0  0  0  0  0  0  0  0  0  0  0  0
    2.1692   -0.0671   -0.0236 H   0  0  0  0  0  0  0  0  0  0  0  0
   -1.0548   -0.8629    5.8270 H   0  0  0  0  0  0  0  0  0  0  0  0
   -1.4001   -3.2797    6.3570 H   0  0  0  0  0  0  0  0  0  0  0  0
    1.2518   -4.2424    3.2546 H   0  0  0  0  0  0  0  0  0  0  0  0
    0.9975   -4.6124    1.5824 H   0  0  0  0  0  0  0  0  0  0  0  0
   -1.6399    1.3192    0.2943 H   0  0  0  0  0  0  0  0  0  0  0  0
   -1.4329    3.4742   -0.8461 H   0  0  0  0  0  0  0  0  0  0  0  0
    0.9431    4.9490    2.4275 H   0  0  0  0  0  0  0  0  0  0  0  0
    1.0740    2.6716    3.3600 H   0  0  0  0  0  0  0  0  0  0  0  0
    2.1131    5.6242   -0.1662 H   0  0  0  0  0  0  0  0  0  0  0  0
    2.3031    8.0010   -0.8206 H   0  0  0  0  0  0  0  0  0  0  0  0
    0.2572    9.3344   -1.2742 H   0  0  0  0  0  0  0  0  0  0  0  0
   -1.9809    8.2391   -1.1238 H   0  0  0  0  0  0  0  0  0  0  0  0
  1  2  1  0  0  0  0
  1 29  1  0  0  0  0
  1 30  1  0  0  0  0
  1 31  1  0  0  0  0
  2  3  2  0  0  0  0
  2 12  1  0  0  0  0
  3  4  1  0  0  0  0
  3 16  1  0  0  0  0
  4  5  2  0  0  0  0
  5  6  1  0  0  0  0
  5 11  1  0  0  0  0
  6  7  2  0  0  0  0
  6 32  1  0  0  0  0
  7  8  1  0  0  0  0
  7 33  1  0  0  0  0
  8  9  1  0  0  0  0
  8 10  2  0  0  0  0
 10 11  1  0  0  0  0
 10 34  1  0  0  0  0
 11 12  2  0  0  0  0
 12 13  1  0  0  0  0
 13 14  1  0  0  0  0
 13 15  2  0  0  0  0
 14 35  1  0  0  0  0
 16 17  2  0  0  0  0
 16 21  1  0  0  0  0
 17 18  1  0  0  0  0
 17 36  1  0  0  0  0
 18 19  2  0  0  0  0
 18 37  1  0  0  0  0
 19 20  1  0  0  0  0
 19 22  1  0  0  0  0
 20 21  2  0  0  0  0
 20 38  1  0  0  0  0
 21 39  1  0  0  0  0
 22 23  2  0  0  0  0
 22 27  1  0  0  0  0
 23 24  1  0  0  0  0
 23 40  1  0  0  0  0
 24 25  2  0  0  0  0
 24 41  1  0  0  0  0
 25 26  1  0  0  0  0
 25 42  1  0  0  0  0
 26 27  2  0  0  0  0
 26 43  1  0  0  0  0
 27 28  1  0  0  0  0
M  END
>  <DRUGBANK_ID>
DB03523

>  <SECONDARY_ACCESSION_NUMBERS>
EXPT00752

>  <COMMON_NAME>
Brequinar

>  <CAS_NUMBER>
96187-53-0

>  <UNII>
5XL19F49H6

>  <SYNONYMS>
Brequinar

$$$$
