
 OpenBabel10282417153D

 54 61  0  0  1  0  0  0  0  0999 V2000
   -1.1031    0.3844   -0.4485 C   0  0  0  0  0  0  0  0  0  0  0  0
   -0.5115   -0.9750   -0.7964 C   0  0  1  0  0  0  0  0  0  0  0  0
   -0.1879   -2.0948    0.3523 C   0  0  2  0  0  0  0  0  0  0  0  0
   -0.5959   -2.9132   -1.0967 C   0  0  0  0  0  0  0  0  0  0  0  0
   -0.7681   -1.8459   -2.8371 C   0  0  1  0  0  0  0  0  0  0  0  0
   -1.5623   -1.3400   -1.8034 O   0  0  0  0  0  0  0  0  0  0  0  0
   -0.6364   -0.1884   -3.9790 N   0  0  0  0  0  0  0  0  0  0  0  0
   -0.3636    0.9867   -5.3558 C   0  0  0  0  0  0  0  0  0  0  0  0
   -0.7847    2.3114   -6.5109 C   0  0  0  0  0  0  0  0  0  0  0  0
    0.0087    3.5452   -7.4776 C   0  0  0  0  0  0  0  0  0  0  0  0
    1.3368    3.7891   -7.4963 C   0  0  0  0  0  0  0  0  0  0  0  0
    1.7808    2.8335   -6.5977 C   0  0  0  0  0  0  0  0  0  0  0  0
    1.1101    1.6306   -5.5947 C   0  0  0  0  0  0  0  0  0  0  0  0
    1.6742    0.8697   -4.6633 C   0  0  0  0  0  0  0  0  0  0  0  0
    0.6923    0.1198   -3.8205 C   0  0  0  0  0  0  0  0  0  0  0  0
    1.3077   -0.3865   -2.7012 C   0  0  0  0  0  0  0  0  0  0  0  0
    0.8919   -0.9185   -1.4856 N   0  0  0  0  0  0  0  0  0  0  0  0
    1.9290   -1.9879   -1.3770 C   0  0  0  0  0  0  0  0  0  0  0  0
    2.2065   -3.0786   -0.4924 C   0  0  0  0  0  0  0  0  0  0  0  0
    2.8701   -4.2142   -1.0077 C   0  0  0  0  0  0  0  0  0  0  0  0
    3.4884   -4.1839   -2.2400 C   0  0  0  0  0  0  0  0  0  0  0  0
    3.5281   -3.0112   -2.9379 C   0  0  0  0  0  0  0  0  0  0  0  0
    2.7210   -1.9607   -2.5506 C   0  0  0  0  0  0  0  0  0  0  0  0
    2.5115   -0.7887   -3.1852 C   0  0  0  0  0  0  0  0  0  0  0  0
    3.4924   -0.2047   -3.9698 C   0  0  0  0  0  0  0  0  0  0  0  0
    3.0784    0.9278   -4.6141 C   0  0  0  0  0  0  0  0  0  0  0  0
    4.1934    1.8292   -4.7445 C   0  0  0  0  0  0  0  0  0  0  0  0
    4.4065    2.9491   -5.1982 O   0  0  0  0  0  0  0  0  0  0  0  0
    5.1750    1.1849   -3.9831 N   0  0  0  0  0  0  0  0  0  0  0  0
    4.8386   -0.1205   -3.4745 C   0  0  0  0  0  0  0  0  0  0  0  0
   -0.4470   -1.0575    1.4693 C   0  0  0  0  0  0  0  0  0  0  0  0
   -1.8317   -0.9576    1.8970 O   0  0  0  0  0  0  0  0  0  0  0  0
   -0.5524   -3.0944    1.4241 O   0  0  0  0  0  0  0  0  0  0  0  0
   -1.9802    0.5663   -1.0640 H   0  0  0  0  0  0  0  0  0  0  0  0
   -0.3106    1.1093   -0.3670 H   0  0  0  0  0  0  0  0  0  0  0  0
   -1.5955    0.5161    0.5078 H   0  0  0  0  0  0  0  0  0  0  0  0
   -0.4401   -4.0847   -1.1406 H   0  0  0  0  0  0  0  0  0  0  0  0
   -1.3710   -3.4387   -0.3872 H   0  0  0  0  0  0  0  0  0  0  0  0
   -0.5642   -2.8177   -3.3504 H   0  0  0  0  0  0  0  0  0  0  0  0
   -1.8057    2.5730   -6.8610 H   0  0  0  0  0  0  0  0  0  0  0  0
   -0.4582    4.3065   -8.1978 H   0  0  0  0  0  0  0  0  0  0  0  0
    1.9452    4.5586   -8.0583 H   0  0  0  0  0  0  0  0  0  0  0  0
    2.8776    2.9971   -6.5844 H   0  0  0  0  0  0  0  0  0  0  0  0
    1.8539   -3.1604    0.5342 H   0  0  0  0  0  0  0  0  0  0  0  0
    2.9232   -5.1471   -0.4477 H   0  0  0  0  0  0  0  0  0  0  0  0
    3.9947   -5.0385   -2.6612 H   0  0  0  0  0  0  0  0  0  0  0  0
    4.0655   -2.8887   -3.8651 H   0  0  0  0  0  0  0  0  0  0  0  0
    6.0169    1.6798   -3.7400 H   0  0  0  0  0  0  0  0  0  0  0  0
    5.5728   -0.8475   -3.7784 H   0  0  0  0  0  0  0  0  0  0  0  0
    4.6873   -0.2150   -2.3933 H   0  0  0  0  0  0  0  0  0  0  0  0
    0.1168   -1.1632    2.4035 H   0  0  0  0  0  0  0  0  0  0  0  0
    0.1102   -0.1655    1.1851 H   0  0  0  0  0  0  0  0  0  0  0  0
   -2.4755   -0.8975    1.1598 H   0  0  0  0  0  0  0  0  0  0  0  0
   -1.4729   -3.0623    1.7813 H   0  0  0  0  0  0  0  0  0  0  0  0
  1 34  1  0  0  0  0
  1 35  1  0  0  0  0
  1 36  1  0  0  0  0
  2  3  1  0  0  0  0
  2  6  1  0  0  0  0
  2 17  1  0  0  0  0
  2  1  1  1  0  0  0
  3  4  1  0  0  0  0
  3 33  1  6  0  0  0
  3 31  1  0  0  0  0
  4  5  1  0  0  0  0
  4 37  1  0  0  0  0
  4 38  1  0  0  0  0
  5  6  1  0  0  0  0
  5  7  1  0  0  0  0
  5 39  1  6  0  0  0
  7  8  1  0  0  0  0
  7 15  1  0  0  0  0
  8  9  1  0  0  0  0
  8 13  2  0  0  0  0
  9 10  2  0  0  0  0
  9 40  1  0  0  0  0
 10 11  1  0  0  0  0
 10 41  1  0  0  0  0
 11 12  2  0  0  0  0
 11 42  1  0  0  0  0
 12 13  1  0  0  0  0
 12 43  1  0  0  0  0
 13 14  1  0  0  0  0
 14 15  2  0  0  0  0
 14 26  1  0  0  0  0
 15 16  1  0  0  0  0
 16 17  1  0  0  0  0
 16 24  2  0  0  0  0
 17 18  1  0  0  0  0
 18 19  2  0  0  0  0
 18 23  1  0  0  0  0
 19 20  1  0  0  0  0
 19 44  1  0  0  0  0
 20 21  2  0  0  0  0
 20 45  1  0  0  0  0
 21 22  1  0  0  0  0
 21 46  1  0  0  0  0
 22 23  2  0  0  0  0
 22 47  1  0  0  0  0
 23 24  1  0  0  0  0
 24 25  1  0  0  0  0
 25 26  2  0  0  0  0
 25 30  1  0  0  0  0
 26 27  1  0  0  0  0
 27 29  1  0  0  0  0
 27 28  2  0  0  0  0
 29 30  1  0  0  0  0
 29 48  1  0  0  0  0
 30 49  1  0  0  0  0
 30 50  1  0  0  0  0
 31 32  1  0  0  0  0
 31 51  1  0  0  0  0
 31 52  1  0  0  0  0
 32 53  1  0  0  0  0
 33 54  1  0  0  0  0
M  END
>  <DRUGBANK_ID>
DB06469

>  <COMMON_NAME>
Lestaurtinib

>  <CAS_NUMBER>
111358-88-4

>  <UNII>
DO989GC5D1

>  <SYNONYMS>
Lestaurtinib

$$$$
