
 OpenBabel10282417213D

 37 36  0  0  0  0  0  0  0  0999 V2000
    0.9828   -0.4152   -0.2526 O   0  0  0  0  0  0  0  0  0  0  0  0
    0.5046   -0.0677   -1.5346 C   0  0  0  0  0  0  0  0  0  0  0  0
    1.1413    1.2400   -1.9618 C   0  0  0  0  0  0  0  0  0  0  0  0
    2.5034    1.6708   -1.8160 O   0  0  0  0  0  0  0  0  0  0  0  0
    2.9994    1.9497   -0.4838 C   0  0  0  0  0  0  0  0  0  0  0  0
    2.3886    2.9999    0.4261 C   0  0  0  0  0  0  0  0  0  0  0  0
    0.9816    2.8626    0.6081 O   0  0  0  0  0  0  0  0  0  0  0  0
    0.2372    3.5042   -0.4133 C   0  0  0  0  0  0  0  0  0  0  0  0
    2.3156   -0.9014   -0.2770 C   0  0  0  0  0  0  0  0  0  0  0  0
    2.9103   -1.2403    1.0602 C   0  0  0  0  0  0  0  0  0  0  0  0
    2.2449   -2.3323    1.6769 O   0  0  0  0  0  0  0  0  0  0  0  0
    0.8544   -1.9507    1.9034 C   0  0  0  0  0  0  0  0  0  0  0  0
    0.4714   -0.7231    2.8543 C   0  0  0  0  0  0  0  0  0  0  0  0
    0.8621    0.6625    2.6430 O   0  0  0  0  0  0  0  0  0  0  0  0
    2.2002    0.9976    2.9843 C   0  0  0  0  0  0  0  0  0  0  0  0
    0.6579   -0.8941   -2.2241 H   0  0  0  0  0  0  0  0  0  0  0  0
   -0.5820    0.1221   -1.4360 H   0  0  0  0  0  0  0  0  0  0  0  0
    0.6808    1.6888   -2.8355 H   0  0  0  0  0  0  0  0  0  0  0  0
    0.7009    1.6536   -1.0741 H   0  0  0  0  0  0  0  0  0  0  0  0
    2.7737    1.1385    0.1792 H   0  0  0  0  0  0  0  0  0  0  0  0
    4.0955    1.8808   -0.4968 H   0  0  0  0  0  0  0  0  0  0  0  0
    2.8412    2.8232    1.3974 H   0  0  0  0  0  0  0  0  0  0  0  0
    2.6520    4.0267    0.1925 H   0  0  0  0  0  0  0  0  0  0  0  0
    0.5315    4.5518   -0.4769 H   0  0  0  0  0  0  0  0  0  0  0  0
    0.5446    3.2647   -1.4276 H   0  0  0  0  0  0  0  0  0  0  0  0
   -0.8007    3.1818   -0.3878 H   0  0  0  0  0  0  0  0  0  0  0  0
    2.4577   -1.6993   -1.0073 H   0  0  0  0  0  0  0  0  0  0  0  0
    2.9153   -0.1773   -0.8283 H   0  0  0  0  0  0  0  0  0  0  0  0
    3.9923   -1.0722    1.1381 H   0  0  0  0  0  0  0  0  0  0  0  0
    2.6891   -0.6264    1.9278 H   0  0  0  0  0  0  0  0  0  0  0  0
    0.3524   -1.8647    0.9439 H   0  0  0  0  0  0  0  0  0  0  0  0
    0.3927   -2.8555    2.2925 H   0  0  0  0  0  0  0  0  0  0  0  0
   -0.6287   -0.6842    2.8202 H   0  0  0  0  0  0  0  0  0  0  0  0
    0.7573   -0.9757    3.8728 H   0  0  0  0  0  0  0  0  0  0  0  0
    2.6142    0.3501    3.7524 H   0  0  0  0  0  0  0  0  0  0  0  0
    2.7631    0.9441    2.0638 H   0  0  0  0  0  0  0  0  0  0  0  0
    2.4570    2.0418    3.1988 H   0  0  0  0  0  0  0  0  0  0  0  0
  2  1  1  0  0  0  0
  2 16  1  0  0  0  0
  2 17  1  0  0  0  0
  3  2  1  0  0  0  0
  3 18  1  0  0  0  0
  3 19  1  0  0  0  0
  4  3  1  0  0  0  0
  5  4  1  0  0  0  0
  5 20  1  0  0  0  0
  5 21  1  0  0  0  0
  6  5  1  0  0  0  0
  6 22  1  0  0  0  0
  6 23  1  0  0  0  0
  7  6  1  0  0  0  0
  8  7  1  0  0  0  0
  8 24  1  0  0  0  0
  8 25  1  0  0  0  0
  8 26  1  0  0  0  0
  9  1  1  0  0  0  0
  9 27  1  0  0  0  0
  9 28  1  0  0  0  0
 10  9  1  0  0  0  0
 10 29  1  0  0  0  0
 10 30  1  0  0  0  0
 11 10  1  0  0  0  0
 12 11  1  0  0  0  0
 12 31  1  0  0  0  0
 12 32  1  0  0  0  0
 13 12  1  0  0  0  0
 13 33  1  0  0  0  0
 13 34  1  0  0  0  0
 14 13  1  0  0  0  0
 15 14  1  0  0  0  0
 15 35  1  0  0  0  0
 15 36  1  0  0  0  0
 15 37  1  0  0  0  0
M  END
>  <DRUGBANK_ID>
DB14000

>  <COMMON_NAME>
Tetraglyme

>  <CAS_NUMBER>
143-24-8

>  <UNII>
78L136FLZ9

>  <SYNONYMS>
bis[2-(2-methoxyethoxy)ethyl] ether; dimethoxytetraethylene glycol; Glyme 5; TEGDME; tetraethylene glycol dimethyl ether

$$$$
