
 OpenBabel10282417183D

 38 38  0  0  0  0  0  0  0  0999 V2000
   -1.0613    1.2403    0.2155 C   0  0  2  0  0  0  0  0  0  0  0  0
    0.4215    1.1125   -0.1118 C   0  0  0  0  0  0  0  0  0  0  0  0
    1.0798   -0.1777    0.3293 C   0  0  1  0  0  0  0  0  0  0  0  0
    0.3145   -1.3645   -0.2205 C   0  0  0  0  0  0  0  0  0  0  0  0
   -1.1581   -1.2823    0.1792 C   0  0  0  0  0  0  0  0  0  0  0  0
   -1.8670    0.0179   -0.3090 C   0  0  1  0  0  0  0  0  0  0  0  0
   -1.6134    2.5211   -0.1089 O   0  0  0  0  0  0  0  0  0  0  0  0
   -1.2293    3.2236   -1.2911 C   0  0  0  0  0  0  0  0  0  0  0  0
   -0.2456    4.3515   -0.9448 C   0  0  0  0  0  0  0  0  0  0  0  0
    0.9989    3.8919   -0.4522 O   0  0  0  0  0  0  0  0  0  0  0  0
    2.5378   -0.1381   -0.1258 C   0  0  0  0  0  0  0  0  0  0  0  0
   -3.3645    0.0208    0.1459 C   0  0  0  0  0  0  0  0  0  0  0  0
   -4.1552    1.2403   -0.3416 C   0  0  0  0  0  0  0  0  0  0  0  0
   -4.1111   -1.2293   -0.3443 C   0  0  0  0  0  0  0  0  0  0  0  0
   -1.1469    1.2065    1.3089 H   0  0  0  0  0  0  0  0  0  0  0  0
    0.9636    1.8689    0.4399 H   0  0  0  0  0  0  0  0  0  0  0  0
    0.5910    1.2708   -1.1836 H   0  0  0  0  0  0  0  0  0  0  0  0
    1.0624   -0.2158    1.4267 H   0  0  0  0  0  0  0  0  0  0  0  0
    0.3929   -1.4003   -1.3134 H   0  0  0  0  0  0  0  0  0  0  0  0
    0.7514   -2.2924    0.1670 H   0  0  0  0  0  0  0  0  0  0  0  0
   -1.2344   -1.3413    1.2744 H   0  0  0  0  0  0  0  0  0  0  0  0
   -1.6437   -2.1756   -0.2216 H   0  0  0  0  0  0  0  0  0  0  0  0
   -1.8509    0.0315   -1.4072 H   0  0  0  0  0  0  0  0  0  0  0  0
   -0.8829    2.5566   -2.0859 H   0  0  0  0  0  0  0  0  0  0  0  0
   -2.1351    3.7188   -1.6652 H   0  0  0  0  0  0  0  0  0  0  0  0
   -0.0280    4.9671   -1.8213 H   0  0  0  0  0  0  0  0  0  0  0  0
   -0.6699    4.9858   -0.1615 H   0  0  0  0  0  0  0  0  0  0  0  0
    0.8094    3.6425    0.4796 H   0  0  0  0  0  0  0  0  0  0  0  0
    3.0332    0.7591    0.2674 H   0  0  0  0  0  0  0  0  0  0  0  0
    3.0901   -1.0101    0.2295 H   0  0  0  0  0  0  0  0  0  0  0  0
    2.6098   -0.0949   -1.2184 H   0  0  0  0  0  0  0  0  0  0  0  0
   -3.3931    0.0188    1.2439 H   0  0  0  0  0  0  0  0  0  0  0  0
   -4.0845    1.3432   -1.4295 H   0  0  0  0  0  0  0  0  0  0  0  0
   -5.2137    1.1522   -0.0749 H   0  0  0  0  0  0  0  0  0  0  0  0
   -3.8187    2.1678    0.1233 H   0  0  0  0  0  0  0  0  0  0  0  0
   -3.6915   -2.1508    0.0664 H   0  0  0  0  0  0  0  0  0  0  0  0
   -5.1600   -1.2045   -0.0308 H   0  0  0  0  0  0  0  0  0  0  0  0
   -4.0832   -1.2936   -1.4374 H   0  0  0  0  0  0  0  0  0  0  0  0
  1  2  1  0  0  0  0
  1  6  1  0  0  0  0
  1 15  1  1  0  0  0
  1  7  1  0  0  0  0
  2  3  1  0  0  0  0
  2 16  1  0  0  0  0
  2 17  1  0  0  0  0
  3  4  1  0  0  0  0
  3 11  1  0  0  0  0
  3 18  1  1  0  0  0
  4  5  1  0  0  0  0
  4 19  1  0  0  0  0
  4 20  1  0  0  0  0
  5  6  1  0  0  0  0
  5 21  1  0  0  0  0
  5 22  1  0  0  0  0
  6 12  1  0  0  0  0
  6 23  1  6  0  0  0
  7  8  1  0  0  0  0
  8  9  1  0  0  0  0
  8 24  1  0  0  0  0
  8 25  1  0  0  0  0
  9 10  1  0  0  0  0
  9 26  1  0  0  0  0
  9 27  1  0  0  0  0
 10 28  1  0  0  0  0
 11 29  1  0  0  0  0
 11 30  1  0  0  0  0
 11 31  1  0  0  0  0
 12 13  1  0  0  0  0
 12 14  1  0  0  0  0
 12 32  1  0  0  0  0
 13 33  1  0  0  0  0
 13 34  1  0  0  0  0
 13 35  1  0  0  0  0
 14 36  1  0  0  0  0
 14 37  1  0  0  0  0
 14 38  1  0  0  0  0
M  END
>  <DRUGBANK_ID>
DB11174

>  <COMMON_NAME>
2-(l-menthoxy)ethanol

>  <CAS_NUMBER>
75443-64-0

>  <UNII>
5ZWW23169H

$$$$
