
 OpenBabel10282417213D

 65 69  0  0  0  0  0  0  0  0999 V2000
    0.8182    1.5739    0.6844 C   0  0  0  0  0  0  0  0  0  0  0  0
    2.1829    1.5356    1.6284 C   0  0  2  0  0  0  0  0  0  0  0  0
   -0.3984   -1.0227    1.8481 C   0  0  0  0  0  0  0  0  0  0  0  0
   -0.5052    0.6604    1.2959 C   0  0  0  0  0  0  0  0  0  0  0  0
    2.0814    0.1685    2.4015 C   0  0  1  0  0  0  0  0  0  0  0  0
    0.8538   -0.7851    2.7780 C   0  0  1  0  0  0  0  0  0  0  0  0
    1.5179   -3.3470    2.6224 C   0  0  0  0  0  0  0  0  0  0  0  0
    0.8230   -3.6446    1.3337 C   0  0  0  0  0  0  0  0  0  0  0  0
   -0.6292   -2.4799    1.3510 C   0  0  0  0  0  0  0  0  0  0  0  0
    1.4414   -2.0850    2.2698 C   0  0  0  0  0  0  0  0  0  0  0  0
    4.4875   -0.3281    2.2713 C   0  0  0  0  0  0  0  0  0  0  0  0
    3.3362   -0.3108    3.2545 C   0  0  2  0  0  0  0  0  0  0  0  0
    3.9496    0.5854   -0.4904 C   0  0  0  0  0  0  0  0  0  0  0  0
    5.3196    0.6095   -1.1252 C   0  0  2  0  0  0  0  0  0  0  0  0
    6.0958    0.9628    0.5911 C   0  0  1  0  0  0  0  0  0  0  0  0
    1.4787   -4.0134    0.3519 O   0  0  0  0  0  0  0  0  0  0  0  0
    2.2304   -0.4671    0.7267 Cl  0  0  0  0  0  0  0  0  0  0  0  0
    2.2591    2.4384    2.2717 H   0  0  0  0  0  0  0  0  0  0  0  0
    4.8595    1.0700    1.6037 C   0  0  1  0  0  0  0  0  0  0  0  0
    4.9511    2.1123    2.6976 C   0  0  0  0  0  0  0  0  0  0  0  0
    3.7256    1.5503    0.7095 C   0  0  2  0  0  0  0  0  0  0  0  0
    3.8812    2.5375    0.2627 H   0  0  0  0  0  0  0  0  0  0  0  0
    0.4605   -0.4330    4.2325 C   0  0  0  0  0  0  0  0  0  0  0  0
    3.2250   -1.6249    3.8624 O   0  0  0  0  0  0  0  0  0  0  0  0
    4.3330   -0.3613   -2.3500 C   0  0  0  0  0  0  0  0  0  0  0  0
    7.5395    1.8430    0.8731 C   0  0  0  0  0  0  0  0  0  0  0  0
    8.2361    2.0993    2.5452 C   0  0  0  0  0  0  0  0  0  0  0  0
    8.2270    2.0423   -0.1417 O   0  0  0  0  0  0  0  0  0  0  0  0
    9.7772    1.1237    3.4428 Cl  0  0  0  0  0  0  0  0  0  0  0  0
    6.8215   -0.1841    1.1630 O   0  0  0  0  0  0  0  0  0  0  0  0
    8.0954   -0.3126    1.7492 C   0  0  0  0  0  0  0  0  0  0  0  0
    9.1221   -0.0833    1.2530 O   0  0  0  0  0  0  0  0  0  0  0  0
    7.7143   -0.9621    3.0180 C   0  0  0  0  0  0  0  0  0  0  0  0
    7.4195   -0.3856    4.2566 O   0  0  0  0  0  0  0  0  0  0  0  0
    6.9755   -2.0864    2.8686 C   0  0  0  0  0  0  0  0  0  0  0  0
    6.3502   -2.3518    4.0778 C   0  0  0  0  0  0  0  0  0  0  0  0
    6.7149   -1.3489    4.9487 C   0  0  0  0  0  0  0  0  0  0  0  0
    0.7771    2.5600    0.1872 H   0  0  0  0  0  0  0  0  0  0  0  0
    0.9317    1.0275   -0.2599 H   0  0  0  0  0  0  0  0  0  0  0  0
   -0.7308    1.2394    2.2086 H   0  0  0  0  0  0  0  0  0  0  0  0
   -1.3453    0.7983    0.6156 H   0  0  0  0  0  0  0  0  0  0  0  0
    1.1588   -3.4166    3.6195 H   0  0  0  0  0  0  0  0  0  0  0  0
   -0.8364   -3.3469    2.0962 H   0  0  0  0  0  0  0  0  0  0  0  0
    1.3312   -2.0073    1.1130 H   0  0  0  0  0  0  0  0  0  0  0  0
    5.2850   -0.6790    2.8552 H   0  0  0  0  0  0  0  0  0  0  0  0
    4.3605   -1.1788    1.5745 H   0  0  0  0  0  0  0  0  0  0  0  0
    3.6234    0.2059    4.1791 H   0  0  0  0  0  0  0  0  0  0  0  0
    3.9601   -0.5340   -0.2930 H   0  0  0  0  0  0  0  0  0  0  0  0
    3.0497    0.8069   -1.1068 H   0  0  0  0  0  0  0  0  0  0  0  0
    6.0111   -0.2415   -1.2833 H   0  0  0  0  0  0  0  0  0  0  0  0
    5.9080    2.1598    3.1524 H   0  0  0  0  0  0  0  0  0  0  0  0
    4.7111    3.1010    2.3145 H   0  0  0  0  0  0  0  0  0  0  0  0
    4.2802    1.9195    3.5341 H   0  0  0  0  0  0  0  0  0  0  0  0
   -0.1724    0.4642    4.3267 H   0  0  0  0  0  0  0  0  0  0  0  0
   -0.0180   -1.2792    4.7208 H   0  0  0  0  0  0  0  0  0  0  0  0
    1.3315   -0.1504    4.8408 H   0  0  0  0  0  0  0  0  0  0  0  0
    2.3528   -1.7042    4.2901 H   0  0  0  0  0  0  0  0  0  0  0  0
    4.3106    0.2292   -3.2706 H   0  0  0  0  0  0  0  0  0  0  0  0
    4.6525   -1.3968   -2.5288 H   0  0  0  0  0  0  0  0  0  0  0  0
    3.2141   -0.5445   -2.2220 H   0  0  0  0  0  0  0  0  0  0  0  0
    8.7843    3.0245    2.5978 H   0  0  0  0  0  0  0  0  0  0  0  0
    7.5599    1.9171    3.3677 H   0  0  0  0  0  0  0  0  0  0  0  0
    6.7316   -2.3765    1.8498 H   0  0  0  0  0  0  0  0  0  0  0  0
    5.6051   -3.1118    4.1976 H   0  0  0  0  0  0  0  0  0  0  0  0
    6.4631   -1.1646    5.9909 H   0  0  0  0  0  0  0  0  0  0  0  0
  1 38  1  0  0  0  0
  1 39  1  0  0  0  0
  2  1  1  0  0  0  0
  2  5  1  0  0  0  0
  2 18  1  6  0  0  0
  3  4  1  0  0  0  0
  4  1  1  0  0  0  0
  4 40  1  0  0  0  0
  4 41  1  0  0  0  0
  5 12  1  0  0  0  0
  5  6  1  0  0  0  0
  5 17  1  1  0  0  0
  6  3  1  0  0  0  0
  6 10  1  0  0  0  0
  6 23  1  6  0  0  0
  7  8  1  0  0  0  0
  7 10  2  0  0  0  0
  7 42  1  0  0  0  0
  8  9  1  0  0  0  0
  8 16  2  0  0  0  0
  9  3  2  0  0  0  0
  9 43  1  0  0  0  0
 10 44  1  0  0  0  0
 11 12  1  0  0  0  0
 11 45  1  0  0  0  0
 11 46  1  0  0  0  0
 12 47  1  1  0  0  0
 12 24  1  0  0  0  0
 13 14  1  0  0  0  0
 13 48  1  0  0  0  0
 13 49  1  0  0  0  0
 14 50  1  1  0  0  0
 14 25  1  0  0  0  0
 15 14  1  0  0  0  0
 15 26  1  1  0  0  0
 15 30  1  0  0  0  0
 19 11  1  0  0  0  0
 19 15  1  0  0  0  0
 19 20  1  6  0  0  0
 20 51  1  0  0  0  0
 20 52  1  0  0  0  0
 20 53  1  0  0  0  0
 21  2  1  0  0  0  0
 21 13  1  0  0  0  0
 21 19  1  0  0  0  0
 21 22  1  6  0  0  0
 23 54  1  0  0  0  0
 23 55  1  0  0  0  0
 23 56  1  0  0  0  0
 24 57  1  0  0  0  0
 25 58  1  0  0  0  0
 25 59  1  0  0  0  0
 25 60  1  0  0  0  0
 26 27  1  0  0  0  0
 26 28  2  0  0  0  0
 27 29  1  0  0  0  0
 27 61  1  0  0  0  0
 27 62  1  0  0  0  0
 30 31  1  0  0  0  0
 31 32  2  0  0  0  0
 31 33  1  0  0  0  0
 33 35  2  0  0  0  0
 34 33  1  0  0  0  0
 34 37  1  0  0  0  0
 35 36  1  0  0  0  0
 35 63  1  0  0  0  0
 36 37  2  0  0  0  0
 36 64  1  0  0  0  0
 37 65  1  0  0  0  0
M  END
>  <DRUGBANK_ID>
DB14512

>  <SECONDARY_ACCESSION_NUMBERS>
DBSALT002454

>  <COMMON_NAME>
Mometasone furoate

>  <CAS_NUMBER>
83919-23-7

>  <UNII>
04201GDN4R

>  <SYNONYMS>
Mometasone furoate; Mometasone furoate anhydrous

$$$$
