
 OpenBabel10282417173D

 35 35  0  0  0  0  0  0  0  0999 V2000
    0.9792    0.0806   -0.0663 C   0  0  0  0  0  0  0  0  0  0  0  0
   -0.7447   -0.3962    1.6573 C   0  0  0  0  0  0  0  0  0  0  0  0
    2.1942    3.2051    0.6985 C   0  0  0  0  0  0  0  0  0  0  0  0
    1.0379    3.8670    2.7808 C   0  0  0  0  0  0  0  0  0  0  0  0
    5.8027   -0.2891    2.0367 C   0  0  0  0  0  0  0  0  0  0  0  0
    1.5439    0.3675    2.3491 C   0  0  0  0  0  0  0  0  0  0  0  0
    3.2218    1.7562    3.5894 C   0  0  0  0  0  0  0  0  0  0  0  0
    2.0940    1.5561    2.6350 C   0  0  0  0  0  0  0  0  0  0  0  0
    0.4591    0.5016    1.3225 C   0  0  0  0  0  0  0  0  0  0  0  0
    1.3710    2.6610    1.8831 C   0  0  0  0  0  0  0  0  0  0  0  0
    0.1455    1.9776    1.2983 N   0  0  0  0  0  0  0  0  0  0  0  0
   -0.9369    2.1722    2.2640 O   0  0  0  0  0  0  0  0  0  0  0  0
    4.2307    0.9748    0.4387 O   0  0  0  0  0  0  0  0  0  0  0  0
    6.5442    1.8619    0.7886 O   0  0  0  0  0  0  0  0  0  0  0  0
    4.7106    2.4905    2.8951 S   0  0  0  0  0  0  0  0  0  0  0  0
    5.3443    1.2555    1.3224 S   0  0  0  0  0  0  0  0  0  0  0  0
    0.6004    0.7417   -0.8541 H   0  0  0  0  0  0  0  0  0  0  0  0
    0.6590   -0.9343   -0.3276 H   0  0  0  0  0  0  0  0  0  0  0  0
    2.0683    0.0833   -0.1290 H   0  0  0  0  0  0  0  0  0  0  0  0
   -1.5380   -0.2768    0.9102 H   0  0  0  0  0  0  0  0  0  0  0  0
   -0.4497   -1.4524    1.6639 H   0  0  0  0  0  0  0  0  0  0  0  0
   -1.1664   -0.1867    2.6465 H   0  0  0  0  0  0  0  0  0  0  0  0
    1.6466    3.9724    0.1431 H   0  0  0  0  0  0  0  0  0  0  0  0
    3.1197    3.6807    1.0348 H   0  0  0  0  0  0  0  0  0  0  0  0
    2.4598    2.4309   -0.0222 H   0  0  0  0  0  0  0  0  0  0  0  0
    0.4090    3.5939    3.6344 H   0  0  0  0  0  0  0  0  0  0  0  0
    1.9508    4.3122    3.1931 H   0  0  0  0  0  0  0  0  0  0  0  0
    0.5249    4.6504    2.2113 H   0  0  0  0  0  0  0  0  0  0  0  0
    4.9265   -0.7326    2.5120 H   0  0  0  0  0  0  0  0  0  0  0  0
    6.1520   -0.9389    1.2306 H   0  0  0  0  0  0  0  0  0  0  0  0
    6.6012   -0.1151    2.7570 H   0  0  0  0  0  0  0  0  0  0  0  0
    1.8617   -0.5823    2.7547 H   0  0  0  0  0  0  0  0  0  0  0  0
    2.8809    2.4046    4.4061 H   0  0  0  0  0  0  0  0  0  0  0  0
    3.5017    0.8101    4.0651 H   0  0  0  0  0  0  0  0  0  0  0  0
   -1.7219    1.9958    1.7105 H   0  0  0  0  0  0  0  0  0  0  0  0
  1 17  1  0  0  0  0
  1 18  1  0  0  0  0
  1 19  1  0  0  0  0
  2 20  1  0  0  0  0
  2 21  1  0  0  0  0
  2 22  1  0  0  0  0
  3 23  1  0  0  0  0
  3 24  1  0  0  0  0
  3 25  1  0  0  0  0
  4 26  1  0  0  0  0
  4 27  1  0  0  0  0
  4 28  1  0  0  0  0
  5 29  1  0  0  0  0
  5 30  1  0  0  0  0
  5 31  1  0  0  0  0
  6 32  1  0  0  0  0
  7 33  1  0  0  0  0
  7 34  1  0  0  0  0
  8  6  2  0  0  0  0
  8  7  1  0  0  0  0
  9  1  1  0  0  0  0
  9  2  1  0  0  0  0
  9  6  1  0  0  0  0
 10  3  1  0  0  0  0
 10  4  1  0  0  0  0
 10  8  1  0  0  0  0
 11  9  1  0  0  0  0
 11 10  1  0  0  0  0
 12 11  1  0  0  0  0
 12 35  1  0  0  0  0
 15  7  1  0  0  0  0
 16  5  1  0  0  0  0
 16 13  2  0  0  0  0
 16 14  2  0  0  0  0
 16 15  1  0  0  0  0
M  END
>  <DRUGBANK_ID>
DB08217

>  <COMMON_NAME>
S-[(1-Hydroxy-2,2,5,5-tetramethyl-2,5-dihydro-1H-pyrrol-3-yl)methyl] methanesulfonothioate

$$$$
