
 OpenBabel10282417143D

 65 65  0  0  1  0  0  0  0  0999 V2000
   -8.2235  -10.3149   -7.7024 N   0  0  0  0  0  0  0  0  0  0  0  0
   -7.9877   -9.6875   -6.5995 C   0  0  0  0  0  0  0  0  0  0  0  0
   -6.8048   -9.8257   -5.9331 N   0  0  0  0  0  0  0  0  0  0  0  0
   -9.0539   -8.8284   -6.0263 C   0  0  0  0  0  0  0  0  0  0  0  0
  -10.3850   -9.2429   -6.1045 C   0  0  0  0  0  0  0  0  0  0  0  0
  -11.3914   -8.5143   -5.4743 C   0  0  0  0  0  0  0  0  0  0  0  0
  -11.0825   -7.3934   -4.7074 C   0  0  0  0  0  0  0  0  0  0  0  0
  -12.2341   -6.6275   -4.1063 C   0  0  0  0  0  0  0  0  0  0  0  0
  -12.0057   -6.2839   -2.7279 N   0  0  0  0  0  0  0  0  0  0  0  0
  -11.6841   -5.0663   -2.2183 C   0  0  0  0  0  0  0  0  0  0  0  0
  -11.6162   -4.9144   -0.9972 O   0  0  0  0  0  0  0  0  0  0  0  0
  -11.6014   -3.8663   -3.1634 C   0  0  2  0  0  0  0  0  0  0  0  0
  -13.1967   -3.3708   -3.3957 C   0  0  0  0  0  0  0  0  0  0  0  0
  -13.6262   -2.0620   -4.1486 C   0  0  0  0  0  0  0  0  0  0  0  0
  -13.1611   -1.9754   -6.2343 S   0  0  0  0  0  0  0  0  0  0  0  0
  -11.2127   -2.3976   -6.6040 C   0  0  0  0  0  0  0  0  0  0  0  0
  -10.6933   -4.1259   -4.3510 N   0  0  0  0  0  0  0  0  0  0  0  0
   -9.4425   -3.7254   -4.8669 C   0  0  0  0  0  0  0  0  0  0  0  0
   -9.1052   -4.3410   -5.8986 O   0  0  0  0  0  0  0  0  0  0  0  0
   -8.4767   -2.4381   -4.3456 C   0  0  2  0  0  0  0  0  0  0  0  0
   -8.6224   -2.6013   -2.8254 N   0  0  0  0  0  0  0  0  0  0  0  0
   -9.1264   -1.4381   -1.6864 S   0  0  0  0  0  0  0  0  0  0  0  0
   -9.2518   -2.2268   -0.4352 O   0  0  0  0  0  0  0  0  0  0  0  0
   -8.0752   -0.4748   -1.6912 O   0  0  0  0  0  0  0  0  0  0  0  0
  -11.0138   -0.6238   -2.0443 C   0  0  0  0  0  0  0  0  0  0  0  0
  -11.4594   -0.0587   -3.4276 C   0  0  0  0  0  0  0  0  0  0  0  0
  -11.1788   -1.1665   -4.2944 C   0  0  0  0  0  0  0  0  0  0  0  0
   -8.3652   -0.7843   -4.9312 C   0  0  2  0  0  0  0  0  0  0  0  0
   -8.6274    0.3999   -3.9555 C   0  0  0  0  0  0  0  0  0  0  0  0
   -8.8531   -0.4673   -6.2451 O   0  0  0  0  0  0  0  0  0  0  0  0
   -9.7284   -7.0137   -4.6107 C   0  0  0  0  0  0  0  0  0  0  0  0
   -8.7281   -7.6706   -5.3330 C   0  0  0  0  0  0  0  0  0  0  0  0
   -7.4099  -10.8664   -7.9731 H   0  0  0  0  0  0  0  0  0  0  0  0
   -6.7496   -9.5338   -4.9621 H   0  0  0  0  0  0  0  0  0  0  0  0
   -6.1691  -10.5700   -6.1870 H   0  0  0  0  0  0  0  0  0  0  0  0
  -10.6410  -10.1457   -6.6486 H   0  0  0  0  0  0  0  0  0  0  0  0
  -12.4232   -8.8423   -5.5602 H   0  0  0  0  0  0  0  0  0  0  0  0
  -12.4871   -5.7609   -4.7192 H   0  0  0  0  0  0  0  0  0  0  0  0
  -13.1653   -7.1988   -4.1382 H   0  0  0  0  0  0  0  0  0  0  0  0
  -11.9956   -7.0307   -2.0451 H   0  0  0  0  0  0  0  0  0  0  0  0
  -11.0333   -3.1658   -2.5723 H   0  0  0  0  0  0  0  0  0  0  0  0
  -13.7928   -4.1400   -3.8754 H   0  0  0  0  0  0  0  0  0  0  0  0
  -13.5982   -3.2556   -2.3651 H   0  0  0  0  0  0  0  0  0  0  0  0
  -14.6617   -1.6850   -4.0838 H   0  0  0  0  0  0  0  0  0  0  0  0
  -13.2677   -1.2896   -3.4604 H   0  0  0  0  0  0  0  0  0  0  0  0
  -10.3986   -1.9294   -6.0608 H   0  0  0  0  0  0  0  0  0  0  0  0
  -11.2337   -3.3674   -6.2031 H   0  0  0  0  0  0  0  0  0  0  0  0
  -10.6909   -2.4479   -7.5730 H   0  0  0  0  0  0  0  0  0  0  0  0
  -11.1285   -4.7143   -5.0520 H   0  0  0  0  0  0  0  0  0  0  0  0
   -7.4939   -2.8259   -4.6752 H   0  0  0  0  0  0  0  0  0  0  0  0
   -7.7687   -3.0603   -2.4779 H   0  0  0  0  0  0  0  0  0  0  0  0
  -11.6673   -1.4648   -1.7847 H   0  0  0  0  0  0  0  0  0  0  0  0
  -11.1567    0.1633   -1.3156 H   0  0  0  0  0  0  0  0  0  0  0  0
  -12.4967    0.2767   -3.5869 H   0  0  0  0  0  0  0  0  0  0  0  0
  -10.9888    0.7588   -3.9854 H   0  0  0  0  0  0  0  0  0  0  0  0
  -11.7242   -2.0562   -4.2765 H   0  0  0  0  0  0  0  0  0  0  0  0
  -11.2402   -0.7101   -5.2562 H   0  0  0  0  0  0  0  0  0  0  0  0
  -10.3132   -1.6831   -4.0173 H   0  0  0  0  0  0  0  0  0  0  0  0
   -7.2917   -0.6620   -5.0418 H   0  0  0  0  0  0  0  0  0  0  0  0
   -8.8059    1.2891   -4.5565 H   0  0  0  0  0  0  0  0  0  0  0  0
   -9.3506    0.8794   -3.2549 H   0  0  0  0  0  0  0  0  0  0  0  0
   -9.2918   -0.3285   -3.5917 H   0  0  0  0  0  0  0  0  0  0  0  0
   -9.7650   -0.1188   -6.2389 H   0  0  0  0  0  0  0  0  0  0  0  0
   -9.4094   -6.1864   -3.9855 H   0  0  0  0  0  0  0  0  0  0  0  0
   -7.7165   -7.2692   -5.3617 H   0  0  0  0  0  0  0  0  0  0  0  0
  1  2  2  0  0  0  0
  1 33  1  0  0  0  0
  2  3  1  0  0  0  0
  2  4  1  0  0  0  0
  3 34  1  0  0  0  0
  3 35  1  0  0  0  0
  4  5  2  0  0  0  0
  4 32  1  0  0  0  0
  5  6  1  0  0  0  0
  5 36  1  0  0  0  0
  6  7  2  0  0  0  0
  6 37  1  0  0  0  0
  7  8  1  0  0  0  0
  7 31  1  0  0  0  0
  8  9  1  0  0  0  0
  8 38  1  0  0  0  0
  8 39  1  0  0  0  0
  9 10  1  0  0  0  0
  9 40  1  0  0  0  0
 10 11  2  0  0  0  0
 12 17  1  0  0  0  0
 12 41  1  1  0  0  0
 12 13  1  0  0  0  0
 12 10  1  0  0  0  0
 13 14  1  0  0  0  0
 13 42  1  0  0  0  0
 13 43  1  0  0  0  0
 14 15  1  0  0  0  0
 14 44  1  0  0  0  0
 14 45  1  0  0  0  0
 15 16  1  0  0  0  0
 16 46  1  0  0  0  0
 16 47  1  0  0  0  0
 16 48  1  0  0  0  0
 17 18  1  0  0  0  0
 17 49  1  0  0  0  0
 18 19  2  0  0  0  0
 20 50  1  6  0  0  0
 20 21  1  0  0  0  0
 20 18  1  0  0  0  0
 21 22  1  0  0  0  0
 21 51  1  0  0  0  0
 22 23  2  0  0  0  0
 22 24  2  0  0  0  0
 22 25  1  0  0  0  0
 25 26  1  0  0  0  0
 25 52  1  0  0  0  0
 25 53  1  0  0  0  0
 26 27  1  0  0  0  0
 26 54  1  0  0  0  0
 26 55  1  0  0  0  0
 27 56  1  0  0  0  0
 27 57  1  0  0  0  0
 27 58  1  0  0  0  0
 28 30  1  0  0  0  0
 28 59  1  6  0  0  0
 28 29  1  0  0  0  0
 28 20  1  0  0  0  0
 29 60  1  0  0  0  0
 29 61  1  0  0  0  0
 29 62  1  0  0  0  0
 30 63  1  0  0  0  0
 31 32  2  0  0  0  0
 31 64  1  0  0  0  0
 32 65  1  0  0  0  0
M  END
>  <DRUGBANK_ID>
DB04767

>  <COMMON_NAME>
N-[1-(4-CARBAMIMIDOYL-BENZYLCARBAMOYL)-3-METHYLSULFANYL-PROPYL]-3-HYDROXY-2-PROPOXYAMINO-BUTYRAMID

$$$$
