
 OpenBabel10282417133D

 74 76  0  0  1  0  0  0  0  0999 V2000
   -4.3720   -2.4280    8.3695 C   0  0  0  0  0  0  0  0  0  0  0  0
   -4.2572   -2.7141    6.4480 C   0  0  0  0  0  0  0  0  0  0  0  0
   -4.7698   -4.5037    5.3325 C   0  0  0  0  0  0  0  0  0  0  0  0
   -4.6385   -1.4046    5.9085 C   0  0  0  0  0  0  0  0  0  0  0  0
   -3.8313   -0.2789    6.3810 C   0  0  1  0  0  0  0  0  0  0  0  0
   -2.4237   -0.3821    6.6663 N   0  0  0  0  0  0  0  0  0  0  0  0
   -1.3943    0.2242    5.9908 C   0  0  0  0  0  0  0  0  0  0  0  0
   -0.3134   -0.3671    6.0197 O   0  0  0  0  0  0  0  0  0  0  0  0
   -1.6738    1.3649    5.2114 N   0  0  0  0  0  0  0  0  0  0  0  0
   -2.6836    2.4317    5.5240 C   0  0  0  0  0  0  0  0  0  0  0  0
   -3.6726    2.8736    4.2757 C   0  0  0  0  0  0  0  0  0  0  0  0
   -2.9477    2.9979    3.0282 O   0  0  0  0  0  0  0  0  0  0  0  0
   -1.9077    2.0257    2.7322 C   0  0  0  0  0  0  0  0  0  0  0  0
   -0.9702    1.6311    3.9405 C   0  0  0  0  0  0  0  0  0  0  0  0
   -4.2585    0.5538    5.2599 C   0  0  0  0  0  0  0  0  0  0  0  0
   -5.1704    1.3386    5.5774 O   0  0  0  0  0  0  0  0  0  0  0  0
   -3.6326    0.3679    3.9863 N   0  0  0  0  0  0  0  0  0  0  0  0
   -2.7846   -0.6974    3.2249 C   0  0  2  0  0  0  0  0  0  0  0  0
   -3.7317   -0.8686    1.9037 C   0  0  0  0  0  0  0  0  0  0  0  0
   -4.1064   -2.3089    1.5063 C   0  0  0  0  0  0  0  0  0  0  0  0
   -5.2948   -2.8045    2.2472 C   0  0  0  0  0  0  0  0  0  0  0  0
   -4.9611   -3.2126    3.4100 C   0  0  0  0  0  0  0  0  0  0  0  0
   -5.9578   -2.9144    4.3384 C   0  0  0  0  0  0  0  0  0  0  0  0
   -7.2569   -2.7949    4.4246 C   0  0  0  0  0  0  0  0  0  0  0  0
   -7.6669   -2.7554    3.2035 C   0  0  0  0  0  0  0  0  0  0  0  0
   -6.6938   -2.7437    2.1313 C   0  0  0  0  0  0  0  0  0  0  0  0
   -2.7169   -1.8497    4.1238 C   0  0  0  0  0  0  0  0  0  0  0  0
   -2.0858   -2.7962    4.9090 C   0  0  0  0  0  0  0  0  0  0  0  0
   -2.6449   -4.3586    6.3649 S   0  0  0  0  0  0  0  0  0  0  0  0
   -2.4485   -5.5439    5.5897 O   0  0  0  0  0  0  0  0  0  0  0  0
   -1.8207   -4.0002    7.5036 O   0  0  0  0  0  0  0  0  0  0  0  0
   -4.8375   -4.4412    7.4287 C   0  0  0  0  0  0  0  0  0  0  0  0
   -5.4415   -5.5896    7.5469 C   0  0  0  0  0  0  0  0  0  0  0  0
   -6.9039   -5.3408    7.5317 C   0  0  0  0  0  0  0  0  0  0  0  0
   -7.8230   -4.0346    7.6058 C   0  0  0  0  0  0  0  0  0  0  0  0
   -7.3846   -2.7926    7.5744 C   0  0  0  0  0  0  0  0  0  0  0  0
   -6.0994   -3.1405    7.3478 C   0  0  0  0  0  0  0  0  0  0  0  0
   -5.3621   -2.0225    8.7591 H   0  0  0  0  0  0  0  0  0  0  0  0
   -4.0758   -1.4219    8.5899 H   0  0  0  0  0  0  0  0  0  0  0  0
   -4.6424   -3.2897    9.0387 H   0  0  0  0  0  0  0  0  0  0  0  0
   -3.2509   -2.5204    6.5999 H   0  0  0  0  0  0  0  0  0  0  0  0
   -5.8787   -4.6611    5.1738 H   0  0  0  0  0  0  0  0  0  0  0  0
   -4.2704   -4.8909    4.4211 H   0  0  0  0  0  0  0  0  0  0  0  0
   -4.9124   -5.5585    5.6059 H   0  0  0  0  0  0  0  0  0  0  0  0
   -4.4274   -1.8145    5.0380 H   0  0  0  0  0  0  0  0  0  0  0  0
   -5.6241   -1.0436    5.5409 H   0  0  0  0  0  0  0  0  0  0  0  0
   -4.3603   -0.0161    7.2910 H   0  0  0  0  0  0  0  0  0  0  0  0
   -2.1191   -1.2449    7.1164 H   0  0  0  0  0  0  0  0  0  0  0  0
   -2.1146    3.3200    5.7622 H   0  0  0  0  0  0  0  0  0  0  0  0
   -3.1656    2.1551    6.4766 H   0  0  0  0  0  0  0  0  0  0  0  0
   -4.5805    2.3022    3.9656 H   0  0  0  0  0  0  0  0  0  0  0  0
   -4.3391    3.6972    4.5623 H   0  0  0  0  0  0  0  0  0  0  0  0
   -1.3438    2.3545    1.8546 H   0  0  0  0  0  0  0  0  0  0  0  0
   -2.3453    1.1791    2.2073 H   0  0  0  0  0  0  0  0  0  0  0  0
   -0.3683    2.5106    4.1280 H   0  0  0  0  0  0  0  0  0  0  0  0
   -0.3158    0.7853    3.6763 H   0  0  0  0  0  0  0  0  0  0  0  0
   -3.8205    1.0754    3.2994 H   0  0  0  0  0  0  0  0  0  0  0  0
   -1.7584   -0.4707    2.9511 H   0  0  0  0  0  0  0  0  0  0  0  0
   -4.6735   -0.2930    2.0387 H   0  0  0  0  0  0  0  0  0  0  0  0
   -3.2073   -0.4093    1.0693 H   0  0  0  0  0  0  0  0  0  0  0  0
   -4.4500   -2.3909    0.4993 H   0  0  0  0  0  0  0  0  0  0  0  0
   -3.1856   -2.9034    1.6805 H   0  0  0  0  0  0  0  0  0  0  0  0
   -3.9130   -3.4844    3.6355 H   0  0  0  0  0  0  0  0  0  0  0  0
   -5.8133   -2.9827    5.3550 H   0  0  0  0  0  0  0  0  0  0  0  0
   -7.7402   -3.2313    5.2894 H   0  0  0  0  0  0  0  0  0  0  0  0
   -8.7284   -2.7909    3.2893 H   0  0  0  0  0  0  0  0  0  0  0  0
   -7.0933   -2.8453    1.1647 H   0  0  0  0  0  0  0  0  0  0  0  0
   -3.7239   -1.6221    3.8588 H   0  0  0  0  0  0  0  0  0  0  0  0
   -1.0087   -2.7116    4.7790 H   0  0  0  0  0  0  0  0  0  0  0  0
   -4.9212   -6.4723    7.1611 H   0  0  0  0  0  0  0  0  0  0  0  0
   -7.4941   -6.1680    7.1826 H   0  0  0  0  0  0  0  0  0  0  0  0
   -8.8911   -4.0754    7.4726 H   0  0  0  0  0  0  0  0  0  0  0  0
   -7.7257   -1.7341    7.4704 H   0  0  0  0  0  0  0  0  0  0  0  0
   -5.9067   -2.0504    7.1128 H   0  0  0  0  0  0  0  0  0  0  0  0
  1  2  1  0  0  0  0
  1 38  1  0  0  0  0
  1 39  1  0  0  0  0
  1 40  1  0  0  0  0
  2  3  1  0  0  0  0
  2  4  1  0  0  0  0
  2 41  1  0  0  0  0
  3 42  1  0  0  0  0
  3 43  1  0  0  0  0
  3 44  1  0  0  0  0
  4  5  1  0  0  0  0
  4 45  1  0  0  0  0
  4 46  1  0  0  0  0
  5  6  1  0  0  0  0
  5 15  1  0  0  0  0
  5 47  1  1  0  0  0
  6  7  1  0  0  0  0
  6 48  1  0  0  0  0
  7  8  2  0  0  0  0
  7  9  1  0  0  0  0
  9 10  1  0  0  0  0
  9 14  1  0  0  0  0
 10 11  1  0  0  0  0
 10 49  1  0  0  0  0
 10 50  1  0  0  0  0
 11 12  1  0  0  0  0
 11 51  1  0  0  0  0
 11 52  1  0  0  0  0
 12 13  1  0  0  0  0
 13 14  1  0  0  0  0
 13 53  1  0  0  0  0
 13 54  1  0  0  0  0
 14 55  1  0  0  0  0
 14 56  1  0  0  0  0
 15 16  2  0  0  0  0
 15 17  1  0  0  0  0
 17 57  1  0  0  0  0
 18 27  1  0  0  0  0
 18 58  1  6  0  0  0
 18 19  1  0  0  0  0
 18 17  1  0  0  0  0
 19 20  1  0  0  0  0
 19 59  1  0  0  0  0
 19 60  1  0  0  0  0
 20 21  1  0  0  0  0
 20 61  1  0  0  0  0
 20 62  1  0  0  0  0
 21 22  2  0  0  0  0
 21 26  1  0  0  0  0
 22 23  1  0  0  0  0
 22 63  1  0  0  0  0
 23 24  2  0  0  0  0
 23 64  1  0  0  0  0
 24 25  1  0  0  0  0
 24 65  1  0  0  0  0
 25 26  2  0  0  0  0
 25 66  1  0  0  0  0
 26 67  1  0  0  0  0
 27 28  2  0  0  0  0
 27 68  1  0  0  0  0
 28 29  1  0  0  0  0
 28 69  1  0  0  0  0
 29 30  2  0  0  0  0
 29 31  2  0  0  0  0
 29 32  1  0  0  0  0
 32 33  2  0  0  0  0
 32 37  1  0  0  0  0
 33 34  1  0  0  0  0
 33 70  1  0  0  0  0
 34 35  2  0  0  0  0
 34 71  1  0  0  0  0
 35 36  1  0  0  0  0
 35 72  1  0  0  0  0
 36 37  2  0  0  0  0
 36 73  1  0  0  0  0
 37 74  1  0  0  0  0
M  END
>  <DRUGBANK_ID>
DB03837

>  <SECONDARY_ACCESSION_NUMBERS>
EXPT00801

>  <COMMON_NAME>
Morpholine-4-Carboxylic Acid (1-(3-Benzenesulfonyl-1-Phenethylallylcarbamoyl)-3-Methylbutyl)-Amide

$$$$
