
 OpenBabel10282417173D

 43 45  0  0  0  0  0  0  0  0999 V2000
    0.1177   -2.8636    2.3138 C   0  0  0  0  0  0  0  0  0  0  0  0
    0.6901   -3.4374    1.1571 C   0  0  0  0  0  0  0  0  0  0  0  0
    0.9126   -4.8214    1.1652 C   0  0  0  0  0  0  0  0  0  0  0  0
    0.5613   -5.5868    2.2843 C   0  0  0  0  0  0  0  0  0  0  0  0
   -0.0235   -4.9894    3.4014 C   0  0  0  0  0  0  0  0  0  0  0  0
   -0.3025   -3.6341    3.3905 C   0  0  0  0  0  0  0  0  0  0  0  0
   -0.8954    3.0056   -0.4643 N   0  0  0  0  0  0  0  0  0  0  0  0
   -0.7034    1.9023    0.5228 C   0  0  1  0  0  0  0  0  0  0  0  0
   -0.6099    2.1749   -1.5333 C   0  0  0  0  0  0  0  0  0  0  0  0
   -0.6200    0.9279   -0.6633 C   0  0  1  0  0  0  0  0  0  0  0  0
   -0.0590    4.2040   -0.2899 C   0  0  2  0  0  0  0  0  0  0  0  0
    0.8371    2.3151    1.4062 S   0  0  0  0  0  0  0  0  0  0  0  0
    0.5692    4.1262    1.1235 C   0  0  0  0  0  0  0  0  0  0  0  0
    0.5008   -0.0902   -0.6625 N   0  0  0  0  0  0  0  0  0  0  0  0
    0.1404   -1.2760   -0.0704 C   0  0  0  0  0  0  0  0  0  0  0  0
   -0.6247   -3.4702   -1.5146 N   0  3  0  0  0  0  0  0  0  0  0  0
    0.9868   -2.5812   -0.0949 C   0  0  2  0  0  0  0  0  0  0  0  0
   -0.7492    5.5607   -0.5025 C   0  0  0  0  0  0  0  0  0  0  0  0
   -1.7462   -3.6206   -1.6780 N   0  5  0  0  0  0  0  0  0  0  0  0
    0.6008   -3.2881   -1.3523 N   0  0  0  0  0  0  0  0  0  0  0  0
   -0.9998   -1.3082    0.4198 O   0  0  0  0  0  0  0  0  0  0  0  0
   -2.0432    5.5462   -0.8846 O   0  0  0  0  0  0  0  0  0  0  0  0
   -0.1668    6.6219   -0.3075 O   0  0  0  0  0  0  0  0  0  0  0  0
    1.9396    4.7984    1.2256 C   0  0  0  0  0  0  0  0  0  0  0  0
   -0.3772    4.6569    2.2122 C   0  0  0  0  0  0  0  0  0  0  0  0
   -1.5659    1.7638    1.1820 H   0  0  0  0  0  0  0  0  0  0  0  0
   -0.4046    2.4251   -2.6913 O   0  0  0  0  0  0  0  0  0  0  0  0
   -0.0765   -1.7960    2.3903 H   0  0  0  0  0  0  0  0  0  0  0  0
    1.3439   -5.3210    0.3001 H   0  0  0  0  0  0  0  0  0  0  0  0
    0.7263   -6.6607    2.2822 H   0  0  0  0  0  0  0  0  0  0  0  0
   -0.2560   -5.5745    4.2854 H   0  0  0  0  0  0  0  0  0  0  0  0
   -0.8486   -3.1637    4.2042 H   0  0  0  0  0  0  0  0  0  0  0  0
   -1.5762    0.4102   -0.8397 H   0  0  0  0  0  0  0  0  0  0  0  0
    0.7285    4.1571   -1.0555 H   0  0  0  0  0  0  0  0  0  0  0  0
    1.4026    0.0875   -1.0965 H   0  0  0  0  0  0  0  0  0  0  0  0
    2.0669   -2.3875   -0.1289 H   0  0  0  0  0  0  0  0  0  0  0  0
   -2.4232    4.6679   -1.0757 H   0  0  0  0  0  0  0  0  0  0  0  0
    1.8687    5.8787    1.0686 H   0  0  0  0  0  0  0  0  0  0  0  0
    2.3812    4.6507    2.2191 H   0  0  0  0  0  0  0  0  0  0  0  0
    2.6450    4.4046    0.4844 H   0  0  0  0  0  0  0  0  0  0  0  0
    0.0177    4.4866    3.2186 H   0  0  0  0  0  0  0  0  0  0  0  0
   -0.5195    5.7392    2.1140 H   0  0  0  0  0  0  0  0  0  0  0  0
   -1.3712    4.1991    2.1494 H   0  0  0  0  0  0  0  0  0  0  0  0
  1  2  2  0  0  0  0
  1 28  1  0  0  0  0
  3  2  1  0  0  0  0
  3 29  1  0  0  0  0
  4  3  2  0  0  0  0
  4 30  1  0  0  0  0
  5  6  2  0  0  0  0
  5  4  1  0  0  0  0
  5 31  1  0  0  0  0
  6  1  1  0  0  0  0
  6 32  1  0  0  0  0
  8  7  1  0  0  0  0
  8 12  1  0  0  0  0
  8 10  1  0  0  0  0
  8 26  1  1  0  0  0
  9  7  1  0  0  0  0
  9 27  2  0  0  0  0
 10  9  1  0  0  0  0
 10 14  1  0  0  0  0
 10 33  1  6  0  0  0
 11  7  1  0  0  0  0
 11 34  1  6  0  0  0
 11 18  1  0  0  0  0
 13 11  1  0  0  0  0
 13 12  1  0  0  0  0
 14 35  1  0  0  0  0
 15 14  1  0  0  0  0
 17 20  1  0  0  0  0
 17 36  1  6  0  0  0
 17 15  1  0  0  0  0
 17  2  1  0  0  0  0
 19 16  2  0  0  0  0
 20 16  2  0  0  0  0
 21 15  2  0  0  0  0
 22 18  1  0  0  0  0
 22 37  1  0  0  0  0
 23 18  2  0  0  0  0
 24 13  1  0  0  0  0
 24 38  1  0  0  0  0
 24 39  1  0  0  0  0
 24 40  1  0  0  0  0
 25 13  1  0  0  0  0
 25 41  1  0  0  0  0
 25 42  1  0  0  0  0
 25 43  1  0  0  0  0
M  CHG  2  16   1  19  -1
M  END
>  <DRUGBANK_ID>
DB08795

>  <COMMON_NAME>
Azidocillin

>  <CAS_NUMBER>
17243-38-8

>  <UNII>
R8XDP7L3SL

>  <SYNONYMS>
(2S,5R,6R)-6-{[(2R)-2-azido-2-phenylacetyl]amino}-3,3-dimethyl-7-oxo-4-thia-1-azabicyclo[3.2.0]heptane-2-carboxylic acid; Azidocilina; Azidocillin; Azidocilline; Azidocillinum; D-(−)-(α-azidobenzyl)penicillin

$$$$
