
 OpenBabel10282417223D

 70 74  0  0  1  0  0  0  0  0999 V2000
    3.3806    7.0566   18.2562 C   0  0  0  0  0  0  0  0  0  0  0  0
    3.3437    7.5425   16.8164 C   0  0  0  0  0  0  0  0  0  0  0  0
    3.3120    7.9594   15.5814 C   0  0  0  0  0  0  0  0  0  0  0  0
    3.3228    8.3982   14.1617 C   0  0  1  0  0  0  0  0  0  0  0  0
    4.7346    8.4578   13.5841 C   0  0  0  0  0  0  0  0  0  0  0  0
    5.3953    7.0969   13.6523 C   0  0  0  0  0  0  0  0  0  0  0  0
    5.7689    6.5661   12.4686 O   0  0  0  0  0  0  0  0  0  0  0  0
    5.5900    6.4857   14.6931 O   0  0  0  0  0  0  0  0  0  0  0  0
    2.4168    7.5282   13.3238 C   0  0  0  0  0  0  0  0  0  0  0  0
    1.9978    6.3055   13.8431 C   0  0  0  0  0  0  0  0  0  0  0  0
    0.9607    5.6131   13.2541 C   0  0  0  0  0  0  0  0  0  0  0  0
    0.4818    6.0011   12.0008 C   0  0  0  0  0  0  0  0  0  0  0  0
   -0.2170    5.1742   11.1507 O   0  0  0  0  0  0  0  0  0  0  0  0
   -0.4157    3.8020   11.5502 C   0  0  0  0  0  0  0  0  0  0  0  0
    0.8174    2.9329   11.6978 C   0  0  0  0  0  0  0  0  0  0  0  0
    0.7322    1.5434   11.7364 C   0  0  0  0  0  0  0  0  0  0  0  0
    1.8853    0.7742   11.9185 C   0  0  0  0  0  0  0  0  0  0  0  0
    3.0889    1.3777   12.2881 C   0  0  0  0  0  0  0  0  0  0  0  0
    4.3807    0.6063   12.2687 C   0  0  0  0  0  0  0  0  0  0  0  0
    5.2422    0.8779   11.1278 N   0  0  0  0  0  0  0  0  0  0  0  0
    5.5862    2.4360   11.2198 C   0  0  0  0  0  0  0  0  0  0  0  0
    4.7244    3.1589   10.2236 C   0  0  0  0  0  0  0  0  0  0  0  0
    4.8406    2.1964    9.0340 C   0  0  3  0  0  0  0  0  0  0  0  0
    3.6793    1.2312    9.1364 C   0  0  0  0  0  0  0  0  0  0  0  0
    4.4887    0.1882    9.8096 C   0  0  0  0  0  0  0  0  0  0  0  0
    6.4149    1.1833    8.9701 C   0  0  0  0  0  0  0  0  0  0  0  0
    7.2130    2.1609    8.5717 C   0  0  0  0  0  0  0  0  0  0  0  0
    6.3560    2.7215    7.5999 C   0  0  0  0  0  0  0  0  0  0  0  0
    5.0272    3.0394    7.8449 C   0  0  0  0  0  0  0  0  0  0  0  0
    4.4245    3.9854    7.0535 C   0  0  0  0  0  0  0  0  0  0  0  0
    5.2659    4.4768    6.0306 C   0  0  0  0  0  0  0  0  0  0  0  0
    6.6037    4.0315    5.8435 C   0  0  0  0  0  0  0  0  0  0  0  0
    7.1075    3.0143    6.5542 C   0  0  0  0  0  0  0  0  0  0  0  0
    3.1037    2.7528   12.4663 C   0  0  0  0  0  0  0  0  0  0  0  0
    2.0602    3.4869   11.9564 C   0  0  0  0  0  0  0  0  0  0  0  0
    0.9191    7.2067   11.4500 C   0  0  0  0  0  0  0  0  0  0  0  0
    1.9133    7.9532   12.0889 C   0  0  0  0  0  0  0  0  0  0  0  0
    2.3890    6.7064   18.5561 H   0  0  0  0  0  0  0  0  0  0  0  0
    3.6859    7.8727   18.9167 H   0  0  0  0  0  0  0  0  0  0  0  0
    4.0939    6.2334   18.3525 H   0  0  0  0  0  0  0  0  0  0  0  0
    2.8839    9.4075   14.1402 H   0  0  0  0  0  0  0  0  0  0  0  0
    4.7147    8.8312   12.5525 H   0  0  0  0  0  0  0  0  0  0  0  0
    5.3446    9.1673   14.1579 H   0  0  0  0  0  0  0  0  0  0  0  0
    5.5964    7.0898   11.6663 H   0  0  0  0  0  0  0  0  0  0  0  0
    2.4911    5.8570   14.7061 H   0  0  0  0  0  0  0  0  0  0  0  0
    0.7311    4.6521   13.7049 H   0  0  0  0  0  0  0  0  0  0  0  0
   -0.9765    3.7871   12.4921 H   0  0  0  0  0  0  0  0  0  0  0  0
   -1.0579    3.3414   10.7908 H   0  0  0  0  0  0  0  0  0  0  0  0
   -0.2161    1.0449   11.5792 H   0  0  0  0  0  0  0  0  0  0  0  0
    1.8687   -0.2866   11.6914 H   0  0  0  0  0  0  0  0  0  0  0  0
    4.9549    0.8610   13.1571 H   0  0  0  0  0  0  0  0  0  0  0  0
    4.1940   -0.4656   12.2522 H   0  0  0  0  0  0  0  0  0  0  0  0
    5.8086    2.7836   12.2467 H   0  0  0  0  0  0  0  0  0  0  0  0
    6.5763    2.8630   10.9822 H   0  0  0  0  0  0  0  0  0  0  0  0
    3.6588    3.2190   10.3827 H   0  0  0  0  0  0  0  0  0  0  0  0
    4.9307    4.2446   10.1553 H   0  0  0  0  0  0  0  0  0  0  0  0
    2.8527    1.4655    9.7959 H   0  0  0  0  0  0  0  0  0  0  0  0
    3.2209    1.0213    8.1689 H   0  0  0  0  0  0  0  0  0  0  0  0
    5.0657   -0.1322    8.9012 H   0  0  0  0  0  0  0  0  0  0  0  0
    4.1469   -0.8336    9.9598 H   0  0  0  0  0  0  0  0  0  0  0  0
    6.9855    0.7021    9.8488 H   0  0  0  0  0  0  0  0  0  0  0  0
    7.0426    2.5499    9.5369 H   0  0  0  0  0  0  0  0  0  0  0  0
    3.4269    4.4175    7.1900 H   0  0  0  0  0  0  0  0  0  0  0  0
    4.9171    5.2137    5.3211 H   0  0  0  0  0  0  0  0  0  0  0  0
    7.3323    4.4919    5.2056 H   0  0  0  0  0  0  0  0  0  0  0  0
    8.0724    2.5312    6.5721 H   0  0  0  0  0  0  0  0  0  0  0  0
    4.0003    3.3359   12.6662 H   0  0  0  0  0  0  0  0  0  0  0  0
    2.3070    4.5259   11.7616 H   0  0  0  0  0  0  0  0  0  0  0  0
    0.4857    7.5597   10.5195 H   0  0  0  0  0  0  0  0  0  0  0  0
    2.2831    8.8635   11.6226 H   0  0  0  0  0  0  0  0  0  0  0  0
  1  2  1  0  0  0  0
  1 38  1  0  0  0  0
  1 39  1  0  0  0  0
  1 40  1  0  0  0  0
  2  3  3  0  0  0  0
  4  3  1  0  0  0  0
  4  5  1  0  0  0  0
  4  9  1  0  0  0  0
  4 41  1  6  0  0  0
  5  6  1  0  0  0  0
  5 42  1  0  0  0  0
  5 43  1  0  0  0  0
  6  7  1  0  0  0  0
  6  8  2  0  0  0  0
  7 44  1  0  0  0  0
  9 10  2  0  0  0  0
  9 37  1  0  0  0  0
 10 11  1  0  0  0  0
 10 45  1  0  0  0  0
 11 12  2  0  0  0  0
 11 46  1  0  0  0  0
 12 13  1  0  0  0  0
 12 36  1  0  0  0  0
 13 14  1  0  0  0  0
 14 15  1  0  0  0  0
 14 47  1  0  0  0  0
 14 48  1  0  0  0  0
 15 16  2  0  0  0  0
 15 35  1  0  0  0  0
 16 17  1  0  0  0  0
 16 49  1  0  0  0  0
 17 18  2  0  0  0  0
 17 50  1  0  0  0  0
 18 19  1  0  0  0  0
 18 34  1  0  0  0  0
 19 20  1  0  0  0  0
 19 51  1  0  0  0  0
 19 52  1  0  0  0  0
 20 21  1  0  0  0  0
 20 25  1  0  0  0  0
 21 22  1  0  0  0  0
 21 53  1  0  0  0  0
 21 54  1  0  0  0  0
 22 23  1  0  0  0  0
 22 55  1  0  0  0  0
 22 56  1  0  0  0  0
 23 24  1  0  0  0  0
 23 26  1  0  0  0  0
 23 29  1  0  0  0  0
 24 25  1  0  0  0  0
 24 57  1  0  0  0  0
 24 58  1  0  0  0  0
 25 59  1  0  0  0  0
 25 60  1  0  0  0  0
 26 27  2  0  0  0  0
 26 61  1  0  0  0  0
 27 28  1  0  0  0  0
 27 62  1  0  0  0  0
 28 29  2  0  0  0  0
 28 33  1  0  0  0  0
 29 30  1  0  0  0  0
 30 31  2  0  0  0  0
 30 63  1  0  0  0  0
 31 32  1  0  0  0  0
 31 64  1  0  0  0  0
 32 33  2  0  0  0  0
 32 65  1  0  0  0  0
 33 66  1  0  0  0  0
 34 35  2  0  0  0  0
 34 67  1  0  0  0  0
 35 68  1  0  0  0  0
 36 37  2  0  0  0  0
 36 69  1  0  0  0  0
 37 70  1  0  0  0  0
M  END
>  <DRUGBANK_ID>
DB15046

>  <COMMON_NAME>
LY-2881835

>  <CAS_NUMBER>
1292290-38-0

>  <UNII>
LAD0ZG7FFO

$$$$
