
 OpenBabel10282417213D

 57 58  0  0  1  0  0  0  0  0999 V2000
   -7.6463    3.5816    4.7004 C   0  0  0  0  0  0  0  0  0  0  0  0
   -6.4265    3.9888    4.0764 O   0  0  0  0  0  0  0  0  0  0  0  0
   -5.2850    3.4964    4.6293 C   0  0  0  0  0  0  0  0  0  0  0  0
   -5.2408    2.8297    5.6544 O   0  0  0  0  0  0  0  0  0  0  0  0
   -4.0624    3.8985    3.8290 C   0  0  0  0  0  0  0  0  0  0  0  0
   -4.0171    3.2912    2.4283 C   0  0  0  0  0  0  0  0  0  0  0  0
   -5.1052    3.7906    1.5193 C   0  0  0  0  0  0  0  0  0  0  0  0
   -4.9276    4.4853    0.4523 C   0  0  0  0  0  0  0  0  0  0  0  0
   -4.7649    5.2089   -0.6270 C   0  0  0  0  0  0  0  0  0  0  0  0
   -4.5187    6.6881   -0.6107 C   0  0  0  0  0  0  0  0  0  0  0  0
   -3.1043    6.9972   -1.1283 C   0  0  1  0  0  0  0  0  0  0  0  0
   -3.0365    8.0577   -2.2239 C   0  0  1  0  0  0  0  0  0  0  0  0
   -2.9619    9.4591   -1.6060 C   0  0  2  0  0  0  0  0  0  0  0  0
   -2.7186    9.2309   -0.1234 C   0  0  0  0  0  0  0  0  0  0  0  0
   -2.3503    7.7682   -0.0920 C   0  0  0  0  0  0  0  0  0  0  0  0
   -1.5563    7.2651    0.6901 O   0  0  0  0  0  0  0  0  0  0  0  0
   -4.2134   10.1082   -1.8530 O   0  0  0  0  0  0  0  0  0  0  0  0
   -1.8356    7.7831   -3.1387 C   0  0  0  0  0  0  0  0  0  0  0  0
   -2.1382    7.6027   -4.4204 C   0  0  0  0  0  0  0  0  0  0  0  0
   -1.4664    7.2116   -5.6909 C   0  0  1  0  0  0  0  0  0  0  0  0
   -1.9890    5.8721   -6.3147 C   0  0  0  0  0  0  0  0  0  0  0  0
   -3.2677    5.8271   -7.0291 O   0  0  0  0  0  0  0  0  0  0  0  0
   -4.4211    6.1146   -6.3561 C   0  0  0  0  0  0  0  0  0  0  0  0
   -4.6492    7.3779   -5.8536 C   0  0  0  0  0  0  0  0  0  0  0  0
   -5.6336    7.6360   -4.9027 C   0  0  0  0  0  0  0  0  0  0  0  0
   -6.6948    6.7746   -4.8189 C   0  0  0  0  0  0  0  0  0  0  0  0
   -6.6963    5.6701   -5.6673 C   0  0  0  0  0  0  0  0  0  0  0  0
   -5.5241    5.2776   -6.3531 C   0  0  0  0  0  0  0  0  0  0  0  0
   -1.5883    8.2910   -6.6208 O   0  0  0  0  0  0  0  0  0  0  0  0
   -8.4768    3.9615    4.0961 H   0  0  0  0  0  0  0  0  0  0  0  0
   -7.7178    4.0146    5.7007 H   0  0  0  0  0  0  0  0  0  0  0  0
   -7.7269    2.4901    4.7355 H   0  0  0  0  0  0  0  0  0  0  0  0
   -3.9858    4.9912    3.8015 H   0  0  0  0  0  0  0  0  0  0  0  0
   -3.1850    3.5403    4.3837 H   0  0  0  0  0  0  0  0  0  0  0  0
   -3.0397    3.5164    1.9795 H   0  0  0  0  0  0  0  0  0  0  0  0
   -4.0874    2.1992    2.4917 H   0  0  0  0  0  0  0  0  0  0  0  0
   -6.1331    3.5781    1.8035 H   0  0  0  0  0  0  0  0  0  0  0  0
   -4.7512    4.6972   -1.5828 H   0  0  0  0  0  0  0  0  0  0  0  0
   -5.3018    7.1559   -1.2197 H   0  0  0  0  0  0  0  0  0  0  0  0
   -4.6553    7.0637    0.4124 H   0  0  0  0  0  0  0  0  0  0  0  0
   -2.5782    6.0884   -1.4412 H   0  0  0  0  0  0  0  0  0  0  0  0
   -3.9840    7.9908   -2.7690 H   0  0  0  0  0  0  0  0  0  0  0  0
   -2.1681   10.0612   -2.0666 H   0  0  0  0  0  0  0  0  0  0  0  0
   -1.9035    9.8455    0.2585 H   0  0  0  0  0  0  0  0  0  0  0  0
   -3.6282    9.3840    0.4638 H   0  0  0  0  0  0  0  0  0  0  0  0
   -4.1156   11.0663   -1.7091 H   0  0  0  0  0  0  0  0  0  0  0  0
   -0.8240    7.6887   -2.7690 H   0  0  0  0  0  0  0  0  0  0  0  0
   -3.1667    7.8165   -4.5089 H   0  0  0  0  0  0  0  0  0  0  0  0
   -0.4009    7.1108   -5.4694 H   0  0  0  0  0  0  0  0  0  0  0  0
   -1.2557    5.6220   -7.0972 H   0  0  0  0  0  0  0  0  0  0  0  0
   -1.9329    5.0533   -5.5861 H   0  0  0  0  0  0  0  0  0  0  0  0
   -3.9769    8.1853   -6.1036 H   0  0  0  0  0  0  0  0  0  0  0  0
   -5.5700    8.5256   -4.2793 H   0  0  0  0  0  0  0  0  0  0  0  0
   -7.5344    7.0281   -4.1794 H   0  0  0  0  0  0  0  0  0  0  0  0
   -7.6282    5.1349   -5.8142 H   0  0  0  0  0  0  0  0  0  0  0  0
   -5.5237    4.3584   -6.9296 H   0  0  0  0  0  0  0  0  0  0  0  0
   -2.3357    8.0957   -7.2154 H   0  0  0  0  0  0  0  0  0  0  0  0
  1  2  1  0  0  0  0
  1 30  1  0  0  0  0
  1 31  1  0  0  0  0
  1 32  1  0  0  0  0
  2  3  1  0  0  0  0
  3  4  2  0  0  0  0
  3  5  1  0  0  0  0
  5  6  1  0  0  0  0
  5 33  1  0  0  0  0
  5 34  1  0  0  0  0
  6  7  1  0  0  0  0
  6 35  1  0  0  0  0
  6 36  1  0  0  0  0
  7  8  2  0  0  0  0
  7 37  1  0  0  0  0
  8  9  2  0  0  0  0
  9 10  1  0  0  0  0
  9 38  1  0  0  0  0
 10 39  1  0  0  0  0
 10 40  1  0  0  0  0
 11 12  1  0  0  0  0
 11 15  1  0  0  0  0
 11 41  1  6  0  0  0
 11 10  1  0  0  0  0
 12 13  1  0  0  0  0
 12 18  1  0  0  0  0
 12 42  1  6  0  0  0
 13 14  1  0  0  0  0
 13 43  1  6  0  0  0
 13 17  1  0  0  0  0
 14 15  1  0  0  0  0
 14 44  1  0  0  0  0
 14 45  1  0  0  0  0
 15 16  2  0  0  0  0
 17 46  1  0  0  0  0
 18 19  2  0  0  0  0
 18 47  1  0  0  0  0
 19 20  1  0  0  0  0
 19 48  1  0  0  0  0
 20 21  1  0  0  0  0
 20 29  1  0  0  0  0
 20 49  1  1  0  0  0
 21 22  1  0  0  0  0
 21 50  1  0  0  0  0
 21 51  1  0  0  0  0
 22 23  1  0  0  0  0
 23 24  2  0  0  0  0
 23 28  1  0  0  0  0
 24 25  1  0  0  0  0
 24 52  1  0  0  0  0
 25 26  2  0  0  0  0
 25 53  1  0  0  0  0
 26 27  1  0  0  0  0
 26 54  1  0  0  0  0
 27 28  2  0  0  0  0
 27 55  1  0  0  0  0
 28 56  1  0  0  0  0
 29 57  1  0  0  0  0
M  END
>  <DRUGBANK_ID>
DB13824

>  <COMMON_NAME>
Enprostil

>  <CAS_NUMBER>
73121-56-9

>  <UNII>
J4IP5Z9DAU

>  <SYNONYMS>
Enprostil

$$$$
