PFP
 OpenBabel10282417173D

 50 53  0  0  0  0  0  0  0  0999 V2000
    0.9847    0.1032   -0.0397 C   0  0  0  0  0  0  0  0  0  0  0  0
    0.4434    0.9003   -1.0897 O   0  0  0  0  0  0  0  0  0  0  0  0
    0.8101    2.2174   -1.0341 C   0  0  0  0  0  0  0  0  0  0  0  0
    2.0892    2.6479   -0.6779 C   0  0  0  0  0  0  0  0  0  0  0  0
    2.4106    4.0059   -0.7060 C   0  0  0  0  0  0  0  0  0  0  0  0
   -0.1310    3.1406   -1.4940 C   0  0  0  0  0  0  0  0  0  0  0  0
    0.2182    4.4861   -1.6340 C   0  0  0  0  0  0  0  0  0  0  0  0
    1.4907    4.9281   -1.2296 C   0  0  0  0  0  0  0  0  0  0  0  0
    1.9572    6.2682   -1.5797 C   0  0  0  0  0  0  0  0  0  0  0  0
    2.9394    6.7664   -2.5195 C   0  0  0  0  0  0  0  0  0  0  0  0
    3.8247    6.2875   -3.5374 C   0  0  0  0  0  0  0  0  0  0  0  0
    3.9113    5.0153   -4.1058 N   0  0  0  0  0  0  0  0  0  0  0  0
    3.1636    3.9161   -3.5666 C   0  0  0  0  0  0  0  0  0  0  0  0
    2.2092    3.2056   -4.4973 C   0  0  0  0  0  0  0  0  0  0  0  0
    2.9276    2.4359   -5.4319 O   0  0  0  0  0  0  0  0  0  0  0  0
    4.6583    7.1824   -4.1138 N   0  0  0  0  0  0  0  0  0  0  0  0
    4.5606    8.4856   -3.7952 C   0  0  0  0  0  0  0  0  0  0  0  0
    3.7175    9.0552   -2.9235 N   0  0  0  0  0  0  0  0  0  0  0  0
    2.9397    8.1536   -2.3170 C   0  0  0  0  0  0  0  0  0  0  0  0
    1.9809    8.5070   -1.3946 O   0  0  0  0  0  0  0  0  0  0  0  0
    1.3979    7.3637   -0.9486 C   0  0  0  0  0  0  0  0  0  0  0  0
    0.3285    7.4143    0.0438 C   0  0  0  0  0  0  0  0  0  0  0  0
   -0.8861    8.0480   -0.2302 C   0  0  0  0  0  0  0  0  0  0  0  0
   -2.0011    7.8285    0.5945 C   0  0  0  0  0  0  0  0  0  0  0  0
   -1.9233    6.9669    1.6917 C   0  0  0  0  0  0  0  0  0  0  0  0
   -2.9359    6.6878    2.5679 O   0  0  0  0  0  0  0  0  0  0  0  0
   -4.1041    7.4925    2.4552 C   0  0  0  0  0  0  0  0  0  0  0  0
   -0.7249    6.3060    1.9485 C   0  0  0  0  0  0  0  0  0  0  0  0
    0.3978    6.5614    1.1607 C   0  0  0  0  0  0  0  0  0  0  0  0
    0.5936   -0.9118   -0.1505 H   0  0  0  0  0  0  0  0  0  0  0  0
    0.6657    0.4920    0.9327 H   0  0  0  0  0  0  0  0  0  0  0  0
    2.0755    0.0326   -0.0911 H   0  0  0  0  0  0  0  0  0  0  0  0
    2.8894    1.9385   -0.4908 H   0  0  0  0  0  0  0  0  0  0  0  0
    3.4415    4.3090   -0.5279 H   0  0  0  0  0  0  0  0  0  0  0  0
   -1.1167    2.8006   -1.8039 H   0  0  0  0  0  0  0  0  0  0  0  0
   -0.4728    5.1607   -2.1377 H   0  0  0  0  0  0  0  0  0  0  0  0
    4.7962    4.8410   -4.5687 H   0  0  0  0  0  0  0  0  0  0  0  0
    3.7853    3.2435   -2.9683 H   0  0  0  0  0  0  0  0  0  0  0  0
    2.4351    4.3772   -2.9746 H   0  0  0  0  0  0  0  0  0  0  0  0
    1.5540    2.5478   -3.9108 H   0  0  0  0  0  0  0  0  0  0  0  0
    1.5625    3.9311   -5.0048 H   0  0  0  0  0  0  0  0  0  0  0  0
    3.6043    3.0447   -5.7730 H   0  0  0  0  0  0  0  0  0  0  0  0
    5.2366    9.1479   -4.3259 H   0  0  0  0  0  0  0  0  0  0  0  0
   -0.9966    8.6637   -1.1191 H   0  0  0  0  0  0  0  0  0  0  0  0
   -2.9332    8.3169    0.3293 H   0  0  0  0  0  0  0  0  0  0  0  0
   -3.8644    8.5610    2.4972 H   0  0  0  0  0  0  0  0  0  0  0  0
   -4.6485    7.2458    1.5385 H   0  0  0  0  0  0  0  0  0  0  0  0
   -4.7566    7.2686    3.3045 H   0  0  0  0  0  0  0  0  0  0  0  0
   -0.6658    5.5698    2.7469 H   0  0  0  0  0  0  0  0  0  0  0  0
    1.3165    6.0196    1.3812 H   0  0  0  0  0  0  0  0  0  0  0  0
  1  2  1  0  0  0  0
  1 30  1  0  0  0  0
  1 31  1  0  0  0  0
  1 32  1  0  0  0  0
  2  3  1  0  0  0  0
  3  4  2  0  0  0  0
  3  6  1  0  0  0  0
  4  5  1  0  0  0  0
  4 33  1  0  0  0  0
  5  8  2  0  0  0  0
  5 34  1  0  0  0  0
  6  7  2  0  0  0  0
  6 35  1  0  0  0  0
  7  8  1  0  0  0  0
  7 36  1  0  0  0  0
  8  9  1  0  0  0  0
  9 10  1  0  0  0  0
  9 21  2  0  0  0  0
 10 11  2  0  0  0  0
 10 19  1  0  0  0  0
 11 12  1  0  0  0  0
 11 16  1  0  0  0  0
 12 13  1  0  0  0  0
 12 37  1  0  0  0  0
 13 14  1  0  0  0  0
 13 38  1  0  0  0  0
 13 39  1  0  0  0  0
 14 15  1  0  0  0  0
 14 40  1  0  0  0  0
 14 41  1  0  0  0  0
 15 42  1  0  0  0  0
 16 17  2  0  0  0  0
 17 18  1  0  0  0  0
 17 43  1  0  0  0  0
 18 19  2  0  0  0  0
 19 20  1  0  0  0  0
 20 21  1  0  0  0  0
 21 22  1  0  0  0  0
 22 23  2  0  0  0  0
 22 29  1  0  0  0  0
 23 24  1  0  0  0  0
 23 44  1  0  0  0  0
 24 25  2  0  0  0  0
 24 45  1  0  0  0  0
 25 26  1  0  0  0  0
 25 28  1  0  0  0  0
 26 27  1  0  0  0  0
 27 46  1  0  0  0  0
 27 47  1  0  0  0  0
 27 48  1  0  0  0  0
 28 29  2  0  0  0  0
 28 49  1  0  0  0  0
 29 50  1  0  0  0  0
M  END
>  <DRUGBANK_ID>
DB08392

>  <COMMON_NAME>
2-[5,6-BIS-(4-METHOXY-PHENYL)-FURO[2,3-D]PYRIMIDIN-4-YLAMINO]-ETHANOL

$$$$
