
 OpenBabel10282417103D

 19 19  0  0  0  0  0  0  0  0999 V2000
    1.8215    0.0035    0.0737 C   0  0  0  0  0  0  0  0  0  0  0  0
    1.0990    1.1817    0.0023 C   0  0  0  0  0  0  0  0  0  0  0  0
   -0.2880    1.1299   -0.0610 C   0  0  0  0  0  0  0  0  0  0  0  0
    1.1436   -1.2043    0.0110 C   0  0  0  0  0  0  0  0  0  0  0  0
   -0.9530   -0.0542   -0.0468 N   0  3  0  0  0  0  0  0  0  0  0  0
   -2.4212   -0.0223    0.0913 C   0  0  0  0  0  0  0  0  0  0  0  0
   -0.2546   -1.2248   -0.0679 C   0  0  0  0  0  0  0  0  0  0  0  0
   -0.9429   -2.5285   -0.1993 C   0  0  0  0  0  0  0  0  0  0  0  0
   -0.2631   -3.6338   -0.2329 N   0  0  0  0  0  0  0  0  0  0  0  0
   -1.1356   -4.7139   -0.3845 O   0  0  0  0  0  0  0  0  0  0  0  0
    2.9069    0.0201    0.1626 H   0  0  0  0  0  0  0  0  0  0  0  0
    1.6155    2.1399    0.0115 H   0  0  0  0  0  0  0  0  0  0  0  0
   -0.8743    2.0452   -0.1049 H   0  0  0  0  0  0  0  0  0  0  0  0
    1.7109   -2.1345    0.0252 H   0  0  0  0  0  0  0  0  0  0  0  0
   -2.8739   -0.5443   -0.7526 H   0  0  0  0  0  0  0  0  0  0  0  0
   -2.6699   -0.4911    1.0479 H   0  0  0  0  0  0  0  0  0  0  0  0
   -2.7733    1.0137    0.1045 H   0  0  0  0  0  0  0  0  0  0  0  0
   -2.0403   -2.5554   -0.2865 H   0  0  0  0  0  0  0  0  0  0  0  0
   -0.5293   -5.4836   -0.4041 H   0  0  0  0  0  0  0  0  0  0  0  0
  1  2  1  0  0  0  0
  1  4  2  0  0  0  0
  1 11  1  0  0  0  0
  2  3  2  0  0  0  0
  2 12  1  0  0  0  0
  3  5  1  0  0  0  0
  3 13  1  0  0  0  0
  4 14  1  0  0  0  0
  5  7  2  0  0  0  0
  5  6  1  0  0  0  0
  6 15  1  0  0  0  0
  6 16  1  0  0  0  0
  6 17  1  0  0  0  0
  7  4  1  0  0  0  0
  7  8  1  0  0  0  0
  8  9  2  0  0  0  0
  8 18  1  0  0  0  0
  9 10  1  0  0  0  0
 10 19  1  0  0  0  0
M  CHG  1   5   1
M  END
>  <DRUGBANK_ID>
DB00733

>  <SECONDARY_ACCESSION_NUMBERS>
APRD01193

>  <COMMON_NAME>
Pralidoxime

>  <CAS_NUMBER>
6735-59-7

>  <UNII>
P7MU9UTP52

>  <SYNONYMS>
2-PAM; Pralidoxim; Pralidoxima; Pralidoxime; Pralidoximum

$$$$
