
 OpenBabel10282417223D

 57 56  0  0  0  0  0  0  0  0999 V2000
    1.0239    0.0446    0.0844 C   0  0  0  0  0  0  0  0  0  0  0  0
    0.5507    1.4473    0.4497 C   0  0  0  0  0  0  0  0  0  0  0  0
    0.6159   -0.4419   -1.3044 C   0  0  0  0  0  0  0  0  0  0  0  0
    1.0495    2.5204   -0.5166 C   0  0  0  0  0  0  0  0  0  0  0  0
    1.0699   -1.8402   -1.6340 C   0  0  0  0  0  0  0  0  0  0  0  0
    0.4747    2.4482   -1.9318 C   0  0  0  0  0  0  0  0  0  0  0  0
    0.4238   -2.8353   -0.6977 C   0  0  0  0  0  0  0  0  0  0  0  0
   -1.0517    2.3247   -1.9244 C   0  0  0  0  0  0  0  0  0  0  0  0
   -1.1078   -2.7533   -0.7790 C   0  0  0  0  0  0  0  0  0  0  0  0
   -1.6380    3.6633   -1.5039 C   0  0  0  0  0  0  0  0  0  0  0  0
   -1.6161   -3.0278   -2.2021 C   0  0  0  0  0  0  0  0  0  0  0  0
   -1.1933    4.7562   -2.4818 C   0  0  0  0  0  0  0  0  0  0  0  0
   -1.1589   -4.4058   -2.6912 C   0  0  0  0  0  0  0  0  0  0  0  0
   -1.6588    4.4443   -3.9101 C   0  0  0  0  0  0  0  0  0  0  0  0
   -1.6578   -5.5218   -1.7659 C   0  0  0  0  0  0  0  0  0  0  0  0
   -3.1828    4.3756   -3.9879 C   0  0  0  0  0  0  0  0  0  0  0  0
   -3.1795   -5.5511   -1.6715 C   0  0  0  0  0  0  0  0  0  0  0  0
   -3.7903    5.6913   -3.5293 C   0  0  0  0  0  0  0  0  0  0  0  0
   -3.7417   -5.8036   -2.9566 O   0  0  0  0  0  0  0  0  0  0  0  0
    0.6323   -0.6248    0.8562 H   0  0  0  0  0  0  0  0  0  0  0  0
    2.1155    0.0134    0.1512 H   0  0  0  0  0  0  0  0  0  0  0  0
   -0.5407    1.4661    0.5579 H   0  0  0  0  0  0  0  0  0  0  0  0
    0.9245    1.6855    1.4534 H   0  0  0  0  0  0  0  0  0  0  0  0
   -0.4597   -0.3186   -1.4667 H   0  0  0  0  0  0  0  0  0  0  0  0
    1.1305    0.1037   -2.0743 H   0  0  0  0  0  0  0  0  0  0  0  0
    0.7977    3.4995   -0.0908 H   0  0  0  0  0  0  0  0  0  0  0  0
    2.1419    2.4898   -0.5676 H   0  0  0  0  0  0  0  0  0  0  0  0
    0.8140   -2.0440   -2.6829 H   0  0  0  0  0  0  0  0  0  0  0  0
    2.1617   -1.8874   -1.5900 H   0  0  0  0  0  0  0  0  0  0  0  0
    0.8361    3.3140   -2.4830 H   0  0  0  0  0  0  0  0  0  0  0  0
    0.9152    1.6963   -2.5718 H   0  0  0  0  0  0  0  0  0  0  0  0
    0.7942   -3.8331   -0.9441 H   0  0  0  0  0  0  0  0  0  0  0  0
    0.7517   -2.6555    0.3289 H   0  0  0  0  0  0  0  0  0  0  0  0
   -1.4116    1.9985   -2.9064 H   0  0  0  0  0  0  0  0  0  0  0  0
   -1.4328    1.5481   -1.2556 H   0  0  0  0  0  0  0  0  0  0  0  0
   -1.5373   -3.4540   -0.0584 H   0  0  0  0  0  0  0  0  0  0  0  0
   -1.4814   -1.7782   -0.4468 H   0  0  0  0  0  0  0  0  0  0  0  0
   -2.7278    3.5860   -1.4419 H   0  0  0  0  0  0  0  0  0  0  0  0
   -1.3180    3.9160   -0.4877 H   0  0  0  0  0  0  0  0  0  0  0  0
   -2.7071   -2.9413   -2.2241 H   0  0  0  0  0  0  0  0  0  0  0  0
   -1.2767   -2.2592   -2.9062 H   0  0  0  0  0  0  0  0  0  0  0  0
   -1.5490    5.7254   -2.1317 H   0  0  0  0  0  0  0  0  0  0  0  0
   -0.1096    4.8957   -2.4812 H   0  0  0  0  0  0  0  0  0  0  0  0
   -1.4986   -4.5658   -3.7191 H   0  0  0  0  0  0  0  0  0  0  0  0
   -0.0655   -4.4497   -2.7558 H   0  0  0  0  0  0  0  0  0  0  0  0
   -1.2740    5.2086   -4.5917 H   0  0  0  0  0  0  0  0  0  0  0  0
   -1.2332    3.5012   -4.2772 H   0  0  0  0  0  0  0  0  0  0  0  0
   -1.2844   -6.4790   -2.1410 H   0  0  0  0  0  0  0  0  0  0  0  0
   -1.2354   -5.4079   -0.7595 H   0  0  0  0  0  0  0  0  0  0  0  0
   -3.4885    4.1522   -5.0139 H   0  0  0  0  0  0  0  0  0  0  0  0
   -3.5718    3.5532   -3.3752 H   0  0  0  0  0  0  0  0  0  0  0  0
   -3.5028   -6.3355   -0.9884 H   0  0  0  0  0  0  0  0  0  0  0  0
   -3.5931   -4.6104   -1.2923 H   0  0  0  0  0  0  0  0  0  0  0  0
   -3.4122    6.5095   -4.1495 H   0  0  0  0  0  0  0  0  0  0  0  0
   -4.8777    5.6603   -3.5902 H   0  0  0  0  0  0  0  0  0  0  0  0
   -3.5417    5.9178   -2.4874 H   0  0  0  0  0  0  0  0  0  0  0  0
   -3.4717   -5.0951   -3.5451 H   0  0  0  0  0  0  0  0  0  0  0  0
  1  2  1  0  0  0  0
  1  3  1  0  0  0  0
  1 20  1  0  0  0  0
  1 21  1  0  0  0  0
  2  4  1  0  0  0  0
  2 22  1  0  0  0  0
  2 23  1  0  0  0  0
  3  5  1  0  0  0  0
  3 24  1  0  0  0  0
  3 25  1  0  0  0  0
  4  6  1  0  0  0  0
  4 26  1  0  0  0  0
  4 27  1  0  0  0  0
  5  7  1  0  0  0  0
  5 28  1  0  0  0  0
  5 29  1  0  0  0  0
  6  8  1  0  0  0  0
  6 30  1  0  0  0  0
  6 31  1  0  0  0  0
  7  9  1  0  0  0  0
  7 32  1  0  0  0  0
  7 33  1  0  0  0  0
  8 10  1  0  0  0  0
  8 34  1  0  0  0  0
  8 35  1  0  0  0  0
  9 11  1  0  0  0  0
  9 36  1  0  0  0  0
  9 37  1  0  0  0  0
 10 12  1  0  0  0  0
 10 38  1  0  0  0  0
 10 39  1  0  0  0  0
 11 13  1  0  0  0  0
 11 40  1  0  0  0  0
 11 41  1  0  0  0  0
 12 14  1  0  0  0  0
 12 42  1  0  0  0  0
 12 43  1  0  0  0  0
 13 15  1  0  0  0  0
 13 44  1  0  0  0  0
 13 45  1  0  0  0  0
 14 16  1  0  0  0  0
 14 46  1  0  0  0  0
 14 47  1  0  0  0  0
 15 17  1  0  0  0  0
 15 48  1  0  0  0  0
 15 49  1  0  0  0  0
 16 18  1  0  0  0  0
 16 50  1  0  0  0  0
 16 51  1  0  0  0  0
 17 19  1  0  0  0  0
 17 52  1  0  0  0  0
 17 53  1  0  0  0  0
 18 54  1  0  0  0  0
 18 55  1  0  0  0  0
 18 56  1  0  0  0  0
 19 57  1  0  0  0  0
M  END
>  <DRUGBANK_ID>
DB15953

>  <COMMON_NAME>
Stearyl alcohol

>  <CAS_NUMBER>
112-92-5

>  <UNII>
2KR89I4H1Y

>  <SYNONYMS>
1-Octadecanol; Octadecan-1-ol; Octadecyl alcohol; Stearyl alcohol

$$$$
