
 OpenBabel10282417123D

 30 30  0  0  0  0  0  0  0  0999 V2000
   -0.0585    2.0255    0.3394 O   0  0  0  0  0  0  0  0  0  0  0  0
    0.0682   -2.1416    0.3209 O   0  0  0  0  0  0  0  0  0  0  0  0
   -2.4150   -0.7550   -0.2755 O   0  0  0  0  0  0  0  0  0  0  0  0
    2.4630   -0.6083   -0.2985 O   0  0  0  0  0  0  0  0  0  0  0  0
   -2.4584    3.4618   -0.0645 O   0  0  0  0  0  0  0  0  0  0  0  0
    4.1368    3.4238   -0.0084 O   0  0  0  0  0  0  0  0  0  0  0  0
    2.2303    2.2568    0.2547 N   0  0  0  0  0  0  0  0  0  0  0  0
    0.0305   -0.8081   -0.1982 C   0  0  1  0  0  0  0  0  0  0  0  0
   -1.2591   -0.0983    0.2443 C   0  0  1  0  0  0  0  0  0  0  0  0
    1.2750   -0.0216    0.2460 C   0  0  2  0  0  0  0  0  0  0  0  0
   -1.2328    1.3751   -0.1819 C   0  0  1  0  0  0  0  0  0  0  0  0
    1.1267    1.4474   -0.1953 C   0  0  1  0  0  0  0  0  0  0  0  0
   -2.4770    2.0964    0.3431 C   0  0  0  0  0  0  0  0  0  0  0  0
    3.1800    2.8478   -0.5248 C   0  0  0  0  0  0  0  0  0  0  0  0
    3.0020    2.7820   -2.0178 C   0  0  0  0  0  0  0  0  0  0  0  0
    2.4198    2.3003    1.2480 H   0  0  0  0  0  0  0  0  0  0  0  0
    0.1185   -2.0938    1.2923 H   0  0  0  0  0  0  0  0  0  0  0  0
   -2.3490   -0.8091   -1.2449 H   0  0  0  0  0  0  0  0  0  0  0  0
    2.3906   -0.6309   -1.2677 H   0  0  0  0  0  0  0  0  0  0  0  0
   -1.6375    3.8409    0.3021 H   0  0  0  0  0  0  0  0  0  0  0  0
    0.0341   -0.9258   -1.2887 H   0  0  0  0  0  0  0  0  0  0  0  0
   -1.3273   -0.1614    1.3372 H   0  0  0  0  0  0  0  0  0  0  0  0
    1.3667   -0.0817    1.3378 H   0  0  0  0  0  0  0  0  0  0  0  0
   -1.2240    1.4705   -1.2772 H   0  0  0  0  0  0  0  0  0  0  0  0
    1.0756    1.4848   -1.2863 H   0  0  0  0  0  0  0  0  0  0  0  0
   -3.3901    1.6406   -0.0519 H   0  0  0  0  0  0  0  0  0  0  0  0
   -2.5138    2.0703    1.4366 H   0  0  0  0  0  0  0  0  0  0  0  0
    3.0450    1.7419   -2.3543 H   0  0  0  0  0  0  0  0  0  0  0  0
    2.0446    3.2320   -2.2974 H   0  0  0  0  0  0  0  0  0  0  0  0
    3.8004    3.3383   -2.5144 H   0  0  0  0  0  0  0  0  0  0  0  0
  1 11  1  0  0  0  0
  1 12  1  0  0  0  0
  2 17  1  0  0  0  0
  3 18  1  0  0  0  0
  4 19  1  0  0  0  0
  5 13  1  0  0  0  0
  5 20  1  0  0  0  0
  6 14  2  0  0  0  0
  7 14  1  0  0  0  0
  7 16  1  0  0  0  0
  8  2  1  0  0  0  0
  8  9  1  0  0  0  0
  8 10  1  0  0  0  0
  8 21  1  6  0  0  0
  9  3  1  0  0  0  0
  9 11  1  0  0  0  0
  9 22  1  1  0  0  0
 10  4  1  0  0  0  0
 10 12  1  0  0  0  0
 10 23  1  1  0  0  0
 11 13  1  0  0  0  0
 11 24  1  6  0  0  0
 12  7  1  0  0  0  0
 12 25  1  6  0  0  0
 13 26  1  0  0  0  0
 13 27  1  0  0  0  0
 14 15  1  0  0  0  0
 15 28  1  0  0  0  0
 15 29  1  0  0  0  0
 15 30  1  0  0  0  0
M  END
>  <DRUGBANK_ID>
DB02320

>  <SECONDARY_ACCESSION_NUMBERS>
EXPT02300

>  <COMMON_NAME>
N-beta-D-glucopyranosylacetamide

>  <CAS_NUMBER>
6983-36-4

>  <SYNONYMS>
1-N-acetyl-beta-D-glucosamine

$$$$
