444703
 OpenBabel10282417163D

 35 38  0  0  1  0  0  0  0  0999 V2000
   -1.3144   -2.2308    1.0814 S   0  0  0  0  0  0  0  0  0  0  0  0
   -1.1110    0.8995   -2.5698 O   0  0  0  0  0  0  0  0  0  0  0  0
   -1.6232   -0.4171   -0.6994 N   0  0  0  0  0  0  0  0  0  0  0  0
   -0.6098   -1.5624   -0.5016 C   0  0  1  0  0  0  0  0  0  0  0  0
    0.6702   -0.7014   -0.3663 C   0  0  0  0  0  0  0  0  0  0  0  0
   -2.0926    0.1829    0.6979 C   0  0  0  0  0  0  0  0  0  0  0  0
   -1.3644   -0.6050    1.7785 C   0  0  0  0  0  0  0  0  0  0  0  0
   -0.2584   -2.8900   -1.3000 C   0  0  0  0  0  0  0  0  0  0  0  0
    0.4205    0.6025   -0.7870 C   0  0  0  0  0  0  0  0  0  0  0  0
   -0.9005    0.5467   -1.4463 C   0  0  0  0  0  0  0  0  0  0  0  0
    1.8987   -0.9795    0.2117 C   0  0  0  0  0  0  0  0  0  0  0  0
   -0.9990   -3.5965   -2.2464 C   0  0  0  0  0  0  0  0  0  0  0  0
    1.2292    1.6595   -0.3893 C   0  0  0  0  0  0  0  0  0  0  0  0
    0.8660   -3.6592   -0.8173 C   0  0  0  0  0  0  0  0  0  0  0  0
    2.8052    0.0294    0.4688 C   0  0  0  0  0  0  0  0  0  0  0  0
   -0.6878   -4.9806   -2.5358 C   0  0  0  0  0  0  0  0  0  0  0  0
    2.4412    1.3515    0.2472 C   0  0  0  0  0  0  0  0  0  0  0  0
    1.2986   -4.9179   -1.2371 C   0  0  0  0  0  0  0  0  0  0  0  0
    0.4598   -5.6244   -2.0415 C   0  0  0  0  0  0  0  0  0  0  0  0
   -1.6246   -5.8647   -3.3059 C   0  0  0  0  0  0  0  0  0  0  0  0
   -3.1883    0.1464    0.8128 H   0  0  0  0  0  0  0  0  0  0  0  0
   -1.8361    1.2560    0.8635 H   0  0  0  0  0  0  0  0  0  0  0  0
   -0.3379   -0.2410    1.8322 H   0  0  0  0  0  0  0  0  0  0  0  0
   -1.7446   -0.6251    2.7957 H   0  0  0  0  0  0  0  0  0  0  0  0
    2.2168   -1.9454    0.5486 H   0  0  0  0  0  0  0  0  0  0  0  0
   -1.8624   -3.1466   -2.7253 H   0  0  0  0  0  0  0  0  0  0  0  0
    0.9232    2.6956   -0.4889 H   0  0  0  0  0  0  0  0  0  0  0  0
    1.4084   -3.3739    0.0635 H   0  0  0  0  0  0  0  0  0  0  0  0
    3.7569   -0.2489    0.9138 H   0  0  0  0  0  0  0  0  0  0  0  0
    3.1163    2.1264    0.5968 H   0  0  0  0  0  0  0  0  0  0  0  0
    2.2078   -5.3596   -0.8341 H   0  0  0  0  0  0  0  0  0  0  0  0
    0.6718   -6.6762   -2.2323 H   0  0  0  0  0  0  0  0  0  0  0  0
   -1.1011   -6.3181   -4.1542 H   0  0  0  0  0  0  0  0  0  0  0  0
   -1.9866   -6.6711   -2.6531 H   0  0  0  0  0  0  0  0  0  0  0  0
   -2.4821   -5.2996   -3.6657 H   0  0  0  0  0  0  0  0  0  0  0  0
  1  4  1  0  0  0  0
  1  7  1  0  0  0  0
  2 10  2  0  0  0  0
  3  4  1  0  0  0  0
  3  6  1  0  0  0  0
  3 10  1  0  0  0  0
  4  5  1  0  0  0  0
  4  8  1  6  0  0  0
  5  9  1  0  0  0  0
  5 11  2  0  0  0  0
  6  7  1  0  0  0  0
  6 21  1  0  0  0  0
  6 22  1  0  0  0  0
  7 23  1  0  0  0  0
  7 24  1  0  0  0  0
  8 12  1  0  0  0  0
  8 14  2  0  0  0  0
  9 10  1  0  0  0  0
  9 13  2  0  0  0  0
 11 15  1  0  0  0  0
 11 25  1  0  0  0  0
 12 16  2  0  0  0  0
 12 26  1  0  0  0  0
 13 17  1  0  0  0  0
 13 27  1  0  0  0  0
 14 18  1  0  0  0  0
 14 28  1  0  0  0  0
 15 17  2  0  0  0  0
 15 29  1  0  0  0  0
 16 19  1  0  0  0  0
 16 20  1  0  0  0  0
 17 30  1  0  0  0  0
 18 19  2  0  0  0  0
 18 31  1  0  0  0  0
 19 32  1  0  0  0  0
 20 33  1  0  0  0  0
 20 34  1  0  0  0  0
 20 35  1  0  0  0  0
M  END
>  <DRUGBANK_ID>
DB07472

>  <COMMON_NAME>
(R)-(+)9B-(3-METHYL)PHENYL-2,3-DIHYDROTHIAZOLO[2,3-A]ISOINDOL-5(9BH)-ONE

$$$$
