
 OpenBabel10282417193D

 42 43  0  0  1  0  0  0  0  0999 V2000
    0.9859    1.1186    2.2120 C   0  0  0  0  0  0  0  0  0  0  0  0
    0.4562   -0.0450    1.3658 C   0  0  2  0  0  0  0  0  0  0  0  0
    1.0001   -0.0180   -0.0994 C   0  0  1  0  0  0  0  0  0  0  0  0
    0.2986    0.9848   -0.9540 C   0  0  0  0  0  0  0  0  0  0  0  0
    0.3806    1.0095   -2.3216 N   0  0  0  0  0  0  0  0  0  0  0  0
   -0.5389    1.9202   -2.7641 C   0  0  0  0  0  0  0  0  0  0  0  0
   -0.8974    2.3452   -4.0276 C   0  0  0  0  0  0  0  0  0  0  0  0
   -1.9668    3.2634   -4.1080 C   0  0  0  0  0  0  0  0  0  0  0  0
   -2.6516    3.6595   -2.9412 C   0  0  0  0  0  0  0  0  0  0  0  0
   -2.2475    3.2413   -1.6816 C   0  0  0  0  0  0  0  0  0  0  0  0
   -1.1374    2.4069   -1.6187 C   0  0  0  0  0  0  0  0  0  0  0  0
   -0.4906    1.9439   -0.5242 N   0  0  0  0  0  0  0  0  0  0  0  0
   -2.3464    3.8166   -5.4795 C   0  0  0  0  0  0  0  0  0  0  0  0
   -1.1327    4.5659   -6.0649 C   0  0  0  0  0  0  0  0  0  0  0  0
   -2.7367    2.6447   -6.3966 C   0  0  0  0  0  0  0  0  0  0  0  0
   -3.5304    4.7983   -5.4055 C   0  0  0  0  0  0  0  0  0  0  0  0
    2.4481    0.2689   -0.1573 N   0  0  0  0  0  0  0  0  0  0  0  0
   -1.0831   -0.1856    1.4833 C   0  0  0  0  0  0  0  0  0  0  0  0
   -1.6305   -1.2451    1.7594 O   0  0  0  0  0  0  0  0  0  0  0  0
   -1.8513    0.9223    1.2647 N   0  0  0  0  0  0  0  0  0  0  0  0
    2.0792    1.1659    2.1766 H   0  0  0  0  0  0  0  0  0  0  0  0
    0.7192    0.9910    3.2638 H   0  0  0  0  0  0  0  0  0  0  0  0
    0.6013    2.0850    1.8743 H   0  0  0  0  0  0  0  0  0  0  0  0
    0.8504   -0.9617    1.8277 H   0  0  0  0  0  0  0  0  0  0  0  0
    0.8417   -1.0136   -0.5352 H   0  0  0  0  0  0  0  0  0  0  0  0
    0.9705    0.4254   -2.8971 H   0  0  0  0  0  0  0  0  0  0  0  0
   -0.3574    1.9983   -4.9007 H   0  0  0  0  0  0  0  0  0  0  0  0
   -3.5039    4.3320   -2.9705 H   0  0  0  0  0  0  0  0  0  0  0  0
   -2.7726    3.5601   -0.7881 H   0  0  0  0  0  0  0  0  0  0  0  0
   -0.2607    3.9131   -6.1890 H   0  0  0  0  0  0  0  0  0  0  0  0
   -1.3668    4.9816   -7.0494 H   0  0  0  0  0  0  0  0  0  0  0  0
   -0.8248    5.3907   -5.4099 H   0  0  0  0  0  0  0  0  0  0  0  0
   -3.5806    2.0842   -5.9767 H   0  0  0  0  0  0  0  0  0  0  0  0
   -3.0210    3.0028   -7.3901 H   0  0  0  0  0  0  0  0  0  0  0  0
   -1.9144    1.9329   -6.5335 H   0  0  0  0  0  0  0  0  0  0  0  0
   -4.4233    4.3092   -4.9960 H   0  0  0  0  0  0  0  0  0  0  0  0
   -3.2927    5.6575   -4.7647 H   0  0  0  0  0  0  0  0  0  0  0  0
   -3.7928    5.1883   -6.3917 H   0  0  0  0  0  0  0  0  0  0  0  0
    2.7676    0.3039   -1.1220 H   0  0  0  0  0  0  0  0  0  0  0  0
    2.5864    1.2231    0.1869 H   0  0  0  0  0  0  0  0  0  0  0  0
   -1.4197    1.6766    0.7289 H   0  0  0  0  0  0  0  0  0  0  0  0
   -2.8216    0.7642    1.0267 H   0  0  0  0  0  0  0  0  0  0  0  0
  1 21  1  0  0  0  0
  1 22  1  0  0  0  0
  1 23  1  0  0  0  0
  2 18  1  0  0  0  0
  2 24  1  1  0  0  0
  2  3  1  0  0  0  0
  2  1  1  0  0  0  0
  3  4  1  0  0  0  0
  3 17  1  0  0  0  0
  3 25  1  6  0  0  0
  4  5  1  0  0  0  0
  4 12  2  0  0  0  0
  5  6  1  0  0  0  0
  5 26  1  0  0  0  0
  6  7  2  0  0  0  0
  6 11  1  0  0  0  0
  7  8  1  0  0  0  0
  7 27  1  0  0  0  0
  8  9  2  0  0  0  0
  8 13  1  0  0  0  0
  9 10  1  0  0  0  0
  9 28  1  0  0  0  0
 10 11  2  0  0  0  0
 10 29  1  0  0  0  0
 11 12  1  0  0  0  0
 13 14  1  0  0  0  0
 13 15  1  0  0  0  0
 13 16  1  0  0  0  0
 14 30  1  0  0  0  0
 14 31  1  0  0  0  0
 14 32  1  0  0  0  0
 15 33  1  0  0  0  0
 15 34  1  0  0  0  0
 15 35  1  0  0  0  0
 16 36  1  0  0  0  0
 16 37  1  0  0  0  0
 16 38  1  0  0  0  0
 17 39  1  0  0  0  0
 17 40  1  0  0  0  0
 18 19  2  0  0  0  0
 18 20  1  0  0  0  0
 20 41  1  0  0  0  0
 20 42  1  0  0  0  0
M  END
>  <DRUGBANK_ID>
DB12106

>  <COMMON_NAME>
PF-06305591

>  <CAS_NUMBER>
1449473-97-5

>  <UNII>
G5Y3F1X9MU

$$$$
