
 OpenBabel10282417213D

 57 60  0  0  0  0  0  0  0  0999 V2000
   -2.8084    3.9764    2.4224 C   0  0  0  0  0  0  0  0  0  0  0  0
   -1.7869    8.5835    0.4463 C   0  0  0  0  0  0  0  0  0  0  0  0
   -3.8094    4.5958    1.0761 C   0  0  2  0  0  0  0  0  0  0  0  0
   -1.5236    4.4955   -0.6672 C   0  0  0  0  0  0  0  0  0  0  0  0
   -4.2328    4.1951    2.5176 C   0  0  0  0  0  0  0  0  0  0  0  0
   -3.1564    7.6327   -2.0457 C   0  0  2  0  0  0  0  0  0  0  0  0
   -2.3154    5.3920   -1.4701 C   0  0  0  0  0  0  0  0  0  0  0  0
   -2.6070    9.6249   -0.7870 C   0  0  0  0  0  0  0  0  0  0  0  0
   -3.0079    9.0946   -2.3285 C   0  0  0  0  0  0  0  0  0  0  0  0
   -2.5334    7.1561   -3.3634 C   0  0  0  0  0  0  0  0  0  0  0  0
   -3.4711    9.4791   -3.6573 C   0  0  0  0  0  0  0  0  0  0  0  0
   -3.3858    6.9631   -4.3665 C   0  0  0  0  0  0  0  0  0  0  0  0
   -2.4384    7.0634    0.5483 C   0  0  2  0  0  0  0  0  0  0  0  0
   -3.4316    7.4092    0.8292 H   0  0  0  0  0  0  0  0  0  0  0  0
   -2.2739    6.8292   -1.0232 C   0  0  1  0  0  0  0  0  0  0  0  0
   -1.2194    7.1006   -1.2428 H   0  0  0  0  0  0  0  0  0  0  0  0
   -1.9533    4.5929    0.7568 C   0  0  2  0  0  0  0  0  0  0  0  0
   -0.7110    3.6829    1.4343 C   0  0  0  0  0  0  0  0  0  0  0  0
   -2.0291    5.6358    1.7567 C   0  0  1  0  0  0  0  0  0  0  0  0
   -1.0897    5.8472    2.2616 H   0  0  0  0  0  0  0  0  0  0  0  0
   -2.7740    8.5247   -6.0118 O   0  0  0  0  0  0  0  0  0  0  0  0
   -3.1710    8.3370   -4.9063 C   0  0  0  0  0  0  0  0  0  0  0  0
   -4.6635    7.8276   -1.5886 C   0  0  0  0  0  0  0  0  0  0  0  0
   -4.5278    5.8496    1.0576 O   0  0  0  0  0  0  0  0  0  0  0  0
   -4.2712    3.8647   -0.1414 C   0  0  0  0  0  0  0  0  0  0  0  0
   -2.8813    4.9310   -2.4389 O   0  0  0  0  0  0  0  0  0  0  0  0
   -3.8123    2.7667   -0.4339 O   0  0  0  0  0  0  0  0  0  0  0  0
   -5.1924    4.6612   -1.0527 C   0  0  0  0  0  0  0  0  0  0  0  0
   -6.4289    4.9636   -0.4425 O   0  0  0  0  0  0  0  0  0  0  0  0
   -7.1215    3.9134    0.0597 C   0  0  0  0  0  0  0  0  0  0  0  0
   -6.6347    2.5316   -0.3038 C   0  0  0  0  0  0  0  0  0  0  0  0
   -8.0603    4.0978    0.8036 O   0  0  0  0  0  0  0  0  0  0  0  0
   -2.5850    3.1852    3.1990 H   0  0  0  0  0  0  0  0  0  0  0  0
   -2.6905    3.0409    1.7033 H   0  0  0  0  0  0  0  0  0  0  0  0
   -1.8621    9.1233    1.3997 H   0  0  0  0  0  0  0  0  0  0  0  0
   -0.7131    8.4751    0.2409 H   0  0  0  0  0  0  0  0  0  0  0  0
   -0.4782    4.6829   -0.9130 H   0  0  0  0  0  0  0  0  0  0  0  0
   -1.7253    3.4790   -1.0156 H   0  0  0  0  0  0  0  0  0  0  0  0
   -4.6304    5.1321    2.9543 H   0  0  0  0  0  0  0  0  0  0  0  0
   -3.9911    4.0957    3.6058 H   0  0  0  0  0  0  0  0  0  0  0  0
   -2.3186   10.6830   -0.7644 H   0  0  0  0  0  0  0  0  0  0  0  0
   -3.5518    9.6852   -0.2353 H   0  0  0  0  0  0  0  0  0  0  0  0
   -1.5353    7.6026   -3.5816 H   0  0  0  0  0  0  0  0  0  0  0  0
   -4.5385    9.2147   -4.0177 H   0  0  0  0  0  0  0  0  0  0  0  0
   -4.3938    6.6802   -4.0795 H   0  0  0  0  0  0  0  0  0  0  0  0
   -0.7481    2.6467    1.0905 H   0  0  0  0  0  0  0  0  0  0  0  0
    0.2639    4.1289    1.2080 H   0  0  0  0  0  0  0  0  0  0  0  0
   -0.7043    3.6719    2.5411 H   0  0  0  0  0  0  0  0  0  0  0  0
   -5.3891    7.8909   -2.3992 H   0  0  0  0  0  0  0  0  0  0  0  0
   -4.9864    7.1744   -0.8050 H   0  0  0  0  0  0  0  0  0  0  0  0
   -4.8700    8.7536   -1.0254 H   0  0  0  0  0  0  0  0  0  0  0  0
   -5.4786    5.7079    1.2696 H   0  0  0  0  0  0  0  0  0  0  0  0
   -4.6575    5.5730   -1.1959 H   0  0  0  0  0  0  0  0  0  0  0  0
   -5.3077    4.2964   -2.0667 H   0  0  0  0  0  0  0  0  0  0  0  0
   -6.2886    2.0313    0.6057 H   0  0  0  0  0  0  0  0  0  0  0  0
   -7.4057    2.0074   -0.8466 H   0  0  0  0  0  0  0  0  0  0  0  0
   -5.8267    2.4983   -1.0270 H   0  0  0  0  0  0  0  0  0  0  0  0
  1 33  1  0  0  0  0
  1 34  1  0  0  0  0
  2  8  1  0  0  0  0
  2 35  1  0  0  0  0
  2 36  1  0  0  0  0
  3  5  1  0  0  0  0
  3 24  1  6  0  0  0
  3 25  1  0  0  0  0
  4  7  1  0  0  0  0
  4 37  1  0  0  0  0
  4 38  1  0  0  0  0
  5  1  1  0  0  0  0
  5 39  1  0  0  0  0
  5 40  1  0  0  0  0
  6  9  1  0  0  0  0
  6 10  1  0  0  0  0
  6 23  1  6  0  0  0
  7 26  2  0  0  0  0
  8  9  1  0  0  0  0
  8 41  1  0  0  0  0
  8 42  1  0  0  0  0
  9 11  2  0  0  0  0
 10 12  2  0  0  0  0
 10 43  1  0  0  0  0
 11 22  1  0  0  0  0
 11 44  1  0  0  0  0
 12 22  1  0  0  0  0
 12 45  1  0  0  0  0
 13 15  1  0  0  0  0
 13  2  1  0  0  0  0
 13 14  1  6  0  0  0
 15  6  1  0  0  0  0
 15  7  1  0  0  0  0
 15 16  1  1  0  0  0
 17  3  1  0  0  0  0
 17  4  1  0  0  0  0
 17 18  1  1  0  0  0
 18 46  1  0  0  0  0
 18 47  1  0  0  0  0
 18 48  1  0  0  0  0
 19 13  1  0  0  0  0
 19 17  1  0  0  0  0
 19  1  1  0  0  0  0
 19 20  1  6  0  0  0
 22 21  2  0  0  0  0
 23 49  1  0  0  0  0
 23 50  1  0  0  0  0
 23 51  1  0  0  0  0
 24 52  1  0  0  0  0
 25 27  2  0  0  0  0
 25 28  1  0  0  0  0
 28 29  1  0  0  0  0
 28 53  1  0  0  0  0
 28 54  1  0  0  0  0
 29 30  1  0  0  0  0
 30 31  1  0  0  0  0
 30 32  2  0  0  0  0
 31 55  1  0  0  0  0
 31 56  1  0  0  0  0
 31 57  1  0  0  0  0
M  END
>  <DRUGBANK_ID>
DB14646

>  <SECONDARY_ACCESSION_NUMBERS>
DBSALT002337

>  <COMMON_NAME>
Prednisone acetate

>  <CAS_NUMBER>
125-10-0

>  <UNII>
OU93QEL83U

>  <SYNONYMS>
1,4-Pregnadien-17Î±,21-diol-3,11,20-trione-21-acetate; 21-Acetoxy-17alpha-hydroxypregna-1,4-diene-3,11,20-trione; Cortancyl; delta'-Dehydrocortisone acetate; delta1-Cortisone-21-acetate; Prednisone 21-acetate; Prednisone-21-acetate

$$$$
