
 OpenBabel10282417223D

 30 29  0  0  0  0  0  0  0  0999 V2000
    0.9424   -0.1233    0.0581 C   0  0  0  0  0  0  0  0  0  0  0  0
   -0.7000    0.6411   -1.6569 N   0  0  0  0  0  0  0  0  0  0  0  0
    0.2154    1.0560   -0.5898 C   0  0  0  0  0  0  0  0  0  0  0  0
    0.3718   -1.1072    0.5209 O   0  0  0  0  0  0  0  0  0  0  0  0
    2.2941   -0.0399    0.0508 O   0  0  0  0  0  0  0  0  0  0  0  0
   -2.0728    0.7753   -1.5247 C   0  0  0  0  0  0  0  0  0  0  0  0
   -3.9485   -0.7231   -2.2443 N   0  0  0  0  0  0  0  0  0  0  0  0
   -2.9264    0.2252   -2.6886 C   0  0  0  0  0  0  0  0  0  0  0  0
   -2.5823    1.3028   -0.5385 O   0  0  0  0  0  0  0  0  0  0  0  0
   -5.2980   -0.4287   -2.3240 C   0  0  0  0  0  0  0  0  0  0  0  0
   -7.2231   -0.9366   -0.8313 N   0  0  0  0  0  0  0  0  0  0  0  0
   -6.2470   -1.5028   -1.7530 C   0  0  0  0  0  0  0  0  0  0  0  0
   -5.7171    0.6070   -2.8356 O   0  0  0  0  0  0  0  0  0  0  0  0
   -8.5697   -0.7813   -1.0073 C   0  0  0  0  0  0  0  0  0  0  0  0
   -9.2219   -0.2430   -0.1085 O   0  0  0  0  0  0  0  0  0  0  0  0
   -9.2622   -1.3756   -2.2227 C   0  0  0  0  0  0  0  0  0  0  0  0
   -8.8013   -0.5958   -3.7958 S   0  0  0  0  0  0  0  0  0  0  0  0
   -0.3199    0.1054   -2.4276 H   0  0  0  0  0  0  0  0  0  0  0  0
   -0.3222    1.5824    0.2053 H   0  0  0  0  0  0  0  0  0  0  0  0
    0.9344    1.7555   -1.0270 H   0  0  0  0  0  0  0  0  0  0  0  0
    2.6909    0.7549   -0.3533 H   0  0  0  0  0  0  0  0  0  0  0  0
   -3.6438   -1.5293   -1.7136 H   0  0  0  0  0  0  0  0  0  0  0  0
   -3.3945    1.0846   -3.1810 H   0  0  0  0  0  0  0  0  0  0  0  0
   -2.3035   -0.2865   -3.4279 H   0  0  0  0  0  0  0  0  0  0  0  0
   -6.8726   -0.4753    0.0022 H   0  0  0  0  0  0  0  0  0  0  0  0
   -6.7477   -1.9926   -2.5888 H   0  0  0  0  0  0  0  0  0  0  0  0
   -5.6981   -2.2781   -1.2126 H   0  0  0  0  0  0  0  0  0  0  0  0
   -9.0567   -2.4496   -2.2563 H   0  0  0  0  0  0  0  0  0  0  0  0
  -10.3429   -1.2506   -2.1021 H   0  0  0  0  0  0  0  0  0  0  0  0
   -8.9570    0.6827   -3.4201 H   0  0  0  0  0  0  0  0  0  0  0  0
  1  3  1  0  0  0  0
  1  4  2  0  0  0  0
  1  5  1  0  0  0  0
  2  3  1  0  0  0  0
  2  6  1  0  0  0  0
  2 18  1  0  0  0  0
  3 19  1  0  0  0  0
  3 20  1  0  0  0  0
  5 21  1  0  0  0  0
  6  8  1  0  0  0  0
  6  9  2  0  0  0  0
  7  8  1  0  0  0  0
  7 10  1  0  0  0  0
  7 22  1  0  0  0  0
  8 23  1  0  0  0  0
  8 24  1  0  0  0  0
 10 12  1  0  0  0  0
 10 13  2  0  0  0  0
 11 12  1  0  0  0  0
 11 14  1  0  0  0  0
 11 25  1  0  0  0  0
 12 26  1  0  0  0  0
 12 27  1  0  0  0  0
 14 15  2  0  0  0  0
 14 16  1  0  0  0  0
 16 17  1  0  0  0  0
 16 28  1  0  0  0  0
 16 29  1  0  0  0  0
 17 30  1  0  0  0  0
M  END
>  <DRUGBANK_ID>
DB15780

>  <COMMON_NAME>
Mertiatide

>  <CAS_NUMBER>
66516-09-4

>  <UNII>
8NVY8268MY

>  <SYNONYMS>
Mertiatide

$$$$
