
 OpenBabel10282417123D

 30 31  0  0  0  0  0  0  0  0999 V2000
    0.9482    0.0032   -0.0154 O   0  0  0  0  0  0  0  0  0  0  0  0
    0.1703    1.1228   -0.0981 C   0  0  0  0  0  0  0  0  0  0  0  0
    0.1991    1.9704   -1.2073 C   0  0  0  0  0  0  0  0  0  0  0  0
   -0.6622    1.3935    0.9888 C   0  0  0  0  0  0  0  0  0  0  0  0
   -0.4792    3.1935   -1.1415 C   0  0  0  0  0  0  0  0  0  0  0  0
   -1.3803    2.5901    1.0243 C   0  0  0  0  0  0  0  0  0  0  0  0
   -1.2611    3.5126   -0.0217 C   0  0  0  0  0  0  0  0  0  0  0  0
   -1.8866    4.7266    0.0891 O   0  0  0  0  0  0  0  0  0  0  0  0
   -0.1295    4.6024   -2.6524 I   0  0  0  0  0  0  0  0  0  0  0  0
   -2.5777    2.9690    2.6967 I   0  0  0  0  0  0  0  0  0  0  0  0
    5.1710   -0.1758   -0.0606 C   0  0  0  0  0  0  0  0  0  0  0  0
    4.5585    1.0722   -0.0271 C   0  0  0  0  0  0  0  0  0  0  0  0
    4.3677   -1.3120   -0.0687 C   0  0  0  0  0  0  0  0  0  0  0  0
    3.1638    1.2152    0.0599 C   0  0  0  0  0  0  0  0  0  0  0  0
    2.9696   -1.1846   -0.0647 C   0  0  0  0  0  0  0  0  0  0  0  0
    2.3281    0.0814   -0.0173 C   0  0  0  0  0  0  0  0  0  0  0  0
    1.9012   -3.0139   -0.0603 I   0  0  0  0  0  0  0  0  0  0  0  0
    2.7153    3.2468    0.5144 I   0  0  0  0  0  0  0  0  0  0  0  0
    7.1458   -0.9269    1.2744 C   0  0  0  0  0  0  0  0  0  0  0  0
    7.8771   -2.0463    1.0861 O   0  0  0  0  0  0  0  0  0  0  0  0
    6.8865   -0.5072    2.3983 O   0  0  0  0  0  0  0  0  0  0  0  0
    6.6718   -0.2648    0.0001 C   0  0  0  0  0  0  0  0  0  0  0  0
    0.8592    1.7370   -2.0389 H   0  0  0  0  0  0  0  0  0  0  0  0
   -0.7021    0.6906    1.8178 H   0  0  0  0  0  0  0  0  0  0  0  0
   -1.6641    5.2622   -0.6920 H   0  0  0  0  0  0  0  0  0  0  0  0
    5.1892    1.9599   -0.0020 H   0  0  0  0  0  0  0  0  0  0  0  0
    4.8336   -2.2956   -0.0473 H   0  0  0  0  0  0  0  0  0  0  0  0
    8.0195   -2.3100    0.1580 H   0  0  0  0  0  0  0  0  0  0  0  0
    7.0367   -0.7836   -0.8914 H   0  0  0  0  0  0  0  0  0  0  0  0
    7.1211    0.7370   -0.0244 H   0  0  0  0  0  0  0  0  0  0  0  0
  2  1  1  0  0  0  0
  3  2  2  0  0  0  0
  3 23  1  0  0  0  0
  4  2  1  0  0  0  0
  4 24  1  0  0  0  0
  5  3  1  0  0  0  0
  6  4  2  0  0  0  0
  7  5  2  0  0  0  0
  7  6  1  0  0  0  0
  8  7  1  0  0  0  0
  8 25  1  0  0  0  0
  9  5  1  0  0  0  0
 10  6  1  0  0  0  0
 12 11  1  0  0  0  0
 12 26  1  0  0  0  0
 13 11  2  0  0  0  0
 13 27  1  0  0  0  0
 14 12  2  0  0  0  0
 14 18  1  0  0  0  0
 15 13  1  0  0  0  0
 15 17  1  0  0  0  0
 16 14  1  0  0  0  0
 16 15  2  0  0  0  0
 16  1  1  0  0  0  0
 20 19  1  0  0  0  0
 20 28  1  0  0  0  0
 21 19  2  0  0  0  0
 22 11  1  0  0  0  0
 22 19  1  0  0  0  0
 22 29  1  0  0  0  0
 22 30  1  0  0  0  0
M  END
>  <DRUGBANK_ID>
DB01751

>  <SECONDARY_ACCESSION_NUMBERS>
EXPT02994

>  <COMMON_NAME>
Tetraiodothyroacetic acid

>  <CAS_NUMBER>
67-30-1

>  <UNII>
PA7UX1FFYQ

>  <SYNONYMS>
3,3',5,5'-tetraiodothyroacetic acid; 3,5-Diiodo-4-(4-hydroxy-3,5-diiodophenoxy)benzeneacetic acid; ACETIC ACID, (4-(4-HYDROXY-3,5-DIIODOPHENOXY)-3,5-DIIODOPHENYL)-; T4-ACETIC ACID; Tetrac

$$$$
