
 OpenBabel10282417203D

 48 49  0  0  0  0  0  0  0  0999 V2000
    1.7625    0.1675    0.2573 C   0  0  0  0  0  0  0  0  0  0  0  0
   -2.7362   -3.1918    0.0799 C   0  0  0  0  0  0  0  0  0  0  0  0
   -2.6841   -0.6177   -0.1770 C   0  0  0  0  0  0  0  0  0  0  0  0
   -2.3254   -3.4897   -2.9530 C   0  0  0  0  0  0  0  0  0  0  0  0
    2.3593   -2.7756   -3.3799 C   0  0  0  0  0  0  0  0  0  0  0  0
    2.6469   -0.2704   -2.8784 C   0  0  0  0  0  0  0  0  0  0  0  0
    1.0934   -0.8131   -0.3257 C   0  0  0  0  0  0  0  0  0  0  0  0
   -0.4063   -0.5464   -0.4903 C   0  0  0  0  0  0  0  0  0  0  0  0
   -0.4936   -2.5825   -1.5627 C   0  0  0  0  0  0  0  0  0  0  0  0
   -2.4327    0.1185   -4.3753 C   0  0  0  0  0  0  0  0  0  0  0  0
   -1.8353   -2.2715   -0.6586 C   0  0  0  0  0  0  0  0  0  0  0  0
   -2.1652   -1.7493   -2.9926 C   0  0  0  0  0  0  0  0  0  0  0  0
   -1.5456   -0.6253   -2.1485 C   0  0  0  0  0  0  0  0  0  0  0  0
    0.4416   -1.4174   -2.6605 C   0  0  3  0  0  0  0  0  0  0  0  0
   -1.8265    0.5020   -3.0414 C   0  0  0  0  0  0  0  0  0  0  0  0
   -2.4341   -1.3856   -4.4024 C   0  0  3  0  0  0  0  0  0  0  0  0
    0.4836   -1.1213   -4.1440 C   0  0  3  0  0  0  0  0  0  0  0  0
   -0.0867   -1.9210   -5.2246 C   0  0  0  0  0  0  0  0  0  0  0  0
    1.7432   -1.4507   -3.3132 C   0  0  0  0  0  0  0  0  0  0  0  0
   -1.5809    1.6887   -2.6999 O   0  0  0  0  0  0  0  0  0  0  0  0
    0.6376   -2.3353   -6.1207 O   0  0  0  0  0  0  0  0  0  0  0  0
   -1.4491   -1.9986   -5.2969 O   0  0  0  0  0  0  0  0  0  0  0  0
    1.1765    1.0041    0.6183 H   0  0  0  0  0  0  0  0  0  0  0  0
    2.8303    0.1373    0.2672 H   0  0  0  0  0  0  0  0  0  0  0  0
   -2.4040   -3.1632    1.1140 H   0  0  0  0  0  0  0  0  0  0  0  0
   -3.7511   -2.7650    0.0175 H   0  0  0  0  0  0  0  0  0  0  0  0
   -2.7826   -4.2030   -0.2983 H   0  0  0  0  0  0  0  0  0  0  0  0
   -2.1080    0.3436   -0.0998 H   0  0  0  0  0  0  0  0  0  0  0  0
   -3.2881   -0.0537   -0.9243 H   0  0  0  0  0  0  0  0  0  0  0  0
   -2.9866   -0.6131    0.8654 H   0  0  0  0  0  0  0  0  0  0  0  0
   -3.3624   -3.8408   -2.9683 H   0  0  0  0  0  0  0  0  0  0  0  0
   -1.7205   -3.9770   -3.7368 H   0  0  0  0  0  0  0  0  0  0  0  0
   -1.9545   -4.0686   -2.0929 H   0  0  0  0  0  0  0  0  0  0  0  0
    1.5964   -3.5510   -3.2788 H   0  0  0  0  0  0  0  0  0  0  0  0
    2.8535   -2.8852   -4.3402 H   0  0  0  0  0  0  0  0  0  0  0  0
    3.0612   -2.8824   -2.5520 H   0  0  0  0  0  0  0  0  0  0  0  0
    3.1615    0.2019   -3.7126 H   0  0  0  0  0  0  0  0  0  0  0  0
    2.0949    0.5591   -2.3959 H   0  0  0  0  0  0  0  0  0  0  0  0
    3.3669   -0.6087   -2.1267 H   0  0  0  0  0  0  0  0  0  0  0  0
    1.5642   -1.7653   -0.6066 H   0  0  0  0  0  0  0  0  0  0  0  0
   -0.5278   -1.3965    0.2666 H   0  0  0  0  0  0  0  0  0  0  0  0
   -0.6269    0.1274    0.3464 H   0  0  0  0  0  0  0  0  0  0  0  0
   -0.1005   -3.5760   -1.7731 H   0  0  0  0  0  0  0  0  0  0  0  0
   -3.4662    0.4744   -4.4119 H   0  0  0  0  0  0  0  0  0  0  0  0
   -1.8352    0.5237   -5.1898 H   0  0  0  0  0  0  0  0  0  0  0  0
    0.4015   -0.3823   -2.2783 H   0  0  0  0  0  0  0  0  0  0  0  0
   -3.4001   -1.8042   -4.7245 H   0  0  0  0  0  0  0  0  0  0  0  0
    0.4614   -0.0622   -4.4543 H   0  0  0  0  0  0  0  0  0  0  0  0
  1 23  1  0  0  0  0
  1 24  1  0  0  0  0
  2 25  1  0  0  0  0
  2 26  1  0  0  0  0
  2 27  1  0  0  0  0
  3 28  1  0  0  0  0
  3 29  1  0  0  0  0
  3 30  1  0  0  0  0
  4 31  1  0  0  0  0
  4 32  1  0  0  0  0
  4 33  1  0  0  0  0
  5 34  1  0  0  0  0
  5 35  1  0  0  0  0
  5 36  1  0  0  0  0
  6 37  1  0  0  0  0
  6 38  1  0  0  0  0
  6 39  1  0  0  0  0
  7  1  2  0  0  0  0
  7 40  1  0  0  0  0
  8  7  1  0  0  0  0
  8 41  1  0  0  0  0
  8 42  1  0  0  0  0
  9 43  1  0  0  0  0
 10 44  1  0  0  0  0
 10 45  1  0  0  0  0
 11  2  1  0  0  0  0
 11  3  1  0  0  0  0
 11  9  2  0  0  0  0
 12  4  1  0  0  0  0
 13  8  1  0  0  0  0
 13 12  2  0  0  0  0
 14  9  1  0  0  0  0
 14 46  1  0  0  0  0
 15 10  1  0  0  0  0
 15 13  1  0  0  0  0
 16 10  1  0  0  0  0
 16 12  1  0  0  0  0
 16 47  1  0  0  0  0
 17 14  1  0  0  0  0
 17 48  1  0  0  0  0
 18 17  1  0  0  0  0
 19  5  1  0  0  0  0
 19  6  1  0  0  0  0
 19 14  1  0  0  0  0
 19 17  1  0  0  0  0
 20 15  2  0  0  0  0
 21 18  2  0  0  0  0
 22 16  1  0  0  0  0
 22 18  1  0  0  0  0
M  END
>  <DRUGBANK_ID>
DB13746

>  <COMMON_NAME>
Bioallethrin

>  <CAS_NUMBER>
584-79-2

>  <UNII>
0X03II877M

>  <SYNONYMS>
Depall√©thrine

$$$$
