
 OpenBabel10282417243D

 75 77  0  0  1  0  0  0  0  0999 V2000
    0.3821   -0.4295    1.1486 C   0  0  0  0  0  0  0  0  0  0  0  0
   -0.6764    0.3928   -0.1637 S   0  0  0  0  0  0  0  0  0  0  0  0
   -0.3619   -0.4205   -1.3636 O   0  5  0  0  0  0  0  0  0  0  0  0
   -2.0832    0.2810    0.1803 O   0  0  0  0  0  0  0  0  0  0  0  0
   -0.2731    1.8058   -0.2526 O   0  0  0  0  0  0  0  0  0  0  0  0
    2.1403    0.4210   -0.6423 C   0  0  0  0  0  0  0  0  0  0  0  0
    1.8202    0.8221   -1.9303 O   0  0  0  0  0  0  0  0  0  0  0  0
    1.4856    2.1115   -2.0767 C   0  0  0  0  0  0  0  0  0  0  0  0
    2.2870    2.9270   -1.6389 O   0  0  0  0  0  0  0  0  0  0  0  0
    0.4342    2.3719   -3.2464 C   0  0  0  0  0  0  0  0  0  0  0  0
   -0.8990    2.0602   -3.5829 C   0  0  0  0  0  0  0  0  0  0  0  0
   -1.8906    1.2829   -2.7875 C   0  0  0  0  0  0  0  0  0  0  0  0
   -1.4701    2.3584   -4.8255 N   0  0  0  0  0  0  0  0  0  0  0  0
   -0.8011    3.2463   -5.6251 C   0  0  0  0  0  0  0  0  0  0  0  0
   -1.2724    3.9227   -6.6334 N   0  0  0  0  0  0  0  0  0  0  0  0
   -0.2387    4.7185   -7.0067 N   0  0  0  0  0  0  0  0  0  0  0  0
    0.8666    4.5027   -6.2119 C   0  0  0  0  0  0  0  0  0  0  0  0
    1.9411    5.0648   -6.3186 O   0  0  0  0  0  0  0  0  0  0  0  0
    0.5025    3.5345   -5.3429 N   0  0  0  0  0  0  0  0  0  0  0  0
    1.3370    2.9352   -4.3245 C   0  0  2  0  0  0  0  0  0  0  0  0
    2.3897    1.9408   -4.9260 C   0  0  0  0  0  0  0  0  0  0  0  0
    3.3700    2.3997   -5.8143 C   0  0  0  0  0  0  0  0  0  0  0  0
    4.3307    1.5468   -6.3868 C   0  0  0  0  0  0  0  0  0  0  0  0
    4.5327    0.2904   -5.8663 C   0  0  0  0  0  0  0  0  0  0  0  0
    3.7632   -0.0786   -4.7860 C   0  0  0  0  0  0  0  0  0  0  0  0
    2.5268    0.5935   -4.5747 C   0  0  0  0  0  0  0  0  0  0  0  0
    1.4153   -0.2254   -3.9676 C   0  0  0  0  0  0  0  0  0  0  0  0
    0.4266   -1.2201   -4.4887 C   0  0  0  0  0  0  0  0  0  0  0  0
    1.1872   -2.4341   -4.9140 N   0  3  0  0  0  0  0  0  0  0  0  0
    1.9090   -3.0261   -3.6720 C   0  0  0  0  0  0  0  0  0  0  0  0
    0.2487   -3.4155   -5.4909 C   0  0  0  0  0  0  0  0  0  0  0  0
    2.0413   -2.0537   -6.0749 C   0  0  0  0  0  0  0  0  0  0  0  0
    5.4099   -0.6969   -6.4818 C   0  0  0  0  0  0  0  0  0  0  0  0
    6.0167   -1.5417   -6.9292 N   0  0  0  0  0  0  0  0  0  0  0  0
   -2.7990    1.9043   -5.1772 C   0  0  0  0  0  0  0  0  0  0  0  0
   -3.9317    2.1201   -4.3487 C   0  0  0  0  0  0  0  0  0  0  0  0
   -5.1906    1.5940   -4.6201 C   0  0  0  0  0  0  0  0  0  0  0  0
   -5.3819    0.9441   -5.8173 C   0  0  0  0  0  0  0  0  0  0  0  0
   -4.3036    0.7861   -6.7000 C   0  0  0  0  0  0  0  0  0  0  0  0
   -2.9962    1.1431   -6.3240 C   0  0  0  0  0  0  0  0  0  0  0  0
   -4.5738    0.4072   -8.1217 C   0  0  0  0  0  0  0  0  0  0  0  0
   -4.1412    1.3700   -8.9818 F   0  0  0  0  0  0  0  0  0  0  0  0
   -3.9492   -0.7420   -8.4871 F   0  0  0  0  0  0  0  0  0  0  0  0
   -5.8963    0.2355   -8.3896 F   0  0  0  0  0  0  0  0  0  0  0  0
    0.3093   -1.4987    0.9185 H   0  0  0  0  0  0  0  0  0  0  0  0
    0.1050    0.0368    2.0747 H   0  0  0  0  0  0  0  0  0  0  0  0
    1.4889   -0.3497    1.2229 H   0  0  0  0  0  0  0  0  0  0  0  0
    1.6547   -0.5625   -0.6230 H   0  0  0  0  0  0  0  0  0  0  0  0
    1.7633    1.1553    0.0822 H   0  0  0  0  0  0  0  0  0  0  0  0
    3.1565    0.1886   -0.3818 H   0  0  0  0  0  0  0  0  0  0  0  0
   -2.6948    1.7941   -2.2576 H   0  0  0  0  0  0  0  0  0  0  0  0
   -2.1947    0.2827   -3.1486 H   0  0  0  0  0  0  0  0  0  0  0  0
   -1.2625    1.1817   -2.0072 H   0  0  0  0  0  0  0  0  0  0  0  0
   -0.3073    5.3878   -7.7539 H   0  0  0  0  0  0  0  0  0  0  0  0
    1.9085    3.7410   -3.8438 H   0  0  0  0  0  0  0  0  0  0  0  0
    3.4070    3.4416   -6.1002 H   0  0  0  0  0  0  0  0  0  0  0  0
    4.9562    1.9060   -7.1942 H   0  0  0  0  0  0  0  0  0  0  0  0
    3.9070   -1.0803   -4.3710 H   0  0  0  0  0  0  0  0  0  0  0  0
    1.8840   -0.7024   -3.1272 H   0  0  0  0  0  0  0  0  0  0  0  0
    0.6583    0.4379   -3.6944 H   0  0  0  0  0  0  0  0  0  0  0  0
   -0.2769   -1.5136   -3.6907 H   0  0  0  0  0  0  0  0  0  0  0  0
   -0.1560   -0.7955   -5.3145 H   0  0  0  0  0  0  0  0  0  0  0  0
    1.1504   -3.3232   -2.9376 H   0  0  0  0  0  0  0  0  0  0  0  0
    2.5380   -3.8453   -4.0027 H   0  0  0  0  0  0  0  0  0  0  0  0
    2.5834   -2.3214   -3.1739 H   0  0  0  0  0  0  0  0  0  0  0  0
   -0.2493   -2.9120   -6.3269 H   0  0  0  0  0  0  0  0  0  0  0  0
    0.8768   -4.2319   -5.8468 H   0  0  0  0  0  0  0  0  0  0  0  0
   -0.4608   -3.7180   -4.7257 H   0  0  0  0  0  0  0  0  0  0  0  0
    1.4743   -1.6417   -6.9167 H   0  0  0  0  0  0  0  0  0  0  0  0
    2.4757   -1.1596   -5.8042 H   0  0  0  0  0  0  0  0  0  0  0  0
    2.8641   -2.7417   -6.2272 H   0  0  0  0  0  0  0  0  0  0  0  0
   -3.8531    2.6652   -3.4134 H   0  0  0  0  0  0  0  0  0  0  0  0
   -6.0107    1.7536   -3.9238 H   0  0  0  0  0  0  0  0  0  0  0  0
   -6.3819    0.6153   -6.0912 H   0  0  0  0  0  0  0  0  0  0  0  0
   -2.1509    0.8629   -6.9489 H   0  0  0  0  0  0  0  0  0  0  0  0
  1  2  1  0  0  0  0
  1 45  1  0  0  0  0
  1 46  1  0  0  0  0
  1 47  1  0  0  0  0
  2  3  1  0  0  0  0
  2  4  2  0  0  0  0
  2  5  2  0  0  0  0
  6  7  1  0  0  0  0
  6 48  1  0  0  0  0
  6 49  1  0  0  0  0
  6 50  1  0  0  0  0
  7  8  1  0  0  0  0
  8  9  2  0  0  0  0
  8 10  1  0  0  0  0
 10 11  2  0  0  0  0
 11 12  1  0  0  0  0
 11 13  1  0  0  0  0
 12 51  1  0  0  0  0
 12 52  1  0  0  0  0
 12 53  1  0  0  0  0
 13 14  1  0  0  0  0
 13 35  1  0  0  0  0
 14 15  2  0  0  0  0
 14 19  1  0  0  0  0
 15 16  1  0  0  0  0
 16 17  1  0  0  0  0
 16 54  1  0  0  0  0
 17 18  2  0  0  0  0
 17 19  1  0  0  0  0
 20 19  1  0  0  0  0
 20 10  1  0  0  0  0
 20 55  1  1  0  0  0
 20 21  1  0  0  0  0
 21 22  2  0  0  0  0
 21 26  1  0  0  0  0
 22 23  1  0  0  0  0
 22 56  1  0  0  0  0
 23 24  2  0  0  0  0
 23 57  1  0  0  0  0
 24 25  1  0  0  0  0
 24 33  1  0  0  0  0
 25 26  2  0  0  0  0
 25 58  1  0  0  0  0
 26 27  1  0  0  0  0
 27 28  1  0  0  0  0
 27 59  1  0  0  0  0
 27 60  1  0  0  0  0
 28 29  1  0  0  0  0
 28 61  1  0  0  0  0
 28 62  1  0  0  0  0
 29 30  1  0  0  0  0
 29 31  1  0  0  0  0
 29 32  1  0  0  0  0
 30 63  1  0  0  0  0
 30 64  1  0  0  0  0
 30 65  1  0  0  0  0
 31 66  1  0  0  0  0
 31 67  1  0  0  0  0
 31 68  1  0  0  0  0
 32 69  1  0  0  0  0
 32 70  1  0  0  0  0
 32 71  1  0  0  0  0
 33 34  3  0  0  0  0
 35 36  2  0  0  0  0
 35 40  1  0  0  0  0
 36 37  1  0  0  0  0
 36 72  1  0  0  0  0
 37 38  2  0  0  0  0
 37 73  1  0  0  0  0
 38 39  1  0  0  0  0
 38 74  1  0  0  0  0
 39 40  2  0  0  0  0
 39 41  1  0  0  0  0
 40 75  1  0  0  0  0
 41 42  1  0  0  0  0
 41 43  1  0  0  0  0
 41 44  1  0  0  0  0
M  CHG  2   3  -1  29   1
M  END
>  <DRUGBANK_ID>
DB17815

>  <COMMON_NAME>
CHF-6333

>  <CAS_NUMBER>
1613621-54-7

>  <UNII>
Q0656F336Y

>  <SYNONYMS>
(r)-2-(5-cyano-2-(6-(methoxycarbonyl)-7-methyl-3-oxo-8-(3-(trifluoromethyl)phenyl)-2,3,5,8-tetrahydro-(1,2,4)triazolo(4,3-a)pyrimidin-5-yl)phenyl)-n,n,n-trimethylethanaminium methanesulfonate; (r)-2-(5-cyano-2-(6-(methoxycarbonyl)-7-methyl-3-oxo-8-(3-(trifluoromethyl)phenyl)-2,3,5,8-tetrahydro-(1,2,4)triazolo(4,3-a)pyrimidin-5-yl)phenyl)-n,n,n-trimethylethanaminium methanesulfonate dehydrate; Benzeneethanaminium, 5-cyano-n,n,n-trimethyl-2-((5r)-2,3,5,8-tetrahydro-6-(methoxycarbonyl)-7-methyl-3-oxo-8-(3-(trifluoromethyl)phenyl)-1,2,4-triazolo(4,3-a)pyrimidin-5-yl)-, methanesulfonate (1:1); Chf-6333 mesylate; Gplscd01

$$$$
