
 OpenBabel10282417143D

 28 30  0  0  0  0  0  0  0  0999 V2000
   -2.0494    0.6837    0.0164 C   0  0  0  0  0  0  0  0  0  0  0  0
   -0.8798    1.4631    0.0013 C   0  0  0  0  0  0  0  0  0  0  0  0
    0.2898    0.7035   -0.0091 C   0  0  0  0  0  0  0  0  0  0  0  0
    0.2730   -0.7549   -0.0185 C   0  0  0  0  0  0  0  0  0  0  0  0
   -0.9291   -1.5048   -0.0338 C   0  0  0  0  0  0  0  0  0  0  0  0
   -2.1161   -0.7390   -0.0366 C   0  0  0  0  0  0  0  0  0  0  0  0
   -3.4603   -1.4410    0.0315 C   0  0  0  0  0  0  0  0  0  0  0  0
   -3.4976   -2.6522    0.2409 O   0  0  0  0  0  0  0  0  0  0  0  0
   -4.6049   -0.6530   -0.0070 N   0  0  0  0  0  0  0  0  0  0  0  0
   -4.9478    0.2339   -1.1203 C   0  0  0  0  0  0  0  0  0  0  0  0
   -5.3903    1.6031   -0.5783 C   0  0  0  0  0  0  0  0  0  0  0  0
   -6.4576    1.4609    0.3727 O   0  0  0  0  0  0  0  0  0  0  0  0
   -6.0673    0.6036    1.4682 C   0  0  0  0  0  0  0  0  0  0  0  0
   -5.6966   -0.8037    0.9612 C   0  0  0  0  0  0  0  0  0  0  0  0
    1.5451   -1.1732   -0.0046 N   0  0  0  0  0  0  0  0  0  0  0  0
    2.3270   -0.0276    0.0017 O   0  0  0  0  0  0  0  0  0  0  0  0
    1.5580    1.1227   -0.0017 N   0  0  0  0  0  0  0  0  0  0  0  0
   -2.9574    1.2467    0.1107 H   0  0  0  0  0  0  0  0  0  0  0  0
   -0.8988    2.5447    0.0249 H   0  0  0  0  0  0  0  0  0  0  0  0
   -0.9245   -2.5878   -0.0162 H   0  0  0  0  0  0  0  0  0  0  0  0
   -5.7938   -0.2332   -1.6420 H   0  0  0  0  0  0  0  0  0  0  0  0
   -4.1214    0.3012   -1.8323 H   0  0  0  0  0  0  0  0  0  0  0  0
   -4.5887    2.1445   -0.0716 H   0  0  0  0  0  0  0  0  0  0  0  0
   -5.7184    2.2463   -1.3983 H   0  0  0  0  0  0  0  0  0  0  0  0
   -6.9062    0.5658    2.1685 H   0  0  0  0  0  0  0  0  0  0  0  0
   -5.2153    1.0611    1.9893 H   0  0  0  0  0  0  0  0  0  0  0  0
   -6.5580   -1.2469    0.4466 H   0  0  0  0  0  0  0  0  0  0  0  0
   -5.4017   -1.4548    1.7896 H   0  0  0  0  0  0  0  0  0  0  0  0
  1  2  2  0  0  0  0
  1  6  1  0  0  0  0
  1 18  1  0  0  0  0
  2  3  1  0  0  0  0
  2 19  1  0  0  0  0
  3  4  1  0  0  0  0
  3 17  2  0  0  0  0
  4  5  1  0  0  0  0
  4 15  2  0  0  0  0
  5  6  2  0  0  0  0
  5 20  1  0  0  0  0
  6  7  1  0  0  0  0
  7  8  2  0  0  0  0
  7  9  1  0  0  0  0
  9 10  1  0  0  0  0
  9 14  1  0  0  0  0
 10 11  1  0  0  0  0
 10 21  1  0  0  0  0
 10 22  1  0  0  0  0
 11 12  1  0  0  0  0
 11 23  1  0  0  0  0
 11 24  1  0  0  0  0
 12 13  1  0  0  0  0
 13 14  1  0  0  0  0
 13 25  1  0  0  0  0
 13 26  1  0  0  0  0
 14 27  1  0  0  0  0
 14 28  1  0  0  0  0
 15 16  1  0  0  0  0
 16 17  1  0  0  0  0
M  END
>  <DRUGBANK_ID>
DB05047

>  <COMMON_NAME>
CX-717

>  <CAS_NUMBER>
867276-98-0

>  <UNII>
7I12YTA3QM

$$$$
