
 OpenBabel10282417243D

 54 54  0  0  1  0  0  0  0  0999 V2000
    6.1122    0.1434   -4.0603 C   0  0  0  0  0  0  0  0  0  0  0  0
    5.4719    0.1131   -2.6817 C   0  0  0  0  0  0  0  0  0  0  0  0
    4.1743    0.7567   -2.6534 O   0  0  0  0  0  0  0  0  0  0  0  0
    4.1685    2.1163   -2.8725 C   0  0  0  0  0  0  0  0  0  0  0  0
    5.1237    2.7758   -3.2026 O   0  0  0  0  0  0  0  0  0  0  0  0
    2.8408    2.7211   -2.5925 C   0  0  1  0  0  0  0  0  0  0  0  0
    2.7828    4.1601   -2.7626 O   0  0  0  0  0  0  0  0  0  0  0  0
    1.9926    3.3740   -3.6597 C   0  0  2  0  0  0  0  0  0  0  0  0
    0.5347    3.4166   -3.4306 C   0  0  0  0  0  0  0  0  0  0  0  0
    0.0480    3.5411   -2.3103 O   0  0  0  0  0  0  0  0  0  0  0  0
   -0.3062    3.2072   -4.4772 N   0  0  0  0  0  0  0  0  0  0  0  0
   -0.0434    3.2047   -5.9272 C   0  0  1  0  0  0  0  0  0  0  0  0
   -0.3686    1.8231   -6.6011 C   0  0  0  0  0  0  0  0  0  0  0  0
   -1.8410    1.4848   -6.8791 C   0  0  0  0  0  0  0  0  0  0  0  0
   -2.3467    2.3206   -8.0699 C   0  0  0  0  0  0  0  0  0  0  0  0
   -2.2329    0.0825   -7.2720 C   0  0  0  0  0  0  0  0  0  0  0  0
   -0.6150    4.4868   -6.5984 C   0  0  0  0  0  0  0  0  0  0  0  0
    0.0591    5.1462   -7.3937 O   0  0  0  0  0  0  0  0  0  0  0  0
   -1.9438    4.8161   -6.4222 N   0  0  0  0  0  0  0  0  0  0  0  0
   -2.9317    3.9251   -5.8504 C   0  0  0  0  0  0  0  0  0  0  0  0
   -4.0235    4.5084   -5.0744 C   0  0  0  0  0  0  0  0  0  0  0  0
   -4.8474    5.3529   -6.0318 C   0  0  0  0  0  0  0  0  0  0  0  0
   -5.5782    4.5656   -7.1405 C   0  0  0  0  0  0  0  0  0  0  0  0
   -5.8029    6.0656   -5.1218 C   0  0  0  0  0  0  0  0  0  0  0  0
    5.4738   -0.3651   -4.7881 H   0  0  0  0  0  0  0  0  0  0  0  0
    7.0975   -0.3327   -4.0526 H   0  0  0  0  0  0  0  0  0  0  0  0
    6.2489    1.1647   -4.4198 H   0  0  0  0  0  0  0  0  0  0  0  0
    5.3310   -0.9364   -2.3866 H   0  0  0  0  0  0  0  0  0  0  0  0
    6.1236    0.5620   -1.9226 H   0  0  0  0  0  0  0  0  0  0  0  0
    2.3570    2.3589   -1.6966 H   0  0  0  0  0  0  0  0  0  0  0  0
    2.3361    3.3992   -4.6794 H   0  0  0  0  0  0  0  0  0  0  0  0
   -1.2453    3.2958   -4.1192 H   0  0  0  0  0  0  0  0  0  0  0  0
    1.0316    3.3183   -6.0658 H   0  0  0  0  0  0  0  0  0  0  0  0
    0.1498    1.7874   -7.5654 H   0  0  0  0  0  0  0  0  0  0  0  0
    0.0717    1.0375   -5.9739 H   0  0  0  0  0  0  0  0  0  0  0  0
   -2.3603    1.5668   -5.9183 H   0  0  0  0  0  0  0  0  0  0  0  0
   -1.8690    2.1013   -9.0191 H   0  0  0  0  0  0  0  0  0  0  0  0
   -3.4360    2.2493   -8.1787 H   0  0  0  0  0  0  0  0  0  0  0  0
   -2.0924    3.3586   -7.9850 H   0  0  0  0  0  0  0  0  0  0  0  0
   -1.8468   -0.6681   -6.5863 H   0  0  0  0  0  0  0  0  0  0  0  0
   -3.3349    0.0368   -7.2417 H   0  0  0  0  0  0  0  0  0  0  0  0
   -1.9158   -0.1106   -8.2962 H   0  0  0  0  0  0  0  0  0  0  0  0
   -2.2463    5.4143   -7.1924 H   0  0  0  0  0  0  0  0  0  0  0  0
   -3.4790    3.3858   -6.6028 H   0  0  0  0  0  0  0  0  0  0  0  0
   -2.4812    3.1966   -5.2235 H   0  0  0  0  0  0  0  0  0  0  0  0
   -4.6198    3.6738   -4.6726 H   0  0  0  0  0  0  0  0  0  0  0  0
   -3.5784    5.0436   -4.2316 H   0  0  0  0  0  0  0  0  0  0  0  0
   -4.1965    6.0814   -6.5297 H   0  0  0  0  0  0  0  0  0  0  0  0
   -6.2123    3.7739   -6.7281 H   0  0  0  0  0  0  0  0  0  0  0  0
   -6.2010    5.2413   -7.7333 H   0  0  0  0  0  0  0  0  0  0  0  0
   -4.8982    4.0939   -7.8620 H   0  0  0  0  0  0  0  0  0  0  0  0
   -5.2261    6.5851   -4.3478 H   0  0  0  0  0  0  0  0  0  0  0  0
   -6.3891    6.7870   -5.6822 H   0  0  0  0  0  0  0  0  0  0  0  0
   -6.4527    5.3337   -4.6318 H   0  0  0  0  0  0  0  0  0  0  0  0
  1  2  1  0  0  0  0
  1 25  1  0  0  0  0
  1 26  1  0  0  0  0
  1 27  1  0  0  0  0
  2  3  1  0  0  0  0
  2 28  1  0  0  0  0
  2 29  1  0  0  0  0
  3  4  1  0  0  0  0
  4  5  2  0  0  0  0
  6  7  1  0  0  0  0
  6  8  1  0  0  0  0
  6 30  1  1  0  0  0
  6  4  1  0  0  0  0
  8  7  1  0  0  0  0
  8 31  1  6  0  0  0
  8  9  1  0  0  0  0
  9 10  2  0  0  0  0
  9 11  1  0  0  0  0
 11 32  1  0  0  0  0
 12 11  1  0  0  0  0
 12 13  1  0  0  0  0
 12 17  1  0  0  0  0
 12 33  1  6  0  0  0
 13 14  1  0  0  0  0
 13 34  1  0  0  0  0
 13 35  1  0  0  0  0
 14 15  1  0  0  0  0
 14 16  1  0  0  0  0
 14 36  1  0  0  0  0
 15 37  1  0  0  0  0
 15 38  1  0  0  0  0
 15 39  1  0  0  0  0
 16 40  1  0  0  0  0
 16 41  1  0  0  0  0
 16 42  1  0  0  0  0
 17 18  2  0  0  0  0
 17 19  1  0  0  0  0
 19 20  1  0  0  0  0
 19 43  1  0  0  0  0
 20 21  1  0  0  0  0
 20 44  1  0  0  0  0
 20 45  1  0  0  0  0
 21 22  1  0  0  0  0
 21 46  1  0  0  0  0
 21 47  1  0  0  0  0
 22 23  1  0  0  0  0
 22 24  1  0  0  0  0
 22 48  1  0  0  0  0
 23 49  1  0  0  0  0
 23 50  1  0  0  0  0
 23 51  1  0  0  0  0
 24 52  1  0  0  0  0
 24 53  1  0  0  0  0
 24 54  1  0  0  0  0
M  END
>  <DRUGBANK_ID>
DB18145

>  <COMMON_NAME>
Aloxistatin

>  <CAS_NUMBER>
88321-09-9

>  <UNII>
L5W337AOUR

>  <SYNONYMS>
Ethyl (+)-(2s,3s)-2,3-epoxy-n-((s)-1-(isopentylcarbamoyl)-3-methylbutyl)succinamate; Loxistatin

$$$$
