
 OpenBabel10282417123D

 18 18  0  0  0  0  0  0  0  0999 V2000
    0.8057    0.0834    0.0499 O   0  0  0  0  0  0  0  0  0  0  0  0
    0.2852   -1.1159   -0.2650 C   0  0  0  0  0  0  0  0  0  0  0  0
    0.9826   -2.0373   -0.6543 O   0  0  0  0  0  0  0  0  0  0  0  0
   -1.1928   -1.1204   -0.2017 C   0  0  0  0  0  0  0  0  0  0  0  0
   -1.8689   -0.0845   -0.8761 C   0  0  0  0  0  0  0  0  0  0  0  0
   -3.2562   -0.1161   -1.0116 C   0  0  0  0  0  0  0  0  0  0  0  0
   -3.9714   -1.1984   -0.5135 C   0  0  0  0  0  0  0  0  0  0  0  0
   -3.3057   -2.2420    0.1385 C   0  0  0  0  0  0  0  0  0  0  0  0
   -1.9165   -2.1883    0.3675 C   0  0  0  0  0  0  0  0  0  0  0  0
   -1.2369   -3.1517    1.2967 C   0  0  0  0  0  0  0  0  0  0  0  0
   -2.0040   -4.1223    1.8392 O   0  0  0  0  0  0  0  0  0  0  0  0
   -0.0752   -3.0320    1.6509 O   0  0  0  0  0  0  0  0  0  0  0  0
    1.7751   -0.0618   -0.0156 H   0  0  0  0  0  0  0  0  0  0  0  0
   -1.3123    0.7432   -1.3125 H   0  0  0  0  0  0  0  0  0  0  0  0
   -3.7755    0.6842   -1.5346 H   0  0  0  0  0  0  0  0  0  0  0  0
   -5.0545   -1.2296   -0.6222 H   0  0  0  0  0  0  0  0  0  0  0  0
   -3.9185   -3.0802    0.4477 H   0  0  0  0  0  0  0  0  0  0  0  0
   -2.9539   -4.1516    1.6525 H   0  0  0  0  0  0  0  0  0  0  0  0
  1  2  1  0  0  0  0
  1 13  1  0  0  0  0
  2  3  2  0  0  0  0
  2  4  1  0  0  0  0
  4  5  2  0  0  0  0
  4  9  1  0  0  0  0
  5  6  1  0  0  0  0
  5 14  1  0  0  0  0
  6  7  2  0  0  0  0
  6 15  1  0  0  0  0
  7  8  1  0  0  0  0
  7 16  1  0  0  0  0
  8  9  2  0  0  0  0
  8 17  1  0  0  0  0
  9 10  1  0  0  0  0
 10 11  1  0  0  0  0
 10 12  2  0  0  0  0
 11 18  1  0  0  0  0
M  END
>  <DRUGBANK_ID>
DB02746

>  <SECONDARY_ACCESSION_NUMBERS>
EXPT02595

>  <COMMON_NAME>
Phthalic Acid

>  <CAS_NUMBER>
88-99-3

>  <UNII>
6O7F7IX66E

$$$$
