
 OpenBabel10282417233D

  3  2  0  0  0  0  0  0  0  0999 V2000
    1.0600   -0.0207    0.0773 Ca  0  0  0  0  0  0  0  0  0  0  0  0
   -1.2700   -0.0207    0.0773 F   0  0  0  0  0  0  0  0  0  0  0  0
    3.3900   -0.0207    0.0773 F   0  0  0  0  0  0  0  0  0  0  0  0
  1  2  1  0  0  0  0
  1  3  1  0  0  0  0
M  END
>  <DRUGBANK_ID>
DB15962

>  <COMMON_NAME>
Calcium fluoride

>  <CAS_NUMBER>
7789-75-5

>  <UNII>
O3B55K4YKI

>  <SYNONYMS>
Fluorspar

$$$$
