
 OpenBabel10282417123D

 38 37  0  0  0  0  0  0  0  0999 V2000
  -11.8722    5.7625    1.6460 O   0  0  0  0  0  0  0  0  0  0  0  0
  -12.9148    3.8725    1.0741 O   0  0  0  0  0  0  0  0  0  0  0  0
   -6.5887    1.4681   -2.8494 O   0  0  0  0  0  0  0  0  0  0  0  0
   -7.3795    3.1615   -1.6222 O   0  0  0  0  0  0  0  0  0  0  0  0
   -2.8757    2.6392   -0.1813 O   0  0  0  0  0  0  0  0  0  0  0  0
   -3.6863    1.0940    1.2369 O   0  0  0  0  0  0  0  0  0  0  0  0
   -6.8968    0.7595    0.5752 N   0  0  0  0  0  0  0  0  0  0  0  0
   -8.7179    0.8320    2.1105 N   0  0  0  0  0  0  0  0  0  0  0  0
   -9.9126    4.7674   -0.3781 N   0  0  0  0  0  0  0  0  0  0  0  0
   -8.6579    1.9226    0.0932 N   0  0  0  0  0  0  0  0  0  0  0  0
   -9.5962    3.9052    1.9753 C   0  0  0  0  0  0  0  0  0  0  0  0
  -10.0287    2.8158    2.9827 C   0  0  0  0  0  0  0  0  0  0  0  0
  -10.5344    4.0139    0.7314 C   0  0  1  0  0  0  0  0  0  0  0  0
  -10.0772    1.3694    2.4340 C   0  0  0  0  0  0  0  0  0  0  0  0
   -6.0452    1.4605   -0.4301 C   0  0  2  0  0  0  0  0  0  0  0  0
   -5.2428    2.5971    0.2288 C   0  0  0  0  0  0  0  0  0  0  0  0
   -8.1177    1.1447    1.0195 C   0  0  0  0  0  0  0  0  0  0  0  0
  -11.8948    4.5215    1.1351 C   0  0  0  0  0  0  0  0  0  0  0  0
   -6.7643    2.0940   -1.6680 C   0  0  0  0  0  0  0  0  0  0  0  0
   -3.8766    2.0541    0.5056 C   0  0  0  0  0  0  0  0  0  0  0  0
  -12.8038    5.9192    1.8863 H   0  0  0  0  0  0  0  0  0  0  0  0
   -6.0338    0.6683   -2.8365 H   0  0  0  0  0  0  0  0  0  0  0  0
   -3.0959    3.4168   -0.7291 H   0  0  0  0  0  0  0  0  0  0  0  0
   -6.4264    0.1013    1.1909 H   0  0  0  0  0  0  0  0  0  0  0  0
   -9.0411    4.3214   -0.6846 H   0  0  0  0  0  0  0  0  0  0  0  0
  -10.5053    4.6658   -1.2070 H   0  0  0  0  0  0  0  0  0  0  0  0
   -9.5208    2.2016    0.4570 H   0  0  0  0  0  0  0  0  0  0  0  0
   -8.1165    2.7715   -0.0637 H   0  0  0  0  0  0  0  0  0  0  0  0
   -8.5466    3.7119    1.7203 H   0  0  0  0  0  0  0  0  0  0  0  0
   -9.5378    4.8780    2.4799 H   0  0  0  0  0  0  0  0  0  0  0  0
   -9.3470    2.8319    3.8423 H   0  0  0  0  0  0  0  0  0  0  0  0
  -11.0166    3.0944    3.3731 H   0  0  0  0  0  0  0  0  0  0  0  0
  -10.8439    3.0641    0.2843 H   0  0  0  0  0  0  0  0  0  0  0  0
  -10.5223    0.7317    3.2095 H   0  0  0  0  0  0  0  0  0  0  0  0
  -10.7842    1.2856    1.5955 H   0  0  0  0  0  0  0  0  0  0  0  0
   -5.3740    0.6977   -0.8330 H   0  0  0  0  0  0  0  0  0  0  0  0
   -5.1616    3.4814   -0.4170 H   0  0  0  0  0  0  0  0  0  0  0  0
   -5.6771    2.9510    1.1723 H   0  0  0  0  0  0  0  0  0  0  0  0
  1 18  1  0  0  0  0
  1 21  1  0  0  0  0
  2 18  2  0  0  0  0
  3 19  1  0  0  0  0
  3 22  1  0  0  0  0
  4 19  2  0  0  0  0
  5 20  1  0  0  0  0
  5 23  1  0  0  0  0
  6 20  2  0  0  0  0
  7 17  1  0  0  0  0
  7 24  1  0  0  0  0
  8 14  1  0  0  0  0
  8 17  2  0  0  0  0
  9 25  1  0  0  0  0
  9 26  1  0  0  0  0
 10 17  1  0  0  0  0
 10 27  1  0  0  0  0
 10 28  1  0  0  0  0
 11 12  1  0  0  0  0
 11 13  1  0  0  0  0
 11 29  1  0  0  0  0
 11 30  1  0  0  0  0
 12 14  1  0  0  0  0
 12 31  1  0  0  0  0
 12 32  1  0  0  0  0
 13  9  1  0  0  0  0
 13 18  1  0  0  0  0
 13 33  1  6  0  0  0
 14 34  1  0  0  0  0
 14 35  1  0  0  0  0
 15 19  1  0  0  0  0
 15 36  1  6  0  0  0
 15 16  1  0  0  0  0
 15  7  1  0  0  0  0
 16 20  1  0  0  0  0
 16 37  1  0  0  0  0
 16 38  1  0  0  0  0
M  END
>  <DRUGBANK_ID>
DB02267

>  <SECONDARY_ACCESSION_NUMBERS>
EXPT00565

>  <COMMON_NAME>
Argininosuccinate

$$$$
