
 OpenBabel10282417123D

 74 74  0  0  1  0  0  0  0  0999 V2000
    0.8558    0.0503   -0.0411 C   0  0  0  0  0  0  0  0  0  0  0  0
    0.3515    1.1068   -1.0295 C   0  0  0  0  0  0  0  0  0  0  0  0
   -0.4966    0.5755   -2.1370 C   0  0  0  0  0  0  0  0  0  0  0  0
   -1.7726    1.1904   -2.0707 O   0  0  0  0  0  0  0  0  0  0  0  0
    0.6055    2.4456   -1.0082 C   0  0  0  0  0  0  0  0  0  0  0  0
    1.4075    3.0376    0.0039 C   0  0  0  0  0  0  0  0  0  0  0  0
    1.8703    4.2313    0.3789 C   0  0  0  0  0  0  0  0  0  0  0  0
    2.7226    4.4659    1.5621 C   0  0  0  0  0  0  0  0  0  0  0  0
    3.1369    5.9098    1.8046 C   0  0  0  0  0  0  0  0  0  0  0  0
    3.1570    3.5316    2.4317 C   0  0  0  0  0  0  0  0  0  0  0  0
    2.8983    2.0992    2.4164 C   0  0  0  0  0  0  0  0  0  0  0  0
    3.3303    1.2205    3.2636 C   0  0  0  0  0  0  0  0  0  0  0  0
    3.0763   -0.2101    3.2555 C   0  0  0  0  0  0  0  0  0  0  0  0
    3.5050   -1.1484    4.1231 C   0  0  0  0  0  0  0  0  0  0  0  0
    3.1133   -2.5930    3.9092 C   0  0  0  0  0  0  0  0  0  0  0  0
    4.3476   -0.9303    5.3050 C   0  0  0  0  0  0  0  0  0  0  0  0
    4.7945    0.2635    5.6665 C   0  0  0  0  0  0  0  0  0  0  0  0
    5.6012    0.8297    6.6618 C   0  0  0  0  0  0  0  0  0  0  0  0
    5.8984    2.1528    6.7070 C   0  0  0  0  0  0  0  0  0  0  0  0
    5.4411    3.3105    5.8029 C   0  0  0  0  0  0  0  0  0  0  0  0
    6.8025    2.6132    7.7257 C   0  0  0  0  0  0  0  0  0  0  0  0
    7.2769    1.8607    8.7225 C   0  0  0  0  0  0  0  0  0  0  0  0
    8.0628    2.2959    9.8546 C   0  0  0  0  0  0  0  0  0  0  0  0
    9.0634    1.5068   10.2876 C   0  0  0  0  0  0  0  0  0  0  0  0
    9.5575    0.2528    9.5959 C   0  0  0  0  0  0  0  0  0  0  0  0
    9.8227    1.7908   11.5421 C   0  0  0  0  0  0  0  0  0  0  0  0
    9.4891    3.0565   12.3138 C   0  0  1  0  0  0  0  0  0  0  0  0
   10.6119    3.9392   12.2026 O   0  0  0  0  0  0  0  0  0  0  0  0
    8.2721    3.8636   11.9308 C   0  0  0  0  0  0  0  0  0  0  0  0
    7.5523    3.5240   10.6092 C   0  0  0  0  0  0  0  0  0  0  0  0
    6.0901    3.2282   11.0270 C   0  0  0  0  0  0  0  0  0  0  0  0
    7.7101    4.7996    9.7494 C   0  0  0  0  0  0  0  0  0  0  0  0
    0.5156   -0.9633   -0.2866 H   0  0  0  0  0  0  0  0  0  0  0  0
    0.4975    0.2447    0.9782 H   0  0  0  0  0  0  0  0  0  0  0  0
    1.9523   -0.0009   -0.0264 H   0  0  0  0  0  0  0  0  0  0  0  0
   -0.0243    0.8091   -3.0948 H   0  0  0  0  0  0  0  0  0  0  0  0
   -0.6347   -0.5070   -2.0793 H   0  0  0  0  0  0  0  0  0  0  0  0
   -2.1095    1.0357   -1.1712 H   0  0  0  0  0  0  0  0  0  0  0  0
    0.2067    3.1191   -1.7530 H   0  0  0  0  0  0  0  0  0  0  0  0
    1.6566    2.2085    0.5673 H   0  0  0  0  0  0  0  0  0  0  0  0
    1.6095    5.0952   -0.2141 H   0  0  0  0  0  0  0  0  0  0  0  0
    2.7819    6.2697    2.7793 H   0  0  0  0  0  0  0  0  0  0  0  0
    4.2291    6.0209    1.7871 H   0  0  0  0  0  0  0  0  0  0  0  0
    2.7331    6.5868    1.0462 H   0  0  0  0  0  0  0  0  0  0  0  0
    3.7838    3.8858    3.2574 H   0  0  0  0  0  0  0  0  0  0  0  0
    2.3330    1.5335    1.7376 H   0  0  0  0  0  0  0  0  0  0  0  0
    3.8967    1.7796    3.9395 H   0  0  0  0  0  0  0  0  0  0  0  0
    2.4510   -0.5490    2.4253 H   0  0  0  0  0  0  0  0  0  0  0  0
    4.0042   -3.2154    3.7736 H   0  0  0  0  0  0  0  0  0  0  0  0
    2.5496   -2.9666    4.7704 H   0  0  0  0  0  0  0  0  0  0  0  0
    2.4822   -2.7347    3.0233 H   0  0  0  0  0  0  0  0  0  0  0  0
    4.6205   -1.7902    5.9015 H   0  0  0  0  0  0  0  0  0  0  0  0
    4.5523    1.0944    5.1120 H   0  0  0  0  0  0  0  0  0  0  0  0
    5.9685    0.0924    7.3541 H   0  0  0  0  0  0  0  0  0  0  0  0
    4.8527    4.0594    6.3507 H   0  0  0  0  0  0  0  0  0  0  0  0
    6.2908    3.8247    5.3347 H   0  0  0  0  0  0  0  0  0  0  0  0
    4.8113    3.0266    4.9744 H   0  0  0  0  0  0  0  0  0  0  0  0
    7.0714    3.6492    7.6035 H   0  0  0  0  0  0  0  0  0  0  0  0
    7.0195    0.8081    8.7803 H   0  0  0  0  0  0  0  0  0  0  0  0
   10.6169    0.3704    9.3461 H   0  0  0  0  0  0  0  0  0  0  0  0
    9.4517   -0.6103   10.2625 H   0  0  0  0  0  0  0  0  0  0  0  0
    9.0397    0.0131    8.6642 H   0  0  0  0  0  0  0  0  0  0  0  0
   10.8840    1.8228   11.2675 H   0  0  0  0  0  0  0  0  0  0  0  0
    9.6937    0.9339   12.2139 H   0  0  0  0  0  0  0  0  0  0  0  0
    9.3896    2.8013   13.3753 H   0  0  0  0  0  0  0  0  0  0  0  0
   10.6829    4.1582   11.2554 H   0  0  0  0  0  0  0  0  0  0  0  0
    7.5590    3.8176   12.7634 H   0  0  0  0  0  0  0  0  0  0  0  0
    8.5616    4.9241   11.9238 H   0  0  0  0  0  0  0  0  0  0  0  0
    5.6582    4.0675   11.5784 H   0  0  0  0  0  0  0  0  0  0  0  0
    5.4202    3.0001   10.1936 H   0  0  0  0  0  0  0  0  0  0  0  0
    6.0764    2.3514   11.6942 H   0  0  0  0  0  0  0  0  0  0  0  0
    8.7312    4.8504    9.3432 H   0  0  0  0  0  0  0  0  0  0  0  0
    6.9989    4.8900    8.9342 H   0  0  0  0  0  0  0  0  0  0  0  0
    7.5331    5.7100   10.3270 H   0  0  0  0  0  0  0  0  0  0  0  0
  1  2  1  0  0  0  0
  1 33  1  0  0  0  0
  1 34  1  0  0  0  0
  1 35  1  0  0  0  0
  2  3  1  0  0  0  0
  2  5  2  0  0  0  0
  3  4  1  0  0  0  0
  3 36  1  0  0  0  0
  3 37  1  0  0  0  0
  4 38  1  0  0  0  0
  5  6  1  0  0  0  0
  5 39  1  0  0  0  0
  6  7  2  0  0  0  0
  6 40  1  0  0  0  0
  7  8  1  0  0  0  0
  7 41  1  0  0  0  0
  8  9  1  0  0  0  0
  8 10  2  0  0  0  0
  9 42  1  0  0  0  0
  9 43  1  0  0  0  0
  9 44  1  0  0  0  0
 10 11  1  0  0  0  0
 10 45  1  0  0  0  0
 11 12  2  0  0  0  0
 11 46  1  0  0  0  0
 12 13  1  0  0  0  0
 12 47  1  0  0  0  0
 13 14  2  0  0  0  0
 13 48  1  0  0  0  0
 14 15  1  0  0  0  0
 14 16  1  0  0  0  0
 15 49  1  0  0  0  0
 15 50  1  0  0  0  0
 15 51  1  0  0  0  0
 16 17  2  0  0  0  0
 16 52  1  0  0  0  0
 17 18  1  0  0  0  0
 17 53  1  0  0  0  0
 18 19  2  0  0  0  0
 18 54  1  0  0  0  0
 19 20  1  0  0  0  0
 19 21  1  0  0  0  0
 20 55  1  0  0  0  0
 20 56  1  0  0  0  0
 20 57  1  0  0  0  0
 21 22  2  0  0  0  0
 21 58  1  0  0  0  0
 22 23  1  0  0  0  0
 22 59  1  0  0  0  0
 23 24  2  0  0  0  0
 23 30  1  0  0  0  0
 24 25  1  0  0  0  0
 24 26  1  0  0  0  0
 25 60  1  0  0  0  0
 25 61  1  0  0  0  0
 25 62  1  0  0  0  0
 26 27  1  0  0  0  0
 26 63  1  0  0  0  0
 26 64  1  0  0  0  0
 27 28  1  0  0  0  0
 27 29  1  0  0  0  0
 27 65  1  1  0  0  0
 28 66  1  0  0  0  0
 29 30  1  0  0  0  0
 29 67  1  0  0  0  0
 29 68  1  0  0  0  0
 30 31  1  0  0  0  0
 30 32  1  0  0  0  0
 31 69  1  0  0  0  0
 31 70  1  0  0  0  0
 31 71  1  0  0  0  0
 32 72  1  0  0  0  0
 32 73  1  0  0  0  0
 32 74  1  0  0  0  0
M  END
>  <DRUGBANK_ID>
DB02253

>  <SECONDARY_ACCESSION_NUMBERS>
EXPT00185

>  <COMMON_NAME>
(1r)-4-[(1e,3e,5e,7z,9e,11z,13e,15e)-17-Hydroxy-3,7,12,16-Tetramethylheptadeca-1,3,5,7,9,11,13,15-Octaen-1-Yl]-3,5,5-Trimethylcyclohex-3-En-1-Ol

$$$$
