
 OpenBabel10282417153D

 68 72  0  0  1  0  0  0  0  0999 V2000
   10.0795    0.6404    2.9580 C   0  0  0  0  0  0  0  0  0  0  0  0
   14.6753    1.5573    3.7096 C   0  0  0  0  0  0  0  0  0  0  0  0
   13.0232    4.3817    0.5822 C   0  0  0  0  0  0  0  0  0  0  0  0
    7.1297    0.2828    1.2007 C   0  0  0  0  0  0  0  0  0  0  0  0
    7.8676   -1.5081    2.6468 C   0  0  0  0  0  0  0  0  0  0  0  0
    8.3326    0.1915    0.4780 C   0  0  0  0  0  0  0  0  0  0  0  0
    8.9953   -1.6817    1.8477 C   0  0  0  0  0  0  0  0  0  0  0  0
   13.6422   -3.5525    1.9849 C   0  0  0  0  0  0  0  0  0  0  0  0
   12.9941   -4.4752   -2.1789 C   0  0  0  0  0  0  0  0  0  0  0  0
   13.2389   -2.3335    2.8130 C   0  0  0  0  0  0  0  0  0  0  0  0
   12.5637   -2.9979   -1.5799 C   0  0  0  0  0  0  0  0  0  0  0  0
   12.1079    1.1226    3.4736 C   0  0  0  0  0  0  0  0  0  0  0  0
   11.1529    2.5783    2.6033 C   0  0  0  0  0  0  0  0  0  0  0  0
   12.8468   -5.0646    0.1394 C   0  0  0  0  0  0  0  0  0  0  0  0
   11.2945    0.6440    0.2947 C   0  0  0  0  0  0  0  0  0  0  0  0
    5.5657   -0.7155    2.8867 C   0  0  0  0  0  0  0  0  0  0  0  0
   13.1243    3.3126    3.2483 C   0  0  0  0  0  0  0  0  0  0  0  0
    6.8917   -0.5996    2.2595 C   0  0  0  0  0  0  0  0  0  0  0  0
    9.2930   -0.8022    0.7838 C   0  0  0  0  0  0  0  0  0  0  0  0
   12.8917   -3.8467    0.7236 C   0  0  0  0  0  0  0  0  0  0  0  0
   12.1462   -5.1198   -1.2100 C   0  0  0  0  0  0  0  0  0  0  0  0
   12.2930   -2.7632   -0.0029 C   0  0  0  0  0  0  0  0  0  0  0  0
   12.1515   -1.4282    2.2195 C   0  0  1  0  0  0  0  0  0  0  0  0
   10.7013   -0.7470    0.1385 C   0  0  2  0  0  0  0  0  0  0  0  0
   12.5716    0.0857    2.3566 C   0  0  1  0  0  0  0  0  0  0  0  0
   11.7260   -1.7481    0.7128 C   0  0  0  0  0  0  0  0  0  0  0  0
   11.5522    0.9347    1.7593 C   0  0  2  0  0  0  0  0  0  0  0  0
   12.4085    2.4996    1.9194 C   0  0  1  0  0  0  0  0  0  0  0  0
    5.3519   -1.5945    3.8154 N   0  0  0  0  0  0  0  0  0  0  0  0
   10.9435   -5.3592   -1.4544 O   0  0  0  0  0  0  0  0  0  0  0  0
    4.0017   -1.6073    4.1621 O   0  0  0  0  0  0  0  0  0  0  0  0
   14.4476    2.9551    3.6685 O   0  0  0  0  0  0  0  0  0  0  0  0
   12.7530    2.9978    0.6615 O   0  0  0  0  0  0  0  0  0  0  0  0
    4.7561   -0.0837    2.4855 H   0  0  0  0  0  0  0  0  0  0  0  0
   11.3367   -1.6278    2.9034 H   0  0  0  0  0  0  0  0  0  0  0  0
   10.5567   -0.9109   -0.9299 H   0  0  0  0  0  0  0  0  0  0  0  0
   13.4786    0.1864    1.7404 H   0  0  0  0  0  0  0  0  0  0  0  0
   10.1444    1.2133    3.9321 H   0  0  0  0  0  0  0  0  0  0  0  0
   10.1093   -0.3533    3.4123 H   0  0  0  0  0  0  0  0  0  0  0  0
    9.1389    1.0344    2.6271 H   0  0  0  0  0  0  0  0  0  0  0  0
   14.1383    1.0544    4.5264 H   0  0  0  0  0  0  0  0  0  0  0  0
   14.4437    1.2397    2.7145 H   0  0  0  0  0  0  0  0  0  0  0  0
   15.6872    1.1877    3.8134 H   0  0  0  0  0  0  0  0  0  0  0  0
   12.0732    4.9021    0.4711 H   0  0  0  0  0  0  0  0  0  0  0  0
   13.5805    4.7844    1.4254 H   0  0  0  0  0  0  0  0  0  0  0  0
   13.6692    4.5717   -0.2764 H   0  0  0  0  0  0  0  0  0  0  0  0
    6.4165    1.0612    0.9461 H   0  0  0  0  0  0  0  0  0  0  0  0
    7.7785   -2.0681    3.5770 H   0  0  0  0  0  0  0  0  0  0  0  0
    8.5479    0.9495   -0.2737 H   0  0  0  0  0  0  0  0  0  0  0  0
    9.7092   -2.4172    2.2004 H   0  0  0  0  0  0  0  0  0  0  0  0
   14.7105   -3.4532    1.7636 H   0  0  0  0  0  0  0  0  0  0  0  0
   13.5142   -4.4299    2.6273 H   0  0  0  0  0  0  0  0  0  0  0  0
   12.9069   -4.5891   -3.2691 H   0  0  0  0  0  0  0  0  0  0  0  0
   13.7901   -5.2474   -1.9880 H   0  0  0  0  0  0  0  0  0  0  0  0
   14.1312   -1.7557    3.0882 H   0  0  0  0  0  0  0  0  0  0  0  0
   12.8751   -2.7061    3.7859 H   0  0  0  0  0  0  0  0  0  0  0  0
   11.7049   -2.6017   -2.1500 H   0  0  0  0  0  0  0  0  0  0  0  0
   13.4247   -2.3644   -1.7570 H   0  0  0  0  0  0  0  0  0  0  0  0
   11.7790    0.3241    4.1527 H   0  0  0  0  0  0  0  0  0  0  0  0
   12.4459    1.5627    4.4042 H   0  0  0  0  0  0  0  0  0  0  0  0
   10.9855    3.6150    2.9062 H   0  0  0  0  0  0  0  0  0  0  0  0
   10.3359    2.4716    1.8231 H   0  0  0  0  0  0  0  0  0  0  0  0
   13.7382   -5.6692    0.3035 H   0  0  0  0  0  0  0  0  0  0  0  0
   10.6692    1.4367   -0.1298 H   0  0  0  0  0  0  0  0  0  0  0  0
   12.2465    0.7124   -0.2525 H   0  0  0  0  0  0  0  0  0  0  0  0
   13.0500    4.3997    3.1085 H   0  0  0  0  0  0  0  0  0  0  0  0
   12.4633    3.3200    4.1512 H   0  0  0  0  0  0  0  0  0  0  0  0
    3.9742   -2.3200    4.8290 H   0  0  0  0  0  0  0  0  0  0  0  0
  1 38  1  0  0  0  0
  1 39  1  0  0  0  0
  1 40  1  0  0  0  0
  2 41  1  0  0  0  0
  2 42  1  0  0  0  0
  2 43  1  0  0  0  0
  3 44  1  0  0  0  0
  3 45  1  0  0  0  0
  3 46  1  0  0  0  0
  4 47  1  0  0  0  0
  5 48  1  0  0  0  0
  6  4  1  0  0  0  0
  6 49  1  0  0  0  0
  7  5  2  0  0  0  0
  7 50  1  0  0  0  0
  8 51  1  0  0  0  0
  8 52  1  0  0  0  0
  9 53  1  0  0  0  0
  9 54  1  0  0  0  0
 10  8  1  0  0  0  0
 10 55  1  0  0  0  0
 10 56  1  0  0  0  0
 11  9  1  0  0  0  0
 11 57  1  0  0  0  0
 11 58  1  0  0  0  0
 12 59  1  0  0  0  0
 12 60  1  0  0  0  0
 13 12  1  0  0  0  0
 13 61  1  0  0  0  0
 13 62  1  0  0  0  0
 14 63  1  0  0  0  0
 15 64  1  0  0  0  0
 15 65  1  0  0  0  0
 17 66  1  0  0  0  0
 17 67  1  0  0  0  0
 18  4  2  0  0  0  0
 18  5  1  0  0  0  0
 18 16  1  0  0  0  0
 19  6  2  0  0  0  0
 19  7  1  0  0  0  0
 20  8  1  0  0  0  0
 20 14  2  0  0  0  0
 21  9  1  0  0  0  0
 21 14  1  0  0  0  0
 22 11  1  0  0  0  0
 22 20  1  0  0  0  0
 23 10  1  0  0  0  0
 23 35  1  1  0  0  0
 24 15  1  0  0  0  0
 24 19  1  0  0  0  0
 24 36  1  6  0  0  0
 25 12  1  0  0  0  0
 25 23  1  0  0  0  0
 25 37  1  6  0  0  0
 26 22  2  0  0  0  0
 26 23  1  0  0  0  0
 26 24  1  0  0  0  0
 27  1  1  1  0  0  0
 27 15  1  0  0  0  0
 27 25  1  0  0  0  0
 28 13  1  0  0  0  0
 28 17  1  0  0  0  0
 28 27  1  0  0  0  0
 28 33  1  6  0  0  0
 29 16  2  0  0  0  0
 30 21  2  0  0  0  0
 31 29  1  0  0  0  0
 31 68  1  0  0  0  0
 32  2  1  0  0  0  0
 32 17  1  0  0  0  0
 33  3  1  0  0  0  0
 34 16  1  0  0  0  0
M  END
>  <DRUGBANK_ID>
DB06680

>  <COMMON_NAME>
Asoprisnil

>  <CAS_NUMBER>
199396-76-4

>  <UNII>
72W09924WP

>  <SYNONYMS>
Asoprisnil

$$$$
