
 OpenBabel10282417143D

 14 13  0  0  0  0  0  0  0  0999 V2000
    1.0860    0.1192    0.0915 C   0  0  0  0  0  0  0  0  0  0  0  0
    0.5869   -0.0682    1.4140 O   0  0  0  0  0  0  0  0  0  0  0  0
    1.1636   -1.5065    2.1831 P   0  0  0  0  0  0  0  0  0  0  0  0
    0.4107   -0.9779    3.5403 O   0  0  0  0  0  0  0  0  0  0  0  0
   -0.1575   -2.6645    1.1947 S   0  0  0  0  0  0  0  0  0  0  0  0
    1.7403   -2.9449    2.9522 O   0  0  0  0  0  0  0  0  0  0  0  0
    1.9912   -2.8690    4.3475 C   0  0  0  0  0  0  0  0  0  0  0  0
    0.7241    1.0737   -0.2950 H   0  0  0  0  0  0  0  0  0  0  0  0
    0.7329   -0.6678   -0.5811 H   0  0  0  0  0  0  0  0  0  0  0  0
    2.1787    0.1143    0.1034 H   0  0  0  0  0  0  0  0  0  0  0  0
    0.9174   -0.3171    4.0445 H   0  0  0  0  0  0  0  0  0  0  0  0
    2.6690   -2.0368    4.5583 H   0  0  0  0  0  0  0  0  0  0  0  0
    1.0534   -2.7354    4.8970 H   0  0  0  0  0  0  0  0  0  0  0  0
    2.4420   -3.8016    4.6899 H   0  0  0  0  0  0  0  0  0  0  0  0
  1  2  1  0  0  0  0
  1  8  1  0  0  0  0
  1  9  1  0  0  0  0
  1 10  1  0  0  0  0
  2  3  1  0  0  0  0
  3  4  1  0  0  0  0
  3  5  2  0  0  0  0
  3  6  1  0  0  0  0
  4 11  1  0  0  0  0
  6  7  1  0  0  0  0
  7 12  1  0  0  0  0
  7 13  1  0  0  0  0
  7 14  1  0  0  0  0
M  END
>  <DRUGBANK_ID>
DB04687

>  <COMMON_NAME>
DIMETHYL THIOPHOSPHATE

>  <UNII>
6KM8HRE9WB

$$$$
