
 OpenBabel10282417143D

 90 91  0  0  1  0  0  0  0  0999 V2000
   -6.3807   -9.2991    9.8986 C   0  0  0  0  0  0  0  0  0  0  0  0
   -7.2620  -10.0656    8.9229 C   0  0  0  0  0  0  0  0  0  0  0  0
   -7.0224   -9.6857    7.5726 O   0  0  0  0  0  0  0  0  0  0  0  0
   -7.5479   -8.4840    7.3375 C   0  0  0  0  0  0  0  0  0  0  0  0
   -7.9788   -7.7065    8.1766 O   0  0  0  0  0  0  0  0  0  0  0  0
   -7.6166   -8.1854    5.9185 C   0  0  0  0  0  0  0  0  0  0  0  0
   -6.9887   -8.6479    4.8404 C   0  0  0  0  0  0  0  0  0  0  0  0
   -7.0340   -7.7842    3.6082 C   0  0  2  0  0  0  0  0  0  0  0  0
   -8.0143   -6.4167    3.6860 C   0  0  0  0  0  0  0  0  0  0  0  0
   -7.7021   -5.0938    4.7625 C   0  0  2  0  0  0  0  0  0  0  0  0
   -6.9212   -5.2825    6.1200 C   0  0  0  0  0  0  0  0  0  0  0  0
   -8.0254   -5.1781    7.1133 C   0  0  0  0  0  0  0  0  0  0  0  0
   -8.8711   -4.1868    6.5529 N   0  0  0  0  0  0  0  0  0  0  0  0
   -8.8213   -4.1688    5.1593 C   0  0  0  0  0  0  0  0  0  0  0  0
   -9.4047   -3.4496    4.4327 O   0  0  0  0  0  0  0  0  0  0  0  0
   -7.1148   -8.6435    2.4409 N   0  0  0  0  0  0  0  0  0  0  0  0
   -6.0888   -9.1878    1.6712 C   0  0  0  0  0  0  0  0  0  0  0  0
   -6.4133  -10.0934    0.8933 O   0  0  0  0  0  0  0  0  0  0  0  0
   -4.6007   -8.5670    1.5941 C   0  0  2  0  0  0  0  0  0  0  0  0
   -3.7696   -9.3374    0.5528 C   0  0  0  0  0  0  0  0  0  0  0  0
   -2.5906   -8.6391   -0.1599 C   0  0  0  0  0  0  0  0  0  0  0  0
   -1.5000   -8.1288    0.7662 C   0  0  0  0  0  0  0  0  0  0  0  0
   -1.9406   -9.6700   -1.0798 C   0  0  0  0  0  0  0  0  0  0  0  0
   -3.9034   -8.4073    2.8541 N   0  0  0  0  0  0  0  0  0  0  0  0
   -3.3600   -7.2857    3.4184 C   0  0  0  0  0  0  0  0  0  0  0  0
   -3.0486   -7.3978    4.6144 O   0  0  0  0  0  0  0  0  0  0  0  0
   -3.3957   -5.8183    2.7414 C   0  0  1  0  0  0  0  0  0  0  0  0
   -3.0527   -5.5550    1.3544 N   0  0  0  0  0  0  0  0  0  0  0  0
   -3.7497   -5.4001    0.1848 C   0  0  0  0  0  0  0  0  0  0  0  0
   -3.0121   -5.3549   -0.8133 O   0  0  0  0  0  0  0  0  0  0  0  0
   -5.3595   -5.2781   -0.0758 C   0  0  2  0  0  0  0  0  0  0  0  0
   -6.1359   -4.0307    0.3363 C   0  0  0  0  0  0  0  0  0  0  0  0
   -6.2091   -6.4896    0.1458 N   0  0  0  0  0  0  0  0  0  0  0  0
   -7.2016   -7.0492   -0.6198 C   0  0  0  0  0  0  0  0  0  0  0  0
   -7.9638   -7.8679   -0.1329 O   0  0  0  0  0  0  0  0  0  0  0  0
   -7.3174   -6.5366   -1.9471 C   0  0  0  0  0  0  0  0  0  0  0  0
   -8.5146   -6.2129   -2.4482 N   0  0  0  0  0  0  0  0  0  0  0  0
   -8.2369   -5.4986   -3.5954 O   0  0  0  0  0  0  0  0  0  0  0  0
   -6.8941   -5.4413   -3.7634 C   0  0  0  0  0  0  0  0  0  0  0  0
   -6.3869   -4.6666   -4.8850 C   0  0  0  0  0  0  0  0  0  0  0  0
   -6.2656   -6.1639   -2.8002 C   0  0  0  0  0  0  0  0  0  0  0  0
   -4.7229   -5.2342    2.8413 C   0  0  0  0  0  0  0  0  0  0  0  0
   -5.2013   -5.4989    4.1604 C   0  0  0  0  0  0  0  0  0  0  0  0
   -4.8797   -3.7228    2.7170 C   0  0  0  0  0  0  0  0  0  0  0  0
   -5.3377   -9.3290    9.5736 H   0  0  0  0  0  0  0  0  0  0  0  0
   -6.4821   -9.7237   10.8977 H   0  0  0  0  0  0  0  0  0  0  0  0
   -6.6438   -8.2371    9.9749 H   0  0  0  0  0  0  0  0  0  0  0  0
   -7.0411  -11.1303    8.9626 H   0  0  0  0  0  0  0  0  0  0  0  0
   -8.3285   -9.9411    9.1627 H   0  0  0  0  0  0  0  0  0  0  0  0
   -8.2358   -7.3289    5.7662 H   0  0  0  0  0  0  0  0  0  0  0  0
   -6.3398   -9.5180    4.9049 H   0  0  0  0  0  0  0  0  0  0  0  0
   -6.0288   -7.4719    3.4559 H   0  0  0  0  0  0  0  0  0  0  0  0
   -8.0014   -5.9942    2.6669 H   0  0  0  0  0  0  0  0  0  0  0  0
   -9.0478   -6.7411    3.8342 H   0  0  0  0  0  0  0  0  0  0  0  0
   -7.1799   -4.2834    4.2145 H   0  0  0  0  0  0  0  0  0  0  0  0
   -6.2917   -6.1705    6.2389 H   0  0  0  0  0  0  0  0  0  0  0  0
   -6.2177   -4.4496    6.3091 H   0  0  0  0  0  0  0  0  0  0  0  0
   -8.6637   -6.0456    7.1013 H   0  0  0  0  0  0  0  0  0  0  0  0
   -7.6551   -4.9795    8.1181 H   0  0  0  0  0  0  0  0  0  0  0  0
   -9.7723   -3.9760    6.9464 H   0  0  0  0  0  0  0  0  0  0  0  0
   -8.0061   -9.0941    2.2427 H   0  0  0  0  0  0  0  0  0  0  0  0
   -4.6682   -7.5769    1.2007 H   0  0  0  0  0  0  0  0  0  0  0  0
   -3.4070  -10.2542    1.0244 H   0  0  0  0  0  0  0  0  0  0  0  0
   -4.4429   -9.6281   -0.2638 H   0  0  0  0  0  0  0  0  0  0  0  0
   -2.9716   -7.8269   -0.7916 H   0  0  0  0  0  0  0  0  0  0  0  0
   -1.0848   -8.9283    1.3793 H   0  0  0  0  0  0  0  0  0  0  0  0
   -0.6981   -7.6306    0.2104 H   0  0  0  0  0  0  0  0  0  0  0  0
   -1.8689   -7.4122    1.4717 H   0  0  0  0  0  0  0  0  0  0  0  0
   -2.6609  -10.0547   -1.8068 H   0  0  0  0  0  0  0  0  0  0  0  0
   -1.0928   -9.2407   -1.6216 H   0  0  0  0  0  0  0  0  0  0  0  0
   -1.5747  -10.5095   -0.4789 H   0  0  0  0  0  0  0  0  0  0  0  0
   -3.8729   -9.2235    3.4570 H   0  0  0  0  0  0  0  0  0  0  0  0
   -2.7621   -5.1977    3.3905 H   0  0  0  0  0  0  0  0  0  0  0  0
   -2.0510   -5.4992    1.2229 H   0  0  0  0  0  0  0  0  0  0  0  0
   -5.3199   -5.0525   -1.1287 H   0  0  0  0  0  0  0  0  0  0  0  0
   -5.4326   -3.2283    0.5357 H   0  0  0  0  0  0  0  0  0  0  0  0
   -6.7869   -3.5509   -0.3985 H   0  0  0  0  0  0  0  0  0  0  0  0
   -6.8307   -4.2935    1.1427 H   0  0  0  0  0  0  0  0  0  0  0  0
   -6.4178   -6.7928    1.0867 H   0  0  0  0  0  0  0  0  0  0  0  0
   -6.6472   -5.1947   -5.8014 H   0  0  0  0  0  0  0  0  0  0  0  0
   -6.8201   -3.6648   -4.8823 H   0  0  0  0  0  0  0  0  0  0  0  0
   -5.2976   -4.5776   -4.8187 H   0  0  0  0  0  0  0  0  0  0  0  0
   -5.1964   -6.2583   -2.6487 H   0  0  0  0  0  0  0  0  0  0  0  0
   -5.3603   -5.7863    2.1590 H   0  0  0  0  0  0  0  0  0  0  0  0
   -4.9657   -4.7001    4.8395 H   0  0  0  0  0  0  0  0  0  0  0  0
   -6.1611   -5.4868    3.7285 H   0  0  0  0  0  0  0  0  0  0  0  0
   -5.1383   -6.4568    4.6464 H   0  0  0  0  0  0  0  0  0  0  0  0
   -4.2417   -3.3534    1.9253 H   0  0  0  0  0  0  0  0  0  0  0  0
   -5.9430   -3.4679    2.5890 H   0  0  0  0  0  0  0  0  0  0  0  0
   -4.6254   -3.1521    3.6036 H   0  0  0  0  0  0  0  0  0  0  0  0
  1  2  1  0  0  0  0
  1 45  1  0  0  0  0
  1 46  1  0  0  0  0
  1 47  1  0  0  0  0
  2  3  1  0  0  0  0
  2 48  1  0  0  0  0
  2 49  1  0  0  0  0
  3  4  1  0  0  0  0
  4  5  2  0  0  0  0
  4  6  1  0  0  0  0
  6  7  2  0  0  0  0
  6 50  1  0  0  0  0
  7 51  1  0  0  0  0
  8 16  1  0  0  0  0
  8 52  1  6  0  0  0
  8  9  1  0  0  0  0
  8  7  1  0  0  0  0
  9 53  1  0  0  0  0
  9 54  1  0  0  0  0
 10 11  1  0  0  0  0
 10 14  1  0  0  0  0
 10 55  1  6  0  0  0
 10  9  1  0  0  0  0
 11 12  1  0  0  0  0
 11 56  1  0  0  0  0
 11 57  1  0  0  0  0
 12 13  1  0  0  0  0
 12 58  1  0  0  0  0
 12 59  1  0  0  0  0
 13 14  1  0  0  0  0
 13 60  1  0  0  0  0
 14 15  2  0  0  0  0
 16 17  1  0  0  0  0
 16 61  1  0  0  0  0
 17 18  2  0  0  0  0
 19 24  1  0  0  0  0
 19 62  1  6  0  0  0
 19 20  1  0  0  0  0
 19 17  1  0  0  0  0
 20 21  1  0  0  0  0
 20 63  1  0  0  0  0
 20 64  1  0  0  0  0
 21 22  1  0  0  0  0
 21 23  1  0  0  0  0
 21 65  1  0  0  0  0
 22 66  1  0  0  0  0
 22 67  1  0  0  0  0
 22 68  1  0  0  0  0
 23 69  1  0  0  0  0
 23 70  1  0  0  0  0
 23 71  1  0  0  0  0
 24 25  1  0  0  0  0
 24 72  1  0  0  0  0
 25 26  2  0  0  0  0
 25 27  1  0  0  0  0
 27 28  1  0  0  0  0
 27 42  1  0  0  0  0
 27 73  1  1  0  0  0
 28 29  1  0  0  0  0
 28 74  1  0  0  0  0
 29 30  2  0  0  0  0
 31 33  1  0  0  0  0
 31 75  1  6  0  0  0
 31 32  1  0  0  0  0
 31 29  1  0  0  0  0
 32 76  1  0  0  0  0
 32 77  1  0  0  0  0
 32 78  1  0  0  0  0
 33 34  1  0  0  0  0
 33 79  1  0  0  0  0
 34 35  2  0  0  0  0
 34 36  1  0  0  0  0
 36 37  2  0  0  0  0
 36 41  1  0  0  0  0
 37 38  1  0  0  0  0
 38 39  1  0  0  0  0
 39 40  1  0  0  0  0
 39 41  2  0  0  0  0
 40 80  1  0  0  0  0
 40 81  1  0  0  0  0
 40 82  1  0  0  0  0
 41 83  1  0  0  0  0
 42 43  1  0  0  0  0
 42 44  1  0  0  0  0
 42 84  1  0  0  0  0
 43 85  1  0  0  0  0
 43 86  1  0  0  0  0
 43 87  1  0  0  0  0
 44 88  1  0  0  0  0
 44 89  1  0  0  0  0
 44 90  1  0  0  0  0
M  END
>  <DRUGBANK_ID>
DB04710

>  <COMMON_NAME>
(E)-(S)-4-[(S)-4-METHYL-2-((S)-3-METHYL-2{(S)-2-[(5-METHYL-ISOXAZOLE-3- CARBONYL)-AMINO]-PROPIONYLAMINO}-BUTYRYLAMINO)-PENTANOYLAMINO]-5-((S)-2- OXO-PYRROLIDIN-3-YL)-PENT-2-ENOIC ACID ETHYL ESTER

$$$$
