
 OpenBabel10282417213D

 92 93  0  0  1  0  0  0  0  0999 V2000
    1.0222    0.0213    0.0277 C   0  0  0  0  0  0  0  0  0  0  0  0
    0.9621    1.6597   -1.8630 C   0  0  0  0  0  0  0  0  0  0  0  0
   -3.1748    3.6343    1.5263 C   0  0  0  0  0  0  0  0  0  0  0  0
    1.1039    7.3523    1.6245 C   0  0  0  0  0  0  0  0  0  0  0  0
   -0.3974   12.4347   -0.6046 C   0  0  0  0  0  0  0  0  0  0  0  0
   -0.1302    9.9738    0.0141 C   0  0  0  0  0  0  0  0  0  0  0  0
   -2.3916   10.9995   -5.2390 C   0  0  0  0  0  0  0  0  0  0  0  0
   -3.1620    6.9236   -1.9512 C   0  0  0  0  0  0  0  0  0  0  0  0
   -1.6264    1.0936    0.9927 C   0  0  0  0  0  0  0  0  0  0  0  0
    0.4555    4.6356    2.5135 C   0  0  0  0  0  0  0  0  0  0  0  0
    0.4789    5.5406   -1.8064 C   0  0  0  0  0  0  0  0  0  0  0  0
   -1.0747    1.3460   -0.4185 C   0  0  0  0  0  0  0  0  0  0  0  0
   -1.1754    2.1623    1.9817 C   0  0  0  0  0  0  0  0  0  0  0  0
   -1.0803    4.6204    2.5284 C   0  0  0  0  0  0  0  0  0  0  0  0
    1.0144    4.9465    1.1282 C   0  0  0  0  0  0  0  0  0  0  0  0
    1.1206    6.5205   -0.8061 C   0  0  0  0  0  0  0  0  0  0  0  0
    0.6763   15.0766   -1.6609 C   0  0  0  0  0  0  0  0  0  0  0  0
   -0.8050   14.8223   -1.8793 C   0  0  0  0  0  0  0  0  0  0  0  0
   -1.9973    8.2873   -4.3293 C   0  0  0  0  0  0  0  0  0  0  0  0
   -1.0624    5.5466   -1.8371 C   0  0  0  0  0  0  0  0  0  0  0  0
   -1.3873    7.0065   -3.8109 C   0  0  0  0  0  0  0  0  0  0  0  0
    0.4633    1.3527   -0.4592 C   0  0  0  0  0  0  0  0  0  0  0  0
   -1.6546    3.5635    1.5813 C   0  0  2  0  0  0  0  0  0  0  0  0
    0.5879    6.3265    0.6226 C   0  0  2  0  0  0  0  0  0  0  0  0
   -0.8705   11.5282   -1.7068 C   0  0  0  0  0  0  0  0  0  0  0  0
   -0.7256   10.2123   -1.3293 C   0  0  0  0  0  0  0  0  0  0  0  0
   -1.7735   10.7830   -3.8826 C   0  0  0  0  0  0  0  0  0  0  0  0
   -1.6064    9.4483   -3.4530 C   0  0  0  0  0  0  0  0  0  0  0  0
    0.8073   16.5350   -1.8197 C   0  0  0  0  0  0  0  0  0  0  0  0
   -1.4642   14.6205   -3.2027 C   0  0  0  0  0  0  0  0  0  0  0  0
   -1.3983   11.8288   -3.0003 C   0  0  0  0  0  0  0  0  0  0  0  0
   -1.1373    9.1892   -2.1645 C   0  0  0  0  0  0  0  0  0  0  0  0
   -1.6768    6.8735   -2.3207 C   0  0  1  0  0  0  0  0  0  0  0  0
    1.0033   17.3309   -0.9482 O   0  0  0  0  0  0  0  0  0  0  0  0
    0.4692   16.8467   -3.0882 O   0  0  0  0  0  0  0  0  0  0  0  0
   -1.9133   15.5261   -3.8893 O   0  0  0  0  0  0  0  0  0  0  0  0
   -1.6255   13.2058   -3.5332 O   0  0  0  0  0  0  0  0  0  0  0  0
   -1.0827    7.9472   -1.6090 O   0  0  0  0  0  0  0  0  0  0  0  0
   -1.3073    3.7909    0.5737 H   0  0  0  0  0  0  0  0  0  0  0  0
   -0.5044    6.4124    0.5979 H   0  0  0  0  0  0  0  0  0  0  0  0
    0.6554   -0.7936   -0.6027 H   0  0  0  0  0  0  0  0  0  0  0  0
    0.7288   -0.1872    1.0607 H   0  0  0  0  0  0  0  0  0  0  0  0
    2.1143    0.0272    0.0091 H   0  0  0  0  0  0  0  0  0  0  0  0
    0.6304    0.8987   -2.5722 H   0  0  0  0  0  0  0  0  0  0  0  0
    0.5797    2.6198   -2.2131 H   0  0  0  0  0  0  0  0  0  0  0  0
    2.0559    1.7073   -1.8760 H   0  0  0  0  0  0  0  0  0  0  0  0
   -3.5981    3.4093    2.5076 H   0  0  0  0  0  0  0  0  0  0  0  0
   -3.5087    4.6233    1.2023 H   0  0  0  0  0  0  0  0  0  0  0  0
   -3.5802    2.9206    0.8024 H   0  0  0  0  0  0  0  0  0  0  0  0
    2.1906    7.3476    1.6535 H   0  0  0  0  0  0  0  0  0  0  0  0
    0.8167    8.3665    1.4403 H   0  0  0  0  0  0  0  0  0  0  0  0
    0.6811    7.1914    2.6171 H   0  0  0  0  0  0  0  0  0  0  0  0
    0.5183   12.8443   -1.0303 H   0  0  0  0  0  0  0  0  0  0  0  0
   -1.2674   13.0186   -0.2854 H   0  0  0  0  0  0  0  0  0  0  0  0
    0.0113   12.1612    0.3659 H   0  0  0  0  0  0  0  0  0  0  0  0
    0.9061   10.3529    0.0608 H   0  0  0  0  0  0  0  0  0  0  0  0
   -0.7343   10.4268    0.8121 H   0  0  0  0  0  0  0  0  0  0  0  0
   -0.1553    8.9269    0.1723 H   0  0  0  0  0  0  0  0  0  0  0  0
   -1.7721   10.5325   -6.0141 H   0  0  0  0  0  0  0  0  0  0  0  0
   -3.3849   10.5316   -5.2666 H   0  0  0  0  0  0  0  0  0  0  0  0
   -2.5120   12.0493   -5.5014 H   0  0  0  0  0  0  0  0  0  0  0  0
   -3.7265    6.1461   -2.4641 H   0  0  0  0  0  0  0  0  0  0  0  0
   -3.2889    6.8259   -0.8657 H   0  0  0  0  0  0  0  0  0  0  0  0
   -3.6019    7.8992   -2.1885 H   0  0  0  0  0  0  0  0  0  0  0  0
   -2.7167    1.0355    0.9629 H   0  0  0  0  0  0  0  0  0  0  0  0
   -1.3070    0.1158    1.3630 H   0  0  0  0  0  0  0  0  0  0  0  0
    0.8207    5.3509    3.2520 H   0  0  0  0  0  0  0  0  0  0  0  0
    0.8704    3.6837    2.8496 H   0  0  0  0  0  0  0  0  0  0  0  0
    0.8807    5.7187   -2.8080 H   0  0  0  0  0  0  0  0  0  0  0  0
    0.8145    4.5343   -1.5576 H   0  0  0  0  0  0  0  0  0  0  0  0
   -1.4586    2.2937   -0.8178 H   0  0  0  0  0  0  0  0  0  0  0  0
   -1.4639    0.5761   -1.0927 H   0  0  0  0  0  0  0  0  0  0  0  0
   -1.5232    1.9279    2.9927 H   0  0  0  0  0  0  0  0  0  0  0  0
   -0.0841    2.1225    2.0434 H   0  0  0  0  0  0  0  0  0  0  0  0
   -1.4782    5.6042    2.2494 H   0  0  0  0  0  0  0  0  0  0  0  0
   -1.4292    4.4393    3.5485 H   0  0  0  0  0  0  0  0  0  0  0  0
    2.1087    4.8889    1.1360 H   0  0  0  0  0  0  0  0  0  0  0  0
    0.6957    4.1729    0.4332 H   0  0  0  0  0  0  0  0  0  0  0  0
    0.9779    7.5467   -1.1384 H   0  0  0  0  0  0  0  0  0  0  0  0
    2.2069    6.3996   -0.8251 H   0  0  0  0  0  0  0  0  0  0  0  0
    1.0014   14.8072   -0.6391 H   0  0  0  0  0  0  0  0  0  0  0  0
    1.3306   14.5227   -2.3447 H   0  0  0  0  0  0  0  0  0  0  0  0
   -1.4545   15.0959   -1.0403 H   0  0  0  0  0  0  0  0  0  0  0  0
   -0.7862   13.8020   -1.8027 H   0  0  0  0  0  0  0  0  0  0  0  0
   -1.6519    8.4280   -5.3553 H   0  0  0  0  0  0  0  0  0  0  0  0
   -3.0881    8.2021   -4.3379 H   0  0  0  0  0  0  0  0  0  0  0  0
   -1.4142    4.7258   -2.4766 H   0  0  0  0  0  0  0  0  0  0  0  0
   -1.4561    5.3085   -0.8471 H   0  0  0  0  0  0  0  0  0  0  0  0
   -0.3025    7.0562   -3.9846 H   0  0  0  0  0  0  0  0  0  0  0  0
   -1.7695    6.1434   -4.3624 H   0  0  0  0  0  0  0  0  0  0  0  0
    0.8605    2.1344    0.1922 H   0  0  0  0  0  0  0  0  0  0  0  0
    0.1108   17.7522   -3.0743 H   0  0  0  0  0  0  0  0  0  0  0  0
  1 41  1  0  0  0  0
  1 42  1  0  0  0  0
  1 43  1  0  0  0  0
  2 44  1  0  0  0  0
  2 45  1  0  0  0  0
  2 46  1  0  0  0  0
  3 47  1  0  0  0  0
  3 48  1  0  0  0  0
  3 49  1  0  0  0  0
  4 50  1  0  0  0  0
  4 51  1  0  0  0  0
  4 52  1  0  0  0  0
  5 53  1  0  0  0  0
  5 54  1  0  0  0  0
  5 55  1  0  0  0  0
  6 56  1  0  0  0  0
  6 57  1  0  0  0  0
  6 58  1  0  0  0  0
  7 59  1  0  0  0  0
  7 60  1  0  0  0  0
  7 61  1  0  0  0  0
  8 62  1  0  0  0  0
  8 63  1  0  0  0  0
  8 64  1  0  0  0  0
  9 65  1  0  0  0  0
  9 66  1  0  0  0  0
 10 67  1  0  0  0  0
 10 68  1  0  0  0  0
 11 69  1  0  0  0  0
 11 70  1  0  0  0  0
 12  9  1  0  0  0  0
 12 71  1  0  0  0  0
 12 72  1  0  0  0  0
 13  9  1  0  0  0  0
 13 73  1  0  0  0  0
 13 74  1  0  0  0  0
 14 10  1  0  0  0  0
 14 75  1  0  0  0  0
 14 76  1  0  0  0  0
 15 10  1  0  0  0  0
 15 77  1  0  0  0  0
 15 78  1  0  0  0  0
 16 11  1  0  0  0  0
 16 79  1  0  0  0  0
 16 80  1  0  0  0  0
 17 81  1  0  0  0  0
 17 82  1  0  0  0  0
 18 17  1  0  0  0  0
 18 83  1  0  0  0  0
 18 84  1  0  0  0  0
 19 85  1  0  0  0  0
 19 86  1  0  0  0  0
 20 11  1  0  0  0  0
 20 87  1  0  0  0  0
 20 88  1  0  0  0  0
 21 19  1  0  0  0  0
 21 89  1  0  0  0  0
 21 90  1  0  0  0  0
 22  1  1  0  0  0  0
 22  2  1  0  0  0  0
 22 12  1  0  0  0  0
 22 91  1  0  0  0  0
 23  3  1  0  0  0  0
 23 13  1  0  0  0  0
 23 14  1  0  0  0  0
 23 39  1  6  0  0  0
 24  4  1  0  0  0  0
 24 15  1  0  0  0  0
 24 16  1  0  0  0  0
 24 40  1  6  0  0  0
 25  5  1  0  0  0  0
 26  6  1  0  0  0  0
 26 25  1  0  0  0  0
 27  7  1  0  0  0  0
 28 19  1  0  0  0  0
 28 27  2  0  0  0  0
 29 17  1  0  0  0  0
 30 18  1  0  0  0  0
 31 25  2  0  0  0  0
 31 27  1  0  0  0  0
 32 26  2  0  0  0  0
 32 28  1  0  0  0  0
 33  8  1  1  0  0  0
 33 20  1  0  0  0  0
 33 21  1  0  0  0  0
 34 29  2  0  0  0  0
 35 29  1  0  0  0  0
 35 92  1  0  0  0  0
 36 30  2  0  0  0  0
 37 30  1  0  0  0  0
 37 31  1  0  0  0  0
 38 32  1  0  0  0  0
 38 33  1  0  0  0  0
M  END
>  <DRUGBANK_ID>
DB14001

>  <SECONDARY_ACCESSION_NUMBERS>
DBSALT001494

>  <COMMON_NAME>
alpha-Tocopherol succinate

>  <CAS_NUMBER>
4345-03-3

>  <UNII>
LU4B53JYVE

>  <SYNONYMS>
(+)-alpha-Tocopheryl succinate; alpha-Tocopheryl acid succinate; alpha-Tocopheryl succinate; alpha-Vitamin E succinate; d-alpha-Tocopherol acid succinate; Tocopheryl acid succinate,D-alpha; Vitamin E hemisuccinate; Vitamin E succinate

$$$$
