
 OpenBabel10282417203D

 21 22  0  0  0  0  0  0  0  0999 V2000
    1.3312    0.6573    0.0017 C   0  0  0  0  0  0  0  0  0  0  0  0
    1.3326   -0.7666    0.0072 C   0  0  0  0  0  0  0  0  0  0  0  0
    0.0488    1.1554   -0.0039 C   0  0  0  0  0  0  0  0  0  0  0  0
   -1.6513   -6.7362    0.5613 C   0  0  0  0  0  0  0  0  0  0  0  0
    0.0613   -1.3337    0.0060 C   0  0  0  0  0  0  0  0  0  0  0  0
   -2.6599   -6.8151   -0.3670 C   0  0  0  0  0  0  0  0  0  0  0  0
   -0.2114   -2.7829    0.0145 C   0  0  0  0  0  0  0  0  0  0  0  0
   -1.7788   -4.5956    0.0101 C   0  0  0  0  0  0  0  0  0  0  0  0
   -1.1333   -5.4679    0.7494 N   0  0  0  0  0  0  0  0  0  0  0  0
   -1.5284   -3.2348   -0.0642 N   0  0  0  0  0  0  0  0  0  0  0  0
   -3.3113   -8.0220   -0.7905 N   0  0  0  0  0  0  0  0  0  0  0  0
    0.7449   -3.5659    0.0125 O   0  0  0  0  0  0  0  0  0  0  0  0
   -4.1743   -7.9490   -1.6728 O   0  0  0  0  0  0  0  0  0  0  0  0
   -2.9471   -9.0676   -0.2317 O   0  0  0  0  0  0  0  0  0  0  0  0
   -1.1288   -0.1033   -0.0024 S   0  0  0  0  0  0  0  0  0  0  0  0
   -3.0658   -5.2487   -0.9324 S   0  0  0  0  0  0  0  0  0  0  0  0
    2.2230    1.2772    0.0022 H   0  0  0  0  0  0  0  0  0  0  0  0
    2.2384   -1.3643    0.0118 H   0  0  0  0  0  0  0  0  0  0  0  0
   -0.2400    2.2004   -0.0086 H   0  0  0  0  0  0  0  0  0  0  0  0
   -1.2398   -7.5683    1.1220 H   0  0  0  0  0  0  0  0  0  0  0  0
   -2.2798   -2.5996   -0.2881 H   0  0  0  0  0  0  0  0  0  0  0  0
  1 17  1  0  0  0  0
  2  1  1  0  0  0  0
  2 18  1  0  0  0  0
  3  1  2  0  0  0  0
  3 19  1  0  0  0  0
  4 20  1  0  0  0  0
  5  2  2  0  0  0  0
  6  4  2  0  0  0  0
  7  5  1  0  0  0  0
  9  4  1  0  0  0  0
  9  8  2  0  0  0  0
 10  7  1  0  0  0  0
 10  8  1  0  0  0  0
 10 21  1  0  0  0  0
 11  6  1  0  0  0  0
 12  7  2  0  0  0  0
 13 11  2  0  0  0  0
 14 11  2  0  0  0  0
 15  3  1  0  0  0  0
 15  5  1  0  0  0  0
 16  6  1  0  0  0  0
 16  8  1  0  0  0  0
M  END
>  <DRUGBANK_ID>
DB13659

>  <COMMON_NAME>
Tenonitrozole

>  <CAS_NUMBER>
3810-35-3

>  <UNII>
PBQ7WLE1WP

>  <SYNONYMS>
Tenonitrozole

$$$$
