
 OpenBabel10282417113D

 56 59  0  0  0  0  0  0  0  0999 V2000
   -3.2721    0.3243   -1.6217 C   0  0  0  0  0  0  0  0  0  0  0  0
   -2.0757   -0.8539   -1.2442 C   0  0  0  0  0  0  0  0  0  0  0  0
   -2.2810   -1.9508   -0.0676 C   0  0  0  0  0  0  0  0  0  0  0  0
   -1.6181   -3.1324    0.4821 C   0  0  0  0  0  0  0  0  0  0  0  0
   -2.6875   -2.3790    2.4597 C   0  0  0  0  0  0  0  0  0  0  0  0
   -3.7624   -1.5385    1.8727 C   0  0  0  0  0  0  0  0  0  0  0  0
   -7.3817   -0.0035   -0.1810 C   0  0  0  0  0  0  0  0  0  0  0  0
   -7.1568    3.0678   -1.2252 C   0  0  0  0  0  0  0  0  0  0  0  0
   -5.8639    2.1590   -1.0082 C   0  0  0  0  0  0  0  0  0  0  0  0
   -4.8892   -0.6611   -0.1388 C   0  0  2  0  0  0  0  0  0  0  0  0
   -4.8196    0.2110    0.5505 H   0  0  0  0  0  0  0  0  0  0  0  0
   -5.8639    0.8392   -1.8923 C   0  0  1  0  0  0  0  0  0  0  0  0
   -5.6826    0.9470   -2.9675 H   0  0  0  0  0  0  0  0  0  0  0  0
   -4.7501   -0.1334   -1.5138 C   0  0  2  0  0  0  0  0  0  0  0  0
   -4.9202   -0.8943   -2.2698 H   0  0  0  0  0  0  0  0  0  0  0  0
   -7.3675    0.5977   -1.8601 C   0  0  1  0  0  0  0  0  0  0  0  0
   -7.5468    2.3681   -2.5196 C   0  0  1  0  0  0  0  0  0  0  0  0
   -2.7619   -3.5019    1.4588 C   0  0  0  0  0  0  0  0  0  0  0  0
   -3.5901   -4.3233    1.2669 O   0  0  0  0  0  0  0  0  0  0  0  0
   -6.3587   -1.2192    0.0236 C   0  0  1  0  0  0  0  0  0  0  0  0
   -7.0984   -2.3674    0.4933 O   0  0  0  0  0  0  0  0  0  0  0  0
   -8.0165    3.6053   -3.6589 C   0  0  0  0  0  0  0  0  0  0  0  0
   -7.3537    4.6796   -3.7282 O   0  0  0  0  0  0  0  0  0  0  0  0
   -9.2314    3.5991   -4.5650 C   0  0  0  0  0  0  0  0  0  0  0  0
  -10.0347    4.7838   -4.4564 O   0  0  0  0  0  0  0  0  0  0  0  0
   -6.1472    2.8197   -3.2949 O   0  0  0  0  0  0  0  0  0  0  0  0
   -8.1204   -0.7355   -2.3779 C   0  0  0  0  0  0  0  0  0  0  0  0
   -3.7812   -1.6954    0.2540 C   0  0  2  0  0  0  0  0  0  0  0  0
   -4.1225   -2.8297   -0.7992 C   0  0  0  0  0  0  0  0  0  0  0  0
   -3.2181    0.7151   -2.6496 H   0  0  0  0  0  0  0  0  0  0  0  0
   -3.0359    1.2265   -1.0317 H   0  0  0  0  0  0  0  0  0  0  0  0
   -1.9675   -1.3979   -2.1881 H   0  0  0  0  0  0  0  0  0  0  0  0
   -1.1888   -0.2622   -1.0021 H   0  0  0  0  0  0  0  0  0  0  0  0
   -1.3913   -4.0941    1.1433 H   0  0  0  0  0  0  0  0  0  0  0  0
   -2.6021   -2.7131    3.4772 H   0  0  0  0  0  0  0  0  0  0  0  0
   -1.7631   -1.7897    2.3049 H   0  0  0  0  0  0  0  0  0  0  0  0
   -4.6974   -1.8040    2.3596 H   0  0  0  0  0  0  0  0  0  0  0  0
   -3.5425   -0.4869    2.1668 H   0  0  0  0  0  0  0  0  0  0  0  0
   -8.3892   -0.3640    0.0678 H   0  0  0  0  0  0  0  0  0  0  0  0
   -7.1378    0.6990    0.6153 H   0  0  0  0  0  0  0  0  0  0  0  0
   -8.2568    3.2162   -1.1551 H   0  0  0  0  0  0  0  0  0  0  0  0
   -7.4618    2.8759   -0.1822 H   0  0  0  0  0  0  0  0  0  0  0  0
   -5.7972    1.9985    0.0711 H   0  0  0  0  0  0  0  0  0  0  0  0
   -4.9135    2.6439   -1.2242 H   0  0  0  0  0  0  0  0  0  0  0  0
   -5.8866   -1.4096    0.9576 H   0  0  0  0  0  0  0  0  0  0  0  0
   -6.9652   -2.4786    1.4704 H   0  0  0  0  0  0  0  0  0  0  0  0
   -8.9086    3.5928   -5.6211 H   0  0  0  0  0  0  0  0  0  0  0  0
   -9.8255    2.7363   -4.3262 H   0  0  0  0  0  0  0  0  0  0  0  0
  -10.0873    5.0501   -3.5233 H   0  0  0  0  0  0  0  0  0  0  0  0
   -6.0603    3.8093   -3.1467 H   0  0  0  0  0  0  0  0  0  0  0  0
   -7.6903   -1.6553   -1.9157 H   0  0  0  0  0  0  0  0  0  0  0  0
   -9.1494   -0.8072   -1.9583 H   0  0  0  0  0  0  0  0  0  0  0  0
   -8.1540   -1.0120   -3.4294 H   0  0  0  0  0  0  0  0  0  0  0  0
   -4.3092   -2.4421   -1.8031 H   0  0  0  0  0  0  0  0  0  0  0  0
   -3.2987   -3.4868   -1.1325 H   0  0  0  0  0  0  0  0  0  0  0  0
   -4.9666   -3.4131   -0.4940 H   0  0  0  0  0  0  0  0  0  0  0  0
  1  2  1  0  0  0  0
  1 30  1  0  0  0  0
  1 31  1  0  0  0  0
  2  3  1  0  0  0  0
  2 32  1  0  0  0  0
  2 33  1  0  0  0  0
  3  4  2  0  0  0  0
  3 28  1  0  0  0  0
  4 18  1  0  0  0  0
  4 34  1  0  0  0  0
  5  6  1  0  0  0  0
  5 35  1  0  0  0  0
  5 36  1  0  0  0  0
  6 28  1  0  0  0  0
  6 37  1  0  0  0  0
  6 38  1  0  0  0  0
  7 16  1  0  0  0  0
  7 39  1  0  0  0  0
  7 40  1  0  0  0  0
  8  9  1  0  0  0  0
  8 41  1  0  0  0  0
  8 42  1  0  0  0  0
  9 12  1  0  0  0  0
  9 43  1  0  0  0  0
  9 44  1  0  0  0  0
 10 20  1  0  0  0  0
 10 11  1  6  0  0  0
 12 13  1  6  0  0  0
 14  1  1  0  0  0  0
 14 10  1  0  0  0  0
 14 12  1  0  0  0  0
 14 15  1  1  0  0  0
 16 17  1  0  0  0  0
 16 12  1  0  0  0  0
 16 27  1  1  0  0  0
 17  8  1  0  0  0  0
 17 22  1  6  0  0  0
 17 26  1  0  0  0  0
 18  5  1  0  0  0  0
 18 19  2  0  0  0  0
 20  7  1  0  0  0  0
 20 21  1  0  0  0  0
 20 45  1  6  0  0  0
 21 46  1  0  0  0  0
 22 24  1  0  0  0  0
 22 23  2  0  0  0  0
 24 25  1  0  0  0  0
 24 47  1  0  0  0  0
 24 48  1  0  0  0  0
 25 49  1  0  0  0  0
 26 50  1  0  0  0  0
 27 51  1  0  0  0  0
 27 52  1  0  0  0  0
 27 53  1  0  0  0  0
 28 10  1  0  0  0  0
 28 29  1  1  0  0  0
 29 54  1  0  0  0  0
 29 55  1  0  0  0  0
 29 56  1  0  0  0  0
M  END
>  <DRUGBANK_ID>
DB00741

>  <SECONDARY_ACCESSION_NUMBERS>
APRD01019; DB07886

>  <COMMON_NAME>
Hydrocortisone

>  <CAS_NUMBER>
50-23-7

>  <UNII>
WI4X0X7BPJ

>  <SYNONYMS>
(11β)-11,17,21-trihydroxypregn-4-ene-3,20-dione; 11beta-hydrocortisone; 11beta,17alpha,21-Trihydroxy-4-pregnene-3,20-dione; 11β-hydrocortisone; 17-Hydroxycorticosterone; 4-pregnen-11β,17α,21-triol-3,20-dione; Cortisol; Hidrocortisona; Hydrocortisone; Hydrocortisonum; Kendall's compound F; Reichstein's substance M

$$$$
