
 OpenBabel10282417123D

 20 20  0  0  1  0  0  0  0  0999 V2000
    3.3566   -0.5051    1.9901 O   0  0  0  0  0  0  0  0  0  0  0  0
    2.3274   -0.0349    2.8569 C   0  0  0  0  0  0  0  0  0  0  0  0
    0.9588   -0.5836    2.4171 C   0  0  1  0  0  0  0  0  0  0  0  0
    1.1216   -1.9762    2.0535 O   0  0  0  0  0  0  0  0  0  0  0  0
    0.5892   -2.7874    3.1064 C   0  0  2  0  0  0  0  0  0  0  0  0
   -0.5033   -3.5371    2.6033 O   0  0  0  0  0  0  0  0  0  0  0  0
    0.1708   -1.8624    4.2614 C   0  0  1  0  0  0  0  0  0  0  0  0
    1.2387   -1.7220    5.1997 O   0  0  0  0  0  0  0  0  0  0  0  0
   -0.0939   -0.5533    3.5284 C   0  0  2  0  0  0  0  0  0  0  0  0
   -1.4057   -0.5882    2.9512 O   0  0  0  0  0  0  0  0  0  0  0  0
    3.1937   -1.4659    1.8952 H   0  0  0  0  0  0  0  0  0  0  0  0
    2.6074   -0.3379    3.8671 H   0  0  0  0  0  0  0  0  0  0  0  0
    2.3285    1.0592    2.8349 H   0  0  0  0  0  0  0  0  0  0  0  0
    0.6254   -0.0501    1.5199 H   0  0  0  0  0  0  0  0  0  0  0  0
    1.3728   -3.4883    3.4081 H   0  0  0  0  0  0  0  0  0  0  0  0
   -1.1823   -2.8846    2.3496 H   0  0  0  0  0  0  0  0  0  0  0  0
   -0.7075   -2.2455    4.7908 H   0  0  0  0  0  0  0  0  0  0  0  0
    1.0811   -0.9311    5.7476 H   0  0  0  0  0  0  0  0  0  0  0  0
   -0.0148    0.3398    4.1565 H   0  0  0  0  0  0  0  0  0  0  0  0
   -2.0606   -0.5323    3.6722 H   0  0  0  0  0  0  0  0  0  0  0  0
  1  2  1  0  0  0  0
  1 11  1  0  0  0  0
  2 12  1  0  0  0  0
  2 13  1  0  0  0  0
  3  4  1  0  0  0  0
  3  9  1  0  0  0  0
  3 14  1  6  0  0  0
  3  2  1  0  0  0  0
  4  5  1  0  0  0  0
  5  6  1  0  0  0  0
  5  7  1  0  0  0  0
  5 15  1  1  0  0  0
  6 16  1  0  0  0  0
  7  9  1  0  0  0  0
  7 17  1  1  0  0  0
  7  8  1  0  0  0  0
  8 18  1  0  0  0  0
  9 19  1  1  0  0  0
  9 10  1  0  0  0  0
 10 20  1  0  0  0  0
M  END
>  <DRUGBANK_ID>
DB01936

>  <SECONDARY_ACCESSION_NUMBERS>
EXPT02783

>  <COMMON_NAME>
alpha-D-arabinofuranose

>  <CAS_NUMBER>
37388-49-1

>  <UNII>
KE8VI99C5I

$$$$
