6DE
 OpenBabel10282417133D

 34 35  0  0  0  0  0  0  0  0999 V2000
    1.2893   -0.0305   -0.2734 O   0  0  0  0  0  0  0  0  0  0  0  0
    2.5059   -0.0124   -0.1710 C   0  0  0  0  0  0  0  0  0  0  0  0
    3.0375   -0.6169    0.9585 O   0  0  0  0  0  0  0  0  0  0  0  0
    4.4350   -0.7342    1.2745 C   0  0  0  0  0  0  0  0  0  0  0  0
    5.0258   -1.6251    0.2433 C   0  0  0  0  0  0  0  0  0  0  0  0
    3.3396    0.7822   -1.1430 C   0  0  0  0  0  0  0  0  0  0  0  0
    2.9296    2.0824   -1.4729 C   0  0  0  0  0  0  0  0  0  0  0  0
    1.6815    2.8370   -1.1166 C   0  0  0  0  0  0  0  0  0  0  0  0
    4.4719    0.5553   -2.0738 C   0  0  0  0  0  0  0  0  0  0  0  0
    5.3808   -0.6377   -2.4299 C   0  0  0  0  0  0  0  0  0  0  0  0
    4.7430    1.6758   -2.7685 N   0  0  0  0  0  0  0  0  0  0  0  0
    3.8809    2.6148   -2.3191 N   0  0  0  0  0  0  0  0  0  0  0  0
    3.9227    3.9482   -2.8094 C   0  0  0  0  0  0  0  0  0  0  0  0
    3.9087    5.0512   -1.9388 C   0  0  0  0  0  0  0  0  0  0  0  0
    4.1407    4.9317   -0.2245 Cl  0  0  0  0  0  0  0  0  0  0  0  0
    3.8351    6.3499   -2.4550 C   0  0  0  0  0  0  0  0  0  0  0  0
    3.8138    6.5618   -3.8315 C   0  0  0  0  0  0  0  0  0  0  0  0
    3.8557    5.4720   -4.7008 C   0  0  0  0  0  0  0  0  0  0  0  0
    3.9166    4.1650   -4.1979 C   0  0  0  0  0  0  0  0  0  0  0  0
    4.8721    0.2671    1.2878 H   0  0  0  0  0  0  0  0  0  0  0  0
    4.5685   -1.2170    2.2450 H   0  0  0  0  0  0  0  0  0  0  0  0
    4.5242   -1.2438   -0.6046 H   0  0  0  0  0  0  0  0  0  0  0  0
    6.1045   -1.5273    0.1291 H   0  0  0  0  0  0  0  0  0  0  0  0
    4.6778   -2.6567    0.1874 H   0  0  0  0  0  0  0  0  0  0  0  0
    1.8829    3.7453   -0.5534 H   0  0  0  0  0  0  0  0  0  0  0  0
    1.1390    3.1246   -2.0246 H   0  0  0  0  0  0  0  0  0  0  0  0
    0.9955    2.2680   -0.4903 H   0  0  0  0  0  0  0  0  0  0  0  0
    5.6254   -0.7300   -3.4908 H   0  0  0  0  0  0  0  0  0  0  0  0
    6.3404   -0.5491   -1.8921 H   0  0  0  0  0  0  0  0  0  0  0  0
    4.9601   -1.6314   -2.2294 H   0  0  0  0  0  0  0  0  0  0  0  0
    3.8225    7.2054   -1.7832 H   0  0  0  0  0  0  0  0  0  0  0  0
    3.7875    7.5774   -4.2209 H   0  0  0  0  0  0  0  0  0  0  0  0
    3.8351    5.6464   -5.7749 H   0  0  0  0  0  0  0  0  0  0  0  0
    3.9144    3.3293   -4.8958 H   0  0  0  0  0  0  0  0  0  0  0  0
  1  2  2  0  0  0  0
  2  3  1  0  0  0  0
  2  6  1  0  0  0  0
  3  4  1  0  0  0  0
  4  5  1  0  0  0  0
  4 20  1  0  0  0  0
  4 21  1  0  0  0  0
  5 22  1  0  0  0  0
  5 23  1  0  0  0  0
  5 24  1  0  0  0  0
  6  7  2  0  0  0  0
  6  9  1  0  0  0  0
  7  8  1  0  0  0  0
  7 12  1  0  0  0  0
  8 25  1  0  0  0  0
  8 26  1  0  0  0  0
  8 27  1  0  0  0  0
  9 10  1  0  0  0  0
  9 11  2  0  0  0  0
 10 28  1  0  0  0  0
 10 29  1  0  0  0  0
 10 30  1  0  0  0  0
 11 12  1  0  0  0  0
 12 13  1  0  0  0  0
 13 14  2  0  0  0  0
 13 19  1  0  0  0  0
 14 15  1  0  0  0  0
 14 16  1  0  0  0  0
 16 17  2  0  0  0  0
 16 31  1  0  0  0  0
 17 18  1  0  0  0  0
 17 32  1  0  0  0  0
 18 19  2  0  0  0  0
 18 33  1  0  0  0  0
 19 34  1  0  0  0  0
M  END
>  <DRUGBANK_ID>
DB03807

>  <SECONDARY_ACCESSION_NUMBERS>
EXPT00284

>  <COMMON_NAME>
1-(2-Chlorophenyl)-3,5-Dimethyl-1h-Pyrazole-4-Carboxylic Acid Ethyl Ester

$$$$
