I59
 OpenBabel10282417133D

 27 28  0  0  0  0  0  0  0  0999 V2000
    2.4886   -0.7487   -0.0166 C   0  0  0  0  0  0  0  0  0  0  0  0
    1.2732   -1.4291    0.0085 C   0  0  0  0  0  0  0  0  0  0  0  0
    0.0599   -0.7364    0.0138 C   0  0  0  0  0  0  0  0  0  0  0  0
    0.0689    0.6890    0.0066 C   0  0  0  0  0  0  0  0  0  0  0  0
    1.3146    1.3450    0.0270 C   0  0  0  0  0  0  0  0  0  0  0  0
    2.5093    0.6385   -0.0015 C   0  0  0  0  0  0  0  0  0  0  0  0
   -1.1493   -1.4468    0.0144 C   0  0  0  0  0  0  0  0  0  0  0  0
   -2.3583   -0.7783   -0.0291 C   0  0  0  0  0  0  0  0  0  0  0  0
   -2.3574    0.6110   -0.0801 C   0  0  0  0  0  0  0  0  0  0  0  0
   -1.1596    1.3733   -0.0408 C   0  0  0  0  0  0  0  0  0  0  0  0
   -1.2283    2.9047   -0.0475 C   0  0  1  0  0  0  0  0  0  0  0  0
   -1.9990    3.2363   -1.2339 O   0  0  0  0  0  0  0  0  0  0  0  0
   -2.1087    3.5461    1.4230 P   0  0  0  0  0  0  0  0  0  0  0  0
   -1.9462    4.9792    0.9047 O   0  0  0  0  0  0  0  0  0  0  0  0
   -3.5676    3.0205    0.8804 O   0  0  0  0  0  0  0  0  0  0  0  0
   -2.9410    4.1524    2.8132 O   0  0  0  0  0  0  0  0  0  0  0  0
   -0.2680    3.4111   -0.1290 H   0  0  0  0  0  0  0  0  0  0  0  0
    3.4218   -1.3005   -0.0480 H   0  0  0  0  0  0  0  0  0  0  0  0
    1.2819   -2.5178    0.0082 H   0  0  0  0  0  0  0  0  0  0  0  0
    1.4020    2.4271    0.0490 H   0  0  0  0  0  0  0  0  0  0  0  0
    3.4502    1.1802   -0.0189 H   0  0  0  0  0  0  0  0  0  0  0  0
   -1.1603   -2.5358    0.0323 H   0  0  0  0  0  0  0  0  0  0  0  0
   -3.2996   -1.3242   -0.0381 H   0  0  0  0  0  0  0  0  0  0  0  0
   -3.3369    1.0763   -0.1577 H   0  0  0  0  0  0  0  0  0  0  0  0
   -1.4117    3.0422   -1.9863 H   0  0  0  0  0  0  0  0  0  0  0  0
   -3.6553    3.3055   -0.0587 H   0  0  0  0  0  0  0  0  0  0  0  0
   -3.3389    3.4121    3.3032 H   0  0  0  0  0  0  0  0  0  0  0  0
  1  2  1  0  0  0  0
  1  6  2  0  0  0  0
  1 18  1  0  0  0  0
  2  3  2  0  0  0  0
  2 19  1  0  0  0  0
  3  4  1  0  0  0  0
  3  7  1  0  0  0  0
  4  5  2  0  0  0  0
  4 10  1  0  0  0  0
  5  6  1  0  0  0  0
  5 20  1  0  0  0  0
  6 21  1  0  0  0  0
  7  8  2  0  0  0  0
  7 22  1  0  0  0  0
  8  9  1  0  0  0  0
  8 23  1  0  0  0  0
  9 10  2  0  0  0  0
  9 24  1  0  0  0  0
 10 11  1  0  0  0  0
 11 12  1  0  0  0  0
 11 13  1  0  0  0  0
 11 17  1  6  0  0  0
 12 25  1  0  0  0  0
 13 14  2  0  0  0  0
 13 15  1  0  0  0  0
 13 16  1  0  0  0  0
 15 26  1  0  0  0  0
 16 27  1  0  0  0  0
M  END
>  <DRUGBANK_ID>
DB03217

>  <SECONDARY_ACCESSION_NUMBERS>
EXPT01817

>  <COMMON_NAME>
DPI59

$$$$
