MOY
 OpenBabel10282417173D

 42 44  0  0  0  0  0  0  0  0999 V2000
    0.8434   -0.1374   -0.0352 S   0  0  0  0  0  0  0  0  0  0  0  0
    7.3741   -1.1594   -0.3069 O   0  0  0  0  0  0  0  0  0  0  0  0
    4.1026   -4.8379    3.2881 O   0  0  0  0  0  0  0  0  0  0  0  0
    3.2264   -1.0734   -0.2429 N   0  0  0  0  0  0  0  0  0  0  0  0
    3.2235    1.2613   -0.1178 N   0  0  0  0  0  0  0  0  0  0  0  0
    2.5063    0.0677   -0.1207 C   0  0  0  0  0  0  0  0  0  0  0  0
    4.6337    1.2922   -0.2050 C   0  0  0  0  0  0  0  0  0  0  0  0
    5.3478    0.1376   -0.1979 C   0  0  0  0  0  0  0  0  0  0  0  0
    4.6513   -1.1972   -0.0232 C   0  0  1  0  0  0  0  0  0  0  0  0
    2.5047    2.5437   -0.0699 C   0  0  0  0  0  0  0  0  0  0  0  0
    5.2869    2.6498   -0.2261 C   0  0  0  0  0  0  0  0  0  0  0  0
    6.8631   -0.0394   -0.1969 C   0  0  0  0  0  0  0  0  0  0  0  0
    7.7976    1.0859   -0.0207 C   0  0  0  0  0  0  0  0  0  0  0  0
    8.6979    1.3541   -1.0526 C   0  0  0  0  0  0  0  0  0  0  0  0
    9.5466    2.4558   -0.9545 C   0  0  0  0  0  0  0  0  0  0  0  0
    9.4216    3.3447    0.1148 C   0  0  0  0  0  0  0  0  0  0  0  0
    8.5355    3.0684    1.1521 C   0  0  0  0  0  0  0  0  0  0  0  0
    7.7891    1.8902    1.1264 C   0  0  0  0  0  0  0  0  0  0  0  0
    4.8660   -1.8072    1.3600 C   0  0  0  0  0  0  0  0  0  0  0  0
    4.4106   -3.1015    1.6516 C   0  0  0  0  0  0  0  0  0  0  0  0
    4.5645   -3.6027    2.9424 C   0  0  0  0  0  0  0  0  0  0  0  0
    5.1851   -2.8568    3.9400 C   0  0  0  0  0  0  0  0  0  0  0  0
    5.6613   -1.5879    3.6596 C   0  0  0  0  0  0  0  0  0  0  0  0
    5.4809   -1.0691    2.3894 C   0  0  0  0  0  0  0  0  0  0  0  0
    4.9899   -1.8969   -0.8003 H   0  0  0  0  0  0  0  0  0  0  0  0
    3.7092   -5.2542    2.5052 H   0  0  0  0  0  0  0  0  0  0  0  0
    2.6682   -1.9115   -0.1475 H   0  0  0  0  0  0  0  0  0  0  0  0
    2.8075    3.0886    0.8311 H   0  0  0  0  0  0  0  0  0  0  0  0
    2.7436    3.1110   -0.9753 H   0  0  0  0  0  0  0  0  0  0  0  0
    1.4215    2.4454   -0.0464 H   0  0  0  0  0  0  0  0  0  0  0  0
    5.6870    2.8528    0.7670 H   0  0  0  0  0  0  0  0  0  0  0  0
    6.0440    2.7056   -1.0103 H   0  0  0  0  0  0  0  0  0  0  0  0
    4.6428    3.5079   -0.3971 H   0  0  0  0  0  0  0  0  0  0  0  0
    8.7246    0.7181   -1.9343 H   0  0  0  0  0  0  0  0  0  0  0  0
   10.2942    2.6325   -1.7225 H   0  0  0  0  0  0  0  0  0  0  0  0
   10.0194    4.2522    0.1410 H   0  0  0  0  0  0  0  0  0  0  0  0
    8.4061    3.7772    1.9674 H   0  0  0  0  0  0  0  0  0  0  0  0
    7.1187    1.6822    1.9546 H   0  0  0  0  0  0  0  0  0  0  0  0
    3.9214   -3.6916    0.8817 H   0  0  0  0  0  0  0  0  0  0  0  0
    5.2912   -3.2593    4.9403 H   0  0  0  0  0  0  0  0  0  0  0  0
    6.1571   -0.9875    4.4152 H   0  0  0  0  0  0  0  0  0  0  0  0
    5.8339   -0.0607    2.2259 H   0  0  0  0  0  0  0  0  0  0  0  0
  1  6  2  0  0  0  0
  2 12  2  0  0  0  0
  3 21  1  0  0  0  0
  3 26  1  0  0  0  0
  4  6  1  0  0  0  0
  4  9  1  0  0  0  0
  4 27  1  0  0  0  0
  5  7  1  0  0  0  0
  5  6  1  0  0  0  0
  5 10  1  0  0  0  0
  7 11  1  0  0  0  0
  7  8  2  0  0  0  0
  8 12  1  0  0  0  0
  8  9  1  0  0  0  0
  9 19  1  0  0  0  0
  9 25  1  6  0  0  0
 10 28  1  0  0  0  0
 10 29  1  0  0  0  0
 10 30  1  0  0  0  0
 11 31  1  0  0  0  0
 11 32  1  0  0  0  0
 11 33  1  0  0  0  0
 12 13  1  0  0  0  0
 13 18  2  0  0  0  0
 13 14  1  0  0  0  0
 14 15  2  0  0  0  0
 14 34  1  0  0  0  0
 15 16  1  0  0  0  0
 15 35  1  0  0  0  0
 16 17  2  0  0  0  0
 16 36  1  0  0  0  0
 17 18  1  0  0  0  0
 17 37  1  0  0  0  0
 18 38  1  0  0  0  0
 19 20  2  0  0  0  0
 19 24  1  0  0  0  0
 20 21  1  0  0  0  0
 20 39  1  0  0  0  0
 21 22  2  0  0  0  0
 22 23  1  0  0  0  0
 22 40  1  0  0  0  0
 23 24  2  0  0  0  0
 23 41  1  0  0  0  0
 24 42  1  0  0  0  0
M  END
>  <DRUGBANK_ID>
DB08198

>  <COMMON_NAME>
[(4R)-4-(3-HYDROXYPHENYL)-1,6-DIMETHYL-2-THIOXO-1,2,3,4-TETRAHYDROPYRIMIDIN-5-YL](PHENYL)METHANONE

$$$$
