
 OpenBabel10282417113D

 52 53  0  0  0  0  0  0  0  0999 V2000
    1.3874   -0.1908   -0.0745 C   0  0  0  0  0  0  0  0  0  0  0  0
    2.8367   -0.3025    0.4959 C   0  0  0  0  0  0  0  0  0  0  0  0
    0.4910   -1.1651   -0.6019 C   0  0  0  0  0  0  0  0  0  0  0  0
    0.7188   -2.4160   -1.1509 O   0  0  0  0  0  0  0  0  0  0  0  0
    3.5444    0.6890    0.4365 O   0  0  0  0  0  0  0  0  0  0  0  0
    3.4542   -1.5651    1.1764 C   0  0  0  0  0  0  0  0  0  0  0  0
    2.0314   -2.9166   -1.0167 C   0  0  0  0  0  0  0  0  0  0  0  0
    3.0202   -2.3071   -2.0358 C   0  0  3  0  0  0  0  0  0  0  0  0
    2.7283   -2.4351    2.2289 C   0  0  0  0  0  0  0  0  0  0  0  0
    4.8807   -3.9151   -1.5426 N   0  0  0  0  0  0  0  0  0  0  0  0
    1.2188   -2.6363    2.1804 C   0  0  0  0  0  0  0  0  0  0  0  0
    2.9012   -0.8906   -2.1961 O   0  0  0  0  0  0  0  0  0  0  0  0
    0.8848    1.1286    0.0016 C   0  0  0  0  0  0  0  0  0  0  0  0
    4.5284   -2.5231   -1.7907 C   0  0  0  0  0  0  0  0  0  0  0  0
   -0.8862   -0.8749   -0.6798 C   0  0  0  0  0  0  0  0  0  0  0  0
    6.3268   -4.0715   -1.3841 C   0  0  0  0  0  0  0  0  0  0  0  0
    0.6004   -3.8547    1.8103 C   0  0  0  0  0  0  0  0  0  0  0  0
    0.3897   -1.5363    2.4033 C   0  0  0  0  0  0  0  0  0  0  0  0
    6.9012   -3.5120   -0.0747 C   0  0  0  0  0  0  0  0  0  0  0  0
   -0.4884    1.3983   -0.0685 C   0  0  0  0  0  0  0  0  0  0  0  0
    6.2985   -4.1594    1.1636 C   0  0  0  0  0  0  0  0  0  0  0  0
   -1.3826    0.3757   -0.3366 C   0  0  0  0  0  0  0  0  0  0  0  0
   -0.9935   -1.6201    2.2095 C   0  0  0  0  0  0  0  0  0  0  0  0
   -0.7914   -3.9367    1.6165 C   0  0  0  0  0  0  0  0  0  0  0  0
   -1.5849   -2.8094    1.7926 C   0  0  0  0  0  0  0  0  0  0  0  0
    3.7899   -2.2560    0.4198 H   0  0  0  0  0  0  0  0  0  0  0  0
    4.4674   -1.3021    1.5222 H   0  0  0  0  0  0  0  0  0  0  0  0
    2.2014   -2.7325    0.0027 H   0  0  0  0  0  0  0  0  0  0  0  0
    2.0657   -4.0144   -0.9849 H   0  0  0  0  0  0  0  0  0  0  0  0
    2.7379   -2.7336   -2.9950 H   0  0  0  0  0  0  0  0  0  0  0  0
    3.1799   -3.4375    2.1551 H   0  0  0  0  0  0  0  0  0  0  0  0
    3.0098   -2.0486    3.2089 H   0  0  0  0  0  0  0  0  0  0  0  0
    4.4166   -4.2585   -0.7048 H   0  0  0  0  0  0  0  0  0  0  0  0
    1.9647   -0.6770   -2.3395 H   0  0  0  0  0  0  0  0  0  0  0  0
    1.5632    1.9668    0.1584 H   0  0  0  0  0  0  0  0  0  0  0  0
    5.0572   -2.1228   -2.6636 H   0  0  0  0  0  0  0  0  0  0  0  0
    4.9132   -1.8672   -0.9977 H   0  0  0  0  0  0  0  0  0  0  0  0
   -1.5834   -1.6916   -0.8714 H   0  0  0  0  0  0  0  0  0  0  0  0
    6.5363   -5.1450   -1.4291 H   0  0  0  0  0  0  0  0  0  0  0  0
    6.8403   -3.6193   -2.2406 H   0  0  0  0  0  0  0  0  0  0  0  0
    1.1888   -4.7367    1.5618 H   0  0  0  0  0  0  0  0  0  0  0  0
    0.8312   -0.5519    2.5450 H   0  0  0  0  0  0  0  0  0  0  0  0
    7.9835   -3.6858   -0.0718 H   0  0  0  0  0  0  0  0  0  0  0  0
    6.7701   -2.4253   -0.0163 H   0  0  0  0  0  0  0  0  0  0  0  0
   -0.8582    2.3963    0.1507 H   0  0  0  0  0  0  0  0  0  0  0  0
    6.4701   -5.2396    1.1582 H   0  0  0  0  0  0  0  0  0  0  0  0
    6.7442   -3.7401    2.0702 H   0  0  0  0  0  0  0  0  0  0  0  0
    5.2218   -3.9916    1.2245 H   0  0  0  0  0  0  0  0  0  0  0  0
   -2.4550    0.5312   -0.2557 H   0  0  0  0  0  0  0  0  0  0  0  0
   -1.5783   -0.7029    2.2120 H   0  0  0  0  0  0  0  0  0  0  0  0
   -1.2526   -4.8557    1.2579 H   0  0  0  0  0  0  0  0  0  0  0  0
   -2.6347   -2.8200    1.5050 H   0  0  0  0  0  0  0  0  0  0  0  0
  2  1  1  0  0  0  0
  3  1  2  0  0  0  0
  4  3  1  0  0  0  0
  5  2  2  0  0  0  0
  6  2  1  0  0  0  0
  6 26  1  0  0  0  0
  6 27  1  0  0  0  0
  7  4  1  0  0  0  0
  7 28  1  0  0  0  0
  7 29  1  0  0  0  0
  8  7  1  0  0  0  0
  8 30  1  0  0  0  0
  9  6  1  0  0  0  0
  9 31  1  0  0  0  0
  9 32  1  0  0  0  0
 10 33  1  0  0  0  0
 11  9  1  0  0  0  0
 12  8  1  0  0  0  0
 12 34  1  0  0  0  0
 13  1  1  0  0  0  0
 13 35  1  0  0  0  0
 14  8  1  0  0  0  0
 14 10  1  0  0  0  0
 14 36  1  0  0  0  0
 14 37  1  0  0  0  0
 15  3  1  0  0  0  0
 15 38  1  0  0  0  0
 16 10  1  0  0  0  0
 16 39  1  0  0  0  0
 16 40  1  0  0  0  0
 17 11  1  0  0  0  0
 17 41  1  0  0  0  0
 18 11  2  0  0  0  0
 18 42  1  0  0  0  0
 19 16  1  0  0  0  0
 19 43  1  0  0  0  0
 19 44  1  0  0  0  0
 20 13  2  0  0  0  0
 20 45  1  0  0  0  0
 21 19  1  0  0  0  0
 21 46  1  0  0  0  0
 21 47  1  0  0  0  0
 21 48  1  0  0  0  0
 22 15  2  0  0  0  0
 22 20  1  0  0  0  0
 22 49  1  0  0  0  0
 23 18  1  0  0  0  0
 23 50  1  0  0  0  0
 24 17  2  0  0  0  0
 24 51  1  0  0  0  0
 25 23  2  0  0  0  0
 25 24  1  0  0  0  0
 25 52  1  0  0  0  0
M  END
>  <DRUGBANK_ID>
DB01182

>  <SECONDARY_ACCESSION_NUMBERS>
APRD00261

>  <COMMON_NAME>
Propafenone

>  <CAS_NUMBER>
54063-53-5

>  <UNII>
68IQX3T69U

>  <SYNONYMS>
1-(2-(2-hydroxy-3-(propylamino)propoxy)phenyl)-3-phenyl-1-propanone; 2-(2'-hydroxy-3'-propylaminopropoxy)-Ï‰-phenylpropiophenone; Propafenona; Propafenone; Propafenonum

$$$$
