
 OpenBabel10282417213D

 61 60  0  0  0  0  0  0  0  0999 V2000
    1.0109    0.1494    0.0167 C   0  0  0  0  0  0  0  0  0  0  0  0
    0.5693   -1.3125   -0.1169 C   0  0  0  0  0  0  0  0  0  0  0  0
   -7.9557   -5.5289    6.2006 C   0  0  2  0  0  0  0  0  0  0  0  0
   -7.2349   -6.8001    6.8442 C   0  0  1  0  0  0  0  0  0  0  0  0
   -5.5698   -6.7888    7.0553 C   0  0  1  0  0  0  0  0  0  0  0  0
   -4.6709   -5.5167    7.4582 C   0  0  0  0  0  0  0  0  0  0  0  0
   -3.2001   -5.5400    7.0458 C   0  0  0  0  0  0  0  0  0  0  0  0
   -2.9759   -5.9207    5.5738 C   0  0  0  0  0  0  0  0  0  0  0  0
   -3.5004   -4.9602    4.4876 C   0  0  0  0  0  0  0  0  0  0  0  0
   -3.0404   -3.5210    4.6932 C   0  0  0  0  0  0  0  0  0  0  0  0
   -1.5177   -3.5139    4.6428 C   0  0  0  0  0  0  0  0  0  0  0  0
   -1.0543   -4.0956    3.2959 C   0  0  0  0  0  0  0  0  0  0  0  0
   -1.5541   -3.2141    2.1480 C   0  0  0  0  0  0  0  0  0  0  0  0
   -1.0118   -1.8038    2.3427 C   0  0  0  0  0  0  0  0  0  0  0  0
    0.5193   -1.8715    2.3750 C   0  0  0  0  0  0  0  0  0  0  0  0
    1.0790   -2.2221    1.0019 C   0  0  0  0  0  0  0  0  0  0  0  0
    0.4927    0.9478    1.2098 C   0  0  0  0  0  0  0  0  0  0  0  0
   -7.0743   -4.3865    6.5776 C   0  0  0  0  0  0  0  0  0  0  0  0
   -6.1798   -4.3242    5.4927 O   0  0  0  0  0  0  0  0  0  0  0  0
   -9.3237   -5.1547    6.6066 N   0  0  0  0  0  0  0  0  0  0  0  0
   -5.2054   -7.7877    8.0246 O   0  0  0  0  0  0  0  0  0  0  0  0
   -7.8984   -7.0755    8.0864 O   0  0  0  0  0  0  0  0  0  0  0  0
    0.6822    0.6714   -0.8869 H   0  0  0  0  0  0  0  0  0  0  0  0
    2.1052    0.1738    0.0288 H   0  0  0  0  0  0  0  0  0  0  0  0
   -0.5203   -1.3757   -0.2256 H   0  0  0  0  0  0  0  0  0  0  0  0
    0.9534   -1.7096   -1.0647 H   0  0  0  0  0  0  0  0  0  0  0  0
   -7.9696   -5.6448    5.1047 H   0  0  0  0  0  0  0  0  0  0  0  0
   -7.4651   -7.6606    6.1884 H   0  0  0  0  0  0  0  0  0  0  0  0
   -5.2056   -7.1843    6.1040 H   0  0  0  0  0  0  0  0  0  0  0  0
   -4.7599   -5.3092    8.5320 H   0  0  0  0  0  0  0  0  0  0  0  0
   -4.9072   -4.5539    7.0259 H   0  0  0  0  0  0  0  0  0  0  0  0
   -2.6423   -6.1961    7.7161 H   0  0  0  0  0  0  0  0  0  0  0  0
   -2.7823   -4.5331    7.2247 H   0  0  0  0  0  0  0  0  0  0  0  0
   -3.3686   -6.9166    5.3751 H   0  0  0  0  0  0  0  0  0  0  0  0
   -1.8947   -6.0296    5.4398 H   0  0  0  0  0  0  0  0  0  0  0  0
   -4.5584   -4.9722    4.3055 H   0  0  0  0  0  0  0  0  0  0  0  0
   -3.1899   -5.3519    3.5148 H   0  0  0  0  0  0  0  0  0  0  0  0
   -3.4076   -3.0938    5.6310 H   0  0  0  0  0  0  0  0  0  0  0  0
   -3.4736   -2.8710    3.9209 H   0  0  0  0  0  0  0  0  0  0  0  0
   -1.0892   -4.0943    5.4626 H   0  0  0  0  0  0  0  0  0  0  0  0
   -1.1434   -2.5026    4.8256 H   0  0  0  0  0  0  0  0  0  0  0  0
   -1.3746   -5.1244    3.1268 H   0  0  0  0  0  0  0  0  0  0  0  0
    0.0289   -4.2184    3.3044 H   0  0  0  0  0  0  0  0  0  0  0  0
   -2.6474   -3.1869    2.0829 H   0  0  0  0  0  0  0  0  0  0  0  0
   -1.2422   -3.6339    1.1872 H   0  0  0  0  0  0  0  0  0  0  0  0
   -1.3888   -1.3314    3.2556 H   0  0  0  0  0  0  0  0  0  0  0  0
   -1.4129   -1.1595    1.5588 H   0  0  0  0  0  0  0  0  0  0  0  0
    0.8983   -2.5927    3.1008 H   0  0  0  0  0  0  0  0  0  0  0  0
    0.9451   -0.9697    2.7935 H   0  0  0  0  0  0  0  0  0  0  0  0
    0.8134   -3.2601    0.7576 H   0  0  0  0  0  0  0  0  0  0  0  0
    2.1719   -2.2068    1.0383 H   0  0  0  0  0  0  0  0  0  0  0  0
    0.7079    2.0101    1.0843 H   0  0  0  0  0  0  0  0  0  0  0  0
   -0.5856    0.8349    1.3502 H   0  0  0  0  0  0  0  0  0  0  0  0
    1.0051    0.6973    2.1367 H   0  0  0  0  0  0  0  0  0  0  0  0
   -7.4420   -3.3740    6.7083 H   0  0  0  0  0  0  0  0  0  0  0  0
   -6.6976   -4.6233    7.5838 H   0  0  0  0  0  0  0  0  0  0  0  0
   -5.8828   -5.2586    5.3235 H   0  0  0  0  0  0  0  0  0  0  0  0
   -9.3408   -4.1234    6.6697 H   0  0  0  0  0  0  0  0  0  0  0  0
   -9.9441   -5.2917    5.8030 H   0  0  0  0  0  0  0  0  0  0  0  0
   -5.2919   -7.3609    8.8978 H   0  0  0  0  0  0  0  0  0  0  0  0
   -8.8218   -6.7704    7.9494 H   0  0  0  0  0  0  0  0  0  0  0  0
  1 17  1  0  0  0  0
  1 23  1  0  0  0  0
  1 24  1  0  0  0  0
  2  1  1  0  0  0  0
  2 25  1  0  0  0  0
  2 26  1  0  0  0  0
  3 20  1  0  0  0  0
  3 18  1  0  0  0  0
  3 27  1  6  0  0  0
  4 28  1  6  0  0  0
  4 22  1  0  0  0  0
  4  3  1  0  0  0  0
  5  6  1  0  0  0  0
  5 29  1  6  0  0  0
  5 21  1  0  0  0  0
  5  4  1  0  0  0  0
  6  7  1  0  0  0  0
  6 30  1  0  0  0  0
  6 31  1  0  0  0  0
  7  8  1  0  0  0  0
  7 32  1  0  0  0  0
  7 33  1  0  0  0  0
  8  9  1  0  0  0  0
  8 34  1  0  0  0  0
  8 35  1  0  0  0  0
  9 10  1  0  0  0  0
  9 36  1  0  0  0  0
  9 37  1  0  0  0  0
 10 11  1  0  0  0  0
 10 38  1  0  0  0  0
 10 39  1  0  0  0  0
 11 12  1  0  0  0  0
 11 40  1  0  0  0  0
 11 41  1  0  0  0  0
 12 13  1  0  0  0  0
 12 42  1  0  0  0  0
 12 43  1  0  0  0  0
 13 14  1  0  0  0  0
 13 44  1  0  0  0  0
 13 45  1  0  0  0  0
 14 15  1  0  0  0  0
 14 46  1  0  0  0  0
 14 47  1  0  0  0  0
 15 16  1  0  0  0  0
 15 48  1  0  0  0  0
 15 49  1  0  0  0  0
 16  2  1  0  0  0  0
 16 50  1  0  0  0  0
 16 51  1  0  0  0  0
 17 52  1  0  0  0  0
 17 53  1  0  0  0  0
 17 54  1  0  0  0  0
 18 19  1  0  0  0  0
 18 55  1  0  0  0  0
 18 56  1  0  0  0  0
 19 57  1  0  0  0  0
 20 58  1  0  0  0  0
 20 59  1  0  0  0  0
 21 60  1  0  0  0  0
 22 61  1  0  0  0  0
M  END
>  <DRUGBANK_ID>
DB14119

>  <COMMON_NAME>
Phytosphingosine

>  <CAS_NUMBER>
554-62-1

>  <UNII>
GIN46U9Q2Q

>  <SYNONYMS>
(+)-D-ribo-phytosphingosine; 4-D-Hydroxysphinganine; 4-R-hydroxyoctadecasphinganine; C18-phytosphingosine; D-ribo-phytosphingosine; DS-phytosphingosine

$$$$
