498
 OpenBabel10282417103D

 27 29  0  0  0  0  0  0  0  0999 V2000
    1.4689    2.3460    0.0730 O   0  0  0  0  0  0  0  0  0  0  0  0
    1.3881   -2.3839    0.1272 O   0  0  0  0  0  0  0  0  0  0  0  0
    2.0838   -0.0326   -0.1440 C   0  0  0  0  0  0  0  0  0  0  0  0
    1.1607    1.1728   -0.0220 C   0  0  0  0  0  0  0  0  0  0  0  0
    1.1218   -1.2021    0.0172 C   0  0  0  0  0  0  0  0  0  0  0  0
   -0.2215    0.6991   -0.0082 C   0  0  0  0  0  0  0  0  0  0  0  0
   -0.2432   -0.6865    0.0062 C   0  0  0  0  0  0  0  0  0  0  0  0
    2.8747   -0.0424   -1.4368 C   0  0  0  0  0  0  0  0  0  0  0  0
   -1.3852    1.4427   -0.0050 C   0  0  0  0  0  0  0  0  0  0  0  0
   -1.4260   -1.3999    0.0089 C   0  0  0  0  0  0  0  0  0  0  0  0
    3.7622    1.0122   -1.7048 C   0  0  0  0  0  0  0  0  0  0  0  0
    2.8181   -1.1114   -2.3451 C   0  0  0  0  0  0  0  0  0  0  0  0
   -2.5944    0.7420    0.0158 C   0  0  0  0  0  0  0  0  0  0  0  0
   -2.6148   -0.6672    0.0194 C   0  0  0  0  0  0  0  0  0  0  0  0
    4.5851    0.9833   -2.8305 C   0  0  0  0  0  0  0  0  0  0  0  0
    3.6851   -1.1682   -3.4343 C   0  0  0  0  0  0  0  0  0  0  0  0
    4.5517   -0.1112   -3.6901 C   0  0  0  0  0  0  0  0  0  0  0  0
    2.7624   -0.0442    0.7172 H   0  0  0  0  0  0  0  0  0  0  0  0
   -1.3573    2.5279   -0.0173 H   0  0  0  0  0  0  0  0  0  0  0  0
   -1.4271   -2.4857    0.0035 H   0  0  0  0  0  0  0  0  0  0  0  0
    3.8251    1.8659   -1.0306 H   0  0  0  0  0  0  0  0  0  0  0  0
    2.1244   -1.9392   -2.2134 H   0  0  0  0  0  0  0  0  0  0  0  0
   -3.5340    1.2910    0.0311 H   0  0  0  0  0  0  0  0  0  0  0  0
   -3.5689   -1.1905    0.0351 H   0  0  0  0  0  0  0  0  0  0  0  0
    5.2708    1.8046   -3.0195 H   0  0  0  0  0  0  0  0  0  0  0  0
    3.6945   -2.0516   -4.0672 H   0  0  0  0  0  0  0  0  0  0  0  0
    5.2029   -0.1443   -4.5583 H   0  0  0  0  0  0  0  0  0  0  0  0
  1  4  2  0  0  0  0
  2  5  2  0  0  0  0
  3  4  1  0  0  0  0
  3  5  1  0  0  0  0
  3  8  1  0  0  0  0
  3 18  1  0  0  0  0
  4  6  1  0  0  0  0
  5  7  1  0  0  0  0
  6  7  1  0  0  0  0
  6  9  2  0  0  0  0
  7 10  2  0  0  0  0
  8 11  2  0  0  0  0
  8 12  1  0  0  0  0
  9 13  1  0  0  0  0
  9 19  1  0  0  0  0
 10 14  1  0  0  0  0
 10 20  1  0  0  0  0
 11 15  1  0  0  0  0
 11 21  1  0  0  0  0
 12 16  2  0  0  0  0
 12 22  1  0  0  0  0
 13 14  2  0  0  0  0
 13 23  1  0  0  0  0
 14 24  1  0  0  0  0
 15 17  2  0  0  0  0
 15 25  1  0  0  0  0
 16 17  1  0  0  0  0
 16 26  1  0  0  0  0
 17 27  1  0  0  0  0
M  END
>  <DRUGBANK_ID>
DB00498

>  <SECONDARY_ACCESSION_NUMBERS>
APRD00166

>  <COMMON_NAME>
Phenindione

>  <CAS_NUMBER>
83-12-5

>  <UNII>
5M7Y6274ZE

>  <SYNONYMS>
2-phenyl-1,3-diketohydrindene; 2-Phenyl-1,3-indandione; 2-phenyl-1,3(2H)-Indenedione; Fenindiona; Fenindione; Phenindion; Ph√©nindione; Phenindione; Phenindionum; PID

$$$$
