
 OpenBabel10282417143D

 36 37  0  0  0  0  0  0  0  0999 V2000
    0.9594    0.0617   -0.0674 P   0  0  0  0  0  0  0  0  0  0  0  0
   -1.8077    0.2706   -2.0291 O   0  0  0  0  0  0  0  0  0  0  0  0
   -1.5854    3.3206   -2.1945 O   0  0  0  0  0  0  0  0  0  0  0  0
    0.8413   -0.7442   -1.4515 O   0  0  0  0  0  0  0  0  0  0  0  0
   -4.1638   -0.3067    1.6090 O   0  0  0  0  0  0  0  0  0  0  0  0
    1.1107   -0.5720    1.3558 O   0  0  0  0  0  0  0  0  0  0  0  0
   -0.7706    0.0617   -0.0674 O   0  0  0  0  0  0  0  0  0  0  0  0
    2.5077    0.0617   -0.0674 O   0  0  0  0  0  0  0  0  0  0  0  0
    1.3324   -3.1512    3.4431 O   0  0  0  0  0  0  0  0  0  0  0  0
   -2.3354   -0.9714    0.4891 N   0  0  0  0  0  0  0  0  0  0  0  0
   -2.7210   -1.6867    2.7693 N   0  0  0  0  0  0  0  0  0  0  0  0
   -1.2373   -2.8781    4.1175 N   0  0  0  0  0  0  0  0  0  0  0  0
   -0.6784    2.4195   -1.5615 C   0  0  2  0  0  0  0  0  0  0  0  0
   -0.6071    1.1291   -2.4133 C   0  0  1  0  0  0  0  0  0  0  0  0
   -1.3482    2.0663   -0.2105 C   0  0  0  0  0  0  0  0  0  0  0  0
   -2.4486    0.6097   -0.5678 C   0  0  1  0  0  0  0  0  0  0  0  0
    0.7607    0.2846   -2.4835 C   0  0  0  0  0  0  0  0  0  0  0  0
   -1.0299   -1.9406    0.7355 C   0  0  0  0  0  0  0  0  0  0  0  0
   -3.0916   -0.9733    1.6412 C   0  0  0  0  0  0  0  0  0  0  0  0
   -0.4980   -2.2770    1.9418 C   0  0  0  0  0  0  0  0  0  0  0  0
   -1.5378   -2.2223    2.9505 C   0  0  0  0  0  0  0  0  0  0  0  0
    0.9930   -2.7094    2.3412 C   0  0  0  0  0  0  0  0  0  0  0  0
   -2.4251    2.8318   -2.2579 H   0  0  0  0  0  0  0  0  0  0  0  0
    2.0873   -0.4537    1.5033 H   0  0  0  0  0  0  0  0  0  0  0  0
   -0.9715   -0.6196   -0.7693 H   0  0  0  0  0  0  0  0  0  0  0  0
   -1.9967   -3.3899    4.5350 H   0  0  0  0  0  0  0  0  0  0  0  0
   -0.3276   -3.3637    4.1604 H   0  0  0  0  0  0  0  0  0  0  0  0
    0.2926    2.9559   -1.5107 H   0  0  0  0  0  0  0  0  0  0  0  0
   -0.7250    1.4555   -3.4592 H   0  0  0  0  0  0  0  0  0  0  0  0
   -0.4701    1.9143    0.4617 H   0  0  0  0  0  0  0  0  0  0  0  0
   -1.8436    2.8866    0.3050 H   0  0  0  0  0  0  0  0  0  0  0  0
   -3.4706    0.9435   -0.7208 H   0  0  0  0  0  0  0  0  0  0  0  0
    1.6655    0.9302   -2.4410 H   0  0  0  0  0  0  0  0  0  0  0  0
    0.8497   -0.2229   -3.4519 H   0  0  0  0  0  0  0  0  0  0  0  0
   -0.3001   -2.0933   -0.0594 H   0  0  0  0  0  0  0  0  0  0  0  0
    1.8153   -2.5178    1.6138 H   0  0  0  0  0  0  0  0  0  0  0  0
  1  4  1  0  0  0  0
  1  6  1  0  0  0  0
  1  7  1  0  0  0  0
  1  8  2  0  0  0  0
  2 14  1  0  0  0  0
  2 16  1  0  0  0  0
  3 23  1  0  0  0  0
  4 17  1  0  0  0  0
  5 19  2  0  0  0  0
  6 24  1  0  0  0  0
  7 25  1  0  0  0  0
  9 22  2  0  0  0  0
 10 18  1  0  0  0  0
 10 19  1  0  0  0  0
 11 19  1  0  0  0  0
 11 21  2  0  0  0  0
 12 21  1  0  0  0  0
 12 26  1  0  0  0  0
 12 27  1  0  0  0  0
 13  3  1  0  0  0  0
 13 14  1  0  0  0  0
 13 15  1  0  0  0  0
 13 28  1  1  0  0  0
 14 17  1  0  0  0  0
 14 29  1  6  0  0  0
 15 16  1  0  0  0  0
 15 30  1  0  0  0  0
 15 31  1  0  0  0  0
 16 32  1  6  0  0  0
 16 10  1  0  0  0  0
 17 33  1  0  0  0  0
 17 34  1  0  0  0  0
 18 20  2  0  0  0  0
 18 35  1  0  0  0  0
 20 21  1  0  0  0  0
 20 22  1  0  0  0  0
 22 36  1  0  0  0  0
M  END
>  <DRUGBANK_ID>
DB04603

>  <COMMON_NAME>
5-Formyl-2'-deoxy-cytidine-5'-monophosphate

$$$$
