
 OpenBabel10282417113D

 77 81  0  0  0  0  0  0  0  0999 V2000
    0.2318   -0.8618    0.5900 C   0  0  0  0  0  0  0  0  0  0  0  0
    0.5168    1.0226    0.8468 C   0  0  0  0  0  0  0  0  0  0  0  0
    1.3618    2.1831   -0.9501 C   0  0  0  0  0  0  0  0  0  0  0  0
    2.0580    3.7172   -1.1286 C   0  0  0  0  0  0  0  0  0  0  0  0
    3.2874    3.7765   -1.0823 O   0  0  0  0  0  0  0  0  0  0  0  0
    1.3750    4.8842   -1.3346 N   0  0  0  0  0  0  0  0  0  0  0  0
    0.1089    5.0572   -1.7746 C   0  0  0  0  0  0  0  0  0  0  0  0
   -0.4925    6.1169   -1.6241 O   0  0  0  0  0  0  0  0  0  0  0  0
   -0.5081    3.9649   -2.2393 N   0  0  0  0  0  0  0  0  0  0  0  0
   -0.0724    2.6787   -2.1494 C   0  0  0  0  0  0  0  0  0  0  0  0
   -0.7707    1.8693   -2.7913 O   0  0  0  0  0  0  0  0  0  0  0  0
    2.3398    1.5995   -2.0009 C   0  0  0  0  0  0  0  0  0  0  0  0
    3.5217    1.0876   -1.4829 C   0  0  0  0  0  0  0  0  0  0  0  0
    4.3618    0.2831   -2.1071 C   0  0  0  0  0  0  0  0  0  0  0  0
    4.0623    0.1043   -3.3990 C   0  0  0  0  0  0  0  0  0  0  0  0
    2.8753    0.5817   -3.9640 C   0  0  0  0  0  0  0  0  0  0  0  0
    2.0418    1.4326   -3.3070 C   0  0  0  0  0  0  0  0  0  0  0  0
    1.4694    0.1863   -0.5691 C   0  0  0  0  0  0  0  0  0  0  0  0
   -0.1250    1.3651   -0.6676 O   0  0  0  0  0  0  0  0  0  0  0  0
    0.2794    2.8750    0.5275 C   0  0  0  0  0  0  0  0  0  0  0  0
    1.8489    2.9172    1.1768 C   0  0  0  0  0  0  0  0  0  0  0  0
    2.6278    4.0548    1.4659 C   0  0  0  0  0  0  0  0  0  0  0  0
    4.0565    4.1872    1.1661 C   0  0  0  0  0  0  0  0  0  0  0  0
    4.6257    5.4261    0.8469 C   0  0  0  0  0  0  0  0  0  0  0  0
    4.5209    5.9861    2.0168 C   0  0  0  0  0  0  0  0  0  0  0  0
    3.1188    6.1265    2.0458 N   0  0  0  0  0  0  0  0  0  0  0  0
    1.9669    5.1973    1.6028 C   0  0  0  0  0  0  0  0  0  0  0  0
    0.3211    4.9896    1.1188 C   0  0  0  0  0  0  0  0  0  0  0  0
   -0.5277    3.8716    0.6478 C   0  0  0  0  0  0  0  0  0  0  0  0
    5.0513    3.0414    1.1024 C   0  0  3  0  0  0  0  0  0  0  0  0
    4.6457    1.8906    2.0581 C   0  0  3  0  0  0  0  0  0  0  0  0
    5.6698    1.7901    3.1706 C   0  0  0  0  0  0  0  0  0  0  0  0
    6.1780    0.3523    3.2191 C   0  0  3  0  0  0  0  0  0  0  0  0
    6.7774    0.0142    1.8488 C   0  0  0  0  0  0  0  0  0  0  0  0
    5.6910    0.1094    0.8134 C   0  0  0  0  0  0  0  0  0  0  0  0
    4.4289    0.5772    1.4123 N   0  0  3  0  0  0  0  0  0  0  0  0
    3.9341   -0.4091    2.3749 C   0  0  0  0  0  0  0  0  0  0  0  0
    4.9736   -0.5826    3.4830 C   0  0  3  0  0  0  0  0  0  0  0  0
    5.4241   -2.0115    3.5373 C   0  0  0  0  0  0  0  0  0  0  0  0
    5.2963   -2.7483    4.6395 C   0  0  0  0  0  0  0  0  0  0  0  0
    5.2899    2.6725   -0.2335 O   0  0  0  0  0  0  0  0  0  0  0  0
   -0.2275   -0.9226   -0.4769 H   0  0  0  0  0  0  0  0  0  0  0  0
   -0.1280   -1.3325    1.4639 H   0  0  0  0  0  0  0  0  0  0  0  0
    1.3181   -1.4315    0.5946 H   0  0  0  0  0  0  0  0  0  0  0  0
   -0.7896    1.1772    0.8686 H   0  0  0  0  0  0  0  0  0  0  0  0
    0.6538    1.2987    1.8840 H   0  0  0  0  0  0  0  0  0  0  0  0
    1.6808    5.6630   -0.7589 H   0  0  0  0  0  0  0  0  0  0  0  0
   -1.4509    4.0723   -2.5871 H   0  0  0  0  0  0  0  0  0  0  0  0
    3.7355    1.1693   -0.4407 H   0  0  0  0  0  0  0  0  0  0  0  0
    5.1767   -0.1129   -1.5470 H   0  0  0  0  0  0  0  0  0  0  0  0
    4.8138   -0.3930   -3.9619 H   0  0  0  0  0  0  0  0  0  0  0  0
    2.5829    0.2679   -4.9409 H   0  0  0  0  0  0  0  0  0  0  0  0
    1.1816    1.8696   -3.7838 H   0  0  0  0  0  0  0  0  0  0  0  0
    1.5011   -0.7640   -1.1307 H   0  0  0  0  0  0  0  0  0  0  0  0
    1.8371    0.0201    0.7125 H   0  0  0  0  0  0  0  0  0  0  0  0
    2.3458    0.5840   -0.0363 H   0  0  0  0  0  0  0  0  0  0  0  0
    2.5156    2.0718    0.9802 H   0  0  0  0  0  0  0  0  0  0  0  0
    4.4525    6.4375    0.4208 H   0  0  0  0  0  0  0  0  0  0  0  0
    5.5735    5.4795    2.0765 H   0  0  0  0  0  0  0  0  0  0  0  0
   -0.1361    5.9089    0.7106 H   0  0  0  0  0  0  0  0  0  0  0  0
   -1.4396    3.6870    0.1130 H   0  0  0  0  0  0  0  0  0  0  0  0
    6.0530    3.3905    1.3401 H   0  0  0  0  0  0  0  0  0  0  0  0
    3.7238    2.1663    2.5817 H   0  0  0  0  0  0  0  0  0  0  0  0
    6.4991    2.4784    2.9946 H   0  0  0  0  0  0  0  0  0  0  0  0
    5.1956    2.0849    4.1123 H   0  0  0  0  0  0  0  0  0  0  0  0
    6.9341    0.2673    3.9919 H   0  0  0  0  0  0  0  0  0  0  0  0
    7.5898    0.7000    1.5917 H   0  0  0  0  0  0  0  0  0  0  0  0
    7.1733   -0.9992    1.8163 H   0  0  0  0  0  0  0  0  0  0  0  0
    6.0722    0.7694    0.0340 H   0  0  0  0  0  0  0  0  0  0  0  0
    5.5300   -0.8459    0.3041 H   0  0  0  0  0  0  0  0  0  0  0  0
    2.9710   -0.0822    2.7945 H   0  0  0  0  0  0  0  0  0  0  0  0
    3.7101   -1.3497    1.8522 H   0  0  0  0  0  0  0  0  0  0  0  0
    4.5054   -0.2851    4.4286 H   0  0  0  0  0  0  0  0  0  0  0  0
    5.8726   -2.4517    2.6473 H   0  0  0  0  0  0  0  0  0  0  0  0
    5.6494   -3.7702    4.6598 H   0  0  0  0  0  0  0  0  0  0  0  0
    4.8402   -2.3263    5.5273 H   0  0  0  0  0  0  0  0  0  0  0  0
    4.3998    2.7136   -0.6180 H   0  0  0  0  0  0  0  0  0  0  0  0
  1  2  1  0  0  0  0
  1 42  1  0  0  0  0
  1 43  1  0  0  0  0
  1 44  1  0  0  0  0
  2  3  1  0  0  0  0
  2 45  1  0  0  0  0
  2 46  1  0  0  0  0
  3  4  1  0  0  0  0
  3 10  1  0  0  0  0
  3 12  1  0  0  0  0
  4  5  2  0  0  0  0
  4  6  1  0  0  0  0
  6  7  1  0  0  0  0
  6 47  1  0  0  0  0
  7  8  2  0  0  0  0
  7  9  1  0  0  0  0
  9 10  1  0  0  0  0
  9 48  1  0  0  0  0
 10 11  2  0  0  0  0
 12 13  2  0  0  0  0
 12 17  1  0  0  0  0
 13 14  1  0  0  0  0
 13 49  1  0  0  0  0
 14 15  2  0  0  0  0
 14 50  1  0  0  0  0
 15 16  1  0  0  0  0
 15 51  1  0  0  0  0
 16 17  2  0  0  0  0
 16 52  1  0  0  0  0
 17 53  1  0  0  0  0
 18 19  1  0  0  0  0
 18 54  1  0  0  0  0
 18 55  1  0  0  0  0
 18 56  1  0  0  0  0
 19 20  1  0  0  0  0
 20 21  2  0  0  0  0
 20 29  1  0  0  0  0
 21 22  1  0  0  0  0
 21 57  1  0  0  0  0
 22 23  2  0  0  0  0
 22 27  1  0  0  0  0
 23 24  1  0  0  0  0
 23 30  1  0  0  0  0
 24 25  2  0  0  0  0
 24 58  1  0  0  0  0
 25 26  1  0  0  0  0
 25 59  1  0  0  0  0
 26 27  2  0  0  0  0
 27 28  1  0  0  0  0
 28 29  2  0  0  0  0
 28 60  1  0  0  0  0
 29 61  1  0  0  0  0
 30 31  1  0  0  0  0
 30 41  1  0  0  0  0
 30 62  1  0  0  0  0
 31 32  1  0  0  0  0
 31 36  1  0  0  0  0
 31 63  1  0  0  0  0
 32 33  1  0  0  0  0
 32 64  1  0  0  0  0
 32 65  1  0  0  0  0
 33 34  1  0  0  0  0
 33 38  1  0  0  0  0
 33 66  1  0  0  0  0
 34 35  1  0  0  0  0
 34 67  1  0  0  0  0
 34 68  1  0  0  0  0
 35 36  1  0  0  0  0
 35 69  1  0  0  0  0
 35 70  1  0  0  0  0
 36 37  1  0  0  0  0
 37 38  1  0  0  0  0
 37 71  1  0  0  0  0
 37 72  1  0  0  0  0
 38 39  1  0  0  0  0
 38 73  1  0  0  0  0
 39 40  2  0  0  0  0
 39 74  1  0  0  0  0
 40 75  1  0  0  0  0
 40 76  1  0  0  0  0
 41 77  1  0  0  0  0
M  END
>  <DRUGBANK_ID>
DB01346

>  <COMMON_NAME>
Quinidine barbiturate

$$$$
