667
 OpenBabel10282417123D

 36 38  0  0  0  0  0  0  0  0999 V2000
    0.8913   -0.0329    0.0478 S   0  0  0  0  0  0  0  0  0  0  0  0
    0.5508   -0.5699   -1.2480 O   0  0  0  0  0  0  0  0  0  0  0  0
    0.5739   -0.7415    1.2692 O   0  0  0  0  0  0  0  0  0  0  0  0
    0.3865    1.5244    0.1333 O   0  0  0  0  0  0  0  0  0  0  0  0
    2.5722    0.0559    0.0407 N   0  0  0  0  0  0  0  0  0  0  0  0
   -0.9617    1.7912    0.1762 C   0  0  0  0  0  0  0  0  0  0  0  0
   -1.4767    2.8246   -0.6073 C   0  0  0  0  0  0  0  0  0  0  0  0
   -2.8645    3.0807   -0.6299 C   0  0  0  0  0  0  0  0  0  0  0  0
   -3.7593    2.3281    0.1469 C   0  0  0  0  0  0  0  0  0  0  0  0
   -3.1934    1.3594    0.9696 C   0  0  0  0  0  0  0  0  0  0  0  0
   -1.8260    1.0893    1.0022 C   0  0  0  0  0  0  0  0  0  0  0  0
   -5.2323    2.4531    0.1388 C   0  0  0  0  0  0  0  0  0  0  0  0
   -5.9640    1.6545    0.9485 C   0  0  0  0  0  0  0  0  0  0  0  0
   -5.3353    0.6812    1.8813 C   0  0  0  0  0  0  0  0  0  0  0  0
   -5.9239    3.4056   -0.8128 C   0  0  0  0  0  0  0  0  0  0  0  0
   -7.4763    1.6499    0.9500 C   0  0  0  0  0  0  0  0  0  0  0  0
   -5.9908   -0.0054    2.6569 O   0  0  0  0  0  0  0  0  0  0  0  0
   -3.9638    0.5666    1.8300 O   0  0  0  0  0  0  0  0  0  0  0  0
   -8.0645    1.1373   -0.3664 C   0  0  0  0  0  0  0  0  0  0  0  0
   -8.0729    2.1752   -1.4862 C   0  0  0  0  0  0  0  0  0  0  0  0
   -6.6905    2.6662   -1.9146 C   0  0  0  0  0  0  0  0  0  0  0  0
    2.9328   -0.8999    0.0807 H   0  0  0  0  0  0  0  0  0  0  0  0
    2.9095    0.5481   -0.7830 H   0  0  0  0  0  0  0  0  0  0  0  0
   -0.8187    3.4304   -1.2270 H   0  0  0  0  0  0  0  0  0  0  0  0
   -3.2099    3.8759   -1.2844 H   0  0  0  0  0  0  0  0  0  0  0  0
   -1.4774    0.3208    1.6835 H   0  0  0  0  0  0  0  0  0  0  0  0
   -6.5984    4.0665   -0.2521 H   0  0  0  0  0  0  0  0  0  0  0  0
   -5.2214    4.0880   -1.2949 H   0  0  0  0  0  0  0  0  0  0  0  0
   -7.8638    1.0102    1.7504 H   0  0  0  0  0  0  0  0  0  0  0  0
   -7.8545    2.6526    1.1827 H   0  0  0  0  0  0  0  0  0  0  0  0
   -7.5320    0.2378   -0.7004 H   0  0  0  0  0  0  0  0  0  0  0  0
   -9.1031    0.8344   -0.1840 H   0  0  0  0  0  0  0  0  0  0  0  0
   -8.5633    1.7290   -2.3603 H   0  0  0  0  0  0  0  0  0  0  0  0
   -8.6925    3.0307   -1.1888 H   0  0  0  0  0  0  0  0  0  0  0  0
   -6.1006    1.8207   -2.2900 H   0  0  0  0  0  0  0  0  0  0  0  0
   -6.8283    3.3513   -2.7597 H   0  0  0  0  0  0  0  0  0  0  0  0
  1  2  2  0  0  0  0
  1  3  2  0  0  0  0
  1  4  1  0  0  0  0
  1  5  1  0  0  0  0
  4  6  1  0  0  0  0
  5 22  1  0  0  0  0
  5 23  1  0  0  0  0
  6  7  2  0  0  0  0
  6 11  1  0  0  0  0
  7  8  1  0  0  0  0
  7 24  1  0  0  0  0
  8  9  2  0  0  0  0
  8 25  1  0  0  0  0
  9 10  1  0  0  0  0
  9 12  1  0  0  0  0
 10 11  2  0  0  0  0
 10 18  1  0  0  0  0
 11 26  1  0  0  0  0
 12 13  2  0  0  0  0
 12 15  1  0  0  0  0
 13 14  1  0  0  0  0
 13 16  1  0  0  0  0
 14 17  2  0  0  0  0
 14 18  1  0  0  0  0
 15 21  1  0  0  0  0
 15 27  1  0  0  0  0
 15 28  1  0  0  0  0
 16 19  1  0  0  0  0
 16 29  1  0  0  0  0
 16 30  1  0  0  0  0
 19 20  1  0  0  0  0
 19 31  1  0  0  0  0
 19 32  1  0  0  0  0
 20 21  1  0  0  0  0
 20 33  1  0  0  0  0
 20 34  1  0  0  0  0
 21 35  1  0  0  0  0
 21 36  1  0  0  0  0
M  END
>  <DRUGBANK_ID>
DB02292

>  <SECONDARY_ACCESSION_NUMBERS>
EXPT00273; DB12437

>  <COMMON_NAME>
Irosustat

>  <CAS_NUMBER>
288628-05-7

>  <UNII>
366037O6O7

>  <SYNONYMS>
6-Oxo-8,9,10,11-Tetrahydro-7h-Cyclohepta[C][1]Benzopyran-3-O-Sulfamate; Irosustat

$$$$
