1031
 OpenBabel10282417113D

 25 25  0  0  0  0  0  0  0  0999 V2000
    1.1788   -0.0351   -0.0356 O   0  0  0  0  0  0  0  0  0  0  0  0
    3.0138   -0.1296   -1.3697 O   0  0  0  0  0  0  0  0  0  0  0  0
    3.4188    0.0500    0.8020 N   0  0  0  0  0  0  0  0  0  0  0  0
    0.3572   -0.1164    1.2004 C   0  0  0  0  0  0  0  0  0  0  0  0
   -0.6861   -1.2278    1.0914 C   0  0  0  0  0  0  0  0  0  0  0  0
   -0.2916    1.2501    1.4381 C   0  0  0  0  0  0  0  0  0  0  0  0
   -1.7387   -0.9030    0.0336 C   0  0  0  0  0  0  0  0  0  0  0  0
   -1.3109    1.5571    0.3475 C   0  0  0  0  0  0  0  0  0  0  0  0
   -2.3736    0.4636    0.2881 C   0  0  0  0  0  0  0  0  0  0  0  0
    1.3312   -0.4038    2.3314 C   0  0  0  0  0  0  0  0  0  0  0  0
    2.5402   -0.0484   -0.2367 C   0  0  0  0  0  0  0  0  0  0  0  0
    2.1667   -0.6502    3.3016 C   0  0  0  0  0  0  0  0  0  0  0  0
    3.1937    0.4373    1.6999 H   0  0  0  0  0  0  0  0  0  0  0  0
    4.4063   -0.0681    0.6282 H   0  0  0  0  0  0  0  0  0  0  0  0
   -0.2123   -2.1867    0.8507 H   0  0  0  0  0  0  0  0  0  0  0  0
   -1.1888   -1.3554    2.0609 H   0  0  0  0  0  0  0  0  0  0  0  0
   -0.7907    1.2629    2.4173 H   0  0  0  0  0  0  0  0  0  0  0  0
    0.4667    2.0427    1.4558 H   0  0  0  0  0  0  0  0  0  0  0  0
   -1.2714   -0.9102   -0.9582 H   0  0  0  0  0  0  0  0  0  0  0  0
   -2.5129   -1.6780    0.0310 H   0  0  0  0  0  0  0  0  0  0  0  0
   -0.8014    1.6251   -0.6213 H   0  0  0  0  0  0  0  0  0  0  0  0
   -1.7764    2.5293    0.5372 H   0  0  0  0  0  0  0  0  0  0  0  0
   -3.0953    0.6927   -0.5022 H   0  0  0  0  0  0  0  0  0  0  0  0
   -2.9274    0.4400    1.2357 H   0  0  0  0  0  0  0  0  0  0  0  0
    2.8366   -0.8662    4.1028 H   0  0  0  0  0  0  0  0  0  0  0  0
  1  4  1  0  0  0  0
  1 11  1  0  0  0  0
  2 11  2  0  0  0  0
  3 11  1  0  0  0  0
  3 13  1  0  0  0  0
  3 14  1  0  0  0  0
  4  5  1  0  0  0  0
  4  6  1  0  0  0  0
  4 10  1  0  0  0  0
  5  7  1  0  0  0  0
  5 15  1  0  0  0  0
  5 16  1  0  0  0  0
  6  8  1  0  0  0  0
  6 17  1  0  0  0  0
  6 18  1  0  0  0  0
  7  9  1  0  0  0  0
  7 19  1  0  0  0  0
  7 20  1  0  0  0  0
  8  9  1  0  0  0  0
  8 21  1  0  0  0  0
  8 22  1  0  0  0  0
  9 23  1  0  0  0  0
  9 24  1  0  0  0  0
 10 12  3  0  0  0  0
 12 25  1  0  0  0  0
M  END
>  <DRUGBANK_ID>
DB01031

>  <SECONDARY_ACCESSION_NUMBERS>
APRD00959

>  <COMMON_NAME>
Ethinamate

>  <CAS_NUMBER>
126-52-3

>  <UNII>
IAN371PP48

>  <SYNONYMS>
1-ethynylcyclohexanol carbamate; Aethinyl-cyclohexyl-carbamat; Ethinamate; Ethinamatum; Etinamato

$$$$
