205
 OpenBabel10282417103D

 30 31  0  0  0  0  0  0  0  0999 V2000
   -2.1074   -0.0043   -0.0292 Cl  0  0  0  0  0  0  0  0  0  0  0  0
    6.0059   -0.5537   -0.9254 N   0  0  0  0  0  0  0  0  0  0  0  0
    5.9798    0.6521    1.1089 N   0  0  0  0  0  0  0  0  0  0  0  0
    4.0172    1.3613    2.1098 N   0  0  0  0  0  0  0  0  0  0  0  0
    7.9768    0.0988    0.0771 N   0  0  0  0  0  0  0  0  0  0  0  0
    3.8909    0.0222    0.0787 C   0  0  0  0  0  0  0  0  0  0  0  0
    4.6533   -0.5650   -0.9323 C   0  0  0  0  0  0  0  0  0  0  0  0
    4.0207   -1.2411   -2.1290 C   0  0  0  0  0  0  0  0  0  0  0  0
    2.4189    0.0139    0.0731 C   0  0  0  0  0  0  0  0  0  0  0  0
    4.6382    0.6224    1.0987 C   0  0  0  0  0  0  0  0  0  0  0  0
    1.6956    1.2163    0.0149 C   0  0  0  0  0  0  0  0  0  0  0  0
    1.6993   -1.1963    0.0924 C   0  0  0  0  0  0  0  0  0  0  0  0
    4.3965   -0.5590   -3.4310 C   0  0  0  0  0  0  0  0  0  0  0  0
    6.6161    0.0657    0.0894 C   0  0  0  0  0  0  0  0  0  0  0  0
    0.3000    1.2118   -0.0088 C   0  0  0  0  0  0  0  0  0  0  0  0
    0.3051   -1.2043    0.0303 C   0  0  0  0  0  0  0  0  0  0  0  0
   -0.3886    0.0015   -0.0027 C   0  0  0  0  0  0  0  0  0  0  0  0
    4.6661    1.5851    2.8570 H   0  0  0  0  0  0  0  0  0  0  0  0
    3.1044    1.0395    2.4038 H   0  0  0  0  0  0  0  0  0  0  0  0
    8.4371    0.6663    0.7690 H   0  0  0  0  0  0  0  0  0  0  0  0
    8.4449   -0.2552   -0.7410 H   0  0  0  0  0  0  0  0  0  0  0  0
    4.3177   -2.2962   -2.1383 H   0  0  0  0  0  0  0  0  0  0  0  0
    2.9306   -1.2344   -2.0872 H   0  0  0  0  0  0  0  0  0  0  0  0
    2.2244    2.1691   -0.0113 H   0  0  0  0  0  0  0  0  0  0  0  0
    2.2283   -2.1489    0.1139 H   0  0  0  0  0  0  0  0  0  0  0  0
    5.4713   -0.6231   -3.6202 H   0  0  0  0  0  0  0  0  0  0  0  0
    3.8700   -1.0354   -4.2638 H   0  0  0  0  0  0  0  0  0  0  0  0
    4.1115    0.4985   -3.4087 H   0  0  0  0  0  0  0  0  0  0  0  0
   -0.2385    2.1548   -0.0390 H   0  0  0  0  0  0  0  0  0  0  0  0
   -0.2270   -2.1514    0.0025 H   0  0  0  0  0  0  0  0  0  0  0  0
  1 17  1  0  0  0  0
  2  7  1  0  0  0  0
  2 14  2  0  0  0  0
  3 10  2  0  0  0  0
  3 14  1  0  0  0  0
  4 10  1  0  0  0  0
  4 18  1  0  0  0  0
  4 19  1  0  0  0  0
  5 14  1  0  0  0  0
  5 20  1  0  0  0  0
  5 21  1  0  0  0  0
  6  7  2  0  0  0  0
  6  9  1  0  0  0  0
  6 10  1  0  0  0  0
  7  8  1  0  0  0  0
  8 13  1  0  0  0  0
  8 22  1  0  0  0  0
  8 23  1  0  0  0  0
  9 11  2  0  0  0  0
  9 12  1  0  0  0  0
 11 15  1  0  0  0  0
 11 24  1  0  0  0  0
 12 16  2  0  0  0  0
 12 25  1  0  0  0  0
 13 26  1  0  0  0  0
 13 27  1  0  0  0  0
 13 28  1  0  0  0  0
 15 17  2  0  0  0  0
 15 29  1  0  0  0  0
 16 17  1  0  0  0  0
 16 30  1  0  0  0  0
M  END
>  <DRUGBANK_ID>
DB00205

>  <SECONDARY_ACCESSION_NUMBERS>
APRD00599

>  <COMMON_NAME>
Pyrimethamine

>  <CAS_NUMBER>
58-14-0

>  <UNII>
Z3614QOX8W

>  <SYNONYMS>
2,4-Diamino-5-(4-chlorophenyl)-6-ethylpyrimidine; 2,4-Diamino-5-(P-chlorophenyl)-6-ethylpyrimidine; 2,4-Diamino-5-chlorophenyl-6-ethylpyrimidine; 5-(4-Chlorophenyl)-6-ethyl-2,4-diaminopyrimidine; 5-(4-Chlorophenyl)-6-ethyl-2,4-pyrimidinediamine; 5-(4'-Chlorophenyl)-2,4-diamino-6-ethylpyrimidine; CD; Chloridine; Chloridyn; Diaminopyritamin; Ethylpyrimidine; Pirimetamina; Primethamine; Pyrimethamine; Pyrim√©thamine; Pyrimethaminum

$$$$
