
 OpenBabel10282417153D

 69 72  0  0  0  0  0  0  0  0999 V2000
    1.2256   -1.3450    0.0001 C   0  0  0  0  0  0  0  0  0  0  0  0
    2.3949   -0.6814   -0.0021 N   0  0  0  0  0  0  0  0  0  0  0  0
    2.3288    0.6491   -0.0025 C   0  0  0  0  0  0  0  0  0  0  0  0
    1.1928    1.3460    0.0016 N   0  0  0  0  0  0  0  0  0  0  0  0
    0.0407    0.6702    0.0027 C   0  0  0  0  0  0  0  0  0  0  0  0
   -0.0181   -0.7253   -0.0005 C   0  0  0  0  0  0  0  0  0  0  0  0
   -1.1139    1.3606    0.0058 N   0  0  0  0  0  0  0  0  0  0  0  0
   -2.2835    0.6699   -0.0150 C   0  0  0  0  0  0  0  0  0  0  0  0
   -2.3391   -0.7080   -0.0422 C   0  0  0  0  0  0  0  0  0  0  0  0
   -1.1952   -1.4272   -0.0140 N   0  0  0  0  0  0  0  0  0  0  0  0
   -3.6581   -1.4368   -0.0804 C   0  0  0  0  0  0  0  0  0  0  0  0
   -3.7968   -2.2490   -1.2970 N   0  0  0  0  0  0  0  0  0  0  0  0
   -3.8563   -3.6181   -1.1557 C   0  0  0  0  0  0  0  0  0  0  0  0
   -4.7306   -4.1032   -0.2290 C   0  0  0  0  0  0  0  0  0  0  0  0
   -4.8782   -5.4535   -0.0593 C   0  0  0  0  0  0  0  0  0  0  0  0
   -4.0698   -6.4229   -0.6345 C   0  0  0  0  0  0  0  0  0  0  0  0
   -3.0691   -5.9231   -1.4723 C   0  0  0  0  0  0  0  0  0  0  0  0
   -3.0526   -4.5469   -1.8222 C   0  0  0  0  0  0  0  0  0  0  0  0
   -4.2465   -7.9129   -0.4672 C   0  0  0  0  0  0  0  0  0  0  0  0
   -3.4528   -8.6789   -1.0157 O   0  0  0  0  0  0  0  0  0  0  0  0
   -5.2800   -8.4811    0.2485 N   0  0  0  0  0  0  0  0  0  0  0  0
   -6.3649   -7.9049    1.0300 C   0  0  1  0  0  0  0  0  0  0  0  0
   -7.7250   -8.0945    0.3604 C   0  0  0  0  0  0  0  0  0  0  0  0
   -8.2689   -9.4950    0.5179 C   0  0  0  0  0  0  0  0  0  0  0  0
   -8.3979   -9.9050    1.9803 C   0  0  0  0  0  0  0  0  0  0  0  0
   -9.1556   -8.9712    2.7998 N   0  0  0  0  0  0  0  0  0  0  0  0
  -10.2963   -9.3968    3.4453 C   0  0  0  0  0  0  0  0  0  0  0  0
  -11.2101   -8.3477    3.9754 C   0  0  0  0  0  0  0  0  0  0  0  0
  -10.5670  -10.5762    3.6379 O   0  0  0  0  0  0  0  0  0  0  0  0
  -11.7396   -7.2804    3.2191 C   0  0  0  0  0  0  0  0  0  0  0  0
  -12.6184   -6.3870    3.8602 C   0  0  0  0  0  0  0  0  0  0  0  0
  -12.8186   -6.4375    5.2407 C   0  0  0  0  0  0  0  0  0  0  0  0
  -12.2392   -7.4525    5.9872 C   0  0  0  0  0  0  0  0  0  0  0  0
  -11.5563   -8.4766    5.3350 C   0  0  0  0  0  0  0  0  0  0  0  0
  -11.4035   -7.1076    1.7654 C   0  0  0  0  0  0  0  0  0  0  0  0
  -11.7951   -5.9516    1.1817 O   0  0  0  0  0  0  0  0  0  0  0  0
  -10.7529   -7.8871    1.1248 O   0  0  0  0  0  0  0  0  0  0  0  0
   -6.1059   -7.9226    2.5680 C   0  0  0  0  0  0  0  0  0  0  0  0
   -6.1064   -6.7065    3.1759 O   0  0  0  0  0  0  0  0  0  0  0  0
   -5.8293   -8.9131    3.2270 O   0  0  0  0  0  0  0  0  0  0  0  0
    1.2902   -2.7334    0.0189 N   0  0  0  0  0  0  0  0  0  0  0  0
    3.5076    1.3416   -0.0054 N   0  0  0  0  0  0  0  0  0  0  0  0
   -3.1850    1.2754   -0.0120 H   0  0  0  0  0  0  0  0  0  0  0  0
   -3.7206   -2.0239    0.8498 H   0  0  0  0  0  0  0  0  0  0  0  0
   -4.5028   -0.7391   -0.0404 H   0  0  0  0  0  0  0  0  0  0  0  0
   -3.4924   -1.8654   -2.1791 H   0  0  0  0  0  0  0  0  0  0  0  0
   -5.4038   -3.4553    0.3252 H   0  0  0  0  0  0  0  0  0  0  0  0
   -5.7348   -5.5407    0.5450 H   0  0  0  0  0  0  0  0  0  0  0  0
   -2.3048   -6.5877   -1.8771 H   0  0  0  0  0  0  0  0  0  0  0  0
   -2.3978   -4.2204   -2.6236 H   0  0  0  0  0  0  0  0  0  0  0  0
   -5.2444   -9.4972    0.2364 H   0  0  0  0  0  0  0  0  0  0  0  0
   -6.3706   -6.8767    0.8822 H   0  0  0  0  0  0  0  0  0  0  0  0
   -8.4238   -7.3376    0.7404 H   0  0  0  0  0  0  0  0  0  0  0  0
   -7.6472   -7.8574   -0.7162 H   0  0  0  0  0  0  0  0  0  0  0  0
   -9.2261   -9.5837   -0.0067 H   0  0  0  0  0  0  0  0  0  0  0  0
   -7.5753  -10.1794    0.0173 H   0  0  0  0  0  0  0  0  0  0  0  0
   -8.8050  -10.9104    2.0562 H   0  0  0  0  0  0  0  0  0  0  0  0
   -7.4051   -9.9976    2.3921 H   0  0  0  0  0  0  0  0  0  0  0  0
   -9.0514   -7.9779    2.6396 H   0  0  0  0  0  0  0  0  0  0  0  0
  -13.1720   -5.6252    3.3253 H   0  0  0  0  0  0  0  0  0  0  0  0
  -13.4458   -5.6936    5.7279 H   0  0  0  0  0  0  0  0  0  0  0  0
  -12.3296   -7.4547    7.0713 H   0  0  0  0  0  0  0  0  0  0  0  0
  -11.2801   -9.3706    5.8948 H   0  0  0  0  0  0  0  0  0  0  0  0
  -12.4028   -5.3619    1.6459 H   0  0  0  0  0  0  0  0  0  0  0  0
   -5.9055   -5.9322    2.6221 H   0  0  0  0  0  0  0  0  0  0  0  0
    0.4179   -3.2483   -0.0167 H   0  0  0  0  0  0  0  0  0  0  0  0
    2.1861   -3.1918   -0.0034 H   0  0  0  0  0  0  0  0  0  0  0  0
    3.4829    2.3470   -0.0121 H   0  0  0  0  0  0  0  0  0  0  0  0
    4.3707    0.8249   -0.0144 H   0  0  0  0  0  0  0  0  0  0  0  0
  1  2  1  0  0  0  0
  1  6  2  0  0  0  0
  1 41  1  0  0  0  0
  2  3  2  0  0  0  0
  3  4  1  0  0  0  0
  3 42  1  0  0  0  0
  4  5  2  0  0  0  0
  5  7  1  0  0  0  0
  5  6  1  0  0  0  0
  6 10  1  0  0  0  0
  7  8  2  0  0  0  0
  8  9  1  0  0  0  0
  8 43  1  0  0  0  0
  9 10  2  0  0  0  0
  9 11  1  0  0  0  0
 11 12  1  0  0  0  0
 11 44  1  0  0  0  0
 11 45  1  0  0  0  0
 12 13  1  0  0  0  0
 12 46  1  0  0  0  0
 13 14  1  0  0  0  0
 13 18  2  0  0  0  0
 14 15  2  0  0  0  0
 14 47  1  0  0  0  0
 15 16  1  0  0  0  0
 15 48  1  0  0  0  0
 16 17  2  0  0  0  0
 16 19  1  0  0  0  0
 17 18  1  0  0  0  0
 17 49  1  0  0  0  0
 18 50  1  0  0  0  0
 19 20  2  0  0  0  0
 19 21  1  0  0  0  0
 21 22  1  0  0  0  0
 21 51  1  0  0  0  0
 22 23  1  0  0  0  0
 22 38  1  0  0  0  0
 22 52  1  6  0  0  0
 23 24  1  0  0  0  0
 23 53  1  0  0  0  0
 23 54  1  0  0  0  0
 24 25  1  0  0  0  0
 24 55  1  0  0  0  0
 24 56  1  0  0  0  0
 25 26  1  0  0  0  0
 25 57  1  0  0  0  0
 25 58  1  0  0  0  0
 26 27  1  0  0  0  0
 26 59  1  0  0  0  0
 27 28  1  0  0  0  0
 27 29  2  0  0  0  0
 28 30  1  0  0  0  0
 28 34  2  0  0  0  0
 30 31  2  0  0  0  0
 30 35  1  0  0  0  0
 31 32  1  0  0  0  0
 31 60  1  0  0  0  0
 32 33  2  0  0  0  0
 32 61  1  0  0  0  0
 33 34  1  0  0  0  0
 33 62  1  0  0  0  0
 34 63  1  0  0  0  0
 35 36  1  0  0  0  0
 35 37  2  0  0  0  0
 36 64  1  0  0  0  0
 38 39  1  0  0  0  0
 38 40  2  0  0  0  0
 39 65  1  0  0  0  0
 41 66  1  0  0  0  0
 41 67  1  0  0  0  0
 42 68  1  0  0  0  0
 42 69  1  0  0  0  0
M  END
>  <DRUGBANK_ID>
DB06178

>  <COMMON_NAME>
Talotrexin

>  <CAS_NUMBER>
113857-87-7

>  <UNII>
A8E516A20K

>  <SYNONYMS>
Talotrexin

$$$$
