
 OpenBabel10282417133D

 51 52  0  0  0  0  0  0  0  0999 V2000
    1.0897    0.2390   -0.4389 O   0  0  0  0  0  0  0  0  0  0  0  0
    0.0814    1.1960    3.2981 O   0  0  0  0  0  0  0  0  0  0  0  0
    3.1120   -1.0249    0.7370 O   0  0  0  0  0  0  0  0  0  0  0  0
   -0.0435   -2.0399    0.3099 O   0  0  0  0  0  0  0  0  0  0  0  0
    4.5045    1.3631    0.4028 O   0  0  0  0  0  0  0  0  0  0  0  0
    2.0861    1.4889    3.0146 O   0  0  0  0  0  0  0  0  0  0  0  0
    3.7484    0.5315    4.1294 O   0  0  0  0  0  0  0  0  0  0  0  0
    2.0334   -0.4145    4.4597 O   0  0  0  0  0  0  0  0  0  0  0  0
    0.8388    3.7732    1.9984 O   0  0  0  0  0  0  0  0  0  0  0  0
    0.2729   -2.9343    2.0782 O   0  0  0  0  0  0  0  0  0  0  0  0
    1.5482   -3.6454    6.2072 O   0  0  0  0  0  0  0  0  0  0  0  0
    1.1040   -2.6221    4.2880 N   0  0  0  0  0  0  0  0  0  0  0  0
    0.3614    0.2101    0.7227 C   0  0  1  0  0  0  0  0  0  0  0  0
    1.1678   -1.1995    1.2291 C   0  0  1  0  0  0  0  0  0  0  0  0
    1.0010   -1.3843    3.5867 C   0  0  2  0  0  0  0  0  0  0  0  0
    0.3469    1.4294    1.6750 C   0  0  1  0  0  0  0  0  0  0  0  0
    2.5241    0.1296   -0.0938 C   0  0  2  0  0  0  0  0  0  0  0  0
    3.1080    1.3824    0.6023 C   0  0  1  0  0  0  0  0  0  0  0  0
    3.1484    1.4726    2.1524 C   0  0  2  0  0  0  0  0  0  0  0  0
    3.5712    0.1610    2.7280 C   0  0  2  0  0  0  0  0  0  0  0  0
    0.7299    0.0223    4.2588 C   0  0  2  0  0  0  0  0  0  0  0  0
    2.3795   -1.1968    2.4003 C   0  0  1  0  0  0  0  0  0  0  0  0
    0.1494    2.8113    1.2033 C   0  0  0  0  0  0  0  0  0  0  0  0
    0.0726   -1.4652    2.3137 C   0  0  0  0  0  0  0  0  0  0  0  0
    1.2679   -2.5978    5.6451 C   0  0  0  0  0  0  0  0  0  0  0  0
    1.1389   -1.2834    6.4567 C   0  0  0  0  0  0  0  0  0  0  0  0
    1.1031   -3.4101    3.6398 H   0  0  0  0  0  0  0  0  0  0  0  0
   -0.6529   -2.4333    1.0154 H   0  0  0  0  0  0  0  0  0  0  0  0
    4.7997    0.5585    0.8747 H   0  0  0  0  0  0  0  0  0  0  0  0
    1.6909    0.7059    2.6458 H   0  0  0  0  0  0  0  0  0  0  0  0
    3.5874   -0.3179    4.6083 H   0  0  0  0  0  0  0  0  0  0  0  0
    2.3765    0.3178    3.9898 H   0  0  0  0  0  0  0  0  0  0  0  0
    0.6042    3.6349    2.9368 H   0  0  0  0  0  0  0  0  0  0  0  0
    0.7140   -3.0949    1.1513 H   0  0  0  0  0  0  0  0  0  0  0  0
   -0.7510    0.0780    0.7406 H   0  0  0  0  0  0  0  0  0  0  0  0
    1.7969   -2.0705    0.9366 H   0  0  0  0  0  0  0  0  0  0  0  0
   -0.3934   -1.3454    3.9090 H   0  0  0  0  0  0  0  0  0  0  0  0
    1.3290    1.6460    1.4170 H   0  0  0  0  0  0  0  0  0  0  0  0
    2.8818    0.0125   -1.1154 H   0  0  0  0  0  0  0  0  0  0  0  0
    2.6262    2.2415    0.1326 H   0  0  0  0  0  0  0  0  0  0  0  0
    3.2813    2.4578    2.5645 H   0  0  0  0  0  0  0  0  0  0  0  0
    4.5692   -0.1117    2.5356 H   0  0  0  0  0  0  0  0  0  0  0  0
    0.4143    0.2985    5.2295 H   0  0  0  0  0  0  0  0  0  0  0  0
    2.9095   -2.1340    2.7048 H   0  0  0  0  0  0  0  0  0  0  0  0
    0.5949    2.8087    0.1917 H   0  0  0  0  0  0  0  0  0  0  0  0
   -0.9044    2.7907    1.3157 H   0  0  0  0  0  0  0  0  0  0  0  0
    0.5834   -0.3323    2.4736 H   0  0  0  0  0  0  0  0  0  0  0  0
   -0.5736   -0.5366    2.2887 H   0  0  0  0  0  0  0  0  0  0  0  0
    1.9055   -0.5110    6.2468 H   0  0  0  0  0  0  0  0  0  0  0  0
    0.1138   -0.8839    6.3866 H   0  0  0  0  0  0  0  0  0  0  0  0
    1.3371   -1.4080    7.4941 H   0  0  0  0  0  0  0  0  0  0  0  0
  2 16  1  0  0  0  0
  2 21  1  0  0  0  0
  3 17  1  0  0  0  0
  3 22  1  0  0  0  0
  4 28  1  0  0  0  0
  5 29  1  0  0  0  0
  6 30  1  0  0  0  0
  7 31  1  0  0  0  0
  8 32  1  0  0  0  0
  9 23  1  0  0  0  0
  9 33  1  0  0  0  0
 10 24  1  0  0  0  0
 10 34  1  0  0  0  0
 11 25  2  0  0  0  0
 12 25  1  0  0  0  0
 12 27  1  0  0  0  0
 13  1  1  0  0  0  0
 13 14  1  0  0  0  0
 13 16  1  0  0  0  0
 13 35  1  6  0  0  0
 14  4  1  0  0  0  0
 14 15  1  0  0  0  0
 14 36  1  6  0  0  0
 15 21  1  0  0  0  0
 15 37  1  6  0  0  0
 15 12  1  0  0  0  0
 16 23  1  0  0  0  0
 16 38  1  1  0  0  0
 17  1  1  0  0  0  0
 17 18  1  0  0  0  0
 17 39  1  6  0  0  0
 18  5  1  0  0  0  0
 18 19  1  0  0  0  0
 18 40  1  6  0  0  0
 19 20  1  0  0  0  0
 19 41  1  1  0  0  0
 19  6  1  0  0  0  0
 20 22  1  0  0  0  0
 20 42  1  6  0  0  0
 20  7  1  0  0  0  0
 21  8  1  0  0  0  0
 21 43  1  1  0  0  0
 22 24  1  0  0  0  0
 22 44  1  1  0  0  0
 23 45  1  0  0  0  0
 23 46  1  0  0  0  0
 24 47  1  0  0  0  0
 24 48  1  0  0  0  0
 25 26  1  0  0  0  0
 26 49  1  0  0  0  0
 26 50  1  0  0  0  0
 26 51  1  0  0  0  0
M  END
>  <DRUGBANK_ID>
DB03618

>  <SECONDARY_ACCESSION_NUMBERS>
EXPT02354

>  <COMMON_NAME>
2-(acetylamino)-2-deoxy-4-O-beta-D-galactopyranosyl-alpha-D-glucopyranose

$$$$
