
 OpenBabel10282417193D

 38 40  0  0  0  0  0  0  0  0999 V2000
    1.0533    0.1214    0.1349 C   0  0  0  0  0  0  0  0  0  0  0  0
   -5.8514    4.9206   -3.4963 C   0  0  0  0  0  0  0  0  0  0  0  0
   -5.9625    3.5936   -3.1787 C   0  0  0  0  0  0  0  0  0  0  0  0
   -4.5952    5.5329   -3.5325 C   0  0  0  0  0  0  0  0  0  0  0  0
   -2.9010   -1.5356   -1.5620 C   0  0  0  0  0  0  0  0  0  0  0  0
   -3.9058   -0.8754   -2.2344 C   0  0  0  0  0  0  0  0  0  0  0  0
   -4.8345    2.9502   -2.6981 C   0  0  0  0  0  0  0  0  0  0  0  0
   -3.4354    4.7613   -3.3590 C   0  0  0  0  0  0  0  0  0  0  0  0
   -1.6206   -0.9778   -1.5253 C   0  0  0  0  0  0  0  0  0  0  0  0
   -3.6206    0.3407   -2.8448 C   0  0  0  0  0  0  0  0  0  0  0  0
   -0.4997    2.0599    0.3718 C   0  0  0  0  0  0  0  0  0  0  0  0
   -1.8928    2.4739   -0.1791 C   0  0  0  0  0  0  0  0  0  0  0  0
   -0.0110    1.0076   -1.8544 C   0  0  0  0  0  0  0  0  0  0  0  0
   -3.5470    3.4374   -2.9313 C   0  0  0  0  0  0  0  0  0  0  0  0
   -1.3619    0.3214   -2.0137 C   0  0  0  0  0  0  0  0  0  0  0  0
   -2.4354    1.0495   -2.5617 C   0  0  0  0  0  0  0  0  0  0  0  0
   -2.3196    2.5966   -2.6121 C   0  0  3  0  0  0  0  0  0  0  0  0
    0.3949    1.2563   -0.4806 N   0  0  0  0  0  0  0  0  0  0  0  0
   -1.7685    3.1980   -1.4085 O   0  0  0  0  0  0  0  0  0  0  0  0
    0.8822   -0.8034   -0.4209 H   0  0  0  0  0  0  0  0  0  0  0  0
    0.7313   -0.0653    1.1617 H   0  0  0  0  0  0  0  0  0  0  0  0
    2.1380    0.2599    0.1226 H   0  0  0  0  0  0  0  0  0  0  0  0
   -6.7603    5.4995   -3.6434 H   0  0  0  0  0  0  0  0  0  0  0  0
   -6.9067    3.0576   -3.1855 H   0  0  0  0  0  0  0  0  0  0  0  0
   -4.5223    6.6024   -3.6739 H   0  0  0  0  0  0  0  0  0  0  0  0
   -3.1029   -2.4960   -1.0967 H   0  0  0  0  0  0  0  0  0  0  0  0
   -4.9146   -1.2806   -2.2761 H   0  0  0  0  0  0  0  0  0  0  0  0
   -4.9966    2.0627   -2.1121 H   0  0  0  0  0  0  0  0  0  0  0  0
   -2.4592    5.2336   -3.4733 H   0  0  0  0  0  0  0  0  0  0  0  0
   -0.8509   -1.5639   -1.0411 H   0  0  0  0  0  0  0  0  0  0  0  0
   -4.4103    0.7576   -3.4600 H   0  0  0  0  0  0  0  0  0  0  0  0
    0.0398    2.9814    0.6325 H   0  0  0  0  0  0  0  0  0  0  0  0
   -0.6786    1.5440    1.3233 H   0  0  0  0  0  0  0  0  0  0  0  0
   -2.5504    1.6027   -0.2318 H   0  0  0  0  0  0  0  0  0  0  0  0
   -2.3852    3.1335    0.5435 H   0  0  0  0  0  0  0  0  0  0  0  0
    0.7402    0.4324   -2.4088 H   0  0  0  0  0  0  0  0  0  0  0  0
    0.0296    1.9713   -2.3731 H   0  0  0  0  0  0  0  0  0  0  0  0
   -1.5996    2.8069   -3.4188 H   0  0  0  0  0  0  0  0  0  0  0  0
  1 20  1  0  0  0  0
  1 21  1  0  0  0  0
  1 22  1  0  0  0  0
  2 23  1  0  0  0  0
  3  2  2  0  0  0  0
  3 24  1  0  0  0  0
  4  2  1  0  0  0  0
  4 25  1  0  0  0  0
  5 26  1  0  0  0  0
  6  5  2  0  0  0  0
  6 27  1  0  0  0  0
  7  3  1  0  0  0  0
  7 28  1  0  0  0  0
  8  4  2  0  0  0  0
  8 29  1  0  0  0  0
  9  5  1  0  0  0  0
  9 30  1  0  0  0  0
 10  6  1  0  0  0  0
 10 31  1  0  0  0  0
 11 32  1  0  0  0  0
 11 33  1  0  0  0  0
 12 11  1  0  0  0  0
 12 34  1  0  0  0  0
 12 35  1  0  0  0  0
 13 36  1  0  0  0  0
 13 37  1  0  0  0  0
 14  7  2  0  0  0  0
 14  8  1  0  0  0  0
 15  9  2  0  0  0  0
 15 13  1  0  0  0  0
 16 10  2  0  0  0  0
 16 15  1  0  0  0  0
 17 14  1  0  0  0  0
 17 16  1  0  0  0  0
 17 38  1  0  0  0  0
 18  1  1  0  0  0  0
 18 11  1  0  0  0  0
 18 13  1  0  0  0  0
 19 12  1  0  0  0  0
 19 17  1  0  0  0  0
M  END
>  <DRUGBANK_ID>
DB12293

>  <COMMON_NAME>
Nefopam

>  <CAS_NUMBER>
13669-70-0

>  <UNII>
4UP8060B7J

>  <SYNONYMS>
Nefopam

$$$$
