
 OpenBabel10282417123D

 60 59  0  0  1  0  0  0  0  0999 V2000
    7.8406    0.1008    0.1964 C   0  0  0  0  0  0  0  0  0  0  0  0
    6.5219    0.7236    0.6253 C   0  0  0  0  0  0  0  0  0  0  0  0
    5.3457   -0.0887    0.0811 C   0  0  0  0  0  0  0  0  0  0  0  0
    5.3734   -1.5293    0.6036 C   0  0  0  0  0  0  0  0  0  0  0  0
    5.3315   -1.5557    2.1366 C   0  0  0  0  0  0  0  0  0  0  0  0
    4.0352   -0.9240    2.6451 C   0  0  0  0  0  0  0  0  0  0  0  0
    2.8411   -1.7349    2.1525 C   0  0  0  0  0  0  0  0  0  0  0  0
    2.9189   -3.1943    2.6223 C   0  0  0  0  0  0  0  0  0  0  0  0
    1.7734   -4.1195    6.2425 C   0  0  0  0  0  0  0  0  0  0  0  0
    0.5824   -3.5855    7.0587 C   0  0  0  0  0  0  0  0  0  0  0  0
    0.7255   -4.5505    3.9238 C   0  0  0  0  0  0  0  0  0  0  0  0
   -0.4521   -0.1754    6.8774 C   0  0  0  0  0  0  0  0  0  0  0  0
   -0.1036   -3.5604    3.0270 C   0  0  2  0  0  0  0  0  0  0  0  0
   -1.2305   -0.9036    5.7447 C   0  0  1  0  0  0  0  0  0  0  0  0
    2.8637   -3.3014    4.1598 C   0  0  0  0  0  0  0  0  0  0  0  0
   -1.0711   -2.6055    3.7504 C   0  0  2  0  0  0  0  0  0  0  0  0
   -0.3432   -1.6404    4.7226 C   0  0  1  0  0  0  0  0  0  0  0  0
    1.7621   -3.9294    4.7517 N   0  0  0  0  0  0  0  0  0  0  0  0
   -0.6976   -4.0988    6.7271 O   0  0  0  0  0  0  0  0  0  0  0  0
   -1.3292    0.6252    7.6624 O   0  0  0  0  0  0  0  0  0  0  0  0
   -0.8387   -4.3594    2.0858 O   0  0  0  0  0  0  0  0  0  0  0  0
   -2.2304   -1.7592    6.3027 O   0  0  0  0  0  0  0  0  0  0  0  0
    3.7549   -2.8280    4.8427 O   0  0  0  0  0  0  0  0  0  0  0  0
   -2.0112   -3.4739    4.3936 O   0  0  0  0  0  0  0  0  0  0  0  0
    0.4973   -0.7174    4.0477 O   0  0  0  0  0  0  0  0  0  0  0  0
    0.5204   -2.9146    2.4225 H   0  0  0  0  0  0  0  0  0  0  0  0
   -1.7661   -0.1377    5.1806 H   0  0  0  0  0  0  0  0  0  0  0  0
   -1.6115   -2.0142    3.0031 H   0  0  0  0  0  0  0  0  0  0  0  0
    0.3366   -2.2661    5.2409 H   0  0  0  0  0  0  0  0  0  0  0  0
    7.9552   -0.9216    0.5714 H   0  0  0  0  0  0  0  0  0  0  0  0
    8.6838    0.6736    0.5833 H   0  0  0  0  0  0  0  0  0  0  0  0
    7.8956    0.0658   -0.8955 H   0  0  0  0  0  0  0  0  0  0  0  0
    6.4847    0.7919    1.7190 H   0  0  0  0  0  0  0  0  0  0  0  0
    6.4538    1.7544    0.2673 H   0  0  0  0  0  0  0  0  0  0  0  0
    4.4049    0.4062    0.3513 H   0  0  0  0  0  0  0  0  0  0  0  0
    5.3606   -0.0947   -1.0131 H   0  0  0  0  0  0  0  0  0  0  0  0
    4.5425   -2.0924    0.1651 H   0  0  0  0  0  0  0  0  0  0  0  0
    6.2591   -2.0651    0.2526 H   0  0  0  0  0  0  0  0  0  0  0  0
    5.4465   -2.5853    2.4864 H   0  0  0  0  0  0  0  0  0  0  0  0
    6.1885   -1.0452    2.5818 H   0  0  0  0  0  0  0  0  0  0  0  0
    4.0456   -0.8523    3.7350 H   0  0  0  0  0  0  0  0  0  0  0  0
    3.9364    0.1187    2.3261 H   0  0  0  0  0  0  0  0  0  0  0  0
    1.9286   -1.2385    2.4666 H   0  0  0  0  0  0  0  0  0  0  0  0
    2.7703   -1.7042    1.0581 H   0  0  0  0  0  0  0  0  0  0  0  0
    2.1760   -3.7854    2.0940 H   0  0  0  0  0  0  0  0  0  0  0  0
    3.8347   -3.6864    2.2898 H   0  0  0  0  0  0  0  0  0  0  0  0
    1.9053   -5.1806    6.4533 H   0  0  0  0  0  0  0  0  0  0  0  0
    2.6422   -3.5866    6.6516 H   0  0  0  0  0  0  0  0  0  0  0  0
    0.7058   -3.7335    8.1325 H   0  0  0  0  0  0  0  0  0  0  0  0
    0.5807   -2.5090    6.9851 H   0  0  0  0  0  0  0  0  0  0  0  0
    1.2288   -5.2846    3.2764 H   0  0  0  0  0  0  0  0  0  0  0  0
    0.0810   -5.1789    4.5440 H   0  0  0  0  0  0  0  0  0  0  0  0
    0.0162   -0.8466    7.5978 H   0  0  0  0  0  0  0  0  0  0  0  0
    0.3334    0.4784    6.4896 H   0  0  0  0  0  0  0  0  0  0  0  0
   -0.8894   -4.0235    5.7716 H   0  0  0  0  0  0  0  0  0  0  0  0
   -1.8494    1.1717    7.0514 H   0  0  0  0  0  0  0  0  0  0  0  0
   -1.5495   -4.7836    2.6031 H   0  0  0  0  0  0  0  0  0  0  0  0
   -1.7999   -2.4376    6.8671 H   0  0  0  0  0  0  0  0  0  0  0  0
   -2.7457   -2.9011    4.7024 H   0  0  0  0  0  0  0  0  0  0  0  0
    0.9730   -0.1774    4.7054 H   0  0  0  0  0  0  0  0  0  0  0  0
  1 30  1  0  0  0  0
  1 31  1  0  0  0  0
  1 32  1  0  0  0  0
  2  1  1  0  0  0  0
  2 33  1  0  0  0  0
  2 34  1  0  0  0  0
  3  2  1  0  0  0  0
  3 35  1  0  0  0  0
  3 36  1  0  0  0  0
  4  3  1  0  0  0  0
  4 37  1  0  0  0  0
  4 38  1  0  0  0  0
  5  4  1  0  0  0  0
  5 39  1  0  0  0  0
  5 40  1  0  0  0  0
  6  5  1  0  0  0  0
  6 41  1  0  0  0  0
  6 42  1  0  0  0  0
  7  6  1  0  0  0  0
  7 43  1  0  0  0  0
  7 44  1  0  0  0  0
  8  7  1  0  0  0  0
  8 45  1  0  0  0  0
  8 46  1  0  0  0  0
  9 47  1  0  0  0  0
  9 48  1  0  0  0  0
 10  9  1  0  0  0  0
 10 49  1  0  0  0  0
 10 50  1  0  0  0  0
 11 51  1  0  0  0  0
 11 52  1  0  0  0  0
 12 53  1  0  0  0  0
 12 54  1  0  0  0  0
 13 21  1  0  0  0  0
 13 26  1  6  0  0  0
 13 16  1  0  0  0  0
 13 11  1  0  0  0  0
 14 22  1  0  0  0  0
 14 27  1  6  0  0  0
 14 17  1  0  0  0  0
 14 12  1  0  0  0  0
 15  8  1  0  0  0  0
 16 28  1  6  0  0  0
 16 24  1  0  0  0  0
 16 17  1  0  0  0  0
 17 29  1  1  0  0  0
 17 25  1  0  0  0  0
 18  9  1  0  0  0  0
 18 11  1  0  0  0  0
 18 15  1  0  0  0  0
 19 10  1  0  0  0  0
 19 55  1  0  0  0  0
 20 12  1  0  0  0  0
 20 56  1  0  0  0  0
 21 57  1  0  0  0  0
 22 58  1  0  0  0  0
 23 15  2  0  0  0  0
 24 59  1  0  0  0  0
 25 60  1  0  0  0  0
M  END
>  <DRUGBANK_ID>
DB01970

>  <SECONDARY_ACCESSION_NUMBERS>
EXPT01736

>  <COMMON_NAME>
Hg9a-9, Nonanoyl-N-Hydroxyethylglucamide

$$$$
