46937143
 OpenBabel10282417173D

 42 43  0  0  1  0  0  0  0  0999 V2000
    1.0664   -0.0265    0.0559 O   0  0  0  0  0  0  0  0  0  0  0  0
    1.9607   -2.4477   -1.6254 O   0  0  0  0  0  0  0  0  0  0  0  0
   -1.5656   -3.2129   -1.2273 N   0  0  0  0  0  0  0  0  0  0  0  0
    4.9410    2.5279   -0.0071 N   0  0  0  0  0  0  0  0  0  0  0  0
    3.8784    5.8405    0.0002 N   0  0  0  0  0  0  0  0  0  0  0  0
   -2.2775   -4.4947   -1.2248 C   0  0  0  0  0  0  0  0  0  0  0  0
   -0.1184   -3.3840   -1.2552 C   0  0  0  0  0  0  0  0  0  0  0  0
    0.6153   -2.0612   -1.3272 C   0  0  1  0  0  0  0  0  0  0  0  0
   -1.9374   -5.2959    0.0402 C   0  0  0  0  0  0  0  0  0  0  0  0
   -3.7756   -4.1675   -1.2231 C   0  0  0  0  0  0  0  0  0  0  0  0
   -1.9411   -5.2968   -2.4884 C   0  0  0  0  0  0  0  0  0  0  0  0
    0.3951   -1.2842   -0.0047 C   0  0  0  0  0  0  0  0  0  0  0  0
    3.0855    1.1243    0.0809 C   0  0  0  0  0  0  0  0  0  0  0  0
    2.4169   -0.0705    0.1968 C   0  0  0  0  0  0  0  0  0  0  0  0
    2.5403    2.5063    0.0203 C   0  0  0  0  0  0  0  0  0  0  0  0
    4.4825    1.1913    0.0383 C   0  0  0  0  0  0  0  0  0  0  0  0
    3.1863   -1.2201    0.3634 C   0  0  0  0  0  0  0  0  0  0  0  0
    3.8485    3.2448    0.0037 C   0  0  0  0  0  0  0  0  0  0  0  0
    5.2343    0.0265    0.0412 C   0  0  0  0  0  0  0  0  0  0  0  0
    4.5695   -1.1926    0.1764 C   0  0  0  0  0  0  0  0  0  0  0  0
    3.9205    4.6744    0.0003 C   0  0  0  0  0  0  0  0  0  0  0  0
    2.4606   -1.6315   -1.7930 H   0  0  0  0  0  0  0  0  0  0  0  0
   -1.8447   -2.6825   -0.4031 H   0  0  0  0  0  0  0  0  0  0  0  0
    0.2069   -3.9668   -2.1220 H   0  0  0  0  0  0  0  0  0  0  0  0
    0.2475   -3.9261   -0.3732 H   0  0  0  0  0  0  0  0  0  0  0  0
    0.2821   -1.4631   -2.1783 H   0  0  0  0  0  0  0  0  0  0  0  0
   -2.1669   -4.7197    0.9450 H   0  0  0  0  0  0  0  0  0  0  0  0
   -2.5038   -6.2295    0.0716 H   0  0  0  0  0  0  0  0  0  0  0  0
   -0.8792   -5.5738    0.0839 H   0  0  0  0  0  0  0  0  0  0  0  0
   -4.0605   -3.5855   -2.1078 H   0  0  0  0  0  0  0  0  0  0  0  0
   -4.3657   -5.0894   -1.2238 H   0  0  0  0  0  0  0  0  0  0  0  0
   -4.0614   -3.5887   -0.3364 H   0  0  0  0  0  0  0  0  0  0  0  0
   -2.1670   -4.7174   -3.3919 H   0  0  0  0  0  0  0  0  0  0  0  0
   -0.8856   -5.5839   -2.5324 H   0  0  0  0  0  0  0  0  0  0  0  0
   -2.5101   -6.2283   -2.5200 H   0  0  0  0  0  0  0  0  0  0  0  0
    0.6126   -1.8765    0.8945 H   0  0  0  0  0  0  0  0  0  0  0  0
   -0.6705   -1.0347    0.0708 H   0  0  0  0  0  0  0  0  0  0  0  0
    1.9664    2.7508    0.9169 H   0  0  0  0  0  0  0  0  0  0  0  0
    1.9763    2.7038   -0.8948 H   0  0  0  0  0  0  0  0  0  0  0  0
    2.7300   -2.1962    0.5099 H   0  0  0  0  0  0  0  0  0  0  0  0
    6.3145    0.0376   -0.0371 H   0  0  0  0  0  0  0  0  0  0  0  0
    5.0997   -2.1417    0.1206 H   0  0  0  0  0  0  0  0  0  0  0  0
  1 12  1  0  0  0  0
  1 14  1  0  0  0  0
  2 22  1  0  0  0  0
  3  6  1  0  0  0  0
  3  7  1  0  0  0  0
  3 23  1  0  0  0  0
  4 16  1  0  0  0  0
  4 18  2  0  0  0  0
  5 21  3  0  0  0  0
  6  9  1  0  0  0  0
  6 10  1  0  0  0  0
  6 11  1  0  0  0  0
  7  8  1  0  0  0  0
  7 24  1  0  0  0  0
  7 25  1  0  0  0  0
  8  2  1  0  0  0  0
  8 12  1  0  0  0  0
  8 26  1  6  0  0  0
  9 27  1  0  0  0  0
  9 28  1  0  0  0  0
  9 29  1  0  0  0  0
 10 30  1  0  0  0  0
 10 31  1  0  0  0  0
 10 32  1  0  0  0  0
 11 33  1  0  0  0  0
 11 34  1  0  0  0  0
 11 35  1  0  0  0  0
 12 36  1  0  0  0  0
 12 37  1  0  0  0  0
 13 14  1  0  0  0  0
 13 15  1  0  0  0  0
 13 16  2  0  0  0  0
 14 17  2  0  0  0  0
 15 18  1  0  0  0  0
 15 38  1  0  0  0  0
 15 39  1  0  0  0  0
 16 19  1  0  0  0  0
 17 20  1  0  0  0  0
 17 40  1  0  0  0  0
 18 21  1  0  0  0  0
 19 20  2  0  0  0  0
 19 41  1  0  0  0  0
 20 42  1  0  0  0  0
M  END
>  <DRUGBANK_ID>
DB08347

>  <COMMON_NAME>
4-{[(2S)-3-(tert-butylamino)-2-hydroxypropyl]oxy}-3H-indole-2-carbonitrile

$$$$
