
 OpenBabel10282417193D

 42 44  0  0  0  0  0  0  0  0999 V2000
    1.0370   -0.0486   -0.3108 C   0  0  0  0  0  0  0  0  0  0  0  0
    0.6285   -1.4130   -0.6359 N   0  0  0  0  0  0  0  0  0  0  0  0
    1.2240   -2.5854   -0.2041 C   0  0  0  0  0  0  0  0  0  0  0  0
    0.4643   -3.6183   -0.6621 C   0  0  0  0  0  0  0  0  0  0  0  0
   -0.6070   -3.0047   -1.3070 C   0  0  0  0  0  0  0  0  0  0  0  0
   -0.5368   -1.6626   -1.2775 N   0  0  0  0  0  0  0  0  0  0  0  0
    0.7453   -5.4437   -0.3695 Br  0  0  0  0  0  0  0  0  0  0  0  0
    2.3831   -2.5940    0.6281 C   0  0  0  0  0  0  0  0  0  0  0  0
    3.5758   -3.1454    0.0860 C   0  0  0  0  0  0  0  0  0  0  0  0
    4.7766   -2.7780    0.6491 C   0  0  0  0  0  0  0  0  0  0  0  0
    4.7338   -1.6276    1.4034 C   0  0  0  0  0  0  0  0  0  0  0  0
    3.5590   -1.1868    2.0173 C   0  0  0  0  0  0  0  0  0  0  0  0
    2.3651   -1.8120    1.7751 C   0  0  0  0  0  0  0  0  0  0  0  0
    1.3368   -1.4323    2.5895 O   0  0  0  0  0  0  0  0  0  0  0  0
   -0.0108   -1.8269    2.3332 C   0  0  0  0  0  0  0  0  0  0  0  0
    5.9871   -3.4706    0.4501 N   0  0  0  0  0  0  0  0  0  0  0  0
    7.1639   -3.4236    1.1477 C   0  0  0  0  0  0  0  0  0  0  0  0
    8.1883   -3.8493    0.5719 O   0  0  0  0  0  0  0  0  0  0  0  0
    7.3124   -2.8989    2.4031 N   0  0  0  0  0  0  0  0  0  0  0  0
    6.3868   -2.6032    3.4456 C   0  0  0  0  0  0  0  0  0  0  0  0
    5.2611   -3.4047    3.6566 C   0  0  0  0  0  0  0  0  0  0  0  0
    4.1648   -2.9036    4.3776 C   0  0  0  0  0  0  0  0  0  0  0  0
    4.2135   -1.6278    4.9429 C   0  0  0  0  0  0  0  0  0  0  0  0
    5.3523   -0.8404    4.8174 C   0  0  0  0  0  0  0  0  0  0  0  0
    6.4316   -1.3269    4.0667 C   0  0  0  0  0  0  0  0  0  0  0  0
    7.3361   -0.4234    3.6475 F   0  0  0  0  0  0  0  0  0  0  0  0
    3.0663   -1.0472    5.3309 F   0  0  0  0  0  0  0  0  0  0  0  0
    0.6642    0.2440    0.6775 H   0  0  0  0  0  0  0  0  0  0  0  0
    0.6433    0.6522   -1.0440 H   0  0  0  0  0  0  0  0  0  0  0  0
    2.1293    0.0158   -0.2904 H   0  0  0  0  0  0  0  0  0  0  0  0
   -1.4486   -3.4860   -1.7791 H   0  0  0  0  0  0  0  0  0  0  0  0
    3.5261   -3.7956   -0.7848 H   0  0  0  0  0  0  0  0  0  0  0  0
    5.6627   -1.1425    1.6567 H   0  0  0  0  0  0  0  0  0  0  0  0
    3.6112   -0.4048    2.7634 H   0  0  0  0  0  0  0  0  0  0  0  0
   -0.4219   -1.2462    1.5122 H   0  0  0  0  0  0  0  0  0  0  0  0
   -0.1287   -2.8979    2.1521 H   0  0  0  0  0  0  0  0  0  0  0  0
   -0.6452   -1.5399    3.1773 H   0  0  0  0  0  0  0  0  0  0  0  0
    6.0582   -4.0362   -0.3901 H   0  0  0  0  0  0  0  0  0  0  0  0
    8.2784   -2.6590    2.5996 H   0  0  0  0  0  0  0  0  0  0  0  0
    5.1253   -4.3060    3.0640 H   0  0  0  0  0  0  0  0  0  0  0  0
    3.1948   -3.3875    4.2667 H   0  0  0  0  0  0  0  0  0  0  0  0
    5.3037    0.2070    5.1067 H   0  0  0  0  0  0  0  0  0  0  0  0
  1  2  1  0  0  0  0
  1 28  1  0  0  0  0
  1 29  1  0  0  0  0
  1 30  1  0  0  0  0
  2  3  1  0  0  0  0
  2  6  1  0  0  0  0
  3  4  2  0  0  0  0
  3  8  1  0  0  0  0
  4  5  1  0  0  0  0
  4  7  1  0  0  0  0
  5  6  2  0  0  0  0
  5 31  1  0  0  0  0
  8  9  2  0  0  0  0
  8 13  1  0  0  0  0
  9 10  1  0  0  0  0
  9 32  1  0  0  0  0
 10 11  2  0  0  0  0
 10 16  1  0  0  0  0
 11 12  1  0  0  0  0
 11 33  1  0  0  0  0
 12 13  2  0  0  0  0
 12 34  1  0  0  0  0
 13 14  1  0  0  0  0
 14 15  1  0  0  0  0
 15 35  1  0  0  0  0
 15 36  1  0  0  0  0
 15 37  1  0  0  0  0
 16 17  1  0  0  0  0
 16 38  1  0  0  0  0
 17 18  2  0  0  0  0
 17 19  1  0  0  0  0
 19 20  1  0  0  0  0
 19 39  1  0  0  0  0
 20 21  2  0  0  0  0
 20 25  1  0  0  0  0
 21 22  1  0  0  0  0
 21 40  1  0  0  0  0
 22 23  2  0  0  0  0
 22 41  1  0  0  0  0
 23 24  1  0  0  0  0
 23 27  1  0  0  0  0
 24 25  2  0  0  0  0
 24 42  1  0  0  0  0
 25 26  1  0  0  0  0
M  END
>  <DRUGBANK_ID>
DB12555

>  <SECONDARY_ACCESSION_NUMBERS>
DB05026

>  <COMMON_NAME>
Nelotanserin

>  <CAS_NUMBER>
839713-36-9

>  <UNII>
4ZA73QEW2P

>  <SYNONYMS>
Nelotanserin

$$$$
