SOX
 OpenBabel10282417173D

 44 46  0  0  0  0  0  0  0  0999 V2000
    0.9408   -0.3120    0.0864 O   0  0  0  0  0  0  0  0  0  0  0  0
    2.1520   -0.1686    0.0809 C   0  0  0  0  0  0  0  0  0  0  0  0
    3.1555   -0.9381   -0.4253 N   0  0  0  0  0  0  0  0  0  0  0  0
    3.1729   -2.3805   -0.1968 C   0  0  1  0  0  0  0  0  0  0  0  0
    4.0329   -3.0289   -1.3059 C   0  0  0  0  0  0  0  0  0  0  0  0
    3.6794   -3.9514   -2.0241 O   0  0  0  0  0  0  0  0  0  0  0  0
    5.3041   -2.5665   -1.3929 O   0  0  0  0  0  0  0  0  0  0  0  0
    3.7642   -2.5527    1.2336 C   0  0  0  0  0  0  0  0  0  0  0  0
    4.2583   -3.9596    1.5052 C   0  0  0  0  0  0  0  0  0  0  0  0
    2.7438   -2.2244    2.3289 C   0  0  0  0  0  0  0  0  0  0  0  0
    5.0816   -1.3407    1.1237 S   0  0  1  0  0  0  0  0  0  0  0  0
    4.2366   -0.1145    0.1637 C   0  0  2  0  0  0  0  0  0  0  0  0
    3.1076    0.8288    0.6889 C   0  0  2  0  0  0  0  0  0  0  0  0
    3.1019    1.1415    2.1599 N   0  0  0  0  0  0  0  0  0  0  0  0
    3.2703    2.3910    2.7186 C   0  0  0  0  0  0  0  0  0  0  0  0
    3.3553    2.4877    3.9423 O   0  0  0  0  0  0  0  0  0  0  0  0
    3.3592    3.5974    1.7880 C   0  0  0  0  0  0  0  0  0  0  0  0
    4.6375    3.6715    0.9670 C   0  0  0  0  0  0  0  0  0  0  0  0
    5.1459    4.8612    0.4739 C   0  0  0  0  0  0  0  0  0  0  0  0
    6.3355    4.8530   -0.2815 C   0  0  0  0  0  0  0  0  0  0  0  0
    6.9755    3.6632   -0.6477 C   0  0  0  0  0  0  0  0  0  0  0  0
    6.4871    2.4786   -0.1696 C   0  0  0  0  0  0  0  0  0  0  0  0
    5.3966    2.5355    0.6794 C   0  0  0  0  0  0  0  0  0  0  0  0
    5.3985   -0.7935    2.6054 O   0  0  0  0  0  0  0  0  0  0  0  0
    2.1509   -2.7598   -0.2731 H   0  0  0  0  0  0  0  0  0  0  0  0
    6.1927   -1.8135    0.5206 H   0  0  0  0  0  0  0  0  0  0  0  0
    4.8708    0.2660   -0.6445 H   0  0  0  0  0  0  0  0  0  0  0  0
    2.9809    1.7454    0.1064 H   0  0  0  0  0  0  0  0  0  0  0  0
    5.7677   -3.1320   -2.0458 H   0  0  0  0  0  0  0  0  0  0  0  0
    4.6965   -4.0274    2.5062 H   0  0  0  0  0  0  0  0  0  0  0  0
    3.4072   -4.6498    1.4626 H   0  0  0  0  0  0  0  0  0  0  0  0
    5.0106   -4.2966    0.7908 H   0  0  0  0  0  0  0  0  0  0  0  0
    2.3501   -1.2172    2.2916 H   0  0  0  0  0  0  0  0  0  0  0  0
    1.8717   -2.8780    2.2412 H   0  0  0  0  0  0  0  0  0  0  0  0
    3.1787   -2.3469    3.3259 H   0  0  0  0  0  0  0  0  0  0  0  0
    3.0732    0.4198    2.8685 H   0  0  0  0  0  0  0  0  0  0  0  0
    2.4609    3.5911    1.1520 H   0  0  0  0  0  0  0  0  0  0  0  0
    3.2799    4.4946    2.4118 H   0  0  0  0  0  0  0  0  0  0  0  0
    4.6695    5.8049    0.7251 H   0  0  0  0  0  0  0  0  0  0  0  0
    6.7912    5.7938   -0.5669 H   0  0  0  0  0  0  0  0  0  0  0  0
    7.8801    3.6508   -1.2451 H   0  0  0  0  0  0  0  0  0  0  0  0
    6.9599    1.5189   -0.3656 H   0  0  0  0  0  0  0  0  0  0  0  0
    5.1898    1.6140    1.1778 H   0  0  0  0  0  0  0  0  0  0  0  0
    4.8402   -0.1642    3.1095 H   0  0  0  0  0  0  0  0  0  0  0  0
  1  2  2  0  0  0  0
  2 13  1  0  0  0  0
  3  2  1  0  0  0  0
  3  4  1  0  0  0  0
  3 12  1  0  0  0  0
  4  5  1  0  0  0  0
  4  8  1  0  0  0  0
  4 25  1  6  0  0  0
  5  6  2  0  0  0  0
  5  7  1  0  0  0  0
  7 29  1  0  0  0  0
  8  9  1  0  0  0  0
  8 10  1  0  0  0  0
  8 11  1  0  0  0  0
  9 30  1  0  0  0  0
  9 31  1  0  0  0  0
  9 32  1  0  0  0  0
 10 33  1  0  0  0  0
 10 34  1  0  0  0  0
 10 35  1  0  0  0  0
 11 12  1  0  0  0  0
 11 24  1  0  0  0  0
 11 26  1  6  0  0  0
 12 13  1  0  0  0  0
 12 27  1  6  0  0  0
 13 14  1  0  0  0  0
 13 28  1  6  0  0  0
 14 15  1  0  0  0  0
 14 36  1  0  0  0  0
 15 16  2  0  0  0  0
 15 17  1  0  0  0  0
 17 18  1  0  0  0  0
 17 37  1  0  0  0  0
 17 38  1  0  0  0  0
 18 19  2  0  0  0  0
 18 23  1  0  0  0  0
 19 20  1  0  0  0  0
 19 39  1  0  0  0  0
 20 21  2  0  0  0  0
 20 40  1  0  0  0  0
 21 22  1  0  0  0  0
 21 41  1  0  0  0  0
 22 23  2  0  0  0  0
 22 42  1  0  0  0  0
 23 43  1  0  0  0  0
 24 44  1  0  0  0  0
M  END
>  <DRUGBANK_ID>
DB08559

>  <COMMON_NAME>
N-[(2S,4S,6R)-2-(dihydroxymethyl)-4-hydroxy-3,3-dimethyl-7-oxo-4lambda~4~-thia-1-azabicyclo[3.2.0]hept-6-yl]-2-phenylacetamide

$$$$
