
 OpenBabel10282417223D

 64 68  0  0  0  0  0  0  0  0999 V2000
    1.3158   -0.1568   -0.0466 C   0  0  0  0  0  0  0  0  0  0  0  0
    0.5258   -1.2962   -0.0940 C   0  0  0  0  0  0  0  0  0  0  0  0
   -0.8657   -1.1380   -0.1352 C   0  0  0  0  0  0  0  0  0  0  0  0
   -1.4540    0.1383   -0.1359 C   0  0  0  0  0  0  0  0  0  0  0  0
   -0.6735    1.2742    0.0528 C   0  0  0  0  0  0  0  0  0  0  0  0
    0.7164    1.1037    0.0643 C   0  0  0  0  0  0  0  0  0  0  0  0
    1.0068   -2.5879   -0.1227 O   0  0  0  0  0  0  0  0  0  0  0  0
    2.3665   -2.8066   -0.0472 C   0  0  0  0  0  0  0  0  0  0  0  0
    3.1262   -2.4161    1.0608 C   0  0  0  0  0  0  0  0  0  0  0  0
    4.4931   -2.6954    1.1069 C   0  0  0  0  0  0  0  0  0  0  0  0
    5.0859   -3.4349    0.0850 C   0  0  0  0  0  0  0  0  0  0  0  0
    4.3159   -3.8795   -0.9905 C   0  0  0  0  0  0  0  0  0  0  0  0
    2.9662   -3.5283   -1.0801 C   0  0  0  0  0  0  0  0  0  0  0  0
   -1.3332    2.5275    0.4691 C   0  0  0  0  0  0  0  0  0  0  0  0
   -1.9360    2.8556    1.7260 C   0  0  0  0  0  0  0  0  0  0  0  0
   -2.2660    4.2100    1.5935 C   0  0  0  0  0  0  0  0  0  0  0  0
   -1.8587    4.5771    0.3337 N   0  0  0  0  0  0  0  0  0  0  0  0
   -1.6439    3.4912   -0.4122 N   0  0  0  0  0  0  0  0  0  0  0  0
   -2.2238    1.9915    2.8695 C   0  0  0  0  0  0  0  0  0  0  0  0
   -1.7610    0.6934    2.8213 N   0  0  0  0  0  0  0  0  0  0  0  0
   -2.8907    2.3382    3.8219 O   0  0  0  0  0  0  0  0  0  0  0  0
   -1.7835    5.9505   -0.2029 C   0  0  1  0  0  0  0  0  0  0  0  0
   -2.1503    6.9605    0.9182 C   0  0  0  0  0  0  0  0  0  0  0  0
   -3.2562    6.4158    1.8158 C   0  0  0  0  0  0  0  0  0  0  0  0
   -2.8272    5.1460    2.3949 N   0  0  0  0  0  0  0  0  0  0  0  0
   -0.4357    6.4349   -0.8996 C   0  0  0  0  0  0  0  0  0  0  0  0
   -0.0271    5.6486   -2.1599 C   0  0  0  0  0  0  0  0  0  0  0  0
    0.5303    4.2810   -1.8591 C   0  0  0  0  0  0  0  0  0  0  0  0
    1.4706    4.2864   -0.7157 N   0  0  0  0  0  0  0  0  0  0  0  0
    1.1524    5.0942    0.4837 C   0  0  0  0  0  0  0  0  0  0  0  0
    0.7651    6.4946    0.0617 C   0  0  0  0  0  0  0  0  0  0  0  0
    2.6863    3.6234   -0.7207 C   0  0  0  0  0  0  0  0  0  0  0  0
    2.9532    2.7128   -1.8692 C   0  0  0  0  0  0  0  0  0  0  0  0
    4.0911    2.0207   -1.9564 C   0  0  0  0  0  0  0  0  0  0  0  0
    3.4901    3.6999    0.2065 O   0  0  0  0  0  0  0  0  0  0  0  0
    2.4019   -0.2115   -0.0338 H   0  0  0  0  0  0  0  0  0  0  0  0
   -1.5167   -2.0078   -0.1220 H   0  0  0  0  0  0  0  0  0  0  0  0
   -2.5346    0.2497   -0.1464 H   0  0  0  0  0  0  0  0  0  0  0  0
    1.3873    1.9317    0.2112 H   0  0  0  0  0  0  0  0  0  0  0  0
    2.6689   -1.8603    1.8741 H   0  0  0  0  0  0  0  0  0  0  0  0
    5.0899   -2.3491    1.9470 H   0  0  0  0  0  0  0  0  0  0  0  0
    6.1470   -3.6685    0.1289 H   0  0  0  0  0  0  0  0  0  0  0  0
    4.7678   -4.5073   -1.7543 H   0  0  0  0  0  0  0  0  0  0  0  0
    2.3889   -3.8170   -1.9541 H   0  0  0  0  0  0  0  0  0  0  0  0
   -2.0425    0.0564    3.5501 H   0  0  0  0  0  0  0  0  0  0  0  0
   -1.1399    0.3208    2.1261 H   0  0  0  0  0  0  0  0  0  0  0  0
   -2.5713    5.9908   -0.9679 H   0  0  0  0  0  0  0  0  0  0  0  0
   -2.4298    7.9287    0.4831 H   0  0  0  0  0  0  0  0  0  0  0  0
   -1.2952    7.1583    1.5718 H   0  0  0  0  0  0  0  0  0  0  0  0
   -3.4425    7.1282    2.6249 H   0  0  0  0  0  0  0  0  0  0  0  0
   -4.1803    6.3012    1.2385 H   0  0  0  0  0  0  0  0  0  0  0  0
   -3.2784    4.8472    3.2616 H   0  0  0  0  0  0  0  0  0  0  0  0
   -0.6052    7.4641   -1.2535 H   0  0  0  0  0  0  0  0  0  0  0  0
   -0.8744    5.5614   -2.8478 H   0  0  0  0  0  0  0  0  0  0  0  0
    0.7679    6.1808   -2.7015 H   0  0  0  0  0  0  0  0  0  0  0  0
   -0.2712    3.5740   -1.7739 H   0  0  0  0  0  0  0  0  0  0  0  0
    0.9613    3.8580   -2.7597 H   0  0  0  0  0  0  0  0  0  0  0  0
    1.9855    5.1402    1.1929 H   0  0  0  0  0  0  0  0  0  0  0  0
    0.3658    4.6321    1.0785 H   0  0  0  0  0  0  0  0  0  0  0  0
    1.6273    6.9606   -0.4328 H   0  0  0  0  0  0  0  0  0  0  0  0
    0.5634    7.1278    0.9295 H   0  0  0  0  0  0  0  0  0  0  0  0
    2.2038    2.5141   -2.6171 H   0  0  0  0  0  0  0  0  0  0  0  0
    4.2360    1.3399   -2.7866 H   0  0  0  0  0  0  0  0  0  0  0  0
    4.8632    2.1071   -1.2018 H   0  0  0  0  0  0  0  0  0  0  0  0
  1  6  1  0  0  0  0
  1 36  1  0  0  0  0
  2  1  2  0  0  0  0
  2  7  1  0  0  0  0
  3  2  1  0  0  0  0
  3 37  1  0  0  0  0
  4  3  2  0  0  0  0
  4 38  1  0  0  0  0
  5  4  1  0  0  0  0
  5 14  1  0  0  0  0
  6  5  2  0  0  0  0
  6 39  1  0  0  0  0
  7  8  1  0  0  0  0
  8 13  1  0  0  0  0
  9  8  2  0  0  0  0
  9 40  1  0  0  0  0
 10  9  1  0  0  0  0
 10 41  1  0  0  0  0
 11 10  2  0  0  0  0
 11 42  1  0  0  0  0
 12 11  1  0  0  0  0
 12 43  1  0  0  0  0
 13 12  2  0  0  0  0
 13 44  1  0  0  0  0
 15 14  1  0  0  0  0
 15 16  2  0  0  0  0
 15 19  1  0  0  0  0
 16 17  1  0  0  0  0
 16 25  1  0  0  0  0
 17 18  1  0  0  0  0
 17 22  1  0  0  0  0
 18 14  2  0  0  0  0
 19 20  1  0  0  0  0
 19 21  2  0  0  0  0
 20 45  1  0  0  0  0
 20 46  1  0  0  0  0
 22 47  1  6  0  0  0
 22 26  1  0  0  0  0
 23 22  1  0  0  0  0
 23 48  1  0  0  0  0
 23 49  1  0  0  0  0
 24 23  1  0  0  0  0
 24 50  1  0  0  0  0
 24 51  1  0  0  0  0
 25 24  1  0  0  0  0
 25 52  1  0  0  0  0
 26 31  1  0  0  0  0
 26 53  1  0  0  0  0
 27 26  1  0  0  0  0
 27 54  1  0  0  0  0
 27 55  1  0  0  0  0
 28 27  1  0  0  0  0
 28 56  1  0  0  0  0
 28 57  1  0  0  0  0
 29 28  1  0  0  0  0
 29 32  1  0  0  0  0
 30 29  1  0  0  0  0
 30 58  1  0  0  0  0
 30 59  1  0  0  0  0
 31 30  1  0  0  0  0
 31 60  1  0  0  0  0
 31 61  1  0  0  0  0
 32 33  1  0  0  0  0
 32 35  2  0  0  0  0
 33 34  2  0  0  0  0
 33 62  1  0  0  0  0
 34 63  1  0  0  0  0
 34 64  1  0  0  0  0
M  END
>  <DRUGBANK_ID>
DB15035

>  <COMMON_NAME>
Zanubrutinib

>  <CAS_NUMBER>
1691249-45-2

>  <UNII>
AG9MHG098Z

>  <SYNONYMS>
Zanubrutinib

$$$$
