
 OpenBabel10282417223D

 44 46  0  0  0  0  0  0  0  0999 V2000
    0.9144   -0.0717   -0.0315 C   0  0  0  0  0  0  0  0  0  0  0  0
    0.3051    1.1295    0.4276 O   0  0  0  0  0  0  0  0  0  0  0  0
    0.7847    1.6307    1.6055 C   0  0  0  0  0  0  0  0  0  0  0  0
    2.1101    1.5247    2.0138 C   0  0  0  0  0  0  0  0  0  0  0  0
    2.5498    2.2146    3.1412 C   0  0  0  0  0  0  0  0  0  0  0  0
    1.6333    2.9794    3.8884 C   0  0  0  0  0  0  0  0  0  0  0  0
    0.3126    3.0936    3.4828 C   0  0  0  0  0  0  0  0  0  0  0  0
   -0.1139    2.3979    2.3547 C   0  0  0  0  0  0  0  0  0  0  0  0
    3.9571    2.2386    3.5112 C   0  0  0  0  0  0  0  0  0  0  0  0
    4.9699    2.6780    2.6409 C   0  0  0  0  0  0  0  0  0  0  0  0
    6.3012    2.8000    3.0836 C   0  0  0  0  0  0  0  0  0  0  0  0
    6.5907    2.5992    4.4350 C   0  0  0  0  0  0  0  0  0  0  0  0
    7.9367    2.4049    4.8741 N   0  0  0  0  0  0  0  0  0  0  0  0
    8.4353    1.8430    6.0439 C   0  0  0  0  0  0  0  0  0  0  0  0
    9.6495    1.8138    6.2383 O   0  0  0  0  0  0  0  0  0  0  0  0
    7.5406    1.1477    7.0022 C   0  0  0  0  0  0  0  0  0  0  0  0
    6.5966    0.2268    6.7197 C   0  0  0  0  0  0  0  0  0  0  0  0
    5.6137    0.1365    7.8685 C   0  0  0  0  0  0  0  0  0  0  0  0
    6.3614    0.7650    9.0423 C   0  0  0  0  0  0  0  0  0  0  0  0
    7.4798    1.6148    8.4319 C   0  0  0  0  0  0  0  0  0  0  0  0
    6.2463   -0.4301    5.4395 C   0  0  0  0  0  0  0  0  0  0  0  0
    7.1052   -0.3061    4.4151 O   0  0  0  0  0  0  0  0  0  0  0  0
    5.1823   -1.0368    5.2972 O   0  0  0  0  0  0  0  0  0  0  0  0
    5.5033    2.4399    5.2859 C   0  0  0  0  0  0  0  0  0  0  0  0
    5.6122    2.6620    6.5977 F   0  0  0  0  0  0  0  0  0  0  0  0
    4.2796    2.0112    4.8309 C   0  0  0  0  0  0  0  0  0  0  0  0
    0.5444   -0.2631   -1.0423 H   0  0  0  0  0  0  0  0  0  0  0  0
    0.6121   -0.9003    0.6143 H   0  0  0  0  0  0  0  0  0  0  0  0
    2.0045   -0.0190   -0.1088 H   0  0  0  0  0  0  0  0  0  0  0  0
    2.8399    0.9512    1.4553 H   0  0  0  0  0  0  0  0  0  0  0  0
    1.9624    3.5219    4.7747 H   0  0  0  0  0  0  0  0  0  0  0  0
   -0.3632    3.7506    4.0227 H   0  0  0  0  0  0  0  0  0  0  0  0
   -1.1546    2.4620    2.0522 H   0  0  0  0  0  0  0  0  0  0  0  0
    4.7118    2.9266    1.6124 H   0  0  0  0  0  0  0  0  0  0  0  0
    7.0668    3.0535    2.3553 H   0  0  0  0  0  0  0  0  0  0  0  0
    8.6748    2.6423    4.2155 H   0  0  0  0  0  0  0  0  0  0  0  0
    5.2877   -0.8815    8.0897 H   0  0  0  0  0  0  0  0  0  0  0  0
    4.7099    0.7286    7.6597 H   0  0  0  0  0  0  0  0  0  0  0  0
    5.6999    1.3605    9.6858 H   0  0  0  0  0  0  0  0  0  0  0  0
    6.7832   -0.0272    9.6705 H   0  0  0  0  0  0  0  0  0  0  0  0
    7.2396    2.6826    8.5025 H   0  0  0  0  0  0  0  0  0  0  0  0
    8.4192    1.4411    8.9660 H   0  0  0  0  0  0  0  0  0  0  0  0
    7.7669    0.4048    4.4858 H   0  0  0  0  0  0  0  0  0  0  0  0
    3.5696    1.5623    5.5211 H   0  0  0  0  0  0  0  0  0  0  0  0
  1  2  1  0  0  0  0
  1 27  1  0  0  0  0
  1 28  1  0  0  0  0
  1 29  1  0  0  0  0
  2  3  1  0  0  0  0
  3  4  2  0  0  0  0
  3  8  1  0  0  0  0
  4  5  1  0  0  0  0
  4 30  1  0  0  0  0
  5  6  2  0  0  0  0
  5  9  1  0  0  0  0
  6  7  1  0  0  0  0
  6 31  1  0  0  0  0
  7  8  2  0  0  0  0
  7 32  1  0  0  0  0
  8 33  1  0  0  0  0
  9 10  2  0  0  0  0
  9 26  1  0  0  0  0
 10 11  1  0  0  0  0
 10 34  1  0  0  0  0
 11 12  2  0  0  0  0
 11 35  1  0  0  0  0
 12 13  1  0  0  0  0
 12 24  1  0  0  0  0
 13 14  1  0  0  0  0
 13 36  1  0  0  0  0
 14 15  2  0  0  0  0
 14 16  1  0  0  0  0
 16 17  2  0  0  0  0
 16 20  1  0  0  0  0
 17 18  1  0  0  0  0
 17 21  1  0  0  0  0
 18 19  1  0  0  0  0
 18 37  1  0  0  0  0
 18 38  1  0  0  0  0
 19 20  1  0  0  0  0
 19 39  1  0  0  0  0
 19 40  1  0  0  0  0
 20 41  1  0  0  0  0
 20 42  1  0  0  0  0
 21 22  1  0  0  0  0
 21 23  2  0  0  0  0
 22 43  1  0  0  0  0
 24 25  1  0  0  0  0
 24 26  2  0  0  0  0
 26 44  1  0  0  0  0
M  END
>  <DRUGBANK_ID>
DB15446

>  <COMMON_NAME>
Vidofludimus

>  <CAS_NUMBER>
717824-30-1

>  <UNII>
8Y1PJ3VG81

>  <SYNONYMS>
Vidofludimus

$$$$
