
 OpenBabel10282417223D

 41 43  0  0  0  0  0  0  0  0999 V2000
    2.2886    1.6624   -0.0612 F   0  0  0  0  0  0  0  0  0  0  0  0
    1.2590    0.8165   -0.0282 C   0  0  0  0  0  0  0  0  0  0  0  0
   -0.0079    1.3267    0.0454 C   0  0  0  0  0  0  0  0  0  0  0  0
   -1.0434    0.4292    0.1910 C   0  0  0  0  0  0  0  0  0  0  0  0
   -2.1709    1.0734    0.4012 F   0  0  0  0  0  0  0  0  0  0  0  0
   -0.9618   -0.9519    0.1762 C   0  0  0  0  0  0  0  0  0  0  0  0
   -1.9449   -1.8949    0.3179 O   0  0  0  0  0  0  0  0  0  0  0  0
   -3.3519   -1.6024    0.4155 C   0  0  0  0  0  0  0  0  0  0  0  0
   -3.7860   -0.6016    1.4453 C   0  0  0  0  0  0  0  0  0  0  0  0
   -3.5079   -1.0811    2.7369 C   0  0  0  0  0  0  0  0  0  0  0  0
   -3.4519   -0.2199    3.8070 C   0  0  0  0  0  0  0  0  0  0  0  0
   -3.6753    1.1335    3.5922 C   0  0  0  0  0  0  0  0  0  0  0  0
   -4.0414    1.6151    2.3210 C   0  0  0  0  0  0  0  0  0  0  0  0
   -4.1998    0.7506    1.2095 C   0  0  0  0  0  0  0  0  0  0  0  0
   -4.6412    1.4096   -0.1560 C   0  0  0  0  0  0  0  0  0  0  0  0
   -6.0027    0.8609   -0.5868 C   0  0  0  0  0  0  0  0  0  0  0  0
   -5.8640   -0.5206   -1.2059 C   0  0  0  0  0  0  0  0  0  0  0  0
   -4.8851   -0.5963   -2.3107 N   0  0  0  0  0  0  0  0  0  0  0  0
   -3.6116    0.1331   -2.1662 C   0  0  0  0  0  0  0  0  0  0  0  0
   -3.7699    1.4697   -1.4619 C   0  0  0  0  0  0  0  0  0  0  0  0
    0.3419   -1.4284    0.0393 C   0  0  0  0  0  0  0  0  0  0  0  0
    0.5692   -2.7465    0.0007 F   0  0  0  0  0  0  0  0  0  0  0  0
    1.4401   -0.5560   -0.0268 C   0  0  0  0  0  0  0  0  0  0  0  0
   -0.2220    2.3882    0.0501 H   0  0  0  0  0  0  0  0  0  0  0  0
   -3.7218   -1.3447   -0.5305 H   0  0  0  0  0  0  0  0  0  0  0  0
   -3.8887   -2.5507    0.5705 H   0  0  0  0  0  0  0  0  0  0  0  0
   -3.2342   -2.1292    2.8630 H   0  0  0  0  0  0  0  0  0  0  0  0
   -3.1586   -0.6076    4.7762 H   0  0  0  0  0  0  0  0  0  0  0  0
   -3.5465    1.8215    4.4225 H   0  0  0  0  0  0  0  0  0  0  0  0
   -4.1077    2.6963    2.1951 H   0  0  0  0  0  0  0  0  0  0  0  0
   -4.8068    2.4740    0.0801 H   0  0  0  0  0  0  0  0  0  0  0  0
   -6.6884    0.8390    0.2678 H   0  0  0  0  0  0  0  0  0  0  0  0
   -6.4511    1.5277   -1.3346 H   0  0  0  0  0  0  0  0  0  0  0  0
   -5.6712   -1.2383   -0.4019 H   0  0  0  0  0  0  0  0  0  0  0  0
   -6.8351   -0.8526   -1.5831 H   0  0  0  0  0  0  0  0  0  0  0  0
   -4.6860   -1.5791   -2.5074 H   0  0  0  0  0  0  0  0  0  0  0  0
   -3.1395    0.2346   -3.1497 H   0  0  0  0  0  0  0  0  0  0  0  0
   -2.8175   -0.4250   -1.6729 H   0  0  0  0  0  0  0  0  0  0  0  0
   -4.2507    2.1381   -2.1894 H   0  0  0  0  0  0  0  0  0  0  0  0
   -2.7977    1.9485   -1.3051 H   0  0  0  0  0  0  0  0  0  0  0  0
    2.4472   -0.9530   -0.0585 H   0  0  0  0  0  0  0  0  0  0  0  0
  1  2  1  0  0  0  0
  2  3  2  0  0  0  0
  2 23  1  0  0  0  0
  3  4  1  0  0  0  0
  3 24  1  0  0  0  0
  4  5  1  0  0  0  0
  4  6  2  0  0  0  0
  6  7  1  0  0  0  0
  6 21  1  0  0  0  0
  7  8  1  0  0  0  0
  8  9  1  0  0  0  0
  8 25  1  0  0  0  0
  8 26  1  0  0  0  0
  9 10  2  0  0  0  0
  9 14  1  0  0  0  0
 10 11  1  0  0  0  0
 10 27  1  0  0  0  0
 11 12  2  0  0  0  0
 11 28  1  0  0  0  0
 12 13  1  0  0  0  0
 12 29  1  0  0  0  0
 13 14  2  0  0  0  0
 13 30  1  0  0  0  0
 14 15  1  0  0  0  0
 15 16  1  0  0  0  0
 15 20  1  0  0  0  0
 15 31  1  0  0  0  0
 16 17  1  0  0  0  0
 16 32  1  0  0  0  0
 16 33  1  0  0  0  0
 17 18  1  0  0  0  0
 17 34  1  0  0  0  0
 17 35  1  0  0  0  0
 18 19  1  0  0  0  0
 18 36  1  0  0  0  0
 19 20  1  0  0  0  0
 19 37  1  0  0  0  0
 19 38  1  0  0  0  0
 20 39  1  0  0  0  0
 20 40  1  0  0  0  0
 21 22  1  0  0  0  0
 21 23  2  0  0  0  0
 23 41  1  0  0  0  0
M  END
>  <DRUGBANK_ID>
DB15348

>  <COMMON_NAME>
Ampreloxetine

>  <CAS_NUMBER>
1227056-84-9

>  <UNII>
19997EZ42I

>  <SYNONYMS>
Ampreloxetine

$$$$
