
 OpenBabel10282417223D

 60 65  0  0  1  0  0  0  0  0999 V2000
   -1.9436   -0.1411   -0.2290 C   0  0  0  0  0  0  0  0  0  0  0  0
   -0.8768   -1.1963   -0.5468 C   0  0  2  0  0  0  0  0  0  0  0  0
   -0.0756   -0.5789   -1.6806 C   0  0  0  0  0  0  0  0  0  0  0  0
    0.6850    0.5375   -1.1096 C   0  0  0  0  0  0  0  0  0  0  0  0
    1.1502    0.3819    0.3226 C   0  0  1  0  0  0  0  0  0  0  0  0
    0.3212   -0.5836    1.2775 C   0  0  1  0  0  0  0  0  0  0  0  0
    1.2097   -0.0932    2.6202 C   0  0  0  0  0  0  0  0  0  0  0  0
    1.4250    1.7401    2.8550 C   0  0  0  0  0  0  0  0  0  0  0  0
    1.8154    2.9230    1.5688 C   0  0  0  0  0  0  0  0  0  0  0  0
    1.5556    4.0992    0.6650 C   0  0  0  0  0  0  0  0  0  0  0  0
    0.6960    3.6162   -0.6573 C   0  0  0  0  0  0  0  0  0  0  0  0
    1.2418    3.5012   -1.7437 O   0  0  0  0  0  0  0  0  0  0  0  0
   -0.6919    3.1191   -0.1871 C   0  0  0  0  0  0  0  0  0  0  0  0
   -0.2354    2.5766    1.1147 C   0  0  0  0  0  0  0  0  0  0  0  0
    1.2242    1.8770    0.7561 C   0  0  2  0  0  0  0  0  0  0  0  0
   -0.5762   -2.2394    0.6925 C   0  0  2  0  0  0  0  0  0  0  0  0
   -1.6458   -3.7057   -0.2966 C   0  0  0  0  0  0  0  0  0  0  0  0
   -1.9804   -3.2329   -1.8562 C   0  0  1  0  0  0  0  0  0  0  0  0
   -1.0162   -3.3629   -2.9061 O   0  0  0  0  0  0  0  0  0  0  0  0
    0.1901   -3.8280   -2.3291 C   0  0  2  0  0  0  0  0  0  0  0  0
    0.0577   -3.3644   -1.0039 O   0  0  0  0  0  0  0  0  0  0  0  0
   -1.4779   -2.4132   -0.8362 C   0  0  1  0  0  0  0  0  0  0  0  0
   -2.9705   -2.3448    0.4570 C   0  0  0  0  0  0  0  0  0  0  0  0
   -4.0546   -1.8037    0.1545 O   0  0  0  0  0  0  0  0  0  0  0  0
   -2.9242   -3.3125    1.7741 C   0  0  0  0  0  0  0  0  0  0  0  0
   -3.2396   -4.6276    1.4937 F   0  0  0  0  0  0  0  0  0  0  0  0
    1.4664   -3.1176   -2.6041 C   0  0  0  0  0  0  0  0  0  0  0  0
    2.1276   -2.2356   -1.7502 C   0  0  0  0  0  0  0  0  0  0  0  0
    2.9479   -1.4931   -2.5831 C   0  0  0  0  0  0  0  0  0  0  0  0
    3.3197   -2.4482   -3.4888 C   0  0  0  0  0  0  0  0  0  0  0  0
    2.3613   -3.4324   -3.5843 O   0  0  0  0  0  0  0  0  0  0  0  0
   -2.4226    0.2044   -1.1424 H   0  0  0  0  0  0  0  0  0  0  0  0
   -1.5546    0.6850    0.3186 H   0  0  0  0  0  0  0  0  0  0  0  0
   -2.6546   -0.3632    0.5398 H   0  0  0  0  0  0  0  0  0  0  0  0
    0.5118   -1.0672   -2.4230 H   0  0  0  0  0  0  0  0  0  0  0  0
   -0.7772   -0.1598   -2.4131 H   0  0  0  0  0  0  0  0  0  0  0  0
    1.3441    1.1104   -1.7681 H   0  0  0  0  0  0  0  0  0  0  0  0
   -0.1314    1.1994   -1.1070 H   0  0  0  0  0  0  0  0  0  0  0  0
    2.1879    0.0097    0.3165 H   0  0  0  0  0  0  0  0  0  0  0  0
   -0.5787   -0.0934    1.6773 H   0  0  0  0  0  0  0  0  0  0  0  0
    2.0017   -0.5418    3.2520 H   0  0  0  0  0  0  0  0  0  0  0  0
    0.4882   -0.5555    3.2837 H   0  0  0  0  0  0  0  0  0  0  0  0
    2.1474    1.9143    3.6542 H   0  0  0  0  0  0  0  0  0  0  0  0
    0.4485    1.9626    3.2877 H   0  0  0  0  0  0  0  0  0  0  0  0
    0.8554    4.9900    0.4550 H   0  0  0  0  0  0  0  0  0  0  0  0
   -1.4764    3.8560   -0.1839 H   0  0  0  0  0  0  0  0  0  0  0  0
   -1.2040    2.2562   -0.5490 H   0  0  0  0  0  0  0  0  0  0  0  0
   -0.2625    3.4522    1.8353 H   0  0  0  0  0  0  0  0  0  0  0  0
   -0.8600    1.9046    1.6899 H   0  0  0  0  0  0  0  0  0  0  0  0
    2.0787    2.1144    0.0580 H   0  0  0  0  0  0  0  0  0  0  0  0
    0.3254   -2.8307    0.9380 H   0  0  0  0  0  0  0  0  0  0  0  0
   -1.3277   -4.7777   -0.2507 H   0  0  0  0  0  0  0  0  0  0  0  0
   -2.7500   -4.0395   -0.2313 H   0  0  0  0  0  0  0  0  0  0  0  0
   -2.9359   -2.7624   -2.1448 H   0  0  0  0  0  0  0  0  0  0  0  0
    0.3241   -4.9095   -2.4969 H   0  0  0  0  0  0  0  0  0  0  0  0
   -1.9534   -3.3391    2.2736 H   0  0  0  0  0  0  0  0  0  0  0  0
   -3.6984   -2.9842    2.4582 H   0  0  0  0  0  0  0  0  0  0  0  0
    1.7267   -1.9488   -0.7918 H   0  0  0  0  0  0  0  0  0  0  0  0
    3.3027   -0.4857   -2.4153 H   0  0  0  0  0  0  0  0  0  0  0  0
    4.1677   -2.5265   -4.1400 H   0  0  0  0  0  0  0  0  0  0  0  0
  1 32  1  0  0  0  0
  1 33  1  0  0  0  0
  1 34  1  0  0  0  0
  2  3  1  0  0  0  0
  2 16  1  0  0  0  0
  2 22  1  0  0  0  0
  2  1  1  6  0  0  0
  3  4  1  0  0  0  0
  3 35  1  0  0  0  0
  3 36  1  0  0  0  0
  4 37  1  0  0  0  0
  4 38  1  0  0  0  0
  5  4  1  0  0  0  0
  5 15  1  0  0  0  0
  5 39  1  1  0  0  0
  6  5  1  0  0  0  0
  6  7  1  0  0  0  0
  6 40  1  6  0  0  0
  7  8  1  0  0  0  0
  7 41  1  0  0  0  0
  7 42  1  0  0  0  0
  8  9  1  0  0  0  0
  8 43  1  0  0  0  0
  8 44  1  0  0  0  0
  9 10  2  0  0  0  0
 10 11  1  0  0  0  0
 10 45  1  0  0  0  0
 11 13  1  0  0  0  0
 11 12  2  0  0  0  0
 13 14  1  0  0  0  0
 13 46  1  0  0  0  0
 13 47  1  0  0  0  0
 14 48  1  0  0  0  0
 14 49  1  0  0  0  0
 15 14  1  0  0  0  0
 15  9  1  0  0  0  0
 15 50  1  6  0  0  0
 16  6  1  0  0  0  0
 16 17  1  0  0  0  0
 16 51  1  1  0  0  0
 17 52  1  0  0  0  0
 17 53  1  0  0  0  0
 18 17  1  0  0  0  0
 18 19  1  0  0  0  0
 18 54  1  1  0  0  0
 20 19  1  0  0  0  0
 20 21  1  0  0  0  0
 20 55  1  6  0  0  0
 20 27  1  0  0  0  0
 22 21  1  0  0  0  0
 22 18  1  0  0  0  0
 22 23  1  1  0  0  0
 23 24  2  0  0  0  0
 23 25  1  0  0  0  0
 25 26  1  0  0  0  0
 25 56  1  0  0  0  0
 25 57  1  0  0  0  0
 27 28  2  0  0  0  0
 27 31  1  0  0  0  0
 28 29  1  0  0  0  0
 28 58  1  0  0  0  0
 29 30  2  0  0  0  0
 29 59  1  0  0  0  0
 30 31  1  0  0  0  0
 30 60  1  0  0  0  0
M  ISO  1  26  18
M  END
>  <DRUGBANK_ID>
DB15282

>  <COMMON_NAME>
Fluorofuranylnorprogesterone F-18

>  <CAS_NUMBER>
160388-43-2

>  <UNII>
3I798OGQ8B

>  <SYNONYMS>
18F-FFNP

$$$$
