H52
 OpenBabel10282417163D

 43 45  0  0  0  0  0  0  0  0999 V2000
    1.1122    0.4148    0.0619 O   0  0  0  0  0  0  0  0  0  0  0  0
    2.5589    0.2203    0.0129 S   0  0  0  0  0  0  0  0  0  0  0  0
    3.3069    1.4342   -0.1515 O   0  0  0  0  0  0  0  0  0  0  0  0
    3.1823   -0.7588    1.4778 N   0  0  0  0  0  0  0  0  0  0  0  0
    4.6708   -0.6097    1.7494 C   0  0  1  0  0  0  0  0  0  0  0  0
    5.1901    0.7883    1.4721 C   0  0  0  0  0  0  0  0  0  0  0  0
    4.9457   -0.9503    3.2474 C   0  0  0  0  0  0  0  0  0  0  0  0
    5.3531   -2.3402    3.5603 N   0  0  0  0  0  0  0  0  0  0  0  0
    4.5966   -3.3738    2.8793 C   0  0  0  0  0  0  0  0  0  0  0  0
    3.1401   -3.0140    2.8618 C   0  0  0  0  0  0  0  0  0  0  0  0
    2.8544   -2.2581    1.5799 C   0  0  0  0  0  0  0  0  0  0  0  0
    2.9308   -0.8018   -1.4074 C   0  0  0  0  0  0  0  0  0  0  0  0
    2.4419   -2.1297   -1.5588 C   0  0  0  0  0  0  0  0  0  0  0  0
    1.3838   -2.7653   -0.8344 C   0  0  0  0  0  0  0  0  0  0  0  0
    0.3821   -2.0850    0.0676 C   0  0  0  0  0  0  0  0  0  0  0  0
    3.0908   -2.9153   -2.5526 C   0  0  0  0  0  0  0  0  0  0  0  0
    4.0005   -2.3476   -3.4585 C   0  0  0  0  0  0  0  0  0  0  0  0
    4.2083   -0.9776   -3.4606 C   0  0  0  0  0  0  0  0  0  0  0  0
    3.7613   -0.2237   -2.3851 C   0  0  0  0  0  0  0  0  0  0  0  0
    2.7568   -4.2638   -2.6673 C   0  0  0  0  0  0  0  0  0  0  0  0
    1.8745   -4.9009   -1.8754 N   0  0  0  0  0  0  0  0  0  0  0  0
    1.2114   -4.1374   -0.9930 C   0  0  0  0  0  0  0  0  0  0  0  0
    5.2058   -1.3083    1.0961 H   0  0  0  0  0  0  0  0  0  0  0  0
    5.4852    0.8456    0.4169 H   0  0  0  0  0  0  0  0  0  0  0  0
    4.4494    1.5577    1.7103 H   0  0  0  0  0  0  0  0  0  0  0  0
    6.0780    1.0370    2.0502 H   0  0  0  0  0  0  0  0  0  0  0  0
    5.7592   -0.3297    3.6288 H   0  0  0  0  0  0  0  0  0  0  0  0
    4.0664   -0.6766    3.8499 H   0  0  0  0  0  0  0  0  0  0  0  0
    5.2221   -2.4741    4.5640 H   0  0  0  0  0  0  0  0  0  0  0  0
    4.9788   -3.5195    1.8599 H   0  0  0  0  0  0  0  0  0  0  0  0
    4.7284   -4.3451    3.3684 H   0  0  0  0  0  0  0  0  0  0  0  0
    2.5598   -3.9528    2.8496 H   0  0  0  0  0  0  0  0  0  0  0  0
    2.7760   -2.4740    3.7444 H   0  0  0  0  0  0  0  0  0  0  0  0
    1.8122   -2.4803    1.6202 H   0  0  0  0  0  0  0  0  0  0  0  0
    3.3466   -2.7810    0.7558 H   0  0  0  0  0  0  0  0  0  0  0  0
    0.8057   -1.4151    0.8020 H   0  0  0  0  0  0  0  0  0  0  0  0
   -0.3200   -1.4779   -0.4906 H   0  0  0  0  0  0  0  0  0  0  0  0
   -0.1181   -2.7950    0.7317 H   0  0  0  0  0  0  0  0  0  0  0  0
    4.5072   -2.9567   -4.2069 H   0  0  0  0  0  0  0  0  0  0  0  0
    4.7167   -0.4992   -4.2936 H   0  0  0  0  0  0  0  0  0  0  0  0
    4.0480    0.8251   -2.3297 H   0  0  0  0  0  0  0  0  0  0  0  0
    3.1758   -4.8907   -3.4522 H   0  0  0  0  0  0  0  0  0  0  0  0
    0.4999   -4.6714   -0.3696 H   0  0  0  0  0  0  0  0  0  0  0  0
  1  2  2  0  0  0  0
  2  3  2  0  0  0  0
  2  4  1  0  0  0  0
  2 12  1  0  0  0  0
  4  5  1  0  0  0  0
  4 11  1  0  0  0  0
  5  7  1  0  0  0  0
  5 23  1  6  0  0  0
  5  6  1  0  0  0  0
  6 24  1  0  0  0  0
  6 25  1  0  0  0  0
  6 26  1  0  0  0  0
  7  8  1  0  0  0  0
  7 27  1  0  0  0  0
  7 28  1  0  0  0  0
  8  9  1  0  0  0  0
  8 29  1  0  0  0  0
  9 10  1  0  0  0  0
  9 30  1  0  0  0  0
  9 31  1  0  0  0  0
 10 11  1  0  0  0  0
 10 32  1  0  0  0  0
 10 33  1  0  0  0  0
 11 34  1  0  0  0  0
 11 35  1  0  0  0  0
 12 13  2  0  0  0  0
 12 19  1  0  0  0  0
 13 14  1  0  0  0  0
 13 16  1  0  0  0  0
 14 15  1  0  0  0  0
 14 22  2  0  0  0  0
 15 36  1  0  0  0  0
 15 37  1  0  0  0  0
 15 38  1  0  0  0  0
 16 17  2  0  0  0  0
 16 20  1  0  0  0  0
 17 18  1  0  0  0  0
 17 39  1  0  0  0  0
 18 19  2  0  0  0  0
 18 40  1  0  0  0  0
 19 41  1  0  0  0  0
 20 21  2  0  0  0  0
 20 42  1  0  0  0  0
 21 22  1  0  0  0  0
 22 43  1  0  0  0  0
M  END
>  <DRUGBANK_ID>
DB07876

>  <COMMON_NAME>
(S)-2-METHYL-1-[(4-METHYL-5-ISOQUINOLINE)SULFONYL]-HOMOPIPERAZINE

$$$$
