
 OpenBabel10282417133D

 18 18  0  0  0  0  0  0  0  0999 V2000
    0.8386   -0.0926   -0.0011 O   0  0  0  0  0  0  0  0  0  0  0  0
    0.2752   -1.2622   -0.3710 C   0  0  0  0  0  0  0  0  0  0  0  0
    0.9687   -2.2138   -0.6960 O   0  0  0  0  0  0  0  0  0  0  0  0
   -1.2378   -1.2347   -0.3521 C   0  0  0  0  0  0  0  0  0  0  0  0
   -1.7414   -0.9335    1.0312 C   0  0  0  0  0  0  0  0  0  0  0  0
   -1.8193    0.3244    1.4856 C   0  0  0  0  0  0  0  0  0  0  0  0
   -2.2510    0.5719    2.8700 C   0  0  0  0  0  0  0  0  0  0  0  0
   -2.2693    1.7079    3.3277 O   0  0  0  0  0  0  0  0  0  0  0  0
   -2.6078   -0.5315    3.5884 N   0  0  0  0  0  0  0  0  0  0  0  0
   -2.5858   -1.8155    3.1236 C   0  0  0  0  0  0  0  0  0  0  0  0
   -2.9383   -2.7677    3.8112 O   0  0  0  0  0  0  0  0  0  0  0  0
   -2.1387   -1.9748    1.8373 N   0  0  0  0  0  0  0  0  0  0  0  0
    1.8073   -0.2450   -0.0242 H   0  0  0  0  0  0  0  0  0  0  0  0
   -1.5793   -0.4804   -1.0709 H   0  0  0  0  0  0  0  0  0  0  0  0
   -1.6160   -2.1994   -0.7085 H   0  0  0  0  0  0  0  0  0  0  0  0
   -1.5267    1.1848    0.8969 H   0  0  0  0  0  0  0  0  0  0  0  0
   -2.9052   -0.3882    4.5399 H   0  0  0  0  0  0  0  0  0  0  0  0
   -2.1136   -2.9347    1.5074 H   0  0  0  0  0  0  0  0  0  0  0  0
  1  2  1  0  0  0  0
  1 13  1  0  0  0  0
  2  3  2  0  0  0  0
  2  4  1  0  0  0  0
  4  5  1  0  0  0  0
  4 14  1  0  0  0  0
  4 15  1  0  0  0  0
  5  6  2  0  0  0  0
  5 12  1  0  0  0  0
  6  7  1  0  0  0  0
  6 16  1  0  0  0  0
  7  8  2  0  0  0  0
  7  9  1  0  0  0  0
  9 10  1  0  0  0  0
  9 17  1  0  0  0  0
 10 11  2  0  0  0  0
 10 12  1  0  0  0  0
 12 18  1  0  0  0  0
M  END
>  <DRUGBANK_ID>
DB03048

>  <SECONDARY_ACCESSION_NUMBERS>
EXPT03164

>  <COMMON_NAME>
6-Carboxymethyluracil

>  <UNII>
EF762EX2DY

$$$$
