
 OpenBabel10282417223D

 49 52  0  0  1  0  0  0  0  0999 V2000
    8.8971  -15.5904   -0.0582 C   0  0  0  0  0  0  0  0  0  0  0  0
    9.5442  -14.4907    0.6154 N   0  0  0  0  0  0  0  0  0  0  0  0
   10.7547  -14.1013    0.1479 N   0  0  0  0  0  0  0  0  0  0  0  0
   11.1446  -13.1649    1.0121 C   0  0  0  0  0  0  0  0  0  0  0  0
   10.1938  -12.9408    2.0139 C   0  0  0  0  0  0  0  0  0  0  0  0
    9.1378  -13.7846    1.7271 C   0  0  0  0  0  0  0  0  0  0  0  0
    7.9549  -13.9591    2.3774 N   0  0  0  0  0  0  0  0  0  0  0  0
    7.6476  -13.2553    3.5493 C   0  0  0  0  0  0  0  0  0  0  0  0
    7.3765  -13.9484    4.6691 N   0  0  0  0  0  0  0  0  0  0  0  0
    7.2057  -13.2384    5.8051 C   0  0  0  0  0  0  0  0  0  0  0  0
    7.2245  -11.8726    5.8520 C   0  0  0  0  0  0  0  0  0  0  0  0
    7.4722  -11.2564    4.6489 C   0  0  0  0  0  0  0  0  0  0  0  0
    7.6777  -11.9171    3.5024 N   0  0  0  0  0  0  0  0  0  0  0  0
    7.3837   -9.8022    4.5522 C   0  0  0  0  0  0  0  0  0  0  0  0
    8.1912   -9.0494    5.3131 C   0  0  0  0  0  0  0  0  0  0  0  0
    7.8514   -7.6285    5.5360 C   0  0  0  0  0  0  0  0  0  0  0  0
    8.3916   -7.0724    6.4996 O   0  0  0  0  0  0  0  0  0  0  0  0
    6.9328   -7.0362    4.6573 N   0  0  0  0  0  0  0  0  0  0  0  0
    6.2348   -7.8471    3.7639 C   0  0  0  0  0  0  0  0  0  0  0  0
    6.4033   -9.1653    3.7177 C   0  0  0  0  0  0  0  0  0  0  0  0
    6.4681   -5.6387    4.9377 C   0  0  2  0  0  0  0  0  0  0  0  0
    5.4131   -5.0746    3.9232 C   0  0  0  0  0  0  0  0  0  0  0  0
    5.6983   -5.3448    2.5467 O   0  0  0  0  0  0  0  0  0  0  0  0
    7.5713   -4.5773    5.0860 C   0  0  0  0  0  0  0  0  0  0  0  0
    7.2348   -3.2639    5.4736 C   0  0  0  0  0  0  0  0  0  0  0  0
    8.1853   -2.2481    5.3998 C   0  0  0  0  0  0  0  0  0  0  0  0
    7.7810   -0.9780    5.5480 F   0  0  0  0  0  0  0  0  0  0  0  0
    9.5166   -2.5451    5.1342 C   0  0  0  0  0  0  0  0  0  0  0  0
   10.6945   -1.3058    4.9715 Cl  0  0  0  0  0  0  0  0  0  0  0  0
    9.8978   -3.8644    4.9422 C   0  0  0  0  0  0  0  0  0  0  0  0
    8.9207   -4.8477    4.8247 C   0  0  0  0  0  0  0  0  0  0  0  0
    8.7842  -15.3366   -1.1161 H   0  0  0  0  0  0  0  0  0  0  0  0
    9.5365  -16.4724    0.0461 H   0  0  0  0  0  0  0  0  0  0  0  0
    7.9201  -15.7882    0.3825 H   0  0  0  0  0  0  0  0  0  0  0  0
   12.1064  -12.6856    0.8859 H   0  0  0  0  0  0  0  0  0  0  0  0
   10.2621  -12.2544    2.8449 H   0  0  0  0  0  0  0  0  0  0  0  0
    7.3618  -14.7693    2.2728 H   0  0  0  0  0  0  0  0  0  0  0  0
    7.0466  -13.8131    6.7126 H   0  0  0  0  0  0  0  0  0  0  0  0
    7.0287  -11.3163    6.7598 H   0  0  0  0  0  0  0  0  0  0  0  0
    9.0043   -9.4434    5.9099 H   0  0  0  0  0  0  0  0  0  0  0  0
    5.4975   -7.4303    3.0907 H   0  0  0  0  0  0  0  0  0  0  0  0
    5.8084   -9.7730    3.0405 H   0  0  0  0  0  0  0  0  0  0  0  0
    5.9850   -5.7036    5.9253 H   0  0  0  0  0  0  0  0  0  0  0  0
    4.4225   -5.4791    4.1602 H   0  0  0  0  0  0  0  0  0  0  0  0
    5.3231   -3.9882    3.9751 H   0  0  0  0  0  0  0  0  0  0  0  0
    6.6448   -5.5677    2.4773 H   0  0  0  0  0  0  0  0  0  0  0  0
    6.2229   -2.9942    5.7714 H   0  0  0  0  0  0  0  0  0  0  0  0
   10.9413   -4.1454    4.8407 H   0  0  0  0  0  0  0  0  0  0  0  0
    9.2558   -5.8405    4.5439 H   0  0  0  0  0  0  0  0  0  0  0  0
  1  2  1  0  0  0  0
  1 32  1  0  0  0  0
  1 33  1  0  0  0  0
  1 34  1  0  0  0  0
  2  3  1  0  0  0  0
  2  6  1  0  0  0  0
  3  4  2  0  0  0  0
  4  5  1  0  0  0  0
  4 35  1  0  0  0  0
  5  6  2  0  0  0  0
  5 36  1  0  0  0  0
  6  7  1  0  0  0  0
  7  8  1  0  0  0  0
  7 37  1  0  0  0  0
  8  9  2  0  0  0  0
  8 13  1  0  0  0  0
  9 10  1  0  0  0  0
 10 11  2  0  0  0  0
 10 38  1  0  0  0  0
 11 12  1  0  0  0  0
 11 39  1  0  0  0  0
 12 13  2  0  0  0  0
 12 14  1  0  0  0  0
 14 15  2  0  0  0  0
 14 20  1  0  0  0  0
 15 16  1  0  0  0  0
 15 40  1  0  0  0  0
 16 17  2  0  0  0  0
 16 18  1  0  0  0  0
 18 19  1  0  0  0  0
 19 20  2  0  0  0  0
 19 41  1  0  0  0  0
 20 42  1  0  0  0  0
 21 24  1  0  0  0  0
 21 43  1  1  0  0  0
 21 22  1  0  0  0  0
 21 18  1  0  0  0  0
 22 23  1  0  0  0  0
 22 44  1  0  0  0  0
 22 45  1  0  0  0  0
 23 46  1  0  0  0  0
 24 25  2  0  0  0  0
 24 31  1  0  0  0  0
 25 26  1  0  0  0  0
 25 47  1  0  0  0  0
 26 27  1  0  0  0  0
 26 28  2  0  0  0  0
 28 29  1  0  0  0  0
 28 30  1  0  0  0  0
 30 31  2  0  0  0  0
 30 48  1  0  0  0  0
 31 49  1  0  0  0  0
M  END
>  <DRUGBANK_ID>
DB15281

>  <COMMON_NAME>
Ravoxertinib

>  <CAS_NUMBER>
1453848-26-4

>  <UNII>
R6AXV96CRH

>  <SYNONYMS>
Ravoxertinib

$$$$
