JT5
 OpenBabel10282417173D

 42 43  0  0  0  0  0  0  0  0999 V2000
    0.9661   -0.0231   -0.1114 C   0  0  0  0  0  0  0  0  0  0  0  0
    0.2016   -0.7831    0.9454 C   0  0  0  0  0  0  0  0  0  0  0  0
   -1.3852   -0.8496    2.8132 C   0  0  0  0  0  0  0  0  0  0  0  0
    0.1774    0.6356   -1.0239 N   0  0  0  0  0  0  0  0  0  0  0  0
    0.8610    1.4814   -1.9286 O   0  0  0  0  0  0  0  0  0  0  0  0
    2.1953   -0.0237   -0.1677 O   0  0  0  0  0  0  0  0  0  0  0  0
   -0.5953    0.0525    1.9083 N   0  0  0  0  0  0  0  0  0  0  0  0
    0.3529    1.3249    2.5843 S   0  0  0  0  0  0  0  0  0  0  0  0
   -0.5412   -1.6986    3.7794 C   0  0  0  0  0  0  0  0  0  0  0  0
    0.1957   -0.9380    4.7178 O   0  0  0  0  0  0  0  0  0  0  0  0
    0.7039    2.1952    1.4879 O   0  0  0  0  0  0  0  0  0  0  0  0
   -0.6677    2.2814    3.6804 C   0  0  0  0  0  0  0  0  0  0  0  0
    1.4123    0.7194    3.3731 O   0  0  0  0  0  0  0  0  0  0  0  0
   -1.4459    1.7419    4.7112 C   0  0  0  0  0  0  0  0  0  0  0  0
   -2.1351    2.5713    5.5988 C   0  0  0  0  0  0  0  0  0  0  0  0
   -1.9863    3.9531    5.5152 C   0  0  0  0  0  0  0  0  0  0  0  0
   -1.1288    4.4775    4.5332 C   0  0  0  0  0  0  0  0  0  0  0  0
   -0.5366    3.6636    3.5784 C   0  0  0  0  0  0  0  0  0  0  0  0
   -2.6864    4.8789    6.4025 C   0  0  0  0  0  0  0  0  0  0  0  0
   -2.5758    4.8026    7.7958 C   0  0  0  0  0  0  0  0  0  0  0  0
   -3.0991    5.8192    8.5963 C   0  0  0  0  0  0  0  0  0  0  0  0
   -3.7297    6.9177    8.0113 C   0  0  0  0  0  0  0  0  0  0  0  0
   -3.8661    6.9910    6.6291 C   0  0  0  0  0  0  0  0  0  0  0  0
   -3.3986    5.9497    5.8371 C   0  0  0  0  0  0  0  0  0  0  0  0
   -0.4690   -1.4882    0.4378 H   0  0  0  0  0  0  0  0  0  0  0  0
    0.9303   -1.3820    1.5022 H   0  0  0  0  0  0  0  0  0  0  0  0
   -2.1526   -0.2645    3.3199 H   0  0  0  0  0  0  0  0  0  0  0  0
   -1.9768   -1.5312    2.1879 H   0  0  0  0  0  0  0  0  0  0  0  0
   -0.8033    0.8389   -0.8605 H   0  0  0  0  0  0  0  0  0  0  0  0
    1.7939    1.4071   -1.6275 H   0  0  0  0  0  0  0  0  0  0  0  0
   -1.1969   -2.3412    4.3709 H   0  0  0  0  0  0  0  0  0  0  0  0
    0.1525   -2.3470    3.2396 H   0  0  0  0  0  0  0  0  0  0  0  0
    0.9497   -0.5178    4.2407 H   0  0  0  0  0  0  0  0  0  0  0  0
   -1.5318    0.6828    4.8999 H   0  0  0  0  0  0  0  0  0  0  0  0
   -2.7610    2.1252    6.3697 H   0  0  0  0  0  0  0  0  0  0  0  0
   -0.8995    5.5414    4.5237 H   0  0  0  0  0  0  0  0  0  0  0  0
    0.0676    4.1192    2.7974 H   0  0  0  0  0  0  0  0  0  0  0  0
   -2.0451    3.9758    8.2629 H   0  0  0  0  0  0  0  0  0  0  0  0
   -2.9789    5.7738    9.6750 H   0  0  0  0  0  0  0  0  0  0  0  0
   -4.1149    7.7207    8.6324 H   0  0  0  0  0  0  0  0  0  0  0  0
   -4.3088    7.8651    6.1612 H   0  0  0  0  0  0  0  0  0  0  0  0
   -3.5555    5.9870    4.7599 H   0  0  0  0  0  0  0  0  0  0  0  0
  1  2  1  0  0  0  0
  2  7  1  0  0  0  0
  2 25  1  0  0  0  0
  2 26  1  0  0  0  0
  3 27  1  0  0  0  0
  3 28  1  0  0  0  0
  4  1  1  0  0  0  0
  4 29  1  0  0  0  0
  5  4  1  0  0  0  0
  5 30  1  0  0  0  0
  6  1  2  0  0  0  0
  7  3  1  0  0  0  0
  8 13  2  0  0  0  0
  8  7  1  0  0  0  0
  8 11  2  0  0  0  0
  9  3  1  0  0  0  0
  9 10  1  0  0  0  0
  9 31  1  0  0  0  0
  9 32  1  0  0  0  0
 10 33  1  0  0  0  0
 12  8  1  0  0  0  0
 14 12  1  0  0  0  0
 14 34  1  0  0  0  0
 15 14  2  0  0  0  0
 15 35  1  0  0  0  0
 16 17  2  0  0  0  0
 16 15  1  0  0  0  0
 17 18  1  0  0  0  0
 17 36  1  0  0  0  0
 18 12  2  0  0  0  0
 18 37  1  0  0  0  0
 19 16  1  0  0  0  0
 20 19  2  0  0  0  0
 20 38  1  0  0  0  0
 21 20  1  0  0  0  0
 21 39  1  0  0  0  0
 22 21  2  0  0  0  0
 22 23  1  0  0  0  0
 22 40  1  0  0  0  0
 23 24  2  0  0  0  0
 23 41  1  0  0  0  0
 24 19  1  0  0  0  0
 24 42  1  0  0  0  0
M  END
>  <DRUGBANK_ID>
DB08029

>  <COMMON_NAME>
N~2~-(biphenyl-4-ylsulfonyl)-N-hydroxy-N~2~-(2-hydroxyethyl)glycinamide

$$$$
