A37
 OpenBabel10282417163D

 29 31  0  0  0  0  0  0  0  0999 V2000
   -0.5774   -1.2604    0.0073 C   0  0  0  0  0  0  0  0  0  0  0  0
    0.7984   -1.1987    0.1405 C   0  0  0  0  0  0  0  0  0  0  0  0
    1.4276    0.0456    0.1057 C   0  0  0  0  0  0  0  0  0  0  0  0
    0.6738    1.2299    0.0979 C   0  0  0  0  0  0  0  0  0  0  0  0
   -0.7232    1.1541   -0.0365 C   0  0  0  0  0  0  0  0  0  0  0  0
   -1.2588   -0.0881   -0.3156 C   0  0  0  0  0  0  0  0  0  0  0  0
   -1.7179    2.6209    0.1068 S   0  0  0  0  0  0  0  0  0  0  0  0
   -1.3130    3.2523    1.3575 O   0  0  0  0  0  0  0  0  0  0  0  0
   -1.5095    3.3315   -1.1327 O   0  0  0  0  0  0  0  0  0  0  0  0
   -3.3877    2.3970    0.2570 N   0  0  0  0  0  0  0  0  0  0  0  0
   -3.9845    1.1204    0.3162 C   0  0  0  0  0  0  0  0  0  0  0  0
   -4.9951    0.7768   -0.4702 N   0  0  0  0  0  0  0  0  0  0  0  0
   -5.1332   -0.5953   -0.2805 C   0  0  0  0  0  0  0  0  0  0  0  0
   -5.9000   -1.5873   -0.9286 C   0  0  0  0  0  0  0  0  0  0  0  0
   -5.7586   -2.9233   -0.5034 C   0  0  0  0  0  0  0  0  0  0  0  0
   -6.7458   -4.1559   -1.2010 Cl  0  0  0  0  0  0  0  0  0  0  0  0
   -4.8404   -3.2840    0.4874 C   0  0  0  0  0  0  0  0  0  0  0  0
   -4.0497   -2.3149    1.1148 C   0  0  0  0  0  0  0  0  0  0  0  0
   -4.2564   -0.9960    0.7156 C   0  0  0  0  0  0  0  0  0  0  0  0
   -3.5675    0.1078    1.1401 O   0  0  0  0  0  0  0  0  0  0  0  0
    3.1446    0.0935    0.0218 Cl  0  0  0  0  0  0  0  0  0  0  0  0
   -2.2377   -0.2598   -1.7520 Cl  0  0  0  0  0  0  0  0  0  0  0  0
   -1.0776   -2.2220   -0.0667 H   0  0  0  0  0  0  0  0  0  0  0  0
    1.3666   -2.1257    0.1459 H   0  0  0  0  0  0  0  0  0  0  0  0
    1.1843    2.1923    0.1117 H   0  0  0  0  0  0  0  0  0  0  0  0
   -3.9178    3.0778   -0.2834 H   0  0  0  0  0  0  0  0  0  0  0  0
   -6.5665   -1.3428   -1.7497 H   0  0  0  0  0  0  0  0  0  0  0  0
   -4.7312   -4.3296    0.7762 H   0  0  0  0  0  0  0  0  0  0  0  0
   -3.2937   -2.5800    1.8433 H   0  0  0  0  0  0  0  0  0  0  0  0
  1  2  1  0  0  0  0
  1  6  2  0  0  0  0
  1 23  1  0  0  0  0
  2  3  2  0  0  0  0
  2 24  1  0  0  0  0
  3  4  1  0  0  0  0
  3 21  1  0  0  0  0
  4  5  2  0  0  0  0
  4 25  1  0  0  0  0
  5  6  1  0  0  0  0
  5  7  1  0  0  0  0
  6 22  1  0  0  0  0
  7  8  2  0  0  0  0
  7  9  2  0  0  0  0
  7 10  1  0  0  0  0
 10 11  1  0  0  0  0
 10 26  1  0  0  0  0
 11 12  2  0  0  0  0
 11 20  1  0  0  0  0
 12 13  1  0  0  0  0
 13 14  2  0  0  0  0
 13 19  1  0  0  0  0
 14 15  1  0  0  0  0
 14 27  1  0  0  0  0
 15 16  1  0  0  0  0
 15 17  2  0  0  0  0
 17 18  1  0  0  0  0
 17 28  1  0  0  0  0
 18 19  2  0  0  0  0
 18 29  1  0  0  0  0
 19 20  1  0  0  0  0
M  END
>  <DRUGBANK_ID>
DB07312

>  <COMMON_NAME>
2,5-DICHLORO-N-(5-CHLORO-1,3-BENZOXAZOL-2-YL)BENZENESULFONAMIDE

$$$$
