
 OpenBabel10282417133D

 96 98  0  0  0  0  0  0  0  0999 V2000
    8.0346   -8.5173   -0.9883 S   0  0  0  0  0  0  0  0  0  0  0  0
    9.7900   -4.3735   -7.5850 P   0  0  0  0  0  0  0  0  0  0  0  0
    7.2778   -2.4474   -6.3818 P   0  0  1  0  0  0  0  0  0  0  0  0
    9.0393   -1.7361   -4.5301 P   0  0  1  0  0  0  0  0  0  0  0  0
    7.5357   -3.6287  -11.0003 O   0  0  0  0  0  0  0  0  0  0  0  0
    9.5047   -2.7269   -8.0328 O   0  0  0  0  0  0  0  0  0  0  0  0
   10.6460   -4.4292  -10.2984 O   0  0  0  0  0  0  0  0  0  0  0  0
    7.0894   -1.8948   -7.8705 O   0  0  0  0  0  0  0  0  0  0  0  0
    8.2623   -4.6322   -7.1227 O   0  0  0  0  0  0  0  0  0  0  0  0
    9.0817   -5.0712   -8.8631 O   0  0  0  0  0  0  0  0  0  0  0  0
    8.0958   -1.2026   -5.8785 O   0  0  0  0  0  0  0  0  0  0  0  0
   10.4132   -1.6975   -5.4568 O   0  0  0  0  0  0  0  0  0  0  0  0
   10.0452   -5.8471   -7.1843 O   0  0  0  0  0  0  0  0  0  0  0  0
    5.7497   -2.5109   -5.9724 O   0  0  0  0  0  0  0  0  0  0  0  0
   13.0688   -4.9202   -4.8893 O   0  0  0  0  0  0  0  0  0  0  0  0
    7.9710   -3.5069   -5.5848 O   0  0  0  0  0  0  0  0  0  0  0  0
    8.9872   -0.1605   -4.0640 O   0  0  0  0  0  0  0  0  0  0  0  0
    9.8837   -2.2135   -3.3233 O   0  0  0  0  0  0  0  0  0  0  0  0
    9.9206   -5.8619   -4.1917 O   0  0  0  0  0  0  0  0  0  0  0  0
   11.6072   -5.5509    1.7037 O   0  0  0  0  0  0  0  0  0  0  0  0
    8.8421  -10.7619    3.3230 O   0  0  0  0  0  0  0  0  0  0  0  0
    8.6371   -8.5252    3.6116 O   0  0  0  0  0  0  0  0  0  0  0  0
    8.7122   -2.4146  -12.5880 N   0  0  0  0  0  0  0  0  0  0  0  0
    7.7625   -0.8270  -13.7967 N   0  0  0  0  0  0  0  0  0  0  0  0
   11.0244   -2.2396  -13.3358 N   0  0  0  0  0  0  0  0  0  0  0  0
   11.2368   -0.5129  -15.0337 N   0  0  0  0  0  0  0  0  0  0  0  0
    9.3988    0.7631  -15.7891 N   0  0  0  0  0  0  0  0  0  0  0  0
   11.5783   -5.9754   -2.6160 N   0  0  0  0  0  0  0  0  0  0  0  0
    9.9859   -5.8563    0.2182 N   0  0  0  0  0  0  0  0  0  0  0  0
    9.0301   -2.6085   -9.4069 C   0  0  1  0  0  0  0  0  0  0  0  0
    9.9070   -3.1917  -10.5754 C   0  0  2  0  0  0  0  0  0  0  0  0
    7.6341   -3.2698   -9.6304 C   0  0  1  0  0  0  0  0  0  0  0  0
    8.8312   -3.4775  -11.6357 C   0  0  1  0  0  0  0  0  0  0  0  0
    6.5069   -2.5111   -8.9901 C   0  0  0  0  0  0  0  0  0  0  0  0
    9.7256   -1.8961  -13.3334 C   0  0  0  0  0  0  0  0  0  0  0  0
    7.5597   -1.7487  -12.8884 C   0  0  0  0  0  0  0  0  0  0  0  0
    9.1085   -0.9186  -14.0865 C   0  0  0  0  0  0  0  0  0  0  0  0
   11.9240   -3.0843   -3.6760 C   0  0  0  0  0  0  0  0  0  0  0  0
   11.8144   -4.3876   -4.5159 C   0  0  2  0  0  0  0  0  0  0  0  0
   11.6583   -1.8163   -4.7075 C   0  0  0  0  0  0  0  0  0  0  0  0
    9.9187   -0.2159  -14.9794 C   0  0  0  0  0  0  0  0  0  0  0  0
   11.1252   -3.3576   -2.3080 C   0  0  0  0  0  0  0  0  0  0  0  0
   13.2503   -2.6632   -3.0313 C   0  0  0  0  0  0  0  0  0  0  0  0
   11.7108   -1.4832  -14.2203 C   0  0  0  0  0  0  0  0  0  0  0  0
   11.0372   -5.5037   -3.8007 C   0  0  0  0  0  0  0  0  0  0  0  0
   12.5523   -5.4384   -1.6650 C   0  0  0  0  0  0  0  0  0  0  0  0
   12.0777   -4.6396   -0.4013 C   0  0  0  0  0  0  0  0  0  0  0  0
   11.2248   -5.4054    0.5433 C   0  0  0  0  0  0  0  0  0  0  0  0
    9.0984   -5.8739   -0.9625 C   0  0  0  0  0  0  0  0  0  0  0  0
    8.9824   -7.2166   -1.7246 C   0  0  0  0  0  0  0  0  0  0  0  0
    8.8605   -8.6363    0.6326 C   0  0  0  0  0  0  0  0  0  0  0  0
    7.9569   -9.4930    1.4923 C   0  0  2  0  0  0  0  0  0  0  0  0
    6.5491   -8.8730    1.5285 C   0  0  0  0  0  0  0  0  0  0  0  0
    8.5063   -9.5419    2.8864 C   0  0  0  0  0  0  0  0  0  0  0  0
    8.4014    0.9288  -15.7507 H   0  0  0  0  0  0  0  0  0  0  0  0
    9.9997    1.2166  -16.4543 H   0  0  0  0  0  0  0  0  0  0  0  0
   10.9807   -6.5817   -2.1284 H   0  0  0  0  0  0  0  0  0  0  0  0
    9.5472   -6.1074    1.0909 H   0  0  0  0  0  0  0  0  0  0  0  0
   10.3541   -5.2395  -10.8054 H   0  0  0  0  0  0  0  0  0  0  0  0
    8.3842   -4.8628   -6.1619 H   0  0  0  0  0  0  0  0  0  0  0  0
    9.5972   -4.8448   -9.5961 H   0  0  0  0  0  0  0  0  0  0  0  0
    5.4124   -3.2835   -6.4892 H   0  0  0  0  0  0  0  0  0  0  0  0
   13.0061   -5.8739   -4.6802 H   0  0  0  0  0  0  0  0  0  0  0  0
    8.1341    0.2372   -4.3180 H   0  0  0  0  0  0  0  0  0  0  0  0
    8.6927  -11.4808    2.6761 H   0  0  0  0  0  0  0  0  0  0  0  0
    8.9221   -1.5323   -9.6043 H   0  0  0  0  0  0  0  0  0  0  0  0
   10.7058   -2.4974  -10.8326 H   0  0  0  0  0  0  0  0  0  0  0  0
    7.4249   -4.1980   -9.1185 H   0  0  0  0  0  0  0  0  0  0  0  0
    9.0342   -4.4013  -12.1933 H   0  0  0  0  0  0  0  0  0  0  0  0
    5.6847   -3.1731   -8.6932 H   0  0  0  0  0  0  0  0  0  0  0  0
    6.0798   -1.7834   -9.6903 H   0  0  0  0  0  0  0  0  0  0  0  0
    6.6125   -1.9808  -12.4156 H   0  0  0  0  0  0  0  0  0  0  0  0
   11.2457   -4.1813   -5.4316 H   0  0  0  0  0  0  0  0  0  0  0  0
   11.7915   -0.8662   -4.1715 H   0  0  0  0  0  0  0  0  0  0  0  0
   12.4455   -1.8548   -5.4689 H   0  0  0  0  0  0  0  0  0  0  0  0
   10.1945   -3.4019   -1.6660 H   0  0  0  0  0  0  0  0  0  0  0  0
   11.2021   -2.3562   -1.8426 H   0  0  0  0  0  0  0  0  0  0  0  0
   10.3091   -3.8972   -2.8303 H   0  0  0  0  0  0  0  0  0  0  0  0
   13.4352   -3.1239   -2.0616 H   0  0  0  0  0  0  0  0  0  0  0  0
   14.0989   -2.8304   -3.6786 H   0  0  0  0  0  0  0  0  0  0  0  0
   13.1726   -1.6114   -2.7270 H   0  0  0  0  0  0  0  0  0  0  0  0
   12.7785   -1.6779  -14.2915 H   0  0  0  0  0  0  0  0  0  0  0  0
   13.2779   -4.9266   -2.2790 H   0  0  0  0  0  0  0  0  0  0  0  0
   13.0727   -6.3088   -1.2814 H   0  0  0  0  0  0  0  0  0  0  0  0
   11.5235   -3.6980   -0.4007 H   0  0  0  0  0  0  0  0  0  0  0  0
   12.9739   -4.2528    0.0993 H   0  0  0  0  0  0  0  0  0  0  0  0
    9.4648   -5.1555   -1.6652 H   0  0  0  0  0  0  0  0  0  0  0  0
    8.1156   -5.4798   -0.6807 H   0  0  0  0  0  0  0  0  0  0  0  0
    9.9186   -7.7496   -1.8853 H   0  0  0  0  0  0  0  0  0  0  0  0
    8.5539   -7.0262   -2.7127 H   0  0  0  0  0  0  0  0  0  0  0  0
    9.8939   -8.9948    0.5434 H   0  0  0  0  0  0  0  0  0  0  0  0
    8.8897   -7.6842    1.1444 H   0  0  0  0  0  0  0  0  0  0  0  0
    7.9261  -10.5022    1.0680 H   0  0  0  0  0  0  0  0  0  0  0  0
    5.9805   -9.1909    2.3988 H   0  0  0  0  0  0  0  0  0  0  0  0
    6.6025   -7.7728    1.5424 H   0  0  0  0  0  0  0  0  0  0  0  0
    5.9813   -9.1502    0.6328 H   0  0  0  0  0  0  0  0  0  0  0  0
  1 50  1  0  0  0  0
  1 51  1  0  0  0  0
  2  6  1  0  0  0  0
  2  9  1  0  0  0  0
  2 10  1  0  0  0  0
  2 13  2  0  0  0  0
  3 14  1  0  0  0  0
  3 16  2  1  0  0  0
  3 11  1  0  0  0  0
  3  8  1  0  0  0  0
  4 17  1  0  0  0  0
  4 18  2  1  0  0  0
  4 12  1  0  0  0  0
  4 11  1  0  0  0  0
  5 32  1  0  0  0  0
  5 33  1  0  0  0  0
  7 59  1  0  0  0  0
  8 34  1  0  0  0  0
  9 60  1  0  0  0  0
 10 61  1  0  0  0  0
 12 40  1  0  0  0  0
 14 62  1  0  0  0  0
 15 63  1  0  0  0  0
 17 64  1  0  0  0  0
 19 45  2  0  0  0  0
 20 48  2  0  0  0  0
 21 54  1  0  0  0  0
 21 65  1  0  0  0  0
 22 54  2  0  0  0  0
 23 35  1  0  0  0  0
 23 36  1  0  0  0  0
 24 36  2  0  0  0  0
 24 37  1  0  0  0  0
 25 35  2  0  0  0  0
 25 44  1  0  0  0  0
 26 41  1  0  0  0  0
 26 44  2  0  0  0  0
 27 41  1  0  0  0  0
 27 55  1  0  0  0  0
 27 56  1  0  0  0  0
 28 45  1  0  0  0  0
 28 46  1  0  0  0  0
 28 57  1  0  0  0  0
 29 48  1  0  0  0  0
 29 49  1  0  0  0  0
 29 58  1  0  0  0  0
 30  6  1  0  0  0  0
 30 31  1  0  0  0  0
 30 32  1  0  0  0  0
 30 66  1  6  0  0  0
 31  7  1  0  0  0  0
 31 33  1  0  0  0  0
 31 67  1  6  0  0  0
 32 68  1  1  0  0  0
 32 34  1  0  0  0  0
 33 23  1  0  0  0  0
 33 69  1  6  0  0  0
 34 70  1  0  0  0  0
 34 71  1  0  0  0  0
 35 37  1  0  0  0  0
 36 72  1  0  0  0  0
 37 41  2  0  0  0  0
 38 40  1  0  0  0  0
 38 42  1  0  0  0  0
 38 43  1  0  0  0  0
 39 45  1  0  0  0  0
 39 73  1  6  0  0  0
 39 38  1  0  0  0  0
 39 15  1  0  0  0  0
 40 74  1  0  0  0  0
 40 75  1  0  0  0  0
 42 76  1  0  0  0  0
 42 77  1  0  0  0  0
 42 78  1  0  0  0  0
 43 79  1  0  0  0  0
 43 80  1  0  0  0  0
 43 81  1  0  0  0  0
 44 82  1  0  0  0  0
 46 47  1  0  0  0  0
 46 83  1  0  0  0  0
 46 84  1  0  0  0  0
 47 48  1  0  0  0  0
 47 85  1  0  0  0  0
 47 86  1  0  0  0  0
 49 50  1  0  0  0  0
 49 87  1  0  0  0  0
 49 88  1  0  0  0  0
 50 89  1  0  0  0  0
 50 90  1  0  0  0  0
 51 91  1  0  0  0  0
 51 92  1  0  0  0  0
 52 54  1  0  0  0  0
 52 93  1  6  0  0  0
 52 53  1  0  0  0  0
 52 51  1  0  0  0  0
 53 94  1  0  0  0  0
 53 95  1  0  0  0  0
 53 96  1  0  0  0  0
M  END
>  <DRUGBANK_ID>
DB03117

>  <SECONDARY_ACCESSION_NUMBERS>
EXPT00110

>  <COMMON_NAME>
2-carboxypropyl-coenzyme A

$$$$
