
 OpenBabel10282417223D

 69 69  0  0  0  0  0  0  0  0999 V2000
    1.1046    0.0079   -0.2985 Fe  0  1  0  0  0  0  0  0  0  0  0  0
    2.0463   -7.7876    3.0454 O   0  0  0  0  0  0  0  0  0  0  0  0
    0.0284   -7.5850    5.2481 O   0  0  0  0  0  0  0  0  0  0  0  0
    0.8741   -9.4357    3.7881 O   0  0  0  0  0  0  0  0  0  0  0  0
    3.4735   -5.3864    1.5884 O   0  0  0  0  0  0  0  0  0  0  0  0
   -1.6322   -5.3660    1.8192 O   0  0  0  0  0  0  0  0  0  0  0  0
   -0.5304   -5.6695   -0.4177 O   0  0  0  0  0  0  0  0  0  0  0  0
    3.5015   -6.3536   -0.5395 O   0  0  0  0  0  0  0  0  0  0  0  0
    2.5231   -6.3311    5.8234 O   0  0  0  0  0  0  0  0  0  0  0  0
    3.1990   -5.4452    3.5417 O   0  0  0  0  0  0  0  0  0  0  0  0
    0.5430   -7.9546    0.4560 O   0  0  0  0  0  0  0  0  0  0  0  0
   -0.7239  -10.9408    1.9034 O   0  0  0  0  0  0  0  0  0  0  0  0
    2.1636   -4.7462   -0.8006 O   0  0  0  0  0  0  0  0  0  0  0  0
    1.2881   -1.7571    0.3736 O   0  0  0  0  0  0  0  0  0  0  0  0
    0.4292   -1.8566   -2.0613 O   0  0  0  0  0  0  0  0  0  0  0  0
    0.3383   -4.2880   -3.9730 O   0  0  0  0  0  0  0  0  0  0  0  0
    0.9970   -6.5392   -1.4612 O   0  0  0  0  0  0  0  0  0  0  0  0
    0.1877   -6.8655    3.0855 C   0  0  1  0  0  0  0  0  0  0  0  0
   -0.6141   -6.3984    1.6973 C   0  0  2  0  0  0  0  0  0  0  0  0
    0.5030   -5.8354    0.6858 C   0  0  1  0  0  0  0  0  0  0  0  0
    2.2930   -6.7285    0.3323 C   0  0  2  0  0  0  0  0  0  0  0  0
    3.0511   -6.9142    1.6429 C   0  0  2  0  0  0  0  0  0  0  0  0
    2.4119   -7.2575    4.7579 C   0  0  1  0  0  0  0  0  0  0  0  0
    1.1820   -8.3930    4.8910 C   0  0  1  0  0  0  0  0  0  0  0  0
    1.9425   -6.1854    3.2085 C   0  0  2  0  0  0  0  0  0  0  0  0
    1.1599   -7.7351    1.7196 C   0  0  1  0  0  0  0  0  0  0  0  0
   -0.7511   -7.3254    4.1268 C   0  0  0  0  0  0  0  0  0  0  0  0
    0.4226   -9.0184    2.4505 C   0  0  1  0  0  0  0  0  0  0  0  0
    0.1871  -10.0415    1.3642 C   0  0  0  0  0  0  0  0  0  0  0  0
    2.4610   -4.3084    1.5997 C   0  0  0  0  0  0  0  0  0  0  0  0
    2.3806   -3.8307    0.1704 C   0  0  2  0  0  0  0  0  0  0  0  0
    1.1483   -3.0664   -0.2761 C   0  0  2  0  0  0  0  0  0  0  0  0
    1.0587   -3.1628   -1.8638 C   0  0  1  0  0  0  0  0  0  0  0  0
    0.3458   -4.4895   -2.5892 C   0  0  2  0  0  0  0  0  0  0  0  0
    1.0384   -5.9173   -2.6590 C   0  0  0  0  0  0  0  0  0  0  0  0
   -1.2183   -4.5053    1.9121 H   0  0  0  0  0  0  0  0  0  0  0  0
   -0.5101   -6.4394   -1.0569 H   0  0  0  0  0  0  0  0  0  0  0  0
    3.9717   -5.5875   -0.1316 H   0  0  0  0  0  0  0  0  0  0  0  0
    1.6522   -5.9071    5.8171 H   0  0  0  0  0  0  0  0  0  0  0  0
    3.9476   -5.8383    3.0518 H   0  0  0  0  0  0  0  0  0  0  0  0
   -0.0931   -7.4150    0.0088 H   0  0  0  0  0  0  0  0  0  0  0  0
   -0.3115  -11.1562    2.7556 H   0  0  0  0  0  0  0  0  0  0  0  0
    2.7227   -5.5121   -1.0511 H   0  0  0  0  0  0  0  0  0  0  0  0
    1.4268   -2.1529    1.3014 H   0  0  0  0  0  0  0  0  0  0  0  0
   -0.5246   -2.1119   -2.1622 H   0  0  0  0  0  0  0  0  0  0  0  0
   -0.2682   -3.5835   -4.1833 H   0  0  0  0  0  0  0  0  0  0  0  0
    1.0733   -5.6841   -0.9926 H   0  0  0  0  0  0  0  0  0  0  0  0
    0.1637   -5.7112    3.1541 H   0  0  0  0  0  0  0  0  0  0  0  0
   -1.2545   -7.1966    1.2780 H   0  0  0  0  0  0  0  0  0  0  0  0
    0.5092   -4.8028    0.8966 H   0  0  0  0  0  0  0  0  0  0  0  0
    2.2027   -7.6879   -0.2313 H   0  0  0  0  0  0  0  0  0  0  0  0
    3.9337   -7.5471    1.5732 H   0  0  0  0  0  0  0  0  0  0  0  0
    3.4131   -7.7059    4.4965 H   0  0  0  0  0  0  0  0  0  0  0  0
    1.4913   -8.9904    5.7395 H   0  0  0  0  0  0  0  0  0  0  0  0
    1.3577   -5.6400    3.9780 H   0  0  0  0  0  0  0  0  0  0  0  0
    2.0379   -8.5089    1.4589 H   0  0  0  0  0  0  0  0  0  0  0  0
   -1.5147   -6.5391    4.1664 H   0  0  0  0  0  0  0  0  0  0  0  0
   -1.3181   -8.2090    3.8688 H   0  0  0  0  0  0  0  0  0  0  0  0
   -0.5985   -8.7034    2.4557 H   0  0  0  0  0  0  0  0  0  0  0  0
   -0.3579   -9.6061    0.5077 H   0  0  0  0  0  0  0  0  0  0  0  0
    1.1539  -10.4084    1.0254 H   0  0  0  0  0  0  0  0  0  0  0  0
    1.5142   -4.5100    2.1253 H   0  0  0  0  0  0  0  0  0  0  0  0
    2.7199   -3.4810    2.2714 H   0  0  0  0  0  0  0  0  0  0  0  0
    3.3550   -3.4485   -0.0836 H   0  0  0  0  0  0  0  0  0  0  0  0
    0.1267   -3.3637    0.0133 H   0  0  0  0  0  0  0  0  0  0  0  0
    2.0805   -3.1779   -2.2664 H   0  0  0  0  0  0  0  0  0  0  0  0
   -0.6885   -4.5095   -2.2117 H   0  0  0  0  0  0  0  0  0  0  0  0
    0.4870   -6.7171   -3.1175 H   0  0  0  0  0  0  0  0  0  0  0  0
    2.1137   -5.8620   -2.8225 H   0  0  0  0  0  0  0  0  0  0  0  0
  2 18  1  0  0  0  0
  2 22  1  0  0  0  0
  3 27  1  0  0  0  0
  4 24  1  0  0  0  0
  4 28  1  0  0  0  0
  5 30  1  0  0  0  0
  6 36  1  0  0  0  0
  7 37  1  0  0  0  0
  8 38  1  0  0  0  0
  9 39  1  0  0  0  0
 10 40  1  0  0  0  0
 11 41  1  0  0  0  0
 12 29  1  0  0  0  0
 12 42  1  0  0  0  0
 13 43  1  0  0  0  0
 14 44  1  0  0  0  0
 15 45  1  0  0  0  0
 16 46  1  0  0  0  0
 17 35  1  0  0  0  0
 17 47  1  0  0  0  0
 18 19  1  0  0  0  0
 18 27  1  0  0  0  0
 18 48  1  1  0  0  0
 19  6  1  0  0  0  0
 19 20  1  0  0  0  0
 19 49  1  6  0  0  0
 20  7  1  0  0  0  0
 20 21  1  0  0  0  0
 20 50  1  1  0  0  0
 21  8  1  0  0  0  0
 21 22  1  0  0  0  0
 21 51  1  6  0  0  0
 22 52  1  6  0  0  0
 22  5  1  0  0  0  0
 23  9  1  0  0  0  0
 23 24  1  0  0  0  0
 23 25  1  0  0  0  0
 23 53  1  6  0  0  0
 24  3  1  0  0  0  0
 24 54  1  1  0  0  0
 25 10  1  0  0  0  0
 25 26  1  0  0  0  0
 25 55  1  1  0  0  0
 26 11  1  0  0  0  0
 26 28  1  0  0  0  0
 26 56  1  6  0  0  0
 27 57  1  0  0  0  0
 27 58  1  0  0  0  0
 28 29  1  0  0  0  0
 28 59  1  1  0  0  0
 29 60  1  0  0  0  0
 29 61  1  0  0  0  0
 30 31  1  0  0  0  0
 30 62  1  0  0  0  0
 30 63  1  0  0  0  0
 31 13  1  0  0  0  0
 31 32  1  0  0  0  0
 31 64  1  6  0  0  0
 32 14  1  0  0  0  0
 32 65  1  1  0  0  0
 33 34  1  0  0  0  0
 33 66  1  6  0  0  0
 33 32  1  0  0  0  0
 33 15  1  0  0  0  0
 34 16  1  0  0  0  0
 34 35  1  0  0  0  0
 34 67  1  1  0  0  0
 35 68  1  0  0  0  0
 35 69  1  0  0  0  0
M  CHG  1   1   3
M  END
>  <DRUGBANK_ID>
DB15617

>  <COMMON_NAME>
Ferric derisomaltose

>  <CAS_NUMBER>
1345510-43-1

>  <UNII>
AHU547PI9H

>  <SYNONYMS>
Ferric derisomaltose

$$$$
