
 OpenBabel10282417133D

 28 30  0  0  1  0  0  0  0  0999 V2000
   -6.4723   -0.2298   -5.7277 N   0  0  0  0  0  0  0  0  0  0  0  0
   -5.4027   -0.4975   -4.8723 C   0  0  0  0  0  0  0  0  0  0  0  0
   -4.4351    0.4245   -4.6971 N   0  0  0  0  0  0  0  0  0  0  0  0
   -3.4885    0.1781   -3.7589 C   0  0  0  0  0  0  0  0  0  0  0  0
   -3.3100   -0.9233   -2.9872 N   0  0  0  0  0  0  0  0  0  0  0  0
   -4.2514   -1.8449   -3.2558 C   0  0  0  0  0  0  0  0  0  0  0  0
   -5.3046   -1.6956   -4.1506 C   0  0  0  0  0  0  0  0  0  0  0  0
   -6.0950   -2.8072   -4.1826 N   0  0  0  0  0  0  0  0  0  0  0  0
   -5.5249   -3.6265   -3.3354 C   0  0  0  0  0  0  0  0  0  0  0  0
   -4.4062   -3.1094   -2.7277 N   0  0  0  0  0  0  0  0  0  0  0  0
   -3.6110   -3.7294   -1.6596 C   0  0  2  0  0  0  0  0  0  0  0  0
   -2.8713   -4.9751   -2.0993 C   0  0  0  0  0  0  0  0  0  0  0  0
   -3.4033   -6.0972   -1.5790 C   0  0  0  0  0  0  0  0  0  0  0  0
   -4.5759   -5.8005   -0.7062 C   0  0  2  0  0  0  0  0  0  0  0  0
   -5.7737   -6.1587   -1.3655 O   0  0  0  0  0  0  0  0  0  0  0  0
   -4.4837   -4.2713   -0.4854 C   0  0  1  0  0  0  0  0  0  0  0  0
   -3.8614   -4.0296    0.7873 O   0  0  0  0  0  0  0  0  0  0  0  0
   -7.1658   -0.9728   -5.7370 H   0  0  0  0  0  0  0  0  0  0  0  0
   -6.1677    0.0908   -6.6380 H   0  0  0  0  0  0  0  0  0  0  0  0
   -2.7814    0.9879   -3.5999 H   0  0  0  0  0  0  0  0  0  0  0  0
   -5.9368   -4.5958   -3.1435 H   0  0  0  0  0  0  0  0  0  0  0  0
   -2.8850   -2.9898   -1.2986 H   0  0  0  0  0  0  0  0  0  0  0  0
   -1.9739   -4.9624   -2.7014 H   0  0  0  0  0  0  0  0  0  0  0  0
   -3.0245   -7.0970   -1.7336 H   0  0  0  0  0  0  0  0  0  0  0  0
   -4.5253   -6.3597    0.2330 H   0  0  0  0  0  0  0  0  0  0  0  0
   -5.5909   -6.1725   -2.3180 H   0  0  0  0  0  0  0  0  0  0  0  0
   -5.4644   -3.7870   -0.4585 H   0  0  0  0  0  0  0  0  0  0  0  0
   -4.3607   -4.5534    1.4431 H   0  0  0  0  0  0  0  0  0  0  0  0
  1  2  1  0  0  0  0
  1 18  1  0  0  0  0
  1 19  1  0  0  0  0
  2  3  2  0  0  0  0
  2  7  1  0  0  0  0
  3  4  1  0  0  0  0
  4  5  2  0  0  0  0
  4 20  1  0  0  0  0
  5  6  1  0  0  0  0
  6  7  2  0  0  0  0
  6 10  1  0  0  0  0
  7  8  1  0  0  0  0
  8  9  2  0  0  0  0
  9 10  1  0  0  0  0
  9 21  1  0  0  0  0
 11 12  1  0  0  0  0
 11 16  1  0  0  0  0
 11 22  1  1  0  0  0
 11 10  1  0  0  0  0
 12 13  2  0  0  0  0
 12 23  1  0  0  0  0
 13 14  1  0  0  0  0
 13 24  1  0  0  0  0
 14 16  1  0  0  0  0
 14 25  1  1  0  0  0
 14 15  1  0  0  0  0
 15 26  1  0  0  0  0
 16 27  1  6  0  0  0
 16 17  1  0  0  0  0
 17 28  1  0  0  0  0
M  END
>  <DRUGBANK_ID>
DB03216

>  <SECONDARY_ACCESSION_NUMBERS>
EXPT00427

>  <COMMON_NAME>
(1'R,2'S)-9-(2-Hydroxy-3'-Keto-Cyclopenten-1-yl)Adenine

$$$$
