
 OpenBabel10282417193D

 52 55  0  0  0  0  0  0  0  0999 V2000
    0.7015   -0.2223    0.1954 C   0  0  0  0  0  0  0  0  0  0  0  0
    0.0795   -1.0332   -0.8454 N   0  0  0  0  0  0  0  0  0  0  0  0
   -1.3553   -1.0159   -0.8076 C   0  0  0  0  0  0  0  0  0  0  0  0
    0.4700   -0.7479   -2.2150 C   0  0  0  0  0  0  0  0  0  0  0  0
    0.4092    0.6817   -2.7891 C   0  0  0  0  0  0  0  0  0  0  0  0
    1.1482    1.8063   -2.0544 C   0  0  0  0  0  0  0  0  0  0  0  0
    2.5998    1.8104   -2.0456 O   0  0  0  0  0  0  0  0  0  0  0  0
    3.3125    0.6779   -1.7677 C   0  0  0  0  0  0  0  0  0  0  0  0
    3.2768   -0.4743   -2.5160 C   0  0  0  0  0  0  0  0  0  0  0  0
    3.6231   -1.7199   -1.9463 C   0  0  0  0  0  0  0  0  0  0  0  0
    4.4558   -1.6884   -0.8440 C   0  0  0  0  0  0  0  0  0  0  0  0
    4.8463   -0.4905   -0.2601 C   0  0  0  0  0  0  0  0  0  0  0  0
    4.2194    0.6930   -0.7250 C   0  0  0  0  0  0  0  0  0  0  0  0
    5.8278   -0.8887    0.6857 C   0  0  0  0  0  0  0  0  0  0  0  0
    5.9932   -2.2338    0.7139 N   0  0  0  0  0  0  0  0  0  0  0  0
    5.0995   -2.6880   -0.1738 N   0  0  0  0  0  0  0  0  0  0  0  0
    6.8298    0.1865    1.6398 S   0  0  0  0  0  0  0  0  0  0  0  0
    6.5109   -0.1455    3.0276 O   0  0  0  0  0  0  0  0  0  0  0  0
    8.1419   -0.0495    1.0963 O   0  0  0  0  0  0  0  0  0  0  0  0
    6.3028    1.8874    1.3931 C   0  0  0  0  0  0  0  0  0  0  0  0
    4.9956    2.2109    1.8210 C   0  0  0  0  0  0  0  0  0  0  0  0
    4.4457    3.4616    1.5349 C   0  0  0  0  0  0  0  0  0  0  0  0
    5.2254    4.4319    0.9127 C   0  0  0  0  0  0  0  0  0  0  0  0
    6.5666    4.1772    0.5852 C   0  0  0  0  0  0  0  0  0  0  0  0
    7.1295    2.8853    0.8007 C   0  0  0  0  0  0  0  0  0  0  0  0
    8.4813    2.7214    0.4212 C   0  0  0  0  0  0  0  0  0  0  0  0
    9.2529    3.7609   -0.0928 C   0  0  0  0  0  0  0  0  0  0  0  0
    8.6931    5.0115   -0.2715 C   0  0  0  0  0  0  0  0  0  0  0  0
    7.3541    5.2154    0.0528 C   0  0  0  0  0  0  0  0  0  0  0  0
    0.5007   -0.6097    1.1959 H   0  0  0  0  0  0  0  0  0  0  0  0
    0.3194    0.7942    0.2159 H   0  0  0  0  0  0  0  0  0  0  0  0
    1.7910   -0.1926    0.1219 H   0  0  0  0  0  0  0  0  0  0  0  0
   -1.7308   -0.0333   -1.1014 H   0  0  0  0  0  0  0  0  0  0  0  0
   -1.7177   -1.7645   -1.5212 H   0  0  0  0  0  0  0  0  0  0  0  0
   -1.7069   -1.2826    0.1848 H   0  0  0  0  0  0  0  0  0  0  0  0
    1.4199   -1.1982   -2.1950 H   0  0  0  0  0  0  0  0  0  0  0  0
    0.0220   -1.4293   -2.9554 H   0  0  0  0  0  0  0  0  0  0  0  0
    0.7901    0.6797   -3.8186 H   0  0  0  0  0  0  0  0  0  0  0  0
   -0.6533    0.9466   -2.8813 H   0  0  0  0  0  0  0  0  0  0  0  0
    0.8621    2.7436   -2.5556 H   0  0  0  0  0  0  0  0  0  0  0  0
    0.7372    2.0073   -1.0625 H   0  0  0  0  0  0  0  0  0  0  0  0
    2.7267   -0.4695   -3.4514 H   0  0  0  0  0  0  0  0  0  0  0  0
    3.1972   -2.6496   -2.3175 H   0  0  0  0  0  0  0  0  0  0  0  0
    4.4203    1.6647   -0.3222 H   0  0  0  0  0  0  0  0  0  0  0  0
    5.0503   -3.6871   -0.3557 H   0  0  0  0  0  0  0  0  0  0  0  0
    4.3510    1.4474    2.2578 H   0  0  0  0  0  0  0  0  0  0  0  0
    3.3992    3.6675    1.7525 H   0  0  0  0  0  0  0  0  0  0  0  0
    4.7762    5.4002    0.6902 H   0  0  0  0  0  0  0  0  0  0  0  0
    9.0085    1.7842    0.5369 H   0  0  0  0  0  0  0  0  0  0  0  0
   10.2961    3.5735   -0.3320 H   0  0  0  0  0  0  0  0  0  0  0  0
    9.3018    5.8241   -0.6561 H   0  0  0  0  0  0  0  0  0  0  0  0
    6.9377    6.2110   -0.0910 H   0  0  0  0  0  0  0  0  0  0  0  0
  1  2  1  0  0  0  0
  1 30  1  0  0  0  0
  1 31  1  0  0  0  0
  1 32  1  0  0  0  0
  2  3  1  0  0  0  0
  2  4  1  0  0  0  0
  3 33  1  0  0  0  0
  3 34  1  0  0  0  0
  3 35  1  0  0  0  0
  4  5  1  0  0  0  0
  4 36  1  0  0  0  0
  4 37  1  0  0  0  0
  5  6  1  0  0  0  0
  5 38  1  0  0  0  0
  5 39  1  0  0  0  0
  6  7  1  0  0  0  0
  6 40  1  0  0  0  0
  6 41  1  0  0  0  0
  7  8  1  0  0  0  0
  8  9  2  0  0  0  0
  8 13  1  0  0  0  0
  9 10  1  0  0  0  0
  9 42  1  0  0  0  0
 10 11  2  0  0  0  0
 10 43  1  0  0  0  0
 11 12  1  0  0  0  0
 11 16  1  0  0  0  0
 12 13  2  0  0  0  0
 12 14  1  0  0  0  0
 13 44  1  0  0  0  0
 14 15  2  0  0  0  0
 14 17  1  0  0  0  0
 15 16  1  0  0  0  0
 16 45  1  0  0  0  0
 17 18  2  0  0  0  0
 17 19  2  0  0  0  0
 17 20  1  0  0  0  0
 20 21  1  0  0  0  0
 20 25  2  0  0  0  0
 21 22  2  0  0  0  0
 21 46  1  0  0  0  0
 22 23  1  0  0  0  0
 22 47  1  0  0  0  0
 23 24  2  0  0  0  0
 23 48  1  0  0  0  0
 24 25  1  0  0  0  0
 24 29  1  0  0  0  0
 25 26  1  0  0  0  0
 26 27  2  0  0  0  0
 26 49  1  0  0  0  0
 27 28  1  0  0  0  0
 27 50  1  0  0  0  0
 28 29  2  0  0  0  0
 28 51  1  0  0  0  0
 29 52  1  0  0  0  0
M  END
>  <DRUGBANK_ID>
DB12229

>  <COMMON_NAME>
Cerlapirdine

>  <CAS_NUMBER>
925448-93-7

>  <UNII>
EK40PJ0V49

>  <SYNONYMS>
Cerlapirdine

$$$$
