
 OpenBabel10282417133D

 27 27  0  0  1  0  0  0  0  0999 V2000
    0.8865   -0.1114   -0.0777 N   0  0  0  0  0  0  0  0  0  0  0  0
    0.3693   -0.3680    1.2784 C   0  0  1  0  0  0  0  0  0  0  0  0
    0.8984    0.6655    2.2763 C   0  0  0  0  0  0  0  0  0  0  0  0
    0.4737    2.0424    2.0436 N   0  0  0  0  0  0  0  0  0  0  0  0
   -0.3920    2.7902    2.8114 C   0  0  0  0  0  0  0  0  0  0  0  0
   -0.8390    3.8542    2.3830 O   0  0  0  0  0  0  0  0  0  0  0  0
   -0.7265    2.3530    4.1898 C   0  0  0  0  0  0  0  0  0  0  0  0
    0.2748    1.8297    5.0195 C   0  0  0  0  0  0  0  0  0  0  0  0
   -0.0030    1.4658    6.3307 C   0  0  0  0  0  0  0  0  0  0  0  0
   -1.2603    1.7313    6.8594 C   0  0  0  0  0  0  0  0  0  0  0  0
   -2.2482    2.3150    6.0616 C   0  0  0  0  0  0  0  0  0  0  0  0
   -2.0036    2.5758    4.7099 C   0  0  0  0  0  0  0  0  0  0  0  0
   -1.1682   -0.3522    1.2951 C   0  0  0  0  0  0  0  0  0  0  0  0
   -1.7509   -1.4885    1.7385 O   0  0  0  0  0  0  0  0  0  0  0  0
   -1.8460    0.6135    0.9536 O   0  0  0  0  0  0  0  0  0  0  0  0
    0.5298    0.8021   -0.3716 H   0  0  0  0  0  0  0  0  0  0  0  0
    1.9012   -0.0109   -0.0409 H   0  0  0  0  0  0  0  0  0  0  0  0
    0.7265   -1.3546    1.5976 H   0  0  0  0  0  0  0  0  0  0  0  0
    0.5697    0.3085    3.2476 H   0  0  0  0  0  0  0  0  0  0  0  0
    1.9945    0.6869    2.2794 H   0  0  0  0  0  0  0  0  0  0  0  0
    0.6222    2.4573    1.1293 H   0  0  0  0  0  0  0  0  0  0  0  0
    1.2876    1.7028    4.6503 H   0  0  0  0  0  0  0  0  0  0  0  0
    0.7772    1.0213    6.9412 H   0  0  0  0  0  0  0  0  0  0  0  0
   -1.4622    1.5045    7.9026 H   0  0  0  0  0  0  0  0  0  0  0  0
   -3.2029    2.5891    6.5034 H   0  0  0  0  0  0  0  0  0  0  0  0
   -2.7964    2.9749    4.0793 H   0  0  0  0  0  0  0  0  0  0  0  0
   -1.1524   -2.2359    1.9175 H   0  0  0  0  0  0  0  0  0  0  0  0
  1 16  1  0  0  0  0
  1 17  1  0  0  0  0
  2  1  1  0  0  0  0
  2  3  1  0  0  0  0
  2 13  1  0  0  0  0
  2 18  1  1  0  0  0
  3  4  1  0  0  0  0
  3 19  1  0  0  0  0
  3 20  1  0  0  0  0
  4  5  1  0  0  0  0
  4 21  1  0  0  0  0
  5  6  2  0  0  0  0
  5  7  1  0  0  0  0
  7  8  2  0  0  0  0
  7 12  1  0  0  0  0
  8  9  1  0  0  0  0
  8 22  1  0  0  0  0
  9 10  2  0  0  0  0
  9 23  1  0  0  0  0
 10 11  1  0  0  0  0
 10 24  1  0  0  0  0
 11 12  2  0  0  0  0
 11 25  1  0  0  0  0
 12 26  1  0  0  0  0
 13 14  1  0  0  0  0
 13 15  2  0  0  0  0
 14 27  1  0  0  0  0
M  END
>  <DRUGBANK_ID>
DB03992

>  <SECONDARY_ACCESSION_NUMBERS>
EXPT01128

>  <COMMON_NAME>
3-(Benzoylamino)-L-Alanine

$$$$
