
 OpenBabel10282417193D

 64 67  0  0  1  0  0  0  0  0999 V2000
    1.0126    0.0147   -0.0719 C   0  0  0  0  0  0  0  0  0  0  0  0
    0.4879   -1.3923   -0.3002 C   0  0  0  0  0  0  0  0  0  0  0  0
    0.9505   -2.3559    0.7968 C   0  0  0  0  0  0  0  0  0  0  0  0
    0.4123   -1.9975    2.1818 C   0  0  0  0  0  0  0  0  0  0  0  0
   -1.1110   -1.9763    2.2290 C   0  0  0  0  0  0  0  0  0  0  0  0
   -1.6934   -3.2797    2.0088 N   0  0  0  0  0  0  0  0  0  0  0  0
   -2.4707   -4.0093    2.8762 C   0  0  0  0  0  0  0  0  0  0  0  0
   -2.7522   -5.1723    2.5906 O   0  0  0  0  0  0  0  0  0  0  0  0
   -2.9119   -3.3935    4.1185 C   0  0  0  0  0  0  0  0  0  0  0  0
   -2.9690   -3.9986    5.3513 C   0  0  0  0  0  0  0  0  0  0  0  0
   -3.4225   -3.0894    6.2651 O   0  0  0  0  0  0  0  0  0  0  0  0
   -3.6692   -1.9665    5.5196 C   0  0  0  0  0  0  0  0  0  0  0  0
   -3.3953   -2.1082    4.2381 N   0  0  0  0  0  0  0  0  0  0  0  0
   -4.1520   -0.7386    6.2346 C   0  0  2  0  0  0  0  0  0  0  0  0
   -5.4504   -0.2344    5.5834 C   0  0  1  0  0  0  0  0  0  0  0  0
   -6.1202    0.8598    6.4185 C   0  0  0  0  0  0  0  0  0  0  0  0
   -5.1868    2.0543    6.2143 C   0  0  0  0  0  0  0  0  0  0  0  0
   -4.1435    1.4669    5.2705 C   0  0  1  0  0  0  0  0  0  0  0  0
   -3.2434    0.5061    6.0734 C   0  0  2  0  0  0  0  0  0  0  0  0
   -1.9178    0.2318    5.3874 C   0  0  0  0  0  0  0  0  0  0  0  0
   -1.0881    1.4550    5.1486 C   0  0  0  0  0  0  0  0  0  0  0  0
   -0.6672    2.2008    6.2590 C   0  0  0  0  0  0  0  0  0  0  0  0
    0.1572    3.3030    6.0970 C   0  0  0  0  0  0  0  0  0  0  0  0
    0.6836    3.5727    4.8455 C   0  0  0  0  0  0  0  0  0  0  0  0
    0.3614    2.7539    3.7680 C   0  0  0  0  0  0  0  0  0  0  0  0
   -0.6820    1.8322    3.8616 C   0  0  0  0  0  0  0  0  0  0  0  0
   -1.3683    1.3688    2.5917 C   0  0  0  0  0  0  0  0  0  0  0  0
   -2.0803    2.4437    1.7654 C   0  0  0  0  0  0  0  0  0  0  0  0
   -1.1898    3.5058    1.1875 C   0  0  0  0  0  0  0  0  0  0  0  0
   -0.7454    3.5283    0.0449 O   0  0  0  0  0  0  0  0  0  0  0  0
   -0.8299    4.4484    2.0746 O   0  0  0  0  0  0  0  0  0  0  0  0
   -4.9495    0.5671    4.4838 O   0  0  0  0  0  0  0  0  0  0  0  0
    0.7429    0.3949    0.9045 H   0  0  0  0  0  0  0  0  0  0  0  0
    0.6089    0.7106   -0.8105 H   0  0  0  0  0  0  0  0  0  0  0  0
    2.1034    0.0354   -0.0966 H   0  0  0  0  0  0  0  0  0  0  0  0
   -0.6058   -1.3791   -0.3695 H   0  0  0  0  0  0  0  0  0  0  0  0
    0.8425   -1.7505   -1.2711 H   0  0  0  0  0  0  0  0  0  0  0  0
    0.6365   -3.3739    0.5399 H   0  0  0  0  0  0  0  0  0  0  0  0
    2.0458   -2.3694    0.8324 H   0  0  0  0  0  0  0  0  0  0  0  0
    0.7964   -2.7062    2.9249 H   0  0  0  0  0  0  0  0  0  0  0  0
    0.7943   -1.0175    2.4927 H   0  0  0  0  0  0  0  0  0  0  0  0
   -1.3766   -1.6037    3.2061 H   0  0  0  0  0  0  0  0  0  0  0  0
   -1.5470   -1.3008    1.4891 H   0  0  0  0  0  0  0  0  0  0  0  0
   -1.4887   -3.7598    1.1422 H   0  0  0  0  0  0  0  0  0  0  0  0
   -2.7243   -4.9856    5.7130 H   0  0  0  0  0  0  0  0  0  0  0  0
   -4.2975   -0.9652    7.2975 H   0  0  0  0  0  0  0  0  0  0  0  0
   -6.1314   -1.0193    5.2454 H   0  0  0  0  0  0  0  0  0  0  0  0
   -6.2438    0.5878    7.4693 H   0  0  0  0  0  0  0  0  0  0  0  0
   -7.1032    1.1010    5.9988 H   0  0  0  0  0  0  0  0  0  0  0  0
   -5.7220    2.8851    5.7421 H   0  0  0  0  0  0  0  0  0  0  0  0
   -4.7463    2.4201    7.1469 H   0  0  0  0  0  0  0  0  0  0  0  0
   -3.6438    2.2145    4.6510 H   0  0  0  0  0  0  0  0  0  0  0  0
   -3.0336    0.9431    7.0568 H   0  0  0  0  0  0  0  0  0  0  0  0
   -1.3179   -0.4809    5.9679 H   0  0  0  0  0  0  0  0  0  0  0  0
   -2.0991   -0.2491    4.4411 H   0  0  0  0  0  0  0  0  0  0  0  0
   -1.0082    1.9383    7.2562 H   0  0  0  0  0  0  0  0  0  0  0  0
    0.4186    3.9194    6.9496 H   0  0  0  0  0  0  0  0  0  0  0  0
    1.3140    4.4420    4.6901 H   0  0  0  0  0  0  0  0  0  0  0  0
    0.8519    2.9253    2.8146 H   0  0  0  0  0  0  0  0  0  0  0  0
   -0.6378    0.8534    1.9894 H   0  0  0  0  0  0  0  0  0  0  0  0
   -2.1415    0.6236    2.7867 H   0  0  0  0  0  0  0  0  0  0  0  0
   -2.5628    1.9481    0.9116 H   0  0  0  0  0  0  0  0  0  0  0  0
   -2.8826    2.9128    2.3420 H   0  0  0  0  0  0  0  0  0  0  0  0
   -0.0030    4.8461    1.7320 H   0  0  0  0  0  0  0  0  0  0  0  0
  1  2  1  0  0  0  0
  1 33  1  0  0  0  0
  1 34  1  0  0  0  0
  1 35  1  0  0  0  0
  2  3  1  0  0  0  0
  2 36  1  0  0  0  0
  2 37  1  0  0  0  0
  3  4  1  0  0  0  0
  3 38  1  0  0  0  0
  3 39  1  0  0  0  0
  4  5  1  0  0  0  0
  4 40  1  0  0  0  0
  4 41  1  0  0  0  0
  5  6  1  0  0  0  0
  5 42  1  0  0  0  0
  5 43  1  0  0  0  0
  6  7  1  0  0  0  0
  6 44  1  0  0  0  0
  7  8  2  0  0  0  0
  7  9  1  0  0  0  0
  9 10  2  0  0  0  0
  9 13  1  0  0  0  0
 10 11  1  0  0  0  0
 10 45  1  0  0  0  0
 11 12  1  0  0  0  0
 12 13  2  0  0  0  0
 14 12  1  0  0  0  0
 14 15  1  0  0  0  0
 14 19  1  0  0  0  0
 14 46  1  1  0  0  0
 15 16  1  0  0  0  0
 15 32  1  0  0  0  0
 15 47  1  6  0  0  0
 16 17  1  0  0  0  0
 16 48  1  0  0  0  0
 16 49  1  0  0  0  0
 17 18  1  0  0  0  0
 17 50  1  0  0  0  0
 17 51  1  0  0  0  0
 18 19  1  0  0  0  0
 18 32  1  0  0  0  0
 18 52  1  6  0  0  0
 19 20  1  0  0  0  0
 19 53  1  1  0  0  0
 20 21  1  0  0  0  0
 20 54  1  0  0  0  0
 20 55  1  0  0  0  0
 21 22  2  0  0  0  0
 21 26  1  0  0  0  0
 22 23  1  0  0  0  0
 22 56  1  0  0  0  0
 23 24  2  0  0  0  0
 23 57  1  0  0  0  0
 24 25  1  0  0  0  0
 24 58  1  0  0  0  0
 25 26  2  0  0  0  0
 25 59  1  0  0  0  0
 26 27  1  0  0  0  0
 27 28  1  0  0  0  0
 27 60  1  0  0  0  0
 27 61  1  0  0  0  0
 28 29  1  0  0  0  0
 28 62  1  0  0  0  0
 28 63  1  0  0  0  0
 29 30  2  0  0  0  0
 29 31  1  0  0  0  0
 31 64  1  0  0  0  0
M  END
>  <DRUGBANK_ID>
DB12321

>  <COMMON_NAME>
Ifetroban

>  <CAS_NUMBER>
143443-90-7

>  <UNII>
E833KT807K

>  <SYNONYMS>
Ifetroban

$$$$
