
 OpenBabel10282417193D

 66 68  0  0  0  0  0  0  0  0999 V2000
   -5.9072   -1.6517   -1.7891 C   0  0  0  0  0  0  0  0  0  0  0  0
   -4.8160   -1.1006   -0.8859 C   0  0  1  0  0  0  0  0  0  0  0  0
   -3.5263   -1.8995   -1.1066 C   0  0  0  0  0  0  0  0  0  0  0  0
   -2.4231   -1.3091   -0.2677 C   0  0  0  0  0  0  0  0  0  0  0  0
   -2.1707    0.1906   -0.3690 C   0  0  1  0  0  0  0  0  0  0  0  0
   -3.4713    1.0011   -0.3225 C   0  0  0  0  0  0  0  0  0  0  0  0
   -4.5716    0.3872   -1.1784 C   0  0  0  0  0  0  0  0  0  0  0  0
   -1.0902    0.6976    0.6425 C   0  0  0  0  0  0  0  0  0  0  0  0
   -0.0323    1.1217    0.1598 O   0  0  0  0  0  0  0  0  0  0  0  0
   -1.3166    0.6027    2.0428 N   0  0  0  0  0  0  0  0  0  0  0  0
   -2.5437    0.0186    2.6055 C   0  0  1  0  0  0  0  0  0  0  0  0
   -2.3617   -1.4780    2.7872 C   0  0  0  0  0  0  0  0  0  0  0  0
   -3.4699   -2.0732    3.6503 C   0  0  0  0  0  0  0  0  0  0  0  0
   -3.8571   -1.2623    4.8995 C   0  0  1  0  0  0  0  0  0  0  0  0
   -4.1728    0.1816    4.5418 C   0  0  0  0  0  0  0  0  0  0  0  0
   -3.0141    0.8382    3.8261 C   0  0  0  0  0  0  0  0  0  0  0  0
   -4.9710   -1.8697    5.5387 O   0  0  0  0  0  0  0  0  0  0  0  0
   -0.2563    0.9859    2.9682 C   0  0  0  0  0  0  0  0  0  0  0  0
    0.1722    0.3619    4.1834 C   0  0  0  0  0  0  0  0  0  0  0  0
    1.3876    1.3412    4.9470 S   0  0  0  0  0  0  0  0  0  0  0  0
    1.3517    2.5431    3.7708 C   0  0  0  0  0  0  0  0  0  0  0  0
    0.4516    2.2504    2.7748 C   0  0  0  0  0  0  0  0  0  0  0  0
    2.1797    3.6954    3.8604 C   0  0  0  0  0  0  0  0  0  0  0  0
    2.9265    4.6461    3.9812 C   0  0  0  0  0  0  0  0  0  0  0  0
    3.8556    5.7855    4.1328 C   0  0  0  0  0  0  0  0  0  0  0  0
    4.0708    6.4591    2.7710 C   0  0  0  0  0  0  0  0  0  0  0  0
    3.2727    6.8041    5.1224 C   0  0  0  0  0  0  0  0  0  0  0  0
    5.2112    5.2911    4.6577 C   0  0  0  0  0  0  0  0  0  0  0  0
   -0.0335   -0.8649    5.0019 C   0  0  0  0  0  0  0  0  0  0  0  0
    0.6990   -1.3335    5.8632 O   0  0  0  0  0  0  0  0  0  0  0  0
   -1.1734   -1.5189    4.8143 O   0  0  0  0  0  0  0  0  0  0  0  0
   -6.8423   -1.1034   -1.6457 H   0  0  0  0  0  0  0  0  0  0  0  0
   -5.6085   -1.5613   -2.8377 H   0  0  0  0  0  0  0  0  0  0  0  0
   -6.0930   -2.7096   -1.5756 H   0  0  0  0  0  0  0  0  0  0  0  0
   -5.1499   -1.2144    0.1594 H   0  0  0  0  0  0  0  0  0  0  0  0
   -3.6899   -2.9383   -0.7785 H   0  0  0  0  0  0  0  0  0  0  0  0
   -3.2257   -1.9163   -2.1532 H   0  0  0  0  0  0  0  0  0  0  0  0
   -2.8962   -1.4502    0.6711 H   0  0  0  0  0  0  0  0  0  0  0  0
   -1.5007   -1.9004   -0.3027 H   0  0  0  0  0  0  0  0  0  0  0  0
   -1.7434    0.3372   -1.3726 H   0  0  0  0  0  0  0  0  0  0  0  0
   -3.9003    1.1118    0.6682 H   0  0  0  0  0  0  0  0  0  0  0  0
   -3.2671    2.0365   -0.6070 H   0  0  0  0  0  0  0  0  0  0  0  0
   -4.2967    0.5085   -2.2295 H   0  0  0  0  0  0  0  0  0  0  0  0
   -5.4954    0.9480   -1.0004 H   0  0  0  0  0  0  0  0  0  0  0  0
   -3.3864    0.0767    1.9389 H   0  0  0  0  0  0  0  0  0  0  0  0
   -1.2972   -1.5715    2.9628 H   0  0  0  0  0  0  0  0  0  0  0  0
   -2.2348   -2.1850    1.9716 H   0  0  0  0  0  0  0  0  0  0  0  0
   -3.2116   -3.1008    3.9226 H   0  0  0  0  0  0  0  0  0  0  0  0
   -4.3611   -2.1649    3.0126 H   0  0  0  0  0  0  0  0  0  0  0  0
   -3.0811   -1.2688    5.6651 H   0  0  0  0  0  0  0  0  0  0  0  0
   -5.0624    0.2188    3.9066 H   0  0  0  0  0  0  0  0  0  0  0  0
   -4.4040    0.7490    5.4501 H   0  0  0  0  0  0  0  0  0  0  0  0
   -2.2216    0.9945    4.5602 H   0  0  0  0  0  0  0  0  0  0  0  0
   -3.2978    1.8494    3.4998 H   0  0  0  0  0  0  0  0  0  0  0  0
   -5.7586   -1.7095    4.9974 H   0  0  0  0  0  0  0  0  0  0  0  0
    0.2710    2.9402    1.9547 H   0  0  0  0  0  0  0  0  0  0  0  0
    4.7642    7.3043    2.8533 H   0  0  0  0  0  0  0  0  0  0  0  0
    4.4911    5.7543    2.0438 H   0  0  0  0  0  0  0  0  0  0  0  0
    3.1288    6.8371    2.3580 H   0  0  0  0  0  0  0  0  0  0  0  0
    3.1208    6.3560    6.1114 H   0  0  0  0  0  0  0  0  0  0  0  0
    3.9414    7.6643    5.2466 H   0  0  0  0  0  0  0  0  0  0  0  0
    2.3025    7.1826    4.7805 H   0  0  0  0  0  0  0  0  0  0  0  0
    5.9171    6.1228    4.7723 H   0  0  0  0  0  0  0  0  0  0  0  0
    5.1095    4.8030    5.6336 H   0  0  0  0  0  0  0  0  0  0  0  0
    5.6621    4.5657    3.9706 H   0  0  0  0  0  0  0  0  0  0  0  0
   -1.0426   -2.4923    4.7444 H   0  0  0  0  0  0  0  0  0  0  0  0
  1 32  1  0  0  0  0
  1 33  1  0  0  0  0
  1 34  1  0  0  0  0
  2  1  1  0  0  0  0
  2  3  1  0  0  0  0
  2  7  1  0  0  0  0
  2 35  1  1  0  0  0
  3  4  1  0  0  0  0
  3 36  1  0  0  0  0
  3 37  1  0  0  0  0
  4  5  1  0  0  0  0
  4 38  1  0  0  0  0
  4 39  1  0  0  0  0
  5  6  1  0  0  0  0
  5  8  1  0  0  0  0
  5 40  1  6  0  0  0
  6  7  1  0  0  0  0
  6 41  1  0  0  0  0
  6 42  1  0  0  0  0
  7 43  1  0  0  0  0
  7 44  1  0  0  0  0
  8  9  2  0  0  0  0
  8 10  1  0  0  0  0
 10 18  1  0  0  0  0
 11 12  1  0  0  0  0
 11 16  1  0  0  0  0
 11 45  1  6  0  0  0
 11 10  1  0  0  0  0
 12 13  1  0  0  0  0
 12 46  1  0  0  0  0
 12 47  1  0  0  0  0
 13 14  1  0  0  0  0
 13 48  1  0  0  0  0
 13 49  1  0  0  0  0
 14 15  1  0  0  0  0
 14 17  1  0  0  0  0
 14 50  1  1  0  0  0
 15 16  1  0  0  0  0
 15 51  1  0  0  0  0
 15 52  1  0  0  0  0
 16 53  1  0  0  0  0
 16 54  1  0  0  0  0
 17 55  1  0  0  0  0
 18 19  2  0  0  0  0
 18 22  1  0  0  0  0
 19 20  1  0  0  0  0
 19 29  1  0  0  0  0
 20 21  1  0  0  0  0
 21 22  2  0  0  0  0
 21 23  1  0  0  0  0
 22 56  1  0  0  0  0
 23 24  3  0  0  0  0
 24 25  1  0  0  0  0
 25 26  1  0  0  0  0
 25 27  1  0  0  0  0
 25 28  1  0  0  0  0
 26 57  1  0  0  0  0
 26 58  1  0  0  0  0
 26 59  1  0  0  0  0
 27 60  1  0  0  0  0
 27 61  1  0  0  0  0
 27 62  1  0  0  0  0
 28 63  1  0  0  0  0
 28 64  1  0  0  0  0
 28 65  1  0  0  0  0
 29 30  2  0  0  0  0
 29 31  1  0  0  0  0
 31 66  1  0  0  0  0
M  END
>  <DRUGBANK_ID>
DB11954

>  <COMMON_NAME>
Lomibuvir

>  <CAS_NUMBER>
1026785-55-6

>  <UNII>
37L2LF4A2D

>  <SYNONYMS>
Lomibuvir

$$$$
