
 OpenBabel10282417193D

 28 29  0  0  0  0  0  0  0  0999 V2000
    1.1518   -0.8352   -0.3592 C   0  0  2  0  0  0  0  0  0  0  0  0
    2.3756   -1.6275   -0.2247 N   0  0  0  0  0  0  0  0  0  0  0  0
    1.3914    0.5604   -0.1859 O   0  0  0  0  0  0  0  0  0  0  0  0
   -0.0119   -1.2381    0.5319 C   0  0  0  0  0  0  0  0  0  0  0  0
    3.0950   -1.6869    0.9685 C   0  0  0  0  0  0  0  0  0  0  0  0
    2.6829   -2.4639   -1.2828 C   0  0  0  0  0  0  0  0  0  0  0  0
    0.2209    1.1381    0.4424 C   0  0  1  0  0  0  0  0  0  0  0  0
   -0.8350    0.0298    0.5401 C   0  0  1  0  0  0  0  0  0  0  0  0
    4.1528   -2.5769    0.9626 N   0  0  0  0  0  0  0  0  0  0  0  0
    2.8273   -1.0541    1.9853 O   0  0  0  0  0  0  0  0  0  0  0  0
    3.5583   -3.4688   -1.1962 C   0  0  0  0  0  0  0  0  0  0  0  0
    0.6265    1.6663    1.8217 C   0  0  0  0  0  0  0  0  0  0  0  0
   -1.7118    0.0282   -0.5925 O   0  0  0  0  0  0  0  0  0  0  0  0
    4.3326   -3.5928    0.0603 C   0  0  0  0  0  0  0  0  0  0  0  0
    3.7536   -4.7217   -2.5546 Br  0  0  0  0  0  0  0  0  0  0  0  0
    0.0196    2.9368    2.0518 O   0  0  0  0  0  0  0  0  0  0  0  0
    5.0854   -4.5381    0.2894 O   0  0  0  0  0  0  0  0  0  0  0  0
    0.8087   -0.9272   -1.3975 H   0  0  0  0  0  0  0  0  0  0  0  0
    0.3171   -1.4870    1.5446 H   0  0  0  0  0  0  0  0  0  0  0  0
   -0.5465   -2.0997    0.1184 H   0  0  0  0  0  0  0  0  0  0  0  0
    2.1250   -2.3079   -2.2007 H   0  0  0  0  0  0  0  0  0  0  0  0
   -0.1299    1.9545   -0.2008 H   0  0  0  0  0  0  0  0  0  0  0  0
   -1.4734    0.1161    1.4241 H   0  0  0  0  0  0  0  0  0  0  0  0
    4.6817   -2.6553    1.8193 H   0  0  0  0  0  0  0  0  0  0  0  0
    0.2949    0.9971    2.6217 H   0  0  0  0  0  0  0  0  0  0  0  0
    1.7111    1.7805    1.9134 H   0  0  0  0  0  0  0  0  0  0  0  0
   -1.1955    0.0976   -1.4124 H   0  0  0  0  0  0  0  0  0  0  0  0
    0.3804    3.5493    1.3859 H   0  0  0  0  0  0  0  0  0  0  0  0
  1  3  1  0  0  0  0
  1  4  1  0  0  0  0
  1 18  1  6  0  0  0
  1  2  1  0  0  0  0
  2  5  1  0  0  0  0
  2  6  1  0  0  0  0
  3  7  1  0  0  0  0
  4  8  1  0  0  0  0
  4 19  1  0  0  0  0
  4 20  1  0  0  0  0
  5  9  1  0  0  0  0
  5 10  2  0  0  0  0
  6 11  2  0  0  0  0
  6 21  1  0  0  0  0
  7  8  1  0  0  0  0
  7 22  1  6  0  0  0
  7 12  1  0  0  0  0
  8 13  1  0  0  0  0
  8 23  1  1  0  0  0
  9 14  1  0  0  0  0
  9 24  1  0  0  0  0
 11 15  1  0  0  0  0
 11 14  1  0  0  0  0
 12 16  1  0  0  0  0
 12 25  1  0  0  0  0
 12 26  1  0  0  0  0
 13 27  1  0  0  0  0
 14 17  2  0  0  0  0
 16 28  1  0  0  0  0
M  END
>  <DRUGBANK_ID>
DB12028

>  <COMMON_NAME>
Broxuridine

>  <CAS_NUMBER>
59-14-3

>  <UNII>
G34N38R2N1

>  <SYNONYMS>
Bromodeoxyuridine; Broxuridina; Broxuridine

$$$$
