
 OpenBabel10282417143D

 39 40  0  0  0  0  0  0  0  0999 V2000
   -4.4775   -3.8035    0.1378 C   0  0  0  0  0  0  0  0  0  0  0  0
    0.5785    1.4596    5.0879 C   0  0  0  0  0  0  0  0  0  0  0  0
    3.2266   -4.2103   -1.0597 C   0  0  0  0  0  0  0  0  0  0  0  0
    3.9169   -3.2326   -0.3526 C   0  0  0  0  0  0  0  0  0  0  0  0
   -5.0814   -2.5527    0.0805 C   0  0  0  0  0  0  0  0  0  0  0  0
   -0.2316    0.7079    5.9309 C   0  0  0  0  0  0  0  0  0  0  0  0
   -3.1045   -3.8675    0.1193 C   0  0  0  0  0  0  0  0  0  0  0  0
    1.2511    0.8434    4.0373 C   0  0  0  0  0  0  0  0  0  0  0  0
    1.8771   -4.4145   -0.8028 C   0  0  0  0  0  0  0  0  0  0  0  0
    3.2528   -2.4044    0.5614 C   0  0  0  0  0  0  0  0  0  0  0  0
   -4.3050   -1.3613    0.0627 C   0  0  0  0  0  0  0  0  0  0  0  0
   -0.4151   -0.6571    5.6789 C   0  0  0  0  0  0  0  0  0  0  0  0
   -0.9321   -2.8110   -0.1302 C   0  0  0  0  0  0  0  0  0  0  0  0
    1.7650   -1.1754    2.6892 C   0  0  0  0  0  0  0  0  0  0  0  0
   -2.3623   -2.6879    0.0475 C   0  0  0  0  0  0  0  0  0  0  0  0
    1.0403   -0.5129    3.8013 C   0  0  0  0  0  0  0  0  0  0  0  0
    1.1903   -3.5731    0.0955 C   0  0  0  0  0  0  0  0  0  0  0  0
    1.8735   -2.4979    0.7652 C   0  0  0  0  0  0  0  0  0  0  0  0
   -2.8861   -1.3521    0.1003 C   0  0  0  0  0  0  0  0  0  0  0  0
    0.1482   -1.2882    4.5540 C   0  0  0  0  0  0  0  0  0  0  0  0
   -0.1777   -3.8125    0.2739 N   0  0  0  0  0  0  0  0  0  0  0  0
    1.1335   -1.5015    1.5770 N   0  0  0  0  0  0  0  0  0  0  0  0
   -2.1539   -0.2947    0.1938 O   0  5  0  0  0  0  0  0  0  0  0  0
   -0.1389   -2.4870    4.2253 O   0  5  0  0  0  0  0  0  0  0  0  0
   -0.6790   -0.5720    1.3953 Fe  0  0  0  0  0  0  0  0  0  0  0  0
   -0.4221   -1.9392   -0.5223 H   0  0  0  0  0  0  0  0  0  0  0  0
    2.8237   -1.3880    2.9065 H   0  0  0  0  0  0  0  0  0  0  0  0
   -5.0618   -4.7211    0.1733 H   0  0  0  0  0  0  0  0  0  0  0  0
    0.7277    2.5166    5.2977 H   0  0  0  0  0  0  0  0  0  0  0  0
    3.7465   -4.8241   -1.7949 H   0  0  0  0  0  0  0  0  0  0  0  0
    4.9858   -3.1083   -0.5133 H   0  0  0  0  0  0  0  0  0  0  0  0
   -6.1715   -2.5111    0.0606 H   0  0  0  0  0  0  0  0  0  0  0  0
   -0.7099    1.1648    6.7972 H   0  0  0  0  0  0  0  0  0  0  0  0
   -2.5995   -4.8318    0.1353 H   0  0  0  0  0  0  0  0  0  0  0  0
    1.9630    1.4097    3.4502 H   0  0  0  0  0  0  0  0  0  0  0  0
    1.3521   -5.2189   -1.3182 H   0  0  0  0  0  0  0  0  0  0  0  0
    3.8656   -1.6938    1.1056 H   0  0  0  0  0  0  0  0  0  0  0  0
   -4.8840   -0.4324    0.0108 H   0  0  0  0  0  0  0  0  0  0  0  0
   -1.0185   -1.2319    6.3928 H   0  0  0  0  0  0  0  0  0  0  0  0
  1 28  1  0  0  0  0
  2 29  1  0  0  0  0
  3 30  1  0  0  0  0
  4  3  2  0  0  0  0
  4 31  1  0  0  0  0
  5  1  2  0  0  0  0
  5 32  1  0  0  0  0
  6  2  2  0  0  0  0
  6 33  1  0  0  0  0
  7  1  1  0  0  0  0
  7 34  1  0  0  0  0
  8  2  1  0  0  0  0
  8 35  1  0  0  0  0
  9  3  1  0  0  0  0
  9 36  1  0  0  0  0
 10  4  1  0  0  0  0
 10 37  1  0  0  0  0
 11  5  1  0  0  0  0
 11 38  1  0  0  0  0
 12  6  1  0  0  0  0
 12 39  1  0  0  0  0
 15  7  2  0  0  0  0
 15 13  1  0  0  0  0
 16  8  2  0  0  0  0
 16 14  1  0  0  0  0
 17  9  2  0  0  0  0
 18 10  2  0  0  0  0
 18 17  1  0  0  0  0
 19 11  2  0  0  0  0
 19 15  1  0  0  0  0
 20 12  2  0  0  0  0
 20 16  1  0  0  0  0
 21 13  2  0  0  0  0
 21 17  1  0  0  0  0
 22 14  2  0  0  0  0
 22 18  1  0  0  0  0
 23 19  1  0  0  0  0
 24 20  1  0  0  0  0
 26 13  1  0  0  0  0
 27 14  1  0  0  0  0
M  CHG  3  23  -1  24  -1  25   4
M  END
>  <DRUGBANK_ID>
DB04811

>  <COMMON_NAME>
Salophen iron chelate

$$$$
