
 OpenBabel10282417133D

 46 47  0  0  1  0  0  0  0  0999 V2000
   -4.8876    4.2712    1.2594 C   0  0  0  0  0  0  0  0  0  0  0  0
   -3.3906    3.8630    1.2620 C   0  0  2  0  0  0  0  0  0  0  0  0
   -2.3180    4.7853    0.6262 C   0  0  2  0  0  0  0  0  0  0  0  0
   -2.4360    4.8893   -0.9080 C   0  0  1  0  0  0  0  0  0  0  0  0
   -2.5391    3.4823   -1.5820 C   0  0  2  0  0  0  0  0  0  0  0  0
   -3.5790    2.6368   -0.7487 C   0  0  2  0  0  0  0  0  0  0  0  0
   -3.2959    2.5918    0.6355 O   0  0  0  0  0  0  0  0  0  0  0  0
   -3.9170    1.3282   -1.1107 O   0  0  0  0  0  0  0  0  0  0  0  0
   -2.8660    0.4876   -1.5067 C   0  0  1  0  0  0  0  0  0  0  0  0
   -1.9364   -0.0708   -0.3909 C   0  0  1  0  0  0  0  0  0  0  0  0
   -0.8807   -0.9939   -1.0308 C   0  0  1  0  0  0  0  0  0  0  0  0
   -1.5501   -2.0918   -1.8751 C   0  0  1  0  0  0  0  0  0  0  0  0
   -2.4982   -1.4957   -2.9304 C   0  0  2  0  0  0  0  0  0  0  0  0
   -3.5623   -0.6339   -2.2679 C   0  0  2  0  0  0  0  0  0  0  0  0
   -4.4250   -0.0659   -3.2781 O   0  0  0  0  0  0  0  0  0  0  0  0
   -3.1315   -2.4997   -3.7267 O   0  0  0  0  0  0  0  0  0  0  0  0
   -0.5317   -2.8521   -2.5313 O   0  0  0  0  0  0  0  0  0  0  0  0
    0.0444   -0.2749   -1.8821 O   0  0  0  0  0  0  0  0  0  0  0  0
   -1.2244    0.8998    0.3792 O   0  0  0  0  0  0  0  0  0  0  0  0
   -1.1831    2.8583   -1.7464 N   0  0  0  0  0  0  0  0  0  0  0  0
   -3.4748    5.7793   -1.3136 O   0  0  0  0  0  0  0  0  0  0  0  0
   -1.0196    4.1929    0.8677 O   0  0  0  0  0  0  0  0  0  0  0  0
   -5.6976    3.2091    1.8147 O   0  0  0  0  0  0  0  0  0  0  0  0
   -5.2974    4.4369    0.2668 H   0  0  0  0  0  0  0  0  0  0  0  0
   -5.0765    5.1690    1.8390 H   0  0  0  0  0  0  0  0  0  0  0  0
   -3.1061    3.6818    2.3035 H   0  0  0  0  0  0  0  0  0  0  0  0
   -2.3341    5.7723    1.0962 H   0  0  0  0  0  0  0  0  0  0  0  0
   -1.5253    5.3709   -1.2897 H   0  0  0  0  0  0  0  0  0  0  0  0
   -2.9410    3.5957   -2.5977 H   0  0  0  0  0  0  0  0  0  0  0  0
   -4.5280    3.1430   -0.9232 H   0  0  0  0  0  0  0  0  0  0  0  0
   -2.2983    1.0102   -2.2673 H   0  0  0  0  0  0  0  0  0  0  0  0
   -2.5366   -0.6333    0.3358 H   0  0  0  0  0  0  0  0  0  0  0  0
   -0.2508   -1.4381   -0.2506 H   0  0  0  0  0  0  0  0  0  0  0  0
   -2.1049   -2.7739   -1.2224 H   0  0  0  0  0  0  0  0  0  0  0  0
   -1.9282   -0.8822   -3.6408 H   0  0  0  0  0  0  0  0  0  0  0  0
   -4.2187   -1.2144   -1.6078 H   0  0  0  0  0  0  0  0  0  0  0  0
   -4.1699   -0.4009   -4.1535 H   0  0  0  0  0  0  0  0  0  0  0  0
   -4.0970   -2.4252   -3.6200 H   0  0  0  0  0  0  0  0  0  0  0  0
    0.0075   -2.2065   -3.0279 H   0  0  0  0  0  0  0  0  0  0  0  0
   -0.4002    0.4813   -2.3002 H   0  0  0  0  0  0  0  0  0  0  0  0
   -1.0313    1.6747   -0.1870 H   0  0  0  0  0  0  0  0  0  0  0  0
   -0.4728    3.4891   -1.3592 H   0  0  0  0  0  0  0  0  0  0  0  0
   -0.9733    2.8028   -2.7452 H   0  0  0  0  0  0  0  0  0  0  0  0
   -4.3390    5.4887   -0.9852 H   0  0  0  0  0  0  0  0  0  0  0  0
   -0.4773    4.7898    1.4080 H   0  0  0  0  0  0  0  0  0  0  0  0
   -5.1426    2.5882    2.2482 H   0  0  0  0  0  0  0  0  0  0  0  0
  1 23  1  0  0  0  0
  1 24  1  0  0  0  0
  1 25  1  0  0  0  0
  2  1  1  0  0  0  0
  2  3  1  0  0  0  0
  2  7  1  0  0  0  0
  2 26  1  1  0  0  0
  3  4  1  0  0  0  0
  3 27  1  1  0  0  0
  3 22  1  0  0  0  0
  4  5  1  0  0  0  0
  4 21  1  0  0  0  0
  4 28  1  6  0  0  0
  5  6  1  0  0  0  0
  5 29  1  6  0  0  0
  5 20  1  0  0  0  0
  6  7  1  0  0  0  0
  6 30  1  6  0  0  0
  6  8  1  0  0  0  0
  9 10  1  0  0  0  0
  9 14  1  0  0  0  0
  9 31  1  6  0  0  0
  9  8  1  0  0  0  0
 10 11  1  0  0  0  0
 10 19  1  0  0  0  0
 10 32  1  1  0  0  0
 11 12  1  0  0  0  0
 11 18  1  0  0  0  0
 11 33  1  1  0  0  0
 12 13  1  0  0  0  0
 12 17  1  0  0  0  0
 12 34  1  1  0  0  0
 13 14  1  0  0  0  0
 13 35  1  6  0  0  0
 13 16  1  0  0  0  0
 14 36  1  1  0  0  0
 14 15  1  0  0  0  0
 15 37  1  0  0  0  0
 16 38  1  0  0  0  0
 17 39  1  0  0  0  0
 18 40  1  0  0  0  0
 19 41  1  0  0  0  0
 20 42  1  0  0  0  0
 20 43  1  0  0  0  0
 21 44  1  0  0  0  0
 22 45  1  0  0  0  0
 23 46  1  0  0  0  0
M  END
>  <DRUGBANK_ID>
DB03779

>  <SECONDARY_ACCESSION_NUMBERS>
EXPT02268

>  <COMMON_NAME>
Glucosaminyl-(Alpha-6)-D-Myo-Inositol

$$$$
