
 OpenBabel10282417133D

 62 65  0  0  0  0  0  0  0  0999 V2000
    2.3354   -0.0399    0.0516 O   0  0  0  0  0  0  0  0  0  0  0  0
    0.9751   -0.0574    0.0145 C   0  0  0  0  0  0  0  0  0  0  0  0
    0.2425   -1.2446    0.0123 C   0  0  0  0  0  0  0  0  0  0  0  0
   -1.1523   -1.1981   -0.0505 C   0  0  0  0  0  0  0  0  0  0  0  0
   -1.7955    0.0363   -0.1712 C   0  0  0  0  0  0  0  0  0  0  0  0
   -3.2945    0.1416   -0.2350 C   0  0  0  0  0  0  0  0  0  0  0  0
   -3.8260    1.0026    0.9020 C   0  0  0  0  0  0  0  0  0  0  0  0
   -3.4514    2.4074    0.7874 N   0  0  0  0  0  0  0  0  0  0  0  0
   -4.3100    3.4921    0.8441 C   0  0  0  0  0  0  0  0  0  0  0  0
   -5.4079    3.4720    1.5709 N   0  0  0  0  0  0  0  0  0  0  0  0
   -6.1278    4.5686    1.7680 C   0  0  0  0  0  0  0  0  0  0  0  0
   -7.5845    4.5894    2.8645 S   0  0  0  0  0  0  0  0  0  0  0  0
   -7.7493    3.0055    3.8883 C   0  0  0  0  0  0  0  0  0  0  0  0
   -7.9434    1.7019    3.1213 C   0  0  0  0  0  0  0  0  0  0  0  0
   -6.7037    1.3677    2.3621 C   0  0  0  0  0  0  0  0  0  0  0  0
   -5.4682    1.3080    3.2969 C   0  0  0  0  0  0  0  0  0  0  0  0
   -4.9832    0.0404    3.5884 C   0  0  0  0  0  0  0  0  0  0  0  0
   -3.7775   -0.1119    4.2833 C   0  0  0  0  0  0  0  0  0  0  0  0
   -3.0250    0.9940    4.6898 C   0  0  0  0  0  0  0  0  0  0  0  0
   -1.5338    0.7835    5.5096 Cl  0  0  0  0  0  0  0  0  0  0  0  0
   -3.4760    2.2682    4.4346 C   0  0  0  0  0  0  0  0  0  0  0  0
   -4.7152    2.4076    3.8185 C   0  0  0  0  0  0  0  0  0  0  0  0
   -5.8338    5.6770    1.1536 N   0  0  0  0  0  0  0  0  0  0  0  0
   -4.8052    5.5906    0.3038 C   0  0  0  0  0  0  0  0  0  0  0  0
   -3.9653    4.5554    0.1899 N   0  0  0  0  0  0  0  0  0  0  0  0
   -4.6925    6.6034   -0.5753 N   0  0  0  0  0  0  0  0  0  0  0  0
   -4.5896    6.3500   -1.9983 C   0  0  0  0  0  0  0  0  0  0  0  0
   -3.2460    6.8631   -2.5425 C   0  0  0  0  0  0  0  0  0  0  0  0
   -2.9533    8.2627   -2.1437 N   0  0  0  0  0  0  0  0  0  0  0  0
   -3.0023    8.3553   -0.6637 C   0  0  0  0  0  0  0  0  0  0  0  0
   -4.3574    7.9147   -0.0733 C   0  0  0  0  0  0  0  0  0  0  0  0
   -1.0248    1.2069   -0.2025 C   0  0  0  0  0  0  0  0  0  0  0  0
    0.3468    1.1699   -0.0533 C   0  0  0  0  0  0  0  0  0  0  0  0
    2.6548   -0.9519   -0.0152 H   0  0  0  0  0  0  0  0  0  0  0  0
    0.7360   -2.2089    0.0578 H   0  0  0  0  0  0  0  0  0  0  0  0
   -1.7258   -2.1224   -0.0168 H   0  0  0  0  0  0  0  0  0  0  0  0
   -3.6192    0.5587   -1.1908 H   0  0  0  0  0  0  0  0  0  0  0  0
   -3.7435   -0.8591   -0.1420 H   0  0  0  0  0  0  0  0  0  0  0  0
   -4.8989    0.8592    0.8682 H   0  0  0  0  0  0  0  0  0  0  0  0
   -3.3913    0.5709    1.8066 H   0  0  0  0  0  0  0  0  0  0  0  0
   -2.6289    2.6222    1.3469 H   0  0  0  0  0  0  0  0  0  0  0  0
   -6.9421    2.9283    4.6224 H   0  0  0  0  0  0  0  0  0  0  0  0
   -8.6357    3.1152    4.5237 H   0  0  0  0  0  0  0  0  0  0  0  0
   -8.1392    0.8503    3.7832 H   0  0  0  0  0  0  0  0  0  0  0  0
   -8.8002    1.7796    2.4408 H   0  0  0  0  0  0  0  0  0  0  0  0
   -6.8055    0.4263    1.8057 H   0  0  0  0  0  0  0  0  0  0  0  0
   -6.7180    2.0305    1.4974 H   0  0  0  0  0  0  0  0  0  0  0  0
   -5.4883   -0.8253    3.1702 H   0  0  0  0  0  0  0  0  0  0  0  0
   -3.3932   -1.1114    4.4377 H   0  0  0  0  0  0  0  0  0  0  0  0
   -2.8896    3.1540    4.6768 H   0  0  0  0  0  0  0  0  0  0  0  0
   -5.0018    3.4494    3.7098 H   0  0  0  0  0  0  0  0  0  0  0  0
   -4.7399    5.2947   -2.2613 H   0  0  0  0  0  0  0  0  0  0  0  0
   -5.4084    6.9041   -2.4728 H   0  0  0  0  0  0  0  0  0  0  0  0
   -2.4327    6.2140   -2.1970 H   0  0  0  0  0  0  0  0  0  0  0  0
   -3.2612    6.8043   -3.6363 H   0  0  0  0  0  0  0  0  0  0  0  0
   -3.7036    8.8494   -2.5106 H   0  0  0  0  0  0  0  0  0  0  0  0
   -2.1933    7.7420   -0.2458 H   0  0  0  0  0  0  0  0  0  0  0  0
   -2.8079    9.3897   -0.3650 H   0  0  0  0  0  0  0  0  0  0  0  0
   -5.1501    8.5982   -0.3919 H   0  0  0  0  0  0  0  0  0  0  0  0
   -4.3137    7.9465    1.0227 H   0  0  0  0  0  0  0  0  0  0  0  0
   -1.4856    2.1797   -0.3393 H   0  0  0  0  0  0  0  0  0  0  0  0
    0.9081    2.0971   -0.0242 H   0  0  0  0  0  0  0  0  0  0  0  0
  1  2  1  0  0  0  0
  1 34  1  0  0  0  0
  2  3  2  0  0  0  0
  2 33  1  0  0  0  0
  3  4  1  0  0  0  0
  3 35  1  0  0  0  0
  4  5  2  0  0  0  0
  4 36  1  0  0  0  0
  5  6  1  0  0  0  0
  5 32  1  0  0  0  0
  6  7  1  0  0  0  0
  6 37  1  0  0  0  0
  6 38  1  0  0  0  0
  7  8  1  0  0  0  0
  7 39  1  0  0  0  0
  7 40  1  0  0  0  0
  8  9  1  0  0  0  0
  8 41  1  0  0  0  0
  9 10  2  0  0  0  0
  9 25  1  0  0  0  0
 10 11  1  0  0  0  0
 11 12  1  0  0  0  0
 11 23  2  0  0  0  0
 12 13  1  0  0  0  0
 13 14  1  0  0  0  0
 13 42  1  0  0  0  0
 13 43  1  0  0  0  0
 14 15  1  0  0  0  0
 14 44  1  0  0  0  0
 14 45  1  0  0  0  0
 15 16  1  0  0  0  0
 15 46  1  0  0  0  0
 15 47  1  0  0  0  0
 16 17  2  0  0  0  0
 16 22  1  0  0  0  0
 17 18  1  0  0  0  0
 17 48  1  0  0  0  0
 18 19  2  0  0  0  0
 18 49  1  0  0  0  0
 19 20  1  0  0  0  0
 19 21  1  0  0  0  0
 21 22  2  0  0  0  0
 21 50  1  0  0  0  0
 22 51  1  0  0  0  0
 23 24  1  0  0  0  0
 24 25  2  0  0  0  0
 24 26  1  0  0  0  0
 26 27  1  0  0  0  0
 26 31  1  0  0  0  0
 27 28  1  0  0  0  0
 27 52  1  0  0  0  0
 27 53  1  0  0  0  0
 28 29  1  0  0  0  0
 28 54  1  0  0  0  0
 28 55  1  0  0  0  0
 29 30  1  0  0  0  0
 29 56  1  0  0  0  0
 30 31  1  0  0  0  0
 30 57  1  0  0  0  0
 30 58  1  0  0  0  0
 31 59  1  0  0  0  0
 31 60  1  0  0  0  0
 32 33  2  0  0  0  0
 32 61  1  0  0  0  0
 33 62  1  0  0  0  0
M  END
>  <DRUGBANK_ID>
DB04020

>  <SECONDARY_ACCESSION_NUMBERS>
EXPT02212

>  <COMMON_NAME>
4-(2-{[4-{[3-(4-Chlorophenyl)Propyl]Sulfanyl}-6-(1-Piperazinyl)-1,3,5-Triazin-2-Yl]Amino}Ethyl)Phenol

$$$$
