B11
 OpenBabel10282417143D

 59 62  0  0  0  0  0  0  0  0999 V2000
    0.1849   -1.2241    0.0101 C   0  0  0  0  0  0  0  0  0  0  0  0
   -1.2124   -1.2067   -0.0029 C   0  0  0  0  0  0  0  0  0  0  0  0
   -1.9028    0.0042   -0.0088 C   0  0  0  0  0  0  0  0  0  0  0  0
   -1.1994    1.2019    0.0137 C   0  0  0  0  0  0  0  0  0  0  0  0
    0.1988    1.2075    0.0226 C   0  0  0  0  0  0  0  0  0  0  0  0
    0.8855   -0.0182    0.0173 C   0  0  0  0  0  0  0  0  0  0  0  0
    2.2543   -0.0159    0.0124 O   0  0  0  0  0  0  0  0  0  0  0  0
    0.9074    2.5314    0.1043 C   0  0  0  0  0  0  0  0  0  0  0  0
    0.4440    3.5421   -0.9159 N   0  0  0  0  0  0  0  0  0  0  0  0
    1.5939    4.4644   -1.1236 C   0  0  0  0  0  0  0  0  0  0  0  0
    1.6593    6.0039   -1.0247 C   0  0  0  0  0  0  0  0  0  0  0  0
    1.2728    6.8127   -2.2433 C   0  0  0  0  0  0  0  0  0  0  0  0
    1.8961    6.2628   -3.4704 N   0  0  0  0  0  0  0  0  0  0  0  0
    1.6444    4.8194   -3.6264 C   0  0  0  0  0  0  0  0  0  0  0  0
    2.2400    4.0459   -2.4470 C   0  0  0  0  0  0  0  0  0  0  0  0
    1.6254    7.2124   -4.8553 S   0  0  0  0  0  0  0  0  0  0  0  0
   -0.0567    7.1597   -4.8843 N   0  0  0  0  0  0  0  0  0  0  0  0
    2.0848    8.5542   -4.5410 O   0  0  0  0  0  0  0  0  0  0  0  0
    2.1065    6.4990   -6.0045 O   0  0  0  0  0  0  0  0  0  0  0  0
   -0.8368    8.3509   -4.9309 C   0  0  0  0  0  0  0  0  0  0  0  0
   -0.4321    9.4608   -5.6642 C   0  0  0  0  0  0  0  0  0  0  0  0
   -1.1807   10.6390   -5.6624 C   0  0  0  0  0  0  0  0  0  0  0  0
   -2.3696   10.6933   -4.9345 C   0  0  0  0  0  0  0  0  0  0  0  0
   -2.8158    9.5638   -4.2454 C   0  0  0  0  0  0  0  0  0  0  0  0
   -2.0613    8.3852   -4.2652 C   0  0  0  0  0  0  0  0  0  0  0  0
   -0.8006   11.8059   -6.2896 O   0  0  0  0  0  0  0  0  0  0  0  0
    0.2864   11.7906   -7.1330 C   0  0  0  0  0  0  0  0  0  0  0  0
    0.3627   10.9333   -8.2380 C   0  0  0  0  0  0  0  0  0  0  0  0
    1.4769   10.9757   -9.0733 C   0  0  0  0  0  0  0  0  0  0  0  0
    2.4639   11.9271   -8.8437 C   0  0  0  0  0  0  0  0  0  0  0  0
    2.3629   12.8281   -7.7879 C   0  0  0  0  0  0  0  0  0  0  0  0
    1.2912   12.7313   -6.9001 C   0  0  0  0  0  0  0  0  0  0  0  0
    3.5332   11.9727   -9.6487 F   0  0  0  0  0  0  0  0  0  0  0  0
    0.6997   -2.1805    0.0170 H   0  0  0  0  0  0  0  0  0  0  0  0
   -1.7715   -2.1381   -0.0081 H   0  0  0  0  0  0  0  0  0  0  0  0
   -2.9883    0.0255   -0.0258 H   0  0  0  0  0  0  0  0  0  0  0  0
   -1.7341    2.1491    0.0223 H   0  0  0  0  0  0  0  0  0  0  0  0
    2.5865   -0.9290   -0.0166 H   0  0  0  0  0  0  0  0  0  0  0  0
    0.7466    2.9617    1.0977 H   0  0  0  0  0  0  0  0  0  0  0  0
    1.9843    2.3406   -0.0048 H   0  0  0  0  0  0  0  0  0  0  0  0
    0.3337    2.9514   -1.7521 H   0  0  0  0  0  0  0  0  0  0  0  0
    2.2072    4.2719   -0.2418 H   0  0  0  0  0  0  0  0  0  0  0  0
    1.1587    6.3976   -0.1352 H   0  0  0  0  0  0  0  0  0  0  0  0
    2.7328    6.2106   -0.8605 H   0  0  0  0  0  0  0  0  0  0  0  0
    0.1863    6.8206   -2.3340 H   0  0  0  0  0  0  0  0  0  0  0  0
    1.6252    7.8434   -2.0955 H   0  0  0  0  0  0  0  0  0  0  0  0
    2.1091    4.4447   -4.5424 H   0  0  0  0  0  0  0  0  0  0  0  0
    0.5626    4.6567   -3.6993 H   0  0  0  0  0  0  0  0  0  0  0  0
    3.3203    4.1864   -2.3585 H   0  0  0  0  0  0  0  0  0  0  0  0
    2.0977    2.9776   -2.6574 H   0  0  0  0  0  0  0  0  0  0  0  0
   -0.4636    6.3020   -5.2489 H   0  0  0  0  0  0  0  0  0  0  0  0
    0.5020    9.4125   -6.2100 H   0  0  0  0  0  0  0  0  0  0  0  0
   -2.9433   11.6169   -4.8959 H   0  0  0  0  0  0  0  0  0  0  0  0
   -3.7397    9.6114   -3.6739 H   0  0  0  0  0  0  0  0  0  0  0  0
   -2.4163    7.5181   -3.7160 H   0  0  0  0  0  0  0  0  0  0  0  0
   -0.4188   10.2019   -8.4235 H   0  0  0  0  0  0  0  0  0  0  0  0
    1.5750   10.2816   -9.9011 H   0  0  0  0  0  0  0  0  0  0  0  0
    3.1186   13.5965   -7.6642 H   0  0  0  0  0  0  0  0  0  0  0  0
    1.2448   13.3776   -6.0277 H   0  0  0  0  0  0  0  0  0  0  0  0
  1  2  2  0  0  0  0
  1  6  1  0  0  0  0
  1 34  1  0  0  0  0
  2  3  1  0  0  0  0
  2 35  1  0  0  0  0
  3  4  2  0  0  0  0
  3 36  1  0  0  0  0
  4  5  1  0  0  0  0
  4 37  1  0  0  0  0
  5  6  2  0  0  0  0
  5  8  1  0  0  0  0
  6  7  1  0  0  0  0
  7 38  1  0  0  0  0
  8  9  1  0  0  0  0
  8 39  1  0  0  0  0
  8 40  1  0  0  0  0
  9 10  1  0  0  0  0
  9 41  1  0  0  0  0
 10 11  1  0  0  0  0
 10 15  1  0  0  0  0
 10 42  1  0  0  0  0
 11 12  1  0  0  0  0
 11 43  1  0  0  0  0
 11 44  1  0  0  0  0
 12 13  1  0  0  0  0
 12 45  1  0  0  0  0
 12 46  1  0  0  0  0
 13 14  1  0  0  0  0
 13 16  1  0  0  0  0
 14 15  1  0  0  0  0
 14 47  1  0  0  0  0
 14 48  1  0  0  0  0
 15 49  1  0  0  0  0
 15 50  1  0  0  0  0
 16 17  1  0  0  0  0
 16 18  2  0  0  0  0
 16 19  2  0  0  0  0
 17 20  1  0  0  0  0
 17 51  1  0  0  0  0
 20 21  2  0  0  0  0
 20 25  1  0  0  0  0
 21 22  1  0  0  0  0
 21 52  1  0  0  0  0
 22 23  2  0  0  0  0
 22 26  1  0  0  0  0
 23 24  1  0  0  0  0
 23 53  1  0  0  0  0
 24 25  2  0  0  0  0
 24 54  1  0  0  0  0
 25 55  1  0  0  0  0
 26 27  1  0  0  0  0
 27 28  2  0  0  0  0
 27 32  1  0  0  0  0
 28 29  1  0  0  0  0
 28 56  1  0  0  0  0
 29 30  2  0  0  0  0
 29 57  1  0  0  0  0
 30 31  1  0  0  0  0
 30 33  1  0  0  0  0
 31 32  2  0  0  0  0
 31 58  1  0  0  0  0
 32 59  1  0  0  0  0
M  END
>  <DRUGBANK_ID>
DB04632

>  <COMMON_NAME>
4-(2-HYDROXYBENZYLAMINO)-N-(3-(4-FLUOROPHENOXY)PHENYL)PIPERIDINE-1-SULFONAMIDE

$$$$
