
 OpenBabel10282417183D

 51 54  0  0  0  0  0  0  0  0999 V2000
    0.5601    0.3575   -0.7688 C   0  0  0  0  0  0  0  0  0  0  0  0
    0.4347   -0.2649    0.6619 C   0  0  0  0  0  0  0  0  0  0  0  0
    1.5323    0.4055    2.2056 C   0  0  3  0  0  0  0  0  0  0  0  0
    2.2760   -0.1855    3.4075 C   0  0  0  0  0  0  0  0  0  0  0  0
    2.1992   -1.5278    2.8271 C   0  0  0  0  0  0  0  0  0  0  0  0
    0.3964   -1.4768    3.0266 C   0  0  3  0  0  0  0  0  0  0  0  0
   -0.4817    0.1630    2.9374 C   0  0  3  0  0  0  0  0  0  0  0  0
    0.4997    1.2021    2.3943 C   0  0  3  0  0  0  0  0  0  0  0  0
    2.0853    0.8677    1.1286 C   0  0  0  0  0  0  0  0  0  0  0  0
    3.1739    1.8200    1.3914 C   0  0  0  0  0  0  0  0  0  0  0  0
    1.9956    2.2231    2.0818 C   0  0  3  0  0  0  0  0  0  0  0  0
    0.9937    3.0899    1.2168 C   0  0  0  0  0  0  0  0  0  0  0  0
    0.0289    3.5572    0.5551 C   0  0  0  0  0  0  0  0  0  0  0  0
    2.2791    2.8428    3.3070 O   0  0  0  0  0  0  0  0  0  0  0  0
   -2.0381    0.4444    3.1266 C   0  0  0  0  0  0  0  0  0  0  0  0
   -2.6988   -0.3692    2.0143 C   0  0  0  0  0  0  0  0  0  0  0  0
   -2.0322   -1.7769    1.9187 C   0  0  0  0  0  0  0  0  0  0  0  0
   -3.0079   -2.5959    1.5255 C   0  0  0  0  0  0  0  0  0  0  0  0
   -2.8376   -3.9515    1.9949 C   0  0  0  0  0  0  0  0  0  0  0  0
   -3.6601   -4.4553    2.7476 O   0  0  0  0  0  0  0  0  0  0  0  0
   -1.4716   -4.4713    1.7746 C   0  0  0  0  0  0  0  0  0  0  0  0
   -0.6693   -3.7793    2.8759 C   0  0  0  0  0  0  0  0  0  0  0  0
   -0.4829   -2.4064    2.2479 C   0  0  3  0  0  0  0  0  0  0  0  0
   -0.1168    1.2061   -0.8231 H   0  0  0  0  0  0  0  0  0  0  0  0
    0.3957   -0.4782   -1.4395 H   0  0  0  0  0  0  0  0  0  0  0  0
    1.4729    0.7876   -1.1832 H   0  0  0  0  0  0  0  0  0  0  0  0
   -0.6586   -0.1537    0.6774 H   0  0  0  0  0  0  0  0  0  0  0  0
    0.5530   -1.3165    0.5495 H   0  0  0  0  0  0  0  0  0  0  0  0
    1.7851   -0.2096    4.3908 H   0  0  0  0  0  0  0  0  0  0  0  0
    3.2353    0.3153    3.6010 H   0  0  0  0  0  0  0  0  0  0  0  0
    2.7169   -1.5796    1.8406 H   0  0  0  0  0  0  0  0  0  0  0  0
    2.9330   -2.1103    3.4086 H   0  0  0  0  0  0  0  0  0  0  0  0
    0.4778   -1.8840    4.0385 H   0  0  0  0  0  0  0  0  0  0  0  0
   -0.8576    0.5691    2.0106 H   0  0  0  0  0  0  0  0  0  0  0  0
    0.6763    1.4701    3.4705 H   0  0  0  0  0  0  0  0  0  0  0  0
    2.3614    0.8213    0.0763 H   0  0  0  0  0  0  0  0  0  0  0  0
    2.3708   -0.2989    0.8316 H   0  0  0  0  0  0  0  0  0  0  0  0
    3.4218    2.4150    0.5260 H   0  0  0  0  0  0  0  0  0  0  0  0
    3.9784    1.2802    1.8818 H   0  0  0  0  0  0  0  0  0  0  0  0
   -0.8011    3.8792    0.0053 H   0  0  0  0  0  0  0  0  0  0  0  0
    2.5531    3.7243    3.0269 H   0  0  0  0  0  0  0  0  0  0  0  0
   -2.3427    1.5037    2.8871 H   0  0  0  0  0  0  0  0  0  0  0  0
   -2.4634    0.3112    4.1216 H   0  0  0  0  0  0  0  0  0  0  0  0
   -2.6697    0.1395    1.0256 H   0  0  0  0  0  0  0  0  0  0  0  0
   -3.7988   -0.3492    2.1872 H   0  0  0  0  0  0  0  0  0  0  0  0
   -3.4045   -2.3369    0.5526 H   0  0  0  0  0  0  0  0  0  0  0  0
   -1.1675   -4.1281    0.7643 H   0  0  0  0  0  0  0  0  0  0  0  0
   -1.4544   -5.5493    1.7453 H   0  0  0  0  0  0  0  0  0  0  0  0
    0.2155   -4.3797    3.1261 H   0  0  0  0  0  0  0  0  0  0  0  0
   -1.1693   -3.5520    3.8245 H   0  0  0  0  0  0  0  0  0  0  0  0
    0.1305   -2.7284    1.3772 H   0  0  0  0  0  0  0  0  0  0  0  0
  1  2  1  0  0  0  0
  1 24  1  0  0  0  0
  1 25  1  0  0  0  0
  1 26  1  0  0  0  0
  2  3  1  0  0  0  0
  2 27  1  0  0  0  0
  2 28  1  0  0  0  0
  3  4  1  0  0  0  0
  3  8  1  0  0  0  0
  3 11  1  0  0  0  0
  4  5  1  0  0  0  0
  4 29  1  0  0  0  0
  4 30  1  0  0  0  0
  5  6  1  0  0  0  0
  5 31  1  0  0  0  0
  5 32  1  0  0  0  0
  6  7  1  0  0  0  0
  6 23  1  0  0  0  0
  6 33  1  0  0  0  0
  7  8  1  0  0  0  0
  7 15  1  0  0  0  0
  7 34  1  0  0  0  0
  8  9  1  0  0  0  0
  8 35  1  0  0  0  0
  9 10  1  0  0  0  0
  9 36  1  0  0  0  0
  9 37  1  0  0  0  0
 10 11  1  0  0  0  0
 10 38  1  0  0  0  0
 10 39  1  0  0  0  0
 11 12  1  0  0  0  0
 11 14  1  0  0  0  0
 12 13  3  0  0  0  0
 13 40  1  0  0  0  0
 14 41  1  0  0  0  0
 15 16  1  0  0  0  0
 15 42  1  0  0  0  0
 15 43  1  0  0  0  0
 16 17  1  0  0  0  0
 16 44  1  0  0  0  0
 16 45  1  0  0  0  0
 17 18  2  0  0  0  0
 17 23  1  0  0  0  0
 18 19  1  0  0  0  0
 18 46  1  0  0  0  0
 19 20  2  0  0  0  0
 19 21  1  0  0  0  0
 21 22  1  0  0  0  0
 21 47  1  0  0  0  0
 21 48  1  0  0  0  0
 22 23  1  0  0  0  0
 22 49  1  0  0  0  0
 22 50  1  0  0  0  0
 23 51  1  0  0  0  0
M  END
>  <DRUGBANK_ID>
DB09389

>  <COMMON_NAME>
Norgestrel

>  <CAS_NUMBER>
6533-00-2

>  <UNII>
3J8Q1747Z2

>  <SYNONYMS>
17-ethynyl-17-hydroxy-18a-homoestr-4-en-3-one; LD norgestrel; Methylnorethindrone; Norgestrel; Norgestrelum

$$$$
