H25
 OpenBabel10282417163D

 53 56  0  0  0  0  0  0  0  0999 V2000
    2.2473    0.0501   -0.9239 F   0  0  0  0  0  0  0  0  0  0  0  0
    0.9215    0.0601   -1.1619 C   0  0  0  0  0  0  0  0  0  0  0  0
    0.2158    1.3480   -0.9804 C   0  0  0  0  0  0  0  0  0  0  0  0
   -1.2284    1.4353   -0.8970 C   0  0  0  0  0  0  0  0  0  0  0  0
   -1.9174    2.6379   -0.3914 N   0  0  0  0  0  0  0  0  0  0  0  0
   -1.7129    3.7214   -1.2089 C   0  0  0  0  0  0  0  0  0  0  0  0
   -2.2089    4.9316   -0.9686 C   0  0  0  0  0  0  0  0  0  0  0  0
   -3.0943    5.1666    0.1281 C   0  0  0  0  0  0  0  0  0  0  0  0
   -3.4334    4.1578    0.9264 C   0  0  0  0  0  0  0  0  0  0  0  0
   -2.7669    2.8260    0.7732 C   0  0  0  0  0  0  0  0  0  0  0  0
   -3.0449    2.1041    1.7227 O   0  0  0  0  0  0  0  0  0  0  0  0
   -1.9113    0.2660   -1.2174 C   0  0  0  0  0  0  0  0  0  0  0  0
   -1.1929   -0.9896   -1.3034 C   0  0  0  0  0  0  0  0  0  0  0  0
    0.1933   -1.1725   -1.1389 C   0  0  0  0  0  0  0  0  0  0  0  0
    0.7323   -2.4159   -0.5363 N   0  0  0  0  0  0  0  0  0  0  0  0
    0.1854   -3.6480   -0.1260 C   0  0  0  0  0  0  0  0  0  0  0  0
    0.9616   -4.5724    0.1721 O   0  0  0  0  0  0  0  0  0  0  0  0
   -1.3290   -3.9581   -0.0659 C   0  0  0  0  0  0  0  0  0  0  0  0
   -1.9840   -3.3476    1.1084 N   0  0  0  0  0  0  0  0  0  0  0  0
   -2.4884   -4.2637    2.1543 C   0  0  0  0  0  0  0  0  0  0  0  0
   -4.0199   -4.1076    2.0807 C   0  0  2  0  0  0  0  0  0  0  0  0
   -4.5128   -4.8440    0.9374 O   0  0  0  0  0  0  0  0  0  0  0  0
   -3.1287   -2.5010    0.7621 C   0  0  0  0  0  0  0  0  0  0  0  0
   -4.1910   -2.6045    1.8373 C   0  0  2  0  0  0  0  0  0  0  0  0
   -4.1031   -1.7498    3.0682 N   0  0  0  0  0  0  0  0  0  0  0  0
   -3.1919   -0.9128    3.7137 C   0  0  0  0  0  0  0  0  0  0  0  0
   -3.5118   -0.3598    4.7309 O   0  0  0  0  0  0  0  0  0  0  0  0
   -1.9552   -0.6194    3.0821 C   0  0  0  0  0  0  0  0  0  0  0  0
   -1.9155   -0.0469    1.8734 C   0  0  0  0  0  0  0  0  0  0  0  0
   -0.6043   -0.0384    1.5098 C   0  0  0  0  0  0  0  0  0  0  0  0
   -0.4104   -0.7367    3.8288 S   0  0  0  0  0  0  0  0  0  0  0  0
    0.3535   -0.2857    2.4108 C   0  0  0  0  0  0  0  0  0  0  0  0
    2.0276   -0.2562    2.0756 Cl  0  0  0  0  0  0  0  0  0  0  0  0
   -5.1588   -2.3591    1.3757 H   0  0  0  0  0  0  0  0  0  0  0  0
   -4.5606   -4.4552    2.9608 H   0  0  0  0  0  0  0  0  0  0  0  0
    0.7918    2.1561   -0.5050 H   0  0  0  0  0  0  0  0  0  0  0  0
   -1.1424    3.5117   -2.1019 H   0  0  0  0  0  0  0  0  0  0  0  0
   -1.9990    5.7240   -1.6677 H   0  0  0  0  0  0  0  0  0  0  0  0
   -3.5340    6.1479    0.2505 H   0  0  0  0  0  0  0  0  0  0  0  0
   -4.1609    4.2638    1.7323 H   0  0  0  0  0  0  0  0  0  0  0  0
   -2.9944    0.2391   -1.0763 H   0  0  0  0  0  0  0  0  0  0  0  0
   -1.8033   -1.8239   -1.0577 H   0  0  0  0  0  0  0  0  0  0  0  0
    1.7119   -2.3827   -0.2391 H   0  0  0  0  0  0  0  0  0  0  0  0
   -1.7436   -3.6570   -1.0263 H   0  0  0  0  0  0  0  0  0  0  0  0
   -1.5028   -5.0427   -0.0653 H   0  0  0  0  0  0  0  0  0  0  0  0
   -2.1378   -3.9051    3.1328 H   0  0  0  0  0  0  0  0  0  0  0  0
   -2.1480   -5.2930    2.0249 H   0  0  0  0  0  0  0  0  0  0  0  0
   -3.9082   -4.6773    0.1889 H   0  0  0  0  0  0  0  0  0  0  0  0
   -2.7797   -1.5225    0.6937 H   0  0  0  0  0  0  0  0  0  0  0  0
   -3.5499   -2.6761   -0.2382 H   0  0  0  0  0  0  0  0  0  0  0  0
   -4.9253   -1.7589    3.6547 H   0  0  0  0  0  0  0  0  0  0  0  0
   -2.7982    0.1497    1.2531 H   0  0  0  0  0  0  0  0  0  0  0  0
   -0.3467    0.0544    0.5363 H   0  0  0  0  0  0  0  0  0  0  0  0
  1  2  1  0  0  0  0
  2  3  1  0  0  0  0
  2 14  2  0  0  0  0
  3  4  2  0  0  0  0
  3 36  1  0  0  0  0
  4  5  1  0  0  0  0
  4 12  1  0  0  0  0
  5  6  1  0  0  0  0
  5 10  1  0  0  0  0
  6  7  2  0  0  0  0
  6 37  1  0  0  0  0
  7  8  1  0  0  0  0
  7 38  1  0  0  0  0
  8  9  2  0  0  0  0
  8 39  1  0  0  0  0
  9 10  1  0  0  0  0
  9 40  1  0  0  0  0
 10 11  2  0  0  0  0
 12 13  2  0  0  0  0
 12 41  1  0  0  0  0
 13 14  1  0  0  0  0
 13 42  1  0  0  0  0
 14 15  1  0  0  0  0
 15 16  1  0  0  0  0
 15 43  1  0  0  0  0
 16 17  2  0  0  0  0
 16 18  1  0  0  0  0
 18 19  1  0  0  0  0
 18 44  1  0  0  0  0
 18 45  1  0  0  0  0
 19 23  1  0  0  0  0
 19 20  1  0  0  0  0
 20 46  1  0  0  0  0
 20 47  1  0  0  0  0
 21 20  1  0  0  0  0
 21 22  1  0  0  0  0
 21 24  1  0  0  0  0
 21 35  1  1  0  0  0
 22 48  1  0  0  0  0
 23 24  1  0  0  0  0
 23 49  1  0  0  0  0
 23 50  1  0  0  0  0
 24 34  1  6  0  0  0
 24 25  1  0  0  0  0
 25 26  1  0  0  0  0
 25 51  1  0  0  0  0
 26 27  2  0  0  0  0
 26 28  1  0  0  0  0
 28 29  2  0  0  0  0
 28 31  1  0  0  0  0
 29 30  1  0  0  0  0
 29 52  1  0  0  0  0
 30 32  2  0  0  0  0
 30 53  1  0  0  0  0
 31 32  1  0  0  0  0
 32 33  1  0  0  0  0
M  END
>  <DRUGBANK_ID>
DB07875

>  <COMMON_NAME>
5-Chloro-thiophene-2-carboxylic acid ((3S,4S)-1-{[2-fluoro-4-(2-oxo-2H-pyridin-1-yl)-phenylcarbamoyl]-methyl}-4-hydroxy-pyrrolidin-3-yl)-amide

$$$$
