
 OpenBabel10282417193D

 63 64  0  0  1  0  0  0  0  0999 V2000
   -6.8466    3.7608   -8.0161 C   0  0  0  0  0  0  0  0  0  0  0  0
   -6.9012    1.6179   -8.1665 S   0  0  0  0  0  0  0  0  0  0  0  0
   -6.3391    1.2959   -9.4466 O   0  0  0  0  0  0  0  0  0  0  0  0
   -6.4140    0.7539   -7.0877 O   0  0  0  0  0  0  0  0  0  0  0  0
   -8.4766    1.2121   -8.1295 N   0  0  0  0  0  0  0  0  0  0  0  0
   -9.5741    1.9639   -7.6828 C   0  0  0  0  0  0  0  0  0  0  0  0
  -10.6737    1.5419   -7.8394 O   0  0  0  0  0  0  0  0  0  0  0  0
   -9.3073    3.3418   -7.0961 C   0  0  0  0  0  0  0  0  0  0  0  0
   -8.5018    3.4055   -5.7187 C   0  0  0  0  0  0  0  0  0  0  0  0
   -6.9978    2.6692   -5.4284 C   0  0  0  0  0  0  0  0  0  0  0  0
   -5.5110    2.9314   -6.2617 C   0  0  0  0  0  0  0  0  0  0  0  0
   -4.6713    3.9664   -6.1758 C   0  0  0  0  0  0  0  0  0  0  0  0
   -4.1979    4.0154   -4.8424 C   0  0  0  0  0  0  0  0  0  0  0  0
   -3.1545    2.8968   -4.8093 C   0  0  2  0  0  0  0  0  0  0  0  0
   -2.2677    3.2611   -3.6601 C   0  0  2  0  0  0  0  0  0  0  0  0
   -0.9370    2.5531   -3.9018 C   0  0  1  0  0  0  0  0  0  0  0  0
   -1.0176    1.7878   -5.2155 C   0  0  0  0  0  0  0  0  0  0  0  0
   -2.1318    2.5360   -5.8733 C   0  0  0  0  0  0  0  0  0  0  0  0
   -2.2210    2.6717   -7.0843 O   0  0  0  0  0  0  0  0  0  0  0  0
    0.0766    3.5553   -3.9802 O   0  0  0  0  0  0  0  0  0  0  0  0
   -2.9123    2.9232   -2.3694 C   0  0  0  0  0  0  0  0  0  0  0  0
   -4.1561    2.4491   -2.2693 C   0  0  0  0  0  0  0  0  0  0  0  0
   -4.8264    1.8454   -1.1327 C   0  0  2  0  0  0  0  0  0  0  0  0
   -3.9738    1.6858    0.1386 C   0  0  0  0  0  0  0  0  0  0  0  0
   -3.6684    0.3523    0.5087 O   0  0  0  0  0  0  0  0  0  0  0  0
   -4.7099   -0.3904    0.9802 C   0  0  0  0  0  0  0  0  0  0  0  0
   -6.0078   -0.3727    0.4674 C   0  0  0  0  0  0  0  0  0  0  0  0
   -6.9143   -1.3789    0.7184 C   0  0  0  0  0  0  0  0  0  0  0  0
   -6.5932   -2.3234    1.6654 C   0  0  0  0  0  0  0  0  0  0  0  0
   -5.3385   -2.2948    2.2823 C   0  0  0  0  0  0  0  0  0  0  0  0
   -4.3906   -1.3307    1.9401 C   0  0  0  0  0  0  0  0  0  0  0  0
   -5.2272    0.6377   -1.8028 O   0  0  0  0  0  0  0  0  0  0  0  0
   -5.8744    4.2432   -8.0813 H   0  0  0  0  0  0  0  0  0  0  0  0
   -7.1619    4.2135   -7.0608 H   0  0  0  0  0  0  0  0  0  0  0  0
   -7.3738    4.1839   -8.8453 H   0  0  0  0  0  0  0  0  0  0  0  0
   -8.6100    0.1974   -8.0890 H   0  0  0  0  0  0  0  0  0  0  0  0
   -8.9521    3.9450   -7.9301 H   0  0  0  0  0  0  0  0  0  0  0  0
  -10.2688    3.8615   -6.9874 H   0  0  0  0  0  0  0  0  0  0  0  0
   -8.4081    4.4692   -5.4413 H   0  0  0  0  0  0  0  0  0  0  0  0
   -9.2012    2.9943   -4.9766 H   0  0  0  0  0  0  0  0  0  0  0  0
   -6.7776    2.7964   -4.3667 H   0  0  0  0  0  0  0  0  0  0  0  0
   -7.2907    1.6132   -5.4350 H   0  0  0  0  0  0  0  0  0  0  0  0
   -5.1534    2.5167   -7.2292 H   0  0  0  0  0  0  0  0  0  0  0  0
   -3.9594    4.2367   -6.9756 H   0  0  0  0  0  0  0  0  0  0  0  0
   -3.9451    5.0279   -4.5591 H   0  0  0  0  0  0  0  0  0  0  0  0
   -5.0530    3.7719   -4.2126 H   0  0  0  0  0  0  0  0  0  0  0  0
   -3.6487    1.9089   -4.6920 H   0  0  0  0  0  0  0  0  0  0  0  0
   -2.1247    4.3495   -3.6532 H   0  0  0  0  0  0  0  0  0  0  0  0
   -0.6802    1.8816   -3.0800 H   0  0  0  0  0  0  0  0  0  0  0  0
   -0.1089    1.8177   -5.8145 H   0  0  0  0  0  0  0  0  0  0  0  0
   -1.3630    0.7587   -5.0565 H   0  0  0  0  0  0  0  0  0  0  0  0
   -0.1338    4.1541   -4.7213 H   0  0  0  0  0  0  0  0  0  0  0  0
   -2.2664    3.0488   -1.5164 H   0  0  0  0  0  0  0  0  0  0  0  0
   -4.8047    2.2851   -3.1279 H   0  0  0  0  0  0  0  0  0  0  0  0
   -5.7213    2.4383   -0.8988 H   0  0  0  0  0  0  0  0  0  0  0  0
   -2.9991    2.1659    0.0238 H   0  0  0  0  0  0  0  0  0  0  0  0
   -4.4068    2.2378    0.9795 H   0  0  0  0  0  0  0  0  0  0  0  0
   -6.3995    0.3818   -0.1916 H   0  0  0  0  0  0  0  0  0  0  0  0
   -7.8498   -1.3833    0.1665 H   0  0  0  0  0  0  0  0  0  0  0  0
   -7.3407   -3.0559    1.9412 H   0  0  0  0  0  0  0  0  0  0  0  0
   -5.0914   -3.0473    3.0204 H   0  0  0  0  0  0  0  0  0  0  0  0
   -3.4220   -1.2956    2.4320 H   0  0  0  0  0  0  0  0  0  0  0  0
   -4.5700   -0.0476   -1.5850 H   0  0  0  0  0  0  0  0  0  0  0  0
  1  2  1  0  0  0  0
  1 33  1  0  0  0  0
  1 34  1  0  0  0  0
  1 35  1  0  0  0  0
  2  3  2  0  0  0  0
  2  4  2  0  0  0  0
  2  5  1  0  0  0  0
  5  6  1  0  0  0  0
  5 36  1  0  0  0  0
  6  7  2  0  0  0  0
  6  8  1  0  0  0  0
  8  9  1  0  0  0  0
  8 37  1  0  0  0  0
  8 38  1  0  0  0  0
  9 10  1  0  0  0  0
  9 39  1  0  0  0  0
  9 40  1  0  0  0  0
 10 11  1  0  0  0  0
 10 41  1  0  0  0  0
 10 42  1  0  0  0  0
 11 12  2  0  0  0  0
 11 43  1  0  0  0  0
 12 13  1  0  0  0  0
 12 44  1  0  0  0  0
 13 45  1  0  0  0  0
 13 46  1  0  0  0  0
 14 13  1  0  0  0  0
 14 15  1  0  0  0  0
 14 18  1  0  0  0  0
 14 47  1  1  0  0  0
 15 16  1  0  0  0  0
 15 48  1  6  0  0  0
 15 21  1  0  0  0  0
 16 17  1  0  0  0  0
 16 20  1  0  0  0  0
 16 49  1  1  0  0  0
 17 18  1  0  0  0  0
 17 50  1  0  0  0  0
 17 51  1  0  0  0  0
 18 19  2  0  0  0  0
 20 52  1  0  0  0  0
 21 22  2  0  0  0  0
 21 53  1  0  0  0  0
 22 54  1  0  0  0  0
 23 32  1  0  0  0  0
 23 55  1  1  0  0  0
 23 24  1  0  0  0  0
 23 22  1  0  0  0  0
 24 25  1  0  0  0  0
 24 56  1  0  0  0  0
 24 57  1  0  0  0  0
 25 26  1  0  0  0  0
 26 27  2  0  0  0  0
 26 31  1  0  0  0  0
 27 28  1  0  0  0  0
 27 58  1  0  0  0  0
 28 29  2  0  0  0  0
 28 59  1  0  0  0  0
 29 30  1  0  0  0  0
 29 60  1  0  0  0  0
 30 31  2  0  0  0  0
 30 61  1  0  0  0  0
 31 62  1  0  0  0  0
 32 63  1  0  0  0  0
M  END
>  <DRUGBANK_ID>
DB12708

>  <COMMON_NAME>
Sulprostone

>  <CAS_NUMBER>
60325-46-4

>  <UNII>
501Q5EQ1GM

>  <SYNONYMS>
Sulprostone

$$$$
