
 OpenBabel10282417173D

 54 56  0  0  0  0  0  0  0  0999 V2000
   -3.6045   -1.5721    1.1527 C   0  0  0  0  0  0  0  0  0  0  0  0
   -2.0978   -3.1779    2.4156 C   0  0  0  0  0  0  0  0  0  0  0  0
    2.7023   -0.0256   -0.3619 C   0  0  0  0  0  0  0  0  0  0  0  0
   -6.7472   -3.8769    9.7120 C   0  0  0  0  0  0  0  0  0  0  0  0
   -5.3872   -3.9890    9.4349 C   0  0  0  0  0  0  0  0  0  0  0  0
   -7.5400   -3.0498    8.9209 C   0  0  0  0  0  0  0  0  0  0  0  0
   -4.8170   -3.2518    8.3827 C   0  0  0  0  0  0  0  0  0  0  0  0
   -6.9785   -2.3519    7.8413 C   0  0  0  0  0  0  0  0  0  0  0  0
    0.6271    1.0469    0.5934 C   0  0  0  0  0  0  0  0  0  0  0  0
    1.3081   -1.2760    1.3058 C   0  0  0  0  0  0  0  0  0  0  0  0
   -0.3193    1.1278    1.7970 C   0  0  0  0  0  0  0  0  0  0  0  0
    0.4553   -1.1280    2.5621 C   0  0  0  0  0  0  0  0  0  0  0  0
   -4.2434   -1.9683    5.4302 C   0  0  0  0  0  0  0  0  0  0  0  0
   -3.1893   -2.1228    2.5242 C   0  0  0  0  0  0  0  0  0  0  0  0
    1.8069    0.1007    0.8629 C   0  0  1  0  0  0  0  0  0  0  0  0
   -5.5994   -2.3931    7.5879 C   0  0  0  0  0  0  0  0  0  0  0  0
   -0.7745   -0.2709    2.2404 C   0  0  1  0  0  0  0  0  0  0  0  0
   -3.7167   -0.8791    4.6406 C   0  0  0  0  0  0  0  0  0  0  0  0
   -4.9909   -1.5633    6.5201 C   0  0  0  0  0  0  0  0  0  0  0  0
   -4.1849    0.3545    5.0990 C   0  0  0  0  0  0  0  0  0  0  0  0
   -1.7198   -0.2107    3.4457 C   0  0  0  0  0  0  0  0  0  0  0  0
   -4.0189    1.6568    4.4387 C   0  0  0  0  0  0  0  0  0  0  0  0
   -2.8549   -1.0547    3.5078 N   0  0  0  0  0  0  0  0  0  0  0  0
   -1.3943    0.5193    4.3935 O   0  0  0  0  0  0  0  0  0  0  0  0
   -4.4410    2.7358    5.1494 O   0  0  0  0  0  0  0  0  0  0  0  0
   -3.6042    1.8232    3.2888 O   0  0  0  0  0  0  0  0  0  0  0  0
   -5.1276    0.1566    6.5315 S   0  0  0  0  0  0  0  0  0  0  0  0
    2.4051    0.5216    1.6814 H   0  0  0  0  0  0  0  0  0  0  0  0
   -1.2489   -0.6991    1.3710 H   0  0  0  0  0  0  0  0  0  0  0  0
   -2.8683   -0.9428    0.6594 H   0  0  0  0  0  0  0  0  0  0  0  0
   -4.4964   -0.9469    1.2426 H   0  0  0  0  0  0  0  0  0  0  0  0
   -3.8032   -2.3920    0.4562 H   0  0  0  0  0  0  0  0  0  0  0  0
   -1.2429   -2.7834    1.8828 H   0  0  0  0  0  0  0  0  0  0  0  0
   -1.7803   -3.5236    3.4064 H   0  0  0  0  0  0  0  0  0  0  0  0
   -2.4021   -4.0380    1.8166 H   0  0  0  0  0  0  0  0  0  0  0  0
    3.1023    0.9524   -0.6460 H   0  0  0  0  0  0  0  0  0  0  0  0
    3.5476   -0.6890   -0.1509 H   0  0  0  0  0  0  0  0  0  0  0  0
    2.1540   -0.4353   -1.2166 H   0  0  0  0  0  0  0  0  0  0  0  0
   -7.1893   -4.4377   10.5336 H   0  0  0  0  0  0  0  0  0  0  0  0
   -4.7678   -4.6379   10.0518 H   0  0  0  0  0  0  0  0  0  0  0  0
   -8.5983   -2.9404    9.1474 H   0  0  0  0  0  0  0  0  0  0  0  0
   -3.7487   -3.3527    8.2044 H   0  0  0  0  0  0  0  0  0  0  0  0
   -7.6366   -1.7808    7.1918 H   0  0  0  0  0  0  0  0  0  0  0  0
    1.0001    2.0507    0.3602 H   0  0  0  0  0  0  0  0  0  0  0  0
    0.0683    0.7037   -0.2882 H   0  0  0  0  0  0  0  0  0  0  0  0
    0.7238   -1.7407    0.4971 H   0  0  0  0  0  0  0  0  0  0  0  0
    2.1470   -1.9472    1.5136 H   0  0  0  0  0  0  0  0  0  0  0  0
    0.1955    1.6292    2.6241 H   0  0  0  0  0  0  0  0  0  0  0  0
   -1.1856    1.7479    1.5359 H   0  0  0  0  0  0  0  0  0  0  0  0
    1.0274   -0.6661    3.3723 H   0  0  0  0  0  0  0  0  0  0  0  0
    0.2042   -2.1190    2.9433 H   0  0  0  0  0  0  0  0  0  0  0  0
   -4.0318   -3.0144    5.2451 H   0  0  0  0  0  0  0  0  0  0  0  0
   -4.0775   -2.6525    2.8948 H   0  0  0  0  0  0  0  0  0  0  0  0
   -4.8302    2.5152    6.0129 H   0  0  0  0  0  0  0  0  0  0  0  0
  1 30  1  0  0  0  0
  1 31  1  0  0  0  0
  1 32  1  0  0  0  0
  2 33  1  0  0  0  0
  2 34  1  0  0  0  0
  2 35  1  0  0  0  0
  3 36  1  0  0  0  0
  3 37  1  0  0  0  0
  3 38  1  0  0  0  0
  4 39  1  0  0  0  0
  5  4  2  0  0  0  0
  5 40  1  0  0  0  0
  6  4  1  0  0  0  0
  6 41  1  0  0  0  0
  7  5  1  0  0  0  0
  7 42  1  0  0  0  0
  8  6  2  0  0  0  0
  8 43  1  0  0  0  0
  9 44  1  0  0  0  0
  9 45  1  0  0  0  0
 10 46  1  0  0  0  0
 10 47  1  0  0  0  0
 11  9  1  0  0  0  0
 11 48  1  0  0  0  0
 11 49  1  0  0  0  0
 12 10  1  0  0  0  0
 12 50  1  0  0  0  0
 12 51  1  0  0  0  0
 13 52  1  0  0  0  0
 14  1  1  0  0  0  0
 14  2  1  0  0  0  0
 14 53  1  0  0  0  0
 15  3  1  0  0  0  0
 15  9  1  0  0  0  0
 15 10  1  0  0  0  0
 15 28  1  1  0  0  0
 16  7  2  0  0  0  0
 16  8  1  0  0  0  0
 17 11  1  0  0  0  0
 17 12  1  0  0  0  0
 17 29  1  6  0  0  0
 17 21  1  0  0  0  0
 18 13  1  0  0  0  0
 19 13  2  0  0  0  0
 19 16  1  0  0  0  0
 20 18  2  0  0  0  0
 22 20  1  0  0  0  0
 23 14  1  0  0  0  0
 23 18  1  0  0  0  0
 23 21  1  0  0  0  0
 24 21  2  0  0  0  0
 25 22  1  0  0  0  0
 25 54  1  0  0  0  0
 26 22  2  0  0  0  0
 27 19  1  0  0  0  0
 27 20  1  0  0  0  0
M  END
>  <DRUGBANK_ID>
DB08279

>  <COMMON_NAME>
3-{ISOPROPYL[(TRANS-4-METHYLCYCLOHEXYL)CARBONYL]AMINO}-5-PHENYLTHIOPHENE-2-CARBOXYLIC ACID

$$$$
