
 OpenBabel10282417243D

201210  0  0  1  0  0  0  0  0999 V2000
   -4.2256    1.0393    6.5379 C   0  0  0  0  0  0  0  0  0  0  0  0
   -4.4814   -0.2076    7.1808 C   0  0  2  0  0  0  0  0  0  0  0  0
   -5.1261   -1.1485    6.2203 N   0  0  0  0  0  0  0  0  0  0  0  0
   -4.6124   -1.5616    4.9702 C   0  0  0  0  0  0  0  0  0  0  0  0
   -5.0200   -2.4785    4.2669 O   0  0  0  0  0  0  0  0  0  0  0  0
   -3.2884   -0.9950    4.6031 C   0  0  2  0  0  0  0  0  0  0  0  0
   -2.2172   -2.1235    5.6977 C   0  0  0  0  0  0  0  0  0  0  0  0
   -0.7386   -1.0909    6.5022 C   0  0  1  0  0  0  0  0  0  0  0  0
   -0.2564   -1.4600    5.2437 O   0  0  0  0  0  0  0  0  0  0  0  0
   -1.6196    0.9037    6.5048 C   0  0  0  0  0  0  0  0  0  0  0  0
   -2.8521    0.6584    4.9024 N   0  0  0  0  0  0  0  0  0  0  0  0
   -3.5128    1.5683    4.1210 C   0  0  0  0  0  0  0  0  0  0  0  0
   -4.3140    1.1416    3.2981 O   0  0  0  0  0  0  0  0  0  0  0  0
   -3.1783    3.1785    4.7107 C   0  0  1  0  0  0  0  0  0  0  0  0
   -3.0205    3.5366    6.2871 N   0  0  0  0  0  0  0  0  0  0  0  0
   -1.9348    3.8567    7.2505 C   0  0  0  0  0  0  0  0  0  0  0  0
   -2.1383    3.7947    8.4610 O   0  0  0  0  0  0  0  0  0  0  0  0
   -0.3258    4.1221    6.9946 C   0  0  0  0  0  0  0  0  0  0  0  0
    0.2334    2.8267    6.4889 C   0  0  0  0  0  0  0  0  0  0  0  0
   -0.9081    2.0847    4.8114 C   0  0  0  0  0  0  0  0  0  0  0  0
   -0.4745    3.0222    3.1411 C   0  0  0  0  0  0  0  0  0  0  0  0
    0.8763    3.3044    2.6632 C   0  0  0  0  0  0  0  0  0  0  0  0
    1.0237    2.0359    2.0030 C   0  0  0  0  0  0  0  0  0  0  0  0
    1.1856    1.9585    0.7899 O   0  0  0  0  0  0  0  0  0  0  0  0
    1.0956    0.8488    2.8680 N   0  0  0  0  0  0  0  0  0  0  0  0
    0.5290    0.2900    3.8412 C   0  0  0  0  0  0  0  0  0  0  0  0
    1.8957    0.0091    5.4444 C   0  0  0  0  0  0  0  0  0  0  0  0
    2.8434   -1.1671    5.4734 N   0  0  0  0  0  0  0  0  0  0  0  0
    1.9629   -2.9636    5.1181 C   0  0  0  0  0  0  0  0  0  0  0  0
    0.7552   -2.6645    3.6440 C   0  0  0  0  0  0  0  0  0  0  0  0
    2.0895   -1.8151    2.1266 C   0  0  2  0  0  0  0  0  0  0  0  0
    2.1285    0.1288    1.8924 C   0  0  0  0  0  0  0  0  0  0  0  0
    2.1934    1.6581    4.1468 S   0  0  0  0  0  0  0  0  0  0  0  0
    0.3076    0.8284    5.6487 C   0  0  0  0  0  0  0  0  0  0  0  0
    0.4214    0.7053    7.4816 C   0  0  0  0  0  0  0  0  0  0  0  0
   -0.5092    0.1296    8.5815 C   0  0  0  0  0  0  0  0  0  0  0  0
   -1.8072   -0.5495    8.2430 C   0  0  0  0  0  0  0  0  0  0  0  0
   -2.4100   -0.5802    6.6625 C   0  0  0  0  0  0  0  0  0  0  0  0
   -1.2375   -0.0602    5.1428 C   0  0  0  0  0  0  0  0  0  0  0  0
    1.8513   -3.0211    1.1986 N   0  0  0  0  0  0  0  0  0  0  0  0
    2.9851   -3.6364    1.0590 C   0  0  0  0  0  0  0  0  0  0  0  0
    3.9467   -3.7852    2.0004 C   0  0  0  0  0  0  0  0  0  0  0  0
    5.0090   -4.4759    1.7121 C   0  0  0  0  0  0  0  0  0  0  0  0
    5.1010   -5.1210    0.5778 C   0  0  0  0  0  0  0  0  0  0  0  0
    4.2864   -4.6443   -0.4027 C   0  0  0  0  0  0  0  0  0  0  0  0
    3.3426   -3.7046   -0.1767 C   0  0  0  0  0  0  0  0  0  0  0  0
    2.6770   -2.5584   -1.3274 S   0  0  0  0  0  0  0  0  0  0  0  0
    3.8340   -1.7159   -1.5883 O   0  0  0  0  0  0  0  0  0  0  0  0
    1.9980   -3.3998   -2.2756 O   0  0  0  0  0  0  0  0  0  0  0  0
    1.4413   -1.4788   -0.7299 C   0  0  0  0  0  0  0  0  0  0  0  0
    0.3281   -2.1118   -0.2587 F   0  0  0  0  0  0  0  0  0  0  0  0
    2.1413   -0.7848    0.1498 F   0  0  0  0  0  0  0  0  0  0  0  0
    0.9204   -0.4742   -1.4671 F   0  0  0  0  0  0  0  0  0  0  0  0
    6.4284   -6.2337    0.4736 S   0  0  0  0  0  0  0  0  0  0  0  0
    5.9541   -7.3476   -0.3116 O   0  0  0  0  0  0  0  0  0  0  0  0
    7.4733   -5.3581   -0.0079 O   0  0  0  0  0  0  0  0  0  0  0  0
    6.9093   -6.8640    2.0093 N   0  0  0  0  0  0  0  0  0  0  0  0
    6.4548   -6.8338    3.3550 C   0  0  0  0  0  0  0  0  0  0  0  0
    7.1049   -7.2172    4.3231 O   0  0  0  0  0  0  0  0  0  0  0  0
    5.1331   -6.4310    3.7174 C   0  0  0  0  0  0  0  0  0  0  0  0
    3.9480   -6.7703    2.8457 C   0  0  0  0  0  0  0  0  0  0  0  0
    2.7240   -6.1820    2.9034 C   0  0  0  0  0  0  0  0  0  0  0  0
    2.6988   -5.3740    3.9619 C   0  0  0  0  0  0  0  0  0  0  0  0
    3.8978   -5.1247    4.7446 C   0  0  0  0  0  0  0  0  0  0  0  0
    5.1870   -5.3519    4.5354 C   0  0  0  0  0  0  0  0  0  0  0  0
    1.7508   -4.4681    3.6435 N   0  0  0  0  0  0  0  0  0  0  0  0
    0.1219   -4.9831    3.5087 C   0  0  0  0  0  0  0  0  0  0  0  0
   -0.8071   -4.1483    2.4321 C   0  0  0  0  0  0  0  0  0  0  0  0
   -0.9747   -2.7126    2.3230 N   0  0  0  0  0  0  0  0  0  0  0  0
   -1.4931   -2.6120    3.7666 C   0  0  0  0  0  0  0  0  0  0  0  0
   -0.5278   -3.2274    5.5419 C   0  0  0  0  0  0  0  0  0  0  0  0
   -0.9878   -3.9775    6.5585 C   0  0  0  0  0  0  0  0  0  0  0  0
   -0.1218   -3.7952    7.7452 C   0  0  0  0  0  0  0  0  0  0  0  0
    1.3933   -3.3106    8.0044 C   0  0  0  0  0  0  0  0  0  0  0  0
    2.2424   -2.3132    7.2749 C   0  0  0  0  0  0  0  0  0  0  0  0
    2.5512   -0.9465    7.9008 C   0  0  0  0  0  0  0  0  0  0  0  0
    3.6927   -2.8518    6.3972 C   0  0  0  0  0  0  0  0  0  0  0  0
    0.9478   -2.1522    6.4636 C   0  0  0  0  0  0  0  0  0  0  0  0
   -2.4573   -4.4000    6.5956 C   0  0  0  0  0  0  0  0  0  0  0  0
   -2.9967   -4.7744    5.3215 C   0  0  0  0  0  0  0  0  0  0  0  0
   -4.3323   -4.8749    5.1331 C   0  0  0  0  0  0  0  0  0  0  0  0
   -5.1478   -4.5631    6.2067 C   0  0  0  0  0  0  0  0  0  0  0  0
   -6.7719   -5.0162    6.1659 Cl  0  0  0  0  0  0  0  0  0  0  0  0
   -4.6940   -3.9534    7.3621 C   0  0  0  0  0  0  0  0  0  0  0  0
   -3.3682   -3.7676    7.5183 C   0  0  0  0  0  0  0  0  0  0  0  0
    0.4266   -2.0925    2.1728 C   0  0  0  0  0  0  0  0  0  0  0  0
    2.1765   -2.8869    3.2440 C   0  0  0  0  0  0  0  0  0  0  0  0
    3.6504   -0.3296    4.6972 C   0  0  0  0  0  0  0  0  0  0  0  0
    2.9160   -0.0286    3.4124 C   0  0  0  0  0  0  0  0  0  0  0  0
   -2.0015    3.7826    3.9680 C   0  0  0  0  0  0  0  0  0  0  0  0
   -2.0957    2.8217    2.1133 C   0  0  0  0  0  0  0  0  0  0  0  0
   -1.3057    5.1042    4.4636 C   0  0  0  0  0  0  0  0  0  0  0  0
   -0.2146    3.6969    4.8611 C   0  0  0  0  0  0  0  0  0  0  0  0
   -4.5568    0.4683    8.4022 C   0  0  0  0  0  0  0  0  0  0  0  0
   -5.7035   -0.0030    8.8289 C   0  0  0  0  0  0  0  0  0  0  0  0
   -6.0737    0.5955    9.9267 C   0  0  0  0  0  0  0  0  0  0  0  0
   -5.2744    1.5603   10.5580 C   0  0  0  0  0  0  0  0  0  0  0  0
   -3.9929    1.8465   10.1695 C   0  0  0  0  0  0  0  0  0  0  0  0
   -3.6459    1.3660    8.9937 C   0  0  0  0  0  0  0  0  0  0  0  0
   -5.8020    2.2064   11.7051 C   0  0  0  0  0  0  0  0  0  0  0  0
   -6.0171    3.8945   11.7841 S   0  0  0  0  0  0  0  0  0  0  0  0
   -6.6511    3.6929   13.3638 C   0  0  0  0  0  0  0  0  0  0  0  0
   -6.7189    2.4563   13.8098 N   0  0  0  0  0  0  0  0  0  0  0  0
   -6.2359    1.5953   12.8513 C   0  0  0  0  0  0  0  0  0  0  0  0
   -6.2116    0.1377   13.1070 C   0  0  0  0  0  0  0  0  0  0  0  0
   -4.7025    1.6354    5.8304 H   0  0  0  0  0  0  0  0  0  0  0  0
   -4.1973    0.4065    5.7410 H   0  0  0  0  0  0  0  0  0  0  0  0
   -3.3019    1.5362    6.7096 H   0  0  0  0  0  0  0  0  0  0  0  0
   -3.8711   -0.9494    7.7703 H   0  0  0  0  0  0  0  0  0  0  0  0
   -6.0359   -1.4236    6.4132 H   0  0  0  0  0  0  0  0  0  0  0  0
   -3.3344   -0.9672    3.5125 H   0  0  0  0  0  0  0  0  0  0  0  0
   -2.2960   -3.0205    5.2410 H   0  0  0  0  0  0  0  0  0  0  0  0
   -2.2415   -2.3774    6.8226 H   0  0  0  0  0  0  0  0  0  0  0  0
   -0.3316   -1.5426    7.4541 H   0  0  0  0  0  0  0  0  0  0  0  0
    0.3419   -0.9806    4.6985 H   0  0  0  0  0  0  0  0  0  0  0  0
   -1.9435    1.1923    7.4230 H   0  0  0  0  0  0  0  0  0  0  0  0
   -1.0165    1.6618    6.6256 H   0  0  0  0  0  0  0  0  0  0  0  0
   -3.8902    3.6851    4.1314 H   0  0  0  0  0  0  0  0  0  0  0  0
   -3.8241    3.1321    6.7557 H   0  0  0  0  0  0  0  0  0  0  0  0
    0.0796    4.7761    6.2358 H   0  0  0  0  0  0  0  0  0  0  0  0
    0.4129    4.2967    7.7187 H   0  0  0  0  0  0  0  0  0  0  0  0
    1.3570    3.0237    6.1659 H   0  0  0  0  0  0  0  0  0  0  0  0
    0.4449    2.4117    7.4061 H   0  0  0  0  0  0  0  0  0  0  0  0
   -0.4630    1.7184    3.9565 H   0  0  0  0  0  0  0  0  0  0  0  0
   -1.8780    2.0487    5.1412 H   0  0  0  0  0  0  0  0  0  0  0  0
   -1.5916    2.2346    3.4696 H   0  0  0  0  0  0  0  0  0  0  0  0
   -0.8390    4.1374    2.7745 H   0  0  0  0  0  0  0  0  0  0  0  0
    0.7165    4.0925    1.9723 H   0  0  0  0  0  0  0  0  0  0  0  0
    1.5368    3.7050    3.4754 H   0  0  0  0  0  0  0  0  0  0  0  0
   -0.5529    0.4665    3.6255 H   0  0  0  0  0  0  0  0  0  0  0  0
   -0.2273   -0.1555    3.2622 H   0  0  0  0  0  0  0  0  0  0  0  0
    2.0708    1.1485    6.1017 H   0  0  0  0  0  0  0  0  0  0  0  0
    1.4359   -0.1753    6.4417 H   0  0  0  0  0  0  0  0  0  0  0  0
    2.0147   -3.7999    5.8948 H   0  0  0  0  0  0  0  0  0  0  0  0
    1.1942   -3.5701    5.7851 H   0  0  0  0  0  0  0  0  0  0  0  0
    0.4380   -3.4979    4.1955 H   0  0  0  0  0  0  0  0  0  0  0  0
    0.0744   -1.9911    3.8143 H   0  0  0  0  0  0  0  0  0  0  0  0
    3.3965   -1.8668    2.3892 H   0  0  0  0  0  0  0  0  0  0  0  0
    2.8600    0.5294    1.2729 H   0  0  0  0  0  0  0  0  0  0  0  0
    0.9233    0.0596    1.3279 H   0  0  0  0  0  0  0  0  0  0  0  0
    1.4074    1.0723    7.8254 H   0  0  0  0  0  0  0  0  0  0  0  0
   -0.1002    0.0205    9.5571 H   0  0  0  0  0  0  0  0  0  0  0  0
   -2.1829   -1.3705    8.7977 H   0  0  0  0  0  0  0  0  0  0  0  0
   -3.2358   -1.1642    6.4387 H   0  0  0  0  0  0  0  0  0  0  0  0
   -1.3349   -0.6715    4.2646 H   0  0  0  0  0  0  0  0  0  0  0  0
    0.8816   -3.2982    0.9719 H   0  0  0  0  0  0  0  0  0  0  0  0
    3.8483   -3.6579    3.0650 H   0  0  0  0  0  0  0  0  0  0  0  0
    5.4107   -4.9735    2.5011 H   0  0  0  0  0  0  0  0  0  0  0  0
    4.4274   -4.9534   -1.3832 H   0  0  0  0  0  0  0  0  0  0  0  0
    7.7929   -7.3757    1.9470 H   0  0  0  0  0  0  0  0  0  0  0  0
    4.1585   -7.0274    1.8220 H   0  0  0  0  0  0  0  0  0  0  0  0
    2.0964   -5.8443    2.0257 H   0  0  0  0  0  0  0  0  0  0  0  0
    4.0791   -4.6830    5.6681 H   0  0  0  0  0  0  0  0  0  0  0  0
    5.9535   -4.6706    4.9929 H   0  0  0  0  0  0  0  0  0  0  0  0
    0.1481   -6.0122    3.6990 H   0  0  0  0  0  0  0  0  0  0  0  0
   -0.3493   -4.8450    4.5016 H   0  0  0  0  0  0  0  0  0  0  0  0
   -0.3703   -4.3047    1.4977 H   0  0  0  0  0  0  0  0  0  0  0  0
   -1.8609   -4.3477    2.5781 H   0  0  0  0  0  0  0  0  0  0  0  0
   -1.8080   -1.5150    3.2125 H   0  0  0  0  0  0  0  0  0  0  0  0
   -2.5735   -2.8516    3.6924 H   0  0  0  0  0  0  0  0  0  0  0  0
    0.0531   -4.8217    7.4956 H   0  0  0  0  0  0  0  0  0  0  0  0
   -0.7462   -3.1582    8.3732 H   0  0  0  0  0  0  0  0  0  0  0  0
    1.9064   -4.1867    7.6400 H   0  0  0  0  0  0  0  0  0  0  0  0
    1.2699   -2.6296    8.8241 H   0  0  0  0  0  0  0  0  0  0  0  0
    3.2421   -1.1094    8.6498 H   0  0  0  0  0  0  0  0  0  0  0  0
    2.9523   -0.0391    7.3421 H   0  0  0  0  0  0  0  0  0  0  0  0
    1.5694   -0.7361    8.2589 H   0  0  0  0  0  0  0  0  0  0  0  0
    3.4096   -3.4606    5.5590 H   0  0  0  0  0  0  0  0  0  0  0  0
    4.0939   -2.5392    5.3537 H   0  0  0  0  0  0  0  0  0  0  0  0
    4.0044   -3.5988    7.0291 H   0  0  0  0  0  0  0  0  0  0  0  0
    1.1504   -1.3429    5.9571 H   0  0  0  0  0  0  0  0  0  0  0  0
    1.2929   -1.6701    5.3963 H   0  0  0  0  0  0  0  0  0  0  0  0
   -2.4421   -4.6072    4.3859 H   0  0  0  0  0  0  0  0  0  0  0  0
   -4.6368   -5.2591    4.1738 H   0  0  0  0  0  0  0  0  0  0  0  0
   -5.2496   -3.7539    8.2594 H   0  0  0  0  0  0  0  0  0  0  0  0
   -3.1827   -2.8985    8.1890 H   0  0  0  0  0  0  0  0  0  0  0  0
    0.5101   -1.5250    1.2532 H   0  0  0  0  0  0  0  0  0  0  0  0
    0.3098   -1.1126    2.5171 H   0  0  0  0  0  0  0  0  0  0  0  0
    1.8641   -1.8414    3.9058 H   0  0  0  0  0  0  0  0  0  0  0  0
    3.0274   -2.2447    3.8623 H   0  0  0  0  0  0  0  0  0  0  0  0
    3.9050    0.6048    5.2283 H   0  0  0  0  0  0  0  0  0  0  0  0
    4.4716   -0.9519    4.5969 H   0  0  0  0  0  0  0  0  0  0  0  0
    2.1615   -0.6549    3.4956 H   0  0  0  0  0  0  0  0  0  0  0  0
    3.7134   -0.0725    2.6779 H   0  0  0  0  0  0  0  0  0  0  0  0
   -2.1483    3.6258    1.4681 H   0  0  0  0  0  0  0  0  0  0  0  0
   -0.9942    2.6452    1.5139 H   0  0  0  0  0  0  0  0  0  0  0  0
   -1.7085    1.5721    2.1512 H   0  0  0  0  0  0  0  0  0  0  0  0
   -1.5177    5.2683    5.5282 H   0  0  0  0  0  0  0  0  0  0  0  0
   -0.1437    5.2451    4.2676 H   0  0  0  0  0  0  0  0  0  0  0  0
   -1.7877    5.7037    3.8032 H   0  0  0  0  0  0  0  0  0  0  0  0
   -1.1395    3.3519    5.6879 H   0  0  0  0  0  0  0  0  0  0  0  0
    0.5636    2.5383    4.9813 H   0  0  0  0  0  0  0  0  0  0  0  0
    0.6138    2.9255    4.4401 H   0  0  0  0  0  0  0  0  0  0  0  0
   -6.2275   -0.7107    8.2126 H   0  0  0  0  0  0  0  0  0  0  0  0
   -7.0131    0.2377   10.2562 H   0  0  0  0  0  0  0  0  0  0  0  0
   -3.2896    2.4374   10.7198 H   0  0  0  0  0  0  0  0  0  0  0  0
   -2.7327    1.7746    8.6016 H   0  0  0  0  0  0  0  0  0  0  0  0
   -6.9802    4.5296   13.9656 H   0  0  0  0  0  0  0  0  0  0  0  0
   -5.5914   -0.0767   13.9759 H   0  0  0  0  0  0  0  0  0  0  0  0
   -7.2286   -0.2213   13.2692 H   0  0  0  0  0  0  0  0  0  0  0  0
   -5.7923   -0.4236   12.2650 H   0  0  0  0  0  0  0  0  0  0  0  0
  1106  1  0  0  0  0
  1107  1  0  0  0  0
  1108  1  0  0  0  0
  2 94  1  0  0  0  0
  2109  1  1  0  0  0
  2  3  1  0  0  0  0
  2  1  1  0  0  0  0
  3  4  1  0  0  0  0
  3110  1  0  0  0  0
  4  5  2  0  0  0  0
  6  7  1  0  0  0  0
  6 11  1  0  0  0  0
  6111  1  6  0  0  0
  6  4  1  0  0  0  0
  7112  1  0  0  0  0
  7113  1  0  0  0  0
  8  7  1  0  0  0  0
  8  9  1  0  0  0  0
  8 10  1  0  0  0  0
  8114  1  1  0  0  0
  9115  1  0  0  0  0
 10 11  1  0  0  0  0
 10116  1  0  0  0  0
 10117  1  0  0  0  0
 11 12  1  0  0  0  0
 12 13  2  0  0  0  0
 14 12  1  0  0  0  0
 14 15  1  0  0  0  0
 14 90  1  0  0  0  0
 14118  1  6  0  0  0
 15 16  1  0  0  0  0
 15119  1  0  0  0  0
 16 17  2  0  0  0  0
 16 18  1  0  0  0  0
 18 19  1  0  0  0  0
 18120  1  0  0  0  0
 18121  1  0  0  0  0
 19 20  1  0  0  0  0
 19122  1  0  0  0  0
 19123  1  0  0  0  0
 20 21  1  0  0  0  0
 20124  1  0  0  0  0
 20125  1  0  0  0  0
 21 22  1  0  0  0  0
 21126  1  0  0  0  0
 21127  1  0  0  0  0
 22 23  1  0  0  0  0
 22128  1  0  0  0  0
 22129  1  0  0  0  0
 23 24  2  0  0  0  0
 23 25  1  0  0  0  0
 25 26  1  0  0  0  0
 25 89  1  0  0  0  0
 26 27  1  0  0  0  0
 26130  1  0  0  0  0
 26131  1  0  0  0  0
 27 28  1  0  0  0  0
 27132  1  0  0  0  0
 27133  1  0  0  0  0
 28 29  1  0  0  0  0
 28 88  1  0  0  0  0
 29 30  1  0  0  0  0
 29134  1  0  0  0  0
 29135  1  0  0  0  0
 30136  1  0  0  0  0
 30137  1  0  0  0  0
 31 40  1  0  0  0  0
 31138  1  1  0  0  0
 31 32  1  0  0  0  0
 31 30  1  0  0  0  0
 32 33  1  0  0  0  0
 32139  1  0  0  0  0
 32140  1  0  0  0  0
 33 34  1  0  0  0  0
 34 35  2  0  0  0  0
 34 39  1  0  0  0  0
 35 36  1  0  0  0  0
 35141  1  0  0  0  0
 36 37  2  0  0  0  0
 36142  1  0  0  0  0
 37 38  1  0  0  0  0
 37143  1  0  0  0  0
 38 39  2  0  0  0  0
 38144  1  0  0  0  0
 39145  1  0  0  0  0
 40 41  1  0  0  0  0
 40146  1  0  0  0  0
 41 42  2  0  0  0  0
 41 46  1  0  0  0  0
 42 43  1  0  0  0  0
 42147  1  0  0  0  0
 43 44  2  0  0  0  0
 43148  1  0  0  0  0
 44 45  1  0  0  0  0
 44 54  1  0  0  0  0
 45 46  2  0  0  0  0
 45149  1  0  0  0  0
 46 47  1  0  0  0  0
 47 48  2  0  0  0  0
 47 49  2  0  0  0  0
 47 50  1  0  0  0  0
 50 51  1  0  0  0  0
 50 52  1  0  0  0  0
 50 53  1  0  0  0  0
 54 55  2  0  0  0  0
 54 56  2  0  0  0  0
 54 57  1  0  0  0  0
 57 58  1  0  0  0  0
 57150  1  0  0  0  0
 58 59  2  0  0  0  0
 58 60  1  0  0  0  0
 60 61  2  0  0  0  0
 60 65  1  0  0  0  0
 61 62  1  0  0  0  0
 61151  1  0  0  0  0
 62 63  2  0  0  0  0
 62152  1  0  0  0  0
 63 64  1  0  0  0  0
 63 66  1  0  0  0  0
 64 65  2  0  0  0  0
 64153  1  0  0  0  0
 65154  1  0  0  0  0
 66 67  1  0  0  0  0
 66 87  1  0  0  0  0
 67 68  1  0  0  0  0
 67155  1  0  0  0  0
 67156  1  0  0  0  0
 68 69  1  0  0  0  0
 68157  1  0  0  0  0
 68158  1  0  0  0  0
 69 70  1  0  0  0  0
 69 86  1  0  0  0  0
 70 71  1  0  0  0  0
 70159  1  0  0  0  0
 70160  1  0  0  0  0
 71 72  2  0  0  0  0
 71 78  1  0  0  0  0
 72 73  1  0  0  0  0
 72 79  1  0  0  0  0
 73 74  1  0  0  0  0
 73161  1  0  0  0  0
 73162  1  0  0  0  0
 74 75  1  0  0  0  0
 74163  1  0  0  0  0
 74164  1  0  0  0  0
 75 76  1  0  0  0  0
 75 77  1  0  0  0  0
 75 78  1  0  0  0  0
 76165  1  0  0  0  0
 76166  1  0  0  0  0
 76167  1  0  0  0  0
 77168  1  0  0  0  0
 77169  1  0  0  0  0
 77170  1  0  0  0  0
 78171  1  0  0  0  0
 78172  1  0  0  0  0
 79 80  2  0  0  0  0
 79 85  1  0  0  0  0
 80 81  1  0  0  0  0
 80173  1  0  0  0  0
 81 82  2  0  0  0  0
 81174  1  0  0  0  0
 82 83  1  0  0  0  0
 82 84  1  0  0  0  0
 84 85  2  0  0  0  0
 84175  1  0  0  0  0
 85176  1  0  0  0  0
 86 87  1  0  0  0  0
 86177  1  0  0  0  0
 86178  1  0  0  0  0
 87179  1  0  0  0  0
 87180  1  0  0  0  0
 88 89  1  0  0  0  0
 88181  1  0  0  0  0
 88182  1  0  0  0  0
 89183  1  0  0  0  0
 89184  1  0  0  0  0
 90 91  1  0  0  0  0
 90 92  1  0  0  0  0
 90 93  1  0  0  0  0
 91185  1  0  0  0  0
 91186  1  0  0  0  0
 91187  1  0  0  0  0
 92188  1  0  0  0  0
 92189  1  0  0  0  0
 92190  1  0  0  0  0
 93191  1  0  0  0  0
 93192  1  0  0  0  0
 93193  1  0  0  0  0
 94 95  2  0  0  0  0
 94 99  1  0  0  0  0
 95 96  1  0  0  0  0
 95194  1  0  0  0  0
 96 97  2  0  0  0  0
 96195  1  0  0  0  0
 97 98  1  0  0  0  0
 97100  1  0  0  0  0
 98 99  2  0  0  0  0
 98196  1  0  0  0  0
 99197  1  0  0  0  0
100101  1  0  0  0  0
100104  2  0  0  0  0
101102  1  0  0  0  0
102103  2  0  0  0  0
102198  1  0  0  0  0
103104  1  0  0  0  0
104105  1  0  0  0  0
105199  1  0  0  0  0
105200  1  0  0  0  0
105201  1  0  0  0  0
M  END
>  <DRUGBANK_ID>
DB18020

>  <COMMON_NAME>
DT2216

>  <CAS_NUMBER>
2365172-42-3

>  <UNII>
Y8JQ9V7JAJ

>  <SYNONYMS>
DT-2216

$$$$
