1567
 OpenBabel10282417113D

 33 35  0  0  0  0  0  0  0  0999 V2000
    1.0439   -0.0885    0.0212 Cl  0  0  0  0  0  0  0  0  0  0  0  0
    5.0820    1.7136    2.9357 F   0  0  0  0  0  0  0  0  0  0  0  0
    9.0856    0.5481   -0.5676 O   0  0  0  0  0  0  0  0  0  0  0  0
    6.9968   -0.1906    0.0449 N   0  0  0  0  0  0  0  0  0  0  0  0
    6.5970    2.8199   -0.3709 N   0  0  0  0  0  0  0  0  0  0  0  0
    4.8694    1.1111    0.0879 C   0  0  0  0  0  0  0  0  0  0  0  0
    5.5778   -0.1013    0.0036 C   0  0  0  0  0  0  0  0  0  0  0  0
    5.5413    2.4341    0.2619 C   0  0  0  0  0  0  0  0  0  0  0  0
    7.2341    1.8915   -1.3080 C   0  0  0  0  0  0  0  0  0  0  0  0
    4.9492    3.3821    1.2475 C   0  0  0  0  0  0  0  0  0  0  0  0
    7.8577    0.7223   -0.5598 C   0  0  0  0  0  0  0  0  0  0  0  0
    3.4611    1.1027    0.0950 C   0  0  0  0  0  0  0  0  0  0  0  0
    4.8405   -1.2964   -0.1054 C   0  0  0  0  0  0  0  0  0  0  0  0
    7.6172   -1.3059    0.7498 C   0  0  0  0  0  0  0  0  0  0  0  0
    2.7621   -0.0961    0.0024 C   0  0  0  0  0  0  0  0  0  0  0  0
    3.4457   -1.2970   -0.1085 C   0  0  0  0  0  0  0  0  0  0  0  0
    4.7333    2.9518    2.5568 C   0  0  0  0  0  0  0  0  0  0  0  0
    4.5998    4.6864    0.8788 C   0  0  0  0  0  0  0  0  0  0  0  0
    4.1543    3.7975    3.4959 C   0  0  0  0  0  0  0  0  0  0  0  0
    4.1032    5.5658    1.8482 C   0  0  0  0  0  0  0  0  0  0  0  0
    3.8810    5.1211    3.1545 C   0  0  0  0  0  0  0  0  0  0  0  0
    6.5524    1.5436   -2.0916 H   0  0  0  0  0  0  0  0  0  0  0  0
    8.0463    2.4248   -1.8168 H   0  0  0  0  0  0  0  0  0  0  0  0
    2.9002    2.0297    0.1851 H   0  0  0  0  0  0  0  0  0  0  0  0
    5.3454   -2.2526   -0.2270 H   0  0  0  0  0  0  0  0  0  0  0  0
    8.1862   -1.9154    0.0416 H   0  0  0  0  0  0  0  0  0  0  0  0
    8.3045   -0.9015    1.5008 H   0  0  0  0  0  0  0  0  0  0  0  0
    6.8935   -1.9308    1.2806 H   0  0  0  0  0  0  0  0  0  0  0  0
    2.9089   -2.2373   -0.2010 H   0  0  0  0  0  0  0  0  0  0  0  0
    4.7062    5.0197   -0.1508 H   0  0  0  0  0  0  0  0  0  0  0  0
    3.9326    3.4205    4.4890 H   0  0  0  0  0  0  0  0  0  0  0  0
    3.8863    6.6003    1.5885 H   0  0  0  0  0  0  0  0  0  0  0  0
    3.4980    5.8061    3.9078 H   0  0  0  0  0  0  0  0  0  0  0  0
  1 15  1  0  0  0  0
  2 17  1  0  0  0  0
  3 11  2  0  0  0  0
  4  7  1  0  0  0  0
  4 11  1  0  0  0  0
  4 14  1  0  0  0  0
  5  8  2  0  0  0  0
  5  9  1  0  0  0  0
  6  7  2  0  0  0  0
  6  8  1  0  0  0  0
  6 12  1  0  0  0  0
  7 13  1  0  0  0  0
  8 10  1  0  0  0  0
  9 11  1  0  0  0  0
  9 22  1  0  0  0  0
  9 23  1  0  0  0  0
 10 17  1  0  0  0  0
 10 18  2  0  0  0  0
 12 15  2  0  0  0  0
 12 24  1  0  0  0  0
 13 16  2  0  0  0  0
 13 25  1  0  0  0  0
 14 26  1  0  0  0  0
 14 27  1  0  0  0  0
 14 28  1  0  0  0  0
 15 16  1  0  0  0  0
 16 29  1  0  0  0  0
 17 19  2  0  0  0  0
 18 20  1  0  0  0  0
 18 30  1  0  0  0  0
 19 21  1  0  0  0  0
 19 31  1  0  0  0  0
 20 21  2  0  0  0  0
 20 32  1  0  0  0  0
 21 33  1  0  0  0  0
M  END
>  <DRUGBANK_ID>
DB01567

>  <COMMON_NAME>
Fludiazepam

>  <CAS_NUMBER>
3900-31-0

>  <UNII>
7F64A2K16Z

>  <SYNONYMS>
7-chloro-5-(o-Fluorophenyl)-1,3-dihydro-1-methyl-2H-1,4-benzodiazepin-2-one; Fludiazepam; Fludiazepamum

$$$$
