
 OpenBabel10282417133D

 56 55  0  0  0  0  0  0  0  0999 V2000
    1.1098    0.1057   -0.0159 C   0  0  0  0  0  0  0  0  0  0  0  0
    0.6534   -0.1290   -1.4383 C   0  0  0  0  0  0  0  0  0  0  0  0
    1.0518   -1.4959   -1.9124 C   0  0  0  0  0  0  0  0  0  0  0  0
    0.1778   -2.4481   -2.2569 C   0  0  0  0  0  0  0  0  0  0  0  0
   -1.2950   -2.2614   -2.1802 C   0  0  0  0  0  0  0  0  0  0  0  0
   -1.9465   -2.4881   -3.5009 C   0  0  0  0  0  0  0  0  0  0  0  0
   -2.9360   -3.3682   -3.6655 C   0  0  0  0  0  0  0  0  0  0  0  0
   -3.4160   -4.2248   -2.5510 C   0  0  0  0  0  0  0  0  0  0  0  0
   -4.8734   -4.0523   -2.3159 C   0  0  0  0  0  0  0  0  0  0  0  0
   -5.7149   -5.0860   -2.3435 C   0  0  0  0  0  0  0  0  0  0  0  0
   -5.2512   -6.4588   -2.6687 C   0  0  0  0  0  0  0  0  0  0  0  0
   -5.5942   -7.4204   -1.5900 C   0  0  0  0  0  0  0  0  0  0  0  0
   -6.3107   -8.5174   -1.8347 C   0  0  0  0  0  0  0  0  0  0  0  0
   -6.8516   -8.8084   -3.1869 C   0  0  0  0  0  0  0  0  0  0  0  0
   -6.4009  -10.1353   -3.6765 C   0  0  0  0  0  0  0  0  0  0  0  0
   -7.2711  -11.0792   -4.0355 C   0  0  0  0  0  0  0  0  0  0  0  0
   -8.7423  -10.8816   -3.9265 C   0  0  0  0  0  0  0  0  0  0  0  0
   -9.3893  -11.0923   -5.2402 C   0  0  0  0  0  0  0  0  0  0  0  0
  -10.3307  -12.0148   -5.4405 C   0  0  0  0  0  0  0  0  0  0  0  0
  -10.8973  -12.9148   -4.3773 C   0  0  0  0  0  0  0  0  0  0  0  0
  -12.3642  -12.6318   -4.1009 C   0  0  0  0  0  0  0  0  0  0  0  0
  -13.2283  -13.0117   -5.2639 C   0  0  0  0  0  0  0  0  0  0  0  0
  -14.0272  -13.9385   -5.2860 O   0  0  0  0  0  0  0  0  0  0  0  0
  -13.0456  -12.2360   -6.3473 O   0  0  0  0  0  0  0  0  0  0  0  0
    0.7177   -0.6645    0.6592 H   0  0  0  0  0  0  0  0  0  0  0  0
    0.7375    1.0743    0.3296 H   0  0  0  0  0  0  0  0  0  0  0  0
    2.2002    0.1032    0.0447 H   0  0  0  0  0  0  0  0  0  0  0  0
   -0.4241    0.0384   -1.4443 H   0  0  0  0  0  0  0  0  0  0  0  0
    1.0595    0.6166   -2.1253 H   0  0  0  0  0  0  0  0  0  0  0  0
    2.1134   -1.7239   -1.9655 H   0  0  0  0  0  0  0  0  0  0  0  0
    0.5345   -3.4332   -2.5595 H   0  0  0  0  0  0  0  0  0  0  0  0
   -1.6092   -2.9145   -1.3685 H   0  0  0  0  0  0  0  0  0  0  0  0
   -1.6399   -1.2824   -1.8579 H   0  0  0  0  0  0  0  0  0  0  0  0
   -1.6217   -1.8813   -4.3421 H   0  0  0  0  0  0  0  0  0  0  0  0
   -3.3861   -3.5062   -4.6464 H   0  0  0  0  0  0  0  0  0  0  0  0
   -3.0684   -5.2203   -2.8149 H   0  0  0  0  0  0  0  0  0  0  0  0
   -2.9680   -4.0665   -1.5738 H   0  0  0  0  0  0  0  0  0  0  0  0
   -5.2417   -3.0591   -2.0728 H   0  0  0  0  0  0  0  0  0  0  0  0
   -6.7765   -4.9290   -2.1691 H   0  0  0  0  0  0  0  0  0  0  0  0
   -5.6604   -6.6468   -3.6577 H   0  0  0  0  0  0  0  0  0  0  0  0
   -4.1856   -6.6054   -2.8227 H   0  0  0  0  0  0  0  0  0  0  0  0
   -5.2075   -7.2350   -0.5913 H   0  0  0  0  0  0  0  0  0  0  0  0
   -6.5481   -9.2041   -1.0264 H   0  0  0  0  0  0  0  0  0  0  0  0
   -7.9217   -8.6503   -3.0841 H   0  0  0  0  0  0  0  0  0  0  0  0
   -6.5882   -8.1264   -3.9910 H   0  0  0  0  0  0  0  0  0  0  0  0
   -5.3326  -10.3104   -3.7806 H   0  0  0  0  0  0  0  0  0  0  0  0
   -6.9092  -12.0362   -4.4031 H   0  0  0  0  0  0  0  0  0  0  0  0
   -9.0633  -11.5385   -3.1224 H   0  0  0  0  0  0  0  0  0  0  0  0
   -9.0868   -9.9012   -3.6054 H   0  0  0  0  0  0  0  0  0  0  0  0
   -9.0932  -10.4370   -6.0603 H   0  0  0  0  0  0  0  0  0  0  0  0
  -10.7302  -12.0905   -6.4475 H   0  0  0  0  0  0  0  0  0  0  0  0
  -10.7258  -13.9530   -4.6727 H   0  0  0  0  0  0  0  0  0  0  0  0
  -10.3873  -12.8072   -3.4176 H   0  0  0  0  0  0  0  0  0  0  0  0
  -12.6728  -13.2335   -3.2371 H   0  0  0  0  0  0  0  0  0  0  0  0
  -12.5417  -11.5841   -3.8291 H   0  0  0  0  0  0  0  0  0  0  0  0
  -13.5606  -12.6487   -7.0688 H   0  0  0  0  0  0  0  0  0  0  0  0
  1  2  1  0  0  0  0
  1 25  1  0  0  0  0
  1 26  1  0  0  0  0
  1 27  1  0  0  0  0
  2  3  1  0  0  0  0
  2 28  1  0  0  0  0
  2 29  1  0  0  0  0
  3  4  2  0  0  0  0
  3 30  1  0  0  0  0
  4  5  1  0  0  0  0
  4 31  1  0  0  0  0
  5  6  1  0  0  0  0
  5 32  1  0  0  0  0
  5 33  1  0  0  0  0
  6  7  2  0  0  0  0
  6 34  1  0  0  0  0
  7  8  1  0  0  0  0
  7 35  1  0  0  0  0
  8  9  1  0  0  0  0
  8 36  1  0  0  0  0
  8 37  1  0  0  0  0
  9 10  2  0  0  0  0
  9 38  1  0  0  0  0
 10 11  1  0  0  0  0
 10 39  1  0  0  0  0
 11 12  1  0  0  0  0
 11 40  1  0  0  0  0
 11 41  1  0  0  0  0
 12 13  2  0  0  0  0
 12 42  1  0  0  0  0
 13 14  1  0  0  0  0
 13 43  1  0  0  0  0
 14 15  1  0  0  0  0
 14 44  1  0  0  0  0
 14 45  1  0  0  0  0
 15 16  2  0  0  0  0
 15 46  1  0  0  0  0
 16 17  1  0  0  0  0
 16 47  1  0  0  0  0
 17 18  1  0  0  0  0
 17 48  1  0  0  0  0
 17 49  1  0  0  0  0
 18 19  2  0  0  0  0
 18 50  1  0  0  0  0
 19 20  1  0  0  0  0
 19 51  1  0  0  0  0
 20 21  1  0  0  0  0
 20 52  1  0  0  0  0
 20 53  1  0  0  0  0
 21 22  1  0  0  0  0
 21 54  1  0  0  0  0
 21 55  1  0  0  0  0
 22 23  2  0  0  0  0
 22 24  1  0  0  0  0
 24 56  1  0  0  0  0
M  END
>  <DRUGBANK_ID>
DB03756

>  <SECONDARY_ACCESSION_NUMBERS>
EXPT01798; DB11070

>  <COMMON_NAME>
Doconexent

>  <CAS_NUMBER>
6217-54-5

>  <UNII>
ZAD9OKH9JC

>  <SYNONYMS>
(4Z,7Z,10Z,13Z,16Z,19Z)-Docosahexaenoic acid; 22:6-4, 7,10,13,16,19; 22:6(n-3); 4,7,10,13,16,19-docosahexaenoic acid; all-cis-4,7,10,13,16,19-docosahexaenoic acid; all-cis-DHA; cervonic acid; DHA; Doconexent; docosa-4,7,10,13,16,19-hexaenoic acid; Docosahexaenoic acid; Docosahexanoic Acid

$$$$
