
 OpenBabel10282417173D

 21 17  0  0  0  0  0  0  0  0999 V2000
    1.0745   -0.0568   -0.1706 C   0  0  0  0  0  0  0  0  0  0  0  0
    0.6846   -0.2425   -1.6554 C   0  0  0  0  0  0  0  0  0  0  0  0
    0.9934    0.9854   -2.5105 C   0  0  0  0  0  0  0  0  0  0  0  0
    2.6292    0.1321   -0.1384 C   0  0  0  0  0  0  0  0  0  0  0  0
    0.5556   -1.2414    0.6738 C   0  0  0  0  0  0  0  0  0  0  0  0
    0.8650   -1.3188    2.1680 C   0  0  0  0  0  0  0  0  0  0  0  0
    0.4683    1.1276    0.4477 O   0  0  0  0  0  0  0  0  0  0  0  0
    0.3787    2.0076   -2.1135 O   0  0  0  0  0  0  0  0  0  0  0  0
    1.6259    0.7685   -3.5924 O   0  5  0  0  0  0  0  0  0  0  0  0
    2.0614   -1.5294    2.4949 O   0  0  0  0  0  0  0  0  0  0  0  0
   -0.1304   -1.0865    2.9181 O   0  5  0  0  0  0  0  0  0  0  0  0
    3.0181    0.8115    0.8459 O   0  5  0  0  0  0  0  0  0  0  0  0
    3.3204   -0.5878   -0.9231 O   0  0  0  0  0  0  0  0  0  0  0  0
   -1.8793    0.9540   -0.6819 K   0  3  0  0  0  0  0  0  0  0  0  0
    3.7549   -2.2183    0.8217 K   0  3  0  0  0  0  0  0  0  0  0  0
    0.0445    1.2881    3.0475 K   0  3  0  0  0  0  0  0  0  0  0  0
    1.1390   -1.1484   -2.0755 H   0  0  0  0  0  0  0  0  0  0  0  0
   -0.3860   -0.4010   -1.8060 H   0  0  0  0  0  0  0  0  0  0  0  0
   -0.5410   -1.2347    0.6266 H   0  0  0  0  0  0  0  0  0  0  0  0
    0.8797   -2.1937    0.2471 H   0  0  0  0  0  0  0  0  0  0  0  0
    1.2687    1.7247    0.4975 H   0  0  0  0  0  0  0  0  0  0  0  0
  1  5  1  0  0  0  0
  1  7  1  0  0  0  0
  1  2  1  0  0  0  0
  1  4  1  0  0  0  0
  2  3  1  0  0  0  0
  2 17  1  0  0  0  0
  2 18  1  0  0  0  0
  3  9  1  0  0  0  0
  3  8  2  0  0  0  0
  4 12  1  0  0  0  0
  4 13  2  0  0  0  0
  5  6  1  0  0  0  0
  5 19  1  0  0  0  0
  5 20  1  0  0  0  0
  6 11  1  0  0  0  0
  6 10  2  0  0  0  0
  7 21  1  0  0  0  0
M  CHG  6   9  -1  11  -1  12  -1  14   1  15   1  16   1
M  END
>  <DRUGBANK_ID>
DB09125

>  <COMMON_NAME>
Potassium citrate

>  <CAS_NUMBER>
866-84-2

>  <UNII>
86R1NVR0HW

>  <SYNONYMS>
Potassium citrate anhydrous; Tripotassium citrate

$$$$
