
 OpenBabel10282417183D

 19 19  0  0  0  0  0  0  0  0999 V2000
    1.1579    1.2045   -0.0008 C   0  0  0  0  0  0  0  0  0  0  0  0
   -0.2400    1.1932   -0.0613 C   0  0  0  0  0  0  0  0  0  0  0  0
    1.8375   -0.0082    0.0774 C   0  0  0  0  0  0  0  0  0  0  0  0
    1.8396    2.5191   -0.0220 C   0  0  0  0  0  0  0  0  0  0  0  0
   -0.9233    0.0208   -0.0387 N   0  3  0  0  0  0  0  0  0  0  0  0
    1.1211   -1.1982    0.0103 C   0  0  0  0  0  0  0  0  0  0  0  0
    3.2010    2.5595    0.0530 N   0  0  0  0  0  0  0  0  0  0  0  0
    1.1685    3.5408   -0.1150 O   0  0  0  0  0  0  0  0  0  0  0  0
   -0.2667   -1.1622   -0.0607 C   0  0  0  0  0  0  0  0  0  0  0  0
   -2.3938    0.0185    0.0954 C   0  0  0  0  0  0  0  0  0  0  0  0
   -0.8246    2.1090   -0.1135 H   0  0  0  0  0  0  0  0  0  0  0  0
    2.9173   -0.0568    0.1796 H   0  0  0  0  0  0  0  0  0  0  0  0
    1.6483   -2.1502    0.0261 H   0  0  0  0  0  0  0  0  0  0  0  0
    3.6485    3.4705    0.0238 H   0  0  0  0  0  0  0  0  0  0  0  0
    3.8241    1.7683    0.1223 H   0  0  0  0  0  0  0  0  0  0  0  0
   -0.8603   -2.0714   -0.1132 H   0  0  0  0  0  0  0  0  0  0  0  0
   -2.8226   -0.5478   -0.7345 H   0  0  0  0  0  0  0  0  0  0  0  0
   -2.6300   -0.4591    1.0523 H   0  0  0  0  0  0  0  0  0  0  0  0
   -2.7742    1.0421    0.0963 H   0  0  0  0  0  0  0  0  0  0  0  0
  1  2  2  0  0  0  0
  1  3  1  0  0  0  0
  1  4  1  0  0  0  0
  2  5  1  0  0  0  0
  2 11  1  0  0  0  0
  3  6  2  0  0  0  0
  3 12  1  0  0  0  0
  4  7  1  0  0  0  0
  4  8  2  0  0  0  0
  5  9  2  0  0  0  0
  5 10  1  0  0  0  0
  6  9  1  0  0  0  0
  6 13  1  0  0  0  0
  7 14  1  0  0  0  0
  7 15  1  0  0  0  0
  9 16  1  0  0  0  0
 10 17  1  0  0  0  0
 10 18  1  0  0  0  0
 10 19  1  0  0  0  0
M  CHG  1   5   1
M  END
>  <DRUGBANK_ID>
DB11710

>  <COMMON_NAME>
Trigonellamide

>  <CAS_NUMBER>
3106-60-3

>  <UNII>
UM47085BXC

$$$$
