
 OpenBabel10282417133D

 51 54  0  0  1  0  0  0  0  0999 V2000
    2.4988   -0.0151   -0.1243 C   0  0  0  0  0  0  0  0  0  0  0  0
   -1.1475    1.2727    0.2329 C   0  0  0  0  0  0  0  0  0  0  0  0
   -1.8617    0.0293   -0.2677 C   0  0  0  0  0  0  0  0  0  0  0  0
   -0.7249   -5.1989   -1.4340 C   0  0  0  0  0  0  0  0  0  0  0  0
    0.3294    1.2515   -0.1501 C   0  0  0  0  0  0  0  0  0  0  0  0
   -0.1551   -6.3086   -0.8129 C   0  0  0  0  0  0  0  0  0  0  0  0
   -1.1841   -1.2153    0.2843 C   0  0  0  0  0  0  0  0  0  0  0  0
   -0.3361   -3.9168   -1.0634 C   0  0  0  0  0  0  0  0  0  0  0  0
    2.2435   -9.7192    3.3368 C   0  0  0  0  0  0  0  0  0  0  0  0
    3.2097  -10.4824    0.7823 C   0  0  0  0  0  0  0  0  0  0  0  0
    1.0388   -0.0270    0.3363 C   0  0  1  0  0  0  0  0  0  0  0  0
    0.8033   -6.1541    0.2033 C   0  0  0  0  0  0  0  0  0  0  0  0
    2.9736  -10.9188    3.1915 C   0  0  0  0  0  0  0  0  0  0  0  0
    3.4478  -11.2692    1.9177 C   0  0  0  0  0  0  0  0  0  0  0  0
    2.0105   -8.9006    2.2096 C   0  0  0  0  0  0  0  0  0  0  0  0
    2.4799   -9.3075    0.9684 C   0  0  0  0  0  0  0  0  0  0  0  0
    0.2962   -1.3022   -0.1445 C   0  0  1  0  0  0  0  0  0  0  0  0
    0.5813   -3.7112   -0.0298 C   0  0  0  0  0  0  0  0  0  0  0  0
    1.1602   -4.8418    0.5917 C   0  0  0  0  0  0  0  0  0  0  0  0
    3.2582  -11.8183    4.3631 C   0  0  0  0  0  0  0  0  0  0  0  0
    1.3849   -7.3574    0.8224 C   0  0  0  0  0  0  0  0  0  0  0  0
    4.1620  -12.3928    1.7336 F   0  0  0  0  0  0  0  0  0  0  0  0
    2.8570  -11.5779    5.5772 N   0  0  0  0  0  0  0  0  0  0  0  0
    3.9673  -12.9646    4.2223 N   0  0  0  0  0  0  0  0  0  0  0  0
    1.3753   -7.6792    2.1055 N   0  0  0  0  0  0  0  0  0  0  0  0
    2.0632   -8.3221    0.1058 N   0  0  0  0  0  0  0  0  0  0  0  0
    2.1106   -4.6278    1.5637 O   0  0  0  0  0  0  0  0  0  0  0  0
    0.9353   -2.4618    0.4298 O   0  0  0  0  0  0  0  0  0  0  0  0
    1.0485   -0.0257    1.4349 H   0  0  0  0  0  0  0  0  0  0  0  0
    0.3918   -1.3337   -1.2391 H   0  0  0  0  0  0  0  0  0  0  0  0
    3.0402   -0.8881    0.2523 H   0  0  0  0  0  0  0  0  0  0  0  0
    2.5689   -0.0152   -1.2173 H   0  0  0  0  0  0  0  0  0  0  0  0
    3.0132    0.8791    0.2452 H   0  0  0  0  0  0  0  0  0  0  0  0
   -1.2391    1.3220    1.3246 H   0  0  0  0  0  0  0  0  0  0  0  0
   -1.6303    2.1678   -0.1732 H   0  0  0  0  0  0  0  0  0  0  0  0
   -2.9104    0.0461    0.0487 H   0  0  0  0  0  0  0  0  0  0  0  0
   -1.8600    0.0050   -1.3655 H   0  0  0  0  0  0  0  0  0  0  0  0
   -1.4833   -5.3167   -2.2043 H   0  0  0  0  0  0  0  0  0  0  0  0
    0.8181    2.1360    0.2755 H   0  0  0  0  0  0  0  0  0  0  0  0
    0.4188    1.3345   -1.2413 H   0  0  0  0  0  0  0  0  0  0  0  0
   -0.4858   -7.2955   -1.1257 H   0  0  0  0  0  0  0  0  0  0  0  0
   -1.2445   -1.2315    1.3791 H   0  0  0  0  0  0  0  0  0  0  0  0
   -1.7658   -2.0815   -0.0374 H   0  0  0  0  0  0  0  0  0  0  0  0
   -0.7978   -3.0935   -1.5970 H   0  0  0  0  0  0  0  0  0  0  0  0
    1.8513   -9.3870    4.2890 H   0  0  0  0  0  0  0  0  0  0  0  0
    3.5911  -10.7893   -0.1847 H   0  0  0  0  0  0  0  0  0  0  0  0
    2.3261  -10.7156    5.6634 H   0  0  0  0  0  0  0  0  0  0  0  0
    4.3470  -13.2784    3.3371 H   0  0  0  0  0  0  0  0  0  0  0  0
    4.1292  -13.5277    5.0479 H   0  0  0  0  0  0  0  0  0  0  0  0
    2.2438   -8.2876   -0.8869 H   0  0  0  0  0  0  0  0  0  0  0  0
    2.3326   -5.4828    1.9761 H   0  0  0  0  0  0  0  0  0  0  0  0
  1 31  1  0  0  0  0
  1 32  1  0  0  0  0
  1 33  1  0  0  0  0
  2 34  1  0  0  0  0
  2 35  1  0  0  0  0
  3  2  1  0  0  0  0
  3 36  1  0  0  0  0
  3 37  1  0  0  0  0
  4 38  1  0  0  0  0
  5  2  1  0  0  0  0
  5 39  1  0  0  0  0
  5 40  1  0  0  0  0
  6  4  2  0  0  0  0
  6 41  1  0  0  0  0
  7  3  1  0  0  0  0
  7 42  1  0  0  0  0
  7 43  1  0  0  0  0
  8  4  1  0  0  0  0
  8 44  1  0  0  0  0
  9 45  1  0  0  0  0
 10 46  1  0  0  0  0
 11  1  1  0  0  0  0
 11  5  1  0  0  0  0
 11 29  1  1  0  0  0
 12  6  1  0  0  0  0
 13  9  2  0  0  0  0
 14 10  2  0  0  0  0
 14 13  1  0  0  0  0
 15  9  1  0  0  0  0
 16 10  1  0  0  0  0
 16 15  2  0  0  0  0
 17  7  1  0  0  0  0
 17 11  1  0  0  0  0
 17 30  1  6  0  0  0
 17 28  1  0  0  0  0
 18  8  2  0  0  0  0
 19 12  2  0  0  0  0
 19 18  1  0  0  0  0
 20 13  1  0  0  0  0
 21 12  1  0  0  0  0
 22 14  1  0  0  0  0
 23 20  2  0  0  0  0
 23 47  1  0  0  0  0
 24 20  1  0  0  0  0
 24 48  1  0  0  0  0
 24 49  1  0  0  0  0
 25 15  1  0  0  0  0
 25 21  2  0  0  0  0
 26 16  1  0  0  0  0
 26 21  1  0  0  0  0
 26 50  1  0  0  0  0
 27 19  1  0  0  0  0
 27 51  1  0  0  0  0
 28 18  1  0  0  0  0
M  END
>  <DRUGBANK_ID>
DB03555

>  <SECONDARY_ACCESSION_NUMBERS>
EXPT01016

>  <COMMON_NAME>
CRA_11092

$$$$
