
 OpenBabel10282417233D

 53 55  0  0  0  0  0  0  0  0999 V2000
    0.5198    0.3031   -0.1096 O   0  0  0  0  0  0  0  0  0  0  0  0
    0.4126    1.3862    0.8193 C   0  0  0  0  0  0  0  0  0  0  0  0
    0.9789    1.1770    2.2626 C   0  0  0  0  0  0  0  0  0  0  0  0
    2.4094    0.8322    2.3522 N   0  0  0  0  0  0  0  0  0  0  0  0
    3.0806    0.5549    3.6753 C   0  0  0  0  0  0  0  0  0  0  0  0
    3.1641   -0.8615    4.3831 C   0  0  0  0  0  0  0  0  0  0  0  0
    3.9078   -2.0323    3.6711 C   0  0  0  0  0  0  0  0  0  0  0  0
    4.7321   -2.0481    2.5497 C   0  0  0  0  0  0  0  0  0  0  0  0
    4.7331   -3.3067    2.0002 N   0  0  0  0  0  0  0  0  0  0  0  0
    4.2040   -4.1912    2.8864 C   0  0  0  0  0  0  0  0  0  0  0  0
    3.9518   -5.5504    2.7047 C   0  0  0  0  0  0  0  0  0  0  0  0
    3.4074   -6.2204    3.7879 C   0  0  0  0  0  0  0  0  0  0  0  0
    2.9853   -5.5250    4.9232 C   0  0  0  0  0  0  0  0  0  0  0  0
    3.0496   -4.1299    4.9814 C   0  0  0  0  0  0  0  0  0  0  0  0
    3.7388   -3.4395    3.9745 C   0  0  0  0  0  0  0  0  0  0  0  0
    2.7642   -0.1743    1.3642 C   0  0  0  0  0  0  0  0  0  0  0  0
    1.9674   -1.4923    1.4695 C   0  0  0  0  0  0  0  0  0  0  0  0
    2.2068   -2.5704    0.6329 C   0  0  0  0  0  0  0  0  0  0  0  0
    1.7193   -3.8546    1.0003 C   0  0  0  0  0  0  0  0  0  0  0  0
    0.9539   -4.0912    2.1780 C   0  0  0  0  0  0  0  0  0  0  0  0
    0.6716   -5.4484    2.6998 C   0  0  0  0  0  0  0  0  0  0  0  0
    0.2207   -5.8092    3.9266 C   0  0  0  0  0  0  0  0  0  0  0  0
    0.1744   -7.1495    4.5983 C   0  0  0  0  0  0  0  0  0  0  0  0
   -0.2661   -7.1788    5.7822 O   0  0  0  0  0  0  0  0  0  0  0  0
    0.6060   -8.3027    4.0738 N   0  0  0  0  0  0  0  0  0  0  0  0
    1.3190   -8.5193    2.8911 O   0  0  0  0  0  0  0  0  0  0  0  0
    0.6526   -3.0038    2.9457 C   0  0  0  0  0  0  0  0  0  0  0  0
    1.0911   -1.7574    2.5463 C   0  0  0  0  0  0  0  0  0  0  0  0
    1.3564    0.3808   -0.5962 H   0  0  0  0  0  0  0  0  0  0  0  0
    0.8481    2.2755    0.3665 H   0  0  0  0  0  0  0  0  0  0  0  0
   -0.6662    1.5035    0.9218 H   0  0  0  0  0  0  0  0  0  0  0  0
    0.7703    2.0535    2.8804 H   0  0  0  0  0  0  0  0  0  0  0  0
    0.2978    0.4464    2.6790 H   0  0  0  0  0  0  0  0  0  0  0  0
    4.1369    0.8383    3.5537 H   0  0  0  0  0  0  0  0  0  0  0  0
    2.6949    1.2815    4.4050 H   0  0  0  0  0  0  0  0  0  0  0  0
    3.6019   -0.7546    5.3819 H   0  0  0  0  0  0  0  0  0  0  0  0
    2.1408   -1.1452    4.6609 H   0  0  0  0  0  0  0  0  0  0  0  0
    5.1326   -1.2903    1.9040 H   0  0  0  0  0  0  0  0  0  0  0  0
    4.8909   -3.5137    1.0222 H   0  0  0  0  0  0  0  0  0  0  0  0
    4.0438   -6.0287    1.7314 H   0  0  0  0  0  0  0  0  0  0  0  0
    3.1518   -7.2677    3.6704 H   0  0  0  0  0  0  0  0  0  0  0  0
    2.4140   -6.0486    5.6845 H   0  0  0  0  0  0  0  0  0  0  0  0
    2.4823   -3.5863    5.7290 H   0  0  0  0  0  0  0  0  0  0  0  0
    2.8023    0.2108    0.3445 H   0  0  0  0  0  0  0  0  0  0  0  0
    3.8372   -0.2131    1.4690 H   0  0  0  0  0  0  0  0  0  0  0  0
    2.9142   -2.4664   -0.1872 H   0  0  0  0  0  0  0  0  0  0  0  0
    2.1382   -4.6993    0.4585 H   0  0  0  0  0  0  0  0  0  0  0  0
    1.0595   -6.1661    2.0102 H   0  0  0  0  0  0  0  0  0  0  0  0
   -0.0347   -5.0451    4.6646 H   0  0  0  0  0  0  0  0  0  0  0  0
    0.5306   -9.1252    4.6666 H   0  0  0  0  0  0  0  0  0  0  0  0
    0.9730   -7.8626    2.2782 H   0  0  0  0  0  0  0  0  0  0  0  0
    0.2739   -3.0764    3.9611 H   0  0  0  0  0  0  0  0  0  0  0  0
    0.8542   -1.0348    3.3049 H   0  0  0  0  0  0  0  0  0  0  0  0
  1  2  1  0  0  0  0
  1 29  1  0  0  0  0
  2  3  1  0  0  0  0
  2 30  1  0  0  0  0
  2 31  1  0  0  0  0
  3  4  1  0  0  0  0
  3 32  1  0  0  0  0
  3 33  1  0  0  0  0
  4  5  1  0  0  0  0
  4 16  1  0  0  0  0
  5  6  1  0  0  0  0
  5 34  1  0  0  0  0
  5 35  1  0  0  0  0
  6  7  1  0  0  0  0
  6 36  1  0  0  0  0
  6 37  1  0  0  0  0
  7  8  2  0  0  0  0
  7 15  1  0  0  0  0
  8  9  1  0  0  0  0
  8 38  1  0  0  0  0
  9 10  1  0  0  0  0
  9 39  1  0  0  0  0
 10 11  2  0  0  0  0
 10 15  1  0  0  0  0
 11 12  1  0  0  0  0
 11 40  1  0  0  0  0
 12 13  2  0  0  0  0
 12 41  1  0  0  0  0
 13 14  1  0  0  0  0
 13 42  1  0  0  0  0
 14 15  2  0  0  0  0
 14 43  1  0  0  0  0
 16 17  1  0  0  0  0
 16 44  1  0  0  0  0
 16 45  1  0  0  0  0
 17 18  2  0  0  0  0
 17 28  1  0  0  0  0
 18 19  1  0  0  0  0
 18 46  1  0  0  0  0
 19 20  2  0  0  0  0
 19 47  1  0  0  0  0
 20 21  1  0  0  0  0
 20 27  1  0  0  0  0
 21 22  2  0  0  0  0
 21 48  1  0  0  0  0
 22 23  1  0  0  0  0
 22 49  1  0  0  0  0
 23 24  2  0  0  0  0
 23 25  1  0  0  0  0
 25 26  1  0  0  0  0
 25 50  1  0  0  0  0
 26 51  1  0  0  0  0
 27 28  2  0  0  0  0
 27 52  1  0  0  0  0
 28 53  1  0  0  0  0
M  END
>  <DRUGBANK_ID>
DB17034

>  <COMMON_NAME>
Dacinostat

>  <CAS_NUMBER>
404951-53-7

>  <UNII>
V10P524501

>  <SYNONYMS>
(2e)-n-hydroxy-3-(4-(((2-hydroxyethyl)(2-(1h-indol-3-yl)ethyl)amino)methyl)phenyl)propenamide

$$$$
