
 OpenBabel10282417113D

101106  0  0  0  0  0  0  0  0999 V2000
    2.0653   -0.5474   -0.3770 C   0  0  1  0  0  0  0  0  0  0  0  0
    0.6906   -0.6777    0.2388 C   0  0  1  0  0  0  0  0  0  0  0  0
    2.7363    0.7988   -0.0043 C   0  0  1  0  0  0  0  0  0  0  0  0
    3.0637   -1.6408   -0.0221 C   0  0  0  0  0  0  0  0  0  0  0  0
   -0.1267    0.5203   -0.3384 C   0  0  1  0  0  0  0  0  0  0  0  0
    0.0631   -2.0583   -0.0463 C   0  0  0  0  0  0  0  0  0  0  0  0
    4.1222    0.5235   -0.6301 C   0  0  2  0  0  0  0  0  0  0  0  0
    1.9664    1.9501   -0.6649 C   0  0  0  0  0  0  0  0  0  0  0  0
    2.7460    1.0853    1.5061 C   0  0  0  0  0  0  0  0  0  0  0  0
    4.4429   -0.9999   -0.2639 C   0  0  1  0  0  0  0  0  0  0  0  0
   -1.5541    0.4784    0.2378 C   0  0  2  0  0  0  0  0  0  0  0  0
    0.5271    1.9250   -0.1973 C   0  0  0  0  0  0  0  0  0  0  0  0
   -1.3675   -2.1914    0.4828 C   0  0  0  0  0  0  0  0  0  0  0  0
    5.1337    1.4932   -0.3701 O   0  0  0  0  0  0  0  0  0  0  0  0
    5.4430   -1.3138    0.9382 N   0  3  0  0  0  0  0  0  0  0  0  0
   -2.1791   -1.0430   -0.0813 C   0  0  1  0  0  0  0  0  0  0  0  0
   -2.5260    1.6351   -0.2716 C   0  0  0  0  0  0  0  0  0  0  0  0
   -1.2389    0.8644    1.7007 C   0  0  0  0  0  0  0  0  0  0  0  0
    6.3157    1.4932   -1.0642 C   0  0  0  0  0  0  0  0  0  0  0  0
    4.9626   -0.7438    2.2638 C   0  0  0  0  0  0  0  0  0  0  0  0
    5.6941   -2.8406    1.0433 C   0  0  0  0  0  0  0  0  0  0  0  0
    6.7893   -0.6892    0.6581 C   0  0  0  0  0  0  0  0  0  0  0  0
   -3.7066   -1.2604   -0.1071 C   0  0  0  0  0  0  0  0  0  0  0  0
   -4.0133    1.2997   -0.0672 C   0  0  1  0  0  0  0  0  0  0  0  0
    6.4764    0.5569   -2.2396 C   0  0  0  0  0  0  0  0  0  0  0  0
    7.2899    2.0805   -0.5999 O   0  0  0  0  0  0  0  0  0  0  0  0
    5.8273   -1.0854    3.4455 C   0  0  0  0  0  0  0  0  0  0  0  0
    6.5582   -3.1388    2.2713 C   0  0  0  0  0  0  0  0  0  0  0  0
   -4.4108   -0.0609   -0.7317 C   0  0  1  0  0  0  0  0  0  0  0  0
   -4.3890    1.4471    1.4877 N   0  3  0  0  0  0  0  0  0  0  0  0
    5.8963   -2.5948    3.5293 C   0  0  0  0  0  0  0  0  0  0  0  0
   -4.3511   -0.0784   -2.2302 O   0  0  0  0  0  0  0  0  0  0  0  0
   -3.8603    0.3167    2.4575 C   0  0  0  0  0  0  0  0  0  0  0  0
   -3.9738    2.9483    1.8778 C   0  0  0  0  0  0  0  0  0  0  0  0
   -5.9041    1.3383    1.5938 C   0  0  0  0  0  0  0  0  0  0  0  0
   -3.4049   -0.0121   -3.2213 C   0  0  0  0  0  0  0  0  0  0  0  0
   -3.4969    0.7882    3.8598 C   0  0  0  0  0  0  0  0  0  0  0  0
   -3.9126    3.1796    3.3647 C   0  0  0  0  0  0  0  0  0  0  0  0
   -2.0104    0.3103   -2.8472 C   0  0  0  0  0  0  0  0  0  0  0  0
   -3.6668   -0.1835   -4.3794 O   0  0  0  0  0  0  0  0  0  0  0  0
   -2.9616    2.2063    4.0305 C   0  0  0  0  0  0  0  0  0  0  0  0
    1.9385   -0.5868   -1.4719 H   0  0  0  0  0  0  0  0  0  0  0  0
    0.7752   -0.6160    1.3288 H   0  0  0  0  0  0  0  0  0  0  0  0
   -0.1277    0.3625   -1.4132 H   0  0  0  0  0  0  0  0  0  0  0  0
   -1.9911   -1.2847   -1.1288 H   0  0  0  0  0  0  0  0  0  0  0  0
    2.9065   -1.9909    0.9981 H   0  0  0  0  0  0  0  0  0  0  0  0
    2.9176   -2.5116   -0.6732 H   0  0  0  0  0  0  0  0  0  0  0  0
    0.6598   -2.8594    0.4005 H   0  0  0  0  0  0  0  0  0  0  0  0
    0.0736   -2.2371   -1.1322 H   0  0  0  0  0  0  0  0  0  0  0  0
    3.9174    0.6079   -1.7066 H   0  0  0  0  0  0  0  0  0  0  0  0
    1.9650    1.8737   -1.7538 H   0  0  0  0  0  0  0  0  0  0  0  0
    2.4016    2.9185   -0.3904 H   0  0  0  0  0  0  0  0  0  0  0  0
    2.9200    0.1810    2.0545 H   0  0  0  0  0  0  0  0  0  0  0  0
    3.4655    1.8650    1.7679 H   0  0  0  0  0  0  0  0  0  0  0  0
    1.7933    1.3644    1.9557 H   0  0  0  0  0  0  0  0  0  0  0  0
    4.8896   -1.4844   -1.1401 H   0  0  0  0  0  0  0  0  0  0  0  0
   -0.0666    2.6734   -0.7264 H   0  0  0  0  0  0  0  0  0  0  0  0
    0.5625    2.3021    0.8201 H   0  0  0  0  0  0  0  0  0  0  0  0
   -1.4123   -2.2209    1.5717 H   0  0  0  0  0  0  0  0  0  0  0  0
   -1.7762   -3.1446    0.1111 H   0  0  0  0  0  0  0  0  0  0  0  0
   -2.1850    2.5916    0.1183 H   0  0  0  0  0  0  0  0  0  0  0  0
   -2.4621    1.9605   -1.3112 H   0  0  0  0  0  0  0  0  0  0  0  0
   -0.9427    0.0590    2.3683 H   0  0  0  0  0  0  0  0  0  0  0  0
   -0.6298    1.7393    1.9071 H   0  0  0  0  0  0  0  0  0  0  0  0
   -2.0985    1.3584    2.0498 H   0  0  0  0  0  0  0  0  0  0  0  0
    3.9934   -1.1958    2.4733 H   0  0  0  0  0  0  0  0  0  0  0  0
    4.9371    0.3407    2.1666 H   0  0  0  0  0  0  0  0  0  0  0  0
    6.1844   -3.1611    0.1154 H   0  0  0  0  0  0  0  0  0  0  0  0
    4.7256   -3.3454    1.1173 H   0  0  0  0  0  0  0  0  0  0  0  0
    7.1035   -1.0441   -0.3156 H   0  0  0  0  0  0  0  0  0  0  0  0
    6.6561    0.3672    0.8014 H   0  0  0  0  0  0  0  0  0  0  0  0
    7.5569   -0.9419    1.3793 H   0  0  0  0  0  0  0  0  0  0  0  0
   -4.1183   -1.4945    0.8731 H   0  0  0  0  0  0  0  0  0  0  0  0
   -3.9615   -2.1693   -0.6722 H   0  0  0  0  0  0  0  0  0  0  0  0
   -4.6031    2.0787   -0.5739 H   0  0  0  0  0  0  0  0  0  0  0  0
    6.8118    1.1163   -3.1060 H   0  0  0  0  0  0  0  0  0  0  0  0
    7.2247   -0.2119   -2.0252 H   0  0  0  0  0  0  0  0  0  0  0  0
    5.5737    0.0206   -2.5106 H   0  0  0  0  0  0  0  0  0  0  0  0
    5.3680   -0.6643    4.3470 H   0  0  0  0  0  0  0  0  0  0  0  0
    6.8131   -0.6204    3.3525 H   0  0  0  0  0  0  0  0  0  0  0  0
    7.5529   -2.6930    2.1670 H   0  0  0  0  0  0  0  0  0  0  0  0
    6.7302   -4.2114    2.3633 H   0  0  0  0  0  0  0  0  0  0  0  0
   -5.4854   -0.2122   -0.5714 H   0  0  0  0  0  0  0  0  0  0  0  0
    6.4378   -2.8884    4.4276 H   0  0  0  0  0  0  0  0  0  0  0  0
    4.8782   -3.0027    3.6011 H   0  0  0  0  0  0  0  0  0  0  0  0
   -3.0331   -0.1912    1.9919 H   0  0  0  0  0  0  0  0  0  0  0  0
   -4.5406   -0.5391    2.5234 H   0  0  0  0  0  0  0  0  0  0  0  0
   -4.6358    3.6355    1.3372 H   0  0  0  0  0  0  0  0  0  0  0  0
   -2.9693    3.1849    1.5309 H   0  0  0  0  0  0  0  0  0  0  0  0
   -6.3540    2.0584    0.9103 H   0  0  0  0  0  0  0  0  0  0  0  0
   -6.1872    0.3175    1.3223 H   0  0  0  0  0  0  0  0  0  0  0  0
   -6.1719    1.5251    2.6319 H   0  0  0  0  0  0  0  0  0  0  0  0
   -2.7782    0.0810    4.2962 H   0  0  0  0  0  0  0  0  0  0  0  0
   -4.4198    0.7098    4.4329 H   0  0  0  0  0  0  0  0  0  0  0  0
   -4.9122    3.0859    3.7821 H   0  0  0  0  0  0  0  0  0  0  0  0
   -3.5571    4.2002    3.5557 H   0  0  0  0  0  0  0  0  0  0  0  0
   -1.2704   -0.4709   -3.0082 H   0  0  0  0  0  0  0  0  0  0  0  0
   -1.6527    1.3194   -3.0521 H   0  0  0  0  0  0  0  0  0  0  0  0
   -2.1104    0.2988   -1.8127 H   0  0  0  0  0  0  0  0  0  0  0  0
   -2.8689    2.4265    5.0949 H   0  0  0  0  0  0  0  0  0  0  0  0
   -1.9379    2.3501    3.6565 H   0  0  0  0  0  0  0  0  0  0  0  0
  1  2  1  0  0  0  0
  1  3  1  0  0  0  0
  1  4  1  0  0  0  0
  1 42  1  6  0  0  0
  2  5  1  0  0  0  0
  2  6  1  0  0  0  0
  2 43  1  1  0  0  0
  3  7  1  0  0  0  0
  3  8  1  0  0  0  0
  3  9  1  1  0  0  0
  4 10  1  0  0  0  0
  4 46  1  0  0  0  0
  4 47  1  0  0  0  0
  5 11  1  0  0  0  0
  5 12  1  0  0  0  0
  5 44  1  6  0  0  0
  6 13  1  0  0  0  0
  6 48  1  0  0  0  0
  6 49  1  0  0  0  0
  7 10  1  0  0  0  0
  7 50  1  6  0  0  0
  7 14  1  0  0  0  0
  8 12  1  0  0  0  0
  8 51  1  0  0  0  0
  8 52  1  0  0  0  0
  9 53  1  0  0  0  0
  9 54  1  0  0  0  0
  9 55  1  0  0  0  0
 10 15  1  0  0  0  0
 10 56  1  6  0  0  0
 11 16  1  0  0  0  0
 11 17  1  0  0  0  0
 11 18  1  1  0  0  0
 12 57  1  0  0  0  0
 12 58  1  0  0  0  0
 13 16  1  0  0  0  0
 13 59  1  0  0  0  0
 13 60  1  0  0  0  0
 14 19  1  0  0  0  0
 15 20  1  0  0  0  0
 15 21  1  0  0  0  0
 15 22  1  0  0  0  0
 16 23  1  0  0  0  0
 16 45  1  6  0  0  0
 17 24  1  0  0  0  0
 17 61  1  0  0  0  0
 17 62  1  0  0  0  0
 18 63  1  0  0  0  0
 18 64  1  0  0  0  0
 18 65  1  0  0  0  0
 19 25  1  0  0  0  0
 19 26  2  0  0  0  0
 20 27  1  0  0  0  0
 20 66  1  0  0  0  0
 20 67  1  0  0  0  0
 21 28  1  0  0  0  0
 21 68  1  0  0  0  0
 21 69  1  0  0  0  0
 22 70  1  0  0  0  0
 22 71  1  0  0  0  0
 22 72  1  0  0  0  0
 23 29  1  0  0  0  0
 23 73  1  0  0  0  0
 23 74  1  0  0  0  0
 24 30  1  0  0  0  0
 24 29  1  0  0  0  0
 24 75  1  6  0  0  0
 25 76  1  0  0  0  0
 25 77  1  0  0  0  0
 25 78  1  0  0  0  0
 27 31  1  0  0  0  0
 27 79  1  0  0  0  0
 27 80  1  0  0  0  0
 28 31  1  0  0  0  0
 28 81  1  0  0  0  0
 28 82  1  0  0  0  0
 29 83  1  1  0  0  0
 29 32  1  0  0  0  0
 30 33  1  0  0  0  0
 30 34  1  0  0  0  0
 30 35  1  0  0  0  0
 31 84  1  0  0  0  0
 31 85  1  0  0  0  0
 32 36  1  0  0  0  0
 33 37  1  0  0  0  0
 33 86  1  0  0  0  0
 33 87  1  0  0  0  0
 34 38  1  0  0  0  0
 34 88  1  0  0  0  0
 34 89  1  0  0  0  0
 35 90  1  0  0  0  0
 35 91  1  0  0  0  0
 35 92  1  0  0  0  0
 36 39  1  0  0  0  0
 36 40  2  0  0  0  0
 37 41  1  0  0  0  0
 37 93  1  0  0  0  0
 37 94  1  0  0  0  0
 38 41  1  0  0  0  0
 38 95  1  0  0  0  0
 38 96  1  0  0  0  0
 39 97  1  0  0  0  0
 39 98  1  0  0  0  0
 39 99  1  0  0  0  0
 41100  1  0  0  0  0
 41101  1  0  0  0  0
M  CHG  2  15   1  30   1
M  END
>  <DRUGBANK_ID>
DB01337

>  <COMMON_NAME>
Pancuronium

>  <CAS_NUMBER>
16974-53-1

>  <UNII>
J76UF062FS

>  <SYNONYMS>
Pancuronium

$$$$
