
 OpenBabel10282417183D

 27 26  0  0  0  0  0  0  0  0999 V2000
    1.4420    0.0470   -0.0030 C   0  0  0  0  0  0  0  0  0  0  0  0
    0.6770    1.2160    0.0070 C   0  0  0  0  0  0  0  0  0  0  0  0
   -0.7010    1.1260   -0.0040 C   0  0  0  0  0  0  0  0  0  0  0  0
   -1.3480   -0.0500   -0.0030 N   0  0  0  0  0  0  0  0  0  0  0  0
   -0.6110   -1.1650    0.0090 C   0  0  0  0  0  0  0  0  0  0  0  0
    0.7650   -1.1660   -0.0050 C   0  0  0  0  0  0  0  0  0  0  0  0
   -1.3312   -2.5032    0.0397 C   0  0  0  0  0  0  0  0  0  0  0  0
   -2.6015   -2.5410    0.0534 O   0  0  0  0  0  0  0  0  0  0  0  0
   -0.5847   -3.7111    0.0533 O   0  5  0  0  0  0  0  0  0  0  0  0
    1.4420    0.0470   -0.0030 C   0  0  0  0  0  0  0  0  0  0  0  0
    0.6770    1.2160    0.0070 C   0  0  0  0  0  0  0  0  0  0  0  0
   -0.7010    1.1260   -0.0040 C   0  0  0  0  0  0  0  0  0  0  0  0
   -1.3480   -0.0500   -0.0030 N   0  0  0  0  0  0  0  0  0  0  0  0
   -0.6110   -1.1650    0.0090 C   0  0  0  0  0  0  0  0  0  0  0  0
    0.7650   -1.1660   -0.0050 C   0  0  0  0  0  0  0  0  0  0  0  0
   -1.3312   -2.5032    0.0397 C   0  0  0  0  0  0  0  0  0  0  0  0
   -2.6015   -2.5410    0.0534 O   0  0  0  0  0  0  0  0  0  0  0  0
   -0.5847   -3.7111    0.0533 O   0  5  0  0  0  0  0  0  0  0  0  0
   -3.4922   -0.9548    0.0271 Zn  0  2  0  0  0  0  0  0  0  0  0  0
    2.5113    0.0847   -0.0089 H   0  0  0  0  0  0  0  0  0  0  0  0
    1.1549    2.1732    0.0231 H   0  0  0  0  0  0  0  0  0  0  0  0
   -1.2752    2.0288   -0.0137 H   0  0  0  0  0  0  0  0  0  0  0  0
    1.3063   -2.0889   -0.0173 H   0  0  0  0  0  0  0  0  0  0  0  0
    2.5113    0.0847   -0.0089 H   0  0  0  0  0  0  0  0  0  0  0  0
    1.1549    2.1732    0.0231 H   0  0  0  0  0  0  0  0  0  0  0  0
   -1.2752    2.0288   -0.0137 H   0  0  0  0  0  0  0  0  0  0  0  0
    1.3063   -2.0889   -0.0173 H   0  0  0  0  0  0  0  0  0  0  0  0
  1  2  2  0  0  0  0
  1  6  1  0  0  0  0
  1 20  1  0  0  0  0
  2  3  1  0  0  0  0
  2 21  1  0  0  0  0
  3  4  2  0  0  0  0
  3 22  1  0  0  0  0
  4  5  1  0  0  0  0
  5  6  2  0  0  0  0
  5  7  1  0  0  0  0
  6 23  1  0  0  0  0
  7  8  2  0  0  0  0
  7  9  1  0  0  0  0
 10 11  2  0  0  0  0
 10 15  1  0  0  0  0
 10 24  1  0  0  0  0
 11 12  1  0  0  0  0
 11 25  1  0  0  0  0
 12 13  2  0  0  0  0
 12 26  1  0  0  0  0
 13 14  1  0  0  0  0
 14 15  2  0  0  0  0
 14 16  1  0  0  0  0
 15 27  1  0  0  0  0
 16 17  2  0  0  0  0
 16 18  1  0  0  0  0
M  CHG  3   9  -1  18  -1  19   2
M  END
>  <DRUGBANK_ID>
DB11175

>  <COMMON_NAME>
Zinc picolinate

>  <CAS_NUMBER>
17949-65-4

>  <UNII>
ALO92O31SE

$$$$
