
 OpenBabel10282417173D

 60 64  0  0  0  0  0  0  0  0999 V2000
    0.0255   -0.7991   -0.0031 C   0  0  0  0  0  0  0  0  0  0  0  0
    1.2339   -1.4191   -0.0381 C   0  0  0  0  0  0  0  0  0  0  0  0
    2.4844   -0.6133    0.0012 C   0  0  0  0  0  0  0  0  0  0  0  0
    2.3660    0.7647    0.0485 N   0  0  0  0  0  0  0  0  0  0  0  0
    1.1288    1.4542    0.0706 C   0  0  0  0  0  0  0  0  0  0  0  0
   -0.0034    0.6720   -0.0116 C   0  0  0  0  0  0  0  0  0  0  0  0
   -1.3390    1.2607   -0.3483 C   0  0  0  0  0  0  0  0  0  0  0  0
   -2.4715    0.5839    0.0507 N   0  0  0  0  0  0  0  0  0  0  0  0
   -2.4741   -0.8023    0.0101 C   0  0  0  0  0  0  0  0  0  0  0  0
   -1.2346   -1.4648   -0.0230 N   0  0  0  0  0  0  0  0  0  0  0  0
   -3.8188    1.1979   -0.0749 C   0  0  0  0  0  0  0  0  0  0  0  0
   -1.3963    2.2206   -1.1220 O   0  0  0  0  0  0  0  0  0  0  0  0
   -3.5450   -1.4241   -0.0193 O   0  0  0  0  0  0  0  0  0  0  0  0
    3.5723   -1.1905   -0.0001 O   0  0  0  0  0  0  0  0  0  0  0  0
    3.6407    1.4842    0.0134 C   0  0  0  0  0  0  0  0  0  0  0  0
    1.2003    2.8649    0.1509 N   0  0  0  0  0  0  0  0  0  0  0  0
    0.1632    3.8271    0.2202 C   0  0  0  0  0  0  0  0  0  0  0  0
   -0.7232    3.8176    1.3023 C   0  0  0  0  0  0  0  0  0  0  0  0
   -1.8616    4.6342    1.2992 C   0  0  0  0  0  0  0  0  0  0  0  0
   -2.1802    5.3945    0.1628 C   0  0  0  0  0  0  0  0  0  0  0  0
   -1.3286    5.3990   -0.9367 C   0  0  0  0  0  0  0  0  0  0  0  0
   -0.1420    4.6614   -0.8808 C   0  0  0  0  0  0  0  0  0  0  0  0
    0.6360    4.6331   -1.9756 F   0  0  0  0  0  0  0  0  0  0  0  0
   -4.0574    6.3213   -0.0012 I   0  0  0  0  0  0  0  0  0  0  0  0
    1.5399   -2.8910   -0.1217 C   0  0  0  0  0  0  0  0  0  0  0  0
   -1.3736   -2.8966    0.0584 C   0  0  0  0  0  0  0  0  0  0  0  0
   -1.9012   -3.6569   -1.0173 C   0  0  0  0  0  0  0  0  0  0  0  0
   -1.8504   -5.0614   -0.9703 C   0  0  0  0  0  0  0  0  0  0  0  0
   -1.2272   -5.6512    0.1343 C   0  0  0  0  0  0  0  0  0  0  0  0
   -0.7718   -4.9116    1.2159 C   0  0  0  0  0  0  0  0  0  0  0  0
   -0.9151   -3.5372    1.2133 C   0  0  0  0  0  0  0  0  0  0  0  0
   -2.3954   -5.8615   -2.0182 N   0  0  0  0  0  0  0  0  0  0  0  0
   -2.4099   -7.2539   -2.0150 C   0  0  0  0  0  0  0  0  0  0  0  0
   -3.0907   -7.9256   -3.1705 C   0  0  0  0  0  0  0  0  0  0  0  0
   -1.9237   -7.9929   -1.1601 O   0  0  0  0  0  0  0  0  0  0  0  0
   -4.1379    2.6288    0.1730 C   0  0  0  0  0  0  0  0  0  0  0  0
   -4.1906    2.1230   -1.2272 C   0  0  0  0  0  0  0  0  0  0  0  0
   -4.5916    0.5761    0.3763 H   0  0  0  0  0  0  0  0  0  0  0  0
    3.6971    2.0838   -0.9010 H   0  0  0  0  0  0  0  0  0  0  0  0
    3.7316    2.1105    0.9032 H   0  0  0  0  0  0  0  0  0  0  0  0
    4.5089    0.8145   -0.0027 H   0  0  0  0  0  0  0  0  0  0  0  0
    2.0475    3.2658   -0.2381 H   0  0  0  0  0  0  0  0  0  0  0  0
   -0.5900    3.0852    2.0950 H   0  0  0  0  0  0  0  0  0  0  0  0
   -2.5938    4.4913    2.0948 H   0  0  0  0  0  0  0  0  0  0  0  0
   -1.6146    5.8800   -1.8679 H   0  0  0  0  0  0  0  0  0  0  0  0
    1.3700   -3.3409    0.8551 H   0  0  0  0  0  0  0  0  0  0  0  0
    0.9673   -3.3659   -0.9214 H   0  0  0  0  0  0  0  0  0  0  0  0
    2.5788   -3.1568   -0.3225 H   0  0  0  0  0  0  0  0  0  0  0  0
   -2.3061   -3.1367   -1.8829 H   0  0  0  0  0  0  0  0  0  0  0  0
   -1.0597   -6.7166    0.2077 H   0  0  0  0  0  0  0  0  0  0  0  0
   -0.2463   -5.4201    2.0185 H   0  0  0  0  0  0  0  0  0  0  0  0
   -0.5225   -2.9672    2.0510 H   0  0  0  0  0  0  0  0  0  0  0  0
   -2.8518   -5.3740   -2.7810 H   0  0  0  0  0  0  0  0  0  0  0  0
   -2.3548   -8.5739   -3.6591 H   0  0  0  0  0  0  0  0  0  0  0  0
   -3.8884   -8.5575   -2.7635 H   0  0  0  0  0  0  0  0  0  0  0  0
   -3.5096   -7.2329   -3.8976 H   0  0  0  0  0  0  0  0  0  0  0  0
   -5.0653    2.9230    0.6435 H   0  0  0  0  0  0  0  0  0  0  0  0
   -3.3124    3.2366    0.4230 H   0  0  0  0  0  0  0  0  0  0  0  0
   -3.4402    2.5317   -1.8978 H   0  0  0  0  0  0  0  0  0  0  0  0
   -5.1607    2.0634   -1.6969 H   0  0  0  0  0  0  0  0  0  0  0  0
  1  2  2  0  0  0  0
  1  6  1  0  0  0  0
  1 10  1  0  0  0  0
  2  3  1  0  0  0  0
  2 25  1  0  0  0  0
  3  4  1  0  0  0  0
  3 14  2  0  0  0  0
  4  5  1  0  0  0  0
  4 15  1  0  0  0  0
  5  6  2  0  0  0  0
  5 16  1  0  0  0  0
  6  7  1  0  0  0  0
  7  8  1  0  0  0  0
  7 12  2  0  0  0  0
  8  9  1  0  0  0  0
  8 11  1  0  0  0  0
  9 10  1  0  0  0  0
  9 13  2  0  0  0  0
 10 26  1  0  0  0  0
 11 36  1  0  0  0  0
 11 38  1  0  0  0  0
 15 39  1  0  0  0  0
 15 40  1  0  0  0  0
 15 41  1  0  0  0  0
 16 17  1  0  0  0  0
 16 42  1  0  0  0  0
 17 18  2  0  0  0  0
 17 22  1  0  0  0  0
 18 19  1  0  0  0  0
 18 43  1  0  0  0  0
 19 20  2  0  0  0  0
 19 44  1  0  0  0  0
 20 21  1  0  0  0  0
 20 24  1  0  0  0  0
 21 22  2  0  0  0  0
 21 45  1  0  0  0  0
 22 23  1  0  0  0  0
 25 46  1  0  0  0  0
 25 47  1  0  0  0  0
 25 48  1  0  0  0  0
 26 27  2  0  0  0  0
 26 31  1  0  0  0  0
 27 28  1  0  0  0  0
 27 49  1  0  0  0  0
 28 29  2  0  0  0  0
 28 32  1  0  0  0  0
 29 30  1  0  0  0  0
 29 50  1  0  0  0  0
 30 31  2  0  0  0  0
 30 51  1  0  0  0  0
 31 52  1  0  0  0  0
 32 33  1  0  0  0  0
 32 53  1  0  0  0  0
 33 34  1  0  0  0  0
 33 35  2  0  0  0  0
 34 54  1  0  0  0  0
 34 55  1  0  0  0  0
 34 56  1  0  0  0  0
 36 37  1  0  0  0  0
 36 57  1  0  0  0  0
 36 58  1  0  0  0  0
 37 11  1  0  0  0  0
 37 59  1  0  0  0  0
 37 60  1  0  0  0  0
M  END
>  <DRUGBANK_ID>
DB08911

>  <COMMON_NAME>
Trametinib

>  <CAS_NUMBER>
871700-17-3

>  <UNII>
33E86K87QN

>  <SYNONYMS>
Tram√©tinib; Trametinib; Trametinibum

$$$$
