
 OpenBabel10282417103D

 40 43  0  0  0  0  0  0  0  0999 V2000
    0.5174    1.2585   -0.0429 C   0  0  3  0  0  0  0  0  0  0  0  0
   -0.4925    0.3056   -0.7807 C   0  0  3  0  0  0  0  0  0  0  0  0
   -1.2832   -0.5164    0.1607 C   0  0  0  0  0  0  0  0  0  0  0  0
   -0.3973   -1.4392    0.5648 C   0  0  0  0  0  0  0  0  0  0  0  0
    1.0186   -1.0970    0.0464 C   0  0  3  0  0  0  0  0  0  0  0  0
    1.6840    0.2834    0.1004 C   0  0  0  0  0  0  0  0  0  0  0  0
    0.4841   -0.8749   -1.3451 C   0  0  0  0  0  0  0  0  0  0  0  0
    0.4276    1.9824    1.3360 C   0  0  3  0  0  0  0  0  0  0  0  0
    0.2915    1.0758    2.4559 N   0  0  0  0  0  0  0  0  0  0  0  0
    0.2703    1.8083    3.9579 S   0  0  0  0  0  0  0  0  0  0  0  0
    1.7115    2.8212    3.9024 C   0  0  0  0  0  0  0  0  0  0  0  0
    2.2924    3.0450    2.6644 C   0  0  0  0  0  0  0  0  0  0  0  0
    1.7100    2.6852    1.4701 N   0  0  0  0  0  0  0  0  0  0  0  0
    2.2896    3.3090    5.0818 C   0  0  0  0  0  0  0  0  0  0  0  0
    3.4698    4.0833    5.0175 C   0  0  0  0  0  0  0  0  0  0  0  0
    4.0487    4.3454    3.7761 C   0  0  0  0  0  0  0  0  0  0  0  0
    3.4679    3.8021    2.6230 C   0  0  0  0  0  0  0  0  0  0  0  0
    5.4113    5.3561    3.4605 Cl  0  0  0  0  0  0  0  0  0  0  0  0
    4.1123    4.6497    6.5670 S   0  0  0  0  0  0  0  0  0  0  0  0
   -0.8862    2.6973    4.0070 O   0  0  0  0  0  0  0  0  0  0  0  0
    0.4906    0.7740    4.9230 O   0  0  0  0  0  0  0  0  0  0  0  0
    3.1517    5.5784    7.1148 O   0  0  0  0  0  0  0  0  0  0  0  0
    4.5556    3.4847    7.2965 O   0  0  0  0  0  0  0  0  0  0  0  0
    5.4808    5.5563    6.2632 N   0  0  0  0  0  0  0  0  0  0  0  0
    0.7389    2.0485   -0.7770 H   0  0  0  0  0  0  0  0  0  0  0  0
   -1.1242    0.8108   -1.5141 H   0  0  0  0  0  0  0  0  0  0  0  0
   -2.3590   -0.6494    0.0691 H   0  0  0  0  0  0  0  0  0  0  0  0
   -0.7628   -2.4703    0.5821 H   0  0  0  0  0  0  0  0  0  0  0  0
    1.7180   -1.8587    0.3796 H   0  0  0  0  0  0  0  0  0  0  0  0
    2.3421    0.4605   -0.7667 H   0  0  0  0  0  0  0  0  0  0  0  0
    2.3356    0.3980    0.9635 H   0  0  0  0  0  0  0  0  0  0  0  0
    0.1980   -1.8909   -1.6666 H   0  0  0  0  0  0  0  0  0  0  0  0
    1.1709   -0.5043   -2.1159 H   0  0  0  0  0  0  0  0  0  0  0  0
   -0.3715    2.7286    1.3407 H   0  0  0  0  0  0  0  0  0  0  0  0
    0.8880    0.2519    2.4761 H   0  0  0  0  0  0  0  0  0  0  0  0
    2.3579    2.5913    0.6903 H   0  0  0  0  0  0  0  0  0  0  0  0
    1.8104    3.0974    6.0384 H   0  0  0  0  0  0  0  0  0  0  0  0
    3.9317    4.0062    1.6579 H   0  0  0  0  0  0  0  0  0  0  0  0
    5.3100    6.3350    5.6261 H   0  0  0  0  0  0  0  0  0  0  0  0
    5.9606    5.8314    7.1187 H   0  0  0  0  0  0  0  0  0  0  0  0
  1  2  1  0  0  0  0
  1  6  1  0  0  0  0
  1  8  1  0  0  0  0
  1 25  1  0  0  0  0
  2  3  1  0  0  0  0
  2  7  1  0  0  0  0
  2 26  1  0  0  0  0
  3  4  2  0  0  0  0
  3 27  1  0  0  0  0
  4  5  1  0  0  0  0
  4 28  1  0  0  0  0
  5  6  1  0  0  0  0
  5  7  1  0  0  0  0
  5 29  1  0  0  0  0
  6 30  1  0  0  0  0
  6 31  1  0  0  0  0
  7 32  1  0  0  0  0
  7 33  1  0  0  0  0
  8  9  1  0  0  0  0
  8 13  1  0  0  0  0
  8 34  1  0  0  0  0
  9 10  1  0  0  0  0
  9 35  1  0  0  0  0
 10 11  1  0  0  0  0
 10 20  2  0  0  0  0
 10 21  2  0  0  0  0
 11 12  1  0  0  0  0
 11 14  2  0  0  0  0
 12 13  1  0  0  0  0
 12 17  2  0  0  0  0
 13 36  1  0  0  0  0
 14 15  1  0  0  0  0
 14 37  1  0  0  0  0
 15 16  2  0  0  0  0
 15 19  1  0  0  0  0
 16 17  1  0  0  0  0
 16 18  1  0  0  0  0
 17 38  1  0  0  0  0
 19 22  2  0  0  0  0
 19 23  2  0  0  0  0
 19 24  1  0  0  0  0
 24 39  1  0  0  0  0
 24 40  1  0  0  0  0
M  END
>  <DRUGBANK_ID>
DB00606

>  <SECONDARY_ACCESSION_NUMBERS>
APRD00895; EXPT01082

>  <COMMON_NAME>
Cyclothiazide

>  <CAS_NUMBER>
2259-96-3

>  <UNII>
P71U09G5BW

>  <SYNONYMS>
6-chloro-3-(2-norbornen-5-yl)-7-sulfamyl-3,4-dihydro-1,2,4-benzothiadiazine 1,1-dioxide; 6-chloro-3,4-dihydro-3-(2-norbornen-5-yl)-2H-1,2,4-benzothiadiazine-7-sulfonamide 1,1-dioxide; 6-chloro-3,4-dihydro-3-(2-norbornen-5-yl)-7-sulfamoyl-1,2,4-benzothiadiazine 1,1-dioxide; 6-chloro-3,4-dihydro-3-(5-norbornen-2-yl)-2H-1,2,4-benzothiadiazine-7-sulfonamide 1,1-dioxide; Ciclotiazida; Ciclotiazide; Cyclothiazide; Cyclothiazidum

$$$$
