
 OpenBabel10282417203D

 36 37  0  0  0  0  0  0  0  0999 V2000
    1.3563   -0.1931   -0.0046 C   0  0  0  0  0  0  0  0  0  0  0  0
   -0.5617    1.2316    0.0509 C   0  0  0  0  0  0  0  0  0  0  0  0
    0.4904   -1.3182    0.0352 C   0  0  0  0  0  0  0  0  0  0  0  0
   -1.4259    0.1350    0.0332 C   0  0  0  0  0  0  0  0  0  0  0  0
    2.1496    4.6744   -0.6696 C   0  0  0  0  0  0  0  0  0  0  0  0
    1.6986    5.3890   -1.9505 C   0  0  0  0  0  0  0  0  0  0  0  0
   -6.4067   -2.8161    0.6591 C   0  0  0  0  0  0  0  0  0  0  0  0
   -6.7499   -1.8292    1.5580 C   0  0  0  0  0  0  0  0  0  0  0  0
    0.8327    1.1078   -0.0382 C   0  0  0  0  0  0  0  0  0  0  0  0
   -0.9028   -1.1474    0.0406 C   0  0  0  0  0  0  0  0  0  0  0  0
    1.2118    3.5606   -0.2430 C   0  0  0  0  0  0  0  0  0  0  0  0
    0.3110    5.9962   -1.9142 C   0  0  0  0  0  0  0  0  0  0  0  0
   -4.3724   -2.2643    1.3172 C   0  0  0  0  0  0  0  0  0  0  0  0
   -5.0484   -3.0519    0.5192 N   0  0  0  0  0  0  0  0  0  0  0  0
    1.6807    2.2504   -0.2349 N   0  0  0  0  0  0  0  0  0  0  0  0
   -2.9650   -2.2343    1.3929 N   0  0  0  0  0  0  0  0  0  0  0  0
    0.0894    3.8992    0.1317 O   0  0  0  0  0  0  0  0  0  0  0  0
    0.0576    7.1885   -1.8439 O   0  0  0  0  0  0  0  0  0  0  0  0
   -0.6714    5.0825   -1.9964 O   0  0  0  0  0  0  0  0  0  0  0  0
   -2.8231   -2.3732   -1.1828 O   0  0  0  0  0  0  0  0  0  0  0  0
   -1.2504   -3.7153    0.2860 O   0  0  0  0  0  0  0  0  0  0  0  0
   -5.3278   -1.2605    2.3351 S   0  0  0  0  0  0  0  0  0  0  0  0
   -2.0477   -2.5401    0.0328 S   0  0  0  0  0  0  0  0  0  0  0  0
    2.4309   -0.3687   -0.0053 H   0  0  0  0  0  0  0  0  0  0  0  0
   -1.0532    2.1923    0.1184 H   0  0  0  0  0  0  0  0  0  0  0  0
    0.9144   -2.3207    0.0284 H   0  0  0  0  0  0  0  0  0  0  0  0
   -2.4963    0.3186   -0.0128 H   0  0  0  0  0  0  0  0  0  0  0  0
    2.1357    5.3936    0.1615 H   0  0  0  0  0  0  0  0  0  0  0  0
    3.1823    4.3254   -0.7658 H   0  0  0  0  0  0  0  0  0  0  0  0
    2.3883    6.2228   -2.1410 H   0  0  0  0  0  0  0  0  0  0  0  0
    1.7634    4.7278   -2.8197 H   0  0  0  0  0  0  0  0  0  0  0  0
   -7.1124   -3.3861    0.0648 H   0  0  0  0  0  0  0  0  0  0  0  0
   -7.7361   -1.4526    1.7983 H   0  0  0  0  0  0  0  0  0  0  0  0
    2.6675    2.0767   -0.3969 H   0  0  0  0  0  0  0  0  0  0  0  0
   -2.5276   -2.2182    2.3076 H   0  0  0  0  0  0  0  0  0  0  0  0
   -1.4796    5.5128   -1.6453 H   0  0  0  0  0  0  0  0  0  0  0  0
  1 24  1  0  0  0  0
  2 25  1  0  0  0  0
  3  1  1  0  0  0  0
  3 26  1  0  0  0  0
  4  2  2  0  0  0  0
  4 27  1  0  0  0  0
  5 28  1  0  0  0  0
  5 29  1  0  0  0  0
  6  5  1  0  0  0  0
  6 30  1  0  0  0  0
  6 31  1  0  0  0  0
  7 32  1  0  0  0  0
  8  7  2  0  0  0  0
  8 33  1  0  0  0  0
  9  1  2  0  0  0  0
  9  2  1  0  0  0  0
 10  3  2  0  0  0  0
 10  4  1  0  0  0  0
 11  5  1  0  0  0  0
 12  6  1  0  0  0  0
 14  7  1  0  0  0  0
 14 13  2  0  0  0  0
 15  9  1  0  0  0  0
 15 11  1  0  0  0  0
 15 34  1  0  0  0  0
 16 13  1  0  0  0  0
 16 35  1  0  0  0  0
 17 11  2  0  0  0  0
 18 12  2  0  0  0  0
 19 12  1  0  0  0  0
 19 36  1  0  0  0  0
 22  8  1  0  0  0  0
 22 13  1  0  0  0  0
 23 10  1  0  0  0  0
 23 16  1  0  0  0  0
 23 20  2  0  0  0  0
 23 21  2  0  0  0  0
M  END
>  <DRUGBANK_ID>
DB13580

>  <COMMON_NAME>
Succinylsulfathiazole

>  <CAS_NUMBER>
116-43-8

>  <UNII>
RSS8647O4S

>  <SYNONYMS>
Succinylsulfathiazole

$$$$
