H12
 OpenBabel10282417163D

 44 46  0  0  0  0  0  0  0  0999 V2000
   -1.3176    0.3415   -0.2667 C   0  0  0  0  0  0  0  0  0  0  0  0
   -0.9273   -0.9080    0.5237 C   0  0  0  0  0  0  0  0  0  0  0  0
    0.5558   -1.2123    0.3293 C   0  0  0  0  0  0  0  0  0  0  0  0
    1.5385   -0.1064    0.5993 C   0  0  0  0  0  0  0  0  0  0  0  0
    1.0845    1.1960   -0.0542 C   0  0  0  0  0  0  0  0  0  0  0  0
   -0.3935    1.4816    0.1937 C   0  0  0  0  0  0  0  0  0  0  0  0
    1.8469   -0.6063   -4.0767 N   0  0  0  0  0  0  0  0  0  0  0  0
    1.1052    0.5069   -4.3799 C   0  0  0  0  0  0  0  0  0  0  0  0
    1.3983    1.1758   -5.3449 O   0  0  0  0  0  0  0  0  0  0  0  0
   -0.0067    0.8593   -3.4199 C   0  0  0  0  0  0  0  0  0  0  0  0
   -0.4883   -0.1182   -2.6156 C   0  0  0  0  0  0  0  0  0  0  0  0
   -1.5059    0.1233   -1.6983 O   0  0  0  0  0  0  0  0  0  0  0  0
    1.3562   -1.6407   -3.2919 C   0  0  0  0  0  0  0  0  0  0  0  0
    0.0715   -1.5137   -2.7355 C   0  0  0  0  0  0  0  0  0  0  0  0
   -0.4324   -2.6260   -2.0376 C   0  0  0  0  0  0  0  0  0  0  0  0
    0.4323   -3.6756   -1.6678 C   0  0  0  0  0  0  0  0  0  0  0  0
    1.7270   -3.7484   -2.1757 C   0  0  0  0  0  0  0  0  0  0  0  0
    2.1640   -2.7614   -3.0552 C   0  0  0  0  0  0  0  0  0  0  0  0
   -0.0060   -4.7227   -0.3616 Cl  0  0  0  0  0  0  0  0  0  0  0  0
   -0.5135    2.2937   -3.4415 C   0  0  0  0  0  0  0  0  0  0  0  0
    0.4667    3.4247   -3.0527 C   0  0  0  0  0  0  0  0  0  0  0  0
    1.6783    3.5491   -3.9583 C   0  0  0  0  0  0  0  0  0  0  0  0
   -2.3283    0.6138    0.0750 H   0  0  0  0  0  0  0  0  0  0  0  0
   -1.1046   -0.7730    1.5961 H   0  0  0  0  0  0  0  0  0  0  0  0
   -1.5915   -1.7282    0.2347 H   0  0  0  0  0  0  0  0  0  0  0  0
    0.8465   -2.1684    0.7610 H   0  0  0  0  0  0  0  0  0  0  0  0
    0.7608   -1.2985   -0.7088 H   0  0  0  0  0  0  0  0  0  0  0  0
    1.6862   -0.0172    1.6731 H   0  0  0  0  0  0  0  0  0  0  0  0
    2.4970   -0.3978    0.1427 H   0  0  0  0  0  0  0  0  0  0  0  0
    1.7101    2.0153    0.3067 H   0  0  0  0  0  0  0  0  0  0  0  0
    1.2650    1.1439   -1.1298 H   0  0  0  0  0  0  0  0  0  0  0  0
   -0.6900    2.4310   -0.2562 H   0  0  0  0  0  0  0  0  0  0  0  0
   -0.5143    1.5927    1.2831 H   0  0  0  0  0  0  0  0  0  0  0  0
    2.6835   -0.7364   -4.6298 H   0  0  0  0  0  0  0  0  0  0  0  0
   -1.3963   -2.5534   -1.5490 H   0  0  0  0  0  0  0  0  0  0  0  0
    2.4039   -4.5398   -1.8602 H   0  0  0  0  0  0  0  0  0  0  0  0
    3.1618   -2.8320   -3.4793 H   0  0  0  0  0  0  0  0  0  0  0  0
   -0.9196    2.5041   -4.4385 H   0  0  0  0  0  0  0  0  0  0  0  0
   -1.3700    2.3900   -2.7600 H   0  0  0  0  0  0  0  0  0  0  0  0
   -0.0764    4.3792   -3.0852 H   0  0  0  0  0  0  0  0  0  0  0  0
    0.8081    3.3049   -2.0201 H   0  0  0  0  0  0  0  0  0  0  0  0
    1.3664    3.6096   -5.0065 H   0  0  0  0  0  0  0  0  0  0  0  0
    2.2704    4.4387   -3.7328 H   0  0  0  0  0  0  0  0  0  0  0  0
    2.3489    2.6987   -3.8135 H   0  0  0  0  0  0  0  0  0  0  0  0
  1  2  1  0  0  0  0
  1  6  1  0  0  0  0
  1 12  1  0  0  0  0
  1 23  1  0  0  0  0
  2  3  1  0  0  0  0
  2 24  1  0  0  0  0
  2 25  1  0  0  0  0
  3  4  1  0  0  0  0
  3 26  1  0  0  0  0
  3 27  1  0  0  0  0
  4  5  1  0  0  0  0
  4 28  1  0  0  0  0
  4 29  1  0  0  0  0
  5  6  1  0  0  0  0
  5 30  1  0  0  0  0
  5 31  1  0  0  0  0
  6 32  1  0  0  0  0
  6 33  1  0  0  0  0
  7  8  1  0  0  0  0
  7 13  1  0  0  0  0
  7 34  1  0  0  0  0
  8  9  2  0  0  0  0
  8 10  1  0  0  0  0
 10 11  2  0  0  0  0
 10 20  1  0  0  0  0
 11 12  1  0  0  0  0
 11 14  1  0  0  0  0
 13 14  1  0  0  0  0
 13 18  2  0  0  0  0
 14 15  2  0  0  0  0
 15 16  1  0  0  0  0
 15 35  1  0  0  0  0
 16 17  2  0  0  0  0
 16 19  1  0  0  0  0
 17 18  1  0  0  0  0
 17 36  1  0  0  0  0
 18 37  1  0  0  0  0
 20 21  1  0  0  0  0
 20 38  1  0  0  0  0
 20 39  1  0  0  0  0
 21 22  1  0  0  0  0
 21 40  1  0  0  0  0
 21 41  1  0  0  0  0
 22 42  1  0  0  0  0
 22 43  1  0  0  0  0
 22 44  1  0  0  0  0
M  END
>  <DRUGBANK_ID>
DB07867

>  <COMMON_NAME>
6-CHLORO-4-(CYCLOHEXYLOXY)-3-PROPYLQUINOLIN-2(1H)-ONE

$$$$
