
 OpenBabel10282417203D

 31 32  0  0  0  0  0  0  0  0999 V2000
    0.9551    0.0759    0.1212 C   0  0  0  0  0  0  0  0  0  0  0  0
    2.2603    2.2157   -8.2275 C   0  0  0  0  0  0  0  0  0  0  0  0
    3.3059    2.9438   -7.8189 C   0  0  0  0  0  0  0  0  0  0  0  0
    1.0877    2.8827   -2.4636 C   0  0  0  0  0  0  0  0  0  0  0  0
    1.5310    3.0720   -3.7858 C   0  0  0  0  0  0  0  0  0  0  0  0
    1.5169    1.6311   -7.0722 C   0  0  0  0  0  0  0  0  0  0  0  0
    3.4088    2.9675   -6.3261 C   0  0  0  0  0  0  0  0  0  0  0  0
    1.3385    0.5208   -2.7511 C   0  0  0  0  0  0  0  0  0  0  0  0
    0.4473    1.3734   -0.5196 C   0  0  3  0  0  0  0  0  0  0  0  0
    0.9778    1.5953   -1.9296 C   0  0  0  0  0  0  0  0  0  0  0  0
    1.7779    0.7104   -4.0660 C   0  0  0  0  0  0  0  0  0  0  0  0
    1.8646    1.9938   -4.6298 C   0  0  0  0  0  0  0  0  0  0  0  0
   -1.0705    1.4028   -0.4757 C   0  0  0  0  0  0  0  0  0  0  0  0
    2.2723   -0.7248   -4.9023 Cl  0  0  0  0  0  0  0  0  0  0  0  0
    2.2071    2.2398   -5.9399 N   0  0  0  0  0  0  0  0  0  0  0  0
   -1.7525    2.2019    0.1523 O   0  0  0  0  0  0  0  0  0  0  0  0
   -1.6567    0.4350   -1.2103 O   0  0  0  0  0  0  0  0  0  0  0  0
    0.5969   -0.8117   -0.4132 H   0  0  0  0  0  0  0  0  0  0  0  0
    0.6063   -0.0259    1.1528 H   0  0  0  0  0  0  0  0  0  0  0  0
    2.0508    0.0491    0.1207 H   0  0  0  0  0  0  0  0  0  0  0  0
    1.9801    2.0475   -9.2563 H   0  0  0  0  0  0  0  0  0  0  0  0
    3.9947    3.4529   -8.4759 H   0  0  0  0  0  0  0  0  0  0  0  0
    0.8137    3.7526   -1.8670 H   0  0  0  0  0  0  0  0  0  0  0  0
    1.5643    4.0878   -4.1765 H   0  0  0  0  0  0  0  0  0  0  0  0
    1.5947    0.5432   -7.1118 H   0  0  0  0  0  0  0  0  0  0  0  0
    0.4640    1.9270   -7.0926 H   0  0  0  0  0  0  0  0  0  0  0  0
    3.4062    3.9959   -5.9541 H   0  0  0  0  0  0  0  0  0  0  0  0
    4.3186    2.4506   -6.0010 H   0  0  0  0  0  0  0  0  0  0  0  0
    1.2800   -0.4993   -2.3836 H   0  0  0  0  0  0  0  0  0  0  0  0
    0.8039    2.1984    0.1134 H   0  0  0  0  0  0  0  0  0  0  0  0
   -2.6202    0.5885   -1.1205 H   0  0  0  0  0  0  0  0  0  0  0  0
  1 18  1  0  0  0  0
  1 19  1  0  0  0  0
  1 20  1  0  0  0  0
  2 21  1  0  0  0  0
  3  2  2  0  0  0  0
  3 22  1  0  0  0  0
  4 23  1  0  0  0  0
  5  4  2  0  0  0  0
  5 24  1  0  0  0  0
  6  2  1  0  0  0  0
  6 25  1  0  0  0  0
  6 26  1  0  0  0  0
  7  3  1  0  0  0  0
  7 27  1  0  0  0  0
  7 28  1  0  0  0  0
  8 29  1  0  0  0  0
  9  1  1  0  0  0  0
  9 30  1  0  0  0  0
 10  4  1  0  0  0  0
 10  8  2  0  0  0  0
 10  9  1  0  0  0  0
 11  8  1  0  0  0  0
 12  5  1  0  0  0  0
 12 11  2  0  0  0  0
 13  9  1  0  0  0  0
 14 11  1  0  0  0  0
 15  6  1  0  0  0  0
 15  7  1  0  0  0  0
 15 12  1  0  0  0  0
 16 13  2  0  0  0  0
 17 13  1  0  0  0  0
 17 31  1  0  0  0  0
M  END
>  <DRUGBANK_ID>
DB13722

>  <COMMON_NAME>
Pirprofen

>  <CAS_NUMBER>
31793-07-4

>  <UNII>
T7KN291890

>  <SYNONYMS>
Pirprofen

$$$$
