P28
 OpenBabel10282417133D

 44 45  0  0  0  0  0  0  0  0999 V2000
    1.3445   -0.2224    0.1439 C   0  0  0  0  0  0  0  0  0  0  0  0
    0.5074   -1.3277    0.0065 C   0  0  0  0  0  0  0  0  0  0  0  0
   -0.8711   -1.1540   -0.0841 C   0  0  0  0  0  0  0  0  0  0  0  0
   -1.4384    0.1237   -0.0668 C   0  0  0  0  0  0  0  0  0  0  0  0
   -0.6143    1.2281    0.1295 C   0  0  0  0  0  0  0  0  0  0  0  0
    0.7614    1.0463    0.2678 C   0  0  0  0  0  0  0  0  0  0  0  0
    2.8419   -0.4056    0.1790 C   0  0  0  0  0  0  0  0  0  0  0  0
    3.6130    0.1074   -1.0522 C   0  0  1  0  0  0  0  0  0  0  0  0
    3.5112    1.6274   -1.2331 C   0  0  0  0  0  0  0  0  0  0  0  0
    4.3195    2.4609   -0.8288 O   0  0  0  0  0  0  0  0  0  0  0  0
    2.3525    2.0291   -1.7949 O   0  0  0  0  0  0  0  0  0  0  0  0
    5.0368   -0.2589   -0.9073 N   0  0  0  0  0  0  0  0  0  0  0  0
    5.6920   -0.9864   -1.8688 C   0  0  0  0  0  0  0  0  0  0  0  0
    7.1649   -1.2072   -1.6378 C   0  0  0  0  0  0  0  0  0  0  0  0
    5.1244   -1.4553   -2.8507 O   0  0  0  0  0  0  0  0  0  0  0  0
   -2.7736    0.3974   -0.2749 O   0  0  0  0  0  0  0  0  0  0  0  0
   -3.6649   -0.6474   -0.3125 C   0  0  0  0  0  0  0  0  0  0  0  0
   -3.8053   -1.5129    0.7706 C   0  0  0  0  0  0  0  0  0  0  0  0
   -4.7364   -2.5571    0.7120 C   0  0  0  0  0  0  0  0  0  0  0  0
   -4.8228   -3.4609    1.8628 N   0  3  0  0  0  0  0  0  0  0  0  0
   -5.6811   -4.3549    1.8223 O   0  0  0  0  0  0  0  0  0  0  0  0
   -4.0389   -3.2821    2.8035 O   0  5  0  0  0  0  0  0  0  0  0  0
   -5.5861   -2.7026   -0.3983 C   0  0  0  0  0  0  0  0  0  0  0  0
   -6.4398   -3.7625   -0.5338 O   0  0  0  0  0  0  0  0  0  0  0  0
   -5.5195   -1.7397   -1.4224 C   0  0  0  0  0  0  0  0  0  0  0  0
   -6.5741   -1.6396   -2.4526 N   0  3  0  0  0  0  0  0  0  0  0  0
   -6.4498   -0.7432   -3.3004 O   0  0  0  0  0  0  0  0  0  0  0  0
   -7.5562   -2.3887   -2.3900 O   0  5  0  0  0  0  0  0  0  0  0  0
   -4.5125   -0.7538   -1.4131 C   0  0  0  0  0  0  0  0  0  0  0  0
    3.2184   -0.3547   -1.9640 H   0  0  0  0  0  0  0  0  0  0  0  0
    0.9098   -2.3374   -0.0347 H   0  0  0  0  0  0  0  0  0  0  0  0
   -1.4733   -2.0493   -0.1728 H   0  0  0  0  0  0  0  0  0  0  0  0
   -1.0244    2.2344    0.1708 H   0  0  0  0  0  0  0  0  0  0  0  0
    1.3810    1.9232    0.4319 H   0  0  0  0  0  0  0  0  0  0  0  0
    3.2202    0.0490    1.1022 H   0  0  0  0  0  0  0  0  0  0  0  0
    3.0543   -1.4808    0.2798 H   0  0  0  0  0  0  0  0  0  0  0  0
    2.2462    2.9796   -1.5804 H   0  0  0  0  0  0  0  0  0  0  0  0
    5.5681    0.2115   -0.1823 H   0  0  0  0  0  0  0  0  0  0  0  0
    7.3537   -2.2826   -1.5637 H   0  0  0  0  0  0  0  0  0  0  0  0
    7.7198   -0.8051   -2.4907 H   0  0  0  0  0  0  0  0  0  0  0  0
    7.5266   -0.7257   -0.7259 H   0  0  0  0  0  0  0  0  0  0  0  0
   -3.1536   -1.3865    1.6342 H   0  0  0  0  0  0  0  0  0  0  0  0
   -6.4261   -4.3577    0.2450 H   0  0  0  0  0  0  0  0  0  0  0  0
   -4.3927   -0.0575   -2.2432 H   0  0  0  0  0  0  0  0  0  0  0  0
  1  2  2  0  0  0  0
  1  6  1  0  0  0  0
  1  7  1  0  0  0  0
  2  3  1  0  0  0  0
  2 31  1  0  0  0  0
  3  4  2  0  0  0  0
  3 32  1  0  0  0  0
  4  5  1  0  0  0  0
  4 16  1  0  0  0  0
  5  6  2  0  0  0  0
  5 33  1  0  0  0  0
  6 34  1  0  0  0  0
  7  8  1  0  0  0  0
  7 35  1  0  0  0  0
  7 36  1  0  0  0  0
  8  9  1  0  0  0  0
  8 12  1  0  0  0  0
  8 30  1  6  0  0  0
  9 10  2  0  0  0  0
  9 11  1  0  0  0  0
 11 37  1  0  0  0  0
 12 13  1  0  0  0  0
 12 38  1  0  0  0  0
 13 14  1  0  0  0  0
 13 15  2  0  0  0  0
 14 39  1  0  0  0  0
 14 40  1  0  0  0  0
 14 41  1  0  0  0  0
 16 17  1  0  0  0  0
 17 18  2  0  0  0  0
 17 29  1  0  0  0  0
 18 19  1  0  0  0  0
 18 42  1  0  0  0  0
 19 20  1  0  0  0  0
 19 23  2  0  0  0  0
 20 21  2  0  0  0  0
 20 22  1  0  0  0  0
 23 24  1  0  0  0  0
 23 25  1  0  0  0  0
 24 43  1  0  0  0  0
 25 26  1  0  0  0  0
 25 29  2  0  0  0  0
 26 27  2  0  0  0  0
 26 28  1  0  0  0  0
 29 44  1  0  0  0  0
M  CHG  4  20   1  22  -1  26   1  28  -1
M  END
>  <DRUGBANK_ID>
DB03239

>  <SECONDARY_ACCESSION_NUMBERS>
EXPT02474

>  <COMMON_NAME>
3',5'-Dinitro-N-Acetyl-L-Thyronine

$$$$
