
 OpenBabel10282417223D

 41 43  0  0  1  0  0  0  0  0999 V2000
    9.3129   -1.5189    2.0222 C   0  0  0  0  0  0  0  0  0  0  0  0
    8.7319   -0.7826    3.0961 O   0  0  0  0  0  0  0  0  0  0  0  0
    7.3862   -0.6131    2.9777 C   0  0  0  0  0  0  0  0  0  0  0  0
    6.6880   -0.9900    2.0499 O   0  0  0  0  0  0  0  0  0  0  0  0
    6.8091   -0.0442    4.2299 C   0  0  0  0  0  0  0  0  0  0  0  0
    5.8721    1.1543    4.1495 C   0  0  0  0  0  0  0  0  0  0  0  0
    7.2602    1.3238    4.6990 C   0  0  0  0  0  0  0  0  0  0  0  0
    6.4714   -1.1480    5.1097 O   0  0  0  0  0  0  0  0  0  0  0  0
    6.2823   -1.0860    6.4514 C   0  0  0  0  0  0  0  0  0  0  0  0
    6.2699   -0.0748    7.1247 O   0  0  0  0  0  0  0  0  0  0  0  0
    5.9115   -2.4082    6.9245 C   0  0  0  0  0  0  0  0  0  0  0  0
    6.6933   -3.5461    6.9779 C   0  0  0  0  0  0  0  0  0  0  0  0
    6.0580   -4.5794    7.6132 N   0  0  0  0  0  0  0  0  0  0  0  0
    4.8646   -4.1195    7.8977 C   0  0  0  0  0  0  0  0  0  0  0  0
    4.7119   -2.8078    7.4902 N   0  0  0  0  0  0  0  0  0  0  0  0
    3.4907   -2.0255    7.7175 C   0  0  2  0  0  0  0  0  0  0  0  0
    3.3645   -0.7530    6.8630 C   0  0  0  0  0  0  0  0  0  0  0  0
    3.2375   -1.7491    9.2005 C   0  0  0  0  0  0  0  0  0  0  0  0
    2.1422   -0.9466    9.5624 C   0  0  0  0  0  0  0  0  0  0  0  0
    1.8025   -0.7580   10.8991 C   0  0  0  0  0  0  0  0  0  0  0  0
    2.5122   -1.4188   11.8962 C   0  0  0  0  0  0  0  0  0  0  0  0
    3.5845   -2.2342   11.5619 C   0  0  0  0  0  0  0  0  0  0  0  0
    3.9879   -2.3347   10.2353 C   0  0  0  0  0  0  0  0  0  0  0  0
   10.3890   -1.5899    2.2032 H   0  0  0  0  0  0  0  0  0  0  0  0
    9.1516   -0.9988    1.0742 H   0  0  0  0  0  0  0  0  0  0  0  0
    8.9037   -2.5342    1.9844 H   0  0  0  0  0  0  0  0  0  0  0  0
    5.6596    1.6078    3.1838 H   0  0  0  0  0  0  0  0  0  0  0  0
    5.0548    1.2802    4.8505 H   0  0  0  0  0  0  0  0  0  0  0  0
    7.3468    1.5889    5.7446 H   0  0  0  0  0  0  0  0  0  0  0  0
    7.9795    1.8633    4.0852 H   0  0  0  0  0  0  0  0  0  0  0  0
    7.7130   -3.6539    6.6360 H   0  0  0  0  0  0  0  0  0  0  0  0
    4.1101   -4.6560    8.4692 H   0  0  0  0  0  0  0  0  0  0  0  0
    2.6733   -2.6958    7.3970 H   0  0  0  0  0  0  0  0  0  0  0  0
    3.3043    0.1587    7.4659 H   0  0  0  0  0  0  0  0  0  0  0  0
    4.1760   -0.6006    6.1719 H   0  0  0  0  0  0  0  0  0  0  0  0
    2.5094   -0.8093    6.1861 H   0  0  0  0  0  0  0  0  0  0  0  0
    1.5451   -0.4462    8.8025 H   0  0  0  0  0  0  0  0  0  0  0  0
    0.9667   -0.1140   11.1550 H   0  0  0  0  0  0  0  0  0  0  0  0
    2.2379   -1.2924   12.9379 H   0  0  0  0  0  0  0  0  0  0  0  0
    4.1124   -2.8000   12.3248 H   0  0  0  0  0  0  0  0  0  0  0  0
    4.8993   -2.8975   10.0486 H   0  0  0  0  0  0  0  0  0  0  0  0
  1  2  1  0  0  0  0
  1 24  1  0  0  0  0
  1 25  1  0  0  0  0
  1 26  1  0  0  0  0
  2  3  1  0  0  0  0
  3  4  2  0  0  0  0
  3  5  1  0  0  0  0
  5  6  1  0  0  0  0
  5  7  1  0  0  0  0
  5  8  1  0  0  0  0
  6  7  1  0  0  0  0
  6 27  1  0  0  0  0
  6 28  1  0  0  0  0
  7 29  1  0  0  0  0
  7 30  1  0  0  0  0
  8  9  1  0  0  0  0
  9 10  2  0  0  0  0
  9 11  1  0  0  0  0
 11 12  2  0  0  0  0
 11 15  1  0  0  0  0
 12 13  1  0  0  0  0
 12 31  1  0  0  0  0
 13 14  2  0  0  0  0
 14 15  1  0  0  0  0
 14 32  1  0  0  0  0
 16 18  1  0  0  0  0
 16 33  1  6  0  0  0
 16 17  1  0  0  0  0
 16 15  1  0  0  0  0
 17 34  1  0  0  0  0
 17 35  1  0  0  0  0
 17 36  1  0  0  0  0
 18 19  2  0  0  0  0
 18 23  1  0  0  0  0
 19 20  1  0  0  0  0
 19 37  1  0  0  0  0
 20 21  2  0  0  0  0
 20 38  1  0  0  0  0
 21 22  1  0  0  0  0
 21 39  1  0  0  0  0
 22 23  2  0  0  0  0
 22 40  1  0  0  0  0
 23 41  1  0  0  0  0
M  END
>  <DRUGBANK_ID>
DB15411

>  <COMMON_NAME>
ABP-700

>  <CAS_NUMBER>
1446482-29-6

>  <UNII>
LZ0835OW2M

$$$$
