
 OpenBabel10282417123D

 16 16  0  0  0  0  0  0  0  0999 V2000
    0.9008    0.0005    0.0663 O   0  0  0  0  0  0  0  0  0  0  0  0
    0.4583   -1.3298    0.3117 C   0  0  0  0  0  0  0  0  0  0  0  0
    0.9039   -2.2759   -0.7694 C   0  0  0  0  0  0  0  0  0  0  0  0
    1.4794   -1.8748   -1.9152 C   0  0  0  0  0  0  0  0  0  0  0  0
    1.7514   -2.8616   -2.9709 C   0  0  0  0  0  0  0  0  0  0  0  0
    2.2135   -2.5401   -4.0622 O   0  0  0  0  0  0  0  0  0  0  0  0
    1.4185   -4.2742   -2.6711 C   0  0  0  0  0  0  0  0  0  0  0  0
    1.6367   -5.2449   -3.6251 O   0  0  0  0  0  0  0  0  0  0  0  0
    0.9015   -4.5491   -1.4710 C   0  0  0  0  0  0  0  0  0  0  0  0
    0.6280   -3.6136   -0.5002 O   0  0  0  0  0  0  0  0  0  0  0  0
    1.8731   -0.0167    0.0672 H   0  0  0  0  0  0  0  0  0  0  0  0
    0.8290   -1.6386    1.2939 H   0  0  0  0  0  0  0  0  0  0  0  0
   -0.6361   -1.3144    0.3461 H   0  0  0  0  0  0  0  0  0  0  0  0
    1.7023   -0.8410   -2.1420 H   0  0  0  0  0  0  0  0  0  0  0  0
    1.9831   -4.7661   -4.4071 H   0  0  0  0  0  0  0  0  0  0  0  0
    0.6336   -5.5470   -1.1550 H   0  0  0  0  0  0  0  0  0  0  0  0
  1  2  1  0  0  0  0
  1 11  1  0  0  0  0
  2  3  1  0  0  0  0
  2 12  1  0  0  0  0
  2 13  1  0  0  0  0
  3  4  2  0  0  0  0
  3 10  1  0  0  0  0
  4  5  1  0  0  0  0
  4 14  1  0  0  0  0
  5  6  2  0  0  0  0
  5  7  1  0  0  0  0
  7  8  1  0  0  0  0
  7  9  2  0  0  0  0
  8 15  1  0  0  0  0
  9 10  1  0  0  0  0
  9 16  1  0  0  0  0
M  END
>  <DRUGBANK_ID>
DB01759

>  <SECONDARY_ACCESSION_NUMBERS>
EXPT01978

>  <COMMON_NAME>
Kojic acid

>  <CAS_NUMBER>
501-30-4

>  <UNII>
6K23F1TT52

>  <SYNONYMS>
5-hydroxy-2-(hydroxymethyl)-4-pyrone; 5-hydroxy-2-(hydroxymethyl)-4H-pyran-4-one; ácido kójico

$$$$
