
 OpenBabel10282417203D

 38 40  0  0  1  0  0  0  0  0999 V2000
    0.8398    0.0037   -0.0531 C   0  0  0  0  0  0  0  0  0  0  0  0
    0.2818    0.7929    1.1032 C   0  0  0  0  0  0  0  0  0  0  0  0
   -0.1184    0.2727    2.2594 C   0  0  0  0  0  0  0  0  0  0  0  0
    0.2069   -1.1252    2.6174 C   0  0  0  0  0  0  0  0  0  0  0  0
    0.8740   -1.0203    3.9791 C   0  0  0  0  0  0  0  0  0  0  0  0
    2.3294   -1.3449    3.7972 C   0  0  2  0  0  0  0  0  0  0  0  0
    3.5150   -0.2415    3.4030 C   0  0  1  0  0  0  0  0  0  0  0  0
    3.1551   -0.7127    4.7453 O   0  0  0  0  0  0  0  0  0  0  0  0
    3.5197    1.3342    3.3574 C   0  0  2  0  0  0  0  0  0  0  0  0
    2.7561    2.4442    2.2852 C   0  0  1  0  0  0  0  0  0  0  0  0
    1.8641    2.5405    0.9508 C   0  0  0  0  0  0  0  0  0  0  0  0
    0.3531    2.2603    0.9662 C   0  0  0  0  0  0  0  0  0  0  0  0
    4.0516    3.1071    1.8727 C   0  0  0  0  0  0  0  0  0  0  0  0
    4.4980    3.7128    0.7602 C   0  0  0  0  0  0  0  0  0  0  0  0
    4.7935    3.0995    3.1179 C   0  0  0  0  0  0  0  0  0  0  0  0
    4.5628    3.9340    4.0220 O   0  0  0  0  0  0  0  0  0  0  0  0
    4.9351    1.7686    3.2751 O   0  0  0  0  0  0  0  0  0  0  0  0
    2.4696   -2.8720    3.7041 C   0  0  0  0  0  0  0  0  0  0  0  0
    0.5512    0.4722   -0.9985 H   0  0  0  0  0  0  0  0  0  0  0  0
    0.4646   -1.0187   -0.0751 H   0  0  0  0  0  0  0  0  0  0  0  0
    1.9345   -0.0387   -0.0039 H   0  0  0  0  0  0  0  0  0  0  0  0
   -0.4793    0.9354    3.0466 H   0  0  0  0  0  0  0  0  0  0  0  0
   -0.6788   -1.7623    2.6019 H   0  0  0  0  0  0  0  0  0  0  0  0
    0.9132   -1.5652    1.8974 H   0  0  0  0  0  0  0  0  0  0  0  0
    0.4190   -1.7602    4.6510 H   0  0  0  0  0  0  0  0  0  0  0  0
    0.7057   -0.0669    4.4894 H   0  0  0  0  0  0  0  0  0  0  0  0
    4.5446   -0.5849    3.2299 H   0  0  0  0  0  0  0  0  0  0  0  0
    3.3682    1.6316    4.4135 H   0  0  0  0  0  0  0  0  0  0  0  0
    2.2643    3.1706    2.9607 H   0  0  0  0  0  0  0  0  0  0  0  0
    1.8966    3.5808    0.5708 H   0  0  0  0  0  0  0  0  0  0  0  0
    2.3444    1.9897    0.1333 H   0  0  0  0  0  0  0  0  0  0  0  0
   -0.1577    2.8808    1.7176 H   0  0  0  0  0  0  0  0  0  0  0  0
   -0.1976    2.4824    0.0357 H   0  0  0  0  0  0  0  0  0  0  0  0
    5.5582    3.5864    0.5264 H   0  0  0  0  0  0  0  0  0  0  0  0
    4.3921    4.8033    0.8399 H   0  0  0  0  0  0  0  0  0  0  0  0
    3.1094   -3.3354    4.4586 H   0  0  0  0  0  0  0  0  0  0  0  0
    1.4819   -3.3406    3.8825 H   0  0  0  0  0  0  0  0  0  0  0  0
    2.7211   -3.2094    2.6947 H   0  0  0  0  0  0  0  0  0  0  0  0
  1 19  1  0  0  0  0
  1 20  1  0  0  0  0
  1 21  1  0  0  0  0
  1  2  1  0  0  0  0
  2  3  2  0  0  0  0
  2 12  1  0  0  0  0
  3  4  1  0  0  0  0
  3 22  1  0  0  0  0
  4  5  1  0  0  0  0
  4 23  1  0  0  0  0
  4 24  1  0  0  0  0
  5  6  1  0  0  0  0
  5 25  1  0  0  0  0
  5 26  1  0  0  0  0
  6  7  1  0  0  0  0
  6  8  1  0  0  0  0
  6 18  1  1  0  0  0
  7  8  1  0  0  0  0
  7  9  1  0  0  0  0
  7 27  1  1  0  0  0
  9 10  1  0  0  0  0
  9 17  1  0  0  0  0
  9 28  1  1  0  0  0
 10 11  1  0  0  0  0
 10 13  1  0  0  0  0
 10 29  1  6  0  0  0
 11 12  1  0  0  0  0
 11 30  1  0  0  0  0
 11 31  1  0  0  0  0
 12 32  1  0  0  0  0
 12 33  1  0  0  0  0
 13 15  1  0  0  0  0
 13 14  2  0  0  0  0
 14 34  1  0  0  0  0
 14 35  1  0  0  0  0
 15 17  1  0  0  0  0
 15 16  2  0  0  0  0
 18 36  1  0  0  0  0
 18 37  1  0  0  0  0
 18 38  1  0  0  0  0
M  END
>  <DRUGBANK_ID>
DB13063

>  <COMMON_NAME>
Parthenolide

>  <CAS_NUMBER>
20554-84-1

>  <UNII>
2RDB26I5ZB

$$$$
