
 OpenBabel10282417183D

 59 60  0  0  0  0  0  0  0  0999 V2000
    9.1909   -0.0370    2.6435 C   0  0  0  0  0  0  0  0  0  0  0  0
    8.6093   -0.4886    3.9752 C   0  0  0  0  0  0  0  0  0  0  0  0
    7.1699   -0.5072    3.9487 O   0  0  0  0  0  0  0  0  0  0  0  0
    6.5923    0.7182    3.8342 C   0  0  0  0  0  0  0  0  0  0  0  0
    7.1975    1.7820    3.7657 O   0  0  0  0  0  0  0  0  0  0  0  0
    5.0880    0.6517    3.8331 C   0  0  2  0  0  0  0  0  0  0  0  0
    4.6195    1.4518    2.6072 C   0  0  0  0  0  0  0  0  0  0  0  0
    4.6137    1.2005    5.2372 C   0  0  0  0  0  0  0  0  0  0  0  0
    3.0790    1.3415    5.3648 C   0  0  2  0  0  0  0  0  0  0  0  0
    2.6898    2.5494    4.5552 N   0  0  0  0  0  0  0  0  0  0  0  0
    1.5346    3.2178    4.4445 C   0  0  0  0  0  0  0  0  0  0  0  0
    1.4015    4.2951    3.8169 O   0  0  0  0  0  0  0  0  0  0  0  0
    0.5175    2.6669    5.2706 C   0  0  0  0  0  0  0  0  0  0  0  0
    0.0515    1.2562    4.8588 C   0  0  0  0  0  0  0  0  0  0  0  0
    0.8717    0.0011    4.4770 C   0  0  0  0  0  0  0  0  0  0  0  0
    1.4257   -0.9097    5.3200 O   0  0  0  0  0  0  0  0  0  0  0  0
    1.1483   -0.1779    3.2942 O   0  0  0  0  0  0  0  0  0  0  0  0
    2.4352    1.1184    7.0010 C   0  0  0  0  0  0  0  0  0  0  0  0
    0.8194    0.9350    7.5909 C   0  0  0  0  0  0  0  0  0  0  0  0
    0.0031   -0.2561    7.4869 C   0  0  0  0  0  0  0  0  0  0  0  0
   -1.3967   -0.2032    7.3177 C   0  0  0  0  0  0  0  0  0  0  0  0
   -2.0553    1.0231    7.2826 C   0  0  0  0  0  0  0  0  0  0  0  0
   -3.4645    1.0347    6.9600 C   0  0  0  0  0  0  0  0  0  0  0  0
   -4.2267    0.3569    7.9117 C   0  0  0  0  0  0  0  0  0  0  0  0
   -5.5941    0.4361    7.9080 C   0  0  0  0  0  0  0  0  0  0  0  0
   -6.2181    1.1836    6.9183 C   0  0  0  0  0  0  0  0  0  0  0  0
   -5.4746    1.8107    5.9085 C   0  0  0  0  0  0  0  0  0  0  0  0
   -4.0843    1.6919    5.8876 C   0  0  0  0  0  0  0  0  0  0  0  0
   -1.3384    2.1708    7.6296 C   0  0  0  0  0  0  0  0  0  0  0  0
    0.0625    2.1140    7.8960 C   0  0  0  0  0  0  0  0  0  0  0  0
    8.8435   -0.6880    1.8362 H   0  0  0  0  0  0  0  0  0  0  0  0
   10.2830   -0.0403    2.6720 H   0  0  0  0  0  0  0  0  0  0  0  0
    8.8757    0.9761    2.3800 H   0  0  0  0  0  0  0  0  0  0  0  0
    8.9479   -1.5101    4.1844 H   0  0  0  0  0  0  0  0  0  0  0  0
    8.9565    0.1388    4.8049 H   0  0  0  0  0  0  0  0  0  0  0  0
    4.7646   -0.3905    3.6880 H   0  0  0  0  0  0  0  0  0  0  0  0
    3.6196    1.1353    2.2838 H   0  0  0  0  0  0  0  0  0  0  0  0
    4.6223    2.5211    2.8284 H   0  0  0  0  0  0  0  0  0  0  0  0
    5.2888    1.3743    1.7458 H   0  0  0  0  0  0  0  0  0  0  0  0
    4.9804    0.5031    5.9967 H   0  0  0  0  0  0  0  0  0  0  0  0
    5.0750    2.1767    5.4171 H   0  0  0  0  0  0  0  0  0  0  0  0
    2.8624    0.4769    4.7661 H   0  0  0  0  0  0  0  0  0  0  0  0
    3.1944    2.7955    3.7215 H   0  0  0  0  0  0  0  0  0  0  0  0
    1.1152    2.7586    6.1691 H   0  0  0  0  0  0  0  0  0  0  0  0
   -0.2984    3.3780    5.4504 H   0  0  0  0  0  0  0  0  0  0  0  0
   -0.6290    0.9392    5.5924 H   0  0  0  0  0  0  0  0  0  0  0  0
   -0.6759    1.3863    4.0578 H   0  0  0  0  0  0  0  0  0  0  0  0
    1.6415   -0.8992    6.2723 H   0  0  0  0  0  0  0  0  0  0  0  0
    2.9571    0.2260    7.3715 H   0  0  0  0  0  0  0  0  0  0  0  0
    2.8495    1.9768    7.5399 H   0  0  0  0  0  0  0  0  0  0  0  0
    0.2961   -1.2739    7.2388 H   0  0  0  0  0  0  0  0  0  0  0  0
   -1.9364   -1.0955    6.9709 H   0  0  0  0  0  0  0  0  0  0  0  0
   -3.7096   -0.1901    8.6980 H   0  0  0  0  0  0  0  0  0  0  0  0
   -6.1310   -0.0438    8.7159 H   0  0  0  0  0  0  0  0  0  0  0  0
   -7.2967    1.2792    6.9448 H   0  0  0  0  0  0  0  0  0  0  0  0
   -5.9860    2.4247    5.1699 H   0  0  0  0  0  0  0  0  0  0  0  0
   -3.5220    2.1315    5.0625 H   0  0  0  0  0  0  0  0  0  0  0  0
   -1.8285    3.1405    7.4934 H   0  0  0  0  0  0  0  0  0  0  0  0
    0.5395    3.0952    7.9902 H   0  0  0  0  0  0  0  0  0  0  0  0
  1 31  1  0  0  0  0
  1 32  1  0  0  0  0
  1 33  1  0  0  0  0
  2  1  1  0  0  0  0
  2 34  1  0  0  0  0
  2 35  1  0  0  0  0
  3  2  1  0  0  0  0
  4  3  1  0  0  0  0
  4  5  2  0  0  0  0
  6  8  1  0  0  0  0
  6 36  1  6  0  0  0
  6  7  1  0  0  0  0
  6  4  1  0  0  0  0
  7 37  1  0  0  0  0
  7 38  1  0  0  0  0
  7 39  1  0  0  0  0
  8 40  1  0  0  0  0
  8 41  1  0  0  0  0
  9 18  1  0  0  0  0
  9 42  1  6  0  0  0
  9 10  1  0  0  0  0
  9  8  1  0  0  0  0
 10 43  1  0  0  0  0
 11 10  1  0  0  0  0
 11 12  2  0  0  0  0
 11 13  1  0  0  0  0
 13 14  1  0  0  0  0
 13 44  1  0  0  0  0
 13 45  1  0  0  0  0
 14 46  1  0  0  0  0
 14 47  1  0  0  0  0
 15 14  1  0  0  0  0
 15 16  1  0  0  0  0
 15 17  2  0  0  0  0
 16 48  1  0  0  0  0
 18 49  1  0  0  0  0
 18 50  1  0  0  0  0
 19 18  1  0  0  0  0
 19 20  1  0  0  0  0
 20 21  2  0  0  0  0
 20 51  1  0  0  0  0
 21 52  1  0  0  0  0
 22 21  1  0  0  0  0
 22 23  1  0  0  0  0
 22 29  2  0  0  0  0
 23 24  1  0  0  0  0
 23 28  2  0  0  0  0
 24 53  1  0  0  0  0
 25 24  2  0  0  0  0
 25 54  1  0  0  0  0
 26 25  1  0  0  0  0
 26 55  1  0  0  0  0
 27 26  2  0  0  0  0
 27 56  1  0  0  0  0
 28 27  1  0  0  0  0
 28 57  1  0  0  0  0
 29 30  1  0  0  0  0
 29 58  1  0  0  0  0
 30 19  2  0  0  0  0
 30 59  1  0  0  0  0
M  END
>  <DRUGBANK_ID>
DB09292

>  <COMMON_NAME>
Sacubitril

>  <CAS_NUMBER>
149709-62-6

>  <UNII>
17ERJ0MKGI

>  <SYNONYMS>
Sacubitril; Sacubitrilo

$$$$
