
 OpenBabel10282417223D

 55 56  0  0  1  0  0  0  0  0999 V2000
    0.1184    0.0633   -0.0599 C   0  0  0  0  0  0  0  0  0  0  0  0
    0.0658    0.3392    1.3276 O   0  0  0  0  0  0  0  0  0  0  0  0
    0.5914   -0.4999    2.2839 C   0  0  0  0  0  0  0  0  0  0  0  0
    1.8464   -1.1093    2.3616 C   0  0  0  0  0  0  0  0  0  0  0  0
    2.4305   -1.6117    1.2136 O   0  0  0  0  0  0  0  0  0  0  0  0
    2.6937   -0.6833    0.1511 C   0  0  0  0  0  0  0  0  0  0  0  0
    2.4415   -1.4107    3.6543 C   0  0  0  0  0  0  0  0  0  0  0  0
    1.6540   -1.2157    4.8183 C   0  0  0  0  0  0  0  0  0  0  0  0
    0.3314   -0.7798    4.7117 C   0  0  0  0  0  0  0  0  0  0  0  0
   -0.5106   -0.4555    5.9279 C   0  0  0  0  0  0  0  0  0  0  0  0
   -0.8727    1.0438    6.0224 C   0  0  0  0  0  0  0  0  0  0  0  0
   -1.7020    1.5765    4.8611 C   0  0  0  0  0  0  0  0  0  0  0  0
   -2.7852    0.7731    4.6842 F   0  0  0  0  0  0  0  0  0  0  0  0
   -0.1880   -0.5320    3.4325 C   0  0  0  0  0  0  0  0  0  0  0  0
    3.9221   -1.7628    3.9774 C   0  0  0  0  0  0  0  0  0  0  0  0
    4.2571   -2.0111    5.1249 O   0  0  0  0  0  0  0  0  0  0  0  0
    4.9731   -1.6702    3.0542 N   0  0  0  0  0  0  0  0  0  0  0  0
    4.8972   -1.0350    1.7842 C   0  0  0  0  0  0  0  0  0  0  0  0
    5.4546    0.3265    1.3627 C   0  0  2  0  0  0  0  0  0  0  0  0
    6.8085    0.5427    1.9356 C   0  0  0  0  0  0  0  0  0  0  0  0
    7.0165    2.0221    1.7239 C   0  0  0  0  0  0  0  0  0  0  0  0
    5.6391    2.6721    1.6326 C   0  0  0  0  0  0  0  0  0  0  0  0
    4.6677    1.5785    1.6426 N   0  0  0  0  0  0  0  0  0  0  0  0
    3.8575    1.6429    2.8703 C   0  0  0  0  0  0  0  0  0  0  0  0
    4.6227    1.3174    4.1094 C   0  0  0  0  0  0  0  0  0  0  0  0
    4.7937    2.0780    5.1861 C   0  0  0  0  0  0  0  0  0  0  0  0
   -0.6392    0.6378   -0.5920 H   0  0  0  0  0  0  0  0  0  0  0  0
   -0.0001   -1.0048   -0.2529 H   0  0  0  0  0  0  0  0  0  0  0  0
    0.9960    0.4942   -0.5443 H   0  0  0  0  0  0  0  0  0  0  0  0
    2.1231   -1.0437   -0.6938 H   0  0  0  0  0  0  0  0  0  0  0  0
    2.5736    0.3713    0.4510 H   0  0  0  0  0  0  0  0  0  0  0  0
    3.7027   -0.7348   -0.2601 H   0  0  0  0  0  0  0  0  0  0  0  0
    2.0651   -1.4172    5.8111 H   0  0  0  0  0  0  0  0  0  0  0  0
   -1.4163   -1.0744    5.9208 H   0  0  0  0  0  0  0  0  0  0  0  0
    0.0332   -0.7266    6.8442 H   0  0  0  0  0  0  0  0  0  0  0  0
   -1.4497    1.1970    6.9416 H   0  0  0  0  0  0  0  0  0  0  0  0
    0.0420    1.6426    6.1071 H   0  0  0  0  0  0  0  0  0  0  0  0
   -2.0570    2.5927    5.0297 H   0  0  0  0  0  0  0  0  0  0  0  0
   -1.1352    1.6263    3.9284 H   0  0  0  0  0  0  0  0  0  0  0  0
   -1.2441   -0.3051    3.3091 H   0  0  0  0  0  0  0  0  0  0  0  0
    5.8878   -1.8702    3.4374 H   0  0  0  0  0  0  0  0  0  0  0  0
    4.8981   -1.7996    0.9989 H   0  0  0  0  0  0  0  0  0  0  0  0
    3.9443   -0.6295    1.9223 H   0  0  0  0  0  0  0  0  0  0  0  0
    5.5216    0.3111    0.2597 H   0  0  0  0  0  0  0  0  0  0  0  0
    6.8229    0.2987    2.9976 H   0  0  0  0  0  0  0  0  0  0  0  0
    7.5417   -0.1015    1.4469 H   0  0  0  0  0  0  0  0  0  0  0  0
    7.5888    2.4271    2.5586 H   0  0  0  0  0  0  0  0  0  0  0  0
    7.5534    2.1740    0.7855 H   0  0  0  0  0  0  0  0  0  0  0  0
    5.4778    3.3824    2.4527 H   0  0  0  0  0  0  0  0  0  0  0  0
    5.5349    3.2543    0.7100 H   0  0  0  0  0  0  0  0  0  0  0  0
    3.3684    2.6220    2.9601 H   0  0  0  0  0  0  0  0  0  0  0  0
    3.0004    0.9870    2.7772 H   0  0  0  0  0  0  0  0  0  0  0  0
    5.1398    0.3731    4.1482 H   0  0  0  0  0  0  0  0  0  0  0  0
    5.4427    1.7057    5.9734 H   0  0  0  0  0  0  0  0  0  0  0  0
    4.3210    3.0430    5.2717 H   0  0  0  0  0  0  0  0  0  0  0  0
  1  2  1  0  0  0  0
  1 27  1  0  0  0  0
  1 28  1  0  0  0  0
  1 29  1  0  0  0  0
  2  3  1  0  0  0  0
  3  4  2  0  0  0  0
  3 14  1  0  0  0  0
  4  5  1  0  0  0  0
  4  7  1  0  0  0  0
  5  6  1  0  0  0  0
  6 30  1  0  0  0  0
  6 31  1  0  0  0  0
  6 32  1  0  0  0  0
  7  8  2  0  0  0  0
  7 15  1  0  0  0  0
  8  9  1  0  0  0  0
  8 33  1  0  0  0  0
  9 10  1  0  0  0  0
  9 14  2  0  0  0  0
 10 11  1  0  0  0  0
 10 34  1  0  0  0  0
 10 35  1  0  0  0  0
 11 12  1  0  0  0  0
 11 36  1  0  0  0  0
 11 37  1  0  0  0  0
 12 13  1  0  0  0  0
 12 38  1  0  0  0  0
 12 39  1  0  0  0  0
 14 40  1  0  0  0  0
 15 16  2  0  0  0  0
 15 17  1  0  0  0  0
 17 18  1  0  0  0  0
 17 41  1  0  0  0  0
 18 42  1  0  0  0  0
 18 43  1  0  0  0  0
 19 18  1  0  0  0  0
 19 20  1  0  0  0  0
 19 23  1  0  0  0  0
 19 44  1  6  0  0  0
 20 21  1  0  0  0  0
 20 45  1  0  0  0  0
 20 46  1  0  0  0  0
 21 22  1  0  0  0  0
 21 47  1  0  0  0  0
 21 48  1  0  0  0  0
 22 23  1  0  0  0  0
 22 49  1  0  0  0  0
 22 50  1  0  0  0  0
 23 24  1  0  0  0  0
 24 25  1  0  0  0  0
 24 51  1  0  0  0  0
 24 52  1  0  0  0  0
 25 26  2  0  0  0  0
 25 53  1  0  0  0  0
 26 54  1  0  0  0  0
 26 55  1  0  0  0  0
M  END
>  <DRUGBANK_ID>
DB15167

>  <COMMON_NAME>
Fallypride

>  <CAS_NUMBER>
166173-78-0

>  <UNII>
G9FWZ369GX

$$$$
