
 OpenBabel10282417163D

 28 28  0  0  0  0  0  0  0  0999 V2000
   -1.6552    1.1173    0.0088 C   0  0  0  0  0  0  0  0  0  0  0  0
   -2.3108   -0.0429    0.0104 N   0  0  0  0  0  0  0  0  0  0  0  0
   -0.3372    1.2129   -0.0085 N   0  0  0  0  0  0  0  0  0  0  0  0
   -2.3445    2.3016    0.0260 N   0  0  0  0  0  0  0  0  0  0  0  0
   -1.5865   -1.1552   -0.0069 C   0  0  0  0  0  0  0  0  0  0  0  0
    0.2728    0.0383   -0.0196 C   0  0  0  0  0  0  0  0  0  0  0  0
   -3.7895    2.3750    0.0870 C   0  0  0  0  0  0  0  0  0  0  0  0
   -0.2682   -1.1673   -0.0227 N   0  0  0  0  0  0  0  0  0  0  0  0
   -2.2770   -2.3377    0.0101 N   0  0  0  0  0  0  0  0  0  0  0  0
    1.9835    0.0681   -0.0070 Cl  0  0  0  0  0  0  0  0  0  0  0  0
   -4.2205    3.1159    1.3501 C   0  0  0  0  0  0  0  0  0  0  0  0
   -4.3216    3.0995   -1.1460 C   0  0  0  0  0  0  0  0  0  0  0  0
   -1.6292   -3.6245   -0.0787 C   0  0  0  0  0  0  0  0  0  0  0  0
   -1.9954   -4.4702    1.1292 C   0  0  0  0  0  0  0  0  0  0  0  0
   -1.7759    3.1363    0.0150 H   0  0  0  0  0  0  0  0  0  0  0  0
   -4.2445    1.3790    0.1129 H   0  0  0  0  0  0  0  0  0  0  0  0
   -3.2823   -2.2555   -0.0198 H   0  0  0  0  0  0  0  0  0  0  0  0
   -3.8603    4.1509    1.3546 H   0  0  0  0  0  0  0  0  0  0  0  0
   -5.3138    3.1407    1.4204 H   0  0  0  0  0  0  0  0  0  0  0  0
   -3.8357    2.6229    2.2486 H   0  0  0  0  0  0  0  0  0  0  0  0
   -4.0092    2.5945   -2.0658 H   0  0  0  0  0  0  0  0  0  0  0  0
   -5.4169    3.1238   -1.1285 H   0  0  0  0  0  0  0  0  0  0  0  0
   -3.9629    4.1340   -1.1926 H   0  0  0  0  0  0  0  0  0  0  0  0
   -1.9540   -4.1328   -0.9932 H   0  0  0  0  0  0  0  0  0  0  0  0
   -0.5375   -3.5503   -0.1328 H   0  0  0  0  0  0  0  0  0  0  0  0
   -3.0718   -4.6679    1.1615 H   0  0  0  0  0  0  0  0  0  0  0  0
   -1.4729   -5.4313    1.0910 H   0  0  0  0  0  0  0  0  0  0  0  0
   -1.7164   -3.9667    2.0609 H   0  0  0  0  0  0  0  0  0  0  0  0
  1  2  1  0  0  0  0
  1  3  2  0  0  0  0
  1  4  1  0  0  0  0
  2  5  2  0  0  0  0
  3  6  1  0  0  0  0
  4  7  1  0  0  0  0
  4 15  1  0  0  0  0
  5  8  1  0  0  0  0
  5  9  1  0  0  0  0
  6 10  1  0  0  0  0
  6  8  2  0  0  0  0
  7 11  1  0  0  0  0
  7 12  1  0  0  0  0
  7 16  1  0  0  0  0
  9 13  1  0  0  0  0
  9 17  1  0  0  0  0
 11 18  1  0  0  0  0
 11 19  1  0  0  0  0
 11 20  1  0  0  0  0
 12 21  1  0  0  0  0
 12 22  1  0  0  0  0
 12 23  1  0  0  0  0
 13 14  1  0  0  0  0
 13 24  1  0  0  0  0
 13 25  1  0  0  0  0
 14 26  1  0  0  0  0
 14 27  1  0  0  0  0
 14 28  1  0  0  0  0
M  END
>  <DRUGBANK_ID>
DB07392

>  <COMMON_NAME>
Atrazine

>  <CAS_NUMBER>
1912-24-9

>  <UNII>
QJA9M5H4IM

$$$$
