
 OpenBabel10282417223D

 58 59  0  0  0  0  0  0  0  0999 V2000
    2.9239    0.0444   -3.6163 C   0  0  0  0  0  0  0  0  0  0  0  0
    3.9927    0.6143   -3.8227 O   0  0  0  0  0  0  0  0  0  0  0  0
    1.9636   -0.0033   -4.5828 N   0  0  0  0  0  0  0  0  0  0  0  0
    0.6417   -0.6068   -4.4583 C   0  0  2  0  0  0  0  0  0  0  0  0
   -0.0274   -0.0956   -3.1594 C   0  0  0  0  0  0  0  0  0  0  0  0
    0.6694   -2.1300   -4.6545 C   0  0  0  0  0  0  0  0  0  0  0  0
   -0.7299   -2.8003   -4.6661 C   0  0  0  0  0  0  0  0  0  0  0  0
   -0.5859   -1.0653   -2.3621 N   0  0  0  0  0  0  0  0  0  0  0  0
   -0.0443    1.0964   -2.8590 O   0  0  0  0  0  0  0  0  0  0  0  0
   -1.1044   -0.7782   -1.0544 C   0  0  2  0  0  0  0  0  0  0  0  0
   -0.1193   -1.4287   -0.0859 C   0  0  0  0  0  0  0  0  0  0  0  0
    0.7683   -2.2149   -0.4141 O   0  0  0  0  0  0  0  0  0  0  0  0
   -2.5478   -1.2972   -0.9475 C   0  0  0  0  0  0  0  0  0  0  0  0
   -3.2227   -0.9715    0.3811 C   0  0  3  0  0  0  0  0  0  0  0  0
   -2.8088   -1.8958    1.5342 C   0  0  0  0  0  0  0  0  0  0  0  0
   -2.7601   -0.9853    2.7474 C   0  0  0  0  0  0  0  0  0  0  0  0
   -2.5693    0.3255    2.2083 N   0  0  0  0  0  0  0  0  0  0  0  0
   -2.8595    0.4132    0.8733 C   0  0  0  0  0  0  0  0  0  0  0  0
   -2.7901    1.4317    0.2110 O   0  0  0  0  0  0  0  0  0  0  0  0
    2.5506   -0.5530   -2.4610 O   0  0  0  0  0  0  0  0  0  0  0  0
    3.4617   -0.4687   -1.3522 C   0  0  0  0  0  0  0  0  0  0  0  0
    4.6921   -1.2901   -1.6155 C   0  0  0  0  0  0  0  0  0  0  0  0
    4.5581   -2.6577   -1.8867 C   0  0  0  0  0  0  0  0  0  0  0  0
    5.6682   -3.4102   -2.2565 C   0  0  0  0  0  0  0  0  0  0  0  0
    6.9147   -2.7971   -2.3724 C   0  0  0  0  0  0  0  0  0  0  0  0
    7.0525   -1.4330   -2.1167 C   0  0  0  0  0  0  0  0  0  0  0  0
    5.9533   -0.6884   -1.6953 C   0  0  0  0  0  0  0  0  0  0  0  0
   -1.6316   -2.2676   -5.7680 C   0  0  0  0  0  0  0  0  0  0  0  0
   -0.5849   -4.3130   -4.6778 C   0  0  0  0  0  0  0  0  0  0  0  0
    2.2374    0.4105   -5.4623 H   0  0  0  0  0  0  0  0  0  0  0  0
    0.0663   -0.1620   -5.2784 H   0  0  0  0  0  0  0  0  0  0  0  0
    1.1739   -2.3574   -5.6038 H   0  0  0  0  0  0  0  0  0  0  0  0
    1.2990   -2.5809   -3.8751 H   0  0  0  0  0  0  0  0  0  0  0  0
   -1.3011   -2.6115   -3.7601 H   0  0  0  0  0  0  0  0  0  0  0  0
   -0.1797   -1.9925   -2.4166 H   0  0  0  0  0  0  0  0  0  0  0  0
   -1.0441    0.2956   -0.8955 H   0  0  0  0  0  0  0  0  0  0  0  0
   -0.2564   -1.1709    0.9740 H   0  0  0  0  0  0  0  0  0  0  0  0
   -3.1393   -0.8342   -1.7528 H   0  0  0  0  0  0  0  0  0  0  0  0
   -2.6045   -2.3791   -1.1355 H   0  0  0  0  0  0  0  0  0  0  0  0
   -4.3132   -1.0035    0.2721 H   0  0  0  0  0  0  0  0  0  0  0  0
   -3.4968   -2.7366    1.6596 H   0  0  0  0  0  0  0  0  0  0  0  0
   -1.8374   -2.3690    1.3790 H   0  0  0  0  0  0  0  0  0  0  0  0
   -3.7003   -1.0057    3.3017 H   0  0  0  0  0  0  0  0  0  0  0  0
   -1.9222   -1.2156    3.4097 H   0  0  0  0  0  0  0  0  0  0  0  0
   -2.3502    1.1662    2.7322 H   0  0  0  0  0  0  0  0  0  0  0  0
    3.6773    0.5792   -1.1130 H   0  0  0  0  0  0  0  0  0  0  0  0
    2.9578   -0.8871   -0.4735 H   0  0  0  0  0  0  0  0  0  0  0  0
    3.5757   -3.1231   -1.8346 H   0  0  0  0  0  0  0  0  0  0  0  0
    5.5529   -4.4661   -2.4804 H   0  0  0  0  0  0  0  0  0  0  0  0
    7.7804   -3.3810   -2.6698 H   0  0  0  0  0  0  0  0  0  0  0  0
    8.0094   -0.9425   -2.2722 H   0  0  0  0  0  0  0  0  0  0  0  0
    6.0735    0.3713   -1.4796 H   0  0  0  0  0  0  0  0  0  0  0  0
   -1.2285   -2.4911   -6.7566 H   0  0  0  0  0  0  0  0  0  0  0  0
   -2.6299   -2.7061   -5.6742 H   0  0  0  0  0  0  0  0  0  0  0  0
   -1.7655   -1.1842   -5.6764 H   0  0  0  0  0  0  0  0  0  0  0  0
    0.0444   -4.6381   -3.8397 H   0  0  0  0  0  0  0  0  0  0  0  0
   -1.5651   -4.7821   -4.5469 H   0  0  0  0  0  0  0  0  0  0  0  0
   -0.1392   -4.6633   -5.6099 H   0  0  0  0  0  0  0  0  0  0  0  0
  1  2  2  0  0  0  0
  1  3  1  0  0  0  0
  1 20  1  0  0  0  0
  3 30  1  0  0  0  0
  4  6  1  0  0  0  0
  4 31  1  6  0  0  0
  4  5  1  0  0  0  0
  4  3  1  0  0  0  0
  5  8  1  0  0  0  0
  5  9  2  0  0  0  0
  6  7  1  0  0  0  0
  6 32  1  0  0  0  0
  6 33  1  0  0  0  0
  7 28  1  0  0  0  0
  7 29  1  0  0  0  0
  7 34  1  0  0  0  0
  8 35  1  0  0  0  0
 10 13  1  0  0  0  0
 10 36  1  1  0  0  0
 10 11  1  0  0  0  0
 10  8  1  0  0  0  0
 11 12  2  0  0  0  0
 11 37  1  0  0  0  0
 13 14  1  0  0  0  0
 13 38  1  0  0  0  0
 13 39  1  0  0  0  0
 14 15  1  0  0  0  0
 14 40  1  0  0  0  0
 15 16  1  0  0  0  0
 15 41  1  0  0  0  0
 15 42  1  0  0  0  0
 16 17  1  0  0  0  0
 16 43  1  0  0  0  0
 16 44  1  0  0  0  0
 17 18  1  0  0  0  0
 17 45  1  0  0  0  0
 18 14  1  0  0  0  0
 18 19  2  0  0  0  0
 20 21  1  0  0  0  0
 21 22  1  0  0  0  0
 21 46  1  0  0  0  0
 21 47  1  0  0  0  0
 22 23  2  0  0  0  0
 23 24  1  0  0  0  0
 23 48  1  0  0  0  0
 24 25  2  0  0  0  0
 24 49  1  0  0  0  0
 25 26  1  0  0  0  0
 25 50  1  0  0  0  0
 26 27  2  0  0  0  0
 26 51  1  0  0  0  0
 27 22  1  0  0  0  0
 27 52  1  0  0  0  0
 28 53  1  0  0  0  0
 28 54  1  0  0  0  0
 28 55  1  0  0  0  0
 29 56  1  0  0  0  0
 29 57  1  0  0  0  0
 29 58  1  0  0  0  0
M  END
>  <DRUGBANK_ID>
DB15797

>  <COMMON_NAME>
GC-373

>  <UNII>
W9SVW656LQ

$$$$
