
 OpenBabel10282417243D

 57 60  0  0  0  0  0  0  0  0999 V2000
    1.0354   -0.0350   -0.0793 C   0  0  0  0  0  0  0  0  0  0  0  0
    0.5745   -0.6495    1.1182 O   0  0  0  0  0  0  0  0  0  0  0  0
    0.8681   -1.9811    1.2752 C   0  0  0  0  0  0  0  0  0  0  0  0
    2.1580   -2.5019    1.1234 C   0  0  0  0  0  0  0  0  0  0  0  0
    2.4449   -3.8565    1.4116 C   0  0  0  0  0  0  0  0  0  0  0  0
    3.7706   -4.1693    1.2172 O   0  0  0  0  0  0  0  0  0  0  0  0
    4.2077   -5.4966    1.4871 C   0  0  0  0  0  0  0  0  0  0  0  0
    1.4008   -4.6930    1.8544 C   0  0  0  0  0  0  0  0  0  0  0  0
    1.6009   -6.4142    2.1495 Cl  0  0  0  0  0  0  0  0  0  0  0  0
    0.0937   -4.1731    2.0506 C   0  0  0  0  0  0  0  0  0  0  0  0
   -0.9649   -5.0532    2.5779 C   0  0  0  0  0  0  0  0  0  0  0  0
   -0.8239   -5.6630    3.8378 C   0  0  0  0  0  0  0  0  0  0  0  0
   -1.7790   -6.5530    4.3211 C   0  0  0  0  0  0  0  0  0  0  0  0
   -2.9314   -6.8029    3.6098 C   0  0  0  0  0  0  0  0  0  0  0  0
   -3.8589   -7.5949    4.1519 N   0  0  0  0  0  0  0  0  0  0  0  0
   -4.9745   -7.7813    3.4469 C   0  0  0  0  0  0  0  0  0  0  0  0
   -5.9148   -8.6755    3.9603 N   0  0  0  0  0  0  0  0  0  0  0  0
   -7.1129   -8.9736    3.2986 C   0  0  0  0  0  0  0  0  0  0  0  0
   -7.0615   -9.6066    2.0144 C   0  0  0  0  0  0  0  0  0  0  0  0
   -5.7769  -10.0169    1.3501 C   0  0  0  0  0  0  0  0  0  0  0  0
   -8.2261   -9.8054    1.2640 C   0  0  0  0  0  0  0  0  0  0  0  0
   -9.3743   -9.1809    1.6645 C   0  0  0  0  0  0  0  0  0  0  0  0
   -9.3030   -8.3413    2.7605 C   0  0  0  0  0  0  0  0  0  0  0  0
   -8.3369   -8.4546    3.7344 C   0  0  0  0  0  0  0  0  0  0  0  0
   -8.6082   -7.9474    5.0317 N   0  0  0  0  0  0  0  0  0  0  0  0
   -9.8067   -7.6297    5.6417 C   0  0  0  0  0  0  0  0  0  0  0  0
   -9.7684   -7.0792    6.7614 O   0  0  0  0  0  0  0  0  0  0  0  0
  -11.1828   -7.7910    5.0335 C   0  0  0  0  0  0  0  0  0  0  0  0
  -11.6667   -8.6461    4.1150 C   0  0  0  0  0  0  0  0  0  0  0  0
   -5.2054   -7.2182    2.2422 N   0  0  0  0  0  0  0  0  0  0  0  0
   -4.2465   -6.4646    1.6999 C   0  0  0  0  0  0  0  0  0  0  0  0
   -3.0719   -6.1990    2.3538 C   0  0  0  0  0  0  0  0  0  0  0  0
   -2.0908   -5.3599    1.8165 C   0  0  0  0  0  0  0  0  0  0  0  0
   -0.1547   -2.8135    1.7514 C   0  0  0  0  0  0  0  0  0  0  0  0
   -1.7444   -2.1291    1.9749 Cl  0  0  0  0  0  0  0  0  0  0  0  0
    0.6451    0.9897   -0.0933 H   0  0  0  0  0  0  0  0  0  0  0  0
    0.6488   -0.5478   -0.9662 H   0  0  0  0  0  0  0  0  0  0  0  0
    2.1253    0.0312   -0.1036 H   0  0  0  0  0  0  0  0  0  0  0  0
    2.9710   -1.8491    0.8121 H   0  0  0  0  0  0  0  0  0  0  0  0
    4.0671   -5.7449    2.5460 H   0  0  0  0  0  0  0  0  0  0  0  0
    3.7195   -6.2032    0.8072 H   0  0  0  0  0  0  0  0  0  0  0  0
    5.2773   -5.5863    1.2899 H   0  0  0  0  0  0  0  0  0  0  0  0
    0.0687   -5.4917    4.4375 H   0  0  0  0  0  0  0  0  0  0  0  0
   -1.6200   -7.0456    5.2760 H   0  0  0  0  0  0  0  0  0  0  0  0
   -5.7877   -8.8887    4.9331 H   0  0  0  0  0  0  0  0  0  0  0  0
   -5.8093  -11.0769    1.0970 H   0  0  0  0  0  0  0  0  0  0  0  0
   -5.6408   -9.4196    0.4389 H   0  0  0  0  0  0  0  0  0  0  0  0
   -4.9003   -9.8664    1.9791 H   0  0  0  0  0  0  0  0  0  0  0  0
   -8.2148  -10.3244    0.3104 H   0  0  0  0  0  0  0  0  0  0  0  0
  -10.3052   -9.2753    1.1182 H   0  0  0  0  0  0  0  0  0  0  0  0
  -10.0602   -7.5820    2.8769 H   0  0  0  0  0  0  0  0  0  0  0  0
   -7.8074   -7.7884    5.6334 H   0  0  0  0  0  0  0  0  0  0  0  0
  -11.8891   -7.0609    5.4243 H   0  0  0  0  0  0  0  0  0  0  0  0
  -12.5890   -8.4297    3.5786 H   0  0  0  0  0  0  0  0  0  0  0  0
  -11.0930   -9.4750    3.7183 H   0  0  0  0  0  0  0  0  0  0  0  0
   -4.4690   -6.0733    0.7119 H   0  0  0  0  0  0  0  0  0  0  0  0
   -2.2216   -4.9259    0.8265 H   0  0  0  0  0  0  0  0  0  0  0  0
  1  2  1  0  0  0  0
  1 36  1  0  0  0  0
  1 37  1  0  0  0  0
  1 38  1  0  0  0  0
  2  3  1  0  0  0  0
  3  4  2  0  0  0  0
  3 34  1  0  0  0  0
  4  5  1  0  0  0  0
  4 39  1  0  0  0  0
  5  6  1  0  0  0  0
  5  8  2  0  0  0  0
  6  7  1  0  0  0  0
  7 40  1  0  0  0  0
  7 41  1  0  0  0  0
  7 42  1  0  0  0  0
  8  9  1  0  0  0  0
  8 10  1  0  0  0  0
 10 11  1  0  0  0  0
 10 34  2  0  0  0  0
 11 12  1  0  0  0  0
 11 33  2  0  0  0  0
 12 13  2  0  0  0  0
 12 43  1  0  0  0  0
 13 14  1  0  0  0  0
 13 44  1  0  0  0  0
 14 15  2  0  0  0  0
 14 32  1  0  0  0  0
 15 16  1  0  0  0  0
 16 17  1  0  0  0  0
 16 30  2  0  0  0  0
 17 18  1  0  0  0  0
 17 45  1  0  0  0  0
 18 19  2  0  0  0  0
 18 24  1  0  0  0  0
 19 20  1  0  0  0  0
 19 21  1  0  0  0  0
 20 46  1  0  0  0  0
 20 47  1  0  0  0  0
 20 48  1  0  0  0  0
 21 22  2  0  0  0  0
 21 49  1  0  0  0  0
 22 23  1  0  0  0  0
 22 50  1  0  0  0  0
 23 24  2  0  0  0  0
 23 51  1  0  0  0  0
 24 25  1  0  0  0  0
 25 26  1  0  0  0  0
 25 52  1  0  0  0  0
 26 27  2  0  0  0  0
 26 28  1  0  0  0  0
 28 29  2  0  0  0  0
 28 53  1  0  0  0  0
 29 54  1  0  0  0  0
 29 55  1  0  0  0  0
 30 31  1  0  0  0  0
 31 32  2  0  0  0  0
 31 56  1  0  0  0  0
 32 33  1  0  0  0  0
 33 57  1  0  0  0  0
 34 35  1  0  0  0  0
M  END
>  <DRUGBANK_ID>
DB17985

>  <COMMON_NAME>
BLU-9931

>  <CAS_NUMBER>
1538604-68-0

>  <UNII>
FQK825B5DX

>  <SYNONYMS>
2-propenamide, n-(2-((6-(2,6-dichloro-3,5-dimethoxyphenyl)-2-quinazolinyl)amino)-3-methylphenyl)-; N-(2-((6-(2,6-dichloro-3,5-dimethoxyphenyl)-2-quinazolinyl)amino)-3-methylphenyl)-2-propenamide

$$$$
