1158
 OpenBabel10282417113D

 30 30  0  0  0  0  0  0  0  0999 V2000
   -1.6101    0.2274   -0.0293 Br  0  0  0  0  0  0  0  0  0  0  0  0
    0.6036   -3.3236   -1.2381 N   0  3  0  0  0  0  0  0  0  0  0  0
    0.2593   -2.4592    0.0154 C   0  0  0  0  0  0  0  0  0  0  0  0
    2.0769   -3.7505   -1.3016 C   0  0  0  0  0  0  0  0  0  0  0  0
   -0.2672   -4.5800   -1.2477 C   0  0  0  0  0  0  0  0  0  0  0  0
    0.2557   -2.5119   -2.4947 C   0  0  0  0  0  0  0  0  0  0  0  0
    0.9678   -1.1201    0.1101 C   0  0  0  0  0  0  0  0  0  0  0  0
    2.5273   -4.4808   -0.0378 C   0  0  0  0  0  0  0  0  0  0  0  0
    0.2852    0.1034    0.0351 C   0  0  0  0  0  0  0  0  0  0  0  0
    2.3734   -1.0628    0.2349 C   0  0  0  0  0  0  0  0  0  0  0  0
    0.9906    1.3143   -0.0018 C   0  0  0  0  0  0  0  0  0  0  0  0
    3.0778    0.1357    0.1287 C   0  0  0  0  0  0  0  0  0  0  0  0
    2.3843    1.3246    0.0112 C   0  0  0  0  0  0  0  0  0  0  0  0
    0.4513   -3.0626    0.9081 H   0  0  0  0  0  0  0  0  0  0  0  0
   -0.8280   -2.3491   -0.0195 H   0  0  0  0  0  0  0  0  0  0  0  0
    2.1960   -4.3999   -2.1756 H   0  0  0  0  0  0  0  0  0  0  0  0
    2.6770   -2.8598   -1.5053 H   0  0  0  0  0  0  0  0  0  0  0  0
   -1.3175   -4.2837   -1.3028 H   0  0  0  0  0  0  0  0  0  0  0  0
    0.0070   -5.1769   -2.1241 H   0  0  0  0  0  0  0  0  0  0  0  0
   -0.0859   -5.1431   -0.3296 H   0  0  0  0  0  0  0  0  0  0  0  0
   -0.8148   -2.2832   -2.4723 H   0  0  0  0  0  0  0  0  0  0  0  0
    0.8429   -1.5901   -2.5044 H   0  0  0  0  0  0  0  0  0  0  0  0
    0.4975   -3.1147   -3.3744 H   0  0  0  0  0  0  0  0  0  0  0  0
    2.0491   -5.4591    0.0492 H   0  0  0  0  0  0  0  0  0  0  0  0
    3.6089   -4.6389   -0.0602 H   0  0  0  0  0  0  0  0  0  0  0  0
    2.3140   -3.9363    0.8860 H   0  0  0  0  0  0  0  0  0  0  0  0
    2.9795   -1.9457    0.3925 H   0  0  0  0  0  0  0  0  0  0  0  0
    0.4614    2.2621   -0.0513 H   0  0  0  0  0  0  0  0  0  0  0  0
    4.1670    0.1299    0.1442 H   0  0  0  0  0  0  0  0  0  0  0  0
    2.9273    2.2658   -0.0479 H   0  0  0  0  0  0  0  0  0  0  0  0
  1  9  1  0  0  0  0
  2  3  1  0  0  0  0
  2  4  1  0  0  0  0
  2  5  1  0  0  0  0
  2  6  1  0  0  0  0
  3  7  1  0  0  0  0
  3 14  1  0  0  0  0
  3 15  1  0  0  0  0
  4  8  1  0  0  0  0
  4 16  1  0  0  0  0
  4 17  1  0  0  0  0
  5 18  1  0  0  0  0
  5 19  1  0  0  0  0
  5 20  1  0  0  0  0
  6 21  1  0  0  0  0
  6 22  1  0  0  0  0
  6 23  1  0  0  0  0
  7  9  1  0  0  0  0
  7 10  2  0  0  0  0
  8 24  1  0  0  0  0
  8 25  1  0  0  0  0
  8 26  1  0  0  0  0
  9 11  2  0  0  0  0
 10 12  1  0  0  0  0
 10 27  1  0  0  0  0
 11 13  1  0  0  0  0
 11 28  1  0  0  0  0
 12 13  2  0  0  0  0
 12 29  1  0  0  0  0
 13 30  1  0  0  0  0
M  CHG  1   2   1
M  END
>  <DRUGBANK_ID>
DB01158

>  <SECONDARY_ACCESSION_NUMBERS>
APRD00830

>  <COMMON_NAME>
Bretylium

>  <CAS_NUMBER>
59-41-6

>  <UNII>
RZR75EQ2KJ

>  <SYNONYMS>
(2-bromobenzyl)ethyldimethylaminium; 2-bromo-N-ethyl-N,N-dimethylbenzenemethanaminium; Bretylium; N-ethyl-N,N-dimethyl-2-bromobenzenemethanaminium

$$$$
