
 OpenBabel10282417103D

 26 25  0  0  0  0  0  0  0  0999 V2000
    1.0664   -0.1242   -0.0150 C   0  0  0  0  0  0  0  0  0  0  0  0
    0.6087    1.0768    0.7974 C   0  0  0  0  0  0  0  0  0  0  0  0
    1.1173    2.3941    0.1911 C   0  0  0  0  0  0  0  0  0  0  0  0
    0.6183    2.6508   -1.2495 C   0  0  0  0  0  0  0  0  0  0  0  0
    1.3764    3.8465   -1.8613 C   0  0  0  0  0  0  0  0  0  0  0  0
   -1.6077    3.7301   -0.3811 C   0  0  0  0  0  0  0  0  0  0  0  0
   -1.2714    5.1356   -0.8223 C   0  0  0  0  0  0  0  0  0  0  0  0
   -0.9361    2.6812   -1.2831 C   0  0  0  0  0  0  0  0  0  0  0  0
    1.8706    3.6505   -3.1009 O   0  0  0  0  0  0  0  0  0  0  0  0
    1.6277    4.9023   -1.2851 O   0  0  0  0  0  0  0  0  0  0  0  0
    0.6800   -0.0946   -1.0380 H   0  0  0  0  0  0  0  0  0  0  0  0
    0.7106   -1.0551    0.4321 H   0  0  0  0  0  0  0  0  0  0  0  0
    2.1590   -0.1495   -0.0631 H   0  0  0  0  0  0  0  0  0  0  0  0
   -0.4844    1.0696    0.8812 H   0  0  0  0  0  0  0  0  0  0  0  0
    0.9796    0.9848    1.8243 H   0  0  0  0  0  0  0  0  0  0  0  0
    0.8184    3.2215    0.8466 H   0  0  0  0  0  0  0  0  0  0  0  0
    2.2131    2.3972    0.2055 H   0  0  0  0  0  0  0  0  0  0  0  0
    0.9229    1.7987   -1.8674 H   0  0  0  0  0  0  0  0  0  0  0  0
   -2.6952    3.5934   -0.3931 H   0  0  0  0  0  0  0  0  0  0  0  0
   -1.3029    3.5990    0.6634 H   0  0  0  0  0  0  0  0  0  0  0  0
   -1.3801    5.2468   -1.9062 H   0  0  0  0  0  0  0  0  0  0  0  0
   -1.8530    5.8999   -0.3086 H   0  0  0  0  0  0  0  0  0  0  0  0
   -0.2534    5.3519   -0.5292 H   0  0  0  0  0  0  0  0  0  0  0  0
   -1.2986    2.7813   -2.3119 H   0  0  0  0  0  0  0  0  0  0  0  0
   -1.3169    1.7007   -0.9576 H   0  0  0  0  0  0  0  0  0  0  0  0
    1.9189    2.7258   -3.3979 H   0  0  0  0  0  0  0  0  0  0  0  0
  1 11  1  0  0  0  0
  1 12  1  0  0  0  0
  1 13  1  0  0  0  0
  2  1  1  0  0  0  0
  2  3  1  0  0  0  0
  2 14  1  0  0  0  0
  2 15  1  0  0  0  0
  3  4  1  0  0  0  0
  3 16  1  0  0  0  0
  3 17  1  0  0  0  0
  4  8  1  0  0  0  0
  4  5  1  0  0  0  0
  4 18  1  0  0  0  0
  5  9  1  0  0  0  0
  5 10  2  0  0  0  0
  6  7  1  0  0  0  0
  6  8  1  0  0  0  0
  6 19  1  0  0  0  0
  6 20  1  0  0  0  0
  7 21  1  0  0  0  0
  7 22  1  0  0  0  0
  7 23  1  0  0  0  0
  8 24  1  0  0  0  0
  8 25  1  0  0  0  0
  9 26  1  0  0  0  0
M  END
>  <DRUGBANK_ID>
DB00313

>  <SECONDARY_ACCESSION_NUMBERS>
APRD00256; DB00510; APRD00066

>  <COMMON_NAME>
Valproic acid

>  <CAS_NUMBER>
99-66-1

>  <UNII>
614OI1Z5WI

>  <SYNONYMS>
2-n-propyl-n-valeric acid; 2-propyl-pentanoic acid; 2-Propylpentanoic Acid; 2-Propylvaleric Acid; 4-heptanecarboxylic acid; acide valproïque; ácido valproico; acidum valproicum; di-n-propylacetic acid; Di-n-propylessigsäure; Dipropylacetic acid; DPA; n-DPA; Valproate; Valproic acid; Valproinsäure; VPA

$$$$
