404
 OpenBabel10282417103D

 35 38  0  0  0  0  0  0  0  0999 V2000
    0.9263   -0.0493   -0.0201 Cl  0  0  0  0  0  0  0  0  0  0  0  0
    6.8581    0.0346    0.1241 N   0  0  0  0  0  0  0  0  0  0  0  0
    6.5000   -2.9976   -0.0068 N   0  0  0  0  0  0  0  0  0  0  0  0
    8.9237   -0.5476    0.6178 N   0  0  0  0  0  0  0  0  0  0  0  0
    8.9499    0.7261    0.1184 N   0  0  0  0  0  0  0  0  0  0  0  0
    5.4459   -0.0163    0.0550 C   0  0  0  0  0  0  0  0  0  0  0  0
    4.7660   -1.2181   -0.2041 C   0  0  0  0  0  0  0  0  0  0  0  0
    7.6771   -0.9690    0.5931 C   0  0  0  0  0  0  0  0  0  0  0  0
    5.4580   -2.5039   -0.5708 C   0  0  0  0  0  0  0  0  0  0  0  0
    7.1571   -2.2700    1.0772 C   0  0  0  0  0  0  0  0  0  0  0  0
    7.7182    1.0759   -0.1928 C   0  0  0  0  0  0  0  0  0  0  0  0
    4.7085    1.1559    0.2939 C   0  0  0  0  0  0  0  0  0  0  0  0
    3.3565   -1.2134   -0.2197 C   0  0  0  0  0  0  0  0  0  0  0  0
    4.8543   -3.2657   -1.6995 C   0  0  0  0  0  0  0  0  0  0  0  0
    3.3161    1.1504    0.2508 C   0  0  0  0  0  0  0  0  0  0  0  0
    2.6444   -0.0361    0.0009 C   0  0  0  0  0  0  0  0  0  0  0  0
    7.3532    2.3313   -0.8962 C   0  0  0  0  0  0  0  0  0  0  0  0
    4.7286   -2.6483   -2.9474 C   0  0  0  0  0  0  0  0  0  0  0  0
    4.2843   -4.5171   -1.4583 C   0  0  0  0  0  0  0  0  0  0  0  0
    3.8989   -3.2184   -3.9100 C   0  0  0  0  0  0  0  0  0  0  0  0
    3.5202   -5.1195   -2.4579 C   0  0  0  0  0  0  0  0  0  0  0  0
    3.2820   -4.4444   -3.6577 C   0  0  0  0  0  0  0  0  0  0  0  0
    6.4846   -2.1428    1.9346 H   0  0  0  0  0  0  0  0  0  0  0  0
    7.9949   -2.8777    1.4386 H   0  0  0  0  0  0  0  0  0  0  0  0
    5.1815    2.0859    0.5879 H   0  0  0  0  0  0  0  0  0  0  0  0
    2.7987   -2.1276   -0.4127 H   0  0  0  0  0  0  0  0  0  0  0  0
    2.7697    2.0719    0.4385 H   0  0  0  0  0  0  0  0  0  0  0  0
    6.8204    2.1190   -1.8289 H   0  0  0  0  0  0  0  0  0  0  0  0
    6.7415    2.9880   -0.2755 H   0  0  0  0  0  0  0  0  0  0  0  0
    8.2507    2.9054   -1.1445 H   0  0  0  0  0  0  0  0  0  0  0  0
    5.2484   -1.7185   -3.1616 H   0  0  0  0  0  0  0  0  0  0  0  0
    4.3992   -4.9990   -0.4912 H   0  0  0  0  0  0  0  0  0  0  0  0
    3.7223   -2.7025   -4.8504 H   0  0  0  0  0  0  0  0  0  0  0  0
    3.0866   -6.1028   -2.2940 H   0  0  0  0  0  0  0  0  0  0  0  0
    2.6179   -4.8782   -4.4017 H   0  0  0  0  0  0  0  0  0  0  0  0
  1 16  1  0  0  0  0
  2  6  1  0  0  0  0
  2  8  1  0  0  0  0
  2 11  1  0  0  0  0
  3  9  2  0  0  0  0
  3 10  1  0  0  0  0
  4  5  1  0  0  0  0
  4  8  2  0  0  0  0
  5 11  2  0  0  0  0
  6  7  2  0  0  0  0
  6 12  1  0  0  0  0
  7  9  1  0  0  0  0
  7 13  1  0  0  0  0
  8 10  1  0  0  0  0
  9 14  1  0  0  0  0
 10 23  1  0  0  0  0
 10 24  1  0  0  0  0
 11 17  1  0  0  0  0
 12 15  2  0  0  0  0
 12 25  1  0  0  0  0
 13 16  2  0  0  0  0
 13 26  1  0  0  0  0
 14 18  2  0  0  0  0
 14 19  1  0  0  0  0
 15 16  1  0  0  0  0
 15 27  1  0  0  0  0
 17 28  1  0  0  0  0
 17 29  1  0  0  0  0
 17 30  1  0  0  0  0
 18 20  1  0  0  0  0
 18 31  1  0  0  0  0
 19 21  2  0  0  0  0
 19 32  1  0  0  0  0
 20 22  2  0  0  0  0
 20 33  1  0  0  0  0
 21 22  1  0  0  0  0
 21 34  1  0  0  0  0
 22 35  1  0  0  0  0
M  END
>  <DRUGBANK_ID>
DB00404

>  <SECONDARY_ACCESSION_NUMBERS>
APRD00280; DB05925; DB05690

>  <COMMON_NAME>
Alprazolam

>  <CAS_NUMBER>
28981-97-7

>  <UNII>
YU55MQ3IZY

>  <SYNONYMS>
8-Chloro-1-methyl-6-phenyl-4H-s-triazolo(4,3-a)(1,4)benzodiazepine; Alprazolam

$$$$
