
 OpenBabel10282417203D

 75 77  0  0  1  0  0  0  0  0999 V2000
    2.0455   -0.9406   -0.8940 C   0  0  0  0  0  0  0  0  0  0  0  0
    2.8606   -0.4204   -2.0673 C   0  0  0  0  0  0  0  0  0  0  0  0
    4.1242    0.1266   -1.6484 O   0  0  0  0  0  0  0  0  0  0  0  0
    4.0560    1.2561   -0.8854 C   0  0  0  0  0  0  0  0  0  0  0  0
    3.0492    1.8304   -0.5523 O   0  0  0  0  0  0  0  0  0  0  0  0
    5.3286    1.6503   -0.5883 O   0  0  0  0  0  0  0  0  0  0  0  0
    5.4142    2.7927    0.2846 C   0  0  0  0  0  0  0  0  0  0  0  0
    4.9605    4.0914   -0.4000 C   0  0  2  0  0  0  0  0  0  0  0  0
    6.1789    4.9845   -0.6731 C   0  0  2  0  0  0  0  0  0  0  0  0
    5.7174    6.2533   -1.3679 C   0  0  1  0  0  0  0  0  0  0  0  0
    4.5749    6.8686   -0.5814 C   0  0  2  0  0  0  0  0  0  0  0  0
    3.4652    5.9465    0.0032 C   0  0  1  0  0  0  0  0  0  0  0  0
    4.0514    4.7429    0.4961 O   0  0  0  0  0  0  0  0  0  0  0  0
    2.5414    6.5158    1.0102 O   0  0  0  0  0  0  0  0  0  0  0  0
    3.0687    6.9862    2.1915 C   0  0  0  0  0  0  0  0  0  0  0  0
    3.9213    8.1004    2.3699 C   0  0  0  0  0  0  0  0  0  0  0  0
    4.2797    8.0416    3.6978 C   0  0  0  0  0  0  0  0  0  0  0  0
    3.3678    7.2311    4.3171 N   0  0  0  0  0  0  0  0  0  0  0  0
    2.6269    6.5224    3.3923 N   0  0  0  0  0  0  0  0  0  0  0  0
    3.3209    7.1365    5.7858 C   0  0  0  0  0  0  0  0  0  0  0  0
    2.0356    7.5758    6.4762 C   0  0  0  0  0  0  0  0  0  0  0  0
    3.8629    5.8341    6.3518 C   0  0  0  0  0  0  0  0  0  0  0  0
    5.3455    8.7694    4.4210 C   0  0  0  0  0  0  0  0  0  0  0  0
    4.5020    8.9931    1.3533 C   0  0  0  0  0  0  0  0  0  0  0  0
    4.1693   10.4189    1.5128 C   0  0  0  0  0  0  0  0  0  0  0  0
    4.4832   11.0422    2.6735 C   0  0  0  0  0  0  0  0  0  0  0  0
    4.4856   12.3728    2.8175 C   0  0  0  0  0  0  0  0  0  0  0  0
    4.0242   13.1857    1.8262 C   0  0  0  0  0  0  0  0  0  0  0  0
    3.6845   12.6038    0.6057 C   0  0  0  0  0  0  0  0  0  0  0  0
    3.7382   11.2119    0.4520 C   0  0  0  0  0  0  0  0  0  0  0  0
    3.8382   14.5129    2.0529 O   0  0  0  0  0  0  0  0  0  0  0  0
    4.0898   14.9785    3.4046 C   0  0  0  0  0  0  0  0  0  0  0  0
    3.1683   14.3685    4.4946 C   0  0  0  0  0  0  0  0  0  0  0  0
    5.5934   14.9589    3.7566 C   0  0  0  0  0  0  0  0  0  0  0  0
    4.0804    7.9760   -1.3491 O   0  0  0  0  0  0  0  0  0  0  0  0
    6.8116    7.1976   -1.4478 O   0  0  0  0  0  0  0  0  0  0  0  0
    7.1566    4.3230   -1.4701 O   0  0  0  0  0  0  0  0  0  0  0  0
    2.6142   -1.6909   -0.3370 H   0  0  0  0  0  0  0  0  0  0  0  0
    1.1041   -1.3804   -1.2340 H   0  0  0  0  0  0  0  0  0  0  0  0
    1.7996   -0.1439   -0.1876 H   0  0  0  0  0  0  0  0  0  0  0  0
    3.0808   -1.2583   -2.7407 H   0  0  0  0  0  0  0  0  0  0  0  0
    2.3039    0.3197   -2.6537 H   0  0  0  0  0  0  0  0  0  0  0  0
    4.8534    2.6001    1.2075 H   0  0  0  0  0  0  0  0  0  0  0  0
    6.4648    2.8755    0.5874 H   0  0  0  0  0  0  0  0  0  0  0  0
    4.4549    3.8726   -1.3505 H   0  0  0  0  0  0  0  0  0  0  0  0
    6.6626    5.2567    0.2753 H   0  0  0  0  0  0  0  0  0  0  0  0
    5.4233    6.0797   -2.4059 H   0  0  0  0  0  0  0  0  0  0  0  0
    5.1258    7.1996    0.2888 H   0  0  0  0  0  0  0  0  0  0  0  0
    2.8235    5.6919   -0.8555 H   0  0  0  0  0  0  0  0  0  0  0  0
    4.0376    7.8850    6.1509 H   0  0  0  0  0  0  0  0  0  0  0  0
    1.2165    6.8962    6.2474 H   0  0  0  0  0  0  0  0  0  0  0  0
    2.1781    7.5834    7.5686 H   0  0  0  0  0  0  0  0  0  0  0  0
    1.7577    8.5974    6.1950 H   0  0  0  0  0  0  0  0  0  0  0  0
    4.8677    5.6268    5.9683 H   0  0  0  0  0  0  0  0  0  0  0  0
    3.9475    5.8972    7.4460 H   0  0  0  0  0  0  0  0  0  0  0  0
    3.2010    5.0049    6.1049 H   0  0  0  0  0  0  0  0  0  0  0  0
    4.8757    9.5352    5.0588 H   0  0  0  0  0  0  0  0  0  0  0  0
    5.9788    8.1580    5.0492 H   0  0  0  0  0  0  0  0  0  0  0  0
    6.0220    9.2216    3.6866 H   0  0  0  0  0  0  0  0  0  0  0  0
    5.5910    8.8490    1.3087 H   0  0  0  0  0  0  0  0  0  0  0  0
    4.0189    8.7916    0.4315 H   0  0  0  0  0  0  0  0  0  0  0  0
    4.7293   10.5747    3.5775 H   0  0  0  0  0  0  0  0  0  0  0  0
    4.8099   12.6451    3.8049 H   0  0  0  0  0  0  0  0  0  0  0  0
    3.3809   13.2148   -0.2341 H   0  0  0  0  0  0  0  0  0  0  0  0
    3.4395   10.7411   -0.4837 H   0  0  0  0  0  0  0  0  0  0  0  0
    3.8115   16.0355    3.3629 H   0  0  0  0  0  0  0  0  0  0  0  0
    3.2655   13.2930    4.6660 H   0  0  0  0  0  0  0  0  0  0  0  0
    3.3677   14.8258    5.4668 H   0  0  0  0  0  0  0  0  0  0  0  0
    2.1157   14.4958    4.2276 H   0  0  0  0  0  0  0  0  0  0  0  0
    6.1646   15.4709    2.9786 H   0  0  0  0  0  0  0  0  0  0  0  0
    5.7710   15.4120    4.7328 H   0  0  0  0  0  0  0  0  0  0  0  0
    6.0637   13.9738    3.8080 H   0  0  0  0  0  0  0  0  0  0  0  0
    3.6762    7.6745   -2.1764 H   0  0  0  0  0  0  0  0  0  0  0  0
    7.0959    7.4401   -0.5463 H   0  0  0  0  0  0  0  0  0  0  0  0
    6.7921    4.1898   -2.3622 H   0  0  0  0  0  0  0  0  0  0  0  0
  1  2  1  0  0  0  0
  1 38  1  0  0  0  0
  1 39  1  0  0  0  0
  1 40  1  0  0  0  0
  2  3  1  0  0  0  0
  2 41  1  0  0  0  0
  2 42  1  0  0  0  0
  3  4  1  0  0  0  0
  4  5  2  0  0  0  0
  4  6  1  0  0  0  0
  6  7  1  0  0  0  0
  7 43  1  0  0  0  0
  7 44  1  0  0  0  0
  8  9  1  0  0  0  0
  8 13  1  0  0  0  0
  8 45  1  6  0  0  0
  8  7  1  0  0  0  0
  9 10  1  0  0  0  0
  9 37  1  0  0  0  0
  9 46  1  1  0  0  0
 10 11  1  0  0  0  0
 10 36  1  0  0  0  0
 10 47  1  6  0  0  0
 11 12  1  0  0  0  0
 11 35  1  0  0  0  0
 11 48  1  1  0  0  0
 12 13  1  0  0  0  0
 12 14  1  0  0  0  0
 12 49  1  6  0  0  0
 14 15  1  0  0  0  0
 15 16  1  0  0  0  0
 15 19  2  0  0  0  0
 16 17  2  0  0  0  0
 16 24  1  0  0  0  0
 17 18  1  0  0  0  0
 17 23  1  0  0  0  0
 18 19  1  0  0  0  0
 18 20  1  0  0  0  0
 20 21  1  0  0  0  0
 20 22  1  0  0  0  0
 20 50  1  0  0  0  0
 21 51  1  0  0  0  0
 21 52  1  0  0  0  0
 21 53  1  0  0  0  0
 22 54  1  0  0  0  0
 22 55  1  0  0  0  0
 22 56  1  0  0  0  0
 23 57  1  0  0  0  0
 23 58  1  0  0  0  0
 23 59  1  0  0  0  0
 24 25  1  0  0  0  0
 24 60  1  0  0  0  0
 24 61  1  0  0  0  0
 25 26  2  0  0  0  0
 25 30  1  0  0  0  0
 26 27  1  0  0  0  0
 26 62  1  0  0  0  0
 27 28  2  0  0  0  0
 27 63  1  0  0  0  0
 28 29  1  0  0  0  0
 28 31  1  0  0  0  0
 29 30  2  0  0  0  0
 29 64  1  0  0  0  0
 30 65  1  0  0  0  0
 31 32  1  0  0  0  0
 32 33  1  0  0  0  0
 32 34  1  0  0  0  0
 32 66  1  0  0  0  0
 33 67  1  0  0  0  0
 33 68  1  0  0  0  0
 33 69  1  0  0  0  0
 34 70  1  0  0  0  0
 34 71  1  0  0  0  0
 34 72  1  0  0  0  0
 35 73  1  0  0  0  0
 36 74  1  0  0  0  0
 37 75  1  0  0  0  0
M  END
>  <DRUGBANK_ID>
DB12935

>  <COMMON_NAME>
Remogliflozin etabonate

>  <CAS_NUMBER>
442201-24-3

>  <UNII>
TR0QT6QSUL

>  <SYNONYMS>
Remogliflozin etabonate

$$$$
