
 OpenBabel10282417153D

 76 77  0  0  1  0  0  0  0  0999 V2000
    1.0895    0.1631    0.0209 O   0  0  0  0  0  0  0  0  0  0  0  0
    2.3132    0.0592    0.0215 C   0  0  0  0  0  0  0  0  0  0  0  0
    3.0701    0.8609   -0.7951 N   0  0  0  0  0  0  0  0  0  0  0  0
    3.0801   -0.8915    0.9731 C   0  0  1  0  0  0  0  0  0  0  0  0
    2.7243   -0.6079    2.4045 N   0  0  0  0  0  0  0  0  0  0  0  0
    2.0580   -1.4955    3.2465 C   0  0  0  0  0  0  0  0  0  0  0  0
    1.7745   -1.0554    4.6971 C   0  0  1  0  0  0  0  0  0  0  0  0
    0.3193   -1.2939    5.0066 N   0  0  0  0  0  0  0  0  0  0  0  0
   -0.1560   -2.2662    5.8847 C   0  0  0  0  0  0  0  0  0  0  0  0
   -1.6801   -2.3974    6.0849 C   0  0  1  0  0  0  0  0  0  0  0  0
   -2.0857   -3.8325    5.9451 N   0  0  0  0  0  0  0  0  0  0  0  0
   -2.5290   -4.6299    6.9990 C   0  0  0  0  0  0  0  0  0  0  0  0
   -2.9605   -6.0835    6.6862 C   0  0  1  0  0  0  0  0  0  0  0  0
   -2.3168   -7.0289    7.6337 N   0  0  0  0  0  0  0  0  0  0  0  0
   -3.0302   -7.7596    8.5806 C   0  0  0  0  0  0  0  0  0  0  0  0
   -2.2093   -8.5274    9.6104 C   0  0  1  0  0  0  0  0  0  0  0  0
   -2.5548   -8.2238   11.0056 N   0  0  0  0  0  0  0  0  0  0  0  0
   -2.9004   -6.9536   11.4162 C   0  0  0  0  0  0  0  0  0  0  0  0
   -3.2917   -6.7290   12.8561 C   0  0  0  0  0  0  0  0  0  0  0  0
   -2.9267   -5.9960   10.6435 O   0  0  0  0  0  0  0  0  0  0  0  0
   -2.4211   -9.4111   11.8328 C   0  0  0  0  0  0  0  0  0  0  0  0
   -2.2793  -10.5811   10.8621 C   0  0  0  0  0  0  0  0  0  0  0  0
   -2.6556   -9.9982    9.5124 C   0  0  0  0  0  0  0  0  0  0  0  0
   -4.2563   -7.8618    8.6199 O   0  0  0  0  0  0  0  0  0  0  0  0
   -4.4980   -6.1167    6.7903 C   0  0  0  0  0  0  0  0  0  0  0  0
   -5.2124   -5.2835    5.8127 C   0  0  0  0  0  0  0  0  0  0  0  0
   -6.1074   -5.6242    4.8316 C   0  0  0  0  0  0  0  0  0  0  0  0
   -6.4786   -4.5144    4.1271 N   0  0  0  0  0  0  0  0  0  0  0  0
   -5.8707   -3.5082    4.7145 C   0  0  0  0  0  0  0  0  0  0  0  0
   -5.1500   -3.9184    5.7930 N   0  0  0  0  0  0  0  0  0  0  0  0
   -2.7232   -4.1738    8.1226 O   0  0  0  0  0  0  0  0  0  0  0  0
   -1.9752   -1.8026    7.4803 C   0  0  0  0  0  0  0  0  0  0  0  0
   -1.6296   -0.4247    7.5655 O   0  0  0  0  0  0  0  0  0  0  0  0
    0.5824   -2.9731    6.5698 O   0  0  0  0  0  0  0  0  0  0  0  0
    2.7216   -1.8706    5.6055 C   0  0  0  0  0  0  0  0  0  0  0  0
    4.5026   -1.5829    5.3769 S   0  0  0  0  0  0  0  0  0  0  0  0
    1.7468   -2.6412    2.9209 O   0  0  0  0  0  0  0  0  0  0  0  0
    2.8142   -2.3424    0.5784 C   0  0  0  0  0  0  0  0  0  0  0  0
    3.1996   -2.6991   -0.8213 C   0  0  0  0  0  0  0  0  0  0  0  0
    4.1049   -3.7052   -0.9382 N   0  0  0  0  0  0  0  0  0  0  0  0
    2.7346   -2.1508   -1.8219 O   0  0  0  0  0  0  0  0  0  0  0  0
    4.0624    0.7432   -0.9497 H   0  0  0  0  0  0  0  0  0  0  0  0
    2.5632    1.3704   -1.5124 H   0  0  0  0  0  0  0  0  0  0  0  0
    4.1534   -0.6733    0.8794 H   0  0  0  0  0  0  0  0  0  0  0  0
    2.8606    0.3524    2.7039 H   0  0  0  0  0  0  0  0  0  0  0  0
    1.9502    0.0208    4.8082 H   0  0  0  0  0  0  0  0  0  0  0  0
   -0.3399   -0.8472    4.3753 H   0  0  0  0  0  0  0  0  0  0  0  0
   -2.2016   -1.8226    5.3101 H   0  0  0  0  0  0  0  0  0  0  0  0
   -1.8479   -4.2793    5.0653 H   0  0  0  0  0  0  0  0  0  0  0  0
   -2.6219   -6.3554    5.6804 H   0  0  0  0  0  0  0  0  0  0  0  0
   -1.3286   -6.8792    7.8022 H   0  0  0  0  0  0  0  0  0  0  0  0
   -1.1288   -8.4254    9.4654 H   0  0  0  0  0  0  0  0  0  0  0  0
   -2.6643   -5.9279   13.2582 H   0  0  0  0  0  0  0  0  0  0  0  0
   -4.3389   -6.4092   12.9005 H   0  0  0  0  0  0  0  0  0  0  0  0
   -3.1707   -7.6056   13.4891 H   0  0  0  0  0  0  0  0  0  0  0  0
   -3.2882   -9.5214   12.4878 H   0  0  0  0  0  0  0  0  0  0  0  0
   -1.5172   -9.3104   12.4437 H   0  0  0  0  0  0  0  0  0  0  0  0
   -2.9229  -11.4221   11.1411 H   0  0  0  0  0  0  0  0  0  0  0  0
   -1.2472  -10.9433   10.8323 H   0  0  0  0  0  0  0  0  0  0  0  0
   -3.7480  -10.0773    9.3994 H   0  0  0  0  0  0  0  0  0  0  0  0
   -2.2144  -10.5286    8.6643 H   0  0  0  0  0  0  0  0  0  0  0  0
   -4.8354   -7.1470    6.6225 H   0  0  0  0  0  0  0  0  0  0  0  0
   -4.8219   -5.8036    7.7946 H   0  0  0  0  0  0  0  0  0  0  0  0
   -6.4764   -6.6162    4.6019 H   0  0  0  0  0  0  0  0  0  0  0  0
   -5.9148   -2.4722    4.4164 H   0  0  0  0  0  0  0  0  0  0  0  0
   -4.6106   -3.3326    6.4202 H   0  0  0  0  0  0  0  0  0  0  0  0
   -3.0456   -1.8822    7.6999 H   0  0  0  0  0  0  0  0  0  0  0  0
   -1.4166   -2.3335    8.2635 H   0  0  0  0  0  0  0  0  0  0  0  0
   -0.6679   -0.4032    7.7246 H   0  0  0  0  0  0  0  0  0  0  0  0
    2.5018   -1.6399    6.6522 H   0  0  0  0  0  0  0  0  0  0  0  0
    2.5607   -2.9449    5.4419 H   0  0  0  0  0  0  0  0  0  0  0  0
    4.5813   -2.1223    4.1515 H   0  0  0  0  0  0  0  0  0  0  0  0
    3.3562   -3.0032    1.2674 H   0  0  0  0  0  0  0  0  0  0  0  0
    1.7425   -2.5647    0.6540 H   0  0  0  0  0  0  0  0  0  0  0  0
    4.3034   -4.0385   -1.8724 H   0  0  0  0  0  0  0  0  0  0  0  0
    4.4253   -4.2593   -0.1534 H   0  0  0  0  0  0  0  0  0  0  0  0
  1  2  2  0  0  0  0
  2  3  1  0  0  0  0
  3 42  1  0  0  0  0
  3 43  1  0  0  0  0
  4  2  1  0  0  0  0
  4  5  1  0  0  0  0
  4 38  1  0  0  0  0
  4 44  1  6  0  0  0
  5  6  1  0  0  0  0
  5 45  1  0  0  0  0
  6 37  2  0  0  0  0
  7  6  1  0  0  0  0
  7  8  1  0  0  0  0
  7 35  1  0  0  0  0
  7 46  1  1  0  0  0
  8  9  1  0  0  0  0
  8 47  1  0  0  0  0
  9 34  2  0  0  0  0
 10  9  1  0  0  0  0
 10 11  1  0  0  0  0
 10 32  1  0  0  0  0
 10 48  1  6  0  0  0
 11 12  1  0  0  0  0
 11 49  1  0  0  0  0
 12 31  2  0  0  0  0
 13 12  1  0  0  0  0
 13 14  1  0  0  0  0
 13 25  1  0  0  0  0
 13 50  1  6  0  0  0
 14 15  1  0  0  0  0
 14 51  1  0  0  0  0
 15 24  2  0  0  0  0
 16 15  1  0  0  0  0
 16 17  1  0  0  0  0
 16 23  1  0  0  0  0
 16 52  1  6  0  0  0
 17 18  1  0  0  0  0
 17 21  1  0  0  0  0
 18 19  1  0  0  0  0
 18 20  2  0  0  0  0
 19 53  1  0  0  0  0
 19 54  1  0  0  0  0
 19 55  1  0  0  0  0
 21 22  1  0  0  0  0
 21 56  1  0  0  0  0
 21 57  1  0  0  0  0
 22 23  1  0  0  0  0
 22 58  1  0  0  0  0
 22 59  1  0  0  0  0
 23 60  1  0  0  0  0
 23 61  1  0  0  0  0
 25 26  1  0  0  0  0
 25 62  1  0  0  0  0
 25 63  1  0  0  0  0
 26 27  2  0  0  0  0
 26 30  1  0  0  0  0
 27 28  1  0  0  0  0
 27 64  1  0  0  0  0
 28 29  2  0  0  0  0
 29 30  1  0  0  0  0
 29 65  1  0  0  0  0
 30 66  1  0  0  0  0
 32 33  1  0  0  0  0
 32 67  1  0  0  0  0
 32 68  1  0  0  0  0
 33 69  1  0  0  0  0
 35 36  1  0  0  0  0
 35 70  1  0  0  0  0
 35 71  1  0  0  0  0
 36 72  1  0  0  0  0
 38 39  1  0  0  0  0
 38 73  1  0  0  0  0
 38 74  1  0  0  0  0
 39 40  1  0  0  0  0
 39 41  2  0  0  0  0
 40 75  1  0  0  0  0
 40 76  1  0  0  0  0
M  END
>  <DRUGBANK_ID>
DB05491

>  <COMMON_NAME>
ATN-161

>  <CAS_NUMBER>
262438-43-7

>  <UNII>
XW0H5LE42K

$$$$
