887
 OpenBabel10282417113D

 45 46  0  0  0  0  0  0  0  0999 V2000
    1.0431   -0.0348    0.0525 S   0  0  0  0  0  0  0  0  0  0  0  0
    2.7769   -2.4988   -0.0575 O   0  0  0  0  0  0  0  0  0  0  0  0
    0.6629    0.5608    1.3219 O   0  0  0  0  0  0  0  0  0  0  0  0
    0.6183    0.5229   -1.2029 O   0  0  0  0  0  0  0  0  0  0  0  0
    6.8953    2.4195    0.6994 O   0  0  0  0  0  0  0  0  0  0  0  0
    4.9326    3.4963    0.5968 O   0  0  0  0  0  0  0  0  0  0  0  0
    5.7793   -2.4138    0.2765 N   0  0  0  0  0  0  0  0  0  0  0  0
    0.4308   -1.5916    0.1171 N   0  0  0  0  0  0  0  0  0  0  0  0
    7.2248   -2.4865    0.4391 C   0  0  0  0  0  0  0  0  0  0  0  0
    7.6158   -3.0891    1.7945 C   0  0  0  0  0  0  0  0  0  0  0  0
    4.9727   -1.3004    0.1035 C   0  0  0  0  0  0  0  0  0  0  0  0
    3.5505   -1.3550    0.0525 C   0  0  0  0  0  0  0  0  0  0  0  0
    2.8253   -0.1362    0.0390 C   0  0  0  0  0  0  0  0  0  0  0  0
    7.1529   -4.5183    1.9804 C   0  0  0  0  0  0  0  0  0  0  0  0
    5.5834   -0.0363    0.1295 C   0  0  0  0  0  0  0  0  0  0  0  0
    4.8777    1.1578    0.2067 C   0  0  0  0  0  0  0  0  0  0  0  0
    3.4887    1.1088    0.1054 C   0  0  0  0  0  0  0  0  0  0  0  0
    7.5442   -5.4681    0.8580 C   0  0  0  0  0  0  0  0  0  0  0  0
    3.2602   -3.7697    0.0787 C   0  0  0  0  0  0  0  0  0  0  0  0
    5.5592    2.4565    0.4928 C   0  0  0  0  0  0  0  0  0  0  0  0
    3.7559   -4.2403    1.2896 C   0  0  0  0  0  0  0  0  0  0  0  0
    3.2156   -4.6248   -1.0251 C   0  0  0  0  0  0  0  0  0  0  0  0
    4.2911   -5.5341    1.3600 C   0  0  0  0  0  0  0  0  0  0  0  0
    3.7633   -5.9098   -0.9457 C   0  0  0  0  0  0  0  0  0  0  0  0
    4.3685   -6.3348    0.2276 C   0  0  0  0  0  0  0  0  0  0  0  0
    7.3679    1.5724    0.6844 H   0  0  0  0  0  0  0  0  0  0  0  0
    5.3985   -3.2784   -0.0881 H   0  0  0  0  0  0  0  0  0  0  0  0
    0.7892   -2.1132    0.9161 H   0  0  0  0  0  0  0  0  0  0  0  0
   -0.5860   -1.5976    0.0533 H   0  0  0  0  0  0  0  0  0  0  0  0
    7.6071   -3.0904   -0.3866 H   0  0  0  0  0  0  0  0  0  0  0  0
    7.7291   -1.5273    0.3584 H   0  0  0  0  0  0  0  0  0  0  0  0
    8.7004   -3.0579    1.9172 H   0  0  0  0  0  0  0  0  0  0  0  0
    7.1700   -2.4901    2.6013 H   0  0  0  0  0  0  0  0  0  0  0  0
    7.4392   -4.9401    2.9489 H   0  0  0  0  0  0  0  0  0  0  0  0
    6.0902   -4.3992    2.0585 H   0  0  0  0  0  0  0  0  0  0  0  0
    6.6565    0.0004    0.0718 H   0  0  0  0  0  0  0  0  0  0  0  0
    2.9192    2.0403    0.0944 H   0  0  0  0  0  0  0  0  0  0  0  0
    8.6308   -5.5528    0.7981 H   0  0  0  0  0  0  0  0  0  0  0  0
    7.1388   -6.4704    1.0264 H   0  0  0  0  0  0  0  0  0  0  0  0
    7.1700   -5.1415   -0.1180 H   0  0  0  0  0  0  0  0  0  0  0  0
    3.8915   -3.5515    2.1228 H   0  0  0  0  0  0  0  0  0  0  0  0
    2.7967   -4.2810   -1.9660 H   0  0  0  0  0  0  0  0  0  0  0  0
    4.7894   -5.8719    2.2689 H   0  0  0  0  0  0  0  0  0  0  0  0
    3.7303   -6.5833   -1.7967 H   0  0  0  0  0  0  0  0  0  0  0  0
    4.9360   -7.2631    0.2567 H   0  0  0  0  0  0  0  0  0  0  0  0
  1  3  2  0  0  0  0
  1  4  2  0  0  0  0
  1  8  1  0  0  0  0
  1 13  1  0  0  0  0
  2 12  1  0  0  0  0
  2 19  1  0  0  0  0
  5 20  1  0  0  0  0
  5 26  1  0  0  0  0
  6 20  2  0  0  0  0
  7  9  1  0  0  0  0
  7 11  1  0  0  0  0
  7 27  1  0  0  0  0
  8 28  1  0  0  0  0
  8 29  1  0  0  0  0
  9 10  1  0  0  0  0
  9 30  1  0  0  0  0
  9 31  1  0  0  0  0
 10 14  1  0  0  0  0
 10 32  1  0  0  0  0
 10 33  1  0  0  0  0
 11 12  2  0  0  0  0
 11 15  1  0  0  0  0
 12 13  1  0  0  0  0
 13 17  2  0  0  0  0
 14 18  1  0  0  0  0
 14 34  1  0  0  0  0
 14 35  1  0  0  0  0
 15 16  2  0  0  0  0
 15 36  1  0  0  0  0
 16 17  1  0  0  0  0
 16 20  1  0  0  0  0
 17 37  1  0  0  0  0
 18 38  1  0  0  0  0
 18 39  1  0  0  0  0
 18 40  1  0  0  0  0
 19 21  2  0  0  0  0
 19 22  1  0  0  0  0
 21 23  1  0  0  0  0
 21 41  1  0  0  0  0
 22 24  2  0  0  0  0
 22 42  1  0  0  0  0
 23 25  2  0  0  0  0
 23 43  1  0  0  0  0
 24 25  1  0  0  0  0
 24 44  1  0  0  0  0
 25 45  1  0  0  0  0
M  END
>  <DRUGBANK_ID>
DB00887

>  <SECONDARY_ACCESSION_NUMBERS>
APRD00294

>  <COMMON_NAME>
Bumetanide

>  <CAS_NUMBER>
28395-03-1

>  <UNII>
0Y2S3XUQ5H

>  <SYNONYMS>
3-(aminosulfonyl)-5-(butylamino)-4-phenoxybenzoic acid; 3-butylamino-4-(phenoxy)-5-sulfamoylbenzoic acid; 3-butylamino-4-phenoxy-5-sulfamoyl-benzoic acid; 3-butylamino-4-phenoxy-5-sulfamoylbenzoic acid; Bumetanida; Bumetanide; Bumetanidum

$$$$
