850
 OpenBabel10282417113D

 53 56  0  0  0  0  0  0  0  0999 V2000
    1.3196    0.9346   -0.8164 Cl  0  0  0  0  0  0  0  0  0  0  0  0
    7.3973    0.2806    0.2077 S   0  0  0  0  0  0  0  0  0  0  0  0
   -0.5443   -3.9725   -1.7462 O   0  0  0  0  0  0  0  0  0  0  0  0
    2.1068   -2.8297    0.6188 N   0  0  0  0  0  0  0  0  0  0  0  0
   -0.7459   -2.9608    1.2621 N   0  0  0  0  0  0  0  0  0  0  0  0
    5.5482   -2.3011   -0.0419 N   0  0  0  0  0  0  0  0  0  0  0  0
    1.2022   -1.6985    0.5892 C   0  0  0  0  0  0  0  0  0  0  0  0
    1.4319   -4.0900    0.4169 C   0  0  0  0  0  0  0  0  0  0  0  0
   -0.0024   -1.7287    1.4794 C   0  0  0  0  0  0  0  0  0  0  0  0
    0.1805   -4.1193    1.3212 C   0  0  0  0  0  0  0  0  0  0  0  0
    2.9800   -2.7535    1.7643 C   0  0  0  0  0  0  0  0  0  0  0  0
    4.0900   -3.7350    1.5069 C   0  0  0  0  0  0  0  0  0  0  0  0
   -1.6519   -2.8340    0.0987 C   0  0  0  0  0  0  0  0  0  0  0  0
    4.7116   -3.5349    0.1031 C   0  0  0  0  0  0  0  0  0  0  0  0
   -1.1511   -2.7522   -1.3679 C   0  0  0  0  0  0  0  0  0  0  0  0
    4.9485   -0.9939   -0.1900 C   0  0  0  0  0  0  0  0  0  0  0  0
    6.9651   -2.5081    0.0630 C   0  0  0  0  0  0  0  0  0  0  0  0
    5.6499    0.1832    0.0547 C   0  0  0  0  0  0  0  0  0  0  0  0
    7.8503   -1.4178    0.0965 C   0  0  0  0  0  0  0  0  0  0  0  0
    3.6250   -0.7428   -0.6351 C   0  0  0  0  0  0  0  0  0  0  0  0
    7.5793   -3.7861    0.0799 C   0  0  0  0  0  0  0  0  0  0  0  0
    5.0460    1.4648    0.1398 C   0  0  0  0  0  0  0  0  0  0  0  0
    9.2408   -1.5867    0.0844 C   0  0  0  0  0  0  0  0  0  0  0  0
    2.9936    0.5496   -0.4774 C   0  0  0  0  0  0  0  0  0  0  0  0
    8.9725   -3.9494    0.0837 C   0  0  0  0  0  0  0  0  0  0  0  0
    3.6785    1.6102   -0.0036 C   0  0  0  0  0  0  0  0  0  0  0  0
    9.8013   -2.8486    0.0748 C   0  0  0  0  0  0  0  0  0  0  0  0
   -0.3959   -4.4253   -0.9040 H   0  0  0  0  0  0  0  0  0  0  0  0
    1.7380   -0.8361    0.9563 H   0  0  0  0  0  0  0  0  0  0  0  0
    0.9369   -1.5394   -0.4535 H   0  0  0  0  0  0  0  0  0  0  0  0
    1.3251   -4.1513   -0.6662 H   0  0  0  0  0  0  0  0  0  0  0  0
    2.0302   -4.9940    0.5812 H   0  0  0  0  0  0  0  0  0  0  0  0
    0.3710   -1.6511    2.5086 H   0  0  0  0  0  0  0  0  0  0  0  0
   -0.6038   -0.8224    1.3258 H   0  0  0  0  0  0  0  0  0  0  0  0
    0.5834   -4.1375    2.3479 H   0  0  0  0  0  0  0  0  0  0  0  0
   -0.3569   -5.0629    1.2263 H   0  0  0  0  0  0  0  0  0  0  0  0
    2.4374   -2.9174    2.6965 H   0  0  0  0  0  0  0  0  0  0  0  0
    3.4236   -1.7567    1.8523 H   0  0  0  0  0  0  0  0  0  0  0  0
    3.6848   -4.7547    1.5798 H   0  0  0  0  0  0  0  0  0  0  0  0
    4.8217   -3.6716    2.3122 H   0  0  0  0  0  0  0  0  0  0  0  0
   -2.3071   -3.7057    0.1630 H   0  0  0  0  0  0  0  0  0  0  0  0
   -2.2877   -1.9551    0.2684 H   0  0  0  0  0  0  0  0  0  0  0  0
    4.0053   -3.6103   -0.7331 H   0  0  0  0  0  0  0  0  0  0  0  0
    5.2566   -4.4693   -0.0425 H   0  0  0  0  0  0  0  0  0  0  0  0
   -1.9846   -2.6221   -2.0599 H   0  0  0  0  0  0  0  0  0  0  0  0
   -0.4787   -1.9207   -1.5816 H   0  0  0  0  0  0  0  0  0  0  0  0
    3.0753   -1.5624   -1.0582 H   0  0  0  0  0  0  0  0  0  0  0  0
    7.0388   -4.7227    0.0703 H   0  0  0  0  0  0  0  0  0  0  0  0
    5.6304    2.3539    0.2821 H   0  0  0  0  0  0  0  0  0  0  0  0
    9.8854   -0.7133    0.0837 H   0  0  0  0  0  0  0  0  0  0  0  0
    9.3970   -4.9502    0.0786 H   0  0  0  0  0  0  0  0  0  0  0  0
    3.2049    2.5778    0.1578 H   0  0  0  0  0  0  0  0  0  0  0  0
   10.8801   -2.9514    0.0669 H   0  0  0  0  0  0  0  0  0  0  0  0
  1 24  1  0  0  0  0
  2 18  1  0  0  0  0
  2 19  1  0  0  0  0
  3 15  1  0  0  0  0
  3 28  1  0  0  0  0
  4  7  1  0  0  0  0
  4  8  1  0  0  0  0
  4 11  1  0  0  0  0
  5  9  1  0  0  0  0
  5 10  1  0  0  0  0
  5 13  1  0  0  0  0
  6 14  1  0  0  0  0
  6 16  1  0  0  0  0
  6 17  1  0  0  0  0
  7  9  1  0  0  0  0
  7 29  1  0  0  0  0
  7 30  1  0  0  0  0
  8 10  1  0  0  0  0
  8 31  1  0  0  0  0
  8 32  1  0  0  0  0
  9 33  1  0  0  0  0
  9 34  1  0  0  0  0
 10 35  1  0  0  0  0
 10 36  1  0  0  0  0
 11 12  1  0  0  0  0
 11 37  1  0  0  0  0
 11 38  1  0  0  0  0
 12 14  1  0  0  0  0
 12 39  1  0  0  0  0
 12 40  1  0  0  0  0
 13 15  1  0  0  0  0
 13 41  1  0  0  0  0
 13 42  1  0  0  0  0
 14 43  1  0  0  0  0
 14 44  1  0  0  0  0
 15 45  1  0  0  0  0
 15 46  1  0  0  0  0
 16 18  2  0  0  0  0
 16 20  1  0  0  0  0
 17 19  1  0  0  0  0
 17 21  2  0  0  0  0
 18 22  1  0  0  0  0
 19 23  2  0  0  0  0
 20 24  2  0  0  0  0
 20 47  1  0  0  0  0
 21 25  1  0  0  0  0
 21 48  1  0  0  0  0
 22 26  2  0  0  0  0
 22 49  1  0  0  0  0
 23 27  1  0  0  0  0
 23 50  1  0  0  0  0
 24 26  1  0  0  0  0
 25 27  2  0  0  0  0
 25 51  1  0  0  0  0
 26 52  1  0  0  0  0
 27 53  1  0  0  0  0
M  END
>  <DRUGBANK_ID>
DB00850

>  <SECONDARY_ACCESSION_NUMBERS>
APRD00429

>  <COMMON_NAME>
Perphenazine

>  <CAS_NUMBER>
58-39-9

>  <UNII>
FTA7XXY4EZ

>  <SYNONYMS>
2-(4-[3-(2-chloro-10H-phenothiazin-10-yl)propyl]-1-piperazinyl)ethanol; 2-chloro-10-(3-(4-(2-hydroxyethyl)piperazin-1-yl)propyl)phenothiazine; 4-[3-(2-chloro-10H-phenothiazin-10-yl)propyl]-1-piperazineethanol; 4-[3-(2-chlorophenothiazin-10-yl)propyl]-1-piperazineethanol; Chlorpiprazine; Etaperazin; Etaperazine; Ethaperazine; Perfenazina; Perfenazine; Perphenazin; Perphénazine; Perphenazine; Perphenazinum; γ-(4-(β-hydroxyethyl)piperazin-1-yl)propyl-2-chlorophenothiazine

$$$$
