
 OpenBabel10282417203D

172172  0  0  1  0  0  0  0  0999 V2000
   -0.1497    7.0236   -3.7807 C   0  0  0  0  0  0  0  0  0  0  0  0
   -0.9967    7.5342   -2.6764 C   0  0  1  0  0  0  0  0  0  0  0  0
   -2.2772    6.5142   -2.2673 C   0  0  0  0  0  0  0  0  0  0  0  0
   -2.5090    6.0663   -1.1448 O   0  0  0  0  0  0  0  0  0  0  0  0
   -3.3317    6.2999   -3.1272 N   0  0  0  0  0  0  0  0  0  0  0  0
   -3.5653    6.9374   -4.4058 C   0  0  1  0  0  0  0  0  0  0  0  0
   -3.2637    5.8809   -5.4733 C   0  0  0  0  0  0  0  0  0  0  0  0
   -4.4608    4.9774   -5.5844 C   0  0  0  0  0  0  0  0  0  0  0  0
   -5.4035    5.8449   -6.4274 C   0  0  0  0  0  0  0  0  0  0  0  0
   -4.2747    3.6631   -6.2468 C   0  0  0  0  0  0  0  0  0  0  0  0
   -4.8867    7.9103   -4.5537 C   0  0  0  0  0  0  0  0  0  0  0  0
   -4.8662    8.9911   -5.1606 O   0  0  0  0  0  0  0  0  0  0  0  0
   -6.1630    7.4893   -4.2759 N   0  0  0  0  0  0  0  0  0  0  0  0
   -6.6163    6.1129   -3.8726 C   0  0  1  0  0  0  0  0  0  0  0  0
   -7.1268    6.1487   -2.4800 C   0  0  0  0  0  0  0  0  0  0  0  0
   -8.4827    6.6920   -2.5798 C   0  0  0  0  0  0  0  0  0  0  0  0
   -9.3837    5.8652   -2.5232 O   0  0  0  0  0  0  0  0  0  0  0  0
   -8.6002    8.0220   -2.9713 N   0  0  0  0  0  0  0  0  0  0  0  0
   -7.4552    5.0091   -4.8701 C   0  0  0  0  0  0  0  0  0  0  0  0
   -7.0746    3.8595   -5.1097 O   0  0  0  0  0  0  0  0  0  0  0  0
   -8.4450    5.4647   -5.7152 N   0  0  0  0  0  0  0  0  0  0  0  0
   -9.1763    6.6719   -5.4760 C   0  0  1  0  0  0  0  0  0  0  0  0
   -9.1726    7.8213   -6.4636 C   0  0  0  0  0  0  0  0  0  0  0  0
   -9.7592    7.5262   -7.6940 O   0  0  0  0  0  0  0  0  0  0  0  0
  -10.5587    6.4054   -4.8353 C   0  0  0  0  0  0  0  0  0  0  0  0
  -11.0285    7.0733   -3.9162 O   0  0  0  0  0  0  0  0  0  0  0  0
  -11.3499    5.4673   -5.4278 N   0  0  0  0  0  0  0  0  0  0  0  0
  -11.2456    5.2147   -6.8545 C   0  0  1  0  0  0  0  0  0  0  0  0
  -11.1833    3.7401   -7.1446 C   0  0  0  0  0  0  0  0  0  0  0  0
  -12.3730    3.1062   -6.7315 O   0  0  0  0  0  0  0  0  0  0  0  0
  -12.2531    6.0046   -7.6870 C   0  0  0  0  0  0  0  0  0  0  0  0
  -12.0155    6.7507   -8.6229 O   0  0  0  0  0  0  0  0  0  0  0  0
  -13.5266    5.7654   -7.3343 O   0  0  0  0  0  0  0  0  0  0  0  0
   -0.0644    8.4330   -1.4726 N   0  0  0  0  0  0  0  0  0  0  0  0
    0.0935    9.7130   -0.7111 C   0  0  0  0  0  0  0  0  0  0  0  0
    0.7168    9.7339    0.3525 O   0  0  0  0  0  0  0  0  0  0  0  0
   -0.5239   11.1179   -1.2069 C   0  0  2  0  0  0  0  0  0  0  0  0
    0.5973   11.8947   -1.9811 C   0  0  0  0  0  0  0  0  0  0  0  0
    0.2414   11.8778   -3.4511 C   0  0  0  0  0  0  0  0  0  0  0  0
   -0.8766   12.8304   -3.3022 C   0  0  0  0  0  0  0  0  0  0  0  0
   -0.5646   14.5588   -3.3455 N   0  0  0  0  0  0  0  0  0  0  0  0
   -1.3787   15.8649   -4.2100 C   0  0  0  0  0  0  0  0  0  0  0  0
   -1.9296   17.0070   -3.8389 N   0  0  0  0  0  0  0  0  0  0  0  0
   -2.1164   15.8011   -5.4449 N   0  0  0  0  0  0  0  0  0  0  0  0
   -1.8598   11.7521   -0.6557 N   0  0  0  0  0  0  0  0  0  0  0  0
   -3.2186   11.8018   -1.0498 C   0  0  0  0  0  0  0  0  0  0  0  0
   -4.0051   12.3898   -0.2903 O   0  0  0  0  0  0  0  0  0  0  0  0
   -3.9691   11.1443   -2.2989 C   0  0  2  0  0  0  0  0  0  0  0  0
   -4.7951    9.9281   -1.9067 C   0  0  0  0  0  0  0  0  0  0  0  0
   -3.9982    8.7001   -2.0118 C   0  0  0  0  0  0  0  0  0  0  0  0
   -2.8040    8.8456   -1.1222 C   0  0  0  0  0  0  0  0  0  0  0  0
   -2.4073    8.3861   -0.1471 O   0  0  0  0  0  0  0  0  0  0  0  0
   -2.0699    9.5221   -2.0369 O   0  0  0  0  0  0  0  0  0  0  0  0
   -3.2612   10.7842   -3.4667 N   0  0  0  0  0  0  0  0  0  0  0  0
   -3.1605   11.3783   -4.6061 C   0  0  0  0  0  0  0  0  0  0  0  0
   -2.0808   11.0321   -5.0654 O   0  0  0  0  0  0  0  0  0  0  0  0
   -4.0842   12.4583   -5.0858 C   0  0  2  0  0  0  0  0  0  0  0  0
   -4.0821   13.8281   -4.4298 C   0  0  0  0  0  0  0  0  0  0  0  0
   -2.7009   14.1078   -3.8381 C   0  0  0  0  0  0  0  0  0  0  0  0
   -1.2644   13.7485   -5.2507 C   0  0  0  0  0  0  0  0  0  0  0  0
   -2.5031   15.1445   -2.2205 C   0  0  0  0  0  0  0  0  0  0  0  0
   -5.4032   11.8812   -5.1721 N   0  0  0  0  0  0  0  0  0  0  0  0
   -6.1266   11.4885   -6.2600 C   0  0  0  0  0  0  0  0  0  0  0  0
   -7.1953   10.9093   -6.0799 O   0  0  0  0  0  0  0  0  0  0  0  0
   -5.5548   11.7666   -7.6474 C   0  0  2  0  0  0  0  0  0  0  0  0
   -6.3554   12.8700   -8.3421 C   0  0  0  0  0  0  0  0  0  0  0  0
   -5.4491   13.4401   -9.3813 C   0  0  0  0  0  0  0  0  0  0  0  0
   -5.3834   12.7285  -10.7591 C   0  0  0  0  0  0  0  0  0  0  0  0
   -5.3839   13.2175  -11.8744 O   0  0  0  0  0  0  0  0  0  0  0  0
   -4.9299   11.4667  -10.8218 N   0  0  0  0  0  0  0  0  0  0  0  0
   -5.0592   10.6423   -8.4756 N   0  0  0  0  0  0  0  0  0  0  0  0
   -3.7559   10.3345   -8.9697 C   0  0  0  0  0  0  0  0  0  0  0  0
   -3.6665    9.2585   -9.5813 O   0  0  0  0  0  0  0  0  0  0  0  0
   -2.4547   11.3063   -8.9366 C   0  0  2  0  0  0  0  0  0  0  0  0
   -1.2079   10.4442   -8.6117 C   0  0  0  0  0  0  0  0  0  0  0  0
   -1.0681   10.2341   -7.1384 C   0  0  0  0  0  0  0  0  0  0  0  0
   -2.2582    9.4810   -6.6640 C   0  0  0  0  0  0  0  0  0  0  0  0
   -2.1656    8.3799   -6.0920 O   0  0  0  0  0  0  0  0  0  0  0  0
   -3.4182   10.1263   -6.7240 O   0  0  0  0  0  0  0  0  0  0  0  0
   -2.4927   12.3821   -7.9768 N   0  0  0  0  0  0  0  0  0  0  0  0
   -2.6545   13.7299   -8.0892 C   0  0  0  0  0  0  0  0  0  0  0  0
   -3.2585   14.3268   -7.1958 O   0  0  0  0  0  0  0  0  0  0  0  0
   -2.2138   14.4564   -9.3431 C   0  0  2  0  0  0  0  0  0  0  0  0
   -2.4521   15.9558   -9.1742 C   0  0  0  0  0  0  0  0  0  0  0  0
   -2.9022   16.4210  -10.5365 C   0  0  0  0  0  0  0  0  0  0  0  0
   -3.6743   15.2710  -10.9974 C   0  0  0  0  0  0  0  0  0  0  0  0
   -4.6587   15.4086  -11.6972 O   0  0  0  0  0  0  0  0  0  0  0  0
   -3.0096   14.1508  -10.5015 N   0  0  0  0  0  0  0  0  0  0  0  0
    0.2751    6.0953   -3.4423 H   0  0  0  0  0  0  0  0  0  0  0  0
    0.5571    7.8067   -4.0654 H   0  0  0  0  0  0  0  0  0  0  0  0
   -0.7817    6.8459   -4.6593 H   0  0  0  0  0  0  0  0  0  0  0  0
   -1.4449    8.2926   -3.3306 H   0  0  0  0  0  0  0  0  0  0  0  0
   -4.1413    5.9530   -2.6250 H   0  0  0  0  0  0  0  0  0  0  0  0
   -2.7612    7.6322   -4.4415 H   0  0  0  0  0  0  0  0  0  0  0  0
   -3.0869    6.3326   -6.4530 H   0  0  0  0  0  0  0  0  0  0  0  0
   -2.3644    5.3269   -5.1946 H   0  0  0  0  0  0  0  0  0  0  0  0
   -4.6579    4.6542   -4.5518 H   0  0  0  0  0  0  0  0  0  0  0  0
   -5.1707    6.0616   -7.4534 H   0  0  0  0  0  0  0  0  0  0  0  0
   -6.4595    5.8251   -6.3766 H   0  0  0  0  0  0  0  0  0  0  0  0
   -5.2847    6.8214   -6.0741 H   0  0  0  0  0  0  0  0  0  0  0  0
   -3.3645    3.1859   -5.8873 H   0  0  0  0  0  0  0  0  0  0  0  0
   -5.1097    3.0026   -5.9909 H   0  0  0  0  0  0  0  0  0  0  0  0
   -4.2732    3.8515   -7.3127 H   0  0  0  0  0  0  0  0  0  0  0  0
   -6.7702    8.0646   -4.8603 H   0  0  0  0  0  0  0  0  0  0  0  0
   -5.6886    5.6330   -3.6721 H   0  0  0  0  0  0  0  0  0  0  0  0
   -7.1725    5.1030   -2.1592 H   0  0  0  0  0  0  0  0  0  0  0  0
   -6.5072    6.7310   -1.8013 H   0  0  0  0  0  0  0  0  0  0  0  0
   -7.8205    8.5230   -3.3940 H   0  0  0  0  0  0  0  0  0  0  0  0
   -9.4990    8.2809   -3.3969 H   0  0  0  0  0  0  0  0  0  0  0  0
   -8.6443    4.8254   -6.4782 H   0  0  0  0  0  0  0  0  0  0  0  0
   -8.5033    7.1042   -4.7950 H   0  0  0  0  0  0  0  0  0  0  0  0
   -9.7052    8.6602   -6.0005 H   0  0  0  0  0  0  0  0  0  0  0  0
   -8.1544    8.1427   -6.6884 H   0  0  0  0  0  0  0  0  0  0  0  0
   -9.2835    6.7790   -8.0897 H   0  0  0  0  0  0  0  0  0  0  0  0
  -12.2509    5.3888   -4.9676 H   0  0  0  0  0  0  0  0  0  0  0  0
  -10.2774    5.5168   -7.1987 H   0  0  0  0  0  0  0  0  0  0  0  0
  -10.9931    3.5859   -8.2102 H   0  0  0  0  0  0  0  0  0  0  0  0
  -10.3495    3.2961   -6.5834 H   0  0  0  0  0  0  0  0  0  0  0  0
  -12.5384    3.4231   -5.8237 H   0  0  0  0  0  0  0  0  0  0  0  0
  -14.0410    6.2567   -8.0095 H   0  0  0  0  0  0  0  0  0  0  0  0
    0.2021    7.7351   -0.7830 H   0  0  0  0  0  0  0  0  0  0  0  0
   -0.9800   10.8977   -2.1194 H   0  0  0  0  0  0  0  0  0  0  0  0
    0.6595   12.9302   -1.6425 H   0  0  0  0  0  0  0  0  0  0  0  0
    1.5519   11.3925   -1.9586 H   0  0  0  0  0  0  0  0  0  0  0  0
    0.9225   12.2181   -4.2192 H   0  0  0  0  0  0  0  0  0  0  0  0
   -0.0798   10.8613   -3.8055 H   0  0  0  0  0  0  0  0  0  0  0  0
   -1.5389   12.4612   -4.0207 H   0  0  0  0  0  0  0  0  0  0  0  0
   -1.5866   12.5611   -2.5420 H   0  0  0  0  0  0  0  0  0  0  0  0
   -0.5783   14.5551   -2.3251 H   0  0  0  0  0  0  0  0  0  0  0  0
   -1.9108   17.2994   -2.8717 H   0  0  0  0  0  0  0  0  0  0  0  0
   -2.5077   14.9555   -5.8861 H   0  0  0  0  0  0  0  0  0  0  0  0
   -2.9731   16.3483   -5.4644 H   0  0  0  0  0  0  0  0  0  0  0  0
   -1.7570   12.2396    0.2276 H   0  0  0  0  0  0  0  0  0  0  0  0
   -4.6732   11.8897   -2.6485 H   0  0  0  0  0  0  0  0  0  0  0  0
   -5.0811    9.9366   -0.8686 H   0  0  0  0  0  0  0  0  0  0  0  0
   -5.6347    9.7924   -2.5931 H   0  0  0  0  0  0  0  0  0  0  0  0
   -4.5497    7.8001   -1.8806 H   0  0  0  0  0  0  0  0  0  0  0  0
   -3.5838    8.6760   -3.0251 H   0  0  0  0  0  0  0  0  0  0  0  0
   -1.1310    9.2769   -2.0324 H   0  0  0  0  0  0  0  0  0  0  0  0
   -2.4131   10.2281   -3.3783 H   0  0  0  0  0  0  0  0  0  0  0  0
   -3.6953   12.6846   -6.0290 H   0  0  0  0  0  0  0  0  0  0  0  0
   -4.3541   14.5478   -5.1942 H   0  0  0  0  0  0  0  0  0  0  0  0
   -4.8771   13.8876   -3.6899 H   0  0  0  0  0  0  0  0  0  0  0  0
   -2.9188   13.3174   -3.1207 H   0  0  0  0  0  0  0  0  0  0  0  0
   -0.9005   14.4584   -6.0216 H   0  0  0  0  0  0  0  0  0  0  0  0
   -0.1617   13.7497   -4.9541 H   0  0  0  0  0  0  0  0  0  0  0  0
   -1.2515   12.8000   -5.7509 H   0  0  0  0  0  0  0  0  0  0  0  0
   -3.3948   15.6870   -1.9428 H   0  0  0  0  0  0  0  0  0  0  0  0
   -1.9479   14.8217   -1.2912 H   0  0  0  0  0  0  0  0  0  0  0  0
   -1.6597   15.8792   -2.2050 H   0  0  0  0  0  0  0  0  0  0  0  0
   -5.7828   11.5582   -4.3004 H   0  0  0  0  0  0  0  0  0  0  0  0
   -4.6541   12.2604   -7.4065 H   0  0  0  0  0  0  0  0  0  0  0  0
   -7.2913   12.6350   -8.8407 H   0  0  0  0  0  0  0  0  0  0  0  0
   -6.5785   13.6249   -7.5660 H   0  0  0  0  0  0  0  0  0  0  0  0
   -5.4339   14.5352   -9.3346 H   0  0  0  0  0  0  0  0  0  0  0  0
   -4.4788   13.2261   -8.9881 H   0  0  0  0  0  0  0  0  0  0  0  0
   -5.2993   10.7698  -10.1963 H   0  0  0  0  0  0  0  0  0  0  0  0
   -4.6561   11.1127  -11.7270 H   0  0  0  0  0  0  0  0  0  0  0  0
   -5.7447    9.9066   -8.6159 H   0  0  0  0  0  0  0  0  0  0  0  0
   -2.3087   11.7455   -9.9143 H   0  0  0  0  0  0  0  0  0  0  0  0
   -1.2637    9.4564   -9.0635 H   0  0  0  0  0  0  0  0  0  0  0  0
   -0.3039   10.9701   -8.9268 H   0  0  0  0  0  0  0  0  0  0  0  0
   -0.1897    9.7063   -6.7692 H   0  0  0  0  0  0  0  0  0  0  0  0
   -0.9136   11.2227   -6.7127 H   0  0  0  0  0  0  0  0  0  0  0  0
   -4.1624    9.6911   -6.2303 H   0  0  0  0  0  0  0  0  0  0  0  0
   -2.7751   11.9486   -7.1161 H   0  0  0  0  0  0  0  0  0  0  0  0
   -1.1930   14.1437   -9.5469 H   0  0  0  0  0  0  0  0  0  0  0  0
   -1.5542   16.4615   -8.8327 H   0  0  0  0  0  0  0  0  0  0  0  0
   -3.2652   16.1939   -8.4681 H   0  0  0  0  0  0  0  0  0  0  0  0
   -2.0969   16.4858  -11.2666 H   0  0  0  0  0  0  0  0  0  0  0  0
   -3.5559   17.2928  -10.5291 H   0  0  0  0  0  0  0  0  0  0  0  0
   -3.3203   13.2139  -10.7085 H   0  0  0  0  0  0  0  0  0  0  0  0
  1 89  1  0  0  0  0
  1 90  1  0  0  0  0
  1 91  1  0  0  0  0
  2  1  1  0  0  0  0
  2  3  1  0  0  0  0
  2 34  1  0  0  0  0
  2 92  1  6  0  0  0
  3  4  2  0  0  0  0
  3  5  1  0  0  0  0
  5 93  1  0  0  0  0
  6  5  1  0  0  0  0
  6  7  1  0  0  0  0
  6 11  1  0  0  0  0
  6 94  1  6  0  0  0
  7  8  1  0  0  0  0
  7 95  1  0  0  0  0
  7 96  1  0  0  0  0
  8  9  1  0  0  0  0
  8 10  1  0  0  0  0
  8 97  1  0  0  0  0
  9 98  1  0  0  0  0
  9 99  1  0  0  0  0
  9100  1  0  0  0  0
 10101  1  0  0  0  0
 10102  1  0  0  0  0
 10103  1  0  0  0  0
 11 12  2  0  0  0  0
 11 13  1  0  0  0  0
 13104  1  0  0  0  0
 14 13  1  0  0  0  0
 14 15  1  0  0  0  0
 14 19  1  0  0  0  0
 14105  1  1  0  0  0
 15 16  1  0  0  0  0
 15106  1  0  0  0  0
 15107  1  0  0  0  0
 16 17  2  0  0  0  0
 16 18  1  0  0  0  0
 18108  1  0  0  0  0
 18109  1  0  0  0  0
 19 20  2  0  0  0  0
 19 21  1  0  0  0  0
 21110  1  0  0  0  0
 22 21  1  0  0  0  0
 22 23  1  0  0  0  0
 22 25  1  0  0  0  0
 22111  1  1  0  0  0
 23 24  1  0  0  0  0
 23112  1  0  0  0  0
 23113  1  0  0  0  0
 24114  1  0  0  0  0
 25 26  2  0  0  0  0
 25 27  1  0  0  0  0
 27115  1  0  0  0  0
 28 27  1  0  0  0  0
 28 29  1  0  0  0  0
 28 31  1  0  0  0  0
 28116  1  6  0  0  0
 29 30  1  0  0  0  0
 29117  1  0  0  0  0
 29118  1  0  0  0  0
 30119  1  0  0  0  0
 31 32  2  0  0  0  0
 31 33  1  0  0  0  0
 33120  1  0  0  0  0
 34 35  1  0  0  0  0
 34121  1  0  0  0  0
 35 36  2  0  0  0  0
 37 45  1  0  0  0  0
 37122  1  6  0  0  0
 37 38  1  0  0  0  0
 37 35  1  0  0  0  0
 38 39  1  0  0  0  0
 38123  1  0  0  0  0
 38124  1  0  0  0  0
 39 40  1  0  0  0  0
 39125  1  0  0  0  0
 39126  1  0  0  0  0
 40 41  1  0  0  0  0
 40127  1  0  0  0  0
 40128  1  0  0  0  0
 41 42  1  0  0  0  0
 41129  1  0  0  0  0
 42 43  2  0  0  0  0
 42 44  1  0  0  0  0
 43130  1  0  0  0  0
 44131  1  0  0  0  0
 44132  1  0  0  0  0
 45 46  1  0  0  0  0
 45133  1  0  0  0  0
 46 47  2  0  0  0  0
 48 54  1  0  0  0  0
 48134  1  6  0  0  0
 48 49  1  0  0  0  0
 48 46  1  0  0  0  0
 49 50  1  0  0  0  0
 49135  1  0  0  0  0
 49136  1  0  0  0  0
 50 51  1  0  0  0  0
 50137  1  0  0  0  0
 50138  1  0  0  0  0
 51 52  2  0  0  0  0
 51 53  1  0  0  0  0
 53139  1  0  0  0  0
 54 55  1  0  0  0  0
 54140  1  0  0  0  0
 55 56  2  0  0  0  0
 57 62  1  0  0  0  0
 57141  1  6  0  0  0
 57 58  1  0  0  0  0
 57 55  1  0  0  0  0
 58 59  1  0  0  0  0
 58142  1  0  0  0  0
 58143  1  0  0  0  0
 59 60  1  0  0  0  0
 59 61  1  0  0  0  0
 59144  1  0  0  0  0
 60145  1  0  0  0  0
 60146  1  0  0  0  0
 60147  1  0  0  0  0
 61148  1  0  0  0  0
 61149  1  0  0  0  0
 61150  1  0  0  0  0
 62 63  1  0  0  0  0
 62151  1  0  0  0  0
 63 64  2  0  0  0  0
 65 71  1  0  0  0  0
 65152  1  1  0  0  0
 65 66  1  0  0  0  0
 65 63  1  0  0  0  0
 66 67  1  0  0  0  0
 66153  1  0  0  0  0
 66154  1  0  0  0  0
 67 68  1  0  0  0  0
 67155  1  0  0  0  0
 67156  1  0  0  0  0
 68 69  2  0  0  0  0
 68 70  1  0  0  0  0
 70157  1  0  0  0  0
 70158  1  0  0  0  0
 71 72  1  0  0  0  0
 71159  1  0  0  0  0
 72 73  2  0  0  0  0
 74 80  1  0  0  0  0
 74160  1  6  0  0  0
 74 75  1  0  0  0  0
 74 72  1  0  0  0  0
 75 76  1  0  0  0  0
 75161  1  0  0  0  0
 75162  1  0  0  0  0
 76 77  1  0  0  0  0
 76163  1  0  0  0  0
 76164  1  0  0  0  0
 77 78  2  0  0  0  0
 77 79  1  0  0  0  0
 79165  1  0  0  0  0
 80 81  1  0  0  0  0
 80166  1  0  0  0  0
 81 82  2  0  0  0  0
 83 81  1  0  0  0  0
 83 84  1  0  0  0  0
 83 88  1  0  0  0  0
 83167  1  6  0  0  0
 84 85  1  0  0  0  0
 84168  1  0  0  0  0
 84169  1  0  0  0  0
 85 86  1  0  0  0  0
 85170  1  0  0  0  0
 85171  1  0  0  0  0
 86 87  2  0  0  0  0
 86 88  1  0  0  0  0
 88172  1  0  0  0  0
M  END
>  <DRUGBANK_ID>
DB13006

>  <COMMON_NAME>
Cibinetide

>  <CAS_NUMBER>
1208243-50-8

>  <UNII>
9W5677JKDA

>  <SYNONYMS>
Cibinetide; L-Pyr-L-Glu-L-Gln-L-Leu-L-Glu-L-Arg-L-Ala-L-Leu-L-Asn-L-Ser-L-Ser; PGLU-GLU-GLN-LEU-GLU-ARG-ALA-LEU-ASN-SER-SER; PH-BSP; PHBSP

$$$$
