
 OpenBabel10282417133D

  5  4  0  0  0  0  0  0  0  0999 V2000
    1.1290   -0.0629    0.0415 O   0  5  0  0  0  0  0  0  0  0  0  0
    2.5790   -0.0629    0.0415 Cl  0  0  0  0  0  0  0  0  0  0  0  0
    3.0624   -1.4290   -0.0113 O   0  0  0  0  0  0  0  0  0  0  0  0
    3.0624    0.6659   -1.1150 O   0  0  0  0  0  0  0  0  0  0  0  0
    3.0624    0.5743    1.2510 O   0  0  0  0  0  0  0  0  0  0  0  0
  1  2  1  0  0  0  0
  2  3  2  0  0  0  0
  2  4  2  0  0  0  0
  2  5  2  0  0  0  0
M  CHG  1   1  -1
M  END
>  <DRUGBANK_ID>
DB03138

>  <SECONDARY_ACCESSION_NUMBERS>
EXPT02010

>  <COMMON_NAME>
Perchlorate

>  <CAS_NUMBER>
14797-73-0

>  <UNII>
VLA4NZX2P4

>  <SYNONYMS>
Perchlorate Ion

$$$$
