4827
 OpenBabel10282417143D

 13 12  0  0  0  0  0  0  0  0999 V2000
    1.0567   -0.0621   -0.1119 O   0  0  0  0  0  0  0  0  0  0  0  0
    3.0245    0.5382    0.8214 O   0  0  0  0  0  0  0  0  0  0  0  0
    3.0808   -0.7744   -0.9970 N   0  0  0  0  0  0  0  0  0  0  0  0
    0.2957   -0.7047   -1.1509 C   0  0  0  0  0  0  0  0  0  0  0  0
    0.5192   -0.0447   -2.5015 C   0  0  0  0  0  0  0  0  0  0  0  0
    2.4111   -0.0701   -0.0484 C   0  0  0  0  0  0  0  0  0  0  0  0
    2.6497   -1.3027   -1.7351 H   0  0  0  0  0  0  0  0  0  0  0  0
    4.0865   -0.6853   -1.0020 H   0  0  0  0  0  0  0  0  0  0  0  0
    0.5126   -1.7780   -1.1567 H   0  0  0  0  0  0  0  0  0  0  0  0
   -0.7613   -0.5952   -0.8788 H   0  0  0  0  0  0  0  0  0  0  0  0
    1.5646   -0.0605   -2.8154 H   0  0  0  0  0  0  0  0  0  0  0  0
   -0.0621   -0.5473   -3.2776 H   0  0  0  0  0  0  0  0  0  0  0  0
    0.2421    1.0123   -2.4580 H   0  0  0  0  0  0  0  0  0  0  0  0
  1  4  1  0  0  0  0
  1  6  1  0  0  0  0
  2  6  2  0  0  0  0
  3  6  1  0  0  0  0
  3  7  1  0  0  0  0
  3  8  1  0  0  0  0
  4  5  1  0  0  0  0
  4  9  1  0  0  0  0
  4 10  1  0  0  0  0
  5 11  1  0  0  0  0
  5 12  1  0  0  0  0
  5 13  1  0  0  0  0
M  END
>  <DRUGBANK_ID>
DB04827

>  <COMMON_NAME>
Urethane

>  <CAS_NUMBER>
51-79-6

>  <UNII>
3IN71E75Z5

>  <SYNONYMS>
Aethylcarbamat; Aethylurethan; Carbamic acid ethyl ester; Carbamidsaeure-aethylester; Ethyl carbamate; Ethylester kyseliny karbaminove; Uretan etylowy; Uretano; Urethan; Urethane; Urethanum

$$$$
