
 OpenBabel10282417243D

 49 52  0  0  0  0  0  0  0  0999 V2000
    1.0192    0.0028   -0.0115 C   0  0  0  0  0  0  0  0  0  0  0  0
    0.5834    1.3442    0.5097 C   0  0  0  0  0  0  0  0  0  0  0  0
    1.1560    2.5157    0.0097 C   0  0  0  0  0  0  0  0  0  0  0  0
    0.7759    3.7816    0.5185 C   0  0  0  0  0  0  0  0  0  0  0  0
    1.4444    4.9980   -0.0411 C   0  0  0  0  0  0  0  0  0  0  0  0
   -0.1909    3.8179    1.5215 C   0  0  0  0  0  0  0  0  0  0  0  0
   -0.8520    4.9276    2.3230 C   0  0  0  0  0  0  0  0  0  0  0  0
   -1.8225    4.2089    3.2098 N   0  0  0  0  0  0  0  0  0  0  0  0
   -1.7458    2.7777    2.9844 C   0  0  0  0  0  0  0  0  0  0  0  0
   -0.7010    2.5931    1.9351 C   0  0  0  0  0  0  0  0  0  0  0  0
   -0.3636    1.3701    1.4681 N   0  0  0  0  0  0  0  0  0  0  0  0
   -2.6941    4.7827    4.1245 C   0  0  0  0  0  0  0  0  0  0  0  0
   -2.7269    6.0056    4.3173 O   0  0  0  0  0  0  0  0  0  0  0  0
   -3.6325    3.8526    4.9496 C   0  0  0  0  0  0  0  0  0  0  0  0
   -4.6472    3.0557    4.1232 C   0  0  0  0  0  0  0  0  0  0  0  0
   -6.1821    3.1256    4.3222 C   0  0  0  0  0  0  0  0  0  0  0  0
   -6.1899    1.7174    4.0677 N   0  0  0  0  0  0  0  0  0  0  0  0
   -4.8297    1.5445    4.4604 C   0  0  0  0  0  0  0  0  0  0  0  0
   -7.1572    0.8227    3.5895 C   0  0  0  0  0  0  0  0  0  0  0  0
   -7.8267    1.0375    2.3829 C   0  0  0  0  0  0  0  0  0  0  0  0
   -8.7477    0.0959    1.9373 C   0  0  0  0  0  0  0  0  0  0  0  0
   -9.0704   -1.0210    2.6193 N   0  0  0  0  0  0  0  0  0  0  0  0
   -8.4340   -1.2308    3.8045 C   0  0  0  0  0  0  0  0  0  0  0  0
   -7.4690   -0.3401    4.2972 C   0  0  0  0  0  0  0  0  0  0  0  0
   -8.7787   -2.4628    4.6301 C   0  0  0  0  0  0  0  0  0  0  0  0
   -7.6884   -3.2517    4.8642 F   0  0  0  0  0  0  0  0  0  0  0  0
   -9.2653   -2.1420    5.8659 F   0  0  0  0  0  0  0  0  0  0  0  0
   -9.7129   -3.2831    4.0691 F   0  0  0  0  0  0  0  0  0  0  0  0
    0.6501   -0.1567   -1.0296 H   0  0  0  0  0  0  0  0  0  0  0  0
    0.6440   -0.8092    0.6210 H   0  0  0  0  0  0  0  0  0  0  0  0
    2.1124   -0.0648   -0.0196 H   0  0  0  0  0  0  0  0  0  0  0  0
    1.9128    2.4328   -0.7682 H   0  0  0  0  0  0  0  0  0  0  0  0
    0.7098    5.6563   -0.5109 H   0  0  0  0  0  0  0  0  0  0  0  0
    1.9853    5.5286    0.7462 H   0  0  0  0  0  0  0  0  0  0  0  0
    2.1782    4.7254   -0.8123 H   0  0  0  0  0  0  0  0  0  0  0  0
   -1.3910    5.6396    1.6871 H   0  0  0  0  0  0  0  0  0  0  0  0
   -0.1246    5.4677    2.9406 H   0  0  0  0  0  0  0  0  0  0  0  0
   -2.6876    2.4203    2.5763 H   0  0  0  0  0  0  0  0  0  0  0  0
   -1.4794    2.2734    3.9136 H   0  0  0  0  0  0  0  0  0  0  0  0
   -3.0067    3.1868    5.5601 H   0  0  0  0  0  0  0  0  0  0  0  0
   -4.1766    4.4698    5.6794 H   0  0  0  0  0  0  0  0  0  0  0  0
   -4.4588    3.2352    3.0570 H   0  0  0  0  0  0  0  0  0  0  0  0
   -6.5211    3.3449    5.3412 H   0  0  0  0  0  0  0  0  0  0  0  0
   -6.7255    3.7321    3.5970 H   0  0  0  0  0  0  0  0  0  0  0  0
   -4.2509    0.8575    3.8389 H   0  0  0  0  0  0  0  0  0  0  0  0
   -4.7385    1.2701    5.5174 H   0  0  0  0  0  0  0  0  0  0  0  0
   -7.6071    1.8973    1.7605 H   0  0  0  0  0  0  0  0  0  0  0  0
   -9.2623    0.2117    0.9857 H   0  0  0  0  0  0  0  0  0  0  0  0
   -6.9938   -0.5385    5.2532 H   0  0  0  0  0  0  0  0  0  0  0  0
  1  2  1  0  0  0  0
  1 29  1  0  0  0  0
  1 30  1  0  0  0  0
  1 31  1  0  0  0  0
  2  3  2  0  0  0  0
  2 11  1  0  0  0  0
  3  4  1  0  0  0  0
  3 32  1  0  0  0  0
  4  5  1  0  0  0  0
  4  6  2  0  0  0  0
  5 33  1  0  0  0  0
  5 34  1  0  0  0  0
  5 35  1  0  0  0  0
  6  7  1  0  0  0  0
  6 10  1  0  0  0  0
  7  8  1  0  0  0  0
  7 36  1  0  0  0  0
  7 37  1  0  0  0  0
  8  9  1  0  0  0  0
  8 12  1  0  0  0  0
  9 10  1  0  0  0  0
  9 38  1  0  0  0  0
  9 39  1  0  0  0  0
 10 11  2  0  0  0  0
 12 13  2  0  0  0  0
 12 14  1  0  0  0  0
 14 15  1  0  0  0  0
 14 40  1  0  0  0  0
 14 41  1  0  0  0  0
 15 16  1  0  0  0  0
 15 18  1  0  0  0  0
 15 42  1  0  0  0  0
 16 17  1  0  0  0  0
 16 43  1  0  0  0  0
 16 44  1  0  0  0  0
 17 18  1  0  0  0  0
 17 19  1  0  0  0  0
 18 45  1  0  0  0  0
 18 46  1  0  0  0  0
 19 20  2  0  0  0  0
 19 24  1  0  0  0  0
 20 21  1  0  0  0  0
 20 47  1  0  0  0  0
 21 22  2  0  0  0  0
 21 48  1  0  0  0  0
 22 23  1  0  0  0  0
 23 24  2  0  0  0  0
 23 25  1  0  0  0  0
 24 49  1  0  0  0  0
 25 26  1  0  0  0  0
 25 27  1  0  0  0  0
 25 28  1  0  0  0  0
M  END
>  <DRUGBANK_ID>
DB18706

>  <COMMON_NAME>
Emraclidine

>  <CAS_NUMBER>
2170722-84-4

>  <UNII>
J241Y80EEO

>  <SYNONYMS>
CVL-231; Emraclidine; Ethanone, 1-(5,7-dihydro-2,4-dimethyl-6h-pyrrolo(3,4-b)pyridin-6-yl)-2-(1-(2-(trifluoromethyl)-4-pyridinyl)-3-azetidinyl)-

$$$$
