
 OpenBabel10282417133D

 77 81  0  0  0  0  0  0  0  0999 V2000
    3.4539    2.9450    5.4612 P   0  0  3  0  0  0  0  0  0  0  0  0
    4.3658   -1.5061    0.1842 P   0  0  0  0  0  0  0  0  0  0  0  0
    2.1562    3.3606    2.6781 P   0  0  3  0  0  0  0  0  0  0  0  0
    3.4546    0.4811    8.6775 P   0  0  0  0  0  0  0  0  0  0  0  0
    4.3744    2.9501    1.0871 O   0  0  0  0  0  0  0  0  0  0  0  0
    6.7362    0.3164    8.2969 O   0  0  0  0  0  0  0  0  0  0  0  0
    5.5790   -1.1077    1.3513 O   0  0  0  0  0  0  0  0  0  0  0  0
    5.6143    0.5048   -1.4815 O   0  0  0  0  0  0  0  0  0  0  0  0
    5.0651    2.4406    5.7024 O   0  0  0  0  0  0  0  0  0  0  0  0
    2.0282    1.9145    3.2420 O   0  0  0  0  0  0  0  0  0  0  0  0
    4.6580    1.3327    9.5827 O   0  0  0  0  0  0  0  0  0  0  0  0
    3.2237    3.8361    3.9534 O   0  0  0  0  0  0  0  0  0  0  0  0
    3.4926    4.0403    6.5992 O   0  0  0  0  0  0  0  0  0  0  0  0
    3.6005   -0.1103   -0.5996 O   0  0  0  0  0  0  0  0  0  0  0  0
    5.5545   -1.9791   -0.8211 O   0  0  0  0  0  0  0  0  0  0  0  0
    0.7536    3.9722    3.0175 O   0  0  0  0  0  0  0  0  0  0  0  0
    2.5597    1.7722    5.6993 O   0  0  0  0  0  0  0  0  0  0  0  0
    3.2799   -1.8627   -0.8604 O   0  0  0  0  0  0  0  0  0  0  0  0
    2.1795    3.1090    1.1985 O   0  0  0  0  0  0  0  0  0  0  0  0
    5.5178   -3.1622    6.0992 O   0  0  0  0  0  0  0  0  0  0  0  0
    2.8726    0.1680   10.1719 O   0  0  0  0  0  0  0  0  0  0  0  0
    2.6612    1.9075    8.5144 O   0  0  0  0  0  0  0  0  0  0  0  0
    2.3775   -0.2810    7.8673 O   0  0  0  0  0  0  0  0  0  0  0  0
    2.1301   -3.7785    9.0471 O   0  0  0  0  0  0  0  0  0  0  0  0
    6.7031    2.9107    1.0499 N   0  0  0  0  0  0  0  0  0  0  0  0
    5.4615   -1.8001    7.9938 N   0  0  0  0  0  0  0  0  0  0  0  0
    7.3062    2.1382    3.2423 N   0  0  0  0  0  0  0  0  0  0  0  0
    4.5408    0.9505    0.6407 N   0  0  0  0  0  0  0  0  0  0  0  0
    4.0153   -3.6505    7.7229 N   0  0  0  0  0  0  0  0  0  0  0  0
    4.2498   -0.7641    2.9571 N   0  0  0  0  0  0  0  0  0  0  0  0
    4.9993    0.5378    4.5865 N   0  0  0  0  0  0  0  0  0  0  0  0
    5.8299    0.1293    1.3649 C   0  0  1  0  0  0  0  0  0  0  0  0
    6.3123    0.9063   -0.3263 C   0  0  2  0  0  0  0  0  0  0  0  0
    4.2702    1.5003    2.1613 C   0  0  1  0  0  0  0  0  0  0  0  0
    5.7406    2.6244    0.0599 C   0  0  1  0  0  0  0  0  0  0  0  0
    5.2692    1.2349    6.6718 C   0  0  2  0  0  0  0  0  0  0  0  0
    6.1895    1.5617    7.7594 C   0  0  1  0  0  0  0  0  0  0  0  0
    5.9508   -0.1867    6.2818 C   0  0  0  0  0  0  0  0  0  0  0  0
    6.4639   -0.8338    7.4693 C   0  0  1  0  0  0  0  0  0  0  0  0
    3.3304    1.4762    3.3194 C   0  0  0  0  0  0  0  0  0  0  0  0
    5.4173    2.2779    8.8216 C   0  0  0  0  0  0  0  0  0  0  0  0
    5.9218    1.8695    1.5381 C   0  0  0  0  0  0  0  0  0  0  0  0
    7.4710    2.9375    2.1818 C   0  0  0  0  0  0  0  0  0  0  0  0
    6.2991    1.3700    2.8973 C   0  0  0  0  0  0  0  0  0  0  0  0
    5.0370   -2.8859    7.1949 C   0  0  0  0  0  0  0  0  0  0  0  0
    4.9500   -1.6686    9.2572 C   0  0  0  0  0  0  0  0  0  0  0  0
    5.4644   -0.0028    3.5040 C   0  0  0  0  0  0  0  0  0  0  0  0
    3.8167   -2.2968    9.6108 C   0  0  0  0  0  0  0  0  0  0  0  0
    3.2077   -3.2859    8.7478 C   0  0  0  0  0  0  0  0  0  0  0  0
    3.7040   -0.2881    1.7726 C   0  0  0  0  0  0  0  0  0  0  0  0
    3.7191   -4.4701    7.2248 H   0  0  0  0  0  0  0  0  0  0  0  0
    4.1112    0.3442    5.0394 H   0  0  0  0  0  0  0  0  0  0  0  0
    5.5213    1.4035    4.7642 H   0  0  0  0  0  0  0  0  0  0  0  0
    4.6659    0.5424   -1.1657 H   0  0  0  0  0  0  0  0  0  0  0  0
    2.7150    4.6053    6.5898 H   0  0  0  0  0  0  0  0  0  0  0  0
    2.8669    0.3906   -0.1301 H   0  0  0  0  0  0  0  0  0  0  0  0
    6.4308   -2.0072   -0.4145 H   0  0  0  0  0  0  0  0  0  0  0  0
    0.8628    4.6488    3.6771 H   0  0  0  0  0  0  0  0  0  0  0  0
    3.5632   -0.3150   10.6537 H   0  0  0  0  0  0  0  0  0  0  0  0
    3.0314    2.6932    8.9296 H   0  0  0  0  0  0  0  0  0  0  0  0
    6.9298   -0.0180    1.7739 H   0  0  0  0  0  0  0  0  0  0  0  0
    7.4029    0.8280   -0.4663 H   0  0  0  0  0  0  0  0  0  0  0  0
    3.2413    1.4226    1.6017 H   0  0  0  0  0  0  0  0  0  0  0  0
    5.4530    3.1807   -0.8257 H   0  0  0  0  0  0  0  0  0  0  0  0
    4.2548    0.9794    6.8618 H   0  0  0  0  0  0  0  0  0  0  0  0
    6.9522    2.2151    7.3252 H   0  0  0  0  0  0  0  0  0  0  0  0
    5.2369   -0.9193    5.8378 H   0  0  0  0  0  0  0  0  0  0  0  0
    6.7836   -0.0270    5.5751 H   0  0  0  0  0  0  0  0  0  0  0  0
    7.3606   -1.3717    7.1510 H   0  0  0  0  0  0  0  0  0  0  0  0
    4.0799    2.1438    3.7040 H   0  0  0  0  0  0  0  0  0  0  0  0
    3.0933    0.5503    3.7974 H   0  0  0  0  0  0  0  0  0  0  0  0
    6.1074    2.8083    9.4682 H   0  0  0  0  0  0  0  0  0  0  0  0
    4.7620    3.0367    8.3871 H   0  0  0  0  0  0  0  0  0  0  0  0
    8.2671    3.6487    2.2470 H   0  0  0  0  0  0  0  0  0  0  0  0
    5.4068   -0.8731    9.8382 H   0  0  0  0  0  0  0  0  0  0  0  0
    3.1485   -2.1026   10.4412 H   0  0  0  0  0  0  0  0  0  0  0  0
    2.7298   -0.7727    1.4070 H   0  0  0  0  0  0  0  0  0  0  0  0
  1  9  1  0  0  0  0
  1 12  1  0  0  0  0
  1 13  1  0  0  0  0
  1 17  2  0  0  0  0
  2  7  1  0  0  0  0
  2 14  1  0  0  0  0
  2 15  1  0  0  0  0
  2 18  2  0  0  0  0
  3 10  1  0  0  0  0
  3 12  1  0  0  0  0
  3 16  1  0  0  0  0
  3 19  2  0  0  0  0
  4 11  1  0  0  0  0
  4 21  1  0  0  0  0
  4 22  1  0  0  0  0
  4 23  2  0  0  0  0
  5 34  1  0  0  0  0
  5 35  1  0  0  0  0
  6 37  1  0  0  0  0
  6 39  1  0  0  0  0
  8 54  1  0  0  0  0
 10 40  1  0  0  0  0
 11 41  1  0  0  0  0
 13 55  1  0  0  0  0
 14 56  1  0  0  0  0
 15 57  1  0  0  0  0
 16 58  1  0  0  0  0
 20 45  2  0  0  0  0
 21 59  1  0  0  0  0
 22 60  1  0  0  0  0
 24 49  2  0  0  0  0
 25 42  1  0  0  0  0
 25 43  1  0  0  0  0
 26 45  1  0  0  0  0
 26 46  1  0  0  0  0
 27 43  2  0  0  0  0
 27 44  1  0  0  0  0
 28 42  2  0  0  0  0
 28 50  1  0  0  0  0
 29 45  1  0  0  0  0
 29 49  1  0  0  0  0
 29 51  1  0  0  0  0
 30 47  1  0  0  0  0
 30 50  2  0  0  0  0
 31 47  1  0  0  0  0
 31 52  1  0  0  0  0
 31 53  1  0  0  0  0
 32  7  1  0  0  0  0
 32 33  1  0  0  0  0
 32 34  1  0  0  0  0
 32 61  1  1  0  0  0
 33  8  1  0  0  0  0
 33 35  1  0  0  0  0
 33 62  1  6  0  0  0
 34 63  1  6  0  0  0
 34 40  1  0  0  0  0
 35 25  1  0  0  0  0
 35 64  1  6  0  0  0
 36  9  1  0  0  0  0
 36 37  1  0  0  0  0
 36 38  1  0  0  0  0
 36 65  1  1  0  0  0
 37 66  1  6  0  0  0
 37 41  1  0  0  0  0
 38 39  1  0  0  0  0
 38 67  1  0  0  0  0
 38 68  1  0  0  0  0
 39 26  1  0  0  0  0
 39 69  1  6  0  0  0
 40 70  1  0  0  0  0
 40 71  1  0  0  0  0
 41 72  1  0  0  0  0
 41 73  1  0  0  0  0
 42 44  1  0  0  0  0
 43 74  1  0  0  0  0
 44 47  2  0  0  0  0
 46 48  2  0  0  0  0
 46 75  1  0  0  0  0
 48 49  1  0  0  0  0
 48 76  1  0  0  0  0
 50 77  1  0  0  0  0
M  END
>  <DRUGBANK_ID>
DB03186

>  <SECONDARY_ACCESSION_NUMBERS>
EXPT02700

>  <COMMON_NAME>
Adenylate-3'-phosphate-[[2'-deoxy-uridine-5'-phosphate]-3'-phosphate]

>  <SYNONYMS>
U-PI-A-PI

$$$$
