533
 OpenBabel10282417103D

 36 38  0  0  0  0  0  0  0  0999 V2000
    0.8891   -0.0609   -0.0022 S   0  0  0  0  0  0  0  0  0  0  0  0
   -0.5351   -2.0587   -7.9131 O   0  0  0  0  0  0  0  0  0  0  0  0
   -2.2122   -3.6130   -7.9976 O   0  0  0  0  0  0  0  0  0  0  0  0
    0.4537   -1.1029    0.9080 O   0  0  0  0  0  0  0  0  0  0  0  0
    0.4649    1.3137    0.1836 O   0  0  0  0  0  0  0  0  0  0  0  0
   -0.5471   -1.7764   -5.6348 C   0  0  0  0  0  0  0  0  0  0  0  0
   -0.1366   -1.3420   -4.2920 C   0  0  0  0  0  0  0  0  0  0  0  0
   -1.5530   -2.6161   -5.9161 C   0  0  0  0  0  0  0  0  0  0  0  0
    0.1068   -1.3143   -6.8759 C   0  0  0  0  0  0  0  0  0  0  0  0
    0.4140   -0.5531   -1.6497 C   0  0  0  0  0  0  0  0  0  0  0  0
   -2.4173   -3.2922   -4.9534 C   0  0  0  0  0  0  0  0  0  0  0  0
   -0.1641    0.0113   -3.9358 C   0  0  0  0  0  0  0  0  0  0  0  0
    0.1703   -2.2919   -3.3012 C   0  0  0  0  0  0  0  0  0  0  0  0
   -1.5136   -2.8423   -7.3721 C   0  0  0  0  0  0  0  0  0  0  0  0
    0.1043    0.4081   -2.6170 C   0  0  0  0  0  0  0  0  0  0  0  0
    0.3801   -1.9084   -1.9729 C   0  0  0  0  0  0  0  0  0  0  0  0
   -2.3592   -4.6844   -4.8364 C   0  0  0  0  0  0  0  0  0  0  0  0
   -3.1671   -2.5554   -4.0237 C   0  0  0  0  0  0  0  0  0  0  0  0
    2.6695   -0.0808   -0.0493 C   0  0  0  0  0  0  0  0  0  0  0  0
   -2.9986   -5.3264   -3.7763 C   0  0  0  0  0  0  0  0  0  0  0  0
   -3.7568   -3.1944   -2.9335 C   0  0  0  0  0  0  0  0  0  0  0  0
   -3.6906   -4.5813   -2.8225 C   0  0  0  0  0  0  0  0  0  0  0  0
    1.1772   -1.5398   -6.8950 H   0  0  0  0  0  0  0  0  0  0  0  0
   -0.0508   -0.2487   -7.0659 H   0  0  0  0  0  0  0  0  0  0  0  0
   -0.4256    0.7688   -4.6717 H   0  0  0  0  0  0  0  0  0  0  0  0
    0.2169   -3.3517   -3.5492 H   0  0  0  0  0  0  0  0  0  0  0  0
    0.0476    1.4629   -2.3549 H   0  0  0  0  0  0  0  0  0  0  0  0
    0.4980   -2.6716   -1.2059 H   0  0  0  0  0  0  0  0  0  0  0  0
   -1.7862   -5.2734   -5.5493 H   0  0  0  0  0  0  0  0  0  0  0  0
   -3.2550   -1.4743   -4.1124 H   0  0  0  0  0  0  0  0  0  0  0  0
    3.0413    0.2172    0.9348 H   0  0  0  0  0  0  0  0  0  0  0  0
    3.0196   -1.0900   -0.2763 H   0  0  0  0  0  0  0  0  0  0  0  0
    3.0229    0.6287   -0.8001 H   0  0  0  0  0  0  0  0  0  0  0  0
   -2.9293   -6.4062   -3.6788 H   0  0  0  0  0  0  0  0  0  0  0  0
   -4.2428   -2.6084   -2.1573 H   0  0  0  0  0  0  0  0  0  0  0  0
   -4.1799   -5.0818   -1.9912 H   0  0  0  0  0  0  0  0  0  0  0  0
  1  4  2  0  0  0  0
  1  5  2  0  0  0  0
  1 10  1  0  0  0  0
  1 19  1  0  0  0  0
  2  9  1  0  0  0  0
  2 14  1  0  0  0  0
  3 14  2  0  0  0  0
  6  7  1  0  0  0  0
  6  8  2  0  0  0  0
  6  9  1  0  0  0  0
  7 12  2  0  0  0  0
  7 13  1  0  0  0  0
  8 11  1  0  0  0  0
  8 14  1  0  0  0  0
  9 23  1  0  0  0  0
  9 24  1  0  0  0  0
 10 15  2  0  0  0  0
 10 16  1  0  0  0  0
 11 17  2  0  0  0  0
 11 18  1  0  0  0  0
 12 15  1  0  0  0  0
 12 25  1  0  0  0  0
 13 16  2  0  0  0  0
 13 26  1  0  0  0  0
 15 27  1  0  0  0  0
 16 28  1  0  0  0  0
 17 20  1  0  0  0  0
 17 29  1  0  0  0  0
 18 21  2  0  0  0  0
 18 30  1  0  0  0  0
 19 31  1  0  0  0  0
 19 32  1  0  0  0  0
 19 33  1  0  0  0  0
 20 22  2  0  0  0  0
 20 34  1  0  0  0  0
 21 22  1  0  0  0  0
 21 35  1  0  0  0  0
 22 36  1  0  0  0  0
M  END
>  <DRUGBANK_ID>
DB00533

>  <SECONDARY_ACCESSION_NUMBERS>
APRD00151

>  <COMMON_NAME>
Rofecoxib

>  <CAS_NUMBER>
162011-90-7

>  <UNII>
0QTW8Z7MCR

>  <SYNONYMS>
3-phenyl-4-[4-(methylsulfonyl)phenyl]-2(5H)-furanone; 4-[4-(methylsulfonyl)phenyl]-3-phenyl-2(5H)-furanone; Rof√©coxib; Rofecoxib; Rofecoxibum

$$$$
