
 OpenBabel10282417213D

 37 34  0  0  0  0  0  0  0  0999 V2000
    1.2599   -0.9937    0.7737 C   0  0  0  0  0  0  0  0  0  0  0  0
    0.5731   -0.3382    2.2960 S   0  5  0  0  0  0  0  0  0  0  0  0
    0.0731   -2.0259   -0.7521 S   0  0  0  0  0  0  0  0  0  0  0  0
    3.0274   -0.9147    0.6536 N   0  0  0  0  0  0  0  0  0  0  0  0
    3.5865    0.0367    1.3347 C   0  0  0  0  0  0  0  0  0  0  0  0
    4.2036   -1.5596   -0.7187 C   0  0  0  0  0  0  0  0  0  0  0  0
    4.4567   -0.4852    2.3733 C   0  0  0  0  0  0  0  0  0  0  0  0
    3.9862   -3.0293   -0.9494 C   0  0  0  0  0  0  0  0  0  0  0  0
    0.6475    1.7951    1.2484 Zn  0  2  0  0  0  0  0  0  0  0  0  0
    0.0085    0.9403   -0.8352 C   0  0  0  0  0  0  0  0  0  0  0  0
   -0.5177    2.5801   -0.7695 S   0  5  0  0  0  0  0  0  0  0  0  0
   -1.6014    0.2116   -0.1177 S   0  0  0  0  0  0  0  0  0  0  0  0
    1.5407    0.7440   -0.5039 N   0  0  0  0  0  0  0  0  0  0  0  0
    2.8384    2.0552   -0.0484 C   0  0  0  0  0  0  0  0  0  0  0  0
    2.1513   -0.9710   -1.0583 C   0  0  0  0  0  0  0  0  0  0  0  0
    4.0438    2.2116    1.4546 C   0  0  0  0  0  0  0  0  0  0  0  0
    2.1618   -2.6612    0.3206 C   0  0  0  0  0  0  0  0  0  0  0  0
    4.1434    0.4242    0.4705 H   0  0  0  0  0  0  0  0  0  0  0  0
    2.7334    0.6326    1.6414 H   0  0  0  0  0  0  0  0  0  0  0  0
    4.1406   -1.0909   -1.7792 H   0  0  0  0  0  0  0  0  0  0  0  0
    5.2407   -1.2374   -0.5615 H   0  0  0  0  0  0  0  0  0  0  0  0
    5.1543   -1.0961    1.8072 H   0  0  0  0  0  0  0  0  0  0  0  0
    5.0057    0.2818    2.9115 H   0  0  0  0  0  0  0  0  0  0  0  0
    3.7705   -1.0030    3.0300 H   0  0  0  0  0  0  0  0  0  0  0  0
    2.9387   -3.2128   -1.3100 H   0  0  0  0  0  0  0  0  0  0  0  0
    4.3977   -3.7592   -1.6150 H   0  0  0  0  0  0  0  0  0  0  0  0
    4.2634   -3.3002    0.0738 H   0  0  0  0  0  0  0  0  0  0  0  0
    3.5169    2.1518   -0.9127 H   0  0  0  0  0  0  0  0  0  0  0  0
    2.2730    2.9506    0.1806 H   0  0  0  0  0  0  0  0  0  0  0  0
    2.2227   -1.2940   -2.1043 H   0  0  0  0  0  0  0  0  0  0  0  0
    3.0209   -0.1977   -1.1147 H   0  0  0  0  0  0  0  0  0  0  0  0
    4.9841    1.6051    1.2630 H   0  0  0  0  0  0  0  0  0  0  0  0
    4.7030    3.0141    1.8214 H   0  0  0  0  0  0  0  0  0  0  0  0
    3.5833    1.8952    2.4417 H   0  0  0  0  0  0  0  0  0  0  0  0
    1.1807   -3.0006    0.7343 H   0  0  0  0  0  0  0  0  0  0  0  0
    2.5824   -3.6595    0.3460 H   0  0  0  0  0  0  0  0  0  0  0  0
    2.5465   -2.4720    1.4497 H   0  0  0  0  0  0  0  0  0  0  0  0
  2  1  1  0  0  0  0
  3  1  2  0  0  0  0
  4  1  1  0  0  0  0
  5  4  1  0  0  0  0
  5 18  1  0  0  0  0
  5 19  1  0  0  0  0
  6  4  1  0  0  0  0
  6 20  1  0  0  0  0
  6 21  1  0  0  0  0
  7  5  1  0  0  0  0
  7 22  1  0  0  0  0
  7 23  1  0  0  0  0
  7 24  1  0  0  0  0
  8  6  1  0  0  0  0
  8 25  1  0  0  0  0
  8 26  1  0  0  0  0
  8 27  1  0  0  0  0
 11 10  1  0  0  0  0
 12 10  2  0  0  0  0
 13 10  1  0  0  0  0
 14 13  1  0  0  0  0
 14 28  1  0  0  0  0
 14 29  1  0  0  0  0
 15 13  1  0  0  0  0
 15 30  1  0  0  0  0
 15 31  1  0  0  0  0
 16 14  1  0  0  0  0
 16 32  1  0  0  0  0
 16 33  1  0  0  0  0
 16 34  1  0  0  0  0
 17 15  1  0  0  0  0
 17 35  1  0  0  0  0
 17 36  1  0  0  0  0
 17 37  1  0  0  0  0
M  CHG  3   2  -1   9   2  11  -1
M  END
>  <DRUGBANK_ID>
DB14193

>  <COMMON_NAME>
Ditiocarb zinc

>  <CAS_NUMBER>
14324-55-1

>  <UNII>
ICW4708Z8G

>  <SYNONYMS>
Bis(diethyldithiocarbamato)zinc; DEDTC; Diethyldithiocarbamic acid zinc salt; Ethazate; Ethyl cymate; Ethyl zimate; Ethyl Ziram; Ethylzimate; Zinc Diethyldithiocarbamate; Zinc N,N-diethyldithiocarbamate; Zinc, bis(diethylcarbamodithioato-S,S')-

$$$$
