908
 OpenBabel10282417113D

 48 51  0  0  1  0  0  0  0  0999 V2000
   -1.1042   -1.8918   -1.1773 O   0  0  0  0  0  0  0  0  0  0  0  0
    2.4414    1.3038   -4.9753 O   0  0  0  0  0  0  0  0  0  0  0  0
   -0.0078    0.8504   -3.3703 N   0  0  3  0  0  0  0  0  0  0  0  0
    3.6972   -0.5810    0.0785 N   0  0  0  0  0  0  0  0  0  0  0  0
   -0.9456    3.0108   -2.5070 C   0  0  1  0  0  0  0  0  0  0  0  0
   -1.0061    0.3809   -2.3954 C   0  0  2  0  0  0  0  0  0  0  0  0
   -1.6256    1.7317   -1.8594 C   0  0  0  0  0  0  0  0  0  0  0  0
    0.5139    3.0308   -2.0354 C   0  0  2  0  0  0  0  0  0  0  0  0
   -1.0768    2.8304   -4.0979 C   0  0  0  0  0  0  0  0  0  0  0  0
    0.9120    1.7434   -2.6223 C   0  0  0  0  0  0  0  0  0  0  0  0
   -0.6134    1.4386   -4.5445 C   0  0  0  0  0  0  0  0  0  0  0  0
   -0.4308   -0.6221   -1.2077 C   0  0  2  0  0  0  0  0  0  0  0  0
    0.9538    2.8543   -0.5538 C   0  0  0  0  0  0  0  0  0  0  0  0
    1.1051   -0.9161   -0.9124 C   0  0  0  0  0  0  0  0  0  0  0  0
    0.4212    3.4752    0.4574 C   0  0  0  0  0  0  0  0  0  0  0  0
    2.2549   -0.6395   -1.8215 C   0  0  0  0  0  0  0  0  0  0  0  0
    1.3868   -1.2409    0.4225 C   0  0  0  0  0  0  0  0  0  0  0  0
    3.4654   -0.2751   -1.2176 C   0  0  0  0  0  0  0  0  0  0  0  0
    2.2291   -0.4557   -3.2603 C   0  0  0  0  0  0  0  0  0  0  0  0
    2.7034   -1.1419    0.8244 C   0  0  0  0  0  0  0  0  0  0  0  0
    4.3772    0.5179   -1.9777 C   0  0  0  0  0  0  0  0  0  0  0  0
    3.0406    0.5284   -3.9589 C   0  0  0  0  0  0  0  0  0  0  0  0
    4.1470    0.9939   -3.2891 C   0  0  0  0  0  0  0  0  0  0  0  0
    3.0892    2.4794   -5.5306 C   0  0  0  0  0  0  0  0  0  0  0  0
   -1.4099    3.9408   -2.1917 H   0  0  0  0  0  0  0  0  0  0  0  0
   -1.7893   -0.1918   -2.9161 H   0  0  0  0  0  0  0  0  0  0  0  0
   -1.4348   -2.0849   -2.0662 H   0  0  0  0  0  0  0  0  0  0  0  0
   -2.6907    1.7754   -2.0923 H   0  0  0  0  0  0  0  0  0  0  0  0
   -1.5099    1.7738   -0.7763 H   0  0  0  0  0  0  0  0  0  0  0  0
    1.1283    3.8323   -2.4712 H   0  0  0  0  0  0  0  0  0  0  0  0
   -0.4997    3.5413   -4.7085 H   0  0  0  0  0  0  0  0  0  0  0  0
   -2.1252    3.0215   -4.3334 H   0  0  0  0  0  0  0  0  0  0  0  0
    1.9276    1.9522   -2.8968 H   0  0  0  0  0  0  0  0  0  0  0  0
    1.0312    1.1326   -1.7639 H   0  0  0  0  0  0  0  0  0  0  0  0
    0.0663    1.5140   -5.4098 H   0  0  0  0  0  0  0  0  0  0  0  0
   -1.3590    0.7240   -4.9360 H   0  0  0  0  0  0  0  0  0  0  0  0
   -0.8190   -0.1430   -0.2911 H   0  0  0  0  0  0  0  0  0  0  0  0
    1.7081    2.0719   -0.2986 H   0  0  0  0  0  0  0  0  0  0  0  0
    0.6896    3.2092    1.4837 H   0  0  0  0  0  0  0  0  0  0  0  0
   -0.3016    4.2549    0.2480 H   0  0  0  0  0  0  0  0  0  0  0  0
    0.6121   -1.5472    1.1268 H   0  0  0  0  0  0  0  0  0  0  0  0
    1.2924   -0.8083   -3.6894 H   0  0  0  0  0  0  0  0  0  0  0  0
    3.0078   -1.5003    1.8049 H   0  0  0  0  0  0  0  0  0  0  0  0
    5.2680    0.8982   -1.4822 H   0  0  0  0  0  0  0  0  0  0  0  0
    4.7379    1.8143   -3.6867 H   0  0  0  0  0  0  0  0  0  0  0  0
    3.3680    3.2837   -4.8253 H   0  0  0  0  0  0  0  0  0  0  0  0
    3.9631    2.1261   -6.0710 H   0  0  0  0  0  0  0  0  0  0  0  0
    2.4341    2.9771   -6.2708 H   0  0  0  0  0  0  0  0  0  0  0  0
  1 27  1  0  0  0  0
  2 22  1  0  0  0  0
  2 24  1  0  0  0  0
  3  6  1  0  0  0  0
  3 10  1  0  0  0  0
  3 11  1  0  0  0  0
  4 18  2  0  0  0  0
  4 20  1  0  0  0  0
  5  7  1  0  0  0  0
  5  8  1  0  0  0  0
  5  9  1  0  0  0  0
  5 25  1  1  0  0  0
  6  7  1  0  0  0  0
  6 26  1  6  0  0  0
  6 12  1  0  0  0  0
  7 28  1  0  0  0  0
  7 29  1  0  0  0  0
  8 10  1  0  0  0  0
  8 30  1  6  0  0  0
  8 13  1  0  0  0  0
  9 11  1  0  0  0  0
  9 31  1  0  0  0  0
  9 32  1  0  0  0  0
 10 33  1  0  0  0  0
 10 34  1  0  0  0  0
 11 35  1  0  0  0  0
 11 36  1  0  0  0  0
 12 37  1  1  0  0  0
 12 14  1  0  0  0  0
 12  1  1  0  0  0  0
 13 15  2  0  0  0  0
 13 38  1  0  0  0  0
 14 16  2  0  0  0  0
 14 17  1  0  0  0  0
 15 39  1  0  0  0  0
 15 40  1  0  0  0  0
 16 18  1  0  0  0  0
 16 19  1  0  0  0  0
 17 20  2  0  0  0  0
 17 41  1  0  0  0  0
 18 21  1  0  0  0  0
 19 22  2  0  0  0  0
 19 42  1  0  0  0  0
 20 43  1  0  0  0  0
 21 23  2  0  0  0  0
 21 44  1  0  0  0  0
 22 23  1  0  0  0  0
 23 45  1  0  0  0  0
 24 46  1  0  0  0  0
 24 47  1  0  0  0  0
 24 48  1  0  0  0  0
M  END
>  <DRUGBANK_ID>
DB00908

>  <SECONDARY_ACCESSION_NUMBERS>
APRD00136

>  <COMMON_NAME>
Quinidine

>  <CAS_NUMBER>
56-54-2

>  <UNII>
ITX08688JL

>  <SYNONYMS>
(+)-quinidine; (8R,9S)-Quinidine; (R)-(6-Methoxyquinolin-4-yl)((3S,4R,7S)-3-vinylquinuclidin-7-yl)methanol; (S)-(6-Methoxy-quinolin-4-yl)-((2R,5R)-5-vinyl-1-aza-bicyclo[2.2.2]oct-2-yl)-methanol; (S)-(6-Methoxyquinolin-4-yl)((2R,5R)-5-vinylquinuclidin-2-yl)methanol; 6-methoxy-α-(5-vinyl-2-quinuclidinyl)-4-quinolinemethanol; beta-Quinine; Chinidin; Chinidinum; CIN-QUIN; Conchinin; Conquinine; Pitayine; Quinidina; α-(6-methoxy-4-quinolyl)-5-vinyl-2-quinuclidinemethanol; β-quinine

$$$$
