
 OpenBabel10282417203D

 65 68  0  0  0  0  0  0  0  0999 V2000
    0.5987    1.3617    0.0531 C   0  0  0  0  0  0  0  0  0  0  0  0
    3.3625   -1.4146   -0.9982 C   0  0  0  0  0  0  0  0  0  0  0  0
    4.7148   -2.7777   -2.8635 C   0  0  0  0  0  0  0  0  0  0  0  0
    4.6294   -8.2670    1.5389 C   0  0  0  0  0  0  0  0  0  0  0  0
    1.2696    0.1885    0.2885 C   0  0  0  0  0  0  0  0  0  0  0  0
    2.8527   -2.7742   -1.1508 C   0  0  0  0  0  0  0  0  0  0  0  0
    5.4460   -3.1331   -1.6947 C   0  0  0  0  0  0  0  0  0  0  0  0
    5.4901   -7.1964    1.3166 C   0  0  0  0  0  0  0  0  0  0  0  0
   -0.7823    1.2994   -0.0396 C   0  0  0  0  0  0  0  0  0  0  0  0
    2.8525   -0.6295   -1.9608 C   0  0  0  0  0  0  0  0  0  0  0  0
    4.5023   -3.5524   -3.9396 C   0  0  0  0  0  0  0  0  0  0  0  0
    4.8797   -8.9049    2.6982 C   0  0  0  0  0  0  0  0  0  0  0  0
   -0.8410   -0.9556    0.0796 C   0  0  0  0  0  0  0  0  0  0  0  0
    1.2881   -2.4806   -2.5738 C   0  0  0  0  0  0  0  0  0  0  0  0
    6.0481   -4.8795   -2.8850 C   0  0  0  0  0  0  0  0  0  0  0  0
    6.2582   -7.1721    3.5102 C   0  0  0  0  0  0  0  0  0  0  0  0
    3.0118   -3.4925    1.0497 C   0  0  0  0  0  0  0  0  0  0  0  0
    1.4299   -5.0290    1.6396 C   0  0  0  0  0  0  0  0  0  0  0  0
    3.7200   -5.6017    1.2520 C   0  0  0  0  0  0  0  0  0  0  0  0
    3.6147   -3.9286    3.1067 C   0  0  0  0  0  0  0  0  0  0  0  0
    0.5132   -0.9771    0.3537 C   0  0  0  0  0  0  0  0  0  0  0  0
    1.7629   -3.4095   -1.7122 C   0  0  0  0  0  0  0  0  0  0  0  0
    5.7966   -4.4238   -1.6240 C   0  0  0  0  0  0  0  0  0  0  0  0
    6.0018   -6.3975    2.4373 C   0  0  0  0  0  0  0  0  0  0  0  0
    0.9658   -2.2864    0.6609 C   0  0  0  0  0  0  0  0  0  0  0  0
    1.3740   -4.9224   -1.3134 C   0  0  0  0  0  0  0  0  0  0  0  0
    6.1710   -4.8572   -0.2874 C   0  0  0  0  0  0  0  0  0  0  0  0
    6.1640   -4.8122    2.7289 C   0  0  0  0  0  0  0  0  0  0  0  0
    2.8815   -4.5897    1.9376 C   0  0  0  0  0  0  0  0  0  0  0  0
   -1.5202    0.1715   -0.0680 N   0  0  0  0  0  0  0  0  0  0  0  0
    1.8286   -1.1376   -2.7412 N   0  0  0  0  0  0  0  0  0  0  0  0
    5.3522   -4.5342   -4.0422 N   0  0  0  0  0  0  0  0  0  0  0  0
    5.7559   -8.4359    3.6326 N   0  0  0  0  0  0  0  0  0  0  0  0
    0.2299   -3.2259    0.2388 O   0  0  0  0  0  0  0  0  0  0  0  0
    1.2639   -5.7210   -2.2462 O   0  0  0  0  0  0  0  0  0  0  0  0
    7.3565   -4.7608    0.0240 O   0  0  0  0  0  0  0  0  0  0  0  0
    7.3018   -4.3521    2.8180 O   0  0  0  0  0  0  0  0  0  0  0  0
    2.1575   -2.3691    1.2570 O   0  0  0  0  0  0  0  0  0  0  0  0
    1.2460   -5.4518    0.0292 O   0  0  0  0  0  0  0  0  0  0  0  0
    5.1085   -4.8656    0.6292 O   0  0  0  0  0  0  0  0  0  0  0  0
    5.1217   -3.8981    2.9246 O   0  0  0  0  0  0  0  0  0  0  0  0
    1.1359    2.2985    0.0011 H   0  0  0  0  0  0  0  0  0  0  0  0
    4.2847   -1.1485   -0.4442 H   0  0  0  0  0  0  0  0  0  0  0  0
    3.8898   -2.1190   -2.9197 H   0  0  0  0  0  0  0  0  0  0  0  0
    3.7452   -8.4656    0.9117 H   0  0  0  0  0  0  0  0  0  0  0  0
    2.3505    0.2218    0.3703 H   0  0  0  0  0  0  0  0  0  0  0  0
    3.5711   -3.5616   -0.9811 H   0  0  0  0  0  0  0  0  0  0  0  0
    5.4102   -2.6531   -0.7047 H   0  0  0  0  0  0  0  0  0  0  0  0
    5.3333   -6.8743    0.2848 H   0  0  0  0  0  0  0  0  0  0  0  0
   -1.3741    2.1981   -0.0681 H   0  0  0  0  0  0  0  0  0  0  0  0
    3.4439    0.2464   -2.2514 H   0  0  0  0  0  0  0  0  0  0  0  0
    3.6616   -3.2792   -4.5943 H   0  0  0  0  0  0  0  0  0  0  0  0
    4.3867   -9.8499    2.8695 H   0  0  0  0  0  0  0  0  0  0  0  0
   -1.4193   -1.8782    0.0218 H   0  0  0  0  0  0  0  0  0  0  0  0
    0.4864   -2.7523   -3.2431 H   0  0  0  0  0  0  0  0  0  0  0  0
    6.9888   -5.3610   -3.0680 H   0  0  0  0  0  0  0  0  0  0  0  0
    6.9166   -6.7874    4.2780 H   0  0  0  0  0  0  0  0  0  0  0  0
    2.7978   -4.1535    0.2283 H   0  0  0  0  0  0  0  0  0  0  0  0
    4.0433   -3.1458    0.9480 H   0  0  0  0  0  0  0  0  0  0  0  0
    1.1106   -5.8965    2.2128 H   0  0  0  0  0  0  0  0  0  0  0  0
    0.7115   -4.2558    1.8626 H   0  0  0  0  0  0  0  0  0  0  0  0
    3.8114   -6.2045    2.1782 H   0  0  0  0  0  0  0  0  0  0  0  0
    3.2997   -6.2131    0.4527 H   0  0  0  0  0  0  0  0  0  0  0  0
    3.3402   -2.8449    3.1378 H   0  0  0  0  0  0  0  0  0  0  0  0
    3.4285   -4.3225    4.0866 H   0  0  0  0  0  0  0  0  0  0  0  0
  1 42  1  0  0  0  0
  2 43  1  0  0  0  0
  3 44  1  0  0  0  0
  4 45  1  0  0  0  0
  5  1  2  0  0  0  0
  5 46  1  0  0  0  0
  6  2  2  0  0  0  0
  6 47  1  0  0  0  0
  7  3  2  0  0  0  0
  7 48  1  0  0  0  0
  8  4  2  0  0  0  0
  8 49  1  0  0  0  0
  9  1  1  0  0  0  0
  9 50  1  0  0  0  0
 10  2  1  0  0  0  0
 10 51  1  0  0  0  0
 11  3  1  0  0  0  0
 11 52  1  0  0  0  0
 12  4  1  0  0  0  0
 12 53  1  0  0  0  0
 13 54  1  0  0  0  0
 14 55  1  0  0  0  0
 15 56  1  0  0  0  0
 16 57  1  0  0  0  0
 17 58  1  0  0  0  0
 17 59  1  0  0  0  0
 18 60  1  0  0  0  0
 18 61  1  0  0  0  0
 19 62  1  0  0  0  0
 19 63  1  0  0  0  0
 20 64  1  0  0  0  0
 20 65  1  0  0  0  0
 21  5  1  0  0  0  0
 21 13  2  0  0  0  0
 22  6  1  0  0  0  0
 22 14  2  0  0  0  0
 23  7  1  0  0  0  0
 23 15  2  0  0  0  0
 24  8  1  0  0  0  0
 24 16  2  0  0  0  0
 25 21  1  0  0  0  0
 26 22  1  0  0  0  0
 27 23  1  0  0  0  0
 28 24  1  0  0  0  0
 29 17  1  0  0  0  0
 29 18  1  0  0  0  0
 29 19  1  0  0  0  0
 29 20  1  0  0  0  0
 30  9  2  0  0  0  0
 30 13  1  0  0  0  0
 31 10  2  0  0  0  0
 31 14  1  0  0  0  0
 32 11  2  0  0  0  0
 32 15  1  0  0  0  0
 33 12  2  0  0  0  0
 33 16  1  0  0  0  0
 34 25  2  0  0  0  0
 35 26  2  0  0  0  0
 36 27  2  0  0  0  0
 37 28  2  0  0  0  0
 38 17  1  0  0  0  0
 38 25  1  0  0  0  0
 39 18  1  0  0  0  0
 39 26  1  0  0  0  0
 40 19  1  0  0  0  0
 40 27  1  0  0  0  0
 41 20  1  0  0  0  0
 41 28  1  0  0  0  0
M  END
>  <DRUGBANK_ID>
DB13441

>  <COMMON_NAME>
Niceritrol

>  <CAS_NUMBER>
5868-05-3

>  <UNII>
F54EHJ34MV

>  <SYNONYMS>
Niceritrol

$$$$
