
 OpenBabel10282417203D

 45 47  0  0  0  0  0  0  0  0999 V2000
    1.2228    0.8220    0.1698 C   0  0  0  0  0  0  0  0  0  0  0  0
    0.8175   -1.3517    0.0989 C   0  0  0  0  0  0  0  0  0  0  0  0
   -4.4451    2.3356    6.0137 C   0  0  0  0  0  0  0  0  0  0  0  0
   -1.6371   -4.4292    7.2689 C   0  0  0  0  0  0  0  0  0  0  0  0
   -4.9178    1.5536    4.9551 C   0  0  0  0  0  0  0  0  0  0  0  0
   -1.9463   -4.5863    5.9210 C   0  0  0  0  0  0  0  0  0  0  0  0
   -1.7223    0.0215    2.3834 C   0  0  0  0  0  0  0  0  0  0  0  0
   -3.2347    2.0189    6.6295 C   0  0  0  0  0  0  0  0  0  0  0  0
   -1.4627   -3.1523    7.7882 C   0  0  0  0  0  0  0  0  0  0  0  0
   -4.1915    0.4562    4.5264 C   0  0  0  0  0  0  0  0  0  0  0  0
   -2.0851   -3.4684    5.1102 C   0  0  0  0  0  0  0  0  0  0  0  0
   -1.6239   -1.0321    3.4221 C   0  0  0  0  0  0  0  0  0  0  0  0
   -1.1854    0.5631    6.8503 C   0  0  0  0  0  0  0  0  0  0  0  0
   -1.3746   -0.6868    7.7011 C   0  0  0  0  0  0  0  0  0  0  0  0
   -0.3852    0.5515    1.9170 C   0  0  0  0  0  0  0  0  0  0  0  0
   -2.4799    0.9384    6.1836 C   0  0  0  0  0  0  0  0  0  0  0  0
   -1.5854   -2.0043    6.9828 C   0  0  0  0  0  0  0  0  0  0  0  0
   -2.9628    0.1408    5.1223 C   0  0  0  0  0  0  0  0  0  0  0  0
   -1.9121   -2.1647    5.6051 C   0  0  0  0  0  0  0  0  0  0  0  0
   -2.1904   -1.0202    4.7115 C   0  0  0  0  0  0  0  0  0  0  0  0
    0.6920   -0.2661    1.1324 N   0  0  0  0  0  0  0  0  0  0  0  0
    1.3691   -0.8887    2.1594 O   0  0  0  0  0  0  0  0  0  0  0  0
    0.5895    1.7043    0.1171 H   0  0  0  0  0  0  0  0  0  0  0  0
    1.0108    0.5081   -0.8820 H   0  0  0  0  0  0  0  0  0  0  0  0
    2.2624    0.8894    0.4229 H   0  0  0  0  0  0  0  0  0  0  0  0
   -0.0908   -1.3627   -0.4775 H   0  0  0  0  0  0  0  0  0  0  0  0
    1.7156   -1.0777   -0.5401 H   0  0  0  0  0  0  0  0  0  0  0  0
    1.2971   -2.2743    0.4417 H   0  0  0  0  0  0  0  0  0  0  0  0
   -5.0209    3.1844    6.3614 H   0  0  0  0  0  0  0  0  0  0  0  0
   -1.5356   -5.2955    7.9122 H   0  0  0  0  0  0  0  0  0  0  0  0
   -5.8588    1.8028    4.4719 H   0  0  0  0  0  0  0  0  0  0  0  0
   -2.0908   -5.5787    5.5066 H   0  0  0  0  0  0  0  0  0  0  0  0
   -2.2873    0.8975    2.7445 H   0  0  0  0  0  0  0  0  0  0  0  0
   -2.2634   -0.3447    1.5097 H   0  0  0  0  0  0  0  0  0  0  0  0
   -2.8860    2.6175    7.4706 H   0  0  0  0  0  0  0  0  0  0  0  0
   -1.2282   -3.0426    8.8481 H   0  0  0  0  0  0  0  0  0  0  0  0
   -4.5614   -0.1628    3.7083 H   0  0  0  0  0  0  0  0  0  0  0  0
   -2.3527   -3.6172    4.0616 H   0  0  0  0  0  0  0  0  0  0  0  0
   -1.0158   -1.8675    3.1507 H   0  0  0  0  0  0  0  0  0  0  0  0
   -0.3926    0.4187    6.1061 H   0  0  0  0  0  0  0  0  0  0  0  0
   -0.8495    1.3902    7.4888 H   0  0  0  0  0  0  0  0  0  0  0  0
   -0.4718   -0.7873    8.3192 H   0  0  0  0  0  0  0  0  0  0  0  0
   -2.2181   -0.5400    8.3919 H   0  0  0  0  0  0  0  0  0  0  0  0
    0.1623    0.9400    2.8074 H   0  0  0  0  0  0  0  0  0  0  0  0
   -0.6042    1.4877    1.3897 H   0  0  0  0  0  0  0  0  0  0  0  0
  1 23  1  0  0  0  0
  1 24  1  0  0  0  0
  1 25  1  0  0  0  0
  2 26  1  0  0  0  0
  2 27  1  0  0  0  0
  2 28  1  0  0  0  0
  3 29  1  0  0  0  0
  4 30  1  0  0  0  0
  5  3  2  0  0  0  0
  5 31  1  0  0  0  0
  6  4  2  0  0  0  0
  6 32  1  0  0  0  0
  7 33  1  0  0  0  0
  7 34  1  0  0  0  0
  8  3  1  0  0  0  0
  8 35  1  0  0  0  0
  9  4  1  0  0  0  0
  9 36  1  0  0  0  0
 10  5  1  0  0  0  0
 10 37  1  0  0  0  0
 11  6  1  0  0  0  0
 11 38  1  0  0  0  0
 12  7  1  0  0  0  0
 12 39  1  0  0  0  0
 13 40  1  0  0  0  0
 13 41  1  0  0  0  0
 14 13  1  0  0  0  0
 14 42  1  0  0  0  0
 14 43  1  0  0  0  0
 15  7  1  0  0  0  0
 15 44  1  0  0  0  0
 15 45  1  0  0  0  0
 16  8  2  0  0  0  0
 16 13  1  0  0  0  0
 17  9  2  0  0  0  0
 17 14  1  0  0  0  0
 18 10  2  0  0  0  0
 18 16  1  0  0  0  0
 19 11  2  0  0  0  0
 19 17  1  0  0  0  0
 20 12  2  0  0  0  0
 20 18  1  0  0  0  0
 20 19  1  0  0  0  0
 21  1  1  0  0  0  0
 21  2  1  0  0  0  0
 21 15  1  0  0  0  0
 22 21  2  0  0  0  0
M  END
>  <DRUGBANK_ID>
DB13114

>  <COMMON_NAME>
Amitriptylinoxide

>  <CAS_NUMBER>
4317-14-0

>  <UNII>
TYR2U59WMA

>  <SYNONYMS>
Amitriptylinoxide

$$$$
