1123
 OpenBabel10282417113D

 27 29  0  0  0  0  0  0  0  0999 V2000
    0.0111   -1.3937   -0.0003 N   0  0  0  0  0  0  0  0  0  0  0  0
   -4.8066   -1.4102    0.0286 N   0  0  0  0  0  0  0  0  0  0  0  0
    4.8375   -1.3590    0.0056 N   0  0  0  0  0  0  0  0  0  0  0  0
   -1.2024    0.6919   -0.0020 C   0  0  0  0  0  0  0  0  0  0  0  0
    1.2055    0.6986   -0.0008 C   0  0  0  0  0  0  0  0  0  0  0  0
   -1.1597   -0.7155   -0.0015 C   0  0  0  0  0  0  0  0  0  0  0  0
    1.1778   -0.7094   -0.0001 C   0  0  0  0  0  0  0  0  0  0  0  0
   -0.0008    1.3899   -0.0017 C   0  0  0  0  0  0  0  0  0  0  0  0
   -2.4197    1.3811   -0.0012 C   0  0  0  0  0  0  0  0  0  0  0  0
    2.4146    1.3987   -0.0005 C   0  0  0  0  0  0  0  0  0  0  0  0
   -2.3801   -1.3887   -0.0019 C   0  0  0  0  0  0  0  0  0  0  0  0
    2.4065   -1.3720    0.0005 C   0  0  0  0  0  0  0  0  0  0  0  0
   -3.6110   -0.7157   -0.0084 C   0  0  0  0  0  0  0  0  0  0  0  0
    3.6299   -0.6853   -0.0013 C   0  0  0  0  0  0  0  0  0  0  0  0
   -3.6173    0.6769    0.0008 C   0  0  0  0  0  0  0  0  0  0  0  0
    3.6190    0.7072   -0.0002 C   0  0  0  0  0  0  0  0  0  0  0  0
   -4.8179   -2.4195   -0.0217 H   0  0  0  0  0  0  0  0  0  0  0  0
   -5.6872   -0.9158   -0.0183 H   0  0  0  0  0  0  0  0  0  0  0  0
    4.8727   -2.3685   -0.0033 H   0  0  0  0  0  0  0  0  0  0  0  0
    5.7085   -0.8455   -0.0039 H   0  0  0  0  0  0  0  0  0  0  0  0
   -0.0040    2.4774   -0.0018 H   0  0  0  0  0  0  0  0  0  0  0  0
   -2.4420    2.4684   -0.0004 H   0  0  0  0  0  0  0  0  0  0  0  0
    2.4255    2.4858   -0.0003 H   0  0  0  0  0  0  0  0  0  0  0  0
   -2.3627   -2.4760    0.0007 H   0  0  0  0  0  0  0  0  0  0  0  0
    2.4008   -2.4596    0.0018 H   0  0  0  0  0  0  0  0  0  0  0  0
   -4.5538    1.2270    0.0073 H   0  0  0  0  0  0  0  0  0  0  0  0
    4.5487    1.2681    0.0004 H   0  0  0  0  0  0  0  0  0  0  0  0
  1  6  2  0  0  0  0
  1  7  1  0  0  0  0
  2 13  1  0  0  0  0
  2 17  1  0  0  0  0
  2 18  1  0  0  0  0
  3 14  1  0  0  0  0
  3 19  1  0  0  0  0
  3 20  1  0  0  0  0
  4  6  1  0  0  0  0
  4  8  2  0  0  0  0
  4  9  1  0  0  0  0
  5  7  2  0  0  0  0
  5  8  1  0  0  0  0
  5 10  1  0  0  0  0
  6 11  1  0  0  0  0
  7 12  1  0  0  0  0
  8 21  1  0  0  0  0
  9 15  2  0  0  0  0
  9 22  1  0  0  0  0
 10 16  2  0  0  0  0
 10 23  1  0  0  0  0
 11 13  2  0  0  0  0
 11 24  1  0  0  0  0
 12 14  2  0  0  0  0
 12 25  1  0  0  0  0
 13 15  1  0  0  0  0
 14 16  1  0  0  0  0
 15 26  1  0  0  0  0
 16 27  1  0  0  0  0
M  END
>  <DRUGBANK_ID>
DB01123

>  <SECONDARY_ACCESSION_NUMBERS>
APRD00535

>  <COMMON_NAME>
Proflavine

>  <CAS_NUMBER>
92-62-6

>  <UNII>
CY3RNB3K4T

>  <SYNONYMS>
2,8-Diaminoacridine; 3,6-acridinediamine; 3,6-diaminoacridine; Diaminoacridine; Proflavin; Proflavina; Proflavine; Proflavinum

$$$$
