
 OpenBabel10282417133D

 23 23  0  0  1  0  0  0  0  0999 V2000
    0.5735   -1.1368    0.2171 C   0  0  0  0  0  0  0  0  0  0  0  0
    1.2933    0.1529   -0.1519 C   0  0  0  0  0  0  0  0  0  0  0  0
   -1.9026   -1.8141    0.2997 C   0  0  0  0  0  0  0  0  0  0  0  0
   -0.8435   -0.8796   -0.2828 C   0  0  1  0  0  0  0  0  0  0  0  0
    0.2170    1.2314   -0.0551 C   0  0  1  0  0  0  0  0  0  0  0  0
   -2.0712   -3.0765   -0.5014 C   0  0  0  0  0  0  0  0  0  0  0  0
    0.1888    2.1382   -1.2859 C   0  0  0  0  0  0  0  0  0  0  0  0
   -1.0787    0.5225    0.1242 N   0  0  0  0  0  0  0  0  0  0  0  0
   -2.1267   -4.2092   -0.0461 O   0  0  0  0  0  0  0  0  0  0  0  0
   -2.2650   -2.8560   -1.8152 O   0  0  0  0  0  0  0  0  0  0  0  0
    0.4337    3.3367   -1.2887 O   0  0  0  0  0  0  0  0  0  0  0  0
   -0.1072    1.5029   -2.4404 O   0  0  0  0  0  0  0  0  0  0  0  0
   -0.8485   -0.9255   -1.3777 H   0  0  0  0  0  0  0  0  0  0  0  0
    0.3863    1.8692    0.8204 H   0  0  0  0  0  0  0  0  0  0  0  0
    0.6006   -1.2797    1.3054 H   0  0  0  0  0  0  0  0  0  0  0  0
    1.0388   -2.0097   -0.2511 H   0  0  0  0  0  0  0  0  0  0  0  0
    2.1326    0.3504    0.5228 H   0  0  0  0  0  0  0  0  0  0  0  0
    1.6971    0.0737   -1.1683 H   0  0  0  0  0  0  0  0  0  0  0  0
   -1.6661   -2.0869    1.3358 H   0  0  0  0  0  0  0  0  0  0  0  0
   -2.8827   -1.3223    0.3142 H   0  0  0  0  0  0  0  0  0  0  0  0
   -1.3267    0.5532    1.1130 H   0  0  0  0  0  0  0  0  0  0  0  0
   -2.4248   -3.7361   -2.2145 H   0  0  0  0  0  0  0  0  0  0  0  0
   -0.1186    2.2085   -3.1183 H   0  0  0  0  0  0  0  0  0  0  0  0
  1 15  1  0  0  0  0
  1 16  1  0  0  0  0
  2  1  1  0  0  0  0
  2 17  1  0  0  0  0
  2 18  1  0  0  0  0
  3 19  1  0  0  0  0
  3 20  1  0  0  0  0
  4  1  1  0  0  0  0
  4 13  1  6  0  0  0
  4  3  1  0  0  0  0
  5  2  1  0  0  0  0
  5 14  1  1  0  0  0
  5  7  1  0  0  0  0
  6  3  1  0  0  0  0
  8  4  1  0  0  0  0
  8  5  1  0  0  0  0
  8 21  1  0  0  0  0
  9  6  2  0  0  0  0
 10  6  1  0  0  0  0
 10 22  1  0  0  0  0
 11  7  2  0  0  0  0
 12  7  1  0  0  0  0
 12 23  1  0  0  0  0
M  END
>  <DRUGBANK_ID>
DB03215

>  <SECONDARY_ACCESSION_NUMBERS>
EXPT02957

>  <COMMON_NAME>
(2s,5s)-5-Carboxymethylproline

$$$$
