
 OpenBabel10282417133D

 54 54  0  0  0  0  0  0  0  0999 V2000
    0.5446   -4.8370   -3.4763 Br  0  0  0  0  0  0  0  0  0  0  0  0
    6.3255   -0.5791   -1.1877 S   0  0  0  0  0  0  0  0  0  0  0  0
    6.0356    0.9123   -5.5957 O   0  0  0  0  0  0  0  0  0  0  0  0
    8.9693   -3.0989   -3.4174 O   0  0  0  0  0  0  0  0  0  0  0  0
    6.1500   -3.0449    0.0662 O   0  0  0  0  0  0  0  0  0  0  0  0
    8.7826   -4.2135   -5.3875 O   0  0  0  0  0  0  0  0  0  0  0  0
    3.8920   -0.5333    0.9902 O   0  0  0  0  0  0  0  0  0  0  0  0
    9.7569   -3.6812   -7.2529 O   0  0  0  0  0  0  0  0  0  0  0  0
    3.4212   -3.2310   -4.9722 O   0  0  0  0  0  0  0  0  0  0  0  0
    4.6464   -1.5432   -5.7280 O   0  0  0  0  0  0  0  0  0  0  0  0
    7.0818   -0.1690   -3.9795 N   0  0  0  0  0  0  0  0  0  0  0  0
    6.9281   -2.8947   -4.3816 N   0  0  0  0  0  0  0  0  0  0  0  0
   11.0697   -1.4136   -5.3149 N   0  0  0  0  0  0  0  0  0  0  0  0
    4.2852   -1.5739    0.1450 N   0  0  0  0  0  0  0  0  0  0  0  0
    8.0235   -0.9778   -3.1863 C   0  0  1  0  0  0  0  0  0  0  0  0
    9.0087   -0.7193   -6.7284 C   0  0  0  0  0  0  0  0  0  0  0  0
    7.4851   -0.8032   -6.5007 C   0  0  0  0  0  0  0  0  0  0  0  0
    7.8441   -1.3318   -1.7063 C   0  0  0  0  0  0  0  0  0  0  0  0
    9.6851   -1.6905   -5.7431 C   0  0  1  0  0  0  0  0  0  0  0  0
    6.8709    0.0390   -5.3275 C   0  0  0  0  0  0  0  0  0  0  0  0
    7.9921   -2.3862   -3.6858 C   0  0  0  0  0  0  0  0  0  0  0  0
    5.7508   -1.6836    0.0982 C   0  0  2  0  0  0  0  0  0  0  0  0
    9.4302   -3.2742   -6.1417 C   0  0  0  0  0  0  0  0  0  0  0  0
    5.5803   -2.8336   -3.9024 C   0  0  0  0  0  0  0  0  0  0  0  0
    3.3984   -2.2846   -0.6816 C   0  0  0  0  0  0  0  0  0  0  0  0
    3.8398   -3.3393   -1.4800 C   0  0  0  0  0  0  0  0  0  0  0  0
    2.0114   -2.0736   -0.7081 C   0  0  0  0  0  0  0  0  0  0  0  0
    4.5248   -2.4870   -4.9272 C   0  0  0  0  0  0  0  0  0  0  0  0
    2.9942   -4.1676   -2.2173 C   0  0  0  0  0  0  0  0  0  0  0  0
    1.1476   -2.8411   -1.5166 C   0  0  0  0  0  0  0  0  0  0  0  0
    1.6502   -3.8708   -2.2932 C   0  0  0  0  0  0  0  0  0  0  0  0
    7.1063   -3.1166   -0.0118 H   0  0  0  0  0  0  0  0  0  0  0  0
    8.7330   -4.1339   -4.4015 H   0  0  0  0  0  0  0  0  0  0  0  0
    2.9260   -0.5498    0.9766 H   0  0  0  0  0  0  0  0  0  0  0  0
    3.4015   -4.0346   -4.4313 H   0  0  0  0  0  0  0  0  0  0  0  0
    6.5342    0.4804   -3.4230 H   0  0  0  0  0  0  0  0  0  0  0  0
    7.0784   -3.6750   -5.0216 H   0  0  0  0  0  0  0  0  0  0  0  0
   11.0700   -0.7484   -4.5312 H   0  0  0  0  0  0  0  0  0  0  0  0
   11.5710   -0.9380   -6.0582 H   0  0  0  0  0  0  0  0  0  0  0  0
    9.0108   -0.4965   -3.2551 H   0  0  0  0  0  0  0  0  0  0  0  0
    9.2999   -1.0132   -7.7405 H   0  0  0  0  0  0  0  0  0  0  0  0
    9.2974    0.3341   -6.5956 H   0  0  0  0  0  0  0  0  0  0  0  0
    7.1906   -1.8484   -6.4105 H   0  0  0  0  0  0  0  0  0  0  0  0
    6.9747   -0.4944   -7.4249 H   0  0  0  0  0  0  0  0  0  0  0  0
    8.7098   -0.9857   -1.1344 H   0  0  0  0  0  0  0  0  0  0  0  0
    7.8803   -2.4279   -1.5560 H   0  0  0  0  0  0  0  0  0  0  0  0
    9.2064   -1.2716   -4.9075 H   0  0  0  0  0  0  0  0  0  0  0  0
    6.2054   -1.2389    0.9833 H   0  0  0  0  0  0  0  0  0  0  0  0
    5.4507   -3.8279   -3.4717 H   0  0  0  0  0  0  0  0  0  0  0  0
    5.5319   -2.0824   -3.1313 H   0  0  0  0  0  0  0  0  0  0  0  0
    4.8932   -3.5620   -1.5362 H   0  0  0  0  0  0  0  0  0  0  0  0
    1.5396   -1.3214   -0.0880 H   0  0  0  0  0  0  0  0  0  0  0  0
    3.4263   -5.0100   -2.7507 H   0  0  0  0  0  0  0  0  0  0  0  0
    0.0799   -2.6425   -1.5030 H   0  0  0  0  0  0  0  0  0  0  0  0
  1 31  1  0  0  0  0
  2 18  1  0  0  0  0
  3 20  2  0  0  0  0
  4 21  2  0  0  0  0
  5 32  1  0  0  0  0
  6 23  1  0  0  0  0
  6 33  1  0  0  0  0
  7 14  1  0  0  0  0
  7 34  1  0  0  0  0
  8 23  2  0  0  0  0
  9 28  1  0  0  0  0
  9 35  1  0  0  0  0
 10 28  2  0  0  0  0
 11 20  1  0  0  0  0
 11 36  1  0  0  0  0
 12 21  1  0  0  0  0
 12 24  1  0  0  0  0
 12 37  1  0  0  0  0
 13 38  1  0  0  0  0
 13 39  1  0  0  0  0
 14 22  1  0  0  0  0
 14 25  1  0  0  0  0
 15 21  1  0  0  0  0
 15 40  1  6  0  0  0
 15 18  1  0  0  0  0
 15 11  1  0  0  0  0
 16 17  1  0  0  0  0
 16 41  1  0  0  0  0
 16 42  1  0  0  0  0
 17 20  1  0  0  0  0
 17 43  1  0  0  0  0
 17 44  1  0  0  0  0
 18 45  1  0  0  0  0
 18 46  1  0  0  0  0
 19 23  1  0  0  0  0
 19 47  1  1  0  0  0
 19 16  1  0  0  0  0
 19 13  1  0  0  0  0
 22 48  1  1  0  0  0
 22  5  1  0  0  0  0
 22  2  1  0  0  0  0
 24 28  1  0  0  0  0
 24 49  1  0  0  0  0
 24 50  1  0  0  0  0
 25 26  2  0  0  0  0
 25 27  1  0  0  0  0
 26 29  1  0  0  0  0
 26 51  1  0  0  0  0
 27 30  2  0  0  0  0
 27 52  1  0  0  0  0
 29 31  2  0  0  0  0
 29 53  1  0  0  0  0
 30 31  1  0  0  0  0
 30 54  1  0  0  0  0
M  END
>  <DRUGBANK_ID>
DB03889

>  <SECONDARY_ACCESSION_NUMBERS>
EXPT01552

>  <COMMON_NAME>
S-(N-hydroxy-N-bromophenylcarbamoyl)glutathione

>  <SYNONYMS>
(2S)-2-Amino-5-[[(2R)-3-[(S)-(4-bromo-N-hydroxyanilino)-hydroxymethyl]sulfanyl-1-(carboxymethylamino)-1-oxopropan-2-yl]amino]-5-oxopentanoic acid; L-Î³-Glutamyl-S-[(S)-[(4-bromophenyl)(hydroxy)amino](hydroxy)methyl]-L-cysteinylglycine

$$$$
