
 OpenBabel10282417123D

 13 13  0  0  0  0  0  0  0  0999 V2000
    2.2761   -0.0054   -0.0027 C   0  0  0  0  0  0  0  0  0  0  0  0
   -0.0394    1.1593    0.0020 C   0  0  0  0  0  0  0  0  0  0  0  0
   -1.3486    0.7346   -0.0001 C   0  0  0  0  0  0  0  0  0  0  0  0
   -0.0535   -1.0872    0.0058 C   0  0  0  0  0  0  0  0  0  0  0  0
    0.7919    0.0053    0.0017 C   0  0  0  0  0  0  0  0  0  0  0  0
   -1.3467   -0.6341   -0.0028 N   0  0  0  0  0  0  0  0  0  0  0  0
    2.6561    0.5052   -0.8934 H   0  0  0  0  0  0  0  0  0  0  0  0
    2.6629    0.5098    0.8823 H   0  0  0  0  0  0  0  0  0  0  0  0
    2.6695   -1.0269   -0.0022 H   0  0  0  0  0  0  0  0  0  0  0  0
    0.2878    2.1913    0.0023 H   0  0  0  0  0  0  0  0  0  0  0  0
   -2.2770    1.2890   -0.0017 H   0  0  0  0  0  0  0  0  0  0  0  0
    0.1558   -2.1488    0.0108 H   0  0  0  0  0  0  0  0  0  0  0  0
   -2.1716   -1.2203   -0.0097 H   0  0  0  0  0  0  0  0  0  0  0  0
  1  7  1  0  0  0  0
  1  8  1  0  0  0  0
  1  9  1  0  0  0  0
  2 10  1  0  0  0  0
  3  2  2  0  0  0  0
  3 11  1  0  0  0  0
  4 12  1  0  0  0  0
  5  1  1  0  0  0  0
  5  2  1  0  0  0  0
  5  4  2  0  0  0  0
  6  3  1  0  0  0  0
  6  4  1  0  0  0  0
  6 13  1  0  0  0  0
M  END
>  <DRUGBANK_ID>
DB01932

>  <SECONDARY_ACCESSION_NUMBERS>
EXPT00253

>  <COMMON_NAME>
5-Methylpyrrole

>  <CAS_NUMBER>
616-43-3

$$$$
