998
 OpenBabel10282417113D

 35 37  0  0  1  0  0  0  0  0999 V2000
    1.0460    0.1588   -0.0472 O   0  0  0  0  0  0  0  0  0  0  0  0
    4.9835    0.0387   -4.9773 N   0  0  0  0  0  0  0  0  0  0  0  0
    1.8805    4.2250   -7.0284 N   0  0  0  0  0  0  0  0  0  0  0  0
    2.9873    0.0646    1.1106 N   0  0  0  0  0  0  0  0  0  0  0  0
    2.8715    3.2954   -6.4422 C   0  0  1  0  0  0  0  0  0  0  0  0
    2.2624    2.3856   -5.3402 C   0  0  0  0  0  0  0  0  0  0  0  0
    3.5046    2.4323   -7.5691 C   0  0  0  0  0  0  0  0  0  0  0  0
    3.2406    1.3906   -4.8754 C   0  0  0  0  0  0  0  0  0  0  0  0
    4.5630    1.4238   -7.0660 C   0  0  0  0  0  0  0  0  0  0  0  0
    4.2585    0.9519   -5.6869 C   0  0  0  0  0  0  0  0  0  0  0  0
    3.3525    0.7544   -3.6139 C   0  0  0  0  0  0  0  0  0  0  0  0
    4.4538   -0.0972   -3.7079 C   0  0  0  0  0  0  0  0  0  0  0  0
    2.6295    0.8190   -2.4023 C   0  0  0  0  0  0  0  0  0  0  0  0
    4.8617   -0.9091   -2.6458 C   0  0  0  0  0  0  0  0  0  0  0  0
    3.0418    0.0265   -1.3208 C   0  0  0  0  0  0  0  0  0  0  0  0
    0.9057    4.6804   -6.0402 C   0  0  0  0  0  0  0  0  0  0  0  0
    4.1353   -0.8352   -1.4502 C   0  0  0  0  0  0  0  0  0  0  0  0
    2.2706    0.0813   -0.0537 C   0  0  0  0  0  0  0  0  0  0  0  0
    5.7976   -0.4518   -5.3184 H   0  0  0  0  0  0  0  0  0  0  0  0
    1.3866    3.7627   -7.7906 H   0  0  0  0  0  0  0  0  0  0  0  0
    3.9937    0.1484    1.1429 H   0  0  0  0  0  0  0  0  0  0  0  0
    2.4704    0.1648    1.9754 H   0  0  0  0  0  0  0  0  0  0  0  0
    3.6759    3.8994   -5.9975 H   0  0  0  0  0  0  0  0  0  0  0  0
    1.9438    2.9825   -4.4789 H   0  0  0  0  0  0  0  0  0  0  0  0
    1.3882    1.8555   -5.7408 H   0  0  0  0  0  0  0  0  0  0  0  0
    2.7074    1.8741   -8.0798 H   0  0  0  0  0  0  0  0  0  0  0  0
    3.9642    3.0733   -8.3339 H   0  0  0  0  0  0  0  0  0  0  0  0
    4.6050    0.5731   -7.7558 H   0  0  0  0  0  0  0  0  0  0  0  0
    5.5481    1.9036   -7.0707 H   0  0  0  0  0  0  0  0  0  0  0  0
    1.7688    1.4768   -2.3034 H   0  0  0  0  0  0  0  0  0  0  0  0
    5.7030   -1.5849   -2.7484 H   0  0  0  0  0  0  0  0  0  0  0  0
    0.1866    5.3658   -6.4901 H   0  0  0  0  0  0  0  0  0  0  0  0
    0.3141    3.8466   -5.6451 H   0  0  0  0  0  0  0  0  0  0  0  0
    1.4054    5.1909   -5.2102 H   0  0  0  0  0  0  0  0  0  0  0  0
    4.4144   -1.4892   -0.6289 H   0  0  0  0  0  0  0  0  0  0  0  0
  1 18  2  0  0  0  0
  2 10  1  0  0  0  0
  2 12  1  0  0  0  0
  2 19  1  0  0  0  0
  3 16  1  0  0  0  0
  3 20  1  0  0  0  0
  4 18  1  0  0  0  0
  4 21  1  0  0  0  0
  4 22  1  0  0  0  0
  5  6  1  0  0  0  0
  5  7  1  0  0  0  0
  5 23  1  1  0  0  0
  5  3  1  0  0  0  0
  6  8  1  0  0  0  0
  6 24  1  0  0  0  0
  6 25  1  0  0  0  0
  7  9  1  0  0  0  0
  7 26  1  0  0  0  0
  7 27  1  0  0  0  0
  8 10  2  0  0  0  0
  8 11  1  0  0  0  0
  9 10  1  0  0  0  0
  9 28  1  0  0  0  0
  9 29  1  0  0  0  0
 11 12  2  0  0  0  0
 11 13  1  0  0  0  0
 12 14  1  0  0  0  0
 13 15  2  0  0  0  0
 13 30  1  0  0  0  0
 14 17  2  0  0  0  0
 14 31  1  0  0  0  0
 15 17  1  0  0  0  0
 15 18  1  0  0  0  0
 16 32  1  0  0  0  0
 16 33  1  0  0  0  0
 16 34  1  0  0  0  0
 17 35  1  0  0  0  0
M  END
>  <DRUGBANK_ID>
DB00998

>  <SECONDARY_ACCESSION_NUMBERS>
APRD00270

>  <COMMON_NAME>
Frovatriptan

>  <CAS_NUMBER>
158747-02-5

>  <UNII>
H82Q2D5WA7

>  <SYNONYMS>
Frovatriptan

$$$$
