
 OpenBabel10282417243D

 56 60  0  0  0  0  0  0  0  0999 V2000
    2.2163   -0.0361    0.0003 C   0  0  0  0  0  0  0  0  0  0  0  0
    0.7384   -0.0605   -0.0265 C   0  0  0  0  0  0  0  0  0  0  0  0
   -0.0972   -1.1529   -0.0209 C   0  0  0  0  0  0  0  0  0  0  0  0
   -1.3609   -0.6381    0.0078 N   0  0  0  0  0  0  0  0  0  0  0  0
   -1.2672    0.7316   -0.0106 C   0  0  0  0  0  0  0  0  0  0  0  0
    0.0006    1.1007   -0.0649 N   0  0  0  0  0  0  0  0  0  0  0  0
   -2.4185    1.6205    0.0059 C   0  0  0  0  0  0  0  0  0  0  0  0
   -2.5775    2.5566   -1.0159 C   0  0  0  0  0  0  0  0  0  0  0  0
   -3.5930    3.5230   -0.9498 C   0  0  0  0  0  0  0  0  0  0  0  0
   -4.4568    3.6520    0.1644 C   0  0  0  0  0  0  0  0  0  0  0  0
   -4.3711    2.6331    1.1074 C   0  0  0  0  0  0  0  0  0  0  0  0
   -5.2198    2.3776    2.3117 C   0  0  0  0  0  0  0  0  0  0  0  0
   -4.5904    1.2317    2.9088 N   0  0  0  0  0  0  0  0  0  0  0  0
   -3.5104    0.7592    2.1892 C   0  0  0  0  0  0  0  0  0  0  0  0
   -2.8572   -0.2128    2.4509 O   0  0  0  0  0  0  0  0  0  0  0  0
   -3.3660    1.6487    1.0195 C   0  0  0  0  0  0  0  0  0  0  0  0
   -5.3941    4.7915    0.2382 C   0  0  0  0  0  0  0  0  0  0  0  0
   -5.9592    5.2543   -0.9300 C   0  0  0  0  0  0  0  0  0  0  0  0
   -6.9719    6.2006   -0.9437 C   0  0  0  0  0  0  0  0  0  0  0  0
   -7.5854    6.6256    0.2005 C   0  0  0  0  0  0  0  0  0  0  0  0
   -8.8848    7.1879    0.1076 N   0  0  0  0  0  0  0  0  0  0  0  0
   -9.8478    7.1343   -0.8860 C   0  0  0  0  0  0  0  0  0  0  0  0
  -10.7648    7.9644   -0.8453 O   0  0  0  0  0  0  0  0  0  0  0  0
   -9.8372    6.2581   -1.9487 N   0  0  0  0  0  0  0  0  0  0  0  0
   -9.1958    5.0092   -2.1557 C   0  0  0  0  0  0  0  0  0  0  0  0
   -8.9897    4.1368   -1.0840 C   0  0  0  0  0  0  0  0  0  0  0  0
   -8.0156    3.1346   -1.1544 C   0  0  0  0  0  0  0  0  0  0  0  0
   -7.2974    2.9320   -2.3301 C   0  0  0  0  0  0  0  0  0  0  0  0
   -7.5528    3.7276   -3.4589 C   0  0  0  0  0  0  0  0  0  0  0  0
   -8.4827    4.7935   -3.3599 C   0  0  0  0  0  0  0  0  0  0  0  0
   -6.8029    3.4323   -4.7322 C   0  0  0  0  0  0  0  0  0  0  0  0
   -7.6654    3.0338   -5.7019 F   0  0  0  0  0  0  0  0  0  0  0  0
   -6.1061    4.4848   -5.2386 F   0  0  0  0  0  0  0  0  0  0  0  0
   -5.8956    2.4220   -4.5970 F   0  0  0  0  0  0  0  0  0  0  0  0
   -6.8228    6.4736    1.3558 C   0  0  0  0  0  0  0  0  0  0  0  0
   -5.7308    5.5565    1.3567 C   0  0  0  0  0  0  0  0  0  0  0  0
   -4.9587    5.4709    2.4496 F   0  0  0  0  0  0  0  0  0  0  0  0
    2.6064    0.4822   -0.8798 H   0  0  0  0  0  0  0  0  0  0  0  0
    2.5790    0.4734    0.8985 H   0  0  0  0  0  0  0  0  0  0  0  0
    2.6209   -1.0538    0.0040 H   0  0  0  0  0  0  0  0  0  0  0  0
    0.0953   -2.2150   -0.0047 H   0  0  0  0  0  0  0  0  0  0  0  0
   -2.2223   -1.1603    0.0766 H   0  0  0  0  0  0  0  0  0  0  0  0
   -1.8879    2.5753   -1.8593 H   0  0  0  0  0  0  0  0  0  0  0  0
   -3.6626    4.2159   -1.7881 H   0  0  0  0  0  0  0  0  0  0  0  0
   -6.2482    2.1078    2.0491 H   0  0  0  0  0  0  0  0  0  0  0  0
   -5.1981    3.1993    3.0258 H   0  0  0  0  0  0  0  0  0  0  0  0
   -4.8597    0.7969    3.7810 H   0  0  0  0  0  0  0  0  0  0  0  0
   -5.7235    4.7821   -1.8735 H   0  0  0  0  0  0  0  0  0  0  0  0
   -7.3931    6.4754   -1.8941 H   0  0  0  0  0  0  0  0  0  0  0  0
   -9.1571    7.8225    0.8513 H   0  0  0  0  0  0  0  0  0  0  0  0
  -10.5022    6.5254   -2.6701 H   0  0  0  0  0  0  0  0  0  0  0  0
   -9.3848    4.3979   -0.1067 H   0  0  0  0  0  0  0  0  0  0  0  0
   -7.6503    2.6932   -0.2287 H   0  0  0  0  0  0  0  0  0  0  0  0
   -6.4043    2.3001   -2.3047 H   0  0  0  0  0  0  0  0  0  0  0  0
   -8.4490    5.5740   -4.1273 H   0  0  0  0  0  0  0  0  0  0  0  0
   -7.0198    7.0404    2.2589 H   0  0  0  0  0  0  0  0  0  0  0  0
  1  2  1  0  0  0  0
  1 38  1  0  0  0  0
  1 39  1  0  0  0  0
  1 40  1  0  0  0  0
  2  3  2  0  0  0  0
  2  6  1  0  0  0  0
  3  4  1  0  0  0  0
  3 41  1  0  0  0  0
  4  5  1  0  0  0  0
  4 42  1  0  0  0  0
  5  6  2  0  0  0  0
  5  7  1  0  0  0  0
  7  8  2  0  0  0  0
  7 16  1  0  0  0  0
  8  9  1  0  0  0  0
  8 43  1  0  0  0  0
  9 10  2  0  0  0  0
  9 44  1  0  0  0  0
 10 11  1  0  0  0  0
 10 17  1  0  0  0  0
 11 12  1  0  0  0  0
 11 16  2  0  0  0  0
 12 13  1  0  0  0  0
 12 45  1  0  0  0  0
 12 46  1  0  0  0  0
 13 14  1  0  0  0  0
 13 47  1  0  0  0  0
 14 15  2  0  0  0  0
 14 16  1  0  0  0  0
 17 18  2  0  0  0  0
 17 36  1  0  0  0  0
 18 19  1  0  0  0  0
 18 48  1  0  0  0  0
 19 20  2  0  0  0  0
 19 49  1  0  0  0  0
 20 21  1  0  0  0  0
 20 35  1  0  0  0  0
 21 22  1  0  0  0  0
 21 50  1  0  0  0  0
 22 23  2  0  0  0  0
 22 24  1  0  0  0  0
 24 25  1  0  0  0  0
 24 51  1  0  0  0  0
 25 26  2  0  0  0  0
 25 30  1  0  0  0  0
 26 27  1  0  0  0  0
 26 52  1  0  0  0  0
 27 28  2  0  0  0  0
 27 53  1  0  0  0  0
 28 29  1  0  0  0  0
 28 54  1  0  0  0  0
 29 30  2  0  0  0  0
 29 31  1  0  0  0  0
 30 55  1  0  0  0  0
 31 32  1  0  0  0  0
 31 33  1  0  0  0  0
 31 34  1  0  0  0  0
 35 36  2  0  0  0  0
 35 56  1  0  0  0  0
 36 37  1  0  0  0  0
M  END
>  <DRUGBANK_ID>
DB18632

>  <COMMON_NAME>
1-(3-fluoro-4-(7-(5-methyl-1H-imidazol-2-yl)-1-oxo-2,3-dihydro-1H-isoindo-1-4-yl)-phenyl)-3-(3-trifluoromethyl-phenyl)-urea

>  <CAS_NUMBER>
1370466-81-1

>  <UNII>
7W3FGR71NN

>  <SYNONYMS>
Urea, n-(4-(2,3-dihydro-7-(5-methyl-1h-imidazol-2-yl)-1-oxo-1h-isoindol-4-yl)-3-fluorophenyl)-n'-(3-(trifluoromethyl)phenyl)

$$$$
