AGE
 OpenBabel10282417163D

 37 38  0  0  0  0  0  0  0  0999 V2000
    0.6500   -0.0104   -0.0026 N   0  0  0  0  0  0  0  0  0  0  0  0
   -3.9740    4.6698   -3.7905 C   0  0  0  0  0  0  0  0  0  0  0  0
    1.5240   -5.3284    0.0532 N   0  0  0  0  0  0  0  0  0  0  0  0
   -3.7170    2.7802   -2.3247 C   0  0  0  0  0  0  0  0  0  0  0  0
   -3.2078    3.6043   -1.3096 C   0  0  0  0  0  0  0  0  0  0  0  0
   -3.1638    4.9882   -1.5323 C   0  0  0  0  0  0  0  0  0  0  0  0
    2.7076   -4.6028    0.0834 O   0  0  0  0  0  0  0  0  0  0  0  0
   -0.6216   -5.8702   -0.0019 O   0  0  0  0  0  0  0  0  0  0  0  0
   -3.7879    0.9648    0.1528 O   0  0  0  0  0  0  0  0  0  0  0  0
   -3.5506    5.5160   -2.7666 C   0  0  0  0  0  0  0  0  0  0  0  0
   -4.0490    3.3003   -3.5711 C   0  0  0  0  0  0  0  0  0  0  0  0
   -2.6218    3.0396   -0.0327 C   0  0  0  0  0  0  0  0  0  0  0  0
   -2.6964    1.5272    0.0722 C   0  0  0  0  0  0  0  0  0  0  0  0
   -1.4746    0.7230    0.0281 C   0  0  0  0  0  0  0  0  0  0  0  0
   -0.1488    1.1172    0.0126 C   0  0  0  0  0  0  0  0  0  0  0  0
    2.1025    0.0655   -0.0390 C   0  0  0  0  0  0  0  0  0  0  0  0
   -0.1622   -1.1331    0.0040 C   0  0  0  0  0  0  0  0  0  0  0  0
   -1.4668   -0.6960   -0.0069 C   0  0  0  0  0  0  0  0  0  0  0  0
    0.4025   -2.4250    0.0235 C   0  0  0  0  0  0  0  0  0  0  0  0
   -0.2886   -3.5677    0.0041 C   0  0  0  0  0  0  0  0  0  0  0  0
    0.2208   -4.9723    0.0203 C   0  0  0  0  0  0  0  0  0  0  0  0
   -4.2559    5.0750   -4.7575 H   0  0  0  0  0  0  0  0  0  0  0  0
    1.6808   -6.3315    0.0559 H   0  0  0  0  0  0  0  0  0  0  0  0
   -3.8571    1.7119   -2.1765 H   0  0  0  0  0  0  0  0  0  0  0  0
   -2.8128    5.6631   -0.7541 H   0  0  0  0  0  0  0  0  0  0  0  0
    2.4654   -3.6783    0.0724 H   0  0  0  0  0  0  0  0  0  0  0  0
   -3.4994    6.5872   -2.9406 H   0  0  0  0  0  0  0  0  0  0  0  0
   -4.3532    2.6245   -4.3655 H   0  0  0  0  0  0  0  0  0  0  0  0
   -3.1353    3.4499    0.8442 H   0  0  0  0  0  0  0  0  0  0  0  0
   -1.5786    3.3657    0.0238 H   0  0  0  0  0  0  0  0  0  0  0  0
    0.3094    2.0987    0.0151 H   0  0  0  0  0  0  0  0  0  0  0  0
    2.4021    0.5310   -0.9809 H   0  0  0  0  0  0  0  0  0  0  0  0
    2.4505    0.6501    0.8162 H   0  0  0  0  0  0  0  0  0  0  0  0
    2.5762   -0.9138    0.0168 H   0  0  0  0  0  0  0  0  0  0  0  0
   -2.3484   -1.3261   -0.0193 H   0  0  0  0  0  0  0  0  0  0  0  0
    1.4579   -2.4240    0.0683 H   0  0  0  0  0  0  0  0  0  0  0  0
   -1.3782   -3.5461   -0.0277 H   0  0  0  0  0  0  0  0  0  0  0  0
  1 17  1  0  0  0  0
  2 10  2  0  0  0  0
  2 11  1  0  0  0  0
  2 22  1  0  0  0  0
  3  7  1  0  0  0  0
  3 23  1  0  0  0  0
  4  5  1  0  0  0  0
  4 24  1  0  0  0  0
  5 12  1  0  0  0  0
  6  5  2  0  0  0  0
  6 25  1  0  0  0  0
  7 26  1  0  0  0  0
  8 21  2  0  0  0  0
 10  6  1  0  0  0  0
 10 27  1  0  0  0  0
 11  4  2  0  0  0  0
 11 28  1  0  0  0  0
 12 13  1  0  0  0  0
 12 29  1  0  0  0  0
 12 30  1  0  0  0  0
 13  9  2  0  0  0  0
 14 13  1  0  0  0  0
 14 18  1  0  0  0  0
 15  1  1  0  0  0  0
 15 14  2  0  0  0  0
 15 31  1  0  0  0  0
 16  1  1  0  0  0  0
 16 32  1  0  0  0  0
 16 33  1  0  0  0  0
 16 34  1  0  0  0  0
 17 19  1  0  0  0  0
 17 18  2  0  0  0  0
 18 35  1  0  0  0  0
 19 20  2  0  0  0  0
 19 36  1  0  0  0  0
 20 21  1  0  0  0  0
 20 37  1  0  0  0  0
 21  3  1  0  0  0  0
M  END
>  <DRUGBANK_ID>
DB07350

>  <COMMON_NAME>
(2E)-N-hydroxy-3-[1-methyl-4-(phenylacetyl)-1H-pyrrol-2-yl]prop-2-enamide

$$$$
