
 OpenBabel10282417103D

 43 47  0  0  0  0  0  0  0  0999 V2000
    0.0560   -0.6595    0.5812 C   0  0  2  0  0  0  0  0  0  0  0  0
   -0.1267    0.7884    0.2560 C   0  0  0  0  0  0  0  0  0  0  0  0
    0.6645   -1.3234   -0.6704 C   0  0  2  0  0  0  0  0  0  0  0  0
   -1.4076   -1.0261    0.8932 C   0  0  1  0  0  0  0  0  0  0  0  0
    0.9640   -0.8214    1.8113 C   0  0  0  0  0  0  0  0  0  0  0  0
   -1.3773    1.2255    0.6374 C   0  0  0  0  0  0  0  0  0  0  0  0
    0.7489    1.5620   -0.4920 C   0  0  0  0  0  0  0  0  0  0  0  0
    2.0522   -0.6490   -0.8901 C   0  0  1  0  0  0  0  0  0  0  0  0
   -0.3124   -1.2333   -1.8368 C   0  0  0  0  0  0  0  0  0  0  0  0
   -2.1472    0.2091    1.1415 O   0  0  0  0  0  0  0  0  0  0  0  0
   -2.0732   -1.8516   -0.2369 C   0  0  2  0  0  0  0  0  0  0  0  0
    2.4131   -0.4136    1.5302 C   0  0  0  0  0  0  0  0  0  0  0  0
   -1.7642    2.5342    0.4161 C   0  0  0  0  0  0  0  0  0  0  0  0
    1.9363    0.8979   -1.1487 C   0  0  0  0  0  0  0  0  0  0  0  0
    0.3983    2.8945   -0.6992 C   0  0  0  0  0  0  0  0  0  0  0  0
    2.8894   -1.0232    0.2840 N   0  0  0  0  0  0  0  0  0  0  0  0
   -1.6180   -1.4431   -1.6114 C   0  0  0  0  0  0  0  0  0  0  0  0
   -3.4913   -1.8148   -0.1684 O   0  0  0  0  0  0  0  0  0  0  0  0
   -0.8414    3.3780   -0.2287 C   0  0  0  0  0  0  0  0  0  0  0  0
   -2.9716    3.0959    0.7260 O   0  0  0  0  0  0  0  0  0  0  0  0
    4.3080   -0.7617    0.0707 C   0  0  0  0  0  0  0  0  0  0  0  0
   -3.9190    2.2346    1.3534 C   0  0  0  0  0  0  0  0  0  0  0  0
    0.8252   -2.3960   -0.4838 H   0  0  0  0  0  0  0  0  0  0  0  0
   -1.4910   -1.6009    1.8242 H   0  0  0  0  0  0  0  0  0  0  0  0
    0.9484   -1.8732    2.1261 H   0  0  0  0  0  0  0  0  0  0  0  0
    0.5886   -0.2340    2.6599 H   0  0  0  0  0  0  0  0  0  0  0  0
    2.5079   -1.1087   -1.7780 H   0  0  0  0  0  0  0  0  0  0  0  0
    0.0444   -0.9441   -2.8221 H   0  0  0  0  0  0  0  0  0  0  0  0
   -1.7819   -2.9016   -0.1067 H   0  0  0  0  0  0  0  0  0  0  0  0
    3.0267   -0.7481    2.3753 H   0  0  0  0  0  0  0  0  0  0  0  0
    2.5056    0.6788    1.5021 H   0  0  0  0  0  0  0  0  0  0  0  0
    2.8508    1.4212   -0.8530 H   0  0  0  0  0  0  0  0  0  0  0  0
    1.8378    1.0380   -2.2334 H   0  0  0  0  0  0  0  0  0  0  0  0
    1.0562    3.5576   -1.2568 H   0  0  0  0  0  0  0  0  0  0  0  0
   -2.3540   -1.3376   -2.4039 H   0  0  0  0  0  0  0  0  0  0  0  0
   -3.7376   -0.8730   -0.1779 H   0  0  0  0  0  0  0  0  0  0  0  0
   -1.1057    4.4175   -0.4127 H   0  0  0  0  0  0  0  0  0  0  0  0
    4.6729   -1.3306   -0.7911 H   0  0  0  0  0  0  0  0  0  0  0  0
    4.5265    0.2970   -0.0924 H   0  0  0  0  0  0  0  0  0  0  0  0
    4.8929   -1.0956    0.9348 H   0  0  0  0  0  0  0  0  0  0  0  0
   -4.2037    1.4096    0.6900 H   0  0  0  0  0  0  0  0  0  0  0  0
   -3.5436    1.8690    2.3159 H   0  0  0  0  0  0  0  0  0  0  0  0
   -4.8270    2.8084    1.5552 H   0  0  0  0  0  0  0  0  0  0  0  0
  1  2  1  6  0  0  0
  1  3  1  0  0  0  0
  1  4  1  0  0  0  0
  1  5  1  0  0  0  0
  2  6  2  0  0  0  0
  2  7  1  0  0  0  0
  3  8  1  0  0  0  0
  3  9  1  0  0  0  0
  3 23  1  1  0  0  0
  4 10  1  0  0  0  0
  4 11  1  0  0  0  0
  4 24  1  1  0  0  0
  5 12  1  0  0  0  0
  5 25  1  0  0  0  0
  5 26  1  0  0  0  0
  6 13  1  0  0  0  0
  6 10  1  0  0  0  0
  7 14  1  0  0  0  0
  7 15  2  0  0  0  0
  8 16  1  0  0  0  0
  8 14  1  0  0  0  0
  8 27  1  6  0  0  0
  9 17  2  0  0  0  0
  9 28  1  0  0  0  0
 11 18  1  0  0  0  0
 11 17  1  0  0  0  0
 11 29  1  1  0  0  0
 12 16  1  0  0  0  0
 12 30  1  0  0  0  0
 12 31  1  0  0  0  0
 13 19  2  0  0  0  0
 13 20  1  0  0  0  0
 14 32  1  0  0  0  0
 14 33  1  0  0  0  0
 15 19  1  0  0  0  0
 15 34  1  0  0  0  0
 16 21  1  0  0  0  0
 17 35  1  0  0  0  0
 18 36  1  0  0  0  0
 19 37  1  0  0  0  0
 20 22  1  0  0  0  0
 21 38  1  0  0  0  0
 21 39  1  0  0  0  0
 21 40  1  0  0  0  0
 22 41  1  0  0  0  0
 22 42  1  0  0  0  0
 22 43  1  0  0  0  0
M  END
>  <DRUGBANK_ID>
DB00318

>  <SECONDARY_ACCESSION_NUMBERS>
APRD00120; DB09471

>  <COMMON_NAME>
Codeine

>  <CAS_NUMBER>
76-57-3

>  <UNII>
UX6OWY2V7J

>  <SYNONYMS>
(−)-Codeine; (5alpha,6alpha)-7,8-Didehydro-4,5-epoxy-3-methoxy-17-methylmorphinan-6-ol; 7,8-didehydro-4,5α-epoxy-3-methoxy-17-methylmorphinan-6α-ol; Codein; Codeína; Codéine; Codeine anhydrous; Codeine polistirex; Codeinum; L-Codeine; Methylmorphine; morphine 3-methyl ether; Morphine monomethyl ether; morphine-3-methyl ether; O3-Methylmorphine

$$$$
