
 OpenBabel10282417133D

 24 24  0  0  0  0  0  0  0  0999 V2000
   -0.9891   -1.7498   -0.6028 C   0  0  0  0  0  0  0  0  0  0  0  0
    0.1526   -0.7635   -1.0537 C   0  0  2  0  0  0  0  0  0  0  0  0
   -1.0889   -2.3708    0.4565 O   0  0  0  0  0  0  0  0  0  0  0  0
    1.0420   -0.1668    0.0717 C   0  0  0  0  0  0  0  0  0  0  0  0
   -1.9745   -2.0179   -1.4984 N   0  0  0  0  0  0  0  0  0  0  0  0
   -0.4946    0.3509   -1.7929 N   0  0  0  0  0  0  0  0  0  0  0  0
    1.5090   -1.1337    1.1380 C   0  0  0  0  0  0  0  0  0  0  0  0
    1.8063   -0.6604    2.4201 C   0  0  0  0  0  0  0  0  0  0  0  0
    1.4605   -2.5158    0.9316 C   0  0  0  0  0  0  0  0  0  0  0  0
    1.3232   -3.3702    2.0183 C   0  0  0  0  0  0  0  0  0  0  0  0
    1.8706   -1.5533    3.4918 C   0  0  0  0  0  0  0  0  0  0  0  0
    1.5680   -2.9002    3.2986 C   0  0  0  0  0  0  0  0  0  0  0  0
    0.8115   -1.2941   -1.7556 H   0  0  0  0  0  0  0  0  0  0  0  0
    1.9211    0.3343   -0.3594 H   0  0  0  0  0  0  0  0  0  0  0  0
    0.4585    0.6232    0.5692 H   0  0  0  0  0  0  0  0  0  0  0  0
   -2.2332   -1.3668   -2.2184 H   0  0  0  0  0  0  0  0  0  0  0  0
   -2.7084   -2.5810   -1.0833 H   0  0  0  0  0  0  0  0  0  0  0  0
   -0.9523   -0.0279   -2.6167 H   0  0  0  0  0  0  0  0  0  0  0  0
   -1.2293    0.7225   -1.1872 H   0  0  0  0  0  0  0  0  0  0  0  0
    1.9246    0.4055    2.6011 H   0  0  0  0  0  0  0  0  0  0  0  0
    1.2880   -2.9335   -0.0565 H   0  0  0  0  0  0  0  0  0  0  0  0
    0.9332   -4.3721    1.8549 H   0  0  0  0  0  0  0  0  0  0  0  0
    2.0804   -1.1877    4.4914 H   0  0  0  0  0  0  0  0  0  0  0  0
    1.5088   -3.5857    4.1370 H   0  0  0  0  0  0  0  0  0  0  0  0
  2  6  1  0  0  0  0
  2 13  1  6  0  0  0
  2  4  1  0  0  0  0
  2  1  1  0  0  0  0
  3  1  2  0  0  0  0
  4 14  1  0  0  0  0
  4 15  1  0  0  0  0
  5  1  1  0  0  0  0
  5 16  1  0  0  0  0
  5 17  1  0  0  0  0
  6 18  1  0  0  0  0
  6 19  1  0  0  0  0
  7  4  1  0  0  0  0
  8  7  1  0  0  0  0
  8 20  1  0  0  0  0
  9  7  2  0  0  0  0
  9 21  1  0  0  0  0
 10  9  1  0  0  0  0
 10 22  1  0  0  0  0
 11  8  2  0  0  0  0
 11 12  1  0  0  0  0
 11 23  1  0  0  0  0
 12 10  2  0  0  0  0
 12 24  1  0  0  0  0
M  END
>  <DRUGBANK_ID>
DB04029

>  <SECONDARY_ACCESSION_NUMBERS>
EXPT02329

>  <COMMON_NAME>
Phenylalanylamide

>  <CAS_NUMBER>
5241-58-7

>  <UNII>
PV9T9B2S11

>  <SYNONYMS>
(S)-2-amino-3-phenylpropanamide; L-phenylalanine amide; Phenylalaninamide; Phenylalanine amide

$$$$
