5AP
 OpenBabel10282417123D

 45 47  0  0  0  0  0  0  0  0999 V2000
   -2.5328    0.9161    0.7866 Cl  0  0  0  0  0  0  0  0  0  0  0  0
   -1.1543   -0.0205    0.2816 C   0  0  0  0  0  0  0  0  0  0  0  0
    0.0540    0.6652    0.1405 C   0  0  0  0  0  0  0  0  0  0  0  0
    1.2351   -0.0543    0.0120 C   0  0  0  0  0  0  0  0  0  0  0  0
    2.7353    0.7841   -0.0543 Cl  0  0  0  0  0  0  0  0  0  0  0  0
    1.2153   -1.4463   -0.0071 C   0  0  0  0  0  0  0  0  0  0  0  0
   -0.0088   -2.1228    0.0069 C   0  0  0  0  0  0  0  0  0  0  0  0
   -1.2229   -1.4169    0.0992 C   0  0  0  0  0  0  0  0  0  0  0  0
   -2.5019   -2.1432   -0.0207 C   0  0  0  0  0  0  0  0  0  0  0  0
   -3.3779   -1.9794   -1.1029 C   0  0  0  0  0  0  0  0  0  0  0  0
   -3.0305   -1.1942   -2.3440 C   0  0  0  0  0  0  0  0  0  0  0  0
   -2.7986    0.2198   -2.1137 N   0  0  0  0  0  0  0  0  0  0  0  0
   -4.5765   -2.6778   -0.9951 C   0  0  0  0  0  0  0  0  0  0  0  0
   -5.5477   -2.6549   -1.9907 N   0  0  0  0  0  0  0  0  0  0  0  0
   -2.7282   -3.0093    0.9938 N   0  0  0  0  0  0  0  0  0  0  0  0
   -3.8786   -3.6979    0.9399 C   0  0  0  0  0  0  0  0  0  0  0  0
   -4.8284   -3.5297    0.0060 N   0  0  0  0  0  0  0  0  0  0  0  0
   -4.1828   -4.6377    2.0234 C   0  0  0  0  0  0  0  0  0  0  0  0
   -4.1507   -4.2091    3.3593 C   0  0  0  0  0  0  0  0  0  0  0  0
   -4.6202   -5.0255    4.3887 C   0  0  0  0  0  0  0  0  0  0  0  0
   -4.7056   -4.6719    5.7091 O   0  0  0  0  0  0  0  0  0  0  0  0
   -4.3337   -3.3342    6.0191 C   0  0  0  0  0  0  0  0  0  0  0  0
   -5.1049   -6.3007    4.0932 C   0  0  0  0  0  0  0  0  0  0  0  0
   -5.1419   -6.7558    2.7762 C   0  0  0  0  0  0  0  0  0  0  0  0
   -4.6350   -5.9439    1.7563 C   0  0  0  0  0  0  0  0  0  0  0  0
   -5.6924   -7.9435    2.3692 O   0  0  0  0  0  0  0  0  0  0  0  0
   -6.4690   -8.6354    3.3453 C   0  0  0  0  0  0  0  0  0  0  0  0
    0.0681    1.7509    0.1551 H   0  0  0  0  0  0  0  0  0  0  0  0
    2.1438   -2.0102   -0.0427 H   0  0  0  0  0  0  0  0  0  0  0  0
   -0.0150   -3.2112   -0.0422 H   0  0  0  0  0  0  0  0  0  0  0  0
   -2.1327   -1.6362   -2.7896 H   0  0  0  0  0  0  0  0  0  0  0  0
   -3.8085   -1.2749   -3.1077 H   0  0  0  0  0  0  0  0  0  0  0  0
   -2.6331    0.7389   -2.9693 H   0  0  0  0  0  0  0  0  0  0  0  0
   -3.5706    0.6503   -1.6067 H   0  0  0  0  0  0  0  0  0  0  0  0
   -6.3994   -3.0803   -1.6256 H   0  0  0  0  0  0  0  0  0  0  0  0
   -5.7156   -1.7629   -2.4342 H   0  0  0  0  0  0  0  0  0  0  0  0
   -3.7947   -3.2020    3.5571 H   0  0  0  0  0  0  0  0  0  0  0  0
   -3.2679   -3.1789    5.8238 H   0  0  0  0  0  0  0  0  0  0  0  0
   -4.9474   -2.6123    5.4683 H   0  0  0  0  0  0  0  0  0  0  0  0
   -4.5090   -3.1711    7.0858 H   0  0  0  0  0  0  0  0  0  0  0  0
   -5.4695   -6.9083    4.9148 H   0  0  0  0  0  0  0  0  0  0  0  0
   -4.6323   -6.3141    0.7325 H   0  0  0  0  0  0  0  0  0  0  0  0
   -5.8159   -9.0644    4.1115 H   0  0  0  0  0  0  0  0  0  0  0  0
   -7.2321   -7.9892    3.7966 H   0  0  0  0  0  0  0  0  0  0  0  0
   -6.9924   -9.4584    2.8496 H   0  0  0  0  0  0  0  0  0  0  0  0
  1  2  1  0  0  0  0
  2  3  2  0  0  0  0
  2  8  1  0  0  0  0
  3  4  1  0  0  0  0
  3 28  1  0  0  0  0
  4  5  1  0  0  0  0
  4  6  2  0  0  0  0
  6  7  1  0  0  0  0
  6 29  1  0  0  0  0
  7  8  2  0  0  0  0
  7 30  1  0  0  0  0
  8  9  1  0  0  0  0
  9 10  2  0  0  0  0
  9 15  1  0  0  0  0
 10 11  1  0  0  0  0
 10 13  1  0  0  0  0
 11 12  1  0  0  0  0
 11 31  1  0  0  0  0
 11 32  1  0  0  0  0
 12 33  1  0  0  0  0
 12 34  1  0  0  0  0
 13 14  1  0  0  0  0
 13 17  2  0  0  0  0
 14 35  1  0  0  0  0
 14 36  1  0  0  0  0
 15 16  2  0  0  0  0
 16 17  1  0  0  0  0
 16 18  1  0  0  0  0
 18 19  1  0  0  0  0
 18 25  2  0  0  0  0
 19 20  2  0  0  0  0
 19 37  1  0  0  0  0
 20 21  1  0  0  0  0
 20 23  1  0  0  0  0
 21 22  1  0  0  0  0
 22 38  1  0  0  0  0
 22 39  1  0  0  0  0
 22 40  1  0  0  0  0
 23 24  2  0  0  0  0
 23 41  1  0  0  0  0
 24 25  1  0  0  0  0
 24 26  1  0  0  0  0
 25 42  1  0  0  0  0
 26 27  1  0  0  0  0
 27 43  1  0  0  0  0
 27 44  1  0  0  0  0
 27 45  1  0  0  0  0
M  END
>  <DRUGBANK_ID>
DB02004

>  <SECONDARY_ACCESSION_NUMBERS>
EXPT00239

>  <COMMON_NAME>
5-(Aminomethyl)-6-(2,4-Dichlorophenyl)-2-(3,5-Dimethoxyphenyl)Pyrimidin-4-Amine

$$$$
