
 OpenBabel10282417153D

 19 19  0  0  0  0  0  0  0  0999 V2000
    0.9510   -0.1498   -0.0746 Cl  0  0  0  0  0  0  0  0  0  0  0  0
    1.7382    2.7287   -1.5630 Cl  0  0  0  0  0  0  0  0  0  0  0  0
    1.7265    2.7409    1.3933 Cl  0  0  0  0  0  0  0  0  0  0  0  0
    3.9543    3.8165   -0.0806 Cl  0  0  0  0  0  0  0  0  0  0  0  0
    5.6971   -2.8576   -0.0733 Cl  0  0  0  0  0  0  0  0  0  0  0  0
    6.8959   -0.1729   -0.0621 O   0  0  0  0  0  0  0  0  0  0  0  0
    2.7645   -2.4243   -0.0688 O   0  0  0  0  0  0  0  0  0  0  0  0
    4.8014    1.0285   -0.0664 N   0  0  0  0  0  0  0  0  0  0  0  0
    3.3940    1.1048   -0.0721 C   0  0  0  0  0  0  0  0  0  0  0  0
    5.5133   -0.1555   -0.0658 C   0  0  0  0  0  0  0  0  0  0  0  0
    2.6779   -0.0464   -0.0719 C   0  0  0  0  0  0  0  0  0  0  0  0
    2.7131    2.4939   -0.0797 C   0  0  0  0  0  0  0  0  0  0  0  0
    4.8763   -1.3406   -0.0693 C   0  0  0  0  0  0  0  0  0  0  0  0
    3.3899   -1.3640   -0.0698 C   0  0  0  0  0  0  0  0  0  0  0  0
    7.6252    1.0410   -0.0551 C   0  0  0  0  0  0  0  0  0  0  0  0
    5.3174    1.9069   -0.0657 H   0  0  0  0  0  0  0  0  0  0  0  0
    7.4195    1.6231   -0.9577 H   0  0  0  0  0  0  0  0  0  0  0  0
    7.4105    1.6192    0.8479 H   0  0  0  0  0  0  0  0  0  0  0  0
    8.6907    0.7883   -0.0503 H   0  0  0  0  0  0  0  0  0  0  0  0
  1 11  1  0  0  0  0
  2 12  1  0  0  0  0
  3 12  1  0  0  0  0
  4 12  1  0  0  0  0
  5 13  1  0  0  0  0
  6 10  1  0  0  0  0
  6 15  1  0  0  0  0
  7 14  2  0  0  0  0
  8  9  1  0  0  0  0
  8 10  1  0  0  0  0
  8 16  1  0  0  0  0
  9 11  2  0  0  0  0
  9 12  1  0  0  0  0
 10 13  2  0  0  0  0
 11 14  1  0  0  0  0
 13 14  1  0  0  0  0
 15 17  1  0  0  0  0
 15 18  1  0  0  0  0
 15 19  1  0  0  0  0
M  END
>  <DRUGBANK_ID>
DB06331

>  <COMMON_NAME>
4-O-Demethylpenclomedine

>  <CAS_NUMBER>
176046-79-0

>  <UNII>
XUK71J2M0Q

>  <SYNONYMS>
4-Demethylpenclomedine; 4-Dm-pen; 4-Dmpen; DM-PEN; DMPEN

$$$$
