
 OpenBabel10282417213D

 60 63  0  0  0  0  0  0  0  0999 V2000
    1.7294   -0.4761    0.3167 O   0  0  0  0  0  0  0  0  0  0  0  0
    0.9004   -0.5795   -0.7317 C   0  0  0  0  0  0  0  0  0  0  0  0
    1.1909   -1.7602   -1.6631 C   0  0  0  0  0  0  0  0  0  0  0  0
    0.6505   -3.1920   -1.3886 C   0  0  0  0  0  0  0  0  0  0  0  0
   -0.7921   -3.4969   -1.6466 N   0  0  0  0  0  0  0  0  0  0  0  0
   -1.1849   -4.4790   -2.5704 C   0  0  0  0  0  0  0  0  0  0  0  0
   -2.6448   -4.6617   -2.8510 C   0  0  0  0  0  0  0  0  0  0  0  0
   -0.3890   -5.1528   -3.2251 O   0  0  0  0  0  0  0  0  0  0  0  0
   -3.1664   -5.9585   -2.9117 C   0  0  0  0  0  0  0  0  0  0  0  0
   -4.5535   -6.1008   -3.0699 C   0  0  0  0  0  0  0  0  0  0  0  0
   -5.3673   -4.9777   -3.1672 C   0  0  0  0  0  0  0  0  0  0  0  0
   -4.8707   -3.6780   -3.1402 C   0  0  0  0  0  0  0  0  0  0  0  0
   -3.4872   -3.5510   -3.0329 C   0  0  0  0  0  0  0  0  0  0  0  0
    0.1064    0.3341   -0.9631 O   0  0  0  0  0  0  0  0  0  0  0  0
   -5.3053   -7.2392   -3.1460 N   0  0  0  0  0  0  0  0  0  0  0  0
   -6.5602   -6.8507   -3.3019 C   0  0  0  0  0  0  0  0  0  0  0  0
   -6.6433   -5.4768   -3.3044 N   0  0  0  0  0  0  0  0  0  0  0  0
   -7.8071   -4.6398   -3.4775 C   0  0  0  0  0  0  0  0  0  0  0  0
   -7.7177   -7.7902   -3.4639 C   0  0  0  0  0  0  0  0  0  0  0  0
   -7.6277   -8.6358   -4.6473 N   0  0  0  0  0  0  0  0  0  0  0  0
   -7.5674  -10.0134   -4.5395 C   0  0  0  0  0  0  0  0  0  0  0  0
   -8.4527  -10.7101   -3.7153 C   0  0  0  0  0  0  0  0  0  0  0  0
   -8.4594  -12.1073   -3.6746 C   0  0  0  0  0  0  0  0  0  0  0  0
   -7.5525  -12.8433   -4.4431 C   0  0  0  0  0  0  0  0  0  0  0  0
   -6.6546  -12.1537   -5.2633 C   0  0  0  0  0  0  0  0  0  0  0  0
   -6.6271  -10.7517   -5.2642 C   0  0  0  0  0  0  0  0  0  0  0  0
   -7.5196  -14.3383   -4.3189 C   0  0  0  0  0  0  0  0  0  0  0  0
   -6.6370  -15.0881   -5.0352 N   0  0  0  0  0  0  0  0  0  0  0  0
   -8.3342  -14.9184   -3.4964 N   0  0  0  0  0  0  0  0  0  0  0  0
   -1.7379   -2.8410   -0.8215 C   0  0  0  0  0  0  0  0  0  0  0  0
   -2.6465   -3.4699   -0.0575 N   0  0  0  0  0  0  0  0  0  0  0  0
   -3.4763   -2.6752    0.6783 C   0  0  0  0  0  0  0  0  0  0  0  0
   -3.3580   -1.2979    0.7778 C   0  0  0  0  0  0  0  0  0  0  0  0
   -2.4838   -0.6869   -0.0848 C   0  0  0  0  0  0  0  0  0  0  0  0
   -1.8074   -1.4802   -0.9902 C   0  0  0  0  0  0  0  0  0  0  0  0
    2.5960   -0.1734   -0.0197 H   0  0  0  0  0  0  0  0  0  0  0  0
    0.8940   -1.4621   -2.6746 H   0  0  0  0  0  0  0  0  0  0  0  0
    2.2879   -1.8119   -1.6897 H   0  0  0  0  0  0  0  0  0  0  0  0
    1.2357   -3.8560   -2.0449 H   0  0  0  0  0  0  0  0  0  0  0  0
    0.8940   -3.5153   -0.3690 H   0  0  0  0  0  0  0  0  0  0  0  0
   -2.5315   -6.8328   -2.8188 H   0  0  0  0  0  0  0  0  0  0  0  0
   -5.5099   -2.8046   -3.1929 H   0  0  0  0  0  0  0  0  0  0  0  0
   -3.0795   -2.5463   -3.0393 H   0  0  0  0  0  0  0  0  0  0  0  0
   -7.8892   -3.9729   -2.6142 H   0  0  0  0  0  0  0  0  0  0  0  0
   -7.6763   -4.0552   -4.3928 H   0  0  0  0  0  0  0  0  0  0  0  0
   -8.7172   -5.2305   -3.5571 H   0  0  0  0  0  0  0  0  0  0  0  0
   -7.7842   -8.3730   -2.5370 H   0  0  0  0  0  0  0  0  0  0  0  0
   -8.6631   -7.2508   -3.5433 H   0  0  0  0  0  0  0  0  0  0  0  0
   -7.2351   -8.2102   -5.4771 H   0  0  0  0  0  0  0  0  0  0  0  0
   -9.1815  -10.1667   -3.1223 H   0  0  0  0  0  0  0  0  0  0  0  0
   -9.1900  -12.6119   -3.0473 H   0  0  0  0  0  0  0  0  0  0  0  0
   -5.9655  -12.6758   -5.9150 H   0  0  0  0  0  0  0  0  0  0  0  0
   -5.8456  -10.2453   -5.8268 H   0  0  0  0  0  0  0  0  0  0  0  0
   -6.5498  -16.0827   -4.8869 H   0  0  0  0  0  0  0  0  0  0  0  0
   -5.9214  -14.6681   -5.6105 H   0  0  0  0  0  0  0  0  0  0  0  0
   -8.1802  -15.9267   -3.4984 H   0  0  0  0  0  0  0  0  0  0  0  0
   -4.2766   -3.1861    1.2035 H   0  0  0  0  0  0  0  0  0  0  0  0
   -3.9512   -0.7012    1.4588 H   0  0  0  0  0  0  0  0  0  0  0  0
   -2.3135    0.3850   -0.0762 H   0  0  0  0  0  0  0  0  0  0  0  0
   -1.3156   -1.0471   -1.8516 H   0  0  0  0  0  0  0  0  0  0  0  0
  1  2  1  0  0  0  0
  1 36  1  0  0  0  0
  2  3  1  0  0  0  0
  2 14  2  0  0  0  0
  3  4  1  0  0  0  0
  3 37  1  0  0  0  0
  3 38  1  0  0  0  0
  4  5  1  0  0  0  0
  4 39  1  0  0  0  0
  4 40  1  0  0  0  0
  5  6  1  0  0  0  0
  5 30  1  0  0  0  0
  6  7  1  0  0  0  0
  6  8  2  0  0  0  0
  7  9  2  0  0  0  0
  7 13  1  0  0  0  0
  9 10  1  0  0  0  0
  9 41  1  0  0  0  0
 10 11  2  0  0  0  0
 10 15  1  0  0  0  0
 11 12  1  0  0  0  0
 11 17  1  0  0  0  0
 12 13  2  0  0  0  0
 12 42  1  0  0  0  0
 13 43  1  0  0  0  0
 15 16  2  0  0  0  0
 16 17  1  0  0  0  0
 16 19  1  0  0  0  0
 17 18  1  0  0  0  0
 18 44  1  0  0  0  0
 18 45  1  0  0  0  0
 18 46  1  0  0  0  0
 19 20  1  0  0  0  0
 19 47  1  0  0  0  0
 19 48  1  0  0  0  0
 20 21  1  0  0  0  0
 20 49  1  0  0  0  0
 21 22  2  0  0  0  0
 21 26  1  0  0  0  0
 22 23  1  0  0  0  0
 22 50  1  0  0  0  0
 23 24  2  0  0  0  0
 23 51  1  0  0  0  0
 24 25  1  0  0  0  0
 24 27  1  0  0  0  0
 25 26  2  0  0  0  0
 25 52  1  0  0  0  0
 26 53  1  0  0  0  0
 27 28  1  0  0  0  0
 27 29  2  0  0  0  0
 28 54  1  0  0  0  0
 28 55  1  0  0  0  0
 29 56  1  0  0  0  0
 30 31  2  0  0  0  0
 30 35  1  0  0  0  0
 31 32  1  0  0  0  0
 32 33  2  0  0  0  0
 32 57  1  0  0  0  0
 33 34  1  0  0  0  0
 33 58  1  0  0  0  0
 34 35  2  0  0  0  0
 34 59  1  0  0  0  0
 35 60  1  0  0  0  0
M  END
>  <DRUGBANK_ID>
DB14726

>  <COMMON_NAME>
Dabigatran

>  <CAS_NUMBER>
211914-51-1

>  <UNII>
I0VM4M70GC

>  <SYNONYMS>
Dabigatran

$$$$
