
 OpenBabel10282417153D

 41 42  0  0  0  0  0  0  0  0999 V2000
    5.1178   -5.7625    0.9521 Cl  0  0  0  0  0  0  0  0  0  0  0  0
    6.4202    1.8367   -1.0543 O   0  0  0  0  0  0  0  0  0  0  0  0
    4.8320   -0.8198    3.1665 O   0  0  0  0  0  0  0  0  0  0  0  0
    6.8171   -0.5049   -1.1731 O   0  0  0  0  0  0  0  0  0  0  0  0
    3.8137   -0.4762   -2.2745 N   0  0  0  0  0  0  0  0  0  0  0  0
    5.1428    1.0297    1.6805 N   0  0  0  0  0  0  0  0  0  0  0  0
    5.5535   -4.9180   -1.9751 N   0  0  0  0  0  0  0  0  0  0  0  0
    4.3908    1.3970    0.3023 C   0  0  1  0  0  0  0  0  0  0  0  0
    4.9872    1.8616   -1.0902 C   0  0  2  0  0  0  0  0  0  0  0  0
    4.0834   -0.0024    0.0597 C   0  0  0  0  0  0  0  0  0  0  0  0
    4.1330    0.9697   -2.3102 C   0  0  0  0  0  0  0  0  0  0  0  0
    3.5265   -0.8963   -0.9541 C   0  0  0  0  0  0  0  0  0  0  0  0
    5.3983   -0.4749    2.0549 C   0  0  0  0  0  0  0  0  0  0  0  0
    7.1329    3.0599   -1.1548 C   0  0  0  0  0  0  0  0  0  0  0  0
    5.9100   -1.7532    0.9590 C   0  0  0  0  0  0  0  0  0  0  0  0
    6.4100   -1.6662   -0.4958 C   0  0  0  0  0  0  0  0  0  0  0  0
    5.4337   -3.0611    1.3337 C   0  0  0  0  0  0  0  0  0  0  0  0
    6.2674   -2.7457   -1.3740 C   0  0  0  0  0  0  0  0  0  0  0  0
    5.4724   -4.1510    0.4053 C   0  0  0  0  0  0  0  0  0  0  0  0
    5.8242   -3.9838   -0.9542 C   0  0  0  0  0  0  0  0  0  0  0  0
    6.7666   -0.2447   -2.6426 C   0  0  0  0  0  0  0  0  0  0  0  0
    4.4253   -1.1557   -2.7209 H   0  0  0  0  0  0  0  0  0  0  0  0
    4.5720    1.4331    2.4362 H   0  0  0  0  0  0  0  0  0  0  0  0
    5.7622   -5.8759   -1.7133 H   0  0  0  0  0  0  0  0  0  0  0  0
    5.9312   -4.6721   -2.8873 H   0  0  0  0  0  0  0  0  0  0  0  0
    3.5674    2.0756    0.5368 H   0  0  0  0  0  0  0  0  0  0  0  0
    4.7086    2.8893   -1.3416 H   0  0  0  0  0  0  0  0  0  0  0  0
    5.1442   -0.1419   -0.0247 H   0  0  0  0  0  0  0  0  0  0  0  0
    3.6103   -0.3916    0.9446 H   0  0  0  0  0  0  0  0  0  0  0  0
    3.1068    1.3498   -2.2433 H   0  0  0  0  0  0  0  0  0  0  0  0
    4.4689    1.2100   -3.3242 H   0  0  0  0  0  0  0  0  0  0  0  0
    3.8690   -1.9261   -0.7684 H   0  0  0  0  0  0  0  0  0  0  0  0
    2.4761   -0.9253   -0.7423 H   0  0  0  0  0  0  0  0  0  0  0  0
    6.9000    3.5623   -2.0969 H   0  0  0  0  0  0  0  0  0  0  0  0
    6.9171    3.6966   -0.2960 H   0  0  0  0  0  0  0  0  0  0  0  0
    8.2162    2.8581   -1.1580 H   0  0  0  0  0  0  0  0  0  0  0  0
    4.9394   -3.2548    2.2979 H   0  0  0  0  0  0  0  0  0  0  0  0
    6.4115   -2.5974   -2.4388 H   0  0  0  0  0  0  0  0  0  0  0  0
    7.6933   -0.5046   -3.1378 H   0  0  0  0  0  0  0  0  0  0  0  0
    5.9610   -0.6674   -3.2527 H   0  0  0  0  0  0  0  0  0  0  0  0
    6.6411    0.8301   -2.8571 H   0  0  0  0  0  0  0  0  0  0  0  0
  1 19  1  0  0  0  0
  2 14  1  0  0  0  0
  3 13  2  0  0  0  0
  4 16  1  0  0  0  0
  4 21  1  0  0  0  0
  5 11  1  0  0  0  0
  5 12  1  0  0  0  0
  5 22  1  0  0  0  0
  6 13  1  0  0  0  0
  6 23  1  0  0  0  0
  7 20  1  0  0  0  0
  7 24  1  0  0  0  0
  7 25  1  0  0  0  0
  8  9  1  0  0  0  0
  8 10  1  0  0  0  0
  8 26  1  1  0  0  0
  8  6  1  0  0  0  0
  9 11  1  0  0  0  0
  9 27  1  6  0  0  0
  9  2  1  0  0  0  0
 10 12  1  0  0  0  0
 10 28  1  0  0  0  0
 10 29  1  0  0  0  0
 11 30  1  0  0  0  0
 11 31  1  0  0  0  0
 12 32  1  0  0  0  0
 12 33  1  0  0  0  0
 13 15  1  0  0  0  0
 14 34  1  0  0  0  0
 14 35  1  0  0  0  0
 14 36  1  0  0  0  0
 15 16  1  0  0  0  0
 15 17  2  0  0  0  0
 16 18  2  0  0  0  0
 17 19  1  0  0  0  0
 17 37  1  0  0  0  0
 18 20  1  0  0  0  0
 18 38  1  0  0  0  0
 19 20  2  0  0  0  0
 21 39  1  0  0  0  0
 21 40  1  0  0  0  0
 21 41  1  0  0  0  0
M  END
>  <DRUGBANK_ID>
DB06422

>  <COMMON_NAME>
Ticalopride

>  <CAS_NUMBER>
202590-69-0

>  <UNII>
QNG273A81O

>  <SYNONYMS>
Norcisapride; Ticalopride

$$$$
