MKC
 OpenBabel10282417173D

 44 45  0  0  0  0  0  0  0  0999 V2000
    1.1991   -0.2366   -0.0148 C   0  0  0  0  0  0  0  0  0  0  0  0
    0.3739   -1.3586    0.0143 C   0  0  0  0  0  0  0  0  0  0  0  0
   -1.0201   -1.2085    0.0024 C   0  0  0  0  0  0  0  0  0  0  0  0
   -1.6213    0.0509    0.0328 C   0  0  0  0  0  0  0  0  0  0  0  0
   -0.8360    1.1652    0.0587 C   0  0  0  0  0  0  0  0  0  0  0  0
    0.5244    0.9936   -0.0566 C   0  0  0  0  0  0  0  0  0  0  0  0
    3.6082    0.0706   -1.0536 C   0  0  0  0  0  0  0  0  0  0  0  0
    3.6953    1.4493   -1.3673 N   0  0  0  0  0  0  0  0  0  0  0  0
    4.3896    1.9316   -2.4589 C   0  0  0  0  0  0  0  0  0  0  0  0
    4.3675    3.1020   -2.8445 O   0  0  0  0  0  0  0  0  0  0  0  0
    5.1432    1.0334   -3.1252 N   0  0  0  0  0  0  0  0  0  0  0  0
    5.2483   -0.2900   -2.8392 C   0  0  0  0  0  0  0  0  0  0  0  0
    5.9991   -0.9914   -3.4842 O   0  0  0  0  0  0  0  0  0  0  0  0
    4.3920   -0.8078   -1.7231 C   0  0  0  0  0  0  0  0  0  0  0  0
    2.7074   -0.4265    0.0849 C   0  0  0  0  0  0  0  0  0  0  0  0
    4.5213   -2.3003   -1.4433 C   0  0  0  0  0  0  0  0  0  0  0  0
    4.0316   -3.1304   -2.6232 C   0  0  0  0  0  0  0  0  0  0  0  0
    5.9303   -2.6674   -0.9799 C   0  0  0  0  0  0  0  0  0  0  0  0
    3.0033    2.4828   -0.6468 C   0  0  0  0  0  0  0  0  0  0  0  0
    3.8305    3.4298    0.0029 O   0  0  0  0  0  0  0  0  0  0  0  0
    4.5956    2.8253    1.0388 C   0  0  0  0  0  0  0  0  0  0  0  0
    3.7992    2.1918    2.1842 C   0  0  0  0  0  0  0  0  0  0  0  0
    0.7996   -2.3605    0.0243 H   0  0  0  0  0  0  0  0  0  0  0  0
   -1.6507   -2.0877   -0.0266 H   0  0  0  0  0  0  0  0  0  0  0  0
   -2.6928    0.1864   -0.0030 H   0  0  0  0  0  0  0  0  0  0  0  0
   -1.2194    2.1816    0.1052 H   0  0  0  0  0  0  0  0  0  0  0  0
    0.9296    1.9611   -0.2338 H   0  0  0  0  0  0  0  0  0  0  0  0
    5.7026    1.3853   -3.8823 H   0  0  0  0  0  0  0  0  0  0  0  0
    3.1153   -0.1059    1.0395 H   0  0  0  0  0  0  0  0  0  0  0  0
    2.8319   -1.4964    0.2555 H   0  0  0  0  0  0  0  0  0  0  0  0
    3.8908   -2.6280   -0.6174 H   0  0  0  0  0  0  0  0  0  0  0  0
    4.6561   -2.9997   -3.5085 H   0  0  0  0  0  0  0  0  0  0  0  0
    4.0356   -4.1933   -2.3651 H   0  0  0  0  0  0  0  0  0  0  0  0
    3.0039   -2.8505   -2.8841 H   0  0  0  0  0  0  0  0  0  0  0  0
    6.2168   -2.0687   -0.1063 H   0  0  0  0  0  0  0  0  0  0  0  0
    5.9715   -3.7217   -0.6897 H   0  0  0  0  0  0  0  0  0  0  0  0
    6.6793   -2.5101   -1.7580 H   0  0  0  0  0  0  0  0  0  0  0  0
    2.2878    2.9882   -1.3108 H   0  0  0  0  0  0  0  0  0  0  0  0
    2.5235    2.0335    0.1869 H   0  0  0  0  0  0  0  0  0  0  0  0
    5.2553    2.0906    0.5700 H   0  0  0  0  0  0  0  0  0  0  0  0
    5.2140    3.6202    1.4516 H   0  0  0  0  0  0  0  0  0  0  0  0
    3.0624    1.4559    1.8883 H   0  0  0  0  0  0  0  0  0  0  0  0
    4.4761    1.6706    2.8634 H   0  0  0  0  0  0  0  0  0  0  0  0
    3.1869    2.9228    2.7131 H   0  0  0  0  0  0  0  0  0  0  0  0
  1  2  2  0  0  0  0
  1  6  1  0  0  0  0
  1 15  1  0  0  0  0
  2  3  1  0  0  0  0
  2 23  1  0  0  0  0
  3  4  2  0  0  0  0
  3 24  1  0  0  0  0
  4  5  1  0  0  0  0
  4 25  1  0  0  0  0
  5  6  2  0  0  0  0
  5 26  1  0  0  0  0
  6 27  1  0  0  0  0
  7  8  1  0  0  0  0
  7 14  2  0  0  0  0
  7 15  1  0  0  0  0
  8  9  1  0  0  0  0
  8 19  1  0  0  0  0
  9 10  2  0  0  0  0
  9 11  1  0  0  0  0
 11 12  1  0  0  0  0
 11 28  1  0  0  0  0
 12 13  2  0  0  0  0
 12 14  1  0  0  0  0
 14 16  1  0  0  0  0
 15 29  1  0  0  0  0
 15 30  1  0  0  0  0
 16 17  1  0  0  0  0
 16 18  1  0  0  0  0
 16 31  1  0  0  0  0
 17 32  1  0  0  0  0
 17 33  1  0  0  0  0
 17 34  1  0  0  0  0
 18 35  1  0  0  0  0
 18 36  1  0  0  0  0
 18 37  1  0  0  0  0
 19 20  1  0  0  0  0
 19 38  1  0  0  0  0
 19 39  1  0  0  0  0
 20 21  1  0  0  0  0
 21 22  1  0  0  0  0
 21 40  1  0  0  0  0
 21 41  1  0  0  0  0
 22 42  1  0  0  0  0
 22 43  1  0  0  0  0
 22 44  1  0  0  0  0
M  END
>  <DRUGBANK_ID>
DB08188

>  <SECONDARY_ACCESSION_NUMBERS>
DB12488

>  <COMMON_NAME>
Emivirine

>  <CAS_NUMBER>
149950-60-7

>  <UNII>
X87G8IX72O

>  <SYNONYMS>
1-(ethoxymethyl)-5-(1-methylethyl)-6-(phenylmethyl)pyrimidine-2,4(1H,3H)-dione; 6-benzyl-1-(ethoxymethyl)-5-(1-methylethyl)uracil; Emivirine

$$$$
