
 OpenBabel10282417203D

 28 28  0  0  0  0  0  0  0  0999 V2000
    0.9634    0.0151    0.0918 C   0  0  0  0  0  0  0  0  0  0  0  0
   -0.3405    0.0151    0.0918 C   0  0  0  0  0  0  0  0  0  0  0  0
   -1.8605    0.0151    0.0918 C   0  0  0  0  0  0  0  0  0  0  0  0
   -2.4348   -1.4754   -0.0980 C   0  0  0  0  0  0  0  0  0  0  0  0
   -3.3199   -1.6714    1.1433 C   0  0  0  0  0  0  0  0  0  0  0  0
   -3.9264   -3.0462    1.2529 C   0  0  0  0  0  0  0  0  0  0  0  0
   -2.8684   -4.1521    1.0762 C   0  0  0  0  0  0  0  0  0  0  0  0
   -1.8192   -3.9812   -0.0393 C   0  0  0  0  0  0  0  0  0  0  0  0
   -1.3093   -2.5507   -0.1221 C   0  0  0  0  0  0  0  0  0  0  0  0
   -3.1840   -1.5476   -1.3989 O   0  0  0  0  0  0  0  0  0  0  0  0
   -3.8416   -2.6505   -1.8756 C   0  0  0  0  0  0  0  0  0  0  0  0
   -4.1681   -3.6815   -1.3228 O   0  0  0  0  0  0  0  0  0  0  0  0
   -4.1558   -2.6104   -3.1876 N   0  0  0  0  0  0  0  0  0  0  0  0
    2.0292    0.0149    0.0911 H   0  0  0  0  0  0  0  0  0  0  0  0
   -2.1951    0.4764    1.0281 H   0  0  0  0  0  0  0  0  0  0  0  0
   -2.2131    0.6478   -0.7307 H   0  0  0  0  0  0  0  0  0  0  0  0
   -2.7068   -1.5158    2.0441 H   0  0  0  0  0  0  0  0  0  0  0  0
   -4.1128   -0.9140    1.1639 H   0  0  0  0  0  0  0  0  0  0  0  0
   -4.4217   -3.1594    2.2222 H   0  0  0  0  0  0  0  0  0  0  0  0
   -4.7655   -3.1018    0.5586 H   0  0  0  0  0  0  0  0  0  0  0  0
   -2.3073   -4.1947    2.0158 H   0  0  0  0  0  0  0  0  0  0  0  0
   -3.3723   -5.1166    0.9598 H   0  0  0  0  0  0  0  0  0  0  0  0
   -0.9856   -4.6727    0.1318 H   0  0  0  0  0  0  0  0  0  0  0  0
   -2.1615   -4.2973   -1.0277 H   0  0  0  0  0  0  0  0  0  0  0  0
   -0.7128   -2.4479   -1.0391 H   0  0  0  0  0  0  0  0  0  0  0  0
   -0.6332   -2.4220    0.7328 H   0  0  0  0  0  0  0  0  0  0  0  0
   -4.1841   -1.7754   -3.7367 H   0  0  0  0  0  0  0  0  0  0  0  0
   -4.6513   -3.4478   -3.4750 H   0  0  0  0  0  0  0  0  0  0  0  0
  1  2  3  0  0  0  0
  1 14  1  0  0  0  0
  2  3  1  0  0  0  0
  3  4  1  0  0  0  0
  3 15  1  0  0  0  0
  3 16  1  0  0  0  0
  4  5  1  0  0  0  0
  4  9  1  0  0  0  0
  4 10  1  0  0  0  0
  5  6  1  0  0  0  0
  5 17  1  0  0  0  0
  5 18  1  0  0  0  0
  6  7  1  0  0  0  0
  6 19  1  0  0  0  0
  6 20  1  0  0  0  0
  7  8  1  0  0  0  0
  7 21  1  0  0  0  0
  7 22  1  0  0  0  0
  8  9  1  0  0  0  0
  8 23  1  0  0  0  0
  8 24  1  0  0  0  0
  9 25  1  0  0  0  0
  9 26  1  0  0  0  0
 10 11  1  0  0  0  0
 11 12  2  0  0  0  0
 11 13  1  0  0  0  0
 13 27  1  0  0  0  0
 13 28  1  0  0  0  0
M  END
>  <DRUGBANK_ID>
DB13662

>  <COMMON_NAME>
Hexapropymate

>  <CAS_NUMBER>
358-52-1

>  <UNII>
0J9RN2PRJ7

>  <SYNONYMS>
Hexapropymate

$$$$
