
 OpenBabel10282417123D

 20 19  0  0  0  0  0  0  0  0999 V2000
    0.9871    0.1454    0.0676 C   0  0  0  0  0  0  0  0  0  0  0  0
    0.5169    0.3595   -1.3661 C   0  0  0  0  0  0  0  0  0  0  0  0
    1.1303   -0.9728   -2.5874 Si  0  0  0  0  0  0  0  0  0  0  0  0
    0.4990   -2.6427   -2.0132 C   0  0  0  0  0  0  0  0  0  0  0  0
    0.4911   -0.6036   -4.3069 C   0  0  0  0  0  0  0  0  0  0  0  0
    3.0055   -0.9649   -2.5846 C   0  0  0  0  0  0  0  0  0  0  0  0
    0.6348   -0.8126    0.4633 H   0  0  0  0  0  0  0  0  0  0  0  0
    0.6039    0.9393    0.7175 H   0  0  0  0  0  0  0  0  0  0  0  0
    2.0798    0.1546    0.1339 H   0  0  0  0  0  0  0  0  0  0  0  0
   -0.5783    0.3721   -1.3925 H   0  0  0  0  0  0  0  0  0  0  0  0
    0.8628    1.3367   -1.7210 H   0  0  0  0  0  0  0  0  0  0  0  0
   -0.5949   -2.6549   -1.9942 H   0  0  0  0  0  0  0  0  0  0  0  0
    0.8417   -3.4382   -2.6804 H   0  0  0  0  0  0  0  0  0  0  0  0
    0.8595   -2.8648   -1.0043 H   0  0  0  0  0  0  0  0  0  0  0  0
    0.8444    0.3723   -4.6528 H   0  0  0  0  0  0  0  0  0  0  0  0
    0.8366   -1.3614   -5.0168 H   0  0  0  0  0  0  0  0  0  0  0  0
   -0.6027   -0.5963   -4.3229 H   0  0  0  0  0  0  0  0  0  0  0  0
    3.3868    0.0103   -2.9020 H   0  0  0  0  0  0  0  0  0  0  0  0
    3.3903   -1.1709   -1.5812 H   0  0  0  0  0  0  0  0  0  0  0  0
    3.3985   -1.7268   -3.2633 H   0  0  0  0  0  0  0  0  0  0  0  0
  1  2  1  0  0  0  0
  1  7  1  0  0  0  0
  1  8  1  0  0  0  0
  1  9  1  0  0  0  0
  2  3  1  0  0  0  0
  2 10  1  0  0  0  0
  2 11  1  0  0  0  0
  3  4  1  0  0  0  0
  3  5  1  0  0  0  0
  3  6  1  0  0  0  0
  4 12  1  0  0  0  0
  4 13  1  0  0  0  0
  4 14  1  0  0  0  0
  5 15  1  0  0  0  0
  5 16  1  0  0  0  0
  5 17  1  0  0  0  0
  6 18  1  0  0  0  0
  6 19  1  0  0  0  0
  6 20  1  0  0  0  0
M  END
>  <DRUGBANK_ID>
DB02265

>  <SECONDARY_ACCESSION_NUMBERS>
EXPT00892

>  <COMMON_NAME>
Ethyl-Trimethyl-Silane

>  <CAS_NUMBER>
3439-38-1

>  <UNII>
O72DFI3IWO

$$$$
