
 OpenBabel10282417173D

 41 44  0  0  0  0  0  0  0  0999 V2000
    1.7016    1.4015    0.0466 C   0  0  0  0  0  0  0  0  0  0  0  0
    0.3155   -0.6194    0.0175 C   0  0  0  0  0  0  0  0  0  0  0  0
   -1.1369   -0.8525    0.0112 C   0  0  0  0  0  0  0  0  0  0  0  0
    0.4705    0.7751    0.0343 C   0  0  0  0  0  0  0  0  0  0  0  0
   -0.7669    1.4113    0.0150 N   0  0  0  0  0  0  0  0  0  0  0  0
   -1.7986    0.4972   -0.0185 C   0  0  0  0  0  0  0  0  0  0  0  0
   -2.9982    0.7322   -0.0568 O   0  0  0  0  0  0  0  0  0  0  0  0
   -3.2429   -2.0703   -0.0717 N   0  0  0  0  0  0  0  0  0  0  0  0
   -4.0701   -3.1907    0.1114 C   0  0  0  0  0  0  0  0  0  0  0  0
   -5.7304   -5.4727    0.3812 C   0  0  0  0  0  0  0  0  0  0  0  0
   -4.5929   -5.3196    1.1812 C   0  0  0  0  0  0  0  0  0  0  0  0
   -3.7692   -4.1929    1.0358 C   0  0  0  0  0  0  0  0  0  0  0  0
   -5.2299   -3.3442   -0.6696 C   0  0  0  0  0  0  0  0  0  0  0  0
   -6.0837   -4.4544   -0.5098 C   0  0  0  0  0  0  0  0  0  0  0  0
   -8.0894   -6.5497    0.6723 O   0  0  0  0  0  0  0  0  0  0  0  0
   -6.7185   -6.9836    0.5119 S   0  0  0  0  0  0  0  0  0  0  0  0
   -6.0505   -7.8006    1.5026 O   0  0  0  0  0  0  0  0  0  0  0  0
    2.8327    0.5881    0.0164 C   0  0  0  0  0  0  0  0  0  0  0  0
   -1.8669   -1.9801    0.0370 C   0  0  0  0  0  0  0  0  0  0  0  0
   -6.5352   -7.6319   -1.0143 N   0  0  0  0  0  0  0  0  0  0  0  0
    2.7025   -0.8128   -0.0378 C   0  0  0  0  0  0  0  0  0  0  0  0
    1.4378   -1.4290   -0.0338 C   0  0  0  0  0  0  0  0  0  0  0  0
   -6.1450   -8.9783   -1.1744 C   0  0  0  0  0  0  0  0  0  0  0  0
   -5.8689  -11.1328   -0.7722 C   0  0  0  0  0  0  0  0  0  0  0  0
   -5.1192  -11.0484   -1.9256 C   0  0  0  0  0  0  0  0  0  0  0  0
   -5.2401   -9.4567   -2.5568 S   0  0  0  0  0  0  0  0  0  0  0  0
   -6.4470   -9.9466   -0.3460 N   0  0  0  0  0  0  0  0  0  0  0  0
    1.7905    2.4816    0.0733 H   0  0  0  0  0  0  0  0  0  0  0  0
   -0.9183    2.4075    0.0035 H   0  0  0  0  0  0  0  0  0  0  0  0
   -3.7314   -1.1687   -0.1173 H   0  0  0  0  0  0  0  0  0  0  0  0
   -4.3388   -6.0595    1.9362 H   0  0  0  0  0  0  0  0  0  0  0  0
   -2.9009   -4.0859    1.6805 H   0  0  0  0  0  0  0  0  0  0  0  0
   -5.4599   -2.6039   -1.4356 H   0  0  0  0  0  0  0  0  0  0  0  0
   -7.0115   -4.5008   -1.0743 H   0  0  0  0  0  0  0  0  0  0  0  0
    3.8226    1.0411    0.0271 H   0  0  0  0  0  0  0  0  0  0  0  0
   -1.3773   -2.9481    0.0921 H   0  0  0  0  0  0  0  0  0  0  0  0
   -6.9613   -7.1707   -1.8103 H   0  0  0  0  0  0  0  0  0  0  0  0
    3.6037   -1.4226   -0.0875 H   0  0  0  0  0  0  0  0  0  0  0  0
    1.3628   -2.5099   -0.0839 H   0  0  0  0  0  0  0  0  0  0  0  0
   -6.0119  -12.0380   -0.1920 H   0  0  0  0  0  0  0  0  0  0  0  0
   -4.5500  -11.8271   -2.4170 H   0  0  0  0  0  0  0  0  0  0  0  0
  1 18  1  0  0  0  0
  1  4  2  0  0  0  0
  1 28  1  0  0  0  0
  2 22  2  0  0  0  0
  2  3  1  0  0  0  0
  2  4  1  0  0  0  0
  3  6  1  0  0  0  0
  3 19  2  0  0  0  0
  4  5  1  0  0  0  0
  5  6  1  0  0  0  0
  5 29  1  0  0  0  0
  6  7  2  0  0  0  0
  8 19  1  0  0  0  0
  8  9  1  0  0  0  0
  8 30  1  0  0  0  0
  9 12  2  0  0  0  0
  9 13  1  0  0  0  0
 10 11  2  0  0  0  0
 10 14  1  0  0  0  0
 10 16  1  0  0  0  0
 11 12  1  0  0  0  0
 11 31  1  0  0  0  0
 12 32  1  0  0  0  0
 13 14  2  0  0  0  0
 13 33  1  0  0  0  0
 14 34  1  0  0  0  0
 15 16  2  0  0  0  0
 16 20  1  0  0  0  0
 16 17  2  0  0  0  0
 18 21  2  0  0  0  0
 18 35  1  0  0  0  0
 19 36  1  0  0  0  0
 20 23  1  0  0  0  0
 20 37  1  0  0  0  0
 21 22  1  0  0  0  0
 21 38  1  0  0  0  0
 22 39  1  0  0  0  0
 23 27  2  0  0  0  0
 23 26  1  0  0  0  0
 24 27  1  0  0  0  0
 24 25  2  0  0  0  0
 24 40  1  0  0  0  0
 25 26  1  0  0  0  0
 25 41  1  0  0  0  0
M  END
>  <DRUGBANK_ID>
DB08125

>  <COMMON_NAME>
4-{[(2-Oxo-1,2-dihydro-3H-indol-3-ylidene)methyl]amino}-N-(1,3-thiazol-2-yl)benzenesulfonamide

$$$$
