
 OpenBabel10282417143D

 14 13  0  0  0  0  0  0  0  0999 V2000
    0.9728    0.0951    0.0154 C   0  0  0  0  0  0  0  0  0  0  0  0
    0.4439    1.5022   -0.3516 C   0  0  0  0  0  0  0  0  0  0  0  0
    0.5354   -1.0416   -0.9397 C   0  0  0  0  0  0  0  0  0  0  0  0
    0.9134    1.8458   -1.5450 O   0  5  0  0  0  0  0  0  0  0  0  0
    2.7337   -3.7576   -0.9677 O   0  0  0  0  0  0  0  0  0  0  0  0
    4.2858   -2.3482   -0.5453 O   0  0  0  0  0  0  0  0  0  0  0  0
    1.0074   -2.3482   -0.5453 O   0  0  0  0  0  0  0  0  0  0  0  0
    2.7374   -2.3482   -0.5453 P   0  0  0  0  0  0  0  0  0  0  0  0
    0.6240   -0.1648    1.0261 H   0  0  0  0  0  0  0  0  0  0  0  0
    2.0656    0.1477    0.1122 H   0  0  0  0  0  0  0  0  0  0  0  0
   -0.6425    1.4436   -0.2173 H   0  0  0  0  0  0  0  0  0  0  0  0
    0.7450    2.1276    0.5018 H   0  0  0  0  0  0  0  0  0  0  0  0
   -0.5589   -1.0985   -0.9370 H   0  0  0  0  0  0  0  0  0  0  0  0
    0.8390   -0.8530   -1.9773 H   0  0  0  0  0  0  0  0  0  0  0  0
  1  9  1  0  0  0  0
  1 10  1  0  0  0  0
  2  1  1  0  0  0  0
  2 11  1  0  0  0  0
  2 12  1  0  0  0  0
  3  1  1  0  0  0  0
  3 13  1  0  0  0  0
  3 14  1  0  0  0  0
  4  2  1  0  0  0  0
  7  3  1  0  0  0  0
  8  5  2  0  0  0  0
  8  6  2  0  0  0  0
  8  7  1  0  0  0  0
M  CHG  1   4  -1
M  END
>  <DRUGBANK_ID>
DB04755

>  <COMMON_NAME>
PROPYL-1-PHOSPHATE

$$$$
