
 OpenBabel10282417133D

 68 69  0  0  0  0  0  0  0  0999 V2000
   -2.1867    2.2034   -8.8743 C   0  0  1  0  0  0  0  0  0  0  0  0
   -1.4520    2.7518  -10.0888 C   0  0  1  0  0  0  0  0  0  0  0  0
   -2.3507    3.1835   -7.7172 C   0  0  0  0  0  0  0  0  0  0  0  0
   -3.4235    1.2203   -9.2177 C   0  0  1  0  0  0  0  0  0  0  0  0
   -2.3311    3.5040  -10.9817 O   0  0  0  0  0  0  0  0  0  0  0  0
   -0.1425    3.4520   -9.6808 C   0  0  0  0  0  0  0  0  0  0  0  0
   -3.6252    2.9608   -6.8863 C   0  0  0  0  0  0  0  0  0  0  0  0
   -1.5276    4.2873   -7.7078 C   0  0  0  0  0  0  0  0  0  0  0  0
   -2.8303   -0.1289   -9.6254 C   0  0  0  0  0  0  0  0  0  0  0  0
   -4.5847    0.8459   -8.1155 C   0  0  2  0  0  0  0  0  0  0  0  0
   -3.2505    4.5165  -10.8010 C   0  0  0  0  0  0  0  0  0  0  0  0
   -0.4669    4.7264   -8.9602 C   0  0  2  0  0  0  0  0  0  0  0  0
   -4.6568    2.0709   -7.1593 C   0  0  0  0  0  0  0  0  0  0  0  0
   -3.4097    5.2728   -9.4429 C   0  0  2  0  0  0  0  0  0  0  0  0
   -3.9757    4.7976  -11.7523 O   0  0  0  0  0  0  0  0  0  0  0  0
   -0.5816    5.7957  -10.3002 C   0  0  0  0  0  0  0  0  0  0  0  0
   -4.8230    5.6494   -9.0139 C   0  0  0  0  0  0  0  0  0  0  0  0
   -2.6406    6.5091   -8.8761 C   0  0  0  0  0  0  0  0  0  0  0  0
   -5.2008    4.9531   -7.7401 C   0  0  0  0  0  0  0  0  0  0  0  0
   -1.3311    1.6141   -8.5373 H   0  0  0  0  0  0  0  0  0  0  0  0
   -4.4824   -0.6460   -7.3606 C   0  0  0  0  0  0  0  0  0  0  0  0
   -1.7966   -0.7423   -8.5366 C   0  0  0  0  0  0  0  0  0  0  0  0
   -1.5999   -0.1357   -7.0317 C   0  0  2  0  0  0  0  0  0  0  0  0
   -2.8449   -0.2589   -2.3244 C   0  0  0  0  0  0  0  0  0  0  0  0
   -3.5524   -0.7383   -3.5230 C   0  0  0  0  0  0  0  0  0  0  0  0
   -3.0038    0.1374   -4.6059 C   0  0  1  0  0  0  0  0  0  0  0  0
   -1.9824   -0.7551   -5.6685 C   0  0  0  0  0  0  0  0  0  0  0  0
   -4.1969    0.8526   -5.0025 O   0  0  0  0  0  0  0  0  0  0  0  0
   -3.6177    0.1915   -1.3340 O   0  0  0  0  0  0  0  0  0  0  0  0
   -1.5874   -0.2032   -2.2805 O   0  0  0  0  0  0  0  0  0  0  0  0
   -2.3460    0.9824   -6.9355 O   0  0  0  0  0  0  0  0  0  0  0  0
   -1.0959    1.8693  -10.6487 H   0  0  0  0  0  0  0  0  0  0  0  0
   -3.9673    1.7141  -10.0445 H   0  0  0  0  0  0  0  0  0  0  0  0
    0.4614    3.6666  -10.5677 H   0  0  0  0  0  0  0  0  0  0  0  0
    0.4890    2.8391   -9.0237 H   0  0  0  0  0  0  0  0  0  0  0  0
   -3.7320    3.5677   -5.9788 H   0  0  0  0  0  0  0  0  0  0  0  0
   -1.7725    5.0415   -6.9507 H   0  0  0  0  0  0  0  0  0  0  0  0
   -3.7028   -0.7837   -9.7626 H   0  0  0  0  0  0  0  0  0  0  0  0
   -2.4053   -0.1464  -10.6453 H   0  0  0  0  0  0  0  0  0  0  0  0
   -5.5306    0.7004   -8.6631 H   0  0  0  0  0  0  0  0  0  0  0  0
    0.3917    5.1266   -8.4128 H   0  0  0  0  0  0  0  0  0  0  0  0
   -5.5534    2.1328   -6.5260 H   0  0  0  0  0  0  0  0  0  0  0  0
   -3.3027    4.3899   -8.8991 H   0  0  0  0  0  0  0  0  0  0  0  0
   -0.6786    6.8723  -10.1006 H   0  0  0  0  0  0  0  0  0  0  0  0
    0.3091    5.7578  -10.9308 H   0  0  0  0  0  0  0  0  0  0  0  0
   -1.3898    5.5919  -11.0055 H   0  0  0  0  0  0  0  0  0  0  0  0
   -4.8589    6.7046   -8.7545 H   0  0  0  0  0  0  0  0  0  0  0  0
   -5.5212    5.3816   -9.7886 H   0  0  0  0  0  0  0  0  0  0  0  0
   -2.9610    6.7925   -7.8644 H   0  0  0  0  0  0  0  0  0  0  0  0
   -1.5904    6.5062   -8.5993 H   0  0  0  0  0  0  0  0  0  0  0  0
   -2.7750    7.3309   -9.5719 H   0  0  0  0  0  0  0  0  0  0  0  0
   -4.4445    5.1441   -6.9629 H   0  0  0  0  0  0  0  0  0  0  0  0
   -6.1614    5.1605   -7.2892 H   0  0  0  0  0  0  0  0  0  0  0  0
   -5.2784    3.9309   -8.0834 H   0  0  0  0  0  0  0  0  0  0  0  0
   -5.2251   -1.0665   -6.6638 H   0  0  0  0  0  0  0  0  0  0  0  0
   -3.9346   -1.4679   -7.8344 H   0  0  0  0  0  0  0  0  0  0  0  0
   -3.8202   -0.4915   -6.5721 H   0  0  0  0  0  0  0  0  0  0  0  0
   -1.9943   -1.8144   -8.5113 H   0  0  0  0  0  0  0  0  0  0  0  0
   -0.8039   -0.6660   -9.0089 H   0  0  0  0  0  0  0  0  0  0  0  0
   -0.6287    0.3615   -6.9837 H   0  0  0  0  0  0  0  0  0  0  0  0
   -4.6455   -0.6399   -3.4022 H   0  0  0  0  0  0  0  0  0  0  0  0
   -3.3632   -1.7858   -3.7465 H   0  0  0  0  0  0  0  0  0  0  0  0
   -2.4035    1.0048   -4.2960 H   0  0  0  0  0  0  0  0  0  0  0  0
   -2.4036   -1.7485   -5.8291 H   0  0  0  0  0  0  0  0  0  0  0  0
   -1.0277   -0.8969   -5.1577 H   0  0  0  0  0  0  0  0  0  0  0  0
   -4.9649    0.3023   -5.2490 H   0  0  0  0  0  0  0  0  0  0  0  0
   -4.5772    0.1794   -1.5303 H   0  0  0  0  0  0  0  0  0  0  0  0
   -3.0916    1.0258   -6.3254 H   0  0  0  0  0  0  0  0  0  0  0  0
  1  2  1  0  0  0  0
  1  3  1  0  0  0  0
  1  4  1  0  0  0  0
  1 20  1  1  0  0  0
  2  5  1  0  0  0  0
  2  6  1  0  0  0  0
  2 32  1  6  0  0  0
  3  7  1  0  0  0  0
  3  8  2  0  0  0  0
  4 10  1  0  0  0  0
  4 33  1  6  0  0  0
  4  9  1  0  0  0  0
  5 11  1  0  0  0  0
  6 12  1  0  0  0  0
  6 34  1  0  0  0  0
  6 35  1  0  0  0  0
  7 13  2  0  0  0  0
  7 36  1  0  0  0  0
  8 12  1  0  0  0  0
  8 37  1  0  0  0  0
  9 22  1  0  0  0  0
  9 38  1  0  0  0  0
  9 39  1  0  0  0  0
 10 13  1  0  0  0  0
 10 21  1  0  0  0  0
 10 40  1  6  0  0  0
 11 15  2  0  0  0  0
 12 16  1  0  0  0  0
 12 41  1  1  0  0  0
 13 42  1  0  0  0  0
 14 18  1  0  0  0  0
 14 43  1  1  0  0  0
 14 17  1  0  0  0  0
 14 11  1  0  0  0  0
 16 44  1  0  0  0  0
 16 45  1  0  0  0  0
 16 46  1  0  0  0  0
 17 19  1  0  0  0  0
 17 47  1  0  0  0  0
 17 48  1  0  0  0  0
 18 49  1  0  0  0  0
 18 50  1  0  0  0  0
 18 51  1  0  0  0  0
 19 52  1  0  0  0  0
 19 53  1  0  0  0  0
 19 54  1  0  0  0  0
 21 55  1  0  0  0  0
 21 56  1  0  0  0  0
 21 57  1  0  0  0  0
 22 58  1  0  0  0  0
 22 59  1  0  0  0  0
 23 31  1  0  0  0  0
 23 60  1  1  0  0  0
 23 27  1  0  0  0  0
 23 22  1  0  0  0  0
 24 25  1  0  0  0  0
 24 29  1  0  0  0  0
 24 30  2  0  0  0  0
 25 61  1  0  0  0  0
 25 62  1  0  0  0  0
 26 28  1  0  0  0  0
 26 63  1  1  0  0  0
 26 27  1  0  0  0  0
 26 25  1  0  0  0  0
 27 64  1  0  0  0  0
 27 65  1  0  0  0  0
 28 66  1  0  0  0  0
 29 67  1  0  0  0  0
 31 68  1  0  0  0  0
M  END
>  <DRUGBANK_ID>
DB03785

>  <SECONDARY_ACCESSION_NUMBERS>
EXPT02067

>  <COMMON_NAME>
Mevinolinic acid

>  <CAS_NUMBER>
75225-51-3

>  <UNII>
5CLV35Y90C

>  <SYNONYMS>
Lovastatin acid

$$$$
