
 OpenBabel10282417183D

 60 63  0  0  0  0  0  0  0  0999 V2000
    1.0015    0.0485    0.1000 C   0  0  0  0  0  0  0  0  0  0  0  0
    1.8903   -3.5615   -3.0640 C   0  0  0  0  0  0  0  0  0  0  0  0
   -7.3915    4.2877   -9.5821 C   0  0  0  0  0  0  0  0  0  0  0  0
    0.0271    4.7166   -0.4317 C   0  0  0  0  0  0  0  0  0  0  0  0
    1.2636    4.8040    0.2067 C   0  0  0  0  0  0  0  0  0  0  0  0
   -0.3089    3.5589   -1.1301 C   0  0  0  0  0  0  0  0  0  0  0  0
   -2.9261    3.9448   -7.2599 C   0  0  0  0  0  0  0  0  0  0  0  0
   -4.0896    4.6798   -7.5041 C   0  0  0  0  0  0  0  0  0  0  0  0
   -0.1605   -2.8549   -0.1827 C   0  0  0  0  0  0  0  0  0  0  0  0
    0.4831   -4.0722    0.0709 C   0  0  0  0  0  0  0  0  0  0  0  0
    1.9224    2.7068   -0.7794 C   0  0  0  0  0  0  0  0  0  0  0  0
   -0.2808   -0.9639   -3.3992 C   0  0  0  0  0  0  0  0  0  0  0  0
   -1.6993    1.7315   -7.2893 C   0  0  0  0  0  0  0  0  0  0  0  0
   -5.2984    2.6318   -7.5753 C   0  0  0  0  0  0  0  0  0  0  0  0
    0.5106    0.0429   -1.3462 C   0  0  0  0  0  0  0  0  0  0  0  0
    2.2179    3.7922    0.0469 C   0  0  0  0  0  0  0  0  0  0  0  0
   -2.9799    2.5518   -7.3119 C   0  0  0  0  0  0  0  0  0  0  0  0
    0.6357    2.5366   -1.2876 C   0  0  0  0  0  0  0  0  0  0  0  0
   -5.2935    4.0075   -7.6939 C   0  0  0  0  0  0  0  0  0  0  0  0
    0.2296   -1.1002   -2.0340 C   0  0  0  0  0  0  0  0  0  0  0  0
   -0.4874    0.2225   -4.0031 C   0  0  0  0  0  0  0  0  0  0  0  0
    0.3826   -2.3681   -1.3642 C   0  0  0  0  0  0  0  0  0  0  0  0
   -0.9908    0.2618   -5.4174 C   0  0  0  0  0  0  0  0  0  0  0  0
   -0.1936    1.4627   -3.2467 C   0  0  0  0  0  0  0  0  0  0  0  0
    3.5291    3.8082    0.7798 C   0  0  0  0  0  0  0  0  0  0  0  0
    3.6804    2.7065    1.5693 F   0  0  0  0  0  0  0  0  0  0  0  0
    4.5978    3.8143   -0.0606 F   0  0  0  0  0  0  0  0  0  0  0  0
    3.6793    4.8801    1.6025 F   0  0  0  0  0  0  0  0  0  0  0  0
   -4.1642    1.8936   -7.4374 N   0  0  0  0  0  0  0  0  0  0  0  0
   -1.1786    1.5131   -5.9574 N   0  0  0  0  0  0  0  0  0  0  0  0
    1.3099   -4.4082   -0.9154 N   0  0  0  0  0  0  0  0  0  0  0  0
    1.1934   -3.3958   -1.8099 N   0  0  0  0  0  0  0  0  0  0  0  0
    0.3009    1.3125   -1.9470 N   0  0  0  0  0  0  0  0  0  0  0  0
   -1.1952   -0.7744   -6.0410 O   0  0  0  0  0  0  0  0  0  0  0  0
   -0.3456    2.5559   -3.8028 O   0  0  0  0  0  0  0  0  0  0  0  0
   -7.7377    4.5077   -6.9965 O   0  0  0  0  0  0  0  0  0  0  0  0
   -6.4319    6.2823   -8.2220 O   0  0  0  0  0  0  0  0  0  0  0  0
   -6.7910    4.8858   -8.0214 S   0  0  0  0  0  0  0  0  0  0  0  0
    0.6894   -0.8018    0.6988 H   0  0  0  0  0  0  0  0  0  0  0  0
    0.6068    0.8987    0.6649 H   0  0  0  0  0  0  0  0  0  0  0  0
    2.0956    0.0658    0.1232 H   0  0  0  0  0  0  0  0  0  0  0  0
    2.9471   -3.7538   -2.8592 H   0  0  0  0  0  0  0  0  0  0  0  0
    1.4474   -4.4209   -3.5775 H   0  0  0  0  0  0  0  0  0  0  0  0
    1.7951   -2.6718   -3.6820 H   0  0  0  0  0  0  0  0  0  0  0  0
   -7.6200    3.2238   -9.5056 H   0  0  0  0  0  0  0  0  0  0  0  0
   -8.3095    4.8344   -9.8214 H   0  0  0  0  0  0  0  0  0  0  0  0
   -6.6500    4.4763  -10.3601 H   0  0  0  0  0  0  0  0  0  0  0  0
   -0.6839    5.5360   -0.3623 H   0  0  0  0  0  0  0  0  0  0  0  0
    1.4805    5.6651    0.8356 H   0  0  0  0  0  0  0  0  0  0  0  0
   -1.3149    3.4552   -1.5319 H   0  0  0  0  0  0  0  0  0  0  0  0
   -1.9908    4.4591   -7.0593 H   0  0  0  0  0  0  0  0  0  0  0  0
   -4.0463    5.7661   -7.5372 H   0  0  0  0  0  0  0  0  0  0  0  0
   -0.8628   -2.3457    0.4623 H   0  0  0  0  0  0  0  0  0  0  0  0
    0.3870   -4.7180    0.9356 H   0  0  0  0  0  0  0  0  0  0  0  0
    2.6911    1.9683   -1.0008 H   0  0  0  0  0  0  0  0  0  0  0  0
   -0.5077   -1.8861   -3.9309 H   0  0  0  0  0  0  0  0  0  0  0  0
   -0.9232    2.2553   -7.8631 H   0  0  0  0  0  0  0  0  0  0  0  0
   -1.8662    0.7731   -7.7900 H   0  0  0  0  0  0  0  0  0  0  0  0
   -6.2171    2.0516   -7.5738 H   0  0  0  0  0  0  0  0  0  0  0  0
   -0.9445    2.3322   -5.3946 H   0  0  0  0  0  0  0  0  0  0  0  0
  1 39  1  0  0  0  0
  1 40  1  0  0  0  0
  1 41  1  0  0  0  0
  2 42  1  0  0  0  0
  2 43  1  0  0  0  0
  2 44  1  0  0  0  0
  3 45  1  0  0  0  0
  3 46  1  0  0  0  0
  3 47  1  0  0  0  0
  4 48  1  0  0  0  0
  5  4  2  0  0  0  0
  5 49  1  0  0  0  0
  6  4  1  0  0  0  0
  6 50  1  0  0  0  0
  7 51  1  0  0  0  0
  8  7  2  0  0  0  0
  8 52  1  0  0  0  0
  9 53  1  0  0  0  0
 10  9  1  0  0  0  0
 10 54  1  0  0  0  0
 11 55  1  0  0  0  0
 12 56  1  0  0  0  0
 13 57  1  0  0  0  0
 13 58  1  0  0  0  0
 14 59  1  0  0  0  0
 15  1  1  0  0  0  0
 16  5  1  0  0  0  0
 16 11  2  0  0  0  0
 17  7  1  0  0  0  0
 17 13  1  0  0  0  0
 18  6  2  0  0  0  0
 18 11  1  0  0  0  0
 19  8  1  0  0  0  0
 19 14  2  0  0  0  0
 20 12  1  0  0  0  0
 20 15  2  0  0  0  0
 21 12  2  0  0  0  0
 22  9  2  0  0  0  0
 22 20  1  0  0  0  0
 23 21  1  0  0  0  0
 24 21  1  0  0  0  0
 25 16  1  0  0  0  0
 26 25  1  0  0  0  0
 27 25  1  0  0  0  0
 28 25  1  0  0  0  0
 29 14  1  0  0  0  0
 29 17  2  0  0  0  0
 30 13  1  0  0  0  0
 30 23  1  0  0  0  0
 30 60  1  0  0  0  0
 31 10  2  0  0  0  0
 32  2  1  0  0  0  0
 32 22  1  0  0  0  0
 32 31  1  0  0  0  0
 33 15  1  0  0  0  0
 33 18  1  0  0  0  0
 33 24  1  0  0  0  0
 34 23  2  0  0  0  0
 35 24  2  0  0  0  0
 38  3  1  0  0  0  0
 38 19  1  0  0  0  0
 38 36  2  0  0  0  0
 38 37  2  0  0  0  0
M  END
>  <DRUGBANK_ID>
DB11863

>  <COMMON_NAME>
Alvelestat

>  <CAS_NUMBER>
848141-11-7

>  <UNII>
6Y5629322X

>  <SYNONYMS>
Alvelestat

$$$$
