
 OpenBabel10282417193D

 69 72  0  0  1  0  0  0  0  0999 V2000
    0.6708   -0.1278   -0.3627 C   0  0  0  0  0  0  0  0  0  0  0  0
    0.2189   -0.3461    1.0683 C   0  0  1  0  0  0  0  0  0  0  0  0
    0.8636    0.8266    1.7398 C   0  0  0  0  0  0  0  0  0  0  0  0
    0.2826    1.5524    2.6333 O   0  0  0  0  0  0  0  0  0  0  0  0
    2.1538    1.1765    1.4118 N   0  0  0  0  0  0  0  0  0  0  0  0
    3.6285    0.2726    1.2091 C   0  0  1  0  0  0  0  0  0  0  0  0
    4.4927    1.2360    0.4669 C   0  0  0  0  0  0  0  0  0  0  0  0
    5.9462    0.8450    0.6644 C   0  0  0  0  0  0  0  0  0  0  0  0
    6.8503    1.7930   -0.0158 C   0  0  0  0  0  0  0  0  0  0  0  0
    6.5439    3.2035    0.4843 C   0  0  0  0  0  0  0  0  0  0  0  0
    5.0922    3.6076    0.3107 C   0  0  0  0  0  0  0  0  0  0  0  0
    4.2075    2.6374    1.0021 C   0  0  0  0  0  0  0  0  0  0  0  0
    4.7857   -0.4361    2.4715 C   0  0  0  0  0  0  0  0  0  0  0  0
    5.1598   -1.6116    2.2492 O   0  0  0  0  0  0  0  0  0  0  0  0
    5.4525    0.3192    3.5702 N   0  0  0  0  0  0  0  0  0  0  0  0
    5.2951    1.6273    4.3728 C   0  0  0  0  0  0  0  0  0  0  0  0
    6.6290    2.2586    4.4044 C   0  0  0  0  0  0  0  0  0  0  0  0
    7.5134    1.0346    4.5874 C   0  0  0  0  0  0  0  0  0  0  0  0
    6.7786   -0.2038    3.9607 C   0  0  1  0  0  0  0  0  0  0  0  0
    6.8193   -1.4658    4.8936 C   0  0  0  0  0  0  0  0  0  0  0  0
    7.4561   -2.4679    4.5434 O   0  0  0  0  0  0  0  0  0  0  0  0
    6.3620   -1.4654    6.1910 N   0  0  0  0  0  0  0  0  0  0  0  0
    5.4725   -0.6181    6.8014 C   0  0  0  0  0  0  0  0  0  0  0  0
    4.1753   -0.1879    6.5712 C   0  0  0  0  0  0  0  0  0  0  0  0
    3.7765    0.9100    7.3328 N   0  0  0  0  0  0  0  0  0  0  0  0
    4.6912    1.2428    8.2213 N   0  0  0  0  0  0  0  0  0  0  0  0
    5.9884    0.1768    8.2289 S   0  0  0  0  0  0  0  0  0  0  0  0
    3.3423   -0.6108    5.4968 C   0  0  0  0  0  0  0  0  0  0  0  0
    3.2170   -1.9529    5.0742 C   0  0  0  0  0  0  0  0  0  0  0  0
    2.5935   -2.3457    3.8934 C   0  0  0  0  0  0  0  0  0  0  0  0
    2.2904   -1.3645    3.0313 C   0  0  0  0  0  0  0  0  0  0  0  0
    2.4833   -0.0804    3.5318 C   0  0  0  0  0  0  0  0  0  0  0  0
    2.8115    0.3745    4.7323 C   0  0  0  0  0  0  0  0  0  0  0  0
   -1.2423   -0.3575    1.2510 N   0  0  0  0  0  0  0  0  0  0  0  0
   -1.5899   -0.7244    2.6347 C   0  0  0  0  0  0  0  0  0  0  0  0
    0.3742    0.8756   -0.6865 H   0  0  0  0  0  0  0  0  0  0  0  0
    0.3445   -0.9137   -1.0279 H   0  0  0  0  0  0  0  0  0  0  0  0
    1.7597   -0.1222   -0.4528 H   0  0  0  0  0  0  0  0  0  0  0  0
    0.5544   -1.3116    1.4327 H   0  0  0  0  0  0  0  0  0  0  0  0
    2.2650    1.9734    2.0387 H   0  0  0  0  0  0  0  0  0  0  0  0
    3.3877   -0.5727    0.5325 H   0  0  0  0  0  0  0  0  0  0  0  0
    4.2414    1.1848   -0.5993 H   0  0  0  0  0  0  0  0  0  0  0  0
    6.2414    0.9862    1.6965 H   0  0  0  0  0  0  0  0  0  0  0  0
    6.1391   -0.2033    0.3988 H   0  0  0  0  0  0  0  0  0  0  0  0
    7.8705    1.4975    0.2462 H   0  0  0  0  0  0  0  0  0  0  0  0
    6.6760    1.6725   -1.0819 H   0  0  0  0  0  0  0  0  0  0  0  0
    6.7816    3.2688    1.5504 H   0  0  0  0  0  0  0  0  0  0  0  0
    7.1763    3.9062   -0.0416 H   0  0  0  0  0  0  0  0  0  0  0  0
    4.8816    4.5937    0.7296 H   0  0  0  0  0  0  0  0  0  0  0  0
    4.8014    3.5980   -0.7436 H   0  0  0  0  0  0  0  0  0  0  0  0
    3.1876    2.9725    0.7805 H   0  0  0  0  0  0  0  0  0  0  0  0
    4.3249    2.6864    2.0914 H   0  0  0  0  0  0  0  0  0  0  0  0
    5.1824    1.4270    5.4379 H   0  0  0  0  0  0  0  0  0  0  0  0
    4.5732    2.4106    4.1525 H   0  0  0  0  0  0  0  0  0  0  0  0
    6.6794    2.7734    3.4546 H   0  0  0  0  0  0  0  0  0  0  0  0
    6.6785    2.9967    5.2211 H   0  0  0  0  0  0  0  0  0  0  0  0
    8.4766    1.2456    4.1219 H   0  0  0  0  0  0  0  0  0  0  0  0
    7.6775    0.8768    5.6572 H   0  0  0  0  0  0  0  0  0  0  0  0
    7.3260   -0.4927    3.0479 H   0  0  0  0  0  0  0  0  0  0  0  0
    6.6590   -2.2738    6.7267 H   0  0  0  0  0  0  0  0  0  0  0  0
    3.7420   -2.7128    5.6207 H   0  0  0  0  0  0  0  0  0  0  0  0
    2.5640   -3.3463    3.4941 H   0  0  0  0  0  0  0  0  0  0  0  0
    2.2850   -1.6171    1.9698 H   0  0  0  0  0  0  0  0  0  0  0  0
    2.9850    0.6859    2.9767 H   0  0  0  0  0  0  0  0  0  0  0  0
    3.1050    1.4281    4.6764 H   0  0  0  0  0  0  0  0  0  0  0  0
   -1.5662    0.5963    1.0893 H   0  0  0  0  0  0  0  0  0  0  0  0
   -1.2522   -0.0032    3.3864 H   0  0  0  0  0  0  0  0  0  0  0  0
   -2.6779   -0.7699    2.7152 H   0  0  0  0  0  0  0  0  0  0  0  0
   -1.1854   -1.7033    2.9192 H   0  0  0  0  0  0  0  0  0  0  0  0
  1 36  1  0  0  0  0
  1 37  1  0  0  0  0
  1 38  1  0  0  0  0
  2  1  1  0  0  0  0
  2  3  1  0  0  0  0
  2 34  1  0  0  0  0
  2 39  1  1  0  0  0
  3  4  2  0  0  0  0
  3  5  1  0  0  0  0
  5 40  1  0  0  0  0
  6  5  1  0  0  0  0
  6  7  1  0  0  0  0
  6 13  1  0  0  0  0
  6 41  1  6  0  0  0
  7  8  1  0  0  0  0
  7 12  1  0  0  0  0
  7 42  1  0  0  0  0
  8  9  1  0  0  0  0
  8 43  1  0  0  0  0
  8 44  1  0  0  0  0
  9 10  1  0  0  0  0
  9 45  1  0  0  0  0
  9 46  1  0  0  0  0
 10 11  1  0  0  0  0
 10 47  1  0  0  0  0
 10 48  1  0  0  0  0
 11 12  1  0  0  0  0
 11 49  1  0  0  0  0
 11 50  1  0  0  0  0
 12 51  1  0  0  0  0
 12 52  1  0  0  0  0
 13 14  2  0  0  0  0
 13 15  1  0  0  0  0
 15 16  1  0  0  0  0
 15 19  1  0  0  0  0
 16 17  1  0  0  0  0
 16 53  1  0  0  0  0
 16 54  1  0  0  0  0
 17 18  1  0  0  0  0
 17 55  1  0  0  0  0
 17 56  1  0  0  0  0
 18 19  1  0  0  0  0
 18 57  1  0  0  0  0
 18 58  1  0  0  0  0
 19 59  1  6  0  0  0
 19 20  1  0  0  0  0
 20 21  2  0  0  0  0
 20 22  1  0  0  0  0
 22 23  1  0  0  0  0
 22 60  1  0  0  0  0
 23 24  2  0  0  0  0
 23 27  1  0  0  0  0
 24 25  1  0  0  0  0
 24 28  1  0  0  0  0
 25 26  2  0  0  0  0
 26 27  1  0  0  0  0
 28 29  2  0  0  0  0
 28 33  1  0  0  0  0
 29 30  1  0  0  0  0
 29 61  1  0  0  0  0
 30 31  2  0  0  0  0
 30 62  1  0  0  0  0
 31 32  1  0  0  0  0
 31 63  1  0  0  0  0
 32 33  2  0  0  0  0
 32 64  1  0  0  0  0
 33 65  1  0  0  0  0
 34 35  1  0  0  0  0
 34 66  1  0  0  0  0
 35 67  1  0  0  0  0
 35 68  1  0  0  0  0
 35 69  1  0  0  0  0
M  END
>  <DRUGBANK_ID>
DB12380

>  <COMMON_NAME>
GDC-0152

>  <CAS_NUMBER>
873652-48-3

>  <UNII>
4KW1M48SHS

$$$$
