
 OpenBabel10282417243D

 33 34  0  0  0  0  0  0  0  0999 V2000
    0.9935    0.0328    0.0174 O   0  0  0  0  0  0  0  0  0  0  0  0
    0.6701    0.8267   -1.0949 N   0  0  0  0  0  0  0  0  0  0  0  0
    1.5425    1.4960   -1.9147 C   0  0  0  0  0  0  0  0  0  0  0  0
    1.1029    2.2284   -2.8061 O   0  0  0  0  0  0  0  0  0  0  0  0
    2.9674    1.2677   -1.7136 C   0  0  0  0  0  0  0  0  0  0  0  0
    3.5904    0.0289   -1.4420 C   0  0  0  0  0  0  0  0  0  0  0  0
    4.9060    0.3340   -1.2535 C   0  0  0  0  0  0  0  0  0  0  0  0
    6.0590   -0.5127   -0.9156 C   0  0  0  0  0  0  0  0  0  0  0  0
    7.0597   -0.5943   -2.0492 C   0  0  0  0  0  0  0  0  0  0  0  0
    7.7950    0.6406   -2.2627 N   0  0  0  0  0  0  0  0  0  0  0  0
    9.1300    0.8884   -2.0736 C   0  0  0  0  0  0  0  0  0  0  0  0
    9.5723    2.0301   -2.1487 O   0  0  0  0  0  0  0  0  0  0  0  0
   10.0471   -0.2312   -1.7538 C   0  0  0  0  0  0  0  0  0  0  0  0
    9.9833   -1.4461   -2.4479 C   0  0  0  0  0  0  0  0  0  0  0  0
   10.8235   -2.5009   -2.1000 C   0  0  0  0  0  0  0  0  0  0  0  0
   11.7872   -2.3216   -1.1064 C   0  0  0  0  0  0  0  0  0  0  0  0
   12.8528   -3.6420   -0.7872 Cl  0  0  0  0  0  0  0  0  0  0  0  0
   11.8772   -1.0957   -0.4318 C   0  0  0  0  0  0  0  0  0  0  0  0
   13.0418   -0.8179    0.8131 Cl  0  0  0  0  0  0  0  0  0  0  0  0
   11.0049   -0.0507   -0.7526 C   0  0  0  0  0  0  0  0  0  0  0  0
    5.0967    1.6637   -1.4472 O   0  0  0  0  0  0  0  0  0  0  0  0
    3.8806    2.2536   -1.7612 N   0  0  0  0  0  0  0  0  0  0  0  0
    1.9252    0.2103    0.2318 H   0  0  0  0  0  0  0  0  0  0  0  0
   -0.3189    1.0106   -1.2284 H   0  0  0  0  0  0  0  0  0  0  0  0
    3.1387   -0.9478   -1.3644 H   0  0  0  0  0  0  0  0  0  0  0  0
    6.5362   -0.1881    0.0144 H   0  0  0  0  0  0  0  0  0  0  0  0
    5.6866   -1.5317   -0.7420 H   0  0  0  0  0  0  0  0  0  0  0  0
    7.7265   -1.4035   -1.7669 H   0  0  0  0  0  0  0  0  0  0  0  0
    6.5898   -0.8592   -3.0024 H   0  0  0  0  0  0  0  0  0  0  0  0
    7.2557    1.4794   -2.4705 H   0  0  0  0  0  0  0  0  0  0  0  0
    9.2641   -1.5892   -3.2515 H   0  0  0  0  0  0  0  0  0  0  0  0
   10.7267   -3.4523   -2.6178 H   0  0  0  0  0  0  0  0  0  0  0  0
   11.0693    0.9026   -0.2306 H   0  0  0  0  0  0  0  0  0  0  0  0
  1  2  1  0  0  0  0
  1 23  1  0  0  0  0
  2  3  1  0  0  0  0
  2 24  1  0  0  0  0
  3  4  2  0  0  0  0
  3  5  1  0  0  0  0
  5  6  1  0  0  0  0
  5 22  2  0  0  0  0
  6  7  2  0  0  0  0
  6 25  1  0  0  0  0
  7  8  1  0  0  0  0
  7 21  1  0  0  0  0
  8  9  1  0  0  0  0
  8 26  1  0  0  0  0
  8 27  1  0  0  0  0
  9 10  1  0  0  0  0
  9 28  1  0  0  0  0
  9 29  1  0  0  0  0
 10 11  1  0  0  0  0
 10 30  1  0  0  0  0
 11 12  2  0  0  0  0
 11 13  1  0  0  0  0
 13 14  2  0  0  0  0
 13 20  1  0  0  0  0
 14 15  1  0  0  0  0
 14 31  1  0  0  0  0
 15 16  2  0  0  0  0
 15 32  1  0  0  0  0
 16 17  1  0  0  0  0
 16 18  1  0  0  0  0
 18 19  1  0  0  0  0
 18 20  2  0  0  0  0
 20 33  1  0  0  0  0
 21 22  1  0  0  0  0
M  END
>  <DRUGBANK_ID>
DB18068

>  <COMMON_NAME>
AVS-100

>  <CAS_NUMBER>
2245942-72-5

>  <UNII>
9EYT5CWH6E

>  <SYNONYMS>
3-Isoxazolecarboxamide, 5-[2-[(3,4-dichlorobenzoyl)amino]ethyl]-N-hydroxy-; 5-[2-[(3,4-dichlorobenzoyl)amino]ethyl]-N-hydroxy-3-isoxazolecarboxamide

$$$$
