
 OpenBabel10282417213D

 51 53  0  0  0  0  0  0  0  0999 V2000
    2.1054    0.0768   -0.0635 Cl  0  0  0  0  0  0  0  0  0  0  0  0
    0.9200   -1.3844    7.3881 Cl  0  0  0  0  0  0  0  0  0  0  0  0
    4.9690   -2.3003    1.9330 O   0  0  0  0  0  0  0  0  0  0  0  0
    3.1246   -6.1212    0.7608 O   0  0  0  0  0  0  0  0  0  0  0  0
    3.4310   -4.6389    2.3867 N   0  0  0  0  0  0  0  0  0  0  0  0
    1.2037   -4.5398   -0.6443 N   0  0  0  0  0  0  0  0  0  0  0  0
   -3.7630    0.0004    0.0672 N   0  0  0  0  0  0  0  0  0  0  0  0
   -1.7078    1.1465    0.0191 N   0  0  0  0  0  0  0  0  0  0  0  0
    3.2288   -3.4487    3.2026 C   0  0  1  0  0  0  0  0  0  0  0  0
    2.5544   -3.6781    4.5304 C   0  0  0  0  0  0  0  0  0  0  0  0
    0.3670   -2.5396   -0.1547 C   0  0  0  0  0  0  0  0  0  0  0  0
    1.8043   -4.1839    0.5605 C   0  0  0  0  0  0  0  0  0  0  0  0
    4.4513   -2.5274    3.2429 C   0  0  0  0  0  0  0  0  0  0  0  0
   -0.3200   -1.2637   -0.1603 C   0  0  0  0  0  0  0  0  0  0  0  0
    2.7967   -5.0304    1.2217 C   0  0  0  0  0  0  0  0  0  0  0  0
    1.2375   -2.9602    0.8575 C   0  0  0  0  0  0  0  0  0  0  0  0
   -4.5087    1.2490    0.1195 C   0  0  0  0  0  0  0  0  0  0  0  0
    0.3348   -3.5540   -1.0741 C   0  0  0  0  0  0  0  0  0  0  0  0
   -2.3849   -0.0190    0.0108 C   0  0  0  0  0  0  0  0  0  0  0  0
   -1.7167   -1.2384   -0.0768 C   0  0  0  0  0  0  0  0  0  0  0  0
    2.0437   -2.5720    5.2430 C   0  0  0  0  0  0  0  0  0  0  0  0
    2.3827   -4.9593    5.0591 C   0  0  0  0  0  0  0  0  0  0  0  0
    0.3824   -0.0538   -0.0919 C   0  0  0  0  0  0  0  0  0  0  0  0
   -5.4420    1.3211   -1.0855 C   0  0  0  0  0  0  0  0  0  0  0  0
   -5.3219    1.3160    1.4092 C   0  0  0  0  0  0  0  0  0  0  0  0
    1.4607   -2.7499    6.4932 C   0  0  0  0  0  0  0  0  0  0  0  0
    1.7874   -5.1318    6.3048 C   0  0  0  0  0  0  0  0  0  0  0  0
   -0.3570    1.1099   -0.0240 C   0  0  0  0  0  0  0  0  0  0  0  0
    1.3407   -4.0272    7.0295 C   0  0  0  0  0  0  0  0  0  0  0  0
    4.0704   -5.3388    2.7426 H   0  0  0  0  0  0  0  0  0  0  0  0
    1.4022   -5.4014   -1.1391 H   0  0  0  0  0  0  0  0  0  0  0  0
   -4.2653   -0.8726    0.1314 H   0  0  0  0  0  0  0  0  0  0  0  0
    5.0823   -3.1733    1.5159 H   0  0  0  0  0  0  0  0  0  0  0  0
    2.5173   -2.8554    2.7024 H   0  0  0  0  0  0  0  0  0  0  0  0
    4.1608   -1.5474    3.6396 H   0  0  0  0  0  0  0  0  0  0  0  0
    5.2402   -2.9376    3.8735 H   0  0  0  0  0  0  0  0  0  0  0  0
    1.3736   -2.2873    1.6792 H   0  0  0  0  0  0  0  0  0  0  0  0
   -3.8545    2.1275    0.0898 H   0  0  0  0  0  0  0  0  0  0  0  0
   -0.2004   -3.6548   -2.0073 H   0  0  0  0  0  0  0  0  0  0  0  0
   -2.2721   -2.1701   -0.0461 H   0  0  0  0  0  0  0  0  0  0  0  0
    2.0996   -1.5670    4.8238 H   0  0  0  0  0  0  0  0  0  0  0  0
    2.7031   -5.8385    4.5066 H   0  0  0  0  0  0  0  0  0  0  0  0
   -6.1648    0.4975   -1.0807 H   0  0  0  0  0  0  0  0  0  0  0  0
   -6.0015    2.2625   -1.0804 H   0  0  0  0  0  0  0  0  0  0  0  0
   -4.8775    1.2659   -2.0221 H   0  0  0  0  0  0  0  0  0  0  0  0
   -4.6729    1.2619    2.2891 H   0  0  0  0  0  0  0  0  0  0  0  0
   -5.8805    2.2576    1.4584 H   0  0  0  0  0  0  0  0  0  0  0  0
   -6.0434    0.4939    1.4723 H   0  0  0  0  0  0  0  0  0  0  0  0
    1.6838   -6.1343    6.7095 H   0  0  0  0  0  0  0  0  0  0  0  0
    0.1264    2.0824    0.0003 H   0  0  0  0  0  0  0  0  0  0  0  0
    0.8982   -4.1719    8.0097 H   0  0  0  0  0  0  0  0  0  0  0  0
  1 23  1  0  0  0  0
  2 26  1  0  0  0  0
  3 13  1  0  0  0  0
  3 33  1  0  0  0  0
  4 15  2  0  0  0  0
  5 15  1  0  0  0  0
  5 30  1  0  0  0  0
  6 12  1  0  0  0  0
  6 18  1  0  0  0  0
  6 31  1  0  0  0  0
  7 17  1  0  0  0  0
  7 19  1  0  0  0  0
  7 32  1  0  0  0  0
  8 19  2  0  0  0  0
  8 28  1  0  0  0  0
  9  5  1  0  0  0  0
  9 10  1  0  0  0  0
  9 13  1  0  0  0  0
  9 34  1  6  0  0  0
 10 21  2  0  0  0  0
 10 22  1  0  0  0  0
 11 14  1  0  0  0  0
 11 16  1  0  0  0  0
 11 18  2  0  0  0  0
 12 15  1  0  0  0  0
 12 16  2  0  0  0  0
 13 35  1  0  0  0  0
 13 36  1  0  0  0  0
 14 20  2  0  0  0  0
 14 23  1  0  0  0  0
 16 37  1  0  0  0  0
 17 24  1  0  0  0  0
 17 25  1  0  0  0  0
 17 38  1  0  0  0  0
 18 39  1  0  0  0  0
 19 20  1  0  0  0  0
 20 40  1  0  0  0  0
 21 26  1  0  0  0  0
 21 41  1  0  0  0  0
 22 27  2  0  0  0  0
 22 42  1  0  0  0  0
 23 28  2  0  0  0  0
 24 43  1  0  0  0  0
 24 44  1  0  0  0  0
 24 45  1  0  0  0  0
 25 46  1  0  0  0  0
 25 47  1  0  0  0  0
 25 48  1  0  0  0  0
 26 29  2  0  0  0  0
 27 29  1  0  0  0  0
 27 49  1  0  0  0  0
 28 50  1  0  0  0  0
 29 51  1  0  0  0  0
M  END
>  <DRUGBANK_ID>
DB13930

>  <COMMON_NAME>
Ulixertinib

>  <CAS_NUMBER>
869886-67-9

>  <UNII>
16ZDH50O1U

>  <SYNONYMS>
Ulixertinib

$$$$
