
 OpenBabel10282417123D

 16 15  0  0  0  0  0  0  0  0999 V2000
    1.0041   -0.0366    0.1425 C   0  0  0  0  0  0  0  0  0  0  0  0
    0.5208    1.1655    0.9394 C   0  0  0  0  0  0  0  0  0  0  0  0
    0.9689    2.4893    0.3120 C   0  0  0  0  0  0  0  0  0  0  0  0
    0.4657    2.6890   -1.1164 C   0  0  0  0  0  0  0  0  0  0  0  0
   -1.0401    2.7160   -1.1644 C   0  0  0  0  0  0  0  0  0  0  0  0
   -1.6858    3.6679   -1.5984 O   0  0  0  0  0  0  0  0  0  0  0  0
    0.6213   -0.0264   -0.8822 H   0  0  0  0  0  0  0  0  0  0  0  0
    0.6601   -0.9660    0.6025 H   0  0  0  0  0  0  0  0  0  0  0  0
    2.0974   -0.0499    0.0974 H   0  0  0  0  0  0  0  0  0  0  0  0
   -0.5709    1.1352    1.0246 H   0  0  0  0  0  0  0  0  0  0  0  0
    0.9048    1.1014    1.9639 H   0  0  0  0  0  0  0  0  0  0  0  0
    0.6214    3.3180    0.9416 H   0  0  0  0  0  0  0  0  0  0  0  0
    2.0656    2.5316    0.3137 H   0  0  0  0  0  0  0  0  0  0  0  0
    0.8485    3.6318   -1.5193 H   0  0  0  0  0  0  0  0  0  0  0  0
    0.8168    1.8953   -1.7826 H   0  0  0  0  0  0  0  0  0  0  0  0
   -1.5564    1.8065   -0.8149 H   0  0  0  0  0  0  0  0  0  0  0  0
  1  2  1  0  0  0  0
  1  7  1  0  0  0  0
  1  8  1  0  0  0  0
  1  9  1  0  0  0  0
  2  3  1  0  0  0  0
  2 10  1  0  0  0  0
  2 11  1  0  0  0  0
  3  4  1  0  0  0  0
  3 12  1  0  0  0  0
  3 13  1  0  0  0  0
  4  5  1  0  0  0  0
  4 14  1  0  0  0  0
  4 15  1  0  0  0  0
  5  6  2  0  0  0  0
  5 16  1  0  0  0  0
M  END
>  <DRUGBANK_ID>
DB01919

>  <SECONDARY_ACCESSION_NUMBERS>
EXPT02684

>  <COMMON_NAME>
Pentanal

>  <CAS_NUMBER>
110-62-3

>  <UNII>
B975S3014W

$$$$
