
 OpenBabel10282417113D

 51 54  0  0  1  0  0  0  0  0999 V2000
   -1.4378    0.7816   -0.2828 H   0  0  0  0  0  0  0  0  0  0  0  0
   -1.7995   -0.1884    0.0891 C   0  0  1  0  0  0  0  0  0  0  0  0
   -3.0923   -0.0009    0.9688 C   0  0  0  0  0  0  0  0  0  0  0  0
   -3.3584   -1.4368    1.5205 C   0  0  0  0  0  0  0  0  0  0  0  0
   -2.4949   -2.5639    1.2359 C   0  0  0  0  0  0  0  0  0  0  0  0
   -3.0238   -3.8853    1.2791 C   0  0  0  0  0  0  0  0  0  0  0  0
   -2.2596   -4.8835    0.7170 O   0  0  0  0  0  0  0  0  0  0  0  0
   -2.4028   -6.1904    1.2691 C   0  0  0  0  0  0  0  0  0  0  0  0
   -4.3707   -4.0544    1.6357 C   0  0  0  0  0  0  0  0  0  0  0  0
   -4.9657   -5.2835    1.5294 O   0  0  0  0  0  0  0  0  0  0  0  0
   -6.0838   -5.2727    0.6411 C   0  0  0  0  0  0  0  0  0  0  0  0
   -5.1273   -2.9677    2.0765 C   0  0  0  0  0  0  0  0  0  0  0  0
   -4.6336   -1.6736    2.0424 C   0  0  0  0  0  0  0  0  0  0  0  0
   -1.0291   -2.2906    0.8227 C   0  0  1  0  0  0  0  0  0  0  0  0
   -0.5352   -2.4689   -0.7037 C   0  0  0  0  0  0  0  0  0  0  0  0
   -1.2266   -1.6383   -1.7906 C   0  0  0  0  0  0  0  0  0  0  0  0
   -2.3162   -0.8753   -1.2265 N   0  0  0  0  0  0  0  0  0  0  0  0
   -3.4930   -1.8091   -1.2069 C   0  0  0  0  0  0  0  0  0  0  0  0
   -0.1799   -3.2298    1.6418 C   0  0  0  0  0  0  0  0  0  0  0  0
   -0.1900   -2.8112    3.1039 C   0  0  2  0  0  0  0  0  0  0  0  0
   -1.2889   -2.1236    3.6993 O   0  0  0  0  0  0  0  0  0  0  0  0
    1.0022   -1.8688    3.0498 C   0  0  0  0  0  0  0  0  0  0  0  0
    0.8407   -0.8069    1.7110 C   0  0  0  0  0  0  0  0  0  0  0  0
   -0.6866   -0.7968    1.1540 C   0  0  1  0  0  0  0  0  0  0  0  0
   -1.1196   -0.1368    2.3844 O   0  0  0  0  0  0  0  0  0  0  0  0
   -3.2575    0.3008    2.0298 H   0  0  0  0  0  0  0  0  0  0  0  0
   -2.8517    1.0733    1.1119 H   0  0  0  0  0  0  0  0  0  0  0  0
   -2.3732   -6.1734    2.3633 H   0  0  0  0  0  0  0  0  0  0  0  0
   -3.3025   -6.6774    0.8900 H   0  0  0  0  0  0  0  0  0  0  0  0
   -1.5652   -6.8050    0.9201 H   0  0  0  0  0  0  0  0  0  0  0  0
   -6.9079   -4.6761    1.0417 H   0  0  0  0  0  0  0  0  0  0  0  0
   -5.8059   -4.9211   -0.3596 H   0  0  0  0  0  0  0  0  0  0  0  0
   -6.4415   -6.3023    0.5535 H   0  0  0  0  0  0  0  0  0  0  0  0
   -6.1656   -3.1069    2.3639 H   0  0  0  0  0  0  0  0  0  0  0  0
   -5.2795   -0.8421    2.2973 H   0  0  0  0  0  0  0  0  0  0  0  0
   -0.5040   -3.5213   -1.0039 H   0  0  0  0  0  0  0  0  0  0  0  0
    0.5123   -2.1279   -0.7580 H   0  0  0  0  0  0  0  0  0  0  0  0
   -1.5640   -2.2832   -2.6189 H   0  0  0  0  0  0  0  0  0  0  0  0
   -0.5385   -0.9293   -2.2641 H   0  0  0  0  0  0  0  0  0  0  0  0
   -4.3367   -1.4621   -0.6067 H   0  0  0  0  0  0  0  0  0  0  0  0
   -3.9524   -2.0173   -2.1784 H   0  0  0  0  0  0  0  0  0  0  0  0
   -3.2021   -2.8225   -0.9110 H   0  0  0  0  0  0  0  0  0  0  0  0
   -0.3450   -4.2964    1.5238 H   0  0  0  0  0  0  0  0  0  0  0  0
    0.8471   -3.1952    1.2334 H   0  0  0  0  0  0  0  0  0  0  0  0
   -0.1575   -3.7234    3.6990 H   0  0  0  0  0  0  0  0  0  0  0  0
   -1.4468   -1.2738    3.2345 H   0  0  0  0  0  0  0  0  0  0  0  0
    1.1160   -1.3688    4.0174 H   0  0  0  0  0  0  0  0  0  0  0  0
    1.8931   -2.5058    2.9141 H   0  0  0  0  0  0  0  0  0  0  0  0
    1.6057   -1.0698    0.9761 H   0  0  0  0  0  0  0  0  0  0  0  0
    1.1410    0.1674    2.1290 H   0  0  0  0  0  0  0  0  0  0  0  0
   -0.7378    0.7892    2.3684 H   0  0  0  0  0  0  0  0  0  0  0  0
  2  3  1  0  0  0  0
  2 17  1  0  0  0  0
  2  1  1  1  0  0  0
  3  4  1  0  0  0  0
  3 26  1  0  0  0  0
  3 27  1  0  0  0  0
  4  5  2  0  0  0  0
  4 13  1  0  0  0  0
  5  6  1  0  0  0  0
  6  9  2  0  0  0  0
  6  7  1  0  0  0  0
  7  8  1  0  0  0  0
  8 28  1  0  0  0  0
  8 29  1  0  0  0  0
  8 30  1  0  0  0  0
  9 12  1  0  0  0  0
  9 10  1  0  0  0  0
 10 11  1  0  0  0  0
 11 31  1  0  0  0  0
 11 32  1  0  0  0  0
 11 33  1  0  0  0  0
 12 13  2  0  0  0  0
 12 34  1  0  0  0  0
 13 35  1  0  0  0  0
 14  5  1  6  0  0  0
 14 15  1  0  0  0  0
 14 19  1  0  0  0  0
 15 16  1  0  0  0  0
 15 36  1  0  0  0  0
 15 37  1  0  0  0  0
 16 17  1  0  0  0  0
 16 38  1  0  0  0  0
 16 39  1  0  0  0  0
 17 18  1  0  0  0  0
 18 40  1  0  0  0  0
 18 41  1  0  0  0  0
 18 42  1  0  0  0  0
 19 43  1  0  0  0  0
 19 44  1  0  0  0  0
 20 19  1  0  0  0  0
 20 22  1  0  0  0  0
 20 45  1  1  0  0  0
 20 21  1  0  0  0  0
 21 46  1  0  0  0  0
 22 23  1  0  0  0  0
 22 47  1  0  0  0  0
 22 48  1  0  0  0  0
 23 49  1  0  0  0  0
 23 50  1  0  0  0  0
 24 23  1  0  0  0  0
 24  2  1  0  0  0  0
 24 14  1  0  0  0  0
 24 25  1  1  0  0  0
 25 51  1  0  0  0  0
M  END
>  <DRUGBANK_ID>
DB01547

>  <COMMON_NAME>
Drotebanol

>  <CAS_NUMBER>
3176-03-2

>  <UNII>
7RS2Q8MCK8

>  <SYNONYMS>
Drotebanol

$$$$
