
 OpenBabel10282417233D

 48 50  0  0  1  0  0  0  0  0999 V2000
    0.9962   -0.1544   -0.1760 H   0  0  0  0  0  0  0  0  0  0  0  0
    2.0874   -0.1033   -0.0526 C   0  0  2  0  0  0  0  0  0  0  0  0
    2.3881    0.2576    1.4039 C   0  0  0  0  0  0  0  0  0  0  0  0
    1.6758   -0.7077    2.3594 C   0  0  0  0  0  0  0  0  0  0  0  0
    2.4622   -1.9805    2.5365 C   0  0  0  0  0  0  0  0  0  0  0  0
    3.1038   -2.2179    3.8656 C   0  0  0  0  0  0  0  0  0  0  0  0
    2.5956   -2.8524    1.5299 C   0  0  0  0  0  0  0  0  0  0  0  0
    3.2343   -4.2051    1.6419 C   0  0  0  0  0  0  0  0  0  0  0  0
    2.2613   -4.9727    0.7708 C   0  0  0  0  0  0  0  0  0  0  0  0
    2.1982   -4.0491   -0.4933 C   0  0  1  0  0  0  0  0  0  0  0  0
    3.5134   -4.2156   -1.2577 C   0  0  0  0  0  0  0  0  0  0  0  0
    1.1118   -4.3586   -1.3630 O   0  0  0  0  0  0  0  0  0  0  0  0
    1.9979   -2.6506    0.1428 C   0  0  2  0  0  0  0  0  0  0  0  0
    0.9158   -2.4607    0.2097 H   0  0  0  0  0  0  0  0  0  0  0  0
    2.6784   -1.4344   -0.5061 C   0  0  1  0  0  0  0  0  0  0  0  0
    3.7574   -1.4655   -0.2939 H   0  0  0  0  0  0  0  0  0  0  0  0
    2.5401   -1.3792   -1.9132 O   0  0  0  0  0  0  0  0  0  0  0  0
    2.8596   -0.0964   -2.2874 C   0  0  0  0  0  0  0  0  0  0  0  0
    3.3361    0.1454   -3.3705 O   0  0  0  0  0  0  0  0  0  0  0  0
    2.6320    0.8649   -1.1064 C   0  0  1  0  0  0  0  0  0  0  0  0
    1.6430    2.0232   -1.3583 C   0  0  0  0  0  0  0  0  0  0  0  0
    1.5249    2.4218   -2.7580 N   0  0  0  0  0  0  0  0  0  0  0  0
    0.4308    3.3658   -2.9653 C   0  0  0  0  0  0  0  0  0  0  0  0
    2.7693    2.9891   -3.2800 C   0  0  0  0  0  0  0  0  0  0  0  0
    3.4706    0.2461    1.5872 H   0  0  0  0  0  0  0  0  0  0  0  0
    2.0395    1.2754    1.6087 H   0  0  0  0  0  0  0  0  0  0  0  0
    0.6683   -0.9390    1.9812 H   0  0  0  0  0  0  0  0  0  0  0  0
    1.5146   -0.2362    3.3330 H   0  0  0  0  0  0  0  0  0  0  0  0
    3.7953   -1.4017    4.0818 H   0  0  0  0  0  0  0  0  0  0  0  0
    2.3401   -2.3003    4.6403 H   0  0  0  0  0  0  0  0  0  0  0  0
    3.7024   -3.1312    3.9038 H   0  0  0  0  0  0  0  0  0  0  0  0
    4.2503   -4.1973    1.2334 H   0  0  0  0  0  0  0  0  0  0  0  0
    3.3190   -4.6225    2.6430 H   0  0  0  0  0  0  0  0  0  0  0  0
    2.6349   -5.9867    0.5994 H   0  0  0  0  0  0  0  0  0  0  0  0
    1.3041   -5.0755    1.3104 H   0  0  0  0  0  0  0  0  0  0  0  0
    3.6725   -5.2788   -1.4623 H   0  0  0  0  0  0  0  0  0  0  0  0
    3.5300   -3.6869   -2.2115 H   0  0  0  0  0  0  0  0  0  0  0  0
    4.3636   -3.8458   -0.6842 H   0  0  0  0  0  0  0  0  0  0  0  0
    1.3984   -4.1884   -2.2836 H   0  0  0  0  0  0  0  0  0  0  0  0
    3.6068    1.2678   -0.7993 H   0  0  0  0  0  0  0  0  0  0  0  0
    0.6468    1.7397   -0.9908 H   0  0  0  0  0  0  0  0  0  0  0  0
    1.9276    2.8880   -0.7400 H   0  0  0  0  0  0  0  0  0  0  0  0
    0.6252    4.3197   -2.4640 H   0  0  0  0  0  0  0  0  0  0  0  0
    0.2964    3.5529   -4.0362 H   0  0  0  0  0  0  0  0  0  0  0  0
   -0.5195    2.9658   -2.5944 H   0  0  0  0  0  0  0  0  0  0  0  0
    2.9950    3.9548   -2.8220 H   0  0  0  0  0  0  0  0  0  0  0  0
    3.6429    2.3603   -3.0953 H   0  0  0  0  0  0  0  0  0  0  0  0
    2.6957    3.0978   -4.3665 H   0  0  0  0  0  0  0  0  0  0  0  0
  2  1  1  6  0  0  0
  2  3  1  0  0  0  0
  2 15  1  0  0  0  0
  2 20  1  0  0  0  0
  3  4  1  0  0  0  0
  3 25  1  0  0  0  0
  3 26  1  0  0  0  0
  4  5  1  0  0  0  0
  4 27  1  0  0  0  0
  4 28  1  0  0  0  0
  5  6  1  0  0  0  0
  5  7  2  0  0  0  0
  6 29  1  0  0  0  0
  6 30  1  0  0  0  0
  6 31  1  0  0  0  0
  7  8  1  0  0  0  0
  8  9  1  0  0  0  0
  8 32  1  0  0  0  0
  8 33  1  0  0  0  0
  9 34  1  0  0  0  0
  9 35  1  0  0  0  0
 10  9  1  0  0  0  0
 10 12  1  6  0  0  0
 10 11  1  0  0  0  0
 11 36  1  0  0  0  0
 11 37  1  0  0  0  0
 11 38  1  0  0  0  0
 12 39  1  0  0  0  0
 13 10  1  0  0  0  0
 13  7  1  0  0  0  0
 13 14  1  1  0  0  0
 15 13  1  0  0  0  0
 15 16  1  1  0  0  0
 15 17  1  0  0  0  0
 17 18  1  0  0  0  0
 18 19  2  0  0  0  0
 20 18  1  0  0  0  0
 20 40  1  1  0  0  0
 20 21  1  0  0  0  0
 21 22  1  0  0  0  0
 21 41  1  0  0  0  0
 21 42  1  0  0  0  0
 22 23  1  0  0  0  0
 22 24  1  0  0  0  0
 23 43  1  0  0  0  0
 23 44  1  0  0  0  0
 23 45  1  0  0  0  0
 24 46  1  0  0  0  0
 24 47  1  0  0  0  0
 24 48  1  0  0  0  0
M  END
>  <DRUGBANK_ID>
DB17111

>  <COMMON_NAME>
Dimethylaminomicheliolide

>  <CAS_NUMBER>
1403357-81-2

>  <UNII>
580BNQ45EO

>  <SYNONYMS>
11.BETA.,13-DIHYDRO-13-(DIMETHYLAMINO)MICHELIOLIDE; AZULENO(4,5-B)FURAN-2(3H)-ONE, 3-((DIMETHYLAMINO)METHYL)-3A,4,5,7,8,9,9A,9B-OCTAHYDRO-9-HYDROXY-6,9-DIMETHYL-, (3R,3AS,9R,9AS,9BS)-

$$$$
