LUM
 OpenBabel10282417143D

 28 30  0  0  0  0  0  0  0  0999 V2000
   -2.3728   -1.3550   -0.0010 N   0  0  0  0  0  0  0  0  0  0  0  0
   -3.5766   -0.7166    0.0005 C   0  0  0  0  0  0  0  0  0  0  0  0
   -1.1529   -0.6841   -0.0005 C   0  0  0  0  0  0  0  0  0  0  0  0
   -4.6382   -1.3292   -0.0028 O   0  0  0  0  0  0  0  0  0  0  0  0
   -3.5394    0.6495    0.0053 N   0  0  0  0  0  0  0  0  0  0  0  0
   -2.4071    1.4293   -0.0008 C   0  0  0  0  0  0  0  0  0  0  0  0
   -2.4783    2.6550   -0.0063 O   0  0  0  0  0  0  0  0  0  0  0  0
   -1.1221    0.7006   -0.0010 C   0  0  0  0  0  0  0  0  0  0  0  0
    0.0247    1.4137   -0.0011 N   0  0  0  0  0  0  0  0  0  0  0  0
    1.1571    0.6972   -0.0004 C   0  0  0  0  0  0  0  0  0  0  0  0
    2.3569    1.3864   -0.0001 C   0  0  0  0  0  0  0  0  0  0  0  0
    1.1541   -0.7219    0.0001 C   0  0  0  0  0  0  0  0  0  0  0  0
    3.5905    0.7263    0.0000 C   0  0  0  0  0  0  0  0  0  0  0  0
    4.8556    1.5363   -0.0000 C   0  0  0  0  0  0  0  0  0  0  0  0
    3.6120   -0.6749    0.0001 C   0  0  0  0  0  0  0  0  0  0  0  0
    4.9081   -1.4418   -0.0008 C   0  0  0  0  0  0  0  0  0  0  0  0
    2.3880   -1.3762    0.0006 C   0  0  0  0  0  0  0  0  0  0  0  0
   -0.0151   -1.4171   -0.0001 N   0  0  0  0  0  0  0  0  0  0  0  0
   -2.3658   -2.3655   -0.0026 H   0  0  0  0  0  0  0  0  0  0  0  0
   -4.4250    1.1351    0.0058 H   0  0  0  0  0  0  0  0  0  0  0  0
    2.3225    2.4748   -0.0003 H   0  0  0  0  0  0  0  0  0  0  0  0
    5.4426    1.3085    0.8957 H   0  0  0  0  0  0  0  0  0  0  0  0
    5.4425    1.3087   -0.8959 H   0  0  0  0  0  0  0  0  0  0  0  0
    4.6540    2.6113    0.0001 H   0  0  0  0  0  0  0  0  0  0  0  0
    4.9816   -2.0639    0.8956 H   0  0  0  0  0  0  0  0  0  0  0  0
    4.9801   -2.0639   -0.8974 H   0  0  0  0  0  0  0  0  0  0  0  0
    5.7844   -0.7869   -0.0016 H   0  0  0  0  0  0  0  0  0  0  0  0
    2.3956   -2.4654    0.0013 H   0  0  0  0  0  0  0  0  0  0  0  0
  1  2  1  0  0  0  0
  1  3  1  0  0  0  0
  1 19  1  0  0  0  0
  2  4  2  0  0  0  0
  2  5  1  0  0  0  0
  3  8  2  0  0  0  0
  3 18  1  0  0  0  0
  5  6  1  0  0  0  0
  5 20  1  0  0  0  0
  6  7  2  0  0  0  0
  6  8  1  0  0  0  0
  8  9  1  0  0  0  0
  9 10  2  0  0  0  0
 10 11  1  0  0  0  0
 10 12  1  0  0  0  0
 11 13  2  0  0  0  0
 11 21  1  0  0  0  0
 12 17  1  0  0  0  0
 12 18  2  0  0  0  0
 13 14  1  0  0  0  0
 13 15  1  0  0  0  0
 14 22  1  0  0  0  0
 14 23  1  0  0  0  0
 14 24  1  0  0  0  0
 15 16  1  0  0  0  0
 15 17  2  0  0  0  0
 16 25  1  0  0  0  0
 16 26  1  0  0  0  0
 16 27  1  0  0  0  0
 17 28  1  0  0  0  0
M  END
>  <DRUGBANK_ID>
DB04345

>  <SECONDARY_ACCESSION_NUMBERS>
EXPT02065

>  <COMMON_NAME>
Lumichrome

>  <CAS_NUMBER>
1086-80-2

>  <UNII>
99U1UDJ2HM

>  <SYNONYMS>
7,8-dimethylalloxazine; 7,8-dimethylbenzo[g]pteridine-2,4(1H,3H)-dione; Lumichrome; Riboflavin lumichrome

$$$$
