
 OpenBabel10282417213D

188192  0  0  0  0  0  0  0  0999 V2000
  -28.7914    3.9346  -12.6858 O   0  0  0  0  0  0  0  0  0  0  0  0
  -29.3872    4.3740  -11.4740 C   0  0  2  0  0  0  0  0  0  0  0  0
  -30.8927    4.1788  -11.5498 C   0  0  0  0  0  0  0  0  0  0  0  0
  -29.0759    5.8370  -11.2040 C   0  0  2  0  0  0  0  0  0  0  0  0
  -30.1637    6.6745  -11.7294 N   0  0  0  0  0  0  0  0  0  0  0  0
  -29.9487    8.1065  -11.9824 C   0  0  0  0  0  0  0  0  0  0  0  0
  -30.8780    8.8085  -12.4911 O   0  0  0  0  0  0  0  0  0  0  0  0
  -28.6149    8.7477  -11.6356 C   0  0  2  0  0  0  0  0  0  0  0  0
  -24.5259   12.1501  -25.1926 C   0  0  0  0  0  0  0  0  0  0  0  0
  -24.3086   13.8498  -24.6095 S   0  0  0  0  0  0  0  0  0  0  0  0
  -26.1474   14.8603  -24.6970 S   0  0  0  0  0  0  0  0  0  0  0  0
  -25.2526   17.9235  -22.2054 N   0  0  0  0  0  0  0  0  0  0  0  0
  -25.5555   19.0513  -23.0983 C   0  0  0  0  0  0  0  0  0  0  0  0
  -25.4030   20.2447  -22.6888 O   0  0  0  0  0  0  0  0  0  0  0  0
  -26.0304   18.9036  -24.5346 C   0  0  2  0  0  0  0  0  0  0  0  0
  -25.7125   20.1275  -25.2842 N   0  0  0  0  0  0  0  0  0  0  0  0
  -26.7552   20.7916  -26.0796 C   0  0  0  0  0  0  0  0  0  0  0  0
  -26.4285   22.0569  -26.8559 C   0  0  0  0  0  0  0  0  0  0  0  0
  -26.6723   21.8300  -28.2877 N   0  0  0  0  0  0  0  0  0  0  0  0
  -25.8515   22.9598  -28.7469 C   0  0  0  0  0  0  0  0  0  0  0  0
  -24.4711   22.5941  -29.2391 C   0  0  0  0  0  0  0  0  0  0  0  0
  -24.4424   22.1695  -30.6335 N   0  0  0  0  0  0  0  0  0  0  0  0
  -23.0515   22.2074  -31.1075 C   0  0  0  0  0  0  0  0  0  0  0  0
  -22.2185   21.2142  -30.3137 C   0  0  0  0  0  0  0  0  0  0  0  0
  -21.6239   20.2630  -30.9110 O   0  0  0  0  0  0  0  0  0  0  0  0
  -22.1046   21.3492  -28.9047 O   0  5  0  0  0  0  0  0  0  0  0  0
  -24.9670   20.8108  -30.8261 C   0  0  0  0  0  0  0  0  0  0  0  0
  -25.5491   20.6292  -32.2149 C   0  0  0  0  0  0  0  0  0  0  0  0
  -26.9718   20.9825  -32.2712 N   0  0  0  0  0  0  0  0  0  0  0  0
  -27.3352   21.3159  -33.6560 C   0  0  0  0  0  0  0  0  0  0  0  0
  -27.0874   20.1111  -34.5490 C   0  0  0  0  0  0  0  0  0  0  0  0
  -28.0495   19.5920  -35.1971 O   0  0  0  0  0  0  0  0  0  0  0  0
  -25.7810   19.5656  -34.6590 O   0  5  0  0  0  0  0  0  0  0  0  0
  -27.7925   19.8526  -31.8120 C   0  0  0  0  0  0  0  0  0  0  0  0
  -29.1729   20.2183  -31.3198 C   0  0  0  0  0  0  0  0  0  0  0  0
  -29.2014   20.6421  -29.9249 N   0  0  0  0  0  0  0  0  0  0  0  0
  -28.3874   19.7084  -29.1334 C   0  0  0  0  0  0  0  0  0  0  0  0
  -26.9421   19.7758  -29.5994 C   0  0  0  0  0  0  0  0  0  0  0  0
  -26.0269   20.1137  -28.7848 O   0  0  0  0  0  0  0  0  0  0  0  0
  -26.6144   19.4611  -30.9447 O   0  5  0  0  0  0  0  0  0  0  0  0
  -28.6771   22.0016  -29.7329 C   0  0  0  0  0  0  0  0  0  0  0  0
  -28.0950   22.1833  -28.3441 C   0  0  0  0  0  0  0  0  0  0  0  0
  -27.9298   20.3078  -26.1182 O   0  0  0  0  0  0  0  0  0  0  0  0
  -27.5331   18.6756  -24.5505 C   0  0  0  0  0  0  0  0  0  0  0  0
  -28.0080   18.5279  -25.9869 C   0  0  0  0  0  0  0  0  0  0  0  0
  -27.8621   17.3613  -26.6042 C   0  0  0  0  0  0  0  0  0  0  0  0
  -28.4192   17.1509  -27.8425 C   0  0  0  0  0  0  0  0  0  0  0  0
  -29.0567   18.1611  -28.5077 C   0  0  0  0  0  0  0  0  0  0  0  0
  -29.2464   19.2805  -27.8331 C   0  0  0  0  0  0  0  0  0  0  0  0
  -28.5859   19.6120  -26.6265 C   0  0  0  0  0  0  0  0  0  0  0  0
  -21.6603   14.6137  -22.6034 C   0  0  0  0  0  0  0  0  0  0  0  0
  -20.3039   13.9279  -22.5824 C   0  0  0  0  0  0  0  0  0  0  0  0
  -19.9570   13.1916  -23.6316 C   0  0  0  0  0  0  0  0  0  0  0  0
  -18.6520   12.8008  -23.8111 C   0  0  0  0  0  0  0  0  0  0  0  0
  -17.6987   13.0807  -22.8718 C   0  0  0  0  0  0  0  0  0  0  0  0
  -16.3862   12.5452  -22.9553 O   0  0  0  0  0  0  0  0  0  0  0  0
  -18.0642   13.8758  -21.8828 C   0  0  0  0  0  0  0  0  0  0  0  0
  -19.4052   14.1939  -21.5626 C   0  0  0  0  0  0  0  0  0  0  0  0
  -22.1715   13.8842  -20.2866 C   0  0  0  0  0  0  0  0  0  0  0  0
  -21.0562   14.4202  -19.9966 O   0  0  0  0  0  0  0  0  0  0  0  0
  -22.9768   13.2479  -19.2342 N   0  0  0  0  0  0  0  0  0  0  0  0
  -24.2667   12.6278  -19.5696 C   0  0  2  0  0  0  0  0  0  0  0  0
  -25.3759   13.3099  -18.7853 C   0  0  0  0  0  0  0  0  0  0  0  0
  -25.4182   14.7871  -19.1408 C   0  0  0  0  0  0  0  0  0  0  0  0
  -23.9482   13.3824  -20.4212 C   0  0  0  0  0  0  0  0  0  0  0  0
  -22.8125   14.0684  -19.9974 N   0  0  0  0  0  0  0  0  0  0  0  0
  -22.9422   15.2177  -19.2213 C   0  0  0  0  0  0  0  0  0  0  0  0
  -21.8511   15.8620  -18.8241 C   0  0  0  0  0  0  0  0  0  0  0  0
  -21.9482   17.0779  -18.1917 C   0  0  0  0  0  0  0  0  0  0  0  0
  -23.1670   17.6103  -17.8746 C   0  0  0  0  0  0  0  0  0  0  0  0
  -24.2252   16.9794  -18.3503 C   0  0  0  0  0  0  0  0  0  0  0  0
  -24.2068   15.6669  -18.8785 C   0  0  0  0  0  0  0  0  0  0  0  0
  -24.2274   11.1511  -19.2116 C   0  0  0  0  0  0  0  0  0  0  0  0
  -23.3692   10.3880  -19.7560 O   0  0  0  0  0  0  0  0  0  0  0  0
  -25.1819   10.6056  -18.2359 N   0  0  0  0  0  0  0  0  0  0  0  0
  -25.1439    9.1775  -17.8897 C   0  0  1  0  0  0  0  0  0  0  0  0
  -24.0347    8.4955  -18.6740 C   0  0  0  0  0  0  0  0  0  0  0  0
  -23.9954    7.0187  -18.3160 C   0  0  0  0  0  0  0  0  0  0  0  0
  -25.3292    6.3776  -18.6628 C   0  0  0  0  0  0  0  0  0  0  0  0
  -25.5933    6.5311  -20.1518 C   0  0  0  0  0  0  0  0  0  0  0  0
  -24.5206    5.8715  -20.9103 N   0  0  0  0  0  0  0  0  0  0  0  0
  -24.8798    9.0239  -16.4007 C   0  0  0  0  0  0  0  0  0  0  0  0
  -23.8126    9.4915  -15.8931 O   0  0  0  0  0  0  0  0  0  0  0  0
  -25.8588    8.3347  -15.5478 N   0  0  0  0  0  0  0  0  0  0  0  0
  -25.6034    8.1861  -14.1078 C   0  0  2  0  0  0  0  0  0  0  0  0
  -26.7125    8.8682  -13.3236 C   0  0  0  0  0  0  0  0  0  0  0  0
  -26.9225   10.1129  -13.4714 O   0  0  0  0  0  0  0  0  0  0  0  0
  -27.5422    8.0881  -12.3941 N   0  0  0  0  0  0  0  0  0  0  0  0
  -24.5565    9.1555  -13.5836 C   0  0  2  0  0  0  0  0  0  0  0  0
  -24.8263    9.4522  -12.2214 O   0  0  0  0  0  0  0  0  0  0  0  0
  -24.5992   10.4373  -14.3994 C   0  0  0  0  0  0  0  0  0  0  0  0
  -27.7717    6.2122  -11.8886 C   0  0  0  0  0  0  0  0  0  0  0  0
  -26.6762    6.6852  -11.1188 O   0  0  0  0  0  0  0  0  0  0  0  0
  -27.6617    6.1026  -13.1500 O   0  0  0  0  0  0  0  0  0  0  0  0
  -23.9597   14.6083  -21.7828 N   0  0  0  0  0  0  0  0  0  0  0  0
  -23.1050   16.2406  -23.2826 O   0  0  0  0  0  0  0  0  0  0  0  0
  -24.0981   15.8117  -22.6156 C   0  0  0  0  0  0  0  0  0  0  0  0
  -22.6725   13.9010  -21.7215 C   0  0  1  0  0  0  0  0  0  0  0  0
  -25.9302   16.5599  -24.1139 C   0  0  0  0  0  0  0  0  0  0  0  0
  -25.4291   16.5432  -22.6789 C   0  0  2  0  0  0  0  0  0  0  0  0
    0.9826   -0.0605   -0.0777 Lu  0  1  0  0  0  0  0  0  0  0  0  0
  -29.2930    3.2759  -12.1250 H   0  0  0  0  0  0  0  0  0  0  0  0
  -28.9946    3.8056  -10.6569 H   0  0  0  0  0  0  0  0  0  0  0  0
  -31.3641    4.7415  -10.7713 H   0  0  0  0  0  0  0  0  0  0  0  0
  -31.2516    4.5146  -12.5002 H   0  0  0  0  0  0  0  0  0  0  0  0
  -31.1220    3.1407  -11.4285 H   0  0  0  0  0  0  0  0  0  0  0  0
  -28.9830    5.9932  -10.1495 H   0  0  0  0  0  0  0  0  0  0  0  0
  -31.0588    6.2443  -11.9622 H   0  0  0  0  0  0  0  0  0  0  0  0
  -28.6426    9.7872  -11.8876 H   0  0  0  0  0  0  0  0  0  0  0  0
  -24.8786   12.1619  -26.2027 H   0  0  0  0  0  0  0  0  0  0  0  0
  -23.5890   11.6352  -25.1480 H   0  0  0  0  0  0  0  0  0  0  0  0
  -24.9200   18.0988  -21.2572 H   0  0  0  0  0  0  0  0  0  0  0  0
  -25.5383   18.0691  -24.9889 H   0  0  0  0  0  0  0  0  0  0  0  0
  -24.7698   20.5158  -25.2532 H   0  0  0  0  0  0  0  0  0  0  0  0
  -27.0492   22.8573  -26.5109 H   0  0  0  0  0  0  0  0  0  0  0  0
  -25.4005   22.3124  -26.7053 H   0  0  0  0  0  0  0  0  0  0  0  0
  -26.3653   23.3776  -29.5873 H   0  0  0  0  0  0  0  0  0  0  0  0
  -25.7417   23.6425  -27.9303 H   0  0  0  0  0  0  0  0  0  0  0  0
  -23.8685   23.4753  -29.1669 H   0  0  0  0  0  0  0  0  0  0  0  0
  -24.0970   21.7947  -28.6343 H   0  0  0  0  0  0  0  0  0  0  0  0
  -23.0211   21.9492  -32.1454 H   0  0  0  0  0  0  0  0  0  0  0  0
  -22.6557   23.1924  -30.9733 H   0  0  0  0  0  0  0  0  0  0  0  0
  -24.1583   20.1200  -30.7089 H   0  0  0  0  0  0  0  0  0  0  0  0
  -25.7331   20.6284  -30.1017 H   0  0  0  0  0  0  0  0  0  0  0  0
  -25.0225   21.2821  -32.8792 H   0  0  0  0  0  0  0  0  0  0  0  0
  -25.4369   19.6052  -32.5041 H   0  0  0  0  0  0  0  0  0  0  0  0
  -28.3701   21.5845  -33.6984 H   0  0  0  0  0  0  0  0  0  0  0  0
  -26.7392   22.1382  -33.9930 H   0  0  0  0  0  0  0  0  0  0  0  0
  -27.9386   19.2253  -32.6665 H   0  0  0  0  0  0  0  0  0  0  0  0
  -27.2726   19.3699  -31.0111 H   0  0  0  0  0  0  0  0  0  0  0  0
  -29.5061   21.0484  -31.9070 H   0  0  0  0  0  0  0  0  0  0  0  0
  -29.8077   19.3636  -31.4268 H   0  0  0  0  0  0  0  0  0  0  0  0
  -28.4415   19.9766  -28.0990 H   0  0  0  0  0  0  0  0  0  0  0  0
  -28.7581   18.7132  -29.2638 H   0  0  0  0  0  0  0  0  0  0  0  0
  -27.8971   22.1641  -30.4471 H   0  0  0  0  0  0  0  0  0  0  0  0
  -29.4728   22.7036  -29.8706 H   0  0  0  0  0  0  0  0  0  0  0  0
  -28.6216   21.5304  -27.6797 H   0  0  0  0  0  0  0  0  0  0  0  0
  -28.2072   23.2073  -28.0548 H   0  0  0  0  0  0  0  0  0  0  0  0
  -27.7646   17.7847  -24.0049 H   0  0  0  0  0  0  0  0  0  0  0  0
  -28.0253   19.5101  -24.0962 H   0  0  0  0  0  0  0  0  0  0  0  0
  -27.3057   16.5782  -26.1331 H   0  0  0  0  0  0  0  0  0  0  0  0
  -28.3531   16.1824  -28.2927 H   0  0  0  0  0  0  0  0  0  0  0  0
  -29.3842   18.0507  -29.5203 H   0  0  0  0  0  0  0  0  0  0  0  0
  -29.9485   19.9857  -28.2263 H   0  0  0  0  0  0  0  0  0  0  0  0
  -28.5373   20.6098  -26.2430 H   0  0  0  0  0  0  0  0  0  0  0  0
  -22.0367   14.6291  -23.6048 H   0  0  0  0  0  0  0  0  0  0  0  0
  -21.5583   15.6168  -22.2452 H   0  0  0  0  0  0  0  0  0  0  0  0
  -20.7005   12.8999  -24.3437 H   0  0  0  0  0  0  0  0  0  0  0  0
  -18.3779   12.2699  -24.6987 H   0  0  0  0  0  0  0  0  0  0  0  0
  -16.1383   11.9457  -23.7163 H   0  0  0  0  0  0  0  0  0  0  0  0
  -17.2926   14.3096  -21.2817 H   0  0  0  0  0  0  0  0  0  0  0  0
  -19.6985   14.6028  -20.6183 H   0  0  0  0  0  0  0  0  0  0  0  0
  -22.6405   13.2366  -18.2713 H   0  0  0  0  0  0  0  0  0  0  0  0
  -24.4526   12.7359  -20.6177 H   0  0  0  0  0  0  0  0  0  0  0  0
  -26.3105   12.8550  -19.0391 H   0  0  0  0  0  0  0  0  0  0  0  0
  -25.1994   13.2006  -17.7356 H   0  0  0  0  0  0  0  0  0  0  0  0
  -24.9203   13.7384  -20.1505 H   0  0  0  0  0  0  0  0  0  0  0  0
  -21.8859   13.7291  -20.2554 H   0  0  0  0  0  0  0  0  0  0  0  0
  -20.8877   15.4303  -18.9982 H   0  0  0  0  0  0  0  0  0  0  0  0
  -21.0571   17.6159  -17.9437 H   0  0  0  0  0  0  0  0  0  0  0  0
  -23.2585   18.4906  -17.2734 H   0  0  0  0  0  0  0  0  0  0  0  0
  -25.1617   17.4969  -18.3351 H   0  0  0  0  0  0  0  0  0  0  0  0
  -25.8707   11.2181  -17.7990 H   0  0  0  0  0  0  0  0  0  0  0  0
  -26.0828    8.7262  -18.1338 H   0  0  0  0  0  0  0  0  0  0  0  0
  -24.2206    8.6036  -19.7221 H   0  0  0  0  0  0  0  0  0  0  0  0
  -23.0958    8.9468  -18.4299 H   0  0  0  0  0  0  0  0  0  0  0  0
  -23.2146    6.5386  -18.8681 H   0  0  0  0  0  0  0  0  0  0  0  0
  -23.8094    6.9106  -17.2679 H   0  0  0  0  0  0  0  0  0  0  0  0
  -25.3015    5.3380  -18.4108 H   0  0  0  0  0  0  0  0  0  0  0  0
  -26.1099    6.8577  -18.1107 H   0  0  0  0  0  0  0  0  0  0  0  0
  -26.5322    6.0798  -20.3959 H   0  0  0  0  0  0  0  0  0  0  0  0
  -25.6210    7.5707  -20.4038 H   0  0  0  0  0  0  0  0  0  0  0  0
  -24.6978    5.9746  -21.9095 H   0  0  0  0  0  0  0  0  0  0  0  0
  -23.6256    6.3018  -20.6776 H   0  0  0  0  0  0  0  0  0  0  0  0
  -26.7153    7.9594  -15.9553 H   0  0  0  0  0  0  0  0  0  0  0  0
  -25.5756    7.1466  -13.8559 H   0  0  0  0  0  0  0  0  0  0  0  0
  -27.3737    7.0891  -12.2755 H   0  0  0  0  0  0  0  0  0  0  0  0
  -23.5863    8.7119  -13.6666 H   0  0  0  0  0  0  0  0  0  0  0  0
  -25.5979   10.0873  -12.2561 H   0  0  0  0  0  0  0  0  0  0  0  0
  -23.8622   11.1197  -14.0303 H   0  0  0  0  0  0  0  0  0  0  0  0
  -24.3959   10.2137  -15.4258 H   0  0  0  0  0  0  0  0  0  0  0  0
  -25.5694   10.8808  -14.3163 H   0  0  0  0  0  0  0  0  0  0  0  0
  -26.7628    6.7715  -10.1263 H   0  0  0  0  0  0  0  0  0  0  0  0
  -24.7568   14.2641  -21.2474 H   0  0  0  0  0  0  0  0  0  0  0  0
  -22.8010   12.8962  -22.0662 H   0  0  0  0  0  0  0  0  0  0  0  0
  -26.8671   17.0748  -24.1585 H   0  0  0  0  0  0  0  0  0  0  0  0
  -25.2176   17.0617  -24.7347 H   0  0  0  0  0  0  0  0  0  0  0  0
  -26.1417   16.0414  -22.0582 H   0  0  0  0  0  0  0  0  0  0  0  0
  1102  1  0  0  0  0
  2103  1  1  0  0  0
  2  3  1  0  0  0  0
  2  1  1  0  0  0  0
  3104  1  0  0  0  0
  3105  1  0  0  0  0
  3106  1  0  0  0  0
  4 92  1  0  0  0  0
  4107  1  1  0  0  0
  4  5  1  0  0  0  0
  4  2  1  0  0  0  0
  5  6  1  0  0  0  0
  5108  1  0  0  0  0
  6  7  2  0  0  0  0
  8  6  1  0  0  0  0
  8  9  1  0  0  0  0
  8 88  1  0  0  0  0
  8109  1  1  0  0  0
  9 10  1  0  0  0  0
  9110  1  0  0  0  0
  9111  1  0  0  0  0
 10 11  1  0  0  0  0
 11 99  1  0  0  0  0
 12 13  1  0  0  0  0
 12112  1  0  0  0  0
 13 14  2  0  0  0  0
 15 44  1  0  0  0  0
 15113  1  6  0  0  0
 15 16  1  0  0  0  0
 15 13  1  0  0  0  0
 16 17  1  0  0  0  0
 16114  1  0  0  0  0
 17 18  1  0  0  0  0
 17 43  2  0  0  0  0
 18 19  1  0  0  0  0
 18115  1  0  0  0  0
 18116  1  0  0  0  0
 19 20  1  0  0  0  0
 19 42  1  0  0  0  0
 20 21  1  0  0  0  0
 20117  1  0  0  0  0
 20118  1  0  0  0  0
 21 22  1  0  0  0  0
 21119  1  0  0  0  0
 21120  1  0  0  0  0
 22 23  1  0  0  0  0
 22 27  1  0  0  0  0
 23 24  1  0  0  0  0
 23121  1  0  0  0  0
 23122  1  0  0  0  0
 24 25  2  0  0  0  0
 24 26  1  0  0  0  0
 27 28  1  0  0  0  0
 27123  1  0  0  0  0
 27124  1  0  0  0  0
 28 29  1  0  0  0  0
 28125  1  0  0  0  0
 28126  1  0  0  0  0
 29 30  1  0  0  0  0
 29 34  1  0  0  0  0
 30 31  1  0  0  0  0
 30127  1  0  0  0  0
 30128  1  0  0  0  0
 31 32  2  0  0  0  0
 31 33  1  0  0  0  0
 34 35  1  0  0  0  0
 34129  1  0  0  0  0
 34130  1  0  0  0  0
 35 36  1  0  0  0  0
 35131  1  0  0  0  0
 35132  1  0  0  0  0
 36 37  1  0  0  0  0
 36 41  1  0  0  0  0
 37 38  1  0  0  0  0
 37133  1  0  0  0  0
 37134  1  0  0  0  0
 38 39  2  0  0  0  0
 38 40  1  0  0  0  0
 41 42  1  0  0  0  0
 41135  1  0  0  0  0
 41136  1  0  0  0  0
 42137  1  0  0  0  0
 42138  1  0  0  0  0
 44 45  1  0  0  0  0
 44139  1  0  0  0  0
 44140  1  0  0  0  0
 45 46  2  0  0  0  0
 45 50  1  0  0  0  0
 46 47  1  0  0  0  0
 46141  1  0  0  0  0
 47 48  2  0  0  0  0
 47142  1  0  0  0  0
 48 49  1  0  0  0  0
 48143  1  0  0  0  0
 49 50  2  0  0  0  0
 49144  1  0  0  0  0
 50145  1  0  0  0  0
 51 52  1  0  0  0  0
 51146  1  0  0  0  0
 51147  1  0  0  0  0
 52 53  2  0  0  0  0
 52 58  1  0  0  0  0
 53 54  1  0  0  0  0
 53148  1  0  0  0  0
 54 55  2  0  0  0  0
 54149  1  0  0  0  0
 55 56  1  0  0  0  0
 55 57  1  0  0  0  0
 56150  1  0  0  0  0
 57 58  2  0  0  0  0
 57151  1  0  0  0  0
 58152  1  0  0  0  0
 59 60  2  0  0  0  0
 59 61  1  0  0  0  0
 59 98  1  0  0  0  0
 61 62  1  0  0  0  0
 61153  1  0  0  0  0
 62 73  1  0  0  0  0
 62154  1  6  0  0  0
 62 63  1  0  0  0  0
 63 64  1  0  0  0  0
 63155  1  0  0  0  0
 63156  1  0  0  0  0
 64 65  2  0  0  0  0
 64 72  1  0  0  0  0
 65 66  1  0  0  0  0
 65157  1  0  0  0  0
 66 67  1  0  0  0  0
 66158  1  0  0  0  0
 67 68  1  0  0  0  0
 67 72  2  0  0  0  0
 68159  1  0  0  0  0
 69 68  2  0  0  0  0
 69160  1  0  0  0  0
 70 69  1  0  0  0  0
 70161  1  0  0  0  0
 71 70  2  0  0  0  0
 71162  1  0  0  0  0
 72 71  1  0  0  0  0
 73 74  2  0  0  0  0
 73 75  1  0  0  0  0
 75 76  1  0  0  0  0
 75163  1  0  0  0  0
 76 77  1  0  0  0  0
 76 82  1  0  0  0  0
 76164  1  6  0  0  0
 77 78  1  0  0  0  0
 77165  1  0  0  0  0
 77166  1  0  0  0  0
 78 79  1  0  0  0  0
 78167  1  0  0  0  0
 78168  1  0  0  0  0
 79 80  1  0  0  0  0
 79169  1  0  0  0  0
 79170  1  0  0  0  0
 80 81  1  0  0  0  0
 80171  1  0  0  0  0
 80172  1  0  0  0  0
 81173  1  0  0  0  0
 81174  1  0  0  0  0
 82 83  2  0  0  0  0
 82 84  1  0  0  0  0
 84 85  1  0  0  0  0
 84175  1  0  0  0  0
 85 86  1  0  0  0  0
 85176  1  1  0  0  0
 86 87  2  0  0  0  0
 86 88  1  0  0  0  0
 88177  1  0  0  0  0
 89 91  1  0  0  0  0
 89178  1  6  0  0  0
 89 90  1  0  0  0  0
 89 85  1  0  0  0  0
 90179  1  0  0  0  0
 91180  1  0  0  0  0
 91181  1  0  0  0  0
 91182  1  0  0  0  0
 92 93  1  0  0  0  0
 92 94  2  0  0  0  0
 93183  1  0  0  0  0
 95 97  1  0  0  0  0
 95184  1  0  0  0  0
 97100  1  0  0  0  0
 97 96  2  0  0  0  0
 98 95  1  0  0  0  0
 98185  1  6  0  0  0
 98 51  1  0  0  0  0
 99186  1  0  0  0  0
 99187  1  0  0  0  0
100 12  1  0  0  0  0
100 99  1  0  0  0  0
100188  1  1  0  0  0
M  ISO  1 101 177
M  CHG  4  26  -1  33  -1  40  -1 101   3
M  END
>  <DRUGBANK_ID>
DB13985

>  <COMMON_NAME>
Lutetium Lu 177 dotatate

>  <CAS_NUMBER>
437608-50-9

>  <UNII>
AE221IM3BB

>  <SYNONYMS>
177Lu-DOTA-octreotate; 177Lu-DOTA-Tyr3-octreotate; 177Lu-dotatate; Dotatate lutenium Lu-177; Lu-DOTA-TATE; Lutetium dotatate Lu-177; lutetium Lu 177 dotatate; Lutetium oxodotreotide Lu-177

$$$$
