JTP
 OpenBabel10282417173D

 63 67  0  0  0  0  0  0  0  0999 V2000
    1.0059   -0.0487   -0.0285 C   0  0  0  0  0  0  0  0  0  0  0  0
    0.6225   -0.8030    1.2286 C   0  0  0  0  0  0  0  0  0  0  0  0
   -0.7873   -0.9313    1.2585 N   0  0  0  0  0  0  0  0  0  0  0  0
   -1.1967   -1.9872    0.4924 C   0  0  0  0  0  0  0  0  0  0  0  0
   -2.2002   -2.6698    1.1140 C   0  0  0  0  0  0  0  0  0  0  0  0
   -3.2009   -1.6967    0.9820 C   0  0  0  0  0  0  0  0  0  0  0  0
   -3.9367   -2.3269    1.8400 C   0  0  0  0  0  0  0  0  0  0  0  0
   -4.2339   -3.6284    1.4636 C   0  0  0  0  0  0  0  0  0  0  0  0
   -3.2956   -4.6261    1.3017 C   0  0  0  0  0  0  0  0  0  0  0  0
   -3.9827   -5.7780    1.0770 N   0  0  0  0  0  0  0  0  0  0  0  0
   -5.3111   -5.4168    1.0267 C   0  0  0  0  0  0  0  0  0  0  0  0
   -6.3899   -6.3119    0.9337 C   0  0  0  0  0  0  0  0  0  0  0  0
   -6.4373   -7.4915    1.6466 C   0  0  0  0  0  0  0  0  0  0  0  0
   -7.6074   -8.2100    1.5041 C   0  0  0  0  0  0  0  0  0  0  0  0
   -8.6671   -7.7422    0.6998 C   0  0  0  0  0  0  0  0  0  0  0  0
   -8.6094   -6.5270    0.0426 C   0  0  0  0  0  0  0  0  0  0  0  0
   -7.4492   -5.8280    0.1438 C   0  0  0  0  0  0  0  0  0  0  0  0
   -5.5155   -7.9990    2.5098 O   0  0  0  0  0  0  0  0  0  0  0  0
   -4.0978   -7.7991    2.3766 C   0  0  0  0  0  0  0  0  0  0  0  0
   -3.5394   -7.1646    1.1108 C   0  0  0  0  0  0  0  0  0  0  0  0
   -5.4617   -4.0641    1.1444 C   0  0  0  0  0  0  0  0  0  0  0  0
   -6.5493   -3.0499    1.2067 C   0  0  0  0  0  0  0  0  0  0  0  0
   -6.4911   -2.2689    2.5602 C   0  0  0  0  0  0  0  0  0  0  0  0
   -7.5412   -1.2100    2.6232 C   0  0  0  0  0  0  0  0  0  0  0  0
   -7.4990   -0.2944    1.4027 C   0  0  0  0  0  0  0  0  0  0  0  0
   -7.6021   -1.0722    0.0922 C   0  0  0  0  0  0  0  0  0  0  0  0
   -6.5135   -2.1158   -0.0385 C   0  0  0  0  0  0  0  0  0  0  0  0
   -2.0273   -4.1701    1.3645 C   0  0  0  0  0  0  0  0  0  0  0  0
   -1.1529   -2.2755   -0.6853 O   0  0  0  0  0  0  0  0  0  0  0  0
    1.2100   -2.2601    1.2319 C   0  0  0  0  0  0  0  0  0  0  0  0
    1.8171   -2.7870    0.3119 O   0  0  0  0  0  0  0  0  0  0  0  0
    0.7977   -3.0047    2.2959 O   0  0  0  0  0  0  0  0  0  0  0  0
    1.0199   -0.0835    2.4965 C   0  0  0  0  0  0  0  0  0  0  0  0
    0.5992    0.9701   -0.0267 H   0  0  0  0  0  0  0  0  0  0  0  0
    0.6151   -0.5419   -0.9280 H   0  0  0  0  0  0  0  0  0  0  0  0
    2.0896   -0.0129   -0.1015 H   0  0  0  0  0  0  0  0  0  0  0  0
   -1.3640   -0.0909    1.1595 H   0  0  0  0  0  0  0  0  0  0  0  0
   -4.0227   -0.9710    0.9165 H   0  0  0  0  0  0  0  0  0  0  0  0
   -3.5603   -1.8932    2.7627 H   0  0  0  0  0  0  0  0  0  0  0  0
   -7.6898   -9.1615    2.0110 H   0  0  0  0  0  0  0  0  0  0  0  0
   -9.5516   -8.3469    0.5749 H   0  0  0  0  0  0  0  0  0  0  0  0
   -9.4121   -6.1182   -0.5573 H   0  0  0  0  0  0  0  0  0  0  0  0
   -7.3675   -4.8742   -0.3756 H   0  0  0  0  0  0  0  0  0  0  0  0
   -3.7411   -7.2259    3.2435 H   0  0  0  0  0  0  0  0  0  0  0  0
   -3.6657   -8.8031    2.4649 H   0  0  0  0  0  0  0  0  0  0  0  0
   -2.4417   -7.2027    1.1324 H   0  0  0  0  0  0  0  0  0  0  0  0
   -3.8800   -7.6835    0.2053 H   0  0  0  0  0  0  0  0  0  0  0  0
   -7.5080   -3.5566    1.2268 H   0  0  0  0  0  0  0  0  0  0  0  0
   -6.5114   -2.9790    3.3955 H   0  0  0  0  0  0  0  0  0  0  0  0
   -5.6022   -1.6826    2.7843 H   0  0  0  0  0  0  0  0  0  0  0  0
   -7.3762   -0.6206    3.5315 H   0  0  0  0  0  0  0  0  0  0  0  0
   -8.4964   -1.7231    2.6921 H   0  0  0  0  0  0  0  0  0  0  0  0
   -6.5802    0.3106    1.4042 H   0  0  0  0  0  0  0  0  0  0  0  0
   -8.3396    0.3994    1.4736 H   0  0  0  0  0  0  0  0  0  0  0  0
   -7.5505   -0.3793   -0.7532 H   0  0  0  0  0  0  0  0  0  0  0  0
   -8.5635   -1.5909    0.0515 H   0  0  0  0  0  0  0  0  0  0  0  0
   -5.5728   -1.5822   -0.2126 H   0  0  0  0  0  0  0  0  0  0  0  0
   -6.6281   -2.6974   -0.9631 H   0  0  0  0  0  0  0  0  0  0  0  0
   -1.1721   -4.8298    1.2212 H   0  0  0  0  0  0  0  0  0  0  0  0
    0.9989   -3.9425    2.0911 H   0  0  0  0  0  0  0  0  0  0  0  0
    0.6140    0.9345    2.5220 H   0  0  0  0  0  0  0  0  0  0  0  0
    0.6249   -0.6053    3.3797 H   0  0  0  0  0  0  0  0  0  0  0  0
    2.1056   -0.0585    2.5595 H   0  0  0  0  0  0  0  0  0  0  0  0
  1  2  1  0  0  0  0
  1 34  1  0  0  0  0
  1 35  1  0  0  0  0
  1 36  1  0  0  0  0
  2 33  1  0  0  0  0
  2  3  1  0  0  0  0
  2 30  1  0  0  0  0
  3  4  1  0  0  0  0
  3 37  1  0  0  0  0
  4 29  2  0  0  0  0
  4  5  1  0  0  0  0
  5  6  2  0  0  0  0
  5 28  1  0  0  0  0
  6  7  1  0  0  0  0
  6 38  1  0  0  0  0
  7  8  2  0  0  0  0
  7 39  1  0  0  0  0
  8  9  1  0  0  0  0
  8 21  1  0  0  0  0
  9 28  2  0  0  0  0
  9 10  1  0  0  0  0
 10 20  1  0  0  0  0
 10 11  1  0  0  0  0
 11 12  1  0  0  0  0
 11 21  2  0  0  0  0
 12 17  1  0  0  0  0
 12 13  2  0  0  0  0
 13 18  1  0  0  0  0
 13 14  1  0  0  0  0
 14 15  2  0  0  0  0
 14 40  1  0  0  0  0
 15 16  1  0  0  0  0
 15 41  1  0  0  0  0
 16 17  2  0  0  0  0
 16 42  1  0  0  0  0
 17 43  1  0  0  0  0
 18 19  1  0  0  0  0
 19 20  1  0  0  0  0
 19 44  1  0  0  0  0
 19 45  1  0  0  0  0
 20 46  1  0  0  0  0
 20 47  1  0  0  0  0
 21 22  1  0  0  0  0
 22 27  1  0  0  0  0
 22 23  1  0  0  0  0
 22 48  1  0  0  0  0
 23 24  1  0  0  0  0
 23 49  1  0  0  0  0
 23 50  1  0  0  0  0
 24 25  1  0  0  0  0
 24 51  1  0  0  0  0
 24 52  1  0  0  0  0
 25 26  1  0  0  0  0
 25 53  1  0  0  0  0
 25 54  1  0  0  0  0
 26 27  1  0  0  0  0
 26 55  1  0  0  0  0
 26 56  1  0  0  0  0
 27 57  1  0  0  0  0
 27 58  1  0  0  0  0
 28 59  1  0  0  0  0
 30 31  2  0  0  0  0
 30 32  1  0  0  0  0
 32 60  1  0  0  0  0
 33 61  1  0  0  0  0
 33 62  1  0  0  0  0
 33 63  1  0  0  0  0
M  END
>  <DRUGBANK_ID>
DB08031

>  <COMMON_NAME>
N-[(13-CYCLOHEXYL-6,7-DIHYDROINDOLO[1,2-D][1,4]BENZOXAZEPIN-10-YL)CARBONYL]-2-METHYL-L-ALANINE

$$$$
