238
 OpenBabel10282417103D

 34 37  0  0  0  0  0  0  0  0999 V2000
   -1.2304    2.7563    0.6427 O   0  0  0  0  0  0  0  0  0  0  0  0
   -0.1896   -1.0709    1.1718 N   0  0  0  0  0  0  0  0  0  0  0  0
    0.6481    1.5297    0.5162 N   0  0  0  0  0  0  0  0  0  0  0  0
    1.8438   -1.9698    0.2847 N   0  0  0  0  0  0  0  0  0  0  0  0
   -2.2628   -1.7529    0.2109 N   0  0  0  0  0  0  0  0  0  0  0  0
   -0.2570   -1.6792    2.5099 C   0  0  0  0  0  0  0  0  0  0  0  0
    0.2682   -0.9265    3.7193 C   0  0  0  0  0  0  0  0  0  0  0  0
    0.9524   -2.1776    3.2605 C   0  0  0  0  0  0  0  0  0  0  0  0
    1.0509   -0.8918    0.5168 C   0  0  0  0  0  0  0  0  0  0  0  0
   -1.3759   -0.7560    0.4776 C   0  0  0  0  0  0  0  0  0  0  0  0
    1.4408    0.4150    0.1773 C   0  0  0  0  0  0  0  0  0  0  0  0
   -1.5752    0.5382   -0.0006 C   0  0  0  0  0  0  0  0  0  0  0  0
    2.6851    0.6108   -0.4353 C   0  0  0  0  0  0  0  0  0  0  0  0
   -0.7158    1.6546    0.4302 C   0  0  0  0  0  0  0  0  0  0  0  0
   -2.6885    0.8092   -0.8042 C   0  0  0  0  0  0  0  0  0  0  0  0
    3.4815   -0.5110   -0.6971 C   0  0  0  0  0  0  0  0  0  0  0  0
    3.0299   -1.7609   -0.3133 C   0  0  0  0  0  0  0  0  0  0  0  0
   -3.3193   -1.4700   -0.5826 C   0  0  0  0  0  0  0  0  0  0  0  0
    3.1709    1.9591   -0.8824 C   0  0  0  0  0  0  0  0  0  0  0  0
   -3.5671   -0.2193   -1.1186 C   0  0  0  0  0  0  0  0  0  0  0  0
    1.1099    2.4061    0.7175 H   0  0  0  0  0  0  0  0  0  0  0  0
   -1.1948   -2.2059    2.6721 H   0  0  0  0  0  0  0  0  0  0  0  0
    0.7855    0.0159    3.5750 H   0  0  0  0  0  0  0  0  0  0  0  0
   -0.2947   -0.9742    4.6442 H   0  0  0  0  0  0  0  0  0  0  0  0
    0.8429   -3.0816    3.8444 H   0  0  0  0  0  0  0  0  0  0  0  0
    1.9277   -2.0888    2.7979 H   0  0  0  0  0  0  0  0  0  0  0  0
   -2.8687    1.8163   -1.1729 H   0  0  0  0  0  0  0  0  0  0  0  0
    4.4404   -0.4182   -1.1970 H   0  0  0  0  0  0  0  0  0  0  0  0
    3.6273   -2.6538   -0.4766 H   0  0  0  0  0  0  0  0  0  0  0  0
   -3.9835   -2.3068   -0.7798 H   0  0  0  0  0  0  0  0  0  0  0  0
    4.0952    2.2120   -0.3566 H   0  0  0  0  0  0  0  0  0  0  0  0
    3.3459    1.9554   -1.9627 H   0  0  0  0  0  0  0  0  0  0  0  0
    2.4530    2.7599   -0.6898 H   0  0  0  0  0  0  0  0  0  0  0  0
   -4.4353   -0.0453   -1.7444 H   0  0  0  0  0  0  0  0  0  0  0  0
  1 14  2  0  0  0  0
  2  6  1  0  0  0  0
  2  9  1  0  0  0  0
  2 10  1  0  0  0  0
  3 11  1  0  0  0  0
  3 14  1  0  0  0  0
  3 21  1  0  0  0  0
  4  9  2  0  0  0  0
  4 17  1  0  0  0  0
  5 10  1  0  0  0  0
  5 18  2  0  0  0  0
  6  7  1  0  0  0  0
  6  8  1  0  0  0  0
  6 22  1  0  0  0  0
  7  8  1  0  0  0  0
  7 23  1  0  0  0  0
  7 24  1  0  0  0  0
  8 25  1  0  0  0  0
  8 26  1  0  0  0  0
  9 11  1  0  0  0  0
 10 12  2  0  0  0  0
 11 13  2  0  0  0  0
 12 14  1  0  0  0  0
 12 15  1  0  0  0  0
 13 16  1  0  0  0  0
 13 19  1  0  0  0  0
 15 20  2  0  0  0  0
 15 27  1  0  0  0  0
 16 17  2  0  0  0  0
 16 28  1  0  0  0  0
 17 29  1  0  0  0  0
 18 20  1  0  0  0  0
 18 30  1  0  0  0  0
 19 31  1  0  0  0  0
 19 32  1  0  0  0  0
 19 33  1  0  0  0  0
 20 34  1  0  0  0  0
M  END
>  <DRUGBANK_ID>
DB00238

>  <SECONDARY_ACCESSION_NUMBERS>
APRD00705; DB08311

>  <COMMON_NAME>
Nevirapine

>  <CAS_NUMBER>
129618-40-2

>  <UNII>
99DK7FVK1H

>  <SYNONYMS>
11-cyclopropyl-5,11-dihydro-4-methyl-6H-dipyrido(3,2-b:2',3'-e)(1,4)diazepin-6-one; NEV; Nevirapina; Nevirapine; Nevirapine anhydrous; Nevirapine, anhydrous; NVP

$$$$
