
 OpenBabel10282417223D

 53 56  0  0  0  0  0  0  0  0999 V2000
    2.1725   -9.7117    2.1372 C   0  0  0  0  0  0  0  0  0  0  0  0
    2.6125  -10.2403    3.3351 C   0  0  0  0  0  0  0  0  0  0  0  0
    3.9012  -10.5544    3.5855 N   0  0  0  0  0  0  0  0  0  0  0  0
    4.7862  -10.4500    2.5763 C   0  0  0  0  0  0  0  0  0  0  0  0
    4.4182   -9.9808    1.2977 C   0  0  0  0  0  0  0  0  0  0  0  0
    3.1001   -9.4824    1.1048 C   0  0  0  0  0  0  0  0  0  0  0  0
    6.1134  -10.8562    2.7691 C   0  0  0  0  0  0  0  0  0  0  0  0
    7.0643  -10.8644    1.7389 C   0  0  0  0  0  0  0  0  0  0  0  0
    6.7214  -10.3388    0.5298 C   0  0  0  0  0  0  0  0  0  0  0  0
    5.4108  -10.0161    0.2990 C   0  0  0  0  0  0  0  0  0  0  0  0
    7.6206  -10.1089   -0.4347 F   0  0  0  0  0  0  0  0  0  0  0  0
    2.6339   -8.5855   -0.0640 C   0  0  1  0  0  0  0  0  0  0  0  0
    2.1255   -7.2410    0.5134 C   0  0  0  0  0  0  0  0  0  0  0  0
    3.2758   -6.4362    1.1486 C   0  0  0  0  0  0  0  0  0  0  0  0
    4.3689   -6.0699    0.1143 C   0  0  2  0  0  0  0  0  0  0  0  0
    4.7636   -7.3183   -0.6530 C   0  0  0  0  0  0  0  0  0  0  0  0
    3.6062   -8.1665   -1.1850 C   0  0  0  0  0  0  0  0  0  0  0  0
    5.6348   -5.4387    0.8139 C   0  0  2  0  0  0  0  0  0  0  0  0
    3.9338   -5.3693   -0.6084 H   0  0  0  0  0  0  0  0  0  0  0  0
    1.8144   -9.1301   -0.5526 H   0  0  0  0  0  0  0  0  0  0  0  0
    5.4584   -3.9134    0.8059 C   0  0  0  0  0  0  0  0  0  0  0  0
    6.5994   -3.1741    0.5106 N   0  0  0  0  0  0  0  0  0  0  0  0
    4.3663   -3.4245    1.0449 O   0  0  0  0  0  0  0  0  0  0  0  0
    6.5852   -1.7738    0.4108 C   0  0  0  0  0  0  0  0  0  0  0  0
    5.8262   -0.9943    1.2827 C   0  0  0  0  0  0  0  0  0  0  0  0
    5.7311    0.3810    1.0908 C   0  0  0  0  0  0  0  0  0  0  0  0
    6.4642    0.9850    0.0740 C   0  0  0  0  0  0  0  0  0  0  0  0
    7.3110    0.2266   -0.7341 C   0  0  0  0  0  0  0  0  0  0  0  0
    7.3506   -1.1621   -0.5863 C   0  0  0  0  0  0  0  0  0  0  0  0
    6.3055    2.6751   -0.1985 Cl  0  0  0  0  0  0  0  0  0  0  0  0
    6.9786   -5.9117    0.2210 C   0  0  0  0  0  0  0  0  0  0  0  0
    1.1268   -9.4297    2.0397 H   0  0  0  0  0  0  0  0  0  0  0  0
    1.9159  -10.4120    4.1528 H   0  0  0  0  0  0  0  0  0  0  0  0
    6.4223  -11.1869    3.7559 H   0  0  0  0  0  0  0  0  0  0  0  0
    8.0440  -11.3080    1.8456 H   0  0  0  0  0  0  0  0  0  0  0  0
    5.2467   -9.7299   -0.7184 H   0  0  0  0  0  0  0  0  0  0  0  0
    1.6706   -6.6506   -0.2915 H   0  0  0  0  0  0  0  0  0  0  0  0
    1.3352   -7.3955    1.2532 H   0  0  0  0  0  0  0  0  0  0  0  0
    2.8687   -5.5359    1.6162 H   0  0  0  0  0  0  0  0  0  0  0  0
    3.7221   -7.0227    1.9640 H   0  0  0  0  0  0  0  0  0  0  0  0
    5.4666   -7.1206   -1.4670 H   0  0  0  0  0  0  0  0  0  0  0  0
    5.3243   -7.8459    0.1059 H   0  0  0  0  0  0  0  0  0  0  0  0
    3.9392   -9.0412   -1.7534 H   0  0  0  0  0  0  0  0  0  0  0  0
    3.0878   -7.5751   -1.9481 H   0  0  0  0  0  0  0  0  0  0  0  0
    5.6448   -5.7306    1.8738 H   0  0  0  0  0  0  0  0  0  0  0  0
    7.3733   -3.6342    0.0580 H   0  0  0  0  0  0  0  0  0  0  0  0
    5.3060   -1.4525    2.1206 H   0  0  0  0  0  0  0  0  0  0  0  0
    5.0805    0.9641    1.7350 H   0  0  0  0  0  0  0  0  0  0  0  0
    7.9213    0.7081   -1.4929 H   0  0  0  0  0  0  0  0  0  0  0  0
    7.9281   -1.7515   -1.2939 H   0  0  0  0  0  0  0  0  0  0  0  0
    7.8361   -5.4615    0.7284 H   0  0  0  0  0  0  0  0  0  0  0  0
    7.1321   -6.9900    0.3316 H   0  0  0  0  0  0  0  0  0  0  0  0
    7.0370   -5.6630   -0.8448 H   0  0  0  0  0  0  0  0  0  0  0  0
  1  2  2  0  0  0  0
  1  6  1  0  0  0  0
  1 32  1  0  0  0  0
  2  3  1  0  0  0  0
  2 33  1  0  0  0  0
  3  4  2  0  0  0  0
  4  5  1  0  0  0  0
  4  7  1  0  0  0  0
  5  6  2  0  0  0  0
  5 10  1  0  0  0  0
  7  8  2  0  0  0  0
  7 34  1  0  0  0  0
  8  9  1  0  0  0  0
  8 35  1  0  0  0  0
  9 10  2  0  0  0  0
  9 11  1  0  0  0  0
 10 36  1  0  0  0  0
 12 13  1  0  0  0  0
 12 17  1  0  0  0  0
 12 20  1  6  0  0  0
 12  6  1  0  0  0  0
 13 14  1  0  0  0  0
 13 37  1  0  0  0  0
 13 38  1  0  0  0  0
 14 15  1  0  0  0  0
 14 39  1  0  0  0  0
 14 40  1  0  0  0  0
 15 16  1  0  0  0  0
 15 18  1  0  0  0  0
 15 19  1  6  0  0  0
 16 17  1  0  0  0  0
 16 41  1  0  0  0  0
 16 42  1  0  0  0  0
 17 43  1  0  0  0  0
 17 44  1  0  0  0  0
 18 31  1  0  0  0  0
 18 45  1  1  0  0  0
 18 21  1  0  0  0  0
 21 22  1  0  0  0  0
 21 23  2  0  0  0  0
 22 24  1  0  0  0  0
 22 46  1  0  0  0  0
 24 25  2  0  0  0  0
 24 29  1  0  0  0  0
 25 26  1  0  0  0  0
 25 47  1  0  0  0  0
 26 27  2  0  0  0  0
 26 48  1  0  0  0  0
 27 28  1  0  0  0  0
 27 30  1  0  0  0  0
 28 29  2  0  0  0  0
 28 49  1  0  0  0  0
 29 50  1  0  0  0  0
 31 51  1  0  0  0  0
 31 52  1  0  0  0  0
 31 53  1  0  0  0  0
M  END
>  <DRUGBANK_ID>
DB14986

>  <COMMON_NAME>
Linrodostat

>  <CAS_NUMBER>
1923833-60-6

>  <UNII>
0A7729F42K

>  <SYNONYMS>
Linrodostat

$$$$
