
 OpenBabel10282417153D

256265  0  0  0  0  0  0  0  0999 V2000
   -5.9386    4.3682   -5.5091 O   0  0  0  0  0  0  0  0  0  0  0  0
   -5.8394    7.5538   -2.4254 O   0  0  0  0  0  0  0  0  0  0  0  0
   -3.2245   10.2730   -1.1035 O   0  0  0  0  0  0  0  0  0  0  0  0
   -4.2519    2.7973   -6.1291 O   0  0  0  0  0  0  0  0  0  0  0  0
   -9.7233    4.8684   -4.2179 O   0  0  0  0  0  0  0  0  0  0  0  0
   -8.2855    7.3924    0.2344 O   0  0  0  0  0  0  0  0  0  0  0  0
   -8.0438    2.9226   -9.3242 O   0  0  0  0  0  0  0  0  0  0  0  0
   -4.6454    5.9403   -3.9351 O   0  0  0  0  0  0  0  0  0  0  0  0
   -7.1955   -2.3577  -10.3885 O   0  0  0  0  0  0  0  0  0  0  0  0
   -3.5760    5.8140    1.8183 O   0  0  0  0  0  0  0  0  0  0  0  0
  -10.3878   -2.6635   -5.9181 O   0  0  0  0  0  0  0  0  0  0  0  0
  -12.3060   -4.5130  -11.0139 O   0  0  0  0  0  0  0  0  0  0  0  0
   -5.4550   10.2686   -2.3449 N   0  0  0  0  0  0  0  0  0  0  0  0
   -4.8317    5.4370   -7.2048 N   0  0  0  0  0  0  0  0  0  0  0  0
   -7.8437    6.8850   -2.6396 N   0  0  0  0  0  0  0  0  0  0  0  0
   -8.1131    5.8217   -5.5815 N   0  0  0  0  0  0  0  0  0  0  0  0
   -5.2182    2.2032   -7.8548 N   0  0  0  0  0  0  0  0  0  0  0  0
   -6.1344    8.2507    0.1041 N   0  0  0  0  0  0  0  0  0  0  0  0
   -2.9796    9.1285   -3.6294 N   0  0  0  0  0  0  0  0  0  0  0  0
   -0.5230    6.8570   -2.0662 N   0  0  0  0  0  0  0  0  0  0  0  0
   -7.7779    0.8679   -8.5317 N   0  0  0  0  0  0  0  0  0  0  0  0
  -11.5616   10.2160   -4.7286 N   0  0  0  0  0  0  0  0  0  0  0  0
   -6.1072    5.6068   -2.2090 N   0  0  0  0  0  0  0  0  0  0  0  0
   -5.2462   -2.2200   -9.4998 N   0  0  0  0  0  0  0  0  0  0  0  0
   -2.8142    5.2764   -0.1579 N   0  0  0  0  0  0  0  0  0  0  0  0
   -8.7897   -2.0879   -9.4409 N   0  0  0  0  0  0  0  0  0  0  0  0
   -7.4865    2.3282   -0.0131 N   0  0  0  0  0  0  0  0  0  0  0  0
   -7.2641   -3.7340   -6.4705 N   0  0  0  0  0  0  0  0  0  0  0  0
   -5.4958    3.2367    0.7205 N   0  0  0  0  0  0  0  0  0  0  0  0
  -10.2132   -4.3229   -7.7531 N   0  0  0  0  0  0  0  0  0  0  0  0
   -6.8858   -0.0165   -0.3180 N   0  0  0  0  0  0  0  0  0  0  0  0
  -13.0595   -2.7341   -8.0892 N   0  0  0  0  0  0  0  0  0  0  0  0
   -7.4448    0.9025    1.7576 N   0  0  0  0  0  0  0  0  0  0  0  0
   -6.9890   -5.9560   -6.4214 N   0  0  0  0  0  0  0  0  0  0  0  0
   -9.0681   -5.2050   -5.9784 N   0  0  0  0  0  0  0  0  0  0  0  0
  -12.5820   -5.8502   -9.1115 N   0  0  0  0  0  0  0  0  0  0  0  0
  -10.4476   -8.6494  -11.2883 N   0  0  0  0  0  0  0  0  0  0  0  0
  -14.8200   -3.5298   -6.9716 N   0  0  0  0  0  0  0  0  0  0  0  0
  -14.3846   -4.5771   -8.8950 N   0  0  0  0  0  0  0  0  0  0  0  0
   -6.6471    9.3711   -3.0003 C   0  0  1  0  0  0  0  0  0  0  0  0
   -4.2964    4.3904   -7.9248 C   0  0  1  0  0  0  0  0  0  0  0  0
   -6.5540    9.5201   -4.7077 C   0  0  0  0  0  0  0  0  0  0  0  0
   -2.8513    4.7249   -8.2722 C   0  0  0  0  0  0  0  0  0  0  0  0
   -5.7273   10.6932   -4.8911 C   0  0  0  0  0  0  0  0  0  0  0  0
   -4.9644   11.0424   -3.5568 C   0  0  0  0  0  0  0  0  0  0  0  0
   -2.9118    6.1462   -8.6199 C   0  0  0  0  0  0  0  0  0  0  0  0
   -4.0244    6.4639   -7.6649 C   0  0  0  0  0  0  0  0  0  0  0  0
   -6.7896    6.4650   -6.0107 C   0  0  2  0  0  0  0  0  0  0  0  0
   -5.8067    5.3494   -6.2507 C   0  0  0  0  0  0  0  0  0  0  0  0
   -6.9331    7.9689   -2.5609 C   0  0  0  0  0  0  0  0  0  0  0  0
   -4.4136    9.8766   -1.1218 C   0  0  0  0  0  0  0  0  0  0  0  0
   -4.5322    3.1264   -7.2525 C   0  0  0  0  0  0  0  0  0  0  0  0
   -4.6317    8.5007   -0.2985 C   0  0  2  0  0  0  0  0  0  0  0  0
   -8.9921    6.9344   -3.3366 C   0  0  2  0  0  0  0  0  0  0  0  0
   -6.2177    7.0205   -4.8201 C   0  0  0  0  0  0  0  0  0  0  0  0
   -4.0195    7.4256   -1.1218 C   0  0  0  0  0  0  0  0  0  0  0  0
   -8.8774    5.7644   -4.3790 C   0  0  0  0  0  0  0  0  0  0  0  0
   -8.9824    8.3347   -3.6519 C   0  0  0  0  0  0  0  0  0  0  0  0
   -5.7426    2.2388   -9.1576 C   0  0  1  0  0  0  0  0  0  0  0  0
   -4.7503    7.8937   -4.5518 C   0  0  0  0  0  0  0  0  0  0  0  0
   -2.6948    7.1859   -2.0381 C   0  0  0  0  0  0  0  0  0  0  0  0
  -10.0572    8.8784   -4.2587 C   0  0  0  0  0  0  0  0  0  0  0  0
   -4.8944    1.3763  -10.0683 C   0  0  0  0  0  0  0  0  0  0  0  0
   -3.9096    8.4080   -5.4480 C   0  0  0  0  0  0  0  0  0  0  0  0
   -7.1257    7.2778   -0.1696 C   0  0  0  0  0  0  0  0  0  0  0  0
   -6.8012    5.9287   -0.8369 C   0  0  2  0  0  0  0  0  0  0  0  0
   -7.2559    2.0246   -9.0211 C   0  0  0  0  0  0  0  0  0  0  0  0
   -2.2080    6.3491   -3.3871 C   0  0  0  0  0  0  0  0  0  0  0  0
   -4.1668    8.5437   -3.5201 C   0  0  0  0  0  0  0  0  0  0  0  0
  -10.8363    8.1684   -5.1056 C   0  0  0  0  0  0  0  0  0  0  0  0
   -2.7540    8.8908   -4.8973 C   0  0  0  0  0  0  0  0  0  0  0  0
   -4.6618   -0.0492   -9.6573 C   0  0  0  0  0  0  0  0  0  0  0  0
   -1.5329    7.5005   -1.4284 C   0  0  0  0  0  0  0  0  0  0  0  0
  -10.3777   10.1766   -4.0929 C   0  0  0  0  0  0  0  0  0  0  0  0
   -5.9896    5.5586    0.2438 C   0  0  0  0  0  0  0  0  0  0  0  0
   -0.8696    6.1406   -3.1889 C   0  0  0  0  0  0  0  0  0  0  0  0
  -11.8903    8.9900   -5.2733 C   0  0  0  0  0  0  0  0  0  0  0  0
   -4.2179    8.5849   -6.7369 C   0  0  0  0  0  0  0  0  0  0  0  0
   -7.0815   -0.3411   -8.2436 C   0  0  1  0  0  0  0  0  0  0  0  0
   -4.1489   -0.6876   -8.4561 C   0  0  0  0  0  0  0  0  0  0  0  0
   -6.5751    4.9807    1.4568 C   0  0  0  0  0  0  0  0  0  0  0  0
   -2.6553    5.4670   -4.4967 C   0  0  0  0  0  0  0  0  0  0  0  0
   -5.3330   -1.0312  -10.2956 C   0  0  0  0  0  0  0  0  0  0  0  0
   -1.6512    9.0933   -5.6053 C   0  0  0  0  0  0  0  0  0  0  0  0
  -10.8402    6.9171   -5.6892 C   0  0  0  0  0  0  0  0  0  0  0  0
   -4.6035   -1.9993   -8.3266 C   0  0  0  0  0  0  0  0  0  0  0  0
   -6.9665   -0.6193   -6.6621 C   0  0  0  0  0  0  0  0  0  0  0  0
   -3.2880    4.8517   -1.5027 C   0  0  2  0  0  0  0  0  0  0  0  0
   -0.1710    5.2708   -4.0751 C   0  0  0  0  0  0  0  0  0  0  0  0
   -4.5828    5.8852   -2.7162 C   0  0  0  0  0  0  0  0  0  0  0  0
   -3.0858    8.7621   -7.4973 C   0  0  0  0  0  0  0  0  0  0  0  0
  -12.9754    8.4542   -5.9409 C   0  0  0  0  0  0  0  0  0  0  0  0
   -1.8174    8.7967   -6.9204 C   0  0  0  0  0  0  0  0  0  0  0  0
   -4.6044    3.0291   -1.3201 C   0  0  0  0  0  0  0  0  0  0  0  0
   -2.0388    4.6048   -5.3017 C   0  0  0  0  0  0  0  0  0  0  0  0
   -7.7233    3.6989    1.0598 C   0  0  0  0  0  0  0  0  0  0  0  0
   -7.6389   -1.4920   -9.5890 C   0  0  0  0  0  0  0  0  0  0  0  0
   -3.5432   -0.1610   -7.3377 C   0  0  0  0  0  0  0  0  0  0  0  0
  -11.9212    6.2646   -6.1422 C   0  0  0  0  0  0  0  0  0  0  0  0
   -0.7551    4.5166   -5.1025 C   0  0  0  0  0  0  0  0  0  0  0  0
   -8.1748   -1.3054   -6.1847 C   0  0  0  0  0  0  0  0  0  0  0  0
  -12.9862    7.0806   -6.3144 C   0  0  0  0  0  0  0  0  0  0  0  0
   -4.5910    2.3086   -3.2242 C   0  0  0  0  0  0  0  0  0  0  0  0
   -4.4620   -2.8274   -7.1991 C   0  0  0  0  0  0  0  0  0  0  0  0
   -9.7543   -1.7193   -8.4432 C   0  0  1  0  0  0  0  0  0  0  0  0
   -3.3954   -0.9360   -6.1943 C   0  0  0  0  0  0  0  0  0  0  0  0
   -7.9712   -2.6211   -6.9112 C   0  0  0  0  0  0  0  0  0  0  0  0
   -3.8440   -2.2491   -6.1115 C   0  0  0  0  0  0  0  0  0  0  0  0
   -4.0770    3.4083    1.0512 C   0  0  2  0  0  0  0  0  0  0  0  0
   -3.4251    4.9007    0.9969 C   0  0  0  0  0  0  0  0  0  0  0  0
   -3.1881    2.2864   -3.9077 C   0  0  0  0  0  0  0  0  0  0  0  0
   -5.3866    1.1832   -3.0024 C   0  0  0  0  0  0  0  0  0  0  0  0
   -3.2944    2.3443    0.1350 C   0  0  2  0  0  0  0  0  0  0  0  0
  -10.8053   -1.1010   -9.2701 C   0  0  0  0  0  0  0  0  0  0  0  0
  -10.2751   -2.9069   -7.1199 C   0  0  0  0  0  0  0  0  0  0  0  0
  -11.3724   -2.2231  -10.0736 C   0  0  0  0  0  0  0  0  0  0  0  0
   -2.8077    2.8628   -1.6605 C   0  0  0  0  0  0  0  0  0  0  0  0
   -4.3388    1.1580   -0.0035 C   0  0  0  0  0  0  0  0  0  0  0  0
   -7.3151    1.0262    0.4847 C   0  0  0  0  0  0  0  0  0  0  0  0
  -10.1950   -4.7776   -9.2924 C   0  0  1  0  0  0  0  0  0  0  0  0
  -12.0864   -3.0453   -9.0443 C   0  0  0  0  0  0  0  0  0  0  0  0
   -4.3411    4.0474   -2.7315 C   0  0  0  0  0  0  0  0  0  0  0  0
   -9.1738   -5.8085   -9.6354 C   0  0  0  0  0  0  0  0  0  0  0  0
   -7.8569   -4.9526   -6.3154 C   0  0  0  0  0  0  0  0  0  0  0  0
   -9.5701   -7.0831   -8.9061 C   0  0  0  0  0  0  0  0  0  0  0  0
  -11.7922   -5.0957  -10.0582 C   0  0  0  0  0  0  0  0  0  0  0  0
  -10.8721   -7.6628   -9.4007 C   0  0  0  0  0  0  0  0  0  0  0  0
  -11.2871   -7.5949  -10.8549 C   0  0  0  0  0  0  0  0  0  0  0  0
  -14.0446   -3.6964   -8.0229 C   0  0  0  0  0  0  0  0  0  0  0  0
   -7.7241    5.8031   -2.5788 H   0  0  0  0  0  0  0  0  0  0  0  0
   -8.4333    5.2229   -6.3328 H   0  0  0  0  0  0  0  0  0  0  0  0
   -5.2722    1.4226   -7.2191 H   0  0  0  0  0  0  0  0  0  0  0  0
   -6.4668    9.0046    0.6639 H   0  0  0  0  0  0  0  0  0  0  0  0
   -2.5312    9.6551   -2.8740 H   0  0  0  0  0  0  0  0  0  0  0  0
    0.4136    6.9240   -1.7464 H   0  0  0  0  0  0  0  0  0  0  0  0
   -8.7721    0.8039   -8.5509 H   0  0  0  0  0  0  0  0  0  0  0  0
  -12.1391   11.0248   -4.7422 H   0  0  0  0  0  0  0  0  0  0  0  0
   -6.4481    6.2220   -2.8765 H   0  0  0  0  0  0  0  0  0  0  0  0
   -5.9519   -2.9670   -9.5278 H   0  0  0  0  0  0  0  0  0  0  0  0
   -2.7110    6.2876   -0.0650 H   0  0  0  0  0  0  0  0  0  0  0  0
   -8.4623   -3.0279   -9.7245 H   0  0  0  0  0  0  0  0  0  0  0  0
   -7.2058    2.4996   -0.9822 H   0  0  0  0  0  0  0  0  0  0  0  0
   -6.4581   -3.6536   -7.0498 H   0  0  0  0  0  0  0  0  0  0  0  0
   -5.9280    2.3851    0.4331 H   0  0  0  0  0  0  0  0  0  0  0  0
   -6.1380    3.6170   -0.0151 H   0  0  0  0  0  0  0  0  0  0  0  0
  -10.4385   -5.0021   -7.0344 H   0  0  0  0  0  0  0  0  0  0  0  0
   -6.5673   -0.8846    0.1181 H   0  0  0  0  0  0  0  0  0  0  0  0
   -6.3250    0.1000   -1.1612 H   0  0  0  0  0  0  0  0  0  0  0  0
  -12.6214   -2.3869   -7.2297 H   0  0  0  0  0  0  0  0  0  0  0  0
   -7.2940   -0.0443    2.0698 H   0  0  0  0  0  0  0  0  0  0  0  0
   -7.3201   -6.7527   -5.8896 H   0  0  0  0  0  0  0  0  0  0  0  0
   -6.0334   -5.6911   -6.2276 H   0  0  0  0  0  0  0  0  0  0  0  0
   -9.3689   -6.1773   -5.9707 H   0  0  0  0  0  0  0  0  0  0  0  0
  -12.2751   -6.0900   -8.1563 H   0  0  0  0  0  0  0  0  0  0  0  0
  -13.5476   -6.0153   -9.3018 H   0  0  0  0  0  0  0  0  0  0  0  0
  -10.5022   -8.6749  -12.2896 H   0  0  0  0  0  0  0  0  0  0  0  0
   -9.5021   -8.3677  -11.0208 H   0  0  0  0  0  0  0  0  0  0  0  0
  -15.7467   -3.8664   -7.1958 H   0  0  0  0  0  0  0  0  0  0  0  0
  -14.7500   -2.5899   -6.6102 H   0  0  0  0  0  0  0  0  0  0  0  0
  -15.1059   -5.2616   -8.6718 H   0  0  0  0  0  0  0  0  0  0  0  0
   -7.4105    9.7750   -2.4136 H   0  0  0  0  0  0  0  0  0  0  0  0
   -4.8868    4.5559   -8.8082 H   0  0  0  0  0  0  0  0  0  0  0  0
   -6.0675    8.8750   -5.4376 H   0  0  0  0  0  0  0  0  0  0  0  0
   -7.3006    9.1858   -5.4709 H   0  0  0  0  0  0  0  0  0  0  0  0
   -2.1650    4.6929   -7.4409 H   0  0  0  0  0  0  0  0  0  0  0  0
   -2.4295    4.2023   -9.1008 H   0  0  0  0  0  0  0  0  0  0  0  0
   -5.0939   10.5718   -5.7925 H   0  0  0  0  0  0  0  0  0  0  0  0
   -6.5985   11.2742   -5.0783 H   0  0  0  0  0  0  0  0  0  0  0  0
   -3.8829   11.0598   -3.7558 H   0  0  0  0  0  0  0  0  0  0  0  0
   -5.2612   12.0321   -3.3151 H   0  0  0  0  0  0  0  0  0  0  0  0
   -1.9594    6.6563   -8.3931 H   0  0  0  0  0  0  0  0  0  0  0  0
   -3.2170    6.4663   -9.6159 H   0  0  0  0  0  0  0  0  0  0  0  0
   -3.4189    6.6189   -6.7665 H   0  0  0  0  0  0  0  0  0  0  0  0
   -4.6770    7.1229   -8.2693 H   0  0  0  0  0  0  0  0  0  0  0  0
   -6.9962    7.2151   -6.7484 H   0  0  0  0  0  0  0  0  0  0  0  0
   -4.0303    8.3030    0.5997 H   0  0  0  0  0  0  0  0  0  0  0  0
   -9.6839    6.7007   -2.5346 H   0  0  0  0  0  0  0  0  0  0  0  0
   -7.0378    7.5326   -4.4461 H   0  0  0  0  0  0  0  0  0  0  0  0
   -6.3823    6.0919   -4.3118 H   0  0  0  0  0  0  0  0  0  0  0  0
   -4.2100    6.4121   -1.0024 H   0  0  0  0  0  0  0  0  0  0  0  0
   -4.9967    7.0717   -1.0877 H   0  0  0  0  0  0  0  0  0  0  0  0
   -8.8162    8.8888   -2.7357 H   0  0  0  0  0  0  0  0  0  0  0  0
   -8.3331    8.6069   -4.4258 H   0  0  0  0  0  0  0  0  0  0  0  0
   -5.6567    3.2431   -9.5648 H   0  0  0  0  0  0  0  0  0  0  0  0
   -5.4043    1.4478  -11.0399 H   0  0  0  0  0  0  0  0  0  0  0  0
   -3.8791    1.7522  -10.1688 H   0  0  0  0  0  0  0  0  0  0  0  0
   -7.6352    5.2192   -0.9515 H   0  0  0  0  0  0  0  0  0  0  0  0
   -4.5064    8.6632   -2.5731 H   0  0  0  0  0  0  0  0  0  0  0  0
   -1.5135    7.9596   -0.4523 H   0  0  0  0  0  0  0  0  0  0  0  0
   -9.8568   10.9442   -3.5187 H   0  0  0  0  0  0  0  0  0  0  0  0
   -5.7056    4.8694   -0.4313 H   0  0  0  0  0  0  0  0  0  0  0  0
   -5.0811    6.0528    0.4168 H   0  0  0  0  0  0  0  0  0  0  0  0
   -5.1559    8.0349   -6.9153 H   0  0  0  0  0  0  0  0  0  0  0  0
   -6.1204    0.0664   -8.2429 H   0  0  0  0  0  0  0  0  0  0  0  0
   -5.7419    4.6060    2.0820 H   0  0  0  0  0  0  0  0  0  0  0  0
   -6.7600    5.8872    2.0121 H   0  0  0  0  0  0  0  0  0  0  0  0
   -3.6072    4.9358   -4.7829 H   0  0  0  0  0  0  0  0  0  0  0  0
   -6.1517   -0.7877  -11.0273 H   0  0  0  0  0  0  0  0  0  0  0  0
   -0.7878    9.4217   -5.0939 H   0  0  0  0  0  0  0  0  0  0  0  0
   -9.9917    6.3417   -5.8727 H   0  0  0  0  0  0  0  0  0  0  0  0
   -6.1805   -1.3192   -6.3850 H   0  0  0  0  0  0  0  0  0  0  0  0
   -6.7592    0.2699   -6.0669 H   0  0  0  0  0  0  0  0  0  0  0  0
   -2.3894    4.6701   -2.2080 H   0  0  0  0  0  0  0  0  0  0  0  0
    0.8864    5.2188   -4.0432 H   0  0  0  0  0  0  0  0  0  0  0  0
   -3.1142    8.4529   -8.5286 H   0  0  0  0  0  0  0  0  0  0  0  0
  -13.8181    9.0712   -6.1413 H   0  0  0  0  0  0  0  0  0  0  0  0
   -0.9490    8.6125   -7.5171 H   0  0  0  0  0  0  0  0  0  0  0  0
   -4.2339    3.7550   -0.6317 H   0  0  0  0  0  0  0  0  0  0  0  0
   -5.6418    3.1238   -1.3612 H   0  0  0  0  0  0  0  0  0  0  0  0
   -2.6388    3.8663   -5.8123 H   0  0  0  0  0  0  0  0  0  0  0  0
   -7.8232    3.2426    2.0329 H   0  0  0  0  0  0  0  0  0  0  0  0
   -8.4396    4.2228    0.4573 H   0  0  0  0  0  0  0  0  0  0  0  0
   -3.2595    0.8730   -7.3773 H   0  0  0  0  0  0  0  0  0  0  0  0
  -11.8190    5.2146   -6.4003 H   0  0  0  0  0  0  0  0  0  0  0  0
   -0.3463    3.8293   -5.8097 H   0  0  0  0  0  0  0  0  0  0  0  0
   -8.3139   -1.4713   -5.1346 H   0  0  0  0  0  0  0  0  0  0  0  0
   -8.9611   -0.5533   -6.4114 H   0  0  0  0  0  0  0  0  0  0  0  0
  -13.8292    6.6356   -6.8058 H   0  0  0  0  0  0  0  0  0  0  0  0
   -5.2881    2.9660   -3.9245 H   0  0  0  0  0  0  0  0  0  0  0  0
   -4.8295   -3.8510   -7.1348 H   0  0  0  0  0  0  0  0  0  0  0  0
   -9.3276   -0.8551   -8.0135 H   0  0  0  0  0  0  0  0  0  0  0  0
   -2.8746   -0.4778   -5.3733 H   0  0  0  0  0  0  0  0  0  0  0  0
   -8.5951   -3.1247   -7.5645 H   0  0  0  0  0  0  0  0  0  0  0  0
   -7.5005   -2.3273   -7.8018 H   0  0  0  0  0  0  0  0  0  0  0  0
   -3.6956   -2.8339   -5.2119 H   0  0  0  0  0  0  0  0  0  0  0  0
   -4.2438    3.1302    2.0582 H   0  0  0  0  0  0  0  0  0  0  0  0
   -2.3553    1.7798   -3.4784 H   0  0  0  0  0  0  0  0  0  0  0  0
   -3.2076    1.9344   -4.8888 H   0  0  0  0  0  0  0  0  0  0  0  0
   -2.6825    3.2408   -3.8127 H   0  0  0  0  0  0  0  0  0  0  0  0
   -6.2883    1.5878   -2.5297 H   0  0  0  0  0  0  0  0  0  0  0  0
   -5.5051    0.7918   -3.9775 H   0  0  0  0  0  0  0  0  0  0  0  0
   -4.6676    0.7168   -2.3739 H   0  0  0  0  0  0  0  0  0  0  0  0
   -2.4053    2.1255    0.6801 H   0  0  0  0  0  0  0  0  0  0  0  0
  -11.4907   -0.7345   -8.5221 H   0  0  0  0  0  0  0  0  0  0  0  0
  -10.3229   -0.3593   -9.9051 H   0  0  0  0  0  0  0  0  0  0  0  0
  -12.0705   -1.9984  -10.8243 H   0  0  0  0  0  0  0  0  0  0  0  0
  -10.5355   -2.6839  -10.6814 H   0  0  0  0  0  0  0  0  0  0  0  0
   -1.8342    3.3050   -1.4510 H   0  0  0  0  0  0  0  0  0  0  0  0
   -2.9019    1.8468   -1.9358 H   0  0  0  0  0  0  0  0  0  0  0  0
   -4.0285    0.3271   -0.5906 H   0  0  0  0  0  0  0  0  0  0  0  0
   -4.8795    1.0001    0.9301 H   0  0  0  0  0  0  0  0  0  0  0  0
   -5.1972    1.3977   -0.6564 H   0  0  0  0  0  0  0  0  0  0  0  0
   -9.7557   -3.9620   -9.7962 H   0  0  0  0  0  0  0  0  0  0  0  0
  -11.9446   -4.0134   -8.6516 H   0  0  0  0  0  0  0  0  0  0  0  0
  -11.1823   -2.9996   -8.6052 H   0  0  0  0  0  0  0  0  0  0  0  0
   -4.8404    4.7177   -1.6395 H   0  0  0  0  0  0  0  0  0  0  0  0
   -3.9389    4.2518   -3.5297 H   0  0  0  0  0  0  0  0  0  0  0  0
   -5.5867    3.8989   -2.7239 H   0  0  0  0  0  0  0  0  0  0  0  0
   -9.2175   -5.8619  -10.7334 H   0  0  0  0  0  0  0  0  0  0  0  0
   -8.1871   -5.4369   -9.3430 H   0  0  0  0  0  0  0  0  0  0  0  0
   -8.8452   -7.8403   -9.0394 H   0  0  0  0  0  0  0  0  0  0  0  0
   -9.7188   -6.8131   -7.8484 H   0  0  0  0  0  0  0  0  0  0  0  0
  -11.5459   -8.1879   -8.7113 H   0  0  0  0  0  0  0  0  0  0  0  0
  -11.1436   -6.7282   -9.1920 H   0  0  0  0  0  0  0  0  0  0  0  0
  -12.3755   -7.6702  -11.0179 H   0  0  0  0  0  0  0  0  0  0  0  0
  -11.0051   -6.6618  -11.3790 H   0  0  0  0  0  0  0  0  0  0  0  0
  1 49  2  0  0  0  0
  2 50  2  0  0  0  0
  3 51  2  0  0  0  0
  4 52  2  0  0  0  0
  5 57  2  0  0  0  0
  6 65  2  0  0  0  0
  7 67  2  0  0  0  0
  8 90  2  0  0  0  0
  9 97  2  0  0  0  0
 10110  2  0  0  0  0
 11115  2  0  0  0  0
 12126  2  0  0  0  0
 13 40  1  0  0  0  0
 13 45  1  0  0  0  0
 13 51  1  0  0  0  0
 14 41  1  0  0  0  0
 14 47  1  0  0  0  0
 14 49  1  0  0  0  0
 15 50  1  0  0  0  0
 15130  1  0  0  0  0
 16 57  1  0  0  0  0
 16131  1  0  0  0  0
 17 52  1  0  0  0  0
 17132  1  0  0  0  0
 18 65  1  0  0  0  0
 18133  1  0  0  0  0
 19 69  1  0  0  0  0
 19 71  1  0  0  0  0
 19134  1  0  0  0  0
 20 73  1  0  0  0  0
 20 76  1  0  0  0  0
 20135  1  0  0  0  0
 21 67  1  0  0  0  0
 21136  1  0  0  0  0
 22 74  1  0  0  0  0
 22 77  1  0  0  0  0
 22137  1  0  0  0  0
 23 90  1  0  0  0  0
 23138  1  0  0  0  0
 24 83  1  0  0  0  0
 24 86  1  0  0  0  0
 24139  1  0  0  0  0
 25110  1  0  0  0  0
 25140  1  0  0  0  0
 26 97  1  0  0  0  0
 26141  1  0  0  0  0
 27 96  1  0  0  0  0
 27119  1  0  0  0  0
 27142  1  0  0  0  0
 28107  1  0  0  0  0
 28124  1  0  0  0  0
 28143  1  0  0  0  0
 29144  1  0  0  0  0
 29145  1  0  0  0  0
 30115  1  0  0  0  0
 30146  1  0  0  0  0
 31119  1  0  0  0  0
 31147  1  0  0  0  0
 31148  1  0  0  0  0
 32121  1  0  0  0  0
 32129  1  0  0  0  0
 32149  1  0  0  0  0
 33119  2  0  0  0  0
 33150  1  0  0  0  0
 34124  1  0  0  0  0
 34151  1  0  0  0  0
 34152  1  0  0  0  0
 35124  2  0  0  0  0
 35153  1  0  0  0  0
 36126  1  0  0  0  0
 36154  1  0  0  0  0
 36155  1  0  0  0  0
 37128  1  0  0  0  0
 37156  1  0  0  0  0
 37157  1  0  0  0  0
 38129  1  0  0  0  0
 38158  1  0  0  0  0
 38159  1  0  0  0  0
 39129  2  0  0  0  0
 39160  1  0  0  0  0
 40 42  1  0  0  0  0
 40 50  1  0  0  0  0
 40161  1  1  0  0  0
 41 43  1  0  0  0  0
 41162  1  6  0  0  0
 41 52  1  0  0  0  0
 42 44  1  0  0  0  0
 42163  1  0  0  0  0
 42164  1  0  0  0  0
 43 46  1  0  0  0  0
 43165  1  0  0  0  0
 43166  1  0  0  0  0
 44 45  1  0  0  0  0
 44167  1  0  0  0  0
 44168  1  0  0  0  0
 45169  1  0  0  0  0
 45170  1  0  0  0  0
 46 47  1  0  0  0  0
 46171  1  0  0  0  0
 46172  1  0  0  0  0
 47173  1  0  0  0  0
 47174  1  0  0  0  0
 48 16  1  0  0  0  0
 48 49  1  0  0  0  0
 48 55  1  0  0  0  0
 48175  1  6  0  0  0
 51 53  1  0  0  0  0
 53 18  1  0  0  0  0
 53 56  1  0  0  0  0
 53176  1  1  0  0  0
 54 15  1  0  0  0  0
 54 57  1  0  0  0  0
 54 58  1  0  0  0  0
 54177  1  1  0  0  0
 55 60  1  0  0  0  0
 55178  1  0  0  0  0
 55179  1  0  0  0  0
 56 61  1  0  0  0  0
 56180  1  0  0  0  0
 56181  1  0  0  0  0
 58 62  1  0  0  0  0
 58182  1  0  0  0  0
 58183  1  0  0  0  0
 59 17  1  0  0  0  0
 59 63  1  0  0  0  0
 59 67  1  0  0  0  0
 59184  1  6  0  0  0
 60 64  1  0  0  0  0
 60 69  2  0  0  0  0
 61 68  1  0  0  0  0
 61 73  2  0  0  0  0
 62 70  1  0  0  0  0
 62 74  2  0  0  0  0
 63 72  1  0  0  0  0
 63185  1  0  0  0  0
 63186  1  0  0  0  0
 64 71  1  0  0  0  0
 64 78  2  0  0  0  0
 65 66  1  0  0  0  0
 66 23  1  0  0  0  0
 66 75  1  0  0  0  0
 66187  1  1  0  0  0
 68 76  1  0  0  0  0
 68 82  2  0  0  0  0
 69188  1  0  0  0  0
 70 77  1  0  0  0  0
 70 85  2  0  0  0  0
 71 84  2  0  0  0  0
 72 80  1  0  0  0  0
 72 83  2  0  0  0  0
 73189  1  0  0  0  0
 74190  1  0  0  0  0
 75 81  1  0  0  0  0
 75191  1  0  0  0  0
 75192  1  0  0  0  0
 76 89  2  0  0  0  0
 77 92  2  0  0  0  0
 78 91  1  0  0  0  0
 78193  1  0  0  0  0
 79 21  1  0  0  0  0
 79 87  1  0  0  0  0
 79 97  1  0  0  0  0
 79194  1  6  0  0  0
 80 86  1  0  0  0  0
 80 98  2  0  0  0  0
 81 96  1  0  0  0  0
 81195  1  0  0  0  0
 81196  1  0  0  0  0
 82 95  1  0  0  0  0
 82197  1  0  0  0  0
 83198  1  0  0  0  0
 84 93  1  0  0  0  0
 84199  1  0  0  0  0
 85 99  1  0  0  0  0
 85200  1  0  0  0  0
 86104  2  0  0  0  0
 87101  1  0  0  0  0
 87201  1  0  0  0  0
 87202  1  0  0  0  0
 88 25  1  0  0  0  0
 88 90  1  0  0  0  0
 88 94  1  0  0  0  0
 88203  1  6  0  0  0
 89100  1  0  0  0  0
 89204  1  0  0  0  0
 91 93  2  0  0  0  0
 91205  1  0  0  0  0
 92102  1  0  0  0  0
 92206  1  0  0  0  0
 93207  1  0  0  0  0
 94103  1  0  0  0  0
 94208  1  0  0  0  0
 94209  1  0  0  0  0
 95100  2  0  0  0  0
 95210  1  0  0  0  0
 96211  1  0  0  0  0
 96212  1  0  0  0  0
 98106  1  0  0  0  0
 98213  1  0  0  0  0
 99102  2  0  0  0  0
 99214  1  0  0  0  0
100215  1  0  0  0  0
101107  1  0  0  0  0
101216  1  0  0  0  0
101217  1  0  0  0  0
102218  1  0  0  0  0
103111  1  0  0  0  0
103112  1  0  0  0  0
103219  1  0  0  0  0
104108  1  0  0  0  0
104220  1  0  0  0  0
105 26  1  0  0  0  0
105114  1  0  0  0  0
105115  1  0  0  0  0
105221  1  1  0  0  0
106108  2  0  0  0  0
106222  1  0  0  0  0
107223  1  0  0  0  0
107224  1  0  0  0  0
108225  1  0  0  0  0
109 29  1  0  0  0  0
109110  1  0  0  0  0
109226  1  1  0  0  0
111227  1  0  0  0  0
111228  1  0  0  0  0
111229  1  0  0  0  0
112230  1  0  0  0  0
112231  1  0  0  0  0
112232  1  0  0  0  0
113118  1  0  0  0  0
113233  1  1  0  0  0
113117  1  0  0  0  0
113109  1  0  0  0  0
114116  1  0  0  0  0
114234  1  0  0  0  0
114235  1  0  0  0  0
116121  1  0  0  0  0
116236  1  0  0  0  0
116237  1  0  0  0  0
117122  1  0  0  0  0
117238  1  0  0  0  0
117239  1  0  0  0  0
118240  1  0  0  0  0
118241  1  0  0  0  0
118242  1  0  0  0  0
120 30  1  0  0  0  0
120123  1  0  0  0  0
120126  1  0  0  0  0
120243  1  6  0  0  0
121244  1  0  0  0  0
121245  1  0  0  0  0
122246  1  0  0  0  0
122247  1  0  0  0  0
122248  1  0  0  0  0
123125  1  0  0  0  0
123249  1  0  0  0  0
123250  1  0  0  0  0
125127  1  0  0  0  0
125251  1  0  0  0  0
125252  1  0  0  0  0
127128  1  0  0  0  0
127253  1  0  0  0  0
127254  1  0  0  0  0
128255  1  0  0  0  0
128256  1  0  0  0  0
M  END
>  <DRUGBANK_ID>
DB06610

>  <SECONDARY_ACCESSION_NUMBERS>
DB06574

>  <COMMON_NAME>
Omiganan

>  <CAS_NUMBER>
204248-78-2

>  <UNII>
618SLL9VBS

>  <SYNONYMS>
Omiganan

$$$$
