
 OpenBabel10282417183D

 80 79  0  0  0  0  0  0  0  0999 V2000
    0.9669   -0.1113    0.0959 C   0  0  0  0  0  0  0  0  0  0  0  0
    0.4718   -0.5896    1.4379 C   0  0  0  0  0  0  0  0  0  0  0  0
   -0.3800    0.1727    2.1294 C   0  0  0  0  0  0  0  0  0  0  0  0
   -0.8899    0.0127    3.5303 C   0  0  0  0  0  0  0  0  0  0  0  0
   -0.3031    1.0688    4.4825 C   0  0  0  0  0  0  0  0  0  0  0  0
   -0.7384    2.4996    4.1840 C   0  0  0  0  0  0  0  0  0  0  0  0
   -1.4413    3.1633    5.1052 C   0  0  0  0  0  0  0  0  0  0  0  0
   -2.1383    4.4833    4.9600 C   0  0  0  0  0  0  0  0  0  0  0  0
   -3.6663    4.3474    4.9547 C   0  0  0  0  0  0  0  0  0  0  0  0
   -4.2460    3.9096    6.2828 C   0  0  0  0  0  0  0  0  0  0  0  0
   -5.0199    4.7586    6.9737 C   0  0  0  0  0  0  0  0  0  0  0  0
   -5.5404    4.4946    8.3506 C   0  0  0  0  0  0  0  0  0  0  0  0
   -4.8905    5.4297    9.3555 C   0  0  0  0  0  0  0  0  0  0  0  0
   -5.3798    6.8279    9.1498 C   0  0  0  0  0  0  0  0  0  0  0  0
   -6.1545    7.4675   10.0392 C   0  0  0  0  0  0  0  0  0  0  0  0
   -6.7534    8.8074    9.6998 C   0  0  0  0  0  0  0  0  0  0  0  0
   -8.2867    8.7904    9.5785 C   0  0  0  0  0  0  0  0  0  0  0  0
   -8.9733    8.4459   10.8701 C   0  0  0  0  0  0  0  0  0  0  0  0
   -9.6677    9.3125   11.6367 C   0  0  0  0  0  0  0  0  0  0  0  0
  -10.0802    8.9386   13.0457 C   0  0  0  0  0  0  0  0  0  0  0  0
   -9.4916    9.8424   14.1512 C   0  0  0  0  0  0  0  0  0  0  0  0
   -9.9379   11.2739   14.0386 C   0  0  0  0  0  0  0  0  0  0  0  0
  -10.8110   11.9083   14.8385 C   0  0  0  0  0  0  0  0  0  0  0  0
  -11.3287   13.2731   14.4823 C   0  0  0  0  0  0  0  0  0  0  0  0
    0.9535   -1.9169    1.9219 C   0  0  0  0  0  0  0  0  0  0  0  0
   -0.3593    3.1570    2.8942 C   0  0  0  0  0  0  0  0  0  0  0  0
   -3.9239    2.5338    6.7985 C   0  0  0  0  0  0  0  0  0  0  0  0
   -6.4526    6.8346   11.3693 C   0  0  0  0  0  0  0  0  0  0  0  0
  -10.0379   10.6468   11.0714 C   0  0  0  0  0  0  0  0  0  0  0  0
  -11.2850   11.2816   16.1099 C   0  0  0  0  0  0  0  0  0  0  0  0
    0.6169    0.9039   -0.1379 H   0  0  0  0  0  0  0  0  0  0  0  0
    0.6181   -0.7709   -0.7012 H   0  0  0  0  0  0  0  0  0  0  0  0
    2.0610   -0.0703    0.0832 H   0  0  0  0  0  0  0  0  0  0  0  0
   -0.7574    1.0323    1.5964 H   0  0  0  0  0  0  0  0  0  0  0  0
   -1.9844    0.0713    3.5185 H   0  0  0  0  0  0  0  0  0  0  0  0
   -0.6524   -0.9720    3.9417 H   0  0  0  0  0  0  0  0  0  0  0  0
   -0.6352    0.7748    5.4924 H   0  0  0  0  0  0  0  0  0  0  0  0
    0.7910    1.0101    4.5153 H   0  0  0  0  0  0  0  0  0  0  0  0
   -1.5192    2.6726    6.0626 H   0  0  0  0  0  0  0  0  0  0  0  0
   -1.7998    5.1507    5.7582 H   0  0  0  0  0  0  0  0  0  0  0  0
   -1.8797    4.9828    4.0249 H   0  0  0  0  0  0  0  0  0  0  0  0
   -4.0626    5.3355    4.6736 H   0  0  0  0  0  0  0  0  0  0  0  0
   -4.0025    3.6676    4.1616 H   0  0  0  0  0  0  0  0  0  0  0  0
   -5.2476    5.7352    6.5478 H   0  0  0  0  0  0  0  0  0  0  0  0
   -6.6326    4.5710    8.3429 H   0  0  0  0  0  0  0  0  0  0  0  0
   -5.3233    3.4905    8.7112 H   0  0  0  0  0  0  0  0  0  0  0  0
   -5.1465    5.0362   10.3433 H   0  0  0  0  0  0  0  0  0  0  0  0
   -3.7970    5.4097    9.2993 H   0  0  0  0  0  0  0  0  0  0  0  0
   -5.1446    7.3003    8.1984 H   0  0  0  0  0  0  0  0  0  0  0  0
   -6.4182    9.5469   10.4371 H   0  0  0  0  0  0  0  0  0  0  0  0
   -6.3634    9.1591    8.7327 H   0  0  0  0  0  0  0  0  0  0  0  0
   -8.5770    9.7840    9.2223 H   0  0  0  0  0  0  0  0  0  0  0  0
   -8.6117    8.0829    8.8092 H   0  0  0  0  0  0  0  0  0  0  0  0
   -8.8502    7.4353   11.2370 H   0  0  0  0  0  0  0  0  0  0  0  0
  -11.1748    8.9131   13.1062 H   0  0  0  0  0  0  0  0  0  0  0  0
   -9.7474    7.9147   13.2762 H   0  0  0  0  0  0  0  0  0  0  0  0
   -9.7847    9.4146   15.1168 H   0  0  0  0  0  0  0  0  0  0  0  0
   -8.3965    9.8148   14.1276 H   0  0  0  0  0  0  0  0  0  0  0  0
   -9.5343   11.8289   13.1980 H   0  0  0  0  0  0  0  0  0  0  0  0
  -12.4242   13.2706   14.4539 H   0  0  0  0  0  0  0  0  0  0  0  0
  -10.9920   14.0136   15.2114 H   0  0  0  0  0  0  0  0  0  0  0  0
  -10.9892   13.5970   13.4903 H   0  0  0  0  0  0  0  0  0  0  0  0
    0.5952   -2.6916    1.2387 H   0  0  0  0  0  0  0  0  0  0  0  0
    2.0422   -1.9418    1.9833 H   0  0  0  0  0  0  0  0  0  0  0  0
    0.5673   -2.1741    2.9106 H   0  0  0  0  0  0  0  0  0  0  0  0
    0.7098    3.0311    2.7137 H   0  0  0  0  0  0  0  0  0  0  0  0
   -0.9604    2.7898    2.0677 H   0  0  0  0  0  0  0  0  0  0  0  0
   -0.5408    4.2304    2.8784 H   0  0  0  0  0  0  0  0  0  0  0  0
   -4.0620    1.7875    6.0142 H   0  0  0  0  0  0  0  0  0  0  0  0
   -2.9181    2.5046    7.2112 H   0  0  0  0  0  0  0  0  0  0  0  0
   -4.5316    2.1980    7.6353 H   0  0  0  0  0  0  0  0  0  0  0  0
   -7.1195    5.9735   11.2252 H   0  0  0  0  0  0  0  0  0  0  0  0
   -5.5366    6.4956   11.8599 H   0  0  0  0  0  0  0  0  0  0  0  0
   -6.9099    7.5296   12.0732 H   0  0  0  0  0  0  0  0  0  0  0  0
   -9.1528   11.2913   11.0145 H   0  0  0  0  0  0  0  0  0  0  0  0
  -10.4620   10.5315   10.0699 H   0  0  0  0  0  0  0  0  0  0  0  0
  -10.8205   11.1395   11.6491 H   0  0  0  0  0  0  0  0  0  0  0  0
  -11.8502   10.3658   15.9106 H   0  0  0  0  0  0  0  0  0  0  0  0
  -10.4147   11.0333   16.7296 H   0  0  0  0  0  0  0  0  0  0  0  0
  -11.9132   11.9617   16.6887 H   0  0  0  0  0  0  0  0  0  0  0  0
  1 31  1  0  0  0  0
  1 32  1  0  0  0  0
  1 33  1  0  0  0  0
  2  1  1  0  0  0  0
  3  2  2  0  0  0  0
  3 34  1  0  0  0  0
  4  3  1  0  0  0  0
  4 35  1  0  0  0  0
  4 36  1  0  0  0  0
  5  4  1  0  0  0  0
  5 37  1  0  0  0  0
  5 38  1  0  0  0  0
  6  5  1  0  0  0  0
  7  6  2  0  0  0  0
  7 39  1  0  0  0  0
  8  7  1  0  0  0  0
  8 40  1  0  0  0  0
  8 41  1  0  0  0  0
  9  8  1  0  0  0  0
  9 42  1  0  0  0  0
  9 43  1  0  0  0  0
 10  9  1  0  0  0  0
 11 10  2  0  0  0  0
 11 44  1  0  0  0  0
 12 11  1  0  0  0  0
 12 45  1  0  0  0  0
 12 46  1  0  0  0  0
 13 12  1  0  0  0  0
 13 47  1  0  0  0  0
 13 48  1  0  0  0  0
 14 13  1  0  0  0  0
 14 49  1  0  0  0  0
 15 14  2  0  0  0  0
 16 15  1  0  0  0  0
 16 50  1  0  0  0  0
 16 51  1  0  0  0  0
 17 16  1  0  0  0  0
 17 52  1  0  0  0  0
 17 53  1  0  0  0  0
 18 17  1  0  0  0  0
 18 54  1  0  0  0  0
 19 18  2  0  0  0  0
 20 19  1  0  0  0  0
 20 55  1  0  0  0  0
 20 56  1  0  0  0  0
 21 20  1  0  0  0  0
 21 57  1  0  0  0  0
 21 58  1  0  0  0  0
 22 21  1  0  0  0  0
 22 59  1  0  0  0  0
 23 22  2  0  0  0  0
 24 23  1  0  0  0  0
 24 60  1  0  0  0  0
 24 61  1  0  0  0  0
 24 62  1  0  0  0  0
 25  2  1  0  0  0  0
 25 63  1  0  0  0  0
 25 64  1  0  0  0  0
 25 65  1  0  0  0  0
 26  6  1  0  0  0  0
 26 66  1  0  0  0  0
 26 67  1  0  0  0  0
 26 68  1  0  0  0  0
 27 10  1  0  0  0  0
 27 69  1  0  0  0  0
 27 70  1  0  0  0  0
 27 71  1  0  0  0  0
 28 15  1  0  0  0  0
 28 72  1  0  0  0  0
 28 73  1  0  0  0  0
 28 74  1  0  0  0  0
 29 19  1  0  0  0  0
 29 75  1  0  0  0  0
 29 76  1  0  0  0  0
 29 77  1  0  0  0  0
 30 23  1  0  0  0  0
 30 78  1  0  0  0  0
 30 79  1  0  0  0  0
 30 80  1  0  0  0  0
M  END
>  <DRUGBANK_ID>
DB11460

>  <COMMON_NAME>
Squalene

>  <CAS_NUMBER>
111-02-4

>  <UNII>
7QWM220FJH

>  <SYNONYMS>
(all-E)-2,6,10,15,19,23-hexamethyl-2,6,10,14,18,22-tetracosahexaene; (E,E,E,E)-Squalene; Spinacene; Squalene; Supraene

$$$$
