
 OpenBabel10282417123D

 76 80  0  0  0  0  0  0  0  0999 V2000
    1.2870   -2.6993    0.2301 C   0  0  0  0  0  0  0  0  0  0  0  0
    2.5291   -2.2376    0.4448 C   0  0  0  0  0  0  0  0  0  0  0  0
    0.1292   -2.0185   -0.0063 N   0  0  0  0  0  0  0  0  0  0  0  0
    0.8932   -4.1174    0.1692 C   0  0  0  0  0  0  0  0  0  0  0  0
    2.9106   -0.8296    0.1947 C   0  0  0  0  0  0  0  0  0  0  0  0
   -0.9642   -2.8305    0.0249 C   0  0  0  0  0  0  0  0  0  0  0  0
   -0.4591   -4.1984    0.1064 C   0  0  0  0  0  0  0  0  0  0  0  0
    4.3404   -0.4228    0.0190 C   0  0  0  0  0  0  0  0  0  0  0  0
    2.0537    0.1456    0.1395 N   0  0  0  0  0  0  0  0  0  0  0  0
   -2.2591   -2.5272    0.0159 C   0  0  0  0  0  0  0  0  0  0  0  0
   -0.0959    2.1005    0.0171 N   0  0  0  0  0  0  0  0  0  0  0  0
    4.2212    0.9194    0.0512 C   0  0  0  0  0  0  0  0  0  0  0  0
    2.8080    1.2811    0.0401 C   0  0  0  0  0  0  0  0  0  0  0  0
   -2.7938   -1.1768   -0.0299 C   0  0  0  0  0  0  0  0  0  0  0  0
   -1.2723    2.8264    0.0293 C   0  0  0  0  0  0  0  0  0  0  0  0
    0.9817    2.9547    0.0296 C   0  0  0  0  0  0  0  0  0  0  0  0
    2.3326    2.5275   -0.0032 C   0  0  0  0  0  0  0  0  0  0  0  0
   -4.2603   -0.9260   -0.0873 C   0  0  0  0  0  0  0  0  0  0  0  0
   -2.0292   -0.1245    0.0011 N   0  0  0  0  0  0  0  0  0  0  0  0
   -0.9313    4.1752    0.0735 C   0  0  0  0  0  0  0  0  0  0  0  0
   -2.5391    2.2038   -0.0163 C   0  0  0  0  0  0  0  0  0  0  0  0
    0.4959    4.2518    0.0715 C   0  0  0  0  0  0  0  0  0  0  0  0
   -4.2674    0.4227   -0.0824 C   0  0  0  0  0  0  0  0  0  0  0  0
   -2.8916    0.9167   -0.0306 C   0  0  0  0  0  0  0  0  0  0  0  0
   -1.8088    5.3152    0.1013 C   0  0  0  0  0  0  0  0  0  0  0  0
    1.3625    5.4641    0.1012 C   0  0  0  0  0  0  0  0  0  0  0  0
   -5.4916    1.2989   -0.1278 C   0  0  0  0  0  0  0  0  0  0  0  0
   -3.1470    5.3792    0.1143 C   0  0  0  0  0  0  0  0  0  0  0  0
   -5.4016   -1.8135   -0.1322 C   0  0  0  0  0  0  0  0  0  0  0  0
    1.8507   -5.2591    0.0835 C   0  0  0  0  0  0  0  0  0  0  0  0
    2.6437   -5.3382   -1.2302 C   0  0  0  0  0  0  0  0  0  0  0  0
    3.5806   -4.2038   -1.5209 C   0  0  0  0  0  0  0  0  0  0  0  0
    4.7604   -4.1566   -1.1855 O   0  0  0  0  0  0  0  0  0  0  0  0
    2.9745   -3.1629   -2.1168 O   0  0  0  0  0  0  0  0  0  0  0  0
    5.5785   -1.2574   -0.0878 C   0  0  0  0  0  0  0  0  0  0  0  0
    6.3603   -1.1651   -1.4187 C   0  0  0  0  0  0  0  0  0  0  0  0
    6.7365    0.2081   -1.9037 C   0  0  0  0  0  0  0  0  0  0  0  0
    7.9844    0.6262   -1.6098 O   0  0  0  0  0  0  0  0  0  0  0  0
    5.9556    0.9170   -2.5282 O   0  0  0  0  0  0  0  0  0  0  0  0
    5.3239    1.9375    0.1936 C   0  0  0  0  0  0  0  0  0  0  0  0
   -1.3074   -5.4318    0.0891 C   0  0  0  0  0  0  0  0  0  0  0  0
   -5.4450   -3.1524   -0.1542 C   0  0  0  0  0  0  0  0  0  0  0  0
    3.3252   -2.9225    0.6908 H   0  0  0  0  0  0  0  0  0  0  0  0
    0.0540   -1.0074    0.0569 H   0  0  0  0  0  0  0  0  0  0  0  0
   -2.9381   -3.3310    0.0955 H   0  0  0  0  0  0  0  0  0  0  0  0
   -0.0338    1.0882   -0.0093 H   0  0  0  0  0  0  0  0  0  0  0  0
    3.0482    3.3377   -0.0489 H   0  0  0  0  0  0  0  0  0  0  0  0
   -3.3719    2.8564   -0.0553 H   0  0  0  0  0  0  0  0  0  0  0  0
   -1.3189    6.2842    0.1151 H   0  0  0  0  0  0  0  0  0  0  0  0
    2.0066    5.4444    0.9874 H   0  0  0  0  0  0  0  0  0  0  0  0
    2.0016    5.4933   -0.7884 H   0  0  0  0  0  0  0  0  0  0  0  0
    0.7887    6.3894    0.1279 H   0  0  0  0  0  0  0  0  0  0  0  0
   -6.0676    1.1146   -1.0413 H   0  0  0  0  0  0  0  0  0  0  0  0
   -6.1396    1.1106    0.7354 H   0  0  0  0  0  0  0  0  0  0  0  0
   -5.2859    2.3727   -0.1171 H   0  0  0  0  0  0  0  0  0  0  0  0
   -3.6665    6.3269    0.1297 H   0  0  0  0  0  0  0  0  0  0  0  0
   -3.8158    4.5415    0.1139 H   0  0  0  0  0  0  0  0  0  0  0  0
   -6.3735   -1.3185   -0.1559 H   0  0  0  0  0  0  0  0  0  0  0  0
    2.5051   -5.2438    0.9604 H   0  0  0  0  0  0  0  0  0  0  0  0
    1.2851   -6.1988    0.1542 H   0  0  0  0  0  0  0  0  0  0  0  0
    3.2661   -6.2386   -1.1963 H   0  0  0  0  0  0  0  0  0  0  0  0
    1.9771   -5.4471   -2.0919 H   0  0  0  0  0  0  0  0  0  0  0  0
    3.4808   -2.3423   -1.9416 H   0  0  0  0  0  0  0  0  0  0  0  0
    6.2374   -1.0479    0.7618 H   0  0  0  0  0  0  0  0  0  0  0  0
    5.3135   -2.3084    0.0391 H   0  0  0  0  0  0  0  0  0  0  0  0
    7.2614   -1.7883   -1.3834 H   0  0  0  0  0  0  0  0  0  0  0  0
    5.7470   -1.5760   -2.2295 H   0  0  0  0  0  0  0  0  0  0  0  0
    8.6156   -0.0599   -1.3277 H   0  0  0  0  0  0  0  0  0  0  0  0
    5.9120    1.7187    1.0884 H   0  0  0  0  0  0  0  0  0  0  0  0
    6.0315    2.0187   -0.6236 H   0  0  0  0  0  0  0  0  0  0  0  0
    4.9565    2.9589    0.2762 H   0  0  0  0  0  0  0  0  0  0  0  0
   -1.1002   -6.0449   -0.7924 H   0  0  0  0  0  0  0  0  0  0  0  0
   -1.1197   -6.0225    0.9911 H   0  0  0  0  0  0  0  0  0  0  0  0
   -2.3844   -5.2394    0.0824 H   0  0  0  0  0  0  0  0  0  0  0  0
   -6.3819   -3.6949   -0.1816 H   0  0  0  0  0  0  0  0  0  0  0  0
   -4.5997   -3.8130   -0.1540 H   0  0  0  0  0  0  0  0  0  0  0  0
  1  2  2  0  0  0  0
  1  3  1  0  0  0  0
  1  4  1  0  0  0  0
  2  5  1  0  0  0  0
  2 43  1  0  0  0  0
  3  6  1  0  0  0  0
  3 44  1  0  0  0  0
  4 30  1  0  0  0  0
  4  7  2  0  0  0  0
  5  8  1  0  0  0  0
  5  9  2  0  0  0  0
  6  7  1  0  0  0  0
  6 10  2  0  0  0  0
  7 41  1  0  0  0  0
  8 35  1  0  0  0  0
  8 12  2  0  0  0  0
  9 13  1  0  0  0  0
 10 14  1  0  0  0  0
 10 45  1  0  0  0  0
 11 15  1  0  0  0  0
 11 16  1  0  0  0  0
 11 46  1  0  0  0  0
 12 13  1  0  0  0  0
 12 40  1  0  0  0  0
 13 17  2  0  0  0  0
 14 18  1  0  0  0  0
 14 19  2  0  0  0  0
 15 20  2  0  0  0  0
 15 21  1  0  0  0  0
 16 22  2  0  0  0  0
 16 17  1  0  0  0  0
 17 47  1  0  0  0  0
 18 23  2  0  0  0  0
 18 29  1  0  0  0  0
 19 24  1  0  0  0  0
 20 25  1  0  0  0  0
 20 22  1  0  0  0  0
 21 24  2  0  0  0  0
 21 48  1  0  0  0  0
 22 26  1  0  0  0  0
 23 27  1  0  0  0  0
 23 24  1  0  0  0  0
 25 28  2  0  0  0  0
 25 49  1  0  0  0  0
 26 50  1  0  0  0  0
 26 51  1  0  0  0  0
 26 52  1  0  0  0  0
 27 53  1  0  0  0  0
 27 54  1  0  0  0  0
 27 55  1  0  0  0  0
 28 56  1  0  0  0  0
 28 57  1  0  0  0  0
 29 42  2  0  0  0  0
 29 58  1  0  0  0  0
 30 31  1  0  0  0  0
 30 59  1  0  0  0  0
 30 60  1  0  0  0  0
 31 32  1  0  0  0  0
 31 61  1  0  0  0  0
 31 62  1  0  0  0  0
 32 33  2  0  0  0  0
 32 34  1  0  0  0  0
 34 63  1  0  0  0  0
 35 36  1  0  0  0  0
 35 64  1  0  0  0  0
 35 65  1  0  0  0  0
 36 37  1  0  0  0  0
 36 66  1  0  0  0  0
 36 67  1  0  0  0  0
 37 38  1  0  0  0  0
 37 39  2  0  0  0  0
 38 68  1  0  0  0  0
 40 69  1  0  0  0  0
 40 70  1  0  0  0  0
 40 71  1  0  0  0  0
 41 72  1  0  0  0  0
 41 73  1  0  0  0  0
 41 74  1  0  0  0  0
 42 75  1  0  0  0  0
 42 76  1  0  0  0  0
M  END
>  <DRUGBANK_ID>
DB02285

>  <SECONDARY_ACCESSION_NUMBERS>
EXPT02636

>  <COMMON_NAME>
Protoporphyrin

>  <CAS_NUMBER>
553-12-8

>  <UNII>
C2K325S808

>  <SYNONYMS>
Protoporphyrin IX

$$$$
