
 OpenBabel10282417123D

 66 68  0  0  1  0  0  0  0  0999 V2000
   -3.6649    1.0772   -7.6634 C   0  0  0  0  0  0  0  0  0  0  0  0
   -2.6328    0.3720   -8.4935 C   0  0  0  0  0  0  0  0  0  0  0  0
   -1.7815    0.9476   -9.1550 O   0  0  0  0  0  0  0  0  0  0  0  0
   -2.7265   -0.9921   -8.5033 N   0  0  0  0  0  0  0  0  0  0  0  0
   -3.6345   -1.7626   -7.6000 C   0  0  2  0  0  0  0  0  0  0  0  0
   -3.1344   -1.7829   -6.1837 C   0  0  1  0  0  0  0  0  0  0  0  0
   -2.6717   -0.6236   -5.5033 O   0  0  0  0  0  0  0  0  0  0  0  0
   -3.9388   -2.8657   -5.2535 C   0  0  1  0  0  0  0  0  0  0  0  0
   -4.9590   -2.0522   -4.6811 O   0  0  0  0  0  0  0  0  0  0  0  0
   -4.8509   -4.1844   -5.9190 C   0  0  1  0  0  0  0  0  0  0  0  0
   -4.9080   -5.3919   -4.7057 C   0  0  0  0  0  0  0  0  0  0  0  0
   -3.7401   -6.2168   -4.3701 O   0  0  0  0  0  0  0  0  0  0  0  0
   -4.6980   -4.0412   -7.4163 O   0  0  0  0  0  0  0  0  0  0  0  0
   -3.6380   -3.2222   -8.0398 C   0  0  2  0  0  0  0  0  0  0  0  0
   -2.2581   -3.7492   -7.9963 O   0  0  0  0  0  0  0  0  0  0  0  0
   -1.3570   -4.0105   -6.6333 P   0  0  2  0  0  0  0  0  0  0  0  0
   -2.8325   -4.6035   -5.9522 O   0  0  0  0  0  0  0  0  0  0  0  0
   -1.1171   -2.8762   -5.7322 O   0  0  0  0  0  0  0  0  0  0  0  0
    0.1186   -3.4174   -7.3144 O   0  0  0  0  0  0  0  0  0  0  0  0
    1.5434   -3.5776   -6.8022 P   0  0  2  0  0  0  0  0  0  0  0  0
    1.7609   -2.0540   -6.3328 O   0  0  0  0  0  0  0  0  0  0  0  0
    2.6207   -3.8965   -7.7814 O   0  0  0  0  0  0  0  0  0  0  0  0
    1.3225   -4.7053   -5.6565 O   0  0  0  0  0  0  0  0  0  0  0  0
    0.2673   -5.2283   -4.8403 C   0  0  0  0  0  0  0  0  0  0  0  0
   -0.0370   -4.4983   -3.4783 C   0  0  1  0  0  0  0  0  0  0  0  0
    1.2345   -4.2221   -2.8888 O   0  0  0  0  0  0  0  0  0  0  0  0
    1.4734   -2.7892   -2.9469 C   0  0  2  0  0  0  0  0  0  0  0  0
    0.3460   -2.1462   -3.7687 C   0  0  2  0  0  0  0  0  0  0  0  0
    0.1083   -0.7766   -3.4701 O   0  0  0  0  0  0  0  0  0  0  0  0
   -0.7700   -3.1551   -3.4885 C   0  0  2  0  0  0  0  0  0  0  0  0
   -1.6158   -2.6969   -2.4495 O   0  0  0  0  0  0  0  0  0  0  0  0
    2.8705   -2.5425   -3.3630 N   0  0  0  0  0  0  0  0  0  0  0  0
    3.3652   -3.0927   -4.4870 C   0  0  0  0  0  0  0  0  0  0  0  0
    4.5989   -3.0165   -5.0167 C   0  0  0  0  0  0  0  0  0  0  0  0
    5.5347   -2.3363   -4.1673 C   0  0  0  0  0  0  0  0  0  0  0  0
    6.7473   -2.3969   -4.4323 O   0  0  0  0  0  0  0  0  0  0  0  0
    5.0093   -1.6978   -3.0766 N   0  0  0  0  0  0  0  0  0  0  0  0
    3.7249   -1.8421   -2.5473 C   0  0  0  0  0  0  0  0  0  0  0  0
    3.4258   -1.4318   -1.4522 O   0  0  0  0  0  0  0  0  0  0  0  0
   -3.6668    2.1371   -7.8843 H   0  0  0  0  0  0  0  0  0  0  0  0
   -3.4489    0.9791   -6.6047 H   0  0  0  0  0  0  0  0  0  0  0  0
   -4.6526    0.6621   -7.8681 H   0  0  0  0  0  0  0  0  0  0  0  0
   -1.8590   -1.4160   -8.8475 H   0  0  0  0  0  0  0  0  0  0  0  0
   -4.6176   -1.3259   -7.5538 H   0  0  0  0  0  0  0  0  0  0  0  0
   -2.1793   -1.9108   -6.6382 H   0  0  0  0  0  0  0  0  0  0  0  0
   -3.3267   -0.3524   -4.8560 H   0  0  0  0  0  0  0  0  0  0  0  0
   -3.3705   -3.2005   -4.3732 H   0  0  0  0  0  0  0  0  0  0  0  0
   -5.5859   -1.9946   -5.4146 H   0  0  0  0  0  0  0  0  0  0  0  0
   -4.5657   -5.2081   -6.3044 H   0  0  0  0  0  0  0  0  0  0  0  0
   -5.1195   -4.8786   -3.7761 H   0  0  0  0  0  0  0  0  0  0  0  0
   -5.6893   -6.1154   -4.9699 H   0  0  0  0  0  0  0  0  0  0  0  0
   -3.4909   -6.8264   -5.0864 H   0  0  0  0  0  0  0  0  0  0  0  0
   -3.8890   -3.2611   -9.1092 H   0  0  0  0  0  0  0  0  0  0  0  0
   -3.1615   -4.7792   -6.8636 H   0  0  0  0  0  0  0  0  0  0  0  0
    1.8023   -1.3759   -7.0447 H   0  0  0  0  0  0  0  0  0  0  0  0
   -0.6189   -5.5212   -5.4006 H   0  0  0  0  0  0  0  0  0  0  0  0
    0.5524   -6.2655   -4.6175 H   0  0  0  0  0  0  0  0  0  0  0  0
   -0.6483   -5.1832   -2.8806 H   0  0  0  0  0  0  0  0  0  0  0  0
    1.3223   -2.4267   -1.9334 H   0  0  0  0  0  0  0  0  0  0  0  0
    0.6077   -2.1311   -4.7969 H   0  0  0  0  0  0  0  0  0  0  0  0
   -0.6154   -0.7330   -2.8298 H   0  0  0  0  0  0  0  0  0  0  0  0
   -1.5719   -3.4422   -4.1212 H   0  0  0  0  0  0  0  0  0  0  0  0
   -1.1020   -2.5616   -1.6536 H   0  0  0  0  0  0  0  0  0  0  0  0
    2.6920   -3.6632   -4.9862 H   0  0  0  0  0  0  0  0  0  0  0  0
    4.8625   -3.4867   -5.9529 H   0  0  0  0  0  0  0  0  0  0  0  0
    5.6607   -1.2253   -2.4818 H   0  0  0  0  0  0  0  0  0  0  0  0
  1  2  1  0  0  0  0
  1 40  1  0  0  0  0
  1 41  1  0  0  0  0
  1 42  1  0  0  0  0
  2  3  2  0  0  0  0
  2  4  1  0  0  0  0
  4 43  1  0  0  0  0
  5  6  1  0  0  0  0
  5 14  1  0  0  0  0
  5 44  1  6  0  0  0
  5  4  1  0  0  0  0
  6  7  1  0  0  0  0
  6  8  1  0  0  0  0
  6 45  1  6  0  0  0
  7 46  1  0  0  0  0
  8  9  1  0  0  0  0
  8 10  1  0  0  0  0
  8 47  1  1  0  0  0
  9 48  1  0  0  0  0
 10 13  1  0  0  0  0
 10 49  1  6  0  0  0
 10 11  1  0  0  0  0
 11 12  1  0  0  0  0
 11 50  1  0  0  0  0
 11 51  1  0  0  0  0
 12 52  1  0  0  0  0
 13 14  1  0  0  0  0
 14 15  1  0  0  0  0
 14 53  1  6  0  0  0
 16 18  2  1  0  0  0
 16 19  1  0  0  0  0
 16 17  1  0  0  0  0
 16 15  1  0  0  0  0
 17 54  1  0  0  0  0
 20 22  2  6  0  0  0
 20 23  1  0  0  0  0
 20 21  1  0  0  0  0
 20 19  1  0  0  0  0
 21 55  1  0  0  0  0
 23 24  1  0  0  0  0
 24 56  1  0  0  0  0
 24 57  1  0  0  0  0
 25 24  1  0  0  0  0
 25 26  1  0  0  0  0
 25 30  1  0  0  0  0
 25 58  1  1  0  0  0
 26 27  1  0  0  0  0
 27 28  1  0  0  0  0
 27 59  1  1  0  0  0
 27 32  1  0  0  0  0
 28 29  1  0  0  0  0
 28 30  1  0  0  0  0
 28 60  1  6  0  0  0
 29 61  1  0  0  0  0
 30 31  1  0  0  0  0
 30 62  1  6  0  0  0
 31 63  1  0  0  0  0
 32 33  1  0  0  0  0
 32 38  1  0  0  0  0
 33 34  2  0  0  0  0
 33 64  1  0  0  0  0
 34 35  1  0  0  0  0
 34 65  1  0  0  0  0
 35 36  2  0  0  0  0
 35 37  1  0  0  0  0
 37 38  1  0  0  0  0
 37 66  1  0  0  0  0
 38 39  2  0  0  0  0
M  END
>  <DRUGBANK_ID>
DB02196

>  <SECONDARY_ACCESSION_NUMBERS>
EXPT03169

>  <COMMON_NAME>
Uridine-Diphosphate-N-Acetylgalactosamine

$$$$
