
 OpenBabel10282417193D

 61 63  0  0  0  0  0  0  0  0999 V2000
    0.9799    0.1042   -0.0342 C   0  0  0  0  0  0  0  0  0  0  0  0
    0.5069    0.9780   -1.0557 O   0  0  0  0  0  0  0  0  0  0  0  0
    0.7716    2.3146   -0.8963 C   0  0  0  0  0  0  0  0  0  0  0  0
    2.0748    2.7278   -0.6473 C   0  0  0  0  0  0  0  0  0  0  0  0
    2.3907    4.0909   -0.6480 C   0  0  0  0  0  0  0  0  0  0  0  0
    1.4386    5.0329   -0.9523 C   0  0  0  0  0  0  0  0  0  0  0  0
    0.1495    4.6495   -1.2783 C   0  0  0  0  0  0  0  0  0  0  0  0
   -0.2212    3.2848   -1.1652 C   0  0  0  0  0  0  0  0  0  0  0  0
   -1.5645    3.0260   -1.3076 O   0  0  0  0  0  0  0  0  0  0  0  0
   -2.0129    1.7094   -1.0058 C   0  0  0  0  0  0  0  0  0  0  0  0
   -0.7593    5.5825   -1.7269 O   0  0  0  0  0  0  0  0  0  0  0  0
   -0.2257    6.8887   -2.0008 C   0  0  0  0  0  0  0  0  0  0  0  0
    3.7179    4.5216   -0.2661 C   0  0  0  0  0  0  0  0  0  0  0  0
    4.3126    5.7175   -0.4147 C   0  0  0  0  0  0  0  0  0  0  0  0
    5.7041    6.1263    0.0135 C   0  0  0  0  0  0  0  0  0  0  0  0
    6.0890    7.2340   -0.2413 O   0  0  0  0  0  0  0  0  0  0  0  0
    6.4242    5.1670    0.7393 N   0  0  0  0  0  0  0  0  0  0  0  0
    6.4347    3.8324    0.2451 C   0  0  0  0  0  0  0  0  0  0  0  0
    6.9761    2.5909    0.9255 C   0  0  0  0  0  0  0  0  0  0  0  0
    8.2999    2.9651    1.4096 N   0  0  0  0  0  0  0  0  0  0  0  0
    8.1706    4.2754    2.1268 C   0  0  0  0  0  0  0  0  0  0  0  0
    7.7631    5.4984    1.2622 C   0  0  0  0  0  0  0  0  0  0  0  0
    9.3726    2.8981    0.3358 C   0  0  0  0  0  0  0  0  0  0  0  0
    9.4274    3.8359   -0.9799 C   0  0  0  0  0  0  0  0  0  0  0  0
   10.3158    4.6991   -1.0241 O   0  0  0  0  0  0  0  0  0  0  0  0
    8.6099    3.5963   -2.1195 N   0  0  0  0  0  0  0  0  0  0  0  0
    7.2136    3.3200   -2.1148 C   0  0  0  0  0  0  0  0  0  0  0  0
    6.7416    2.7905   -3.3890 C   0  0  0  0  0  0  0  0  0  0  0  0
    7.5281    3.7363   -4.2586 C   0  0  0  0  0  0  0  0  0  0  0  0
    8.8007    4.1830   -3.4326 C   0  0  0  0  0  0  0  0  0  0  0  0
    0.5876   -0.8940   -0.2582 H   0  0  0  0  0  0  0  0  0  0  0  0
    0.6004    0.4012    0.9485 H   0  0  0  0  0  0  0  0  0  0  0  0
    2.0702    0.0266   -0.0290 H   0  0  0  0  0  0  0  0  0  0  0  0
    2.8528    1.9901   -0.4709 H   0  0  0  0  0  0  0  0  0  0  0  0
    1.7267    6.0738   -0.9215 H   0  0  0  0  0  0  0  0  0  0  0  0
   -1.6909    1.0162   -1.7887 H   0  0  0  0  0  0  0  0  0  0  0  0
   -1.6974    1.3752   -0.0085 H   0  0  0  0  0  0  0  0  0  0  0  0
   -3.1051    1.7054   -1.0098 H   0  0  0  0  0  0  0  0  0  0  0  0
    0.0602    7.3900   -1.0671 H   0  0  0  0  0  0  0  0  0  0  0  0
    0.6308    6.8576   -2.6919 H   0  0  0  0  0  0  0  0  0  0  0  0
   -0.9998    7.4942   -2.4743 H   0  0  0  0  0  0  0  0  0  0  0  0
    4.1746    3.6776    0.2213 H   0  0  0  0  0  0  0  0  0  0  0  0
    3.7878    6.5669   -0.8410 H   0  0  0  0  0  0  0  0  0  0  0  0
    5.7087    3.5698   -0.5063 H   0  0  0  0  0  0  0  0  0  0  0  0
    7.3016    4.0649   -0.3156 H   0  0  0  0  0  0  0  0  0  0  0  0
    6.2456    2.2310    1.6543 H   0  0  0  0  0  0  0  0  0  0  0  0
    7.0908    1.7348    0.2379 H   0  0  0  0  0  0  0  0  0  0  0  0
    7.3262    4.1408    2.8258 H   0  0  0  0  0  0  0  0  0  0  0  0
    9.0497    4.4622    2.7352 H   0  0  0  0  0  0  0  0  0  0  0  0
    8.4827    5.6610    0.4442 H   0  0  0  0  0  0  0  0  0  0  0  0
    7.7138    6.4419    1.8014 H   0  0  0  0  0  0  0  0  0  0  0  0
   10.3030    3.0910    0.8929 H   0  0  0  0  0  0  0  0  0  0  0  0
    9.4818    1.8635   -0.0153 H   0  0  0  0  0  0  0  0  0  0  0  0
    6.6963    4.3053   -2.0176 H   0  0  0  0  0  0  0  0  0  0  0  0
    6.9963    2.5238   -1.4378 H   0  0  0  0  0  0  0  0  0  0  0  0
    7.0271    1.7369   -3.3981 H   0  0  0  0  0  0  0  0  0  0  0  0
    5.6429    2.8716   -3.4020 H   0  0  0  0  0  0  0  0  0  0  0  0
    7.7586    3.2305   -5.1899 H   0  0  0  0  0  0  0  0  0  0  0  0
    6.8831    4.6055   -4.4511 H   0  0  0  0  0  0  0  0  0  0  0  0
    9.7267    3.7801   -3.8338 H   0  0  0  0  0  0  0  0  0  0  0  0
    8.8505    5.2782   -3.3612 H   0  0  0  0  0  0  0  0  0  0  0  0
  1  2  1  0  0  0  0
  1 31  1  0  0  0  0
  1 32  1  0  0  0  0
  1 33  1  0  0  0  0
  2  3  1  0  0  0  0
  3  4  2  0  0  0  0
  3  8  1  0  0  0  0
  4  5  1  0  0  0  0
  4 34  1  0  0  0  0
  5  6  2  0  0  0  0
  5 13  1  0  0  0  0
  6  7  1  0  0  0  0
  6 35  1  0  0  0  0
  7  8  2  0  0  0  0
  7 11  1  0  0  0  0
  8  9  1  0  0  0  0
  9 10  1  0  0  0  0
 10 36  1  0  0  0  0
 10 37  1  0  0  0  0
 10 38  1  0  0  0  0
 11 12  1  0  0  0  0
 12 39  1  0  0  0  0
 12 40  1  0  0  0  0
 12 41  1  0  0  0  0
 13 14  2  0  0  0  0
 13 42  1  0  0  0  0
 14 15  1  0  0  0  0
 14 43  1  0  0  0  0
 15 16  2  0  0  0  0
 15 17  1  0  0  0  0
 17 18  1  0  0  0  0
 17 22  1  0  0  0  0
 18 19  1  0  0  0  0
 18 44  1  0  0  0  0
 18 45  1  0  0  0  0
 19 20  1  0  0  0  0
 19 46  1  0  0  0  0
 19 47  1  0  0  0  0
 20 21  1  0  0  0  0
 20 23  1  0  0  0  0
 21 22  1  0  0  0  0
 21 48  1  0  0  0  0
 21 49  1  0  0  0  0
 22 50  1  0  0  0  0
 22 51  1  0  0  0  0
 23 24  1  0  0  0  0
 23 52  1  0  0  0  0
 23 53  1  0  0  0  0
 24 25  2  0  0  0  0
 24 26  1  0  0  0  0
 26 27  1  0  0  0  0
 26 30  1  0  0  0  0
 27 28  1  0  0  0  0
 27 54  1  0  0  0  0
 27 55  1  0  0  0  0
 28 29  1  0  0  0  0
 28 56  1  0  0  0  0
 28 57  1  0  0  0  0
 29 30  1  0  0  0  0
 29 58  1  0  0  0  0
 29 59  1  0  0  0  0
 30 60  1  0  0  0  0
 30 61  1  0  0  0  0
M  END
>  <DRUGBANK_ID>
DB12123

>  <COMMON_NAME>
Cinepazide

>  <CAS_NUMBER>
23887-46-9

>  <UNII>
67Y4P5C84X

>  <SYNONYMS>
Cinepazide

$$$$
