
 OpenBabel10282417203D

 34 33  0  0  0  0  0  0  0  0999 V2000
   -0.5623   -1.6441   -0.6302 C   0  0  0  0  0  0  0  0  0  0  0  0
    0.9218   -1.6852   -0.7006 C   0  0  0  0  0  0  0  0  0  0  0  0
   -0.3859    0.6725   -1.2794 C   0  0  0  0  0  0  0  0  0  0  0  0
   -1.2299   -0.4518   -0.9039 C   0  0  0  0  0  0  0  0  0  0  0  0
    1.8018   -0.5669   -0.9999 C   0  0  0  0  0  0  0  0  0  0  0  0
    1.2332    0.6753   -1.2454 C   0  0  0  0  0  0  0  0  0  0  0  0
   -2.5013   -0.1670   -0.3879 O   0  0  0  0  0  0  0  0  0  0  0  0
    3.1379   -0.6006   -0.7430 O   0  0  0  0  0  0  0  0  0  0  0  0
    2.4013    3.5123   -1.3790 O   0  0  0  0  0  0  0  0  0  0  0  0
    2.4129    2.5731    0.9328 O   0  0  0  0  0  0  0  0  0  0  0  0
    4.0073    1.8132   -0.7271 O   0  0  0  0  0  0  0  0  0  0  0  0
    2.6682    2.1804   -0.4788 S   0  0  0  0  0  0  0  0  0  0  0  0
    0.5336    0.4297    1.4507 C   0  0  0  0  0  0  0  0  0  0  0  0
    0.5062    4.8073    1.1014 C   0  0  0  0  0  0  0  0  0  0  0  0
   -0.0146    1.9004    1.2178 C   0  0  0  0  0  0  0  0  0  0  0  0
   -0.1666    4.2182   -0.0890 C   0  0  0  0  0  0  0  0  0  0  0  0
    0.0826    2.8104   -0.0190 N   0  0  0  0  0  0  0  0  0  0  0  0
   -1.0938   -2.4249   -0.0699 H   0  0  0  0  0  0  0  0  0  0  0  0
    1.3949   -2.5343   -0.2010 H   0  0  0  0  0  0  0  0  0  0  0  0
   -1.0506    1.5557   -1.1779 H   0  0  0  0  0  0  0  0  0  0  0  0
   -3.0479   -0.9252   -0.0928 H   0  0  0  0  0  0  0  0  0  0  0  0
    3.3873   -1.1105    0.0450 H   0  0  0  0  0  0  0  0  0  0  0  0
    1.7803    3.3836   -2.1110 H   0  0  0  0  0  0  0  0  0  0  0  0
    0.2291   -0.0931    0.6190 H   0  0  0  0  0  0  0  0  0  0  0  0
    0.0502   -0.2869    2.1276 H   0  0  0  0  0  0  0  0  0  0  0  0
    1.6210    0.2781    1.4565 H   0  0  0  0  0  0  0  0  0  0  0  0
    1.5969    4.8280    0.9784 H   0  0  0  0  0  0  0  0  0  0  0  0
    0.1649    5.8121    1.2913 H   0  0  0  0  0  0  0  0  0  0  0  0
    0.2657    4.1974    1.9680 H   0  0  0  0  0  0  0  0  0  0  0  0
   -1.0756    1.8721    1.4306 H   0  0  0  0  0  0  0  0  0  0  0  0
    0.5417    2.3241    2.0376 H   0  0  0  0  0  0  0  0  0  0  0  0
    0.2459    4.6920   -1.0086 H   0  0  0  0  0  0  0  0  0  0  0  0
   -1.2425    4.3153   -0.1858 H   0  0  0  0  0  0  0  0  0  0  0  0
    0.4669    2.5611   -0.9152 H   0  0  0  0  0  0  0  0  0  0  0  0
  1 18  1  0  0  0  0
  2  1  2  0  0  0  0
  2 19  1  0  0  0  0
  3 20  1  0  0  0  0
  4  1  1  0  0  0  0
  4  3  2  0  0  0  0
  5  2  1  0  0  0  0
  6  3  1  0  0  0  0
  6  5  2  0  0  0  0
  7  4  1  0  0  0  0
  7 21  1  0  0  0  0
  8  5  1  0  0  0  0
  8 22  1  0  0  0  0
  9 23  1  0  0  0  0
 12  6  1  0  0  0  0
 12  9  1  0  0  0  0
 12 10  2  0  0  0  0
 12 11  2  0  0  0  0
 13 24  1  0  0  0  0
 13 25  1  0  0  0  0
 13 26  1  0  0  0  0
 14 27  1  0  0  0  0
 14 28  1  0  0  0  0
 14 29  1  0  0  0  0
 15 13  1  0  0  0  0
 15 30  1  0  0  0  0
 15 31  1  0  0  0  0
 16 14  1  0  0  0  0
 16 32  1  0  0  0  0
 16 33  1  0  0  0  0
 17 15  1  0  0  0  0
 17 16  1  0  0  0  0
 17 34  1  0  0  0  0
M  END
>  <DRUGBANK_ID>
DB13483

>  <COMMON_NAME>
Etamsylate

>  <CAS_NUMBER>
2624-44-4

>  <UNII>
24YL531VOH

>  <SYNONYMS>
Etamsylate; Ethamsylate

$$$$
