
 OpenBabel10282417183D

132135  0  0  1  0  0  0  0  0999 V2000
   -9.0702    2.3055  -10.8639 C   0  0  0  0  0  0  0  0  0  0  0  0
   -5.6711    2.9225   -8.5929 O   0  0  0  0  0  0  0  0  0  0  0  0
   -6.0709    2.9007  -10.0759 C   0  0  1  0  0  0  0  0  0  0  0  0
   -7.0656    2.6861  -11.2774 C   0  0  0  0  0  0  0  0  0  0  0  0
   -5.7207    4.2577   -6.2505 C   0  0  0  0  0  0  0  0  0  0  0  0
   -6.5022    3.6898   -7.2828 C   0  0  2  0  0  0  0  0  0  0  0  0
   -5.3304    5.3222   -9.0018 C   0  0  0  0  0  0  0  0  0  0  0  0
   -5.2587    6.6930   -8.5845 C   0  0  0  0  0  0  0  0  0  0  0  0
   -5.0133    6.5992   -7.2695 O   0  0  0  0  0  0  0  0  0  0  0  0
   -4.6310    5.2791   -6.6794 C   0  0  1  0  0  0  0  0  0  0  0  0
   -7.5304    5.4324   -7.4333 C   0  0  0  0  0  0  0  0  0  0  0  0
   -8.3977    5.2353   -9.1398 C   0  0  0  0  0  0  0  0  0  0  0  0
   -6.9262    4.5491  -10.6140 C   0  0  2  0  0  0  0  0  0  0  0  0
  -10.8290    2.7227  -10.2041 C   0  0  0  0  0  0  0  0  0  0  0  0
  -12.1837    4.2369  -10.0035 C   0  0  1  0  0  0  0  0  0  0  0  0
  -12.9825    5.9241  -10.5508 C   0  0  0  0  0  0  0  0  0  0  0  0
  -12.5842    6.5449  -11.8224 C   0  0  0  0  0  0  0  0  0  0  0  0
  -11.2820    6.7342  -11.5499 C   0  0  0  0  0  0  0  0  0  0  0  0
  -10.9584    5.3519  -11.0707 C   0  0  2  0  0  0  0  0  0  0  0  0
  -11.3598    5.2762   -9.7799 O   0  0  0  0  0  0  0  0  0  0  0  0
  -10.6431    4.1940  -11.9884 C   0  0  0  0  0  0  0  0  0  0  0  0
   -9.5602    4.1112  -13.1824 C   0  0  2  0  0  0  0  0  0  0  0  0
   -8.2060    4.7508  -13.1503 O   0  0  0  0  0  0  0  0  0  0  0  0
   -9.8669    5.2751  -13.9812 C   0  0  0  0  0  0  0  0  0  0  0  0
   -9.2751    6.8518  -13.4115 C   0  0  2  0  0  0  0  0  0  0  0  0
   -7.8738    7.2276  -13.2287 C   0  0  0  0  0  0  0  0  0  0  0  0
   -7.5325    6.2739  -12.2016 C   0  0  1  0  0  0  0  0  0  0  0  0
   -6.6696    4.9358   -8.9806 C   0  0  1  0  0  0  0  0  0  0  0  0
   -7.2906    6.5146  -10.2118 C   0  0  0  0  0  0  0  0  0  0  0  0
   -5.8509    2.1938  -12.5661 C   0  0  0  0  0  0  0  0  0  0  0  0
   -5.0725    3.6122  -11.2666 C   0  0  0  0  0  0  0  0  0  0  0  0
   -6.6385    1.5794   -9.9972 O   0  0  0  0  0  0  0  0  0  0  0  0
   -7.2001    2.8468   -7.1068 H   0  0  0  0  0  0  0  0  0  0  0  0
   -3.8920    4.7638   -7.3323 H   0  0  0  0  0  0  0  0  0  0  0  0
   -5.5891    7.6856   -9.2106 O   0  0  0  0  0  0  0  0  0  0  0  0
   -3.9528    5.6793   -5.4549 C   0  0  2  0  0  0  0  0  0  0  0  0
   -3.0842    4.6164   -5.1434 O   0  0  0  0  0  0  0  0  0  0  0  0
   -4.9852    5.8930   -4.3699 C   0  0  0  0  0  0  0  0  0  0  0  0
   -7.6910    3.3580   -9.2758 O   0  0  0  0  0  0  0  0  0  0  0  0
   -9.1477    5.1907  -15.2583 C   0  0  0  0  0  0  0  0  0  0  0  0
  -11.2711    4.8600  -14.2166 C   0  0  0  0  0  0  0  0  0  0  0  0
   -9.3439    7.4161  -12.0466 O   0  0  0  0  0  0  0  0  0  0  0  0
   -9.2703    6.6292  -10.9317 C   0  0  0  0  0  0  0  0  0  0  0  0
   -8.6544    5.0473  -11.2296 C   0  0  0  0  0  0  0  0  0  0  0  0
   -9.7607    7.0136   -9.8487 O   0  0  0  0  0  0  0  0  0  0  0  0
   -6.5187    6.4274  -12.1613 H   0  0  0  0  0  0  0  0  0  0  0  0
   -9.4765    4.5670   -8.6613 C   0  0  0  0  0  0  0  0  0  0  0  0
  -10.4775    4.7420   -7.7285 C   0  0  0  0  0  0  0  0  0  0  0  0
  -11.5914    4.2678   -7.7215 O   0  0  0  0  0  0  0  0  0  0  0  0
   -9.9337    5.5140   -6.8616 O   0  0  0  0  0  0  0  0  0  0  0  0
  -10.8800    5.5880   -5.9067 C   0  0  0  0  0  0  0  0  0  0  0  0
   -6.6484    4.4472  -12.3032 O   0  0  0  0  0  0  0  0  0  0  0  0
   -6.2478    4.7278  -13.5881 C   0  0  0  0  0  0  0  0  0  0  0  0
   -5.2777    5.7075  -13.4315 C   0  0  0  0  0  0  0  0  0  0  0  0
   -4.8140    5.9100  -14.6070 C   0  0  0  0  0  0  0  0  0  0  0  0
   -3.7023    6.6972  -14.4355 C   0  0  0  0  0  0  0  0  0  0  0  0
   -3.1250    6.9651  -15.5711 C   0  0  0  0  0  0  0  0  0  0  0  0
   -1.8986    7.7484  -15.5607 C   0  0  0  0  0  0  0  0  0  0  0  0
   -0.7861    6.9202  -16.1567 C   0  0  0  0  0  0  0  0  0  0  0  0
   -6.6299    4.1371  -14.6017 O   0  0  0  0  0  0  0  0  0  0  0  0
   -1.1318    6.5042  -17.5754 C   0  0  0  0  0  0  0  0  0  0  0  0
   -9.5849    2.7774  -13.6663 O   0  0  0  0  0  0  0  0  0  0  0  0
  -12.8642    4.4096   -9.1141 H   0  0  0  0  0  0  0  0  0  0  0  0
  -10.1604    5.2120  -10.4478 H   0  0  0  0  0  0  0  0  0  0  0  0
  -12.8671    6.6754  -13.1046 C   0  0  0  0  0  0  0  0  0  0  0  0
  -13.9822    5.8582  -13.4569 C   0  0  0  0  0  0  0  0  0  0  0  0
  -14.2382    5.5168  -14.5876 O   0  0  0  0  0  0  0  0  0  0  0  0
  -14.6578    5.6341  -12.3344 O   0  0  0  0  0  0  0  0  0  0  0  0
  -16.0167    5.4060  -12.4205 C   0  0  0  0  0  0  0  0  0  0  0  0
   -9.9244    1.9232  -11.7612 H   0  0  0  0  0  0  0  0  0  0  0  0
   -5.3949    3.3688   -5.7547 H   0  0  0  0  0  0  0  0  0  0  0  0
   -6.5366    4.7656   -5.7160 H   0  0  0  0  0  0  0  0  0  0  0  0
   -5.0140    4.5953   -8.4015 H   0  0  0  0  0  0  0  0  0  0  0  0
   -4.7794    5.1983   -9.8386 H   0  0  0  0  0  0  0  0  0  0  0  0
   -7.1209    6.3910   -7.7644 H   0  0  0  0  0  0  0  0  0  0  0  0
   -8.1949    5.4589   -6.6697 H   0  0  0  0  0  0  0  0  0  0  0  0
   -6.1306    5.4327  -10.7603 H   0  0  0  0  0  0  0  0  0  0  0  0
  -11.9632    2.3903  -10.3787 H   0  0  0  0  0  0  0  0  0  0  0  0
  -14.0138    5.8833  -10.5116 H   0  0  0  0  0  0  0  0  0  0  0  0
  -12.6780    6.8656   -9.9020 H   0  0  0  0  0  0  0  0  0  0  0  0
  -10.8792    6.6337  -12.4874 H   0  0  0  0  0  0  0  0  0  0  0  0
  -11.0039    7.7320  -11.0706 H   0  0  0  0  0  0  0  0  0  0  0  0
  -10.0841    3.8175  -11.2399 H   0  0  0  0  0  0  0  0  0  0  0  0
  -11.5505    3.6662  -12.0479 H   0  0  0  0  0  0  0  0  0  0  0  0
   -9.8968    7.5283  -13.9422 H   0  0  0  0  0  0  0  0  0  0  0  0
   -7.6262    8.1075  -12.6185 H   0  0  0  0  0  0  0  0  0  0  0  0
   -7.2887    7.0023  -14.0799 H   0  0  0  0  0  0  0  0  0  0  0  0
   -7.6279    4.0790   -8.2894 H   0  0  0  0  0  0  0  0  0  0  0  0
   -7.3253    7.3866   -9.5465 H   0  0  0  0  0  0  0  0  0  0  0  0
   -8.0650    7.2762   -9.9424 H   0  0  0  0  0  0  0  0  0  0  0  0
   -6.0076    2.9812  -13.2137 H   0  0  0  0  0  0  0  0  0  0  0  0
   -4.8391    2.5643  -13.0884 H   0  0  0  0  0  0  0  0  0  0  0  0
   -6.3078    1.4083  -13.0235 H   0  0  0  0  0  0  0  0  0  0  0  0
   -4.9415    4.7447  -11.4660 H   0  0  0  0  0  0  0  0  0  0  0  0
   -4.2430    3.7653  -10.4256 H   0  0  0  0  0  0  0  0  0  0  0  0
   -4.1683    3.6867  -12.0477 H   0  0  0  0  0  0  0  0  0  0  0  0
   -5.9151    1.0527   -9.6961 H   0  0  0  0  0  0  0  0  0  0  0  0
   -3.4050    6.5907   -5.6783 H   0  0  0  0  0  0  0  0  0  0  0  0
   -2.7312    4.8286   -4.2709 H   0  0  0  0  0  0  0  0  0  0  0  0
   -4.4810    6.1624   -3.4589 H   0  0  0  0  0  0  0  0  0  0  0  0
   -5.7189    6.6529   -4.6671 H   0  0  0  0  0  0  0  0  0  0  0  0
   -5.5274    4.9660   -4.1320 H   0  0  0  0  0  0  0  0  0  0  0  0
   -7.4524    2.5368   -8.7918 H   0  0  0  0  0  0  0  0  0  0  0  0
   -9.2549    4.1803  -15.6298 H   0  0  0  0  0  0  0  0  0  0  0  0
   -9.5357    6.0097  -15.8180 H   0  0  0  0  0  0  0  0  0  0  0  0
   -8.1121    5.4489  -15.1140 H   0  0  0  0  0  0  0  0  0  0  0  0
  -11.8197    4.8482  -13.2977 H   0  0  0  0  0  0  0  0  0  0  0  0
  -11.6737    5.5081  -14.9397 H   0  0  0  0  0  0  0  0  0  0  0  0
  -11.4712    3.8210  -14.4695 H   0  0  0  0  0  0  0  0  0  0  0  0
   -8.6837    4.3130  -10.5190 H   0  0  0  0  0  0  0  0  0  0  0  0
   -8.5505    3.9606  -11.5452 H   0  0  0  0  0  0  0  0  0  0  0  0
   -9.2222    5.3246  -11.9909 H   0  0  0  0  0  0  0  0  0  0  0  0
   -9.8813    3.9142   -9.3069 H   0  0  0  0  0  0  0  0  0  0  0  0
  -11.4459    6.4315   -6.2778 H   0  0  0  0  0  0  0  0  0  0  0  0
  -11.4452    4.6489   -5.8330 H   0  0  0  0  0  0  0  0  0  0  0  0
  -10.2509    5.6893   -5.0549 H   0  0  0  0  0  0  0  0  0  0  0  0
   -4.9656    6.1878  -12.5200 H   0  0  0  0  0  0  0  0  0  0  0  0
   -5.2926    5.4479  -15.4592 H   0  0  0  0  0  0  0  0  0  0  0  0
   -3.3579    7.0125  -13.4498 H   0  0  0  0  0  0  0  0  0  0  0  0
   -3.5820    6.5559  -16.4674 H   0  0  0  0  0  0  0  0  0  0  0  0
   -2.0971    8.6450  -16.1423 H   0  0  0  0  0  0  0  0  0  0  0  0
   -1.6406    8.0477  -14.5380 H   0  0  0  0  0  0  0  0  0  0  0  0
    0.1241    7.5217  -16.1590 H   0  0  0  0  0  0  0  0  0  0  0  0
   -0.6019    6.0279  -15.5441 H   0  0  0  0  0  0  0  0  0  0  0  0
   -1.3234    7.3898  -18.1889 H   0  0  0  0  0  0  0  0  0  0  0  0
   -0.3205    5.9251  -18.0111 H   0  0  0  0  0  0  0  0  0  0  0  0
   -2.0270    5.8751  -17.5983 H   0  0  0  0  0  0  0  0  0  0  0  0
   -8.8407    2.7270  -14.2748 H   0  0  0  0  0  0  0  0  0  0  0  0
  -12.0215    6.9006  -13.7763 H   0  0  0  0  0  0  0  0  0  0  0  0
  -16.4350    6.2226  -12.9987 H   0  0  0  0  0  0  0  0  0  0  0  0
  -16.1348    4.4288  -12.8629 H   0  0  0  0  0  0  0  0  0  0  0  0
  -16.4230    5.4264  -11.4048 H   0  0  0  0  0  0  0  0  0  0  0  0
  1  4  1  0  0  0  0
  1 14  2  0  0  0  0
  1 70  1  0  0  0  0
  2  6  1  0  0  0  0
  3  2  1  0  0  0  0
  3 13  1  0  0  0  0
  3 32  1  6  0  0  0
  4  3  1  0  0  0  0
  4 30  1  0  0  0  0
  4 31  1  0  0  0  0
  5 10  1  0  0  0  0
  5 71  1  0  0  0  0
  5 72  1  0  0  0  0
  6  5  1  0  0  0  0
  6 33  1  6  0  0  0
  7 73  1  0  0  0  0
  7 74  1  0  0  0  0
  8  7  1  0  0  0  0
  8 35  2  0  0  0  0
  9  8  1  0  0  0  0
 10  9  1  0  0  0  0
 10 34  1  6  0  0  0
 11  6  1  0  0  0  0
 11 75  1  0  0  0  0
 11 76  1  0  0  0  0
 12 11  1  0  0  0  0
 12 47  2  0  0  0  0
 13 12  1  0  0  0  0
 13 77  1  1  0  0  0
 13 52  1  0  0  0  0
 14 78  1  0  0  0  0
 15 14  1  0  0  0  0
 15 20  1  0  0  0  0
 15 63  1  6  0  0  0
 16 15  1  0  0  0  0
 16 79  1  0  0  0  0
 16 80  1  0  0  0  0
 17 16  1  0  0  0  0
 17 65  2  0  0  0  0
 18 17  1  0  0  0  0
 18 81  1  0  0  0  0
 18 82  1  0  0  0  0
 19 18  1  0  0  0  0
 19 21  1  0  0  0  0
 19 64  1  6  0  0  0
 20 19  1  0  0  0  0
 21 83  1  0  0  0  0
 21 84  1  0  0  0  0
 22 21  1  0  0  0  0
 22 24  1  0  0  0  0
 22 62  1  6  0  0  0
 23 22  1  0  0  0  0
 23 27  1  0  0  0  0
 24 40  1  0  0  0  0
 24 41  1  0  0  0  0
 25 24  1  0  0  0  0
 25 42  1  0  0  0  0
 25 85  1  6  0  0  0
 26 25  1  0  0  0  0
 26 86  1  0  0  0  0
 26 87  1  0  0  0  0
 27 26  1  0  0  0  0
 27 29  1  0  0  0  0
 27 46  1  6  0  0  0
 28  7  1  0  0  0  0
 28 29  1  0  0  0  0
 28 88  1  1  0  0  0
 28 39  1  0  0  0  0
 29 89  1  0  0  0  0
 29 90  1  0  0  0  0
 30 91  1  0  0  0  0
 30 92  1  0  0  0  0
 30 93  1  0  0  0  0
 31 94  1  0  0  0  0
 31 95  1  0  0  0  0
 31 96  1  0  0  0  0
 32 97  1  0  0  0  0
 36 38  1  0  0  0  0
 36 98  1  6  0  0  0
 36 37  1  0  0  0  0
 36 10  1  0  0  0  0
 37 99  1  0  0  0  0
 38100  1  0  0  0  0
 38101  1  0  0  0  0
 38102  1  0  0  0  0
 39103  1  0  0  0  0
 40104  1  0  0  0  0
 40105  1  0  0  0  0
 40106  1  0  0  0  0
 41107  1  0  0  0  0
 41108  1  0  0  0  0
 41109  1  0  0  0  0
 42 43  1  0  0  0  0
 43 44  1  0  0  0  0
 43 45  2  0  0  0  0
 44110  1  0  0  0  0
 44111  1  0  0  0  0
 44112  1  0  0  0  0
 47 48  1  0  0  0  0
 47113  1  0  0  0  0
 48 49  2  0  0  0  0
 48 50  1  0  0  0  0
 50 51  1  0  0  0  0
 51114  1  0  0  0  0
 51115  1  0  0  0  0
 51116  1  0  0  0  0
 52 53  1  0  0  0  0
 53 54  1  0  0  0  0
 53 60  2  0  0  0  0
 54 55  2  0  0  0  0
 54117  1  0  0  0  0
 55 56  1  0  0  0  0
 55118  1  0  0  0  0
 56 57  2  0  0  0  0
 56119  1  0  0  0  0
 57 58  1  0  0  0  0
 57120  1  0  0  0  0
 58 59  1  0  0  0  0
 58121  1  0  0  0  0
 58122  1  0  0  0  0
 59 61  1  0  0  0  0
 59123  1  0  0  0  0
 59124  1  0  0  0  0
 61125  1  0  0  0  0
 61126  1  0  0  0  0
 61127  1  0  0  0  0
 62128  1  0  0  0  0
 65 66  1  0  0  0  0
 65129  1  0  0  0  0
 66 67  2  0  0  0  0
 66 68  1  0  0  0  0
 68 69  1  0  0  0  0
 69130  1  0  0  0  0
 69131  1  0  0  0  0
 69132  1  0  0  0  0
M  END
>  <DRUGBANK_ID>
DB11752

>  <COMMON_NAME>
Bryostatin 1

>  <CAS_NUMBER>
83314-01-6

>  <UNII>
37O2X55Y9E

>  <SYNONYMS>
Bryostatin-1

$$$$
