
 OpenBabel10282417143D

136140  0  0  0  0  0  0  0  0999 V2000
    0.9154    0.0010   -0.0539 Mg  0  2  0  0  0  0  0  0  0  0  0  0
   13.0351   10.3356   -2.2801 C   0  0  0  0  0  0  0  0  0  0  0  0
   12.2386   11.3443   -3.5668 C   0  0  0  0  0  0  0  0  0  0  0  0
   10.1715   11.6149   -3.6799 C   0  0  0  0  0  0  0  0  0  0  0  0
   10.2494   10.1998   -3.5341 C   0  0  0  0  0  0  0  0  0  0  0  0
   10.7005    8.8366   -2.7292 C   0  0  0  0  0  0  0  0  0  0  0  0
    9.8754    7.9730   -2.3891 O   0  0  0  0  0  0  0  0  0  0  0  0
    9.1358   10.2244   -4.3226 C   0  0  0  0  0  0  0  0  0  0  0  0
    8.1287    9.4271   -4.1297 C   0  0  0  0  0  0  0  0  0  0  0  0
    6.9117    9.8487   -4.8067 C   0  0  0  0  0  0  0  0  0  0  0  0
    5.8219   10.1818   -4.0896 C   0  0  0  0  0  0  0  0  0  0  0  0
    5.5690   10.2377   -2.6278 C   0  0  0  0  0  0  0  0  0  0  0  0
    6.5061    9.9178   -1.7484 C   0  0  0  0  0  0  0  0  0  0  0  0
    4.9027   10.5322   -5.0101 C   0  0  0  0  0  0  0  0  0  0  0  0
    5.4559   10.4779   -6.2692 C   0  0  0  0  0  0  0  0  0  0  0  0
    6.7272   10.0546   -6.1282 N   0  5  0  0  0  0  0  0  0  0  0  0
    4.6927   10.7682   -7.5797 C   0  0  0  0  0  0  0  0  0  0  0  0
    3.4039   11.1993   -7.7098 C   0  0  0  0  0  0  0  0  0  0  0  0
    2.5890   11.5764   -6.7288 N   0  0  0  0  0  0  0  0  0  0  0  0
    1.3294   11.5285   -6.7980 C   0  0  0  0  0  0  0  0  0  0  0  0
    1.0808   11.2901   -8.1977 C   0  0  1  0  0  0  0  0  0  0  0  0
    0.0809   12.2524   -8.7186 C   0  0  0  0  0  0  0  0  0  0  0  0
   -0.0672   11.9967  -10.1877 C   0  0  0  0  0  0  0  0  0  0  0  0
   -0.5354   10.5773  -10.4786 C   0  0  0  0  0  0  0  0  0  0  0  0
   -1.5913   10.3862  -11.0518 O   0  0  0  0  0  0  0  0  0  0  0  0
    0.2848    9.5758  -10.0625 O   0  0  0  0  0  0  0  0  0  0  0  0
   -0.0964    8.2227  -10.2555 C   0  0  0  0  0  0  0  0  0  0  0  0
   -1.3961    7.9628   -9.6539 C   0  0  0  0  0  0  0  0  0  0  0  0
   -2.4242    7.4783  -10.3670 C   0  0  0  0  0  0  0  0  0  0  0  0
   -2.3943    7.3413  -11.8169 C   0  0  0  0  0  0  0  0  0  0  0  0
   -3.6721    7.1052   -9.7294 C   0  0  0  0  0  0  0  0  0  0  0  0
   -3.6700    6.1246   -8.6186 C   0  0  0  0  0  0  0  0  0  0  0  0
   -2.7199    6.5388   -7.5341 C   0  0  0  0  0  0  0  0  0  0  0  0
   -3.2456    7.8186   -6.9071 C   0  0  2  0  0  0  0  0  0  0  0  0
   -2.6036    8.0843   -5.6210 C   0  0  0  0  0  0  0  0  0  0  0  0
   -4.6841    7.7306   -6.5432 C   0  0  0  0  0  0  0  0  0  0  0  0
   -5.1771    9.0380   -5.9756 C   0  0  0  0  0  0  0  0  0  0  0  0
   -4.9940   10.1900   -6.9488 C   0  0  0  0  0  0  0  0  0  0  0  0
   -5.8243    9.9762   -8.1938 C   0  0  2  0  0  0  0  0  0  0  0  0
   -7.0874    9.1933   -7.9174 C   0  0  0  0  0  0  0  0  0  0  0  0
   -5.0739    9.2530   -9.2123 C   0  0  0  0  0  0  0  0  0  0  0  0
   -5.7557    8.8881  -10.4998 C   0  0  0  0  0  0  0  0  0  0  0  0
   -6.0891   10.1688  -11.1598 C   0  0  0  0  0  0  0  0  0  0  0  0
   -4.8252   10.9512  -11.4887 C   0  0  0  0  0  0  0  0  0  0  0  0
   -3.9825   10.1779  -12.4519 C   0  0  0  0  0  0  0  0  0  0  0  0
   -5.1869   12.2511  -12.1207 C   0  0  0  0  0  0  0  0  0  0  0  0
    2.5304   11.4936   -8.8393 C   0  0  2  0  0  0  0  0  0  0  0  0
    2.8035   10.6550  -10.0326 C   0  0  0  0  0  0  0  0  0  0  0  0
    0.4520   11.8512   -5.6720 C   0  0  0  0  0  0  0  0  0  0  0  0
    1.0763   12.8498   -4.8616 C   0  0  0  0  0  0  0  0  0  0  0  0
    2.5509   13.7386   -4.7110 N   0  5  0  0  0  0  0  0  0  0  0  0
    3.9565   13.3072   -3.7100 C   0  0  0  0  0  0  0  0  0  0  0  0
    5.8997   12.9406   -3.9467 C   0  0  0  0  0  0  0  0  0  0  0  0
    8.1432   12.3741   -4.0214 C   0  0  0  0  0  0  0  0  0  0  0  0
    8.8635   11.4439   -5.0410 N   0  0  0  0  0  0  0  0  0  0  0  0
    1.8406   13.1999   -3.0315 C   0  0  0  0  0  0  0  0  0  0  0  0
    0.3411   12.7442   -3.6610 C   0  0  0  0  0  0  0  0  0  0  0  0
   -1.1970   11.5881   -4.1149 C   0  0  0  0  0  0  0  0  0  0  0  0
   -2.3224   11.2231   -3.6327 O   0  0  0  0  0  0  0  0  0  0  0  0
   -0.7509   10.8417   -5.3559 C   0  0  2  0  0  0  0  0  0  0  0  0
   -0.2040    9.3637   -5.0462 C   0  0  0  0  0  0  0  0  0  0  0  0
   -0.1840    8.3883   -5.8060 O   0  0  0  0  0  0  0  0  0  0  0  0
    0.4368    9.1957   -3.8749 O   0  0  0  0  0  0  0  0  0  0  0  0
    0.8823    7.8319   -3.6948 C   0  0  0  0  0  0  0  0  0  0  0  0
   -0.1900   13.6267   -2.3781 C   0  0  0  0  0  0  0  0  0  0  0  0
    3.6287   10.8456   -4.5322 C   0  0  0  0  0  0  0  0  0  0  0  0
   11.6514    8.6305   -2.2336 H   0  0  0  0  0  0  0  0  0  0  0  0
   12.4411   10.5609   -1.4146 H   0  0  0  0  0  0  0  0  0  0  0  0
   14.1165   10.4480   -1.9782 H   0  0  0  0  0  0  0  0  0  0  0  0
   13.0809    9.2659   -2.5192 H   0  0  0  0  0  0  0  0  0  0  0  0
   12.9027   12.2056   -3.2883 H   0  0  0  0  0  0  0  0  0  0  0  0
   13.2295   10.8369   -4.3234 H   0  0  0  0  0  0  0  0  0  0  0  0
    8.1579    8.6239   -3.4243 H   0  0  0  0  0  0  0  0  0  0  0  0
    4.5882   10.5604   -2.2804 H   0  0  0  0  0  0  0  0  0  0  0  0
    6.3396    9.9244   -0.6988 H   0  0  0  0  0  0  0  0  0  0  0  0
    7.4888    9.6431   -2.0562 H   0  0  0  0  0  0  0  0  0  0  0  0
    5.2927   10.6111   -8.4767 H   0  0  0  0  0  0  0  0  0  0  0  0
    0.7807   10.2633   -8.2693 H   0  0  0  0  0  0  0  0  0  0  0  0
   -0.8664   12.0922   -8.2048 H   0  0  0  0  0  0  0  0  0  0  0  0
    0.4068   13.2814   -8.5185 H   0  0  0  0  0  0  0  0  0  0  0  0
   -0.7973   12.7046  -10.5869 H   0  0  0  0  0  0  0  0  0  0  0  0
    0.8573   12.2312  -10.7105 H   0  0  0  0  0  0  0  0  0  0  0  0
   -0.1006    8.0453  -11.3105 H   0  0  0  0  0  0  0  0  0  0  0  0
    0.6381    7.5168   -9.8495 H   0  0  0  0  0  0  0  0  0  0  0  0
   -1.4443    8.1783   -8.5922 H   0  0  0  0  0  0  0  0  0  0  0  0
   -2.6657    6.3465  -12.0956 H   0  0  0  0  0  0  0  0  0  0  0  0
   -3.0483    7.9648  -12.3737 H   0  0  0  0  0  0  0  0  0  0  0  0
   -1.4380    7.5909  -12.2150 H   0  0  0  0  0  0  0  0  0  0  0  0
   -3.6434    8.0531   -9.2923 H   0  0  0  0  0  0  0  0  0  0  0  0
   -4.5521    6.9410  -10.3441 H   0  0  0  0  0  0  0  0  0  0  0  0
   -4.6551    5.9648   -8.1704 H   0  0  0  0  0  0  0  0  0  0  0  0
   -3.3787    5.2204   -9.1001 H   0  0  0  0  0  0  0  0  0  0  0  0
   -2.5853    5.7545   -6.8104 H   0  0  0  0  0  0  0  0  0  0  0  0
   -1.7178    6.6214   -7.9403 H   0  0  0  0  0  0  0  0  0  0  0  0
   -3.0351    8.6743   -7.5762 H   0  0  0  0  0  0  0  0  0  0  0  0
   -2.9815    8.8343   -4.9482 H   0  0  0  0  0  0  0  0  0  0  0  0
   -2.2857    7.1930   -5.0931 H   0  0  0  0  0  0  0  0  0  0  0  0
   -1.8915    8.7072   -6.0616 H   0  0  0  0  0  0  0  0  0  0  0  0
   -5.2923    7.4499   -7.3768 H   0  0  0  0  0  0  0  0  0  0  0  0
   -4.8333    6.8910   -5.8854 H   0  0  0  0  0  0  0  0  0  0  0  0
   -6.2178    8.9351   -5.6965 H   0  0  0  0  0  0  0  0  0  0  0  0
   -4.6846    9.2526   -5.0454 H   0  0  0  0  0  0  0  0  0  0  0  0
   -5.3396   11.1108   -6.4952 H   0  0  0  0  0  0  0  0  0  0  0  0
   -3.9311   10.3298   -7.1810 H   0  0  0  0  0  0  0  0  0  0  0  0
   -6.0405   10.9153   -8.6648 H   0  0  0  0  0  0  0  0  0  0  0  0
   -7.7720    9.9587   -7.6281 H   0  0  0  0  0  0  0  0  0  0  0  0
   -7.4514    8.6522   -8.7760 H   0  0  0  0  0  0  0  0  0  0  0  0
   -7.0666    8.4166   -7.1499 H   0  0  0  0  0  0  0  0  0  0  0  0
   -4.0758    9.6987   -9.3939 H   0  0  0  0  0  0  0  0  0  0  0  0
   -5.0360    8.3357   -8.6849 H   0  0  0  0  0  0  0  0  0  0  0  0
   -5.1562    8.2972  -11.1905 H   0  0  0  0  0  0  0  0  0  0  0  0
   -6.6075    8.2501  -10.2975 H   0  0  0  0  0  0  0  0  0  0  0  0
   -6.6556    9.9505  -12.0547 H   0  0  0  0  0  0  0  0  0  0  0  0
   -6.7139   10.7434  -10.4839 H   0  0  0  0  0  0  0  0  0  0  0  0
   -4.2429   11.1493  -10.5829 H   0  0  0  0  0  0  0  0  0  0  0  0
   -4.5164    9.9041  -13.3568 H   0  0  0  0  0  0  0  0  0  0  0  0
   -3.0521   10.6724  -12.7004 H   0  0  0  0  0  0  0  0  0  0  0  0
   -3.7369    9.2981  -11.9183 H   0  0  0  0  0  0  0  0  0  0  0  0
   -5.7958   12.8356  -11.4347 H   0  0  0  0  0  0  0  0  0  0  0  0
   -4.2815   12.8065  -12.3653 H   0  0  0  0  0  0  0  0  0  0  0  0
   -5.7502   12.0645  -13.0362 H   0  0  0  0  0  0  0  0  0  0  0  0
    2.6710   12.5471   -9.0942 H   0  0  0  0  0  0  0  0  0  0  0  0
    2.1176   10.9147  -10.8264 H   0  0  0  0  0  0  0  0  0  0  0  0
    3.8029   10.8436  -10.4074 H   0  0  0  0  0  0  0  0  0  0  0  0
    2.6834    9.5999   -9.7996 H   0  0  0  0  0  0  0  0  0  0  0  0
    7.1416   13.4946   -4.5905 H   0  0  0  0  0  0  0  0  0  0  0  0
   -1.5224   10.7583   -6.1830 H   0  0  0  0  0  0  0  0  0  0  0  0
    0.0234    7.1817   -3.4800 H   0  0  0  0  0  0  0  0  0  0  0  0
    1.4271    7.4150   -4.5583 H   0  0  0  0  0  0  0  0  0  0  0  0
    1.5512    7.8161   -2.8384 H   0  0  0  0  0  0  0  0  0  0  0  0
   -1.6623   13.6274   -2.7808 H   0  0  0  0  0  0  0  0  0  0  0  0
   -1.1932   12.8160   -1.6908 H   0  0  0  0  0  0  0  0  0  0  0  0
   -1.1674   14.4139   -1.6511 H   0  0  0  0  0  0  0  0  0  0  0  0
    2.9701   10.1364   -4.1481 H   0  0  0  0  0  0  0  0  0  0  0  0
    3.4846   11.7227   -4.0635 H   0  0  0  0  0  0  0  0  0  0  0  0
    3.1361   11.1259   -5.3176 H   0  0  0  0  0  0  0  0  0  0  0  0
  2  3  1  0  0  0  0
  2 68  1  0  0  0  0
  2 69  1  0  0  0  0
  2 70  1  0  0  0  0
  3  4  1  0  0  0  0
  3 71  1  0  0  0  0
  3 72  1  0  0  0  0
  4  5  2  0  0  0  0
  4 54  1  0  0  0  0
  5  6  1  0  0  0  0
  5  8  1  0  0  0  0
  6  7  2  0  0  0  0
  6 67  1  0  0  0  0
  8  9  2  0  0  0  0
  8 55  1  0  0  0  0
  9 10  1  0  0  0  0
  9 73  1  0  0  0  0
 10 11  2  0  0  0  0
 10 16  1  0  0  0  0
 11 12  1  0  0  0  0
 11 14  1  0  0  0  0
 12 13  2  0  0  0  0
 12 74  1  0  0  0  0
 13 75  1  0  0  0  0
 13 76  1  0  0  0  0
 14 15  2  0  0  0  0
 14 66  1  0  0  0  0
 15 16  1  0  0  0  0
 15 17  1  0  0  0  0
 17 18  2  0  0  0  0
 17 77  1  0  0  0  0
 18 19  1  0  0  0  0
 18 47  1  0  0  0  0
 19 20  2  0  0  0  0
 20 21  1  0  0  0  0
 20 49  1  0  0  0  0
 21 22  1  0  0  0  0
 21 47  1  0  0  0  0
 21 78  1  6  0  0  0
 22 23  1  0  0  0  0
 22 79  1  0  0  0  0
 22 80  1  0  0  0  0
 23 24  1  0  0  0  0
 23 81  1  0  0  0  0
 23 82  1  0  0  0  0
 24 25  2  0  0  0  0
 24 26  1  0  0  0  0
 26 27  1  0  0  0  0
 27 28  1  0  0  0  0
 27 83  1  0  0  0  0
 27 84  1  0  0  0  0
 28 29  2  0  0  0  0
 28 85  1  0  0  0  0
 29 30  1  0  0  0  0
 29 31  1  0  0  0  0
 30 86  1  0  0  0  0
 30 87  1  0  0  0  0
 30 88  1  0  0  0  0
 31 32  1  0  0  0  0
 31 89  1  0  0  0  0
 31 90  1  0  0  0  0
 32 33  1  0  0  0  0
 32 91  1  0  0  0  0
 32 92  1  0  0  0  0
 33 93  1  0  0  0  0
 33 94  1  0  0  0  0
 34 36  1  0  0  0  0
 34 95  1  6  0  0  0
 34 35  1  0  0  0  0
 34 33  1  0  0  0  0
 35 96  1  0  0  0  0
 35 97  1  0  0  0  0
 35 98  1  0  0  0  0
 36 37  1  0  0  0  0
 36 99  1  0  0  0  0
 36100  1  0  0  0  0
 37 38  1  0  0  0  0
 37101  1  0  0  0  0
 37102  1  0  0  0  0
 38103  1  0  0  0  0
 38104  1  0  0  0  0
 39 41  1  0  0  0  0
 39105  1  6  0  0  0
 39 40  1  0  0  0  0
 39 38  1  0  0  0  0
 40106  1  0  0  0  0
 40107  1  0  0  0  0
 40108  1  0  0  0  0
 41 42  1  0  0  0  0
 41109  1  0  0  0  0
 41110  1  0  0  0  0
 42 43  1  0  0  0  0
 42111  1  0  0  0  0
 42112  1  0  0  0  0
 43 44  1  0  0  0  0
 43113  1  0  0  0  0
 43114  1  0  0  0  0
 44 45  1  0  0  0  0
 44 46  1  0  0  0  0
 44115  1  0  0  0  0
 45116  1  0  0  0  0
 45117  1  0  0  0  0
 45118  1  0  0  0  0
 46119  1  0  0  0  0
 46120  1  0  0  0  0
 46121  1  0  0  0  0
 47 48  1  0  0  0  0
 47122  1  6  0  0  0
 48123  1  0  0  0  0
 48124  1  0  0  0  0
 48125  1  0  0  0  0
 49 50  2  0  0  0  0
 49 60  1  0  0  0  0
 50 51  1  0  0  0  0
 50 57  1  0  0  0  0
 51 52  1  0  0  0  0
 52 53  2  0  0  0  0
 52 56  1  0  0  0  0
 53 54  1  0  0  0  0
 53126  1  0  0  0  0
 54 55  2  0  0  0  0
 56 57  2  0  0  0  0
 56 65  1  0  0  0  0
 57 58  1  0  0  0  0
 58 59  2  0  0  0  0
 58 60  1  0  0  0  0
 60 61  1  0  0  0  0
 60127  1  6  0  0  0
 61 62  2  0  0  0  0
 61 63  1  0  0  0  0
 63 64  1  0  0  0  0
 64128  1  0  0  0  0
 64129  1  0  0  0  0
 64130  1  0  0  0  0
 65131  1  0  0  0  0
 65132  1  0  0  0  0
 65133  1  0  0  0  0
 66134  1  0  0  0  0
 66135  1  0  0  0  0
 66136  1  0  0  0  0
M  CHG  3   1   2  16  -1  51  -1
M  END
>  <DRUGBANK_ID>
DB04506

>  <SECONDARY_ACCESSION_NUMBERS>
EXPT00908

>  <COMMON_NAME>
Chlorophyll B

>  <CAS_NUMBER>
519-62-0

>  <UNII>
5712ZB110R

$$$$
