3MS
 OpenBabel10282417163D

 56 59  0  0  0  0  0  0  0  0999 V2000
   -1.2623   -1.4314    0.0217 C   0  0  0  0  0  0  0  0  0  0  0  0
    5.3690    2.8185   -1.1732 C   0  0  0  0  0  0  0  0  0  0  0  0
   -1.3548    0.6786    0.4821 C   0  0  0  0  0  0  0  0  0  0  0  0
    4.9786    0.7940    0.1819 C   0  0  0  0  0  0  0  0  0  0  0  0
    4.6893    3.5405   -0.1763 C   0  0  0  0  0  0  0  0  0  0  0  0
    0.0663   -0.9573   -0.0713 C   0  0  0  0  0  0  0  0  0  0  0  0
    4.2843   -1.0952   -0.5619 C   0  0  0  0  0  0  0  0  0  0  0  0
   -1.9629    3.7099    0.0940 C   0  0  0  0  0  0  0  0  0  0  0  0
    4.6796    6.8198    1.7501 C   0  0  0  0  0  0  0  0  0  0  0  0
   -1.3379    3.1094   -1.1803 C   0  0  0  0  0  0  0  0  0  0  0  0
    2.8449    6.7716   -0.1162 O   0  0  0  0  0  0  0  0  0  0  0  0
    3.5421    5.8751    0.7748 S   0  0  0  0  0  0  0  0  0  0  0  0
    2.7896    5.0983    1.7361 O   0  0  0  0  0  0  0  0  0  0  0  0
    4.6197    4.9667   -0.1856 N   0  0  0  0  0  0  0  0  0  0  0  0
    4.1106    2.8409    0.8820 C   0  0  0  0  0  0  0  0  0  0  0  0
    5.3822    1.4220   -1.0391 C   0  0  0  0  0  0  0  0  0  0  0  0
    5.7868    0.3308   -2.3828 S   0  0  0  0  0  0  0  0  0  0  0  0
    4.8702    0.2329   -3.4631 O   0  0  0  0  0  0  0  0  0  0  0  0
    7.2216    0.5800   -2.6216 O   0  0  0  0  0  0  0  0  0  0  0  0
    5.4840   -1.1242   -1.5083 N   0  0  0  0  0  0  0  0  0  0  0  0
    4.8813   -0.5841    0.4637 N   0  0  0  0  0  0  0  0  0  0  0  0
    4.2800    1.5096    1.0951 C   0  0  0  0  0  0  0  0  0  0  0  0
    2.5355   -0.8029   -0.6207 C   0  0  0  0  0  0  0  0  0  0  0  0
    1.4063   -1.5294   -0.2497 C   0  0  0  0  0  0  0  0  0  0  0  0
    1.3003   -2.8691    0.0295 O   0  0  0  0  0  0  0  0  0  0  0  0
    2.0849    0.6754   -0.7791 C   0  0  0  0  0  0  0  0  0  0  0  0
    2.7327    1.3875   -1.5438 O   0  0  0  0  0  0  0  0  0  0  0  0
    1.0126    1.2348   -0.0385 N   0  0  0  0  0  0  0  0  0  0  0  0
   -0.0505    0.3817    0.1731 N   0  0  0  0  0  0  0  0  0  0  0  0
   -2.1505   -0.3280   -0.0045 C   0  0  0  0  0  0  0  0  0  0  0  0
    0.8907    2.7201   -0.0445 C   0  0  0  0  0  0  0  0  0  0  0  0
    0.1545    3.3752   -1.2294 C   0  0  0  0  0  0  0  0  0  0  0  0
   -2.1312    3.5339   -2.3901 C   0  0  0  0  0  0  0  0  0  0  0  0
   -1.6145   -2.4520    0.0554 H   0  0  0  0  0  0  0  0  0  0  0  0
    5.8295    3.2943   -2.0383 H   0  0  0  0  0  0  0  0  0  0  0  0
   -1.7032    1.6062    0.8765 H   0  0  0  0  0  0  0  0  0  0  0  0
   -1.9780    4.7993    0.0629 H   0  0  0  0  0  0  0  0  0  0  0  0
   -2.9831    3.3370    0.2326 H   0  0  0  0  0  0  0  0  0  0  0  0
   -1.4165    3.4732    1.0148 H   0  0  0  0  0  0  0  0  0  0  0  0
    5.2188    7.5107    1.1055 H   0  0  0  0  0  0  0  0  0  0  0  0
    4.0835    7.3689    2.4842 H   0  0  0  0  0  0  0  0  0  0  0  0
    5.3566    6.1455    2.2806 H   0  0  0  0  0  0  0  0  0  0  0  0
   -1.4261    2.0325   -1.2651 H   0  0  0  0  0  0  0  0  0  0  0  0
    4.9701    5.4540   -1.0112 H   0  0  0  0  0  0  0  0  0  0  0  0
    3.3716    3.2332    1.5487 H   0  0  0  0  0  0  0  0  0  0  0  0
    6.3584   -1.1042   -0.9160 H   0  0  0  0  0  0  0  0  0  0  0  0
    3.6737    0.9843    1.8268 H   0  0  0  0  0  0  0  0  0  0  0  0
    2.1139   -3.3468   -0.1572 H   0  0  0  0  0  0  0  0  0  0  0  0
   -3.2361   -0.2785   -0.1281 H   0  0  0  0  0  0  0  0  0  0  0  0
    0.5466    3.0765    0.9340 H   0  0  0  0  0  0  0  0  0  0  0  0
    1.8927    3.1304   -0.1296 H   0  0  0  0  0  0  0  0  0  0  0  0
    0.3159    4.4617   -1.2099 H   0  0  0  0  0  0  0  0  0  0  0  0
    0.5865    3.0103   -2.1681 H   0  0  0  0  0  0  0  0  0  0  0  0
   -1.6959    3.1094   -3.2993 H   0  0  0  0  0  0  0  0  0  0  0  0
   -3.1463    3.1262   -2.2926 H   0  0  0  0  0  0  0  0  0  0  0  0
   -2.1813    4.6181   -2.4631 H   0  0  0  0  0  0  0  0  0  0  0  0
  1  6  2  0  0  0  0
  1 30  1  0  0  0  0
  1 34  1  0  0  0  0
  2  5  2  0  0  0  0
  2 16  1  0  0  0  0
  2 35  1  0  0  0  0
  3 29  1  0  0  0  0
  3 30  2  0  0  0  0
  3 36  1  0  0  0  0
  4 16  2  0  0  0  0
  4 21  1  0  0  0  0
  4 22  1  0  0  0  0
  5 14  1  0  0  0  0
  5 15  1  0  0  0  0
  6 24  1  0  0  0  0
  6 29  1  0  0  0  0
  7 20  1  0  0  0  0
  7 21  2  0  0  0  0
  7 23  1  0  0  0  0
  8 10  1  0  0  0  0
  8 37  1  0  0  0  0
  8 38  1  0  0  0  0
  8 39  1  0  0  0  0
  9 12  1  0  0  0  0
  9 40  1  0  0  0  0
  9 41  1  0  0  0  0
  9 42  1  0  0  0  0
 10 32  1  0  0  0  0
 10 33  1  0  0  0  0
 10 43  1  0  0  0  0
 11 12  2  0  0  0  0
 12 13  2  0  0  0  0
 12 14  1  0  0  0  0
 14 44  1  0  0  0  0
 15 22  2  0  0  0  0
 15 45  1  0  0  0  0
 16 17  1  0  0  0  0
 17 18  2  0  0  0  0
 17 19  2  0  0  0  0
 17 20  1  0  0  0  0
 20 46  1  0  0  0  0
 22 47  1  0  0  0  0
 23 24  2  0  0  0  0
 23 26  1  0  0  0  0
 24 25  1  0  0  0  0
 25 48  1  0  0  0  0
 26 27  2  0  0  0  0
 26 28  1  0  0  0  0
 28 29  1  0  0  0  0
 28 31  1  0  0  0  0
 30 49  1  0  0  0  0
 31 32  1  0  0  0  0
 31 50  1  0  0  0  0
 31 51  1  0  0  0  0
 32 52  1  0  0  0  0
 32 53  1  0  0  0  0
 33 54  1  0  0  0  0
 33 55  1  0  0  0  0
 33 56  1  0  0  0  0
M  END
>  <DRUGBANK_ID>
DB07062

>  <COMMON_NAME>
N-{3-[4-Hydroxy-1-(3-methylbutyl)-2-oxo-1,2-dihydropyrrolo[1,2-b]pyridazin-3-yl]-1,1-dioxido-2H-1,2,4-benzothiadiazin-7-yl}methanesulfonamide

$$$$
