LI2
 OpenBabel10282417173D

 58 62  0  0  0  0  0  0  0  0999 V2000
    2.2063   -0.0552   -0.0659 F   0  0  0  0  0  0  0  0  0  0  0  0
    0.8684   -0.0170   -0.0224 C   0  0  0  0  0  0  0  0  0  0  0  0
    0.2321    1.2237   -0.0142 C   0  0  0  0  0  0  0  0  0  0  0  0
   -1.1438    1.3149    0.1557 C   0  0  0  0  0  0  0  0  0  0  0  0
   -1.8017    0.1146    0.4037 C   0  0  0  0  0  0  0  0  0  0  0  0
   -1.2406   -1.1454    0.1354 C   0  0  0  0  0  0  0  0  0  0  0  0
    0.1448   -1.2060   -0.0054 C   0  0  0  0  0  0  0  0  0  0  0  0
   -2.0577   -2.4123   -0.0023 C   0  0  0  0  0  0  0  0  0  0  0  0
   -1.4806   -3.4931    0.0039 O   0  0  0  0  0  0  0  0  0  0  0  0
   -3.4503   -2.4096   -0.0914 N   0  0  0  0  0  0  0  0  0  0  0  0
   -4.3262   -1.3262   -0.2525 C   0  0  0  0  0  0  0  0  0  0  0  0
   -4.0672   -0.3363   -1.2049 C   0  0  0  0  0  0  0  0  0  0  0  0
   -4.7063    0.9006   -1.1464 C   0  0  0  0  0  0  0  0  0  0  0  0
   -5.7172    1.0543   -0.2023 C   0  0  0  0  0  0  0  0  0  0  0  0
   -6.4980    2.1488    0.0665 N   0  0  0  0  0  0  0  0  0  0  0  0
   -7.4835    1.7878    0.9314 C   0  0  0  0  0  0  0  0  0  0  0  0
   -7.2052    0.5263    1.4255 C   0  0  0  0  0  0  0  0  0  0  0  0
   -7.9832   -0.2205    2.4671 C   0  0  0  0  0  0  0  0  0  0  0  0
   -8.0634    0.5121    3.8152 C   0  0  0  0  0  0  0  0  0  0  0  0
   -8.7465    1.8563    3.7144 C   0  0  0  0  0  0  0  0  0  0  0  0
   -8.0194    3.0335    3.9229 C   0  0  0  0  0  0  0  0  0  0  0  0
   -8.6309    4.2464    3.6494 C   0  0  0  0  0  0  0  0  0  0  0  0
   -9.8994    4.3653    3.2017 N   0  0  0  0  0  0  0  0  0  0  0  0
  -10.5895    3.2182    3.0231 C   0  0  0  0  0  0  0  0  0  0  0  0
  -10.0662    1.9576    3.2613 C   0  0  0  0  0  0  0  0  0  0  0  0
   -6.0925    0.0392    0.6782 C   0  0  0  0  0  0  0  0  0  0  0  0
   -5.3710   -1.1742    0.6674 C   0  0  0  0  0  0  0  0  0  0  0  0
   -1.8045    2.5158    0.0519 N   0  0  0  0  0  0  0  0  0  0  0  0
   -1.5974    3.3550   -1.1403 C   0  0  0  0  0  0  0  0  0  0  0  0
   -1.3764    4.7901   -0.6533 C   0  0  0  0  0  0  0  0  0  0  0  0
   -2.5011    5.2570    0.1194 O   0  0  0  0  0  0  0  0  0  0  0  0
   -2.7075    4.4131    1.2740 C   0  0  0  0  0  0  0  0  0  0  0  0
   -2.9572    2.9536    0.8547 C   0  0  0  0  0  0  0  0  0  0  0  0
    0.8298    2.1266   -0.0818 H   0  0  0  0  0  0  0  0  0  0  0  0
   -2.8228    0.1905    0.7357 H   0  0  0  0  0  0  0  0  0  0  0  0
    0.6711   -2.1538   -0.0765 H   0  0  0  0  0  0  0  0  0  0  0  0
   -3.8615   -3.3107    0.1274 H   0  0  0  0  0  0  0  0  0  0  0  0
   -3.2411   -0.4522   -1.9021 H   0  0  0  0  0  0  0  0  0  0  0  0
   -4.3578    1.7330   -1.7484 H   0  0  0  0  0  0  0  0  0  0  0  0
   -6.4258    3.0521   -0.3834 H   0  0  0  0  0  0  0  0  0  0  0  0
   -8.2806    2.4858    1.1427 H   0  0  0  0  0  0  0  0  0  0  0  0
   -8.9854   -0.4210    2.0694 H   0  0  0  0  0  0  0  0  0  0  0  0
   -7.5253   -1.2023    2.6396 H   0  0  0  0  0  0  0  0  0  0  0  0
   -8.6116   -0.1048    4.5370 H   0  0  0  0  0  0  0  0  0  0  0  0
   -7.0493    0.6364    4.2177 H   0  0  0  0  0  0  0  0  0  0  0  0
   -6.9746    3.0071    4.2150 H   0  0  0  0  0  0  0  0  0  0  0  0
   -8.0884    5.1808    3.7586 H   0  0  0  0  0  0  0  0  0  0  0  0
  -11.6004    3.3383    2.6445 H   0  0  0  0  0  0  0  0  0  0  0  0
  -10.6542    1.0761    3.0275 H   0  0  0  0  0  0  0  0  0  0  0  0
   -5.5712   -1.9269    1.4238 H   0  0  0  0  0  0  0  0  0  0  0  0
   -2.4963    3.3164   -1.7732 H   0  0  0  0  0  0  0  0  0  0  0  0
   -0.7577    3.0223   -1.7585 H   0  0  0  0  0  0  0  0  0  0  0  0
   -0.4763    4.8416   -0.0305 H   0  0  0  0  0  0  0  0  0  0  0  0
   -1.2468    5.4610   -1.5064 H   0  0  0  0  0  0  0  0  0  0  0  0
   -3.5740    4.8067    1.8147 H   0  0  0  0  0  0  0  0  0  0  0  0
   -1.8312    4.4821    1.9266 H   0  0  0  0  0  0  0  0  0  0  0  0
   -3.8574    2.9703    0.2370 H   0  0  0  0  0  0  0  0  0  0  0  0
   -3.1404    2.3227    1.7295 H   0  0  0  0  0  0  0  0  0  0  0  0
  1  2  1  0  0  0  0
  2  3  2  0  0  0  0
  2  7  1  0  0  0  0
  3  4  1  0  0  0  0
  3 34  1  0  0  0  0
  4  5  2  0  0  0  0
  4 28  1  0  0  0  0
  5  6  1  0  0  0  0
  5 35  1  0  0  0  0
  6  7  2  0  0  0  0
  6  8  1  0  0  0  0
  7 36  1  0  0  0  0
  8  9  2  0  0  0  0
  8 10  1  0  0  0  0
 10 11  1  0  0  0  0
 10 37  1  0  0  0  0
 11 12  2  0  0  0  0
 11 27  1  0  0  0  0
 12 13  1  0  0  0  0
 12 38  1  0  0  0  0
 13 14  2  0  0  0  0
 13 39  1  0  0  0  0
 14 15  1  0  0  0  0
 14 26  1  0  0  0  0
 15 16  1  0  0  0  0
 15 40  1  0  0  0  0
 16 17  2  0  0  0  0
 16 41  1  0  0  0  0
 17 18  1  0  0  0  0
 17 26  1  0  0  0  0
 18 19  1  0  0  0  0
 18 42  1  0  0  0  0
 18 43  1  0  0  0  0
 19 20  1  0  0  0  0
 19 44  1  0  0  0  0
 19 45  1  0  0  0  0
 20 21  2  0  0  0  0
 20 25  1  0  0  0  0
 21 22  1  0  0  0  0
 21 46  1  0  0  0  0
 22 23  2  0  0  0  0
 22 47  1  0  0  0  0
 23 24  1  0  0  0  0
 24 25  2  0  0  0  0
 24 48  1  0  0  0  0
 25 49  1  0  0  0  0
 26 27  2  0  0  0  0
 27 50  1  0  0  0  0
 28 29  1  0  0  0  0
 28 33  1  0  0  0  0
 29 30  1  0  0  0  0
 29 51  1  0  0  0  0
 29 52  1  0  0  0  0
 30 31  1  0  0  0  0
 30 53  1  0  0  0  0
 30 54  1  0  0  0  0
 31 32  1  0  0  0  0
 32 33  1  0  0  0  0
 32 55  1  0  0  0  0
 32 56  1  0  0  0  0
 33 57  1  0  0  0  0
 33 58  1  0  0  0  0
M  END
>  <DRUGBANK_ID>
DB08091

>  <COMMON_NAME>
3-FLUORO-5-MORPHOLIN-4-YL-N-[3-(2-PYRIDIN-4-YLETHYL)-1H-INDOL-5-YL]BENZAMIDE

$$$$
