
 OpenBabel10282417133D

 30 29  0  0  1  0  0  0  0  0999 V2000
    0.9770    0.0914   -0.0487 C   0  0  2  0  0  0  0  0  0  0  0  0
    0.5361    1.0425    1.0046 N   0  0  0  0  0  0  0  0  0  0  0  0
    0.6869    0.5450   -1.5106 C   0  0  0  0  0  0  0  0  0  0  0  0
    0.5478   -1.3510    0.2597 C   0  0  0  0  0  0  0  0  0  0  0  0
   -0.3816    2.0318    0.7479 C   0  0  0  0  0  0  0  0  0  0  0  0
   -0.1960   -0.2108   -2.2125 O   0  0  0  0  0  0  0  0  0  0  0  0
    1.2059    1.5346   -2.0160 O   0  0  0  0  0  0  0  0  0  0  0  0
    1.2136   -2.6199   -0.8929 S   0  0  0  0  0  0  0  0  0  0  0  0
   -0.7097    2.9988    1.8655 C   0  0  0  0  0  0  0  0  0  0  0  0
   -0.9253    2.1453   -0.3445 O   0  0  0  0  0  0  0  0  0  0  0  0
   -0.2978    4.4446    1.5274 C   0  0  0  0  0  0  0  0  0  0  0  0
   -0.8541    4.9951    0.1927 C   0  0  1  0  0  0  0  0  0  0  0  0
   -2.4042    4.9633    0.1570 C   0  0  0  0  0  0  0  0  0  0  0  0
   -0.3334    6.3667   -0.0261 N   0  0  0  0  0  0  0  0  0  0  0  0
   -2.9929    6.1660   -0.0456 O   0  0  0  0  0  0  0  0  0  0  0  0
   -3.0943    3.9637    0.3326 O   0  0  0  0  0  0  0  0  0  0  0  0
    2.0742    0.1121    0.0278 H   0  0  0  0  0  0  0  0  0  0  0  0
    0.8518    0.8997    1.9573 H   0  0  0  0  0  0  0  0  0  0  0  0
    0.9021   -1.6408    1.2551 H   0  0  0  0  0  0  0  0  0  0  0  0
   -0.5438   -1.4303    0.2826 H   0  0  0  0  0  0  0  0  0  0  0  0
   -0.6714   -0.9120   -1.7301 H   0  0  0  0  0  0  0  0  0  0  0  0
    0.8743   -2.0603   -2.0738 H   0  0  0  0  0  0  0  0  0  0  0  0
   -1.7917    2.9386    2.0164 H   0  0  0  0  0  0  0  0  0  0  0  0
   -0.2639    2.6841    2.8147 H   0  0  0  0  0  0  0  0  0  0  0  0
   -0.6274    5.0937    2.3508 H   0  0  0  0  0  0  0  0  0  0  0  0
    0.8004    4.4961    1.5135 H   0  0  0  0  0  0  0  0  0  0  0  0
   -0.4762    4.4159   -0.6540 H   0  0  0  0  0  0  0  0  0  0  0  0
   -0.5463    6.6935   -0.9667 H   0  0  0  0  0  0  0  0  0  0  0  0
   -0.5997    7.0184    0.7038 H   0  0  0  0  0  0  0  0  0  0  0  0
   -2.3396    6.8728   -0.1827 H   0  0  0  0  0  0  0  0  0  0  0  0
  1  2  1  0  0  0  0
  1  3  1  0  0  0  0
  1  4  1  0  0  0  0
  1 17  1  1  0  0  0
  2  5  1  0  0  0  0
  2 18  1  0  0  0  0
  3  6  1  0  0  0  0
  3  7  2  0  0  0  0
  4  8  1  0  0  0  0
  4 19  1  0  0  0  0
  4 20  1  0  0  0  0
  5  9  1  0  0  0  0
  5 10  2  0  0  0  0
  6 21  1  0  0  0  0
  8 22  1  0  0  0  0
  9 11  1  0  0  0  0
  9 23  1  0  0  0  0
  9 24  1  0  0  0  0
 11 12  1  0  0  0  0
 11 25  1  0  0  0  0
 11 26  1  0  0  0  0
 12 13  1  0  0  0  0
 12 14  1  0  0  0  0
 12 27  1  6  0  0  0
 13 15  1  0  0  0  0
 13 16  2  0  0  0  0
 14 28  1  0  0  0  0
 14 29  1  0  0  0  0
 15 30  1  0  0  0  0
M  END
>  <DRUGBANK_ID>
DB03408

>  <SECONDARY_ACCESSION_NUMBERS>
EXPT00168

>  <COMMON_NAME>
gamma-Glutamylcysteine

>  <CAS_NUMBER>
636-58-8

>  <UNII>
M984VJS48P

>  <SYNONYMS>
5-L-Glutamyl-L-cysteine; gamma-Glu-Cys; gamma-L-Glutamyl-L-cysteine; Glu(-Cys); L-gamma-glutamyl-L-cysteine; L-gamma-Glutamylcysteine; Î³GluCys

$$$$
