
 OpenBabel10282417133D

 57 57  0  0  0  0  0  0  0  0999 V2000
    1.5064    1.0496   -0.1363 C   0  0  0  0  0  0  0  0  0  0  0  0
    0.2376    1.8378    0.1361 C   0  0  0  0  0  0  0  0  0  0  0  0
   -0.9277    1.1546   -0.5466 C   0  0  0  0  0  0  0  0  0  0  0  0
   -1.1723   -0.2883   -0.0142 C   0  0  0  0  0  0  0  0  0  0  0  0
    0.1539   -1.0805    0.1358 C   0  0  0  0  0  0  0  0  0  0  0  0
    1.3618   -0.4563    0.0220 C   0  0  0  0  0  0  0  0  0  0  0  0
    0.0872   -2.5312    0.3860 C   0  0  0  0  0  0  0  0  0  0  0  0
   -0.9835   -3.3085    0.6189 C   0  0  0  0  0  0  0  0  0  0  0  0
   -1.0105   -4.7530    0.7998 C   0  0  0  0  0  0  0  0  0  0  0  0
    0.1088   -5.4950    0.9195 C   0  0  0  0  0  0  0  0  0  0  0  0
    0.1151   -6.9185    1.1481 C   0  0  0  0  0  0  0  0  0  0  0  0
    1.2164   -7.6771    1.2944 C   0  0  0  0  0  0  0  0  0  0  0  0
    1.1751   -9.1295    1.5479 C   0  0  0  0  0  0  0  0  0  0  0  0
    2.3126   -9.8543    1.6883 C   0  0  0  0  0  0  0  0  0  0  0  0
    2.3146  -11.3321    1.9397 C   0  0  0  0  0  0  0  0  0  0  0  0
    3.5318  -11.9519    2.0576 N   0  0  0  0  0  0  0  0  0  0  0  0
    2.7250   -1.1189    0.0166 C   0  0  0  0  0  0  0  0  0  0  0  0
   -2.1296   -0.9041   -1.0714 C   0  0  0  0  0  0  0  0  0  0  0  0
   -1.8593   -0.1785    1.3671 C   0  0  0  0  0  0  0  0  0  0  0  0
   -2.4000   -5.3592    0.8645 C   0  0  0  0  0  0  0  0  0  0  0  0
   -0.2253   -9.7078    1.6330 C   0  0  0  0  0  0  0  0  0  0  0  0
    1.2852  -11.9943    2.0406 O   0  0  0  0  0  0  0  0  0  0  0  0
    3.5642  -13.3891    2.3099 C   0  0  0  0  0  0  0  0  0  0  0  0
    4.2530  -14.1440    1.1922 C   0  0  0  0  0  0  0  0  0  0  0  0
    2.2853    1.4243    0.5401 H   0  0  0  0  0  0  0  0  0  0  0  0
    1.8488    1.2578   -1.1584 H   0  0  0  0  0  0  0  0  0  0  0  0
    0.3469    2.8603   -0.2434 H   0  0  0  0  0  0  0  0  0  0  0  0
    0.0658    1.9223    1.2146 H   0  0  0  0  0  0  0  0  0  0  0  0
   -0.7194    1.1243   -1.6260 H   0  0  0  0  0  0  0  0  0  0  0  0
   -1.8335    1.7619   -0.4278 H   0  0  0  0  0  0  0  0  0  0  0  0
    1.0413   -3.0339    0.4003 H   0  0  0  0  0  0  0  0  0  0  0  0
   -1.9693   -2.8719    0.6903 H   0  0  0  0  0  0  0  0  0  0  0  0
    1.0881   -5.0326    0.8616 H   0  0  0  0  0  0  0  0  0  0  0  0
   -0.8692   -7.3695    1.2147 H   0  0  0  0  0  0  0  0  0  0  0  0
    2.1908   -7.1964    1.2269 H   0  0  0  0  0  0  0  0  0  0  0  0
    3.2834   -9.3732    1.6164 H   0  0  0  0  0  0  0  0  0  0  0  0
    4.3995  -11.4360    2.0076 H   0  0  0  0  0  0  0  0  0  0  0  0
    3.2209   -0.9200   -0.9402 H   0  0  0  0  0  0  0  0  0  0  0  0
    3.3481   -0.7160    0.8216 H   0  0  0  0  0  0  0  0  0  0  0  0
    2.7233   -2.2007    0.1369 H   0  0  0  0  0  0  0  0  0  0  0  0
   -2.4832   -1.9109   -0.8628 H   0  0  0  0  0  0  0  0  0  0  0  0
   -3.0377   -0.2999   -1.1687 H   0  0  0  0  0  0  0  0  0  0  0  0
   -1.6418   -0.9569   -2.0521 H   0  0  0  0  0  0  0  0  0  0  0  0
   -2.7954    0.3842    1.2981 H   0  0  0  0  0  0  0  0  0  0  0  0
   -2.1074   -1.1474    1.8053 H   0  0  0  0  0  0  0  0  0  0  0  0
   -1.2164    0.3254    2.0978 H   0  0  0  0  0  0  0  0  0  0  0  0
   -2.5239   -6.1197    0.0847 H   0  0  0  0  0  0  0  0  0  0  0  0
   -2.5641   -5.8220    1.8437 H   0  0  0  0  0  0  0  0  0  0  0  0
   -3.2065   -4.6316    0.7183 H   0  0  0  0  0  0  0  0  0  0  0  0
   -0.7774   -9.2437    2.4574 H   0  0  0  0  0  0  0  0  0  0  0  0
   -0.7577   -9.5509    0.6887 H   0  0  0  0  0  0  0  0  0  0  0  0
   -0.3058  -10.7698    1.8169 H   0  0  0  0  0  0  0  0  0  0  0  0
    4.0688  -13.5553    3.2657 H   0  0  0  0  0  0  0  0  0  0  0  0
    2.5499  -13.7936    2.4143 H   0  0  0  0  0  0  0  0  0  0  0  0
    5.2994  -13.8395    1.1086 H   0  0  0  0  0  0  0  0  0  0  0  0
    4.2193  -15.2215    1.3857 H   0  0  0  0  0  0  0  0  0  0  0  0
    3.7626  -13.9565    0.2311 H   0  0  0  0  0  0  0  0  0  0  0  0
  1  2  1  0  0  0  0
  1  6  1  0  0  0  0
  1 25  1  0  0  0  0
  1 26  1  0  0  0  0
  2  3  1  0  0  0  0
  2 27  1  0  0  0  0
  2 28  1  0  0  0  0
  3  4  1  0  0  0  0
  3 29  1  0  0  0  0
  3 30  1  0  0  0  0
  4 18  1  0  0  0  0
  4 19  1  0  0  0  0
  4  5  1  0  0  0  0
  5  6  2  0  0  0  0
  5  7  1  0  0  0  0
  6 17  1  0  0  0  0
  7  8  2  0  0  0  0
  7 31  1  0  0  0  0
  8  9  1  0  0  0  0
  8 32  1  0  0  0  0
  9 20  1  0  0  0  0
  9 10  2  0  0  0  0
 10 11  1  0  0  0  0
 10 33  1  0  0  0  0
 11 12  2  0  0  0  0
 11 34  1  0  0  0  0
 12 13  1  0  0  0  0
 12 35  1  0  0  0  0
 13 14  2  0  0  0  0
 13 21  1  0  0  0  0
 14 15  1  0  0  0  0
 14 36  1  0  0  0  0
 15 16  1  0  0  0  0
 15 22  2  0  0  0  0
 16 23  1  0  0  0  0
 16 37  1  0  0  0  0
 17 38  1  0  0  0  0
 17 39  1  0  0  0  0
 17 40  1  0  0  0  0
 18 41  1  0  0  0  0
 18 42  1  0  0  0  0
 18 43  1  0  0  0  0
 19 44  1  0  0  0  0
 19 45  1  0  0  0  0
 19 46  1  0  0  0  0
 20 47  1  0  0  0  0
 20 48  1  0  0  0  0
 20 49  1  0  0  0  0
 21 50  1  0  0  0  0
 21 51  1  0  0  0  0
 21 52  1  0  0  0  0
 23 24  1  0  0  0  0
 23 53  1  0  0  0  0
 23 54  1  0  0  0  0
 24 55  1  0  0  0  0
 24 56  1  0  0  0  0
 24 57  1  0  0  0  0
M  END
>  <DRUGBANK_ID>
DB03917

>  <SECONDARY_ACCESSION_NUMBERS>
EXPT01372

>  <COMMON_NAME>
N-Ethylretinamide

>  <CAS_NUMBER>
33631-41-3

>  <UNII>
6LM987K76Y

>  <SYNONYMS>
all-trans-N-Ethylretinamide; Ethyl retinamide; Vitamin A acid ethylamide

$$$$
