menthol
 OpenBabel10282417113D

 31 31  0  0  1  0  0  0  0  0999 V2000
    1.1726    0.1238    0.0259 C   0  0  0  0  0  0  0  0  0  0  0  0
    0.5463    0.4707   -1.3302 C   0  0  0  0  0  0  0  0  0  0  0  0
    1.0862   -0.4724   -2.4103 C   0  0  0  0  0  0  0  0  0  0  0  0
   -1.0128    0.4761   -1.2879 C   0  0  2  0  0  0  0  0  0  0  0  0
   -1.5290    1.8200   -0.7307 C   0  0  0  0  0  0  0  0  0  0  0  0
   -3.0506    1.8529   -0.5824 C   0  0  0  0  0  0  0  0  0  0  0  0
   -3.5645    0.6739    0.2496 C   0  0  1  0  0  0  0  0  0  0  0  0
   -5.0829    0.6982    0.3705 C   0  0  0  0  0  0  0  0  0  0  0  0
   -3.1140   -0.6484   -0.3668 C   0  0  0  0  0  0  0  0  0  0  0  0
   -1.5993   -0.7041   -0.4805 C   0  0  1  0  0  0  0  0  0  0  0  0
   -1.2422   -1.9561   -1.0487 O   0  0  0  0  0  0  0  0  0  0  0  0
    0.9464   -0.9061    0.3226 H   0  0  0  0  0  0  0  0  0  0  0  0
    0.8059    0.7921    0.8115 H   0  0  0  0  0  0  0  0  0  0  0  0
    2.2619    0.2105   -0.0077 H   0  0  0  0  0  0  0  0  0  0  0  0
    0.8863    1.4792   -1.6030 H   0  0  0  0  0  0  0  0  0  0  0  0
    0.8109   -1.5139   -2.2300 H   0  0  0  0  0  0  0  0  0  0  0  0
    0.7073   -0.1876   -3.3976 H   0  0  0  0  0  0  0  0  0  0  0  0
    2.1796   -0.4299   -2.4477 H   0  0  0  0  0  0  0  0  0  0  0  0
   -1.3723    0.4000   -2.3251 H   0  0  0  0  0  0  0  0  0  0  0  0
   -1.2217    2.6386   -1.3944 H   0  0  0  0  0  0  0  0  0  0  0  0
   -1.0747    2.0234    0.2460 H   0  0  0  0  0  0  0  0  0  0  0  0
   -3.5126    1.8395   -1.5776 H   0  0  0  0  0  0  0  0  0  0  0  0
   -3.3434    2.7981   -0.1092 H   0  0  0  0  0  0  0  0  0  0  0  0
   -3.1416    0.7528    1.2607 H   0  0  0  0  0  0  0  0  0  0  0  0
   -5.4304   -0.1381    0.9868 H   0  0  0  0  0  0  0  0  0  0  0  0
   -5.4211    1.6267    0.8396 H   0  0  0  0  0  0  0  0  0  0  0  0
   -5.5581    0.6144   -0.6123 H   0  0  0  0  0  0  0  0  0  0  0  0
   -3.4514   -1.4910    0.2503 H   0  0  0  0  0  0  0  0  0  0  0  0
   -3.5693   -0.7995   -1.3541 H   0  0  0  0  0  0  0  0  0  0  0  0
   -1.2058   -0.6886    0.5419 H   0  0  0  0  0  0  0  0  0  0  0  0
   -1.5122   -1.9471   -1.9866 H   0  0  0  0  0  0  0  0  0  0  0  0
  1  2  1  0  0  0  0
  1 12  1  0  0  0  0
  1 13  1  0  0  0  0
  1 14  1  0  0  0  0
  2  3  1  0  0  0  0
  2 15  1  0  0  0  0
  3 16  1  0  0  0  0
  3 17  1  0  0  0  0
  3 18  1  0  0  0  0
  4  2  1  0  0  0  0
  4  5  1  0  0  0  0
  4 10  1  0  0  0  0
  4 19  1  6  0  0  0
  5  6  1  0  0  0  0
  5 20  1  0  0  0  0
  5 21  1  0  0  0  0
  6  7  1  0  0  0  0
  6 22  1  0  0  0  0
  6 23  1  0  0  0  0
  7  8  1  0  0  0  0
  7  9  1  0  0  0  0
  7 24  1  1  0  0  0
  8 25  1  0  0  0  0
  8 26  1  0  0  0  0
  8 27  1  0  0  0  0
  9 10  1  0  0  0  0
  9 28  1  0  0  0  0
  9 29  1  0  0  0  0
 10 11  1  0  0  0  0
 10 30  1  1  0  0  0
 11 31  1  0  0  0  0
M  END
>  <DRUGBANK_ID>
DB00825

>  <SECONDARY_ACCESSION_NUMBERS>
APRD01604

>  <COMMON_NAME>
Levomenthol

>  <CAS_NUMBER>
2216-51-5

>  <UNII>
BZ1R15MTK7

>  <SYNONYMS>
(-)-Menthol; (−)-(1R,3R,4S)-menthol; (−)-menthol; (1alpha,2beta,5alpha)-5-methyl-2(1-methylethyl)cyclohexanol; (1R-(1-α,2-β,5-α))-5-methyl-2-(1-methylethyl)cyclohexanol; (1R,3R,4S)-(−)-menthol; L-menthol; Levomenthol; Lévomenthol; Levomentholum; Levomentol; Mentol

$$$$
