
 OpenBabel10282417233D

 45 47  0  0  0  0  0  0  0  0999 V2000
   -1.8305    0.1019    0.8044 C   0  0  0  0  0  0  0  0  0  0  0  0
    3.7603   -0.6870   -0.5489 C   0  0  0  0  0  0  0  0  0  0  0  0
   -1.6278   -1.0438   -0.1755 C   0  0  0  0  0  0  0  0  0  0  0  0
   -1.1944    1.3092    0.1543 C   0  0  0  0  0  0  0  0  0  0  0  0
    3.4432    1.9246    2.7260 C   0  0  0  0  0  0  0  0  0  0  0  0
    2.8017    3.9775    1.7241 C   0  0  0  0  0  0  0  0  0  0  0  0
    4.2519    1.6571    1.5944 C   0  0  0  0  0  0  0  0  0  0  0  0
    3.3984    3.5616    0.5065 C   0  0  0  0  0  0  0  0  0  0  0  0
    2.8906   -0.7030    0.7168 C   0  0  0  0  0  0  0  0  0  0  0  0
    3.7895    0.5881   -1.4083 C   0  0  0  0  0  0  0  0  0  0  0  0
    0.7941   -1.4572    0.0371 C   0  0  0  0  0  0  0  0  0  0  0  0
    1.1887    0.9190    0.0605 C   0  0  0  0  0  0  0  0  0  0  0  0
    2.7830    3.1356    2.8394 C   0  0  0  0  0  0  0  0  0  0  0  0
   -0.2730   -0.7917   -0.7929 C   0  0  3  0  0  0  0  0  0  0  0  0
   -0.0818    0.7290   -0.6986 C   0  0  3  0  0  0  0  0  0  0  0  0
    4.0113    2.3157    0.3979 C   0  0  0  0  0  0  0  0  0  0  0  0
    2.2544    3.4965    4.1967 C   0  0  0  0  0  0  0  0  0  0  0  0
    1.9350    4.8178    4.3981 N   0  0  0  0  0  0  0  0  0  0  0  0
    1.5008   -0.3733    0.6370 N   0  0  0  0  0  0  0  0  0  0  0  0
    2.1994    2.7067    5.1114 O   0  0  0  0  0  0  0  0  0  0  0  0
    4.3624    1.8168   -0.8366 O   0  0  0  0  0  0  0  0  0  0  0  0
   -2.8839    0.2795    1.0069 H   0  0  0  0  0  0  0  0  0  0  0  0
   -1.3192   -0.1125    1.7528 H   0  0  0  0  0  0  0  0  0  0  0  0
    4.7943   -0.8869   -0.2570 H   0  0  0  0  0  0  0  0  0  0  0  0
    3.4512   -1.5337   -1.1792 H   0  0  0  0  0  0  0  0  0  0  0  0
   -1.6704   -2.0100    0.3371 H   0  0  0  0  0  0  0  0  0  0  0  0
   -2.3823   -1.0294   -0.9617 H   0  0  0  0  0  0  0  0  0  0  0  0
   -1.8867    1.8783   -0.4673 H   0  0  0  0  0  0  0  0  0  0  0  0
   -0.8284    2.0034    0.9236 H   0  0  0  0  0  0  0  0  0  0  0  0
    3.2498    1.1359    3.4615 H   0  0  0  0  0  0  0  0  0  0  0  0
    2.3179    4.9462    1.7568 H   0  0  0  0  0  0  0  0  0  0  0  0
    4.8461    0.7441    1.6025 H   0  0  0  0  0  0  0  0  0  0  0  0
    3.3785    4.2286   -0.3483 H   0  0  0  0  0  0  0  0  0  0  0  0
    3.1385    0.0386    1.4019 H   0  0  0  0  0  0  0  0  0  0  0  0
    3.1068   -1.5774    1.3417 H   0  0  0  0  0  0  0  0  0  0  0  0
    4.4016    0.3660   -2.2936 H   0  0  0  0  0  0  0  0  0  0  0  0
    2.8320    0.7426   -1.9366 H   0  0  0  0  0  0  0  0  0  0  0  0
    0.4258   -2.0991    0.8460 H   0  0  0  0  0  0  0  0  0  0  0  0
    1.4359   -2.0871   -0.5852 H   0  0  0  0  0  0  0  0  0  0  0  0
    1.1461    1.7165    0.8076 H   0  0  0  0  0  0  0  0  0  0  0  0
    1.8699    1.3468   -0.6421 H   0  0  0  0  0  0  0  0  0  0  0  0
   -0.1796   -1.1617   -1.8202 H   0  0  0  0  0  0  0  0  0  0  0  0
   -0.0263    1.2008   -1.6898 H   0  0  0  0  0  0  0  0  0  0  0  0
    1.7697    5.0988    5.3563 H   0  0  0  0  0  0  0  0  0  0  0  0
    2.0760    5.5388    3.7145 H   0  0  0  0  0  0  0  0  0  0  0  0
  1 22  1  0  0  0  0
  1 23  1  0  0  0  0
  2 24  1  0  0  0  0
  2 25  1  0  0  0  0
  3  1  1  0  0  0  0
  3 26  1  0  0  0  0
  3 27  1  0  0  0  0
  4  1  1  0  0  0  0
  4 28  1  0  0  0  0
  4 29  1  0  0  0  0
  5 30  1  0  0  0  0
  6 31  1  0  0  0  0
  7  5  1  0  0  0  0
  7 32  1  0  0  0  0
  8  6  2  0  0  0  0
  8 33  1  0  0  0  0
  9  2  1  0  0  0  0
  9 34  1  0  0  0  0
  9 35  1  0  0  0  0
 10  2  1  0  0  0  0
 10 36  1  0  0  0  0
 10 37  1  0  0  0  0
 11 38  1  0  0  0  0
 11 39  1  0  0  0  0
 12 40  1  0  0  0  0
 12 41  1  0  0  0  0
 13  5  2  0  0  0  0
 13  6  1  0  0  0  0
 14  3  1  0  0  0  0
 14 11  1  0  0  0  0
 14 42  1  0  0  0  0
 15  4  1  0  0  0  0
 15 12  1  0  0  0  0
 15 14  1  0  0  0  0
 15 43  1  0  0  0  0
 16  7  2  0  0  0  0
 16  8  1  0  0  0  0
 17 13  1  0  0  0  0
 18 17  1  0  0  0  0
 18 44  1  0  0  0  0
 18 45  1  0  0  0  0
 19  9  1  0  0  0  0
 19 11  1  0  0  0  0
 19 12  1  0  0  0  0
 20 17  2  0  0  0  0
 21 10  1  0  0  0  0
 21 16  1  0  0  0  0
M  END
>  <DRUGBANK_ID>
DB16893

>  <COMMON_NAME>
S-38093

>  <CAS_NUMBER>
862896-30-8

>  <SYNONYMS>
S 38093; S-38093 free base

$$$$
