KN1
 OpenBabel10282417173D

 37 39  0  0  0  0  0  0  0  0999 V2000
    0.8032    0.7145    0.2746 C   0  0  0  0  0  0  0  0  0  0  0  0
    0.1220    0.1258    1.2664 C   0  0  0  0  0  0  0  0  0  0  0  0
   -1.3267   -0.2689    1.1886 C   0  0  0  0  0  0  0  0  0  0  0  0
   -1.6506   -1.6906    1.4429 N   0  0  0  0  0  0  0  0  0  0  0  0
   -2.8605   -1.9342    2.0446 N   0  0  0  0  0  0  0  0  0  0  0  0
   -0.9900   -2.8602    1.0691 C   0  0  0  0  0  0  0  0  0  0  0  0
    0.2006   -3.1906    0.3509 C   0  0  0  0  0  0  0  0  0  0  0  0
    1.1824   -2.2534   -0.2916 C   0  0  0  0  0  0  0  0  0  0  0  0
    1.9363   -1.6089    0.6350 F   0  0  0  0  0  0  0  0  0  0  0  0
    2.1016   -2.8607   -1.0979 F   0  0  0  0  0  0  0  0  0  0  0  0
    0.5643   -1.3596   -1.1021 F   0  0  0  0  0  0  0  0  0  0  0  0
    0.5350   -4.5557    0.2203 C   0  0  0  0  0  0  0  0  0  0  0  0
   -0.2599   -5.5629    0.7188 C   0  0  0  0  0  0  0  0  0  0  0  0
   -1.4269   -5.2389    1.3931 C   0  0  0  0  0  0  0  0  0  0  0  0
   -1.7933   -3.8876    1.5852 C   0  0  0  0  0  0  0  0  0  0  0  0
   -2.9057   -3.2619    2.2172 C   0  0  0  0  0  0  0  0  0  0  0  0
   -4.0054   -3.9681    2.8952 C   0  0  0  0  0  0  0  0  0  0  0  0
   -3.6892   -4.8968    3.9044 C   0  0  0  0  0  0  0  0  0  0  0  0
   -4.6633   -5.7534    4.4277 C   0  0  0  0  0  0  0  0  0  0  0  0
   -5.9816   -5.6324    4.0114 C   0  0  0  0  0  0  0  0  0  0  0  0
   -6.8881   -6.5081    4.5334 O   0  0  0  0  0  0  0  0  0  0  0  0
   -6.3419   -4.6627    3.0810 C   0  0  0  0  0  0  0  0  0  0  0  0
   -5.3474   -3.8665    2.4952 C   0  0  0  0  0  0  0  0  0  0  0  0
   -5.7557   -3.0496    1.4736 O   0  0  0  0  0  0  0  0  0  0  0  0
    0.3483    0.9413   -0.6903 H   0  0  0  0  0  0  0  0  0  0  0  0
    1.8923    0.7875    0.3156 H   0  0  0  0  0  0  0  0  0  0  0  0
    0.6645   -0.1741    2.1649 H   0  0  0  0  0  0  0  0  0  0  0  0
   -1.8591    0.3167    1.9493 H   0  0  0  0  0  0  0  0  0  0  0  0
   -1.7602   -0.0321    0.2110 H   0  0  0  0  0  0  0  0  0  0  0  0
    1.4523   -4.8298   -0.3033 H   0  0  0  0  0  0  0  0  0  0  0  0
    0.0321   -6.5977    0.5725 H   0  0  0  0  0  0  0  0  0  0  0  0
   -2.0600   -6.0393    1.7654 H   0  0  0  0  0  0  0  0  0  0  0  0
   -2.6675   -4.9894    4.2662 H   0  0  0  0  0  0  0  0  0  0  0  0
   -4.3908   -6.5218    5.1465 H   0  0  0  0  0  0  0  0  0  0  0  0
   -7.7494   -6.3634    4.1077 H   0  0  0  0  0  0  0  0  0  0  0  0
   -7.3764   -4.5322    2.7795 H   0  0  0  0  0  0  0  0  0  0  0  0
   -4.9704   -2.5622    1.1574 H   0  0  0  0  0  0  0  0  0  0  0  0
  1 25  1  0  0  0  0
  1 26  1  0  0  0  0
  2  3  1  0  0  0  0
  2  1  2  0  0  0  0
  2 27  1  0  0  0  0
  3 28  1  0  0  0  0
  3 29  1  0  0  0  0
  4  3  1  0  0  0  0
  5  4  1  0  0  0  0
  6  7  1  0  0  0  0
  6  4  1  0  0  0  0
  7  8  1  0  0  0  0
  8 11  1  0  0  0  0
  8  9  1  0  0  0  0
 10  8  1  0  0  0  0
 12  7  2  0  0  0  0
 12 30  1  0  0  0  0
 13 12  1  0  0  0  0
 13 31  1  0  0  0  0
 14 13  2  0  0  0  0
 14 15  1  0  0  0  0
 14 32  1  0  0  0  0
 15 16  1  0  0  0  0
 15  6  2  0  0  0  0
 16  5  2  0  0  0  0
 17 16  1  0  0  0  0
 17 23  2  0  0  0  0
 18 17  1  0  0  0  0
 18 33  1  0  0  0  0
 19 18  2  0  0  0  0
 19 20  1  0  0  0  0
 19 34  1  0  0  0  0
 20 22  2  0  0  0  0
 21 20  1  0  0  0  0
 21 35  1  0  0  0  0
 22 23  1  0  0  0  0
 22 36  1  0  0  0  0
 23 24  1  0  0  0  0
 24 37  1  0  0  0  0
M  END
>  <DRUGBANK_ID>
DB08047

>  <COMMON_NAME>
4-[1-allyl-7-(trifluoromethyl)-1H-indazol-3-yl]benzene-1,3-diol

$$$$
