
 OpenBabel10282417123D

 31 33  0  0  0  0  0  0  0  0999 V2000
   -2.5573    0.7128   -0.4400 O   0  0  0  0  0  0  0  0  0  0  0  0
    2.5862    0.6689   -0.4775 O   0  0  0  0  0  0  0  0  0  0  0  0
   -0.6813   -0.4926    0.0828 N   0  0  0  0  0  0  0  0  0  0  0  0
    0.6930    1.8587   -0.0283 N   0  0  0  0  0  0  0  0  0  0  0  0
   -3.8868    3.3305    0.4323 N   0  0  0  0  0  0  0  0  0  0  0  0
   -4.3697    3.0383    2.5758 N   0  0  0  0  0  0  0  0  0  0  0  0
    0.6960   -0.5069    0.5667 C   0  0  2  0  0  0  0  0  0  0  0  0
   -0.6364    1.8773    0.5975 C   0  0  2  0  0  0  0  0  0  0  0  0
   -1.4164    0.6721    0.0103 C   0  0  0  0  0  0  0  0  0  0  0  0
    1.4304    0.6860   -0.0681 C   0  0  0  0  0  0  0  0  0  0  0  0
   -1.3656    3.2025    0.3830 C   0  0  0  0  0  0  0  0  0  0  0  0
   -2.6807    3.2213    1.0814 C   0  0  0  0  0  0  0  0  0  0  0  0
   -3.0141    3.0204    2.4032 C   0  0  0  0  0  0  0  0  0  0  0  0
   -4.8689    3.2263    1.3759 C   0  0  0  0  0  0  0  0  0  0  0  0
    0.6884   -0.3759    1.6554 H   0  0  0  0  0  0  0  0  0  0  0  0
   -1.1249   -1.7785   -0.3944 C   0  0  0  0  0  0  0  0  0  0  0  0
   -0.0703   -2.7334    0.1424 C   0  0  0  0  0  0  0  0  0  0  0  0
    1.2050   -1.8863    0.1813 C   0  0  0  0  0  0  0  0  0  0  0  0
    1.1616    2.7073   -0.3210 H   0  0  0  0  0  0  0  0  0  0  0  0
   -4.0336    3.4068   -0.5659 H   0  0  0  0  0  0  0  0  0  0  0  0
   -0.4979    1.6949    1.6732 H   0  0  0  0  0  0  0  0  0  0  0  0
   -0.7516    4.0199    0.7826 H   0  0  0  0  0  0  0  0  0  0  0  0
   -1.4825    3.3949   -0.6903 H   0  0  0  0  0  0  0  0  0  0  0  0
   -2.3436    2.8322    3.2314 H   0  0  0  0  0  0  0  0  0  0  0  0
   -5.9203    3.2840    1.1292 H   0  0  0  0  0  0  0  0  0  0  0  0
   -2.1362   -1.9968   -0.0377 H   0  0  0  0  0  0  0  0  0  0  0  0
   -1.1312   -1.7504   -1.4888 H   0  0  0  0  0  0  0  0  0  0  0  0
   -0.3366   -3.0427    1.1608 H   0  0  0  0  0  0  0  0  0  0  0  0
    0.0342   -3.6301   -0.4728 H   0  0  0  0  0  0  0  0  0  0  0  0
    1.6831   -1.8769   -0.8043 H   0  0  0  0  0  0  0  0  0  0  0  0
    1.9299   -2.2665    0.9073 H   0  0  0  0  0  0  0  0  0  0  0  0
  1  9  2  0  0  0  0
  2 10  2  0  0  0  0
  3  9  1  0  0  0  0
  3 16  1  0  0  0  0
  3  7  1  0  0  0  0
  4  8  1  0  0  0  0
  4 10  1  0  0  0  0
  4 19  1  0  0  0  0
  5 12  1  0  0  0  0
  5 14  1  0  0  0  0
  5 20  1  0  0  0  0
  6 13  1  0  0  0  0
  6 14  2  0  0  0  0
  7 10  1  0  0  0  0
  7 15  1  1  0  0  0
  7 18  1  0  0  0  0
  8  9  1  0  0  0  0
  8 11  1  0  0  0  0
  8 21  1  1  0  0  0
 11 12  1  0  0  0  0
 11 22  1  0  0  0  0
 11 23  1  0  0  0  0
 12 13  2  0  0  0  0
 13 24  1  0  0  0  0
 14 25  1  0  0  0  0
 16 17  1  0  0  0  0
 16 26  1  0  0  0  0
 16 27  1  0  0  0  0
 17 18  1  0  0  0  0
 17 28  1  0  0  0  0
 17 29  1  0  0  0  0
 18 30  1  0  0  0  0
 18 31  1  0  0  0  0
M  END
>  <DRUGBANK_ID>
DB02414

>  <SECONDARY_ACCESSION_NUMBERS>
EXPT00911

>  <COMMON_NAME>
Cyclo(his-pro)

>  <CAS_NUMBER>
53109-32-3

>  <UNII>
Q10817UXVT

>  <SYNONYMS>
(3S,8aS)-3-(1H-Imidazol-4-ylmethyl)hexahydropyrrolo[1,2-a]pyrazine-1,4-dione; cyclo(histidyl-prolyl); cyclo(L-His-L-Pro); Histidyl-proline diketopiperazine; Histidyl-proline-diketopiperazine

$$$$
