ZZ1
 OpenBabel10282417173D

 20 21  0  0  0  0  0  0  0  0999 V2000
   -3.1646    0.9628    0.0044 O   0  0  0  0  0  0  0  0  0  0  0  0
   -2.0253    0.5125   -0.0030 C   0  0  0  0  0  0  0  0  0  0  0  0
   -0.9074    1.3259   -0.0034 O   0  0  0  0  0  0  0  0  0  0  0  0
    0.3883    0.7766   -0.0029 C   0  0  0  0  0  0  0  0  0  0  0  0
    1.4411    1.6909   -0.0209 C   0  0  0  0  0  0  0  0  0  0  0  0
    2.7501    1.2214   -0.0174 C   0  0  0  0  0  0  0  0  0  0  0  0
    2.9920   -0.1517    0.0097 C   0  0  0  0  0  0  0  0  0  0  0  0
    1.9247   -1.0588    0.0254 C   0  0  0  0  0  0  0  0  0  0  0  0
    0.5996   -0.6039    0.0122 C   0  0  0  0  0  0  0  0  0  0  0  0
   -0.5694   -1.4935   -0.0029 C   0  0  0  0  0  0  0  0  0  0  0  0
   -0.3857   -2.9812   -0.0190 C   0  0  0  0  0  0  0  0  0  0  0  0
   -1.7909   -0.9398   -0.0163 C   0  0  0  0  0  0  0  0  0  0  0  0
    1.2365    2.7573   -0.0413 H   0  0  0  0  0  0  0  0  0  0  0  0
    3.5794    1.9236   -0.0356 H   0  0  0  0  0  0  0  0  0  0  0  0
    4.0153   -0.5202    0.0144 H   0  0  0  0  0  0  0  0  0  0  0  0
    2.1564   -2.1206    0.0439 H   0  0  0  0  0  0  0  0  0  0  0  0
    0.1706   -3.2936   -0.9091 H   0  0  0  0  0  0  0  0  0  0  0  0
    0.1531   -3.3166    0.8734 H   0  0  0  0  0  0  0  0  0  0  0  0
   -1.3461   -3.5085   -0.0353 H   0  0  0  0  0  0  0  0  0  0  0  0
   -2.6930   -1.5405   -0.0389 H   0  0  0  0  0  0  0  0  0  0  0  0
  1  2  2  0  0  0  0
  2  3  1  0  0  0  0
  2 12  1  0  0  0  0
  3  4  1  0  0  0  0
  4  5  2  0  0  0  0
  4  9  1  0  0  0  0
  5  6  1  0  0  0  0
  5 13  1  0  0  0  0
  6  7  2  0  0  0  0
  6 14  1  0  0  0  0
  7  8  1  0  0  0  0
  7 15  1  0  0  0  0
  8  9  2  0  0  0  0
  8 16  1  0  0  0  0
  9 10  1  0  0  0  0
 10 11  1  0  0  0  0
 10 12  2  0  0  0  0
 11 17  1  0  0  0  0
 11 18  1  0  0  0  0
 11 19  1  0  0  0  0
 12 20  1  0  0  0  0
M  END
>  <DRUGBANK_ID>
DB08785

>  <COMMON_NAME>
4-Methylcoumarin

>  <CAS_NUMBER>
607-71-6

>  <UNII>
2YZ8R79U9H

>  <SYNONYMS>
4-Methyl-2H-1-benzopyran-2-one

$$$$
