
 OpenBabel10282417223D

206213  0  0  1  0  0  0  0  0999 V2000
    0.7483   -2.5131    3.6129 C   0  0  0  0  0  0  0  0  0  0  0  0
   -0.0879   -0.7416    4.0807 C   0  0  3  0  0  0  0  0  0  0  0  0
    1.5026   -0.6655    5.5183 O   0  0  0  0  0  0  0  0  0  0  0  0
    0.2315    0.0707    2.9497 C   0  0  0  0  0  0  0  0  0  0  0  0
   -1.5142   -0.0051    2.0570 O   0  0  0  0  0  0  0  0  0  0  0  0
   -1.5171   -1.2338    0.4630 C   0  0  0  0  0  0  0  0  0  0  0  0
   -0.0122   -1.5606   -0.0504 C   0  0  1  0  0  0  0  0  0  0  0  0
    1.9474   -0.6063   -0.1170 O   0  0  0  0  0  0  0  0  0  0  0  0
    2.7928   -2.1992    1.0669 C   0  0  2  0  0  0  0  0  0  0  0  0
    2.8401   -1.5170    1.9092 O   0  0  0  0  0  0  0  0  0  0  0  0
    0.5284   -1.2380    2.0432 C   0  0  2  0  0  0  0  0  0  0  0  0
   -0.3398   -0.2345    1.1105 C   0  0  1  0  0  0  0  0  0  0  0  0
    0.4195    1.4475    2.4178 C   0  0  0  0  0  0  0  0  0  0  0  0
    1.0628    0.3724    4.3707 O   0  0  0  0  0  0  0  0  0  0  0  0
    0.3269   -0.6272   -0.9864 O   0  0  0  0  0  0  0  0  0  0  0  0
    0.2725   -2.5578   -1.9387 C   0  0  2  0  0  0  0  0  0  0  0  0
    0.9033   -3.9686   -2.9177 O   0  0  0  0  0  0  0  0  0  0  0  0
    2.5587   -3.5928   -3.4199 C   0  0  2  0  0  0  0  0  0  0  0  0
    2.9056   -1.9423   -2.7324 C   0  0  1  0  0  0  0  0  0  0  0  0
    2.9320    0.2770   -3.2572 C   0  0  0  0  0  0  0  0  0  0  0  0
    3.0699    1.2113   -2.1386 O   0  0  0  0  0  0  0  0  0  0  0  0
    2.4983   -1.7444   -0.5980 O   0  0  0  0  0  0  0  0  0  0  0  0
    3.9491   -2.7774    0.4838 C   0  0  2  0  0  0  0  0  0  0  0  0
    3.2878   -2.7172    2.6617 O   0  0  0  0  0  0  0  0  0  0  0  0
    1.5881   -2.0770    2.4458 C   0  0  2  0  0  0  0  0  0  0  0  0
    1.7887   -0.7075    1.4791 C   0  0  1  0  0  0  0  0  0  0  0  0
    1.7822    0.9149    3.1826 C   0  0  0  0  0  0  0  0  0  0  0  0
    3.5047    0.6005    4.3369 O   0  0  0  0  0  0  0  0  0  0  0  0
    1.2715   -1.5902    0.6976 O   0  0  0  0  0  0  0  0  0  0  0  0
    0.7031   -3.0966   -0.7940 C   0  0  2  0  0  0  0  0  0  0  0  0
    2.0239   -3.1249   -2.0337 O   0  0  0  0  0  0  0  0  0  0  0  0
    4.1398   -3.3396   -2.3002 C   0  0  2  0  0  0  0  0  0  0  0  0
    5.4367   -2.1128   -1.7035 C   0  0  1  0  0  0  0  0  0  0  0  0
    4.4543   -0.0759   -1.9874 C   0  0  0  0  0  0  0  0  0  0  0  0
    4.2749    0.8817   -1.0450 O   0  0  0  0  0  0  0  0  0  0  0  0
    3.0330    0.6731    0.4916 C   0  0  0  0  0  0  0  0  0  0  0  0
    1.1275    0.8061   -0.8588 C   0  0  3  0  0  0  0  0  0  0  0  0
    0.6074   -0.7970   -2.5148 C   0  0  0  0  0  0  0  0  0  0  0  0
    0.1294    0.9030    0.3695 O   0  0  0  0  0  0  0  0  0  0  0  0
    5.7133   -1.2346    0.3337 O   0  0  0  0  0  0  0  0  0  0  0  0
    4.7575   -2.4108    2.1344 C   0  0  2  0  0  0  0  0  0  0  0  0
    4.2003   -2.3262    3.8203 O   0  0  0  0  0  0  0  0  0  0  0  0
    2.8622   -1.6060    3.5064 C   0  0  2  0  0  0  0  0  0  0  0  0
    3.0506   -0.0973    2.2667 C   0  0  1  0  0  0  0  0  0  0  0  0
    3.3931    1.0645    2.7552 C   0  0  0  0  0  0  0  0  0  0  0  0
    4.6256    1.0495    2.7093 O   0  0  0  0  0  0  0  0  0  0  0  0
    3.4096   -1.0810    0.3808 O   0  0  0  0  0  0  0  0  0  0  0  0
    2.7413   -2.9742   -0.7418 C   0  0  2  0  0  0  0  0  0  0  0  0
    3.7930   -3.6229   -0.9691 O   0  0  0  0  0  0  0  0  0  0  0  0
    5.8628   -4.2593   -1.2213 C   0  0  2  0  0  0  0  0  0  0  0  0
    6.3546   -2.4079   -0.1133 C   0  0  1  0  0  0  0  0  0  0  0  0
    5.8961   -0.6602   -1.2554 C   0  0  0  0  0  0  0  0  0  0  0  0
    5.9173    0.4332   -0.4137 O   0  0  0  0  0  0  0  0  0  0  0  0
    4.6825    0.6439    0.4262 C   0  0  0  0  0  0  0  0  0  0  0  0
    2.7744    1.5627   -0.5624 C   0  0  3  0  0  0  0  0  0  0  0  0
    2.2305   -0.1170   -1.7420 C   0  0  0  0  0  0  0  0  0  0  0  0
    1.4239    1.6765    0.7729 O   0  0  0  0  0  0  0  0  0  0  0  0
    5.0455   -1.3778    1.4962 O   0  0  0  0  0  0  0  0  0  0  0  0
    3.8438   -3.4357    1.7073 C   0  0  2  0  0  0  0  0  0  0  0  0
    2.0054   -3.9334   -0.1948 O   0  0  0  0  0  0  0  0  0  0  0  0
   -0.4202   -3.8565   -0.4189 C   0  0  1  0  0  0  0  0  0  0  0  0
   -0.0104   -5.1531    1.1853 C   0  0  0  0  0  0  0  0  0  0  0  0
    2.4773   -4.7300    0.8523 C   0  0  1  0  0  0  0  0  0  0  0  0
    2.9751   -5.5642   -0.0733 O   0  0  0  0  0  0  0  0  0  0  0  0
    5.2483   -5.2619    2.0382 C   0  0  2  0  0  0  0  0  0  0  0  0
    3.6002   -6.6151    2.7727 O   0  0  0  0  0  0  0  0  0  0  0  0
    5.3045   -5.9455    0.3748 C   0  0  1  0  0  0  0  0  0  0  0  0
    3.3952   -7.0418    0.3758 O   0  0  0  0  0  0  0  0  0  0  0  0
    1.2080   -4.2191    0.8620 C   0  0  2  0  0  0  0  0  0  0  0  0
    1.4508   -5.3241   -1.1570 O   0  0  0  0  0  0  0  0  0  0  0  0
    1.6154   -3.6912    3.0734 C   0  0  1  0  0  0  0  0  0  0  0  0
    1.3564   -4.8617    3.7680 O   0  0  0  0  0  0  0  0  0  0  0  0
    0.7523   -3.9053    5.2428 C   0  0  0  0  0  0  0  0  0  0  0  0
    1.9968   -3.4496    5.5279 C   0  0  3  0  0  0  0  0  0  0  0  0
    2.7108   -2.5342    4.9504 C   0  0  0  0  0  0  0  0  0  0  0  0
    1.9429   -2.4803    6.3474 O   0  0  0  0  0  0  0  0  0  0  0  0
    4.6077   -4.3995    1.0855 C   0  0  2  0  0  0  0  0  0  0  0  0
    4.2249   -5.3762    2.9560 O   0  0  0  0  0  0  0  0  0  0  0  0
    4.5107   -5.1580   -0.7525 C   0  0  1  0  0  0  0  0  0  0  0  0
    4.1465   -7.0441   -1.1488 O   0  0  0  0  0  0  0  0  0  0  0  0
    0.3007   -5.0746   -0.1154 C   0  0  2  0  0  0  0  0  0  0  0  0
    1.4397   -6.1198    1.5714 O   0  0  0  0  0  0  0  0  0  0  0  0
    0.3567   -4.0015    2.0766 C   0  0  1  0  0  0  0  0  0  0  0  0
   -0.2783   -5.0676    3.1391 O   0  0  0  0  0  0  0  0  0  0  0  0
    3.1911   -3.6388    0.4010 C   0  0  2  0  0  0  0  0  0  0  0  0
    2.7047   -4.7605    2.3872 O   0  0  0  0  0  0  0  0  0  0  0  0
    3.3523   -4.7989    4.2202 C   0  0  0  0  0  0  0  0  0  0  0  0
    4.9840   -3.9155    4.2151 C   0  0  3  0  0  0  0  0  0  0  0  0
    5.7693   -2.2469    3.2552 C   0  0  0  0  0  0  0  0  0  0  0  0
    4.7944   -3.3594    5.3453 O   0  0  0  0  0  0  0  0  0  0  0  0
    2.8865   -4.6751   -1.6737 C   0  0  1  0  0  0  0  0  0  0  0  0
    3.2483   -5.9324   -1.8215 O   0  0  0  0  0  0  0  0  0  0  0  0
    1.1547   -2.9898    0.3815 C   0  0  2  0  0  0  0  0  0  0  0  0
    1.5797   -5.4363    0.3127 O   0  0  0  0  0  0  0  0  0  0  0  0
    3.6777   -5.3993    1.2912 C   0  0  0  0  0  0  0  0  0  0  0  0
    4.9798   -3.8082   -0.1219 C   0  0  3  0  0  0  0  0  0  0  0  0
    4.3703   -1.9933   -0.7238 C   0  0  0  0  0  0  0  0  0  0  0  0
    6.3496   -4.1775    0.3414 O   0  0  0  0  0  0  0  0  0  0  0  0
    0.0572   -2.4524    1.5856 C   0  0  1  0  0  0  0  0  0  0  0  0
   -1.0223   -3.5769    3.0749 O   0  0  0  0  0  0  0  0  0  0  0  0
    2.1915   -3.0424    2.3562 H   0  0  0  0  0  0  0  0  0  0  0  0
   -0.6051   -1.8192    2.7414 H   0  0  0  0  0  0  0  0  0  0  0  0
    0.8711   -3.1553    4.0856 H   0  0  0  0  0  0  0  0  0  0  0  0
   -0.8035   -1.2580    4.1825 H   0  0  0  0  0  0  0  0  0  0  0  0
    1.9058   -1.5854    5.4748 H   0  0  0  0  0  0  0  0  0  0  0  0
    0.8732    1.6325    3.7955 H   0  0  0  0  0  0  0  0  0  0  0  0
    1.6661    0.5290    2.0300 H   0  0  0  0  0  0  0  0  0  0  0  0
   -0.7826   -1.7884    0.7438 H   0  0  0  0  0  0  0  0  0  0  0  0
   -1.1019   -1.1080   -0.5051 H   0  0  0  0  0  0  0  0  0  0  0  0
    1.5431   -0.6954   -0.4423 H   0  0  0  0  0  0  0  0  0  0  0  0
    4.5609   -1.8714    0.5963 H   0  0  0  0  0  0  0  0  0  0  0  0
    1.4549   -0.6602    2.7875 H   0  0  0  0  0  0  0  0  0  0  0  0
   -0.6041    0.0703   -0.3876 H   0  0  0  0  0  0  0  0  0  0  0  0
    2.1457    1.6595    1.9433 H   0  0  0  0  0  0  0  0  0  0  0  0
   -0.5803    1.3366    2.7299 H   0  0  0  0  0  0  0  0  0  0  0  0
    0.7019   -0.9144    5.0418 H   0  0  0  0  0  0  0  0  0  0  0  0
   -0.6700   -2.4780   -1.5713 H   0  0  0  0  0  0  0  0  0  0  0  0
    2.9237   -4.4622   -3.0710 H   0  0  0  0  0  0  0  0  0  0  0  0
    4.2939   -2.0203   -3.1781 H   0  0  0  0  0  0  0  0  0  0  0  0
    3.8948    0.2265   -3.5412 H   0  0  0  0  0  0  0  0  0  0  0  0
    2.0006    0.1639   -3.2641 H   0  0  0  0  0  0  0  0  0  0  0  0
    3.3534    0.2951   -0.9675 H   0  0  0  0  0  0  0  0  0  0  0  0
    5.6089   -2.4711    1.0219 H   0  0  0  0  0  0  0  0  0  0  0  0
    0.9944   -1.3279    3.4801 H   0  0  0  0  0  0  0  0  0  0  0  0
    1.0150    0.0734    0.2891 H   0  0  0  0  0  0  0  0  0  0  0  0
    1.3930    2.3889    2.2209 H   0  0  0  0  0  0  0  0  0  0  0  0
    0.0497    0.9755    3.9071 H   0  0  0  0  0  0  0  0  0  0  0  0
    3.8224   -0.2762    3.8056 H   0  0  0  0  0  0  0  0  0  0  0  0
   -0.0793   -2.7283   -0.1869 H   0  0  0  0  0  0  0  0  0  0  0  0
    4.2305   -3.9544   -2.9760 H   0  0  0  0  0  0  0  0  0  0  0  0
    5.9564   -2.4575   -2.3550 H   0  0  0  0  0  0  0  0  0  0  0  0
    4.9431   -0.3220   -2.8029 H   0  0  0  0  0  0  0  0  0  0  0  0
    3.6091   -0.8524   -2.9749 H   0  0  0  0  0  0  0  0  0  0  0  0
    3.2580    0.0383    0.9976 H   0  0  0  0  0  0  0  0  0  0  0  0
    3.2488    1.5028    1.0573 H   0  0  0  0  0  0  0  0  0  0  0  0
    1.0286    1.6588   -1.2131 H   0  0  0  0  0  0  0  0  0  0  0  0
    1.3492   -1.5556   -2.2191 H   0  0  0  0  0  0  0  0  0  0  0  0
   -0.2969   -1.2084   -2.1044 H   0  0  0  0  0  0  0  0  0  0  0  0
    1.4479   -1.3120   -2.8887 H   0  0  0  0  0  0  0  0  0  0  0  0
    0.6755   -0.6688    0.7267 H   0  0  0  0  0  0  0  0  0  0  0  0
    6.2581   -3.2952    2.3150 H   0  0  0  0  0  0  0  0  0  0  0  0
    2.1998   -1.9274    3.7379 H   0  0  0  0  0  0  0  0  0  0  0  0
    1.9292    0.3890    0.9662 H   0  0  0  0  0  0  0  0  0  0  0  0
    2.4686    2.2161    3.0849 H   0  0  0  0  0  0  0  0  0  0  0  0
    2.5618   -0.0694    3.7007 H   0  0  0  0  0  0  0  0  0  0  0  0
    4.5796    0.1015    2.6524 H   0  0  0  0  0  0  0  0  0  0  0  0
    1.4105   -2.0606   -1.1123 H   0  0  0  0  0  0  0  0  0  0  0  0
    5.5862   -4.3137   -2.2990 H   0  0  0  0  0  0  0  0  0  0  0  0
    6.6847   -2.4626   -1.0303 H   0  0  0  0  0  0  0  0  0  0  0  0
    6.1286   -0.8605   -2.2701 H   0  0  0  0  0  0  0  0  0  0  0  0
    4.4457   -1.3337   -2.0652 H   0  0  0  0  0  0  0  0  0  0  0  0
    4.4996   -0.1636    1.0677 H   0  0  0  0  0  0  0  0  0  0  0  0
    4.6826    1.1977    1.1577 H   0  0  0  0  0  0  0  0  0  0  0  0
    2.3353    2.2603   -0.8053 H   0  0  0  0  0  0  0  0  0  0  0  0
    2.7166   -0.9020   -1.5182 H   0  0  0  0  0  0  0  0  0  0  0  0
    1.1317    0.3877   -2.1934 H   0  0  0  0  0  0  0  0  0  0  0  0
    2.6807   -1.0035   -1.7507 H   0  0  0  0  0  0  0  0  0  0  0  0
    0.8360    0.4810    1.4048 H   0  0  0  0  0  0  0  0  0  0  0  0
    4.9576   -3.6147    2.7873 H   0  0  0  0  0  0  0  0  0  0  0  0
   -1.3463   -3.0730   -0.1279 H   0  0  0  0  0  0  0  0  0  0  0  0
    0.2688   -5.5499    1.8085 H   0  0  0  0  0  0  0  0  0  0  0  0
   -0.5189   -3.6824    0.7390 H   0  0  0  0  0  0  0  0  0  0  0  0
    3.0962   -4.8934   -0.1196 H   0  0  0  0  0  0  0  0  0  0  0  0
    2.4109   -5.7730    0.7263 H   0  0  0  0  0  0  0  0  0  0  0  0
    4.1372   -3.8221    2.0464 H   0  0  0  0  0  0  0  0  0  0  0  0
    2.4052   -5.5853    3.0402 H   0  0  0  0  0  0  0  0  0  0  0  0
    5.1567   -6.8207    0.1216 H   0  0  0  0  0  0  0  0  0  0  0  0
    2.2321   -6.4654   -0.1064 H   0  0  0  0  0  0  0  0  0  0  0  0
    1.4928   -4.6189    1.7450 H   0  0  0  0  0  0  0  0  0  0  0  0
    1.6859   -4.1027   -1.4942 H   0  0  0  0  0  0  0  0  0  0  0  0
    0.0192   -2.9226    2.7799 H   0  0  0  0  0  0  0  0  0  0  0  0
   -0.1529   -2.9174    4.8509 H   0  0  0  0  0  0  0  0  0  0  0  0
    0.4089   -4.7554    5.2040 H   0  0  0  0  0  0  0  0  0  0  0  0
    2.8998   -3.7344    5.2723 H   0  0  0  0  0  0  0  0  0  0  0  0
    1.6227   -1.4241    4.4502 H   0  0  0  0  0  0  0  0  0  0  0  0
    3.6531   -1.4171    4.8324 H   0  0  0  0  0  0  0  0  0  0  0  0
    2.6742   -3.0297    4.0680 H   0  0  0  0  0  0  0  0  0  0  0  0
    1.1977   -1.8185    6.3139 H   0  0  0  0  0  0  0  0  0  0  0  0
    2.7263   -3.8462    1.6059 H   0  0  0  0  0  0  0  0  0  0  0  0
    3.0481   -6.0253    2.4025 H   0  0  0  0  0  0  0  0  0  0  0  0
    5.2624   -5.6109   -1.0994 H   0  0  0  0  0  0  0  0  0  0  0  0
    2.7878   -6.6254   -1.1668 H   0  0  0  0  0  0  0  0  0  0  0  0
    0.8638   -4.4169   -0.5416 H   0  0  0  0  0  0  0  0  0  0  0  0
    2.2337   -5.5279    1.8472 H   0  0  0  0  0  0  0  0  0  0  0  0
   -0.4229   -3.7747    1.8850 H   0  0  0  0  0  0  0  0  0  0  0  0
   -0.4530   -3.8288    3.7986 H   0  0  0  0  0  0  0  0  0  0  0  0
    1.6864   -3.2358    1.5160 H   0  0  0  0  0  0  0  0  0  0  0  0
    2.6704   -4.2480    3.9923 H   0  0  0  0  0  0  0  0  0  0  0  0
    2.9676   -5.7163    4.2259 H   0  0  0  0  0  0  0  0  0  0  0  0
    5.5150   -4.4904    3.5314 H   0  0  0  0  0  0  0  0  0  0  0  0
    4.5456   -1.1663    3.0699 H   0  0  0  0  0  0  0  0  0  0  0  0
    6.2924   -1.7265    2.5791 H   0  0  0  0  0  0  0  0  0  0  0  0
    5.4135   -3.3201    1.7390 H   0  0  0  0  0  0  0  0  0  0  0  0
    4.1751   -2.6493    5.2516 H   0  0  0  0  0  0  0  0  0  0  0  0
    3.4473   -5.5040   -1.4958 H   0  0  0  0  0  0  0  0  0  0  0  0
    3.7058   -6.3334   -0.4314 H   0  0  0  0  0  0  0  0  0  0  0  0
    1.9514   -2.8790    0.5329 H   0  0  0  0  0  0  0  0  0  0  0  0
    3.7186   -4.2790    2.8682 H   0  0  0  0  0  0  0  0  0  0  0  0
    4.0529   -6.3318    1.3481 H   0  0  0  0  0  0  0  0  0  0  0  0
    4.5005   -4.4586   -1.7369 H   0  0  0  0  0  0  0  0  0  0  0  0
    4.5311   -1.1434   -0.4256 H   0  0  0  0  0  0  0  0  0  0  0  0
    3.8601   -1.3083   -0.9134 H   0  0  0  0  0  0  0  0  0  0  0  0
    3.7070   -1.9758   -1.2585 H   0  0  0  0  0  0  0  0  0  0  0  0
    6.1938   -3.5129    0.8442 H   0  0  0  0  0  0  0  0  0  0  0  0
   -1.2699   -2.7323    1.7458 H   0  0  0  0  0  0  0  0  0  0  0  0
    0.2963   -4.3846    3.4884 H   0  0  0  0  0  0  0  0  0  0  0  0
  1  2  1  0  0  0  0
  1101  1  0  0  0  0
  1102  1  0  0  0  0
  1103  1  0  0  0  0
  2  3  1  0  0  0  0
  2  4  1  0  0  0  0
  2104  1  0  0  0  0
  3105  1  0  0  0  0
  4  5  1  0  0  0  0
  4106  1  0  0  0  0
  4107  1  0  0  0  0
  5  6  1  0  0  0  0
  6108  1  0  0  0  0
  6109  1  0  0  0  0
  7  8  1  0  0  0  0
  7 61  1  0  0  0  0
  7110  1  6  0  0  0
  7  6  1  0  0  0  0
  9  8  1  0  0  0  0
  9 10  1  0  0  0  0
  9 63  1  0  0  0  0
  9111  1  1  0  0  0
 11 10  1  0  0  0  0
 11 12  1  0  0  0  0
 11 99  1  0  0  0  0
 11112  1  6  0  0  0
 12 15  1  0  0  0  0
 12 13  1  0  0  0  0
 12113  1  1  0  0  0
 13 14  1  0  0  0  0
 13114  1  0  0  0  0
 13115  1  0  0  0  0
 14116  1  0  0  0  0
 16 15  1  0  0  0  0
 16 17  1  0  0  0  0
 16117  1  6  0  0  0
 18 17  1  0  0  0  0
 18 19  1  0  0  0  0
 18 91  1  0  0  0  0
 18118  1  1  0  0  0
 19 22  1  0  0  0  0
 19119  1  1  0  0  0
 19 20  1  0  0  0  0
 20 21  1  0  0  0  0
 20120  1  0  0  0  0
 20121  1  0  0  0  0
 21122  1  0  0  0  0
 23 22  1  0  0  0  0
 23 24  1  0  0  0  0
 23123  1  1  0  0  0
 25 24  1  0  0  0  0
 25 26  1  0  0  0  0
 25 83  1  0  0  0  0
 25124  1  6  0  0  0
 26 29  1  0  0  0  0
 26 27  1  0  0  0  0
 26125  1  1  0  0  0
 27 28  1  0  0  0  0
 27126  1  0  0  0  0
 27127  1  0  0  0  0
 28128  1  0  0  0  0
 30 29  1  0  0  0  0
 30 31  1  0  0  0  0
 30129  1  1  0  0  0
 32 31  1  0  0  0  0
 32 33  1  0  0  0  0
 32 79  1  0  0  0  0
 32130  1  1  0  0  0
 33 40  1  0  0  0  0
 33131  1  6  0  0  0
 33 34  1  0  0  0  0
 34 35  1  0  0  0  0
 34132  1  0  0  0  0
 34133  1  0  0  0  0
 35 36  1  0  0  0  0
 36 37  1  0  0  0  0
 36134  1  0  0  0  0
 36135  1  0  0  0  0
 37 38  1  0  0  0  0
 37 39  1  0  0  0  0
 37136  1  0  0  0  0
 38137  1  0  0  0  0
 38138  1  0  0  0  0
 38139  1  0  0  0  0
 39140  1  0  0  0  0
 41 40  1  0  0  0  0
 41 42  1  0  0  0  0
 41141  1  6  0  0  0
 43 42  1  0  0  0  0
 43 44  1  0  0  0  0
 43 71  1  0  0  0  0
 43142  1  6  0  0  0
 44 47  1  0  0  0  0
 44 45  1  0  0  0  0
 44143  1  6  0  0  0
 45 46  1  0  0  0  0
 45144  1  0  0  0  0
 45145  1  0  0  0  0
 46146  1  0  0  0  0
 48 47  1  0  0  0  0
 48 49  1  0  0  0  0
 48147  1  1  0  0  0
 50 49  1  0  0  0  0
 50 51  1  0  0  0  0
 50 67  1  0  0  0  0
 50148  1  1  0  0  0
 51 58  1  0  0  0  0
 51149  1  1  0  0  0
 51 52  1  0  0  0  0
 52 53  1  0  0  0  0
 52150  1  0  0  0  0
 52151  1  0  0  0  0
 53 54  1  0  0  0  0
 54 55  1  0  0  0  0
 54152  1  0  0  0  0
 54153  1  0  0  0  0
 55 56  1  0  0  0  0
 55 57  1  0  0  0  0
 55154  1  0  0  0  0
 56155  1  0  0  0  0
 56156  1  0  0  0  0
 56157  1  0  0  0  0
 57158  1  0  0  0  0
 59 58  1  0  0  0  0
 59 60  1  0  0  0  0
 59159  1  6  0  0  0
 61 60  1  0  0  0  0
 61 62  1  0  0  0  0
 61160  1  6  0  0  0
 62161  1  0  0  0  0
 62162  1  0  0  0  0
 63 62  1  0  0  0  0
 63163  1  1  0  0  0
 63 64  1  0  0  0  0
 64164  1  0  0  0  0
 65 59  1  0  0  0  0
 65 66  1  0  0  0  0
 65165  1  6  0  0  0
 66166  1  0  0  0  0
 67 65  1  0  0  0  0
 67167  1  6  0  0  0
 67 68  1  0  0  0  0
 68168  1  0  0  0  0
 69 48  1  0  0  0  0
 69169  1  1  0  0  0
 69 70  1  0  0  0  0
 70170  1  0  0  0  0
 71 69  1  0  0  0  0
 71 72  1  0  0  0  0
 71171  1  1  0  0  0
 72 73  1  0  0  0  0
 73 74  1  0  0  0  0
 73172  1  0  0  0  0
 73173  1  0  0  0  0
 74 75  1  0  0  0  0
 74 76  1  0  0  0  0
 74174  1  0  0  0  0
 75175  1  0  0  0  0
 75176  1  0  0  0  0
 75177  1  0  0  0  0
 76178  1  0  0  0  0
 77 41  1  0  0  0  0
 77 78  1  0  0  0  0
 77179  1  6  0  0  0
 78180  1  0  0  0  0
 79 77  1  0  0  0  0
 79181  1  6  0  0  0
 79 80  1  0  0  0  0
 80182  1  0  0  0  0
 81 30  1  0  0  0  0
 81 82  1  0  0  0  0
 81183  1  1  0  0  0
 82184  1  0  0  0  0
 83 81  1  0  0  0  0
 83 84  1  0  0  0  0
 83185  1  6  0  0  0
 84186  1  0  0  0  0
 85 23  1  0  0  0  0
 85 86  1  0  0  0  0
 85187  1  6  0  0  0
 86 87  1  0  0  0  0
 87 88  1  0  0  0  0
 87188  1  0  0  0  0
 87189  1  0  0  0  0
 88 89  1  0  0  0  0
 88 90  1  0  0  0  0
 88190  1  0  0  0  0
 89191  1  0  0  0  0
 89192  1  0  0  0  0
 89193  1  0  0  0  0
 90194  1  0  0  0  0
 91 85  1  0  0  0  0
 91195  1  6  0  0  0
 91 92  1  0  0  0  0
 92196  1  0  0  0  0
 93 16  1  0  0  0  0
 93 94  1  0  0  0  0
 93197  1  1  0  0  0
 94 95  1  0  0  0  0
 95 96  1  0  0  0  0
 95198  1  0  0  0  0
 95199  1  0  0  0  0
 96 97  1  0  0  0  0
 96 98  1  0  0  0  0
 96200  1  0  0  0  0
 97201  1  0  0  0  0
 97202  1  0  0  0  0
 97203  1  0  0  0  0
 98204  1  0  0  0  0
 99 93  1  0  0  0  0
 99100  1  0  0  0  0
 99205  1  6  0  0  0
100206  1  0  0  0  0
M  END
>  <DRUGBANK_ID>
DB15379

>  <COMMON_NAME>
Hydroxypropyl betadex

>  <CAS_NUMBER>
128446-35-5

>  <UNII>
1I96OHX6EK

>  <SYNONYMS>
2-Hydroxylpropyl-beta-cyclodextrin; 2-Hydroxypropyl-b-cyclodextrin; 2-HYDROXYPROPYL-BETA-CYCLODEXTRIN; HP-beta-CD; HPB; Hydroxypropyl beta cyclodextrin

$$$$
