
 OpenBabel10282417153D

 75 77  0  0  1  0  0  0  0  0999 V2000
   -1.4821    2.4332   -4.0718 C   0  0  0  0  0  0  0  0  0  0  0  0
   -0.4942    1.9357   -5.1548 C   0  0  2  0  0  0  0  0  0  0  0  0
    0.5856    1.2008   -4.3872 C   0  0  0  0  0  0  0  0  0  0  0  0
    0.9397    1.5372   -3.1330 C   0  0  0  0  0  0  0  0  0  0  0  0
    1.8306    0.8177   -2.1774 C   0  0  2  0  0  0  0  0  0  0  0  0
    1.2762    1.0018   -0.7506 C   0  0  0  0  0  0  0  0  0  0  0  0
    3.2617    1.3845   -2.3112 C   0  0  0  0  0  0  0  0  0  0  0  0
    4.2059    0.6548   -1.3614 C   0  0  0  0  0  0  0  0  0  0  0  0
    3.8045    1.2903   -3.7471 C   0  0  0  0  0  0  0  0  0  0  0  0
    1.7866   -0.5759   -2.4616 O   0  0  0  0  0  0  0  0  0  0  0  0
    0.1551    2.9333   -6.1484 C   0  0  1  0  0  0  0  0  0  0  0  0
    0.2845    2.4175   -7.6220 C   0  0  0  0  0  0  0  0  0  0  0  0
   -0.0109    3.6147   -8.5475 C   0  0  0  0  0  0  0  0  0  0  0  0
    0.0651    4.8059   -7.5983 C   0  0  2  0  0  0  0  0  0  0  0  0
   -0.5615    4.2776   -6.2887 C   0  0  2  0  0  0  0  0  0  0  0  0
   -0.1697    5.2298   -5.1272 C   0  0  0  0  0  0  0  0  0  0  0  0
   -0.7275    6.6120   -5.3475 C   0  0  0  0  0  0  0  0  0  0  0  0
   -0.3678    7.0776   -6.7337 C   0  0  0  0  0  0  0  0  0  0  0  0
   -0.5787    6.1193   -7.8875 C   0  0  0  0  0  0  0  0  0  0  0  0
   -1.2166    6.4588   -9.0372 C   0  0  0  0  0  0  0  0  0  0  0  0
   -1.5863    7.8239   -9.3461 C   0  0  0  0  0  0  0  0  0  0  0  0
   -0.7763    8.9068   -9.2121 C   0  0  0  0  0  0  0  0  0  0  0  0
   -1.3103   10.3004   -9.4355 C   0  0  0  0  0  0  0  0  0  0  0  0
   -1.0219   11.2535   -8.2611 C   0  0  2  0  0  0  0  0  0  0  0  0
    0.4353   11.2106   -7.7962 C   0  0  0  0  0  0  0  0  0  0  0  0
    0.8790    9.7916   -7.5058 C   0  0  1  0  0  0  0  0  0  0  0  0
    0.6168    8.8733   -8.7064 C   0  0  0  0  0  0  0  0  0  0  0  0
    1.5223    7.9788   -9.1540 C   0  0  0  0  0  0  0  0  0  0  0  0
    2.2428    9.7710   -7.0956 O   0  0  0  0  0  0  0  0  0  0  0  0
   -1.9080   10.9994   -7.1662 O   0  0  0  0  0  0  0  0  0  0  0  0
   -2.0957    4.1684   -6.5502 C   0  0  0  0  0  0  0  0  0  0  0  0
   -1.8675    1.5643   -3.5308 H   0  0  0  0  0  0  0  0  0  0  0  0
   -2.3789    2.9550   -4.3500 H   0  0  0  0  0  0  0  0  0  0  0  0
   -1.0283    3.1215   -3.3599 H   0  0  0  0  0  0  0  0  0  0  0  0
   -1.0329    1.1879   -5.7477 H   0  0  0  0  0  0  0  0  0  0  0  0
    1.0297    0.3458   -4.8881 H   0  0  0  0  0  0  0  0  0  0  0  0
    0.5612    2.4484   -2.6764 H   0  0  0  0  0  0  0  0  0  0  0  0
    1.5901    1.9593   -0.3166 H   0  0  0  0  0  0  0  0  0  0  0  0
    0.1785    0.9845   -0.7287 H   0  0  0  0  0  0  0  0  0  0  0  0
    1.6069    0.1932   -0.0909 H   0  0  0  0  0  0  0  0  0  0  0  0
    3.2493    2.4508   -2.0384 H   0  0  0  0  0  0  0  0  0  0  0  0
    4.2302   -0.4155   -1.5879 H   0  0  0  0  0  0  0  0  0  0  0  0
    5.2198    1.0520   -1.4430 H   0  0  0  0  0  0  0  0  0  0  0  0
    3.8867    0.7741   -0.3213 H   0  0  0  0  0  0  0  0  0  0  0  0
    3.2020    1.8768   -4.4493 H   0  0  0  0  0  0  0  0  0  0  0  0
    4.8202    1.6880   -3.8078 H   0  0  0  0  0  0  0  0  0  0  0  0
    3.8199    0.2548   -4.1002 H   0  0  0  0  0  0  0  0  0  0  0  0
    2.0624   -0.6955   -3.3827 H   0  0  0  0  0  0  0  0  0  0  0  0
    1.1973    3.1322   -5.8339 H   0  0  0  0  0  0  0  0  0  0  0  0
   -0.4085    1.6011   -7.8400 H   0  0  0  0  0  0  0  0  0  0  0  0
    1.3002    2.0494   -7.8167 H   0  0  0  0  0  0  0  0  0  0  0  0
   -0.9990    3.5012   -9.0070 H   0  0  0  0  0  0  0  0  0  0  0  0
    0.7008    3.6960   -9.3760 H   0  0  0  0  0  0  0  0  0  0  0  0
    1.1411    5.0119   -7.4643 H   0  0  0  0  0  0  0  0  0  0  0  0
    0.9285    5.3111   -5.0621 H   0  0  0  0  0  0  0  0  0  0  0  0
   -0.5004    4.8914   -4.1490 H   0  0  0  0  0  0  0  0  0  0  0  0
   -0.3096    7.3222   -4.6225 H   0  0  0  0  0  0  0  0  0  0  0  0
   -1.8122    6.6317   -5.2167 H   0  0  0  0  0  0  0  0  0  0  0  0
    0.7062    7.2961   -6.6987 H   0  0  0  0  0  0  0  0  0  0  0  0
   -0.9623    7.9777   -6.8608 H   0  0  0  0  0  0  0  0  0  0  0  0
   -1.4147    5.7213   -9.8066 H   0  0  0  0  0  0  0  0  0  0  0  0
   -2.6106    7.9403   -9.7028 H   0  0  0  0  0  0  0  0  0  0  0  0
   -2.3933   10.2714   -9.6117 H   0  0  0  0  0  0  0  0  0  0  0  0
   -0.8375   10.6890  -10.3440 H   0  0  0  0  0  0  0  0  0  0  0  0
   -1.2429   12.2738   -8.5865 H   0  0  0  0  0  0  0  0  0  0  0  0
    1.0967   11.6374   -8.5567 H   0  0  0  0  0  0  0  0  0  0  0  0
    0.5634   11.8066   -6.8842 H   0  0  0  0  0  0  0  0  0  0  0  0
    0.3242    9.4711   -6.6196 H   0  0  0  0  0  0  0  0  0  0  0  0
    1.2800    7.2477   -9.9196 H   0  0  0  0  0  0  0  0  0  0  0  0
    2.4670    7.8279   -8.6403 H   0  0  0  0  0  0  0  0  0  0  0  0
    2.7796    9.9265   -7.8881 H   0  0  0  0  0  0  0  0  0  0  0  0
   -1.8327   10.0661   -6.9017 H   0  0  0  0  0  0  0  0  0  0  0  0
   -2.3167    3.6142   -7.4631 H   0  0  0  0  0  0  0  0  0  0  0  0
   -2.6917    3.6571   -5.8230 H   0  0  0  0  0  0  0  0  0  0  0  0
   -2.5753    5.1454   -6.6256 H   0  0  0  0  0  0  0  0  0  0  0  0
  1 32  1  0  0  0  0
  1 33  1  0  0  0  0
  1 34  1  0  0  0  0
  2 35  1  6  0  0  0
  2  3  1  0  0  0  0
  2  1  1  0  0  0  0
  3  4  2  0  0  0  0
  3 36  1  0  0  0  0
  4 37  1  0  0  0  0
  5  7  1  0  0  0  0
  5 10  1  6  0  0  0
  5  6  1  0  0  0  0
  5  4  1  0  0  0  0
  6 38  1  0  0  0  0
  6 39  1  0  0  0  0
  6 40  1  0  0  0  0
  7  8  1  0  0  0  0
  7  9  1  0  0  0  0
  7 41  1  0  0  0  0
  8 42  1  0  0  0  0
  8 43  1  0  0  0  0
  8 44  1  0  0  0  0
  9 45  1  0  0  0  0
  9 46  1  0  0  0  0
  9 47  1  0  0  0  0
 10 48  1  0  0  0  0
 11  2  1  0  0  0  0
 11 12  1  0  0  0  0
 11 15  1  0  0  0  0
 11 49  1  1  0  0  0
 12 13  1  0  0  0  0
 12 50  1  0  0  0  0
 12 51  1  0  0  0  0
 13 52  1  0  0  0  0
 13 53  1  0  0  0  0
 14 13  1  0  0  0  0
 14 19  1  0  0  0  0
 14 54  1  1  0  0  0
 15 14  1  0  0  0  0
 15 16  1  0  0  0  0
 15 31  1  6  0  0  0
 16 17  1  0  0  0  0
 16 55  1  0  0  0  0
 16 56  1  0  0  0  0
 17 18  1  0  0  0  0
 17 57  1  0  0  0  0
 17 58  1  0  0  0  0
 18 19  1  0  0  0  0
 18 59  1  0  0  0  0
 18 60  1  0  0  0  0
 19 20  2  0  0  0  0
 20 21  1  0  0  0  0
 20 61  1  0  0  0  0
 21 22  2  0  0  0  0
 21 62  1  0  0  0  0
 22 23  1  0  0  0  0
 22 27  1  0  0  0  0
 23 63  1  0  0  0  0
 23 64  1  0  0  0  0
 24 23  1  0  0  0  0
 24 25  1  0  0  0  0
 24 30  1  0  0  0  0
 24 65  1  6  0  0  0
 25 66  1  0  0  0  0
 25 67  1  0  0  0  0
 26 25  1  0  0  0  0
 26 27  1  0  0  0  0
 26 29  1  0  0  0  0
 26 68  1  1  0  0  0
 27 28  2  0  0  0  0
 28 69  1  0  0  0  0
 28 70  1  0  0  0  0
 29 71  1  0  0  0  0
 30 72  1  0  0  0  0
 31 73  1  0  0  0  0
 31 74  1  0  0  0  0
 31 75  1  0  0  0  0
M  END
>  <DRUGBANK_ID>
DB06117

>  <COMMON_NAME>
1alpha,24S-Dihydroxyvitamin D2

>  <CAS_NUMBER>
156316-85-7

>  <UNII>
2900I92Z36

$$$$
