
 OpenBabel10282417153D

 60 62  0  0  0  0  0  0  0  0999 V2000
   -1.4432    0.2748   -0.2162 C   0  0  0  0  0  0  0  0  0  0  0  0
   -1.0396   -1.1576    0.2002 C   0  0  2  0  0  0  0  0  0  0  0  0
    0.3876   -1.4501   -0.2593 C   0  0  0  0  0  0  0  0  0  0  0  0
    1.3642   -0.3960    0.2332 C   0  0  0  0  0  0  0  0  0  0  0  0
    0.9601    1.0188   -0.1912 C   0  0  1  0  0  0  0  0  0  0  0  0
   -0.4626    1.3431    0.2509 C   0  0  0  0  0  0  0  0  0  0  0  0
    1.9326    2.0438    0.4025 C   0  0  0  0  0  0  0  0  0  0  0  0
    3.3610    1.8098   -0.0863 C   0  0  0  0  0  0  0  0  0  0  0  0
    3.4488    1.8804   -1.5581 N   0  0  0  0  0  0  0  0  0  0  0  0
    4.8268    1.5585   -2.0028 C   0  0  0  0  0  0  0  0  0  0  0  0
    5.8722    2.5964   -1.5403 C   0  0  0  0  0  0  0  0  0  0  0  0
    5.4454    3.9464   -1.9226 N   0  0  0  0  0  0  0  0  0  0  0  0
    4.0807    4.3332   -1.5556 C   0  0  0  0  0  0  0  0  0  0  0  0
    3.1077    3.2409   -2.0565 C   0  0  0  0  0  0  0  0  0  0  0  0
    6.2694    4.7754   -2.6539 C   0  0  0  0  0  0  0  0  0  0  0  0
    6.7112    6.0341   -2.1874 C   0  0  0  0  0  0  0  0  0  0  0  0
    7.5992    6.8016   -2.9595 C   0  0  0  0  0  0  0  0  0  0  0  0
    8.0528    6.3310   -4.1944 C   0  0  0  0  0  0  0  0  0  0  0  0
    7.6060    5.1064   -4.6773 C   0  0  0  0  0  0  0  0  0  0  0  0
    6.7199    4.3443   -3.9154 C   0  0  0  0  0  0  0  0  0  0  0  0
    8.1900    8.3431   -2.4383 Cl  0  0  0  0  0  0  0  0  0  0  0  0
    6.2190    6.5957   -0.6135 Cl  0  0  0  0  0  0  0  0  0  0  0  0
   -2.0399   -2.0919   -0.3341 N   0  0  0  0  0  0  0  0  0  0  0  0
   -2.0018   -3.4670   -0.3234 C   0  0  0  0  0  0  0  0  0  0  0  0
   -3.1990   -4.0840   -0.6931 N   0  0  0  0  0  0  0  0  0  0  0  0
   -0.9941   -4.1086   -0.0235 O   0  0  0  0  0  0  0  0  0  0  0  0
   -3.2844   -5.5401   -0.7483 C   0  0  0  0  0  0  0  0  0  0  0  0
   -4.4282   -3.3666   -0.9889 C   0  0  0  0  0  0  0  0  0  0  0  0
   -1.5223    0.3241   -1.3113 H   0  0  0  0  0  0  0  0  0  0  0  0
   -2.4377    0.5166    0.1761 H   0  0  0  0  0  0  0  0  0  0  0  0
   -1.0802   -1.2282    1.2954 H   0  0  0  0  0  0  0  0  0  0  0  0
    0.7328   -2.4174    0.1172 H   0  0  0  0  0  0  0  0  0  0  0  0
    0.4306   -1.4957   -1.3541 H   0  0  0  0  0  0  0  0  0  0  0  0
    1.4474   -0.4354    1.3272 H   0  0  0  0  0  0  0  0  0  0  0  0
    2.3485   -0.6564   -0.1692 H   0  0  0  0  0  0  0  0  0  0  0  0
    0.9859    1.0761   -1.2887 H   0  0  0  0  0  0  0  0  0  0  0  0
   -0.7599    2.3177   -0.1599 H   0  0  0  0  0  0  0  0  0  0  0  0
   -0.5034    1.4350    1.3423 H   0  0  0  0  0  0  0  0  0  0  0  0
    1.6052    3.0630    0.1632 H   0  0  0  0  0  0  0  0  0  0  0  0
    1.9200    1.9921    1.4976 H   0  0  0  0  0  0  0  0  0  0  0  0
    4.0135    2.5206    0.4265 H   0  0  0  0  0  0  0  0  0  0  0  0
    3.7107    0.8278    0.2525 H   0  0  0  0  0  0  0  0  0  0  0  0
    5.1069    0.5560   -1.6565 H   0  0  0  0  0  0  0  0  0  0  0  0
    4.8306    1.5057   -3.1002 H   0  0  0  0  0  0  0  0  0  0  0  0
    5.9603    2.5667   -0.4476 H   0  0  0  0  0  0  0  0  0  0  0  0
    6.8625    2.3365   -1.9273 H   0  0  0  0  0  0  0  0  0  0  0  0
    4.0169    4.4238   -0.4644 H   0  0  0  0  0  0  0  0  0  0  0  0
    3.7825    5.3028   -1.9670 H   0  0  0  0  0  0  0  0  0  0  0  0
    3.1199    3.2184   -3.1543 H   0  0  0  0  0  0  0  0  0  0  0  0
    2.0761    3.5048   -1.8012 H   0  0  0  0  0  0  0  0  0  0  0  0
    8.7545    6.9165   -4.7834 H   0  0  0  0  0  0  0  0  0  0  0  0
    7.9458    4.7421   -5.6438 H   0  0  0  0  0  0  0  0  0  0  0  0
    6.3602    3.4003   -4.3218 H   0  0  0  0  0  0  0  0  0  0  0  0
   -2.9291   -1.6743   -0.5341 H   0  0  0  0  0  0  0  0  0  0  0  0
   -4.0413   -5.8805   -0.0327 H   0  0  0  0  0  0  0  0  0  0  0  0
   -3.5985   -5.8394   -1.7547 H   0  0  0  0  0  0  0  0  0  0  0  0
   -2.3363   -6.0306   -0.5164 H   0  0  0  0  0  0  0  0  0  0  0  0
   -4.7066   -2.7640   -0.1187 H   0  0  0  0  0  0  0  0  0  0  0  0
   -4.2602   -2.7131   -1.8497 H   0  0  0  0  0  0  0  0  0  0  0  0
   -5.2438   -4.0581   -1.2177 H   0  0  0  0  0  0  0  0  0  0  0  0
  1  2  1  0  0  0  0
  1  6  1  0  0  0  0
  1 29  1  0  0  0  0
  1 30  1  0  0  0  0
  2  3  1  0  0  0  0
  2 31  1  1  0  0  0
  2 23  1  0  0  0  0
  3  4  1  0  0  0  0
  3 32  1  0  0  0  0
  3 33  1  0  0  0  0
  4  5  1  0  0  0  0
  4 34  1  0  0  0  0
  4 35  1  0  0  0  0
  5  6  1  0  0  0  0
  5  7  1  0  0  0  0
  5 36  1  6  0  0  0
  6 37  1  0  0  0  0
  6 38  1  0  0  0  0
  7  8  1  0  0  0  0
  7 39  1  0  0  0  0
  7 40  1  0  0  0  0
  8  9  1  0  0  0  0
  8 41  1  0  0  0  0
  8 42  1  0  0  0  0
  9 10  1  0  0  0  0
  9 14  1  0  0  0  0
 10 11  1  0  0  0  0
 10 43  1  0  0  0  0
 10 44  1  0  0  0  0
 11 12  1  0  0  0  0
 11 45  1  0  0  0  0
 11 46  1  0  0  0  0
 12 13  1  0  0  0  0
 12 15  1  0  0  0  0
 13 14  1  0  0  0  0
 13 47  1  0  0  0  0
 13 48  1  0  0  0  0
 14 49  1  0  0  0  0
 14 50  1  0  0  0  0
 15 16  2  0  0  0  0
 15 20  1  0  0  0  0
 16 17  1  0  0  0  0
 16 22  1  0  0  0  0
 17 18  2  0  0  0  0
 17 21  1  0  0  0  0
 18 19  1  0  0  0  0
 18 51  1  0  0  0  0
 19 20  2  0  0  0  0
 19 52  1  0  0  0  0
 20 53  1  0  0  0  0
 23 24  1  0  0  0  0
 23 54  1  0  0  0  0
 24 25  1  0  0  0  0
 24 26  2  0  0  0  0
 25 27  1  0  0  0  0
 25 28  1  0  0  0  0
 27 55  1  0  0  0  0
 27 56  1  0  0  0  0
 27 57  1  0  0  0  0
 28 58  1  0  0  0  0
 28 59  1  0  0  0  0
 28 60  1  0  0  0  0
M  END
>  <DRUGBANK_ID>
DB06016

>  <COMMON_NAME>
Cariprazine

>  <CAS_NUMBER>
839712-12-8

>  <UNII>
F6RJL8B278

>  <SYNONYMS>
Cariprazine; trans-N-{4-[2-[4-(2,3-dichlorophenyl)piperazine-1-yl]ethyl]cyclohexyl}-N’,N’-dimethylurea hydrochloride

$$$$
