
 OpenBabel10282417103D

 53 56  0  0  0  0  0  0  0  0999 V2000
    1.4071   -0.4960   -0.4930 C   0  0  0  0  0  0  0  0  0  0  0  0
    0.4974   -1.5225   -0.2259 C   0  0  0  0  0  0  0  0  0  0  0  0
   -0.8837   -1.2953   -0.2241 C   0  0  0  0  0  0  0  0  0  0  0  0
   -1.3786   -0.0371   -0.5162 C   0  0  0  0  0  0  0  0  0  0  0  0
   -0.4748    0.9710   -0.8835 C   0  0  0  0  0  0  0  0  0  0  0  0
    0.9360    0.7525   -0.8807 C   0  0  0  0  0  0  0  0  0  0  0  0
    2.2256    1.9984   -1.0211 S   0  0  0  0  0  0  0  0  0  0  0  0
    1.5594    3.2911   -2.0938 C   0  0  0  0  0  0  0  0  0  0  0  0
    0.1907    4.0277   -1.8482 C   0  0  0  0  0  0  0  0  0  0  0  0
    0.1978    5.0914   -0.7331 C   0  0  0  0  0  0  0  0  0  0  0  0
    1.1377    4.9837    0.2570 C   0  0  0  0  0  0  0  0  0  0  0  0
   -0.5429    6.2084   -0.4550 C   0  0  0  0  0  0  0  0  0  0  0  0
   -0.0468    7.1996    0.6077 C   0  0  0  0  0  0  0  0  0  0  0  0
    0.8301    6.8054    1.6915 C   0  0  0  0  0  0  0  0  0  0  0  0
    1.1124    5.5077    1.5665 C   0  0  0  0  0  0  0  0  0  0  0  0
    1.4872    5.1339    2.9049 C   0  0  0  0  0  0  0  0  0  0  0  0
    1.9822    6.9845    2.6505 N   0  0  0  0  0  0  0  0  0  0  0  0
    1.2408    6.2419    3.7698 C   0  0  0  0  0  0  0  0  0  0  0  0
    2.3247    3.9055    3.0355 C   0  0  0  0  0  0  0  0  0  0  0  0
    1.3934    2.7111    3.1182 C   0  0  2  0  0  0  0  0  0  0  0  0
    0.7122    0.5539    2.6108 C   0  0  0  0  0  0  0  0  0  0  0  0
    1.9041    1.3895    2.7277 N   0  0  0  0  0  0  0  0  0  0  0  0
    0.1648    2.8773    2.2408 C   0  0  0  0  0  0  0  0  0  0  0  0
   -0.2427    1.4963    1.9628 C   0  0  0  0  0  0  0  0  0  0  0  0
    2.8373    0.8200    3.6613 C   0  0  0  0  0  0  0  0  0  0  0  0
    2.5115    2.5162    0.3579 O   0  0  0  0  0  0  0  0  0  0  0  0
    3.3389    1.4231   -1.6445 O   0  0  0  0  0  0  0  0  0  0  0  0
    2.4582   -0.6165   -0.2245 H   0  0  0  0  0  0  0  0  0  0  0  0
    0.8825   -2.4820    0.0980 H   0  0  0  0  0  0  0  0  0  0  0  0
   -1.5632   -2.0725    0.1113 H   0  0  0  0  0  0  0  0  0  0  0  0
   -2.4180    0.2120   -0.2808 H   0  0  0  0  0  0  0  0  0  0  0  0
   -0.9130    1.9544   -0.7158 H   0  0  0  0  0  0  0  0  0  0  0  0
    2.3404    4.0538   -2.1906 H   0  0  0  0  0  0  0  0  0  0  0  0
    1.5271    2.7274   -3.0349 H   0  0  0  0  0  0  0  0  0  0  0  0
   -0.0967    4.4779   -2.8095 H   0  0  0  0  0  0  0  0  0  0  0  0
   -0.6124    3.3051   -1.7403 H   0  0  0  0  0  0  0  0  0  0  0  0
    1.8786    4.2725    0.1089 H   0  0  0  0  0  0  0  0  0  0  0  0
   -1.4172    6.4578   -1.0687 H   0  0  0  0  0  0  0  0  0  0  0  0
   -0.6749    8.0584    0.6971 H   0  0  0  0  0  0  0  0  0  0  0  0
    2.9019    6.4483    2.7043 H   0  0  0  0  0  0  0  0  0  0  0  0
    0.5614    7.0810    3.9729 H   0  0  0  0  0  0  0  0  0  0  0  0
    3.0046    3.9026    2.1646 H   0  0  0  0  0  0  0  0  0  0  0  0
    3.0141    3.9362    3.8759 H   0  0  0  0  0  0  0  0  0  0  0  0
    1.0381    2.6621    4.1438 H   0  0  0  0  0  0  0  0  0  0  0  0
    0.9322   -0.3224    2.0032 H   0  0  0  0  0  0  0  0  0  0  0  0
    0.2924    0.2353    3.5567 H   0  0  0  0  0  0  0  0  0  0  0  0
   -0.6294    3.5512    2.5613 H   0  0  0  0  0  0  0  0  0  0  0  0
    0.4311    3.2341    1.2568 H   0  0  0  0  0  0  0  0  0  0  0  0
   -1.3091    1.3073    1.9217 H   0  0  0  0  0  0  0  0  0  0  0  0
    0.1162    1.4816    0.9766 H   0  0  0  0  0  0  0  0  0  0  0  0
    2.3450    0.7307    4.6301 H   0  0  0  0  0  0  0  0  0  0  0  0
    3.1554   -0.1734    3.3253 H   0  0  0  0  0  0  0  0  0  0  0  0
    3.7302    1.4420    3.7530 H   0  0  0  0  0  0  0  0  0  0  0  0
  1  2  2  0  0  0  0
  1  6  1  0  0  0  0
  1 28  1  0  0  0  0
  2  3  1  0  0  0  0
  2 29  1  0  0  0  0
  3  4  2  0  0  0  0
  3 30  1  0  0  0  0
  4  5  1  0  0  0  0
  4 31  1  0  0  0  0
  5  6  2  0  0  0  0
  5 32  1  0  0  0  0
  6  7  1  0  0  0  0
  7  8  1  0  0  0  0
  7 26  2  0  0  0  0
  7 27  2  0  0  0  0
  8  9  1  0  0  0  0
  8 33  1  0  0  0  0
  8 34  1  0  0  0  0
  9 10  1  0  0  0  0
  9 35  1  0  0  0  0
  9 36  1  0  0  0  0
 10 12  1  0  0  0  0
 11 10  2  0  0  0  0
 11 15  1  0  0  0  0
 11 37  1  0  0  0  0
 12 13  2  0  0  0  0
 12 38  1  0  0  0  0
 13 14  1  0  0  0  0
 13 39  1  0  0  0  0
 14 17  1  0  0  0  0
 14 15  2  0  0  0  0
 16 15  1  0  0  0  0
 16 18  2  0  0  0  0
 16 19  1  0  0  0  0
 17 18  1  0  0  0  0
 17 40  1  0  0  0  0
 18 41  1  0  0  0  0
 19 42  1  0  0  0  0
 19 43  1  0  0  0  0
 20 19  1  0  0  0  0
 20 23  1  0  0  0  0
 20 44  1  1  0  0  0
 21 22  1  0  0  0  0
 21 24  1  0  0  0  0
 21 45  1  0  0  0  0
 21 46  1  0  0  0  0
 22 20  1  0  0  0  0
 22 25  1  0  0  0  0
 23 24  1  0  0  0  0
 23 47  1  0  0  0  0
 23 48  1  0  0  0  0
 24 49  1  0  0  0  0
 24 50  1  0  0  0  0
 25 51  1  0  0  0  0
 25 52  1  0  0  0  0
 25 53  1  0  0  0  0
M  END
>  <DRUGBANK_ID>
DB00216

>  <SECONDARY_ACCESSION_NUMBERS>
APRD00945

>  <COMMON_NAME>
Eletriptan

>  <CAS_NUMBER>
143322-58-1

>  <UNII>
22QOO9B8KI

>  <SYNONYMS>
Eletriptan; élétriptan; Eletriptán; Eletriptanum

$$$$
