
 OpenBabel10282417193D

 58 60  0  0  0  0  0  0  0  0999 V2000
    1.3572   -0.2180    0.0213 C   0  0  0  0  0  0  0  0  0  0  0  0
    0.5010   -1.3159    0.0264 C   0  0  0  0  0  0  0  0  0  0  0  0
   -0.8834   -1.1290    0.0202 C   0  0  0  0  0  0  0  0  0  0  0  0
   -1.4313    0.1580    0.0468 C   0  0  0  0  0  0  0  0  0  0  0  0
   -0.5576    1.2597    0.0676 C   0  0  0  0  0  0  0  0  0  0  0  0
    0.8294    1.0710    0.0175 C   0  0  0  0  0  0  0  0  0  0  0  0
   -2.9042    0.3965   -0.1274 C   0  0  0  0  0  0  0  0  0  0  0  0
   -3.3176    1.5464   -0.2549 O   0  0  0  0  0  0  0  0  0  0  0  0
   -3.6932   -0.7096   -0.4250 N   0  0  0  0  0  0  0  0  0  0  0  0
   -4.3663   -0.7303   -1.7012 C   0  0  0  0  0  0  0  0  0  0  0  0
   -5.8655   -0.6970   -1.5447 C   0  0  0  0  0  0  0  0  0  0  0  0
   -6.3731   -1.7814   -0.5886 C   0  0  0  0  0  0  0  0  0  0  0  0
   -5.6073   -1.7711    0.7414 C   0  0  0  0  0  0  0  0  0  0  0  0
   -4.0887   -1.7500    0.5218 C   0  0  0  0  0  0  0  0  0  0  0  0
   -7.8808   -1.5620   -0.3640 C   0  0  0  0  0  0  0  0  0  0  0  0
   -8.6817   -1.6346   -1.6773 C   0  0  0  0  0  0  0  0  0  0  0  0
   -8.5005   -2.9860   -2.3422 C   0  0  0  0  0  0  0  0  0  0  0  0
   -8.9266   -4.0513   -1.3560 C   0  0  0  0  0  0  0  0  0  0  0  0
  -10.3573   -4.1495   -1.2557 N   0  0  0  0  0  0  0  0  0  0  0  0
  -11.2309   -5.1019   -1.6724 C   0  0  0  0  0  0  0  0  0  0  0  0
  -12.4220   -4.9417   -1.4652 O   0  0  0  0  0  0  0  0  0  0  0  0
  -10.7741   -6.3612   -2.3250 C   0  0  0  0  0  0  0  0  0  0  0  0
   -9.5400   -6.7269   -2.6750 C   0  0  0  0  0  0  0  0  0  0  0  0
   -9.0784   -7.9886   -3.1861 C   0  0  0  0  0  0  0  0  0  0  0  0
   -9.5830   -8.5072   -4.3599 C   0  0  0  0  0  0  0  0  0  0  0  0
   -9.0148   -9.6707   -4.8405 C   0  0  0  0  0  0  0  0  0  0  0  0
   -7.9438  -10.2269   -4.1476 C   0  0  0  0  0  0  0  0  0  0  0  0
   -7.3800   -9.6924   -3.0434 N   0  0  0  0  0  0  0  0  0  0  0  0
   -7.9602   -8.5739   -2.5857 C   0  0  0  0  0  0  0  0  0  0  0  0
    2.4341   -0.3693    0.0162 H   0  0  0  0  0  0  0  0  0  0  0  0
    0.9082   -2.3231    0.0096 H   0  0  0  0  0  0  0  0  0  0  0  0
   -1.5170   -2.0055   -0.0328 H   0  0  0  0  0  0  0  0  0  0  0  0
   -0.9504    2.2751    0.0881 H   0  0  0  0  0  0  0  0  0  0  0  0
    1.4974    1.9280   -0.0410 H   0  0  0  0  0  0  0  0  0  0  0  0
   -4.0652   -1.6611   -2.1952 H   0  0  0  0  0  0  0  0  0  0  0  0
   -4.0374    0.1018   -2.3315 H   0  0  0  0  0  0  0  0  0  0  0  0
   -6.2981   -0.8274   -2.5422 H   0  0  0  0  0  0  0  0  0  0  0  0
   -6.1870    0.2816   -1.1699 H   0  0  0  0  0  0  0  0  0  0  0  0
   -6.1849   -2.7677   -1.0369 H   0  0  0  0  0  0  0  0  0  0  0  0
   -5.9143   -0.8985    1.3266 H   0  0  0  0  0  0  0  0  0  0  0  0
   -5.8805   -2.6631    1.3230 H   0  0  0  0  0  0  0  0  0  0  0  0
   -3.5705   -1.6270    1.4767 H   0  0  0  0  0  0  0  0  0  0  0  0
   -3.7823   -2.7057    0.0785 H   0  0  0  0  0  0  0  0  0  0  0  0
   -8.2496   -2.2861    0.3701 H   0  0  0  0  0  0  0  0  0  0  0  0
   -8.0668   -0.5946    0.1081 H   0  0  0  0  0  0  0  0  0  0  0  0
   -9.7442   -1.4700   -1.4724 H   0  0  0  0  0  0  0  0  0  0  0  0
   -8.3872   -0.8425   -2.3713 H   0  0  0  0  0  0  0  0  0  0  0  0
   -9.0609   -3.0507   -3.2835 H   0  0  0  0  0  0  0  0  0  0  0  0
   -7.4544   -3.1551   -2.6286 H   0  0  0  0  0  0  0  0  0  0  0  0
   -8.4231   -4.9290   -1.6577 H   0  0  0  0  0  0  0  0  0  0  0  0
   -8.5272   -3.9910   -0.3463 H   0  0  0  0  0  0  0  0  0  0  0  0
  -10.8373   -3.3751   -0.8074 H   0  0  0  0  0  0  0  0  0  0  0  0
  -11.6030   -7.0444   -2.4895 H   0  0  0  0  0  0  0  0  0  0  0  0
   -8.6472   -6.1498   -2.6366 H   0  0  0  0  0  0  0  0  0  0  0  0
  -10.3761   -7.9930   -4.8952 H   0  0  0  0  0  0  0  0  0  0  0  0
   -9.4015  -10.1320   -5.7382 H   0  0  0  0  0  0  0  0  0  0  0  0
   -7.4929  -11.1550   -4.4771 H   0  0  0  0  0  0  0  0  0  0  0  0
   -7.4809   -8.1235   -1.7160 H   0  0  0  0  0  0  0  0  0  0  0  0
  1  2  2  0  0  0  0
  1  6  1  0  0  0  0
  1 30  1  0  0  0  0
  2  3  1  0  0  0  0
  2 31  1  0  0  0  0
  3  4  2  0  0  0  0
  3 32  1  0  0  0  0
  4  5  1  0  0  0  0
  4  7  1  0  0  0  0
  5  6  2  0  0  0  0
  5 33  1  0  0  0  0
  6 34  1  0  0  0  0
  7  8  2  0  0  0  0
  7  9  1  0  0  0  0
  9 10  1  0  0  0  0
  9 14  1  0  0  0  0
 10 11  1  0  0  0  0
 10 35  1  0  0  0  0
 10 36  1  0  0  0  0
 11 12  1  0  0  0  0
 11 37  1  0  0  0  0
 11 38  1  0  0  0  0
 12 13  1  0  0  0  0
 12 15  1  0  0  0  0
 12 39  1  0  0  0  0
 13 14  1  0  0  0  0
 13 40  1  0  0  0  0
 13 41  1  0  0  0  0
 14 42  1  0  0  0  0
 14 43  1  0  0  0  0
 15 16  1  0  0  0  0
 15 44  1  0  0  0  0
 15 45  1  0  0  0  0
 16 17  1  0  0  0  0
 16 46  1  0  0  0  0
 16 47  1  0  0  0  0
 17 18  1  0  0  0  0
 17 48  1  0  0  0  0
 17 49  1  0  0  0  0
 18 19  1  0  0  0  0
 18 50  1  0  0  0  0
 18 51  1  0  0  0  0
 19 20  1  0  0  0  0
 19 52  1  0  0  0  0
 20 21  2  0  0  0  0
 20 22  1  0  0  0  0
 22 23  2  0  0  0  0
 22 53  1  0  0  0  0
 23 24  1  0  0  0  0
 23 54  1  0  0  0  0
 24 25  2  0  0  0  0
 24 29  1  0  0  0  0
 25 26  1  0  0  0  0
 25 55  1  0  0  0  0
 26 27  2  0  0  0  0
 26 56  1  0  0  0  0
 27 28  1  0  0  0  0
 27 57  1  0  0  0  0
 28 29  2  0  0  0  0
 29 58  1  0  0  0  0
M  END
>  <DRUGBANK_ID>
DB12731

>  <COMMON_NAME>
Daporinad

>  <CAS_NUMBER>
658084-64-1

>  <UNII>
V71TF6V9M7

>  <SYNONYMS>
Daporinad

$$$$
