
 OpenBabel10282417223D

 73 78  0  0  0  0  0  0  0  0999 V2000
    2.7363    0.2992    0.6826 C   0  0  1  0  0  0  0  0  0  0  0  0
    2.7327   -1.0925    0.0039 C   0  0  0  0  0  0  0  0  0  0  0  0
    1.3470   -1.6911    0.0613 C   0  0  2  0  0  0  0  0  0  0  0  0
    1.7099    1.3407    0.1388 C   0  0  0  0  0  0  0  0  0  0  0  0
    0.2835    0.7365   -0.0626 C   0  0  0  0  0  0  0  0  0  0  0  0
   -0.7872    1.3400   -0.5728 C   0  0  0  0  0  0  0  0  0  0  0  0
   -2.1926    0.8054   -0.3712 C   0  0  0  0  0  0  0  0  0  0  0  0
   -2.4710   -0.5993   -0.7391 C   0  0  1  0  0  0  0  0  0  0  0  0
   -3.8143   -1.1140   -0.0457 C   0  0  2  0  0  0  0  0  0  0  0  0
   -4.9893   -0.1042   -0.0994 C   0  0  0  0  0  0  0  0  0  0  0  0
   -4.9956    0.6681    1.2430 C   0  0  2  0  0  0  0  0  0  0  0  0
   -6.0270    0.9710    1.4693 H   0  0  0  0  0  0  0  0  0  0  0  0
   -4.1977    1.8774    1.2679 O   0  0  0  0  0  0  0  0  0  0  0  0
   -4.4504   -0.2915    2.2891 C   0  0  2  0  0  0  0  0  0  0  0  0
   -5.2930   -0.7110    2.8594 H   0  0  0  0  0  0  0  0  0  0  0  0
   -3.6156    0.6367    3.2098 C   0  0  1  0  0  0  0  0  0  0  0  0
   -3.3135    1.9325    2.4198 C   0  0  2  0  0  0  0  0  0  0  0  0
   -1.9034    1.9036    2.1310 O   0  0  0  0  0  0  0  0  0  0  0  0
   -3.4211    3.2823    3.1593 C   0  0  0  0  0  0  0  0  0  0  0  0
   -2.8813    4.4634    2.3303 C   0  0  0  0  0  0  0  0  0  0  0  0
   -1.4138    4.2760    1.9660 C   0  0  2  0  0  0  0  0  0  0  0  0
   -1.4608    2.9722    1.2916 C   0  0  0  0  0  0  0  0  0  0  0  0
   -0.3277    4.0884    3.0291 C   0  0  0  0  0  0  0  0  0  0  0  0
   -4.3890    0.9821    4.4799 C   0  0  0  0  0  0  0  0  0  0  0  0
   -3.7981   -1.4933    1.4790 C   0  0  2  0  0  0  0  0  0  0  0  0
   -4.6436   -2.7875    1.7195 C   0  0  0  0  0  0  0  0  0  0  0  0
   -2.4752   -1.9880    1.9929 C   0  0  0  0  0  0  0  0  0  0  0  0
   -1.2663   -1.6240    1.2217 C   0  0  0  0  0  0  0  0  0  0  0  0
   -1.2134   -1.3750   -0.3023 C   0  0  2  0  0  0  0  0  0  0  0  0
    0.2553   -0.7153   -0.5306 C   0  0  1  0  0  0  0  0  0  0  0  0
    0.7622   -0.3139   -1.9728 C   0  0  0  0  0  0  0  0  0  0  0  0
    1.2013   -2.1047    1.4240 O   0  0  0  0  0  0  0  0  0  0  0  0
    2.4816    0.1413    2.0844 O   0  0  0  0  0  0  0  0  0  0  0  0
   -1.2444   -2.3217   -0.8487 H   0  0  0  0  0  0  0  0  0  0  0  0
   -2.6130   -0.5953   -1.8260 H   0  0  0  0  0  0  0  0  0  0  0  0
   -4.0903   -2.0063   -0.6258 H   0  0  0  0  0  0  0  0  0  0  0  0
    3.7538    0.6911    0.5966 H   0  0  0  0  0  0  0  0  0  0  0  0
    3.0815   -1.0707   -1.0300 H   0  0  0  0  0  0  0  0  0  0  0  0
    3.4181   -1.7757    0.5194 H   0  0  0  0  0  0  0  0  0  0  0  0
    1.2645   -2.6036   -0.5404 H   0  0  0  0  0  0  0  0  0  0  0  0
    2.0686    1.7460   -0.8151 H   0  0  0  0  0  0  0  0  0  0  0  0
    1.6936    2.2170    0.8059 H   0  0  0  0  0  0  0  0  0  0  0  0
   -0.7450    2.3646   -0.9724 H   0  0  0  0  0  0  0  0  0  0  0  0
   -2.9530    1.5128   -0.6999 H   0  0  0  0  0  0  0  0  0  0  0  0
   -2.3059    0.6736    0.6887 H   0  0  0  0  0  0  0  0  0  0  0  0
   -5.9208   -0.6871   -0.1785 H   0  0  0  0  0  0  0  0  0  0  0  0
   -4.9489    0.5476   -0.9758 H   0  0  0  0  0  0  0  0  0  0  0  0
   -2.6923    0.1495    3.5301 H   0  0  0  0  0  0  0  0  0  0  0  0
   -2.7831    3.2257    4.0497 H   0  0  0  0  0  0  0  0  0  0  0  0
   -4.4488    3.4930    3.4457 H   0  0  0  0  0  0  0  0  0  0  0  0
   -3.0205    5.4178    2.8295 H   0  0  0  0  0  0  0  0  0  0  0  0
   -3.4661    4.5005    1.3935 H   0  0  0  0  0  0  0  0  0  0  0  0
   -1.0888    5.0151    1.2185 H   0  0  0  0  0  0  0  0  0  0  0  0
   -2.0951    3.0889    0.4077 H   0  0  0  0  0  0  0  0  0  0  0  0
   -0.4218    2.7997    1.0270 H   0  0  0  0  0  0  0  0  0  0  0  0
   -0.6758    4.3461    4.0219 H   0  0  0  0  0  0  0  0  0  0  0  0
    0.0593    3.0535    3.0745 H   0  0  0  0  0  0  0  0  0  0  0  0
    0.5546    4.6778    2.7548 H   0  0  0  0  0  0  0  0  0  0  0  0
   -4.6318    0.0918    5.0612 H   0  0  0  0  0  0  0  0  0  0  0  0
   -3.7766    1.6254    5.1206 H   0  0  0  0  0  0  0  0  0  0  0  0
   -5.3160    1.5126    4.2389 H   0  0  0  0  0  0  0  0  0  0  0  0
   -4.2187   -3.6227    1.1385 H   0  0  0  0  0  0  0  0  0  0  0  0
   -4.5656   -3.0844    2.7784 H   0  0  0  0  0  0  0  0  0  0  0  0
   -5.6947   -2.7074    1.4563 H   0  0  0  0  0  0  0  0  0  0  0  0
   -2.3332   -1.7781    3.0597 H   0  0  0  0  0  0  0  0  0  0  0  0
   -2.4442   -3.0865    1.9836 H   0  0  0  0  0  0  0  0  0  0  0  0
   -0.7096   -2.5471    1.3485 H   0  0  0  0  0  0  0  0  0  0  0  0
   -0.7889   -0.8067    1.7776 H   0  0  0  0  0  0  0  0  0  0  0  0
    0.9104   -1.1020   -2.6908 H   0  0  0  0  0  0  0  0  0  0  0  0
    0.3003    0.5779   -2.4306 H   0  0  0  0  0  0  0  0  0  0  0  0
    1.7789    0.0814   -1.8571 H   0  0  0  0  0  0  0  0  0  0  0  0
    2.0378   -2.4510    1.7758 H   0  0  0  0  0  0  0  0  0  0  0  0
    1.5198   -0.0372    2.1668 H   0  0  0  0  0  0  0  0  0  0  0  0
  1  2  1  0  0  0  0
  1  4  1  0  0  0  0
  1 37  1  6  0  0  0
  1 33  1  0  0  0  0
  2  3  1  0  0  0  0
  2 38  1  0  0  0  0
  2 39  1  0  0  0  0
  3 30  1  0  0  0  0
  3 40  1  6  0  0  0
  3 32  1  0  0  0  0
  4  5  1  0  0  0  0
  4 41  1  0  0  0  0
  4 42  1  0  0  0  0
  5  6  2  0  0  0  0
  5 30  1  0  0  0  0
  6  7  1  0  0  0  0
  6 43  1  0  0  0  0
  7  8  1  0  0  0  0
  7 44  1  0  0  0  0
  7 45  1  0  0  0  0
  8  9  1  0  0  0  0
  8 29  1  0  0  0  0
  8 35  1  1  0  0  0
  9 10  1  0  0  0  0
  9 25  1  0  0  0  0
  9 36  1  6  0  0  0
 10 11  1  0  0  0  0
 10 46  1  0  0  0  0
 10 47  1  0  0  0  0
 11 12  1  1  0  0  0
 11 13  1  0  0  0  0
 11 14  1  0  0  0  0
 14 15  1  1  0  0  0
 14 16  1  0  0  0  0
 14 25  1  0  0  0  0
 16 17  1  0  0  0  0
 16 48  1  1  0  0  0
 16 24  1  0  0  0  0
 17 13  1  1  0  0  0
 17 18  1  0  0  0  0
 17 19  1  0  0  0  0
 18 22  1  0  0  0  0
 19 20  1  0  0  0  0
 19 49  1  0  0  0  0
 19 50  1  0  0  0  0
 20 21  1  0  0  0  0
 20 51  1  0  0  0  0
 20 52  1  0  0  0  0
 21 22  1  0  0  0  0
 21 53  1  6  0  0  0
 21 23  1  0  0  0  0
 22 54  1  0  0  0  0
 22 55  1  0  0  0  0
 23 56  1  0  0  0  0
 23 57  1  0  0  0  0
 23 58  1  0  0  0  0
 24 59  1  0  0  0  0
 24 60  1  0  0  0  0
 24 61  1  0  0  0  0
 25 26  1  6  0  0  0
 25 27  1  0  0  0  0
 26 62  1  0  0  0  0
 26 63  1  0  0  0  0
 26 64  1  0  0  0  0
 27 28  1  0  0  0  0
 27 65  1  0  0  0  0
 27 66  1  0  0  0  0
 28 29  1  0  0  0  0
 28 67  1  0  0  0  0
 28 68  1  0  0  0  0
 29 30  1  0  0  0  0
 29 34  1  6  0  0  0
 30 31  1  1  0  0  0
 31 69  1  0  0  0  0
 31 70  1  0  0  0  0
 31 71  1  0  0  0  0
 32 72  1  0  0  0  0
 33 73  1  0  0  0  0
M  END
>  <DRUGBANK_ID>
DB15830

>  <COMMON_NAME>
Ruscogenin

>  <CAS_NUMBER>
472-11-7

>  <UNII>
BXI92R2VUJ

$$$$
