
 OpenBabel10282417243D

 34 35  0  0  0  0  0  0  0  0999 V2000
    0.9411    0.0434    0.1059 O   0  0  0  0  0  0  0  0  0  0  0  0
    0.3753    0.8822    0.9973 C   0  0  0  0  0  0  0  0  0  0  0  0
    1.0651    1.5459    1.7567 O   0  0  0  0  0  0  0  0  0  0  0  0
   -1.1292    0.8810    0.9435 C   0  0  0  0  0  0  0  0  0  0  0  0
   -1.6767    1.3312   -0.3902 C   0  0  0  0  0  0  0  0  0  0  0  0
   -2.3117    0.4255   -1.2451 C   0  0  0  0  0  0  0  0  0  0  0  0
   -2.8120    0.8435   -2.4897 C   0  0  0  0  0  0  0  0  0  0  0  0
   -2.7078    2.1787   -2.9147 C   0  0  0  0  0  0  0  0  0  0  0  0
   -2.1085    3.0833   -2.0228 C   0  0  0  0  0  0  0  0  0  0  0  0
   -1.5617    2.6640   -0.7983 C   0  0  0  0  0  0  0  0  0  0  0  0
   -3.1389    2.6709   -4.1835 N   0  0  0  0  0  0  0  0  0  0  0  0
   -3.5645    1.7782   -4.9520 N   0  0  0  0  0  0  0  0  0  0  0  0
   -3.9142    2.2560   -6.2416 C   0  0  0  0  0  0  0  0  0  0  0  0
   -3.0533    3.0250   -7.0347 C   0  0  0  0  0  0  0  0  0  0  0  0
   -3.4143    3.4010   -8.3366 C   0  0  0  0  0  0  0  0  0  0  0  0
   -4.6223    2.9626   -8.8821 C   0  0  0  0  0  0  0  0  0  0  0  0
   -4.9874    3.4025  -10.1237 O   0  0  0  0  0  0  0  0  0  0  0  0
   -5.4603    2.0964   -8.1590 C   0  0  0  0  0  0  0  0  0  0  0  0
   -5.1220    1.8154   -6.8158 C   0  0  0  0  0  0  0  0  0  0  0  0
   -6.6135    1.4309   -8.8666 C   0  0  0  0  0  0  0  0  0  0  0  0
   -7.3407    0.5550   -8.1405 O   0  0  0  0  0  0  0  0  0  0  0  0
   -6.8793    1.5885  -10.0516 O   0  0  0  0  0  0  0  0  0  0  0  0
    1.9065    0.1754    0.2060 H   0  0  0  0  0  0  0  0  0  0  0  0
   -1.4827   -0.1241    1.2054 H   0  0  0  0  0  0  0  0  0  0  0  0
   -1.5095    1.5456    1.7297 H   0  0  0  0  0  0  0  0  0  0  0  0
   -2.4084   -0.6200   -0.9575 H   0  0  0  0  0  0  0  0  0  0  0  0
   -3.2861    0.1008   -3.1249 H   0  0  0  0  0  0  0  0  0  0  0  0
   -2.0598    4.1389   -2.2803 H   0  0  0  0  0  0  0  0  0  0  0  0
   -1.0403    3.3856   -0.1698 H   0  0  0  0  0  0  0  0  0  0  0  0
   -2.0889    3.3356   -6.6400 H   0  0  0  0  0  0  0  0  0  0  0  0
   -2.7314    4.0113   -8.9226 H   0  0  0  0  0  0  0  0  0  0  0  0
   -4.3648    4.0516  -10.4844 H   0  0  0  0  0  0  0  0  0  0  0  0
   -5.7727    1.2378   -6.1708 H   0  0  0  0  0  0  0  0  0  0  0  0
   -7.0894    0.3812   -7.2225 H   0  0  0  0  0  0  0  0  0  0  0  0
  1  2  1  0  0  0  0
  1 23  1  0  0  0  0
  2  3  2  0  0  0  0
  2  4  1  0  0  0  0
  4  5  1  0  0  0  0
  4 24  1  0  0  0  0
  4 25  1  0  0  0  0
  5  6  2  0  0  0  0
  5 10  1  0  0  0  0
  6  7  1  0  0  0  0
  6 26  1  0  0  0  0
  7  8  2  0  0  0  0
  7 27  1  0  0  0  0
  8  9  1  0  0  0  0
  8 11  1  0  0  0  0
  9 10  2  0  0  0  0
  9 28  1  0  0  0  0
 10 29  1  0  0  0  0
 11 12  2  0  0  0  0
 12 13  1  0  0  0  0
 13 14  2  0  0  0  0
 13 19  1  0  0  0  0
 14 15  1  0  0  0  0
 14 30  1  0  0  0  0
 15 16  2  0  0  0  0
 15 31  1  0  0  0  0
 16 17  1  0  0  0  0
 16 18  1  0  0  0  0
 17 32  1  0  0  0  0
 18 19  2  0  0  0  0
 18 20  1  0  0  0  0
 19 33  1  0  0  0  0
 20 21  1  0  0  0  0
 20 22  2  0  0  0  0
 21 34  1  0  0  0  0
M  END
>  <DRUGBANK_ID>
DB18066

>  <COMMON_NAME>
NM-004

>  <CAS_NUMBER>
402934-69-4

>  <UNII>
QIU74LKJ78

>  <SYNONYMS>
5-((e)-(4-(carboxymethyl)phenyl)azo)-2-hydroxy-benzoic acid; 5-(4-carboxymethyl-phenylazo)-2-hydroxy-benzoic acid; Benzeneacetic acid, 4-(2-(3-carboxy-4-hydroxyphenyl)diazenyl)-

$$$$
