
 OpenBabel10282417123D

 28 27  0  0  1  0  0  0  0  0999 V2000
   -4.3871    1.5424   -2.6783 C   0  0  0  0  0  0  0  0  0  0  0  0
   -4.0970    0.3697   -3.5947 C   0  0  0  0  0  0  0  0  0  0  0  0
   -2.9165    0.6700   -4.5132 C   0  0  0  0  0  0  0  0  0  0  0  0
   -1.5959    0.8701   -3.7675 C   0  0  0  0  0  0  0  0  0  0  0  0
    0.4372   -0.3485   -2.8680 C   0  0  0  0  0  0  0  0  0  0  0  0
    1.7623    0.2603   -4.9579 C   0  0  0  0  0  0  0  0  0  0  0  0
   -1.0975   -0.3412   -2.9563 C   0  0  2  0  0  0  0  0  0  0  0  0
   -1.6398   -1.6791   -3.4197 C   0  0  0  0  0  0  0  0  0  0  0  0
    1.1305   -0.6180   -4.1264 N   0  0  0  0  0  0  0  0  0  0  0  0
    2.1637   -0.0236   -6.0814 O   0  0  0  0  0  0  0  0  0  0  0  0
   -2.2017   -2.5023   -2.7054 O   0  0  0  0  0  0  0  0  0  0  0  0
   -1.4992   -1.9024   -4.7383 O   0  0  0  0  0  0  0  0  0  0  0  0
    1.0277   -1.9465   -4.5863 O   0  0  0  0  0  0  0  0  0  0  0  0
   -1.4776   -0.2123   -1.9285 H   0  0  0  0  0  0  0  0  0  0  0  0
   -3.5415    1.7517   -2.0163 H   0  0  0  0  0  0  0  0  0  0  0  0
   -5.2500    1.3266   -2.0457 H   0  0  0  0  0  0  0  0  0  0  0  0
   -4.5915    2.4401   -3.2688 H   0  0  0  0  0  0  0  0  0  0  0  0
   -3.9200   -0.5209   -2.9847 H   0  0  0  0  0  0  0  0  0  0  0  0
   -4.9760    0.1480   -4.2096 H   0  0  0  0  0  0  0  0  0  0  0  0
   -2.8180   -0.1300   -5.2520 H   0  0  0  0  0  0  0  0  0  0  0  0
   -3.1245    1.5653   -5.1090 H   0  0  0  0  0  0  0  0  0  0  0  0
   -0.8408    1.1801   -4.4952 H   0  0  0  0  0  0  0  0  0  0  0  0
   -1.6785    1.7296   -3.0873 H   0  0  0  0  0  0  0  0  0  0  0  0
    0.7672    0.6403   -2.5236 H   0  0  0  0  0  0  0  0  0  0  0  0
    0.7826   -1.0900   -2.1419 H   0  0  0  0  0  0  0  0  0  0  0  0
    1.9088    1.2538   -4.5078 H   0  0  0  0  0  0  0  0  0  0  0  0
   -1.7634   -2.8304   -4.8931 H   0  0  0  0  0  0  0  0  0  0  0  0
    1.0392   -1.8223   -5.5606 H   0  0  0  0  0  0  0  0  0  0  0  0
  1 15  1  0  0  0  0
  1 16  1  0  0  0  0
  1 17  1  0  0  0  0
  2  1  1  0  0  0  0
  2 18  1  0  0  0  0
  2 19  1  0  0  0  0
  3  2  1  0  0  0  0
  3 20  1  0  0  0  0
  3 21  1  0  0  0  0
  4  3  1  0  0  0  0
  4 22  1  0  0  0  0
  4 23  1  0  0  0  0
  5 24  1  0  0  0  0
  5 25  1  0  0  0  0
  6 26  1  0  0  0  0
  7  8  1  0  0  0  0
  7 14  1  1  0  0  0
  7  5  1  0  0  0  0
  7  4  1  0  0  0  0
  9  5  1  0  0  0  0
  9  6  1  0  0  0  0
 10  6  2  0  0  0  0
 11  8  2  0  0  0  0
 12  8  1  0  0  0  0
 12 27  1  0  0  0  0
 13  9  1  0  0  0  0
 13 28  1  0  0  0  0
M  END
>  <DRUGBANK_ID>
DB02625

>  <SECONDARY_ACCESSION_NUMBERS>
EXPT00756

>  <COMMON_NAME>
(2r)-2-{[Formyl(Hydroxy)Amino]Methyl}Hexanoic Acid

$$$$
