CF3
 OpenBabel10282417163D

 39 39  0  0  0  0  0  0  0  0999 V2000
    2.4157   -0.3164    0.0540 C   0  0  0  0  0  0  0  0  0  0  0  0
    1.6307   -1.5416    0.1309 C   0  0  0  0  0  0  0  0  0  0  0  0
    0.3088   -1.5333   -0.0314 C   0  0  0  0  0  0  0  0  0  0  0  0
   -0.1590   -0.2927   -0.2574 C   0  0  0  0  0  0  0  0  0  0  0  0
    0.5541    0.8061    0.2087 C   0  0  0  0  0  0  0  0  0  0  0  0
    1.7990    0.9438   -0.0186 C   0  0  0  0  0  0  0  0  0  0  0  0
    2.1968    2.3136   -0.2600 N   0  0  0  0  0  0  0  0  0  0  0  0
    1.4836    3.5427   -0.4439 C   0  0  0  0  0  0  0  0  0  0  0  0
    2.2170    4.5301   -0.6768 O   0  0  0  0  0  0  0  0  0  0  0  0
   -0.0930    3.9197   -0.3555 C   0  0  0  0  0  0  0  0  0  0  0  0
   -1.1094    3.4174   -1.4040 C   0  0  0  0  0  0  0  0  0  0  0  0
   -1.3136    1.9564   -1.2277 C   0  0  0  0  0  0  0  0  0  0  0  0
   -1.9139    1.6164    0.3635 C   0  0  0  0  0  0  0  0  0  0  0  0
   -3.3732    1.3743    0.3691 C   0  0  0  0  0  0  0  0  0  0  0  0
   -3.8969    0.4724   -0.7693 C   0  0  0  0  0  0  0  0  0  0  0  0
   -3.9455   -1.0886   -0.7208 C   0  0  0  0  0  0  0  0  0  0  0  0
   -4.9898   -1.6893   -0.4595 O   0  0  0  0  0  0  0  0  0  0  0  0
   -2.6585   -1.8323   -0.8173 C   0  0  0  0  0  0  0  0  0  0  0  0
   -1.8746   -1.3867   -1.8420 F   0  0  0  0  0  0  0  0  0  0  0  0
   -2.1216   -1.5860    0.4045 F   0  0  0  0  0  0  0  0  0  0  0  0
   -2.6129   -3.1869   -0.9264 F   0  0  0  0  0  0  0  0  0  0  0  0
    3.4667   -0.4473    0.1191 H   0  0  0  0  0  0  0  0  0  0  0  0
    1.9960   -2.5523    0.2553 H   0  0  0  0  0  0  0  0  0  0  0  0
   -0.3367   -2.4018    0.0241 H   0  0  0  0  0  0  0  0  0  0  0  0
   -1.1465   -0.1505   -0.6063 H   0  0  0  0  0  0  0  0  0  0  0  0
    0.1203    1.7599    0.4369 H   0  0  0  0  0  0  0  0  0  0  0  0
    3.1788    2.4382   -0.4240 H   0  0  0  0  0  0  0  0  0  0  0  0
   -0.4444    3.7682    0.6687 H   0  0  0  0  0  0  0  0  0  0  0  0
   -0.1842    5.0164   -0.4389 H   0  0  0  0  0  0  0  0  0  0  0  0
   -2.1142    3.8435   -1.3214 H   0  0  0  0  0  0  0  0  0  0  0  0
   -0.7361    3.6239   -2.4161 H   0  0  0  0  0  0  0  0  0  0  0  0
   -1.8396    1.4399   -2.0305 H   0  0  0  0  0  0  0  0  0  0  0  0
   -0.3071    1.6362   -1.5661 H   0  0  0  0  0  0  0  0  0  0  0  0
   -1.5923    0.7235    0.9443 H   0  0  0  0  0  0  0  0  0  0  0  0
   -1.5875    2.3392    1.1360 H   0  0  0  0  0  0  0  0  0  0  0  0
   -3.6300    0.9856    1.3634 H   0  0  0  0  0  0  0  0  0  0  0  0
   -3.7272    2.4025    0.2791 H   0  0  0  0  0  0  0  0  0  0  0  0
   -4.9400    0.7602   -0.8467 H   0  0  0  0  0  0  0  0  0  0  0  0
   -3.4718    0.7585   -1.7289 H   0  0  0  0  0  0  0  0  0  0  0  0
  1  2  1  0  0  0  0
  1  6  2  0  0  0  0
  1 22  1  0  0  0  0
  2  3  2  0  0  0  0
  2 23  1  0  0  0  0
  3  4  1  0  0  0  0
  3 24  1  0  0  0  0
  4  5  2  0  0  0  0
  4 25  1  0  0  0  0
  5  6  1  0  0  0  0
  5 26  1  0  0  0  0
  6  7  1  0  0  0  0
  7  8  1  0  0  0  0
  7 27  1  0  0  0  0
  8  9  2  0  0  0  0
  8 10  1  0  0  0  0
 10 11  1  0  0  0  0
 10 28  1  0  0  0  0
 10 29  1  0  0  0  0
 11 12  1  0  0  0  0
 11 30  1  0  0  0  0
 11 31  1  0  0  0  0
 12 13  1  0  0  0  0
 12 32  1  0  0  0  0
 12 33  1  0  0  0  0
 13 14  1  0  0  0  0
 13 34  1  0  0  0  0
 13 35  1  0  0  0  0
 14 15  1  0  0  0  0
 14 36  1  0  0  0  0
 14 37  1  0  0  0  0
 15 16  1  0  0  0  0
 15 38  1  0  0  0  0
 15 39  1  0  0  0  0
 16 17  2  0  0  0  0
 16 18  1  0  0  0  0
 18 19  1  0  0  0  0
 18 20  1  0  0  0  0
 18 21  1  0  0  0  0
M  END
>  <DRUGBANK_ID>
DB07553

>  <COMMON_NAME>
9,9,9-TRIFLUORO-8-OXO-N-PHENYLNONANAMIDE

$$$$
