
 OpenBabel10282417233D

 51 54  0  0  0  0  0  0  0  0999 V2000
    1.1009   -0.0940    0.1044 O   0  0  0  0  0  0  0  0  0  0  0  0
    0.6059    1.1917    0.5870 C   0  0  0  0  0  0  0  0  0  0  0  0
    1.1007    1.3923    2.0291 C   0  0  0  0  0  0  0  0  0  0  0  0
    2.5704    1.3390    2.1900 N   0  0  0  0  0  0  0  0  0  0  0  0
    3.2087    2.5070    2.6399 C   0  0  0  0  0  0  0  0  0  0  0  0
    4.2981    2.9318    1.9705 N   0  0  0  0  0  0  0  0  0  0  0  0
    4.9197    4.0449    2.4531 C   0  0  0  0  0  0  0  0  0  0  0  0
    4.5658    4.7092    3.5771 N   0  0  0  0  0  0  0  0  0  0  0  0
    3.4772    4.2480    4.2089 C   0  0  0  0  0  0  0  0  0  0  0  0
    2.7520    3.1639    3.7773 C   0  0  0  0  0  0  0  0  0  0  0  0
    1.6919    2.7363    4.4689 F   0  0  0  0  0  0  0  0  0  0  0  0
    6.0963    4.5803    1.7497 C   0  0  0  0  0  0  0  0  0  0  0  0
    6.0219    5.1814    0.5472 N   0  0  0  0  0  0  0  0  0  0  0  0
    7.2926    5.5337    0.2426 N   0  0  0  0  0  0  0  0  0  0  0  0
    7.6184    6.0425   -1.0951 C   0  0  0  0  0  0  0  0  0  0  0  0
    7.3795    5.0125   -2.1668 C   0  0  0  0  0  0  0  0  0  0  0  0
    6.0736    4.6018   -2.4495 C   0  0  0  0  0  0  0  0  0  0  0  0
    5.0317    5.2404   -1.9010 F   0  0  0  0  0  0  0  0  0  0  0  0
    5.8149    3.5408   -3.3035 C   0  0  0  0  0  0  0  0  0  0  0  0
    6.8699    2.9138   -3.9577 C   0  0  0  0  0  0  0  0  0  0  0  0
    8.1763    3.3655   -3.7627 C   0  0  0  0  0  0  0  0  0  0  0  0
    8.4361    4.4072   -2.8659 C   0  0  0  0  0  0  0  0  0  0  0  0
    8.1586    5.2905    1.2732 C   0  0  0  0  0  0  0  0  0  0  0  0
    7.4248    4.6638    2.2539 C   0  0  0  0  0  0  0  0  0  0  0  0
    9.5885    5.6488    1.3222 C   0  0  0  0  0  0  0  0  0  0  0  0
   10.5492    4.7693    1.6205 N   0  0  0  0  0  0  0  0  0  0  0  0
   11.7395    5.4733    1.5003 O   0  0  0  0  0  0  0  0  0  0  0  0
   11.4654    6.7674    1.1979 C   0  0  0  0  0  0  0  0  0  0  0  0
   10.1160    6.9305    1.0645 C   0  0  0  0  0  0  0  0  0  0  0  0
    1.0254    2.3489   -0.2983 C   0  0  0  0  0  0  0  0  0  0  0  0
    0.5438    2.2382   -1.5547 F   0  0  0  0  0  0  0  0  0  0  0  0
    0.6364    3.5444    0.1898 F   0  0  0  0  0  0  0  0  0  0  0  0
    2.3751    2.3767   -0.4164 F   0  0  0  0  0  0  0  0  0  0  0  0
   -0.9173    1.2274    0.5953 C   0  0  0  0  0  0  0  0  0  0  0  0
   -1.4523    1.0618   -0.6334 F   0  0  0  0  0  0  0  0  0  0  0  0
   -1.4224    0.2415    1.3787 F   0  0  0  0  0  0  0  0  0  0  0  0
   -1.4004    2.3892    1.0916 F   0  0  0  0  0  0  0  0  0  0  0  0
    2.0644   -0.0156   -0.0153 H   0  0  0  0  0  0  0  0  0  0  0  0
    0.6758    2.3230    2.4246 H   0  0  0  0  0  0  0  0  0  0  0  0
    0.7064    0.5812    2.6544 H   0  0  0  0  0  0  0  0  0  0  0  0
    3.1216    0.9074    1.4542 H   0  0  0  0  0  0  0  0  0  0  0  0
    3.1864    4.7682    5.1141 H   0  0  0  0  0  0  0  0  0  0  0  0
    7.0283    6.9493   -1.2614 H   0  0  0  0  0  0  0  0  0  0  0  0
    8.6722    6.3383   -1.1083 H   0  0  0  0  0  0  0  0  0  0  0  0
    4.7893    3.2148   -3.4374 H   0  0  0  0  0  0  0  0  0  0  0  0
    6.6705    2.0791   -4.6233 H   0  0  0  0  0  0  0  0  0  0  0  0
    8.9956    2.8879   -4.2957 H   0  0  0  0  0  0  0  0  0  0  0  0
    9.4664    4.7249   -2.7147 H   0  0  0  0  0  0  0  0  0  0  0  0
    7.7709    4.3574    3.2314 H   0  0  0  0  0  0  0  0  0  0  0  0
   12.3193    7.4258    1.1268 H   0  0  0  0  0  0  0  0  0  0  0  0
    9.5776    7.8438    0.8551 H   0  0  0  0  0  0  0  0  0  0  0  0
  1  2  1  0  0  0  0
  1 38  1  0  0  0  0
  2  3  1  0  0  0  0
  2 30  1  0  0  0  0
  2 34  1  0  0  0  0
  3  4  1  0  0  0  0
  3 39  1  0  0  0  0
  3 40  1  0  0  0  0
  4  5  1  0  0  0  0
  4 41  1  0  0  0  0
  5  6  2  0  0  0  0
  5 10  1  0  0  0  0
  6  7  1  0  0  0  0
  7  8  2  0  0  0  0
  7 12  1  0  0  0  0
  8  9  1  0  0  0  0
  9 10  2  0  0  0  0
  9 42  1  0  0  0  0
 10 11  1  0  0  0  0
 12 13  2  0  0  0  0
 12 24  1  0  0  0  0
 13 14  1  0  0  0  0
 14 15  1  0  0  0  0
 14 23  1  0  0  0  0
 15 16  1  0  0  0  0
 15 43  1  0  0  0  0
 15 44  1  0  0  0  0
 16 17  2  0  0  0  0
 16 22  1  0  0  0  0
 17 18  1  0  0  0  0
 17 19  1  0  0  0  0
 19 20  2  0  0  0  0
 19 45  1  0  0  0  0
 20 21  1  0  0  0  0
 20 46  1  0  0  0  0
 21 22  2  0  0  0  0
 21 47  1  0  0  0  0
 22 48  1  0  0  0  0
 23 24  2  0  0  0  0
 23 25  1  0  0  0  0
 24 49  1  0  0  0  0
 25 26  2  0  0  0  0
 25 29  1  0  0  0  0
 26 27  1  0  0  0  0
 27 28  1  0  0  0  0
 28 29  2  0  0  0  0
 28 50  1  0  0  0  0
 29 51  1  0  0  0  0
 30 31  1  0  0  0  0
 30 32  1  0  0  0  0
 30 33  1  0  0  0  0
 34 35  1  0  0  0  0
 34 36  1  0  0  0  0
 34 37  1  0  0  0  0
M  END
>  <DRUGBANK_ID>
DB16300

>  <COMMON_NAME>
Praliciguat

>  <CAS_NUMBER>
1628730-49-3

>  <UNII>
R1S0H458SA

>  <SYNONYMS>
Praliciguat

$$$$
