2S8
 OpenBabel10282417163D

 57 58  0  0  0  0  0  0  0  0999 V2000
    0.8760   -0.3786    0.0024 O   0  0  0  0  0  0  0  0  0  0  0  0
    0.4029    0.8276    0.3672 C   0  0  0  0  0  0  0  0  0  0  0  0
    1.2265    1.7315    0.4173 O   0  0  0  0  0  0  0  0  0  0  0  0
   -1.1184    0.8711    0.6125 C   0  0  2  0  0  0  0  0  0  0  0  0
   -1.7132    1.1042   -0.7424 C   0  0  0  0  0  0  0  0  0  0  0  0
   -2.0991    0.1215   -1.6307 C   0  0  0  0  0  0  0  0  0  0  0  0
   -2.4798    0.7326   -2.7930 N   0  0  0  0  0  0  0  0  0  0  0  0
   -2.3192    2.0971   -2.6922 C   0  0  0  0  0  0  0  0  0  0  0  0
   -2.5238    3.1163   -3.6312 C   0  0  0  0  0  0  0  0  0  0  0  0
   -2.2417    4.4353   -3.2480 C   0  0  0  0  0  0  0  0  0  0  0  0
   -1.7805    4.7310   -1.9763 C   0  0  0  0  0  0  0  0  0  0  0  0
   -1.5696    3.7048   -1.0655 C   0  0  0  0  0  0  0  0  0  0  0  0
   -1.8472    2.3636   -1.4101 C   0  0  0  0  0  0  0  0  0  0  0  0
   -1.6839    1.8848    1.6400 C   0  0  0  0  0  0  0  0  0  0  0  0
   -1.2130    1.7107    3.0756 C   0  0  0  0  0  0  0  0  0  0  0  0
    0.3029    1.8277    3.1820 C   0  0  0  0  0  0  0  0  0  0  0  0
    0.8197    3.1787    2.6324 C   0  0  0  0  0  0  0  0  0  0  0  0
    0.3599    4.3673    3.4655 C   0  0  0  0  0  0  0  0  0  0  0  0
    0.8234    4.2323    4.9036 C   0  0  0  0  0  0  0  0  0  0  0  0
    2.2636    4.2128    4.9492 N   0  0  0  0  0  0  0  0  0  0  0  0
    3.0065    5.1328    5.6241 C   0  0  0  0  0  0  0  0  0  0  0  0
    2.4869    6.0249    6.2946 O   0  0  0  0  0  0  0  0  0  0  0  0
    4.3631    5.0289    5.5333 O   0  0  0  0  0  0  0  0  0  0  0  0
    5.1230    4.0536    4.7654 C   0  0  0  0  0  0  0  0  0  0  0  0
    4.8624    2.6373    5.2944 C   0  0  0  0  0  0  0  0  0  0  0  0
    6.6227    4.3435    4.9902 C   0  0  0  0  0  0  0  0  0  0  0  0
    4.8605    4.2371    3.2663 C   0  0  0  0  0  0  0  0  0  0  0  0
   -1.4150   -0.1182    0.9879 H   0  0  0  0  0  0  0  0  0  0  0  0
    1.8249   -0.1508   -0.1231 H   0  0  0  0  0  0  0  0  0  0  0  0
   -2.0836   -0.9580   -1.5381 H   0  0  0  0  0  0  0  0  0  0  0  0
   -2.7872    0.2476   -3.6236 H   0  0  0  0  0  0  0  0  0  0  0  0
   -2.8749    2.9003   -4.6330 H   0  0  0  0  0  0  0  0  0  0  0  0
   -2.3704    5.2475   -3.9566 H   0  0  0  0  0  0  0  0  0  0  0  0
   -1.5589    5.7516   -1.6761 H   0  0  0  0  0  0  0  0  0  0  0  0
   -1.1653    3.9915   -0.1043 H   0  0  0  0  0  0  0  0  0  0  0  0
   -1.4417    2.9066    1.3752 H   0  0  0  0  0  0  0  0  0  0  0  0
   -2.7828    1.8722    1.6188 H   0  0  0  0  0  0  0  0  0  0  0  0
   -1.6822    2.4871    3.6948 H   0  0  0  0  0  0  0  0  0  0  0  0
   -1.5615    0.7541    3.4716 H   0  0  0  0  0  0  0  0  0  0  0  0
    0.6197    1.6729    4.2141 H   0  0  0  0  0  0  0  0  0  0  0  0
    0.7669    0.9758    2.6810 H   0  0  0  0  0  0  0  0  0  0  0  0
    1.9092    3.1361    2.5440 H   0  0  0  0  0  0  0  0  0  0  0  0
    0.4831    3.4015    1.6165 H   0  0  0  0  0  0  0  0  0  0  0  0
    0.7475    5.2885    3.0132 H   0  0  0  0  0  0  0  0  0  0  0  0
   -0.7318    4.4432    3.4250 H   0  0  0  0  0  0  0  0  0  0  0  0
    0.4149    5.0368    5.5118 H   0  0  0  0  0  0  0  0  0  0  0  0
    0.4823    3.2936    5.3471 H   0  0  0  0  0  0  0  0  0  0  0  0
    2.7077    3.5030    4.3979 H   0  0  0  0  0  0  0  0  0  0  0  0
    3.8195    2.3255    5.2539 H   0  0  0  0  0  0  0  0  0  0  0  0
    5.4370    1.8949    4.7353 H   0  0  0  0  0  0  0  0  0  0  0  0
    5.1303    2.5757    6.3560 H   0  0  0  0  0  0  0  0  0  0  0  0
    6.8950    5.3538    4.6647 H   0  0  0  0  0  0  0  0  0  0  0  0
    6.8964    4.2687    6.0484 H   0  0  0  0  0  0  0  0  0  0  0  0
    7.2409    3.6305    4.4298 H   0  0  0  0  0  0  0  0  0  0  0  0
    5.1329    5.2519    2.9518 H   0  0  0  0  0  0  0  0  0  0  0  0
    5.4274    3.5153    2.6726 H   0  0  0  0  0  0  0  0  0  0  0  0
    3.8146    4.1343    2.9880 H   0  0  0  0  0  0  0  0  0  0  0  0
  1 29  1  0  0  0  0
  2  1  1  0  0  0  0
  3  2  2  0  0  0  0
  4  2  1  0  0  0  0
  4  5  1  0  0  0  0
  4 28  1  1  0  0  0
  4 14  1  0  0  0  0
  5 13  1  0  0  0  0
  6  5  2  0  0  0  0
  6  7  1  0  0  0  0
  6 30  1  0  0  0  0
  7  8  1  0  0  0  0
  7 31  1  0  0  0  0
  8 13  2  0  0  0  0
  8  9  1  0  0  0  0
  9 10  2  0  0  0  0
  9 32  1  0  0  0  0
 10 11  1  0  0  0  0
 10 33  1  0  0  0  0
 11 34  1  0  0  0  0
 12 11  2  0  0  0  0
 12 35  1  0  0  0  0
 13 12  1  0  0  0  0
 14 36  1  0  0  0  0
 14 37  1  0  0  0  0
 15 14  1  0  0  0  0
 15 38  1  0  0  0  0
 15 39  1  0  0  0  0
 16 15  1  0  0  0  0
 16 17  1  0  0  0  0
 16 40  1  0  0  0  0
 16 41  1  0  0  0  0
 17 42  1  0  0  0  0
 17 43  1  0  0  0  0
 18 17  1  0  0  0  0
 18 44  1  0  0  0  0
 18 45  1  0  0  0  0
 19 18  1  0  0  0  0
 19 20  1  0  0  0  0
 19 46  1  0  0  0  0
 19 47  1  0  0  0  0
 20 21  1  0  0  0  0
 20 48  1  0  0  0  0
 21 23  1  0  0  0  0
 22 21  2  0  0  0  0
 23 24  1  0  0  0  0
 24 25  1  0  0  0  0
 24 27  1  0  0  0  0
 25 49  1  0  0  0  0
 25 50  1  0  0  0  0
 25 51  1  0  0  0  0
 26 24  1  0  0  0  0
 26 52  1  0  0  0  0
 26 53  1  0  0  0  0
 26 54  1  0  0  0  0
 27 55  1  0  0  0  0
 27 56  1  0  0  0  0
 27 57  1  0  0  0  0
M  END
>  <DRUGBANK_ID>
DB06982

>  <COMMON_NAME>
(2S)-8-[(tert-butoxycarbonyl)amino]-2-(1H-indol-3-yl)octanoic acid

$$$$
