
 OpenBabel10282417233D

 54 57  0  0  1  0  0  0  0  0999 V2000
    1.1201   -0.0392    0.0750 C   0  0  0  0  0  0  0  0  0  0  0  0
    0.7123    1.2850    0.3457 O   0  0  0  0  0  0  0  0  0  0  0  0
   -0.5670    1.4399    0.8340 C   0  0  0  0  0  0  0  0  0  0  0  0
   -1.4906    0.3780    1.1376 C   0  0  0  0  0  0  0  0  0  0  0  0
   -2.7884    0.6560    1.6166 C   0  0  0  0  0  0  0  0  0  0  0  0
   -2.9977    2.0727    1.7641 C   0  0  0  0  0  0  0  0  0  0  0  0
   -2.1239    3.1397    1.4984 C   0  0  0  0  0  0  0  0  0  0  0  0
   -2.3814    4.4804    1.6150 O   0  0  0  0  0  0  0  0  0  0  0  0
   -3.6137    4.9004    2.1886 C   0  0  0  0  0  0  0  0  0  0  0  0
   -0.8795    2.7951    1.0091 C   0  0  0  0  0  0  0  0  0  0  0  0
   -0.0124    3.8050    0.6915 O   0  0  0  0  0  0  0  0  0  0  0  0
   -3.9884   -0.5618    1.9699 C   0  0  2  0  0  0  0  0  0  0  0  0
   -4.6379   -2.1247    1.4605 C   0  0  0  0  0  0  0  0  0  0  0  0
   -4.4990   -2.4469    0.0665 O   0  0  0  0  0  0  0  0  0  0  0  0
   -4.5951   -1.3665   -0.7759 C   0  0  0  0  0  0  0  0  0  0  0  0
   -4.8331   -0.0753   -0.2613 C   0  0  0  0  0  0  0  0  0  0  0  0
   -4.5531    1.0285   -1.0605 C   0  0  0  0  0  0  0  0  0  0  0  0
   -4.1745    0.8541   -2.3854 C   0  0  0  0  0  0  0  0  0  0  0  0
   -4.1011   -0.4297   -2.9242 C   0  0  0  0  0  0  0  0  0  0  0  0
   -3.7768   -0.5905   -4.2431 O   0  0  0  0  0  0  0  0  0  0  0  0
   -4.3120   -1.5661   -2.1363 C   0  0  0  0  0  0  0  0  0  0  0  0
   -4.2060   -2.9329   -2.7564 C   0  0  0  0  0  0  0  0  0  0  0  0
   -5.1880    0.0439    1.2124 C   0  0  2  0  0  0  0  0  0  0  0  0
   -5.9381    1.2368    1.7711 C   0  0  0  0  0  0  0  0  0  0  0  0
   -7.0060    1.7356    1.0228 C   0  0  0  0  0  0  0  0  0  0  0  0
   -7.5596    2.9688    1.3228 C   0  0  0  0  0  0  0  0  0  0  0  0
   -7.0202    3.6973    2.3776 C   0  0  0  0  0  0  0  0  0  0  0  0
   -7.3472    5.0018    2.5804 O   0  0  0  0  0  0  0  0  0  0  0  0
   -6.0998    3.1280    3.2381 C   0  0  0  0  0  0  0  0  0  0  0  0
   -5.6426    1.8349    3.0086 C   0  0  0  0  0  0  0  0  0  0  0  0
    0.6834   -0.3752   -0.8697 H   0  0  0  0  0  0  0  0  0  0  0  0
    0.8801   -0.7185    0.8960 H   0  0  0  0  0  0  0  0  0  0  0  0
    2.2077   -0.0275   -0.0210 H   0  0  0  0  0  0  0  0  0  0  0  0
   -1.2082   -0.6546    0.9875 H   0  0  0  0  0  0  0  0  0  0  0  0
   -3.9461    2.4793    2.0168 H   0  0  0  0  0  0  0  0  0  0  0  0
   -4.4525    4.5736    1.5707 H   0  0  0  0  0  0  0  0  0  0  0  0
   -3.6852    4.5563    3.2237 H   0  0  0  0  0  0  0  0  0  0  0  0
   -3.6591    5.9960    2.2153 H   0  0  0  0  0  0  0  0  0  0  0  0
    0.7885    3.3769    0.3322 H   0  0  0  0  0  0  0  0  0  0  0  0
   -3.1129   -1.2153    1.8274 H   0  0  0  0  0  0  0  0  0  0  0  0
   -5.7239   -2.2389    1.6741 H   0  0  0  0  0  0  0  0  0  0  0  0
   -4.2708   -2.9614    2.0690 H   0  0  0  0  0  0  0  0  0  0  0  0
   -4.5595    2.0273   -0.6336 H   0  0  0  0  0  0  0  0  0  0  0  0
   -3.9356    1.7335   -2.9723 H   0  0  0  0  0  0  0  0  0  0  0  0
   -3.6433    0.2882   -4.6342 H   0  0  0  0  0  0  0  0  0  0  0  0
   -4.9292   -3.0265   -3.5760 H   0  0  0  0  0  0  0  0  0  0  0  0
   -3.1993   -3.0976   -3.1544 H   0  0  0  0  0  0  0  0  0  0  0  0
   -4.4228   -3.7392   -2.0495 H   0  0  0  0  0  0  0  0  0  0  0  0
   -6.0840   -0.5756    1.3308 H   0  0  0  0  0  0  0  0  0  0  0  0
   -7.3712    1.1660    0.1674 H   0  0  0  0  0  0  0  0  0  0  0  0
   -8.3476    3.3529    0.6930 H   0  0  0  0  0  0  0  0  0  0  0  0
   -8.1095    5.2118    2.0202 H   0  0  0  0  0  0  0  0  0  0  0  0
   -5.6362    3.7334    4.0166 H   0  0  0  0  0  0  0  0  0  0  0  0
   -4.8500    1.4470    3.6504 H   0  0  0  0  0  0  0  0  0  0  0  0
  1  2  1  0  0  0  0
  1 31  1  0  0  0  0
  1 32  1  0  0  0  0
  1 33  1  0  0  0  0
  2  3  1  0  0  0  0
  3  4  2  0  0  0  0
  3 10  1  0  0  0  0
  4  5  1  0  0  0  0
  4 34  1  0  0  0  0
  5  6  2  0  0  0  0
  6  7  1  0  0  0  0
  6 35  1  0  0  0  0
  7  8  1  0  0  0  0
  7 10  2  0  0  0  0
  8  9  1  0  0  0  0
  9 36  1  0  0  0  0
  9 37  1  0  0  0  0
  9 38  1  0  0  0  0
 10 11  1  0  0  0  0
 11 39  1  0  0  0  0
 12  5  1  0  0  0  0
 12 13  1  0  0  0  0
 12 23  1  0  0  0  0
 12 40  1  1  0  0  0
 13 14  1  0  0  0  0
 13 41  1  0  0  0  0
 13 42  1  0  0  0  0
 14 15  1  0  0  0  0
 15 16  2  0  0  0  0
 15 21  1  0  0  0  0
 16 17  1  0  0  0  0
 17 18  2  0  0  0  0
 17 43  1  0  0  0  0
 18 19  1  0  0  0  0
 18 44  1  0  0  0  0
 19 20  1  0  0  0  0
 19 21  2  0  0  0  0
 20 45  1  0  0  0  0
 21 22  1  0  0  0  0
 22 46  1  0  0  0  0
 22 47  1  0  0  0  0
 22 48  1  0  0  0  0
 23 16  1  0  0  0  0
 23 49  1  1  0  0  0
 23 24  1  0  0  0  0
 24 25  2  0  0  0  0
 24 30  1  0  0  0  0
 25 26  1  0  0  0  0
 25 50  1  0  0  0  0
 26 27  2  0  0  0  0
 26 51  1  0  0  0  0
 27 28  1  0  0  0  0
 27 29  1  0  0  0  0
 28 52  1  0  0  0  0
 29 30  2  0  0  0  0
 29 53  1  0  0  0  0
 30 54  1  0  0  0  0
M  END
>  <DRUGBANK_ID>
DB17264

>  <COMMON_NAME>
TRX-E-002-1

>  <CAS_NUMBER>
1803036-93-2

>  <UNII>
5DVS457HEG

>  <SYNONYMS>
(+)-cis-4-(para-hydroxyphenyl)-7,4-dihydroxy-3,5-dimethoxy-8-methylisoflavan; Cantrixil

$$$$
