
 OpenBabel10282417173D

 28 30  0  0  0  0  0  0  0  0999 V2000
    0.0771   -0.7977    0.0794 C   0  0  0  0  0  0  0  0  0  0  0  0
    1.3393   -1.4329   -0.0372 N   0  0  0  0  0  0  0  0  0  0  0  0
    2.5144   -0.7220   -0.0973 C   0  0  0  0  0  0  0  0  0  0  0  0
    2.3980    0.7447   -0.0534 C   0  0  0  0  0  0  0  0  0  0  0  0
   -0.0212    0.6107    0.1000 C   0  0  0  0  0  0  0  0  0  0  0  0
    1.2345    1.4017    0.0388 C   0  0  0  0  0  0  0  0  0  0  0  0
   -1.0847   -1.5490    0.2027 C   0  0  0  0  0  0  0  0  0  0  0  0
   -1.3106    1.1858    0.1302 C   0  0  0  0  0  0  0  0  0  0  0  0
   -2.3244   -0.9825    0.2922 C   0  0  0  0  0  0  0  0  0  0  0  0
   -1.1492   -2.9099    0.2431 O   0  0  0  0  0  0  0  0  0  0  0  0
    3.6242   -1.2140   -0.1791 O   0  0  0  0  0  0  0  0  0  0  0  0
   -3.2786   -1.9217    0.5729 O   0  0  0  0  0  0  0  0  0  0  0  0
   -2.5513   -3.1351    0.2889 C   0  0  0  0  0  0  0  0  0  0  0  0
   -2.4689    0.3776    0.1120 C   0  0  0  0  0  0  0  0  0  0  0  0
    1.1193    2.7853    0.0661 O   0  0  0  0  0  0  0  0  0  0  0  0
    1.4197   -2.8801   -0.0741 C   0  0  0  0  0  0  0  0  0  0  0  0
    2.3625    3.4995   -0.0076 C   0  0  0  0  0  0  0  0  0  0  0  0
    3.3623    1.2271   -0.1121 H   0  0  0  0  0  0  0  0  0  0  0  0
   -1.4258    2.2694    0.1609 H   0  0  0  0  0  0  0  0  0  0  0  0
   -2.8840   -3.4801   -0.6944 H   0  0  0  0  0  0  0  0  0  0  0  0
   -2.7189   -3.9525    1.0054 H   0  0  0  0  0  0  0  0  0  0  0  0
   -3.4355    0.8231   -0.1020 H   0  0  0  0  0  0  0  0  0  0  0  0
    1.0278   -3.2814    0.8669 H   0  0  0  0  0  0  0  0  0  0  0  0
    0.8599   -3.2488   -0.9418 H   0  0  0  0  0  0  0  0  0  0  0  0
    2.4443   -3.2339   -0.1699 H   0  0  0  0  0  0  0  0  0  0  0  0
    3.0036    3.2544    0.8486 H   0  0  0  0  0  0  0  0  0  0  0  0
    2.8841    3.2815   -0.9485 H   0  0  0  0  0  0  0  0  0  0  0  0
    2.1672    4.5742    0.0211 H   0  0  0  0  0  0  0  0  0  0  0  0
  2  1  1  0  0  0  0
  3  2  1  0  0  0  0
  3  4  1  0  0  0  0
  4  6  2  0  0  0  0
  4 18  1  0  0  0  0
  5  1  1  0  0  0  0
  6  5  1  0  0  0  0
  7  1  2  0  0  0  0
  8  5  2  0  0  0  0
  8 14  1  0  0  0  0
  8 19  1  0  0  0  0
  9  7  1  0  0  0  0
 10  7  1  0  0  0  0
 11  3  2  0  0  0  0
 12  9  1  0  0  0  0
 12 13  1  0  0  0  0
 13 10  1  0  0  0  0
 13 20  1  0  0  0  0
 13 21  1  0  0  0  0
 14  9  2  0  0  0  0
 14 22  1  0  0  0  0
 15  6  1  0  0  0  0
 16  2  1  0  0  0  0
 16 23  1  0  0  0  0
 16 24  1  0  0  0  0
 16 25  1  0  0  0  0
 17 15  1  0  0  0  0
 17 26  1  0  0  0  0
 17 27  1  0  0  0  0
 17 28  1  0  0  0  0
M  END
>  <DRUGBANK_ID>
DB08744

>  <COMMON_NAME>
Casimiroin

>  <CAS_NUMBER>
477-89-4

>  <UNII>
1X2A1U6BH3

>  <SYNONYMS>
6-Methoxy-9-methyl-(1,3)dioxolo(4,5-h)quinolin-8(9H)-one

$$$$
