
 OpenBabel10282417213D

 75 78  0  0  0  0  0  0  0  0999 V2000
   -0.8771    1.4537   -0.4206 C   0  0  1  0  0  0  0  0  0  0  0  0
    0.1054    0.5605    0.2243 C   0  0  1  0  0  0  0  0  0  0  0  0
   -2.4061    1.1936   -0.0510 C   0  0  1  0  0  0  0  0  0  0  0  0
   -0.8502    1.5211   -1.9448 C   0  0  0  0  0  0  0  0  0  0  0  0
   -0.1200   -0.8099   -0.2910 C   0  0  1  0  0  0  0  0  0  0  0  0
    1.5638    0.9071   -0.0140 C   0  0  0  0  0  0  0  0  0  0  0  0
   -2.7145    2.7175   -0.9242 C   0  0  2  0  0  0  0  0  0  0  0  0
   -2.6476   -0.3216   -0.6434 C   0  0  0  0  0  0  0  0  0  0  0  0
   -2.7329    1.0367    1.5786 C   0  0  0  0  0  0  0  0  0  0  0  0
   -2.1198    2.2282   -2.2626 C   0  0  0  0  0  0  0  0  0  0  0  0
    0.8341   -1.7273    0.3897 C   0  0  2  0  0  0  0  0  0  0  0  0
   -1.5751   -1.3116   -0.1565 C   0  0  2  0  0  0  0  0  0  0  0  0
    2.6418   -0.2017    0.6312 C   0  0  0  0  0  0  0  0  0  0  0  0
   -2.5148    3.6247    0.3025 C   0  0  0  0  0  0  0  0  0  0  0  0
    2.2129   -1.8499    0.7671 C   0  0  0  0  0  0  0  0  0  0  0  0
    0.7290   -1.3465    2.1563 C   0  0  0  0  0  0  0  0  0  0  0  0
    1.0597   -2.9015   -0.7336 C   0  0  0  0  0  0  0  0  0  0  0  0
   -1.9561   -1.5160    1.1760 O   0  0  0  0  0  0  0  0  0  0  0  0
   -1.9046    3.1821    1.2815 O   0  0  0  0  0  0  0  0  0  0  0  0
    2.0556   -3.1129    1.5220 C   0  0  0  0  0  0  0  0  0  0  0  0
   -0.0806   -2.3930    2.8250 C   0  0  0  0  0  0  0  0  0  0  0  0
    0.3721   -3.4704    1.8834 C   0  0  0  0  0  0  0  0  0  0  0  0
   -0.3540   -4.2698    1.3343 O   0  0  0  0  0  0  0  0  0  0  0  0
   -0.5477    2.4366   -0.0952 H   0  0  0  0  0  0  0  0  0  0  0  0
   -0.0821    0.7309    1.2760 H   0  0  0  0  0  0  0  0  0  0  0  0
    0.1193   -0.8004   -1.3585 H   0  0  0  0  0  0  0  0  0  0  0  0
   -3.1909    4.9198    0.6490 C   0  0  0  0  0  0  0  0  0  0  0  0
   -2.4363    6.0687    0.3019 O   0  0  0  0  0  0  0  0  0  0  0  0
   -1.1572    6.3132    0.6693 C   0  0  0  0  0  0  0  0  0  0  0  0
   -0.2525    5.2792    1.2961 C   0  0  0  0  0  0  0  0  0  0  0  0
    0.8102    4.8183    0.3212 C   0  0  0  0  0  0  0  0  0  0  0  0
   -0.6756    7.4155    0.4099 O   0  0  0  0  0  0  0  0  0  0  0  0
   -3.6572    3.6411   -1.4746 O   0  0  0  0  0  0  0  0  0  0  0  0
   -4.8967    3.2777   -1.8434 C   0  0  0  0  0  0  0  0  0  0  0  0
   -5.0938    1.8644   -1.4028 C   0  0  0  0  0  0  0  0  0  0  0  0
   -5.5936    1.8175    0.0047 C   0  0  0  0  0  0  0  0  0  0  0  0
   -7.0510    2.0492   -0.1402 C   0  0  0  0  0  0  0  0  0  0  0  0
   -5.6959    4.0234   -2.3128 O   0  0  0  0  0  0  0  0  0  0  0  0
   -0.0019    2.0882   -2.3100 H   0  0  0  0  0  0  0  0  0  0  0  0
   -0.8719    0.5436   -2.4365 H   0  0  0  0  0  0  0  0  0  0  0  0
    1.7177    1.9036    0.4297 H   0  0  0  0  0  0  0  0  0  0  0  0
    1.7030    1.0811   -1.0936 H   0  0  0  0  0  0  0  0  0  0  0  0
   -3.6062   -0.7125   -0.2675 H   0  0  0  0  0  0  0  0  0  0  0  0
   -2.6901   -0.4193   -1.7282 H   0  0  0  0  0  0  0  0  0  0  0  0
   -1.8341    0.7643    2.1461 H   0  0  0  0  0  0  0  0  0  0  0  0
   -3.0884    1.8756    2.1892 H   0  0  0  0  0  0  0  0  0  0  0  0
   -3.4953    0.2750    1.7852 H   0  0  0  0  0  0  0  0  0  0  0  0
   -2.1032    2.8412   -3.1706 H   0  0  0  0  0  0  0  0  0  0  0  0
   -2.8171    1.4445   -2.6257 H   0  0  0  0  0  0  0  0  0  0  0  0
   -1.6516   -2.3074   -0.6023 H   0  0  0  0  0  0  0  0  0  0  0  0
    2.8154    0.2234    1.6264 H   0  0  0  0  0  0  0  0  0  0  0  0
    3.5218   -0.0474    0.0035 H   0  0  0  0  0  0  0  0  0  0  0  0
    1.7077   -1.4086    2.7351 H   0  0  0  0  0  0  0  0  0  0  0  0
    0.6293   -0.3007    2.4406 H   0  0  0  0  0  0  0  0  0  0  0  0
    1.2770   -2.4782   -1.7300 H   0  0  0  0  0  0  0  0  0  0  0  0
    1.9372   -3.5817   -0.6379 H   0  0  0  0  0  0  0  0  0  0  0  0
    0.1891   -3.5376   -0.8057 H   0  0  0  0  0  0  0  0  0  0  0  0
   -1.4851   -0.8361    1.6729 H   0  0  0  0  0  0  0  0  0  0  0  0
    2.3721   -3.5324    2.4817 H   0  0  0  0  0  0  0  0  0  0  0  0
    0.2460   -2.5977    3.8332 H   0  0  0  0  0  0  0  0  0  0  0  0
   -1.1179   -2.1119    2.9014 H   0  0  0  0  0  0  0  0  0  0  0  0
   -4.2335    4.9777    0.3139 H   0  0  0  0  0  0  0  0  0  0  0  0
   -3.2942    4.9063    1.7465 H   0  0  0  0  0  0  0  0  0  0  0  0
    0.1767    5.6792    2.2144 H   0  0  0  0  0  0  0  0  0  0  0  0
   -0.7092    4.4315    1.7346 H   0  0  0  0  0  0  0  0  0  0  0  0
    1.4695    5.6515    0.0770 H   0  0  0  0  0  0  0  0  0  0  0  0
    1.4154    4.0275    0.7720 H   0  0  0  0  0  0  0  0  0  0  0  0
    0.3868    4.4326   -0.6145 H   0  0  0  0  0  0  0  0  0  0  0  0
   -5.4443    1.2391   -2.2117 H   0  0  0  0  0  0  0  0  0  0  0  0
   -4.1730    1.3721   -1.2607 H   0  0  0  0  0  0  0  0  0  0  0  0
   -5.3544    0.8341    0.4204 H   0  0  0  0  0  0  0  0  0  0  0  0
   -5.1192    2.5578    0.6709 H   0  0  0  0  0  0  0  0  0  0  0  0
   -7.4135    1.3581   -0.9072 H   0  0  0  0  0  0  0  0  0  0  0  0
   -7.5472    1.8832    0.8066 H   0  0  0  0  0  0  0  0  0  0  0  0
   -7.2184    3.0733   -0.4861 H   0  0  0  0  0  0  0  0  0  0  0  0
  1  2  1  0  0  0  0
  1  3  1  0  0  0  0
  1  4  1  0  0  0  0
  1 24  1  6  0  0  0
  2  5  1  0  0  0  0
  2  6  1  0  0  0  0
  2 25  1  1  0  0  0
  3  7  1  0  0  0  0
  3  8  1  0  0  0  0
  3  9  1  1  0  0  0
  4 10  1  0  0  0  0
  4 39  1  0  0  0  0
  4 40  1  0  0  0  0
  5 11  1  0  0  0  0
  5 12  1  0  0  0  0
  5 26  1  6  0  0  0
  6 13  1  0  0  0  0
  6 41  1  0  0  0  0
  6 42  1  0  0  0  0
  7 10  1  0  0  0  0
  7 33  1  6  0  0  0
  7 14  1  0  0  0  0
  8 12  1  0  0  0  0
  8 43  1  0  0  0  0
  8 44  1  0  0  0  0
  9 45  1  0  0  0  0
  9 46  1  0  0  0  0
  9 47  1  0  0  0  0
 10 48  1  0  0  0  0
 10 49  1  0  0  0  0
 11 15  1  0  0  0  0
 11 16  1  0  0  0  0
 11 17  1  1  0  0  0
 12 18  1  0  0  0  0
 12 50  1  6  0  0  0
 13 15  1  0  0  0  0
 13 51  1  0  0  0  0
 13 52  1  0  0  0  0
 14 19  2  0  0  0  0
 14 27  1  0  0  0  0
 15 20  2  0  0  0  0
 16 21  1  0  0  0  0
 16 53  1  0  0  0  0
 16 54  1  0  0  0  0
 17 55  1  0  0  0  0
 17 56  1  0  0  0  0
 17 57  1  0  0  0  0
 18 58  1  0  0  0  0
 20 22  1  0  0  0  0
 20 59  1  0  0  0  0
 21 22  1  0  0  0  0
 21 60  1  0  0  0  0
 21 61  1  0  0  0  0
 22 23  2  0  0  0  0
 27 28  1  0  0  0  0
 27 62  1  0  0  0  0
 27 63  1  0  0  0  0
 28 29  1  0  0  0  0
 29 30  1  0  0  0  0
 29 32  2  0  0  0  0
 30 31  1  0  0  0  0
 30 64  1  0  0  0  0
 30 65  1  0  0  0  0
 31 66  1  0  0  0  0
 31 67  1  0  0  0  0
 31 68  1  0  0  0  0
 33 34  1  0  0  0  0
 34 35  1  0  0  0  0
 34 38  2  0  0  0  0
 35 36  1  0  0  0  0
 35 69  1  0  0  0  0
 35 70  1  0  0  0  0
 36 37  1  0  0  0  0
 36 71  1  0  0  0  0
 36 72  1  0  0  0  0
 37 73  1  0  0  0  0
 37 74  1  0  0  0  0
 37 75  1  0  0  0  0
M  END
>  <DRUGBANK_ID>
DB14543

>  <SECONDARY_ACCESSION_NUMBERS>
DBSALT000783

>  <COMMON_NAME>
Hydrocortisone probutate

>  <CAS_NUMBER>
72590-77-3

>  <UNII>
O6550D6K3A

>  <SYNONYMS>
Hydrocortisone buteprate; Hydrocortisone butyrate propionate; Hydrocortisone probutate

$$$$
