
 OpenBabel10282417123D

 30 31  0  0  0  0  0  0  0  0999 V2000
    0.7005   -1.2912    0.3154 O   0  0  0  0  0  0  0  0  0  0  0  0
   -0.5641    2.1882    0.6590 O   0  0  0  0  0  0  0  0  0  0  0  0
    2.2124    2.6517    0.3770 O   0  0  0  0  0  0  0  0  0  0  0  0
    3.7423    0.5663   -0.8166 O   0  0  0  0  0  0  0  0  0  0  0  0
   -0.3310    0.0455   -2.2623 O   0  0  0  0  0  0  0  0  0  0  0  0
    4.2096   -1.9238   -0.7893 O   0  0  0  0  0  0  0  0  0  0  0  0
   -3.1121    0.4821   -1.9892 O   0  0  0  0  0  0  0  0  0  0  0  0
   -3.6130    0.2146    0.9092 O   0  0  0  0  0  0  0  0  0  0  0  0
   -1.4253   -0.5322    0.9697 N   0  0  0  0  0  0  0  0  0  0  0  0
   -2.2199    0.2127   -0.9605 N   0  0  0  0  0  0  0  0  0  0  0  0
   -0.2325   -0.2235    0.2084 C   0  0  1  0  0  0  0  0  0  0  0  0
    0.3731    1.1097    0.7188 C   0  0  1  0  0  0  0  0  0  0  0  0
    1.6167    1.4389   -0.0973 C   0  0  2  0  0  0  0  0  0  0  0  0
    2.5976    0.2710   -0.0090 C   0  0  1  0  0  0  0  0  0  0  0  0
    1.9189   -1.0545   -0.4296 C   0  0  1  0  0  0  0  0  0  0  0  0
   -0.8993    0.0061   -1.1766 C   0  0  0  0  0  0  0  0  0  0  0  0
    2.9136   -2.2317   -0.2852 C   0  0  0  0  0  0  0  0  0  0  0  0
   -2.5473    0.0090    0.3380 C   0  0  0  0  0  0  0  0  0  0  0  0
   -1.4542   -0.7500    1.9555 H   0  0  0  0  0  0  0  0  0  0  0  0
   -0.3767    2.7863    1.4065 H   0  0  0  0  0  0  0  0  0  0  0  0
    2.6741    2.4728    1.2136 H   0  0  0  0  0  0  0  0  0  0  0  0
    3.4520    0.8523   -1.7015 H   0  0  0  0  0  0  0  0  0  0  0  0
    4.1295   -1.1396   -1.3688 H   0  0  0  0  0  0  0  0  0  0  0  0
   -2.5468    0.3819   -2.7806 H   0  0  0  0  0  0  0  0  0  0  0  0
    0.6633    1.0003    1.7733 H   0  0  0  0  0  0  0  0  0  0  0  0
    1.3648    1.6335   -1.1459 H   0  0  0  0  0  0  0  0  0  0  0  0
    2.9469    0.1741    1.0277 H   0  0  0  0  0  0  0  0  0  0  0  0
    1.6816   -1.0100   -1.4984 H   0  0  0  0  0  0  0  0  0  0  0  0
    3.0116   -2.5453    0.7592 H   0  0  0  0  0  0  0  0  0  0  0  0
    2.5778   -3.1017   -0.8559 H   0  0  0  0  0  0  0  0  0  0  0  0
  1 15  1  0  0  0  0
  2 20  1  0  0  0  0
  3 21  1  0  0  0  0
  4 22  1  0  0  0  0
  5 16  2  0  0  0  0
  6 17  1  0  0  0  0
  6 23  1  0  0  0  0
  7 10  1  0  0  0  0
  7 24  1  0  0  0  0
  8 18  2  0  0  0  0
  9 11  1  0  0  0  0
  9 18  1  0  0  0  0
  9 19  1  0  0  0  0
 10 16  1  0  0  0  0
 10 18  1  0  0  0  0
 11  1  1  6  0  0  0
 11 12  1  0  0  0  0
 11 16  1  0  0  0  0
 12 13  1  0  0  0  0
 12 25  1  1  0  0  0
 12  2  1  0  0  0  0
 13  3  1  0  0  0  0
 13 14  1  0  0  0  0
 13 26  1  6  0  0  0
 14  4  1  0  0  0  0
 14 15  1  0  0  0  0
 14 27  1  1  0  0  0
 15 28  1  6  0  0  0
 15 17  1  0  0  0  0
 17 29  1  0  0  0  0
 17 30  1  0  0  0  0
M  END
>  <DRUGBANK_ID>
DB02447

>  <SECONDARY_ACCESSION_NUMBERS>
EXPT01598

>  <COMMON_NAME>
3,8,9,10-tetrahydroxy-7-hydroxymethyl-6-oxa-1,3-diaza-spiro[4.5]decane-2,4-dione

$$$$
