
 OpenBabel10282417133D

 26 25  0  0  0  0  0  0  0  0999 V2000
    1.0849    2.3093   -0.6592 O   0  0  0  0  0  0  0  0  0  0  0  0
    0.0600   -1.1598    0.1677 O   0  0  0  0  0  0  0  0  0  0  0  0
    0.4024    0.0461   -3.1997 O   0  0  0  0  0  0  0  0  0  0  0  0
    2.9517    0.2383    1.4186 O   0  0  0  0  0  0  0  0  0  0  0  0
    2.5689   -1.4442   -0.0108 O   0  0  0  0  0  0  0  0  0  0  0  0
    2.5273    0.3732   -2.6031 N   0  0  0  0  0  0  0  0  0  0  0  0
    0.6434    0.9848   -0.9775 C   0  0  2  0  0  0  0  0  0  0  0  0
    0.7830    0.0844    0.2688 C   0  0  2  0  0  0  0  0  0  0  0  0
    3.6556    0.7557   -1.7696 C   0  0  0  0  0  0  0  0  0  0  0  0
    1.1923    0.4159   -2.3228 C   0  0  0  0  0  0  0  0  0  0  0  0
    4.6240   -0.3919   -1.4252 C   0  0  0  0  0  0  0  0  0  0  0  0
    5.3229   -0.9450   -2.6347 C   0  0  0  0  0  0  0  0  0  0  0  0
    2.1698   -0.4135    0.5360 C   0  0  0  0  0  0  0  0  0  0  0  0
    2.7305   -0.0240   -3.5158 H   0  0  0  0  0  0  0  0  0  0  0  0
    1.0762    2.8333   -1.4832 H   0  0  0  0  0  0  0  0  0  0  0  0
   -0.7095   -1.0781   -0.4088 H   0  0  0  0  0  0  0  0  0  0  0  0
    2.4982    0.8267    2.0507 H   0  0  0  0  0  0  0  0  0  0  0  0
   -0.4386    1.0772   -1.1597 H   0  0  0  0  0  0  0  0  0  0  0  0
    0.4094    0.5836    1.1655 H   0  0  0  0  0  0  0  0  0  0  0  0
    4.2033    1.5375   -2.3029 H   0  0  0  0  0  0  0  0  0  0  0  0
    3.2734    1.2448   -0.8765 H   0  0  0  0  0  0  0  0  0  0  0  0
    5.3152   -0.0558   -0.6439 H   0  0  0  0  0  0  0  0  0  0  0  0
    4.1983   -1.3059   -1.0323 H   0  0  0  0  0  0  0  0  0  0  0  0
    5.9485   -0.1807   -3.0869 H   0  0  0  0  0  0  0  0  0  0  0  0
    5.9298   -1.8057   -2.3342 H   0  0  0  0  0  0  0  0  0  0  0  0
    4.5795   -1.3109   -3.3503 H   0  0  0  0  0  0  0  0  0  0  0  0
  1 15  1  0  0  0  0
  2 16  1  0  0  0  0
  3 10  2  0  0  0  0
  4 13  1  0  0  0  0
  4 17  1  0  0  0  0
  5 13  2  0  0  0  0
  6  9  1  0  0  0  0
  6 10  1  0  0  0  0
  6 14  1  0  0  0  0
  7 10  1  0  0  0  0
  7 18  1  6  0  0  0
  7  8  1  0  0  0  0
  7  1  1  0  0  0  0
  8  2  1  0  0  0  0
  8 13  1  0  0  0  0
  8 19  1  1  0  0  0
  9 11  1  0  0  0  0
  9 20  1  0  0  0  0
  9 21  1  0  0  0  0
 11 12  1  0  0  0  0
 11 22  1  0  0  0  0
 11 23  1  0  0  0  0
 12 24  1  0  0  0  0
 12 25  1  0  0  0  0
 12 26  1  0  0  0  0
M  END
>  <DRUGBANK_ID>
DB03390

>  <SECONDARY_ACCESSION_NUMBERS>
EXPT02679

>  <COMMON_NAME>
(2R,3R)-2,3-Dihydroxy-4-oxo-4-(propylamino)butanoic acid

>  <SYNONYMS>
N-Propyl-L-tartramate; N-Propyl-tartramic acid

$$$$
