
 OpenBabel10282417233D

 51 55  0  0  1  0  0  0  0  0999 V2000
    3.8962    5.3995   -5.8496 C   0  0  0  0  0  0  0  0  0  0  0  0
    2.8425    4.6470   -5.1338 C   0  0  0  0  0  0  0  0  0  0  0  0
    2.6521    3.3002   -4.9136 C   0  0  0  0  0  0  0  0  0  0  0  0
    1.4748    3.1834   -4.1405 C   0  0  0  0  0  0  0  0  0  0  0  0
    0.9960    4.4632   -3.9486 C   0  0  0  0  0  0  0  0  0  0  0  0
    1.8309    5.3649   -4.5554 O   0  0  0  0  0  0  0  0  0  0  0  0
   -0.1599    4.9788   -3.2512 C   0  0  0  0  0  0  0  0  0  0  0  0
   -1.1548    5.6764   -3.9213 C   0  0  0  0  0  0  0  0  0  0  0  0
   -1.3110    6.1024   -5.2073 N   0  0  0  0  0  0  0  0  0  0  0  0
   -2.4995    6.6800   -5.3085 N   0  0  0  0  0  0  0  0  0  0  0  0
   -3.1178    6.5819   -4.1077 N   0  0  0  0  0  0  0  0  0  0  0  0
   -4.4700    7.1032   -3.9988 C   0  0  0  0  0  0  0  0  0  0  0  0
   -5.4923    6.0367   -3.6555 C   0  0  0  0  0  0  0  0  0  0  0  0
   -5.5180    5.5211   -2.3711 C   0  0  0  0  0  0  0  0  0  0  0  0
   -6.5053    4.6168   -2.0164 C   0  0  0  0  0  0  0  0  0  0  0  0
   -7.5504    4.3621   -2.8929 C   0  0  0  0  0  0  0  0  0  0  0  0
   -7.5388    4.9714   -4.1397 C   0  0  0  0  0  0  0  0  0  0  0  0
   -8.7891    4.9010   -5.0221 C   0  0  0  0  0  0  0  0  0  0  0  0
   -9.5265    6.1358   -5.1856 O   0  0  0  0  0  0  0  0  0  0  0  0
   -8.7065    7.2027   -5.6488 C   0  0  1  0  0  0  0  0  0  0  0  0
   -9.4305    8.2550   -6.4635 C   0  0  0  0  0  0  0  0  0  0  0  0
   -8.4707    9.4269   -6.3384 C   0  0  0  0  0  0  0  0  0  0  0  0
   -7.8908    9.3589   -5.0320 O   0  0  0  0  0  0  0  0  0  0  0  0
   -8.2091    8.0729   -4.4973 C   0  0  0  0  0  0  0  0  0  0  0  0
   -6.4694    5.7213   -4.5575 N   0  0  0  0  0  0  0  0  0  0  0  0
   -2.2828    5.9944   -3.1754 C   0  0  0  0  0  0  0  0  0  0  0  0
   -2.4706    5.7134   -1.8687 N   0  0  0  0  0  0  0  0  0  0  0  0
   -1.4578    5.0020   -1.3252 C   0  0  0  0  0  0  0  0  0  0  0  0
   -1.5711    4.5877   -0.0296 N   0  0  0  0  0  0  0  0  0  0  0  0
   -0.3374    4.6152   -1.9568 N   0  0  0  0  0  0  0  0  0  0  0  0
    3.4759    5.9708   -6.6822 H   0  0  0  0  0  0  0  0  0  0  0  0
    4.4140    6.0880   -5.1752 H   0  0  0  0  0  0  0  0  0  0  0  0
    4.6458    4.7134   -6.2613 H   0  0  0  0  0  0  0  0  0  0  0  0
    3.2905    2.5027   -5.2664 H   0  0  0  0  0  0  0  0  0  0  0  0
    1.0113    2.2776   -3.7771 H   0  0  0  0  0  0  0  0  0  0  0  0
   -4.4702    7.9136   -3.2581 H   0  0  0  0  0  0  0  0  0  0  0  0
   -4.7295    7.5704   -4.9607 H   0  0  0  0  0  0  0  0  0  0  0  0
   -4.7892    5.8302   -1.6333 H   0  0  0  0  0  0  0  0  0  0  0  0
   -6.4749    4.1559   -1.0354 H   0  0  0  0  0  0  0  0  0  0  0  0
   -8.3717    3.7265   -2.5820 H   0  0  0  0  0  0  0  0  0  0  0  0
   -8.5286    4.5184   -6.0134 H   0  0  0  0  0  0  0  0  0  0  0  0
   -9.5017    4.1853   -4.5896 H   0  0  0  0  0  0  0  0  0  0  0  0
   -7.9071    6.8157   -6.2925 H   0  0  0  0  0  0  0  0  0  0  0  0
  -10.4077    8.4966   -6.0309 H   0  0  0  0  0  0  0  0  0  0  0  0
   -9.5899    7.9635   -7.5060 H   0  0  0  0  0  0  0  0  0  0  0  0
   -7.6549    9.3516   -7.0669 H   0  0  0  0  0  0  0  0  0  0  0  0
   -8.9562   10.3974   -6.4478 H   0  0  0  0  0  0  0  0  0  0  0  0
   -8.9669    8.1756   -3.7133 H   0  0  0  0  0  0  0  0  0  0  0  0
   -7.3226    7.7172   -3.9944 H   0  0  0  0  0  0  0  0  0  0  0  0
   -2.3373    4.9044    0.5397 H   0  0  0  0  0  0  0  0  0  0  0  0
   -0.7634    4.1356    0.3733 H   0  0  0  0  0  0  0  0  0  0  0  0
  1  2  1  0  0  0  0
  1 31  1  0  0  0  0
  1 32  1  0  0  0  0
  1 33  1  0  0  0  0
  2  3  2  0  0  0  0
  2  6  1  0  0  0  0
  3  4  1  0  0  0  0
  3 34  1  0  0  0  0
  4  5  2  0  0  0  0
  4 35  1  0  0  0  0
  5  6  1  0  0  0  0
  5  7  1  0  0  0  0
  7  8  2  0  0  0  0
  7 30  1  0  0  0  0
  8  9  1  0  0  0  0
  8 26  1  0  0  0  0
  9 10  2  0  0  0  0
 10 11  1  0  0  0  0
 11 12  1  0  0  0  0
 11 26  1  0  0  0  0
 12 13  1  0  0  0  0
 12 36  1  0  0  0  0
 12 37  1  0  0  0  0
 13 14  2  0  0  0  0
 13 25  1  0  0  0  0
 14 15  1  0  0  0  0
 14 38  1  0  0  0  0
 15 16  2  0  0  0  0
 15 39  1  0  0  0  0
 16 17  1  0  0  0  0
 16 40  1  0  0  0  0
 17 18  1  0  0  0  0
 17 25  2  0  0  0  0
 18 19  1  0  0  0  0
 18 41  1  0  0  0  0
 18 42  1  0  0  0  0
 20 21  1  0  0  0  0
 20 24  1  0  0  0  0
 20 43  1  6  0  0  0
 20 19  1  0  0  0  0
 21 22  1  0  0  0  0
 21 44  1  0  0  0  0
 21 45  1  0  0  0  0
 22 23  1  0  0  0  0
 22 46  1  0  0  0  0
 22 47  1  0  0  0  0
 23 24  1  0  0  0  0
 24 48  1  0  0  0  0
 24 49  1  0  0  0  0
 26 27  2  0  0  0  0
 27 28  1  0  0  0  0
 28 29  1  0  0  0  0
 28 30  2  0  0  0  0
 29 50  1  0  0  0  0
 29 51  1  0  0  0  0
M  END
>  <DRUGBANK_ID>
DB16125

>  <COMMON_NAME>
Ciforadenant

>  <CAS_NUMBER>
1202402-40-1

>  <UNII>
8KFO2187CP

>  <SYNONYMS>
Ciforadenant

$$$$
