
 OpenBabel10282417203D

 67 70  0  0  0  0  0  0  0  0999 V2000
    0.9922   -0.0633    0.1618 C   0  0  0  0  0  0  0  0  0  0  0  0
    0.4215    0.0989   -1.2603 C   0  0  0  0  0  0  0  0  0  0  0  0
    0.8039   -1.1205   -2.0262 C   0  0  0  0  0  0  0  0  0  0  0  0
   -1.1156    0.0908   -1.2618 C   0  0  0  0  0  0  0  0  0  0  0  0
    1.0404    1.3744   -1.8467 C   0  0  0  0  0  0  0  0  0  0  0  0
    0.3011    2.5300   -1.4849 C   0  0  0  0  0  0  0  0  0  0  0  0
    0.8032    3.8016   -1.5563 C   0  0  0  0  0  0  0  0  0  0  0  0
    2.1973    3.8619   -1.7927 C   0  0  0  0  0  0  0  0  0  0  0  0
    2.9028    2.7606   -2.3361 C   0  0  0  0  0  0  0  0  0  0  0  0
    2.3203    1.4979   -2.4645 C   0  0  0  0  0  0  0  0  0  0  0  0
    3.0313    0.5483   -3.1710 N   0  0  0  0  0  0  0  0  0  0  0  0
    2.5587   -0.3606   -4.2148 C   0  0  0  0  0  0  0  0  0  0  0  0
    3.2155   -1.6978   -3.8321 C   0  0  0  0  0  0  0  0  0  0  0  0
    4.5924   -1.2425   -3.3687 C   0  0  0  0  0  0  0  0  0  0  0  0
    4.3994    0.1794   -2.7993 C   0  0  0  0  0  0  0  0  0  0  0  0
   -0.1771    4.9313   -1.3780 C   0  0  0  0  0  0  0  0  0  0  0  0
   -0.5040    5.2358   -0.0522 C   0  0  0  0  0  0  0  0  0  0  0  0
   -1.1898    6.4056    0.3007 C   0  0  0  0  0  0  0  0  0  0  0  0
   -1.5551    7.3132   -0.6956 C   0  0  0  0  0  0  0  0  0  0  0  0
   -1.3383    6.9954   -2.0236 C   0  0  0  0  0  0  0  0  0  0  0  0
   -0.7894    5.7531   -2.3788 C   0  0  0  0  0  0  0  0  0  0  0  0
   -0.8838    5.5951   -3.7431 O   0  0  0  0  0  0  0  0  0  0  0  0
   -0.2214    4.5024   -4.3407 C   0  0  0  0  0  0  0  0  0  0  0  0
    1.2848    4.7281   -4.3415 C   0  0  0  0  0  0  0  0  0  0  0  0
    1.7562    5.8472   -3.5798 O   0  0  0  0  0  0  0  0  0  0  0  0
   -1.3820    6.7430    1.7032 C   0  0  0  0  0  0  0  0  0  0  0  0
   -0.2720    6.8274    2.5580 C   0  0  0  0  0  0  0  0  0  0  0  0
   -0.4223    7.2440    3.8775 C   0  0  0  0  0  0  0  0  0  0  0  0
   -1.6918    7.5876    4.3544 C   0  0  0  0  0  0  0  0  0  0  0  0
   -2.7990    7.5259    3.4977 C   0  0  0  0  0  0  0  0  0  0  0  0
   -2.6525    7.0564    2.1957 C   0  0  0  0  0  0  0  0  0  0  0  0
   -1.9131    7.9597    5.7624 C   0  0  0  0  0  0  0  0  0  0  0  0
   -3.0104    8.2434    6.2606 O   0  0  0  0  0  0  0  0  0  0  0  0
   -0.8040    7.9169    6.5088 O   0  0  0  0  0  0  0  0  0  0  0  0
    0.6810   -1.0208    0.5892 H   0  0  0  0  0  0  0  0  0  0  0  0
    0.6681    0.7401    0.8300 H   0  0  0  0  0  0  0  0  0  0  0  0
    2.0924   -0.0518    0.1525 H   0  0  0  0  0  0  0  0  0  0  0  0
    0.4610   -2.0698   -1.6233 H   0  0  0  0  0  0  0  0  0  0  0  0
    0.4072   -1.0468   -3.0383 H   0  0  0  0  0  0  0  0  0  0  0  0
    1.8778   -1.1398   -1.9406 H   0  0  0  0  0  0  0  0  0  0  0  0
   -1.5512    0.7939   -0.5479 H   0  0  0  0  0  0  0  0  0  0  0  0
   -1.4902    0.3363   -2.2652 H   0  0  0  0  0  0  0  0  0  0  0  0
   -1.4953   -0.8956   -0.9864 H   0  0  0  0  0  0  0  0  0  0  0  0
   -0.7132    2.4581   -1.1090 H   0  0  0  0  0  0  0  0  0  0  0  0
    2.7622    4.7927   -1.8363 H   0  0  0  0  0  0  0  0  0  0  0  0
    3.8542    2.9646   -2.8379 H   0  0  0  0  0  0  0  0  0  0  0  0
    2.9623   -0.0493   -5.1857 H   0  0  0  0  0  0  0  0  0  0  0  0
    1.4820   -0.3689   -4.3681 H   0  0  0  0  0  0  0  0  0  0  0  0
    2.7596   -2.2496   -3.0054 H   0  0  0  0  0  0  0  0  0  0  0  0
    3.2207   -2.4205   -4.6488 H   0  0  0  0  0  0  0  0  0  0  0  0
    5.0251   -1.9162   -2.6213 H   0  0  0  0  0  0  0  0  0  0  0  0
    5.2580   -1.2232   -4.2358 H   0  0  0  0  0  0  0  0  0  0  0  0
    4.5349    0.1923   -1.7131 H   0  0  0  0  0  0  0  0  0  0  0  0
    5.1324    0.8546   -3.2566 H   0  0  0  0  0  0  0  0  0  0  0  0
   -0.1793    4.5593    0.7373 H   0  0  0  0  0  0  0  0  0  0  0  0
   -1.9918    8.2774   -0.4427 H   0  0  0  0  0  0  0  0  0  0  0  0
   -1.5393    7.7443   -2.7917 H   0  0  0  0  0  0  0  0  0  0  0  0
   -0.5796    3.5625   -3.8953 H   0  0  0  0  0  0  0  0  0  0  0  0
   -0.5119    4.4068   -5.3950 H   0  0  0  0  0  0  0  0  0  0  0  0
    1.7276    3.7626   -4.1060 H   0  0  0  0  0  0  0  0  0  0  0  0
    1.7057    4.9316   -5.3140 H   0  0  0  0  0  0  0  0  0  0  0  0
    1.3718    5.8445   -2.6870 H   0  0  0  0  0  0  0  0  0  0  0  0
    0.7214    6.5781    2.1870 H   0  0  0  0  0  0  0  0  0  0  0  0
    0.4554    7.3057    4.5143 H   0  0  0  0  0  0  0  0  0  0  0  0
   -3.7812    7.8435    3.8393 H   0  0  0  0  0  0  0  0  0  0  0  0
   -3.5293    6.9377    1.5608 H   0  0  0  0  0  0  0  0  0  0  0  0
   -1.1033    8.1305    7.4177 H   0  0  0  0  0  0  0  0  0  0  0  0
  1  2  1  0  0  0  0
  1 35  1  0  0  0  0
  1 36  1  0  0  0  0
  1 37  1  0  0  0  0
  2  3  1  0  0  0  0
  2  4  1  0  0  0  0
  2  5  1  0  0  0  0
  3 38  1  0  0  0  0
  3 39  1  0  0  0  0
  3 40  1  0  0  0  0
  4 41  1  0  0  0  0
  4 42  1  0  0  0  0
  4 43  1  0  0  0  0
  5  6  2  0  0  0  0
  5 10  1  0  0  0  0
  6  7  1  0  0  0  0
  6 44  1  0  0  0  0
  7  8  2  0  0  0  0
  7 16  1  0  0  0  0
  8  9  1  0  0  0  0
  8 45  1  0  0  0  0
  9 10  2  0  0  0  0
  9 46  1  0  0  0  0
 10 11  1  0  0  0  0
 11 12  1  0  0  0  0
 11 15  1  0  0  0  0
 12 13  1  0  0  0  0
 12 47  1  0  0  0  0
 12 48  1  0  0  0  0
 13 14  1  0  0  0  0
 13 49  1  0  0  0  0
 13 50  1  0  0  0  0
 14 15  1  0  0  0  0
 14 51  1  0  0  0  0
 14 52  1  0  0  0  0
 15 53  1  0  0  0  0
 15 54  1  0  0  0  0
 16 17  2  0  0  0  0
 16 21  1  0  0  0  0
 17 18  1  0  0  0  0
 17 55  1  0  0  0  0
 18 19  2  0  0  0  0
 18 26  1  0  0  0  0
 19 20  1  0  0  0  0
 19 56  1  0  0  0  0
 20 21  2  0  0  0  0
 20 57  1  0  0  0  0
 21 22  1  0  0  0  0
 22 23  1  0  0  0  0
 23 24  1  0  0  0  0
 23 58  1  0  0  0  0
 23 59  1  0  0  0  0
 24 25  1  0  0  0  0
 24 60  1  0  0  0  0
 24 61  1  0  0  0  0
 25 62  1  0  0  0  0
 26 27  2  0  0  0  0
 26 31  1  0  0  0  0
 27 28  1  0  0  0  0
 27 63  1  0  0  0  0
 28 29  2  0  0  0  0
 28 64  1  0  0  0  0
 29 30  1  0  0  0  0
 29 32  1  0  0  0  0
 30 31  2  0  0  0  0
 30 65  1  0  0  0  0
 31 66  1  0  0  0  0
 32 33  2  0  0  0  0
 32 34  1  0  0  0  0
 34 67  1  0  0  0  0
M  END
>  <DRUGBANK_ID>
DB12808

>  <COMMON_NAME>
Trifarotene

>  <CAS_NUMBER>
895542-09-3

>  <UNII>
0J8RN2W0HK

>  <SYNONYMS>
Trifarotene

$$$$
