
 OpenBabel10282417123D

 25 24  0  0  1  0  0  0  0  0999 V2000
    1.2208    0.0459    0.1301 C   0  0  0  0  0  0  0  0  0  0  0  0
    0.9309    0.9938   -1.0251 C   0  0  0  0  0  0  0  0  0  0  0  0
    0.8101   -2.9826   -1.0210 C   0  0  0  0  0  0  0  0  0  0  0  0
    0.0970   -2.8367   -2.5108 C   0  0  1  0  0  0  0  0  0  0  0  0
   -0.0482   -1.5045   -3.2744 C   0  0  0  0  0  0  0  0  0  0  0  0
    0.8170   -3.6501   -3.5618 N   0  0  0  0  0  0  0  0  0  0  0  0
    2.2073   -1.1758   -2.3466 N   0  0  0  0  0  0  0  0  0  0  0  0
    0.4429   -1.3360   -4.3881 O   0  0  0  0  0  0  0  0  0  0  0  0
   -0.4973   -0.5127   -2.5164 O   0  0  0  0  0  0  0  0  0  0  0  0
    1.4610    0.8276   -3.7355 O   0  0  0  0  0  0  0  0  0  0  0  0
    3.6057    0.6933   -2.4441 O   0  0  0  0  0  0  0  0  0  0  0  0
    0.3011   -1.6824    0.3308 S   0  0  0  0  0  0  0  0  0  0  0  0
    2.1554    0.4777   -2.5492 S   0  0  0  0  0  0  0  0  0  0  0  0
   -0.9857   -2.9733   -2.3760 H   0  0  0  0  0  0  0  0  0  0  0  0
    0.8798    0.5814    1.0273 H   0  0  0  0  0  0  0  0  0  0  0  0
    2.2969   -0.0851    0.1781 H   0  0  0  0  0  0  0  0  0  0  0  0
   -0.1707    0.9740   -1.1677 H   0  0  0  0  0  0  0  0  0  0  0  0
    1.0725    2.0752   -0.9088 H   0  0  0  0  0  0  0  0  0  0  0  0
    1.9202   -3.0002   -0.9847 H   0  0  0  0  0  0  0  0  0  0  0  0
    0.5982   -3.9973   -0.6355 H   0  0  0  0  0  0  0  0  0  0  0  0
    0.6921   -3.1245   -4.4654 H   0  0  0  0  0  0  0  0  0  0  0  0
    1.8403   -3.5612   -3.5030 H   0  0  0  0  0  0  0  0  0  0  0  0
    2.0563   -1.7558   -3.1819 H   0  0  0  0  0  0  0  0  0  0  0  0
    1.4964   -1.2999   -1.6381 H   0  0  0  0  0  0  0  0  0  0  0  0
   -0.2207    0.3190   -2.9804 H   0  0  0  0  0  0  0  0  0  0  0  0
  1 15  1  0  0  0  0
  1 16  1  0  0  0  0
  2  1  1  0  0  0  0
  2 17  1  0  0  0  0
  2 18  1  0  0  0  0
  3 19  1  0  0  0  0
  3 20  1  0  0  0  0
  4  3  1  0  0  0  0
  4  6  1  0  0  0  0
  4 14  1  1  0  0  0
  5  4  1  0  0  0  0
  6 21  1  0  0  0  0
  6 22  1  0  0  0  0
  7 23  1  0  0  0  0
  7 24  1  0  0  0  0
  8  5  2  0  0  0  0
  9  5  1  0  0  0  0
  9 25  1  0  0  0  0
 12  1  1  0  0  0  0
 12  3  1  0  0  0  0
 13  2  1  0  0  0  0
 13  7  1  0  0  0  0
 13 10  2  0  0  0  0
 13 11  2  0  0  0  0
M  END
>  <DRUGBANK_ID>
DB02689

>  <SECONDARY_ACCESSION_NUMBERS>
EXPT02875

>  <COMMON_NAME>
S-{2-[Amino(Dihydroxy)-Lambda~4~-Sulfanyl]Ethyl}-D-Cysteine

$$$$
