
 OpenBabel10282417133D

 39 42  0  0  0  0  0  0  0  0999 V2000
    1.5293    1.7026    0.0416 C   0  0  0  0  0  0  0  0  0  0  0  0
    2.8759    1.6659   -0.0058 C   0  0  0  0  0  0  0  0  0  0  0  0
    3.5964    0.3855    0.1162 C   0  0  0  0  0  0  0  0  0  0  0  0
    2.8086   -0.7161    0.1989 N   0  0  0  0  0  0  0  0  0  0  0  0
    0.7098    0.4982    0.1200 C   0  0  0  0  0  0  0  0  0  0  0  0
    1.4319   -0.6554    0.1328 C   0  0  0  0  0  0  0  0  0  0  0  0
    0.7540   -1.8868   -0.2811 C   0  0  0  0  0  0  0  0  0  0  0  0
   -0.3140   -1.3561   -1.2789 C   0  0  1  0  0  0  0  0  0  0  0  0
   -0.9914    0.4963   -0.1896 C   0  0  1  0  0  0  0  0  0  0  0  0
   -1.4511   -0.9531   -0.2080 C   0  0  2  0  0  0  0  0  0  0  0  0
   -2.9330   -1.0009    0.3238 C   0  0  0  0  0  0  0  0  0  0  0  0
   -3.7536    0.3150    0.2148 C   0  0  0  0  0  0  0  0  0  0  0  0
   -2.9998    1.5964    0.5945 C   0  0  0  0  0  0  0  0  0  0  0  0
   -1.5803    1.4274    0.7408 N   0  0  0  0  0  0  0  0  0  0  0  0
   -1.6263    0.7664   -1.6802 C   0  0  0  0  0  0  0  0  0  0  0  0
    0.0635    0.0655   -2.4072 C   0  0  0  0  0  0  0  0  0  0  0  0
   -2.0194   -1.3435   -1.0625 H   0  0  0  0  0  0  0  0  0  0  0  0
    4.8418    0.3248    0.1016 O   0  0  0  0  0  0  0  0  0  0  0  0
   -0.5280    1.3590   -2.4473 C   0  0  0  0  0  0  0  0  0  0  0  0
   -0.9884    2.8389   -1.8698 C   0  0  0  0  0  0  0  0  0  0  0  0
    1.0405    2.6443   -0.1236 H   0  0  0  0  0  0  0  0  0  0  0  0
    3.4784    2.5466   -0.1736 H   0  0  0  0  0  0  0  0  0  0  0  0
    3.2917   -1.6092    0.1752 H   0  0  0  0  0  0  0  0  0  0  0  0
    0.3481   -2.3561    0.6352 H   0  0  0  0  0  0  0  0  0  0  0  0
    1.3891   -2.6476   -0.7452 H   0  0  0  0  0  0  0  0  0  0  0  0
   -0.6024   -2.2155   -1.8995 H   0  0  0  0  0  0  0  0  0  0  0  0
   -2.9217   -1.3051    1.3705 H   0  0  0  0  0  0  0  0  0  0  0  0
   -3.5243   -1.7788   -0.1956 H   0  0  0  0  0  0  0  0  0  0  0  0
   -4.6529    0.2563    0.8300 H   0  0  0  0  0  0  0  0  0  0  0  0
   -4.1495    0.4019   -0.8115 H   0  0  0  0  0  0  0  0  0  0  0  0
   -3.1863    2.3379   -0.1939 H   0  0  0  0  0  0  0  0  0  0  0  0
   -3.4007    2.0783    1.4827 H   0  0  0  0  0  0  0  0  0  0  0  0
   -1.1779    1.4528    1.6690 H   0  0  0  0  0  0  0  0  0  0  0  0
   -1.9817   -0.1052   -2.2961 H   0  0  0  0  0  0  0  0  0  0  0  0
   -2.6103    1.2224   -1.7585 H   0  0  0  0  0  0  0  0  0  0  0  0
    0.3211   -0.2772   -3.4092 H   0  0  0  0  0  0  0  0  0  0  0  0
   -2.0883    3.0133   -1.8559 H   0  0  0  0  0  0  0  0  0  0  0  0
   -0.6972    3.0891   -0.8404 H   0  0  0  0  0  0  0  0  0  0  0  0
   -0.6498    3.6731   -2.4848 H   0  0  0  0  0  0  0  0  0  0  0  0
  1  2  2  0  0  0  0
  1 21  1  0  0  0  0
  2  3  1  0  0  0  0
  2 22  1  0  0  0  0
  3  4  1  0  0  0  0
  3 18  2  0  0  0  0
  4  6  1  0  0  0  0
  4 23  1  0  0  0  0
  5  6  2  0  0  0  0
  5  1  1  0  0  0  0
  6  7  1  0  0  0  0
  7  8  1  0  0  0  0
  7 24  1  0  0  0  0
  7 25  1  0  0  0  0
  8 16  1  0  0  0  0
  8 10  1  0  0  0  0
  8 26  1  6  0  0  0
  9 14  1  0  0  0  0
  9 15  1  0  0  0  0
  9  5  1  6  0  0  0
  9 10  1  0  0  0  0
 10 11  1  0  0  0  0
 10 17  1  6  0  0  0
 11 12  1  0  0  0  0
 11 27  1  0  0  0  0
 11 28  1  0  0  0  0
 12 13  1  0  0  0  0
 12 29  1  0  0  0  0
 12 30  1  0  0  0  0
 13 14  1  0  0  0  0
 13 31  1  0  0  0  0
 13 32  1  0  0  0  0
 14 33  1  0  0  0  0
 15 19  1  0  0  0  0
 15 34  1  0  0  0  0
 15 35  1  0  0  0  0
 16 19  2  0  0  0  0
 16 36  1  0  0  0  0
 19 20  1  0  0  0  0
 20 37  1  0  0  0  0
 20 38  1  0  0  0  0
 20 39  1  0  0  0  0
M  END
>  <DRUGBANK_ID>
DB03348

>  <SECONDARY_ACCESSION_NUMBERS>
EXPT01794

>  <COMMON_NAME>
Huperzine B

>  <CAS_NUMBER>
103548-82-9

>  <UNII>
DC3Z5425Y5

>  <SYNONYMS>
HupB

$$$$
