524
 OpenBabel10282417163D

 62 65  0  0  0  0  0  0  0  0999 V2000
    3.2635    4.4065   -0.1158 C   0  0  0  0  0  0  0  0  0  0  0  0
    1.4087    3.2012    0.9021 C   0  0  0  0  0  0  0  0  0  0  0  0
    0.6155    3.4421   -0.1636 C   0  0  0  0  0  0  0  0  0  0  0  0
    2.4543    4.7004   -1.2386 C   0  0  0  0  0  0  0  0  0  0  0  0
    2.7726    3.6755    0.8996 C   0  0  0  0  0  0  0  0  0  0  0  0
    1.1774    4.1414   -1.2696 N   0  0  0  0  0  0  0  0  0  0  0  0
    0.6731    4.4161   -2.5034 N   0  0  0  0  0  0  0  0  0  0  0  0
    1.5260    5.2802   -3.0192 C   0  0  0  0  0  0  0  0  0  0  0  0
    2.6631    5.4461   -2.3058 N   0  0  0  0  0  0  0  0  0  0  0  0
   -4.1329    4.8000   -0.2325 C   0  0  1  0  0  0  0  0  0  0  0  0
   -4.8604    5.3865   -1.5077 C   0  0  1  0  0  0  0  0  0  0  0  0
   -6.3943    5.4686   -1.4166 C   0  0  0  0  0  0  0  0  0  0  0  0
   -7.1340    5.4818   -2.5651 N   0  0  0  0  0  0  0  0  0  0  0  0
   -4.2394    3.2037   -0.1497 C   0  0  0  0  0  0  0  0  0  0  0  0
   -4.5292    6.8368   -1.7064 N   0  0  0  0  0  0  0  0  0  0  0  0
   -6.9571    5.7691   -0.3576 O   0  0  0  0  0  0  0  0  0  0  0  0
   -3.2812    2.4171   -0.0646 O   0  0  0  0  0  0  0  0  0  0  0  0
   -5.3912    2.4972   -0.1071 N   0  0  0  0  0  0  0  0  0  0  0  0
   -6.6334    3.1002    0.1691 C   0  0  0  0  0  0  0  0  0  0  0  0
   -5.2972    1.0454   -0.0374 C   0  0  0  0  0  0  0  0  0  0  0  0
   -6.7996    5.1192   -3.9374 C   0  0  0  0  0  0  0  0  0  0  0  0
   -8.1722    4.9091   -4.5736 C   0  0  2  0  0  0  0  0  0  0  0  0
   -9.0863    5.8718   -3.8313 C   0  0  0  0  0  0  0  0  0  0  0  0
   -8.5105    5.9012   -2.4376 C   0  0  0  0  0  0  0  0  0  0  0  0
   -8.5833    3.6363   -4.3090 F   0  0  0  0  0  0  0  0  0  0  0  0
   -0.8559    3.0384   -0.1268 C   0  0  1  0  0  0  0  0  0  0  0  0
   -1.5048    3.6083    1.2147 C   0  0  0  0  0  0  0  0  0  0  0  0
   -1.8494    5.0730    1.0765 C   0  0  0  0  0  0  0  0  0  0  0  0
   -2.6566    5.3644   -0.2010 C   0  0  1  0  0  0  0  0  0  0  0  0
   -1.8746    4.9642   -1.4505 C   0  0  0  0  0  0  0  0  0  0  0  0
   -1.5609    3.4703   -1.4615 C   0  0  0  0  0  0  0  0  0  0  0  0
   -4.5461    4.8270   -2.3925 H   0  0  0  0  0  0  0  0  0  0  0  0
   -8.1871    5.0524   -5.6557 H   0  0  0  0  0  0  0  0  0  0  0  0
   -4.5938    5.2034    0.6786 H   0  0  0  0  0  0  0  0  0  0  0  0
   -2.6976    6.4644   -0.2141 H   0  0  0  0  0  0  0  0  0  0  0  0
   -0.8906    1.9399   -0.0685 H   0  0  0  0  0  0  0  0  0  0  0  0
    4.2803    4.7666   -0.1210 H   0  0  0  0  0  0  0  0  0  0  0  0
    1.0526    2.6727    1.7835 H   0  0  0  0  0  0  0  0  0  0  0  0
    3.3843    3.4238    1.7578 H   0  0  0  0  0  0  0  0  0  0  0  0
    1.2867    5.7738   -3.9527 H   0  0  0  0  0  0  0  0  0  0  0  0
   -5.0583    7.1744   -2.5112 H   0  0  0  0  0  0  0  0  0  0  0  0
   -4.9399    7.3392   -0.9084 H   0  0  0  0  0  0  0  0  0  0  0  0
   -7.1712    3.0892   -0.7800 H   0  0  0  0  0  0  0  0  0  0  0  0
   -7.1761    2.6125    0.9691 H   0  0  0  0  0  0  0  0  0  0  0  0
   -6.3809    4.0657    0.5665 H   0  0  0  0  0  0  0  0  0  0  0  0
   -4.7186    0.6850   -0.8983 H   0  0  0  0  0  0  0  0  0  0  0  0
   -4.7571    0.7647    0.8778 H   0  0  0  0  0  0  0  0  0  0  0  0
   -6.2897    0.6053   -0.0426 H   0  0  0  0  0  0  0  0  0  0  0  0
   -6.1709    4.2250   -3.9685 H   0  0  0  0  0  0  0  0  0  0  0  0
   -6.2703    5.9641   -4.3918 H   0  0  0  0  0  0  0  0  0  0  0  0
   -9.0334    6.8769   -4.2616 H   0  0  0  0  0  0  0  0  0  0  0  0
  -10.1285    5.5439   -3.8014 H   0  0  0  0  0  0  0  0  0  0  0  0
   -9.0305    5.2282   -1.7475 H   0  0  0  0  0  0  0  0  0  0  0  0
   -8.5234    6.9113   -2.0098 H   0  0  0  0  0  0  0  0  0  0  0  0
   -2.4097    3.1058    1.5715 H   0  0  0  0  0  0  0  0  0  0  0  0
   -0.8765    3.4357    2.0934 H   0  0  0  0  0  0  0  0  0  0  0  0
   -2.4008    5.4248    1.9566 H   0  0  0  0  0  0  0  0  0  0  0  0
   -0.9055    5.6360    1.0671 H   0  0  0  0  0  0  0  0  0  0  0  0
   -2.3854    5.2311   -2.3800 H   0  0  0  0  0  0  0  0  0  0  0  0
   -0.9821    5.5922   -1.4428 H   0  0  0  0  0  0  0  0  0  0  0  0
   -0.9878    3.1129   -2.3194 H   0  0  0  0  0  0  0  0  0  0  0  0
   -2.4718    2.9491   -1.7598 H   0  0  0  0  0  0  0  0  0  0  0  0
  1  4  1  0  0  0  0
  1  5  2  0  0  0  0
  1 37  1  0  0  0  0
  2  5  1  0  0  0  0
  2  3  2  0  0  0  0
  2 38  1  0  0  0  0
  3  6  1  0  0  0  0
  4  9  2  0  0  0  0
  4  6  1  0  0  0  0
  5 39  1  0  0  0  0
  6  7  1  0  0  0  0
  7  8  2  0  0  0  0
  8  9  1  0  0  0  0
  8 40  1  0  0  0  0
 10 14  1  0  0  0  0
 10 34  1  1  0  0  0
 10 11  1  0  0  0  0
 11 15  1  0  0  0  0
 11 32  1  6  0  0  0
 11 12  1  0  0  0  0
 12 16  2  0  0  0  0
 12 13  1  0  0  0  0
 13 24  1  0  0  0  0
 13 21  1  0  0  0  0
 14 17  2  0  0  0  0
 14 18  1  0  0  0  0
 15 41  1  0  0  0  0
 15 42  1  0  0  0  0
 18 19  1  0  0  0  0
 18 20  1  0  0  0  0
 19 43  1  0  0  0  0
 19 44  1  0  0  0  0
 19 45  1  0  0  0  0
 20 46  1  0  0  0  0
 20 47  1  0  0  0  0
 20 48  1  0  0  0  0
 21 22  1  0  0  0  0
 21 49  1  0  0  0  0
 21 50  1  0  0  0  0
 22 23  1  0  0  0  0
 22 33  1  6  0  0  0
 22 25  1  0  0  0  0
 23 24  1  0  0  0  0
 23 51  1  0  0  0  0
 23 52  1  0  0  0  0
 24 53  1  0  0  0  0
 24 54  1  0  0  0  0
 26 27  1  0  0  0  0
 26 31  1  0  0  0  0
 26 36  1  1  0  0  0
 26  3  1  0  0  0  0
 27 28  1  0  0  0  0
 27 55  1  0  0  0  0
 27 56  1  0  0  0  0
 28 29  1  0  0  0  0
 28 57  1  0  0  0  0
 28 58  1  0  0  0  0
 29 10  1  0  0  0  0
 29 35  1  6  0  0  0
 29 30  1  0  0  0  0
 30 31  1  0  0  0  0
 30 59  1  0  0  0  0
 30 60  1  0  0  0  0
 31 61  1  0  0  0  0
 31 62  1  0  0  0  0
M  END
>  <DRUGBANK_ID>
DB07135

>  <COMMON_NAME>
(2S,3S)-3-AMINO-4-[(3S)-3-FLUOROPYRROLIDIN-1-YL]-N,N-DIMETHYL-4-OXO-2-(TRANS-4-[1,2,4]TRIAZOLO[1,5-A]PYRIDIN-5-YLCYCLOHEXYL)BUTANAMIDE

$$$$
