
 OpenBabel10282417153D

 43 46  0  0  0  0  0  0  0  0999 V2000
    2.3578   -1.0078    0.1225 N   0  0  3  0  0  0  0  0  0  0  0  0
    1.1546   -2.7897   -1.1053 C   0  0  0  0  0  0  0  0  0  0  0  0
    3.3640   -2.2523    0.0563 C   0  0  0  0  0  0  0  0  0  0  0  0
    2.4042   -2.6233   -2.1019 C   0  0  0  0  0  0  0  0  0  0  0  0
    3.7301   -2.4510   -1.3738 C   0  0  0  0  0  0  0  0  0  0  0  0
    0.4553    1.1037    0.7271 C   0  0  2  0  0  0  0  0  0  0  0  0
    2.0690    0.6113    0.2530 C   0  0  0  0  0  0  0  0  0  0  0  0
   -2.0094    0.0610   -1.2542 N   0  0  3  0  0  0  0  0  0  0  0  0
   -1.6771   -1.4864   -0.2075 C   0  0  0  0  0  0  0  0  0  0  0  0
   -0.0050    0.3239   -2.5544 C   0  0  0  0  0  0  0  0  0  0  0  0
   -0.1081   -0.1383   -1.1256 C   0  0  0  0  0  0  0  0  0  0  0  0
   -1.4690    0.0942   -2.6802 C   0  0  0  0  0  0  0  0  0  0  0  0
   -1.5846    0.5690    0.0582 C   0  0  0  0  0  0  0  0  0  0  0  0
   -0.2067   -1.4489    0.8884 C   0  0  2  0  0  0  0  0  0  0  0  0
    0.0993   -0.1088    1.7244 C   0  0  0  0  0  0  0  0  0  0  0  0
    1.1623   -1.8377    0.2567 C   0  0  2  0  0  0  0  0  0  0  0  0
    1.5871   -2.1917    1.2111 H   0  0  0  0  0  0  0  0  0  0  0  0
   -0.7915    1.3790   -0.5890 C   0  0  1  0  0  0  0  0  0  0  0  0
   -1.1037    2.3625   -0.9839 H   0  0  0  0  0  0  0  0  0  0  0  0
    1.0031   -3.8154   -0.7671 H   0  0  0  0  0  0  0  0  0  0  0  0
    0.3241   -2.6530   -1.8041 H   0  0  0  0  0  0  0  0  0  0  0  0
    4.1986   -2.5217    0.7165 H   0  0  0  0  0  0  0  0  0  0  0  0
    2.7833   -3.2200    0.3006 H   0  0  0  0  0  0  0  0  0  0  0  0
    2.4098   -3.4630   -2.8151 H   0  0  0  0  0  0  0  0  0  0  0  0
    2.3146   -1.7279   -2.7322 H   0  0  0  0  0  0  0  0  0  0  0  0
    4.4667   -3.2169   -1.6645 H   0  0  0  0  0  0  0  0  0  0  0  0
    4.2590   -1.5160   -1.5236 H   0  0  0  0  0  0  0  0  0  0  0  0
    0.4275    2.0467    1.2987 H   0  0  0  0  0  0  0  0  0  0  0  0
    2.7514    1.1338    0.9190 H   0  0  0  0  0  0  0  0  0  0  0  0
    2.1052    1.1892   -0.7005 H   0  0  0  0  0  0  0  0  0  0  0  0
   -2.5285   -1.6000    0.4813 H   0  0  0  0  0  0  0  0  0  0  0  0
   -1.6415   -2.3503   -0.8832 H   0  0  0  0  0  0  0  0  0  0  0  0
    0.6241   -0.3404   -3.1575 H   0  0  0  0  0  0  0  0  0  0  0  0
    0.5187    1.2939   -2.5050 H   0  0  0  0  0  0  0  0  0  0  0  0
    0.9280   -0.2183   -1.0022 H   0  0  0  0  0  0  0  0  0  0  0  0
   -0.2733   -1.1607   -1.3716 H   0  0  0  0  0  0  0  0  0  0  0  0
   -1.6759   -0.8548   -3.1671 H   0  0  0  0  0  0  0  0  0  0  0  0
   -1.8528    0.9736   -3.1842 H   0  0  0  0  0  0  0  0  0  0  0  0
   -2.5514    1.2535   -0.0360 H   0  0  0  0  0  0  0  0  0  0  0  0
   -1.6907    0.5704    1.1541 H   0  0  0  0  0  0  0  0  0  0  0  0
   -0.3584   -2.2507    1.6236 H   0  0  0  0  0  0  0  0  0  0  0  0
    0.9588   -0.1797    2.4001 H   0  0  0  0  0  0  0  0  0  0  0  0
   -0.7178    0.0690    2.4414 H   0  0  0  0  0  0  0  0  0  0  0  0
  1  7  1  0  0  0  0
  1 16  1  0  0  0  0
  2 16  1  0  0  0  0
  2 20  1  0  0  0  0
  2 21  1  0  0  0  0
  3  1  1  0  0  0  0
  3 22  1  0  0  0  0
  3 23  1  0  0  0  0
  4  2  1  0  0  0  0
  4 24  1  0  0  0  0
  4 25  1  0  0  0  0
  5  3  1  0  0  0  0
  5  4  1  0  0  0  0
  5 26  1  0  0  0  0
  5 27  1  0  0  0  0
  6 18  1  0  0  0  0
  6 15  1  0  0  0  0
  6 28  1  1  0  0  0
  7  6  1  0  0  0  0
  7 29  1  0  0  0  0
  7 30  1  0  0  0  0
  8 12  1  0  0  0  0
  9  8  1  0  0  0  0
  9 31  1  0  0  0  0
  9 32  1  0  0  0  0
 10 33  1  0  0  0  0
 10 34  1  0  0  0  0
 11 10  1  0  0  0  0
 11 35  1  0  0  0  0
 11 36  1  0  0  0  0
 12 10  1  0  0  0  0
 12 37  1  0  0  0  0
 12 38  1  0  0  0  0
 13 11  1  0  0  0  0
 13 39  1  0  0  0  0
 13 40  1  0  0  0  0
 14  9  1  0  0  0  0
 14 15  1  0  0  0  0
 14 41  1  1  0  0  0
 15 42  1  0  0  0  0
 15 43  1  0  0  0  0
 16 14  1  0  0  0  0
 16 17  1  1  0  0  0
 18 13  1  0  0  0  0
 18  8  1  0  0  0  0
 18 19  1  6  0  0  0
M  END
>  <DRUGBANK_ID>
DB06727

>  <COMMON_NAME>
Sparteine

>  <CAS_NUMBER>
90-39-1

>  <UNII>
298897D62S

>  <SYNONYMS>
(-)-sparteine; 6β,7α,9α,11α-pachycarpine; Esparteina; Lupinidine; Sparteina; Sparteine; Sparteinum

$$$$
