
 OpenBabel10282417173D

 44 46  0  0  0  0  0  0  0  0999 V2000
    1.0137   -0.3097   -0.1170 C   0  0  0  0  0  0  0  0  0  0  0  0
    0.9700    2.9963    2.9844 C   0  0  0  0  0  0  0  0  0  0  0  0
    0.9677    2.5372    0.6803 C   0  0  0  0  0  0  0  0  0  0  0  0
   -0.1851   -4.3970    2.2789 C   0  0  0  0  0  0  0  0  0  0  0  0
   -0.4002   -5.4128    1.3693 C   0  0  0  0  0  0  0  0  0  0  0  0
   -0.6422   -3.1172    1.9946 C   0  0  0  0  0  0  0  0  0  0  0  0
   -1.0353   -5.1329    0.1697 C   0  0  0  0  0  0  0  0  0  0  0  0
   -3.5135   -0.2149   -3.1659 C   0  0  0  0  0  0  0  0  0  0  0  0
   -3.1804   -1.5409   -2.9555 C   0  0  0  0  0  0  0  0  0  0  0  0
   -2.5797    0.3249   -1.0043 C   0  0  0  0  0  0  0  0  0  0  0  0
   -3.5463    2.1042   -2.3846 C   0  0  0  0  0  0  0  0  0  0  0  0
    0.9784    0.6993    2.2883 C   0  0  0  0  0  0  0  0  0  0  0  0
   -1.0642   -0.4198    1.3708 C   0  0  0  0  0  0  0  0  0  0  0  0
    0.4813   -0.3820    1.3169 C   0  0  3  0  0  0  0  0  0  0  0  0
   -3.2096    0.7227   -2.1900 C   0  0  0  0  0  0  0  0  0  0  0  0
   -1.2506   -2.7801    0.7666 C   0  0  0  0  0  0  0  0  0  0  0  0
   -2.2321   -1.0174   -0.7516 C   0  0  0  0  0  0  0  0  0  0  0  0
   -1.4478   -3.8327   -0.1379 C   0  0  0  0  0  0  0  0  0  0  0  0
   -2.5500   -1.9393   -1.7708 C   0  0  0  0  0  0  0  0  0  0  0  0
   -3.8126    3.2169   -2.5345 N   0  0  0  0  0  0  0  0  0  0  0  0
    0.5007    2.0546    1.9763 N   0  0  0  0  0  0  0  0  0  0  0  0
   -1.6191   -1.4386    0.4566 N   0  0  0  0  0  0  0  0  0  0  0  0
   -2.2038   -3.6691   -1.7187 S   0  0  0  0  0  0  0  0  0  0  0  0
    0.5271    0.4444   -0.7251 H   0  0  0  0  0  0  0  0  0  0  0  0
    0.7997   -1.2206   -0.6793 H   0  0  0  0  0  0  0  0  0  0  0  0
    2.0936   -0.1431   -0.1134 H   0  0  0  0  0  0  0  0  0  0  0  0
    2.0642    3.0243    3.0129 H   0  0  0  0  0  0  0  0  0  0  0  0
    0.5989    3.9965    2.7381 H   0  0  0  0  0  0  0  0  0  0  0  0
    0.5849    2.7409    3.9747 H   0  0  0  0  0  0  0  0  0  0  0  0
    2.0445    2.3774    0.5503 H   0  0  0  0  0  0  0  0  0  0  0  0
    0.4073    2.0801   -0.1226 H   0  0  0  0  0  0  0  0  0  0  0  0
    0.7241    3.5879    0.5180 H   0  0  0  0  0  0  0  0  0  0  0  0
    0.3283   -4.5785    3.2167 H   0  0  0  0  0  0  0  0  0  0  0  0
   -0.0891   -6.4251    1.5911 H   0  0  0  0  0  0  0  0  0  0  0  0
   -0.4625   -2.3797    2.7702 H   0  0  0  0  0  0  0  0  0  0  0  0
   -1.2133   -5.9344   -0.5426 H   0  0  0  0  0  0  0  0  0  0  0  0
   -4.0090    0.0646   -4.0894 H   0  0  0  0  0  0  0  0  0  0  0  0
   -3.4148   -2.2821   -3.7172 H   0  0  0  0  0  0  0  0  0  0  0  0
   -2.3864    1.1162   -0.2883 H   0  0  0  0  0  0  0  0  0  0  0  0
    0.6153    0.4191    3.2936 H   0  0  0  0  0  0  0  0  0  0  0  0
    2.0731    0.6550    2.3519 H   0  0  0  0  0  0  0  0  0  0  0  0
   -1.4358   -0.6036    2.3894 H   0  0  0  0  0  0  0  0  0  0  0  0
   -1.4396    0.5850    1.1889 H   0  0  0  0  0  0  0  0  0  0  0  0
    0.9235   -1.3051    1.7007 H   0  0  0  0  0  0  0  0  0  0  0  0
  1 24  1  0  0  0  0
  1 25  1  0  0  0  0
  1 26  1  0  0  0  0
  2 27  1  0  0  0  0
  2 28  1  0  0  0  0
  2 29  1  0  0  0  0
  3 30  1  0  0  0  0
  3 31  1  0  0  0  0
  3 32  1  0  0  0  0
  4 33  1  0  0  0  0
  5  4  2  0  0  0  0
  5 34  1  0  0  0  0
  6  4  1  0  0  0  0
  6 35  1  0  0  0  0
  7  5  1  0  0  0  0
  7 36  1  0  0  0  0
  8 37  1  0  0  0  0
  9  8  2  0  0  0  0
  9 38  1  0  0  0  0
 10 39  1  0  0  0  0
 12 40  1  0  0  0  0
 12 41  1  0  0  0  0
 13 42  1  0  0  0  0
 13 43  1  0  0  0  0
 14  1  1  0  0  0  0
 14 12  1  0  0  0  0
 14 13  1  0  0  0  0
 14 44  1  0  0  0  0
 15  8  1  0  0  0  0
 15 10  2  0  0  0  0
 15 11  1  0  0  0  0
 16  6  2  0  0  0  0
 17 10  1  0  0  0  0
 18  7  2  0  0  0  0
 18 16  1  0  0  0  0
 19  9  1  0  0  0  0
 19 17  2  0  0  0  0
 20 11  3  0  0  0  0
 21  2  1  0  0  0  0
 21  3  1  0  0  0  0
 21 12  1  0  0  0  0
 22 13  1  0  0  0  0
 22 16  1  0  0  0  0
 22 17  1  0  0  0  0
 23 18  1  0  0  0  0
 23 19  1  0  0  0  0
M  END
>  <DRUGBANK_ID>
DB09000

>  <COMMON_NAME>
Cyamemazine

>  <CAS_NUMBER>
3546-03-0

>  <UNII>
A2JGV5CNU4

>  <SYNONYMS>
Cyamemazine

$$$$
