
 OpenBabel10282417213D

 28 27  0  0  0  0  0  0  0  0999 V2000
    0.9942   -0.0399   -0.0937 C   0  0  0  0  0  0  0  0  0  0  0  0
    0.9359    2.3503   -1.0418 C   0  0  0  0  0  0  0  0  0  0  0  0
    0.5758   -0.7486   -1.3862 C   0  0  0  0  0  0  0  0  0  0  0  0
    0.3294    2.0395   -2.2941 O   0  0  0  0  0  0  0  0  0  0  0  0
    1.0476   -2.1968   -1.4473 C   0  0  0  0  0  0  0  0  0  0  0  0
    0.4392   -3.0785   -0.3595 C   0  0  0  0  0  0  0  0  0  0  0  0
   -1.0920   -3.0710   -0.3574 C   0  0  0  0  0  0  0  0  0  0  0  0
   -1.6682   -3.5696   -1.6744 C   0  0  0  0  0  0  0  0  0  0  0  0
    0.4706    1.3910    0.0598 C   0  0  3  0  0  0  0  0  0  0  0  0
   -0.9563    1.3625    0.1256 O   0  0  0  0  0  0  0  0  0  0  0  0
    0.6190   -0.6061    0.7667 H   0  0  0  0  0  0  0  0  0  0  0  0
    2.0881   -0.0385   -0.0251 H   0  0  0  0  0  0  0  0  0  0  0  0
    0.6261    3.3702   -0.7983 H   0  0  0  0  0  0  0  0  0  0  0  0
    2.0262    2.3313   -1.1441 H   0  0  0  0  0  0  0  0  0  0  0  0
   -0.5090   -0.6878   -1.5260 H   0  0  0  0  0  0  0  0  0  0  0  0
    1.0250   -0.2631   -2.2517 H   0  0  0  0  0  0  0  0  0  0  0  0
    0.9945    1.5619   -2.8257 H   0  0  0  0  0  0  0  0  0  0  0  0
    0.8014   -2.6002   -2.4370 H   0  0  0  0  0  0  0  0  0  0  0  0
    2.1413   -2.2241   -1.3803 H   0  0  0  0  0  0  0  0  0  0  0  0
    0.8030   -4.1031   -0.4943 H   0  0  0  0  0  0  0  0  0  0  0  0
    0.8032   -2.7572    0.6230 H   0  0  0  0  0  0  0  0  0  0  0  0
   -1.4490   -3.7052    0.4606 H   0  0  0  0  0  0  0  0  0  0  0  0
   -1.4758   -2.0657   -0.1474 H   0  0  0  0  0  0  0  0  0  0  0  0
   -1.3113   -4.5817   -1.8877 H   0  0  0  0  0  0  0  0  0  0  0  0
   -2.7602   -3.5855   -1.6327 H   0  0  0  0  0  0  0  0  0  0  0  0
   -1.3860   -2.9253   -2.5134 H   0  0  0  0  0  0  0  0  0  0  0  0
    0.8238    1.7752    1.0238 H   0  0  0  0  0  0  0  0  0  0  0  0
   -1.2687    1.2510   -0.7924 H   0  0  0  0  0  0  0  0  0  0  0  0
  1  3  1  0  0  0  0
  1 11  1  0  0  0  0
  1 12  1  0  0  0  0
  2  4  1  0  0  0  0
  2 13  1  0  0  0  0
  2 14  1  0  0  0  0
  3  5  1  0  0  0  0
  3 15  1  0  0  0  0
  3 16  1  0  0  0  0
  4 17  1  0  0  0  0
  5  6  1  0  0  0  0
  5 18  1  0  0  0  0
  5 19  1  0  0  0  0
  6  7  1  0  0  0  0
  6 20  1  0  0  0  0
  6 21  1  0  0  0  0
  7  8  1  0  0  0  0
  7 22  1  0  0  0  0
  7 23  1  0  0  0  0
  8 24  1  0  0  0  0
  8 25  1  0  0  0  0
  8 26  1  0  0  0  0
  9  1  1  0  0  0  0
  9  2  1  0  0  0  0
  9 10  1  0  0  0  0
  9 27  1  0  0  0  0
 10 28  1  0  0  0  0
M  END
>  <DRUGBANK_ID>
DB14589

>  <COMMON_NAME>
Caprylyl glycol

>  <CAS_NUMBER>
1117-86-8

>  <UNII>
00YIU5438U

>  <SYNONYMS>
1,2-Dihydroxyoctane; 1,2-Octanediol; 1,2-Octylene glycol; Octane-1,2-diol

$$$$
