B97
 OpenBabel10282417163D

 45 49  0  0  0  0  0  0  0  0999 V2000
    1.8009    1.3168    1.2820 C   0  0  0  0  0  0  0  0  0  0  0  0
    4.3327    5.0495    0.6642 C   0  0  0  0  0  0  0  0  0  0  0  0
   -0.4215    3.0319    2.2037 C   0  0  0  0  0  0  0  0  0  0  0  0
   -1.0889    2.2878    3.1827 C   0  0  0  0  0  0  0  0  0  0  0  0
    2.4994    2.6173    1.5128 C   0  0  0  0  0  0  0  0  0  0  0  0
    5.5096    5.4437   -0.0113 C   0  0  0  0  0  0  0  0  0  0  0  0
    3.3868    4.4905   -1.4128 C   0  0  0  0  0  0  0  0  0  0  0  0
    0.3588    1.2538    1.1238 C   0  0  0  0  0  0  0  0  0  0  0  0
   -0.7561    0.3872    1.7666 C   0  0  0  0  0  0  0  0  0  0  0  0
    3.2500    4.4427   -0.0318 C   0  0  0  0  0  0  0  0  0  0  0  0
    0.0817    2.5876    0.9787 C   0  0  0  0  0  0  0  0  0  0  0  0
   -1.3642   -0.9615    1.6749 C   0  0  0  0  0  0  0  0  0  0  0  0
   -1.4325    1.0106    2.8236 C   0  0  0  0  0  0  0  0  0  0  0  0
    2.1993    3.5565    0.5729 C   0  0  0  0  0  0  0  0  0  0  0  0
   -2.4199   -1.1811    2.5654 C   0  0  0  0  0  0  0  0  0  0  0  0
    5.4912    5.4874   -1.3965 C   0  0  0  0  0  0  0  0  0  0  0  0
   -3.2193   -2.3479    2.8382 C   0  0  0  0  0  0  0  0  0  0  0  0
   -0.5639   -3.2160    1.5053 C   0  0  0  0  0  0  0  0  0  0  0  0
   -1.7039   -4.0829    2.1030 C   0  0  1  0  0  0  0  0  0  0  0  0
    6.6122    6.1353   -2.1584 C   0  0  0  0  0  0  0  0  0  0  0  0
   -1.0784   -5.3720    2.6173 C   0  0  0  0  0  0  0  0  0  0  0  0
    4.4352    5.0304   -2.1042 N   0  0  0  0  0  0  0  0  0  0  0  0
    0.9002    3.4566    0.2126 N   0  0  0  0  0  0  0  0  0  0  0  0
   -0.9664   -1.9676    0.8624 N   0  0  0  0  0  0  0  0  0  0  0  0
   -2.4974   -3.4637    3.1444 N   0  0  0  0  0  0  0  0  0  0  0  0
   -4.4679   -2.3651    2.9286 O   0  0  0  0  0  0  0  0  0  0  0  0
   -2.6464    0.1178    3.6096 S   0  0  0  0  0  0  0  0  0  0  0  0
   -2.4318   -4.3087    1.3153 H   0  0  0  0  0  0  0  0  0  0  0  0
    2.2893    0.8199    0.4150 H   0  0  0  0  0  0  0  0  0  0  0  0
    4.3130    5.2261    1.7396 H   0  0  0  0  0  0  0  0  0  0  0  0
   -0.0636    3.9876    2.5662 H   0  0  0  0  0  0  0  0  0  0  0  0
   -1.4268    2.7315    4.1094 H   0  0  0  0  0  0  0  0  0  0  0  0
    2.1525    3.1735    2.4374 H   0  0  0  0  0  0  0  0  0  0  0  0
    6.4199    5.7071    0.5287 H   0  0  0  0  0  0  0  0  0  0  0  0
    2.6423    4.0055   -2.0347 H   0  0  0  0  0  0  0  0  0  0  0  0
    0.1414   -2.9519    2.3026 H   0  0  0  0  0  0  0  0  0  0  0  0
   -0.0145   -3.8100    0.7700 H   0  0  0  0  0  0  0  0  0  0  0  0
    6.7555    7.1621   -1.8019 H   0  0  0  0  0  0  0  0  0  0  0  0
    7.5490    5.5829   -2.0411 H   0  0  0  0  0  0  0  0  0  0  0  0
    6.3702    6.1922   -3.2252 H   0  0  0  0  0  0  0  0  0  0  0  0
   -0.3314   -5.1517    3.3893 H   0  0  0  0  0  0  0  0  0  0  0  0
   -1.8164   -6.0532    3.0509 H   0  0  0  0  0  0  0  0  0  0  0  0
   -0.5760   -5.8846    1.7920 H   0  0  0  0  0  0  0  0  0  0  0  0
   -1.1899   -1.9960   -0.1335 H   0  0  0  0  0  0  0  0  0  0  0  0
   -2.3408   -3.6449    4.1327 H   0  0  0  0  0  0  0  0  0  0  0  0
  1  5  2  0  0  0  0
  1  8  1  0  0  0  0
  1 29  1  0  0  0  0
  2  6  2  0  0  0  0
  2 10  1  0  0  0  0
  2 30  1  0  0  0  0
  3  4  2  0  0  0  0
  3 11  1  0  0  0  0
  3 31  1  0  0  0  0
  4 13  1  0  0  0  0
  4 32  1  0  0  0  0
  5 14  1  0  0  0  0
  5 33  1  0  0  0  0
  6 16  1  0  0  0  0
  6 34  1  0  0  0  0
  7 10  2  0  0  0  0
  7 22  1  0  0  0  0
  7 35  1  0  0  0  0
  8  9  1  0  0  0  0
  8 11  2  0  0  0  0
  9 12  1  0  0  0  0
  9 13  2  0  0  0  0
 10 14  1  0  0  0  0
 11 23  1  0  0  0  0
 12 15  2  0  0  0  0
 12 24  1  0  0  0  0
 13 27  1  0  0  0  0
 14 23  2  0  0  0  0
 15 17  1  0  0  0  0
 15 27  1  0  0  0  0
 16 20  1  0  0  0  0
 16 22  2  0  0  0  0
 17 25  1  0  0  0  0
 17 26  2  0  0  0  0
 18 19  1  0  0  0  0
 18 24  1  0  0  0  0
 18 36  1  0  0  0  0
 18 37  1  0  0  0  0
 19 25  1  0  0  0  0
 19 28  1  6  0  0  0
 19 21  1  0  0  0  0
 20 38  1  0  0  0  0
 20 39  1  0  0  0  0
 20 40  1  0  0  0  0
 21 41  1  0  0  0  0
 21 42  1  0  0  0  0
 21 43  1  0  0  0  0
 24 44  1  0  0  0  0
 25 45  1  0  0  0  0
M  END
>  <DRUGBANK_ID>
DB07430

>  <COMMON_NAME>
(10R)-10-methyl-3-(6-methylpyridin-3-yl)-9,10,11,12-tetrahydro-8H-[1,4]diazepino[5',6':4,5]thieno[3,2-f]quinolin-8-one

$$$$
