
 OpenBabel10282417223D

 75 80  0  0  0  0  0  0  0  0999 V2000
    1.3747   -0.3130   -0.0370 C   0  0  0  0  0  0  0  0  0  0  0  0
    0.6740   -0.8265    1.2078 C   0  0  0  0  0  0  0  0  0  0  0  0
    0.9968    0.0070    2.3946 C   0  0  0  0  0  0  0  0  0  0  0  0
    0.7863    1.3862    2.5727 C   0  0  0  0  0  0  0  0  0  0  0  0
    0.2475    2.3311    1.6439 N   0  0  0  0  0  0  0  0  0  0  0  0
    0.2098    3.7437    1.9618 C   0  0  0  0  0  0  0  0  0  0  0  0
   -0.3226    2.0727    0.3623 C   0  0  0  0  0  0  0  0  0  0  0  0
   -1.2301    1.1572    0.0521 N   0  0  0  0  0  0  0  0  0  0  0  0
   -1.3416    0.9239   -1.3371 C   0  0  0  0  0  0  0  0  0  0  0  0
   -0.5843    1.7535   -2.1345 C   0  0  0  0  0  0  0  0  0  0  0  0
    0.2687    2.8764   -1.1349 S   0  0  0  0  0  0  0  0  0  0  0  0
   -0.5672    1.7356   -3.5836 C   0  0  0  0  0  0  0  0  0  0  0  0
   -0.6076    1.6835   -4.7231 N   0  0  0  0  0  0  0  0  0  0  0  0
   -2.2472   -0.1124   -1.8456 C   0  0  0  0  0  0  0  0  0  0  0  0
   -3.5951   -0.0348   -1.4824 C   0  0  0  0  0  0  0  0  0  0  0  0
   -4.5171   -0.9598   -1.9751 C   0  0  0  0  0  0  0  0  0  0  0  0
   -4.0618   -2.0803   -2.6544 C   0  0  0  0  0  0  0  0  0  0  0  0
   -4.9385   -2.9985   -3.0817 F   0  0  0  0  0  0  0  0  0  0  0  0
   -2.7096   -2.2440   -2.9183 C   0  0  0  0  0  0  0  0  0  0  0  0
   -1.8283   -1.1884   -2.6504 C   0  0  0  0  0  0  0  0  0  0  0  0
    1.2641    1.5777    3.9276 N   0  0  0  0  0  0  0  0  0  0  0  0
    1.2960    2.6724    4.8226 C   0  0  0  0  0  0  0  0  0  0  0  0
    1.6487    2.5247    6.1113 C   0  0  0  0  0  0  0  0  0  0  0  0
    2.1889    1.2575    6.5176 C   0  0  0  0  0  0  0  0  0  0  0  0
    2.1943    0.1728    5.7364 C   0  0  0  0  0  0  0  0  0  0  0  0
    2.6696   -1.0939    6.3868 C   0  0  0  0  0  0  0  0  0  0  0  0
    1.6937    0.3102    4.3917 C   0  0  0  0  0  0  0  0  0  0  0  0
    1.5529   -0.6169    3.4820 N   0  0  0  0  0  0  0  0  0  0  0  0
    1.5344    3.4275    7.1478 N   0  0  0  0  0  0  0  0  0  0  0  0
    2.6798    3.6353    8.0336 C   0  0  0  0  0  0  0  0  0  0  0  0
    2.7040    4.2865    9.3774 C   0  0  0  0  0  0  0  0  0  0  0  0
    1.7076    5.3643    9.3696 N   0  0  0  0  0  0  0  0  0  0  0  0
    2.2013    6.6364    8.7047 C   0  0  0  0  0  0  0  0  0  0  0  0
    2.5722    6.7369    7.1196 C   0  0  0  0  0  0  0  0  0  0  0  0
    1.8251    7.4311    6.4104 O   0  0  0  0  0  0  0  0  0  0  0  0
    3.7819    6.1962    6.5869 N   0  0  0  0  0  0  0  0  0  0  0  0
    4.3474    4.8120    6.5538 C   0  0  0  0  0  0  0  0  0  0  0  0
    5.4478    5.2957    5.7162 C   0  0  0  0  0  0  0  0  0  0  0  0
    6.5547    5.6838    6.5615 O   0  0  0  0  0  0  0  0  0  0  0  0
    4.3739    6.3430    5.2380 C   0  0  0  0  0  0  0  0  0  0  0  0
    0.4503    4.8236    8.7648 C   0  0  0  0  0  0  0  0  0  0  0  0
    0.5192    4.4812    7.2555 C   0  0  0  0  0  0  0  0  0  0  0  0
    1.3282    0.7562   -0.1011 H   0  0  0  0  0  0  0  0  0  0  0  0
    0.9238   -0.7107   -0.9474 H   0  0  0  0  0  0  0  0  0  0  0  0
    2.4551   -0.4293   -0.0216 H   0  0  0  0  0  0  0  0  0  0  0  0
   -0.4197   -0.8278    1.1225 H   0  0  0  0  0  0  0  0  0  0  0  0
    0.9592   -1.8731    1.3463 H   0  0  0  0  0  0  0  0  0  0  0  0
    0.8640    4.3285    1.3111 H   0  0  0  0  0  0  0  0  0  0  0  0
   -0.8223    4.1000    1.9247 H   0  0  0  0  0  0  0  0  0  0  0  0
    0.5429    3.9929    2.9432 H   0  0  0  0  0  0  0  0  0  0  0  0
   -3.9311    0.7682   -0.8319 H   0  0  0  0  0  0  0  0  0  0  0  0
   -5.5797   -0.8244   -1.8080 H   0  0  0  0  0  0  0  0  0  0  0  0
   -2.3555   -3.1824   -3.3369 H   0  0  0  0  0  0  0  0  0  0  0  0
   -0.8296   -1.2406   -3.0785 H   0  0  0  0  0  0  0  0  0  0  0  0
    1.0111    3.6575    4.5297 H   0  0  0  0  0  0  0  0  0  0  0  0
    2.5605    1.1940    7.5367 H   0  0  0  0  0  0  0  0  0  0  0  0
    1.8469   -1.8113    6.4286 H   0  0  0  0  0  0  0  0  0  0  0  0
    3.5114   -1.5133    5.8351 H   0  0  0  0  0  0  0  0  0  0  0  0
    3.0048   -0.9335    7.4234 H   0  0  0  0  0  0  0  0  0  0  0  0
    3.5418    2.9837    7.8690 H   0  0  0  0  0  0  0  0  0  0  0  0
    2.8451    4.5760    7.6129 H   0  0  0  0  0  0  0  0  0  0  0  0
    2.5846    3.4787   10.0978 H   0  0  0  0  0  0  0  0  0  0  0  0
    3.7038    4.7271    9.5655 H   0  0  0  0  0  0  0  0  0  0  0  0
    1.3812    7.3521    8.8981 H   0  0  0  0  0  0  0  0  0  0  0  0
    3.0475    7.0507    9.2658 H   0  0  0  0  0  0  0  0  0  0  0  0
    3.7959    4.0460    5.9886 H   0  0  0  0  0  0  0  0  0  0  0  0
    4.7556    4.4888    7.5140 H   0  0  0  0  0  0  0  0  0  0  0  0
    5.7210    4.4496    5.0658 H   0  0  0  0  0  0  0  0  0  0  0  0
    6.1183    6.0032    7.3787 H   0  0  0  0  0  0  0  0  0  0  0  0
    4.7796    7.3280    5.0507 H   0  0  0  0  0  0  0  0  0  0  0  0
    3.7243    5.9793    4.4278 H   0  0  0  0  0  0  0  0  0  0  0  0
    0.2506    3.8630    9.2700 H   0  0  0  0  0  0  0  0  0  0  0  0
   -0.3858    5.4796    8.9903 H   0  0  0  0  0  0  0  0  0  0  0  0
    0.7345    5.3656    6.6509 H   0  0  0  0  0  0  0  0  0  0  0  0
   -0.4339    4.1130    6.8742 H   0  0  0  0  0  0  0  0  0  0  0  0
  1  2  1  0  0  0  0
  1 43  1  0  0  0  0
  1 44  1  0  0  0  0
  1 45  1  0  0  0  0
  2  3  1  0  0  0  0
  2 46  1  0  0  0  0
  2 47  1  0  0  0  0
  3  4  2  0  0  0  0
  3 28  1  0  0  0  0
  4  5  1  0  0  0  0
  4 21  1  0  0  0  0
  5  6  1  0  0  0  0
  5  7  1  0  0  0  0
  6 48  1  0  0  0  0
  6 49  1  0  0  0  0
  6 50  1  0  0  0  0
  7  8  2  0  0  0  0
  7 11  1  0  0  0  0
  8  9  1  0  0  0  0
  9 10  2  0  0  0  0
  9 14  1  0  0  0  0
 10 11  1  0  0  0  0
 10 12  1  0  0  0  0
 12 13  3  0  0  0  0
 14 15  2  0  0  0  0
 14 20  1  0  0  0  0
 15 16  1  0  0  0  0
 15 51  1  0  0  0  0
 16 17  2  0  0  0  0
 16 52  1  0  0  0  0
 17 18  1  0  0  0  0
 17 19  1  0  0  0  0
 19 20  2  0  0  0  0
 19 53  1  0  0  0  0
 20 54  1  0  0  0  0
 21 22  1  0  0  0  0
 21 27  1  0  0  0  0
 22 23  2  0  0  0  0
 22 55  1  0  0  0  0
 23 24  1  0  0  0  0
 23 29  1  0  0  0  0
 24 25  2  0  0  0  0
 24 56  1  0  0  0  0
 25 26  1  0  0  0  0
 25 27  1  0  0  0  0
 26 57  1  0  0  0  0
 26 58  1  0  0  0  0
 26 59  1  0  0  0  0
 27 28  2  0  0  0  0
 29 30  1  0  0  0  0
 29 42  1  0  0  0  0
 30 31  1  0  0  0  0
 30 60  1  0  0  0  0
 30 61  1  0  0  0  0
 31 32  1  0  0  0  0
 31 62  1  0  0  0  0
 31 63  1  0  0  0  0
 32 33  1  0  0  0  0
 32 41  1  0  0  0  0
 33 34  1  0  0  0  0
 33 64  1  0  0  0  0
 33 65  1  0  0  0  0
 34 35  2  0  0  0  0
 34 36  1  0  0  0  0
 36 37  1  0  0  0  0
 36 40  1  0  0  0  0
 37 38  1  0  0  0  0
 37 66  1  0  0  0  0
 37 67  1  0  0  0  0
 38 39  1  0  0  0  0
 38 40  1  0  0  0  0
 38 68  1  0  0  0  0
 39 69  1  0  0  0  0
 40 70  1  0  0  0  0
 40 71  1  0  0  0  0
 41 42  1  0  0  0  0
 41 72  1  0  0  0  0
 41 73  1  0  0  0  0
 42 74  1  0  0  0  0
 42 75  1  0  0  0  0
M  END
>  <DRUGBANK_ID>
DB15403

>  <COMMON_NAME>
Ziritaxestat

>  <CAS_NUMBER>
1628260-79-6

>  <UNII>
I02418V13W

>  <SYNONYMS>
2-((2-ethyl-6-(4-(2-(3-hydroxyazetidin-1-yl)-2-oxoethyl)-piperazin-1-yl)-8-methylimidazo[1,2-a]pyridin-3-yl)-(methyl)amino)-4-(4-fluorophenyl)-thiazole-5-carbonitrile; Ziritaxestat

$$$$
