
 OpenBabel10282417173D

 43 45  0  0  0  0  0  0  0  0999 V2000
    1.1159    1.2812    0.2370 C   0  0  0  0  0  0  0  0  0  0  0  0
    1.7961    0.0806   -0.2396 N   0  0  0  0  0  0  0  0  0  0  0  0
    1.1395   -1.1751    0.2051 C   0  0  0  0  0  0  0  0  0  0  0  0
   -0.3663   -1.2359   -0.2804 C   0  0  1  0  0  0  0  0  0  0  0  0
   -1.0583   -0.0011    0.3841 C   0  0  1  0  0  0  0  0  0  0  0  0
   -0.3738    1.2807   -0.1244 C   0  0  0  0  0  0  0  0  0  0  0  0
    2.9355    0.0377   -1.0478 C   0  0  0  0  0  0  0  0  0  0  0  0
    3.5440    1.3281   -1.5910 C   0  0  0  0  0  0  0  0  0  0  0  0
    4.9863    1.4098   -1.1182 C   0  0  0  0  0  0  0  0  0  0  0  0
    3.4622   -1.0272   -1.3596 O   0  0  0  0  0  0  0  0  0  0  0  0
    6.1827    1.4775   -0.7259 N   0  0  0  0  0  0  0  0  0  0  0  0
   -2.5839    0.0207    0.3043 C   0  0  0  0  0  0  0  0  0  0  0  0
   -0.4675   -1.2632   -1.7794 N   0  0  0  0  0  0  0  0  0  0  0  0
    0.6342   -1.6981   -2.6116 C   0  0  0  0  0  0  0  0  0  0  0  0
   -1.6655   -1.1244   -2.4734 C   0  0  0  0  0  0  0  0  0  0  0  0
   -2.2149    0.1164   -2.6032 N   0  0  0  0  0  0  0  0  0  0  0  0
   -3.5131    0.2254   -2.9694 C   0  0  0  0  0  0  0  0  0  0  0  0
   -4.3255   -0.7389   -3.4172 N   0  0  0  0  0  0  0  0  0  0  0  0
   -3.6550   -1.8910   -3.5437 C   0  0  0  0  0  0  0  0  0  0  0  0
   -2.3605   -2.1679   -3.1208 C   0  0  0  0  0  0  0  0  0  0  0  0
   -4.1646   -3.0081   -4.1412 N   0  0  0  0  0  0  0  0  0  0  0  0
   -3.2070   -3.9862   -4.1755 C   0  0  0  0  0  0  0  0  0  0  0  0
   -2.1061   -3.5185   -3.4897 C   0  0  0  0  0  0  0  0  0  0  0  0
    1.2392    1.2945    1.3263 H   0  0  0  0  0  0  0  0  0  0  0  0
    1.5644    2.1948   -0.1398 H   0  0  0  0  0  0  0  0  0  0  0  0
    1.1846   -1.1850    1.3040 H   0  0  0  0  0  0  0  0  0  0  0  0
    1.6958   -2.0674   -0.0993 H   0  0  0  0  0  0  0  0  0  0  0  0
   -0.8129   -2.1504    0.1354 H   0  0  0  0  0  0  0  0  0  0  0  0
   -0.8681   -0.0488    1.4680 H   0  0  0  0  0  0  0  0  0  0  0  0
   -0.4645    1.3627   -1.2124 H   0  0  0  0  0  0  0  0  0  0  0  0
   -0.8463    2.1697    0.3032 H   0  0  0  0  0  0  0  0  0  0  0  0
    3.5013    1.3098   -2.6847 H   0  0  0  0  0  0  0  0  0  0  0  0
    3.0461    2.2362   -1.2671 H   0  0  0  0  0  0  0  0  0  0  0  0
   -3.0299   -0.8762    0.7407 H   0  0  0  0  0  0  0  0  0  0  0  0
   -3.0163    0.9212    0.7463 H   0  0  0  0  0  0  0  0  0  0  0  0
   -2.9652    0.0340   -0.6897 H   0  0  0  0  0  0  0  0  0  0  0  0
    0.4181   -2.5922   -3.1932 H   0  0  0  0  0  0  0  0  0  0  0  0
    0.9164   -0.8793   -3.2794 H   0  0  0  0  0  0  0  0  0  0  0  0
    1.5132   -1.9804   -2.0492 H   0  0  0  0  0  0  0  0  0  0  0  0
   -3.9770    1.1889   -2.7744 H   0  0  0  0  0  0  0  0  0  0  0  0
   -5.0887   -3.0510   -4.5456 H   0  0  0  0  0  0  0  0  0  0  0  0
   -3.3868   -4.9240   -4.6815 H   0  0  0  0  0  0  0  0  0  0  0  0
   -1.1836   -4.0622   -3.3440 H   0  0  0  0  0  0  0  0  0  0  0  0
  1  2  1  0  0  0  0
  1  6  1  0  0  0  0
  1 24  1  0  0  0  0
  1 25  1  0  0  0  0
  2  3  1  0  0  0  0
  2  7  1  0  0  0  0
  3  4  1  0  0  0  0
  3 26  1  0  0  0  0
  3 27  1  0  0  0  0
  4  5  1  0  0  0  0
  4 28  1  1  0  0  0
  4 13  1  0  0  0  0
  5  6  1  0  0  0  0
  5 12  1  0  0  0  0
  5 29  1  1  0  0  0
  6 30  1  0  0  0  0
  6 31  1  0  0  0  0
  7  8  1  0  0  0  0
  7 10  2  0  0  0  0
  8  9  1  0  0  0  0
  8 32  1  0  0  0  0
  8 33  1  0  0  0  0
  9 11  3  0  0  0  0
 12 34  1  0  0  0  0
 12 35  1  0  0  0  0
 12 36  1  0  0  0  0
 13 14  1  0  0  0  0
 13 15  1  0  0  0  0
 14 37  1  0  0  0  0
 14 38  1  0  0  0  0
 14 39  1  0  0  0  0
 15 16  2  0  0  0  0
 15 20  1  0  0  0  0
 16 17  1  0  0  0  0
 17 18  2  0  0  0  0
 17 40  1  0  0  0  0
 18 19  1  0  0  0  0
 19 20  2  0  0  0  0
 19 21  1  0  0  0  0
 20 23  1  0  0  0  0
 21 22  1  0  0  0  0
 21 41  1  0  0  0  0
 22 23  2  0  0  0  0
 22 42  1  0  0  0  0
 23 43  1  0  0  0  0
M  END
>  <DRUGBANK_ID>
DB08895

>  <SECONDARY_ACCESSION_NUMBERS>
DB08183

>  <COMMON_NAME>
Tofacitinib

>  <CAS_NUMBER>
477600-75-2

>  <UNII>
87LA6FU830

>  <SYNONYMS>
Tasocitinib; Tofacitinib; Tofacitinibum

$$$$
