
 OpenBabel10282417123D

 12 12  0  0  0  0  0  0  0  0999 V2000
    0.8034    0.1545   -0.1343 N   0  0  0  0  0  0  0  0  0  0  0  0
    0.2128    1.2221    0.5522 C   0  0  0  0  0  0  0  0  0  0  0  0
    0.6455    2.5303    0.3295 C   0  0  0  0  0  0  0  0  0  0  0  0
    0.0853    3.6208    0.9129 N   0  0  0  0  0  0  0  0  0  0  0  0
   -0.9430    3.3402    1.7439 C   0  0  0  0  0  0  0  0  0  0  0  0
   -1.3637    2.0432    1.9839 C   0  0  0  0  0  0  0  0  0  0  0  0
   -2.6420    1.7162    3.0786 Cl  0  0  0  0  0  0  0  0  0  0  0  0
   -0.8037    0.9553    1.3933 N   0  0  0  0  0  0  0  0  0  0  0  0
    0.3406   -0.7135    0.1138 H   0  0  0  0  0  0  0  0  0  0  0  0
    1.8032    0.1094    0.0363 H   0  0  0  0  0  0  0  0  0  0  0  0
    1.4550    2.7355   -0.3632 H   0  0  0  0  0  0  0  0  0  0  0  0
   -1.4211    4.1964    2.2096 H   0  0  0  0  0  0  0  0  0  0  0  0
  1  2  1  0  0  0  0
  1  9  1  0  0  0  0
  1 10  1  0  0  0  0
  2  3  2  0  0  0  0
  2  8  1  0  0  0  0
  3  4  1  0  0  0  0
  3 11  1  0  0  0  0
  4  5  2  0  0  0  0
  5  6  1  0  0  0  0
  5 12  1  0  0  0  0
  6  7  1  0  0  0  0
  6  8  2  0  0  0  0
M  END
>  <DRUGBANK_ID>
DB02297

>  <SECONDARY_ACCESSION_NUMBERS>
EXPT00917

>  <COMMON_NAME>
2-Amino-6-Chloropyrazine

>  <UNII>
CVL0CMW8XR

$$$$
