
 OpenBabel10282417233D

 40 41  0  0  1  0  0  0  0  0999 V2000
    3.7513   11.8582    4.4938 C   0  0  0  0  0  0  0  0  0  0  0  0
    2.6241   11.1098    5.2301 C   0  0  1  0  0  0  0  0  0  0  0  0
    1.3502   11.2112    4.4506 N   0  0  0  0  0  0  0  0  0  0  0  0
    0.7439   10.0545    3.9934 C   0  0  0  0  0  0  0  0  0  0  0  0
    0.5078    9.1102    4.8827 N   0  0  0  0  0  0  0  0  0  0  0  0
   -0.0218    7.9796    4.4292 C   0  0  0  0  0  0  0  0  0  0  0  0
   -0.4119    7.7905    3.1746 N   0  0  0  0  0  0  0  0  0  0  0  0
   -0.1875    8.8059    2.3606 C   0  0  0  0  0  0  0  0  0  0  0  0
   -0.5587    8.6628    1.0468 N   0  0  0  0  0  0  0  0  0  0  0  0
   -1.2928    7.4806    0.5647 C   0  0  2  0  0  0  0  0  0  0  0  0
   -0.3389    6.2950    0.3947 C   0  0  0  0  0  0  0  0  0  0  0  0
   -2.0125    7.7496   -0.7708 C   0  0  0  0  0  0  0  0  0  0  0  0
   -2.7236    6.6742   -1.1809 F   0  0  0  0  0  0  0  0  0  0  0  0
   -2.8776    8.7853   -0.6637 F   0  0  0  0  0  0  0  0  0  0  0  0
   -1.1322    8.0590   -1.7516 F   0  0  0  0  0  0  0  0  0  0  0  0
    0.3790    9.9605    2.7176 N   0  0  0  0  0  0  0  0  0  0  0  0
   -0.2322    6.8894    5.3992 C   0  0  0  0  0  0  0  0  0  0  0  0
   -0.9211    7.1225    6.5938 C   0  0  0  0  0  0  0  0  0  0  0  0
   -1.1227    6.0730    7.4880 C   0  0  0  0  0  0  0  0  0  0  0  0
   -0.6103    4.8195    7.1847 C   0  0  0  0  0  0  0  0  0  0  0  0
    0.0768    4.6759    5.9917 C   0  0  0  0  0  0  0  0  0  0  0  0
    0.7599    3.1612    5.5621 Cl  0  0  0  0  0  0  0  0  0  0  0  0
    0.2686    5.6609    5.0897 N   0  0  0  0  0  0  0  0  0  0  0  0
    3.1608    9.6970    5.5992 C   0  0  0  0  0  0  0  0  0  0  0  0
    4.3533    9.7941    6.2431 F   0  0  0  0  0  0  0  0  0  0  0  0
    2.3521    9.0231    6.4435 F   0  0  0  0  0  0  0  0  0  0  0  0
    3.3747    8.9430    4.4956 F   0  0  0  0  0  0  0  0  0  0  0  0
    3.9885   11.3885    3.5332 H   0  0  0  0  0  0  0  0  0  0  0  0
    4.6713   11.8588    5.0942 H   0  0  0  0  0  0  0  0  0  0  0  0
    3.4939   12.9056    4.3064 H   0  0  0  0  0  0  0  0  0  0  0  0
    2.4460   11.6475    6.1691 H   0  0  0  0  0  0  0  0  0  0  0  0
    1.2548   11.9903    3.8127 H   0  0  0  0  0  0  0  0  0  0  0  0
   -0.3068    9.4138    0.4224 H   0  0  0  0  0  0  0  0  0  0  0  0
   -2.0746    7.2088    1.2869 H   0  0  0  0  0  0  0  0  0  0  0  0
   -0.8107    5.4801   -0.1652 H   0  0  0  0  0  0  0  0  0  0  0  0
    0.5718    6.5915   -0.1357 H   0  0  0  0  0  0  0  0  0  0  0  0
   -0.0395    5.8847    1.3648 H   0  0  0  0  0  0  0  0  0  0  0  0
   -1.3078    8.1129    6.8163 H   0  0  0  0  0  0  0  0  0  0  0  0
   -1.6729    6.2356    8.4105 H   0  0  0  0  0  0  0  0  0  0  0  0
   -0.7445    3.9828    7.8611 H   0  0  0  0  0  0  0  0  0  0  0  0
  1 28  1  0  0  0  0
  1 29  1  0  0  0  0
  1 30  1  0  0  0  0
  2  1  1  0  0  0  0
  2  3  1  0  0  0  0
  2 24  1  0  0  0  0
  2 31  1  1  0  0  0
  3  4  1  0  0  0  0
  3 32  1  0  0  0  0
  4  5  2  0  0  0  0
  4 16  1  0  0  0  0
  5  6  1  0  0  0  0
  6  7  2  0  0  0  0
  6 17  1  0  0  0  0
  7  8  1  0  0  0  0
  8  9  1  0  0  0  0
  8 16  2  0  0  0  0
  9 33  1  0  0  0  0
 10 12  1  0  0  0  0
 10 34  1  1  0  0  0
 10 11  1  0  0  0  0
 10  9  1  0  0  0  0
 11 35  1  0  0  0  0
 11 36  1  0  0  0  0
 11 37  1  0  0  0  0
 12 13  1  0  0  0  0
 12 14  1  0  0  0  0
 12 15  1  0  0  0  0
 17 18  2  0  0  0  0
 17 23  1  0  0  0  0
 18 19  1  0  0  0  0
 18 38  1  0  0  0  0
 19 20  2  0  0  0  0
 19 39  1  0  0  0  0
 20 21  1  0  0  0  0
 20 40  1  0  0  0  0
 21 22  1  0  0  0  0
 21 23  2  0  0  0  0
 24 25  1  0  0  0  0
 24 26  1  0  0  0  0
 24 27  1  0  0  0  0
M  END
>  <DRUGBANK_ID>
DB17097

>  <COMMON_NAME>
Vorasidenib

>  <CAS_NUMBER>
1644545-52-7

>  <UNII>
789Q85GA8P

>  <SYNONYMS>
1,3,5-triazine-2,4-diamine, 6-(6-chloro-2-pyridinyl)-n2,n4-bis((1r)-2,2,2-trifluoro-1-methylethyl)-; Vorasidenib

$$$$
