
 OpenBabel10282417173D

 33 34  0  0  0  0  0  0  0  0999 V2000
   -0.5479   -0.0320   -1.1533 S   0  0  0  0  0  0  0  0  0  0  0  0
   -1.3576   -4.2897   -0.0197 O   0  0  0  0  0  0  0  0  0  0  0  0
   -0.0369   -2.4858   -0.1173 N   0  0  0  0  0  0  0  0  0  0  0  0
    1.5056   -0.6836    0.1395 N   0  0  0  0  0  0  0  0  0  0  0  0
   -3.1949   -1.3722    3.7039 N   0  0  0  0  0  0  0  0  0  0  0  0
   -0.2964    2.6959   -0.1544 C   0  0  0  0  0  0  0  0  0  0  0  0
    0.2057    1.2513   -0.2352 C   0  0  0  0  0  0  0  0  0  0  0  0
   -1.1768    3.0719   -1.3374 C   0  0  0  0  0  0  0  0  0  0  0  0
   -1.0667    3.1127    1.1100 C   0  0  0  0  0  0  0  0  0  0  0  0
    1.4465    0.7108    0.0807 C   0  0  0  0  0  0  0  0  0  0  0  0
    0.3453   -1.1694   -0.2369 C   0  0  0  0  0  0  0  0  0  0  0  0
   -2.5763   -2.2298    0.0400 C   0  0  0  0  0  0  0  0  0  0  0  0
   -1.2829   -3.0399   -0.0467 C   0  0  0  0  0  0  0  0  0  0  0  0
   -2.7258   -1.4391    1.3186 C   0  0  0  0  0  0  0  0  0  0  0  0
   -2.4000   -0.0947    1.4086 C   0  0  0  0  0  0  0  0  0  0  0  0
   -3.1463   -2.0147    2.5062 C   0  0  0  0  0  0  0  0  0  0  0  0
   -2.2466    0.5220    2.6395 C   0  0  0  0  0  0  0  0  0  0  0  0
   -2.7073   -0.1234    3.7487 C   0  0  0  0  0  0  0  0  0  0  0  0
    0.7169   -3.1326    0.0850 H   0  0  0  0  0  0  0  0  0  0  0  0
    0.5969    3.3298   -0.1582 H   0  0  0  0  0  0  0  0  0  0  0  0
   -2.1145    2.5013   -1.3328 H   0  0  0  0  0  0  0  0  0  0  0  0
   -1.4443    4.1325   -1.2941 H   0  0  0  0  0  0  0  0  0  0  0  0
   -0.6528    2.8813   -2.2749 H   0  0  0  0  0  0  0  0  0  0  0  0
   -0.5141    2.8948    2.0292 H   0  0  0  0  0  0  0  0  0  0  0  0
   -1.2678    4.1929    1.1253 H   0  0  0  0  0  0  0  0  0  0  0  0
   -2.0676    2.6699    1.1399 H   0  0  0  0  0  0  0  0  0  0  0  0
    2.3297    1.2918    0.3130 H   0  0  0  0  0  0  0  0  0  0  0  0
   -2.6855   -1.6254   -0.8635 H   0  0  0  0  0  0  0  0  0  0  0  0
   -3.4178   -2.9345   -0.0177 H   0  0  0  0  0  0  0  0  0  0  0  0
   -2.2627    0.5040    0.5238 H   0  0  0  0  0  0  0  0  0  0  0  0
   -3.4905   -3.0420    2.5392 H   0  0  0  0  0  0  0  0  0  0  0  0
   -1.8128    1.4972    2.7616 H   0  0  0  0  0  0  0  0  0  0  0  0
   -2.7126    0.3980    4.6991 H   0  0  0  0  0  0  0  0  0  0  0  0
  1  7  1  0  0  0  0
  1 11  1  0  0  0  0
  2 13  2  0  0  0  0
  3 11  1  0  0  0  0
  3 13  1  0  0  0  0
  3 19  1  0  0  0  0
  4 10  1  0  0  0  0
  4 11  2  0  0  0  0
  5 16  1  0  0  0  0
  5 18  2  0  0  0  0
  6  7  1  0  0  0  0
  6  8  1  0  0  0  0
  6  9  1  0  0  0  0
  6 20  1  0  0  0  0
  7 10  2  0  0  0  0
  8 21  1  0  0  0  0
  8 22  1  0  0  0  0
  8 23  1  0  0  0  0
  9 24  1  0  0  0  0
  9 25  1  0  0  0  0
  9 26  1  0  0  0  0
 10 27  1  0  0  0  0
 12 13  1  0  0  0  0
 12 14  1  0  0  0  0
 12 28  1  0  0  0  0
 12 29  1  0  0  0  0
 14 15  1  0  0  0  0
 14 16  2  0  0  0  0
 15 17  2  0  0  0  0
 15 30  1  0  0  0  0
 16 31  1  0  0  0  0
 17 18  1  0  0  0  0
 17 32  1  0  0  0  0
 18 33  1  0  0  0  0
M  END
>  <DRUGBANK_ID>
DB08677

>  <COMMON_NAME>
N-(5-Isopropyl-thiazol-2-YL)-2-pyridin-3-YL-acetamide

$$$$
