
 OpenBabel10282417133D

 41 42  0  0  1  0  0  0  0  0999 V2000
    1.1430   -0.8408   -0.3601 C   0  0  2  0  0  0  0  0  0  0  0  0
    2.3738   -1.6131   -0.2241 N   0  0  0  0  0  0  0  0  0  0  0  0
    1.3612    0.5569   -0.1641 O   0  0  0  0  0  0  0  0  0  0  0  0
   -0.0173   -1.2696    0.5260 C   0  0  0  0  0  0  0  0  0  0  0  0
    3.0880   -1.6701    0.9715 C   0  0  0  0  0  0  0  0  0  0  0  0
    2.6745   -2.4527   -1.2737 C   0  0  0  0  0  0  0  0  0  0  0  0
    0.1685    1.0917    0.4455 C   0  0  1  0  0  0  0  0  0  0  0  0
   -0.8651   -0.0232    0.5320 C   0  0  1  0  0  0  0  0  0  0  0  0
    4.1421   -2.5645    0.9753 N   0  0  0  0  0  0  0  0  0  0  0  0
    2.8152   -1.0240    1.9784 O   0  0  0  0  0  0  0  0  0  0  0  0
    3.5422   -3.4619   -1.1718 C   0  0  0  0  0  0  0  0  0  0  0  0
    0.5537    1.6135    1.8269 C   0  0  0  0  0  0  0  0  0  0  0  0
   -1.7284   -0.0146   -0.6050 O   0  0  0  0  0  0  0  0  0  0  0  0
    4.3197   -3.5749    0.0743 C   0  0  0  0  0  0  0  0  0  0  0  0
    3.6818   -4.4987   -2.2305 C   0  0  0  0  0  0  0  0  0  0  0  0
    0.0099    2.9214    2.0023 O   0  0  0  0  0  0  0  0  0  0  0  0
    5.0727   -4.5291    0.2831 O   0  0  0  0  0  0  0  0  0  0  0  0
    0.6226    4.0370    0.8306 P   0  0  3  0  0  0  0  0  0  0  0  0
   -0.5231    5.0377    1.4059 O   0  0  0  0  0  0  0  0  0  0  0  0
    1.7806    4.3436    1.9531 O   0  0  0  0  0  0  0  0  0  0  0  0
    1.1710    5.0355   -0.2181 O   0  0  0  0  0  0  0  0  0  0  0  0
   -1.7934    5.4308    0.5382 P   0  0  0  0  0  0  0  0  0  0  0  0
   -2.3585    6.6682    1.3760 O   0  0  0  0  0  0  0  0  0  0  0  0
   -1.1588    6.1087   -0.7577 O   0  0  0  0  0  0  0  0  0  0  0  0
   -2.7855    4.3482    0.2900 O   0  0  0  0  0  0  0  0  0  0  0  0
    0.8062   -0.9198   -1.4013 H   0  0  0  0  0  0  0  0  0  0  0  0
    0.3130   -1.5041    1.5421 H   0  0  0  0  0  0  0  0  0  0  0  0
   -0.5357   -2.1399    0.1139 H   0  0  0  0  0  0  0  0  0  0  0  0
    2.1107   -2.3134   -2.1907 H   0  0  0  0  0  0  0  0  0  0  0  0
   -0.1923    1.8860   -0.2161 H   0  0  0  0  0  0  0  0  0  0  0  0
   -1.5072    0.0616    1.4131 H   0  0  0  0  0  0  0  0  0  0  0  0
    4.6660   -2.6463    1.8345 H   0  0  0  0  0  0  0  0  0  0  0  0
    0.1775    0.9818    2.6364 H   0  0  0  0  0  0  0  0  0  0  0  0
    1.6423    1.6533    1.9416 H   0  0  0  0  0  0  0  0  0  0  0  0
   -1.2164    0.0747   -1.4260 H   0  0  0  0  0  0  0  0  0  0  0  0
    4.7070   -4.5462   -2.6021 H   0  0  0  0  0  0  0  0  0  0  0  0
    3.3914   -5.4781   -1.8357 H   0  0  0  0  0  0  0  0  0  0  0  0
    3.0206   -4.2879   -3.0798 H   0  0  0  0  0  0  0  0  0  0  0  0
    2.2625    3.5464    2.2310 H   0  0  0  0  0  0  0  0  0  0  0  0
   -2.8879    6.3546    2.1305 H   0  0  0  0  0  0  0  0  0  0  0  0
   -0.1898    5.9306   -0.8284 H   0  0  0  0  0  0  0  0  0  0  0  0
  1  3  1  0  0  0  0
  1  4  1  0  0  0  0
  1 26  1  6  0  0  0
  1  2  1  0  0  0  0
  2  5  1  0  0  0  0
  2  6  1  0  0  0  0
  3  7  1  0  0  0  0
  4  8  1  0  0  0  0
  4 27  1  0  0  0  0
  4 28  1  0  0  0  0
  5  9  1  0  0  0  0
  5 10  2  0  0  0  0
  6 11  2  0  0  0  0
  6 29  1  0  0  0  0
  7  8  1  0  0  0  0
  7 30  1  6  0  0  0
  7 12  1  0  0  0  0
  8 13  1  0  0  0  0
  8 31  1  1  0  0  0
  9 14  1  0  0  0  0
  9 32  1  0  0  0  0
 11 15  1  0  0  0  0
 11 14  1  0  0  0  0
 12 16  1  0  0  0  0
 12 33  1  0  0  0  0
 12 34  1  0  0  0  0
 13 35  1  0  0  0  0
 14 17  2  0  0  0  0
 15 36  1  0  0  0  0
 15 37  1  0  0  0  0
 15 38  1  0  0  0  0
 16 18  1  0  0  0  0
 18 19  1  0  0  0  0
 18 20  1  0  0  0  0
 18 21  2  0  0  0  0
 19 22  1  0  0  0  0
 20 39  1  0  0  0  0
 22 23  1  0  0  0  0
 22 24  1  0  0  0  0
 22 25  2  0  0  0  0
 23 40  1  0  0  0  0
 24 41  1  0  0  0  0
M  END
>  <DRUGBANK_ID>
DB03103

>  <SECONDARY_ACCESSION_NUMBERS>
EXPT03136

>  <COMMON_NAME>
Thymidine-5'- Diphosphate

>  <UNII>
QQ3K1P45DF

$$$$
