
 OpenBabel10282417123D

 87 90  0  0  1  0  0  0  0  0999 V2000
    1.2626   -0.7481   -2.4513 C   0  0  0  0  0  0  0  0  0  0  0  0
   -2.8339    5.5166    9.5047 C   0  0  0  0  0  0  0  0  0  0  0  0
   -5.6769   -1.4334    0.1704 C   0  0  0  0  0  0  0  0  0  0  0  0
   -5.6405   -1.0304    7.5697 C   0  0  0  0  0  0  0  0  0  0  0  0
    0.5775   -1.0852   -1.1282 C   0  0  2  0  0  0  0  0  0  0  0  0
   -4.3485    5.8050    9.5387 C   0  0  2  0  0  0  0  0  0  0  0  0
   -4.9884   -0.5440    1.2057 C   0  0  2  0  0  0  0  0  0  0  0  0
   -5.8265    0.4289    7.1415 C   0  0  2  0  0  0  0  0  0  0  0  0
    0.8903   -2.5425   -0.7534 C   0  0  2  0  0  0  0  0  0  0  0  0
    0.2190   -2.9034    0.5593 C   0  0  1  0  0  0  0  0  0  0  0  0
   -6.5407    5.2548    8.3536 C   0  0  2  0  0  0  0  0  0  0  0  0
   -2.7998   -0.0992    2.3831 C   0  0  2  0  0  0  0  0  0  0  0  0
   -5.1764    2.1167    5.3646 C   0  0  2  0  0  0  0  0  0  0  0  0
   -6.6911    6.7370    8.0540 C   0  0  2  0  0  0  0  0  0  0  0  0
   -1.2620   -2.5640    0.5220 C   0  0  2  0  0  0  0  0  0  0  0  0
   -4.6228    2.9738    6.4595 C   0  0  2  0  0  0  0  0  0  0  0  0
   -3.5215   -0.3122    3.6810 C   0  0  2  0  0  0  0  0  0  0  0  0
   -5.0549    4.8910    8.5417 C   0  0  2  0  0  0  0  0  0  0  0  0
   -3.4927   -0.8737    1.2604 C   0  0  2  0  0  0  0  0  0  0  0  0
   -5.1742    0.6437    5.7773 C   0  0  2  0  0  0  0  0  0  0  0  0
   -5.8972    7.5632    9.0740 C   0  0  2  0  0  0  0  0  0  0  0  0
   -1.4516   -1.0796    0.0576 C   0  0  1  0  0  0  0  0  0  0  0  0
   -5.3362    2.6531    7.7929 C   0  0  1  0  0  0  0  0  0  0  0  0
   -5.0329   -0.0080    3.5088 C   0  0  1  0  0  0  0  0  0  0  0  0
    2.6786   -0.7008   -2.2840 O   0  0  0  0  0  0  0  0  0  0  0  0
   -2.1444    6.4108   10.3732 O   0  0  0  0  0  0  0  0  0  0  0  0
   -7.0726   -1.1443    0.1390 O   0  0  0  0  0  0  0  0  0  0  0  0
   -6.2336   -1.2363    8.8480 O   0  0  0  0  0  0  0  0  0  0  0  0
    2.3019   -2.7588   -0.6693 O   0  0  0  0  0  0  0  0  0  0  0  0
    0.3922   -4.2951    0.8527 O   0  0  0  0  0  0  0  0  0  0  0  0
   -7.1576    4.5442    7.2437 O   0  0  0  0  0  0  0  0  0  0  0  0
   -1.4277   -0.5029    2.6502 O   0  0  0  0  0  0  0  0  0  0  0  0
   -4.3456    2.4255    4.2080 O   0  0  0  0  0  0  0  0  0  0  0  0
   -8.0861    7.0560    8.0147 O   0  0  0  0  0  0  0  0  0  0  0  0
   -1.7703   -2.9407    1.8151 O   0  0  0  0  0  0  0  0  0  0  0  0
   -4.7060    4.2997    5.8825 O   0  0  0  0  0  0  0  0  0  0  0  0
   -2.7154    0.4439    4.6165 O   0  0  0  0  0  0  0  0  0  0  0  0
   -5.9441    8.9357    8.7227 O   0  0  0  0  0  0  0  0  0  0  0  0
   -4.5296    7.1763    9.1255 O   0  0  0  0  0  0  0  0  0  0  0  0
   -0.8436   -0.9088   -1.2343 O   0  0  0  0  0  0  0  0  0  0  0  0
   -5.1443    1.2660    8.1187 O   0  0  0  0  0  0  0  0  0  0  0  0
   -5.5859   -0.8556    2.4945 O   0  0  0  0  0  0  0  0  0  0  0  0
   -4.8556    3.5024    8.8414 O   0  0  0  0  0  0  0  0  0  0  0  0
   -2.8340   -0.6918    0.0036 O   0  0  0  0  0  0  0  0  0  0  0  0
   -5.7313   -0.1818    4.7498 O   0  0  0  0  0  0  0  0  0  0  0  0
    0.9856   -0.4072   -0.3616 H   0  0  0  0  0  0  0  0  0  0  0  0
   -4.7247    5.6819   10.5587 H   0  0  0  0  0  0  0  0  0  0  0  0
   -5.1768    0.5100    0.9598 H   0  0  0  0  0  0  0  0  0  0  0  0
   -6.8969    0.6696    7.1337 H   0  0  0  0  0  0  0  0  0  0  0  0
    0.4987   -3.2113   -1.5290 H   0  0  0  0  0  0  0  0  0  0  0  0
    0.7003   -2.3724    1.3916 H   0  0  0  0  0  0  0  0  0  0  0  0
   -7.0965    4.9636    9.2504 H   0  0  0  0  0  0  0  0  0  0  0  0
   -2.7493    0.9680    2.1227 H   0  0  0  0  0  0  0  0  0  0  0  0
   -6.1982    2.4190    5.0934 H   0  0  0  0  0  0  0  0  0  0  0  0
   -6.3203    6.9336    7.0397 H   0  0  0  0  0  0  0  0  0  0  0  0
   -1.7988   -3.2015   -0.1888 H   0  0  0  0  0  0  0  0  0  0  0  0
   -3.5496    2.7886    6.5881 H   0  0  0  0  0  0  0  0  0  0  0  0
   -3.4241   -1.3515    4.0170 H   0  0  0  0  0  0  0  0  0  0  0  0
   -4.5209    5.1522    7.6386 H   0  0  0  0  0  0  0  0  0  0  0  0
   -3.5113   -1.9301    1.5069 H   0  0  0  0  0  0  0  0  0  0  0  0
   -4.1587    0.3309    5.9902 H   0  0  0  0  0  0  0  0  0  0  0  0
   -6.3419    7.4645   10.0679 H   0  0  0  0  0  0  0  0  0  0  0  0
   -0.9284   -0.3504    0.6754 H   0  0  0  0  0  0  0  0  0  0  0  0
   -6.4151    2.7320    7.7496 H   0  0  0  0  0  0  0  0  0  0  0  0
   -5.2568    0.9842    3.1258 H   0  0  0  0  0  0  0  0  0  0  0  0
    0.9253    0.2194   -2.8314 H   0  0  0  0  0  0  0  0  0  0  0  0
    1.0240   -1.5024   -3.2080 H   0  0  0  0  0  0  0  0  0  0  0  0
   -2.6096    4.4909    9.8123 H   0  0  0  0  0  0  0  0  0  0  0  0
   -2.4220    5.6679    8.4983 H   0  0  0  0  0  0  0  0  0  0  0  0
   -5.2643   -1.2768   -0.8297 H   0  0  0  0  0  0  0  0  0  0  0  0
   -5.5672   -2.4901    0.4383 H   0  0  0  0  0  0  0  0  0  0  0  0
   -6.1008   -1.7197    6.8555 H   0  0  0  0  0  0  0  0  0  0  0  0
   -4.5763   -1.2779    7.6582 H   0  0  0  0  0  0  0  0  0  0  0  0
    2.9438   -1.5831   -1.9432 H   0  0  0  0  0  0  0  0  0  0  0  0
   -2.4018    7.3071   10.0844 H   0  0  0  0  0  0  0  0  0  0  0  0
   -7.3798   -1.2545    1.0596 H   0  0  0  0  0  0  0  0  0  0  0  0
   -5.8275   -0.5682    9.4329 H   0  0  0  0  0  0  0  0  0  0  0  0
    2.6189   -2.3583    0.1621 H   0  0  0  0  0  0  0  0  0  0  0  0
   -0.2097   -4.7974    0.2735 H   0  0  0  0  0  0  0  0  0  0  0  0
   -7.4090    5.1585    6.5597 H   0  0  0  0  0  0  0  0  0  0  0  0
   -1.3873   -0.7804    3.5895 H   0  0  0  0  0  0  0  0  0  0  0  0
   -3.7424    3.1560    4.4625 H   0  0  0  0  0  0  0  0  0  0  0  0
   -8.4784    6.8282    8.8794 H   0  0  0  0  0  0  0  0  0  0  0  0
   -1.1673   -2.5620    2.4811 H   0  0  0  0  0  0  0  0  0  0  0  0
   -5.6229    4.4383    5.5980 H   0  0  0  0  0  0  0  0  0  0  0  0
   -2.6392    1.3493    4.2546 H   0  0  0  0  0  0  0  0  0  0  0  0
   -5.7423    8.9901    7.7752 H   0  0  0  0  0  0  0  0  0  0  0  0
  1 66  1  0  0  0  0
  1 67  1  0  0  0  0
  2 68  1  0  0  0  0
  2 69  1  0  0  0  0
  3 70  1  0  0  0  0
  3 71  1  0  0  0  0
  4 72  1  0  0  0  0
  4 73  1  0  0  0  0
  5 46  1  1  0  0  0
  5  1  1  0  0  0  0
  6  2  1  0  0  0  0
  6 47  1  1  0  0  0
  7  3  1  0  0  0  0
  7 48  1  6  0  0  0
  8  4  1  0  0  0  0
  8 49  1  6  0  0  0
  9  5  1  0  0  0  0
  9 29  1  0  0  0  0
  9 50  1  6  0  0  0
 10  9  1  0  0  0  0
 10 30  1  0  0  0  0
 10 51  1  1  0  0  0
 11 31  1  0  0  0  0
 11 52  1  1  0  0  0
 12 32  1  0  0  0  0
 12 53  1  6  0  0  0
 13 33  1  0  0  0  0
 13 54  1  6  0  0  0
 14 11  1  0  0  0  0
 14 34  1  0  0  0  0
 14 55  1  6  0  0  0
 15 10  1  0  0  0  0
 15 35  1  0  0  0  0
 15 56  1  6  0  0  0
 16 13  1  0  0  0  0
 16 36  1  0  0  0  0
 16 57  1  1  0  0  0
 17 12  1  0  0  0  0
 17 37  1  0  0  0  0
 17 58  1  1  0  0  0
 18  6  1  0  0  0  0
 18 11  1  0  0  0  0
 18 43  1  0  0  0  0
 18 59  1  6  0  0  0
 19  7  1  0  0  0  0
 19 12  1  0  0  0  0
 19 44  1  0  0  0  0
 19 60  1  1  0  0  0
 20  8  1  0  0  0  0
 20 13  1  0  0  0  0
 20 45  1  0  0  0  0
 20 61  1  1  0  0  0
 21 14  1  0  0  0  0
 21 38  1  0  0  0  0
 21 62  1  1  0  0  0
 22 15  1  0  0  0  0
 22 44  1  0  0  0  0
 22 63  1  1  0  0  0
 23 16  1  0  0  0  0
 23 43  1  0  0  0  0
 23 64  1  6  0  0  0
 24 17  1  0  0  0  0
 24 45  1  0  0  0  0
 24 65  1  6  0  0  0
 25  1  1  0  0  0  0
 25 74  1  0  0  0  0
 26  2  1  0  0  0  0
 26 75  1  0  0  0  0
 27  3  1  0  0  0  0
 27 76  1  0  0  0  0
 28  4  1  0  0  0  0
 28 77  1  0  0  0  0
 29 78  1  0  0  0  0
 30 79  1  0  0  0  0
 31 80  1  0  0  0  0
 32 81  1  0  0  0  0
 33 82  1  0  0  0  0
 34 83  1  0  0  0  0
 35 84  1  0  0  0  0
 36 85  1  0  0  0  0
 37 86  1  0  0  0  0
 38 87  1  0  0  0  0
 39  6  1  0  0  0  0
 39 21  1  0  0  0  0
 40  5  1  0  0  0  0
 40 22  1  0  0  0  0
 41  8  1  0  0  0  0
 41 23  1  0  0  0  0
 42  7  1  0  0  0  0
 42 24  1  0  0  0  0
M  END
>  <DRUGBANK_ID>
DB02717

>  <SECONDARY_ACCESSION_NUMBERS>
EXPT01056

>  <COMMON_NAME>
Cellotetraose

>  <CAS_NUMBER>
38819-01-1

$$$$
