AUP
 OpenBabel10282417163D

 48 52  0  0  0  0  0  0  0  0999 V2000
    0.1813   -0.7096    0.0573 C   0  0  0  0  0  0  0  0  0  0  0  0
    0.5175    0.7226   -0.0239 C   0  0  0  0  0  0  0  0  0  0  0  0
   -0.6445    1.7035   -0.0518 C   0  0  0  0  0  0  0  0  0  0  0  0
   -2.0221    1.0967    0.3176 C   0  0  0  0  0  0  0  0  0  0  0  0
   -2.2469   -0.2258   -0.3952 C   0  0  0  0  0  0  0  0  0  0  0  0
   -1.2251   -1.2192    0.1085 C   0  0  0  0  0  0  0  0  0  0  0  0
    1.2482   -1.5381    0.0984 C   0  0  0  0  0  0  0  0  0  0  0  0
    2.7835   -0.6314    0.1645 P   0  0  0  0  0  0  0  0  0  0  0  0
    1.8591    0.9558   -0.1068 C   0  0  0  0  0  0  0  0  0  0  0  0
    2.5848    3.0912    0.8206 N   0  0  0  0  0  0  0  0  0  0  0  0
    3.4387    4.1526    0.8024 C   0  0  0  0  0  0  0  0  0  0  0  0
    4.3845    4.3879   -0.1837 C   0  0  0  0  0  0  0  0  0  0  0  0
    4.4860    3.4615   -1.2067 C   0  0  0  0  0  0  0  0  0  0  0  0
    3.6411    2.3491   -1.2006 C   0  0  0  0  0  0  0  0  0  0  0  0
    2.6891    2.1871   -0.1855 C   0  0  0  0  0  0  0  0  0  0  0  0
    5.0473   -1.6872   -3.7106 C   0  0  0  0  0  0  0  0  0  0  0  0
    3.7376   -1.2228   -3.8309 C   0  0  0  0  0  0  0  0  0  0  0  0
    2.9744   -0.9573   -2.6856 C   0  0  0  0  0  0  0  0  0  0  0  0
    3.5249   -1.1445   -1.4099 C   0  0  0  0  0  0  0  0  0  0  0  0
    4.7917   -1.7421   -1.3172 C   0  0  0  0  0  0  0  0  0  0  0  0
    5.5691   -1.9616   -2.4519 C   0  0  0  0  0  0  0  0  0  0  0  0
    1.7744   -3.6107    1.1715 N   0  0  0  0  0  0  0  0  0  0  0  0
    1.2149   -2.9899    0.1072 C   0  0  0  0  0  0  0  0  0  0  0  0
    0.6041   -3.6777   -0.9389 C   0  0  0  0  0  0  0  0  0  0  0  0
    0.5014   -5.0562   -0.8620 C   0  0  0  0  0  0  0  0  0  0  0  0
    1.0601   -5.7112    0.2275 C   0  0  0  0  0  0  0  0  0  0  0  0
    1.6944   -4.9542    1.2005 C   0  0  0  0  0  0  0  0  0  0  0  0
   -0.7362    2.1136   -1.0654 H   0  0  0  0  0  0  0  0  0  0  0  0
   -0.4605    2.5451    0.6254 H   0  0  0  0  0  0  0  0  0  0  0  0
   -2.8351    1.7839    0.0574 H   0  0  0  0  0  0  0  0  0  0  0  0
   -2.0841    0.9329    1.4023 H   0  0  0  0  0  0  0  0  0  0  0  0
   -3.2493   -0.6238   -0.1958 H   0  0  0  0  0  0  0  0  0  0  0  0
   -2.1594   -0.1036   -1.4820 H   0  0  0  0  0  0  0  0  0  0  0  0
   -1.4507   -1.4844    1.1496 H   0  0  0  0  0  0  0  0  0  0  0  0
   -1.3543   -2.1281   -0.4820 H   0  0  0  0  0  0  0  0  0  0  0  0
    3.3441    4.8418    1.6382 H   0  0  0  0  0  0  0  0  0  0  0  0
    5.0243    5.2645   -0.1560 H   0  0  0  0  0  0  0  0  0  0  0  0
    5.2191    3.5907   -1.9992 H   0  0  0  0  0  0  0  0  0  0  0  0
    3.7550    1.6126   -1.9864 H   0  0  0  0  0  0  0  0  0  0  0  0
    5.6596   -1.8449   -4.5944 H   0  0  0  0  0  0  0  0  0  0  0  0
    3.3246   -1.0362   -4.8194 H   0  0  0  0  0  0  0  0  0  0  0  0
    1.9624   -0.5780   -2.8089 H   0  0  0  0  0  0  0  0  0  0  0  0
    5.1938   -2.0203   -0.3440 H   0  0  0  0  0  0  0  0  0  0  0  0
    6.5876   -2.3225   -2.3401 H   0  0  0  0  0  0  0  0  0  0  0  0
    0.1892   -3.1401   -1.7862 H   0  0  0  0  0  0  0  0  0  0  0  0
   -0.0114   -5.6062   -1.6443 H   0  0  0  0  0  0  0  0  0  0  0  0
    1.0081   -6.7887    0.3143 H   0  0  0  0  0  0  0  0  0  0  0  0
    2.1659   -5.4225    2.0589 H   0  0  0  0  0  0  0  0  0  0  0  0
  1  2  1  0  0  0  0
  1  6  1  0  0  0  0
  1  7  2  0  0  0  0
  2  3  1  0  0  0  0
  2  9  2  0  0  0  0
  3  4  1  0  0  0  0
  3 28  1  0  0  0  0
  3 29  1  0  0  0  0
  4  5  1  0  0  0  0
  4 30  1  0  0  0  0
  4 31  1  0  0  0  0
  5  6  1  0  0  0  0
  5 32  1  0  0  0  0
  5 33  1  0  0  0  0
  6 34  1  0  0  0  0
  6 35  1  0  0  0  0
  7  8  1  0  0  0  0
  7 23  1  0  0  0  0
  8  9  1  0  0  0  0
  8 19  1  0  0  0  0
  9 15  1  0  0  0  0
 10 11  1  0  0  0  0
 10 15  2  0  0  0  0
 11 12  2  0  0  0  0
 11 36  1  0  0  0  0
 12 13  1  0  0  0  0
 12 37  1  0  0  0  0
 13 14  2  0  0  0  0
 13 38  1  0  0  0  0
 14 15  1  0  0  0  0
 14 39  1  0  0  0  0
 16 17  2  0  0  0  0
 16 21  1  0  0  0  0
 16 40  1  0  0  0  0
 17 18  1  0  0  0  0
 17 41  1  0  0  0  0
 18 19  2  0  0  0  0
 18 42  1  0  0  0  0
 19 20  1  0  0  0  0
 20 21  2  0  0  0  0
 20 43  1  0  0  0  0
 21 44  1  0  0  0  0
 22 23  2  0  0  0  0
 22 27  1  0  0  0  0
 23 24  1  0  0  0  0
 24 25  2  0  0  0  0
 24 45  1  0  0  0  0
 25 26  1  0  0  0  0
 25 46  1  0  0  0  0
 26 27  2  0  0  0  0
 26 47  1  0  0  0  0
 27 48  1  0  0  0  0
M  END
>  <DRUGBANK_ID>
DB07393

>  <COMMON_NAME>
2-(2-PHENYL-3-PYRIDIN-2-YL-4,5,6,7-TETRAHYDRO-2H-ISOPHOSPHINDOL-1-YL)PYRIDINE

$$$$
