
 OpenBabel10282417123D

 16 16  0  0  0  0  0  0  0  0999 V2000
    1.3816   -0.2303    0.0133 C   0  0  0  0  0  0  0  0  0  0  0  0
    0.4959   -1.3186   -0.0062 C   0  0  0  0  0  0  0  0  0  0  0  0
   -0.8812   -1.0943   -0.0393 C   0  0  0  0  0  0  0  0  0  0  0  0
   -1.3763    0.2098   -0.0144 C   0  0  0  0  0  0  0  0  0  0  0  0
   -0.4843    1.2912    0.0485 C   0  0  0  0  0  0  0  0  0  0  0  0
    0.9016    1.0866   -0.0045 C   0  0  0  0  0  0  0  0  0  0  0  0
    2.8237   -0.4793    0.1522 N   0  3  0  0  0  0  0  0  0  0  0  0
    3.5762    0.5001    0.1904 O   0  0  0  0  0  0  0  0  0  0  0  0
    3.1945   -1.6598    0.2487 O   0  5  0  0  0  0  0  0  0  0  0  0
   -1.0120    2.6381    0.3099 N   0  3  0  0  0  0  0  0  0  0  0  0
   -0.1956    3.5617    0.4261 O   0  5  0  0  0  0  0  0  0  0  0  0
   -2.2374    2.7586    0.4448 O   0  0  0  0  0  0  0  0  0  0  0  0
    0.8627   -2.3440    0.0188 H   0  0  0  0  0  0  0  0  0  0  0  0
   -1.5699   -1.9372   -0.0412 H   0  0  0  0  0  0  0  0  0  0  0  0
   -2.4542    0.3667   -0.0153 H   0  0  0  0  0  0  0  0  0  0  0  0
    1.5888    1.9312   -0.0165 H   0  0  0  0  0  0  0  0  0  0  0  0
  1  2  1  0  0  0  0
  1  6  2  0  0  0  0
  1  7  1  0  0  0  0
  2  3  2  0  0  0  0
  2 13  1  0  0  0  0
  3  4  1  0  0  0  0
  3 14  1  0  0  0  0
  4  5  2  0  0  0  0
  4 15  1  0  0  0  0
  5  6  1  0  0  0  0
  5 10  1  0  0  0  0
  6 16  1  0  0  0  0
  7  8  2  0  0  0  0
  7  9  1  0  0  0  0
 10 11  1  0  0  0  0
 10 12  2  0  0  0  0
M  CHG  4   7   1   9  -1  10   1  11  -1
M  END
>  <DRUGBANK_ID>
DB02680

>  <SECONDARY_ACCESSION_NUMBERS>
EXPT02350

>  <COMMON_NAME>
1,3-Dinitrobenzene

>  <CAS_NUMBER>
99-65-0

>  <UNII>
DK8B627BU0

>  <SYNONYMS>
1,3-dinitro-benzene; 2,4-Dinitrobenzene; m-Dinitrobenzene; m-DNB; meta-Dinitrobenzene

$$$$
