SA1
 OpenBabel10282417173D

 41 43  0  0  0  0  0  0  0  0999 V2000
   -6.4704    4.1375   -6.9176 C   0  0  0  0  0  0  0  0  0  0  0  0
   -6.7453    3.5181   -5.6391 O   0  0  0  0  0  0  0  0  0  0  0  0
   -5.4697    3.1481   -5.0146 C   0  0  1  0  0  0  0  0  0  0  0  0
   -5.7667    1.6906   -5.3205 C   0  0  0  0  0  0  0  0  0  0  0  0
   -4.8490    4.5490   -5.3324 C   0  0  2  0  0  0  0  0  0  0  0  0
   -5.2308    5.2980   -4.0734 C   0  0  0  0  0  0  0  0  0  0  0  0
   -5.3731    6.5435   -3.9127 O   0  0  0  0  0  0  0  0  0  0  0  0
   -5.3310    4.4385   -3.0420 N   0  0  0  0  0  0  0  0  0  0  0  0
   -5.1768    3.0310   -3.4384 C   0  0  2  0  0  0  0  0  0  0  0  0
   -3.5985    2.5453   -3.2369 C   0  0  2  0  0  0  0  0  0  0  0  0
   -3.0678    2.1645   -1.7937 C   0  0  2  0  0  0  0  0  0  0  0  0
   -3.6250    0.8841   -1.1847 C   0  0  0  0  0  0  0  0  0  0  0  0
   -4.5067    0.8781   -0.1582 C   0  0  0  0  0  0  0  0  0  0  0  0
   -5.1195    2.1422    0.4310 C   0  0  0  0  0  0  0  0  0  0  0  0
   -4.6769    3.4122   -0.2839 C   0  0  0  0  0  0  0  0  0  0  0  0
   -3.2591    3.3500   -0.8382 C   0  0  0  0  0  0  0  0  0  0  0  0
   -2.6581    3.5018   -3.7806 O   0  0  0  0  0  0  0  0  0  0  0  0
   -6.0527    1.9050   -2.6566 C   0  0  0  0  0  0  0  0  0  0  0  0
   -7.1031    1.2929   -2.8543 O   0  0  0  0  0  0  0  0  0  0  0  0
   -5.5577    5.2274   -6.4900 C   0  0  0  0  0  0  0  0  0  0  0  0
   -3.7690    4.6476   -5.4320 H   0  0  0  0  0  0  0  0  0  0  0  0
   -3.4305    1.6592   -3.8588 H   0  0  0  0  0  0  0  0  0  0  0  0
   -1.9810    1.9944   -1.8871 H   0  0  0  0  0  0  0  0  0  0  0  0
   -5.9898    3.5303   -7.7102 H   0  0  0  0  0  0  0  0  0  0  0  0
   -7.4396    4.4672   -7.2771 H   0  0  0  0  0  0  0  0  0  0  0  0
   -5.0996    0.9281   -4.9117 H   0  0  0  0  0  0  0  0  0  0  0  0
   -6.6422    1.6712   -4.6675 H   0  0  0  0  0  0  0  0  0  0  0  0
   -6.4609    1.2804   -6.0613 H   0  0  0  0  0  0  0  0  0  0  0  0
   -5.5691    4.8501   -2.1437 H   0  0  0  0  0  0  0  0  0  0  0  0
   -3.4101   -0.0556   -1.6986 H   0  0  0  0  0  0  0  0  0  0  0  0
   -5.0373   -0.0522    0.0566 H   0  0  0  0  0  0  0  0  0  0  0  0
   -4.9451    2.2319    1.4981 H   0  0  0  0  0  0  0  0  0  0  0  0
   -6.2142    2.0771    0.2906 H   0  0  0  0  0  0  0  0  0  0  0  0
   -4.8574    4.3370    0.2648 H   0  0  0  0  0  0  0  0  0  0  0  0
   -5.4019    3.4877   -1.0716 H   0  0  0  0  0  0  0  0  0  0  0  0
   -3.0023    4.2799   -1.3569 H   0  0  0  0  0  0  0  0  0  0  0  0
   -2.5649    3.2621    0.0029 H   0  0  0  0  0  0  0  0  0  0  0  0
   -2.9265    4.4008   -3.5153 H   0  0  0  0  0  0  0  0  0  0  0  0
   -5.6237    1.5862   -1.7553 H   0  0  0  0  0  0  0  0  0  0  0  0
   -4.8504    5.5658   -7.2484 H   0  0  0  0  0  0  0  0  0  0  0  0
   -6.1796    6.0866   -6.2029 H   0  0  0  0  0  0  0  0  0  0  0  0
  1  2  1  0  0  0  0
  1 20  1  0  0  0  0
  1 24  1  0  0  0  0
  1 25  1  0  0  0  0
  2  3  1  0  0  0  0
  3  4  1  6  0  0  0
  3  5  1  0  0  0  0
  3  9  1  0  0  0  0
  4 26  1  0  0  0  0
  4 27  1  0  0  0  0
  4 28  1  0  0  0  0
  5  6  1  0  0  0  0
  5 20  1  0  0  0  0
  5 21  1  6  0  0  0
  6  7  2  0  0  0  0
  6  8  1  0  0  0  0
  8  9  1  0  0  0  0
  8 29  1  0  0  0  0
  9 18  1  1  0  0  0
  9 10  1  0  0  0  0
 10 22  1  6  0  0  0
 10 17  1  0  0  0  0
 11 12  1  0  0  0  0
 11 16  1  0  0  0  0
 11 10  1  0  0  0  0
 11 23  1  6  0  0  0
 12 13  2  0  0  0  0
 12 30  1  0  0  0  0
 13 14  1  0  0  0  0
 13 31  1  0  0  0  0
 14 15  1  0  0  0  0
 14 32  1  0  0  0  0
 14 33  1  0  0  0  0
 15 16  1  0  0  0  0
 15 34  1  0  0  0  0
 15 35  1  0  0  0  0
 16 36  1  0  0  0  0
 16 37  1  0  0  0  0
 17 38  1  0  0  0  0
 18 19  2  0  0  0  0
 18 39  1  0  0  0  0
 20 40  1  0  0  0  0
 20 41  1  0  0  0  0
M  END
>  <DRUGBANK_ID>
DB08515

>  <COMMON_NAME>
(3AR,6R,6AS)-6-((S)-((S)-CYCLOHEX-2-ENYL)(HYDROXY)METHYL)-6A-METHYL-4-OXO-HEXAHYDRO-2H-FURO[3,2-C]PYRROLE-6-CARBALDEHYDE

$$$$
