
 OpenBabel10282417223D

 72 75  0  0  1  0  0  0  0  0999 V2000
    0.9139   -0.0621   -0.0140 C   0  0  0  0  0  0  0  0  0  0  0  0
    0.3866   -1.3744   -0.2928 N   0  0  0  0  0  0  0  0  0  0  0  0
   -0.8917   -1.6934   -0.8909 N   0  0  0  0  0  0  0  0  0  0  0  0
   -0.9624   -3.0088   -0.9685 C   0  0  0  0  0  0  0  0  0  0  0  0
   -2.0904   -3.8730   -1.6012 C   0  0  0  0  0  0  0  0  0  0  0  0
   -1.5800   -5.2299   -2.0665 C   0  0  0  0  0  0  0  0  0  0  0  0
   -0.6840   -6.1133   -0.8099 N   0  0  0  0  0  0  0  0  0  0  0  0
    0.9275   -4.8799   -0.5515 C   0  0  0  0  0  0  0  0  0  0  0  0
    0.3196   -3.5351   -0.4506 C   0  0  2  0  0  0  0  0  0  0  0  0
    0.3999   -4.8969   -0.1246 C   0  0  0  0  0  0  0  0  0  0  0  0
    0.8389   -5.8363   -2.0581 C   0  0  0  0  0  0  0  0  0  0  0  0
    2.0286   -5.4993   -2.6057 C   0  0  0  0  0  0  0  0  0  0  0  0
    2.3357   -6.3321   -3.6522 C   0  0  0  0  0  0  0  0  0  0  0  0
    1.5572   -7.4741   -4.0989 C   0  0  0  0  0  0  0  0  0  0  0  0
    0.3651   -7.8575   -3.5982 C   0  0  0  0  0  0  0  0  0  0  0  0
   -0.0301   -6.9843   -2.6999 C   0  0  0  0  0  0  0  0  0  0  0  0
    1.2270   -2.4640   -0.1274 C   0  0  0  0  0  0  0  0  0  0  0  0
    2.4102   -2.4949    0.1377 O   0  0  0  0  0  0  0  0  0  0  0  0
   -0.0543   -7.5484   -0.4704 C   0  0  0  0  0  0  0  0  0  0  0  0
    1.1736   -7.7969   -0.4240 O   0  0  0  0  0  0  0  0  0  0  0  0
   -0.8616   -8.7517   -0.1350 C   0  0  1  0  0  0  0  0  0  0  0  0
   -1.0611   -8.8579    1.3543 C   0  0  0  0  0  0  0  0  0  0  0  0
   -1.9307   -7.9303    2.0324 O   0  0  0  0  0  0  0  0  0  0  0  0
   -1.6050   -6.5657    1.7797 C   0  0  0  0  0  0  0  0  0  0  0  0
   -0.3298   -6.0402    2.4881 C   0  0  0  0  0  0  0  0  0  0  0  0
    0.0161   -4.6479    2.5999 C   0  0  0  0  0  0  0  0  0  0  0  0
    1.3123   -4.2228    3.0028 C   0  0  0  0  0  0  0  0  0  0  0  0
    2.1873   -5.1491    3.5383 C   0  0  0  0  0  0  0  0  0  0  0  0
    1.8184   -6.4751    3.5638 C   0  0  0  0  0  0  0  0  0  0  0  0
    0.6615   -6.9084    2.9446 C   0  0  0  0  0  0  0  0  0  0  0  0
   -1.8998   -9.2192   -0.9600 N   0  0  0  0  0  0  0  0  0  0  0  0
   -1.8812  -10.3737   -1.6945 C   0  0  0  0  0  0  0  0  0  0  0  0
   -2.9178  -10.6278   -2.3141 O   0  0  0  0  0  0  0  0  0  0  0  0
   -0.5843  -11.3077   -1.7680 C   0  0  0  0  0  0  0  0  0  0  0  0
    0.6158  -10.6585   -2.4588 C   0  0  0  0  0  0  0  0  0  0  0  0
   -0.1717  -11.8457   -0.3951 C   0  0  0  0  0  0  0  0  0  0  0  0
   -0.9099  -12.4885   -2.6020 N   0  0  0  0  0  0  0  0  0  0  0  0
    0.5993    0.2612    0.9833 H   0  0  0  0  0  0  0  0  0  0  0  0
    0.6083    0.6371   -0.7848 H   0  0  0  0  0  0  0  0  0  0  0  0
    2.0162   -0.0944    0.0187 H   0  0  0  0  0  0  0  0  0  0  0  0
   -3.1658   -4.0815   -1.5740 H   0  0  0  0  0  0  0  0  0  0  0  0
   -2.3722   -3.0728   -2.2982 H   0  0  0  0  0  0  0  0  0  0  0  0
   -2.2461   -5.8914   -2.6369 H   0  0  0  0  0  0  0  0  0  0  0  0
   -0.8693   -4.8807   -2.8567 H   0  0  0  0  0  0  0  0  0  0  0  0
    1.6372   -6.0162   -0.0574 H   0  0  0  0  0  0  0  0  0  0  0  0
    2.1605   -4.6711   -0.4856 H   0  0  0  0  0  0  0  0  0  0  0  0
    1.2767   -5.0429    1.0085 H   0  0  0  0  0  0  0  0  0  0  0  0
   -0.6225   -4.9770    0.4921 H   0  0  0  0  0  0  0  0  0  0  0  0
    2.6409   -4.6911   -2.2261 H   0  0  0  0  0  0  0  0  0  0  0  0
    3.2520   -6.0950   -4.1543 H   0  0  0  0  0  0  0  0  0  0  0  0
    1.8855   -8.0728   -4.9214 H   0  0  0  0  0  0  0  0  0  0  0  0
   -0.2981   -8.7021   -3.7257 H   0  0  0  0  0  0  0  0  0  0  0  0
   -1.0231   -7.3463   -2.3443 H   0  0  0  0  0  0  0  0  0  0  0  0
   -0.0514   -9.4576   -0.3010 H   0  0  0  0  0  0  0  0  0  0  0  0
   -1.3179   -9.8626    1.6806 H   0  0  0  0  0  0  0  0  0  0  0  0
   -0.0316   -8.7741    1.6579 H   0  0  0  0  0  0  0  0  0  0  0  0
   -1.6520   -6.6483    0.7220 H   0  0  0  0  0  0  0  0  0  0  0  0
   -2.4040   -5.8073    1.7796 H   0  0  0  0  0  0  0  0  0  0  0  0
   -0.5592   -3.8788    2.0759 H   0  0  0  0  0  0  0  0  0  0  0  0
    1.6778   -3.2180    2.7732 H   0  0  0  0  0  0  0  0  0  0  0  0
    3.1489   -4.8639    3.9406 H   0  0  0  0  0  0  0  0  0  0  0  0
    2.3891   -7.2323    4.0843 H   0  0  0  0  0  0  0  0  0  0  0  0
    0.6492   -7.9795    2.9136 H   0  0  0  0  0  0  0  0  0  0  0  0
   -2.7484   -8.6795   -0.9433 H   0  0  0  0  0  0  0  0  0  0  0  0
    0.9479   -9.7534   -1.9569 H   0  0  0  0  0  0  0  0  0  0  0  0
    1.5054  -11.2911   -2.5030 H   0  0  0  0  0  0  0  0  0  0  0  0
    0.3715  -10.4340   -3.4984 H   0  0  0  0  0  0  0  0  0  0  0  0
   -0.9962  -12.3837    0.0754 H   0  0  0  0  0  0  0  0  0  0  0  0
    0.7148  -12.4800   -0.4754 H   0  0  0  0  0  0  0  0  0  0  0  0
    0.1225  -11.0934    0.3328 H   0  0  0  0  0  0  0  0  0  0  0  0
   -1.2028  -12.1584   -3.5244 H   0  0  0  0  0  0  0  0  0  0  0  0
   -0.0696  -13.0449   -2.7433 H   0  0  0  0  0  0  0  0  0  0  0  0
  1 38  1  0  0  0  0
  1 39  1  0  0  0  0
  1 40  1  0  0  0  0
  1  2  1  0  0  0  0
  2  3  1  0  0  0  0
  2 17  1  0  0  0  0
  3  4  2  0  0  0  0
  4  5  1  0  0  0  0
  5  6  1  0  0  0  0
  5 41  1  0  0  0  0
  5 42  1  0  0  0  0
  6  7  1  0  0  0  0
  6 43  1  0  0  0  0
  6 44  1  0  0  0  0
  7  8  1  0  0  0  0
  7 19  1  0  0  0  0
  8 45  1  0  0  0  0
  8 46  1  0  0  0  0
  9  8  1  0  0  0  0
  9  4  1  0  0  0  0
  9 17  1  0  0  0  0
  9 10  1  1  0  0  0
 10 11  1  0  0  0  0
 10 47  1  0  0  0  0
 10 48  1  0  0  0  0
 11 12  2  0  0  0  0
 11 16  1  0  0  0  0
 12 13  1  0  0  0  0
 12 49  1  0  0  0  0
 13 14  2  0  0  0  0
 13 50  1  0  0  0  0
 14 15  1  0  0  0  0
 14 51  1  0  0  0  0
 15 16  2  0  0  0  0
 15 52  1  0  0  0  0
 16 53  1  0  0  0  0
 17 18  2  0  0  0  0
 19 20  2  0  0  0  0
 21 19  1  0  0  0  0
 21 22  1  0  0  0  0
 21 31  1  0  0  0  0
 21 54  1  6  0  0  0
 22 23  1  0  0  0  0
 22 55  1  0  0  0  0
 22 56  1  0  0  0  0
 23 24  1  0  0  0  0
 24 25  1  0  0  0  0
 24 57  1  0  0  0  0
 24 58  1  0  0  0  0
 25 26  2  0  0  0  0
 25 30  1  0  0  0  0
 26 27  1  0  0  0  0
 26 59  1  0  0  0  0
 27 28  2  0  0  0  0
 27 60  1  0  0  0  0
 28 29  1  0  0  0  0
 28 61  1  0  0  0  0
 29 30  2  0  0  0  0
 29 62  1  0  0  0  0
 30 63  1  0  0  0  0
 31 32  1  0  0  0  0
 31 64  1  0  0  0  0
 32 33  2  0  0  0  0
 32 34  1  0  0  0  0
 34 35  1  0  0  0  0
 34 36  1  0  0  0  0
 34 37  1  0  0  0  0
 35 65  1  0  0  0  0
 35 66  1  0  0  0  0
 35 67  1  0  0  0  0
 36 68  1  0  0  0  0
 36 69  1  0  0  0  0
 36 70  1  0  0  0  0
 37 71  1  0  0  0  0
 37 72  1  0  0  0  0
M  END
>  <DRUGBANK_ID>
DB15205

>  <COMMON_NAME>
Capromorelin

>  <CAS_NUMBER>
193273-66-4

>  <UNII>
0MQ44VUN84

>  <SYNONYMS>
Capromorelin; CP-424,391

$$$$
