
 OpenBabel10282417203D

 55 58  0  0  0  0  0  0  0  0999 V2000
    2.4119    1.5634   -0.0415 C   0  0  0  0  0  0  0  0  0  0  0  0
    1.4957    0.4512    0.0229 N   0  0  0  0  0  0  0  0  0  0  0  0
    1.8925   -0.8444    0.0651 C   0  0  0  0  0  0  0  0  0  0  0  0
    0.7473   -1.6210    0.1370 C   0  0  0  0  0  0  0  0  0  0  0  0
   -0.3634   -0.7934    0.0509 C   0  0  0  0  0  0  0  0  0  0  0  0
    0.1193    0.5125    0.0302 C   0  0  0  0  0  0  0  0  0  0  0  0
   -0.7586    1.5893    0.0176 C   0  0  0  0  0  0  0  0  0  0  0  0
   -2.1294    1.2952   -0.0037 C   0  0  0  0  0  0  0  0  0  0  0  0
   -2.6132   -0.0137   -0.0288 C   0  0  0  0  0  0  0  0  0  0  0  0
   -1.7319   -1.0791   -0.0071 C   0  0  0  0  0  0  0  0  0  0  0  0
    0.7422   -3.0741    0.1280 C   0  0  0  0  0  0  0  0  0  0  0  0
    0.1604   -3.7955    1.2560 N   0  0  0  0  0  0  0  0  0  0  0  0
    0.2977   -5.2886    1.1539 C   0  0  0  0  0  0  0  0  0  0  0  0
    1.7656   -5.8324    1.0928 C   0  0  0  0  0  0  0  0  0  0  0  0
    2.4864   -5.3413   -0.1570 C   0  0  0  0  0  0  0  0  0  0  0  0
    1.9925   -5.9234   -1.4472 C   0  0  0  0  0  0  0  0  0  0  0  0
    2.2409   -7.3124   -1.4232 N   0  0  0  0  0  0  0  0  0  0  0  0
    1.7231   -8.0522   -0.2915 C   0  0  0  0  0  0  0  0  0  0  0  0
    2.0334   -7.3601    1.0629 C   0  0  0  0  0  0  0  0  0  0  0  0
    3.2308   -7.7453   -2.2466 C   0  0  0  0  0  0  0  0  0  0  0  0
    4.3554   -7.0238   -2.3243 N   0  0  0  0  0  0  0  0  0  0  0  0
    5.2928   -7.4133   -3.2136 C   0  0  0  0  0  0  0  0  0  0  0  0
    5.1534   -8.4610   -4.0902 C   0  0  0  0  0  0  0  0  0  0  0  0
    3.9276   -9.0921   -3.9675 C   0  0  0  0  0  0  0  0  0  0  0  0
    2.9792   -8.7774   -3.0519 N   0  0  0  0  0  0  0  0  0  0  0  0
    6.1308   -8.9646   -5.0800 C   0  0  0  0  0  0  0  0  0  0  0  0
    5.7725   -9.9367   -5.7860 O   0  0  0  0  0  0  0  0  0  0  0  0
    7.3802   -8.4876   -5.2914 N   0  0  0  0  0  0  0  0  0  0  0  0
    8.0944   -7.4465   -4.7059 O   0  0  0  0  0  0  0  0  0  0  0  0
    2.2257    2.1064   -0.9696 H   0  0  0  0  0  0  0  0  0  0  0  0
    2.2434    2.1894    0.8356 H   0  0  0  0  0  0  0  0  0  0  0  0
    3.4434    1.1933   -0.0354 H   0  0  0  0  0  0  0  0  0  0  0  0
    2.9390   -1.1343    0.0267 H   0  0  0  0  0  0  0  0  0  0  0  0
   -0.3937    2.6070    0.0335 H   0  0  0  0  0  0  0  0  0  0  0  0
   -2.8387    2.1143   -0.0016 H   0  0  0  0  0  0  0  0  0  0  0  0
   -3.6781   -0.2177   -0.0507 H   0  0  0  0  0  0  0  0  0  0  0  0
   -2.0774   -2.1109   -0.0128 H   0  0  0  0  0  0  0  0  0  0  0  0
    0.3785   -3.4401   -0.8429 H   0  0  0  0  0  0  0  0  0  0  0  0
    1.8138   -3.1037    0.2782 H   0  0  0  0  0  0  0  0  0  0  0  0
    0.6540   -3.4744    2.0887 H   0  0  0  0  0  0  0  0  0  0  0  0
   -0.2052   -5.6970    2.0418 H   0  0  0  0  0  0  0  0  0  0  0  0
   -0.2939   -5.6461    0.3036 H   0  0  0  0  0  0  0  0  0  0  0  0
    2.2460   -5.4448    2.0050 H   0  0  0  0  0  0  0  0  0  0  0  0
    2.1979   -4.3909   -0.4453 H   0  0  0  0  0  0  0  0  0  0  0  0
    3.5587   -5.2032   -0.0053 H   0  0  0  0  0  0  0  0  0  0  0  0
    0.9098   -5.7746   -1.5536 H   0  0  0  0  0  0  0  0  0  0  0  0
    2.4254   -5.3570   -2.2860 H   0  0  0  0  0  0  0  0  0  0  0  0
    2.1120   -9.0734   -0.2855 H   0  0  0  0  0  0  0  0  0  0  0  0
    0.6364   -8.0900   -0.4035 H   0  0  0  0  0  0  0  0  0  0  0  0
    3.1155   -7.4759    1.2464 H   0  0  0  0  0  0  0  0  0  0  0  0
    1.5343   -7.8824    1.8860 H   0  0  0  0  0  0  0  0  0  0  0  0
    6.1516   -6.7780   -3.1206 H   0  0  0  0  0  0  0  0  0  0  0  0
    3.6338   -9.9137   -4.6180 H   0  0  0  0  0  0  0  0  0  0  0  0
    7.9143   -8.9736   -6.0095 H   0  0  0  0  0  0  0  0  0  0  0  0
    7.5474   -7.0643   -4.0214 H   0  0  0  0  0  0  0  0  0  0  0  0
  1  2  1  0  0  0  0
  1 30  1  0  0  0  0
  1 31  1  0  0  0  0
  1 32  1  0  0  0  0
  2  3  1  0  0  0  0
  2  6  1  0  0  0  0
  3  4  2  0  0  0  0
  3 33  1  0  0  0  0
  4  5  1  0  0  0  0
  4 11  1  0  0  0  0
  5  6  1  0  0  0  0
  5 10  2  0  0  0  0
  6  7  2  0  0  0  0
  7  8  1  0  0  0  0
  7 34  1  0  0  0  0
  8  9  2  0  0  0  0
  8 35  1  0  0  0  0
  9 10  1  0  0  0  0
  9 36  1  0  0  0  0
 10 37  1  0  0  0  0
 11 12  1  0  0  0  0
 11 38  1  0  0  0  0
 11 39  1  0  0  0  0
 12 13  1  0  0  0  0
 12 40  1  0  0  0  0
 13 14  1  0  0  0  0
 13 41  1  0  0  0  0
 13 42  1  0  0  0  0
 14 15  1  0  0  0  0
 14 19  1  0  0  0  0
 14 43  1  0  0  0  0
 15 16  1  0  0  0  0
 15 44  1  0  0  0  0
 15 45  1  0  0  0  0
 16 17  1  0  0  0  0
 16 46  1  0  0  0  0
 16 47  1  0  0  0  0
 17 18  1  0  0  0  0
 17 20  1  0  0  0  0
 18 19  1  0  0  0  0
 18 48  1  0  0  0  0
 18 49  1  0  0  0  0
 19 50  1  0  0  0  0
 19 51  1  0  0  0  0
 20 21  2  0  0  0  0
 20 25  1  0  0  0  0
 21 22  1  0  0  0  0
 22 23  2  0  0  0  0
 22 52  1  0  0  0  0
 23 24  1  0  0  0  0
 23 26  1  0  0  0  0
 24 25  2  0  0  0  0
 24 53  1  0  0  0  0
 26 27  2  0  0  0  0
 26 28  1  0  0  0  0
 28 29  1  0  0  0  0
 28 54  1  0  0  0  0
 29 55  1  0  0  0  0
M  END
>  <DRUGBANK_ID>
DB12985

>  <COMMON_NAME>
Quisinostat

>  <CAS_NUMBER>
875320-29-9

>  <UNII>
9BJ85K1J8S

>  <SYNONYMS>
Quisinostat

$$$$
