
 OpenBabel10282417123D

105110  0  0  1  0  0  0  0  0999 V2000
    1.0065   -1.5235   -1.8809 C   0  0  0  0  0  0  0  0  0  0  0  0
    0.4999   -1.3445   -0.4590 C   0  0  1  0  0  0  0  0  0  0  0  0
   -7.4189   -3.4026   -3.7076 C   0  0  0  0  0  0  0  0  0  0  0  0
   -7.2215   -4.0580   -2.3504 C   0  0  2  0  0  0  0  0  0  0  0  0
   -8.4628   -4.5678   -1.8859 O   0  0  0  0  0  0  0  0  0  0  0  0
   -6.7121   -3.0634   -1.3954 N   0  0  0  0  0  0  0  0  0  0  0  0
   -7.6785   -1.9627   -1.2720 C   0  0  2  0  0  0  0  0  0  0  0  0
   -7.1158   -0.9536   -0.2497 C   0  0  0  0  0  0  0  0  0  0  0  0
   -5.6274   -0.8499   -0.4513 C   0  0  0  0  0  0  0  0  0  0  0  0
   -5.2401    0.3149   -1.3821 C   0  0  0  0  0  0  0  0  0  0  0  0
   -6.1747    0.4421   -2.6008 C   0  0  0  0  0  0  0  0  0  0  0  0
   -6.5214   -0.8933   -3.2018 N   0  0  0  0  0  0  0  0  0  0  0  0
   -5.7804   -1.5271   -4.1641 O   0  0  0  0  0  0  0  0  0  0  0  0
   -3.9551   -1.8654   -3.4755 Fe  0  0  1  0  0  0  0  0  0  0  0  0
   -4.0362   -2.7494   -2.2298 O   0  0  0  0  0  0  0  0  0  0  0  0
   -2.8049   -3.4563   -2.0668 C   0  0  1  0  0  0  0  0  0  0  0  0
   -1.7179   -2.4501   -1.7256 C   0  0  0  0  0  0  0  0  0  0  0  0
   -1.0734   -1.8533   -2.7643 C   0  0  0  0  0  0  0  0  0  0  0  0
    0.2872   -1.2115   -2.5467 C   0  0  0  0  0  0  0  0  0  0  0  0
    1.3145   -1.8859   -3.4411 C   0  0  0  0  0  0  0  0  0  0  0  0
    0.9045   -1.7233   -4.8957 C   0  0  0  0  0  0  0  0  0  0  0  0
    0.8276   -0.2444   -5.2382 C   0  0  0  0  0  0  0  0  0  0  0  0
    2.1881    0.3975   -5.0205 C   0  0  0  0  0  0  0  0  0  0  0  0
    3.2154   -0.2770   -5.9150 C   0  0  0  0  0  0  0  0  0  0  0  0
    2.8054   -0.1144   -7.3696 C   0  0  0  0  0  0  0  0  0  0  0  0
    3.6641    0.5589   -8.2783 O   0  0  0  0  0  0  0  0  0  0  0  0
    1.6940   -0.5810   -7.7725 O   0  0  0  0  0  0  0  0  0  0  0  0
   -2.8357   -4.4495   -1.0402 N   0  0  2  0  0  0  0  0  0  0  0  0
   -1.5814   -4.3261   -0.1735 C   0  0  0  0  0  0  0  0  0  0  0  0
   -1.8786   -3.5430    0.9850 C   0  0  0  0  0  0  0  0  0  0  0  0
   -0.7934   -3.4371    1.9084 C   0  0  0  0  0  0  0  0  0  0  0  0
   -1.0175   -2.2304    2.8228 C   0  0  0  0  0  0  0  0  0  0  0  0
   -0.8701   -1.0266    2.0672 C   0  0  2  0  0  0  0  0  0  0  0  0
   -1.3719    0.1377    2.7265 N   0  0  0  0  0  0  0  0  0  0  0  0
   -0.9624    1.3856    1.9404 C   0  0  0  0  0  0  0  0  0  0  0  0
    0.1467    1.9951    2.0572 O   0  0  0  0  0  0  0  0  0  0  0  0
   -2.0194    1.7594    1.0552 C   0  0  1  0  0  0  0  0  0  0  0  0
   -1.5970    1.9953   -0.2885 C   0  0  0  0  0  0  0  0  0  0  0  0
   -2.7507    2.6077   -1.0858 O   0  0  0  0  0  0  0  0  0  0  0  0
   -3.6426    1.5735   -1.5060 C   0  0  0  0  0  0  0  0  0  0  0  0
   -2.9578    0.6286    1.0130 N   0  0  0  0  0  0  0  0  0  0  0  0
   -4.0748    1.6179   -2.7948 C   0  0  0  0  0  0  0  0  0  0  0  0
   -4.6721    2.7668   -3.2857 C   0  0  0  0  0  0  0  0  0  0  0  0
   -5.1117    2.8101   -4.6021 C   0  0  0  0  0  0  0  0  0  0  0  0
   -4.9522    1.7032   -5.4242 C   0  0  0  0  0  0  0  0  0  0  0  0
   -4.3563    0.5561   -4.9339 C   0  0  0  0  0  0  0  0  0  0  0  0
   -3.9181    0.5091   -3.6206 C   0  0  0  0  0  0  0  0  0  0  0  0
   -3.3356   -0.6228   -3.1389 O   0  0  0  0  0  0  0  0  0  0  0  0
   -1.6301   -1.1909    0.7611 C   0  0  0  0  0  0  0  0  0  0  0  0
   -2.9010   -1.1909    0.7611 O   0  0  0  0  0  0  0  0  0  0  0  0
   -0.9201   -1.3445   -0.4590 O   0  0  0  0  0  0  0  0  0  0  0  0
   -2.8837   -2.7814   -4.8660 O   0  0  0  0  0  0  0  0  0  0  0  0
   -7.8531   -1.3740   -2.5918 C   0  0  0  0  0  0  0  0  0  0  0  0
   -8.9770   -1.2682   -3.1756 O   0  0  0  0  0  0  0  0  0  0  0  0
    1.9999   -1.1364   -1.9717 H   0  0  0  0  0  0  0  0  0  0  0  0
    0.3561   -0.9964   -2.5473 H   0  0  0  0  0  0  0  0  0  0  0  0
    1.0050   -2.5641   -2.1297 H   0  0  0  0  0  0  0  0  0  0  0  0
    0.8565   -0.4147   -0.0677 H   0  0  0  0  0  0  0  0  0  0  0  0
   -7.7897   -4.1266   -4.4027 H   0  0  0  0  0  0  0  0  0  0  0  0
   -8.1223   -2.6014   -3.6178 H   0  0  0  0  0  0  0  0  0  0  0  0
   -6.5180   -4.8593   -2.4402 H   0  0  0  0  0  0  0  0  0  0  0  0
   -8.8416   -5.4571   -2.1420 H   0  0  0  0  0  0  0  0  0  0  0  0
   -5.8204   -2.6972   -1.7290 H   0  0  0  0  0  0  0  0  0  0  0  0
   -8.6276   -2.3126   -0.9232 H   0  0  0  0  0  0  0  0  0  0  0  0
   -7.5725    0.0038   -0.3897 H   0  0  0  0  0  0  0  0  0  0  0  0
   -7.3228   -1.2928    0.7438 H   0  0  0  0  0  0  0  0  0  0  0  0
   -5.1811   -0.6664    0.5037 H   0  0  0  0  0  0  0  0  0  0  0  0
   -5.2743   -1.7644   -0.8802 H   0  0  0  0  0  0  0  0  0  0  0  0
   -5.3228    1.2198   -0.8170 H   0  0  0  0  0  0  0  0  0  0  0  0
   -4.2417    0.1552   -1.7322 H   0  0  0  0  0  0  0  0  0  0  0  0
   -7.0848    0.8951   -2.2672 H   0  0  0  0  0  0  0  0  0  0  0  0
   -5.6890    1.0379   -3.3452 H   0  0  0  0  0  0  0  0  0  0  0  0
   -2.6183   -3.9688   -2.9873 H   0  0  0  0  0  0  0  0  0  0  0  0
   -1.2671   -2.4677   -0.7553 H   0  0  0  0  0  0  0  0  0  0  0  0
   -1.5241   -1.8358   -3.7346 H   0  0  0  0  0  0  0  0  0  0  0  0
    0.2330   -0.1704   -2.7878 H   0  0  0  0  0  0  0  0  0  0  0  0
    0.5758   -1.3259   -1.5227 H   0  0  0  0  0  0  0  0  0  0  0  0
    2.2722   -1.4341   -3.2879 H   0  0  0  0  0  0  0  0  0  0  0  0
    1.3686   -2.9270   -3.2001 H   0  0  0  0  0  0  0  0  0  0  0  0
    1.6277   -2.1981   -5.5254 H   0  0  0  0  0  0  0  0  0  0  0  0
   -0.0533   -2.1752   -5.0489 H   0  0  0  0  0  0  0  0  0  0  0  0
    0.5389   -0.1299   -6.2621 H   0  0  0  0  0  0  0  0  0  0  0  0
    0.1044    0.2304   -4.6085 H   0  0  0  0  0  0  0  0  0  0  0  0
    2.1340    1.4386   -5.2616 H   0  0  0  0  0  0  0  0  0  0  0  0
    2.4768    0.2830   -3.9966 H   0  0  0  0  0  0  0  0  0  0  0  0
    4.1732    0.1749   -5.7618 H   0  0  0  0  0  0  0  0  0  0  0  0
    3.2696   -1.3180   -5.6739 H   0  0  0  0  0  0  0  0  0  0  0  0
    4.5385    0.9261   -7.9613 H   0  0  0  0  0  0  0  0  0  0  0  0
   -1.2583   -5.3007    0.1277 H   0  0  0  0  0  0  0  0  0  0  0  0
   -0.8046   -3.8511   -0.7356 H   0  0  0  0  0  0  0  0  0  0  0  0
   -2.6751   -4.0396    1.4986 H   0  0  0  0  0  0  0  0  0  0  0  0
   -2.1460   -2.5574    0.6655 H   0  0  0  0  0  0  0  0  0  0  0  0
    0.1224   -3.3111    1.3695 H   0  0  0  0  0  0  0  0  0  0  0  0
   -0.7399   -4.3275    2.4994 H   0  0  0  0  0  0  0  0  0  0  0  0
   -2.0036   -2.2739    3.2358 H   0  0  0  0  0  0  0  0  0  0  0  0
   -0.2983   -2.2446    3.6149 H   0  0  0  0  0  0  0  0  0  0  0  0
    0.1795   -0.8772    1.9232 H   0  0  0  0  0  0  0  0  0  0  0  0
   -1.9185    0.1373    3.5877 H   0  0  0  0  0  0  0  0  0  0  0  0
   -2.4695    2.6554    1.4284 H   0  0  0  0  0  0  0  0  0  0  0  0
   -0.7662    2.6697   -0.2880 H   0  0  0  0  0  0  0  0  0  0  0  0
   -1.3045    1.0695   -0.7382 H   0  0  0  0  0  0  0  0  0  0  0  0
   -4.7947    3.6199   -2.6515 H   0  0  0  0  0  0  0  0  0  0  0  0
   -5.5736    3.6970   -4.9829 H   0  0  0  0  0  0  0  0  0  0  0  0
   -5.2907    1.7377   -6.4387 H   0  0  0  0  0  0  0  0  0  0  0  0
   -4.2336   -0.2961   -5.5692 H   0  0  0  0  0  0  0  0  0  0  0  0
  1 55  1  0  0  0  0
  1 56  1  0  0  0  0
  1 57  1  0  0  0  0
  2  3  1  0  0  0  0
  2 51  1  0  0  0  0
  2 58  1  6  0  0  0
  2  1  1  0  0  0  0
  3  4  1  0  0  0  0
  3 59  1  0  0  0  0
  3 60  1  0  0  0  0
  4  6  1  0  0  0  0
  4 61  1  6  0  0  0
  4  5  1  0  0  0  0
  5 62  1  0  0  0  0
  6 63  1  0  0  0  0
  7  6  1  0  0  0  0
  7  8  1  0  0  0  0
  7 53  1  0  0  0  0
  7 64  1  6  0  0  0
  8  9  1  0  0  0  0
  8 65  1  0  0  0  0
  8 66  1  0  0  0  0
  9 10  1  0  0  0  0
  9 67  1  0  0  0  0
  9 68  1  0  0  0  0
 10 11  1  0  0  0  0
 10 69  1  0  0  0  0
 10 70  1  0  0  0  0
 11 12  1  0  0  0  0
 11 71  1  0  0  0  0
 11 72  1  0  0  0  0
 12 13  1  0  0  0  0
 12 53  1  0  0  0  0
 14 13  1  1  0  0  0
 14 15  1  0  0  0  0
 14 48  1  0  0  0  0
 14 52  1  0  0  0  0
 15 16  1  0  0  0  0
 16 28  1  0  0  0  0
 16 73  1  6  0  0  0
 16 17  1  0  0  0  0
 17 18  2  0  0  0  0
 17 74  1  0  0  0  0
 18 19  1  0  0  0  0
 18 75  1  0  0  0  0
 19 20  1  0  0  0  0
 19 76  1  0  0  0  0
 19 77  1  0  0  0  0
 20 21  1  0  0  0  0
 20 78  1  0  0  0  0
 20 79  1  0  0  0  0
 21 22  1  0  0  0  0
 21 80  1  0  0  0  0
 21 81  1  0  0  0  0
 22 23  1  0  0  0  0
 22 82  1  0  0  0  0
 22 83  1  0  0  0  0
 23 24  1  0  0  0  0
 23 84  1  0  0  0  0
 23 85  1  0  0  0  0
 24 25  1  0  0  0  0
 24 86  1  0  0  0  0
 24 87  1  0  0  0  0
 25 26  1  0  0  0  0
 25 27  2  0  0  0  0
 26 88  1  0  0  0  0
 28 29  1  0  0  0  0
 28 52  1  6  0  0  0
 29 30  1  0  0  0  0
 29 89  1  0  0  0  0
 29 90  1  0  0  0  0
 30 31  1  0  0  0  0
 30 91  1  0  0  0  0
 30 92  1  0  0  0  0
 31 32  1  0  0  0  0
 31 93  1  0  0  0  0
 31 94  1  0  0  0  0
 32 33  1  0  0  0  0
 32 95  1  0  0  0  0
 32 96  1  0  0  0  0
 33 34  1  0  0  0  0
 33 49  1  0  0  0  0
 33 97  1  6  0  0  0
 34 35  1  0  0  0  0
 34 98  1  0  0  0  0
 35 36  2  0  0  0  0
 35 37  1  0  0  0  0
 37 38  1  0  0  0  0
 37 41  1  0  0  0  0
 37 99  1  1  0  0  0
 38 39  1  0  0  0  0
 38100  1  0  0  0  0
 38101  1  0  0  0  0
 39 40  1  0  0  0  0
 40 41  2  0  0  0  0
 40 42  1  0  0  0  0
 42 43  2  0  0  0  0
 42 47  1  0  0  0  0
 43 44  1  0  0  0  0
 43102  1  0  0  0  0
 44 45  2  0  0  0  0
 44103  1  0  0  0  0
 45 46  1  0  0  0  0
 45104  1  0  0  0  0
 46 47  2  0  0  0  0
 46105  1  0  0  0  0
 47 48  1  0  0  0  0
 49 50  2  0  0  0  0
 49 51  1  0  0  0  0
 53 54  2  0  0  0  0
M  END
>  <DRUGBANK_ID>
DB01926

>  <SECONDARY_ACCESSION_NUMBERS>
EXPT00951

>  <COMMON_NAME>
Carboxymycobactin S

$$$$
