1059
 OpenBabel10282417113D

 41 43  0  0  0  0  0  0  0  0999 V2000
    0.8785   -0.1198   -0.0794 F   0  0  0  0  0  0  0  0  0  0  0  0
    4.4084   -3.6517    0.1867 O   0  0  0  0  0  0  0  0  0  0  0  0
    6.5317   -4.9510    0.7298 O   0  0  0  0  0  0  0  0  0  0  0  0
    8.4274   -3.7949    1.1097 O   0  0  0  0  0  0  0  0  0  0  0  0
    2.2196    2.3579    0.1578 N   0  0  0  0  0  0  0  0  0  0  0  0
    0.5187    4.6595   -0.2836 N   0  0  0  0  0  0  0  0  0  0  0  0
    6.4083   -0.1221    0.5230 N   0  0  0  0  0  0  0  0  0  0  0  0
    1.2616    2.7356    1.2030 C   0  0  0  0  0  0  0  0  0  0  0  0
    2.7247    3.4872   -0.6276 C   0  0  0  0  0  0  0  0  0  0  0  0
    0.0882    3.4979    0.5385 C   0  0  0  0  0  0  0  0  0  0  0  0
    1.5148    4.1940   -1.2770 C   0  0  0  0  0  0  0  0  0  0  0  0
    2.8733    1.1450    0.1688 C   0  0  0  0  0  0  0  0  0  0  0  0
    5.0099   -0.0892    0.3175 C   0  0  0  0  0  0  0  0  0  0  0  0
    4.2659    1.1030    0.2790 C   0  0  0  0  0  0  0  0  0  0  0  0
    4.2960   -1.2871    0.1633 C   0  0  0  0  0  0  0  0  0  0  0  0
    2.2154   -0.0822    0.0259 C   0  0  0  0  0  0  0  0  0  0  0  0
    2.9145   -1.2850   -0.0403 C   0  0  0  0  0  0  0  0  0  0  0  0
    7.1320    1.1601    0.6559 C   0  0  0  0  0  0  0  0  0  0  0  0
    5.0035   -2.5807    0.2940 C   0  0  0  0  0  0  0  0  0  0  0  0
    7.0305   -1.3561    0.7066 C   0  0  0  0  0  0  0  0  0  0  0  0
    6.4457   -2.5644    0.6167 C   0  0  0  0  0  0  0  0  0  0  0  0
    7.1581    1.9446   -0.6579 C   0  0  0  0  0  0  0  0  0  0  0  0
    7.2296   -3.7995    0.8410 C   0  0  0  0  0  0  0  0  0  0  0  0
    5.5743   -4.8307    0.5105 H   0  0  0  0  0  0  0  0  0  0  0  0
    0.9789    5.3294    0.3321 H   0  0  0  0  0  0  0  0  0  0  0  0
    0.8890    1.8781    1.7729 H   0  0  0  0  0  0  0  0  0  0  0  0
    1.7612    3.4062    1.9180 H   0  0  0  0  0  0  0  0  0  0  0  0
    3.2629    4.1859    0.0268 H   0  0  0  0  0  0  0  0  0  0  0  0
    3.4136    3.1630   -1.4156 H   0  0  0  0  0  0  0  0  0  0  0  0
   -0.4691    2.8045   -0.1026 H   0  0  0  0  0  0  0  0  0  0  0  0
   -0.6043    3.8544    1.3080 H   0  0  0  0  0  0  0  0  0  0  0  0
    1.0222    3.5030   -1.9736 H   0  0  0  0  0  0  0  0  0  0  0  0
    1.8643    5.0480   -1.8652 H   0  0  0  0  0  0  0  0  0  0  0  0
    4.7533    2.0641    0.3802 H   0  0  0  0  0  0  0  0  0  0  0  0
    2.3774   -2.2096   -0.2279 H   0  0  0  0  0  0  0  0  0  0  0  0
    6.6973    1.7587    1.4682 H   0  0  0  0  0  0  0  0  0  0  0  0
    8.1722    0.9806    0.9545 H   0  0  0  0  0  0  0  0  0  0  0  0
    8.0901   -1.2791    0.9511 H   0  0  0  0  0  0  0  0  0  0  0  0
    6.1699    2.2169   -1.0372 H   0  0  0  0  0  0  0  0  0  0  0  0
    7.7014    2.8846   -0.5260 H   0  0  0  0  0  0  0  0  0  0  0  0
    7.6302    1.3574   -1.4487 H   0  0  0  0  0  0  0  0  0  0  0  0
  1 16  1  0  0  0  0
  2 19  2  0  0  0  0
  3 23  1  0  0  0  0
  3 24  1  0  0  0  0
  4 23  2  0  0  0  0
  5  8  1  0  0  0  0
  5  9  1  0  0  0  0
  5 12  1  0  0  0  0
  6 10  1  0  0  0  0
  6 11  1  0  0  0  0
  6 25  1  0  0  0  0
  7 13  1  0  0  0  0
  7 18  1  0  0  0  0
  7 20  1  0  0  0  0
  8 10  1  0  0  0  0
  8 26  1  0  0  0  0
  8 27  1  0  0  0  0
  9 11  1  0  0  0  0
  9 28  1  0  0  0  0
  9 29  1  0  0  0  0
 10 30  1  0  0  0  0
 10 31  1  0  0  0  0
 11 32  1  0  0  0  0
 11 33  1  0  0  0  0
 12 14  1  0  0  0  0
 12 16  2  0  0  0  0
 13 14  2  0  0  0  0
 13 15  1  0  0  0  0
 14 34  1  0  0  0  0
 15 17  2  0  0  0  0
 15 19  1  0  0  0  0
 16 17  1  0  0  0  0
 17 35  1  0  0  0  0
 18 22  1  0  0  0  0
 18 36  1  0  0  0  0
 18 37  1  0  0  0  0
 19 21  1  0  0  0  0
 20 21  2  0  0  0  0
 20 38  1  0  0  0  0
 21 23  1  0  0  0  0
 22 39  1  0  0  0  0
 22 40  1  0  0  0  0
 22 41  1  0  0  0  0
M  END
>  <DRUGBANK_ID>
DB01059

>  <SECONDARY_ACCESSION_NUMBERS>
APRD00469

>  <COMMON_NAME>
Norfloxacin

>  <CAS_NUMBER>
70458-96-7

>  <UNII>
N0F8P22L1P

>  <SYNONYMS>
1-Ethyl-6-fluor-1,4-dihydro-4-oxo-7-(1-piperazinyl)-3-chinolincarbons√§ure; 1-Ethyl-6-fluoro-1,4-dihydro-4-oxo-7-(1-piperazinyl)-3-quinolinecarboxylic acid; 1,4-Dihydro-1-ethyl-6-fluoro-4-oxo-7-(1-piperazinyl)-3-quinolinecarboxylic acid; NFLX; Norfloxacin; Norfloxacine; Norfloxacino; Norfloxacinum

$$$$
