
 OpenBabel10282417113D

127129  0  0  0  0  0  0  0  0999 V2000
   -0.7218   -8.7326    4.5460 O   0  0  0  0  0  0  0  0  0  0  0  0
   -0.0863   -7.5695    4.7928 C   0  0  0  0  0  0  0  0  0  0  0  0
    5.0475   -8.0000    8.5196 C   0  0  0  0  0  0  0  0  0  0  0  0
    1.1712   -7.5711    6.5627 O   0  0  0  0  0  0  0  0  0  0  0  0
    4.3175   -7.0325    9.2408 C   0  0  0  0  0  0  0  0  0  0  0  0
    2.4563   -7.5329    8.2076 C   0  0  1  0  0  0  0  0  0  0  0  0
   -0.5455   -9.1769    1.7289 O   0  0  0  0  0  0  0  0  0  0  0  0
    0.2919   -8.5062    0.6580 C   0  0  1  0  0  0  0  0  0  0  0  0
   -0.7477   -7.0980    2.7395 C   0  0  0  0  0  0  0  0  0  0  0  0
   -0.3305   -7.1165    0.8715 C   0  0  1  0  0  0  0  0  0  0  0  0
    4.5700   -7.5098    7.3993 C   0  0  0  0  0  0  0  0  0  0  0  0
    4.2278   -8.4362    6.4215 C   0  0  0  0  0  0  0  0  0  0  0  0
    1.2236   -8.3476    3.0661 C   0  0  0  0  0  0  0  0  0  0  0  0
    1.8111   -8.2399    0.6733 C   0  0  2  0  0  0  0  0  0  0  0  0
    1.7594   -7.1610    1.5696 C   0  0  1  0  0  0  0  0  0  0  0  0
    3.6044   -8.0375    5.3495 C   0  0  0  0  0  0  0  0  0  0  0  0
    1.9515   -9.3150    3.8175 C   0  0  2  0  0  0  0  0  0  0  0  0
    3.4111   -8.9829    4.1870 C   0  0  1  0  0  0  0  0  0  0  0  0
    2.3357   -7.8784   10.2287 C   0  0  0  0  0  0  0  0  0  0  0  0
   -0.3420   -6.0068    2.0781 O   0  0  0  0  0  0  0  0  0  0  0  0
   -2.1652   -8.6451    2.0131 C   0  0  0  0  0  0  0  0  0  0  0  0
    1.7415  -10.2606    2.7487 C   0  0  0  0  0  0  0  0  0  0  0  0
    4.2675   -8.5638    3.1051 O   0  0  0  0  0  0  0  0  0  0  0  0
    1.6149   -5.6222    1.6082 C   0  0  0  0  0  0  0  0  0  0  0  0
    1.2265   -5.2344    0.3832 C   0  0  0  0  0  0  0  0  0  0  0  0
    1.6223   -4.7146   -0.7787 O   0  0  0  0  0  0  0  0  0  0  0  0
    0.7214   -5.8766    3.3979 C   0  0  0  0  0  0  0  0  0  0  0  0
    0.5595   -4.8510    4.0203 O   0  0  0  0  0  0  0  0  0  0  0  0
    2.5622   -6.4323    3.2664 C   0  0  0  0  0  0  0  0  0  0  0  0
    2.8082   -7.8013   -0.2260 O   0  0  0  0  0  0  0  0  0  0  0  0
    2.8531   -6.4300   -0.5222 C   0  0  2  0  0  0  0  0  0  0  0  0
    3.4708   -5.1057    0.7292 O   0  0  0  0  0  0  0  0  0  0  0  0
    0.9994   -6.4600   -1.1292 C   0  0  1  0  0  0  0  0  0  0  0  0
    2.3199   -3.5521    0.6273 C   0  0  1  0  0  0  0  0  0  0  0  0
   -0.2176   -4.8906   -1.0275 C   0  0  2  0  0  0  0  0  0  0  0  0
    0.3310   -3.5619    0.2413 C   0  0  2  0  0  0  0  0  0  0  0  0
    2.3299   -2.9054    1.8954 C   0  0  0  0  0  0  0  0  0  0  0  0
   -0.1385   -2.3823   -0.1969 O   0  0  0  0  0  0  0  0  0  0  0  0
   -1.6389   -4.8805   -1.1555 N   0  0  0  0  0  0  0  0  0  0  0  0
   -1.8798   -5.8906   -2.1774 C   0  0  0  0  0  0  0  0  0  0  0  0
   -2.2507   -5.0309    0.1451 C   0  0  0  0  0  0  0  0  0  0  0  0
    0.5964   -7.3493   -2.0453 O   0  0  0  0  0  0  0  0  0  0  0  0
    0.6090   -2.0643   -1.3124 C   0  0  1  0  0  0  0  0  0  0  0  0
    0.4893   -2.9207   -2.5395 C   0  0  0  0  0  0  0  0  0  0  0  0
    0.1742   -0.7536   -1.5470 O   0  0  0  0  0  0  0  0  0  0  0  0
    1.2858   -2.3567   -3.5842 C   0  0  1  0  0  0  0  0  0  0  0  0
    0.8149   -0.1465   -2.6120 C   0  0  2  0  0  0  0  0  0  0  0  0
    0.6322   -0.9912   -3.8051 C   0  0  2  0  0  0  0  0  0  0  0  0
    2.7864   -2.4382   -3.4607 C   0  0  0  0  0  0  0  0  0  0  0  0
    1.3950   -3.2599   -4.6263 O   0  0  0  0  0  0  0  0  0  0  0  0
   -0.7573   -1.0559   -4.2667 O   0  0  0  0  0  0  0  0  0  0  0  0
   -1.2777   -1.9963   -5.1206 C   0  0  0  0  0  0  0  0  0  0  0  0
   -2.4811   -2.0550   -5.3563 O   0  0  0  0  0  0  0  0  0  0  0  0
   -0.4140   -3.0258   -5.7796 C   0  0  0  0  0  0  0  0  0  0  0  0
    0.7465   -2.4050   -6.6570 C   0  0  0  0  0  0  0  0  0  0  0  0
    1.5573   -1.3365   -6.0455 C   0  0  0  0  0  0  0  0  0  0  0  0
    1.7367   -3.4157   -7.1611 C   0  0  0  0  0  0  0  0  0  0  0  0
    2.2853   -0.0287   -2.3501 C   0  0  0  0  0  0  0  0  0  0  0  0
    5.2889   -9.0035    8.8278 H   0  0  0  0  0  0  0  0  0  0  0  0
    5.6241   -7.0923    9.9719 H   0  0  0  0  0  0  0  0  0  0  0  0
    4.5557   -5.9785    9.6059 H   0  0  0  0  0  0  0  0  0  0  0  0
    3.2000   -7.3513    9.5338 H   0  0  0  0  0  0  0  0  0  0  0  0
    0.1418   -8.9963   -0.2699 H   0  0  0  0  0  0  0  0  0  0  0  0
   -1.1025   -7.5822    1.2721 H   0  0  0  0  0  0  0  0  0  0  0  0
   -1.5435   -7.0464    1.3715 H   0  0  0  0  0  0  0  0  0  0  0  0
   -0.6939   -6.5572   -0.2777 H   0  0  0  0  0  0  0  0  0  0  0  0
    4.0534   -6.4900    7.4524 H   0  0  0  0  0  0  0  0  0  0  0  0
    4.4989   -9.4600    6.5188 H   0  0  0  0  0  0  0  0  0  0  0  0
    1.4226   -7.6450    4.1543 H   0  0  0  0  0  0  0  0  0  0  0  0
    0.3298   -8.0820    3.1610 H   0  0  0  0  0  0  0  0  0  0  0  0
    2.4040   -8.9166    1.1456 H   0  0  0  0  0  0  0  0  0  0  0  0
    3.1033   -6.7986    1.5753 H   0  0  0  0  0  0  0  0  0  0  0  0
    3.2600   -6.9868    5.4072 H   0  0  0  0  0  0  0  0  0  0  0  0
    1.3931   -9.5515    4.7314 H   0  0  0  0  0  0  0  0  0  0  0  0
    3.8118   -9.9344    4.4112 H   0  0  0  0  0  0  0  0  0  0  0  0
    2.7143   -8.8872   10.4339 H   0  0  0  0  0  0  0  0  0  0  0  0
    2.2745   -7.6799   11.5584 H   0  0  0  0  0  0  0  0  0  0  0  0
    2.0979   -6.7996   10.3627 H   0  0  0  0  0  0  0  0  0  0  0  0
   -2.5010   -7.3552    2.2191 H   0  0  0  0  0  0  0  0  0  0  0  0
   -2.3891   -8.7717    0.9741 H   0  0  0  0  0  0  0  0  0  0  0  0
   -2.4989   -8.6715    3.0305 H   0  0  0  0  0  0  0  0  0  0  0  0
    2.3192  -10.9737    3.2060 H   0  0  0  0  0  0  0  0  0  0  0  0
    0.7029  -10.4819    2.5567 H   0  0  0  0  0  0  0  0  0  0  0  0
    2.1876  -10.2295    1.7813 H   0  0  0  0  0  0  0  0  0  0  0  0
    4.2249   -7.5848    3.0086 H   0  0  0  0  0  0  0  0  0  0  0  0
    0.8142   -4.9920    1.8251 H   0  0  0  0  0  0  0  0  0  0  0  0
    2.0781   -4.9711    2.3567 H   0  0  0  0  0  0  0  0  0  0  0  0
    2.1277   -5.1580    0.1778 H   0  0  0  0  0  0  0  0  0  0  0  0
    2.2934   -7.3314    3.1381 H   0  0  0  0  0  0  0  0  0  0  0  0
    2.8900   -7.6659    2.5939 H   0  0  0  0  0  0  0  0  0  0  0  0
    2.8545   -6.9108    4.0517 H   0  0  0  0  0  0  0  0  0  0  0  0
    2.9882   -5.8845   -1.4006 H   0  0  0  0  0  0  0  0  0  0  0  0
    0.9403   -6.8828   -0.2134 H   0  0  0  0  0  0  0  0  0  0  0  0
    2.6627   -3.3229   -0.3470 H   0  0  0  0  0  0  0  0  0  0  0  0
    0.1431   -4.7523   -1.9981 H   0  0  0  0  0  0  0  0  0  0  0  0
   -0.2364   -3.9624    1.1076 H   0  0  0  0  0  0  0  0  0  0  0  0
    3.3682   -3.0705    2.0015 H   0  0  0  0  0  0  0  0  0  0  0  0
    1.8586   -1.9966    1.6186 H   0  0  0  0  0  0  0  0  0  0  0  0
    1.7018   -3.3879    2.6404 H   0  0  0  0  0  0  0  0  0  0  0  0
   -1.4758   -6.8961   -2.0045 H   0  0  0  0  0  0  0  0  0  0  0  0
   -2.9349   -6.0103   -2.2901 H   0  0  0  0  0  0  0  0  0  0  0  0
   -1.4192   -5.5487   -3.1185 H   0  0  0  0  0  0  0  0  0  0  0  0
   -1.7875   -5.7612    0.6721 H   0  0  0  0  0  0  0  0  0  0  0  0
   -1.9017   -4.5423    1.0627 H   0  0  0  0  0  0  0  0  0  0  0  0
   -3.1888   -5.5412    0.1300 H   0  0  0  0  0  0  0  0  0  0  0  0
    0.9560   -6.7835   -2.7305 H   0  0  0  0  0  0  0  0  0  0  0  0
    1.6626   -2.1159   -1.0540 H   0  0  0  0  0  0  0  0  0  0  0  0
    1.1233   -3.7982   -2.5761 H   0  0  0  0  0  0  0  0  0  0  0  0
   -0.5628   -3.1187   -2.7976 H   0  0  0  0  0  0  0  0  0  0  0  0
    0.4420    0.8399   -2.8448 H   0  0  0  0  0  0  0  0  0  0  0  0
    1.2598   -0.2804   -4.3498 H   0  0  0  0  0  0  0  0  0  0  0  0
    3.1233   -3.4537   -3.3734 H   0  0  0  0  0  0  0  0  0  0  0  0
    3.3621   -1.9030   -4.2216 H   0  0  0  0  0  0  0  0  0  0  0  0
    3.2246   -2.0886   -2.5996 H   0  0  0  0  0  0  0  0  0  0  0  0
    1.4114   -4.2129   -4.6492 H   0  0  0  0  0  0  0  0  0  0  0  0
   -0.2729   -3.7691   -4.9697 H   0  0  0  0  0  0  0  0  0  0  0  0
   -0.9113   -3.7616   -6.3939 H   0  0  0  0  0  0  0  0  0  0  0  0
    0.2717   -1.8299   -7.4302 H   0  0  0  0  0  0  0  0  0  0  0  0
    2.1290   -1.6882   -5.2449 H   0  0  0  0  0  0  0  0  0  0  0  0
    2.3980   -0.8137   -6.4185 H   0  0  0  0  0  0  0  0  0  0  0  0
    0.7757   -0.6529   -5.7982 H   0  0  0  0  0  0  0  0  0  0  0  0
    1.1948   -4.1258   -7.7598 H   0  0  0  0  0  0  0  0  0  0  0  0
    2.5130   -2.9090   -7.7328 H   0  0  0  0  0  0  0  0  0  0  0  0
    2.2615   -3.9640   -6.3708 H   0  0  0  0  0  0  0  0  0  0  0  0
    2.9197    0.1922   -3.2174 H   0  0  0  0  0  0  0  0  0  0  0  0
    2.5407    0.4589   -1.4473 H   0  0  0  0  0  0  0  0  0  0  0  0
    2.5513   -0.9449   -1.9173 H   0  0  0  0  0  0  0  0  0  0  0  0
  2  1  2  0  0  0  0
  3 59  1  0  0  0  0
  4  2  1  0  0  0  0
  5  3  1  0  0  0  0
  5 60  1  0  0  0  0
  5 61  1  0  0  0  0
  6  4  1  0  0  0  0
  6  5  1  0  0  0  0
  6 62  1  6  0  0  0
  6 19  1  0  0  0  0
  7 21  1  0  0  0  0
  8 63  1  6  0  0  0
  8  7  1  0  0  0  0
  9  2  1  0  0  0  0
  9 64  1  0  0  0  0
  9 65  1  0  0  0  0
 10  8  1  0  0  0  0
 10  9  1  0  0  0  0
 10 66  1  6  0  0  0
 10 20  1  0  0  0  0
 11  3  2  0  0  0  0
 11 67  1  0  0  0  0
 12 11  1  0  0  0  0
 12 68  1  0  0  0  0
 13 69  1  0  0  0  0
 13 70  1  0  0  0  0
 14  8  1  0  0  0  0
 14 71  1  1  0  0  0
 14 30  1  0  0  0  0
 15 13  1  0  0  0  0
 15 14  1  0  0  0  0
 15 72  1  1  0  0  0
 15 24  1  0  0  0  0
 16 12  2  0  0  0  0
 16 73  1  0  0  0  0
 17 13  1  0  0  0  0
 17 74  1  1  0  0  0
 17 22  1  0  0  0  0
 18 16  1  0  0  0  0
 18 17  1  0  0  0  0
 18 75  1  1  0  0  0
 18 23  1  0  0  0  0
 19 76  1  0  0  0  0
 19 77  1  0  0  0  0
 19 78  1  0  0  0  0
 20 27  1  0  0  0  0
 21 79  1  0  0  0  0
 21 80  1  0  0  0  0
 21 81  1  0  0  0  0
 22 82  1  0  0  0  0
 22 83  1  0  0  0  0
 22 84  1  0  0  0  0
 23 85  1  0  0  0  0
 24 25  1  0  0  0  0
 24 86  1  0  0  0  0
 24 87  1  0  0  0  0
 25 88  1  0  0  0  0
 26 25  2  0  0  0  0
 27 28  2  0  0  0  0
 27 29  1  0  0  0  0
 29 89  1  0  0  0  0
 29 90  1  0  0  0  0
 29 91  1  0  0  0  0
 31 92  1  6  0  0  0
 31 30  1  0  0  0  0
 32 31  1  0  0  0  0
 33 31  1  0  0  0  0
 33 42  1  0  0  0  0
 33 93  1  1  0  0  0
 34 32  1  0  0  0  0
 34 37  1  0  0  0  0
 34 94  1  6  0  0  0
 35 33  1  0  0  0  0
 35 39  1  0  0  0  0
 35 95  1  6  0  0  0
 36 34  1  0  0  0  0
 36 35  1  0  0  0  0
 36 96  1  1  0  0  0
 36 38  1  0  0  0  0
 37 97  1  0  0  0  0
 37 98  1  0  0  0  0
 37 99  1  0  0  0  0
 39 40  1  0  0  0  0
 39 41  1  0  0  0  0
 40100  1  0  0  0  0
 40101  1  0  0  0  0
 40102  1  0  0  0  0
 41103  1  0  0  0  0
 41104  1  0  0  0  0
 41105  1  0  0  0  0
 42106  1  0  0  0  0
 43107  1  1  0  0  0
 43 38  1  0  0  0  0
 44 43  1  0  0  0  0
 44108  1  0  0  0  0
 44109  1  0  0  0  0
 45 43  1  0  0  0  0
 46 44  1  0  0  0  0
 46 49  1  0  0  0  0
 46 50  1  6  0  0  0
 47 45  1  0  0  0  0
 47 58  1  0  0  0  0
 47110  1  6  0  0  0
 48 46  1  0  0  0  0
 48 47  1  0  0  0  0
 48111  1  6  0  0  0
 48 51  1  0  0  0  0
 49112  1  0  0  0  0
 49113  1  0  0  0  0
 49114  1  0  0  0  0
 50115  1  0  0  0  0
 51 52  1  0  0  0  0
 52 53  2  0  0  0  0
 52 54  1  0  0  0  0
 54 55  1  0  0  0  0
 54116  1  0  0  0  0
 54117  1  0  0  0  0
 55 56  1  0  0  0  0
 55 57  1  0  0  0  0
 55118  1  0  0  0  0
 56119  1  0  0  0  0
 56120  1  0  0  0  0
 56121  1  0  0  0  0
 57122  1  0  0  0  0
 57123  1  0  0  0  0
 57124  1  0  0  0  0
 58125  1  0  0  0  0
 58126  1  0  0  0  0
 58127  1  0  0  0  0
M  END
>  <DRUGBANK_ID>
DB01321

>  <COMMON_NAME>
Josamycin

>  <CAS_NUMBER>
16846-24-5

>  <UNII>
HV13HFS217

>  <SYNONYMS>
JM; Josamicina; Josamycin; Josamycine; Josamycinum; Kitasamycin A3; Leucomycin A3; leucomycin V 3-acetate 4B-(3-methylbutanoate); leucomycin V 3-acetate 4β-(3-methylbutanoate); Turimycin A5

$$$$
