
 OpenBabel10282417203D

 36 39  0  0  0  0  0  0  0  0999 V2000
   -3.6930    0.0934    0.8233 C   0  0  0  0  0  0  0  0  0  0  0  0
   -3.3094   -1.2428    0.7443 C   0  0  0  0  0  0  0  0  0  0  0  0
   -2.1026   -1.5857    0.1364 C   0  0  0  0  0  0  0  0  0  0  0  0
   -1.2685   -0.5853   -0.3984 C   0  0  0  0  0  0  0  0  0  0  0  0
   -1.6343    0.7698   -0.2583 C   0  0  0  0  0  0  0  0  0  0  0  0
   -2.8571    1.0940    0.3337 C   0  0  0  0  0  0  0  0  0  0  0  0
   -0.7268    1.8727   -0.7434 C   0  0  0  0  0  0  0  0  0  0  0  0
    0.5212    1.9555    0.0988 C   0  0  0  0  0  0  0  0  0  0  0  0
    1.4964    0.7875    0.0594 C   0  0  0  0  0  0  0  0  0  0  0  0
    2.7342    1.0991    0.6656 C   0  0  0  0  0  0  0  0  0  0  0  0
    3.7448    0.1584    0.7801 C   0  0  0  0  0  0  0  0  0  0  0  0
    3.5487   -1.1257    0.3061 C   0  0  0  0  0  0  0  0  0  0  0  0
    2.3358   -1.4670   -0.3037 C   0  0  0  0  0  0  0  0  0  0  0  0
    1.2804   -0.5265   -0.4583 C   0  0  0  0  0  0  0  0  0  0  0  0
   -0.0132   -0.9654   -1.1745 C   0  0  3  0  0  0  0  0  0  0  0  0
   -0.0593   -0.5237   -2.5964 N   0  0  0  0  0  0  0  0  0  0  0  0
    0.9566   -0.6219   -3.5153 C   0  0  0  0  0  0  0  0  0  0  0  0
    0.5420    0.1264   -4.5943 C   0  0  0  0  0  0  0  0  0  0  0  0
   -0.7245    0.5937   -4.4100 N   0  0  0  0  0  0  0  0  0  0  0  0
   -1.0956    0.1140   -3.2406 C   0  0  0  0  0  0  0  0  0  0  0  0
    2.2232   -3.1108   -0.8491 Cl  0  0  0  0  0  0  0  0  0  0  0  0
    5.2338    0.5956    1.5172 Cl  0  0  0  0  0  0  0  0  0  0  0  0
   -4.6469    0.3622    1.2682 H   0  0  0  0  0  0  0  0  0  0  0  0
   -3.9623   -2.0172    1.1398 H   0  0  0  0  0  0  0  0  0  0  0  0
   -1.8343   -2.6395    0.0664 H   0  0  0  0  0  0  0  0  0  0  0  0
   -3.1688    2.1332    0.4029 H   0  0  0  0  0  0  0  0  0  0  0  0
   -0.4032    1.7680   -1.7747 H   0  0  0  0  0  0  0  0  0  0  0  0
   -1.2664    2.8255   -0.7464 H   0  0  0  0  0  0  0  0  0  0  0  0
    1.0627    2.8446   -0.2536 H   0  0  0  0  0  0  0  0  0  0  0  0
    0.2399    2.1419    1.1436 H   0  0  0  0  0  0  0  0  0  0  0  0
    2.9011    2.1044    1.0535 H   0  0  0  0  0  0  0  0  0  0  0  0
    4.3406   -1.8632    0.4073 H   0  0  0  0  0  0  0  0  0  0  0  0
   -0.0455   -2.0567   -1.2753 H   0  0  0  0  0  0  0  0  0  0  0  0
    1.8743   -1.1552   -3.3254 H   0  0  0  0  0  0  0  0  0  0  0  0
    1.0853    0.3486   -5.5025 H   0  0  0  0  0  0  0  0  0  0  0  0
   -2.0544    0.3172   -2.7853 H   0  0  0  0  0  0  0  0  0  0  0  0
  1  2  2  0  0  0  0
  1  6  1  0  0  0  0
  1 23  1  0  0  0  0
  2  3  1  0  0  0  0
  2 24  1  0  0  0  0
  3  4  2  0  0  0  0
  3 25  1  0  0  0  0
  4  5  1  0  0  0  0
  4 15  1  0  0  0  0
  5  6  2  0  0  0  0
  5  7  1  0  0  0  0
  6 26  1  0  0  0  0
  7  8  1  0  0  0  0
  7 27  1  0  0  0  0
  7 28  1  0  0  0  0
  8  9  1  0  0  0  0
  8 29  1  0  0  0  0
  8 30  1  0  0  0  0
  9 10  2  0  0  0  0
  9 14  1  0  0  0  0
 10 11  1  0  0  0  0
 10 31  1  0  0  0  0
 11 12  2  0  0  0  0
 11 22  1  0  0  0  0
 12 13  1  0  0  0  0
 12 32  1  0  0  0  0
 13 14  2  0  0  0  0
 13 21  1  0  0  0  0
 14 15  1  0  0  0  0
 15 16  1  0  0  0  0
 15 33  1  0  0  0  0
 16 17  1  0  0  0  0
 16 20  1  0  0  0  0
 17 18  2  0  0  0  0
 17 34  1  0  0  0  0
 18 19  1  0  0  0  0
 18 35  1  0  0  0  0
 19 20  2  0  0  0  0
 20 36  1  0  0  0  0
M  END
>  <DRUGBANK_ID>
DB13656

>  <COMMON_NAME>
Eberconazole

>  <CAS_NUMBER>
128326-82-9

>  <UNII>
V7O1U41C9B

>  <SYNONYMS>
Eberconazole

$$$$
