
 OpenBabel10282417143D

 85 90  0  0  1  0  0  0  0  0999 V2000
    0.8075    0.2873    0.5514 C   0  0  0  0  0  0  0  0  0  0  0  0
    0.2921   -1.1326    0.5806 C   0  0  0  0  0  0  0  0  0  0  0  0
    0.9990   -2.1953    1.1950 O   0  0  0  0  0  0  0  0  0  0  0  0
    2.3910   -2.2803    0.7961 C   0  0  0  0  0  0  0  0  0  0  0  0
    2.8067   -2.6889   -0.6586 C   0  0  0  0  0  0  0  0  0  0  0  0
    2.5193   -1.7055   -1.6750 O   0  0  0  0  0  0  0  0  0  0  0  0
    1.2200   -1.6598   -2.0365 C   0  0  0  0  0  0  0  0  0  0  0  0
    0.4059   -2.5599   -1.8559 O   0  0  0  0  0  0  0  0  0  0  0  0
    0.7794   -0.3689   -2.3028 N   0  0  0  0  0  0  0  0  0  0  0  0
    1.4937    0.3750   -3.2598 C   0  0  1  0  0  0  0  0  0  0  0  0
    0.8810    0.1026   -4.5787 C   0  0  0  0  0  0  0  0  0  0  0  0
   -0.6195    0.4272   -5.1718 C   0  0  0  0  0  0  0  0  0  0  0  0
   -1.5092   -0.4500   -5.9255 C   0  0  0  0  0  0  0  0  0  0  0  0
   -2.8525   -0.2636   -6.1264 C   0  0  0  0  0  0  0  0  0  0  0  0
   -3.2548    1.0277   -6.1022 C   0  0  0  0  0  0  0  0  0  0  0  0
   -2.3541    2.0166   -5.7151 C   0  0  0  0  0  0  0  0  0  0  0  0
   -1.1040    1.7170   -5.1758 C   0  0  0  0  0  0  0  0  0  0  0  0
    1.3690    1.8295   -3.2991 C   0  0  1  0  0  0  0  0  0  0  0  0
    1.6687    2.3451   -2.0247 O   0  0  0  0  0  0  0  0  0  0  0  0
    2.2333    2.3839   -4.4738 C   0  0  0  0  0  0  0  0  0  0  0  0
    2.2599    2.1329   -6.1651 C   0  0  2  0  0  0  0  0  0  0  0  0
    2.9510    3.3589   -6.7338 C   0  0  0  0  0  0  0  0  0  0  0  0
    2.2641    4.6754   -6.3373 C   0  0  0  0  0  0  0  0  0  0  0  0
    2.3360    5.2349   -5.0374 C   0  0  0  0  0  0  0  0  0  0  0  0
    1.6534    6.3835   -4.6751 C   0  0  0  0  0  0  0  0  0  0  0  0
    1.1046    7.1469   -5.6820 C   0  0  0  0  0  0  0  0  0  0  0  0
    1.1087    6.6729   -6.9966 C   0  0  0  0  0  0  0  0  0  0  0  0
    1.5638    5.3904   -7.3007 C   0  0  0  0  0  0  0  0  0  0  0  0
    1.0371    2.0068   -6.9955 N   0  0  0  0  0  0  0  0  0  0  0  0
    0.7974    0.7216   -7.5216 C   0  0  0  0  0  0  0  0  0  0  0  0
    1.6051   -0.2913   -7.0841 C   0  0  0  0  0  0  0  0  0  0  0  0
    0.9034   -1.7381   -6.3639 C   0  0  2  0  0  0  0  0  0  0  0  0
   -0.0983   -2.0154   -4.7394 C   0  0  2  0  0  0  0  0  0  0  0  0
   -1.3096   -1.7253   -3.9229 O   0  0  0  0  0  0  0  0  0  0  0  0
   -1.7559   -2.9137   -3.3745 C   0  0  0  0  0  0  0  0  0  0  0  0
   -2.4714   -3.1079   -2.4419 O   0  0  0  0  0  0  0  0  0  0  0  0
   -1.4158   -3.8500   -4.3132 N   0  0  0  0  0  0  0  0  0  0  0  0
   -0.2971   -3.4076   -5.0207 C   0  0  2  0  0  0  0  0  0  0  0  0
    1.1490   -3.6324   -4.9007 C   0  0  0  0  0  0  0  0  0  0  0  0
    1.8317   -4.0906   -3.8056 C   0  0  0  0  0  0  0  0  0  0  0  0
    3.1652   -4.3280   -3.9647 C   0  0  0  0  0  0  0  0  0  0  0  0
    3.7282   -4.1097   -5.2294 C   0  0  0  0  0  0  0  0  0  0  0  0
    3.0719   -3.3498   -6.2202 C   0  0  0  0  0  0  0  0  0  0  0  0
    1.8291   -2.8964   -5.9085 C   0  0  0  0  0  0  0  0  0  0  0  0
    2.8177    0.6291   -6.5649 C   0  0  0  0  0  0  0  0  0  0  0  0
    3.9256    0.2011   -6.2821 O   0  0  0  0  0  0  0  0  0  0  0  0
    0.6817    0.7905    1.4932 H   0  0  0  0  0  0  0  0  0  0  0  0
    0.2378    0.8243   -0.2133 H   0  0  0  0  0  0  0  0  0  0  0  0
    1.8609    0.3348    0.2234 H   0  0  0  0  0  0  0  0  0  0  0  0
   -0.7517   -1.3151    0.2689 H   0  0  0  0  0  0  0  0  0  0  0  0
    0.6909   -1.3111   -0.3316 H   0  0  0  0  0  0  0  0  0  0  0  0
    2.8497   -1.3202    1.0304 H   0  0  0  0  0  0  0  0  0  0  0  0
    2.8184   -3.0248    1.4690 H   0  0  0  0  0  0  0  0  0  0  0  0
    3.9013   -2.7540   -0.6765 H   0  0  0  0  0  0  0  0  0  0  0  0
    2.4287   -3.6790   -0.9333 H   0  0  0  0  0  0  0  0  0  0  0  0
   -0.2340   -0.3260   -2.3873 H   0  0  0  0  0  0  0  0  0  0  0  0
    2.5623    0.0852   -3.2102 H   0  0  0  0  0  0  0  0  0  0  0  0
    1.4536    0.6907   -5.1727 H   0  0  0  0  0  0  0  0  0  0  0  0
    1.5488   -0.7305   -4.8094 H   0  0  0  0  0  0  0  0  0  0  0  0
   -1.3042   -1.4269   -6.3450 H   0  0  0  0  0  0  0  0  0  0  0  0
   -3.4836   -1.1180   -6.3657 H   0  0  0  0  0  0  0  0  0  0  0  0
   -4.2456    1.2593   -6.4531 H   0  0  0  0  0  0  0  0  0  0  0  0
   -2.6065    3.0590   -5.8295 H   0  0  0  0  0  0  0  0  0  0  0  0
   -0.4741    2.5657   -4.9475 H   0  0  0  0  0  0  0  0  0  0  0  0
    0.3261    2.0896   -3.3940 H   0  0  0  0  0  0  0  0  0  0  0  0
    0.9887    1.8911   -1.4877 H   0  0  0  0  0  0  0  0  0  0  0  0
    1.8427    3.3529   -4.3088 H   0  0  0  0  0  0  0  0  0  0  0  0
    3.2812    2.2914   -4.1534 H   0  0  0  0  0  0  0  0  0  0  0  0
    3.9924    3.3768   -6.4209 H   0  0  0  0  0  0  0  0  0  0  0  0
    2.9272    3.2641   -7.8273 H   0  0  0  0  0  0  0  0  0  0  0  0
    2.8952    4.7725   -4.2237 H   0  0  0  0  0  0  0  0  0  0  0  0
    1.6508    6.7012   -3.6350 H   0  0  0  0  0  0  0  0  0  0  0  0
    0.7208    8.1325   -5.4473 H   0  0  0  0  0  0  0  0  0  0  0  0
    0.7964    7.3265   -7.8029 H   0  0  0  0  0  0  0  0  0  0  0  0
    1.4430    4.9921   -8.3053 H   0  0  0  0  0  0  0  0  0  0  0  0
    0.2655    2.6669   -6.8947 H   0  0  0  0  0  0  0  0  0  0  0  0
   -0.2421    0.6014   -7.8224 H   0  0  0  0  0  0  0  0  0  0  0  0
    0.3041   -2.1063   -7.2024 H   0  0  0  0  0  0  0  0  0  0  0  0
    0.5853   -1.8341   -3.9523 H   0  0  0  0  0  0  0  0  0  0  0  0
   -2.1709   -3.6708   -4.9678 H   0  0  0  0  0  0  0  0  0  0  0  0
   -0.6191   -3.4162   -6.0489 H   0  0  0  0  0  0  0  0  0  0  0  0
    1.3358   -4.2331   -2.8531 H   0  0  0  0  0  0  0  0  0  0  0  0
    3.6885   -4.7908   -3.1366 H   0  0  0  0  0  0  0  0  0  0  0  0
    4.6977   -4.5483   -5.4255 H   0  0  0  0  0  0  0  0  0  0  0  0
    3.5146   -3.1968   -7.1953 H   0  0  0  0  0  0  0  0  0  0  0  0
  1  2  1  0  0  0  0
  1 47  1  0  0  0  0
  1 48  1  0  0  0  0
  1 49  1  0  0  0  0
  2  3  1  0  0  0  0
  2 50  1  0  0  0  0
  2 51  1  0  0  0  0
  3  4  1  0  0  0  0
  4  5  1  0  0  0  0
  4 52  1  0  0  0  0
  4 53  1  0  0  0  0
  5  6  1  0  0  0  0
  5 54  1  0  0  0  0
  5 55  1  0  0  0  0
  6  7  1  0  0  0  0
  7  8  2  0  0  0  0
  7  9  1  0  0  0  0
  9 56  1  0  0  0  0
 10  9  1  0  0  0  0
 10 11  1  0  0  0  0
 10 18  1  0  0  0  0
 10 57  1  6  0  0  0
 11 12  1  0  0  0  0
 11 58  1  0  0  0  0
 11 59  1  0  0  0  0
 12 13  2  0  0  0  0
 12 17  1  0  0  0  0
 13 14  1  0  0  0  0
 13 60  1  0  0  0  0
 14 15  2  0  0  0  0
 14 61  1  0  0  0  0
 15 16  1  0  0  0  0
 15 62  1  0  0  0  0
 16 17  2  0  0  0  0
 16 63  1  0  0  0  0
 17 64  1  0  0  0  0
 18 19  1  0  0  0  0
 18 20  1  0  0  0  0
 18 65  1  6  0  0  0
 19 66  1  0  0  0  0
 20 67  1  0  0  0  0
 20 68  1  0  0  0  0
 21 20  1  1  0  0  0
 21 22  1  0  0  0  0
 21 29  1  0  0  0  0
 21 45  1  0  0  0  0
 22 23  1  0  0  0  0
 22 69  1  0  0  0  0
 22 70  1  0  0  0  0
 23 24  2  0  0  0  0
 23 28  1  0  0  0  0
 24 25  1  0  0  0  0
 24 71  1  0  0  0  0
 25 26  2  0  0  0  0
 25 72  1  0  0  0  0
 26 27  1  0  0  0  0
 26 73  1  0  0  0  0
 27 28  2  0  0  0  0
 27 74  1  0  0  0  0
 28 75  1  0  0  0  0
 29 30  1  0  0  0  0
 29 76  1  0  0  0  0
 30 31  2  0  0  0  0
 30 77  1  0  0  0  0
 31 45  1  0  0  0  0
 32 31  1  0  0  0  0
 32 33  1  0  0  0  0
 32 44  1  0  0  0  0
 32 78  1  6  0  0  0
 33 34  1  0  0  0  0
 33 38  1  0  0  0  0
 33 79  1  6  0  0  0
 34 35  1  0  0  0  0
 35 36  2  0  0  0  0
 35 37  1  0  0  0  0
 37 80  1  0  0  0  0
 38 37  1  0  0  0  0
 38 39  1  0  0  0  0
 38 81  1  6  0  0  0
 39 40  2  0  0  0  0
 39 44  1  0  0  0  0
 40 41  1  0  0  0  0
 40 82  1  0  0  0  0
 41 42  2  0  0  0  0
 41 83  1  0  0  0  0
 42 43  1  0  0  0  0
 42 84  1  0  0  0  0
 43 44  2  0  0  0  0
 43 85  1  0  0  0  0
 45 46  2  0  0  0  0
M  END
>  <DRUGBANK_ID>
DB04623

>  <COMMON_NAME>
2-ETHOXYETHYL (2S,3S)-4-((S)-2-BENZYL-3-OXO-4-((3AR,8R,8AS)-2-OXO-3,3A,8,8A-TETRAHYDRO-2H-INDENO[1,2-D]OXAZOL-8-YL)-2,3-DIHYDRO-1H-PYRROL-2-YL)-3-HYDROXY-1-PHENYLBUTAN-2-YLCARBAMATE

$$$$
