2O7
 OpenBabel10282417163D

 43 46  0  0  0  0  0  0  0  0999 V2000
    0.1194   -0.8384   -0.2505 C   0  0  2  0  0  0  0  0  0  0  0  0
    1.2964    1.3341    0.1038 C   0  0  0  0  0  0  0  0  0  0  0  0
    1.6134   -0.8564   -0.1695 C   0  0  0  0  0  0  0  0  0  0  0  0
   -1.2324    1.0924    0.0368 C   0  0  0  0  0  0  0  0  0  0  0  0
   -2.1690   -0.0521   -0.0361 C   0  0  0  0  0  0  0  0  0  0  0  0
   -1.3600   -1.1210   -0.0240 C   0  0  0  0  0  0  0  0  0  0  0  0
   -1.8219   -2.5688   -0.0541 C   0  0  0  0  0  0  0  0  0  0  0  0
   -5.6697    0.5990   -1.3147 C   0  0  0  0  0  0  0  0  0  0  0  0
   -6.4488    0.0018   -0.3281 C   0  0  0  0  0  0  0  0  0  0  0  0
   -4.4206   -0.6045    0.8586 C   0  0  0  0  0  0  0  0  0  0  0  0
   -1.5506    2.2647   -0.0302 O   0  0  0  0  0  0  0  0  0  0  0  0
    1.5141   -3.1674    0.7289 C   0  0  0  0  0  0  0  0  0  0  0  0
    2.0806   -2.8271    1.9519 C   0  0  0  0  0  0  0  0  0  0  0  0
    3.4022   -3.0933    2.0935 C   0  0  0  0  0  0  0  0  0  0  0  0
    0.0384    0.5489    0.2007 N   0  0  0  0  0  0  0  0  0  0  0  0
    2.3259    0.3869   -0.4419 C   0  0  0  0  0  0  0  0  0  0  0  0
   -2.2051   -3.7699   -0.0791 N   0  0  0  0  0  0  0  0  0  0  0  0
   -3.6299   -0.0033   -0.1279 C   0  0  0  0  0  0  0  0  0  0  0  0
   -4.2716    0.6029   -1.2207 C   0  0  0  0  0  0  0  0  0  0  0  0
   -5.8150   -0.5948    0.7570 C   0  0  0  0  0  0  0  0  0  0  0  0
   -6.7533   -1.3301    1.9982 Cl  0  0  0  0  0  0  0  0  0  0  0  0
   -6.4375    1.3351   -2.6701 Cl  0  0  0  0  0  0  0  0  0  0  0  0
    0.3213   -2.3621    0.3867 C   0  0  0  0  0  0  0  0  0  0  0  0
    4.0373   -3.8732    1.1191 C   0  0  0  0  0  0  0  0  0  0  0  0
    3.4232   -4.2618   -0.0813 C   0  0  0  0  0  0  0  0  0  0  0  0
    2.1279   -3.9008   -0.2938 C   0  0  0  0  0  0  0  0  0  0  0  0
    5.3254   -4.3880    1.4390 C   0  0  0  0  0  0  0  0  0  0  0  0
    6.3132   -4.8637    1.7698 N   0  0  0  0  0  0  0  0  0  0  0  0
    1.5602    1.6403    1.1220 H   0  0  0  0  0  0  0  0  0  0  0  0
    1.2443    2.1991   -0.5553 H   0  0  0  0  0  0  0  0  0  0  0  0
    2.0133   -1.5704   -0.8856 H   0  0  0  0  0  0  0  0  0  0  0  0
    1.8396   -0.9134    0.9010 H   0  0  0  0  0  0  0  0  0  0  0  0
   -7.5336    0.0034   -0.4010 H   0  0  0  0  0  0  0  0  0  0  0  0
   -3.9562   -1.0792    1.7196 H   0  0  0  0  0  0  0  0  0  0  0  0
    1.5595   -2.1419    2.6255 H   0  0  0  0  0  0  0  0  0  0  0  0
    3.9165   -2.6655    2.9455 H   0  0  0  0  0  0  0  0  0  0  0  0
    3.2649    0.3048    0.1293 H   0  0  0  0  0  0  0  0  0  0  0  0
    2.5306    0.3961   -1.5100 H   0  0  0  0  0  0  0  0  0  0  0  0
   -3.6922    1.0784   -2.0105 H   0  0  0  0  0  0  0  0  0  0  0  0
   -0.2749   -2.5374    1.2999 H   0  0  0  0  0  0  0  0  0  0  0  0
    0.0804   -2.9312   -0.5449 H   0  0  0  0  0  0  0  0  0  0  0  0
    3.9419   -4.8040   -0.8629 H   0  0  0  0  0  0  0  0  0  0  0  0
    1.6542   -4.0361   -1.2712 H   0  0  0  0  0  0  0  0  0  0  0  0
  1 15  1  0  0  0  0
  1  3  1  0  0  0  0
  1 23  1  1  0  0  0
  2 16  1  0  0  0  0
  2 29  1  0  0  0  0
  2 30  1  0  0  0  0
  3 16  1  0  0  0  0
  3 31  1  0  0  0  0
  3 32  1  0  0  0  0
  4 15  1  0  0  0  0
  4 11  2  0  0  0  0
  5  4  1  0  0  0  0
  6  1  1  0  0  0  0
  6  5  2  0  0  0  0
  7  6  1  0  0  0  0
  8 19  1  0  0  0  0
  8 22  1  0  0  0  0
  9  8  2  0  0  0  0
  9 33  1  0  0  0  0
 10 18  1  0  0  0  0
 10 34  1  0  0  0  0
 12 23  1  0  0  0  0
 13 12  2  0  0  0  0
 13 35  1  0  0  0  0
 14 13  1  0  0  0  0
 14 36  1  0  0  0  0
 15  2  1  0  0  0  0
 16 37  1  0  0  0  0
 16 38  1  0  0  0  0
 17  7  3  0  0  0  0
 18  5  1  0  0  0  0
 18 19  2  0  0  0  0
 19 39  1  0  0  0  0
 20 10  2  0  0  0  0
 20  9  1  0  0  0  0
 21 20  1  0  0  0  0
 23 40  1  0  0  0  0
 23 41  1  0  0  0  0
 24 14  2  0  0  0  0
 24 25  1  0  0  0  0
 25 26  2  0  0  0  0
 25 42  1  0  0  0  0
 26 12  1  0  0  0  0
 26 43  1  0  0  0  0
 27 24  1  0  0  0  0
 28 27  3  0  0  0  0
M  END
>  <DRUGBANK_ID>
DB06972

>  <COMMON_NAME>
7A-[(4-cyanophenyl)methyl]-6-(3,5-dichlorophenyl)-5-oxo-2,3,5,7A-tetrahydro-1H-pyrrolo[1,2-A]pyrrole-7-carbonitrile

$$$$
