
 OpenBabel10282417133D

 20 19  0  0  0  0  0  0  0  0999 V2000
    1.1232    0.0875    0.0554 C   0  0  0  0  0  0  0  0  0  0  0  0
    0.5714    0.4907   -1.2917 N   0  3  0  0  0  0  0  0  0  0  0  0
    1.0483   -0.4713   -2.3384 C   0  0  0  0  0  0  0  0  0  0  0  0
    0.5508   -1.7719   -2.1549 O   0  0  0  0  0  0  0  0  0  0  0  0
   -0.9266    0.4830   -1.2941 C   0  0  0  0  0  0  0  0  0  0  0  0
   -1.4812    1.4277   -0.4059 O   0  0  0  0  0  0  0  0  0  0  0  0
    1.0550    1.8722   -1.6317 C   0  0  0  0  0  0  0  0  0  0  0  0
    0.7069    2.8501   -0.6827 O   0  0  0  0  0  0  0  0  0  0  0  0
    0.7321   -0.9013    0.3143 H   0  0  0  0  0  0  0  0  0  0  0  0
    0.8095    0.8102    0.8130 H   0  0  0  0  0  0  0  0  0  0  0  0
    2.2154    0.0568   -0.0066 H   0  0  0  0  0  0  0  0  0  0  0  0
    0.7035   -0.1114   -3.3164 H   0  0  0  0  0  0  0  0  0  0  0  0
    2.1452   -0.4807   -2.3448 H   0  0  0  0  0  0  0  0  0  0  0  0
    1.0725   -2.2173   -1.4594 H   0  0  0  0  0  0  0  0  0  0  0  0
   -1.2638    0.7418   -2.3057 H   0  0  0  0  0  0  0  0  0  0  0  0
   -1.2938   -0.5193   -1.0477 H   0  0  0  0  0  0  0  0  0  0  0  0
   -1.3964    1.0738    0.4989 H   0  0  0  0  0  0  0  0  0  0  0  0
    2.1488    1.8383   -1.6873 H   0  0  0  0  0  0  0  0  0  0  0  0
    0.6659    2.1567   -2.6167 H   0  0  0  0  0  0  0  0  0  0  0  0
   -0.2710    2.8914   -0.6546 H   0  0  0  0  0  0  0  0  0  0  0  0
  1  2  1  0  0  0  0
  1  9  1  0  0  0  0
  1 10  1  0  0  0  0
  1 11  1  0  0  0  0
  2  3  1  0  0  0  0
  2  5  1  0  0  0  0
  2  7  1  0  0  0  0
  3  4  1  0  0  0  0
  3 12  1  0  0  0  0
  3 13  1  0  0  0  0
  4 14  1  0  0  0  0
  5  6  1  0  0  0  0
  5 15  1  0  0  0  0
  5 16  1  0  0  0  0
  6 17  1  0  0  0  0
  7  8  1  0  0  0  0
  7 18  1  0  0  0  0
  7 19  1  0  0  0  0
  8 20  1  0  0  0  0
M  CHG  1   2   1
M  END
>  <DRUGBANK_ID>
DB03570

>  <SECONDARY_ACCESSION_NUMBERS>
EXPT00030

>  <COMMON_NAME>
Tris-Hydroxymethyl-Methyl-Ammonium

>  <UNII>
89W2RM9EWB

$$$$
