Tyramine.mol
 OpenBabel10282417123D

 29 30  0  0  0  0  0  0  0  0999 V2000
    1.0607   -0.0445    0.1423 O   0  0  0  0  0  0  0  0  0  0  0  0
    0.5613   -1.3351   -0.2181 C   0  0  0  0  0  0  0  0  0  0  0  0
    1.0192   -1.7119   -1.6368 C   0  0  2  0  0  0  0  0  0  0  0  0
   -0.0570   -2.4301   -2.4382 C   0  0  1  0  0  0  0  0  0  0  0  0
    0.0696   -2.1112   -3.8348 O   0  0  0  0  0  0  0  0  0  0  0  0
    0.2305   -3.9031   -2.2051 C   0  0  1  0  0  0  0  0  0  0  0  0
   -0.2713   -4.6865   -3.2832 O   0  0  0  0  0  0  0  0  0  0  0  0
    1.7629   -3.9339   -2.0337 C   0  0  1  0  0  0  0  0  0  0  0  0
    2.1516   -2.6129   -1.5714 O   0  0  0  0  0  0  0  0  0  0  0  0
    2.2526   -4.9706   -1.1091 N   0  0  0  0  0  0  0  0  0  0  0  0
    2.0194   -6.3108   -1.4251 C   0  0  0  0  0  0  0  0  0  0  0  0
    1.4173   -6.7031   -2.4177 O   0  0  0  0  0  0  0  0  0  0  0  0
    2.5212   -7.2271   -0.5329 N   0  0  0  0  0  0  0  0  0  0  0  0
    3.0076   -6.9414    0.7053 C   0  0  0  0  0  0  0  0  0  0  0  0
    3.2280   -7.7955    1.5605 O   0  0  0  0  0  0  0  0  0  0  0  0
    3.2810   -5.5246    0.9641 C   0  0  0  0  0  0  0  0  0  0  0  0
    2.9472   -4.6265    0.0356 C   0  0  0  0  0  0  0  0  0  0  0  0
    2.0315   -0.0683    0.0862 H   0  0  0  0  0  0  0  0  0  0  0  0
    0.9115   -2.0435    0.5381 H   0  0  0  0  0  0  0  0  0  0  0  0
   -0.5282   -1.2623   -0.1550 H   0  0  0  0  0  0  0  0  0  0  0  0
    1.3759   -0.8184   -2.1613 H   0  0  0  0  0  0  0  0  0  0  0  0
   -1.0736   -2.1505   -2.1465 H   0  0  0  0  0  0  0  0  0  0  0  0
    0.9752   -2.2998   -4.1308 H   0  0  0  0  0  0  0  0  0  0  0  0
   -0.2586   -4.2437   -1.2858 H   0  0  0  0  0  0  0  0  0  0  0  0
    0.1336   -4.3734   -4.1115 H   0  0  0  0  0  0  0  0  0  0  0  0
    2.2581   -4.0988   -2.9986 H   0  0  0  0  0  0  0  0  0  0  0  0
    2.3522   -8.1986   -0.7455 H   0  0  0  0  0  0  0  0  0  0  0  0
    3.7614   -5.2608    1.8955 H   0  0  0  0  0  0  0  0  0  0  0  0
    3.2080   -3.5835    0.1789 H   0  0  0  0  0  0  0  0  0  0  0  0
  1  2  1  0  0  0  0
  1 18  1  0  0  0  0
  2 19  1  0  0  0  0
  2 20  1  0  0  0  0
  3  2  1  0  0  0  0
  3  4  1  0  0  0  0
  3  9  1  0  0  0  0
  3 21  1  6  0  0  0
  4  5  1  0  0  0  0
  4  6  1  0  0  0  0
  4 22  1  1  0  0  0
  5 23  1  0  0  0  0
  6  7  1  0  0  0  0
  6  8  1  0  0  0  0
  6 24  1  1  0  0  0
  7 25  1  0  0  0  0
  8  9  1  0  0  0  0
  8 26  1  6  0  0  0
  8 10  1  0  0  0  0
 10 11  1  0  0  0  0
 10 17  1  0  0  0  0
 11 12  2  0  0  0  0
 11 13  1  0  0  0  0
 13 14  1  0  0  0  0
 13 27  1  0  0  0  0
 14 15  2  0  0  0  0
 14 16  1  0  0  0  0
 16 17  2  0  0  0  0
 16 28  1  0  0  0  0
 17 29  1  0  0  0  0
M  END
>  <DRUGBANK_ID>
DB02745

>  <SECONDARY_ACCESSION_NUMBERS>
EXPT03205

>  <COMMON_NAME>
Uridine

>  <CAS_NUMBER>
58-96-8

>  <UNII>
WHI7HQ7H85

>  <SYNONYMS>
Uridina

$$$$
