
 OpenBabel10282417143D

 60 60  0  0  0  0  0  0  0  0999 V2000
    1.5412   -0.0588   -0.2165 C   0  0  0  0  0  0  0  0  0  0  0  0
    0.6078   -1.0636   -0.3565 C   0  0  0  0  0  0  0  0  0  0  0  0
    1.0972    1.3310   -0.1196 C   0  0  0  0  0  0  0  0  0  0  0  0
    2.8447   -0.2215    0.1854 O   0  0  0  0  0  0  0  0  0  0  0  0
    1.1112   -2.7276   -1.0597 C   0  0  0  0  0  0  0  0  0  0  0  0
   -0.2660    1.7662   -0.1000 C   0  0  0  0  0  0  0  0  0  0  0  0
    3.3313   -1.5312    0.4907 C   0  0  0  0  0  0  0  0  0  0  0  0
   -1.2352    0.8344   -0.0983 C   0  0  0  0  0  0  0  0  0  0  0  0
    0.7912   -4.5738   -0.9084 C   0  0  0  0  0  0  0  0  0  0  0  0
    2.1450   -2.6701   -1.7542 O   0  0  0  0  0  0  0  0  0  0  0  0
    2.6762   -2.3354    1.6893 C   0  0  3  0  0  0  0  0  0  0  0  0
   -2.6758    0.9201   -0.1045 N   0  0  0  0  0  0  0  0  0  0  0  0
    1.0377   -2.3980    1.9735 C   0  0  0  0  0  0  0  0  0  0  0  0
    3.2217   -3.6775    1.7221 O   0  0  0  0  0  0  0  0  0  0  0  0
   -3.3337    2.1301   -0.2334 C   0  0  0  0  0  0  0  0  0  0  0  0
    0.3280   -3.3494    1.0754 N   0  0  0  0  0  0  0  0  0  0  0  0
   -4.7280    2.0881   -0.4064 N   0  0  0  0  0  0  0  0  0  0  0  0
   -2.7438    3.1532   -0.1956 O   0  0  0  0  0  0  0  0  0  0  0  0
   -1.1232   -3.5542    0.2206 C   0  0  0  0  0  0  0  0  0  0  0  0
   -5.3349    3.4263   -0.4744 C   0  0  0  0  0  0  0  0  0  0  0  0
   -5.9957    3.7075   -1.8095 C   0  0  0  0  0  0  0  0  0  0  0  0
   -1.7964   -2.3496   -0.2789 C   0  0  0  0  0  0  0  0  0  0  0  0
   -5.6340    0.9356   -0.5419 C   0  0  0  0  0  0  0  0  0  0  0  0
   -0.6687   -0.3984    0.1295 C   0  0  0  0  0  0  0  0  0  0  0  0
   -5.3605    0.1122   -1.7939 C   0  0  0  0  0  0  0  0  0  0  0  0
   -1.6064   -4.1386   -1.3767 C   0  0  0  0  0  0  0  0  0  0  0  0
   -1.8325   -4.0793    1.4410 C   0  0  0  0  0  0  0  0  0  0  0  0
    1.8369    2.1170   -0.0138 H   0  0  0  0  0  0  0  0  0  0  0  0
   -0.5296    2.8023    0.0735 H   0  0  0  0  0  0  0  0  0  0  0  0
    3.5235   -2.0619   -0.4375 H   0  0  0  0  0  0  0  0  0  0  0  0
    4.3950   -1.4093    0.7593 H   0  0  0  0  0  0  0  0  0  0  0  0
    0.9391   -5.0662   -1.8624 H   0  0  0  0  0  0  0  0  0  0  0  0
    1.3822   -5.1168   -0.1430 H   0  0  0  0  0  0  0  0  0  0  0  0
   -0.1037   -5.0929   -0.5119 H   0  0  0  0  0  0  0  0  0  0  0  0
    3.0959   -1.8629    2.5860 H   0  0  0  0  0  0  0  0  0  0  0  0
   -3.2244    0.0739   -0.1072 H   0  0  0  0  0  0  0  0  0  0  0  0
    0.9358   -2.8207    2.9777 H   0  0  0  0  0  0  0  0  0  0  0  0
    0.6771   -1.3781    2.0231 H   0  0  0  0  0  0  0  0  0  0  0  0
    2.9870   -4.1701    0.9188 H   0  0  0  0  0  0  0  0  0  0  0  0
    1.1611   -3.7765    0.7218 H   0  0  0  0  0  0  0  0  0  0  0  0
   -6.0364    3.5324    0.3597 H   0  0  0  0  0  0  0  0  0  0  0  0
   -4.5826    4.2065   -0.3261 H   0  0  0  0  0  0  0  0  0  0  0  0
   -6.8476    3.0452   -1.9771 H   0  0  0  0  0  0  0  0  0  0  0  0
   -6.3566    4.7398   -1.8357 H   0  0  0  0  0  0  0  0  0  0  0  0
   -5.2857    3.5665   -2.6310 H   0  0  0  0  0  0  0  0  0  0  0  0
   -1.3169   -1.9027   -1.1887 H   0  0  0  0  0  0  0  0  0  0  0  0
   -2.8584   -2.2066   -0.4177 H   0  0  0  0  0  0  0  0  0  0  0  0
   -1.6419   -2.0251    0.6964 H   0  0  0  0  0  0  0  0  0  0  0  0
   -5.5620    0.3151    0.3572 H   0  0  0  0  0  0  0  0  0  0  0  0
   -6.6740    1.2941   -0.5849 H   0  0  0  0  0  0  0  0  0  0  0  0
   -1.2711   -0.6324    1.0471 H   0  0  0  0  0  0  0  0  0  0  0  0
   -4.3598   -0.3235   -1.7848 H   0  0  0  0  0  0  0  0  0  0  0  0
   -6.0741   -0.7139   -1.8797 H   0  0  0  0  0  0  0  0  0  0  0  0
   -5.4353    0.7316   -2.6932 H   0  0  0  0  0  0  0  0  0  0  0  0
   -1.4860   -5.1869   -1.6485 H   0  0  0  0  0  0  0  0  0  0  0  0
   -2.6746   -3.9354   -1.5604 H   0  0  0  0  0  0  0  0  0  0  0  0
   -1.0762   -3.5706   -2.1881 H   0  0  0  0  0  0  0  0  0  0  0  0
   -1.4461   -5.0712    1.6622 H   0  0  0  0  0  0  0  0  0  0  0  0
   -1.5845   -3.4396    2.3152 H   0  0  0  0  0  0  0  0  0  0  0  0
   -2.9057   -4.0308    1.3220 H   0  0  0  0  0  0  0  0  0  0  0  0
  1  2  1  0  0  0  0
  1  3  2  0  0  0  0
  1  4  1  0  0  0  0
  2 24  2  0  0  0  0
  2  5  1  0  0  0  0
  3  6  1  0  0  0  0
  3 28  1  0  0  0  0
  4  7  1  0  0  0  0
  5  9  1  0  0  0  0
  5 10  2  0  0  0  0
  6  8  2  0  0  0  0
  6 29  1  0  0  0  0
  7 11  1  0  0  0  0
  7 30  1  0  0  0  0
  7 31  1  0  0  0  0
  8 12  1  0  0  0  0
  9 32  1  0  0  0  0
  9 33  1  0  0  0  0
  9 34  1  0  0  0  0
 11 13  1  0  0  0  0
 11 14  1  0  0  0  0
 11 35  1  0  0  0  0
 12 15  1  0  0  0  0
 12 36  1  0  0  0  0
 13 16  1  0  0  0  0
 13 37  1  0  0  0  0
 13 38  1  0  0  0  0
 14 39  1  0  0  0  0
 15 17  1  0  0  0  0
 15 18  2  0  0  0  0
 16 19  1  0  0  0  0
 16 40  1  0  0  0  0
 17 20  1  0  0  0  0
 17 23  1  0  0  0  0
 19 22  1  0  0  0  0
 19 26  1  0  0  0  0
 19 27  1  0  0  0  0
 20 21  1  0  0  0  0
 20 41  1  0  0  0  0
 20 42  1  0  0  0  0
 21 43  1  0  0  0  0
 21 44  1  0  0  0  0
 21 45  1  0  0  0  0
 22 46  1  0  0  0  0
 22 47  1  0  0  0  0
 22 48  1  0  0  0  0
 23 25  1  0  0  0  0
 23 49  1  0  0  0  0
 23 50  1  0  0  0  0
 24  8  1  0  0  0  0
 24 51  1  0  0  0  0
 25 52  1  0  0  0  0
 25 53  1  0  0  0  0
 25 54  1  0  0  0  0
 26 55  1  0  0  0  0
 26 56  1  0  0  0  0
 26 57  1  0  0  0  0
 27 58  1  0  0  0  0
 27 59  1  0  0  0  0
 27 60  1  0  0  0  0
M  END
>  <DRUGBANK_ID>
DB04846

>  <COMMON_NAME>
Celiprolol

>  <CAS_NUMBER>
56980-93-9

>  <UNII>
DRB57K47QC

>  <SYNONYMS>
Celiprolol; Celiprololum; RS)-N'-{3-acetyl-4-[3-(tert-butylamino)-2-hydroxypropoxy]phenyl}-N,N-diethylurea

$$$$
