
 OpenBabel10282417183D

 17 17  0  0  0  0  0  0  0  0999 V2000
    2.2463    0.0286    0.0088 O   0  0  0  0  0  0  0  0  0  0  0  0
    2.9638   -1.1991   -0.0235 C   0  0  0  0  0  0  0  0  0  0  0  0
   -3.2696    0.1319   -0.0307 O   0  0  0  0  0  0  0  0  0  0  0  0
   -1.9099    0.0396   -0.0110 C   0  0  0  0  0  0  0  0  0  0  0  0
   -1.2637   -1.1916   -0.0022 C   0  0  0  0  0  0  0  0  0  0  0  0
    0.1351   -1.2389    0.0094 C   0  0  0  0  0  0  0  0  0  0  0  0
    0.8809   -0.0572    0.0099 C   0  0  0  0  0  0  0  0  0  0  0  0
    0.2139    1.1711    0.0112 C   0  0  0  0  0  0  0  0  0  0  0  0
   -1.1812    1.2217   -0.0004 C   0  0  0  0  0  0  0  0  0  0  0  0
    2.7629   -1.7948    0.8730 H   0  0  0  0  0  0  0  0  0  0  0  0
    2.7378   -1.7654   -0.9335 H   0  0  0  0  0  0  0  0  0  0  0  0
    4.0327   -0.9653   -0.0348 H   0  0  0  0  0  0  0  0  0  0  0  0
   -3.6436   -0.7640   -0.0479 H   0  0  0  0  0  0  0  0  0  0  0  0
   -1.8235   -2.1216   -0.0047 H   0  0  0  0  0  0  0  0  0  0  0  0
    0.6117   -2.2129    0.0177 H   0  0  0  0  0  0  0  0  0  0  0  0
    0.7844    2.0966    0.0190 H   0  0  0  0  0  0  0  0  0  0  0  0
   -1.6945    2.1784   -0.0028 H   0  0  0  0  0  0  0  0  0  0  0  0
  1  2  1  0  0  0  0
  1  7  1  0  0  0  0
  2 10  1  0  0  0  0
  2 11  1  0  0  0  0
  2 12  1  0  0  0  0
  3  4  1  0  0  0  0
  3 13  1  0  0  0  0
  4  5  2  0  0  0  0
  4  9  1  0  0  0  0
  5  6  1  0  0  0  0
  5 14  1  0  0  0  0
  6  7  2  0  0  0  0
  6 15  1  0  0  0  0
  7  8  1  0  0  0  0
  8  9  2  0  0  0  0
  8 16  1  0  0  0  0
  9 17  1  0  0  0  0
M  END
>  <DRUGBANK_ID>
DB09516

>  <COMMON_NAME>
Mequinol

>  <CAS_NUMBER>
150-76-5

>  <UNII>
6HT8U7K3AM

>  <SYNONYMS>
4-Methoxyphenol; Mequinol

$$$$
