
 OpenBabel10282417233D

 53 55  0  0  0  0  0  0  0  0999 V2000
   -0.6497    0.9519    0.3189 C   0  0  0  0  0  0  0  0  0  0  0  0
    0.6948    1.1445    0.1570 C   0  0  0  0  0  0  0  0  0  0  0  0
    1.4280   -0.0426    0.0377 C   0  0  0  0  0  0  0  0  0  0  0  0
    0.7835   -1.3181    0.0234 C   0  0  0  0  0  0  0  0  0  0  0  0
   -0.6300   -1.3244    0.0452 C   0  0  0  0  0  0  0  0  0  0  0  0
   -1.3063   -0.1953    0.1762 N   0  0  0  0  0  0  0  0  0  0  0  0
   -1.4191   -2.4614   -0.0424 N   0  0  0  0  0  0  0  0  0  0  0  0
   -2.8661   -2.3853    0.0122 C   0  0  0  0  0  0  0  0  0  0  0  0
   -4.9307   -1.7278   -1.2081 C   0  0  0  0  0  0  0  0  0  0  0  0
   -3.4180   -1.7722   -1.2644 C   0  0  0  0  0  0  0  0  0  0  0  0
   -3.3761   -1.7726    1.3250 C   0  0  0  0  0  0  0  0  0  0  0  0
   -4.8907   -1.6941    1.3280 C   0  0  0  0  0  0  0  0  0  0  0  0
   -5.4041   -1.0160    0.0579 C   0  0  0  0  0  0  0  0  0  0  0  0
    1.3494    2.4969    0.0849 C   0  0  0  0  0  0  0  0  0  0  0  0
    0.6254    3.6568   -0.0067 O   0  0  0  0  0  0  0  0  0  0  0  0
    2.5633    2.5568    0.0698 O   0  0  0  0  0  0  0  0  0  0  0  0
   -0.8060    3.8096   -0.0965 C   0  0  0  0  0  0  0  0  0  0  0  0
   -1.3433    3.2133   -1.3996 C   0  0  0  0  0  0  0  0  0  0  0  0
    1.5858   -2.4527    0.0420 N   0  0  0  0  0  0  0  0  0  0  0  0
    1.1065   -3.8175    0.0087 C   0  0  0  0  0  0  0  0  0  0  0  0
    1.3408   -4.5477   -1.2703 C   0  0  0  0  0  0  0  0  0  0  0  0
    1.9385   -3.9555   -2.3792 C   0  0  0  0  0  0  0  0  0  0  0  0
    2.1478   -4.7060   -3.5261 C   0  0  0  0  0  0  0  0  0  0  0  0
    1.7383   -6.0394   -3.5735 C   0  0  0  0  0  0  0  0  0  0  0  0
    1.0717   -6.6158   -2.4958 C   0  0  0  0  0  0  0  0  0  0  0  0
    0.8251   -5.8533   -1.3669 C   0  0  0  0  0  0  0  0  0  0  0  0
   -1.3871    1.6960    0.5202 H   0  0  0  0  0  0  0  0  0  0  0  0
    2.5136    0.0195   -0.0346 H   0  0  0  0  0  0  0  0  0  0  0  0
   -1.1632   -3.0972    0.6915 H   0  0  0  0  0  0  0  0  0  0  0  0
   -3.2012   -3.4326    0.0259 H   0  0  0  0  0  0  0  0  0  0  0  0
   -5.2998   -1.2095   -2.0980 H   0  0  0  0  0  0  0  0  0  0  0  0
   -5.3243   -2.7510   -1.2315 H   0  0  0  0  0  0  0  0  0  0  0  0
   -3.0398   -0.7574   -1.4213 H   0  0  0  0  0  0  0  0  0  0  0  0
   -3.0800   -2.3596   -2.1276 H   0  0  0  0  0  0  0  0  0  0  0  0
   -3.0145   -2.3574    2.1810 H   0  0  0  0  0  0  0  0  0  0  0  0
   -3.0048   -0.7590    1.4948 H   0  0  0  0  0  0  0  0  0  0  0  0
   -5.2173   -1.1330    2.2106 H   0  0  0  0  0  0  0  0  0  0  0  0
   -5.3034   -2.7052    1.4099 H   0  0  0  0  0  0  0  0  0  0  0  0
   -5.0514    0.0234    0.0377 H   0  0  0  0  0  0  0  0  0  0  0  0
   -6.4964   -0.9934    0.0744 H   0  0  0  0  0  0  0  0  0  0  0  0
   -1.2439    3.4439    0.8399 H   0  0  0  0  0  0  0  0  0  0  0  0
   -1.0577    4.8733   -0.0665 H   0  0  0  0  0  0  0  0  0  0  0  0
   -0.9123    2.2438   -1.6679 H   0  0  0  0  0  0  0  0  0  0  0  0
   -2.4291    3.0880   -1.3573 H   0  0  0  0  0  0  0  0  0  0  0  0
   -1.0691    3.8485   -2.2420 H   0  0  0  0  0  0  0  0  0  0  0  0
    2.5867   -2.3292   -0.0459 H   0  0  0  0  0  0  0  0  0  0  0  0
    1.4668   -4.3557    0.8904 H   0  0  0  0  0  0  0  0  0  0  0  0
    0.0495   -3.9405    0.0626 H   0  0  0  0  0  0  0  0  0  0  0  0
    2.2176   -2.9053   -2.3602 H   0  0  0  0  0  0  0  0  0  0  0  0
    2.6440   -4.2468   -4.3743 H   0  0  0  0  0  0  0  0  0  0  0  0
    1.9258   -6.6275   -4.4646 H   0  0  0  0  0  0  0  0  0  0  0  0
    0.7535   -7.6530   -2.5262 H   0  0  0  0  0  0  0  0  0  0  0  0
    0.2106   -6.2644   -0.5651 H   0  0  0  0  0  0  0  0  0  0  0  0
  1  2  1  0  0  0  0
  1  6  2  0  0  0  0
  1 27  1  0  0  0  0
  2  3  2  0  0  0  0
  2 14  1  0  0  0  0
  3  4  1  0  0  0  0
  3 28  1  0  0  0  0
  4  5  2  0  0  0  0
  4 19  1  0  0  0  0
  5  6  1  0  0  0  0
  5  7  1  0  0  0  0
  7  8  1  0  0  0  0
  7 29  1  0  0  0  0
  8 11  1  0  0  0  0
  8 30  1  0  0  0  0
  9 10  1  0  0  0  0
  9 13  1  0  0  0  0
  9 31  1  0  0  0  0
  9 32  1  0  0  0  0
 10  8  1  0  0  0  0
 10 33  1  0  0  0  0
 10 34  1  0  0  0  0
 11 12  1  0  0  0  0
 11 35  1  0  0  0  0
 11 36  1  0  0  0  0
 12 13  1  0  0  0  0
 12 37  1  0  0  0  0
 12 38  1  0  0  0  0
 13 39  1  0  0  0  0
 13 40  1  0  0  0  0
 14 15  1  0  0  0  0
 14 16  2  0  0  0  0
 15 17  1  0  0  0  0
 17 18  1  0  0  0  0
 17 41  1  0  0  0  0
 17 42  1  0  0  0  0
 18 43  1  0  0  0  0
 18 44  1  0  0  0  0
 18 45  1  0  0  0  0
 19 20  1  0  0  0  0
 19 46  1  0  0  0  0
 20 21  1  0  0  0  0
 20 47  1  0  0  0  0
 20 48  1  0  0  0  0
 21 22  1  0  0  0  0
 21 26  2  0  0  0  0
 22 23  2  0  0  0  0
 22 49  1  0  0  0  0
 23 24  1  0  0  0  0
 23 50  1  0  0  0  0
 24 25  2  0  0  0  0
 24 51  1  0  0  0  0
 25 26  1  0  0  0  0
 25 52  1  0  0  0  0
 26 53  1  0  0  0  0
M  END
>  <DRUGBANK_ID>
DB16745

>  <COMMON_NAME>
PXT 3003

>  <CAS_NUMBER>
1467047-91-1

$$$$
