
 OpenBabel10282417193D

 37 40  0  0  1  0  0  0  0  0999 V2000
    2.6812   -1.2102   -0.1636 C   0  0  0  0  0  0  0  0  0  0  0  0
    3.0646    0.0171    0.3350 C   0  0  0  0  0  0  0  0  0  0  0  0
    2.1502    1.0913    0.4040 C   0  0  0  0  0  0  0  0  0  0  0  0
    0.8223    0.9661   -0.0687 C   0  0  0  0  0  0  0  0  0  0  0  0
    0.4437   -0.3111   -0.5445 C   0  0  0  0  0  0  0  0  0  0  0  0
    1.3755   -1.3734   -0.6108 C   0  0  0  0  0  0  0  0  0  0  0  0
   -1.0024   -0.6103   -0.9097 C   0  0  1  0  0  0  0  0  0  0  0  0
   -1.5857   -1.8261   -0.1627 C   0  0  0  0  0  0  0  0  0  0  0  0
   -2.3778   -1.2898    1.0304 C   0  0  0  0  0  0  0  0  0  0  0  0
   -2.3087    0.2239    0.9459 C   0  0  0  0  0  0  0  0  0  0  0  0
   -1.9647    0.5138   -0.5187 C   0  0  1  0  0  0  0  0  0  0  0  0
   -1.3375    1.8738   -0.7404 C   0  0  0  0  0  0  0  0  0  0  0  0
   -0.1221    1.9870    0.0526 N   0  0  0  0  0  0  0  0  0  0  0  0
   -0.0340    3.1358    0.9717 C   0  0  0  0  0  0  0  0  0  0  0  0
    0.4189    2.7404    2.3992 C   0  0  0  0  0  0  0  0  0  0  0  0
    1.7292    2.0728    2.5345 N   0  0  0  0  0  0  0  0  0  0  0  0
    2.5182    2.2395    1.3021 C   0  0  0  0  0  0  0  0  0  0  0  0
    3.3643   -2.0551   -0.1434 H   0  0  0  0  0  0  0  0  0  0  0  0
    4.0601    0.1225    0.7683 H   0  0  0  0  0  0  0  0  0  0  0  0
    1.0704   -2.3566   -0.9549 H   0  0  0  0  0  0  0  0  0  0  0  0
   -1.0291   -0.7719   -1.9945 H   0  0  0  0  0  0  0  0  0  0  0  0
   -0.8405   -2.5502    0.1796 H   0  0  0  0  0  0  0  0  0  0  0  0
   -2.2673   -2.3686   -0.8279 H   0  0  0  0  0  0  0  0  0  0  0  0
   -1.9566   -1.6429    1.9783 H   0  0  0  0  0  0  0  0  0  0  0  0
   -3.4154   -1.6341    0.9814 H   0  0  0  0  0  0  0  0  0  0  0  0
   -3.2411    0.7049    1.2553 H   0  0  0  0  0  0  0  0  0  0  0  0
   -1.5317    0.5696    1.6346 H   0  0  0  0  0  0  0  0  0  0  0  0
   -2.8810    0.4352   -1.1173 H   0  0  0  0  0  0  0  0  0  0  0  0
   -1.0964    2.0327   -1.7989 H   0  0  0  0  0  0  0  0  0  0  0  0
   -2.0602    2.6532   -0.4704 H   0  0  0  0  0  0  0  0  0  0  0  0
    0.5985    3.9181    0.5371 H   0  0  0  0  0  0  0  0  0  0  0  0
   -1.0105    3.6259    1.0746 H   0  0  0  0  0  0  0  0  0  0  0  0
    0.4563    3.6347    3.0292 H   0  0  0  0  0  0  0  0  0  0  0  0
   -0.3490    2.0949    2.8474 H   0  0  0  0  0  0  0  0  0  0  0  0
    1.5108    1.0678    2.5803 H   0  0  0  0  0  0  0  0  0  0  0  0
    3.5895    2.2303    1.5281 H   0  0  0  0  0  0  0  0  0  0  0  0
    2.3801    3.2092    0.8187 H   0  0  0  0  0  0  0  0  0  0  0  0
  1  2  2  0  0  0  0
  1  6  1  0  0  0  0
  1 18  1  0  0  0  0
  2  3  1  0  0  0  0
  2 19  1  0  0  0  0
  3  4  2  0  0  0  0
  3 17  1  0  0  0  0
  4  5  1  0  0  0  0
  4 13  1  0  0  0  0
  5  6  2  0  0  0  0
  5  7  1  0  0  0  0
  6 20  1  0  0  0  0
  7  8  1  0  0  0  0
  7 11  1  0  0  0  0
  7 21  1  6  0  0  0
  8  9  1  0  0  0  0
  8 22  1  0  0  0  0
  8 23  1  0  0  0  0
  9 10  1  0  0  0  0
  9 24  1  0  0  0  0
  9 25  1  0  0  0  0
 10 26  1  0  0  0  0
 10 27  1  0  0  0  0
 11 10  1  0  0  0  0
 11 12  1  0  0  0  0
 11 28  1  6  0  0  0
 12 13  1  0  0  0  0
 12 29  1  0  0  0  0
 12 30  1  0  0  0  0
 13 14  1  0  0  0  0
 14 15  1  0  0  0  0
 14 31  1  0  0  0  0
 14 32  1  0  0  0  0
 15 16  1  0  0  0  0
 15 33  1  0  0  0  0
 15 34  1  0  0  0  0
 16 17  1  0  0  0  0
 16 35  1  0  0  0  0
 17 36  1  0  0  0  0
 17 37  1  0  0  0  0
M  END
>  <DRUGBANK_ID>
DB12071

>  <COMMON_NAME>
Vabicaserin

>  <CAS_NUMBER>
887258-95-9

>  <UNII>
WD9550HPNL

>  <SYNONYMS>
Vabicaserin

$$$$
