
 OpenBabel10282417133D

 26 25  0  0  0  0  0  0  0  0999 V2000
    1.7788    0.7530    0.6300 C   0  0  0  0  0  0  0  0  0  0  0  0
    0.7496    0.4055    1.7380 N   0  3  0  0  0  0  0  0  0  0  0  0
    0.9782    1.6564    2.6041 C   0  0  0  0  0  0  0  0  0  0  0  0
   -0.8081    0.4193    1.4874 C   0  0  0  0  0  0  0  0  0  0  0  0
    1.1329   -0.9546    2.4267 C   0  0  0  0  0  0  0  0  0  0  0  0
    0.6438   -2.2694    1.6903 C   0  0  0  0  0  0  0  0  0  0  0  0
    1.0597   -2.4392    0.3206 O   0  0  0  0  0  0  0  0  0  0  0  0
    0.4830   -1.1230   -0.6427 P   0  0  0  0  0  0  0  0  0  0  0  0
    1.7977   -1.3886   -1.5693 O   0  0  0  0  0  0  0  0  0  0  0  0
   -0.4618   -2.2554   -1.3224 O   0  0  0  0  0  0  0  0  0  0  0  0
   -0.0331    0.0550   -1.5048 O   0  0  0  0  0  0  0  0  0  0  0  0
    1.2774    1.2995   -0.1674 H   0  0  0  0  0  0  0  0  0  0  0  0
    2.2893   -0.1689    0.3634 H   0  0  0  0  0  0  0  0  0  0  0  0
    2.6169    1.3502    0.9899 H   0  0  0  0  0  0  0  0  0  0  0  0
    0.6472    2.5081    1.9884 H   0  0  0  0  0  0  0  0  0  0  0  0
    0.4172    1.5844    3.5282 H   0  0  0  0  0  0  0  0  0  0  0  0
    2.0501    1.7481    2.8029 H   0  0  0  0  0  0  0  0  0  0  0  0
   -1.1483   -0.5128    1.0305 H   0  0  0  0  0  0  0  0  0  0  0  0
   -1.2957    0.4671    2.4690 H   0  0  0  0  0  0  0  0  0  0  0  0
   -1.0799    1.2673    0.8589 H   0  0  0  0  0  0  0  0  0  0  0  0
    2.2237   -0.9582    2.4978 H   0  0  0  0  0  0  0  0  0  0  0  0
    0.6995   -0.9209    3.4320 H   0  0  0  0  0  0  0  0  0  0  0  0
    1.0356   -3.1328    2.2404 H   0  0  0  0  0  0  0  0  0  0  0  0
   -0.4470   -2.3701    1.7276 H   0  0  0  0  0  0  0  0  0  0  0  0
    2.4809   -0.6705   -1.5772 H   0  0  0  0  0  0  0  0  0  0  0  0
    0.0366   -3.1081   -1.3835 H   0  0  0  0  0  0  0  0  0  0  0  0
  1  2  1  0  0  0  0
  1 12  1  0  0  0  0
  1 13  1  0  0  0  0
  1 14  1  0  0  0  0
  2  3  1  0  0  0  0
  2  4  1  0  0  0  0
  2  5  1  0  0  0  0
  3 15  1  0  0  0  0
  3 16  1  0  0  0  0
  3 17  1  0  0  0  0
  4 18  1  0  0  0  0
  4 19  1  0  0  0  0
  4 20  1  0  0  0  0
  5  6  1  0  0  0  0
  5 21  1  0  0  0  0
  5 22  1  0  0  0  0
  6  7  1  0  0  0  0
  6 23  1  0  0  0  0
  6 24  1  0  0  0  0
  7  8  1  0  0  0  0
  8  9  1  0  0  0  0
  8 10  1  0  0  0  0
  8 11  2  0  0  0  0
  9 25  1  0  0  0  0
 10 26  1  0  0  0  0
M  CHG  1   2   1
M  END
>  <DRUGBANK_ID>
DB03945

>  <SECONDARY_ACCESSION_NUMBERS>
EXPT02629

>  <COMMON_NAME>
N,N,N-Trimethyl-2-(phosphonooxy)ethanaminium

>  <CAS_NUMBER>
3616-04-4

>  <SYNONYMS>
Choline, dihydrogen phosphate (ester) (8CI); Ethanaminium, N,N,N-trimethyl-2-(phosphonooxy)-; Phosphocholine cation

$$$$
