
 OpenBabel10282417153D

 81 82  0  0  0  0  0  0  0  0999 V2000
   -2.9454  -25.4154    0.8396 C   0  0  0  0  0  0  0  0  0  0  0  0
   -3.0432  -23.9812    0.3453 C   0  0  0  0  0  0  0  0  0  0  0  0
   -4.5058  -23.5886    0.1294 C   0  0  0  0  0  0  0  0  0  0  0  0
   -5.3103  -23.6866    1.4306 C   0  0  0  0  0  0  0  0  0  0  0  0
   -4.7178  -22.7759    2.5119 C   0  0  0  0  0  0  0  0  0  0  0  0
   -4.7590  -21.3092    2.0678 C   0  0  0  0  0  0  0  0  0  0  0  0
   -6.2040  -20.8508    1.8304 C   0  0  0  0  0  0  0  0  0  0  0  0
   -7.0602  -21.0276    3.0843 C   0  0  0  0  0  0  0  0  0  0  0  0
   -6.4785  -20.2253    4.1991 C   0  0  0  0  0  0  0  0  0  0  0  0
   -7.1571  -19.2511    4.7962 C   0  0  0  0  0  0  0  0  0  0  0  0
   -6.5194  -18.3374    5.7882 C   0  0  0  0  0  0  0  0  0  0  0  0
   -6.6032  -16.8986    5.2783 C   0  0  0  0  0  0  0  0  0  0  0  0
   -8.0594  -16.4664    5.0705 C   0  0  0  0  0  0  0  0  0  0  0  0
   -8.8527  -16.6207    6.3729 C   0  0  0  0  0  0  0  0  0  0  0  0
   -8.2602  -15.7306    7.4725 C   0  0  0  0  0  0  0  0  0  0  0  0
   -8.3674  -14.2623    7.0777 C   0  0  0  0  0  0  0  0  0  0  0  0
   -9.8264  -13.9240    6.8037 C   0  0  0  0  0  0  0  0  0  0  0  0
  -10.6488  -13.9645    8.0562 C   0  0  0  0  0  0  0  0  0  0  0  0
  -11.0223  -12.7950    8.6115 O   0  0  0  0  0  0  0  0  0  0  0  0
  -11.0903  -11.5279    7.9225 C   0  0  0  0  0  0  0  0  0  0  0  0
   -9.7313  -10.8116    7.8167 C   0  0  1  0  0  0  0  0  0  0  0  0
   -9.4395  -10.1889    4.5854 N   0  0  0  0  0  0  0  0  0  0  0  0
   -8.6037  -10.1704    5.8103 C   0  0  1  0  0  0  0  0  0  0  0  0
   -9.1804   -9.2276    3.6036 C   0  0  0  0  0  0  0  0  0  0  0  0
  -10.0089   -9.1361    2.5138 N   0  0  0  0  0  0  0  0  0  0  0  0
   -8.7494   -8.9461    6.7451 C   0  0  2  0  0  0  0  0  0  0  0  0
   -8.9338  -11.2649    6.6952 O   0  0  0  0  0  0  0  0  0  0  0  0
  -10.5002  -11.0500    4.4080 C   0  0  0  0  0  0  0  0  0  0  0  0
   -9.9491   -9.3292    7.5924 C   0  0  2  0  0  0  0  0  0  0  0  0
  -11.4353  -10.8365    3.4898 C   0  0  0  0  0  0  0  0  0  0  0  0
  -11.0833   -9.8605    2.4534 C   0  0  0  0  0  0  0  0  0  0  0  0
   -8.2444   -8.4314    3.7431 O   0  0  0  0  0  0  0  0  0  0  0  0
   -8.9177   -7.6564    6.1955 O   0  0  0  0  0  0  0  0  0  0  0  0
  -11.8972   -9.7390    1.3671 N   0  0  0  0  0  0  0  0  0  0  0  0
  -10.0416   -8.6280    8.8249 O   0  0  0  0  0  0  0  0  0  0  0  0
  -10.9270  -15.0257    8.6070 O   0  0  0  0  0  0  0  0  0  0  0  0
   -3.4616  -25.5583    1.7945 H   0  0  0  0  0  0  0  0  0  0  0  0
   -1.9051  -25.7002    0.9996 H   0  0  0  0  0  0  0  0  0  0  0  0
   -3.3989  -26.0909    0.1084 H   0  0  0  0  0  0  0  0  0  0  0  0
   -2.5544  -23.3102    1.0615 H   0  0  0  0  0  0  0  0  0  0  0  0
   -2.4885  -23.8631   -0.5897 H   0  0  0  0  0  0  0  0  0  0  0  0
   -4.5538  -22.5728   -0.2813 H   0  0  0  0  0  0  0  0  0  0  0  0
   -4.9617  -24.2278   -0.6332 H   0  0  0  0  0  0  0  0  0  0  0  0
   -6.3593  -23.4429    1.2327 H   0  0  0  0  0  0  0  0  0  0  0  0
   -5.3479  -24.7161    1.7975 H   0  0  0  0  0  0  0  0  0  0  0  0
   -5.2541  -22.9297    3.4535 H   0  0  0  0  0  0  0  0  0  0  0  0
   -3.6890  -23.0547    2.7581 H   0  0  0  0  0  0  0  0  0  0  0  0
   -4.2612  -20.6857    2.8167 H   0  0  0  0  0  0  0  0  0  0  0  0
   -4.1690  -21.1459    1.1608 H   0  0  0  0  0  0  0  0  0  0  0  0
   -6.2082  -19.8060    1.4995 H   0  0  0  0  0  0  0  0  0  0  0  0
   -6.6599  -21.4133    1.0077 H   0  0  0  0  0  0  0  0  0  0  0  0
   -8.0908  -20.7333    2.8615 H   0  0  0  0  0  0  0  0  0  0  0  0
   -7.1153  -22.0726    3.4026 H   0  0  0  0  0  0  0  0  0  0  0  0
   -5.4490  -20.3968    4.5017 H   0  0  0  0  0  0  0  0  0  0  0  0
   -8.1913  -19.0880    4.5046 H   0  0  0  0  0  0  0  0  0  0  0  0
   -7.0235  -18.4665    6.7504 H   0  0  0  0  0  0  0  0  0  0  0  0
   -5.4716  -18.5944    5.9710 H   0  0  0  0  0  0  0  0  0  0  0  0
   -6.1008  -16.2382    5.9944 H   0  0  0  0  0  0  0  0  0  0  0  0
   -6.0465  -16.7807    4.3424 H   0  0  0  0  0  0  0  0  0  0  0  0
   -8.0881  -15.4393    4.6921 H   0  0  0  0  0  0  0  0  0  0  0  0
   -8.5410  -17.0473    4.2780 H   0  0  0  0  0  0  0  0  0  0  0  0
   -9.9069  -16.4044    6.1810 H   0  0  0  0  0  0  0  0  0  0  0  0
   -8.8840  -17.6557    6.7205 H   0  0  0  0  0  0  0  0  0  0  0  0
   -8.7758  -15.9144    8.4173 H   0  0  0  0  0  0  0  0  0  0  0  0
   -7.2186  -15.9835    7.6897 H   0  0  0  0  0  0  0  0  0  0  0  0
   -7.9406  -13.6282    7.8627 H   0  0  0  0  0  0  0  0  0  0  0  0
   -7.7619  -14.0515    6.1852 H   0  0  0  0  0  0  0  0  0  0  0  0
   -9.8867  -12.9731    6.3425 H   0  0  0  0  0  0  0  0  0  0  0  0
  -10.2959  -14.5289    6.0266 H   0  0  0  0  0  0  0  0  0  0  0  0
  -11.5830  -11.6628    6.9559 H   0  0  0  0  0  0  0  0  0  0  0  0
  -11.7685  -10.9266    8.5378 H   0  0  0  0  0  0  0  0  0  0  0  0
   -9.1567  -11.0131    8.7298 H   0  0  0  0  0  0  0  0  0  0  0  0
   -7.5618  -10.3084    5.4951 H   0  0  0  0  0  0  0  0  0  0  0  0
   -7.8637   -8.8983    7.3912 H   0  0  0  0  0  0  0  0  0  0  0  0
  -10.6086  -11.8977    5.0521 H   0  0  0  0  0  0  0  0  0  0  0  0
  -10.8748   -9.1341    7.0381 H   0  0  0  0  0  0  0  0  0  0  0  0
  -12.3600  -11.3921    3.4331 H   0  0  0  0  0  0  0  0  0  0  0  0
   -9.5200   -7.7072    5.4335 H   0  0  0  0  0  0  0  0  0  0  0  0
  -12.6266  -10.4134    1.1748 H   0  0  0  0  0  0  0  0  0  0  0  0
  -11.5240   -9.2359    0.5699 H   0  0  0  0  0  0  0  0  0  0  0  0
   -9.1892   -8.6969    9.2908 H   0  0  0  0  0  0  0  0  0  0  0  0
  1  2  1  0  0  0  0
  1 37  1  0  0  0  0
  1 38  1  0  0  0  0
  1 39  1  0  0  0  0
  2  3  1  0  0  0  0
  2 40  1  0  0  0  0
  2 41  1  0  0  0  0
  3  4  1  0  0  0  0
  3 42  1  0  0  0  0
  3 43  1  0  0  0  0
  4  5  1  0  0  0  0
  4 44  1  0  0  0  0
  4 45  1  0  0  0  0
  5  6  1  0  0  0  0
  5 46  1  0  0  0  0
  5 47  1  0  0  0  0
  6  7  1  0  0  0  0
  6 48  1  0  0  0  0
  6 49  1  0  0  0  0
  7  8  1  0  0  0  0
  7 50  1  0  0  0  0
  7 51  1  0  0  0  0
  8  9  1  0  0  0  0
  8 52  1  0  0  0  0
  8 53  1  0  0  0  0
  9 10  2  0  0  0  0
  9 54  1  0  0  0  0
 10 11  1  0  0  0  0
 10 55  1  0  0  0  0
 11 12  1  0  0  0  0
 11 56  1  0  0  0  0
 11 57  1  0  0  0  0
 12 13  1  0  0  0  0
 12 58  1  0  0  0  0
 12 59  1  0  0  0  0
 13 14  1  0  0  0  0
 13 60  1  0  0  0  0
 13 61  1  0  0  0  0
 14 15  1  0  0  0  0
 14 62  1  0  0  0  0
 14 63  1  0  0  0  0
 15 16  1  0  0  0  0
 15 64  1  0  0  0  0
 15 65  1  0  0  0  0
 16 17  1  0  0  0  0
 16 66  1  0  0  0  0
 16 67  1  0  0  0  0
 17 18  1  0  0  0  0
 17 68  1  0  0  0  0
 17 69  1  0  0  0  0
 18 19  1  0  0  0  0
 18 36  2  0  0  0  0
 19 20  1  0  0  0  0
 20 70  1  0  0  0  0
 20 71  1  0  0  0  0
 21 27  1  0  0  0  0
 21 29  1  0  0  0  0
 21 72  1  1  0  0  0
 21 20  1  0  0  0  0
 23 22  1  0  0  0  0
 23 73  1  6  0  0  0
 24 22  1  0  0  0  0
 25 24  1  0  0  0  0
 26 23  1  0  0  0  0
 26 33  1  0  0  0  0
 26 74  1  1  0  0  0
 27 23  1  0  0  0  0
 28 22  1  0  0  0  0
 28 75  1  0  0  0  0
 29 26  1  0  0  0  0
 29 35  1  0  0  0  0
 29 76  1  6  0  0  0
 30 28  2  0  0  0  0
 30 77  1  0  0  0  0
 31 30  1  0  0  0  0
 31 25  2  0  0  0  0
 32 24  2  0  0  0  0
 33 78  1  0  0  0  0
 34 31  1  0  0  0  0
 34 79  1  0  0  0  0
 34 80  1  0  0  0  0
 35 81  1  0  0  0  0
M  END
>  <DRUGBANK_ID>
DB05494

>  <COMMON_NAME>
Elacytarabine

>  <CAS_NUMBER>
188181-42-2

>  <UNII>
TA7WJG93AR

>  <SYNONYMS>
Elacytarabine

$$$$
