S98
 OpenBabel10282417173D

 34 37  0  0  0  0  0  0  0  0999 V2000
    2.6779    1.1760    0.0229 N   0  0  0  0  0  0  0  0  0  0  0  0
    1.4220    0.6851    0.1597 C   0  0  0  0  0  0  0  0  0  0  0  0
    1.5275   -0.6870    0.0299 C   0  0  0  0  0  0  0  0  0  0  0  0
    2.8863   -0.9999   -0.1539 N   0  0  0  0  0  0  0  0  0  0  0  0
    3.5373    0.1564   -0.2280 C   0  0  0  0  0  0  0  0  0  0  0  0
    4.8252    0.4396   -0.5387 N   0  0  0  0  0  0  0  0  0  0  0  0
    5.4571    1.7677   -0.4831 C   0  0  0  0  0  0  0  0  0  0  0  0
    6.4809    1.9684    0.6060 C   0  0  0  0  0  0  0  0  0  0  0  0
    0.3071   -1.4394    0.0769 C   0  0  0  0  0  0  0  0  0  0  0  0
   -0.9474   -0.7458    0.0752 C   0  0  0  0  0  0  0  0  0  0  0  0
   -0.9157    0.6460    0.1922 C   0  0  0  0  0  0  0  0  0  0  0  0
   -2.1546    1.4070    0.0803 C   0  0  0  0  0  0  0  0  0  0  0  0
   -2.1687    2.6386    0.1213 O   0  0  0  0  0  0  0  0  0  0  0  0
   -3.2796    0.6780   -0.1099 N   0  0  0  0  0  0  0  0  0  0  0  0
   -3.2900   -0.6848   -0.1759 C   0  0  0  0  0  0  0  0  0  0  0  0
   -4.5292   -1.2050   -0.3500 N   0  0  0  0  0  0  0  0  0  0  0  0
   -2.2076   -1.4071   -0.0788 N   0  0  0  0  0  0  0  0  0  0  0  0
    0.2506    1.3812    0.3334 C   0  0  0  0  0  0  0  0  0  0  0  0
    6.9498    3.1435    1.1762 C   0  0  0  0  0  0  0  0  0  0  0  0
    7.9112    2.8947    2.2057 C   0  0  0  0  0  0  0  0  0  0  0  0
    8.1525    1.5505    2.3674 C   0  0  0  0  0  0  0  0  0  0  0  0
    7.2685    0.5979    1.2722 S   0  0  0  0  0  0  0  0  0  0  0  0
    2.8930    2.1545   -0.0034 H   0  0  0  0  0  0  0  0  0  0  0  0
    5.4914   -0.3287   -0.5258 H   0  0  0  0  0  0  0  0  0  0  0  0
    5.9571    1.9475   -1.4442 H   0  0  0  0  0  0  0  0  0  0  0  0
    4.7246    2.5805   -0.4020 H   0  0  0  0  0  0  0  0  0  0  0  0
    0.3405   -2.5261    0.0600 H   0  0  0  0  0  0  0  0  0  0  0  0
   -4.1245    1.2170   -0.2028 H   0  0  0  0  0  0  0  0  0  0  0  0
   -4.6424   -2.2062   -0.4219 H   0  0  0  0  0  0  0  0  0  0  0  0
   -5.3601   -0.6352   -0.4388 H   0  0  0  0  0  0  0  0  0  0  0  0
    0.2414    2.4548    0.4613 H   0  0  0  0  0  0  0  0  0  0  0  0
    6.6257    4.1407    0.8933 H   0  0  0  0  0  0  0  0  0  0  0  0
    8.3993    3.6567    2.8024 H   0  0  0  0  0  0  0  0  0  0  0  0
    8.8140    1.0640    3.0681 H   0  0  0  0  0  0  0  0  0  0  0  0
  1  2  1  0  0  0  0
  1  5  1  0  0  0  0
  1 23  1  0  0  0  0
  2  3  2  0  0  0  0
  2 18  1  0  0  0  0
  3  4  1  0  0  0  0
  3  9  1  0  0  0  0
  4  5  2  0  0  0  0
  5  6  1  0  0  0  0
  6  7  1  0  0  0  0
  6 24  1  0  0  0  0
  7  8  1  0  0  0  0
  7 25  1  0  0  0  0
  7 26  1  0  0  0  0
  8 19  2  0  0  0  0
  8 22  1  0  0  0  0
  9 10  2  0  0  0  0
  9 27  1  0  0  0  0
 10 11  1  0  0  0  0
 10 17  1  0  0  0  0
 11 12  1  0  0  0  0
 11 18  2  0  0  0  0
 12 13  2  0  0  0  0
 12 14  1  0  0  0  0
 14 15  1  0  0  0  0
 14 28  1  0  0  0  0
 15 16  1  0  0  0  0
 15 17  2  0  0  0  0
 16 29  1  0  0  0  0
 16 30  1  0  0  0  0
 18 31  1  0  0  0  0
 19 20  1  0  0  0  0
 19 32  1  0  0  0  0
 20 21  2  0  0  0  0
 20 33  1  0  0  0  0
 21 22  1  0  0  0  0
 21 34  1  0  0  0  0
M  END
>  <DRUGBANK_ID>
DB08514

>  <COMMON_NAME>
6-amino-2-[(thiophen-2-ylmethyl)amino]-1,7-dihydro-8H-imidazo[4,5-g]quinazolin-8-one

$$$$
