
 OpenBabel10282417173D

 65 66  0  0  0  0  0  0  0  0999 V2000
   -3.9712    2.9264    2.4856 C   0  0  0  0  0  0  0  0  0  0  0  0
   -4.5537    2.2108    3.5337 C   0  0  0  0  0  0  0  0  0  0  0  0
   -4.7925    0.8403    3.4219 C   0  0  0  0  0  0  0  0  0  0  0  0
   -4.4733    0.1591    2.2499 C   0  0  0  0  0  0  0  0  0  0  0  0
   -3.9146    0.8535    1.1737 C   0  0  0  0  0  0  0  0  0  0  0  0
   -3.6633    2.2287    1.3080 C   0  0  0  0  0  0  0  0  0  0  0  0
   -3.4658    0.1179   -0.0665 C   0  0  2  0  0  0  0  0  0  0  0  0
   -1.9349    0.0936   -0.0713 C   0  0  0  0  0  0  0  0  0  0  0  0
   -1.4131   -0.8141   -1.0983 N   0  0  0  0  0  0  0  0  0  0  0  0
    0.0515   -0.8197   -1.0485 C   0  0  0  0  0  0  0  0  0  0  0  0
    0.5253   -1.2688    0.3073 C   0  0  0  0  0  0  0  0  0  0  0  0
   -0.1161   -2.6288    0.4649 C   0  0  0  0  0  0  0  0  0  0  0  0
    0.4251   -3.7086   -0.4832 C   0  0  0  0  0  0  0  0  0  0  0  0
    1.9413   -3.9965   -0.4486 C   0  0  0  0  0  0  0  0  0  0  0  0
    2.4121   -4.6427    0.8240 C   0  0  0  0  0  0  0  0  0  0  0  0
    1.9603   -5.7811    1.5294 O   0  0  0  0  0  0  0  0  0  0  0  0
   -3.9543    0.7735   -1.2317 O   0  0  0  0  0  0  0  0  0  0  0  0
    0.6295   -5.6263    2.0281 C   0  0  0  0  0  0  0  0  0  0  0  0
    0.2933   -4.4838    3.0330 C   0  0  0  0  0  0  0  0  0  0  0  0
    0.8657   -3.1780    2.9504 O   0  0  0  0  0  0  0  0  0  0  0  0
    2.1987   -2.7234    2.8687 C   0  0  0  0  0  0  0  0  0  0  0  0
    2.6917   -3.1033    4.1743 C   0  0  0  0  0  0  0  0  0  0  0  0
    3.6398   -4.1302    4.3207 C   0  0  0  0  0  0  0  0  0  0  0  0
    4.1092   -4.3626    5.5898 C   0  0  0  0  0  0  0  0  0  0  0  0
    3.5798   -3.6215    6.6251 C   0  0  0  0  0  0  0  0  0  0  0  0
    2.5447   -2.7042    6.4739 C   0  0  0  0  0  0  0  0  0  0  0  0
    2.0718   -2.4348    5.2132 C   0  0  0  0  0  0  0  0  0  0  0  0
    0.7943   -1.2609    5.0493 Cl  0  0  0  0  0  0  0  0  0  0  0  0
    4.4456   -5.1012    3.1397 Cl  0  0  0  0  0  0  0  0  0  0  0  0
   -3.6527    4.3926    2.5295 C   0  0  0  0  0  0  0  0  0  0  0  0
   -2.2559    4.6060    2.3678 O   0  0  0  0  0  0  0  0  0  0  0  0
   -4.9209    2.7633    4.7264 O   0  0  0  0  0  0  0  0  0  0  0  0
   -5.2238    0.3012    4.2612 H   0  0  0  0  0  0  0  0  0  0  0  0
   -4.6492   -0.9132    2.1936 H   0  0  0  0  0  0  0  0  0  0  0  0
   -3.1912    2.7698    0.4882 H   0  0  0  0  0  0  0  0  0  0  0  0
   -3.8602   -0.9062   -0.0669 H   0  0  0  0  0  0  0  0  0  0  0  0
   -1.5179    1.0800   -0.2951 H   0  0  0  0  0  0  0  0  0  0  0  0
   -1.6221   -0.1829    0.9442 H   0  0  0  0  0  0  0  0  0  0  0  0
   -1.7892   -1.7473   -0.9044 H   0  0  0  0  0  0  0  0  0  0  0  0
    0.4282   -1.5276   -1.7916 H   0  0  0  0  0  0  0  0  0  0  0  0
    0.4753    0.1439   -1.3137 H   0  0  0  0  0  0  0  0  0  0  0  0
    1.6162   -1.3026    0.3666 H   0  0  0  0  0  0  0  0  0  0  0  0
    0.2587   -0.5896    1.1337 H   0  0  0  0  0  0  0  0  0  0  0  0
    0.0183   -2.8417    1.4618 H   0  0  0  0  0  0  0  0  0  0  0  0
   -1.2104   -2.6469    0.5534 H   0  0  0  0  0  0  0  0  0  0  0  0
   -0.1461   -4.6085   -0.3106 H   0  0  0  0  0  0  0  0  0  0  0  0
    0.1540   -3.4624   -1.5031 H   0  0  0  0  0  0  0  0  0  0  0  0
    2.2870   -4.5845   -1.2890 H   0  0  0  0  0  0  0  0  0  0  0  0
    2.4839   -3.0310   -0.4882 H   0  0  0  0  0  0  0  0  0  0  0  0
    3.4777   -4.4389    0.9704 H   0  0  0  0  0  0  0  0  0  0  0  0
    1.8752   -3.9345    1.3568 H   0  0  0  0  0  0  0  0  0  0  0  0
   -3.4816    1.6193   -1.2944 H   0  0  0  0  0  0  0  0  0  0  0  0
    0.0182   -5.5669    1.1435 H   0  0  0  0  0  0  0  0  0  0  0  0
    0.2763   -6.5666    2.4593 H   0  0  0  0  0  0  0  0  0  0  0  0
   -0.7938   -4.2961    2.8832 H   0  0  0  0  0  0  0  0  0  0  0  0
    0.3594   -4.8192    4.0635 H   0  0  0  0  0  0  0  0  0  0  0  0
    3.0110   -3.0409    2.2209 H   0  0  0  0  0  0  0  0  0  0  0  0
    2.1796   -1.6759    2.5462 H   0  0  0  0  0  0  0  0  0  0  0  0
    4.9199   -5.0666    5.7124 H   0  0  0  0  0  0  0  0  0  0  0  0
    4.0220   -3.7490    7.6043 H   0  0  0  0  0  0  0  0  0  0  0  0
    2.1262   -2.1421    7.2836 H   0  0  0  0  0  0  0  0  0  0  0  0
   -4.1869    4.9165    1.7302 H   0  0  0  0  0  0  0  0  0  0  0  0
   -3.9424    4.8561    3.4716 H   0  0  0  0  0  0  0  0  0  0  0  0
   -1.8073    4.0778    3.0513 H   0  0  0  0  0  0  0  0  0  0  0  0
   -4.7821    3.7201    4.7268 H   0  0  0  0  0  0  0  0  0  0  0  0
  1  2  2  0  0  0  0
  1  6  1  0  0  0  0
  1 30  1  0  0  0  0
  2  3  1  0  0  0  0
  2 32  1  0  0  0  0
  3  4  2  0  0  0  0
  3 33  1  0  0  0  0
  4  5  1  0  0  0  0
  4 34  1  0  0  0  0
  5  6  2  0  0  0  0
  6 35  1  0  0  0  0
  7 17  1  0  0  0  0
  7 36  1  1  0  0  0
  7  8  1  0  0  0  0
  7  5  1  0  0  0  0
  8  9  1  0  0  0  0
  8 37  1  0  0  0  0
  8 38  1  0  0  0  0
  9 10  1  0  0  0  0
  9 39  1  0  0  0  0
 10 11  1  0  0  0  0
 10 40  1  0  0  0  0
 10 41  1  0  0  0  0
 11 12  1  0  0  0  0
 11 42  1  0  0  0  0
 11 43  1  0  0  0  0
 12 13  1  0  0  0  0
 12 44  1  0  0  0  0
 12 45  1  0  0  0  0
 13 14  1  0  0  0  0
 13 46  1  0  0  0  0
 13 47  1  0  0  0  0
 14 15  1  0  0  0  0
 14 48  1  0  0  0  0
 14 49  1  0  0  0  0
 15 16  1  0  0  0  0
 15 50  1  0  0  0  0
 15 51  1  0  0  0  0
 16 18  1  0  0  0  0
 17 52  1  0  0  0  0
 18 19  1  0  0  0  0
 18 53  1  0  0  0  0
 18 54  1  0  0  0  0
 19 20  1  0  0  0  0
 19 55  1  0  0  0  0
 19 56  1  0  0  0  0
 20 21  1  0  0  0  0
 21 22  1  0  0  0  0
 21 57  1  0  0  0  0
 21 58  1  0  0  0  0
 22 23  1  0  0  0  0
 22 27  2  0  0  0  0
 23 24  2  0  0  0  0
 23 29  1  0  0  0  0
 24 25  1  0  0  0  0
 24 59  1  0  0  0  0
 25 26  2  0  0  0  0
 25 60  1  0  0  0  0
 26 27  1  0  0  0  0
 26 61  1  0  0  0  0
 27 28  1  0  0  0  0
 30 31  1  0  0  0  0
 30 62  1  0  0  0  0
 30 63  1  0  0  0  0
 31 64  1  0  0  0  0
 32 65  1  0  0  0  0
M  END
>  <DRUGBANK_ID>
DB09082

>  <SECONDARY_ACCESSION_NUMBERS>
DB06577

>  <COMMON_NAME>
Vilanterol

>  <CAS_NUMBER>
503068-34-6

>  <UNII>
028LZY775B

>  <SYNONYMS>
Vilanterol; Vilant√©rol; Vilanterolum

$$$$
