D4G
 OpenBabel10282417163D

 22 23  0  0  0  0  0  0  0  0999 V2000
    0.6847    1.2641    0.0020 C   0  0  0  0  0  0  0  0  0  0  0  0
   -0.6949    1.1307    0.0021 C   0  0  0  0  0  0  0  0  0  0  0  0
   -1.3378   -0.0530    0.0047 N   0  0  0  0  0  0  0  0  0  0  0  0
   -0.5652   -1.1578    0.0048 C   0  0  0  0  0  0  0  0  0  0  0  0
    0.8218   -1.1260   -0.0017 C   0  0  0  0  0  0  0  0  0  0  0  0
    1.4714    0.1137   -0.0026 C   0  0  0  0  0  0  0  0  0  0  0  0
    3.2639    0.1248   -0.0102 S   0  0  0  0  0  0  0  0  0  0  0  0
    3.8678    2.0997   -0.0026 S   0  0  0  0  0  0  0  0  0  0  0  0
    5.6602    2.1113   -0.0166 C   0  0  0  0  0  0  0  0  0  0  0  0
    6.4472    0.9611   -0.0179 C   0  0  0  0  0  0  0  0  0  0  0  0
    7.8267    1.0949   -0.0335 C   0  0  0  0  0  0  0  0  0  0  0  0
    8.4693    2.2789   -0.0404 N   0  0  0  0  0  0  0  0  0  0  0  0
    7.6963    3.3834   -0.0338 C   0  0  0  0  0  0  0  0  0  0  0  0
    6.3093    3.3512   -0.0252 C   0  0  0  0  0  0  0  0  0  0  0  0
    1.1076    2.2590    0.0049 H   0  0  0  0  0  0  0  0  0  0  0  0
   -1.3361    2.0080   -0.0003 H   0  0  0  0  0  0  0  0  0  0  0  0
   -1.1087   -2.0987    0.0109 H   0  0  0  0  0  0  0  0  0  0  0  0
    1.3721   -2.0620   -0.0053 H   0  0  0  0  0  0  0  0  0  0  0  0
    6.0247   -0.0339   -0.0075 H   0  0  0  0  0  0  0  0  0  0  0  0
    8.4682    0.2179   -0.0409 H   0  0  0  0  0  0  0  0  0  0  0  0
    8.2395    4.3245   -0.0353 H   0  0  0  0  0  0  0  0  0  0  0  0
    5.7587    4.2870   -0.0243 H   0  0  0  0  0  0  0  0  0  0  0  0
  1  2  1  0  0  0  0
  1  6  2  0  0  0  0
  1 15  1  0  0  0  0
  2  3  2  0  0  0  0
  2 16  1  0  0  0  0
  3  4  1  0  0  0  0
  4  5  2  0  0  0  0
  4 17  1  0  0  0  0
  5  6  1  0  0  0  0
  5 18  1  0  0  0  0
  6  7  1  0  0  0  0
  7  8  1  0  0  0  0
  8  9  1  0  0  0  0
  9 10  1  0  0  0  0
  9 14  2  0  0  0  0
 10 11  2  0  0  0  0
 10 19  1  0  0  0  0
 11 12  1  0  0  0  0
 11 20  1  0  0  0  0
 12 13  2  0  0  0  0
 13 14  1  0  0  0  0
 13 21  1  0  0  0  0
 14 22  1  0  0  0  0
M  END
>  <DRUGBANK_ID>
DB07623

>  <COMMON_NAME>
4,4'-DIPYRIDYL DISULFIDE

>  <UNII>
EI4LXL5JH8

$$$$
