
 OpenBabel10282417133D

 24 24  0  0  1  0  0  0  0  0999 V2000
    0.8528    0.0160   -0.0641 C   0  0  0  0  0  0  0  0  0  0  0  0
    0.3831    0.7654   -1.3366 C   0  0  2  0  0  0  0  0  0  0  0  0
    0.3910   -1.4240    0.0085 C   0  0  0  0  0  0  0  0  0  0  0  0
    0.8768   -3.7887   -0.0254 C   0  0  0  0  0  0  0  0  0  0  0  0
   -0.4804   -4.0909   -0.0994 C   0  0  0  0  0  0  0  0  0  0  0  0
   -1.4102   -3.0577   -0.0803 C   0  0  0  0  0  0  0  0  0  0  0  0
   -0.9741   -1.7428    0.0405 C   0  0  0  0  0  0  0  0  0  0  0  0
    1.3196   -2.4697    0.0104 C   0  0  0  0  0  0  0  0  0  0  0  0
   -1.0906    0.9254   -1.4325 N   0  0  0  0  0  0  0  0  0  0  0  0
    0.9802    0.0908   -2.5851 C   0  0  0  0  0  0  0  0  0  0  0  0
    0.0758   -0.3877   -3.4728 O   0  0  0  0  0  0  0  0  0  0  0  0
    2.1852   -0.0110   -2.7860 O   0  0  0  0  0  0  0  0  0  0  0  0
    1.8226   -4.7701    0.0055 O   0  0  0  0  0  0  0  0  0  0  0  0
    0.5186    0.5394    0.8409 H   0  0  0  0  0  0  0  0  0  0  0  0
    1.9522    0.0454   -0.0310 H   0  0  0  0  0  0  0  0  0  0  0  0
    0.7906    1.7836   -1.3072 H   0  0  0  0  0  0  0  0  0  0  0  0
   -0.8337   -5.1147   -0.1493 H   0  0  0  0  0  0  0  0  0  0  0  0
   -2.4749   -3.2642   -0.1447 H   0  0  0  0  0  0  0  0  0  0  0  0
   -1.7245   -0.9652    0.1512 H   0  0  0  0  0  0  0  0  0  0  0  0
    2.3889   -2.2704    0.0360 H   0  0  0  0  0  0  0  0  0  0  0  0
   -1.3539    1.5124   -2.2191 H   0  0  0  0  0  0  0  0  0  0  0  0
   -1.5503    0.0241   -1.5007 H   0  0  0  0  0  0  0  0  0  0  0  0
   -0.8450   -0.2692   -3.1845 H   0  0  0  0  0  0  0  0  0  0  0  0
    1.3780   -5.6315   -0.0368 H   0  0  0  0  0  0  0  0  0  0  0  0
  1  2  1  0  0  0  0
  1 14  1  0  0  0  0
  1 15  1  0  0  0  0
  2 10  1  0  0  0  0
  2  9  1  0  0  0  0
  2 16  1  1  0  0  0
  3  1  1  0  0  0  0
  3  7  2  0  0  0  0
  3  8  1  0  0  0  0
  4  8  2  0  0  0  0
  4 13  1  0  0  0  0
  5  4  1  0  0  0  0
  5 17  1  0  0  0  0
  6  5  2  0  0  0  0
  6 18  1  0  0  0  0
  7  6  1  0  0  0  0
  7 19  1  0  0  0  0
  8 20  1  0  0  0  0
  9 21  1  0  0  0  0
  9 22  1  0  0  0  0
 11 10  1  0  0  0  0
 11 23  1  0  0  0  0
 12 10  2  0  0  0  0
 13 24  1  0  0  0  0
M  END
>  <DRUGBANK_ID>
DB03552

>  <SECONDARY_ACCESSION_NUMBERS>
EXPT01333; EXPT02254; DB02387

>  <COMMON_NAME>
3-Tyrosine

>  <CAS_NUMBER>
587-33-7

>  <UNII>
D5YF57V4QW

>  <SYNONYMS>
3-(m-Hydroxyphenyl)alanine; 3-Hydroxy-L-phenylalanine; 3-Hydroxyphenylalanine; L-m-Tyr; L-m-Tyrosine; L-mTyr; m-L-Tyrosine; m-tyrosine; meta-tyrosine

$$$$
