
 OpenBabel10282417173D

 32 33  0  0  0  0  0  0  0  0999 V2000
    1.3735   -0.2073    0.0817 C   0  0  0  0  0  0  0  0  0  0  0  0
    2.7878   -0.4116    0.1666 N   0  0  0  0  0  0  0  0  0  0  0  0
    0.4881   -1.2892    0.0636 C   0  0  0  0  0  0  0  0  0  0  0  0
    0.8557    1.0928    0.0455 C   0  0  0  0  0  0  0  0  0  0  0  0
    3.6271   -1.2410   -1.0409 S   0  0  0  0  0  0  0  0  0  0  0  0
    3.5817    0.0619    1.3175 C   0  0  0  0  0  0  0  0  0  0  0  0
   -0.8980   -1.0784    0.0101 C   0  0  0  0  0  0  0  0  0  0  0  0
   -0.5321    1.3139    0.0442 C   0  0  0  0  0  0  0  0  0  0  0  0
    4.3368   -2.5405   -0.0447 C   0  0  0  0  0  0  0  0  0  0  0  0
    2.7050   -1.8511   -1.9786 O   0  0  0  0  0  0  0  0  0  0  0  0
    4.7101   -0.3961   -1.4904 O   0  0  0  0  0  0  0  0  0  0  0  0
    4.2246   -1.1302    2.0385 C   0  0  0  0  0  0  0  0  0  0  0  0
   -1.4062    0.2249   -0.0069 C   0  0  0  0  0  0  0  0  0  0  0  0
    5.1267   -1.9591    1.1206 C   0  0  0  0  0  0  0  0  0  0  0  0
   -3.1461    0.4870   -0.2699 S   0  0  0  0  0  0  0  0  0  0  0  0
   -3.6504    1.3375    1.0953 N   0  0  0  0  0  0  0  0  0  0  0  0
   -3.3089    1.3729   -1.3981 O   0  0  0  0  0  0  0  0  0  0  0  0
   -3.8279   -0.7845   -0.1875 O   0  0  0  0  0  0  0  0  0  0  0  0
    0.8659   -2.3079    0.0453 H   0  0  0  0  0  0  0  0  0  0  0  0
    1.5311    1.9422   -0.0272 H   0  0  0  0  0  0  0  0  0  0  0  0
    4.3607    0.7482    0.9642 H   0  0  0  0  0  0  0  0  0  0  0  0
    2.9652    0.6192    2.0306 H   0  0  0  0  0  0  0  0  0  0  0  0
   -1.5641   -1.9374   -0.0480 H   0  0  0  0  0  0  0  0  0  0  0  0
   -0.9192    2.3305    0.0538 H   0  0  0  0  0  0  0  0  0  0  0  0
    3.5186   -3.1748    0.3121 H   0  0  0  0  0  0  0  0  0  0  0  0
    4.9808   -3.1341   -0.6989 H   0  0  0  0  0  0  0  0  0  0  0  0
    3.4407   -1.7797    2.4472 H   0  0  0  0  0  0  0  0  0  0  0  0
    4.8182   -0.7684    2.8864 H   0  0  0  0  0  0  0  0  0  0  0  0
    5.5840   -2.7732    1.6949 H   0  0  0  0  0  0  0  0  0  0  0  0
    5.9471   -1.3321    0.7494 H   0  0  0  0  0  0  0  0  0  0  0  0
   -4.6250    1.6180    0.9446 H   0  0  0  0  0  0  0  0  0  0  0  0
   -3.5732    0.7710    1.9387 H   0  0  0  0  0  0  0  0  0  0  0  0
  1  2  1  0  0  0  0
  1  3  2  0  0  0  0
  1  4  1  0  0  0  0
  2  5  1  0  0  0  0
  2  6  1  0  0  0  0
  3  7  1  0  0  0  0
  3 19  1  0  0  0  0
  4  8  2  0  0  0  0
  4 20  1  0  0  0  0
  5  9  1  0  0  0  0
  5 10  2  0  0  0  0
  5 11  2  0  0  0  0
  6 12  1  0  0  0  0
  6 21  1  0  0  0  0
  6 22  1  0  0  0  0
  7 13  2  0  0  0  0
  7 23  1  0  0  0  0
  8 13  1  0  0  0  0
  8 24  1  0  0  0  0
  9 14  1  0  0  0  0
  9 25  1  0  0  0  0
  9 26  1  0  0  0  0
 12 14  1  0  0  0  0
 12 27  1  0  0  0  0
 12 28  1  0  0  0  0
 13 15  1  0  0  0  0
 14 29  1  0  0  0  0
 14 30  1  0  0  0  0
 15 16  1  0  0  0  0
 15 17  2  0  0  0  0
 15 18  2  0  0  0  0
 16 31  1  0  0  0  0
 16 32  1  0  0  0  0
M  END
>  <DRUGBANK_ID>
DB08329

>  <COMMON_NAME>
Sulthiame

>  <CAS_NUMBER>
61-56-3

>  <UNII>
I00Q766CZ2

>  <SYNONYMS>
Sulthiame; Sultiame; Sultiamo; Sultiamum

$$$$
