
 OpenBabel10282417103D

 55 56  0  0  1  0  0  0  0  0999 V2000
   -0.6642    8.4208    0.6539 N   0  0  0  0  0  0  0  0  0  0  0  0
   -0.7776    7.0945    1.0372 C   0  0  0  0  0  0  0  0  0  0  0  0
    0.6284    9.1133    0.4485 C   0  0  2  0  0  0  0  0  0  0  0  0
   -2.2622    5.2855    0.3645 N   0  0  0  0  0  0  0  0  0  0  0  0
   -2.1779    6.4737    1.2297 C   0  0  1  0  0  0  0  0  0  0  0  0
    1.9032    8.6345    1.1636 C   0  0  0  0  0  0  0  0  0  0  0  0
   -3.3249    3.1058    0.0318 C   0  0  0  0  0  0  0  0  0  0  0  0
   -3.5381    4.5629    0.4638 C   0  0  2  0  0  0  0  0  0  0  0  0
    0.2007    6.3950    1.3134 O   0  0  0  0  0  0  0  0  0  0  0  0
    2.6196    9.3049    1.8990 O   0  0  0  0  0  0  0  0  0  0  0  0
   -2.6550    2.7572   -0.9333 O   0  0  0  0  0  0  0  0  0  0  0  0
   -4.5927    5.2589   -0.4083 C   0  0  0  0  0  0  0  0  0  0  0  0
   -1.7633    9.3287    0.3357 C   0  0  0  0  0  0  0  0  0  0  0  0
    2.2785    7.3963    0.7839 O   0  0  0  0  0  0  0  0  0  0  0  0
   -4.0449    2.2645    0.8340 O   0  0  0  0  0  0  0  0  0  0  0  0
   -5.9930    4.6712   -0.2073 C   0  0  0  0  0  0  0  0  0  0  0  0
    0.2545   10.5538    0.8403 C   0  0  0  0  0  0  0  0  0  0  0  0
   -6.4218    4.7780    1.2378 C   0  0  0  0  0  0  0  0  0  0  0  0
   -1.1482   10.7263    0.2643 C   0  0  0  0  0  0  0  0  0  0  0  0
   -2.2603    6.0673    2.7100 C   0  0  0  0  0  0  0  0  0  0  0  0
   -4.0191    0.8684    0.5032 C   0  0  0  0  0  0  0  0  0  0  0  0
   -6.6014    3.6150    1.9977 C   0  0  0  0  0  0  0  0  0  0  0  0
   -6.4979    6.0249    1.8744 C   0  0  0  0  0  0  0  0  0  0  0  0
   -6.8118    3.6928    3.3724 C   0  0  0  0  0  0  0  0  0  0  0  0
   -6.6654    6.0987    3.2567 C   0  0  0  0  0  0  0  0  0  0  0  0
   -6.8433    4.9345    4.0015 C   0  0  0  0  0  0  0  0  0  0  0  0
   -4.6849    0.6019   -0.8362 C   0  0  0  0  0  0  0  0  0  0  0  0
    0.8467    9.0994   -0.6273 H   0  0  0  0  0  0  0  0  0  0  0  0
   -2.0478    5.5046   -0.6084 H   0  0  0  0  0  0  0  0  0  0  0  0
   -2.9673    7.1859    0.9884 H   0  0  0  0  0  0  0  0  0  0  0  0
   -3.8526    4.5147    1.5060 H   0  0  0  0  0  0  0  0  0  0  0  0
   -4.6247    6.3313   -0.1743 H   0  0  0  0  0  0  0  0  0  0  0  0
   -4.3141    5.1902   -1.4667 H   0  0  0  0  0  0  0  0  0  0  0  0
   -2.5405    9.2733    1.1011 H   0  0  0  0  0  0  0  0  0  0  0  0
   -2.1944    9.0490   -0.6333 H   0  0  0  0  0  0  0  0  0  0  0  0
    2.3328    6.8438    1.5956 H   0  0  0  0  0  0  0  0  0  0  0  0
   -6.7133    5.1928   -0.8458 H   0  0  0  0  0  0  0  0  0  0  0  0
   -5.9894    3.6245   -0.5318 H   0  0  0  0  0  0  0  0  0  0  0  0
    0.2158   10.6670    1.9325 H   0  0  0  0  0  0  0  0  0  0  0  0
    0.9522   11.3045    0.4559 H   0  0  0  0  0  0  0  0  0  0  0  0
   -1.7404   11.4632    0.8184 H   0  0  0  0  0  0  0  0  0  0  0  0
   -1.0929   11.0729   -0.7747 H   0  0  0  0  0  0  0  0  0  0  0  0
   -2.0863    6.9273    3.3619 H   0  0  0  0  0  0  0  0  0  0  0  0
   -3.2326    5.6532    2.9870 H   0  0  0  0  0  0  0  0  0  0  0  0
   -1.5029    5.3094    2.9513 H   0  0  0  0  0  0  0  0  0  0  0  0
   -2.9904    0.4966    0.5408 H   0  0  0  0  0  0  0  0  0  0  0  0
   -4.5821    0.3433    1.2854 H   0  0  0  0  0  0  0  0  0  0  0  0
   -6.5274    2.6354    1.5313 H   0  0  0  0  0  0  0  0  0  0  0  0
   -6.3820    6.9442    1.3051 H   0  0  0  0  0  0  0  0  0  0  0  0
   -6.9205    2.7813    3.9538 H   0  0  0  0  0  0  0  0  0  0  0  0
   -6.6368    7.0628    3.7572 H   0  0  0  0  0  0  0  0  0  0  0  0
   -7.0052    4.9942    5.0740 H   0  0  0  0  0  0  0  0  0  0  0  0
   -4.1810    1.1262   -1.6517 H   0  0  0  0  0  0  0  0  0  0  0  0
   -4.6738   -0.4646   -1.0710 H   0  0  0  0  0  0  0  0  0  0  0  0
   -5.7188    0.9614   -0.8289 H   0  0  0  0  0  0  0  0  0  0  0  0
  2  1  1  0  0  0  0
  3  1  1  0  0  0  0
  3 28  1  6  0  0  0
  3  6  1  0  0  0  0
  4 29  1  0  0  0  0
  5  2  1  0  0  0  0
  5  4  1  0  0  0  0
  5 20  1  0  0  0  0
  5 30  1  6  0  0  0
  8 31  1  1  0  0  0
  8  7  1  0  0  0  0
  8  4  1  0  0  0  0
  9  2  2  0  0  0  0
 10  6  2  0  0  0  0
 11  7  2  0  0  0  0
 12  8  1  0  0  0  0
 12 32  1  0  0  0  0
 12 33  1  0  0  0  0
 13  1  1  0  0  0  0
 13 34  1  0  0  0  0
 13 35  1  0  0  0  0
 14  6  1  0  0  0  0
 14 36  1  0  0  0  0
 15  7  1  0  0  0  0
 16 12  1  0  0  0  0
 16 37  1  0  0  0  0
 16 38  1  0  0  0  0
 17  3  1  0  0  0  0
 17 39  1  0  0  0  0
 17 40  1  0  0  0  0
 18 16  1  0  0  0  0
 19 13  1  0  0  0  0
 19 17  1  0  0  0  0
 19 41  1  0  0  0  0
 19 42  1  0  0  0  0
 20 43  1  0  0  0  0
 20 44  1  0  0  0  0
 20 45  1  0  0  0  0
 21 15  1  0  0  0  0
 21 27  1  0  0  0  0
 21 46  1  0  0  0  0
 21 47  1  0  0  0  0
 22 18  2  0  0  0  0
 22 48  1  0  0  0  0
 23 18  1  0  0  0  0
 23 49  1  0  0  0  0
 24 22  1  0  0  0  0
 24 50  1  0  0  0  0
 25 23  2  0  0  0  0
 25 51  1  0  0  0  0
 26 24  2  0  0  0  0
 26 25  1  0  0  0  0
 26 52  1  0  0  0  0
 27 53  1  0  0  0  0
 27 54  1  0  0  0  0
 27 55  1  0  0  0  0
M  END
>  <DRUGBANK_ID>
DB00584

>  <SECONDARY_ACCESSION_NUMBERS>
APRD00510

>  <COMMON_NAME>
Enalapril

>  <CAS_NUMBER>
75847-73-3

>  <UNII>
69PN84IO1A

>  <SYNONYMS>
(S)-1-(N-(1-(ethoxycarbonyl)-3-phenylpropyl)-L-alanyl)-L-proline; (S)-1-{(S)-2-[1-((S)-Ethoxycarbonyl)-3-phenyl-propylamino]-propionyl}-pyrrolidine-2-carboxylic acid; 1-(N-((S)-1-carboxy-3-phenylpropyl)-L-alanyl)-L-proline 1'-ethyl ester; Ã¡nalapril; Enalapril; Enalaprila; Enalaprilum

$$$$
