
 OpenBabel10282417233D

 35 35  0  0  1  0  0  0  0  0999 V2000
    0.9065    0.0544    0.2363 C   0  0  0  0  0  0  0  0  0  0  0  0
    0.4971    1.5307    0.0585 C   0  0  1  0  0  0  0  0  0  0  0  0
    1.0517    2.1647   -1.2668 C   0  0  0  0  0  0  0  0  0  0  0  0
    0.6587    1.4588   -2.5479 C   0  0  0  0  0  0  0  0  0  0  0  0
    0.0432    2.1401   -3.6038 C   0  0  0  0  0  0  0  0  0  0  0  0
   -0.2781    1.4520   -4.7715 C   0  0  0  0  0  0  0  0  0  0  0  0
   -0.0468    0.0770   -4.8378 C   0  0  0  0  0  0  0  0  0  0  0  0
   -0.2839   -0.6969   -5.9189 O   0  0  0  0  0  0  0  0  0  0  0  0
   -0.8699    0.0578   -7.3611 P   0  0  0  0  0  0  0  0  0  0  0  0
   -0.6793   -1.4247   -8.0341 O   0  0  0  0  0  0  0  0  0  0  0  0
   -2.3672   -0.2089   -6.7373 O   0  0  0  0  0  0  0  0  0  0  0  0
   -1.3944    0.7332   -8.6519 O   0  0  0  0  0  0  0  0  0  0  0  0
    0.5050   -0.6105   -3.7852 C   0  0  0  0  0  0  0  0  0  0  0  0
    0.6816   -1.9619   -3.7801 O   0  0  0  0  0  0  0  0  0  0  0  0
    0.9426    0.0971   -2.7034 C   0  0  0  0  0  0  0  0  0  0  0  0
   -1.0081    1.5225    0.0588 N   0  0  0  0  0  0  0  0  0  0  0  0
   -1.5358    2.8717   -0.0596 N   0  0  0  0  0  0  0  0  0  0  0  0
    1.0345    2.3697    1.2622 C   0  0  0  0  0  0  0  0  0  0  0  0
    1.8546    1.7415    2.1431 O   0  0  0  0  0  0  0  0  0  0  0  0
    0.7718    3.5511    1.4334 O   0  0  0  0  0  0  0  0  0  0  0  0
    0.3609   -0.6226   -0.4265 H   0  0  0  0  0  0  0  0  0  0  0  0
    0.6770   -0.3384    1.2298 H   0  0  0  0  0  0  0  0  0  0  0  0
    1.9868   -0.0594    0.0641 H   0  0  0  0  0  0  0  0  0  0  0  0
    0.7308    3.2154   -1.3333 H   0  0  0  0  0  0  0  0  0  0  0  0
    2.1472    2.2094   -1.2435 H   0  0  0  0  0  0  0  0  0  0  0  0
   -0.1624    3.2084   -3.5419 H   0  0  0  0  0  0  0  0  0  0  0  0
   -0.7011    2.0181   -5.5966 H   0  0  0  0  0  0  0  0  0  0  0  0
    0.1027   -1.4435   -8.6093 H   0  0  0  0  0  0  0  0  0  0  0  0
   -2.4035   -0.0490   -5.7789 H   0  0  0  0  0  0  0  0  0  0  0  0
    0.3260   -2.3125   -4.6184 H   0  0  0  0  0  0  0  0  0  0  0  0
    1.5242   -0.4680   -1.9937 H   0  0  0  0  0  0  0  0  0  0  0  0
   -1.3042    0.9777   -0.7633 H   0  0  0  0  0  0  0  0  0  0  0  0
   -2.5553    2.8874    0.0255 H   0  0  0  0  0  0  0  0  0  0  0  0
   -1.1963    3.4637    0.7163 H   0  0  0  0  0  0  0  0  0  0  0  0
    2.0339    0.7934    2.0275 H   0  0  0  0  0  0  0  0  0  0  0  0
  1 21  1  0  0  0  0
  1 22  1  0  0  0  0
  1 23  1  0  0  0  0
  2  1  1  0  0  0  0
  2  3  1  0  0  0  0
  2 16  1  0  0  0  0
  2 18  1  1  0  0  0
  3  4  1  0  0  0  0
  3 24  1  0  0  0  0
  3 25  1  0  0  0  0
  4  5  2  0  0  0  0
  4 15  1  0  0  0  0
  5  6  1  0  0  0  0
  5 26  1  0  0  0  0
  6  7  2  0  0  0  0
  6 27  1  0  0  0  0
  7  8  1  0  0  0  0
  7 13  1  0  0  0  0
  8  9  1  0  0  0  0
  9 10  1  0  0  0  0
  9 11  1  0  0  0  0
  9 12  2  0  0  0  0
 10 28  1  0  0  0  0
 11 29  1  0  0  0  0
 13 14  1  0  0  0  0
 13 15  2  0  0  0  0
 14 30  1  0  0  0  0
 15 31  1  0  0  0  0
 16 17  1  0  0  0  0
 16 32  1  0  0  0  0
 17 33  1  0  0  0  0
 17 34  1  0  0  0  0
 18 19  1  0  0  0  0
 18 20  2  0  0  0  0
 19 35  1  0  0  0  0
M  END
>  <DRUGBANK_ID>
DB16171

>  <COMMON_NAME>
Foscarbidopa

>  <CAS_NUMBER>
1907685-81-7

>  <UNII>
5NT8HCA4OO

>  <SYNONYMS>
Foscarbidopa

$$$$
