
 OpenBabel10282417223D

 18 19  0  0  0  0  0  0  0  0999 V2000
   -0.7353    0.2537    0.0025 C   0  0  0  0  0  0  0  0  0  0  0  0
    0.2839   -1.1315    0.0011 S   0  0  0  0  0  0  0  0  0  0  0  0
   -0.0662    1.3856   -0.0021 N   0  0  0  0  0  0  0  0  0  0  0  0
    1.6476   -0.0638   -0.0222 C   0  0  0  0  0  0  0  0  0  0  0  0
    1.3118    1.2065   -0.0278 N   0  0  0  0  0  0  0  0  0  0  0  0
    3.2868   -0.6916   -0.0954 S   0  0  0  0  0  0  0  0  0  0  0  0
    4.2772    0.7616   -0.1110 C   0  0  0  0  0  0  0  0  0  0  0  0
   -2.0775    0.1633    0.0036 N   0  0  0  0  0  0  0  0  0  0  0  0
    5.4527    1.0458   -1.3552 S   0  0  0  0  0  0  0  0  0  0  0  0
    4.3438    1.5928    0.9098 N   0  0  0  0  0  0  0  0  0  0  0  0
    6.0091    2.4095   -0.5036 C   0  0  0  0  0  0  0  0  0  0  0  0
    5.3184    2.5560    0.6743 C   0  0  0  0  0  0  0  0  0  0  0  0
    7.0620    3.2513   -0.9909 N   0  3  0  0  0  0  0  0  0  0  0  0
    7.5969    2.9653   -2.0659 O   0  0  0  0  0  0  0  0  0  0  0  0
    7.3608    4.2225   -0.2772 O   0  5  0  0  0  0  0  0  0  0  0  0
   -2.5800   -0.7139   -0.0426 H   0  0  0  0  0  0  0  0  0  0  0  0
   -2.6368    1.0089   -0.0200 H   0  0  0  0  0  0  0  0  0  0  0  0
    5.4838    3.3388    1.4071 H   0  0  0  0  0  0  0  0  0  0  0  0
  1  2  1  0  0  0  0
  1  3  2  0  0  0  0
  1  8  1  0  0  0  0
  2  4  1  0  0  0  0
  3  5  1  0  0  0  0
  4  5  2  0  0  0  0
  4  6  1  0  0  0  0
  6  7  1  0  0  0  0
  7  9  1  0  0  0  0
  7 10  2  0  0  0  0
  8 16  1  0  0  0  0
  8 17  1  0  0  0  0
  9 11  1  0  0  0  0
 10 12  1  0  0  0  0
 11 12  2  0  0  0  0
 11 13  1  0  0  0  0
 12 18  1  0  0  0  0
 13 14  2  0  0  0  0
 13 15  1  0  0  0  0
M  CHG  2  13   1  15  -1
M  END
>  <DRUGBANK_ID>
DB15624

>  <COMMON_NAME>
Halicin

>  <CAS_NUMBER>
40045-50-9

>  <UNII>
Y4KQC5P9B2

>  <SYNONYMS>
2-amino-5-[(5-nitro-2-thiazolyl)thio]-1,3,4-thiadiazole

$$$$
