
 OpenBabel10282417183D

 31 31  0  0  0  0  0  0  0  0999 V2000
    1.0776    0.4495   -0.4594 C   0  0  0  0  0  0  0  0  0  0  0  0
    0.5158    1.1393    0.6411 O   0  0  0  0  0  0  0  0  0  0  0  0
    1.0925    1.0410    2.2692 P   0  0  0  0  0  0  0  0  0  0  0  0
   -0.3353    2.3368    2.8298 S   0  0  0  0  0  0  0  0  0  0  0  0
    0.5220   -0.5004    2.5061 O   0  0  0  0  0  0  0  0  0  0  0  0
    0.1463   -1.3979    1.4995 C   0  0  0  0  0  0  0  0  0  0  0  0
    1.6692    0.9427    3.8973 O   0  0  0  0  0  0  0  0  0  0  0  0
    2.9937    0.6418    4.0949 C   0  0  0  0  0  0  0  0  0  0  0  0
    4.0308    1.2311    3.4073 C   0  0  0  0  0  0  0  0  0  0  0  0
    5.3586    0.8821    3.7208 C   0  0  0  0  0  0  0  0  0  0  0  0
    5.6861   -0.0697    4.7301 C   0  0  0  0  0  0  0  0  0  0  0  0
    7.4723   -0.3076    4.8911 S   0  0  0  0  0  0  0  0  0  0  0  0
    7.7854   -1.5283    6.1994 C   0  0  0  0  0  0  0  0  0  0  0  0
    4.6168   -0.6541    5.4241 C   0  0  0  0  0  0  0  0  0  0  0  0
    4.6873   -1.6834    6.5122 C   0  0  0  0  0  0  0  0  0  0  0  0
    3.2839   -0.2794    5.1020 C   0  0  0  0  0  0  0  0  0  0  0  0
    0.9326    1.0350   -1.3700 H   0  0  0  0  0  0  0  0  0  0  0  0
    0.5145   -0.4654   -0.6742 H   0  0  0  0  0  0  0  0  0  0  0  0
    2.1290    0.2105   -0.3050 H   0  0  0  0  0  0  0  0  0  0  0  0
   -0.6885   -0.9752    0.9357 H   0  0  0  0  0  0  0  0  0  0  0  0
    1.0203   -1.6361    0.8878 H   0  0  0  0  0  0  0  0  0  0  0  0
   -0.1981   -2.3467    1.9142 H   0  0  0  0  0  0  0  0  0  0  0  0
    3.8555    1.9947    2.6499 H   0  0  0  0  0  0  0  0  0  0  0  0
    6.1548    1.3803    3.1685 H   0  0  0  0  0  0  0  0  0  0  0  0
    7.4242   -1.1625    7.1659 H   0  0  0  0  0  0  0  0  0  0  0  0
    7.3534   -2.4981    5.9326 H   0  0  0  0  0  0  0  0  0  0  0  0
    8.8593   -1.6980    6.3220 H   0  0  0  0  0  0  0  0  0  0  0  0
    4.2143   -1.3061    7.4230 H   0  0  0  0  0  0  0  0  0  0  0  0
    4.2029   -2.6073    6.1841 H   0  0  0  0  0  0  0  0  0  0  0  0
    5.6749   -1.9696    6.8117 H   0  0  0  0  0  0  0  0  0  0  0  0
    2.4553   -0.7218    5.6482 H   0  0  0  0  0  0  0  0  0  0  0  0
  1  2  1  0  0  0  0
  1 17  1  0  0  0  0
  1 18  1  0  0  0  0
  1 19  1  0  0  0  0
  2  3  1  0  0  0  0
  3  4  2  0  0  0  0
  3  5  1  0  0  0  0
  3  7  1  0  0  0  0
  5  6  1  0  0  0  0
  6 20  1  0  0  0  0
  6 21  1  0  0  0  0
  6 22  1  0  0  0  0
  7  8  1  0  0  0  0
  8  9  2  0  0  0  0
  8 16  1  0  0  0  0
  9 10  1  0  0  0  0
  9 23  1  0  0  0  0
 10 11  2  0  0  0  0
 10 24  1  0  0  0  0
 11 12  1  0  0  0  0
 11 14  1  0  0  0  0
 12 13  1  0  0  0  0
 13 25  1  0  0  0  0
 13 26  1  0  0  0  0
 13 27  1  0  0  0  0
 14 15  1  0  0  0  0
 14 16  2  0  0  0  0
 15 28  1  0  0  0  0
 15 29  1  0  0  0  0
 15 30  1  0  0  0  0
 16 31  1  0  0  0  0
M  END
>  <DRUGBANK_ID>
DB11412

>  <COMMON_NAME>
Fenthion

>  <CAS_NUMBER>
55-38-9

>  <UNII>
BL0L45OVKT

>  <SYNONYMS>
4-methylmercapto-3-Methylphenyl dimethyl thiophosphate; Mercaptophos; MPP; O,O-Dimethyl O-[3-methyl-4-(methylsulfanyl)phenyl] thiophosphate; O,O-Dimethyl O-4-(methylmercapto)-3-methylphenyl phosphorothioate; O,O-Dimethyl O-4-methylthio-m-tolyl phosphorothioate; O,O-Dimethyl-O-4-(methylmercapto)-3-methylphenyl thiophosphate; Phosphorothioic acid, O,O-dimethyl O-(3-methyl-4-(methylthio)phenyl) ester

$$$$
