ABW
 OpenBabel10282417133D

 44 44  0  0  0  0  0  0  0  0999 V2000
   -1.1777   -0.7186   -0.2699 C   0  0  1  0  0  0  0  0  0  0  0  0
    0.2383   -1.1856    0.0234 C   0  0  1  0  0  0  0  0  0  0  0  0
    1.0614   -0.0019   -0.1258 O   0  0  0  0  0  0  0  0  0  0  0  0
    0.2977    1.1988   -0.2307 C   0  0  2  0  0  0  0  0  0  0  0  0
   -1.1317    0.7697    0.0626 C   0  0  0  0  0  0  0  0  0  0  0  0
    0.5071    1.9431   -1.5791 C   0  0  0  0  0  0  0  0  0  0  0  0
    0.9017    3.2317   -1.4940 O   0  0  0  0  0  0  0  0  0  0  0  0
    0.3531    1.4643   -2.6940 O   0  0  0  0  0  0  0  0  0  0  0  0
   -0.4197   -3.0922    1.5790 N   0  0  0  0  0  0  0  0  0  0  0  0
    0.0673   -4.3411    1.9277 C   0  0  0  0  0  0  0  0  0  0  0  0
   -0.9394   -5.4469    2.0047 C   0  0  0  0  0  0  0  0  0  0  0  0
    1.2390   -4.6207    2.1614 O   0  0  0  0  0  0  0  0  0  0  0  0
    0.3953   -1.8475    1.4458 C   0  0  1  0  0  0  0  0  0  0  0  0
    1.8772   -2.1082    1.7887 C   0  0  0  0  0  0  0  0  0  0  0  0
    2.8333   -0.9241    1.7857 C   0  0  0  0  0  0  0  0  0  0  0  0
    2.3762    0.1275    2.7877 C   0  0  0  0  0  0  0  0  0  0  0  0
    4.2470   -1.4078    2.0771 C   0  0  0  0  0  0  0  0  0  0  0  0
   -1.6143   -1.0687   -1.6882 C   0  0  0  0  0  0  0  0  0  0  0  0
   -2.6799   -1.6190   -1.9344 O   0  0  0  0  0  0  0  0  0  0  0  0
   -0.7107   -0.7025   -2.6152 O   0  0  0  0  0  0  0  0  0  0  0  0
   -1.1098   -0.6803   -3.9942 C   0  0  0  0  0  0  0  0  0  0  0  0
   -1.9090   -1.2162    0.3758 H   0  0  0  0  0  0  0  0  0  0  0  0
    0.6004   -1.9164   -0.7076 H   0  0  0  0  0  0  0  0  0  0  0  0
    0.6508    1.8788    0.5571 H   0  0  0  0  0  0  0  0  0  0  0  0
   -0.0193   -1.1643    2.1995 H   0  0  0  0  0  0  0  0  0  0  0  0
   -1.8930    1.3781   -0.4274 H   0  0  0  0  0  0  0  0  0  0  0  0
   -1.2879    0.8623    1.1504 H   0  0  0  0  0  0  0  0  0  0  0  0
    1.1613    3.5613   -0.6187 H   0  0  0  0  0  0  0  0  0  0  0  0
   -1.4268   -2.9959    1.5187 H   0  0  0  0  0  0  0  0  0  0  0  0
   -0.6423   -6.2090    1.2773 H   0  0  0  0  0  0  0  0  0  0  0  0
   -0.8917   -5.8784    3.0097 H   0  0  0  0  0  0  0  0  0  0  0  0
   -1.9566   -5.1191    1.7949 H   0  0  0  0  0  0  0  0  0  0  0  0
    1.9273   -2.5454    2.7965 H   0  0  0  0  0  0  0  0  0  0  0  0
    2.2625   -2.8493    1.0767 H   0  0  0  0  0  0  0  0  0  0  0  0
    2.9026   -0.4961    0.7870 H   0  0  0  0  0  0  0  0  0  0  0  0
    2.3822   -0.2795    3.8043 H   0  0  0  0  0  0  0  0  0  0  0  0
    3.0285    1.0017    2.7514 H   0  0  0  0  0  0  0  0  0  0  0  0
    1.3584    0.4733    2.5811 H   0  0  0  0  0  0  0  0  0  0  0  0
    4.5503   -2.1566    1.3352 H   0  0  0  0  0  0  0  0  0  0  0  0
    4.9444   -0.5689    2.0087 H   0  0  0  0  0  0  0  0  0  0  0  0
    4.3213   -1.8578    3.0701 H   0  0  0  0  0  0  0  0  0  0  0  0
   -1.0905   -1.6935   -4.3963 H   0  0  0  0  0  0  0  0  0  0  0  0
   -2.0912   -0.2123   -4.1260 H   0  0  0  0  0  0  0  0  0  0  0  0
   -0.3832   -0.0794   -4.5558 H   0  0  0  0  0  0  0  0  0  0  0  0
  1  2  1  0  0  0  0
  1  5  1  0  0  0  0
  1 18  1  0  0  0  0
  1 22  1  1  0  0  0
  2  3  1  0  0  0  0
  2 13  1  0  0  0  0
  2 23  1  6  0  0  0
  3  4  1  0  0  0  0
  4  5  1  0  0  0  0
  4  6  1  0  0  0  0
  4 24  1  1  0  0  0
  5 26  1  0  0  0  0
  5 27  1  0  0  0  0
  6  7  1  0  0  0  0
  6  8  2  0  0  0  0
  7 28  1  0  0  0  0
  9 10  1  0  0  0  0
  9 29  1  0  0  0  0
 10 11  1  0  0  0  0
 10 12  2  0  0  0  0
 11 30  1  0  0  0  0
 11 31  1  0  0  0  0
 11 32  1  0  0  0  0
 13  9  1  0  0  0  0
 13 14  1  0  0  0  0
 13 25  1  1  0  0  0
 14 15  1  0  0  0  0
 14 33  1  0  0  0  0
 14 34  1  0  0  0  0
 15 16  1  0  0  0  0
 15 17  1  0  0  0  0
 15 35  1  0  0  0  0
 16 36  1  0  0  0  0
 16 37  1  0  0  0  0
 16 38  1  0  0  0  0
 17 39  1  0  0  0  0
 17 40  1  0  0  0  0
 17 41  1  0  0  0  0
 18 19  2  0  0  0  0
 18 20  1  0  0  0  0
 20 21  1  0  0  0  0
 21 42  1  0  0  0  0
 21 43  1  0  0  0  0
 21 44  1  0  0  0  0
M  END
>  <DRUGBANK_ID>
DB03257

>  <SECONDARY_ACCESSION_NUMBERS>
EXPT00403

>  <COMMON_NAME>
5-[1-(Acetylamino)-3-Methylbutyl]-2,5-Anhydro-3,4-Dideoxy-4-(Methoxycarbonyl)Pentonic Acid

$$$$
