1561
 OpenBabel10282417113D

 49 52  0  0  1  0  0  0  0  0999 V2000
   -4.9264    1.0799    0.8353 O   0  0  0  0  0  0  0  0  0  0  0  0
    5.5993    0.0743    0.9092 O   0  0  0  0  0  0  0  0  0  0  0  0
    0.1494    0.4012    0.1599 C   0  0  1  0  0  0  0  0  0  0  0  0
   -0.6538   -0.8552   -0.3078 C   0  0  2  0  0  0  0  0  0  0  0  0
    1.6338    0.3711   -0.3408 C   0  0  2  0  0  0  0  0  0  0  0  0
   -2.0670   -0.7599    0.2762 C   0  0  1  0  0  0  0  0  0  0  0  0
   -2.7934    0.5198   -0.1811 C   0  0  2  0  0  0  0  0  0  0  0  0
    2.2789   -0.9503    0.1830 C   0  0  1  0  0  0  0  0  0  0  0  0
   -0.5924    1.7266   -0.1446 C   0  0  0  0  0  0  0  0  0  0  0  0
    0.0508   -2.1409    0.1475 C   0  0  0  0  0  0  0  0  0  0  0  0
   -2.0408    1.7277    0.3608 C   0  0  0  0  0  0  0  0  0  0  0  0
    1.5137   -2.1930   -0.2878 C   0  0  0  0  0  0  0  0  0  0  0  0
   -3.0767   -1.8757    0.0154 C   0  0  0  0  0  0  0  0  0  0  0  0
    2.4237    1.5497    0.2889 C   0  0  0  0  0  0  0  0  0  0  0  0
   -4.1404    0.2298    0.4452 C   0  0  0  0  0  0  0  0  0  0  0  0
    1.6988    0.4791   -1.8839 C   0  0  0  0  0  0  0  0  0  0  0  0
    3.7698   -1.0579   -0.1469 C   0  0  0  0  0  0  0  0  0  0  0  0
   -4.4102   -1.2643    0.4814 C   0  0  0  0  0  0  0  0  0  0  0  0
   -3.0322    0.6412   -1.6965 C   0  0  0  0  0  0  0  0  0  0  0  0
    3.9182    1.5116    0.0005 C   0  0  0  0  0  0  0  0  0  0  0  0
    4.5068    0.1663    0.3503 C   0  0  0  0  0  0  0  0  0  0  0  0
    0.1931    0.3444    1.2595 H   0  0  0  0  0  0  0  0  0  0  0  0
   -0.7189   -0.8734   -1.4020 H   0  0  0  0  0  0  0  0  0  0  0  0
   -1.9473   -0.7246    1.3727 H   0  0  0  0  0  0  0  0  0  0  0  0
    2.2084   -0.9320    1.2826 H   0  0  0  0  0  0  0  0  0  0  0  0
   -0.0778    2.5682    0.3293 H   0  0  0  0  0  0  0  0  0  0  0  0
   -0.5853    1.9295   -1.2195 H   0  0  0  0  0  0  0  0  0  0  0  0
   -0.4711   -3.0184   -0.2499 H   0  0  0  0  0  0  0  0  0  0  0  0
    0.0056   -2.2141    1.2420 H   0  0  0  0  0  0  0  0  0  0  0  0
   -2.0378    1.7190    1.4588 H   0  0  0  0  0  0  0  0  0  0  0  0
   -2.5331    2.6612    0.0645 H   0  0  0  0  0  0  0  0  0  0  0  0
    1.5721   -2.2941   -1.3772 H   0  0  0  0  0  0  0  0  0  0  0  0
    1.9752   -3.0945    0.1325 H   0  0  0  0  0  0  0  0  0  0  0  0
   -3.1170   -2.1514   -1.0442 H   0  0  0  0  0  0  0  0  0  0  0  0
   -2.8474   -2.7844    0.5802 H   0  0  0  0  0  0  0  0  0  0  0  0
    2.2784    1.5328    1.3780 H   0  0  0  0  0  0  0  0  0  0  0  0
    2.0371    2.5111   -0.0658 H   0  0  0  0  0  0  0  0  0  0  0  0
    1.1633   -0.3317   -2.3843 H   0  0  0  0  0  0  0  0  0  0  0  0
    1.2659    1.4202   -2.2360 H   0  0  0  0  0  0  0  0  0  0  0  0
    2.7247    0.4509   -2.2608 H   0  0  0  0  0  0  0  0  0  0  0  0
    3.9492   -1.1652   -1.2209 H   0  0  0  0  0  0  0  0  0  0  0  0
    4.1951   -1.9373    0.3509 H   0  0  0  0  0  0  0  0  0  0  0  0
   -5.2252   -1.5153   -0.2019 H   0  0  0  0  0  0  0  0  0  0  0  0
   -4.6486   -1.5633    1.5047 H   0  0  0  0  0  0  0  0  0  0  0  0
   -3.5061   -0.2507   -2.1177 H   0  0  0  0  0  0  0  0  0  0  0  0
   -3.7071    1.4792   -1.9070 H   0  0  0  0  0  0  0  0  0  0  0  0
   -2.1104    0.8074   -2.2591 H   0  0  0  0  0  0  0  0  0  0  0  0
    4.4169    2.2839    0.5953 H   0  0  0  0  0  0  0  0  0  0  0  0
    4.1260    1.7190   -1.0536 H   0  0  0  0  0  0  0  0  0  0  0  0
  1 15  2  0  0  0  0
  2 21  2  0  0  0  0
  3  4  1  0  0  0  0
  3  5  1  0  0  0  0
  3  9  1  0  0  0  0
  3 22  1  1  0  0  0
  4  6  1  0  0  0  0
  4 10  1  0  0  0  0
  4 23  1  6  0  0  0
  5  8  1  0  0  0  0
  5 14  1  0  0  0  0
  5 16  1  6  0  0  0
  6  7  1  0  0  0  0
  6 13  1  0  0  0  0
  6 24  1  1  0  0  0
  7 11  1  0  0  0  0
  7 15  1  0  0  0  0
  7 19  1  6  0  0  0
  8 12  1  0  0  0  0
  8 17  1  0  0  0  0
  8 25  1  1  0  0  0
  9 11  1  0  0  0  0
  9 26  1  0  0  0  0
  9 27  1  0  0  0  0
 10 12  1  0  0  0  0
 10 28  1  0  0  0  0
 10 29  1  0  0  0  0
 11 30  1  0  0  0  0
 11 31  1  0  0  0  0
 12 32  1  0  0  0  0
 12 33  1  0  0  0  0
 13 18  1  0  0  0  0
 13 34  1  0  0  0  0
 13 35  1  0  0  0  0
 14 20  1  0  0  0  0
 14 36  1  0  0  0  0
 14 37  1  0  0  0  0
 15 18  1  0  0  0  0
 16 38  1  0  0  0  0
 16 39  1  0  0  0  0
 16 40  1  0  0  0  0
 17 21  1  0  0  0  0
 17 41  1  0  0  0  0
 17 42  1  0  0  0  0
 18 43  1  0  0  0  0
 18 44  1  0  0  0  0
 19 45  1  0  0  0  0
 19 46  1  0  0  0  0
 19 47  1  0  0  0  0
 20 21  1  0  0  0  0
 20 48  1  0  0  0  0
 20 49  1  0  0  0  0
M  END
>  <DRUGBANK_ID>
DB01561

>  <SECONDARY_ACCESSION_NUMBERS>
DB03620

>  <COMMON_NAME>
Androstanedione

>  <CAS_NUMBER>
846-46-8

>  <UNII>
2KR72RNR8Z

>  <SYNONYMS>
5alpha-Androstan-3,17-dione; 5Î±-androstane-3,17-dione

$$$$
