ebastine
 OpenBabel10282417183D

 74 77  0  0  0  0  0  0  0  0999 V2000
    0.7517   -0.0418    0.0683 C   0  0  0  0  0  0  0  0  0  0  0  0
    0.5182    1.2796    0.6371 O   0  0  0  0  0  0  0  0  0  0  0  0
    0.3445   -0.1437   -1.4084 C   0  0  0  0  0  0  0  0  0  0  0  0
    0.2974   -1.2019    0.9895 C   0  0  0  0  0  0  0  0  0  0  0  0
    1.0549    1.5333    1.9649 C   0  0  0  0  0  0  0  0  0  0  0  0
    0.4932   -1.3563   -2.1059 C   0  0  0  0  0  0  0  0  0  0  0  0
   -0.1150    0.9337   -2.1602 C   0  0  0  0  0  0  0  0  0  0  0  0
    0.6582   -2.5221    0.7085 C   0  0  0  0  0  0  0  0  0  0  0  0
   -0.2539   -1.0074    2.2620 C   0  0  0  0  0  0  0  0  0  0  0  0
    1.2430    3.0114    2.2133 C   0  0  0  0  0  0  0  0  0  0  0  0
    2.3555    0.7916    2.2732 C   0  0  0  0  0  0  0  0  0  0  0  0
   -0.1180   -1.6217   -3.3149 C   0  0  0  0  0  0  0  0  0  0  0  0
   -0.6624    0.7081   -3.4322 C   0  0  0  0  0  0  0  0  0  0  0  0
    0.4558   -3.5675    1.5923 C   0  0  0  0  0  0  0  0  0  0  0  0
   -0.1826   -1.9856    3.2500 C   0  0  0  0  0  0  0  0  0  0  0  0
    2.3912    3.4370    1.3527 C   0  0  0  0  0  0  0  0  0  0  0  0
    3.4329    1.2491    1.3391 C   0  0  0  0  0  0  0  0  0  0  0  0
   -0.7052   -0.5754   -3.9858 C   0  0  0  0  0  0  0  0  0  0  0  0
    0.0933   -3.2899    2.8914 C   0  0  0  0  0  0  0  0  0  0  0  0
    3.6495    2.6711    1.4290 N   0  0  0  0  0  0  0  0  0  0  0  0
    4.6164    2.8783    0.3518 C   0  0  0  0  0  0  0  0  0  0  0  0
    4.3092    2.9585   -1.1171 C   0  0  0  0  0  0  0  0  0  0  0  0
    3.2834    4.0642   -1.4114 C   0  0  0  0  0  0  0  0  0  0  0  0
    3.4983    5.5463   -0.8773 C   0  0  0  0  0  0  0  0  0  0  0  0
    3.1522    6.4664   -1.6642 O   0  0  0  0  0  0  0  0  0  0  0  0
    3.9324    6.0460    0.5306 C   0  0  0  0  0  0  0  0  0  0  0  0
    4.9998    5.5673    1.3148 C   0  0  0  0  0  0  0  0  0  0  0  0
    3.2384    7.1097    1.1150 C   0  0  0  0  0  0  0  0  0  0  0  0
    5.1869    5.8442    2.6380 C   0  0  0  0  0  0  0  0  0  0  0  0
    3.6407    7.6167    2.3730 C   0  0  0  0  0  0  0  0  0  0  0  0
    4.5861    6.9404    3.1724 C   0  0  0  0  0  0  0  0  0  0  0  0
    5.0540    7.3572    4.5508 C   0  0  0  0  0  0  0  0  0  0  0  0
    5.7585    8.7067    4.3993 C   0  0  0  0  0  0  0  0  0  0  0  0
    3.8177    7.4159    5.4411 C   0  0  0  0  0  0  0  0  0  0  0  0
    6.0662    6.3545    5.1914 C   0  0  0  0  0  0  0  0  0  0  0  0
    1.8312   -0.1580   -0.0296 H   0  0  0  0  0  0  0  0  0  0  0  0
    0.2931    1.3414    2.7063 H   0  0  0  0  0  0  0  0  0  0  0  0
    1.1226   -2.1533   -1.7583 H   0  0  0  0  0  0  0  0  0  0  0  0
   -0.0499    1.9488   -1.7740 H   0  0  0  0  0  0  0  0  0  0  0  0
    1.1625   -2.8269   -0.1850 H   0  0  0  0  0  0  0  0  0  0  0  0
   -0.6885   -0.0713    2.5703 H   0  0  0  0  0  0  0  0  0  0  0  0
    0.3438    3.5710    1.9094 H   0  0  0  0  0  0  0  0  0  0  0  0
    1.4251    3.2323    3.2711 H   0  0  0  0  0  0  0  0  0  0  0  0
    2.6439    0.9430    3.3154 H   0  0  0  0  0  0  0  0  0  0  0  0
    2.2915   -0.2838    2.1269 H   0  0  0  0  0  0  0  0  0  0  0  0
   -0.1049   -2.6377   -3.6994 H   0  0  0  0  0  0  0  0  0  0  0  0
   -1.0925    1.5362   -3.9854 H   0  0  0  0  0  0  0  0  0  0  0  0
    0.6670   -4.5744    1.2542 H   0  0  0  0  0  0  0  0  0  0  0  0
   -0.3590   -1.7170    4.2870 H   0  0  0  0  0  0  0  0  0  0  0  0
    1.9418    3.3026    0.3894 H   0  0  0  0  0  0  0  0  0  0  0  0
    2.5075    4.4932    1.5620 H   0  0  0  0  0  0  0  0  0  0  0  0
    4.3585    0.6994    1.5377 H   0  0  0  0  0  0  0  0  0  0  0  0
    3.1769    1.0414    0.2994 H   0  0  0  0  0  0  0  0  0  0  0  0
   -1.1472   -0.7585   -4.9577 H   0  0  0  0  0  0  0  0  0  0  0  0
    0.0206   -4.0887    3.6153 H   0  0  0  0  0  0  0  0  0  0  0  0
    4.8263    3.8776    0.3398 H   0  0  0  0  0  0  0  0  0  0  0  0
    5.5907    2.4436    0.6135 H   0  0  0  0  0  0  0  0  0  0  0  0
    5.2388    3.2771   -1.6122 H   0  0  0  0  0  0  0  0  0  0  0  0
    4.0621    1.9715   -1.5130 H   0  0  0  0  0  0  0  0  0  0  0  0
    3.2231    4.1201   -2.5043 H   0  0  0  0  0  0  0  0  0  0  0  0
    2.2615    3.7373   -1.2108 H   0  0  0  0  0  0  0  0  0  0  0  0
    5.7883    4.8689    1.0715 H   0  0  0  0  0  0  0  0  0  0  0  0
    2.3996    7.5741    0.5987 H   0  0  0  0  0  0  0  0  0  0  0  0
    5.9004    5.2125    3.1579 H   0  0  0  0  0  0  0  0  0  0  0  0
    3.2098    8.5542    2.7164 H   0  0  0  0  0  0  0  0  0  0  0  0
    5.0948    9.4620    3.9667 H   0  0  0  0  0  0  0  0  0  0  0  0
    6.1139    9.0725    5.3649 H   0  0  0  0  0  0  0  0  0  0  0  0
    6.6246    8.6193    3.7272 H   0  0  0  0  0  0  0  0  0  0  0  0
    3.3372    6.4287    5.4905 H   0  0  0  0  0  0  0  0  0  0  0  0
    4.0810    7.7218    6.4548 H   0  0  0  0  0  0  0  0  0  0  0  0
    3.0734    8.1162    5.0500 H   0  0  0  0  0  0  0  0  0  0  0  0
    5.6280    5.3495    5.2857 H   0  0  0  0  0  0  0  0  0  0  0  0
    6.9810    6.2563    4.5865 H   0  0  0  0  0  0  0  0  0  0  0  0
    6.3842    6.6626    6.1887 H   0  0  0  0  0  0  0  0  0  0  0  0
  1  2  1  0  0  0  0
  1  3  1  0  0  0  0
  1  4  1  0  0  0  0
  1 36  1  0  0  0  0
  2  5  1  0  0  0  0
  3  6  2  0  0  0  0
  3  7  1  0  0  0  0
  4  8  2  0  0  0  0
  4  9  1  0  0  0  0
  5 10  1  0  0  0  0
  5 11  1  0  0  0  0
  5 37  1  0  0  0  0
  6 12  1  0  0  0  0
  6 38  1  0  0  0  0
  7 13  2  0  0  0  0
  7 39  1  0  0  0  0
  8 14  1  0  0  0  0
  8 40  1  0  0  0  0
  9 15  2  0  0  0  0
  9 41  1  0  0  0  0
 10 16  1  0  0  0  0
 10 42  1  0  0  0  0
 10 43  1  0  0  0  0
 11 17  1  0  0  0  0
 11 44  1  0  0  0  0
 11 45  1  0  0  0  0
 12 18  2  0  0  0  0
 12 46  1  0  0  0  0
 13 18  1  0  0  0  0
 13 47  1  0  0  0  0
 14 19  2  0  0  0  0
 14 48  1  0  0  0  0
 15 19  1  0  0  0  0
 15 49  1  0  0  0  0
 16 20  1  0  0  0  0
 16 50  1  0  0  0  0
 16 51  1  0  0  0  0
 17 20  1  0  0  0  0
 17 52  1  0  0  0  0
 17 53  1  0  0  0  0
 18 54  1  0  0  0  0
 19 55  1  0  0  0  0
 20 21  1  0  0  0  0
 21 22  1  0  0  0  0
 21 56  1  0  0  0  0
 21 57  1  0  0  0  0
 22 23  1  0  0  0  0
 22 58  1  0  0  0  0
 22 59  1  0  0  0  0
 23 24  1  0  0  0  0
 23 60  1  0  0  0  0
 23 61  1  0  0  0  0
 24 25  2  0  0  0  0
 24 26  1  0  0  0  0
 26 27  2  0  0  0  0
 26 28  1  0  0  0  0
 27 29  1  0  0  0  0
 27 62  1  0  0  0  0
 28 30  2  0  0  0  0
 28 63  1  0  0  0  0
 29 31  2  0  0  0  0
 29 64  1  0  0  0  0
 30 31  1  0  0  0  0
 30 65  1  0  0  0  0
 31 32  1  0  0  0  0
 32 33  1  0  0  0  0
 32 34  1  0  0  0  0
 32 35  1  0  0  0  0
 33 66  1  0  0  0  0
 33 67  1  0  0  0  0
 33 68  1  0  0  0  0
 34 69  1  0  0  0  0
 34 70  1  0  0  0  0
 34 71  1  0  0  0  0
 35 72  1  0  0  0  0
 35 73  1  0  0  0  0
 35 74  1  0  0  0  0
M  END
>  <DRUGBANK_ID>
DB11742

>  <COMMON_NAME>
Ebastine

>  <CAS_NUMBER>
90729-43-4

>  <UNII>
TQD7Q784P1

>  <SYNONYMS>
Ebastina; Ebastine

$$$$
