
 OpenBabel10282417183D

  4  3  0  0  0  0  0  0  0  0999 V2000
    1.0754   -0.0569    0.0329 In  0  0  0  0  0  0  0  0  0  0  0  0
    0.2104    0.1918   -1.4446 H   0  0  0  0  0  0  0  0  0  0  0  0
    0.2104   -0.3056    1.5103 H   0  0  0  0  0  0  0  0  0  0  0  0
    2.8054   -0.0569    0.0329 H   0  0  0  0  0  0  0  0  0  0  0  0
  1  2  1  0  0  0  0
  1  3  1  0  0  0  0
  1  4  1  0  0  0  0
M  END
>  <DRUGBANK_ID>
DB11659

>  <COMMON_NAME>
Indium

>  <CAS_NUMBER>
7440-74-6

>  <UNII>
045A6V3VFX

>  <SYNONYMS>
indio

$$$$
