
 OpenBabel10282417203D

 22 22  0  0  0  0  0  0  0  0999 V2000
   -1.2051   -1.2310    0.0009 C   0  0  0  0  0  0  0  0  0  0  0  0
   -1.8678    0.0000   -0.0239 C   0  0  0  0  0  0  0  0  0  0  0  0
    0.1910   -1.2878    0.0025 C   0  0  0  0  0  0  0  0  0  0  0  0
    0.2623    1.1113   -0.1538 C   0  0  0  0  0  0  0  0  0  0  0  0
   -1.4934    3.3635    1.2570 C   0  0  0  0  0  0  0  0  0  0  0  0
   -1.1367    1.1948   -0.0754 C   0  0  0  0  0  0  0  0  0  0  0  0
    0.9151   -0.1060   -0.0702 C   0  0  0  0  0  0  0  0  0  0  0  0
   -1.8348    2.5377   -0.0191 C   0  0  3  0  0  0  0  0  0  0  0  0
   -0.0713    3.7328    1.3912 N   0  0  0  0  0  0  0  0  0  0  0  0
    2.2766   -0.0757   -0.0471 O   0  0  0  0  0  0  0  0  0  0  0  0
   -1.5050    3.2812   -1.1918 O   0  0  0  0  0  0  0  0  0  0  0  0
   -1.7835   -2.1519    0.0278 H   0  0  0  0  0  0  0  0  0  0  0  0
   -2.9556    0.0199   -0.0085 H   0  0  0  0  0  0  0  0  0  0  0  0
    0.6894   -2.2485    0.0503 H   0  0  0  0  0  0  0  0  0  0  0  0
    0.8704    2.0065   -0.2619 H   0  0  0  0  0  0  0  0  0  0  0  0
   -2.0610    4.3002    1.2307 H   0  0  0  0  0  0  0  0  0  0  0  0
   -1.7970    2.8077    2.1514 H   0  0  0  0  0  0  0  0  0  0  0  0
   -2.9219    2.3911   -0.0407 H   0  0  0  0  0  0  0  0  0  0  0  0
    0.0531    4.2891    2.2362 H   0  0  0  0  0  0  0  0  0  0  0  0
    0.4604    2.8791    1.5791 H   0  0  0  0  0  0  0  0  0  0  0  0
    2.6133   -0.9845   -0.0238 H   0  0  0  0  0  0  0  0  0  0  0  0
   -0.5834    3.5692   -1.0581 H   0  0  0  0  0  0  0  0  0  0  0  0
  1 12  1  0  0  0  0
  2  1  2  0  0  0  0
  2 13  1  0  0  0  0
  3  1  1  0  0  0  0
  3 14  1  0  0  0  0
  4 15  1  0  0  0  0
  5 16  1  0  0  0  0
  5 17  1  0  0  0  0
  6  2  1  0  0  0  0
  6  4  2  0  0  0  0
  7  3  2  0  0  0  0
  7  4  1  0  0  0  0
  8  5  1  0  0  0  0
  8  6  1  0  0  0  0
  8 18  1  0  0  0  0
  9  5  1  0  0  0  0
  9 19  1  0  0  0  0
  9 20  1  0  0  0  0
 10  7  1  0  0  0  0
 10 21  1  0  0  0  0
 11  8  1  0  0  0  0
 11 22  1  0  0  0  0
M  END
>  <DRUGBANK_ID>
DB13378

>  <COMMON_NAME>
Norfenefrine

>  <CAS_NUMBER>
536-21-0

>  <UNII>
D2P3M6SRN5

>  <SYNONYMS>
Norfenefrine

$$$$
