
 OpenBabel10282417133D

 46 46  0  0  0  0  0  0  0  0999 V2000
    7.2076   -9.6840   -0.2233 S   0  0  0  0  0  0  0  0  0  0  0  0
    3.8552  -11.5245    3.5946 S   0  0  2  0  0  0  0  0  0  0  0  0
    6.2996   -7.2096    3.1798 O   0  0  0  0  0  0  0  0  0  0  0  0
    1.5764   -8.9035    1.5831 O   0  0  0  0  0  0  0  0  0  0  0  0
    8.7317   -4.6492   -1.0562 O   0  0  0  0  0  0  0  0  0  0  0  0
    2.8056   -9.5763   -0.1598 O   0  0  0  0  0  0  0  0  0  0  0  0
    4.3682  -12.9316    3.5065 O   0  0  0  0  0  0  0  0  0  0  0  0
    3.5855   -3.5810    1.0989 O   0  0  0  0  0  0  0  0  0  0  0  0
    2.1772   -4.3880   -0.5039 O   0  0  0  0  0  0  0  0  0  0  0  0
    5.3671   -8.5797    1.4913 N   0  0  0  0  0  0  0  0  0  0  0  0
    7.7374   -6.3908    0.0062 N   0  0  0  0  0  0  0  0  0  0  0  0
    3.1488   -6.8735    0.6200 N   0  0  0  0  0  0  0  0  0  0  0  0
    6.6056   -7.1125    0.6580 C   0  0  1  0  0  0  0  0  0  0  0  0
    5.9444   -8.4486    0.1409 C   0  0  1  0  0  0  0  0  0  0  0  0
    6.2173   -7.6459    2.0333 C   0  0  0  0  0  0  0  0  0  0  0  0
    4.0565   -9.2670    1.9448 C   0  0  2  0  0  0  0  0  0  0  0  0
    4.3652  -10.7481    2.0550 C   0  0  0  0  0  0  0  0  0  0  0  0
    7.6746   -5.1498   -0.6607 C   0  0  0  0  0  0  0  0  0  0  0  0
    2.7526   -9.3054    1.0386 C   0  0  0  0  0  0  0  0  0  0  0  0
    6.3527   -4.3276   -0.8708 C   0  0  0  0  0  0  0  0  0  0  0  0
    5.2752   -4.9024   -1.7995 C   0  0  0  0  0  0  0  0  0  0  0  0
    4.6156   -6.0866   -1.1700 C   0  0  0  0  0  0  0  0  0  0  0  0
    3.9708   -5.7633    0.2221 C   0  0  1  0  0  0  0  0  0  0  0  0
    4.9448  -10.6323    4.7352 C   0  0  0  0  0  0  0  0  0  0  0  0
    3.1504   -4.5147    0.2205 C   0  0  0  0  0  0  0  0  0  0  0  0
    5.1630   -8.4712   -0.6170 H   0  0  0  0  0  0  0  0  0  0  0  0
    8.6830   -6.7570    0.0568 H   0  0  0  0  0  0  0  0  0  0  0  0
    3.5502   -7.6676    0.1212 H   0  0  0  0  0  0  0  0  0  0  0  0
    2.2418   -6.8004    0.1456 H   0  0  0  0  0  0  0  0  0  0  0  0
    6.6485  -10.6349    0.5163 H   0  0  0  0  0  0  0  0  0  0  0  0
    1.6097   -8.3429    2.3833 H   0  0  0  0  0  0  0  0  0  0  0  0
    4.3385   -3.8369    1.6739 H   0  0  0  0  0  0  0  0  0  0  0  0
    6.0326   -6.2258    0.6883 H   0  0  0  0  0  0  0  0  0  0  0  0
    3.7602   -8.7976    2.8917 H   0  0  0  0  0  0  0  0  0  0  0  0
    3.8673  -11.3147    1.2555 H   0  0  0  0  0  0  0  0  0  0  0  0
    5.4271  -10.9383    1.9419 H   0  0  0  0  0  0  0  0  0  0  0  0
    5.9524   -4.0547    0.1101 H   0  0  0  0  0  0  0  0  0  0  0  0
    6.6178   -3.3599   -1.3205 H   0  0  0  0  0  0  0  0  0  0  0  0
    4.4757   -4.1920   -2.0256 H   0  0  0  0  0  0  0  0  0  0  0  0
    5.7220   -5.2000   -2.7550 H   0  0  0  0  0  0  0  0  0  0  0  0
    3.9083   -6.6210   -1.8154 H   0  0  0  0  0  0  0  0  0  0  0  0
    5.4509   -6.7772   -1.2212 H   0  0  0  0  0  0  0  0  0  0  0  0
    4.5949   -5.6423    1.1075 H   0  0  0  0  0  0  0  0  0  0  0  0
    5.9956  -10.7403    4.4555 H   0  0  0  0  0  0  0  0  0  0  0  0
    4.6735   -9.5758    4.7849 H   0  0  0  0  0  0  0  0  0  0  0  0
    4.7912  -11.0719    5.7238 H   0  0  0  0  0  0  0  0  0  0  0  0
  1 30  1  0  0  0  0
  2  7  2  6  0  0  0
  2 17  1  0  0  0  0
  2 24  1  0  0  0  0
  3 15  2  0  0  0  0
  4 19  1  0  0  0  0
  4 31  1  0  0  0  0
  5 18  2  0  0  0  0
  6 19  2  0  0  0  0
  8 25  1  0  0  0  0
  8 32  1  0  0  0  0
  9 25  2  0  0  0  0
 10 14  1  0  0  0  0
 10 15  1  0  0  0  0
 11 18  1  0  0  0  0
 11 27  1  0  0  0  0
 12 28  1  0  0  0  0
 12 29  1  0  0  0  0
 13 11  1  0  0  0  0
 13 14  1  0  0  0  0
 13 15  1  0  0  0  0
 13 33  1  6  0  0  0
 14 26  1  6  0  0  0
 14  1  1  0  0  0  0
 16 19  1  0  0  0  0
 16 34  1  1  0  0  0
 16 17  1  0  0  0  0
 16 10  1  0  0  0  0
 17 35  1  0  0  0  0
 17 36  1  0  0  0  0
 18 20  1  0  0  0  0
 20 21  1  0  0  0  0
 20 37  1  0  0  0  0
 20 38  1  0  0  0  0
 21 22  1  0  0  0  0
 21 39  1  0  0  0  0
 21 40  1  0  0  0  0
 22 41  1  0  0  0  0
 22 42  1  0  0  0  0
 23 25  1  0  0  0  0
 23 43  1  1  0  0  0
 23 22  1  0  0  0  0
 23 12  1  0  0  0  0
 24 44  1  0  0  0  0
 24 45  1  0  0  0  0
 24 46  1  0  0  0  0
M  END
>  <DRUGBANK_ID>
DB03004

>  <SECONDARY_ACCESSION_NUMBERS>
EXPT00419

>  <COMMON_NAME>
(2S)-2-amino-6-[[(3R,4R)-1-[(1S)-1-carboxy-2-[(S)-methylsulfinyl]ethyl]-2-oxo-4-sulfanylazetidin-3-yl]amino]-6-oxohexanoic acid

$$$$
