
 OpenBabel10282417163D

 43 41  0  0  0  0  0  0  0  0999 V2000
    1.1035   -2.8635   -1.5959 K   0  3  0  0  0  0  0  0  0  0  0  0
    2.1182    0.0193    2.9072 K   0  3  0  0  0  0  0  0  0  0  0  0
   -1.7485    0.5913    1.0391 K   0  3  0  0  0  0  0  0  0  0  0  0
    0.9913    0.1015   -0.1485 S   0  0  0  0  0  0  0  0  0  0  0  0
    3.4275   -1.6105   -0.4435 P   0  0  0  0  0  0  0  0  0  0  0  0
    2.8640   -1.4232   -1.8483 O   0  5  0  0  0  0  0  0  0  0  0  0
    4.7191   -1.1110    0.1818 O   0  5  0  0  0  0  0  0  0  0  0  0
    0.4177   -0.1038   -1.4885 O   0  5  0  0  0  0  0  0  0  0  0  0
    3.9436   -3.0353   -0.7616 O   0  0  0  0  0  0  0  0  0  0  0  0
    0.5213   -0.9121    0.7921 O   0  0  0  0  0  0  0  0  0  0  0  0
    0.5775    1.3867    0.4216 O   0  0  0  0  0  0  0  0  0  0  0  0
    2.8175    0.0733   -0.0676 C   0  0  1  0  0  0  0  0  0  0  0  0
    3.3125    1.0958   -1.1739 C   0  0  0  0  0  0  0  0  0  0  0  0
    2.9603    2.5528   -0.8818 C   0  0  0  0  0  0  0  0  0  0  0  0
    3.3710    2.9744    0.5233 C   0  0  0  0  0  0  0  0  0  0  0  0
    4.8622    2.9782    0.6777 C   0  0  0  0  0  0  0  0  0  0  0  0
    5.5458    4.1818    0.6551 C   0  0  0  0  0  0  0  0  0  0  0  0
    5.6025    1.7968    0.7741 C   0  0  0  0  0  0  0  0  0  0  0  0
    7.6635    2.9871    0.7749 C   0  0  0  0  0  0  0  0  0  0  0  0
    6.9352    4.1857    0.7227 C   0  0  0  0  0  0  0  0  0  0  0  0
    6.9793    1.7842    0.8346 C   0  0  0  0  0  0  0  0  0  0  0  0
    9.1144    2.9656    0.7804 C   0  0  0  0  0  0  0  0  0  0  0  0
    9.8079    3.5875    1.8206 C   0  0  0  0  0  0  0  0  0  0  0  0
    9.8255    2.2505   -0.1968 C   0  0  0  0  0  0  0  0  0  0  0  0
   11.1911    3.4904    1.8932 C   0  0  0  0  0  0  0  0  0  0  0  0
   11.2051    2.1107   -0.0945 C   0  0  0  0  0  0  0  0  0  0  0  0
   11.8881    2.7528    0.9367 C   0  0  0  0  0  0  0  0  0  0  0  0
    3.1192    0.3745    0.9220 H   0  0  0  0  0  0  0  0  0  0  0  0
    4.3922    0.9902   -1.3335 H   0  0  0  0  0  0  0  0  0  0  0  0
    2.8957    0.8539   -2.1602 H   0  0  0  0  0  0  0  0  0  0  0  0
    3.4240    3.2001   -1.6362 H   0  0  0  0  0  0  0  0  0  0  0  0
    1.8857    2.7094   -1.0163 H   0  0  0  0  0  0  0  0  0  0  0  0
    2.9612    3.9670    0.7349 H   0  0  0  0  0  0  0  0  0  0  0  0
    2.9367    2.3401    1.3013 H   0  0  0  0  0  0  0  0  0  0  0  0
    4.9988    5.1119    0.5484 H   0  0  0  0  0  0  0  0  0  0  0  0
    5.1553    0.8221    0.7159 H   0  0  0  0  0  0  0  0  0  0  0  0
    7.4543    5.1369    0.7105 H   0  0  0  0  0  0  0  0  0  0  0  0
    7.4884    0.8214    0.8996 H   0  0  0  0  0  0  0  0  0  0  0  0
    9.2554    4.1232    2.5885 H   0  0  0  0  0  0  0  0  0  0  0  0
    9.2965    1.7825   -1.0281 H   0  0  0  0  0  0  0  0  0  0  0  0
   11.7160    3.9699    2.7119 H   0  0  0  0  0  0  0  0  0  0  0  0
   11.7379    1.4883   -0.8077 H   0  0  0  0  0  0  0  0  0  0  0  0
   12.9683    2.6737    0.9974 H   0  0  0  0  0  0  0  0  0  0  0  0
  4  8  1  0  0  0  0
  4 10  2  0  0  0  0
  4 11  2  0  0  0  0
  4 12  1  0  0  0  0
  5  6  1  0  0  0  0
  5  7  1  0  0  0  0
  5  9  2  0  0  0  0
  5 12  1  0  0  0  0
 12 13  1  0  0  0  0
 12 28  1  1  0  0  0
 13 14  1  0  0  0  0
 13 29  1  0  0  0  0
 13 30  1  0  0  0  0
 14 15  1  0  0  0  0
 14 31  1  0  0  0  0
 14 32  1  0  0  0  0
 15 16  1  0  0  0  0
 15 33  1  0  0  0  0
 15 34  1  0  0  0  0
 16 17  2  0  0  0  0
 16 18  1  0  0  0  0
 17 20  1  0  0  0  0
 17 35  1  0  0  0  0
 18 21  2  0  0  0  0
 18 36  1  0  0  0  0
 19 20  2  0  0  0  0
 19 21  1  0  0  0  0
 19 22  1  0  0  0  0
 20 37  1  0  0  0  0
 21 38  1  0  0  0  0
 22 23  2  0  0  0  0
 22 24  1  0  0  0  0
 23 25  1  0  0  0  0
 23 39  1  0  0  0  0
 24 26  2  0  0  0  0
 24 40  1  0  0  0  0
 25 27  2  0  0  0  0
 25 41  1  0  0  0  0
 26 27  1  0  0  0  0
 26 42  1  0  0  0  0
 27 43  1  0  0  0  0
M  CHG  6   1   1   2   1   3   1   6  -1   7  -1   8  -1
M  END
>  <DRUGBANK_ID>
DB07424

>  <COMMON_NAME>
Tripotassium (1R)-4-biphenyl-4-yl-1-phosphonatobutane-1-sulfonate

$$$$
