
 OpenBabel10282417223D

 67 70  0  0  1  0  0  0  0  0999 V2000
    1.0257   -0.5206   -0.0810 C   0  0  0  0  0  0  0  0  0  0  0  0
    0.3466   -1.1809   -1.2886 C   0  0  0  0  0  0  0  0  0  0  0  0
    1.0966   -2.4969   -1.2319 C   0  0  0  0  0  0  0  0  0  0  0  0
   -1.2281   -1.3168   -1.3276 C   0  0  0  0  0  0  0  0  0  0  0  0
   -2.0819   -0.2957   -1.8417 C   0  0  0  0  0  0  0  0  0  0  0  0
   -3.5207    0.0484   -1.5511 C   0  0  0  0  0  0  0  0  0  0  0  0
   -4.3500    1.7087   -1.5066 C   0  0  0  0  0  0  0  0  0  0  0  0
   -4.0469    3.1586   -0.3142 C   0  0  0  0  0  0  0  0  0  0  0  0
   -2.7258    4.0536   -0.1118 C   0  0  0  0  0  0  0  0  0  0  0  0
   -1.4459    4.5125   -0.9910 C   0  0  0  0  0  0  0  0  0  0  0  0
   -2.3483    4.3961    1.2585 C   0  0  0  0  0  0  0  0  0  0  0  0
   -3.1189    4.0995    2.3789 C   0  0  0  0  0  0  0  0  0  0  0  0
   -2.6203    4.0503    3.6719 O   0  0  0  0  0  0  0  0  0  0  0  0
   -1.3319    4.6347    3.9528 C   0  0  0  0  0  0  0  0  0  0  0  0
    0.1126    3.5208    4.1783 P   0  0  1  0  0  0  0  0  0  0  0  0
    0.9838    4.0794    5.2683 O   0  0  0  0  0  0  0  0  0  0  0  0
   -0.1702    1.9362    4.4254 O   0  0  0  0  0  0  0  0  0  0  0  0
    0.4540    0.8551    3.7005 C   0  0  0  0  0  0  0  0  0  0  0  0
    1.5111    1.2900    2.6977 C   0  0  0  0  0  0  0  0  0  0  0  0
    1.0823    2.5204    1.9530 C   0  0  2  0  0  0  0  0  0  0  0  0
    0.8586    3.6325    2.7590 O   0  0  0  0  0  0  0  0  0  0  0  0
   -0.1179    2.1664    1.1652 C   0  0  0  0  0  0  0  0  0  0  0  0
   -1.3098    1.7193    1.8239 C   0  0  0  0  0  0  0  0  0  0  0  0
   -2.3339    1.2212    1.1188 C   0  0  0  0  0  0  0  0  0  0  0  0
   -2.0142    1.5041   -0.1689 C   0  0  0  0  0  0  0  0  0  0  0  0
   -0.9761    1.8707   -0.9842 C   0  0  0  0  0  0  0  0  0  0  0  0
   -1.2868    2.3453   -2.8347 Cl  0  0  0  0  0  0  0  0  0  0  0  0
    0.0765    2.2309   -0.2317 C   0  0  0  0  0  0  0  0  0  0  0  0
   -4.4015    3.5628    2.1721 C   0  0  0  0  0  0  0  0  0  0  0  0
   -4.8692    3.0663    0.8820 C   0  0  0  0  0  0  0  0  0  0  0  0
   -6.2026    2.3651    0.9040 C   0  0  0  0  0  0  0  0  0  0  0  0
   -4.1587   -1.1028   -1.1488 C   0  0  0  0  0  0  0  0  0  0  0  0
   -3.3982   -2.3337   -1.0469 C   0  0  0  0  0  0  0  0  0  0  0  0
   -1.9739   -2.4218   -1.0814 C   0  0  0  0  0  0  0  0  0  0  0  0
   -1.3248   -3.6150   -1.0235 O   0  0  0  0  0  0  0  0  0  0  0  0
    0.5437   -0.7783    0.8625 H   0  0  0  0  0  0  0  0  0  0  0  0
    1.0915    0.5224   -0.2209 H   0  0  0  0  0  0  0  0  0  0  0  0
    2.1165   -0.6683   -0.0001 H   0  0  0  0  0  0  0  0  0  0  0  0
    0.6746   -0.6076   -2.1706 H   0  0  0  0  0  0  0  0  0  0  0  0
    0.8421   -2.9927   -0.2851 H   0  0  0  0  0  0  0  0  0  0  0  0
    0.8471   -3.1009   -2.0938 H   0  0  0  0  0  0  0  0  0  0  0  0
    2.1865   -2.3537   -1.2095 H   0  0  0  0  0  0  0  0  0  0  0  0
   -1.4242    0.2889   -2.4314 H   0  0  0  0  0  0  0  0  0  0  0  0
   -4.1744    2.1541   -2.4810 H   0  0  0  0  0  0  0  0  0  0  0  0
   -5.4008    1.4271   -1.4425 H   0  0  0  0  0  0  0  0  0  0  0  0
   -0.7232    3.8774   -1.4789 H   0  0  0  0  0  0  0  0  0  0  0  0
   -1.6775    5.1136   -1.8554 H   0  0  0  0  0  0  0  0  0  0  0  0
   -0.5966    4.8636   -0.3533 H   0  0  0  0  0  0  0  0  0  0  0  0
   -1.2901    4.6124    1.4471 H   0  0  0  0  0  0  0  0  0  0  0  0
   -1.0802    5.4542    3.2642 H   0  0  0  0  0  0  0  0  0  0  0  0
   -1.4357    5.1614    4.9100 H   0  0  0  0  0  0  0  0  0  0  0  0
    0.8488    0.0713    4.3473 H   0  0  0  0  0  0  0  0  0  0  0  0
   -0.3434    0.2774    3.2033 H   0  0  0  0  0  0  0  0  0  0  0  0
    2.4585    1.4948    3.1848 H   0  0  0  0  0  0  0  0  0  0  0  0
    1.7093    0.4730    2.0027 H   0  0  0  0  0  0  0  0  0  0  0  0
    1.8445    2.8071    1.2214 H   0  0  0  0  0  0  0  0  0  0  0  0
   -1.5710    1.8351    2.8608 H   0  0  0  0  0  0  0  0  0  0  0  0
   -3.3207    1.0717    1.5504 H   0  0  0  0  0  0  0  0  0  0  0  0
   -2.7431    1.8454   -0.8152 H   0  0  0  0  0  0  0  0  0  0  0  0
    0.9569    2.5092   -0.7607 H   0  0  0  0  0  0  0  0  0  0  0  0
   -4.9972    3.3761    3.0729 H   0  0  0  0  0  0  0  0  0  0  0  0
   -6.2690    1.6132    1.6995 H   0  0  0  0  0  0  0  0  0  0  0  0
   -6.9955    3.1088    1.0071 H   0  0  0  0  0  0  0  0  0  0  0  0
   -6.4184    1.8338   -0.0118 H   0  0  0  0  0  0  0  0  0  0  0  0
   -5.2292   -1.1160   -1.0024 H   0  0  0  0  0  0  0  0  0  0  0  0
   -3.9434   -3.2661   -0.9607 H   0  0  0  0  0  0  0  0  0  0  0  0
   -1.9414   -4.3335   -1.2055 H   0  0  0  0  0  0  0  0  0  0  0  0
  1  2  1  0  0  0  0
  1 36  1  0  0  0  0
  1 37  1  0  0  0  0
  1 38  1  0  0  0  0
  2  3  1  0  0  0  0
  2  4  1  0  0  0  0
  2 39  1  0  0  0  0
  3 40  1  0  0  0  0
  3 41  1  0  0  0  0
  3 42  1  0  0  0  0
  4  5  2  0  0  0  0
  4 34  1  0  0  0  0
  5  6  1  0  0  0  0
  5 43  1  0  0  0  0
  6  7  1  0  0  0  0
  6 32  2  0  0  0  0
  7  8  1  0  0  0  0
  7 44  1  0  0  0  0
  7 45  1  0  0  0  0
  8  9  2  0  0  0  0
  8 30  1  0  0  0  0
  9 10  1  0  0  0  0
  9 11  1  0  0  0  0
 10 46  1  0  0  0  0
 10 47  1  0  0  0  0
 10 48  1  0  0  0  0
 11 12  2  0  0  0  0
 11 49  1  0  0  0  0
 12 13  1  0  0  0  0
 12 29  1  0  0  0  0
 13 14  1  0  0  0  0
 14 50  1  0  0  0  0
 14 51  1  0  0  0  0
 15 14  1  0  0  0  0
 15 16  2  1  0  0  0
 15 17  1  0  0  0  0
 15 21  1  0  0  0  0
 17 18  1  0  0  0  0
 18 19  1  0  0  0  0
 18 52  1  0  0  0  0
 18 53  1  0  0  0  0
 19 54  1  0  0  0  0
 19 55  1  0  0  0  0
 20 19  1  0  0  0  0
 20 21  1  0  0  0  0
 20 56  1  6  0  0  0
 20 22  1  0  0  0  0
 22 23  2  0  0  0  0
 22 28  1  0  0  0  0
 23 24  1  0  0  0  0
 23 57  1  0  0  0  0
 24 25  2  0  0  0  0
 24 58  1  0  0  0  0
 25 26  1  0  0  0  0
 25 59  1  0  0  0  0
 26 27  1  0  0  0  0
 26 28  2  0  0  0  0
 28 60  1  0  0  0  0
 29 30  2  0  0  0  0
 29 61  1  0  0  0  0
 30 31  1  0  0  0  0
 31 62  1  0  0  0  0
 31 63  1  0  0  0  0
 31 64  1  0  0  0  0
 32 33  1  0  0  0  0
 32 65  1  0  0  0  0
 33 34  2  0  0  0  0
 33 66  1  0  0  0  0
 34 35  1  0  0  0  0
 35 67  1  0  0  0  0
M  END
>  <DRUGBANK_ID>
DB15137

>  <COMMON_NAME>
VK-2809

>  <CAS_NUMBER>
852948-13-1

>  <UNII>
3Z11398FNQ

$$$$
