
 OpenBabel10282417223D

 82 87  0  0  1  0  0  0  0  0999 V2000
    0.6321   -0.7350    0.2102 C   0  0  0  0  0  0  0  0  0  0  0  0
    0.1894   -1.4468   -0.9504 C   0  0  1  0  0  0  0  0  0  0  0  0
    0.8056   -2.6965   -0.4983 C   0  0  1  0  0  0  0  0  0  0  0  0
    0.3590   -3.7019   -1.3712 N   0  0  0  0  0  0  0  0  0  0  0  0
   -1.0358   -3.5778   -1.8810 C   0  0  1  0  0  0  0  0  0  0  0  0
   -2.0174   -4.1101   -0.8072 C   0  0  0  0  0  0  0  0  0  0  0  0
   -3.3916   -4.2676   -1.3780 C   0  0  0  0  0  0  0  0  0  0  0  0
   -3.5939   -4.9258   -2.5439 C   0  0  0  0  0  0  0  0  0  0  0  0
   -4.8792   -4.9906   -3.0322 C   0  0  0  0  0  0  0  0  0  0  0  0
   -5.9813   -4.2741   -2.5159 C   0  0  0  0  0  0  0  0  0  0  0  0
   -7.2112   -4.2560   -3.1538 O   0  0  0  0  0  0  0  0  0  0  0  0
   -7.3817   -5.2473   -4.4340 P   0  0  0  0  0  0  0  0  0  0  0  0
   -6.1396   -4.7456   -5.3212 O   0  0  0  0  0  0  0  0  0  0  0  0
   -6.9998   -6.5995   -3.6491 O   0  0  0  0  0  0  0  0  0  0  0  0
   -8.6410   -5.3256   -5.2143 O   0  0  0  0  0  0  0  0  0  0  0  0
   -5.8095   -3.6949   -1.2951 C   0  0  0  0  0  0  0  0  0  0  0  0
   -4.5414   -3.8606   -0.7198 C   0  0  0  0  0  0  0  0  0  0  0  0
   -1.5522   -2.0907   -2.2062 C   0  0  0  0  0  0  0  0  0  0  0  0
   -2.1527   -1.7588   -3.1724 O   0  0  0  0  0  0  0  0  0  0  0  0
   -1.2324   -1.2804   -1.0826 N   0  0  0  0  0  0  0  0  0  0  0  0
   -1.9313    0.0331   -0.6255 C   0  0  0  0  0  0  0  0  0  0  0  0
   -2.1584    0.1134    0.9124 C   0  0  0  0  0  0  0  0  0  0  0  0
   -1.1741   -0.0064    1.8878 C   0  0  0  0  0  0  0  0  0  0  0  0
   -1.1346   -0.3391    3.2261 C   0  0  0  0  0  0  0  0  0  0  0  0
   -2.3637   -0.6524    3.6706 C   0  0  0  0  0  0  0  0  0  0  0  0
   -3.3976   -0.5369    2.6687 C   0  0  0  0  0  0  0  0  0  0  0  0
   -3.3718    0.2095    1.4653 C   0  0  0  0  0  0  0  0  0  0  0  0
   -4.3671    0.3365    0.5576 N   0  0  0  0  0  0  0  0  0  0  0  0
   -4.9519   -0.8047    0.2510 C   0  0  0  0  0  0  0  0  0  0  0  0
   -4.5333   -1.8101    1.0864 C   0  0  0  0  0  0  0  0  0  0  0  0
   -4.2852   -1.5462    2.4635 C   0  0  0  0  0  0  0  0  0  0  0  0
    1.0993   -4.8350   -1.4961 C   0  0  0  0  0  0  0  0  0  0  0  0
    0.7289   -5.7205   -2.2593 O   0  0  0  0  0  0  0  0  0  0  0  0
    2.4175   -4.9678   -0.7155 C   0  0  0  0  0  0  0  0  0  0  0  0
    2.7608   -3.8920    0.2576 N   0  0  0  0  0  0  0  0  0  0  0  0
    2.1741   -4.2155    1.5854 C   0  0  0  0  0  0  0  0  0  0  0  0
    2.3451   -2.5838   -0.3153 N   0  0  0  0  0  0  0  0  0  0  0  0
    3.3988   -1.5582   -0.4576 C   0  0  0  0  0  0  0  0  0  0  0  0
    4.5619   -1.8000   -0.0981 O   0  0  0  0  0  0  0  0  0  0  0  0
    3.2586   -0.2171   -0.9064 N   0  0  0  0  0  0  0  0  0  0  0  0
    2.1779    0.7429   -1.1928 C   0  0  0  0  0  0  0  0  0  0  0  0
    1.6825    1.7101    0.0013 C   0  0  0  0  0  0  0  0  0  0  0  0
    1.4895    1.4735    1.4406 C   0  0  0  0  0  0  0  0  0  0  0  0
    0.7149    2.3085    2.2884 C   0  0  0  0  0  0  0  0  0  0  0  0
    0.4877    3.5719    1.8476 C   0  0  0  0  0  0  0  0  0  0  0  0
    0.8041    3.8720    0.5214 C   0  0  0  0  0  0  0  0  0  0  0  0
    1.1665    2.9116   -0.4311 C   0  0  0  0  0  0  0  0  0  0  0  0
    0.4393   -1.2271    1.1566 H   0  0  0  0  0  0  0  0  0  0  0  0
    0.2070    0.2154   -0.0462 H   0  0  0  0  0  0  0  0  0  0  0  0
    1.6710   -0.6175    0.4266 H   0  0  0  0  0  0  0  0  0  0  0  0
    0.5937   -1.2974   -1.9685 H   0  0  0  0  0  0  0  0  0  0  0  0
    0.3516   -2.9490    0.4772 H   0  0  0  0  0  0  0  0  0  0  0  0
   -1.0613   -4.1494   -2.8045 H   0  0  0  0  0  0  0  0  0  0  0  0
   -1.6943   -5.0668   -0.3970 H   0  0  0  0  0  0  0  0  0  0  0  0
   -2.0224   -3.4221    0.0526 H   0  0  0  0  0  0  0  0  0  0  0  0
   -2.7977   -5.4492   -3.0584 H   0  0  0  0  0  0  0  0  0  0  0  0
   -4.9514   -5.6887   -3.8524 H   0  0  0  0  0  0  0  0  0  0  0  0
   -6.2686   -3.8103   -5.5779 H   0  0  0  0  0  0  0  0  0  0  0  0
   -7.2807   -6.4789   -2.7133 H   0  0  0  0  0  0  0  0  0  0  0  0
   -6.6049   -3.1944   -0.7463 H   0  0  0  0  0  0  0  0  0  0  0  0
   -4.4174   -3.7317    0.3345 H   0  0  0  0  0  0  0  0  0  0  0  0
   -1.3945    0.9450   -0.9188 H   0  0  0  0  0  0  0  0  0  0  0  0
   -2.8681    0.0866   -1.1817 H   0  0  0  0  0  0  0  0  0  0  0  0
   -0.2850    0.3976    1.5566 H   0  0  0  0  0  0  0  0  0  0  0  0
   -0.1924   -0.3500    3.7792 H   0  0  0  0  0  0  0  0  0  0  0  0
   -2.4339   -1.0142    4.6930 H   0  0  0  0  0  0  0  0  0  0  0  0
   -5.2003   -0.9614   -0.8132 H   0  0  0  0  0  0  0  0  0  0  0  0
   -3.5550   -2.0843    0.5489 H   0  0  0  0  0  0  0  0  0  0  0  0
   -5.1094   -1.4271    3.1529 H   0  0  0  0  0  0  0  0  0  0  0  0
    3.2090   -4.9973   -1.4637 H   0  0  0  0  0  0  0  0  0  0  0  0
    2.3534   -5.9344   -0.2050 H   0  0  0  0  0  0  0  0  0  0  0  0
    1.0783   -4.2606    1.6080 H   0  0  0  0  0  0  0  0  0  0  0  0
    2.4857   -5.2162    1.9142 H   0  0  0  0  0  0  0  0  0  0  0  0
    2.4956   -3.5154    2.3637 H   0  0  0  0  0  0  0  0  0  0  0  0
    4.1155    0.3044   -0.7773 H   0  0  0  0  0  0  0  0  0  0  0  0
    1.7555    1.0568   -2.1825 H   0  0  0  0  0  0  0  0  0  0  0  0
    1.5950   -0.0845   -1.4492 H   0  0  0  0  0  0  0  0  0  0  0  0
    1.6643    0.5120    1.9420 H   0  0  0  0  0  0  0  0  0  0  0  0
    0.3031    1.9839    3.2555 H   0  0  0  0  0  0  0  0  0  0  0  0
    0.1557    4.3189    2.5589 H   0  0  0  0  0  0  0  0  0  0  0  0
    0.8852    4.9084    0.2337 H   0  0  0  0  0  0  0  0  0  0  0  0
    1.1275    3.1355   -1.4931 H   0  0  0  0  0  0  0  0  0  0  0  0
  1 48  1  0  0  0  0
  1 49  1  0  0  0  0
  1 50  1  0  0  0  0
  2  1  1  0  0  0  0
  2  3  1  0  0  0  0
  2 20  1  0  0  0  0
  2 51  1  6  0  0  0
  3  4  1  0  0  0  0
  3 37  1  0  0  0  0
  3 52  1  1  0  0  0
  4 32  1  0  0  0  0
  5  4  1  0  0  0  0
  5  6  1  0  0  0  0
  5 18  1  0  0  0  0
  5 53  1  6  0  0  0
  6  7  1  0  0  0  0
  6 54  1  0  0  0  0
  6 55  1  0  0  0  0
  7  8  2  0  0  0  0
  7 17  1  0  0  0  0
  8  9  1  0  0  0  0
  8 56  1  0  0  0  0
  9 10  2  0  0  0  0
  9 57  1  0  0  0  0
 10 11  1  0  0  0  0
 10 16  1  0  0  0  0
 11 12  1  0  0  0  0
 12 13  1  0  0  0  0
 12 14  1  0  0  0  0
 12 15  2  0  0  0  0
 13 58  1  0  0  0  0
 14 59  1  0  0  0  0
 16 17  2  0  0  0  0
 16 60  1  0  0  0  0
 17 61  1  0  0  0  0
 18 19  2  0  0  0  0
 18 20  1  0  0  0  0
 20 21  1  0  0  0  0
 21 22  1  0  0  0  0
 21 62  1  0  0  0  0
 21 63  1  0  0  0  0
 22 23  2  0  0  0  0
 22 27  1  0  0  0  0
 23 24  1  0  0  0  0
 23 64  1  0  0  0  0
 24 25  2  0  0  0  0
 24 65  1  0  0  0  0
 25 26  1  0  0  0  0
 25 66  1  0  0  0  0
 26 27  2  0  0  0  0
 26 31  1  0  0  0  0
 27 28  1  0  0  0  0
 28 29  2  0  0  0  0
 29 30  1  0  0  0  0
 29 67  1  0  0  0  0
 30 31  2  0  0  0  0
 30 68  1  0  0  0  0
 31 69  1  0  0  0  0
 32 33  2  0  0  0  0
 32 34  1  0  0  0  0
 34 35  1  0  0  0  0
 34 70  1  0  0  0  0
 34 71  1  0  0  0  0
 35 36  1  0  0  0  0
 35 37  1  0  0  0  0
 36 72  1  0  0  0  0
 36 73  1  0  0  0  0
 36 74  1  0  0  0  0
 37 38  1  0  0  0  0
 38 39  2  0  0  0  0
 38 40  1  0  0  0  0
 40 41  1  0  0  0  0
 40 75  1  0  0  0  0
 41 42  1  0  0  0  0
 41 76  1  0  0  0  0
 41 77  1  0  0  0  0
 42 43  2  0  0  0  0
 42 47  1  0  0  0  0
 43 44  1  0  0  0  0
 43 78  1  0  0  0  0
 44 45  2  0  0  0  0
 44 79  1  0  0  0  0
 45 46  1  0  0  0  0
 45 80  1  0  0  0  0
 46 47  2  0  0  0  0
 46 81  1  0  0  0  0
 47 82  1  0  0  0  0
M  END
>  <DRUGBANK_ID>
DB15034

>  <COMMON_NAME>
PRI-724

>  <CAS_NUMBER>
1198780-38-9

>  <UNII>
43Y934BBZ6

$$$$
