
 OpenBabel10282417213D

179185  0  0  0  0  0  0  0  0999 V2000
    9.4331   -3.2273   -5.5110 C   0  0  0  0  0  0  0  0  0  0  0  0
    5.7748    1.1451    1.0299 C   0  0  0  0  0  0  0  0  0  0  0  0
    8.3786    7.8068    1.9931 N   0  0  0  0  0  0  0  0  0  0  0  0
    7.6085    8.4397    0.9127 C   0  0  2  0  0  0  0  0  0  0  0  0
    8.2680    0.3989    3.5759 C   0  0  0  0  0  0  0  0  0  0  0  0
    6.5115   -0.7968   -0.3540 C   0  0  0  0  0  0  0  0  0  0  0  0
    7.5055    1.4346    3.7973 N   0  0  0  0  0  0  0  0  0  0  0  0
    8.7865   -4.0245   -4.4013 N   0  0  0  0  0  0  0  0  0  0  0  0
    6.9167   -1.3358   -1.4713 N   0  0  0  0  0  0  0  0  0  0  0  0
    5.5675    0.3858    2.1244 N   0  5  0  0  0  0  0  0  0  0  0  0
    6.1358    1.0094    4.2751 C   0  0  2  0  0  0  0  0  0  0  0  0
    7.1450   -2.8211   -1.3074 C   0  0  0  0  0  0  0  0  0  0  0  0
    9.7052    0.4787    3.0876 C   0  0  0  0  0  0  0  0  0  0  0  0
    6.1916    0.6787   -0.1782 C   0  0  0  0  0  0  0  0  0  0  0  0
    9.6506   -1.8195   -4.9081 C   0  0  2  0  0  0  0  0  0  0  0  0
    6.6100    7.4392    0.2948 C   0  0  1  0  0  0  0  0  0  0  0  0
    8.3137   -3.2388   -3.4727 C   0  0  0  0  0  0  0  0  0  0  0  0
    5.4038    2.5581    1.4349 C   0  0  1  0  0  0  0  0  0  0  0  0
    6.5734    7.7303   -1.2159 C   0  0  1  0  0  0  0  0  0  0  0  0
    6.3122   -0.4636    4.7132 C   0  0  2  0  0  0  0  0  0  0  0  0
    8.5351    8.8316   -0.2645 O   0  0  0  0  0  0  0  0  0  0  0  0
    5.6246    6.3311   -3.0438 P   0  0  3  0  0  0  0  0  0  0  0  0
    9.1851    6.7382    1.9133 C   0  0  0  0  0  0  0  0  0  0  0  0
    7.6030   -3.7213   -2.2187 C   0  0  0  0  0  0  0  0  0  0  0  0
    5.1168    1.1138    3.1521 C   0  0  1  0  0  0  0  0  0  0  0  0
    8.3508    8.2100    3.2482 C   0  0  0  0  0  0  0  0  0  0  0  0
    7.5358   -0.8894    3.8681 C   0  0  2  0  0  0  0  0  0  0  0  0
    6.4091   -3.1895    0.0023 C   0  0  0  0  0  0  0  0  0  0  0  0
    6.4017   -1.8307    0.7415 C   0  0  2  0  0  0  0  0  0  0  0  0
    9.1240    7.4372    3.9995 N   0  0  0  0  0  0  0  0  0  0  0  0
    4.9830    2.4157    2.8402 C   0  0  2  0  0  0  0  0  0  0  0  0
    8.5650   -1.7874   -3.8067 C   0  0  1  0  0  0  0  0  0  0  0  0
    7.5515    8.8979   -1.4631 C   0  0  2  0  0  0  0  0  0  0  0  0
    9.6663    6.4990    3.2303 C   0  0  0  0  0  0  0  0  0  0  0  0
    6.8920    6.5168   -1.8810 O   0  0  0  0  0  0  0  0  0  0  0  0
    9.6023    5.8928    0.8736 C   0  0  0  0  0  0  0  0  0  0  0  0
    5.8612    2.6518   -0.0116 C   0  0  0  0  0  0  0  0  0  0  0  0
   10.2788   -0.6211   -5.6007 C   0  0  0  0  0  0  0  0  0  0  0  0
   10.5169    5.4601    3.4578 C   0  0  0  0  0  0  0  0  0  0  0  0
   10.4790    4.8442    1.1772 C   0  0  0  0  0  0  0  0  0  0  0  0
    5.6271   -1.8160    4.6034 C   0  0  0  0  0  0  0  0  0  0  0  0
    7.7753   -2.1436    4.6928 C   0  0  0  0  0  0  0  0  0  0  0  0
    6.0135   -1.5778    2.1892 C   0  0  0  0  0  0  0  0  0  0  0  0
   10.9105    4.6584    2.4568 C   0  0  0  0  0  0  0  0  0  0  0  0
    8.1048   -0.5641   -3.0308 C   0  0  0  0  0  0  0  0  0  0  0  0
   10.3510   -0.8808   -7.0966 C   0  0  0  0  0  0  0  0  0  0  0  0
    4.4083   -0.9081    4.6304 C   0  0  0  0  0  0  0  0  0  0  0  0
    4.1415    5.5637   -2.5918 O   0  5  0  0  0  0  0  0  0  0  0  0
    3.3028    4.1075    3.1779 C   0  0  0  0  0  0  0  0  0  0  0  0
    4.9730    7.8646   -2.5785 O   0  0  0  0  0  0  0  0  0  0  0  0
    4.4614    3.4064    3.8683 C   0  0  0  0  0  0  0  0  0  0  0  0
    4.0967    4.3321   -0.4852 C   0  0  0  0  0  0  0  0  0  0  0  0
    6.2078    4.9586   -3.4603 O   0  0  0  0  0  0  0  0  0  0  0  0
    7.6238   -0.1504    3.4262 C   0  0  0  0  0  0  0  0  0  0  0  0
    6.6321   -0.1567   -1.0747 C   0  0  0  0  0  0  0  0  0  0  0  0
    5.6487   -1.7453    5.9093 C   0  0  0  0  0  0  0  0  0  0  0  0
    4.0459    5.4343   -1.4565 N   0  0  0  0  0  0  0  0  0  0  0  0
    9.7500   -0.1067   -7.9057 O   0  0  0  0  0  0  0  0  0  0  0  0
    2.4917    4.8127    3.8562 O   0  0  0  0  0  0  0  0  0  0  0  0
    3.5874   -0.9175    3.6603 O   0  0  0  0  0  0  0  0  0  0  0  0
    3.6620    4.5057    0.6963 O   0  0  0  0  0  0  0  0  0  0  0  0
    7.0049    6.0990    0.5484 O   0  0  0  0  0  0  0  0  0  0  0  0
    6.6577    0.7477   -0.1822 O   0  0  0  0  0  0  0  0  0  0  0  0
    7.5245    0.4489    4.5425 O   0  0  0  0  0  0  0  0  0  0  0  0
    4.8232   -2.5542    6.4378 O   0  0  0  0  0  0  0  0  0  0  0  0
    4.6693    2.9847   -0.8941 C   0  0  0  0  0  0  0  0  0  0  0  0
    7.1432   -1.9749    6.0648 C   0  0  0  0  0  0  0  0  0  0  0  0
    7.0816   -1.5618    3.2705 C   0  0  0  0  0  0  0  0  0  0  0  0
    6.8922    0.2026   -2.5286 C   0  0  0  0  0  0  0  0  0  0  0  0
    4.5570    7.8102   -1.2219 C   0  0  2  0  0  0  0  0  0  0  0  0
    6.3375    1.6331   -1.3522 C   0  0  0  0  0  0  0  0  0  0  0  0
   10.9120    1.0337    3.8265 C   0  0  0  0  0  0  0  0  0  0  0  0
   10.7509   -0.8119   -5.1990 C   0  0  0  0  0  0  0  0  0  0  0  0
    3.1204    3.9698    1.7258 N   0  0  0  0  0  0  0  0  0  0  0  0
   11.1161   -2.0274   -7.6074 N   0  0  0  0  0  0  0  0  0  0  0  0
    4.1792   -0.0192    5.7786 N   0  0  0  0  0  0  0  0  0  0  0  0
    6.3509   -1.5504   -0.7010 N   0  0  0  0  0  0  0  0  0  0  0  0
    8.2631    0.5214    2.2855 N   0  0  0  0  0  0  0  0  0  0  0  0
    5.1583   -0.5877    5.1476 N   0  0  0  0  0  0  0  0  0  0  0  0
    5.6243    1.8901    5.4035 C   0  0  0  0  0  0  0  0  0  0  0  0
    3.4922    6.7374   -1.0611 C   0  0  0  0  0  0  0  0  0  0  0  0
    5.1422    4.0552    1.4144 C   0  0  0  0  0  0  0  0  0  0  0  0
    5.6329   -0.8022    6.0301 C   0  0  0  0  0  0  0  0  0  0  0  0
    6.8122   10.2258   -1.4808 C   0  0  0  0  0  0  0  0  0  0  0  0
    5.5959   -4.1236    0.8836 C   0  0  0  0  0  0  0  0  0  0  0  0
    6.5863   -4.5812   -0.5825 C   0  0  0  0  0  0  0  0  0  0  0  0
    5.9594    9.4782   -2.3353 O   0  0  0  0  0  0  0  0  0  0  0  0
   10.9513    3.9093    0.0756 C   0  0  0  0  0  0  0  0  0  0  0  0
   11.8629    3.5126    2.7574 C   0  0  0  0  0  0  0  0  0  0  0  0
    3.9844    9.1576   -0.8131 C   0  0  0  0  0  0  0  0  0  0  0  0
    4.1542    0.7376    3.4291 H   0  0  0  0  0  0  0  0  0  0  0  0
    1.0845    0.0359    0.0396 Co  0  2  0  0  0  0  0  0  0  0  0  0
    4.3949    5.2950   -2.4048 H   0  0  0  0  0  0  0  0  0  0  0  0
    3.7714    3.4038    1.1814 H   0  0  0  0  0  0  0  0  0  0  0  0
    2.3429    4.4402    1.2625 H   0  0  0  0  0  0  0  0  0  0  0  0
   11.5984   -2.6487   -6.9580 H   0  0  0  0  0  0  0  0  0  0  0  0
   11.1646   -2.2017   -8.6112 H   0  0  0  0  0  0  0  0  0  0  0  0
    4.8381   -0.0117    6.5572 H   0  0  0  0  0  0  0  0  0  0  0  0
    3.3614    0.5900    5.7967 H   0  0  0  0  0  0  0  0  0  0  0  0
    6.3303   -2.2762   -1.4174 H   0  0  0  0  0  0  0  0  0  0  0  0
    6.1763   -1.7915    0.2745 H   0  0  0  0  0  0  0  0  0  0  0  0
    8.3427    0.0404    1.3896 H   0  0  0  0  0  0  0  0  0  0  0  0
    8.6269    1.4685    2.3900 H   0  0  0  0  0  0  0  0  0  0  0  0
    5.8209    0.0615    4.7234 H   0  0  0  0  0  0  0  0  0  0  0  0
    4.1554   -0.4336    5.0432 H   0  0  0  0  0  0  0  0  0  0  0  0
    7.1216    9.2865    1.3492 H   0  0  0  0  0  0  0  0  0  0  0  0
    5.6382    7.5768    0.7209 H   0  0  0  0  0  0  0  0  0  0  0  0
    5.6234    8.0610   -1.5808 H   0  0  0  0  0  0  0  0  0  0  0  0
    7.4628   -4.7690   -2.0528 H   0  0  0  0  0  0  0  0  0  0  0  0
    7.7846    9.0429    3.6096 H   0  0  0  0  0  0  0  0  0  0  0  0
    7.7021   -1.2284    2.8669 H   0  0  0  0  0  0  0  0  0  0  0  0
    7.0186   -1.7353    1.6106 H   0  0  0  0  0  0  0  0  0  0  0  0
    4.7868    3.4458    3.0533 H   0  0  0  0  0  0  0  0  0  0  0  0
    7.7149   -1.1415   -3.8784 H   0  0  0  0  0  0  0  0  0  0  0  0
    8.0501    8.8218   -2.4068 H   0  0  0  0  0  0  0  0  0  0  0  0
    9.2584    6.0462   -0.1279 H   0  0  0  0  0  0  0  0  0  0  0  0
    6.6108    3.4070   -0.1247 H   0  0  0  0  0  0  0  0  0  0  0  0
    6.2643    1.7033   -0.2994 H   0  0  0  0  0  0  0  0  0  0  0  0
    9.6833    0.2490   -5.4181 H   0  0  0  0  0  0  0  0  0  0  0  0
   11.2656   -0.4646   -5.2178 H   0  0  0  0  0  0  0  0  0  0  0  0
   10.8766    5.2806    4.4494 H   0  0  0  0  0  0  0  0  0  0  0  0
    5.6276   -2.3855    3.6976 H   0  0  0  0  0  0  0  0  0  0  0  0
    5.5960   -2.4798    5.4420 H   0  0  0  0  0  0  0  0  0  0  0  0
    7.3349   -2.9839    4.1980 H   0  0  0  0  0  0  0  0  0  0  0  0
    8.8274   -2.3052    4.8022 H   0  0  0  0  0  0  0  0  0  0  0  0
    5.2172   -0.9182    2.4646 H   0  0  0  0  0  0  0  0  0  0  0  0
    5.6317   -2.5714    2.0796 H   0  0  0  0  0  0  0  0  0  0  0  0
    8.9595   -0.3058   -2.4411 H   0  0  0  0  0  0  0  0  0  0  0  0
    8.2879   -0.3111   -4.0542 H   0  0  0  0  0  0  0  0  0  0  0  0
    4.4338    3.6197    4.9164 H   0  0  0  0  0  0  0  0  0  0  0  0
    5.3855    3.7558    3.4574 H   0  0  0  0  0  0  0  0  0  0  0  0
    7.9128    5.9399    0.1605 H   0  0  0  0  0  0  0  0  0  0  0  0
    4.9828    3.0257   -1.9163 H   0  0  0  0  0  0  0  0  0  0  0  0
    3.9198    2.2295   -0.7809 H   0  0  0  0  0  0  0  0  0  0  0  0
    7.3099   -2.8582    6.6453 H   0  0  0  0  0  0  0  0  0  0  0  0
    7.5836   -1.1346    6.5595 H   0  0  0  0  0  0  0  0  0  0  0  0
    6.6556   -1.8845    4.1974 H   0  0  0  0  0  0  0  0  0  0  0  0
    7.8778   -2.2214    2.9951 H   0  0  0  0  0  0  0  0  0  0  0  0
    7.0764    1.2536   -2.6087 H   0  0  0  0  0  0  0  0  0  0  0  0
    6.0376   -0.0557   -3.1182 H   0  0  0  0  0  0  0  0  0  0  0  0
    5.3960    7.5759   -0.6007 H   0  0  0  0  0  0  0  0  0  0  0  0
    7.3699    1.7112   -1.6222 H   0  0  0  0  0  0  0  0  0  0  0  0
    5.7781    1.2617   -2.1852 H   0  0  0  0  0  0  0  0  0  0  0  0
    5.9671    2.5982   -1.0756 H   0  0  0  0  0  0  0  0  0  0  0  0
   10.6323    1.9001    4.3887 H   0  0  0  0  0  0  0  0  0  0  0  0
   11.2340    0.2631    4.4954 H   0  0  0  0  0  0  0  0  0  0  0  0
   11.7106    1.2837    3.1596 H   0  0  0  0  0  0  0  0  0  0  0  0
   10.4396   -0.1623   -5.9903 H   0  0  0  0  0  0  0  0  0  0  0  0
   10.9469   -0.2344   -4.3198 H   0  0  0  0  0  0  0  0  0  0  0  0
   11.6405   -1.3294   -5.4915 H   0  0  0  0  0  0  0  0  0  0  0  0
    6.1478    2.8232    5.3931 H   0  0  0  0  0  0  0  0  0  0  0  0
    4.5774    2.0670    5.2710 H   0  0  0  0  0  0  0  0  0  0  0  0
    5.7875    1.4000    6.3405 H   0  0  0  0  0  0  0  0  0  0  0  0
    2.6532    6.9717   -1.6823 H   0  0  0  0  0  0  0  0  0  0  0  0
    3.1788    6.6964   -0.0389 H   0  0  0  0  0  0  0  0  0  0  0  0
    4.2045    4.2436    0.9346 H   0  0  0  0  0  0  0  0  0  0  0  0
    5.1082    4.4204    2.4196 H   0  0  0  0  0  0  0  0  0  0  0  0
    5.9231    4.5545    0.8798 H   0  0  0  0  0  0  0  0  0  0  0  0
    5.5704    0.0804    6.6318 H   0  0  0  0  0  0  0  0  0  0  0  0
    4.6513   -1.1990    5.8759 H   0  0  0  0  0  0  0  0  0  0  0  0
    6.2381   -1.5310    6.5277 H   0  0  0  0  0  0  0  0  0  0  0  0
    6.4135   10.2232   -0.4878 H   0  0  0  0  0  0  0  0  0  0  0  0
    6.8787   11.2331   -1.8357 H   0  0  0  0  0  0  0  0  0  0  0  0
    6.2253   -4.9660    1.0809 H   0  0  0  0  0  0  0  0  0  0  0  0
    5.2882   -3.6837    1.8092 H   0  0  0  0  0  0  0  0  0  0  0  0
    4.7336   -4.4430    0.3364 H   0  0  0  0  0  0  0  0  0  0  0  0
    6.4346   -4.8825    0.4330 H   0  0  0  0  0  0  0  0  0  0  0  0
    5.7086   -4.7996   -1.1542 H   0  0  0  0  0  0  0  0  0  0  0  0
    7.4199   -5.1129   -0.9915 H   0  0  0  0  0  0  0  0  0  0  0  0
    6.3320    9.4808   -3.2633 H   0  0  0  0  0  0  0  0  0  0  0  0
   10.1067    3.4224   -0.3654 H   0  0  0  0  0  0  0  0  0  0  0  0
   11.4691    4.4724   -0.6724 H   0  0  0  0  0  0  0  0  0  0  0  0
   11.6105    3.1750    0.4893 H   0  0  0  0  0  0  0  0  0  0  0  0
   12.7739    3.9025    3.1612 H   0  0  0  0  0  0  0  0  0  0  0  0
   11.4123    2.8513    3.4677 H   0  0  0  0  0  0  0  0  0  0  0  0
   12.0730    2.9773    1.8551 H   0  0  0  0  0  0  0  0  0  0  0  0
    3.6709    9.1166    0.2092 H   0  0  0  0  0  0  0  0  0  0  0  0
    4.7339    9.9128   -0.9262 H   0  0  0  0  0  0  0  0  0  0  0  0
    3.1453    9.3919   -1.4343 H   0  0  0  0  0  0  0  0  0  0  0  0
  1  8  1  0  0  0  0
  1 13  2  0  0  0  0
  1 15  1  0  0  0  0
  2 10  1  0  0  0  0
  2 14  2  0  0  0  0
  2 18  1  0  0  0  0
  3 23  1  0  0  0  0
  3 26  1  0  0  0  0
  4 16  1  0  0  0  0
  4 21  1  0  0  0  0
  4106  1  1  0  0  0
  4  3  1  0  0  0  0
  5 13  1  0  0  0  0
  5  7  2  0  0  0  0
  5 27  1  0  0  0  0
  6  9  2  0  0  0  0
  6 14  1  0  0  0  0
  6 29  1  0  0  0  0
  7 11  1  0  0  0  0
  8 17  2  0  0  0  0
  9 12  1  0  0  0  0
 10 25  1  0  0  0  0
 11 20  1  0  0  0  0
 11 25  1  0  0  0  0
 11 80  1  1  0  0  0
 12 24  2  0  0  0  0
 12 28  1  0  0  0  0
 13 72  1  0  0  0  0
 14 71  1  0  0  0  0
 15 32  1  0  0  0  0
 15 73  1  1  0  0  0
 15 38  1  0  0  0  0
 16 19  1  0  0  0  0
 16 62  1  0  0  0  0
 16107  1  1  0  0  0
 17 24  1  0  0  0  0
 17 32  1  0  0  0  0
 18 31  1  0  0  0  0
 18 82  1  6  0  0  0
 18 37  1  0  0  0  0
 19 33  1  0  0  0  0
 19108  1  6  0  0  0
 19 35  1  0  0  0  0
 20 27  1  0  0  0  0
 20 83  1  1  0  0  0
 20 41  1  0  0  0  0
 21 33  1  0  0  0  0
 22 50  1  0  0  0  0
 22 35  1  0  0  0  0
 22 48  1  0  0  0  0
 22 53  2  0  0  0  0
 23 34  2  0  0  0  0
 23 36  1  0  0  0  0
 24109  1  0  0  0  0
 25 31  1  0  0  0  0
 25 91  1  1  0  0  0
 26 30  2  0  0  0  0
 26110  1  0  0  0  0
 27 42  1  0  0  0  0
 27111  1  6  0  0  0
 28 29  1  0  0  0  0
 28 85  1  0  0  0  0
 28 86  1  0  0  0  0
 29 43  1  0  0  0  0
 29112  1  1  0  0  0
 30 34  1  0  0  0  0
 31 51  1  0  0  0  0
 31113  1  1  0  0  0
 32 45  1  0  0  0  0
 32114  1  6  0  0  0
 33115  1  6  0  0  0
 33 84  1  0  0  0  0
 34 39  1  0  0  0  0
 36 40  2  0  0  0  0
 36116  1  0  0  0  0
 37 66  1  0  0  0  0
 37117  1  0  0  0  0
 37118  1  0  0  0  0
 38 46  1  0  0  0  0
 38119  1  0  0  0  0
 38120  1  0  0  0  0
 39 44  2  0  0  0  0
 39121  1  0  0  0  0
 40 44  1  0  0  0  0
 40 88  1  0  0  0  0
 41 47  1  0  0  0  0
 41122  1  0  0  0  0
 41123  1  0  0  0  0
 42 67  1  0  0  0  0
 42124  1  0  0  0  0
 42125  1  0  0  0  0
 43 68  1  0  0  0  0
 43126  1  0  0  0  0
 43127  1  0  0  0  0
 44 89  1  0  0  0  0
 45 69  1  0  0  0  0
 45128  1  0  0  0  0
 45129  1  0  0  0  0
 46 58  2  0  0  0  0
 46 75  1  0  0  0  0
 47 60  2  0  0  0  0
 47 76  1  0  0  0  0
 49 51  1  0  0  0  0
 49 59  2  0  0  0  0
 49 74  1  0  0  0  0
 50 70  1  0  0  0  0
 51130  1  0  0  0  0
 51131  1  0  0  0  0
 52 66  1  0  0  0  0
 52 57  1  0  0  0  0
 52 61  2  0  0  0  0
 54 68  1  0  0  0  0
 54 64  2  0  0  0  0
 54 78  1  0  0  0  0
 55 69  1  0  0  0  0
 55 63  2  0  0  0  0
 55 77  1  0  0  0  0
 56 67  1  0  0  0  0
 56 65  2  0  0  0  0
 56 79  1  0  0  0  0
 57 81  1  0  0  0  0
 57 93  1  0  0  0  0
 62132  1  0  0  0  0
 66133  1  0  0  0  0
 66134  1  0  0  0  0
 67135  1  0  0  0  0
 67136  1  0  0  0  0
 68137  1  0  0  0  0
 68138  1  0  0  0  0
 69139  1  0  0  0  0
 69140  1  0  0  0  0
 70 81  1  0  0  0  0
 70 90  1  0  0  0  0
 70141  1  1  0  0  0
 71142  1  0  0  0  0
 71143  1  0  0  0  0
 71144  1  0  0  0  0
 72145  1  0  0  0  0
 72146  1  0  0  0  0
 72147  1  0  0  0  0
 73148  1  0  0  0  0
 73149  1  0  0  0  0
 73150  1  0  0  0  0
 74 94  1  0  0  0  0
 74 95  1  0  0  0  0
 75 96  1  0  0  0  0
 75 97  1  0  0  0  0
 76 98  1  0  0  0  0
 76 99  1  0  0  0  0
 77100  1  0  0  0  0
 77101  1  0  0  0  0
 78102  1  0  0  0  0
 78103  1  0  0  0  0
 79104  1  0  0  0  0
 79105  1  0  0  0  0
 80151  1  0  0  0  0
 80152  1  0  0  0  0
 80153  1  0  0  0  0
 81154  1  0  0  0  0
 81155  1  0  0  0  0
 82156  1  0  0  0  0
 82157  1  0  0  0  0
 82158  1  0  0  0  0
 83159  1  0  0  0  0
 83160  1  0  0  0  0
 83161  1  0  0  0  0
 84 87  1  0  0  0  0
 84162  1  0  0  0  0
 84163  1  0  0  0  0
 85164  1  0  0  0  0
 85165  1  0  0  0  0
 85166  1  0  0  0  0
 86167  1  0  0  0  0
 86168  1  0  0  0  0
 86169  1  0  0  0  0
 87170  1  0  0  0  0
 88171  1  0  0  0  0
 88172  1  0  0  0  0
 88173  1  0  0  0  0
 89174  1  0  0  0  0
 89175  1  0  0  0  0
 89176  1  0  0  0  0
 90177  1  0  0  0  0
 90178  1  0  0  0  0
 90179  1  0  0  0  0
M  CHG  3  10  -1  48  -1  92   2
M  END
>  <DRUGBANK_ID>
DB14098

>  <COMMON_NAME>
Cobalamin

>  <CAS_NUMBER>
13408-78-1

>  <UNII>
8406EY2OQA

$$$$
