
 OpenBabel10282417223D

 27 28  0  0  0  0  0  0  0  0999 V2000
    0.7076    1.1408    0.6165 C   0  0  0  0  0  0  0  0  0  0  0  0
    1.3362    2.4992    0.3412 C   0  0  0  0  0  0  0  0  0  0  0  0
    1.4714    0.0070    0.2829 C   0  0  0  0  0  0  0  0  0  0  0  0
   -0.6544    0.8855    0.8135 C   0  0  0  0  0  0  0  0  0  0  0  0
    0.6421    3.6361    0.0855 O   0  0  0  0  0  0  0  0  0  0  0  0
    2.5724    2.5453    0.2122 O   0  0  0  0  0  0  0  0  0  0  0  0
    0.8566   -1.2406    0.0981 C   0  0  0  0  0  0  0  0  0  0  0  0
   -1.2814   -0.3064    0.6007 N   0  0  0  0  0  0  0  0  0  0  0  0
   -0.7668    3.7579   -0.1921 C   0  0  0  0  0  0  0  0  0  0  0  0
   -0.5169   -1.3370    0.2194 C   0  0  0  0  0  0  0  0  0  0  0  0
   -1.1925    3.0855   -1.4910 C   0  0  0  0  0  0  0  0  0  0  0  0
   -0.7526    1.8078   -1.8613 C   0  0  0  0  0  0  0  0  0  0  0  0
   -2.0841    3.6589   -2.3828 C   0  0  0  0  0  0  0  0  0  0  0  0
   -1.3422    0.9848   -2.8000 C   0  0  0  0  0  0  0  0  0  0  0  0
   -2.5589    2.9103   -3.4818 C   0  0  0  0  0  0  0  0  0  0  0  0
   -2.2190    1.5655   -3.6682 C   0  0  0  0  0  0  0  0  0  0  0  0
    2.5310    0.1049    0.0462 H   0  0  0  0  0  0  0  0  0  0  0  0
   -1.4051    1.6433    0.9534 H   0  0  0  0  0  0  0  0  0  0  0  0
    1.4331   -2.1151   -0.1792 H   0  0  0  0  0  0  0  0  0  0  0  0
   -1.3037    3.4349    0.7046 H   0  0  0  0  0  0  0  0  0  0  0  0
   -1.0197    4.8268   -0.2052 H   0  0  0  0  0  0  0  0  0  0  0  0
   -1.0583   -2.2525   -0.0018 H   0  0  0  0  0  0  0  0  0  0  0  0
    0.1301    1.3611   -1.4629 H   0  0  0  0  0  0  0  0  0  0  0  0
   -2.3717    4.7014   -2.2772 H   0  0  0  0  0  0  0  0  0  0  0  0
   -1.0378   -0.0578   -2.8531 H   0  0  0  0  0  0  0  0  0  0  0  0
   -3.2106    3.3784   -4.2093 H   0  0  0  0  0  0  0  0  0  0  0  0
   -2.5656    0.9843   -4.5141 H   0  0  0  0  0  0  0  0  0  0  0  0
  1  2  1  0  0  0  0
  1  3  2  0  0  0  0
  1  4  1  0  0  0  0
  2  5  1  0  0  0  0
  2  6  2  0  0  0  0
  3  7  1  0  0  0  0
  3 17  1  0  0  0  0
  4  8  2  0  0  0  0
  4 18  1  0  0  0  0
  5  9  1  0  0  0  0
  7 10  2  0  0  0  0
  7 19  1  0  0  0  0
  8 10  1  0  0  0  0
  9 11  1  0  0  0  0
  9 20  1  0  0  0  0
  9 21  1  0  0  0  0
 10 22  1  0  0  0  0
 11 12  2  0  0  0  0
 11 13  1  0  0  0  0
 12 14  1  0  0  0  0
 12 23  1  0  0  0  0
 13 15  2  0  0  0  0
 13 24  1  0  0  0  0
 14 16  2  0  0  0  0
 14 25  1  0  0  0  0
 15 16  1  0  0  0  0
 15 26  1  0  0  0  0
 16 27  1  0  0  0  0
M  END
>  <DRUGBANK_ID>
DB15764

>  <COMMON_NAME>
Benzyl nicotinate

>  <CAS_NUMBER>
94-44-0

>  <UNII>
S497LCF9C9

>  <SYNONYMS>
Benzyl nicotinate; Nicotinic acid benzyl ester; Phenylmethyl 3-pyridinecarboxylate

$$$$
