
 OpenBabel10282417133D

 45 49  0  0  0  0  0  0  0  0999 V2000
    2.1010    0.7170   -0.0000 C   0  0  0  0  0  0  0  0  0  0  0  0
   -4.8793    5.6239    2.9437 C   0  0  0  0  0  0  0  0  0  0  0  0
    0.9160    1.3930   -0.0000 C   0  0  0  0  0  0  0  0  0  0  0  0
   -4.1294    4.8039    2.1523 C   0  0  0  0  0  0  0  0  0  0  0  0
    0.9510   -1.3900   -0.0020 C   0  0  0  0  0  0  0  0  0  0  0  0
   -4.5635    7.4548    1.4239 C   0  0  0  0  0  0  0  0  0  0  0  0
    2.1250   -0.6720   -0.0000 C   0  0  0  0  0  0  0  0  0  0  0  0
   -5.0987    6.9482    2.5861 C   0  0  0  0  0  0  0  0  0  0  0  0
   -0.2670   -0.7190    0.0050 C   0  0  0  0  0  0  0  0  0  0  0  0
   -3.7905    6.6365    0.6073 C   0  0  0  0  0  0  0  0  0  0  0  0
   -0.2930    0.6860   -0.0010 C   0  0  0  0  0  0  0  0  0  0  0  0
   -3.5725    5.2950    0.9647 C   0  0  0  0  0  0  0  0  0  0  0  0
   -1.6943    5.3332   -2.1506 C   0  0  0  0  0  0  0  0  0  0  0  0
    3.4572   -1.4038    0.0022 C   0  0  0  0  0  0  0  0  0  0  0  0
   -5.9358    7.8439    3.4847 C   0  0  0  0  0  0  0  0  0  0  0  0
   -2.3610    0.0410   -0.0000 C   0  0  0  0  0  0  0  0  0  0  0  0
   -2.5340    5.5993   -0.9119 C   0  0  0  0  0  0  0  0  0  0  0  0
    3.5511   -2.2471    1.2026 N   0  0  0  0  0  0  0  0  0  0  0  0
    3.5551   -2.2471   -1.1979 N   0  0  0  0  0  0  0  0  0  0  0  0
   -5.1244    8.9852    3.9317 N   0  0  0  0  0  0  0  0  0  0  0  0
   -7.1025    8.3349    2.7373 N   0  0  0  0  0  0  0  0  0  0  0  0
   -1.5830   -1.1250   -0.0010 N   0  0  0  0  0  0  0  0  0  0  0  0
   -3.1344    6.8241   -0.5889 N   0  0  0  0  0  0  0  0  0  0  0  0
   -1.5900    1.0710   -0.0000 N   0  3  0  0  0  0  0  0  0  0  0  0
   -2.8036    4.7352    0.0025 N   0  3  0  0  0  0  0  0  0  0  0  0
   -1.4907    6.2635   -2.9922 O   0  0  0  0  0  0  0  0  0  0  0  0
   -2.1968    2.9031    0.0012 Zn  0  0  0  0  0  0  0  0  0  0  0  0
    3.0216    1.2624    0.0000 H   0  0  0  0  0  0  0  0  0  0  0  0
   -5.3028    5.2430    3.8495 H   0  0  0  0  0  0  0  0  0  0  0  0
    0.9103    2.4630    0.0008 H   0  0  0  0  0  0  0  0  0  0  0  0
   -3.9667    3.7858    2.4387 H   0  0  0  0  0  0  0  0  0  0  0  0
    0.9753   -2.4597   -0.0089 H   0  0  0  0  0  0  0  0  0  0  0  0
   -4.7414    8.4736    1.1497 H   0  0  0  0  0  0  0  0  0  0  0  0
    4.2555   -0.6913    0.0036 H   0  0  0  0  0  0  0  0  0  0  0  0
   -6.2664    7.2862    4.3359 H   0  0  0  0  0  0  0  0  0  0  0  0
    4.4451   -2.7382    1.2041 H   0  0  0  0  0  0  0  0  0  0  0  0
    3.4831   -1.6620    2.0353 H   0  0  0  0  0  0  0  0  0  0  0  0
    4.4491   -2.7381   -1.1964 H   0  0  0  0  0  0  0  0  0  0  0  0
    2.7941   -2.9262   -1.1992 H   0  0  0  0  0  0  0  0  0  0  0  0
   -5.6861    9.5863    4.5347 H   0  0  0  0  0  0  0  0  0  0  0  0
   -4.3148    8.6445    4.4503 H   0  0  0  0  0  0  0  0  0  0  0  0
   -7.6642    8.9359    3.3403 H   0  0  0  0  0  0  0  0  0  0  0  0
   -6.7873    8.8665    1.9258 H   0  0  0  0  0  0  0  0  0  0  0  0
   -1.9247   -2.0861   -0.0053 H   0  0  0  0  0  0  0  0  0  0  0  0
   -3.0935    7.6856   -1.1334 H   0  0  0  0  0  0  0  0  0  0  0  0
  1 28  1  0  0  0  0
  2 29  1  0  0  0  0
  3  1  2  0  0  0  0
  3 30  1  0  0  0  0
  4  2  2  0  0  0  0
  4 31  1  0  0  0  0
  5 32  1  0  0  0  0
  6 33  1  0  0  0  0
  7  1  1  0  0  0  0
  7  5  2  0  0  0  0
  8  2  1  0  0  0  0
  8  6  2  0  0  0  0
  9  5  1  0  0  0  0
 10  6  1  0  0  0  0
 11  3  1  0  0  0  0
 11  9  2  0  0  0  0
 12  4  1  0  0  0  0
 12 10  2  0  0  0  0
 14  7  1  0  0  0  0
 14 34  1  0  0  0  0
 15  8  1  0  0  0  0
 15 35  1  0  0  0  0
 16 13  1  0  0  0  0
 17 13  1  0  0  0  0
 18 14  1  0  0  0  0
 18 36  1  0  0  0  0
 18 37  1  0  0  0  0
 19 14  1  0  0  0  0
 19 38  1  0  0  0  0
 19 39  1  0  0  0  0
 20 15  1  0  0  0  0
 20 40  1  0  0  0  0
 20 41  1  0  0  0  0
 21 15  1  0  0  0  0
 21 42  1  0  0  0  0
 21 43  1  0  0  0  0
 22  9  1  0  0  0  0
 22 16  1  0  0  0  0
 22 44  1  0  0  0  0
 23 10  1  0  0  0  0
 23 17  1  0  0  0  0
 23 45  1  0  0  0  0
 24 11  1  0  0  0  0
 24 16  2  0  0  0  0
 25 12  1  0  0  0  0
 25 17  2  0  0  0  0
 26 13  2  0  0  0  0
 27 24  1  0  0  0  0
 27 25  1  0  0  0  0
M  CHG  2  24   1  25   1
M  END
>  <DRUGBANK_ID>
DB03443

>  <SECONDARY_ACCESSION_NUMBERS>
EXPT00740

>  <COMMON_NAME>
bis(5-amidino-benzimidazolyl)methanone zinc

$$$$
