
 OpenBabel10282417183D

 17 15  0  0  1  0  0  0  0  0999 V2000
    1.0194   -0.0961   -0.0196 C   0  0  2  0  0  0  0  0  0  0  0  0
    0.5127   -0.0449    1.4125 C   0  0  1  0  0  0  0  0  0  0  0  0
    1.0194    1.2209    2.0843 C   0  0  0  0  0  0  0  0  0  0  0  0
    0.1935    2.0742    2.5371 O   0  0  0  0  0  0  0  0  0  0  0  0
    2.4155    1.4501    2.2059 O   0  0  0  0  0  0  0  0  0  0  0  0
   -1.2973   -0.0450    1.4125 S   0  0  0  0  0  0  0  0  0  0  0  0
    0.5127    1.1186   -0.7800 C   0  0  0  0  0  0  0  0  0  0  0  0
   -0.2179    0.9652   -1.8085 O   0  0  0  0  0  0  0  0  0  0  0  0
    0.8558    2.4248   -0.3412 O   0  0  0  0  0  0  0  0  0  0  0  0
    0.4161   -1.6035   -0.8196 S   0  0  0  0  0  0  0  0  0  0  0  0
    1.0875    0.0270   -0.0402 Tc  0  0  0  0  0  0  0  0  0  0  0  0
    2.0894   -0.0961   -0.0196 H   0  0  0  0  0  0  0  0  0  0  0  0
    0.8694   -0.9000    1.9478 H   0  0  0  0  0  0  0  0  0  0  0  0
    2.7488    2.2829    2.6479 H   0  0  0  0  0  0  0  0  0  0  0  0
   -1.7506    1.0419    0.7322 H   0  0  0  0  0  0  0  0  0  0  0  0
    0.5224    3.2239   -0.8415 H   0  0  0  0  0  0  0  0  0  0  0  0
   -0.9439   -1.6035   -0.8196 H   0  0  0  0  0  0  0  0  0  0  0  0
  1  2  1  0  0  0  0
  1  7  1  0  0  0  0
  1 10  1  0  0  0  0
  1 12  1  1  0  0  0
  2  3  1  0  0  0  0
  2  6  1  0  0  0  0
  2 13  1  1  0  0  0
  3  4  2  0  0  0  0
  3  5  1  0  0  0  0
  5 14  1  0  0  0  0
  6 15  1  0  0  0  0
  7  8  2  0  0  0  0
  7  9  1  0  0  0  0
  9 16  1  0  0  0  0
 10 17  1  0  0  0  0
M  ISO  1  11  99
M  END
>  <DRUGBANK_ID>
DB09436

>  <COMMON_NAME>
Technetium Tc-99m succimer

>  <CAS_NUMBER>
65438-08-6

>  <UNII>
494JNQ8L28

>  <SYNONYMS>
(99m)Tc-DMSA; Technetium (99mTc) succimer; Technetium Tc 99m dimercaptosuccinic acid; Technetium tc 99m succimer

$$$$
