
 OpenBabel10282417203D

 38 39  0  0  0  0  0  0  0  0999 V2000
    0.9190   -0.0358   -0.0391 C   0  0  0  0  0  0  0  0  0  0  0  0
    0.5000   -1.4052    0.4570 C   0  0  0  0  0  0  0  0  0  0  0  0
   -0.1780   -1.5253    1.4786 O   0  0  0  0  0  0  0  0  0  0  0  0
    0.8010   -2.5158   -0.2994 N   0  0  0  0  0  0  0  0  0  0  0  0
    1.6776   -2.5933   -1.3914 C   0  0  0  0  0  0  0  0  0  0  0  0
    2.8615   -1.8734   -1.3739 C   0  0  0  0  0  0  0  0  0  0  0  0
    3.7181   -1.8823   -2.4581 C   0  0  0  0  0  0  0  0  0  0  0  0
    3.4237   -2.6295   -3.5898 C   0  0  0  0  0  0  0  0  0  0  0  0
    2.3140   -3.4819   -3.5669 C   0  0  0  0  0  0  0  0  0  0  0  0
    1.4228   -3.4436   -2.4726 C   0  0  0  0  0  0  0  0  0  0  0  0
    4.2346   -2.5784   -4.7529 O   0  0  0  0  0  0  0  0  0  0  0  0
    5.1844   -1.5621   -4.8880 C   0  0  0  0  0  0  0  0  0  0  0  0
    5.3497   -0.5534   -4.2125 O   0  0  0  0  0  0  0  0  0  0  0  0
    6.1093   -1.8092   -5.9959 C   0  0  0  0  0  0  0  0  0  0  0  0
    5.5593   -1.7497   -7.2811 C   0  0  0  0  0  0  0  0  0  0  0  0
    6.3905   -1.5872   -8.3857 C   0  0  0  0  0  0  0  0  0  0  0  0
    7.7698   -1.4637   -8.2048 C   0  0  0  0  0  0  0  0  0  0  0  0
    8.3298   -1.5330   -6.9165 C   0  0  0  0  0  0  0  0  0  0  0  0
    7.5032   -1.7580   -5.8013 C   0  0  0  0  0  0  0  0  0  0  0  0
    8.1478   -1.8786   -4.5223 O   0  0  0  0  0  0  0  0  0  0  0  0
    7.5638   -2.6090   -3.4807 C   0  0  0  0  0  0  0  0  0  0  0  0
    6.5188   -3.2554   -3.5556 O   0  0  0  0  0  0  0  0  0  0  0  0
    8.3686   -2.6776   -2.2272 C   0  0  0  0  0  0  0  0  0  0  0  0
    0.4475    0.7401    0.5690 H   0  0  0  0  0  0  0  0  0  0  0  0
    0.6037    0.1012   -1.0781 H   0  0  0  0  0  0  0  0  0  0  0  0
    1.9914    0.1255    0.0593 H   0  0  0  0  0  0  0  0  0  0  0  0
    0.3294   -3.3626   -0.0039 H   0  0  0  0  0  0  0  0  0  0  0  0
    3.1853   -1.3179   -0.5041 H   0  0  0  0  0  0  0  0  0  0  0  0
    4.6201   -1.2955   -2.3561 H   0  0  0  0  0  0  0  0  0  0  0  0
    2.1309   -4.1723   -4.3864 H   0  0  0  0  0  0  0  0  0  0  0  0
    0.5084   -4.0321   -2.5102 H   0  0  0  0  0  0  0  0  0  0  0  0
    4.4802   -1.7626   -7.4100 H   0  0  0  0  0  0  0  0  0  0  0  0
    5.9536   -1.5029   -9.3787 H   0  0  0  0  0  0  0  0  0  0  0  0
    8.4038   -1.3043   -9.0769 H   0  0  0  0  0  0  0  0  0  0  0  0
    9.4015   -1.3783   -6.8076 H   0  0  0  0  0  0  0  0  0  0  0  0
    9.0386   -3.5373   -2.2960 H   0  0  0  0  0  0  0  0  0  0  0  0
    8.9031   -1.7574   -1.9952 H   0  0  0  0  0  0  0  0  0  0  0  0
    7.6652   -2.8624   -1.4026 H   0  0  0  0  0  0  0  0  0  0  0  0
  1  2  1  0  0  0  0
  1 24  1  0  0  0  0
  1 25  1  0  0  0  0
  1 26  1  0  0  0  0
  2  3  2  0  0  0  0
  2  4  1  0  0  0  0
  4  5  1  0  0  0  0
  4 27  1  0  0  0  0
  5  6  2  0  0  0  0
  5 10  1  0  0  0  0
  6  7  1  0  0  0  0
  6 28  1  0  0  0  0
  7  8  2  0  0  0  0
  7 29  1  0  0  0  0
  8  9  1  0  0  0  0
  8 11  1  0  0  0  0
  9 10  2  0  0  0  0
  9 30  1  0  0  0  0
 10 31  1  0  0  0  0
 11 12  1  0  0  0  0
 12 13  2  0  0  0  0
 12 14  1  0  0  0  0
 14 15  2  0  0  0  0
 14 19  1  0  0  0  0
 15 16  1  0  0  0  0
 15 32  1  0  0  0  0
 16 17  2  0  0  0  0
 16 33  1  0  0  0  0
 17 18  1  0  0  0  0
 17 34  1  0  0  0  0
 18 19  2  0  0  0  0
 18 35  1  0  0  0  0
 19 20  1  0  0  0  0
 20 21  1  0  0  0  0
 21 22  2  0  0  0  0
 21 23  1  0  0  0  0
 23 36  1  0  0  0  0
 23 37  1  0  0  0  0
 23 38  1  0  0  0  0
M  END
>  <DRUGBANK_ID>
DB13657

>  <COMMON_NAME>
Benorilate

>  <CAS_NUMBER>
5003-48-5

>  <UNII>
W1QX9DV96G

>  <SYNONYMS>
4-acetamidophenyl salicylate acetate; Benorilate; BÃ©norilate; Benorilato; Fenasprate

$$$$
