
 OpenBabel10282417233D

 27 26  0  0  1  0  0  0  0  0999 V2000
   -0.1397   -2.8992    1.9261 C   0  0  0  0  0  0  0  0  0  0  0  0
   -1.1122   -2.2458    2.9145 C   0  0  0  0  0  0  0  0  0  0  0  0
   -0.7053   -2.6209    4.3378 C   0  0  0  0  0  0  0  0  0  0  0  0
   -1.1311   -0.7165    2.7608 C   0  0  0  0  0  0  0  0  0  0  0  0
   -1.6555   -0.2858    1.3829 C   0  0  2  0  0  0  0  0  0  0  0  0
   -0.9830    0.9399    0.9737 N   0  0  0  0  0  0  0  0  0  0  0  0
   -0.4136    0.9961   -0.2763 C   0  0  0  0  0  0  0  0  0  0  0  0
    0.6881    2.0025   -0.4486 C   0  0  0  0  0  0  0  0  0  0  0  0
   -0.7089    0.2064   -1.1704 O   0  0  0  0  0  0  0  0  0  0  0  0
   -3.1871   -0.2286    1.4015 C   0  0  0  0  0  0  0  0  0  0  0  0
   -3.7901   -1.1230    0.5789 O   0  0  0  0  0  0  0  0  0  0  0  0
   -3.8347    0.5251    2.1202 O   0  0  0  0  0  0  0  0  0  0  0  0
    0.8786   -2.5259    2.0790 H   0  0  0  0  0  0  0  0  0  0  0  0
   -0.4051   -2.7100    0.8832 H   0  0  0  0  0  0  0  0  0  0  0  0
   -0.1365   -3.9853    2.0483 H   0  0  0  0  0  0  0  0  0  0  0  0
   -2.1221   -2.6325    2.7305 H   0  0  0  0  0  0  0  0  0  0  0  0
    0.3058   -2.2648    4.5641 H   0  0  0  0  0  0  0  0  0  0  0  0
   -1.3915   -2.1857    5.0711 H   0  0  0  0  0  0  0  0  0  0  0  0
   -0.7188   -3.7080    4.4647 H   0  0  0  0  0  0  0  0  0  0  0  0
   -1.7467   -0.2690    3.5532 H   0  0  0  0  0  0  0  0  0  0  0  0
   -0.1136   -0.3331    2.9216 H   0  0  0  0  0  0  0  0  0  0  0  0
   -1.3841   -1.0341    0.6412 H   0  0  0  0  0  0  0  0  0  0  0  0
   -0.8443    1.6787    1.6540 H   0  0  0  0  0  0  0  0  0  0  0  0
    1.6165    1.4504   -0.6349 H   0  0  0  0  0  0  0  0  0  0  0  0
    0.4685    2.6389   -1.3080 H   0  0  0  0  0  0  0  0  0  0  0  0
    0.8330    2.6207    0.4402 H   0  0  0  0  0  0  0  0  0  0  0  0
   -3.1901   -1.6188   -0.0149 H   0  0  0  0  0  0  0  0  0  0  0  0
  1  2  1  0  0  0  0
  1 13  1  0  0  0  0
  1 14  1  0  0  0  0
  1 15  1  0  0  0  0
  2  3  1  0  0  0  0
  2  4  1  0  0  0  0
  2 16  1  0  0  0  0
  3 17  1  0  0  0  0
  3 18  1  0  0  0  0
  3 19  1  0  0  0  0
  4 20  1  0  0  0  0
  4 21  1  0  0  0  0
  5 10  1  0  0  0  0
  5 22  1  6  0  0  0
  5  6  1  0  0  0  0
  5  4  1  0  0  0  0
  6  7  1  0  0  0  0
  6 23  1  0  0  0  0
  7  8  1  0  0  0  0
  7  9  2  0  0  0  0
  8 24  1  0  0  0  0
  8 25  1  0  0  0  0
  8 26  1  0  0  0  0
 10 11  1  0  0  0  0
 10 12  2  0  0  0  0
 11 27  1  0  0  0  0
M  END
>  <DRUGBANK_ID>
DB16956

>  <COMMON_NAME>
L-Acetylleucine

>  <CAS_NUMBER>
1188-21-2

>  <UNII>
E915HL7K2O

>  <SYNONYMS>
(s)-2-acetamido-4-methylpentanoic acid; Acetyl-l-leucine; Acetylleucine, (s)-; Acetylleucine, l-; L-leucine, n-acetyl-; Leucine, n-acetyl-, l-; N-acetyl leucine; N-acetyl-l-(-)-leucine; N-acetyl-l-leucine; N-Acetyl-Leucine; N-acetylleucine

$$$$
