
 OpenBabel10282417133D

 19 18  0  0  1  0  0  0  0  0999 V2000
    1.0372   -0.0273   -0.0729 N   0  3  0  0  0  0  0  0  0  0  0  0
    0.4753   -0.7149   -1.2999 C   0  0  1  0  0  0  0  0  0  0  0  0
    0.9173   -2.1894   -1.2587 C   0  0  0  0  0  0  0  0  0  0  0  0
    0.5187   -3.0131   -0.0240 C   0  0  0  0  0  0  0  0  0  0  0  0
   -0.9590   -3.3011    0.1157 C   0  0  0  0  0  0  0  0  0  0  0  0
   -1.4670   -4.3537   -0.2276 O   0  0  0  0  0  0  0  0  0  0  0  0
   -1.0361   -0.4679   -1.3380 C   0  0  0  0  0  0  0  0  0  0  0  0
   -1.5880   -0.0793   -2.4902 O   0  0  0  0  0  0  0  0  0  0  0  0
   -1.6825   -0.4903   -0.2915 O   0  0  0  0  0  0  0  0  0  0  0  0
    0.6566   -0.4482    0.7882 H   0  0  0  0  0  0  0  0  0  0  0  0
    0.7221    0.9529   -0.0315 H   0  0  0  0  0  0  0  0  0  0  0  0
    2.0632   -0.0452   -0.0268 H   0  0  0  0  0  0  0  0  0  0  0  0
    0.9352   -0.2023   -2.1513 H   0  0  0  0  0  0  0  0  0  0  0  0
    0.5897   -2.7054   -2.1693 H   0  0  0  0  0  0  0  0  0  0  0  0
    2.0194   -2.1995   -1.2946 H   0  0  0  0  0  0  0  0  0  0  0  0
    1.0198   -3.9883   -0.0719 H   0  0  0  0  0  0  0  0  0  0  0  0
    0.8652   -2.5431    0.9008 H   0  0  0  0  0  0  0  0  0  0  0  0
   -1.5768   -2.4954    0.5385 H   0  0  0  0  0  0  0  0  0  0  0  0
   -1.0466    0.1720   -3.2645 H   0  0  0  0  0  0  0  0  0  0  0  0
  1 10  1  0  0  0  0
  1 11  1  0  0  0  0
  1 12  1  0  0  0  0
  2  1  1  0  0  0  0
  2  3  1  0  0  0  0
  2  7  1  0  0  0  0
  2 13  1  6  0  0  0
  3  4  1  0  0  0  0
  3 14  1  0  0  0  0
  3 15  1  0  0  0  0
  4  5  1  0  0  0  0
  4 16  1  0  0  0  0
  4 17  1  0  0  0  0
  5  6  2  0  0  0  0
  5 18  1  0  0  0  0
  7  8  1  0  0  0  0
  7  9  2  0  0  0  0
  8 19  1  0  0  0  0
M  CHG  1   1   1
M  END
>  <DRUGBANK_ID>
DB03774

>  <SECONDARY_ACCESSION_NUMBERS>
EXPT01861

>  <COMMON_NAME>
Glutamyl Group

$$$$
