
 OpenBabel10282417153D

 40 41  0  0  1  0  0  0  0  0999 V2000
    1.0368   -0.0163   -0.1298 Cl  0  0  0  0  0  0  0  0  0  0  0  0
    5.2890    2.6487    1.2408 O   0  0  0  0  0  0  0  0  0  0  0  0
    2.7184    2.1337   -0.0615 O   0  0  0  0  0  0  0  0  0  0  0  0
    4.1113    6.2253    0.9947 N   0  0  0  0  0  0  0  0  0  0  0  0
    3.5032    1.0033   -0.0620 N   0  0  0  0  0  0  0  0  0  0  0  0
    5.3278   -2.5931    0.8457 N   0  0  0  0  0  0  0  0  0  0  0  0
    4.8115    7.4906    0.7624 C   0  0  0  0  0  0  0  0  0  0  0  0
    3.0359    6.0646    0.0322 C   0  0  0  0  0  0  0  0  0  0  0  0
    3.7972    8.6491    0.7796 C   0  0  0  0  0  0  0  0  0  0  0  0
    2.0143    7.1558   -0.0920 C   0  0  0  0  0  0  0  0  0  0  0  0
    2.6943    8.4847   -0.2680 C   0  0  0  0  0  0  0  0  0  0  0  0
    5.0099    5.0465    0.9730 C   0  0  0  0  0  0  0  0  0  0  0  0
    4.2924    3.6630    1.0005 C   0  0  3  0  0  0  0  0  0  0  0  0
    3.5360    3.2704   -0.2969 C   0  0  0  0  0  0  0  0  0  0  0  0
    2.7648   -0.0720   -0.0776 C   0  0  0  0  0  0  0  0  0  0  0  0
    3.4815   -1.3372   -0.0456 C   0  0  0  0  0  0  0  0  0  0  0  0
    3.1055   -2.3916   -0.8687 C   0  0  0  0  0  0  0  0  0  0  0  0
    4.5894   -1.4680    0.7809 C   0  0  0  0  0  0  0  0  0  0  0  0
    3.8593   -3.5543   -0.8245 C   0  0  0  0  0  0  0  0  0  0  0  0
    4.9463   -3.6085    0.0388 C   0  0  0  0  0  0  0  0  0  0  0  0
    4.8264    1.8095    1.0332 H   0  0  0  0  0  0  0  0  0  0  0  0
    5.3443    7.4778   -0.1978 H   0  0  0  0  0  0  0  0  0  0  0  0
    5.5556    7.6587    1.5502 H   0  0  0  0  0  0  0  0  0  0  0  0
    2.4152    5.2655    0.4277 H   0  0  0  0  0  0  0  0  0  0  0  0
    3.4598    5.8549   -0.9622 H   0  0  0  0  0  0  0  0  0  0  0  0
    4.3115    9.5981    0.6092 H   0  0  0  0  0  0  0  0  0  0  0  0
    3.3335    8.6977    1.7738 H   0  0  0  0  0  0  0  0  0  0  0  0
    1.3921    7.1454    0.8098 H   0  0  0  0  0  0  0  0  0  0  0  0
    1.3563    6.9191   -0.9383 H   0  0  0  0  0  0  0  0  0  0  0  0
    1.9407    9.2715   -0.1763 H   0  0  0  0  0  0  0  0  0  0  0  0
    3.1211    8.5428   -1.2761 H   0  0  0  0  0  0  0  0  0  0  0  0
    5.6692    5.1008    1.8526 H   0  0  0  0  0  0  0  0  0  0  0  0
    5.6844    5.0692    0.1058 H   0  0  0  0  0  0  0  0  0  0  0  0
    3.6203    3.6200    1.8673 H   0  0  0  0  0  0  0  0  0  0  0  0
    4.2182    3.1303   -1.1408 H   0  0  0  0  0  0  0  0  0  0  0  0
    2.7833    3.9466   -0.6738 H   0  0  0  0  0  0  0  0  0  0  0  0
    2.2656   -2.2998   -1.5508 H   0  0  0  0  0  0  0  0  0  0  0  0
    4.9189   -0.6596    1.4313 H   0  0  0  0  0  0  0  0  0  0  0  0
    3.6101   -4.3987   -1.4560 H   0  0  0  0  0  0  0  0  0  0  0  0
    5.5638   -4.4982    0.1037 H   0  0  0  0  0  0  0  0  0  0  0  0
  1 15  1  0  0  0  0
  2 13  1  0  0  0  0
  2 21  1  0  0  0  0
  3  5  1  0  0  0  0
  3 14  1  0  0  0  0
  4  7  1  0  0  0  0
  4  8  1  0  0  0  0
  4 12  1  0  0  0  0
  5 15  2  0  0  0  0
  6 18  1  0  0  0  0
  6 20  2  0  0  0  0
  7  9  1  0  0  0  0
  7 22  1  0  0  0  0
  7 23  1  0  0  0  0
  8 10  1  0  0  0  0
  8 24  1  0  0  0  0
  8 25  1  0  0  0  0
  9 11  1  0  0  0  0
  9 26  1  0  0  0  0
  9 27  1  0  0  0  0
 10 11  1  0  0  0  0
 10 28  1  0  0  0  0
 10 29  1  0  0  0  0
 11 30  1  0  0  0  0
 11 31  1  0  0  0  0
 12 13  1  0  0  0  0
 12 32  1  0  0  0  0
 12 33  1  0  0  0  0
 13 14  1  0  0  0  0
 13 34  1  0  0  0  0
 14 35  1  0  0  0  0
 14 36  1  0  0  0  0
 15 16  1  0  0  0  0
 16 17  1  0  0  0  0
 16 18  2  0  0  0  0
 17 19  2  0  0  0  0
 17 37  1  0  0  0  0
 18 38  1  0  0  0  0
 19 20  1  0  0  0  0
 19 39  1  0  0  0  0
 20 40  1  0  0  0  0
M  END
>  <DRUGBANK_ID>
DB06258

>  <COMMON_NAME>
Bimoclomol

>  <CAS_NUMBER>
130493-03-7

>  <UNII>
9IYF14814M

>  <SYNONYMS>
Bimoclomol

$$$$
