
 OpenBabel10282417123D

 17 19  0  0  0  0  0  0  0  0999 V2000
   -2.8304   -0.9495    0.0004 C   0  0  0  0  0  0  0  0  0  0  0  0
   -2.6984    0.4244    0.0027 C   0  0  0  0  0  0  0  0  0  0  0  0
    2.8166   -0.9079    0.0031 C   0  0  0  0  0  0  0  0  0  0  0  0
   -0.6242    1.8561    0.0006 C   0  0  0  0  0  0  0  0  0  0  0  0
    0.7356   -0.5803   -0.0003 C   0  0  0  0  0  0  0  0  0  0  0  0
    1.2907    0.6848   -0.0021 C   0  0  0  0  0  0  0  0  0  0  0  0
   -0.7351   -0.5882   -0.0003 C   0  0  0  0  0  0  0  0  0  0  0  0
   -1.6045   -1.5718   -0.0011 N   0  0  0  0  0  0  0  0  0  0  0  0
    1.6726   -1.5638    0.0031 N   0  0  0  0  0  0  0  0  0  0  0  0
    2.6366    0.4544   -0.0039 N   0  0  0  0  0  0  0  0  0  0  0  0
    0.6889    1.9083   -0.0019 N   0  0  0  0  0  0  0  0  0  0  0  0
   -1.3457    0.6467    0.0009 N   0  0  0  0  0  0  0  0  0  0  0  0
   -3.7461   -1.5283    0.0002 H   0  0  0  0  0  0  0  0  0  0  0  0
   -3.4256    1.2232    0.0051 H   0  0  0  0  0  0  0  0  0  0  0  0
    3.8003   -1.3588    0.0080 H   0  0  0  0  0  0  0  0  0  0  0  0
   -1.2030    2.7941    0.0025 H   0  0  0  0  0  0  0  0  0  0  0  0
    3.3603    1.1584   -0.0080 H   0  0  0  0  0  0  0  0  0  0  0  0
  1 13  1  0  0  0  0
  2  1  2  0  0  0  0
  2 14  1  0  0  0  0
  3 15  1  0  0  0  0
  4 16  1  0  0  0  0
  6  5  2  0  0  0  0
  7  5  1  0  0  0  0
  8  1  1  0  0  0  0
  8  7  2  0  0  0  0
  9  3  2  0  0  0  0
  9  5  1  0  0  0  0
 10  3  1  0  0  0  0
 10  6  1  0  0  0  0
 10 17  1  0  0  0  0
 11  4  2  0  0  0  0
 11  6  1  0  0  0  0
 12  2  1  0  0  0  0
 12  4  1  0  0  0  0
 12  7  1  0  0  0  0
M  END
>  <DRUGBANK_ID>
DB01952

>  <SECONDARY_ACCESSION_NUMBERS>
EXPT01319

>  <COMMON_NAME>
1,N6-Ethenoadenine

>  <CAS_NUMBER>
13875-63-3

>  <UNII>
SIN7411HG7

$$$$
