
 OpenBabel10282417163D

 64 63  0  0  0  0  0  0  0  0999 V2000
    0.6891   -0.1041    0.5721 C   0  0  1  0  0  0  0  0  0  0  0  0
    0.1439   -1.4584    0.5576 N   0  0  0  0  0  0  0  0  0  0  0  0
    0.1275    0.6758   -0.5724 C   0  0  0  0  0  0  0  0  0  0  0  0
    1.2401    1.7840   -0.8448 C   0  0  0  0  0  0  0  0  0  0  0  0
    2.8451    1.7084   -0.8022 C   0  0  0  0  0  0  0  0  0  0  0  0
    3.7064    0.8736   -1.7557 C   0  0  0  0  0  0  0  0  0  0  0  0
    1.2332    1.4914    2.3216 O   0  0  0  0  0  0  0  0  0  0  0  0
    0.2563   -2.4878   -0.3621 C   0  0  0  0  0  0  0  0  0  0  0  0
   -0.4487   -3.4779   -0.1025 O   0  0  0  0  0  0  0  0  0  0  0  0
    1.2272   -2.5814   -1.6589 C   0  0  1  0  0  0  0  0  0  0  0  0
    0.8170   -1.7265   -2.9480 N   0  0  0  0  0  0  0  0  0  0  0  0
    2.7594   -2.5799   -1.2064 C   0  0  0  0  0  0  0  0  0  0  0  0
    3.0892   -2.8324    0.2752 C   0  0  0  0  0  0  0  0  0  0  0  0
    2.7622   -4.2671    0.6033 C   0  0  0  0  0  0  0  0  0  0  0  0
    4.5494   -2.4857    0.6064 C   0  0  0  0  0  0  0  0  0  0  0  0
    1.1176   -0.3993   -2.9053 C   0  0  0  0  0  0  0  0  0  0  0  0
    1.7404   -0.2958   -1.8897 O   0  0  0  0  0  0  0  0  0  0  0  0
    0.6445    1.0228   -3.7616 C   0  0  1  0  0  0  0  0  0  0  0  0
   -0.4327    2.1304   -3.1354 N   0  0  0  0  0  0  0  0  0  0  0  0
    1.9810    1.8455   -4.1777 C   0  0  0  0  0  0  0  0  0  0  0  0
    3.2114    1.0260   -4.6984 C   0  0  0  0  0  0  0  0  0  0  0  0
    2.7169    0.3035   -5.9065 C   0  0  0  0  0  0  0  0  0  0  0  0
    4.5132    1.8662   -4.6936 C   0  0  0  0  0  0  0  0  0  0  0  0
   -0.1517    3.4752   -2.7406 C   0  0  0  0  0  0  0  0  0  0  0  0
   -1.1044    4.2107   -1.7940 C   0  0  0  0  0  0  0  0  0  0  0  0
    0.8880    4.0800   -3.0202 O   0  0  0  0  0  0  0  0  0  0  0  0
    0.3836    0.9475    1.6442 C   0  0  0  0  0  0  0  0  0  0  0  0
   -0.6381    1.3903    1.5852 H   0  0  0  0  0  0  0  0  0  0  0  0
    1.7727   -0.2055    0.5148 H   0  0  0  0  0  0  0  0  0  0  0  0
   -0.3537   -1.7358    1.3939 H   0  0  0  0  0  0  0  0  0  0  0  0
   -0.2127   -0.0396   -1.3327 H   0  0  0  0  0  0  0  0  0  0  0  0
   -0.8878    1.0979   -0.4565 H   0  0  0  0  0  0  0  0  0  0  0  0
    1.1472    2.0329   -1.8557 H   0  0  0  0  0  0  0  0  0  0  0  0
    0.9109    2.6782   -0.3142 H   0  0  0  0  0  0  0  0  0  0  0  0
    3.1133    2.7180   -1.1479 H   0  0  0  0  0  0  0  0  0  0  0  0
    3.2050    1.5507    0.1986 H   0  0  0  0  0  0  0  0  0  0  0  0
    3.1157    0.9198   -2.6195 H   0  0  0  0  0  0  0  0  0  0  0  0
    4.6919    1.2245   -2.0206 H   0  0  0  0  0  0  0  0  0  0  0  0
    3.8602   -0.1878   -1.7103 H   0  0  0  0  0  0  0  0  0  0  0  0
    1.0988   -3.6097   -2.0325 H   0  0  0  0  0  0  0  0  0  0  0  0
    0.2202   -2.1327   -3.6465 H   0  0  0  0  0  0  0  0  0  0  0  0
    3.3783   -3.1965   -1.8734 H   0  0  0  0  0  0  0  0  0  0  0  0
    3.1962   -1.6268   -1.3253 H   0  0  0  0  0  0  0  0  0  0  0  0
    2.5101   -2.1649    0.9161 H   0  0  0  0  0  0  0  0  0  0  0  0
    3.3846   -4.9331    0.0022 H   0  0  0  0  0  0  0  0  0  0  0  0
    2.9098   -4.4633    1.6654 H   0  0  0  0  0  0  0  0  0  0  0  0
    1.7234   -4.4955    0.3648 H   0  0  0  0  0  0  0  0  0  0  0  0
    4.7625   -1.4251    0.4149 H   0  0  0  0  0  0  0  0  0  0  0  0
    4.7523   -2.6612    1.6692 H   0  0  0  0  0  0  0  0  0  0  0  0
    5.2455   -3.0816    0.0114 H   0  0  0  0  0  0  0  0  0  0  0  0
    0.1053    0.6512   -4.6300 H   0  0  0  0  0  0  0  0  0  0  0  0
   -1.2189    1.7240   -2.6426 H   0  0  0  0  0  0  0  0  0  0  0  0
    1.7086    2.6265   -4.8979 H   0  0  0  0  0  0  0  0  0  0  0  0
    2.3602    2.4578   -3.3488 H   0  0  0  0  0  0  0  0  0  0  0  0
    3.5126    0.1533   -4.1033 H   0  0  0  0  0  0  0  0  0  0  0  0
    2.3468    1.0122   -6.6409 H   0  0  0  0  0  0  0  0  0  0  0  0
    3.4655   -0.3813   -6.2950 H   0  0  0  0  0  0  0  0  0  0  0  0
    1.8797   -0.3252   -5.5717 H   0  0  0  0  0  0  0  0  0  0  0  0
    4.7563    2.2477   -3.6886 H   0  0  0  0  0  0  0  0  0  0  0  0
    5.3835    1.2542   -4.9597 H   0  0  0  0  0  0  0  0  0  0  0  0
    4.4597    2.7599   -5.3108 H   0  0  0  0  0  0  0  0  0  0  0  0
   -0.5673    4.5098   -0.8758 H   0  0  0  0  0  0  0  0  0  0  0  0
   -1.4089    5.1493   -2.2736 H   0  0  0  0  0  0  0  0  0  0  0  0
   -1.9802    3.6412   -1.4908 H   0  0  0  0  0  0  0  0  0  0  0  0
  1  3  1  0  0  0  0
  1 29  1  6  0  0  0
  1  2  1  0  0  0  0
  1 27  1  0  0  0  0
  2  8  1  0  0  0  0
  2 30  1  0  0  0  0
  3  4  1  0  0  0  0
  3 31  1  0  0  0  0
  3 32  1  0  0  0  0
  4  5  1  0  0  0  0
  4 33  1  0  0  0  0
  4 34  1  0  0  0  0
  5  6  1  0  0  0  0
  5 35  1  0  0  0  0
  5 36  1  0  0  0  0
  6 37  1  0  0  0  0
  6 38  1  0  0  0  0
  6 39  1  0  0  0  0
  8  9  2  0  0  0  0
  8 10  1  0  0  0  0
 10 40  1  6  0  0  0
 10 11  1  0  0  0  0
 10 12  1  0  0  0  0
 11 16  1  0  0  0  0
 11 41  1  0  0  0  0
 12 13  1  0  0  0  0
 12 42  1  0  0  0  0
 12 43  1  0  0  0  0
 13 14  1  0  0  0  0
 13 15  1  0  0  0  0
 13 44  1  0  0  0  0
 14 45  1  0  0  0  0
 14 46  1  0  0  0  0
 14 47  1  0  0  0  0
 15 48  1  0  0  0  0
 15 49  1  0  0  0  0
 15 50  1  0  0  0  0
 16 18  1  0  0  0  0
 16 17  2  0  0  0  0
 18 19  1  0  0  0  0
 18 20  1  0  0  0  0
 18 51  1  6  0  0  0
 19 24  1  0  0  0  0
 19 52  1  0  0  0  0
 20 21  1  0  0  0  0
 20 53  1  0  0  0  0
 20 54  1  0  0  0  0
 21 22  1  0  0  0  0
 21 23  1  0  0  0  0
 21 55  1  0  0  0  0
 22 56  1  0  0  0  0
 22 57  1  0  0  0  0
 22 58  1  0  0  0  0
 23 59  1  0  0  0  0
 23 60  1  0  0  0  0
 23 61  1  0  0  0  0
 24 25  1  0  0  0  0
 24 26  2  0  0  0  0
 25 62  1  0  0  0  0
 25 63  1  0  0  0  0
 25 64  1  0  0  0  0
 27  7  2  0  0  0  0
 27 28  1  0  0  0  0
M  END
>  <DRUGBANK_ID>
DB07558

>  <COMMON_NAME>
acetylleucyl-leucyl-norleucinal

>  <CAS_NUMBER>
110044-82-1

>  <SYNONYMS>
Ac-Leu-leu-nle-al; Acetyl-leucyl-leucyl-norleucine-aldehyde; Acetylleucyl-leucyl-norleucinal; N-Ac-Leu-leu-norleucinal; N-acetylleucylleucylnorleucinal

$$$$
