
 OpenBabel10282417133D

 50 51  0  0  0  0  0  0  0  0999 V2000
    8.5704    1.6421   -2.4750 P   0  0  0  0  0  0  0  0  0  0  0  0
    5.2106    4.4390    3.2181 O   0  0  0  0  0  0  0  0  0  0  0  0
    4.9010    6.1794    5.1315 O   0  0  0  0  0  0  0  0  0  0  0  0
    3.4176    7.5318    2.1719 O   0  0  0  0  0  0  0  0  0  0  0  0
    7.7832    6.7429   -0.2956 O   0  0  0  0  0  0  0  0  0  0  0  0
   10.1185    2.0503   -2.6406 O   0  0  0  0  0  0  0  0  0  0  0  0
    6.3729    1.6302   -1.1315 O   0  0  0  0  0  0  0  0  0  0  0  0
    3.3381   10.0796    3.3468 O   0  0  0  0  0  0  0  0  0  0  0  0
    6.6013    0.6971    2.9564 O   0  0  0  0  0  0  0  0  0  0  0  0
    7.8819    0.4340   -3.3025 O   0  0  0  0  0  0  0  0  0  0  0  0
    8.3146    2.2514   -3.9317 O   0  0  0  0  0  0  0  0  0  0  0  0
    8.8158    0.5385   -1.4896 O   0  0  0  0  0  0  0  0  0  0  0  0
    7.3472    5.0944    1.3423 N   0  0  0  0  0  0  0  0  0  0  0  0
    7.7853    4.4298   -0.7388 N   0  0  0  0  0  0  0  0  0  0  0  0
    6.9822    2.8574    2.3177 N   0  0  0  0  0  0  0  0  0  0  0  0
    7.3626    1.1073    0.8666 N   0  0  0  0  0  0  0  0  0  0  0  0
    6.9336    5.9614    2.3934 C   0  0  0  0  0  0  0  0  0  0  0  0
    5.4555    5.7713    2.7622 C   0  0  2  0  0  0  0  0  0  0  0  0
    5.1223    6.7981    3.8560 C   0  0  1  0  0  0  0  0  0  0  0  0
    7.2936    3.7297    1.3211 C   0  0  0  0  0  0  0  0  0  0  0  0
    7.4859    3.3403    0.0613 C   0  0  0  0  0  0  0  0  0  0  0  0
    7.6652    5.5776    0.0612 C   0  0  0  0  0  0  0  0  0  0  0  0
    8.2743    4.5568   -2.0841 C   0  0  0  0  0  0  0  0  0  0  0  0
    3.9214    7.7093    3.5059 C   0  0  1  0  0  0  0  0  0  0  0  0
    9.8168    4.4361   -2.2169 C   0  0  0  0  0  0  0  0  0  0  0  0
    7.0351    1.9558   -0.1468 C   0  0  0  0  0  0  0  0  0  0  0  0
    4.3756    9.1665    3.6693 C   0  0  0  0  0  0  0  0  0  0  0  0
    6.9816    1.4868    2.1265 C   0  0  0  0  0  0  0  0  0  0  0  0
   10.4402    3.1201   -1.7347 C   0  0  0  0  0  0  0  0  0  0  0  0
    6.6884    3.1821    3.2384 H   0  0  0  0  0  0  0  0  0  0  0  0
    7.2252    0.1202    0.6902 H   0  0  0  0  0  0  0  0  0  0  0  0
    5.0893    3.9016    2.4123 H   0  0  0  0  0  0  0  0  0  0  0  0
    5.6908    6.2968    5.6864 H   0  0  0  0  0  0  0  0  0  0  0  0
    3.8307    8.1732    1.5709 H   0  0  0  0  0  0  0  0  0  0  0  0
    2.9805    9.8365    2.4754 H   0  0  0  0  0  0  0  0  0  0  0  0
    7.2769    0.0643   -2.6146 H   0  0  0  0  0  0  0  0  0  0  0  0
    7.3778    2.3169   -4.1710 H   0  0  0  0  0  0  0  0  0  0  0  0
    7.5990    5.7790    3.2384 H   0  0  0  0  0  0  0  0  0  0  0  0
    7.0758    6.9953    2.0498 H   0  0  0  0  0  0  0  0  0  0  0  0
    4.8668    5.9015    1.8483 H   0  0  0  0  0  0  0  0  0  0  0  0
    5.9998    7.4410    4.0056 H   0  0  0  0  0  0  0  0  0  0  0  0
    8.0066    5.5484   -2.4727 H   0  0  0  0  0  0  0  0  0  0  0  0
    7.6803    3.8956   -2.6969 H   0  0  0  0  0  0  0  0  0  0  0  0
    3.0818    7.4995    4.1768 H   0  0  0  0  0  0  0  0  0  0  0  0
   10.2829    5.2682   -1.6720 H   0  0  0  0  0  0  0  0  0  0  0  0
   10.0825    4.5545   -3.2743 H   0  0  0  0  0  0  0  0  0  0  0  0
    4.7052    9.3543    4.6954 H   0  0  0  0  0  0  0  0  0  0  0  0
    5.2134    9.3767    2.9930 H   0  0  0  0  0  0  0  0  0  0  0  0
   10.1066    2.8894   -0.7122 H   0  0  0  0  0  0  0  0  0  0  0  0
   11.5303    3.1948   -1.6804 H   0  0  0  0  0  0  0  0  0  0  0  0
  1  6  1  0  0  0  0
  1 10  1  0  0  0  0
  1 11  1  0  0  0  0
  1 12  2  0  0  0  0
  2 32  1  0  0  0  0
  3 33  1  0  0  0  0
  4 34  1  0  0  0  0
  5 22  2  0  0  0  0
  6 29  1  0  0  0  0
  7 26  2  0  0  0  0
  8 27  1  0  0  0  0
  8 35  1  0  0  0  0
  9 28  2  0  0  0  0
 10 36  1  0  0  0  0
 11 37  1  0  0  0  0
 13 17  1  0  0  0  0
 13 20  1  0  0  0  0
 13 22  1  0  0  0  0
 14 21  1  0  0  0  0
 14 22  1  0  0  0  0
 14 23  1  0  0  0  0
 15 20  1  0  0  0  0
 15 28  1  0  0  0  0
 15 30  1  0  0  0  0
 16 26  1  0  0  0  0
 16 28  1  0  0  0  0
 16 31  1  0  0  0  0
 17 18  1  0  0  0  0
 17 38  1  0  0  0  0
 17 39  1  0  0  0  0
 18  2  1  0  0  0  0
 18 40  1  6  0  0  0
 19 41  1  1  0  0  0
 19 18  1  0  0  0  0
 19  3  1  0  0  0  0
 20 21  2  0  0  0  0
 21 26  1  0  0  0  0
 23 25  1  0  0  0  0
 23 42  1  0  0  0  0
 23 43  1  0  0  0  0
 24 27  1  0  0  0  0
 24 44  1  1  0  0  0
 24 19  1  0  0  0  0
 24  4  1  0  0  0  0
 25 29  1  0  0  0  0
 25 45  1  0  0  0  0
 25 46  1  0  0  0  0
 27 47  1  0  0  0  0
 27 48  1  0  0  0  0
 29 49  1  0  0  0  0
 29 50  1  0  0  0  0
M  END
>  <DRUGBANK_ID>
DB03022

>  <SECONDARY_ACCESSION_NUMBERS>
EXPT02990

>  <COMMON_NAME>
3-[2,6,8-Trioxo-9-[(2R,3S,4R)-2,3,4,5-tetrahydroxypentyl]-3H-purin-7-yl]propyl dihydrogen phosphate

$$$$
