
 OpenBabel10282417143D

 54 53  0  0  0  0  0  0  0  0999 V2000
    1.1135    0.1080    0.0493 C   0  0  0  0  0  0  0  0  0  0  0  0
    0.6639    0.4372   -1.3651 C   0  0  0  0  0  0  0  0  0  0  0  0
    1.1584   -0.6274   -2.3462 C   0  0  0  0  0  0  0  0  0  0  0  0
    0.6055   -2.0140   -1.9972 C   0  0  0  0  0  0  0  0  0  0  0  0
   -0.9272   -2.0156   -2.0136 C   0  0  0  0  0  0  0  0  0  0  0  0
   -1.4564   -1.6626   -3.4084 C   0  0  0  0  0  0  0  0  0  0  0  0
   -0.9933   -2.6927   -4.4472 C   0  0  0  0  0  0  0  0  0  0  0  0
   -1.4422   -4.1062   -4.0752 C   0  0  0  0  0  0  0  0  0  0  0  0
   -2.9312   -4.1474   -3.9902 C   0  0  0  0  0  0  0  0  0  0  0  0
   -3.6614   -4.9393   -4.7693 C   0  0  0  0  0  0  0  0  0  0  0  0
   -5.1503   -4.8550   -4.8122 C   0  0  0  0  0  0  0  0  0  0  0  0
   -5.5988   -4.5045   -6.2317 C   0  0  0  0  0  0  0  0  0  0  0  0
   -5.1394   -5.5597   -7.2470 C   0  0  0  0  0  0  0  0  0  0  0  0
   -5.6694   -6.9480   -6.8734 C   0  0  0  0  0  0  0  0  0  0  0  0
   -7.2017   -6.9616   -6.8694 C   0  0  0  0  0  0  0  0  0  0  0  0
   -7.7665   -6.6795   -8.2666 C   0  0  0  0  0  0  0  0  0  0  0  0
   -7.2818   -7.6926   -9.3052 C   0  0  0  0  0  0  0  0  0  0  0  0
   -7.6966   -9.1016   -8.9392 C   0  0  0  0  0  0  0  0  0  0  0  0
   -8.5001   -9.6978   -9.8379 O   0  0  0  0  0  0  0  0  0  0  0  0
   -7.3439   -9.6858   -7.9187 O   0  0  0  0  0  0  0  0  0  0  0  0
    0.7196   -0.8539    0.3934 H   0  0  0  0  0  0  0  0  0  0  0  0
    0.7605    0.8621    0.7535 H   0  0  0  0  0  0  0  0  0  0  0  0
    2.2055    0.0575    0.0890 H   0  0  0  0  0  0  0  0  0  0  0  0
   -0.4286    0.5251   -1.3938 H   0  0  0  0  0  0  0  0  0  0  0  0
    1.0433    1.4180   -1.6650 H   0  0  0  0  0  0  0  0  0  0  0  0
    0.8746   -0.3424   -3.3665 H   0  0  0  0  0  0  0  0  0  0  0  0
    2.2524   -0.6594   -2.3511 H   0  0  0  0  0  0  0  0  0  0  0  0
    1.0133   -2.7565   -2.6911 H   0  0  0  0  0  0  0  0  0  0  0  0
    0.9625   -2.3483   -1.0190 H   0  0  0  0  0  0  0  0  0  0  0  0
   -1.2951   -2.9896   -1.6757 H   0  0  0  0  0  0  0  0  0  0  0  0
   -1.3410   -1.3190   -1.2784 H   0  0  0  0  0  0  0  0  0  0  0  0
   -2.5480   -1.5909   -3.3783 H   0  0  0  0  0  0  0  0  0  0  0  0
   -1.1390   -0.6622   -3.7180 H   0  0  0  0  0  0  0  0  0  0  0  0
   -1.3721   -2.4117   -5.4365 H   0  0  0  0  0  0  0  0  0  0  0  0
    0.0983   -2.6816   -4.5448 H   0  0  0  0  0  0  0  0  0  0  0  0
   -1.0544   -4.8136   -4.8153 H   0  0  0  0  0  0  0  0  0  0  0  0
   -1.0310   -4.4303   -3.1149 H   0  0  0  0  0  0  0  0  0  0  0  0
   -3.4464   -3.4704   -3.3140 H   0  0  0  0  0  0  0  0  0  0  0  0
   -3.1466   -5.6277   -5.4342 H   0  0  0  0  0  0  0  0  0  0  0  0
   -5.5617   -5.8100   -4.4728 H   0  0  0  0  0  0  0  0  0  0  0  0
   -5.5380   -4.1036   -4.1166 H   0  0  0  0  0  0  0  0  0  0  0  0
   -6.6899   -4.4038   -6.2438 H   0  0  0  0  0  0  0  0  0  0  0  0
   -5.2183   -3.5203   -6.5280 H   0  0  0  0  0  0  0  0  0  0  0  0
   -5.4596   -5.2663   -8.2514 H   0  0  0  0  0  0  0  0  0  0  0  0
   -4.0475   -5.5921   -7.3182 H   0  0  0  0  0  0  0  0  0  0  0  0
   -5.2568   -7.6931   -7.5597 H   0  0  0  0  0  0  0  0  0  0  0  0
   -5.2995   -7.2705   -5.8946 H   0  0  0  0  0  0  0  0  0  0  0  0
   -7.5618   -7.9170   -6.4821 H   0  0  0  0  0  0  0  0  0  0  0  0
   -7.6059   -6.2358   -6.1561 H   0  0  0  0  0  0  0  0  0  0  0  0
   -8.8599   -6.6687   -8.2221 H   0  0  0  0  0  0  0  0  0  0  0  0
   -7.4803   -5.6691   -8.5878 H   0  0  0  0  0  0  0  0  0  0  0  0
   -7.6643   -7.4127  -10.2912 H   0  0  0  0  0  0  0  0  0  0  0  0
   -6.1909   -7.6787   -9.4122 H   0  0  0  0  0  0  0  0  0  0  0  0
   -8.6855   -9.1692  -10.6340 H   0  0  0  0  0  0  0  0  0  0  0  0
  1  2  1  0  0  0  0
  1 21  1  0  0  0  0
  1 22  1  0  0  0  0
  1 23  1  0  0  0  0
  2  3  1  0  0  0  0
  2 24  1  0  0  0  0
  2 25  1  0  0  0  0
  3  4  1  0  0  0  0
  3 26  1  0  0  0  0
  3 27  1  0  0  0  0
  4  5  1  0  0  0  0
  4 28  1  0  0  0  0
  4 29  1  0  0  0  0
  5  6  1  0  0  0  0
  5 30  1  0  0  0  0
  5 31  1  0  0  0  0
  6  7  1  0  0  0  0
  6 32  1  0  0  0  0
  6 33  1  0  0  0  0
  7  8  1  0  0  0  0
  7 34  1  0  0  0  0
  7 35  1  0  0  0  0
  8  9  1  0  0  0  0
  8 36  1  0  0  0  0
  8 37  1  0  0  0  0
  9 10  2  0  0  0  0
  9 38  1  0  0  0  0
 10 11  1  0  0  0  0
 10 39  1  0  0  0  0
 11 12  1  0  0  0  0
 11 40  1  0  0  0  0
 11 41  1  0  0  0  0
 12 13  1  0  0  0  0
 12 42  1  0  0  0  0
 12 43  1  0  0  0  0
 13 14  1  0  0  0  0
 13 44  1  0  0  0  0
 13 45  1  0  0  0  0
 14 15  1  0  0  0  0
 14 46  1  0  0  0  0
 14 47  1  0  0  0  0
 15 16  1  0  0  0  0
 15 48  1  0  0  0  0
 15 49  1  0  0  0  0
 16 17  1  0  0  0  0
 16 50  1  0  0  0  0
 16 51  1  0  0  0  0
 17 18  1  0  0  0  0
 17 52  1  0  0  0  0
 17 53  1  0  0  0  0
 18 19  1  0  0  0  0
 18 20  2  0  0  0  0
 19 54  1  0  0  0  0
M  END
>  <DRUGBANK_ID>
DB04224

>  <SECONDARY_ACCESSION_NUMBERS>
EXPT02430

>  <COMMON_NAME>
Oleic Acid

>  <CAS_NUMBER>
112-80-1

>  <UNII>
4837010H8C

$$$$
