
 OpenBabel10282417103D

 54 55  0  0  0  0  0  0  0  0999 V2000
   -0.8558   -0.2512    0.3411 N   0  0  0  0  0  0  0  0  0  0  0  0
   -0.3523    1.0093    0.2655 C   0  0  0  0  0  0  0  0  0  0  0  0
    0.9676    1.2439    0.0387 C   0  0  0  0  0  0  0  0  0  0  0  0
    1.7669    0.1160   -0.0807 C   0  0  0  0  0  0  0  0  0  0  0  0
    1.2162   -1.1779   -0.1742 C   0  0  0  0  0  0  0  0  0  0  0  0
   -0.1422   -1.3523   -0.0495 C   0  0  0  0  0  0  0  0  0  0  0  0
   -0.8978   -2.8302   -0.2058 C   0  0  3  0  0  0  0  0  0  0  0  0
   -2.0993   -2.7643    1.2175 C   0  0  0  0  0  0  0  0  0  0  0  0
   -3.3861   -1.4877    1.3766 C   0  0  0  0  0  0  0  0  0  0  0  0
   -4.4088   -1.2430    0.1740 N   0  0  0  0  0  0  0  0  0  0  0  0
   -5.4322   -0.2341    0.3028 C   0  0  0  0  0  0  0  0  0  0  0  0
   -4.8058    1.1577    0.3655 C   0  0  0  0  0  0  0  0  0  0  0  0
   -6.3220   -0.4151   -0.9700 C   0  0  0  0  0  0  0  0  0  0  0  0
   -3.8630   -0.9814   -1.2116 C   0  0  0  0  0  0  0  0  0  0  0  0
   -2.9264    0.2175   -1.6209 C   0  0  0  0  0  0  0  0  0  0  0  0
   -2.9421   -1.9717   -0.9908 C   0  0  0  0  0  0  0  0  0  0  0  0
   -1.3996   -3.2824   -2.0278 C   0  0  0  0  0  0  0  0  0  0  0  0
   -1.9964   -4.4790   -2.3813 N   0  0  0  0  0  0  0  0  0  0  0  0
    0.0500   -3.9403    0.0909 C   0  0  0  0  0  0  0  0  0  0  0  0
   -1.4928   -2.5455   -3.0127 O   0  0  0  0  0  0  0  0  0  0  0  0
    0.7515   -4.0137    1.2827 C   0  0  0  0  0  0  0  0  0  0  0  0
    1.6413   -5.0517    1.4096 C   0  0  0  0  0  0  0  0  0  0  0  0
    1.6586   -6.1075    0.4833 C   0  0  0  0  0  0  0  0  0  0  0  0
    0.8617   -6.0801   -0.6400 C   0  0  0  0  0  0  0  0  0  0  0  0
    0.3012   -4.8913   -0.8961 C   0  0  0  0  0  0  0  0  0  0  0  0
   -1.0743    1.8276    0.3157 H   0  0  0  0  0  0  0  0  0  0  0  0
    1.3465    2.2560   -0.0400 H   0  0  0  0  0  0  0  0  0  0  0  0
    2.8410    0.2359   -0.1359 H   0  0  0  0  0  0  0  0  0  0  0  0
    1.8624   -2.0295   -0.3086 H   0  0  0  0  0  0  0  0  0  0  0  0
   -2.6071   -3.7308    1.3271 H   0  0  0  0  0  0  0  0  0  0  0  0
   -1.4932   -2.6003    2.1270 H   0  0  0  0  0  0  0  0  0  0  0  0
   -3.9377   -1.7036    2.3042 H   0  0  0  0  0  0  0  0  0  0  0  0
   -2.8473   -0.5527    1.5804 H   0  0  0  0  0  0  0  0  0  0  0  0
   -6.0200   -0.4445    1.1942 H   0  0  0  0  0  0  0  0  0  0  0  0
   -4.4047    1.4798   -0.5903 H   0  0  0  0  0  0  0  0  0  0  0  0
   -5.5444    1.9192    0.5692 H   0  0  0  0  0  0  0  0  0  0  0  0
   -3.9818    1.2132    1.0874 H   0  0  0  0  0  0  0  0  0  0  0  0
   -6.6688   -1.4578   -1.0519 H   0  0  0  0  0  0  0  0  0  0  0  0
   -7.1441    0.2841   -0.9899 H   0  0  0  0  0  0  0  0  0  0  0  0
   -5.8086   -0.2109   -1.9259 H   0  0  0  0  0  0  0  0  0  0  0  0
   -4.3837   -1.4211   -2.0721 H   0  0  0  0  0  0  0  0  0  0  0  0
   -2.5511    0.6213   -0.6909 H   0  0  0  0  0  0  0  0  0  0  0  0
   -2.0199   -0.0460   -2.2035 H   0  0  0  0  0  0  0  0  0  0  0  0
   -3.3753    1.0288   -2.1705 H   0  0  0  0  0  0  0  0  0  0  0  0
   -3.2639   -3.0117   -0.8041 H   0  0  0  0  0  0  0  0  0  0  0  0
   -2.1234   -1.6653   -1.5637 H   0  0  0  0  0  0  0  0  0  0  0  0
   -2.3995   -1.5274   -0.2072 H   0  0  0  0  0  0  0  0  0  0  0  0
   -2.5251   -4.3747   -3.2535 H   0  0  0  0  0  0  0  0  0  0  0  0
   -2.0972   -5.3196   -1.8541 H   0  0  0  0  0  0  0  0  0  0  0  0
    0.6944   -3.2042    2.0091 H   0  0  0  0  0  0  0  0  0  0  0  0
    2.3464   -5.0328    2.2332 H   0  0  0  0  0  0  0  0  0  0  0  0
    2.3588   -6.9157    0.5628 H   0  0  0  0  0  0  0  0  0  0  0  0
    0.7947   -6.8511   -1.3968 H   0  0  0  0  0  0  0  0  0  0  0  0
    0.1177   -4.7179   -1.9534 H   0  0  0  0  0  0  0  0  0  0  0  0
  1  2  1  0  0  0  0
  1  6  2  0  0  0  0
  2  3  2  0  0  0  0
  2 26  1  0  0  0  0
  3  4  1  0  0  0  0
  3 27  1  0  0  0  0
  4  5  2  0  0  0  0
  4 28  1  0  0  0  0
  5  6  1  0  0  0  0
  5 29  1  0  0  0  0
  6  7  1  0  0  0  0
  7  8  1  0  0  0  0
  7 17  1  0  0  0  0
  7 19  1  0  0  0  0
  8  9  1  0  0  0  0
  8 30  1  0  0  0  0
  8 31  1  0  0  0  0
  9 10  1  0  0  0  0
  9 32  1  0  0  0  0
  9 33  1  0  0  0  0
 10 11  1  0  0  0  0
 10 14  1  0  0  0  0
 11 12  1  0  0  0  0
 11 13  1  0  0  0  0
 11 34  1  0  0  0  0
 12 35  1  0  0  0  0
 12 36  1  0  0  0  0
 12 37  1  0  0  0  0
 13 38  1  0  0  0  0
 13 39  1  0  0  0  0
 13 40  1  0  0  0  0
 14 15  1  0  0  0  0
 14 16  1  0  0  0  0
 14 41  1  0  0  0  0
 15 42  1  0  0  0  0
 15 43  1  0  0  0  0
 15 44  1  0  0  0  0
 16 45  1  0  0  0  0
 16 46  1  0  0  0  0
 16 47  1  0  0  0  0
 17 18  1  0  0  0  0
 17 20  2  0  0  0  0
 18 48  1  0  0  0  0
 18 49  1  0  0  0  0
 19 21  2  0  0  0  0
 19 25  1  0  0  0  0
 21 22  1  0  0  0  0
 21 50  1  0  0  0  0
 22 23  2  0  0  0  0
 22 51  1  0  0  0  0
 23 24  1  0  0  0  0
 23 52  1  0  0  0  0
 24 25  2  0  0  0  0
 24 53  1  0  0  0  0
 25 54  1  0  0  0  0
M  END
>  <DRUGBANK_ID>
DB00280

>  <SECONDARY_ACCESSION_NUMBERS>
APRD00507

>  <COMMON_NAME>
Disopyramide

>  <CAS_NUMBER>
3737-09-5

>  <UNII>
GFO928U8MQ

>  <SYNONYMS>
Disopiramida; Disopyramide; Disopyramidum

$$$$
