989
 OpenBabel10282417113D

 40 40  0  0  1  0  0  0  0  0999 V2000
    1.1105    0.0129    0.0340 O   0  0  0  0  0  0  0  0  0  0  0  0
    3.1230    1.0791   -0.2146 O   0  0  0  0  0  0  0  0  0  0  0  0
   -0.4093   -4.4700    3.4930 N   0  0  0  0  0  0  0  0  0  0  0  0
    3.2841   -1.1914    0.0959 N   0  0  0  0  0  0  0  0  0  0  0  0
    0.5559   -4.1624    2.4284 C   0  0  2  0  0  0  0  0  0  0  0  0
   -0.0551   -3.1285    1.4783 C   0  0  0  0  0  0  0  0  0  0  0  0
    1.0307   -5.4364    1.6815 C   0  0  0  0  0  0  0  0  0  0  0  0
    0.4062   -1.7962    1.4977 C   0  0  0  0  0  0  0  0  0  0  0  0
   -1.0343   -3.4935    0.5443 C   0  0  0  0  0  0  0  0  0  0  0  0
    0.1381   -5.4172    4.4614 C   0  0  0  0  0  0  0  0  0  0  0  0
   -0.7944   -3.2336    4.1875 C   0  0  0  0  0  0  0  0  0  0  0  0
    0.1544   -1.0014    0.3792 C   0  0  0  0  0  0  0  0  0  0  0  0
   -1.3854   -2.6236   -0.4907 C   0  0  0  0  0  0  0  0  0  0  0  0
   -0.7702   -1.3749   -0.5970 C   0  0  0  0  0  0  0  0  0  0  0  0
    2.7460   -2.5227    0.1790 C   0  0  0  0  0  0  0  0  0  0  0  0
    2.5530    0.0096   -0.0346 C   0  0  0  0  0  0  0  0  0  0  0  0
    4.7282   -1.1056    0.1703 C   0  0  0  0  0  0  0  0  0  0  0  0
    3.1251   -3.5330   -0.8617 C   0  0  0  0  0  0  0  0  0  0  0  0
    1.4675   -3.7291    2.8701 H   0  0  0  0  0  0  0  0  0  0  0  0
    1.8030   -5.2095    0.9497 H   0  0  0  0  0  0  0  0  0  0  0  0
    1.5098   -6.1628    2.3461 H   0  0  0  0  0  0  0  0  0  0  0  0
    0.2163   -5.9476    1.1595 H   0  0  0  0  0  0  0  0  0  0  0  0
    1.1809   -1.4901    2.1982 H   0  0  0  0  0  0  0  0  0  0  0  0
   -1.5019   -4.4732    0.6137 H   0  0  0  0  0  0  0  0  0  0  0  0
    1.0483   -5.0335    4.9359 H   0  0  0  0  0  0  0  0  0  0  0  0
   -0.6068   -5.6333    5.2305 H   0  0  0  0  0  0  0  0  0  0  0  0
    0.3673   -6.3846    4.0050 H   0  0  0  0  0  0  0  0  0  0  0  0
    0.0724   -2.7442    4.6475 H   0  0  0  0  0  0  0  0  0  0  0  0
   -1.2689   -2.5114    3.5135 H   0  0  0  0  0  0  0  0  0  0  0  0
   -1.5472   -3.4437    4.9477 H   0  0  0  0  0  0  0  0  0  0  0  0
   -2.0772   -2.9647   -1.2565 H   0  0  0  0  0  0  0  0  0  0  0  0
   -0.9536   -0.7483   -1.4641 H   0  0  0  0  0  0  0  0  0  0  0  0
    2.8986   -2.8871    1.2030 H   0  0  0  0  0  0  0  0  0  0  0  0
    1.7187   -2.4624   -0.0793 H   0  0  0  0  0  0  0  0  0  0  0  0
    5.1050   -0.7787   -0.8005 H   0  0  0  0  0  0  0  0  0  0  0  0
    5.0285   -0.4028    0.9518 H   0  0  0  0  0  0  0  0  0  0  0  0
    5.1512   -2.0876    0.4106 H   0  0  0  0  0  0  0  0  0  0  0  0
    4.1708   -3.8152   -0.8114 H   0  0  0  0  0  0  0  0  0  0  0  0
    2.5086   -4.4249   -0.7151 H   0  0  0  0  0  0  0  0  0  0  0  0
    2.8584   -3.1408   -1.8449 H   0  0  0  0  0  0  0  0  0  0  0  0
  1 12  1  0  0  0  0
  1 16  1  0  0  0  0
  2 16  2  0  0  0  0
  3 10  1  0  0  0  0
  3 11  1  0  0  0  0
  4 15  1  0  0  0  0
  4 16  1  0  0  0  0
  4 17  1  0  0  0  0
  5  3  1  0  0  0  0
  5  6  1  0  0  0  0
  5  7  1  0  0  0  0
  5 19  1  1  0  0  0
  6  8  2  0  0  0  0
  6  9  1  0  0  0  0
  7 20  1  0  0  0  0
  7 21  1  0  0  0  0
  7 22  1  0  0  0  0
  8 12  1  0  0  0  0
  8 23  1  0  0  0  0
  9 13  2  0  0  0  0
  9 24  1  0  0  0  0
 10 25  1  0  0  0  0
 10 26  1  0  0  0  0
 10 27  1  0  0  0  0
 11 28  1  0  0  0  0
 11 29  1  0  0  0  0
 11 30  1  0  0  0  0
 12 14  2  0  0  0  0
 13 14  1  0  0  0  0
 13 31  1  0  0  0  0
 14 32  1  0  0  0  0
 15 18  1  0  0  0  0
 15 33  1  0  0  0  0
 15 34  1  0  0  0  0
 17 35  1  0  0  0  0
 17 36  1  0  0  0  0
 17 37  1  0  0  0  0
 18 38  1  0  0  0  0
 18 39  1  0  0  0  0
 18 40  1  0  0  0  0
M  END
>  <DRUGBANK_ID>
DB00989

>  <SECONDARY_ACCESSION_NUMBERS>
APRD00321

>  <COMMON_NAME>
Rivastigmine

>  <CAS_NUMBER>
123441-03-2

>  <UNII>
PKI06M3IW0

>  <SYNONYMS>
(S)-3-(1-(Dimethylamino)ethyl)phenyl ethylmethylcarbamate; m-((S)-1-(Dimethylamino)ethyl)phenyl ethylmethylcarbamate; Rivastigmina; Rivastigmine

$$$$
