
 OpenBabel10282417203D

 80 84  0  0  1  0  0  0  0  0999 V2000
    0.4465   -0.1495    0.4391 C   0  0  0  0  0  0  0  0  0  0  0  0
    0.0617   -0.5603   -0.9638 C   0  0  0  0  0  0  0  0  0  0  0  0
    0.8031   -1.6791   -1.3880 O   0  0  0  0  0  0  0  0  0  0  0  0
    2.2146   -1.4927   -1.6019 C   0  0  2  0  0  0  0  0  0  0  0  0
    2.9183   -2.6638   -0.9086 C   0  0  0  0  0  0  0  0  0  0  0  0
    4.2128   -2.0661   -0.4880 C   0  0  0  0  0  0  0  0  0  0  0  0
    5.3306   -2.7466   -0.0553 C   0  0  0  0  0  0  0  0  0  0  0  0
    6.4644   -2.0076    0.3214 C   0  0  0  0  0  0  0  0  0  0  0  0
    6.4456   -0.5985    0.2718 C   0  0  0  0  0  0  0  0  0  0  0  0
    5.3124    0.0769   -0.1494 C   0  0  0  0  0  0  0  0  0  0  0  0
    4.2202   -0.6730   -0.5604 C   0  0  0  0  0  0  0  0  0  0  0  0
    2.9607   -0.1273   -1.1793 C   0  0  1  0  0  0  0  0  0  0  0  0
    3.1561    1.0306   -2.1051 N   0  0  3  0  0  0  0  0  0  0  0  0
    4.1690    0.5977   -3.0960 C   0  0  0  0  0  0  0  0  0  0  0  0
    3.6412   -0.2044   -4.2816 C   0  0  0  0  0  0  0  0  0  0  0  0
    2.3713    0.3004   -4.8234 N   0  0  3  0  0  0  0  0  0  0  0  0
    1.3608    0.4731   -3.7383 C   0  0  0  0  0  0  0  0  0  0  0  0
    1.7977    1.4902   -2.6292 C   0  0  2  0  0  0  0  0  0  0  0  0
    1.2809    2.9983   -2.9157 C   0  0  0  0  0  0  0  0  0  0  0  0
    2.5520    1.5509   -5.5777 C   0  0  0  0  0  0  0  0  0  0  0  0
    1.1242    1.9381   -6.0178 C   0  0  0  0  0  0  0  0  0  0  0  0
    0.5787    0.9807   -7.0895 C   0  0  0  0  0  0  0  0  0  0  0  0
    1.4877    0.9917   -8.2195 N   0  0  0  0  0  0  0  0  0  0  0  0
    2.8426    0.5469   -7.8987 C   0  0  0  0  0  0  0  0  0  0  0  0
    3.4334    1.4185   -6.8248 C   0  0  0  0  0  0  0  0  0  0  0  0
    1.2022    1.4419   -9.5114 C   0  0  0  0  0  0  0  0  0  0  0  0
    2.0255    1.4644  -10.3953 O   0  0  0  0  0  0  0  0  0  0  0  0
   -0.1857    1.8622   -9.8404 C   0  0  0  0  0  0  0  0  0  0  0  0
   -0.9183    1.1475  -10.7808 C   0  0  0  0  0  0  0  0  0  0  0  0
   -2.1932    1.4810  -11.1114 N   0  0  0  0  0  0  0  0  0  0  0  0
   -2.7182    2.5462  -10.4959 C   0  0  0  0  0  0  0  0  0  0  0  0
   -2.0952    3.3129   -9.5992 N   0  0  0  0  0  0  0  0  0  0  0  0
   -0.8162    2.9823   -9.3065 C   0  0  0  0  0  0  0  0  0  0  0  0
   -0.1833    3.9007   -8.3212 C   0  0  0  0  0  0  0  0  0  0  0  0
   -0.3684   -0.0565  -11.4879 C   0  0  0  0  0  0  0  0  0  0  0  0
    3.3208    2.6876   -4.8664 C   0  0  0  0  0  0  0  0  0  0  0  0
    7.6950   -2.7291    0.7933 C   0  0  0  0  0  0  0  0  0  0  0  0
    7.4522   -3.4899    1.8948 F   0  0  0  0  0  0  0  0  0  0  0  0
    8.1965   -3.5733   -0.1488 F   0  0  0  0  0  0  0  0  0  0  0  0
    8.7154   -1.8929    1.1303 F   0  0  0  0  0  0  0  0  0  0  0  0
   -0.0886   -0.7875    1.1305 H   0  0  0  0  0  0  0  0  0  0  0  0
    0.2523    0.9138    0.6019 H   0  0  0  0  0  0  0  0  0  0  0  0
    1.4727   -0.3570    0.7460 H   0  0  0  0  0  0  0  0  0  0  0  0
   -1.0095   -0.7542   -1.0264 H   0  0  0  0  0  0  0  0  0  0  0  0
    0.1190    0.2076   -1.7092 H   0  0  0  0  0  0  0  0  0  0  0  0
    2.3777   -1.7387   -2.6489 H   0  0  0  0  0  0  0  0  0  0  0  0
    2.3248   -3.0254   -0.0657 H   0  0  0  0  0  0  0  0  0  0  0  0
    3.0620   -3.4919   -1.6165 H   0  0  0  0  0  0  0  0  0  0  0  0
    5.3312   -3.8336   -0.0216 H   0  0  0  0  0  0  0  0  0  0  0  0
    7.3263   -0.0224    0.5469 H   0  0  0  0  0  0  0  0  0  0  0  0
    5.2965    1.1614   -0.2252 H   0  0  0  0  0  0  0  0  0  0  0  0
    2.5164    0.4130   -0.3667 H   0  0  0  0  0  0  0  0  0  0  0  0
    4.9687   -0.0071   -2.6621 H   0  0  0  0  0  0  0  0  0  0  0  0
    4.7732    1.4582   -3.3787 H   0  0  0  0  0  0  0  0  0  0  0  0
    3.5421   -1.2547   -3.9938 H   0  0  0  0  0  0  0  0  0  0  0  0
    4.4171   -0.2785   -5.0456 H   0  0  0  0  0  0  0  0  0  0  0  0
    1.1693   -0.5320   -3.3917 H   0  0  0  0  0  0  0  0  0  0  0  0
    0.3300    0.6606   -4.0610 H   0  0  0  0  0  0  0  0  0  0  0  0
    1.2236    1.4761   -1.7086 H   0  0  0  0  0  0  0  0  0  0  0  0
    0.1841    3.0143   -2.9934 H   0  0  0  0  0  0  0  0  0  0  0  0
    1.5976    3.6754   -2.1163 H   0  0  0  0  0  0  0  0  0  0  0  0
    1.5383    3.5263   -3.8357 H   0  0  0  0  0  0  0  0  0  0  0  0
    0.3519    1.9992   -5.2474 H   0  0  0  0  0  0  0  0  0  0  0  0
    1.2181    2.9774   -6.3066 H   0  0  0  0  0  0  0  0  0  0  0  0
    0.4973   -0.0543   -6.7308 H   0  0  0  0  0  0  0  0  0  0  0  0
   -0.4413    1.2517   -7.3706 H   0  0  0  0  0  0  0  0  0  0  0  0
    2.7964   -0.4932   -7.5597 H   0  0  0  0  0  0  0  0  0  0  0  0
    3.5073    0.6013   -8.7623 H   0  0  0  0  0  0  0  0  0  0  0  0
    3.5693    2.4315   -7.2300 H   0  0  0  0  0  0  0  0  0  0  0  0
    4.4394    1.0769   -6.5550 H   0  0  0  0  0  0  0  0  0  0  0  0
   -3.7359    2.8205  -10.7454 H   0  0  0  0  0  0  0  0  0  0  0  0
   -0.0950    3.3607   -7.4025 H   0  0  0  0  0  0  0  0  0  0  0  0
    0.7845    4.2791   -8.6541 H   0  0  0  0  0  0  0  0  0  0  0  0
   -0.8356    4.7294   -8.0364 H   0  0  0  0  0  0  0  0  0  0  0  0
    0.5220    0.2037  -12.0673 H   0  0  0  0  0  0  0  0  0  0  0  0
   -0.1278   -0.8458  -10.7697 H   0  0  0  0  0  0  0  0  0  0  0  0
   -1.1077   -0.4569  -12.1905 H   0  0  0  0  0  0  0  0  0  0  0  0
    3.1564    2.6875   -3.8163 H   0  0  0  0  0  0  0  0  0  0  0  0
    4.4081    2.6058   -4.8672 H   0  0  0  0  0  0  0  0  0  0  0  0
    3.0575    3.6777   -5.2347 H   0  0  0  0  0  0  0  0  0  0  0  0
  1  2  1  0  0  0  0
  1 41  1  0  0  0  0
  1 42  1  0  0  0  0
  1 43  1  0  0  0  0
  2  3  1  0  0  0  0
  2 44  1  0  0  0  0
  2 45  1  0  0  0  0
  4  3  1  0  0  0  0
  4  5  1  0  0  0  0
  4 12  1  0  0  0  0
  4 46  1  6  0  0  0
  5  6  1  0  0  0  0
  5 47  1  0  0  0  0
  5 48  1  0  0  0  0
  6  7  2  0  0  0  0
  6 11  1  0  0  0  0
  7  8  1  0  0  0  0
  7 49  1  0  0  0  0
  8  9  2  0  0  0  0
  8 37  1  0  0  0  0
  9 10  1  0  0  0  0
  9 50  1  0  0  0  0
 10 11  2  0  0  0  0
 10 51  1  0  0  0  0
 11 12  1  0  0  0  0
 12 13  1  0  0  0  0
 12 52  1  1  0  0  0
 13 14  1  0  0  0  0
 13 18  1  0  0  0  0
 14 15  1  0  0  0  0
 14 53  1  0  0  0  0
 14 54  1  0  0  0  0
 15 16  1  0  0  0  0
 15 55  1  0  0  0  0
 15 56  1  0  0  0  0
 16 17  1  0  0  0  0
 16 20  1  0  0  0  0
 17 18  1  0  0  0  0
 17 57  1  0  0  0  0
 17 58  1  0  0  0  0
 18 19  1  0  0  0  0
 18 59  1  1  0  0  0
 19 60  1  0  0  0  0
 19 61  1  0  0  0  0
 19 62  1  0  0  0  0
 20 21  1  0  0  0  0
 20 25  1  0  0  0  0
 20 36  1  0  0  0  0
 21 22  1  0  0  0  0
 21 63  1  0  0  0  0
 21 64  1  0  0  0  0
 22 23  1  0  0  0  0
 22 65  1  0  0  0  0
 22 66  1  0  0  0  0
 23 24  1  0  0  0  0
 23 26  1  0  0  0  0
 24 25  1  0  0  0  0
 24 67  1  0  0  0  0
 24 68  1  0  0  0  0
 25 69  1  0  0  0  0
 25 70  1  0  0  0  0
 26 27  2  0  0  0  0
 26 28  1  0  0  0  0
 28 29  2  0  0  0  0
 28 33  1  0  0  0  0
 29 30  1  0  0  0  0
 29 35  1  0  0  0  0
 30 31  2  0  0  0  0
 31 32  1  0  0  0  0
 31 71  1  0  0  0  0
 32 33  2  0  0  0  0
 33 34  1  0  0  0  0
 34 72  1  0  0  0  0
 34 73  1  0  0  0  0
 34 74  1  0  0  0  0
 35 75  1  0  0  0  0
 35 76  1  0  0  0  0
 35 77  1  0  0  0  0
 36 78  1  0  0  0  0
 36 79  1  0  0  0  0
 36 80  1  0  0  0  0
 37 38  1  0  0  0  0
 37 39  1  0  0  0  0
 37 40  1  0  0  0  0
M  END
>  <DRUGBANK_ID>
DB12960

>  <SECONDARY_ACCESSION_NUMBERS>
DB05062

>  <COMMON_NAME>
INCB-9471

>  <CAS_NUMBER>
869769-98-2

>  <UNII>
C5D4W25708

$$$$
