JT6
 OpenBabel10282417173D

 35 36  0  0  0  0  0  0  0  0999 V2000
   -0.5030    0.0162   -0.0588 C   0  0  0  0  0  0  0  0  0  0  0  0
    0.2063    1.2235   -0.0512 C   0  0  0  0  0  0  0  0  0  0  0  0
    1.6036    1.2172   -0.0199 C   0  0  0  0  0  0  0  0  0  0  0  0
    2.2963    0.0015   -0.0105 C   0  0  0  0  0  0  0  0  0  0  0  0
    5.5777   -0.1854    1.6913 C   0  0  0  0  0  0  0  0  0  0  0  0
    4.2978    0.2451    1.3680 C   0  0  0  0  0  0  0  0  0  0  0  0
    4.5543   -0.7059   -0.8159 C   0  0  0  0  0  0  0  0  0  0  0  0
    5.9012   -0.9727   -0.5445 C   0  0  0  0  0  0  0  0  0  0  0  0
    0.1827   -1.1983   -0.0626 C   0  0  0  0  0  0  0  0  0  0  0  0
    6.4324   -0.6590    0.7037 C   0  0  0  0  0  0  0  0  0  0  0  0
    1.5716   -1.2014   -0.0253 C   0  0  0  0  0  0  0  0  0  0  0  0
    7.0128    2.1499    2.0464 C   0  0  0  0  0  0  0  0  0  0  0  0
    8.3634   -0.1233    2.0135 C   0  0  0  0  0  0  0  0  0  0  0  0
    8.3571    1.4247    2.0717 C   0  0  0  0  0  0  0  0  0  0  0  0
    6.4497    2.3974    3.2833 N   0  0  0  0  0  0  0  0  0  0  0  0
    6.4208    2.4150    1.0006 O   0  0  0  0  0  0  0  0  0  0  0  0
    5.1202    2.8886    3.3017 O   0  0  0  0  0  0  0  0  0  0  0  0
    7.7929   -0.7272    0.8404 O   0  0  0  0  0  0  0  0  0  0  0  0
    3.7419   -0.0868    0.1415 C   0  0  0  0  0  0  0  0  0  0  0  0
   -1.9393    0.0160   -0.0189 C   0  0  0  0  0  0  0  0  0  0  0  0
   -3.0902    0.0027    0.0380 N   0  0  0  0  0  0  0  0  0  0  0  0
   -0.3215    2.1749   -0.0562 H   0  0  0  0  0  0  0  0  0  0  0  0
    2.1464    2.1604    0.0148 H   0  0  0  0  0  0  0  0  0  0  0  0
    5.9218    0.0064    2.6982 H   0  0  0  0  0  0  0  0  0  0  0  0
    3.7351    0.8443    2.0783 H   0  0  0  0  0  0  0  0  0  0  0  0
    4.1324   -0.9727   -1.7810 H   0  0  0  0  0  0  0  0  0  0  0  0
    6.5247   -1.4239   -1.3101 H   0  0  0  0  0  0  0  0  0  0  0  0
   -0.3476   -2.1474   -0.0746 H   0  0  0  0  0  0  0  0  0  0  0  0
    2.1036   -2.1511    0.0314 H   0  0  0  0  0  0  0  0  0  0  0  0
    7.9688   -0.6036    2.9171 H   0  0  0  0  0  0  0  0  0  0  0  0
    9.4217   -0.4253    1.9898 H   0  0  0  0  0  0  0  0  0  0  0  0
    8.8825    1.7279    2.9856 H   0  0  0  0  0  0  0  0  0  0  0  0
    8.9206    1.8136    1.2195 H   0  0  0  0  0  0  0  0  0  0  0  0
    7.0113    2.6625    4.0836 H   0  0  0  0  0  0  0  0  0  0  0  0
    4.7953    2.6853    2.3984 H   0  0  0  0  0  0  0  0  0  0  0  0
  1  9  2  0  0  0  0
  1  2  1  0  0  0  0
  2  3  2  0  0  0  0
  2 22  1  0  0  0  0
  3  4  1  0  0  0  0
  3 23  1  0  0  0  0
  4 19  1  0  0  0  0
  5 10  1  0  0  0  0
  5 24  1  0  0  0  0
  6  5  2  0  0  0  0
  6 25  1  0  0  0  0
  7  8  1  0  0  0  0
  7 26  1  0  0  0  0
  8 10  2  0  0  0  0
  8 27  1  0  0  0  0
  9 11  1  0  0  0  0
  9 28  1  0  0  0  0
 10 18  1  0  0  0  0
 11  4  2  0  0  0  0
 11 29  1  0  0  0  0
 12 14  1  0  0  0  0
 13 14  1  0  0  0  0
 13 30  1  0  0  0  0
 13 31  1  0  0  0  0
 14 32  1  0  0  0  0
 14 33  1  0  0  0  0
 15 12  1  0  0  0  0
 15 34  1  0  0  0  0
 16 12  2  0  0  0  0
 17 15  1  0  0  0  0
 17 35  1  0  0  0  0
 18 13  1  0  0  0  0
 19  7  2  0  0  0  0
 19  6  1  0  0  0  0
 20  1  1  0  0  0  0
 21 20  3  0  0  0  0
M  END
>  <DRUGBANK_ID>
DB08030

>  <COMMON_NAME>
3-[(4'-cyanobiphenyl-4-yl)oxy]-N-hydroxypropanamide

$$$$
