
 OpenBabel10282417203D

  7  3  0  0  0  0  0  0  0  0999 V2000
    0.8246   -0.3376    0.0977 Fe  0  1  0  0  0  0  0  0  0  0  0  0
    0.7355    0.9566   -1.1920 O   0  5  0  0  0  0  0  0  0  0  0  0
    1.7470   -1.8029   -0.4626 O   0  5  0  0  0  0  0  0  0  0  0  0
    0.8884    0.3514    1.7802 O   0  5  0  0  0  0  0  0  0  0  0  0
    1.6052    1.2478   -1.3149 H   0  0  0  0  0  0  0  0  0  0  0  0
    2.5485   -1.4952   -0.8678 H   0  0  0  0  0  0  0  0  0  0  0  0
    1.4359    1.1266    1.7321 H   0  0  0  0  0  0  0  0  0  0  0  0
  2  5  1  0  0  0  0
  3  6  1  0  0  0  0
  4  7  1  0  0  0  0
M  CHG  4   1   3   2  -1   3  -1   4  -1
M  END
>  <DRUGBANK_ID>
DB13423

>  <COMMON_NAME>
Ferric hydroxide

>  <CAS_NUMBER>
1309-33-7

>  <UNII>
2UA751211N

$$$$
