
 OpenBabel10282417113D

 94 97  0  0  0  0  0  0  0  0999 V2000
   -2.3806  -11.4171   20.9178 C   0  0  1  0  0  0  0  0  0  0  0  0
   -1.9290   -9.8888   17.6455 O   0  0  0  0  0  0  0  0  0  0  0  0
    3.9449   -5.6651   13.2808 C   0  0  1  0  0  0  0  0  0  0  0  0
    4.0516   -4.2887   13.9105 C   0  0  2  0  0  0  0  0  0  0  0  0
   -0.9815  -10.2078   18.5547 C   0  0  1  0  0  0  0  0  0  0  0  0
    4.0844   -3.0179   13.0482 C   0  0  2  0  0  0  0  0  0  0  0  0
   -1.1950  -11.2255   22.2426 C   0  0  1  0  0  0  0  0  0  0  0  0
   -2.5171  -10.0016   19.1250 C   0  0  1  0  0  0  0  0  0  0  0  0
   -0.0705   -9.8964   20.3639 C   0  0  1  0  0  0  0  0  0  0  0  0
    5.4184   -5.4651   12.2550 O   0  0  0  0  0  0  0  0  0  0  0  0
   -1.0266  -11.5383   20.9683 O   0  0  0  0  0  0  0  0  0  0  0  0
    5.3304   -2.9656   12.1740 C   0  0  1  0  0  0  0  0  0  0  0  0
   -2.7331  -10.8227   23.4641 C   0  0  2  0  0  0  0  0  0  0  0  0
   -3.3775  -11.0291   22.2801 C   0  0  0  0  0  0  0  0  0  0  0  0
    5.3802   -4.2345   11.3666 C   0  0  1  0  0  0  0  0  0  0  0  0
   -2.5916  -12.4400   23.7028 C   0  0  0  0  0  0  0  0  0  0  0  0
   -2.5908  -12.0647   19.2176 C   0  0  0  0  0  0  0  0  0  0  0  0
   -4.0273  -10.8990   19.8523 C   0  0  0  0  0  0  0  0  0  0  0  0
   -5.7342  -10.8873   21.0817 C   0  0  0  0  0  0  0  0  0  0  0  0
   -0.3513  -11.5654   18.9678 C   0  0  0  0  0  0  0  0  0  0  0  0
    3.0445   -6.8446   14.7178 O   0  0  0  0  0  0  0  0  0  0  0  0
    0.9484   -8.7401   18.3476 C   0  0  0  0  0  0  0  0  0  0  0  0
   -6.5874  -10.3791   21.9445 O   0  0  0  0  0  0  0  0  0  0  0  0
   -4.5855  -10.0862   20.6595 C   0  0  0  0  0  0  0  0  0  0  0  0
    1.9685   -7.3857   16.5336 C   0  0  2  0  0  0  0  0  0  0  0  0
   -1.3477  -12.6053   19.1030 C   0  0  2  0  0  0  0  0  0  0  0  0
   -3.0191  -12.6018   25.2189 O   0  0  0  0  0  0  0  0  0  0  0  0
   -5.7585  -12.1108   21.0771 O   0  0  0  0  0  0  0  0  0  0  0  0
    4.0682   -1.8224   13.9035 N   0  0  0  0  0  0  0  0  0  0  0  0
   -2.5145   -7.0285   18.1961 C   0  0  0  0  0  0  0  0  0  0  0  0
   -1.4506   -7.3342   17.2838 C   0  0  0  0  0  0  0  0  0  0  0  0
   -0.6601   -6.3665   16.8533 C   0  0  0  0  0  0  0  0  0  0  0  0
   -3.5038   -7.8427   18.5427 C   0  0  0  0  0  0  0  0  0  0  0  0
    0.1345   -6.5423   15.6782 C   0  0  0  0  0  0  0  0  0  0  0  0
   -4.5713   -7.5650   19.4830 C   0  0  0  0  0  0  0  0  0  0  0  0
    1.2587   -5.8501   15.6914 C   0  0  0  0  0  0  0  0  0  0  0  0
   -1.8955   -9.8387   21.3914 O   0  0  0  0  0  0  0  0  0  0  0  0
    5.1993   -4.2488   14.7518 O   0  0  0  0  0  0  0  0  0  0  0  0
   -5.6078   -8.3672   19.7758 C   0  0  0  0  0  0  0  0  0  0  0  0
    5.3121   -1.8318   11.3149 O   0  0  0  0  0  0  0  0  0  0  0  0
   -1.7948   -9.9952   23.9222 O   0  0  0  0  0  0  0  0  0  0  0  0
   -4.1101  -13.5898   24.0525 O   0  0  0  0  0  0  0  0  0  0  0  0
   -6.3428   -9.0640   22.2518 C   0  0  1  0  0  0  0  0  0  0  0  0
   -1.2024  -13.3027   17.9970 O   0  0  0  0  0  0  0  0  0  0  0  0
    6.6062   -4.1291   10.4726 C   0  0  0  0  0  0  0  0  0  0  0  0
   -6.5315   -8.2401   20.9319 C   0  0  0  0  0  0  0  0  0  0  0  0
   -7.0433   -8.1138   23.1586 C   0  0  0  0  0  0  0  0  0  0  0  0
   -2.8141   -9.1842   19.7028 H   0  0  0  0  0  0  0  0  0  0  0  0
   -0.2029   -9.5735   18.7586 H   0  0  0  0  0  0  0  0  0  0  0  0
    0.2239  -10.9477   21.2374 H   0  0  0  0  0  0  0  0  0  0  0  0
    3.5030   -5.6538   12.1723 H   0  0  0  0  0  0  0  0  0  0  0  0
    3.1797   -4.3141   14.5078 H   0  0  0  0  0  0  0  0  0  0  0  0
    3.2008   -3.0031   12.4126 H   0  0  0  0  0  0  0  0  0  0  0  0
   -1.7649  -11.8622   23.5576 H   0  0  0  0  0  0  0  0  0  0  0  0
    6.2379   -2.9284   12.7802 H   0  0  0  0  0  0  0  0  0  0  0  0
   -3.4535  -10.2606   24.2374 H   0  0  0  0  0  0  0  0  0  0  0  0
   -4.2535  -10.5411   22.2646 H   0  0  0  0  0  0  0  0  0  0  0  0
   -4.0526  -11.7690   22.6427 H   0  0  0  0  0  0  0  0  0  0  0  0
    4.4693   -4.2272   10.7657 H   0  0  0  0  0  0  0  0  0  0  0  0
   -2.5509  -11.6245   17.8692 H   0  0  0  0  0  0  0  0  0  0  0  0
   -2.9941  -12.2785   20.3778 H   0  0  0  0  0  0  0  0  0  0  0  0
   -4.1632  -11.9573   20.9562 H   0  0  0  0  0  0  0  0  0  0  0  0
    0.7221  -11.4177   18.9812 H   0  0  0  0  0  0  0  0  0  0  0  0
    0.0770  -11.8503   19.9341 H   0  0  0  0  0  0  0  0  0  0  0  0
    1.2760   -8.1486   16.8260 H   0  0  0  0  0  0  0  0  0  0  0  0
    0.9075   -8.1949   16.7765 H   0  0  0  0  0  0  0  0  0  0  0  0
   -4.1693   -9.1201   20.8645 H   0  0  0  0  0  0  0  0  0  0  0  0
    3.0557   -7.3161   15.8229 H   0  0  0  0  0  0  0  0  0  0  0  0
   -1.7470  -13.3254   19.7833 H   0  0  0  0  0  0  0  0  0  0  0  0
    4.8911   -1.8440   14.5159 H   0  0  0  0  0  0  0  0  0  0  0  0
    3.2458   -1.8492   14.5022 H   0  0  0  0  0  0  0  0  0  0  0  0
   -2.6214   -6.0221   18.5486 H   0  0  0  0  0  0  0  0  0  0  0  0
   -1.2706   -8.3147   16.8531 H   0  0  0  0  0  0  0  0  0  0  0  0
   -0.6698   -5.3749   17.2169 H   0  0  0  0  0  0  0  0  0  0  0  0
   -3.4747   -8.8442   18.1215 H   0  0  0  0  0  0  0  0  0  0  0  0
    0.2260   -7.7793   15.3163 H   0  0  0  0  0  0  0  0  0  0  0  0
   -4.6140   -6.6089   19.9338 H   0  0  0  0  0  0  0  0  0  0  0  0
    1.3805   -4.7364   15.8807 H   0  0  0  0  0  0  0  0  0  0  0  0
   -1.5897   -9.8002   20.5556 H   0  0  0  0  0  0  0  0  0  0  0  0
    5.8417   -3.9873   14.0790 H   0  0  0  0  0  0  0  0  0  0  0  0
   -5.5496   -9.4042   19.3483 H   0  0  0  0  0  0  0  0  0  0  0  0
    4.5170   -1.8817   10.7574 H   0  0  0  0  0  0  0  0  0  0  0  0
   -1.0180   -9.9917   23.3676 H   0  0  0  0  0  0  0  0  0  0  0  0
   -4.9897  -14.2679   24.8909 H   0  0  0  0  0  0  0  0  0  0  0  0
   -5.4779   -9.2594   22.8664 H   0  0  0  0  0  0  0  0  0  0  0  0
   -0.6881  -13.9641   18.4728 H   0  0  0  0  0  0  0  0  0  0  0  0
    6.6827   -5.0166    9.8591 H   0  0  0  0  0  0  0  0  0  0  0  0
    6.5554   -3.2502    9.8195 H   0  0  0  0  0  0  0  0  0  0  0  0
    7.5092   -4.0419   11.0825 H   0  0  0  0  0  0  0  0  0  0  0  0
   -7.3554   -7.7319   20.4520 H   0  0  0  0  0  0  0  0  0  0  0  0
   -7.0697   -7.3885   21.3026 H   0  0  0  0  0  0  0  0  0  0  0  0
   -7.1200   -7.8749   24.2233 H   0  0  0  0  0  0  0  0  0  0  0  0
   -6.5085   -7.2166   22.7971 H   0  0  0  0  0  0  0  0  0  0  0  0
   -8.0416   -8.2213   22.7762 H   0  0  0  0  0  0  0  0  0  0  0  0
  1 37  1  1  0  0  0
  2  5  1  0  0  0  0
  2  8  1  0  0  0  0
  3 51  1  6  0  0  0
  3 21  1  0  0  0  0
  4  3  1  0  0  0  0
  4 52  1  1  0  0  0
  4 38  1  0  0  0  0
  5 20  1  0  0  0  0
  5 49  1  1  0  0  0
  6  4  1  0  0  0  0
  6 53  1  6  0  0  0
  6 29  1  0  0  0  0
  7 13  1  0  0  0  0
  7  9  1  0  0  0  0
  7 54  1  1  0  0  0
  7 16  1  0  0  0  0
  8  5  1  0  0  0  0
  8 48  1  6  0  0  0
  9 11  1  0  0  0  0
  9 50  1  1  0  0  0
 10  3  1  0  0  0  0
 11  1  1  0  0  0  0
 12 15  1  0  0  0  0
 12 40  1  0  0  0  0
 12  6  1  0  0  0  0
 12 55  1  1  0  0  0
 13 14  1  0  0  0  0
 13 56  1  1  0  0  0
 13 41  1  0  0  0  0
 14  1  1  0  0  0  0
 14 57  1  0  0  0  0
 14 58  1  0  0  0  0
 15 10  1  0  0  0  0
 15 59  1  6  0  0  0
 15 45  1  0  0  0  0
 17  1  1  0  0  0  0
 17 60  1  0  0  0  0
 17 61  1  0  0  0  0
 18  8  1  0  0  0  0
 18 62  1  0  0  0  0
 19 24  1  0  0  0  0
 20 26  1  0  0  0  0
 20 63  1  0  0  0  0
 20 64  1  0  0  0  0
 22  9  1  0  0  0  0
 22 65  1  0  0  0  0
 22 66  1  0  0  0  0
 23 19  1  0  0  0  0
 24 18  2  0  0  0  0
 24 67  1  0  0  0  0
 25 22  1  0  0  0  0
 25 21  1  0  0  0  0
 25 68  1  1  0  0  0
 26 17  1  0  0  0  0
 26 44  1  0  0  0  0
 26 69  1  1  0  0  0
 27 16  2  0  0  0  0
 28 19  2  0  0  0  0
 29 70  1  0  0  0  0
 29 71  1  0  0  0  0
 30 31  1  0  0  0  0
 30 72  1  0  0  0  0
 31 32  2  0  0  0  0
 31 73  1  0  0  0  0
 32 34  1  0  0  0  0
 32 74  1  0  0  0  0
 33 30  2  0  0  0  0
 33 75  1  0  0  0  0
 34 36  2  0  0  0  0
 34 76  1  0  0  0  0
 35 33  1  0  0  0  0
 35 77  1  0  0  0  0
 36 25  1  0  0  0  0
 36 78  1  0  0  0  0
 37 79  1  0  0  0  0
 38 80  1  0  0  0  0
 39 35  2  0  0  0  0
 39 46  1  0  0  0  0
 39 81  1  0  0  0  0
 40 82  1  0  0  0  0
 41 83  1  0  0  0  0
 42 16  1  0  0  0  0
 42 84  1  0  0  0  0
 43 23  1  0  0  0  0
 43 47  1  0  0  0  0
 43 85  1  1  0  0  0
 44 86  1  0  0  0  0
 45 87  1  0  0  0  0
 45 88  1  0  0  0  0
 45 89  1  0  0  0  0
 46 43  1  0  0  0  0
 46 90  1  0  0  0  0
 46 91  1  0  0  0  0
 47 92  1  0  0  0  0
 47 93  1  0  0  0  0
 47 94  1  0  0  0  0
M  END
>  <DRUGBANK_ID>
DB00826

>  <SECONDARY_ACCESSION_NUMBERS>
APRD01136

>  <COMMON_NAME>
Natamycin

>  <CAS_NUMBER>
7681-93-8

>  <UNII>
8O0C852CPO

>  <SYNONYMS>
Natamicina; Natamycin; Natamycine; Natamycinum; Pimaracin; Pimaricin

$$$$
