
 OpenBabel10282417183D

 18 17  0  0  0  0  0  0  0  0999 V2000
    1.0162    0.4960   -0.1550 C   0  0  0  0  0  0  0  0  0  0  0  0
   -0.0077   -1.4200    1.6819 C   0  0  0  0  0  0  0  0  0  0  0  0
    2.9804    0.6227    3.9560 C   0  0  0  0  0  0  0  0  0  0  0  0
    4.0106    0.2746    3.1526 C   0  0  0  0  0  0  0  0  0  0  0  0
    5.5188   -0.2408    3.8159 Cl  0  0  0  0  0  0  0  0  0  0  0  0
    3.9571    0.4717    1.4590 Cl  0  0  0  0  0  0  0  0  0  0  0  0
   -0.6117    1.7054    2.9359 O   0  0  0  0  0  0  0  0  0  0  0  0
    1.1234    1.2307    1.0581 O   0  0  0  0  0  0  0  0  0  0  0  0
    0.4371   -0.6732    2.7772 O   0  0  0  0  0  0  0  0  0  0  0  0
    1.8304    1.2693    3.5814 O   0  0  0  0  0  0  0  0  0  0  0  0
    0.6088    0.9183    2.5631 P   0  0  0  0  0  0  0  0  0  0  0  0
    0.8584    1.1547   -1.0138 H   0  0  0  0  0  0  0  0  0  0  0  0
    0.2020   -0.2201   -0.2618 H   0  0  0  0  0  0  0  0  0  0  0  0
    1.9529   -0.0419   -0.3211 H   0  0  0  0  0  0  0  0  0  0  0  0
   -0.8119   -0.8706    1.1818 H   0  0  0  0  0  0  0  0  0  0  0  0
    0.8796   -1.5827    1.0658 H   0  0  0  0  0  0  0  0  0  0  0  0
   -0.3921   -2.4061    1.9279 H   0  0  0  0  0  0  0  0  0  0  0  0
    3.0648    0.5686    5.0356 H   0  0  0  0  0  0  0  0  0  0  0  0
  1 12  1  0  0  0  0
  1 13  1  0  0  0  0
  1 14  1  0  0  0  0
  2 15  1  0  0  0  0
  2 16  1  0  0  0  0
  2 17  1  0  0  0  0
  3 18  1  0  0  0  0
  4  3  2  0  0  0  0
  5  4  1  0  0  0  0
  6  4  1  0  0  0  0
  8  1  1  0  0  0  0
  9  2  1  0  0  0  0
 10  3  1  0  0  0  0
 11  7  2  0  0  0  0
 11  8  1  0  0  0  0
 11  9  1  0  0  0  0
 11 10  1  0  0  0  0
M  END
>  <DRUGBANK_ID>
DB11397

>  <COMMON_NAME>
Dichlorvos

>  <CAS_NUMBER>
62-73-7

>  <UNII>
7U370BPS14

>  <SYNONYMS>
2,2-Dichloroethenyl dimethyl phosphate; DDVP; Dichlorvos; Dimethyl 2,2-dichlorovinyl phosphate; Dimethyl-2,2-dichlorovinyl phosphate; Phosphoric acid, 2,2-dichloroethenyl dimethyl ester; Phosphoric acid, 2,2-dichlorovinyl dimethyl ester

$$$$
