2IG
 OpenBabel10282417163D

 53 56  0  0  0  0  0  0  0  0999 V2000
    1.2046    0.2442    0.0292 C   0  0  0  0  0  0  0  0  0  0  0  0
    0.0852    0.9956   -0.0245 N   0  0  0  0  0  0  0  0  0  0  0  0
   -1.0726    0.3438   -0.0433 C   0  0  0  0  0  0  0  0  0  0  0  0
   -1.2220   -0.9760   -0.0372 N   0  0  0  0  0  0  0  0  0  0  0  0
   -0.0897   -1.7252    0.0330 C   0  0  0  0  0  0  0  0  0  0  0  0
    1.1763   -1.1481    0.0859 C   0  0  0  0  0  0  0  0  0  0  0  0
    2.4005    0.9522    0.1639 N   0  0  0  0  0  0  0  0  0  0  0  0
   -2.2263    1.1015   -0.0762 N   0  0  0  0  0  0  0  0  0  0  0  0
   -0.3081   -3.2223    0.0682 C   0  0  0  0  0  0  0  0  0  0  0  0
   -1.0901   -3.6510    1.2948 C   0  0  0  0  0  0  0  0  0  0  0  0
    3.2674   -1.8396    1.2688 C   0  0  0  0  0  0  0  0  0  0  0  0
    4.4283   -2.6143    1.3665 C   0  0  0  0  0  0  0  0  0  0  0  0
    4.7422   -3.5353    0.3528 C   0  0  0  0  0  0  0  0  0  0  0  0
    3.8913   -3.6281   -0.7421 C   0  0  0  0  0  0  0  0  0  0  0  0
    2.7331   -2.8377   -0.8530 C   0  0  0  0  0  0  0  0  0  0  0  0
    2.4095   -1.9463    0.1738 C   0  0  0  0  0  0  0  0  0  0  0  0
    4.4172   -4.5804   -1.6058 N   0  0  0  0  0  0  0  0  0  0  0  0
    3.7009   -4.8714   -2.8488 C   0  0  0  0  0  0  0  0  0  0  0  0
    4.4758   -4.8146   -4.1511 C   0  0  0  0  0  0  0  0  0  0  0  0
    5.6622   -5.7321   -4.2020 C   0  0  0  0  0  0  0  0  0  0  0  0
    5.3932   -7.1374   -4.0710 O   0  0  0  0  0  0  0  0  0  0  0  0
    4.5200   -7.6900   -3.0781 C   0  0  0  0  0  0  0  0  0  0  0  0
    6.5370   -6.1186   -1.3945 C   0  0  0  0  0  0  0  0  0  0  0  0
    5.5831   -5.1255   -1.0419 C   0  0  0  0  0  0  0  0  0  0  0  0
    5.8110   -4.4592    0.1667 C   0  0  0  0  0  0  0  0  0  0  0  0
    6.9698   -4.7932    0.9260 C   0  0  0  0  0  0  0  0  0  0  0  0
    7.8875   -5.7667    0.5051 C   0  0  0  0  0  0  0  0  0  0  0  0
    7.6654   -6.4352   -0.6623 C   0  0  0  0  0  0  0  0  0  0  0  0
    2.2915    1.9340   -0.0573 H   0  0  0  0  0  0  0  0  0  0  0  0
    3.2285    0.5022   -0.2100 H   0  0  0  0  0  0  0  0  0  0  0  0
   -2.1227    2.0867    0.0703 H   0  0  0  0  0  0  0  0  0  0  0  0
   -3.0928    0.6115    0.0388 H   0  0  0  0  0  0  0  0  0  0  0  0
   -0.8199   -3.5320   -0.8508 H   0  0  0  0  0  0  0  0  0  0  0  0
    0.6275   -3.7842    0.0922 H   0  0  0  0  0  0  0  0  0  0  0  0
   -2.0986   -3.2289    1.2919 H   0  0  0  0  0  0  0  0  0  0  0  0
   -1.1721   -4.7420    1.3211 H   0  0  0  0  0  0  0  0  0  0  0  0
   -0.5806   -3.3255    2.2080 H   0  0  0  0  0  0  0  0  0  0  0  0
    3.0373   -1.1381    2.0677 H   0  0  0  0  0  0  0  0  0  0  0  0
    5.0826   -2.5097    2.2241 H   0  0  0  0  0  0  0  0  0  0  0  0
    2.0551   -2.9274   -1.6994 H   0  0  0  0  0  0  0  0  0  0  0  0
    3.0973   -5.7619   -2.6846 H   0  0  0  0  0  0  0  0  0  0  0  0
    2.9200   -4.1182   -2.9986 H   0  0  0  0  0  0  0  0  0  0  0  0
    3.8177   -5.0557   -4.9923 H   0  0  0  0  0  0  0  0  0  0  0  0
    4.8160   -3.7795   -4.2979 H   0  0  0  0  0  0  0  0  0  0  0  0
    6.1922   -5.6117   -5.1514 H   0  0  0  0  0  0  0  0  0  0  0  0
    6.4188   -5.3260   -3.5253 H   0  0  0  0  0  0  0  0  0  0  0  0
    4.6766   -7.3777   -2.0414 H   0  0  0  0  0  0  0  0  0  0  0  0
    3.4775   -7.5122   -3.3288 H   0  0  0  0  0  0  0  0  0  0  0  0
    4.6639   -8.7718   -3.0526 H   0  0  0  0  0  0  0  0  0  0  0  0
    6.5079   -6.7237   -2.2793 H   0  0  0  0  0  0  0  0  0  0  0  0
    7.1650   -4.2754    1.8572 H   0  0  0  0  0  0  0  0  0  0  0  0
    8.7746   -6.0073    1.0789 H   0  0  0  0  0  0  0  0  0  0  0  0
    8.3379   -7.1990   -1.0494 H   0  0  0  0  0  0  0  0  0  0  0  0
  1  2  1  0  0  0  0
  1  6  2  0  0  0  0
  1  7  1  0  0  0  0
  2  3  2  0  0  0  0
  3  4  1  0  0  0  0
  3  8  1  0  0  0  0
  4  5  2  0  0  0  0
  5  6  1  0  0  0  0
  5  9  1  0  0  0  0
  6 16  1  0  0  0  0
  7 29  1  0  0  0  0
  7 30  1  0  0  0  0
  8 31  1  0  0  0  0
  8 32  1  0  0  0  0
  9 10  1  0  0  0  0
  9 33  1  0  0  0  0
  9 34  1  0  0  0  0
 10 35  1  0  0  0  0
 10 36  1  0  0  0  0
 10 37  1  0  0  0  0
 11 12  2  0  0  0  0
 11 16  1  0  0  0  0
 11 38  1  0  0  0  0
 12 13  1  0  0  0  0
 12 39  1  0  0  0  0
 13 14  2  0  0  0  0
 13 25  1  0  0  0  0
 14 15  1  0  0  0  0
 14 17  1  0  0  0  0
 15 16  2  0  0  0  0
 15 40  1  0  0  0  0
 17 18  1  0  0  0  0
 17 24  1  0  0  0  0
 18 19  1  0  0  0  0
 18 41  1  0  0  0  0
 18 42  1  0  0  0  0
 19 20  1  0  0  0  0
 19 43  1  0  0  0  0
 19 44  1  0  0  0  0
 20 21  1  0  0  0  0
 20 45  1  0  0  0  0
 20 46  1  0  0  0  0
 21 22  1  0  0  0  0
 22 47  1  0  0  0  0
 22 48  1  0  0  0  0
 22 49  1  0  0  0  0
 23 24  2  0  0  0  0
 23 28  1  0  0  0  0
 23 50  1  0  0  0  0
 24 25  1  0  0  0  0
 25 26  2  0  0  0  0
 26 27  1  0  0  0  0
 26 51  1  0  0  0  0
 27 28  2  0  0  0  0
 27 52  1  0  0  0  0
 28 53  1  0  0  0  0
M  END
>  <DRUGBANK_ID>
DB06967

>  <COMMON_NAME>
6-ETHYL-5-[9-(3-METHOXYPROPYL)-9H-CARBAZOL-2-YL]PYRIMIDINE-2,4-DIAMINE

$$$$
