812
 OpenBabel10282417163D

 43 45  0  0  0  0  0  0  0  0999 V2000
   -0.7993   -0.9006   -0.5734 C   0  0  0  0  0  0  0  0  0  0  0  0
   -1.0393    0.5237   -0.2558 N   0  0  0  0  0  0  0  0  0  0  0  0
    0.6847   -1.2052   -0.3665 C   0  0  0  0  0  0  0  0  0  0  0  0
    1.3629    0.1555   -0.3929 C   0  0  0  0  0  0  0  0  0  0  0  0
    0.2796    1.2011   -0.1020 C   0  0  2  0  0  0  0  0  0  0  0  0
    0.4518    2.0558    1.2202 C   0  0  0  0  0  0  0  0  0  0  0  0
    1.2128    1.5782    2.3560 O   0  0  0  0  0  0  0  0  0  0  0  0
    0.8269    0.4654    3.0371 C   0  0  0  0  0  0  0  0  0  0  0  0
    1.2896    0.1802    4.2895 C   0  0  0  0  0  0  0  0  0  0  0  0
    1.0670   -1.1049    4.8443 C   0  0  0  0  0  0  0  0  0  0  0  0
    0.3692   -2.1258    4.1663 C   0  0  0  0  0  0  0  0  0  0  0  0
   -0.0947   -1.8178    2.9311 C   0  0  0  0  0  0  0  0  0  0  0  0
    0.0569   -0.5203    2.4742 C   0  0  0  0  0  0  0  0  0  0  0  0
    0.1982   -3.4289    4.6055 N   0  0  0  0  0  0  0  0  0  0  0  0
    0.2515   -3.7100    6.0197 C   0  0  0  0  0  0  0  0  0  0  0  0
   -1.1248   -3.8566    6.6105 C   0  0  0  0  0  0  0  0  0  0  0  0
   -1.9220   -2.7337    6.8869 C   0  0  0  0  0  0  0  0  0  0  0  0
   -3.1893   -2.8894    7.4499 C   0  0  0  0  0  0  0  0  0  0  0  0
   -3.6792   -4.1673    7.7130 C   0  0  0  0  0  0  0  0  0  0  0  0
   -2.9011   -5.2874    7.4248 C   0  0  0  0  0  0  0  0  0  0  0  0
   -1.6187   -5.1320    6.9041 C   0  0  0  0  0  0  0  0  0  0  0  0
    0.2744    1.9272   -0.9249 H   0  0  0  0  0  0  0  0  0  0  0  0
   -1.0729   -1.0649   -1.6144 H   0  0  0  0  0  0  0  0  0  0  0  0
   -1.4399   -1.5544    0.0383 H   0  0  0  0  0  0  0  0  0  0  0  0
   -1.5966    0.6255    0.5988 H   0  0  0  0  0  0  0  0  0  0  0  0
    0.9112   -1.7010    0.5810 H   0  0  0  0  0  0  0  0  0  0  0  0
    1.0718   -1.9192   -1.0962 H   0  0  0  0  0  0  0  0  0  0  0  0
    2.1972    0.2093    0.3135 H   0  0  0  0  0  0  0  0  0  0  0  0
    1.7671    0.3024   -1.3983 H   0  0  0  0  0  0  0  0  0  0  0  0
    0.9801    2.9699    0.9078 H   0  0  0  0  0  0  0  0  0  0  0  0
   -0.5164    2.4162    1.5901 H   0  0  0  0  0  0  0  0  0  0  0  0
    1.8203    0.9330    4.8650 H   0  0  0  0  0  0  0  0  0  0  0  0
    1.4909   -1.2838    5.8187 H   0  0  0  0  0  0  0  0  0  0  0  0
   -0.5587   -2.5496    2.2681 H   0  0  0  0  0  0  0  0  0  0  0  0
   -0.3970   -0.3322    1.5670 H   0  0  0  0  0  0  0  0  0  0  0  0
   -0.5137   -3.9584    4.1014 H   0  0  0  0  0  0  0  0  0  0  0  0
    0.8267   -4.6317    6.1359 H   0  0  0  0  0  0  0  0  0  0  0  0
    0.7877   -2.9553    6.5933 H   0  0  0  0  0  0  0  0  0  0  0  0
   -1.5559   -1.7316    6.6700 H   0  0  0  0  0  0  0  0  0  0  0  0
   -3.7975   -2.0163    7.6732 H   0  0  0  0  0  0  0  0  0  0  0  0
   -4.6689   -4.2923    8.1433 H   0  0  0  0  0  0  0  0  0  0  0  0
   -3.2924   -6.2848    7.6026 H   0  0  0  0  0  0  0  0  0  0  0  0
   -0.9992   -6.0091    6.7322 H   0  0  0  0  0  0  0  0  0  0  0  0
  1  3  1  0  0  0  0
  1 23  1  0  0  0  0
  1 24  1  0  0  0  0
  2  1  1  0  0  0  0
  2 25  1  0  0  0  0
  3 26  1  0  0  0  0
  3 27  1  0  0  0  0
  4  3  1  0  0  0  0
  4 28  1  0  0  0  0
  4 29  1  0  0  0  0
  5  2  1  0  0  0  0
  5  4  1  0  0  0  0
  5  6  1  0  0  0  0
  5 22  1  6  0  0  0
  6  7  1  0  0  0  0
  6 30  1  0  0  0  0
  6 31  1  0  0  0  0
  7  8  1  0  0  0  0
  8 13  1  0  0  0  0
  9  8  2  0  0  0  0
  9 10  1  0  0  0  0
  9 32  1  0  0  0  0
 10 11  2  0  0  0  0
 10 33  1  0  0  0  0
 11 14  1  0  0  0  0
 11 12  1  0  0  0  0
 12 34  1  0  0  0  0
 13 12  2  0  0  0  0
 13 35  1  0  0  0  0
 14 15  1  0  0  0  0
 14 36  1  0  0  0  0
 15 16  1  0  0  0  0
 15 37  1  0  0  0  0
 15 38  1  0  0  0  0
 16 17  1  0  0  0  0
 17 18  2  0  0  0  0
 17 39  1  0  0  0  0
 18 40  1  0  0  0  0
 19 18  1  0  0  0  0
 19 41  1  0  0  0  0
 20 19  2  0  0  0  0
 20 42  1  0  0  0  0
 21 16  2  0  0  0  0
 21 20  1  0  0  0  0
 21 43  1  0  0  0  0
M  END
>  <DRUGBANK_ID>
DB07260

>  <COMMON_NAME>
N-benzyl-4-[(2R)-pyrrolidin-2-ylmethoxy]aniline

$$$$
