
 OpenBabel10282417143D

 81 85  0  0  1  0  0  0  0  0999 V2000
    0.7067    0.3793   -0.1053 O   0  0  0  0  0  0  0  0  0  0  0  0
    1.8955    0.3170   -0.0767 C   0  0  0  0  0  0  0  0  0  0  0  0
    2.7686    1.4066   -0.0987 N   0  0  0  0  0  0  0  0  0  0  0  0
    4.1531    1.3602   -0.0359 C   0  0  0  0  0  0  0  0  0  0  0  0
    4.7600    0.1764    0.1846 C   0  0  0  0  0  0  0  0  0  0  0  0
    3.7684   -0.8577    0.6555 C   0  0  0  0  0  0  0  0  0  0  0  0
    2.5419   -0.9741    0.1601 C   0  0  0  0  0  0  0  0  0  0  0  0
    6.3769    0.0111    0.0275 C   0  0  2  0  0  0  0  0  0  0  0  0
    7.0291    1.3458   -0.4470 C   0  0  0  0  0  0  0  0  0  0  0  0
    6.3953    2.5069    0.2993 C   0  0  0  0  0  0  0  0  0  0  0  0
    4.9254    2.6468   -0.1235 C   0  0  0  0  0  0  0  0  0  0  0  0
    7.0304   -1.0050   -0.8883 N   0  0  0  0  0  0  0  0  0  0  0  0
    6.7639   -2.4200   -0.5876 C   0  0  0  0  0  0  0  0  0  0  0  0
    5.2877   -2.5479   -0.6251 C   0  0  0  0  0  0  0  0  0  0  0  0
    4.5961   -2.0578   -1.9312 C   0  0  0  0  0  0  0  0  0  0  0  0
    4.9052   -3.1648   -2.9068 C   0  0  0  0  0  0  0  0  0  0  0  0
    4.2668   -4.4631   -2.3842 C   0  0  0  0  0  0  0  0  0  0  0  0
    2.7368   -4.3514   -2.3471 C   0  0  0  0  0  0  0  0  0  0  0  0
    2.2170   -4.0534   -3.7538 C   0  0  0  0  0  0  0  0  0  0  0  0
    2.6471   -5.1627   -4.7190 C   0  0  0  0  0  0  0  0  0  0  0  0
    2.0694   -6.5136   -4.2867 C   0  0  0  0  0  0  0  0  0  0  0  0
    0.5392   -6.4921   -4.2038 C   0  0  0  0  0  0  0  0  0  0  0  0
   -0.0745   -6.1911   -5.4787 N   0  0  0  0  0  0  0  0  0  0  0  0
   -0.8918   -7.1547   -6.0975 C   0  0  0  0  0  0  0  0  0  0  0  0
   -0.5618   -7.5050   -7.4602 C   0  0  0  0  0  0  0  0  0  0  0  0
    0.6196   -6.9385   -8.2476 C   0  0  0  0  0  0  0  0  0  0  0  0
    0.9967   -7.7754   -9.4890 C   0  0  0  0  0  0  0  0  0  0  0  0
   -0.2540   -8.0636  -10.3052 C   0  0  0  0  0  0  0  0  0  0  0  0
   -1.1638   -8.9575   -9.4798 C   0  0  0  0  0  0  0  0  0  0  0  0
   -1.3834   -8.4400   -8.0782 C   0  0  0  0  0  0  0  0  0  0  0  0
   -2.4442   -8.9772   -7.4511 N   0  0  0  0  0  0  0  0  0  0  0  0
   -2.7290   -8.6441   -6.1741 C   0  0  0  0  0  0  0  0  0  0  0  0
   -3.9077   -9.1239   -5.6609 C   0  0  0  0  0  0  0  0  0  0  0  0
   -4.4434   -8.7528   -4.3993 C   0  0  0  0  0  0  0  0  0  0  0  0
   -3.6692   -8.6914   -3.2753 C   0  0  0  0  0  0  0  0  0  0  0  0
   -2.5864   -7.9572   -3.8231 C   0  0  0  0  0  0  0  0  0  0  0  0
   -1.9963   -7.8569   -5.3169 C   0  0  0  0  0  0  0  0  0  0  0  0
    2.2926    2.2930   -0.1397 H   0  0  0  0  0  0  0  0  0  0  0  0
    4.0052   -1.7439    1.2393 H   0  0  0  0  0  0  0  0  0  0  0  0
    1.9735   -1.8957    0.2276 H   0  0  0  0  0  0  0  0  0  0  0  0
    6.7646   -0.1833    1.0331 H   0  0  0  0  0  0  0  0  0  0  0  0
    6.9037    1.5005   -1.5309 H   0  0  0  0  0  0  0  0  0  0  0  0
    8.1166    1.3361   -0.2723 H   0  0  0  0  0  0  0  0  0  0  0  0
    6.4732    2.3203    1.3791 H   0  0  0  0  0  0  0  0  0  0  0  0
    6.9374    3.4382    0.1009 H   0  0  0  0  0  0  0  0  0  0  0  0
    4.4540    3.3765    0.5424 H   0  0  0  0  0  0  0  0  0  0  0  0
    4.8805    3.0374   -1.1455 H   0  0  0  0  0  0  0  0  0  0  0  0
    6.7447   -0.8104   -1.8478 H   0  0  0  0  0  0  0  0  0  0  0  0
    7.1870   -3.1708   -1.2513 H   0  0  0  0  0  0  0  0  0  0  0  0
    7.1170   -2.6523    0.4294 H   0  0  0  0  0  0  0  0  0  0  0  0
    4.7746   -3.4084   -0.2038 H   0  0  0  0  0  0  0  0  0  0  0  0
    5.2924   -2.0117    0.2835 H   0  0  0  0  0  0  0  0  0  0  0  0
    3.5075   -1.9362   -1.8794 H   0  0  0  0  0  0  0  0  0  0  0  0
    4.9013   -1.0808   -2.3336 H   0  0  0  0  0  0  0  0  0  0  0  0
    4.5710   -2.9003   -3.9114 H   0  0  0  0  0  0  0  0  0  0  0  0
    5.9874   -3.2685   -2.9886 H   0  0  0  0  0  0  0  0  0  0  0  0
    4.6157   -5.2939   -2.9936 H   0  0  0  0  0  0  0  0  0  0  0  0
    4.6187   -4.7574   -1.3933 H   0  0  0  0  0  0  0  0  0  0  0  0
    2.3138   -5.2737   -1.9369 H   0  0  0  0  0  0  0  0  0  0  0  0
    2.3802   -3.5846   -1.6508 H   0  0  0  0  0  0  0  0  0  0  0  0
    1.1322   -3.9299   -3.7338 H   0  0  0  0  0  0  0  0  0  0  0  0
    2.5781   -3.0856   -4.1155 H   0  0  0  0  0  0  0  0  0  0  0  0
    2.3440   -4.9095   -5.7362 H   0  0  0  0  0  0  0  0  0  0  0  0
    3.7404   -5.2350   -4.7789 H   0  0  0  0  0  0  0  0  0  0  0  0
    2.4288   -7.2976   -4.9596 H   0  0  0  0  0  0  0  0  0  0  0  0
    2.4620   -6.7939   -3.2987 H   0  0  0  0  0  0  0  0  0  0  0  0
    0.2088   -7.4520   -3.8085 H   0  0  0  0  0  0  0  0  0  0  0  0
    0.1964   -5.7326   -3.4965 H   0  0  0  0  0  0  0  0  0  0  0  0
    0.3617   -5.4804   -6.0622 H   0  0  0  0  0  0  0  0  0  0  0  0
    1.5152   -6.8684   -7.6195 H   0  0  0  0  0  0  0  0  0  0  0  0
    0.3672   -5.9262   -8.5892 H   0  0  0  0  0  0  0  0  0  0  0  0
    1.4583   -8.7234   -9.1784 H   0  0  0  0  0  0  0  0  0  0  0  0
    1.7359   -7.2508  -10.1060 H   0  0  0  0  0  0  0  0  0  0  0  0
   -0.7695   -7.1254  -10.5460 H   0  0  0  0  0  0  0  0  0  0  0  0
   -0.0064   -8.5512  -11.2554 H   0  0  0  0  0  0  0  0  0  0  0  0
   -2.1307   -9.0564   -9.9874 H   0  0  0  0  0  0  0  0  0  0  0  0
   -0.7304   -9.9654   -9.4172 H   0  0  0  0  0  0  0  0  0  0  0  0
   -4.3973   -9.9404   -6.1841 H   0  0  0  0  0  0  0  0  0  0  0  0
   -4.7956   -7.6971   -4.2525 H   0  0  0  0  0  0  0  0  0  0  0  0
   -4.5254   -9.3237   -2.9274 H   0  0  0  0  0  0  0  0  0  0  0  0
   -2.2085   -7.1578   -3.1686 H   0  0  0  0  0  0  0  0  0  0  0  0
  1  2  2  0  0  0  0
  2  3  1  0  0  0  0
  2  7  1  0  0  0  0
  3  4  1  0  0  0  0
  3 38  1  0  0  0  0
  4  5  2  0  0  0  0
  4 11  1  0  0  0  0
  5  6  1  0  0  0  0
  5  8  1  0  0  0  0
  6  7  2  0  0  0  0
  6 39  1  0  0  0  0
  7 40  1  0  0  0  0
  8  9  1  0  0  0  0
  8 12  1  0  0  0  0
  8 41  1  1  0  0  0
  9 10  1  0  0  0  0
  9 42  1  0  0  0  0
  9 43  1  0  0  0  0
 10 11  1  0  0  0  0
 10 44  1  0  0  0  0
 10 45  1  0  0  0  0
 11 46  1  0  0  0  0
 11 47  1  0  0  0  0
 12 13  1  0  0  0  0
 12 48  1  0  0  0  0
 13 14  1  0  0  0  0
 13 49  1  0  0  0  0
 13 50  1  0  0  0  0
 14 15  1  0  0  0  0
 14 51  1  0  0  0  0
 14 52  1  0  0  0  0
 15 16  1  0  0  0  0
 15 53  1  0  0  0  0
 15 54  1  0  0  0  0
 16 17  1  0  0  0  0
 16 55  1  0  0  0  0
 16 56  1  0  0  0  0
 17 18  1  0  0  0  0
 17 57  1  0  0  0  0
 17 58  1  0  0  0  0
 18 19  1  0  0  0  0
 18 59  1  0  0  0  0
 18 60  1  0  0  0  0
 19 20  1  0  0  0  0
 19 61  1  0  0  0  0
 19 62  1  0  0  0  0
 20 21  1  0  0  0  0
 20 63  1  0  0  0  0
 20 64  1  0  0  0  0
 21 22  1  0  0  0  0
 21 65  1  0  0  0  0
 21 66  1  0  0  0  0
 22 23  1  0  0  0  0
 22 67  1  0  0  0  0
 22 68  1  0  0  0  0
 23 24  1  0  0  0  0
 23 69  1  0  0  0  0
 24 25  2  0  0  0  0
 24 37  1  0  0  0  0
 25 26  1  0  0  0  0
 25 30  1  0  0  0  0
 26 27  1  0  0  0  0
 26 70  1  0  0  0  0
 26 71  1  0  0  0  0
 27 28  1  0  0  0  0
 27 72  1  0  0  0  0
 27 73  1  0  0  0  0
 28 29  1  0  0  0  0
 28 74  1  0  0  0  0
 28 75  1  0  0  0  0
 29 30  1  0  0  0  0
 29 76  1  0  0  0  0
 29 77  1  0  0  0  0
 30 31  2  0  0  0  0
 31 32  1  0  0  0  0
 32 33  2  0  0  0  0
 32 37  1  0  0  0  0
 33 34  1  0  0  0  0
 33 78  1  0  0  0  0
 34 35  2  0  0  0  0
 34 79  1  0  0  0  0
 35 36  1  0  0  0  0
 35 80  1  0  0  0  0
 36 37  2  0  0  0  0
 36 81  1  0  0  0  0
M  END
>  <DRUGBANK_ID>
DB04615

>  <COMMON_NAME>
(S)-tacrine(10)-hupyridone

$$$$
