1463
 OpenBabel10282417113D

 37 39  0  0  1  0  0  0  0  0999 V2000
    0.9600   -0.1633   -0.0229 N   0  0  0  0  0  0  0  0  0  0  0  0
   -1.0612    1.7521   -2.2021 C   0  0  3  0  0  0  0  0  0  0  0  0
   -0.9513   -0.3931   -1.6640 C   0  0  3  0  0  0  0  0  0  0  0  0
    0.4390    1.5951   -1.8111 C   0  0  3  0  0  0  0  0  0  0  0  0
    0.5105    0.0700   -1.4035 C   0  0  3  0  0  0  0  0  0  0  0  0
   -1.7556    0.8192   -1.2128 C   0  0  0  0  0  0  0  0  0  0  0  0
   -1.3000    1.0384   -3.5455 C   0  0  0  0  0  0  0  0  0  0  0  0
   -1.2048   -0.4377   -3.1751 C   0  0  0  0  0  0  0  0  0  0  0  0
    0.9851    2.6063   -0.8141 C   0  0  0  0  0  0  0  0  0  0  0  0
    0.5957   -1.4490    0.5503 C   0  0  0  0  0  0  0  0  0  0  0  0
    2.3293    2.5154   -0.4218 C   0  0  0  0  0  0  0  0  0  0  0  0
    0.2318    3.6909   -0.3388 C   0  0  0  0  0  0  0  0  0  0  0  0
    1.0981   -2.6114   -0.2909 C   0  0  0  0  0  0  0  0  0  0  0  0
    2.9088    3.4678    0.4144 C   0  0  0  0  0  0  0  0  0  0  0  0
    0.8345    4.6900    0.4272 C   0  0  0  0  0  0  0  0  0  0  0  0
    2.1626    4.5745    0.8118 C   0  0  0  0  0  0  0  0  0  0  0  0
    1.9739   -0.0661    0.0141 H   0  0  0  0  0  0  0  0  0  0  0  0
   -1.4449    2.7716   -2.2338 H   0  0  0  0  0  0  0  0  0  0  0  0
   -1.2513   -1.3348   -1.2063 H   0  0  0  0  0  0  0  0  0  0  0  0
    1.0469    1.7478   -2.7153 H   0  0  0  0  0  0  0  0  0  0  0  0
    1.2046   -0.4377   -2.0872 H   0  0  0  0  0  0  0  0  0  0  0  0
   -2.8292    0.7104   -1.3878 H   0  0  0  0  0  0  0  0  0  0  0  0
   -1.5839    1.0859   -0.1637 H   0  0  0  0  0  0  0  0  0  0  0  0
   -0.5678    1.3203   -4.3079 H   0  0  0  0  0  0  0  0  0  0  0  0
   -2.3002    1.2634   -3.9311 H   0  0  0  0  0  0  0  0  0  0  0  0
   -0.4084   -0.9571   -3.7177 H   0  0  0  0  0  0  0  0  0  0  0  0
   -2.1502   -0.9483   -3.3885 H   0  0  0  0  0  0  0  0  0  0  0  0
    1.0270   -1.5115    1.5551 H   0  0  0  0  0  0  0  0  0  0  0  0
   -0.4870   -1.4986    0.7054 H   0  0  0  0  0  0  0  0  0  0  0  0
    2.9447    1.6856   -0.7638 H   0  0  0  0  0  0  0  0  0  0  0  0
   -0.8226    3.7954   -0.5611 H   0  0  0  0  0  0  0  0  0  0  0  0
    2.1916   -2.6115   -0.3288 H   0  0  0  0  0  0  0  0  0  0  0  0
    0.7557   -3.5574    0.1332 H   0  0  0  0  0  0  0  0  0  0  0  0
    0.7331   -2.5707   -1.3225 H   0  0  0  0  0  0  0  0  0  0  0  0
    3.9393    3.3556    0.7288 H   0  0  0  0  0  0  0  0  0  0  0  0
    0.2542    5.5655    0.7110 H   0  0  0  0  0  0  0  0  0  0  0  0
    2.6231    5.3461    1.4212 H   0  0  0  0  0  0  0  0  0  0  0  0
  1  5  1  0  0  0  0
  1 10  1  0  0  0  0
  1 17  1  0  0  0  0
  2  4  1  0  0  0  0
  2  6  1  0  0  0  0
  2  7  1  0  0  0  0
  2 18  1  0  0  0  0
  3  5  1  0  0  0  0
  3  6  1  0  0  0  0
  3  8  1  0  0  0  0
  3 19  1  0  0  0  0
  4  5  1  0  0  0  0
  4  9  1  0  0  0  0
  4 20  1  0  0  0  0
  5 21  1  0  0  0  0
  6 22  1  0  0  0  0
  6 23  1  0  0  0  0
  7  8  1  0  0  0  0
  7 24  1  0  0  0  0
  7 25  1  0  0  0  0
  8 26  1  0  0  0  0
  8 27  1  0  0  0  0
  9 11  2  0  0  0  0
  9 12  1  0  0  0  0
 10 13  1  0  0  0  0
 10 28  1  0  0  0  0
 10 29  1  0  0  0  0
 11 14  1  0  0  0  0
 11 30  1  0  0  0  0
 12 15  2  0  0  0  0
 12 31  1  0  0  0  0
 13 32  1  0  0  0  0
 13 33  1  0  0  0  0
 13 34  1  0  0  0  0
 14 16  2  0  0  0  0
 14 35  1  0  0  0  0
 15 16  1  0  0  0  0
 15 36  1  0  0  0  0
 16 37  1  0  0  0  0
M  END
>  <DRUGBANK_ID>
DB01463

>  <COMMON_NAME>
Fencamfamin

>  <CAS_NUMBER>
1209-98-9

>  <UNII>
NME1I5IGBK

>  <SYNONYMS>
Fencamfamin; Fencamfamina; Fencamfamine; Fencamfaminum; Fencanfamina; Phencamphamine

$$$$
