
 OpenBabel10282417223D

 49 53  0  0  1  0  0  0  0  0999 V2000
   -0.8341   -1.1044   -1.3898 C   0  0  0  0  0  0  0  0  0  0  0  0
    0.5673   -1.3204   -1.9379 C   0  0  0  0  0  0  0  0  0  0  0  0
    1.0935    0.0413   -2.3896 C   0  0  2  0  0  0  0  0  0  0  0  0
    0.8392    1.0340   -1.3306 N   0  0  0  0  0  0  0  0  0  0  0  0
   -0.2175    1.9377   -1.2595 C   0  0  0  0  0  0  0  0  0  0  0  0
   -0.0565    3.0977   -0.4947 C   0  0  0  0  0  0  0  0  0  0  0  0
    0.9901    3.5287    0.2876 N   0  0  0  0  0  0  0  0  0  0  0  0
    0.6738    4.7628    0.6027 C   0  0  0  0  0  0  0  0  0  0  0  0
   -0.5485    5.1241    0.1064 N   0  0  0  0  0  0  0  0  0  0  0  0
   -1.0477    4.0580   -0.5810 C   0  0  0  0  0  0  0  0  0  0  0  0
   -2.2123    3.9927   -1.2410 N   0  0  0  0  0  0  0  0  0  0  0  0
   -2.3129    2.8158   -1.8854 C   0  0  0  0  0  0  0  0  0  0  0  0
   -1.3888    1.8289   -1.9569 N   0  0  0  0  0  0  0  0  0  0  0  0
    0.6320    0.5442   -3.7834 C   0  0  0  0  0  0  0  0  0  0  0  0
    0.0871   -0.1642   -4.8203 C   0  0  0  0  0  0  0  0  0  0  0  0
   -0.1307    0.5756   -6.0947 C   0  0  0  0  0  0  0  0  0  0  0  0
   -0.4609   -0.0051   -7.1384 O   0  0  0  0  0  0  0  0  0  0  0  0
    0.0695    2.0191   -6.1023 C   0  0  0  0  0  0  0  0  0  0  0  0
   -0.1224    2.7655   -7.2626 C   0  0  0  0  0  0  0  0  0  0  0  0
    0.0650    4.1456   -7.2314 C   0  0  0  0  0  0  0  0  0  0  0  0
    0.4106    4.7794   -6.0359 C   0  0  0  0  0  0  0  0  0  0  0  0
    0.6125    4.0244   -4.8814 C   0  0  0  0  0  0  0  0  0  0  0  0
    0.4825    2.6371   -4.9391 C   0  0  0  0  0  0  0  0  0  0  0  0
    0.8636    1.9236   -3.8503 O   0  0  0  0  0  0  0  0  0  0  0  0
   -0.2035   -1.6292   -4.8613 C   0  0  0  0  0  0  0  0  0  0  0  0
    0.6777   -2.4989   -5.5214 C   0  0  0  0  0  0  0  0  0  0  0  0
    0.5760   -3.8874   -5.3516 C   0  0  0  0  0  0  0  0  0  0  0  0
   -0.3627   -4.4198   -4.4703 C   0  0  0  0  0  0  0  0  0  0  0  0
   -1.2612   -3.5662   -3.8515 C   0  0  0  0  0  0  0  0  0  0  0  0
   -2.0539   -4.0419   -2.8791 F   0  0  0  0  0  0  0  0  0  0  0  0
   -1.2578   -2.1966   -4.1277 C   0  0  0  0  0  0  0  0  0  0  0  0
   -0.7577   -0.7030   -0.3766 H   0  0  0  0  0  0  0  0  0  0  0  0
   -1.5002   -1.9602   -1.3693 H   0  0  0  0  0  0  0  0  0  0  0  0
   -1.3430   -0.3707   -2.0146 H   0  0  0  0  0  0  0  0  0  0  0  0
    1.1751   -1.8648   -1.2102 H   0  0  0  0  0  0  0  0  0  0  0  0
    0.6595   -1.9856   -2.7837 H   0  0  0  0  0  0  0  0  0  0  0  0
    2.1905   -0.0438   -2.4538 H   0  0  0  0  0  0  0  0  0  0  0  0
    1.1306    0.7581   -0.3960 H   0  0  0  0  0  0  0  0  0  0  0  0
    1.3000    5.4348    1.1704 H   0  0  0  0  0  0  0  0  0  0  0  0
   -0.9937    6.0246    0.1802 H   0  0  0  0  0  0  0  0  0  0  0  0
   -3.2447    2.6423   -2.4202 H   0  0  0  0  0  0  0  0  0  0  0  0
   -0.3949    2.2641   -8.1877 H   0  0  0  0  0  0  0  0  0  0  0  0
   -0.0595    4.7236   -8.1423 H   0  0  0  0  0  0  0  0  0  0  0  0
    0.5477    5.8572   -6.0115 H   0  0  0  0  0  0  0  0  0  0  0  0
    0.8944    4.5090   -3.9490 H   0  0  0  0  0  0  0  0  0  0  0  0
    1.4717   -2.0977   -6.1477 H   0  0  0  0  0  0  0  0  0  0  0  0
    1.2658   -4.5481   -5.8687 H   0  0  0  0  0  0  0  0  0  0  0  0
   -0.3928   -5.4826   -4.2518 H   0  0  0  0  0  0  0  0  0  0  0  0
   -1.9738   -1.5702   -3.6078 H   0  0  0  0  0  0  0  0  0  0  0  0
  1  2  1  0  0  0  0
  1 32  1  0  0  0  0
  1 33  1  0  0  0  0
  1 34  1  0  0  0  0
  2 35  1  0  0  0  0
  2 36  1  0  0  0  0
  3 14  1  0  0  0  0
  3 37  1  6  0  0  0
  3  4  1  0  0  0  0
  3  2  1  0  0  0  0
  4  5  1  0  0  0  0
  4 38  1  0  0  0  0
  5  6  2  0  0  0  0
  5 13  1  0  0  0  0
  6  7  1  0  0  0  0
  6 10  1  0  0  0  0
  7  8  2  0  0  0  0
  8  9  1  0  0  0  0
  8 39  1  0  0  0  0
  9 10  1  0  0  0  0
  9 40  1  0  0  0  0
 10 11  2  0  0  0  0
 11 12  1  0  0  0  0
 12 13  2  0  0  0  0
 12 41  1  0  0  0  0
 14 15  2  0  0  0  0
 14 24  1  0  0  0  0
 15 16  1  0  0  0  0
 15 25  1  0  0  0  0
 16 17  2  0  0  0  0
 16 18  1  0  0  0  0
 18 19  2  0  0  0  0
 18 23  1  0  0  0  0
 19 20  1  0  0  0  0
 19 42  1  0  0  0  0
 20 21  2  0  0  0  0
 20 43  1  0  0  0  0
 21 22  1  0  0  0  0
 21 44  1  0  0  0  0
 22 23  2  0  0  0  0
 22 45  1  0  0  0  0
 23 24  1  0  0  0  0
 25 26  2  0  0  0  0
 25 31  1  0  0  0  0
 26 27  1  0  0  0  0
 26 46  1  0  0  0  0
 27 28  2  0  0  0  0
 27 47  1  0  0  0  0
 28 29  1  0  0  0  0
 28 48  1  0  0  0  0
 29 30  1  0  0  0  0
 29 31  2  0  0  0  0
 31 49  1  0  0  0  0
M  END
>  <DRUGBANK_ID>
DB15295

>  <COMMON_NAME>
Tenalisib

>  <CAS_NUMBER>
1639417-53-0

>  <UNII>
2261HH611H

>  <SYNONYMS>
(S)-2-(1-(9H-Purin-6-Ylamino)Propyl)-3-(3-Fluorophenyl)-4H-Chromen-4-One); 3-(3-FLUOROPHENYL)-2-((1S)-1-((7H-PURIN-6-YL)AMINO)PROPYL)-4H-1-BENZOPYRAN-4-ONE; 4H-1-BENZOPYRAN-4-ONE, 3-(3-FLUOROPHENYL)-2-((1S)-1-(9H-PURIN-6-YLAMINO)PROPYL)-; Tenalisib

$$$$
