DEE
 OpenBabel10282417143D

 24 24  0  0  0  0  0  0  0  0999 V2000
    1.0191    0.0269    0.0014 O   0  0  0  0  0  0  0  0  0  0  0  0
    2.2641   -0.0170   -0.0163 C   0  0  0  0  0  0  0  0  0  0  0  0
    2.8354   -1.2633    0.1598 O   0  0  0  0  0  0  0  0  0  0  0  0
    4.2431   -1.5869    0.2943 C   0  0  0  0  0  0  0  0  0  0  0  0
    4.8764   -1.3388   -1.0227 C   0  0  0  0  0  0  0  0  0  0  0  0
    3.0394    1.2571   -0.0908 C   0  0  0  0  0  0  0  0  0  0  0  0
    4.0718    1.8252   -0.9747 C   0  0  0  0  0  0  0  0  0  0  0  0
    4.8286    1.3246   -2.1807 C   0  0  0  0  0  0  0  0  0  0  0  0
    2.7431    2.3478    0.7351 C   0  0  0  0  0  0  0  0  0  0  0  0
    1.7196    2.5745    1.7896 C   0  0  0  0  0  0  0  0  0  0  0  0
    3.6203    3.3398    0.4188 N   0  0  0  0  0  0  0  0  0  0  0  0
    4.4510    3.0413   -0.5700 N   0  0  0  0  0  0  0  0  0  0  0  0
    4.6740   -0.9565    1.0775 H   0  0  0  0  0  0  0  0  0  0  0  0
    4.3807   -2.6420    0.5383 H   0  0  0  0  0  0  0  0  0  0  0  0
    4.5088   -0.3614   -1.0970 H   0  0  0  0  0  0  0  0  0  0  0  0
    5.9648   -1.2814   -1.0322 H   0  0  0  0  0  0  0  0  0  0  0  0
    4.4447   -1.7675   -1.9303 H   0  0  0  0  0  0  0  0  0  0  0  0
    5.6928    0.7390   -1.8422 H   0  0  0  0  0  0  0  0  0  0  0  0
    4.1886    0.7266   -2.8420 H   0  0  0  0  0  0  0  0  0  0  0  0
    5.3448    2.0863   -2.7649 H   0  0  0  0  0  0  0  0  0  0  0  0
    0.7082    2.4451    1.3928 H   0  0  0  0  0  0  0  0  0  0  0  0
    1.8645    1.8884    2.6284 H   0  0  0  0  0  0  0  0  0  0  0  0
    1.7842    3.5972    2.1825 H   0  0  0  0  0  0  0  0  0  0  0  0
    3.6991    4.2629    0.8294 H   0  0  0  0  0  0  0  0  0  0  0  0
  1  2  2  0  0  0  0
  2  3  1  0  0  0  0
  2  6  1  0  0  0  0
  3  4  1  0  0  0  0
  4  5  1  0  0  0  0
  4 13  1  0  0  0  0
  4 14  1  0  0  0  0
  5 15  1  0  0  0  0
  5 16  1  0  0  0  0
  5 17  1  0  0  0  0
  6  7  1  0  0  0  0
  6  9  2  0  0  0  0
  7  8  1  0  0  0  0
  7 12  2  0  0  0  0
  8 18  1  0  0  0  0
  8 19  1  0  0  0  0
  8 20  1  0  0  0  0
  9 10  1  0  0  0  0
  9 11  1  0  0  0  0
 10 21  1  0  0  0  0
 10 22  1  0  0  0  0
 10 23  1  0  0  0  0
 11 12  1  0  0  0  0
 11 24  1  0  0  0  0
M  END
>  <DRUGBANK_ID>
DB04271

>  <SECONDARY_ACCESSION_NUMBERS>
EXPT01155

>  <COMMON_NAME>
3,5-Dimethyl-1h-Pyrazole-4-Carboxylic Acid Ethyl Ester

>  <UNII>
SS3UNU86DP

$$$$
