
 OpenBabel10282417183D

 58 61  0  0  0  0  0  0  0  0999 V2000
   -0.9532   -0.1161    0.0399 C   0  0  0  0  0  0  0  0  0  0  0  0
   -0.0823   -1.2301    0.0564 C   0  0  0  0  0  0  0  0  0  0  0  0
   -0.4724    1.1419    0.0429 N   0  0  0  0  0  0  0  0  0  0  0  0
    1.2752   -1.1107    0.0827 N   0  0  0  0  0  0  0  0  0  0  0  0
    1.7407    0.1660    0.0988 C   0  0  0  0  0  0  0  0  0  0  0  0
    0.8747    1.2569    0.0608 C   0  0  0  0  0  0  0  0  0  0  0  0
   -2.3241   -0.2161   -0.1677 N   0  0  0  0  0  0  0  0  0  0  0  0
   -0.3997   -3.4819    0.8948 O   0  0  0  0  0  0  0  0  0  0  0  0
   -1.1241   -4.6459    0.6134 N   0  0  0  0  0  0  0  0  0  0  0  0
   -1.7372   -4.4199   -0.5589 C   0  0  0  0  0  0  0  0  0  0  0  0
   -1.4557   -3.1198   -1.0275 C   0  0  0  0  0  0  0  0  0  0  0  0
   -0.6195   -2.5693   -0.0919 C   0  0  0  0  0  0  0  0  0  0  0  0
   -2.5113   -5.4145   -1.2837 C   0  0  0  0  0  0  0  0  0  0  0  0
   -2.0942   -5.7472   -2.5804 C   0  0  0  0  0  0  0  0  0  0  0  0
   -2.8108   -6.6616   -3.3487 C   0  0  0  0  0  0  0  0  0  0  0  0
   -3.9605   -7.2648   -2.8304 C   0  0  0  0  0  0  0  0  0  0  0  0
   -4.3594   -6.9569   -1.5189 C   0  0  0  0  0  0  0  0  0  0  0  0
   -3.6633   -6.0070   -0.7606 C   0  0  0  0  0  0  0  0  0  0  0  0
   -4.7962   -8.1769   -3.6947 C   0  0  0  0  0  0  0  0  0  0  0  0
   -4.9012   -9.5146   -3.1210 N   0  0  0  0  0  0  0  0  0  0  0  0
   -5.7160  -10.3674   -3.9730 C   0  0  0  0  0  0  0  0  0  0  0  0
    3.1856    0.3802    0.0596 C   0  0  0  0  0  0  0  0  0  0  0  0
    3.9276   -0.1025   -1.0148 C   0  0  0  0  0  0  0  0  0  0  0  0
    5.2800    0.1986   -1.1269 C   0  0  0  0  0  0  0  0  0  0  0  0
    5.9317    0.9800   -0.1723 C   0  0  0  0  0  0  0  0  0  0  0  0
    5.1987    1.5038    0.8915 C   0  0  0  0  0  0  0  0  0  0  0  0
    3.8444    1.1703    1.0219 C   0  0  0  0  0  0  0  0  0  0  0  0
    7.6970    1.2507   -0.1827 S   0  0  0  0  0  0  0  0  0  0  0  0
    7.8905    2.6807   -0.3880 O   0  0  0  0  0  0  0  0  0  0  0  0
    8.2066    0.6197    1.0156 O   0  0  0  0  0  0  0  0  0  0  0  0
    8.4040    0.3938   -1.5922 C   0  0  0  0  0  0  0  0  0  0  0  0
    8.2284   -1.1238   -1.4984 C   0  0  0  0  0  0  0  0  0  0  0  0
    7.9356    0.9853   -2.9221 C   0  0  0  0  0  0  0  0  0  0  0  0
    1.2563    2.2728    0.0074 H   0  0  0  0  0  0  0  0  0  0  0  0
   -2.7919    0.6693   -0.0030 H   0  0  0  0  0  0  0  0  0  0  0  0
   -2.7971   -1.0422    0.1740 H   0  0  0  0  0  0  0  0  0  0  0  0
   -1.8228   -2.6406   -1.9214 H   0  0  0  0  0  0  0  0  0  0  0  0
   -1.2041   -5.2859   -3.0025 H   0  0  0  0  0  0  0  0  0  0  0  0
   -2.4634   -6.8936   -4.3523 H   0  0  0  0  0  0  0  0  0  0  0  0
   -5.2240   -7.4633   -1.0916 H   0  0  0  0  0  0  0  0  0  0  0  0
   -4.0441   -5.7277    0.2191 H   0  0  0  0  0  0  0  0  0  0  0  0
   -5.7892   -7.7212   -3.7978 H   0  0  0  0  0  0  0  0  0  0  0  0
   -4.3637   -8.2317   -4.7022 H   0  0  0  0  0  0  0  0  0  0  0  0
   -3.9644   -9.9072   -3.0332 H   0  0  0  0  0  0  0  0  0  0  0  0
   -5.2815  -10.4675   -4.9731 H   0  0  0  0  0  0  0  0  0  0  0  0
   -5.7872  -11.3656   -3.5319 H   0  0  0  0  0  0  0  0  0  0  0  0
   -6.7333   -9.9725   -4.0646 H   0  0  0  0  0  0  0  0  0  0  0  0
    3.4596   -0.7116   -1.7868 H   0  0  0  0  0  0  0  0  0  0  0  0
    5.7633   -0.2239   -1.9915 H   0  0  0  0  0  0  0  0  0  0  0  0
    5.6702    2.1592    1.6223 H   0  0  0  0  0  0  0  0  0  0  0  0
    3.2987    1.5263    1.8938 H   0  0  0  0  0  0  0  0  0  0  0  0
    9.4834    0.5892   -1.5219 H   0  0  0  0  0  0  0  0  0  0  0  0
    7.1899   -1.4485   -1.4694 H   0  0  0  0  0  0  0  0  0  0  0  0
    8.6862   -1.6242   -2.3559 H   0  0  0  0  0  0  0  0  0  0  0  0
    8.6828   -1.5173   -0.5837 H   0  0  0  0  0  0  0  0  0  0  0  0
    8.1886    2.0481   -2.9881 H   0  0  0  0  0  0  0  0  0  0  0  0
    8.3958    0.4647   -3.7657 H   0  0  0  0  0  0  0  0  0  0  0  0
    6.8586    0.9353   -3.0731 H   0  0  0  0  0  0  0  0  0  0  0  0
  1  2  1  0  0  0  0
  1  3  2  0  0  0  0
  1  7  1  0  0  0  0
  2  4  2  0  0  0  0
  2 12  1  0  0  0  0
  3  6  1  0  0  0  0
  4  5  1  0  0  0  0
  5  6  2  0  0  0  0
  5 22  1  0  0  0  0
  6 34  1  0  0  0  0
  7 35  1  0  0  0  0
  7 36  1  0  0  0  0
  8  9  1  0  0  0  0
  8 12  1  0  0  0  0
  9 10  2  0  0  0  0
 10 11  1  0  0  0  0
 10 13  1  0  0  0  0
 11 12  2  0  0  0  0
 11 37  1  0  0  0  0
 13 14  1  0  0  0  0
 13 18  2  0  0  0  0
 14 15  2  0  0  0  0
 14 38  1  0  0  0  0
 15 16  1  0  0  0  0
 15 39  1  0  0  0  0
 16 17  2  0  0  0  0
 16 19  1  0  0  0  0
 17 18  1  0  0  0  0
 17 40  1  0  0  0  0
 18 41  1  0  0  0  0
 19 20  1  0  0  0  0
 19 42  1  0  0  0  0
 19 43  1  0  0  0  0
 20 21  1  0  0  0  0
 20 44  1  0  0  0  0
 21 45  1  0  0  0  0
 21 46  1  0  0  0  0
 21 47  1  0  0  0  0
 22 23  1  0  0  0  0
 22 27  2  0  0  0  0
 23 24  2  0  0  0  0
 23 48  1  0  0  0  0
 24 25  1  0  0  0  0
 24 49  1  0  0  0  0
 25 26  2  0  0  0  0
 25 28  1  0  0  0  0
 26 27  1  0  0  0  0
 26 50  1  0  0  0  0
 27 51  1  0  0  0  0
 28 29  2  0  0  0  0
 28 30  2  0  0  0  0
 28 31  1  0  0  0  0
 31 32  1  0  0  0  0
 31 33  1  0  0  0  0
 31 52  1  0  0  0  0
 32 53  1  0  0  0  0
 32 54  1  0  0  0  0
 32 55  1  0  0  0  0
 33 56  1  0  0  0  0
 33 57  1  0  0  0  0
 33 58  1  0  0  0  0
M  END
>  <DRUGBANK_ID>
DB11794

>  <SECONDARY_ACCESSION_NUMBERS>
DB13922

>  <COMMON_NAME>
Berzosertib

>  <CAS_NUMBER>
1232416-25-9

>  <UNII>
L423PRV3V3

>  <SYNONYMS>
Berzosertib

$$$$
