
 OpenBabel10282417213D

 38 39  0  0  1  0  0  0  0  0999 V2000
    1.0397    0.0322    0.0449 O   0  0  0  0  0  0  0  0  0  0  0  0
    0.5571   -1.2844    0.2744 C   0  0  0  0  0  0  0  0  0  0  0  0
    1.0495   -2.1937   -0.8340 C   0  0  1  0  0  0  0  0  0  0  0  0
    2.4854   -2.2484   -0.7905 O   0  0  0  0  0  0  0  0  0  0  0  0
    0.5603   -3.6007   -0.6027 C   0  0  0  0  0  0  0  0  0  0  0  0
   -0.8834   -3.8099   -0.6647 N   0  0  0  0  0  0  0  0  0  0  0  0
   -1.5840   -4.5904   -1.5550 C   0  0  0  0  0  0  0  0  0  0  0  0
   -2.8172   -4.5250   -1.5807 O   0  0  0  0  0  0  0  0  0  0  0  0
   -0.8735   -5.5290   -2.4610 C   0  0  0  0  0  0  0  0  0  0  0  0
    0.1746   -6.3473   -2.0048 C   0  0  0  0  0  0  0  0  0  0  0  0
    0.6113   -6.3402   -0.6678 N   0  0  0  0  0  0  0  0  0  0  0  0
    1.7755   -6.8842   -0.1113 C   0  0  0  0  0  0  0  0  0  0  0  0
    3.0521   -6.7677   -0.6861 C   0  0  0  0  0  0  0  0  0  0  0  0
    3.2618   -5.9244   -1.7100 F   0  0  0  0  0  0  0  0  0  0  0  0
    4.1147   -7.5433   -0.2415 C   0  0  0  0  0  0  0  0  0  0  0  0
    3.8661   -8.5202    0.7173 C   0  0  0  0  0  0  0  0  0  0  0  0
    5.3259   -9.9189    1.1781 I   0  0  0  0  0  0  0  0  0  0  0  0
    2.6208   -8.6025    1.3419 C   0  0  0  0  0  0  0  0  0  0  0  0
    1.6058   -7.7225    0.9866 C   0  0  0  0  0  0  0  0  0  0  0  0
    0.7803   -7.1544   -2.9645 C   0  0  0  0  0  0  0  0  0  0  0  0
    0.4015   -7.2503   -4.2568 N   0  0  0  0  0  0  0  0  0  0  0  0
   -0.6454   -6.4948   -4.6335 C   0  0  0  0  0  0  0  0  0  0  0  0
   -1.3096   -5.6238   -3.7878 C   0  0  0  0  0  0  0  0  0  0  0  0
    2.0078   -0.0152    0.1237 H   0  0  0  0  0  0  0  0  0  0  0  0
    0.9266   -1.6248    1.2490 H   0  0  0  0  0  0  0  0  0  0  0  0
   -0.5353   -1.2578    0.3038 H   0  0  0  0  0  0  0  0  0  0  0  0
    0.7490   -1.8440   -1.8277 H   0  0  0  0  0  0  0  0  0  0  0  0
    2.8244   -1.4156   -1.1547 H   0  0  0  0  0  0  0  0  0  0  0  0
    1.0658   -4.1755   -1.3747 H   0  0  0  0  0  0  0  0  0  0  0  0
    0.9030   -3.9567    0.3775 H   0  0  0  0  0  0  0  0  0  0  0  0
   -1.4840   -3.2872   -0.0338 H   0  0  0  0  0  0  0  0  0  0  0  0
   -0.0062   -5.8786   -0.0057 H   0  0  0  0  0  0  0  0  0  0  0  0
    5.0933   -7.4097   -0.6908 H   0  0  0  0  0  0  0  0  0  0  0  0
    2.4029   -9.3738    2.0744 H   0  0  0  0  0  0  0  0  0  0  0  0
    0.6423   -7.7688    1.4870 H   0  0  0  0  0  0  0  0  0  0  0  0
    1.6136   -7.7978   -2.7013 H   0  0  0  0  0  0  0  0  0  0  0  0
   -0.9411   -6.6218   -5.6702 H   0  0  0  0  0  0  0  0  0  0  0  0
   -2.1458   -5.0397   -4.1579 H   0  0  0  0  0  0  0  0  0  0  0  0
  1  2  1  0  0  0  0
  1 24  1  0  0  0  0
  2 25  1  0  0  0  0
  2 26  1  0  0  0  0
  3  2  1  0  0  0  0
  3  4  1  0  0  0  0
  3  5  1  0  0  0  0
  3 27  1  6  0  0  0
  4 28  1  0  0  0  0
  5  6  1  0  0  0  0
  5 29  1  0  0  0  0
  5 30  1  0  0  0  0
  6  7  1  0  0  0  0
  6 31  1  0  0  0  0
  7  8  2  0  0  0  0
  7  9  1  0  0  0  0
  9 10  2  0  0  0  0
  9 23  1  0  0  0  0
 10 11  1  0  0  0  0
 10 20  1  0  0  0  0
 11 12  1  0  0  0  0
 11 32  1  0  0  0  0
 12 13  2  0  0  0  0
 12 19  1  0  0  0  0
 13 14  1  0  0  0  0
 13 15  1  0  0  0  0
 15 16  2  0  0  0  0
 15 33  1  0  0  0  0
 16 17  1  0  0  0  0
 16 18  1  0  0  0  0
 18 19  2  0  0  0  0
 18 34  1  0  0  0  0
 19 35  1  0  0  0  0
 20 21  2  0  0  0  0
 20 36  1  0  0  0  0
 21 22  1  0  0  0  0
 22 23  2  0  0  0  0
 22 37  1  0  0  0  0
 23 38  1  0  0  0  0
M  END
>  <DRUGBANK_ID>
DB14904

>  <COMMON_NAME>
Pimasertib

>  <CAS_NUMBER>
1236699-92-5

>  <UNII>
6ON9RK82AL

>  <SYNONYMS>
N-[(2S)-2,3-dihydroxypropyl]-3-(2-fluoro-4-iodoanilino)pyridine-4-carboxamide; Pimasertib

$$$$
