
 OpenBabel10282417133D

 82 84  0  0  0  0  0  0  0  0999 V2000
    0.5502   12.9734   -3.4832 O   0  0  0  0  0  0  0  0  0  0  0  0
    1.8694   10.9913   -3.9626 O   0  0  0  0  0  0  0  0  0  0  0  0
    1.7467   12.1125    0.5199 O   0  0  0  0  0  0  0  0  0  0  0  0
    4.0390   12.3383    0.0419 O   0  0  0  0  0  0  0  0  0  0  0  0
   -1.0243    8.7560   -2.1656 O   0  0  0  0  0  0  0  0  0  0  0  0
    3.0300   13.9944   -2.5497 O   0  0  0  0  0  0  0  0  0  0  0  0
    0.2906   11.0113   -1.2572 O   0  0  0  0  0  0  0  0  0  0  0  0
    6.6997   10.8661   -0.9069 O   0  0  0  0  0  0  0  0  0  0  0  0
    4.2383   10.0502   -4.1584 O   0  0  0  0  0  0  0  0  0  0  0  0
    3.8140    9.4042   -1.7325 O   0  0  0  0  0  0  0  0  0  0  0  0
    0.7331   11.0374   -6.5211 O   0  0  0  0  0  0  0  0  0  0  0  0
    4.1227    6.7169   -4.5152 O   0  0  0  0  0  0  0  0  0  0  0  0
    5.3237   13.0273   -2.3155 O   0  0  0  0  0  0  0  0  0  0  0  0
   -0.1896   11.5774    2.4941 O   0  0  0  0  0  0  0  0  0  0  0  0
   -0.2749   12.9409   -6.0868 O   0  0  0  0  0  0  0  0  0  0  0  0
    7.4280   11.6734   -3.0124 O   0  0  0  0  0  0  0  0  0  0  0  0
    6.8144    7.9454    0.0650 O   0  0  0  0  0  0  0  0  0  0  0  0
    6.5191    7.5873   -5.9332 O   0  0  0  0  0  0  0  0  0  0  0  0
    0.0296    5.8791   -4.9867 O   0  0  0  0  0  0  0  0  0  0  0  0
    1.0712    7.4208   -3.7031 N   0  0  0  0  0  0  0  0  0  0  0  0
    0.5635   11.6252   -4.0967 C   0  0  1  0  0  0  0  0  0  0  0  0
    0.8001   13.2624   -2.0579 C   0  0  2  0  0  0  0  0  0  0  0  0
    1.0718    8.8084   -3.2980 C   0  0  1  0  0  0  0  0  0  0  0  0
    2.0446    9.5639   -4.1698 C   0  0  2  0  0  0  0  0  0  0  0  0
   -0.3907    9.3136   -3.3223 C   0  0  2  0  0  0  0  0  0  0  0  0
   -0.6428   10.8034   -3.5663 C   0  0  0  0  0  0  0  0  0  0  0  0
    2.2662   13.1054   -1.7510 C   0  0  2  0  0  0  0  0  0  0  0  0
    0.0028   12.4101   -1.0903 C   0  0  2  0  0  0  0  0  0  0  0  0
    2.6983   12.8820   -0.2337 C   0  0  1  0  0  0  0  0  0  0  0  0
    0.3841   12.5651    0.3571 C   0  0  1  0  0  0  0  0  0  0  0  0
    3.4494    8.9310   -4.1021 C   0  0  1  0  0  0  0  0  0  0  0  0
    4.2252   10.9553   -0.2585 C   0  0  1  0  0  0  0  0  0  0  0  0
    4.0248   10.7990   -1.6983 C   0  0  1  0  0  0  0  0  0  0  0  0
    5.6620   10.2410   -0.0894 C   0  0  1  0  0  0  0  0  0  0  0  0
    0.2942   11.9621   -5.6440 C   0  0  0  0  0  0  0  0  0  0  0  0
    4.2495    8.0365   -5.0507 C   0  0  1  0  0  0  0  0  0  0  0  0
    5.0889   11.6314   -2.5458 C   0  0  2  0  0  0  0  0  0  0  0  0
   -0.5573   11.6073    1.1284 C   0  0  0  0  0  0  0  0  0  0  0  0
    6.4323   10.9566   -2.3002 C   0  0  2  0  0  0  0  0  0  0  0  0
    5.6383    8.6367   -0.3182 C   0  0  0  0  0  0  0  0  0  0  0  0
    5.7982    8.4136   -5.0538 C   0  0  0  0  0  0  0  0  0  0  0  0
    0.4805    7.0380   -4.8749 C   0  0  0  0  0  0  0  0  0  0  0  0
    0.3737    8.0533   -5.9922 C   0  0  0  0  0  0  0  0  0  0  0  0
    2.0332    9.4052   -5.2096 H   0  0  0  0  0  0  0  0  0  0  0  0
    1.2715    6.7061   -3.0066 H   0  0  0  0  0  0  0  0  0  0  0  0
   -0.7195    7.8243   -2.1232 H   0  0  0  0  0  0  0  0  0  0  0  0
    2.7024   13.8798   -3.4653 H   0  0  0  0  0  0  0  0  0  0  0  0
    1.0408   10.8797   -1.8433 H   0  0  0  0  0  0  0  0  0  0  0  0
    5.0286    9.8091   -3.6748 H   0  0  0  0  0  0  0  0  0  0  0  0
    4.5205    9.0158   -2.2394 H   0  0  0  0  0  0  0  0  0  0  0  0
    1.2320   10.3961   -6.0337 H   0  0  0  0  0  0  0  0  0  0  0  0
    4.8469    6.1652   -4.8419 H   0  0  0  0  0  0  0  0  0  0  0  0
    5.3810   13.4426   -3.2061 H   0  0  0  0  0  0  0  0  0  0  0  0
    0.7369   11.2672    2.4728 H   0  0  0  0  0  0  0  0  0  0  0  0
    7.2364   12.6066   -2.7947 H   0  0  0  0  0  0  0  0  0  0  0  0
    7.2729    7.6979   -0.7632 H   0  0  0  0  0  0  0  0  0  0  0  0
    6.5356    6.7037   -5.5423 H   0  0  0  0  0  0  0  0  0  0  0  0
    0.5805   14.3290   -1.9351 H   0  0  0  0  0  0  0  0  0  0  0  0
    1.4236    8.8336   -2.2503 H   0  0  0  0  0  0  0  0  0  0  0  0
   -0.9837    8.8389   -4.0927 H   0  0  0  0  0  0  0  0  0  0  0  0
   -1.5230   10.9672   -4.1989 H   0  0  0  0  0  0  0  0  0  0  0  0
   -1.1081   11.2173   -2.6822 H   0  0  0  0  0  0  0  0  0  0  0  0
    2.3450   12.2216   -2.2875 H   0  0  0  0  0  0  0  0  0  0  0  0
   -1.0640   12.6041   -1.2524 H   0  0  0  0  0  0  0  0  0  0  0  0
    2.7271   13.8777    0.2043 H   0  0  0  0  0  0  0  0  0  0  0  0
    0.3098   13.5913    0.7213 H   0  0  0  0  0  0  0  0  0  0  0  0
    3.4063    8.2730   -3.2311 H   0  0  0  0  0  0  0  0  0  0  0  0
    3.4878   10.3540    0.2977 H   0  0  0  0  0  0  0  0  0  0  0  0
    3.0566   10.9369   -2.0551 H   0  0  0  0  0  0  0  0  0  0  0  0
    5.9676   10.3914    0.9403 H   0  0  0  0  0  0  0  0  0  0  0  0
    3.8474    8.0986   -6.0568 H   0  0  0  0  0  0  0  0  0  0  0  0
    4.7990   11.7365   -3.5932 H   0  0  0  0  0  0  0  0  0  0  0  0
   -1.6007   11.9245    1.0146 H   0  0  0  0  0  0  0  0  0  0  0  0
   -0.5065   10.5661    0.7768 H   0  0  0  0  0  0  0  0  0  0  0  0
    6.4959    9.9433   -2.6867 H   0  0  0  0  0  0  0  0  0  0  0  0
    4.7643    8.2082    0.1914 H   0  0  0  0  0  0  0  0  0  0  0  0
    5.5912    8.2864   -1.3520 H   0  0  0  0  0  0  0  0  0  0  0  0
    5.9982    9.4559   -5.3584 H   0  0  0  0  0  0  0  0  0  0  0  0
    6.2414    8.2923   -4.0498 H   0  0  0  0  0  0  0  0  0  0  0  0
   -0.0376    8.9950   -5.6393 H   0  0  0  0  0  0  0  0  0  0  0  0
    1.3614    8.2357   -6.4225 H   0  0  0  0  0  0  0  0  0  0  0  0
   -0.3034    7.7807   -6.7882 H   0  0  0  0  0  0  0  0  0  0  0  0
  2 21  1  0  0  0  0
  2 24  1  0  0  0  0
  3 29  1  0  0  0  0
  3 30  1  0  0  0  0
  5 46  1  0  0  0  0
  6 47  1  0  0  0  0
  7 48  1  0  0  0  0
  8 34  1  0  0  0  0
  8 39  1  0  0  0  0
  9 49  1  0  0  0  0
 10 50  1  0  0  0  0
 11 35  1  0  0  0  0
 11 51  1  0  0  0  0
 12 52  1  0  0  0  0
 13 53  1  0  0  0  0
 14 38  1  0  0  0  0
 14 54  1  0  0  0  0
 15 35  2  0  0  0  0
 16 55  1  0  0  0  0
 17 40  1  0  0  0  0
 17 56  1  0  0  0  0
 18 41  1  0  0  0  0
 18 57  1  0  0  0  0
 19 42  2  0  0  0  0
 20 42  1  0  0  0  0
 20 45  1  0  0  0  0
 21 26  1  0  0  0  0
 21 35  1  6  0  0  0
 21  1  1  0  0  0  0
 22 27  1  0  0  0  0
 22 28  1  0  0  0  0
 22 58  1  1  0  0  0
 22  1  1  0  0  0  0
 23 24  1  0  0  0  0
 23 25  1  0  0  0  0
 23 59  1  1  0  0  0
 23 20  1  0  0  0  0
 24 44  1  6  0  0  0
 25 26  1  0  0  0  0
 25 60  1  6  0  0  0
 25  5  1  0  0  0  0
 26 61  1  0  0  0  0
 26 62  1  0  0  0  0
 27 29  1  0  0  0  0
 27 63  1  6  0  0  0
 27  6  1  0  0  0  0
 28 30  1  0  0  0  0
 28 64  1  6  0  0  0
 28  7  1  0  0  0  0
 29  4  1  0  0  0  0
 29 65  1  1  0  0  0
 30 38  1  0  0  0  0
 30 66  1  1  0  0  0
 31 67  1  1  0  0  0
 31 24  1  0  0  0  0
 31  9  1  0  0  0  0
 32 33  1  0  0  0  0
 32 34  1  0  0  0  0
 32 68  1  1  0  0  0
 32  4  1  0  0  0  0
 33 10  1  0  0  0  0
 33 37  1  0  0  0  0
 33 69  1  6  0  0  0
 34 70  1  1  0  0  0
 34 40  1  0  0  0  0
 36 41  1  0  0  0  0
 36 71  1  6  0  0  0
 36 31  1  0  0  0  0
 36 12  1  0  0  0  0
 37 39  1  0  0  0  0
 37 72  1  6  0  0  0
 37 13  1  0  0  0  0
 38 73  1  0  0  0  0
 38 74  1  0  0  0  0
 39 16  1  0  0  0  0
 39 75  1  6  0  0  0
 40 76  1  0  0  0  0
 40 77  1  0  0  0  0
 41 78  1  0  0  0  0
 41 79  1  0  0  0  0
 42 43  1  0  0  0  0
 43 80  1  0  0  0  0
 43 81  1  0  0  0  0
 43 82  1  0  0  0  0
M  END
>  <DRUGBANK_ID>
DB03296

>  <SECONDARY_ACCESSION_NUMBERS>
EXPT02917

>  <COMMON_NAME>
3'-beta-Sialyl-beta-lactose

>  <CAS_NUMBER>
64839-32-3

>  <UNII>
GW5N86WS9F

>  <SYNONYMS>
O-(N-Acetyl-alpha-neuraminosyl)-(2->3)-o-beta-D-galactopyranosyl-(1->4)-alpha-D-glucopyranose

$$$$
