
 OpenBabel10282417143D

 23 23  0  0  0  0  0  0  0  0999 V2000
    0.6452    1.2021   -0.2040 O   0  0  0  0  0  0  0  0  0  0  0  0
    1.3823    0.0718    0.2796 C   0  0  2  0  0  0  0  0  0  0  0  0
   -0.7225    1.2231    0.2169 C   0  0  2  0  0  0  0  0  0  0  0  0
   -1.4583   -0.0177   -0.3233 C   0  0  2  0  0  0  0  0  0  0  0  0
   -0.7594   -1.2936    0.1444 C   0  0  1  0  0  0  0  0  0  0  0  0
    0.7392   -1.2471   -0.1981 C   0  0  2  0  0  0  0  0  0  0  0  0
   -1.3234    2.4000   -0.3152 O   0  0  0  0  0  0  0  0  0  0  0  0
   -1.4701    0.0435   -1.7656 O   0  0  0  0  0  0  0  0  0  0  0  0
   -0.9261   -1.4576    1.5573 O   0  0  0  0  0  0  0  0  0  0  0  0
    1.3838   -2.3892    0.3715 O   0  0  0  0  0  0  0  0  0  0  0  0
    1.6488    0.1482    1.7888 C   0  0  0  0  0  0  0  0  0  0  0  0
    2.3662    0.1346   -0.2031 H   0  0  0  0  0  0  0  0  0  0  0  0
   -0.7861    1.2895    1.3069 H   0  0  0  0  0  0  0  0  0  0  0  0
   -2.5024    0.0052    0.0068 H   0  0  0  0  0  0  0  0  0  0  0  0
   -1.2118   -2.1725   -0.3282 H   0  0  0  0  0  0  0  0  0  0  0  0
    0.8414   -1.3124   -1.2894 H   0  0  0  0  0  0  0  0  0  0  0  0
   -1.7470    2.1327   -1.1510 H   0  0  0  0  0  0  0  0  0  0  0  0
   -0.5755    0.3197   -2.0471 H   0  0  0  0  0  0  0  0  0  0  0  0
   -0.2845   -2.1543    1.8078 H   0  0  0  0  0  0  0  0  0  0  0  0
    2.3464   -2.2711    0.2586 H   0  0  0  0  0  0  0  0  0  0  0  0
    1.1917    1.0237    2.2561 H   0  0  0  0  0  0  0  0  0  0  0  0
    1.3158   -0.7434    2.3263 H   0  0  0  0  0  0  0  0  0  0  0  0
    2.7274    0.2090    1.9699 H   0  0  0  0  0  0  0  0  0  0  0  0
  2  1  1  0  0  0  0
  2 12  1  6  0  0  0
  2 11  1  0  0  0  0
  3  1  1  0  0  0  0
  3  4  1  0  0  0  0
  3 13  1  1  0  0  0
  3  7  1  0  0  0  0
  4  8  1  0  0  0  0
  4  5  1  0  0  0  0
  4 14  1  1  0  0  0
  5  6  1  0  0  0  0
  5 15  1  6  0  0  0
  5  9  1  0  0  0  0
  6  2  1  0  0  0  0
  6 16  1  6  0  0  0
  6 10  1  0  0  0  0
  7 17  1  0  0  0  0
  8 18  1  0  0  0  0
  9 19  1  0  0  0  0
 10 20  1  0  0  0  0
 11 21  1  0  0  0  0
 11 22  1  0  0  0  0
 11 23  1  0  0  0  0
M  END
>  <DRUGBANK_ID>
DB04473

>  <SECONDARY_ACCESSION_NUMBERS>
EXPT00452

>  <COMMON_NAME>
alpha-L-fucose

>  <CAS_NUMBER>
6696-41-9

>  <UNII>
OF086I9H7W

>  <SYNONYMS>
α-L-Fuc; α-L-fucose; α-L-Fucp

$$$$
