
 OpenBabel10282417223D

 84 84  0  0  0  0  0  0  0  0999 V2000
   -1.4035   -0.2547    0.6332 N   0  0  0  0  0  0  0  0  0  0  0  0
   -0.8284   -1.4729    0.0496 C   0  0  0  0  0  0  0  0  0  0  0  0
    0.7279   -1.5166   -0.0386 C   0  0  0  0  0  0  0  0  0  0  0  0
    1.4246   -0.3645   -0.6373 N   0  0  0  0  0  0  0  0  0  0  0  0
    0.9024    0.8361   -0.0729 C   0  0  0  0  0  0  0  0  0  0  0  0
   -0.7114    0.8667    0.0827 C   0  0  0  0  0  0  0  0  0  0  0  0
   -1.5624   -0.0768    2.0472 C   0  0  0  0  0  0  0  0  0  0  0  0
   -0.2566    0.0558    2.8058 C   0  0  0  0  0  0  0  0  0  0  0  0
    0.5138    1.3387    2.6049 C   0  0  0  0  0  0  0  0  0  0  0  0
   -0.1043    2.4882    3.1006 N   0  0  0  0  0  0  0  0  0  0  0  0
    0.8281    3.4299    3.4709 C   0  0  0  0  0  0  0  0  0  0  0  0
    0.1349    4.6966    3.8597 C   0  0  1  0  0  0  0  0  0  0  0  0
    2.0445    3.2414    3.5134 O   0  0  0  0  0  0  0  0  0  0  0  0
    0.0387    4.7001    5.2976 N   0  0  0  0  0  0  0  0  0  0  0  0
    0.9204    5.8479    3.3326 C   0  0  0  0  0  0  0  0  0  0  0  0
    0.7965    5.7697    1.8450 C   0  0  0  0  0  0  0  0  0  0  0  0
   -0.6177    6.0127    1.2982 C   0  0  0  0  0  0  0  0  0  0  0  0
   -1.1921    7.3153    1.5714 N   0  0  0  0  0  0  0  0  0  0  0  0
   -1.5558    8.2425    0.6528 C   0  0  0  0  0  0  0  0  0  0  0  0
   -2.1991    9.3086    1.1127 N   0  0  0  0  0  0  0  0  0  0  0  0
   -1.4142    8.1745   -0.6289 N   0  0  0  0  0  0  0  0  0  0  0  0
    1.5313   -0.1935   -2.0587 C   0  0  0  0  0  0  0  0  0  0  0  0
    0.2192    0.0955   -2.7722 C   0  0  0  0  0  0  0  0  0  0  0  0
   -0.4329    1.4531   -2.5681 C   0  0  0  0  0  0  0  0  0  0  0  0
    0.3302    2.5034   -3.0717 N   0  0  0  0  0  0  0  0  0  0  0  0
   -0.4730    3.5314   -3.4862 C   0  0  0  0  0  0  0  0  0  0  0  0
    0.3565    4.7052   -3.8762 C   0  0  1  0  0  0  0  0  0  0  0  0
   -1.7114    3.4747   -3.5558 O   0  0  0  0  0  0  0  0  0  0  0  0
    0.4542    4.6940   -5.3131 N   0  0  0  0  0  0  0  0  0  0  0  0
   -0.3033    5.9317   -3.3472 C   0  0  0  0  0  0  0  0  0  0  0  0
   -0.1877    5.8340   -1.8602 C   0  0  0  0  0  0  0  0  0  0  0  0
    1.2408    5.9320   -1.3101 C   0  0  0  0  0  0  0  0  0  0  0  0
    1.9450    7.1683   -1.5835 N   0  0  0  0  0  0  0  0  0  0  0  0
    2.3985    8.0516   -0.6586 C   0  0  0  0  0  0  0  0  0  0  0  0
    3.1536    9.0437   -1.1206 N   0  0  0  0  0  0  0  0  0  0  0  0
    2.2425    7.9966    0.6169 N   0  0  0  0  0  0  0  0  0  0  0  0
   -1.2546   -2.3545    0.5252 H   0  0  0  0  0  0  0  0  0  0  0  0
   -1.2050   -1.5491   -0.9782 H   0  0  0  0  0  0  0  0  0  0  0  0
    1.0908   -1.5890    0.9911 H   0  0  0  0  0  0  0  0  0  0  0  0
    1.0798   -2.4407   -0.4916 H   0  0  0  0  0  0  0  0  0  0  0  0
    1.5211    0.7399    0.8142 H   0  0  0  0  0  0  0  0  0  0  0  0
    1.2887    1.7976   -0.4605 H   0  0  0  0  0  0  0  0  0  0  0  0
   -1.2280    0.6964   -0.8433 H   0  0  0  0  0  0  0  0  0  0  0  0
   -1.0960    1.8602    0.3778 H   0  0  0  0  0  0  0  0  0  0  0  0
   -2.1675    0.8310    2.2050 H   0  0  0  0  0  0  0  0  0  0  0  0
   -2.1676   -0.9041    2.4151 H   0  0  0  0  0  0  0  0  0  0  0  0
   -0.4532   -0.0376    3.8689 H   0  0  0  0  0  0  0  0  0  0  0  0
    0.3778   -0.7903    2.5522 H   0  0  0  0  0  0  0  0  0  0  0  0
    1.5748    1.1909    2.8471 H   0  0  0  0  0  0  0  0  0  0  0  0
    0.5529    1.7946    1.6369 H   0  0  0  0  0  0  0  0  0  0  0  0
   -0.8250    2.8556    2.4725 H   0  0  0  0  0  0  0  0  0  0  0  0
   -0.8807    4.6967    3.4482 H   0  0  0  0  0  0  0  0  0  0  0  0
   -0.4687    5.5291    5.5713 H   0  0  0  0  0  0  0  0  0  0  0  0
   -0.5000    3.8720    5.5475 H   0  0  0  0  0  0  0  0  0  0  0  0
    0.5364    6.8105    3.6690 H   0  0  0  0  0  0  0  0  0  0  0  0
    1.9836    5.7951    3.6055 H   0  0  0  0  0  0  0  0  0  0  0  0
    1.4932    6.5051    1.5400 H   0  0  0  0  0  0  0  0  0  0  0  0
    1.2336    4.8353    1.4464 H   0  0  0  0  0  0  0  0  0  0  0  0
   -0.6217    5.8865    0.2478 H   0  0  0  0  0  0  0  0  0  0  0  0
   -1.2825    5.1908    1.5733 H   0  0  0  0  0  0  0  0  0  0  0  0
   -1.2423    7.5654    2.5441 H   0  0  0  0  0  0  0  0  0  0  0  0
   -2.4109   10.0420    0.4517 H   0  0  0  0  0  0  0  0  0  0  0  0
   -2.2032    9.5447    2.0896 H   0  0  0  0  0  0  0  0  0  0  0  0
   -1.7903    8.9508   -1.1504 H   0  0  0  0  0  0  0  0  0  0  0  0
    2.2357    0.6343   -2.2436 H   0  0  0  0  0  0  0  0  0  0  0  0
    2.0191   -1.0864   -2.4476 H   0  0  0  0  0  0  0  0  0  0  0  0
    0.3868   -0.0118   -3.8410 H   0  0  0  0  0  0  0  0  0  0  0  0
   -0.4897   -0.6885   -2.5190 H   0  0  0  0  0  0  0  0  0  0  0  0
   -1.4944    1.3924   -2.8507 H   0  0  0  0  0  0  0  0  0  0  0  0
   -0.5185    1.9598   -1.6130 H   0  0  0  0  0  0  0  0  0  0  0  0
    1.0921    2.7846   -2.4488 H   0  0  0  0  0  0  0  0  0  0  0  0
    1.3648    4.5933   -3.4605 H   0  0  0  0  0  0  0  0  0  0  0  0
    1.0461    5.4638   -5.5883 H   0  0  0  0  0  0  0  0  0  0  0  0
    0.9013    3.8122   -5.5598 H   0  0  0  0  0  0  0  0  0  0  0  0
    0.1771    6.8497   -3.6818 H   0  0  0  0  0  0  0  0  0  0  0  0
   -1.3673    5.9892   -3.6175 H   0  0  0  0  0  0  0  0  0  0  0  0
   -0.8037    6.6354   -1.5531 H   0  0  0  0  0  0  0  0  0  0  0  0
   -0.7204    4.9493   -1.4643 H   0  0  0  0  0  0  0  0  0  0  0  0
    1.2253    5.8145   -0.2597 H   0  0  0  0  0  0  0  0  0  0  0  0
    1.8191    5.0449   -1.5783 H   0  0  0  0  0  0  0  0  0  0  0  0
    2.0232    7.4120   -2.5551 H   0  0  0  0  0  0  0  0  0  0  0  0
    3.4372    9.7533   -0.4606 H   0  0  0  0  0  0  0  0  0  0  0  0
    3.1798    9.2775   -2.0969 H   0  0  0  0  0  0  0  0  0  0  0  0
    2.6993    8.7283    1.1422 H   0  0  0  0  0  0  0  0  0  0  0  0
  1  2  1  0  0  0  0
  1  7  1  0  0  0  0
  2  3  1  0  0  0  0
  2 37  1  0  0  0  0
  2 38  1  0  0  0  0
  3  4  1  0  0  0  0
  3 39  1  0  0  0  0
  3 40  1  0  0  0  0
  4  5  1  0  0  0  0
  4 22  1  0  0  0  0
  5  6  1  0  0  0  0
  5 41  1  0  0  0  0
  5 42  1  0  0  0  0
  6  1  1  0  0  0  0
  6 43  1  0  0  0  0
  6 44  1  0  0  0  0
  7  8  1  0  0  0  0
  7 45  1  0  0  0  0
  7 46  1  0  0  0  0
  8  9  1  0  0  0  0
  8 47  1  0  0  0  0
  8 48  1  0  0  0  0
  9 10  1  0  0  0  0
  9 49  1  0  0  0  0
  9 50  1  0  0  0  0
 10 11  1  0  0  0  0
 10 51  1  0  0  0  0
 11 12  1  0  0  0  0
 11 13  2  0  0  0  0
 12 14  1  0  0  0  0
 12 15  1  0  0  0  0
 12 52  1  6  0  0  0
 14 53  1  0  0  0  0
 14 54  1  0  0  0  0
 15 16  1  0  0  0  0
 15 55  1  0  0  0  0
 15 56  1  0  0  0  0
 16 17  1  0  0  0  0
 16 57  1  0  0  0  0
 16 58  1  0  0  0  0
 17 18  1  0  0  0  0
 17 59  1  0  0  0  0
 17 60  1  0  0  0  0
 18 19  1  0  0  0  0
 18 61  1  0  0  0  0
 19 20  1  0  0  0  0
 19 21  2  0  0  0  0
 20 62  1  0  0  0  0
 20 63  1  0  0  0  0
 21 64  1  0  0  0  0
 22 23  1  0  0  0  0
 22 65  1  0  0  0  0
 22 66  1  0  0  0  0
 23 24  1  0  0  0  0
 23 67  1  0  0  0  0
 23 68  1  0  0  0  0
 24 25  1  0  0  0  0
 24 69  1  0  0  0  0
 24 70  1  0  0  0  0
 25 26  1  0  0  0  0
 25 71  1  0  0  0  0
 26 27  1  0  0  0  0
 26 28  2  0  0  0  0
 27 29  1  0  0  0  0
 27 30  1  0  0  0  0
 27 72  1  1  0  0  0
 29 73  1  0  0  0  0
 29 74  1  0  0  0  0
 30 31  1  0  0  0  0
 30 75  1  0  0  0  0
 30 76  1  0  0  0  0
 31 32  1  0  0  0  0
 31 77  1  0  0  0  0
 31 78  1  0  0  0  0
 32 33  1  0  0  0  0
 32 79  1  0  0  0  0
 32 80  1  0  0  0  0
 33 34  1  0  0  0  0
 33 81  1  0  0  0  0
 34 35  1  0  0  0  0
 34 36  2  0  0  0  0
 35 82  1  0  0  0  0
 35 83  1  0  0  0  0
 36 84  1  0  0  0  0
M  END
>  <DRUGBANK_ID>
DB15199

>  <COMMON_NAME>
Ciraparantag

>  <CAS_NUMBER>
1438492-26-2

>  <UNII>
U2R67KV65Q

>  <SYNONYMS>
Ciraparantag; Ciraparantagum

$$$$
