
 OpenBabel10282417203D

 60 63  0  0  0  0  0  0  0  0999 V2000
    1.0678    0.0672   -0.0228 C   0  0  0  0  0  0  0  0  0  0  0  0
    0.5117   -0.2788    1.2291 O   0  0  0  0  0  0  0  0  0  0  0  0
    0.9613   -1.4424    1.7744 C   0  0  0  0  0  0  0  0  0  0  0  0
    2.2706   -1.9277    1.7438 C   0  0  0  0  0  0  0  0  0  0  0  0
    2.6512   -3.0240    2.5437 C   0  0  0  0  0  0  0  0  0  0  0  0
    1.7203   -3.6447    3.3961 C   0  0  0  0  0  0  0  0  0  0  0  0
    0.3933   -3.1733    3.3076 C   0  0  0  0  0  0  0  0  0  0  0  0
    0.0119   -2.1040    2.5192 C   0  0  0  0  0  0  0  0  0  0  0  0
    2.0715   -4.8786    4.2937 C   0  0  0  0  0  0  0  0  0  0  0  0
    2.6938   -5.9085    3.4109 C   0  0  0  0  0  0  0  0  0  0  0  0
    2.0275   -6.1630    2.4411 O   0  0  0  0  0  0  0  0  0  0  0  0
    3.9217   -6.3287    3.8639 N   0  0  0  0  0  0  0  0  0  0  0  0
    4.2485   -5.5128    4.8931 C   0  0  0  0  0  0  0  0  0  0  0  0
    5.3208   -5.4681    5.4729 O   0  0  0  0  0  0  0  0  0  0  0  0
    3.1869   -4.6795    5.1726 N   0  0  0  0  0  0  0  0  0  0  0  0
    4.8641   -7.3384    3.3234 C   0  0  0  0  0  0  0  0  0  0  0  0
    4.2790   -8.7669    3.2585 C   0  0  0  0  0  0  0  0  0  0  0  0
    3.1126   -8.8885    2.3690 N   0  0  0  0  0  0  0  0  0  0  0  0
    3.1012   -7.9414    1.2402 C   0  0  0  0  0  0  0  0  0  0  0  0
    1.6657   -7.8600    0.7062 C   0  0  0  0  0  0  0  0  0  0  0  0
    1.4234   -9.1481   -0.0104 C   0  0  0  0  0  0  0  0  0  0  0  0
    1.6671  -10.3097    0.9643 C   0  0  0  0  0  0  0  0  0  0  0  0
    2.9979  -10.2088    1.7404 C   0  0  0  0  0  0  0  0  0  0  0  0
    0.8188   -5.5209    4.9464 C   0  0  0  0  0  0  0  0  0  0  0  0
    0.1170   -4.7036    5.8274 C   0  0  0  0  0  0  0  0  0  0  0  0
   -1.2319   -4.9365    6.0559 C   0  0  0  0  0  0  0  0  0  0  0  0
   -1.8792   -6.0597    5.5320 C   0  0  0  0  0  0  0  0  0  0  0  0
   -1.1892   -6.9201    4.6929 C   0  0  0  0  0  0  0  0  0  0  0  0
    0.1633   -6.6853    4.4448 C   0  0  0  0  0  0  0  0  0  0  0  0
   -3.1750   -6.4006    5.8018 O   0  0  0  0  0  0  0  0  0  0  0  0
   -3.7773   -5.6154    6.8242 C   0  0  0  0  0  0  0  0  0  0  0  0
    0.6892    1.0610   -0.2762 H   0  0  0  0  0  0  0  0  0  0  0  0
    0.7271   -0.6401   -0.7835 H   0  0  0  0  0  0  0  0  0  0  0  0
    2.1572    0.1296    0.0044 H   0  0  0  0  0  0  0  0  0  0  0  0
    3.0297   -1.4452    1.1391 H   0  0  0  0  0  0  0  0  0  0  0  0
    3.6807   -3.3743    2.4806 H   0  0  0  0  0  0  0  0  0  0  0  0
   -0.4265   -3.6101    3.8568 H   0  0  0  0  0  0  0  0  0  0  0  0
   -1.0299   -1.7957    2.5194 H   0  0  0  0  0  0  0  0  0  0  0  0
    3.2705   -3.9201    5.8255 H   0  0  0  0  0  0  0  0  0  0  0  0
    5.2106   -7.0449    2.3234 H   0  0  0  0  0  0  0  0  0  0  0  0
    5.7827   -7.3595    3.9240 H   0  0  0  0  0  0  0  0  0  0  0  0
    5.0698   -9.4650    2.9504 H   0  0  0  0  0  0  0  0  0  0  0  0
    4.0025   -9.0686    4.2821 H   0  0  0  0  0  0  0  0  0  0  0  0
    3.8256   -8.2197    0.4755 H   0  0  0  0  0  0  0  0  0  0  0  0
    3.4709   -6.9454    1.4449 H   0  0  0  0  0  0  0  0  0  0  0  0
    1.5545   -6.9726    0.0729 H   0  0  0  0  0  0  0  0  0  0  0  0
    0.8878   -7.7739    1.4862 H   0  0  0  0  0  0  0  0  0  0  0  0
    0.4049   -9.1573   -0.4042 H   0  0  0  0  0  0  0  0  0  0  0  0
    2.1258   -9.1832   -0.8481 H   0  0  0  0  0  0  0  0  0  0  0  0
    0.8449  -10.3395    1.6915 H   0  0  0  0  0  0  0  0  0  0  0  0
    1.6522  -11.2390    0.3939 H   0  0  0  0  0  0  0  0  0  0  0  0
    3.0668  -11.0198    2.4719 H   0  0  0  0  0  0  0  0  0  0  0  0
    3.8341  -10.3300    1.0390 H   0  0  0  0  0  0  0  0  0  0  0  0
    0.5515   -3.7536    6.1304 H   0  0  0  0  0  0  0  0  0  0  0  0
   -1.7728   -4.1593    6.5811 H   0  0  0  0  0  0  0  0  0  0  0  0
   -1.7008   -7.7457    4.1978 H   0  0  0  0  0  0  0  0  0  0  0  0
    0.6443   -7.4040    3.7792 H   0  0  0  0  0  0  0  0  0  0  0  0
   -3.1478   -5.5544    7.7222 H   0  0  0  0  0  0  0  0  0  0  0  0
   -3.9949   -4.6169    6.4321 H   0  0  0  0  0  0  0  0  0  0  0  0
   -4.7164   -6.0876    7.1141 H   0  0  0  0  0  0  0  0  0  0  0  0
  1  2  1  0  0  0  0
  1 32  1  0  0  0  0
  1 33  1  0  0  0  0
  1 34  1  0  0  0  0
  2  3  1  0  0  0  0
  3  4  2  0  0  0  0
  3  8  1  0  0  0  0
  4  5  1  0  0  0  0
  4 35  1  0  0  0  0
  5  6  2  0  0  0  0
  5 36  1  0  0  0  0
  6  7  1  0  0  0  0
  6  9  1  0  0  0  0
  7  8  2  0  0  0  0
  7 37  1  0  0  0  0
  8 38  1  0  0  0  0
  9 10  1  0  0  0  0
  9 15  1  0  0  0  0
  9 24  1  0  0  0  0
 10 11  2  0  0  0  0
 10 12  1  0  0  0  0
 12 13  1  0  0  0  0
 12 16  1  0  0  0  0
 13 14  2  0  0  0  0
 13 15  1  0  0  0  0
 15 39  1  0  0  0  0
 16 17  1  0  0  0  0
 16 40  1  0  0  0  0
 16 41  1  0  0  0  0
 17 18  1  0  0  0  0
 17 42  1  0  0  0  0
 17 43  1  0  0  0  0
 18 19  1  0  0  0  0
 18 23  1  0  0  0  0
 19 20  1  0  0  0  0
 19 44  1  0  0  0  0
 19 45  1  0  0  0  0
 20 21  1  0  0  0  0
 20 46  1  0  0  0  0
 20 47  1  0  0  0  0
 21 22  1  0  0  0  0
 21 48  1  0  0  0  0
 21 49  1  0  0  0  0
 22 23  1  0  0  0  0
 22 50  1  0  0  0  0
 22 51  1  0  0  0  0
 23 52  1  0  0  0  0
 23 53  1  0  0  0  0
 24 25  2  0  0  0  0
 24 29  1  0  0  0  0
 25 26  1  0  0  0  0
 25 54  1  0  0  0  0
 26 27  2  0  0  0  0
 26 55  1  0  0  0  0
 27 28  1  0  0  0  0
 27 30  1  0  0  0  0
 28 29  2  0  0  0  0
 28 56  1  0  0  0  0
 29 57  1  0  0  0  0
 30 31  1  0  0  0  0
 31 58  1  0  0  0  0
 31 59  1  0  0  0  0
 31 60  1  0  0  0  0
M  END
>  <DRUGBANK_ID>
DB13276

>  <COMMON_NAME>
Idanpramine

>  <CAS_NUMBER>
25466-44-8

>  <UNII>
8WIO2013UA

$$$$
