
 OpenBabel10282417243D

316316  0  0  1  0  0  0  0  0999 V2000
   -7.4479   -2.3042   -8.0335 C   0  0  0  0  0  0  0  0  0  0  0  0
   -6.7022   -2.3605   -6.3105 C   0  0  0  0  0  0  0  0  0  0  0  0
   -5.1385   -1.2576   -5.7048 C   0  0  0  0  0  0  0  0  0  0  0  0
   -5.0273    0.5001   -5.9131 C   0  0  0  0  0  0  0  0  0  0  0  0
   -6.3778    0.7249   -5.2497 C   0  0  0  0  0  0  0  0  0  0  0  0
   -6.2265   -0.1802   -3.6050 C   0  0  0  0  0  0  0  0  0  0  0  0
   -4.9842    0.9665   -2.8360 C   0  0  0  0  0  0  0  0  0  0  0  0
   -5.5783    2.5460   -2.9653 C   0  0  0  0  0  0  0  0  0  0  0  0
   -7.3171    2.5898   -2.3420 C   0  0  0  0  0  0  0  0  0  0  0  0
   -6.6068    2.1888   -1.0910 C   0  0  0  0  0  0  0  0  0  0  0  0
   -5.1118    3.3195   -0.7001 C   0  0  0  0  0  0  0  0  0  0  0  0
   -5.1122    4.9336   -0.6849 C   0  0  0  0  0  0  0  0  0  0  0  0
   -6.1942    4.9708    0.1703 C   0  0  0  0  0  0  0  0  0  0  0  0
   -5.9618    5.2709    1.4635 C   0  0  0  0  0  0  0  0  0  0  0  0
   -4.8399    6.1104    1.7884 C   0  0  0  0  0  0  0  0  0  0  0  0
   -4.9129    7.5344    1.9309 C   0  0  0  0  0  0  0  0  0  0  0  0
   -4.4334    7.7424    3.0473 O   0  0  0  0  0  0  0  0  0  0  0  0
   -5.8633    8.4356    1.5512 O   0  0  0  0  0  0  0  0  0  0  0  0
   -6.5793    9.6957    0.6309 C   0  0  0  0  0  0  0  0  0  0  0  0
   -7.8149   10.0063    1.4274 C   0  0  2  0  0  0  0  0  0  0  0  0
   -7.5871    9.5334    2.7921 C   0  0  0  0  0  0  0  0  0  0  0  0
   -7.3431   10.9454    4.3056 S   0  0  0  0  0  0  0  0  0  0  0  0
   -5.6057   11.0980    4.1866 C   0  0  0  0  0  0  0  0  0  0  0  0
   -5.0001    9.7479    4.1514 C   0  0  2  0  0  0  0  0  0  0  0  0
   -4.8897    9.9402    2.6834 N   0  0  0  0  0  0  0  0  0  0  0  0
   -5.8325    8.4595    5.0390 C   0  0  0  0  0  0  0  0  0  0  0  0
   -5.0764    7.6839    5.6721 O   0  0  0  0  0  0  0  0  0  0  0  0
   -7.2584    8.1988    5.2154 N   0  0  0  0  0  0  0  0  0  0  0  0
   -8.7386    8.6580    4.7187 C   0  0  0  0  0  0  0  0  0  0  0  0
   -9.4737    7.6198    3.8492 C   0  0  0  0  0  0  0  0  0  0  0  0
  -10.6815    7.8046    3.6592 O   0  0  0  0  0  0  0  0  0  0  0  0
   -8.7693    6.7373    3.0303 N   0  0  0  0  0  0  0  0  0  0  0  0
   -7.3135    6.6972    2.3897 C   0  0  1  0  0  0  0  0  0  0  0  0
   -6.7650    5.1349    3.4729 C   0  0  0  0  0  0  0  0  0  0  0  0
   -7.3327    3.5981    2.7175 C   0  0  0  0  0  0  0  0  0  0  0  0
   -6.2190    2.8225    1.8242 N   0  0  0  0  0  0  0  0  0  0  0  0
   -8.5558    3.5674    2.4904 O   0  0  0  0  0  0  0  0  0  0  0  0
   -6.9539    7.2857    0.4223 C   0  0  0  0  0  0  0  0  0  0  0  0
   -5.8775    7.5640   -0.2708 O   0  0  0  0  0  0  0  0  0  0  0  0
   -7.8533    6.8749   -0.6132 N   0  0  0  0  0  0  0  0  0  0  0  0
   -8.6610    5.3935   -0.1464 C   0  0  1  0  0  0  0  0  0  0  0  0
   -9.9267    5.2180   -0.7105 C   0  0  0  0  0  0  0  0  0  0  0  0
   -9.8819    5.4922   -2.1205 C   0  0  0  0  0  0  0  0  0  0  0  0
  -10.2547    4.3356   -2.7374 N   0  0  0  0  0  0  0  0  0  0  0  0
   -9.4862    6.5490   -2.5952 O   0  0  0  0  0  0  0  0  0  0  0  0
   -8.1510    4.0691   -0.5244 C   0  0  0  0  0  0  0  0  0  0  0  0
   -8.1775    3.1336    0.2848 O   0  0  0  0  0  0  0  0  0  0  0  0
   -7.2351    4.4584   -1.8185 N   0  0  0  0  0  0  0  0  0  0  0  0
   -7.2398    5.2048   -3.1048 C   0  0  1  0  0  0  0  0  0  0  0  0
   -5.8671    5.6802   -3.6560 C   0  0  0  0  0  0  0  0  0  0  0  0
   -4.7908    4.9703   -4.4701 C   0  0  0  0  0  0  0  0  0  0  0  0
   -4.9804    5.2207   -5.7700 O   0  0  0  0  0  0  0  0  0  0  0  0
   -3.8428    4.2960   -4.0883 O   0  0  0  0  0  0  0  0  0  0  0  0
   -8.2908    4.8357   -4.3514 C   0  0  0  0  0  0  0  0  0  0  0  0
   -9.2571    5.4668   -4.7538 O   0  0  0  0  0  0  0  0  0  0  0  0
   -8.2496    3.6147   -4.9200 N   0  0  0  0  0  0  0  0  0  0  0  0
   -7.0294    3.0123   -4.9005 C   0  0  1  0  0  0  0  0  0  0  0  0
   -7.3828    1.3476   -4.0394 C   0  0  0  0  0  0  0  0  0  0  0  0
   -7.9473   -0.3364   -4.8904 C   0  0  0  0  0  0  0  0  0  0  0  0
   -7.0052   -0.4046   -6.8370 C   0  0  0  0  0  0  0  0  0  0  0  0
   -5.9660   -0.8463   -7.5316 O   0  0  0  0  0  0  0  0  0  0  0  0
   -6.6336    0.7220   -7.3259 O   0  0  0  0  0  0  0  0  0  0  0  0
   -6.0757    3.0686   -6.3624 C   0  0  0  0  0  0  0  0  0  0  0  0
   -4.8338    3.0617   -6.4407 O   0  0  0  0  0  0  0  0  0  0  0  0
   -6.7632    2.8577   -7.5626 N   0  0  0  0  0  0  0  0  0  0  0  0
   -8.1520    1.9298   -7.6439 C   0  0  1  0  0  0  0  0  0  0  0  0
   -9.2680    2.4316   -8.3430 C   0  0  0  0  0  0  0  0  0  0  0  0
   -8.6503    2.5136   -9.5765 O   0  0  0  0  0  0  0  0  0  0  0  0
   -8.3601    0.3826   -8.2722 C   0  0  0  0  0  0  0  0  0  0  0  0
   -9.0576   -0.3879   -7.5448 O   0  0  0  0  0  0  0  0  0  0  0  0
   -7.2627    0.0110   -9.2357 N   0  0  0  0  0  0  0  0  0  0  0  0
   -6.4353    0.8071  -10.0271 C   0  0  1  0  0  0  0  0  0  0  0  0
   -4.9408    0.7781  -10.1146 C   0  0  0  0  0  0  0  0  0  0  0  0
   -4.2568   -0.3777  -10.6730 C   0  0  0  0  0  0  0  0  0  0  0  0
   -3.9628   -0.3071  -12.0002 N   0  0  0  0  0  0  0  0  0  0  0  0
   -4.0613   -1.3473   -9.9549 O   0  0  0  0  0  0  0  0  0  0  0  0
   -7.3231    0.4565  -11.1911 C   0  0  0  0  0  0  0  0  0  0  0  0
   -8.2217    1.1967  -11.5835 O   0  0  0  0  0  0  0  0  0  0  0  0
   -7.2993   -0.8065  -11.7296 N   0  0  0  0  0  0  0  0  0  0  0  0
   -6.4513   -1.9822  -11.4388 C   0  0  1  0  0  0  0  0  0  0  0  0
   -7.1001   -3.2427  -10.8983 C   0  0  1  0  0  0  0  0  0  0  0  0
   -7.9243   -3.8145  -11.9504 C   0  0  0  0  0  0  0  0  0  0  0  0
   -6.0415   -4.3081  -10.5321 C   0  0  0  0  0  0  0  0  0  0  0  0
   -5.2837   -4.0080   -9.2790 C   0  0  0  0  0  0  0  0  0  0  0  0
   -5.3965   -2.3602  -12.5098 C   0  0  0  0  0  0  0  0  0  0  0  0
   -4.2453   -2.7328  -12.2627 O   0  0  0  0  0  0  0  0  0  0  0  0
   -5.7314   -2.3358  -13.8209 N   0  0  0  0  0  0  0  0  0  0  0  0
   -7.0908   -2.6244  -14.2652 C   0  0  1  0  0  0  0  0  0  0  0  0
   -7.6900   -1.6140  -15.1745 C   0  0  0  0  0  0  0  0  0  0  0  0
   -7.0169   -1.5171  -16.3747 O   0  0  0  0  0  0  0  0  0  0  0  0
   -7.3887   -4.1225  -14.6715 C   0  0  0  0  0  0  0  0  0  0  0  0
   -8.1762   -4.9216  -14.1620 O   0  0  0  0  0  0  0  0  0  0  0  0
   -6.6380   -4.6436  -15.6430 N   0  0  0  0  0  0  0  0  0  0  0  0
   -5.7410   -3.9094  -16.5060 C   0  0  1  0  0  0  0  0  0  0  0  0
   -4.2625   -4.2946  -16.4257 C   0  0  0  0  0  0  0  0  0  0  0  0
   -3.7890   -5.6724  -16.9029 C   0  0  0  0  0  0  0  0  0  0  0  0
   -3.0766   -5.7688  -18.3231 C   0  0  0  0  0  0  0  0  0  0  0  0
   -2.8846   -7.2395  -18.9598 C   0  0  0  0  0  0  0  0  0  0  0  0
   -3.5056   -8.5301  -18.1442 C   0  0  0  0  0  0  0  0  0  0  0  0
   -4.2302   -8.3192  -16.7212 C   0  0  0  0  0  0  0  0  0  0  0  0
   -4.3784   -6.9224  -16.1268 C   0  0  0  0  0  0  0  0  0  0  0  0
   -6.3701   -3.6378  -17.9053 C   0  0  0  0  0  0  0  0  0  0  0  0
   -6.5307   -2.5568  -18.4567 O   0  0  0  0  0  0  0  0  0  0  0  0
   -6.7804   -4.6744  -18.6442 N   0  0  0  0  0  0  0  0  0  0  0  0
   -6.5341   -5.9583  -18.2632 C   0  0  1  0  0  0  0  0  0  0  0  0
   -7.5448   -7.0508  -18.0083 C   0  0  0  0  0  0  0  0  0  0  0  0
   -8.0730   -7.4826  -19.3031 C   0  0  0  0  0  0  0  0  0  0  0  0
   -6.9224   -8.3475  -19.8118 C   0  0  0  0  0  0  0  0  0  0  0  0
   -6.3432   -9.6326  -19.5778 C   0  0  0  0  0  0  0  0  0  0  0  0
   -7.4856  -10.4044  -19.8078 N   0  0  0  0  0  0  0  0  0  0  0  0
   -5.4464   -6.2495  -19.1793 C   0  0  0  0  0  0  0  0  0  0  0  0
   -4.9238   -7.0317  -18.4346 O   0  0  0  0  0  0  0  0  0  0  0  0
   -5.2705   -6.3652  -20.5446 N   0  0  0  0  0  0  0  0  0  0  0  0
   -6.5295   -6.4064  -21.3634 C   0  0  1  0  0  0  0  0  0  0  0  0
   -6.4874   -5.3011  -22.2836 C   0  0  0  0  0  0  0  0  0  0  0  0
   -5.7651   -5.8648  -23.3914 C   0  0  0  0  0  0  0  0  0  0  0  0
   -6.8378   -6.8457  -24.2415 C   0  0  0  0  0  0  0  0  0  0  0  0
   -7.0646   -6.3205  -25.4229 O   0  0  0  0  0  0  0  0  0  0  0  0
   -7.1710   -8.0172  -24.2112 O   0  0  0  0  0  0  0  0  0  0  0  0
   -7.4222   -7.8599  -22.0402 C   0  0  0  0  0  0  0  0  0  0  0  0
   -8.5977   -8.1790  -21.8106 O   0  0  0  0  0  0  0  0  0  0  0  0
   -6.3374   -8.8881  -22.5069 N   0  0  0  0  0  0  0  0  0  0  0  0
   -4.9961   -8.4560  -23.1861 C   0  0  1  0  0  0  0  0  0  0  0  0
   -3.9297   -9.4587  -22.8869 C   0  0  0  0  0  0  0  0  0  0  0  0
   -4.3449  -10.7255  -23.6067 C   0  0  0  0  0  0  0  0  0  0  0  0
   -4.4390  -10.5683  -25.1157 C   0  0  0  0  0  0  0  0  0  0  0  0
   -3.1940   -9.8754  -25.7213 C   0  0  0  0  0  0  0  0  0  0  0  0
   -2.1092  -10.8030  -25.4996 N   0  0  0  0  0  0  0  0  0  0  0  0
   -4.8346   -7.9247  -24.9012 C   0  0  0  0  0  0  0  0  0  0  0  0
   -4.3701   -6.7162  -25.2694 O   0  0  0  0  0  0  0  0  0  0  0  0
   -5.3915   -8.3939  -25.8954 O   0  0  0  0  0  0  0  0  0  0  0  0
   -9.0934    9.6168    0.7052 O   0  0  0  0  0  0  0  0  0  0  0  0
   -9.4999    8.3489    0.5003 C   0  0  0  0  0  0  0  0  0  0  0  0
   -8.9300    7.4879    1.0996 O   0  0  0  0  0  0  0  0  0  0  0  0
  -10.7538    7.8680   -0.1562 C   0  0  0  0  0  0  0  0  0  0  0  0
  -11.7584    7.8115    0.9304 C   0  0  0  0  0  0  0  0  0  0  0  0
  -11.7952    9.2471    1.3213 C   0  0  0  0  0  0  0  0  0  0  0  0
  -11.9263   10.0658    0.0207 C   0  0  0  0  0  0  0  0  0  0  0  0
  -13.2028    9.6244   -0.6833 C   0  0  0  0  0  0  0  0  0  0  0  0
  -14.3567    9.8437    0.2844 C   0  0  0  0  0  0  0  0  0  0  0  0
  -14.3919   11.3186    0.6788 C   0  0  0  0  0  0  0  0  0  0  0  0
  -14.5805   12.1653   -0.5778 C   0  0  0  0  0  0  0  0  0  0  0  0
  -15.8890   11.7677   -1.2579 C   0  0  0  0  0  0  0  0  0  0  0  0
  -17.0503   12.0002   -0.2933 C   0  0  0  0  0  0  0  0  0  0  0  0
  -17.0980   13.4768    0.0960 C   0  0  0  0  0  0  0  0  0  0  0  0
  -17.2944   14.3310   -1.1571 C   0  0  0  0  0  0  0  0  0  0  0  0
  -18.6104   13.9613   -1.8433 C   0  0  0  0  0  0  0  0  0  0  0  0
  -19.7853   14.1818   -0.8952 C   0  0  0  0  0  0  0  0  0  0  0  0
  -19.8444   15.6402   -0.4798 C   0  0  0  0  0  0  0  0  0  0  0  0
   -8.0900   -1.6106   -8.6679 H   0  0  0  0  0  0  0  0  0  0  0  0
   -8.3757   -2.8089   -8.2003 H   0  0  0  0  0  0  0  0  0  0  0  0
   -6.5526   -2.2804   -8.6625 H   0  0  0  0  0  0  0  0  0  0  0  0
   -7.6547   -2.2396   -5.7718 H   0  0  0  0  0  0  0  0  0  0  0  0
   -6.3544   -3.3538   -6.3457 H   0  0  0  0  0  0  0  0  0  0  0  0
   -4.8917   -1.4249   -4.6813 H   0  0  0  0  0  0  0  0  0  0  0  0
   -4.2488   -1.3770   -6.3413 H   0  0  0  0  0  0  0  0  0  0  0  0
   -4.3408    1.1983   -5.4451 H   0  0  0  0  0  0  0  0  0  0  0  0
   -4.7641    0.7779   -6.9680 H   0  0  0  0  0  0  0  0  0  0  0  0
   -7.3870    1.5478   -5.6058 H   0  0  0  0  0  0  0  0  0  0  0  0
   -7.7669    0.8540   -5.9237 H   0  0  0  0  0  0  0  0  0  0  0  0
   -7.4707   -0.2360   -2.9076 H   0  0  0  0  0  0  0  0  0  0  0  0
   -6.0853   -1.2613   -3.5321 H   0  0  0  0  0  0  0  0  0  0  0  0
   -4.7795    0.8179   -1.8028 H   0  0  0  0  0  0  0  0  0  0  0  0
   -4.1719    1.0608   -3.5609 H   0  0  0  0  0  0  0  0  0  0  0  0
   -5.0419    3.4210   -2.7417 H   0  0  0  0  0  0  0  0  0  0  0  0
   -5.2690    2.7478   -4.0245 H   0  0  0  0  0  0  0  0  0  0  0  0
   -8.0804    3.3105   -2.7259 H   0  0  0  0  0  0  0  0  0  0  0  0
   -8.3596    2.0436   -2.5909 H   0  0  0  0  0  0  0  0  0  0  0  0
   -7.6295    1.9216   -0.7931 H   0  0  0  0  0  0  0  0  0  0  0  0
   -6.3168    1.1566   -0.9328 H   0  0  0  0  0  0  0  0  0  0  0  0
   -4.5610    2.8675    0.0951 H   0  0  0  0  0  0  0  0  0  0  0  0
   -4.2728    3.2394   -1.3814 H   0  0  0  0  0  0  0  0  0  0  0  0
   -4.3865    5.6901   -0.4447 H   0  0  0  0  0  0  0  0  0  0  0  0
   -5.4940    5.5090   -1.5065 H   0  0  0  0  0  0  0  0  0  0  0  0
   -6.9049    5.6335    0.4635 H   0  0  0  0  0  0  0  0  0  0  0  0
   -6.7921    5.4297   -0.5230 H   0  0  0  0  0  0  0  0  0  0  0  0
   -7.1088    5.1137    1.7363 H   0  0  0  0  0  0  0  0  0  0  0  0
   -5.6156    4.5246    2.0294 H   0  0  0  0  0  0  0  0  0  0  0  0
   -4.5642    5.8788    2.8320 H   0  0  0  0  0  0  0  0  0  0  0  0
   -3.9972    5.7096    1.2873 H   0  0  0  0  0  0  0  0  0  0  0  0
   -5.7785   10.3995    0.6653 H   0  0  0  0  0  0  0  0  0  0  0  0
   -6.8696    9.4830   -0.4071 H   0  0  0  0  0  0  0  0  0  0  0  0
   -7.9726   11.0247    1.6960 H   0  0  0  0  0  0  0  0  0  0  0  0
   -8.3907    8.8521    2.6675 H   0  0  0  0  0  0  0  0  0  0  0  0
   -7.0602    8.6971    3.1985 H   0  0  0  0  0  0  0  0  0  0  0  0
   -5.7174   11.6578    3.2301 H   0  0  0  0  0  0  0  0  0  0  0  0
   -5.2517   11.6660    5.0158 H   0  0  0  0  0  0  0  0  0  0  0  0
   -3.9327    9.5142    4.1956 H   0  0  0  0  0  0  0  0  0  0  0  0
   -5.6957    9.3801    2.4753 H   0  0  0  0  0  0  0  0  0  0  0  0
   -4.2665    9.2896    2.2120 H   0  0  0  0  0  0  0  0  0  0  0  0
   -7.4208    7.4315    5.8649 H   0  0  0  0  0  0  0  0  0  0  0  0
   -9.2195    9.3142    5.4424 H   0  0  0  0  0  0  0  0  0  0  0  0
   -8.9671    9.5327    4.0449 H   0  0  0  0  0  0  0  0  0  0  0  0
   -9.3786    6.4565    2.2648 H   0  0  0  0  0  0  0  0  0  0  0  0
   -6.6533    7.1795    3.0686 H   0  0  0  0  0  0  0  0  0  0  0  0
   -5.6570    4.8785    3.6302 H   0  0  0  0  0  0  0  0  0  0  0  0
   -7.0096    5.3613    4.4928 H   0  0  0  0  0  0  0  0  0  0  0  0
   -6.5396    2.5467    0.8891 H   0  0  0  0  0  0  0  0  0  0  0  0
   -5.3148    3.2585    1.4947 H   0  0  0  0  0  0  0  0  0  0  0  0
   -7.2188    6.9598   -1.4413 H   0  0  0  0  0  0  0  0  0  0  0  0
   -8.7882    5.3771    0.9604 H   0  0  0  0  0  0  0  0  0  0  0  0
  -10.3401    4.3018   -0.3193 H   0  0  0  0  0  0  0  0  0  0  0  0
   -9.9779    6.0732   -0.1616 H   0  0  0  0  0  0  0  0  0  0  0  0
  -10.1515    4.2713   -3.7367 H   0  0  0  0  0  0  0  0  0  0  0  0
  -10.4478    3.4786   -2.2434 H   0  0  0  0  0  0  0  0  0  0  0  0
   -6.3763    3.9626   -1.8803 H   0  0  0  0  0  0  0  0  0  0  0  0
   -7.6450    5.9938   -2.6002 H   0  0  0  0  0  0  0  0  0  0  0  0
   -6.2540    6.4221   -4.3326 H   0  0  0  0  0  0  0  0  0  0  0  0
   -5.2264    6.1915   -2.9525 H   0  0  0  0  0  0  0  0  0  0  0  0
   -5.8220    5.4437   -6.2097 H   0  0  0  0  0  0  0  0  0  0  0  0
   -9.0107    3.1373   -5.3604 H   0  0  0  0  0  0  0  0  0  0  0  0
   -6.5639    3.6969   -4.2613 H   0  0  0  0  0  0  0  0  0  0  0  0
   -6.1100    1.4369   -4.1305 H   0  0  0  0  0  0  0  0  0  0  0  0
   -7.0414    1.1243   -2.9130 H   0  0  0  0  0  0  0  0  0  0  0  0
   -7.8134   -1.2812   -4.3343 H   0  0  0  0  0  0  0  0  0  0  0  0
   -8.9678    0.0404   -4.7387 H   0  0  0  0  0  0  0  0  0  0  0  0
   -5.4181   -1.6476   -7.5149 H   0  0  0  0  0  0  0  0  0  0  0  0
   -5.9613    2.3649   -8.0062 H   0  0  0  0  0  0  0  0  0  0  0  0
   -8.6284    1.9676   -6.6842 H   0  0  0  0  0  0  0  0  0  0  0  0
  -10.0077    1.6187   -8.1012 H   0  0  0  0  0  0  0  0  0  0  0  0
   -9.2888    3.3344   -7.7653 H   0  0  0  0  0  0  0  0  0  0  0  0
   -7.7283    2.7979   -9.3744 H   0  0  0  0  0  0  0  0  0  0  0  0
   -6.9245   -0.8986   -9.4424 H   0  0  0  0  0  0  0  0  0  0  0  0
   -6.5459    1.6861   -9.4830 H   0  0  0  0  0  0  0  0  0  0  0  0
   -4.7105    1.6199  -10.7612 H   0  0  0  0  0  0  0  0  0  0  0  0
   -4.4542    0.8826   -9.1404 H   0  0  0  0  0  0  0  0  0  0  0  0
   -3.6631   -1.1762  -12.4500 H   0  0  0  0  0  0  0  0  0  0  0  0
   -4.1347    0.4679  -12.6159 H   0  0  0  0  0  0  0  0  0  0  0  0
   -7.9739   -0.8267  -12.4748 H   0  0  0  0  0  0  0  0  0  0  0  0
   -5.9433   -1.6875  -10.5708 H   0  0  0  0  0  0  0  0  0  0  0  0
   -7.8064   -3.0463  -10.1196 H   0  0  0  0  0  0  0  0  0  0  0  0
   -7.0962   -4.0485  -12.6064 H   0  0  0  0  0  0  0  0  0  0  0  0
   -8.3988   -4.7621  -11.8012 H   0  0  0  0  0  0  0  0  0  0  0  0
   -8.6847   -3.1017  -12.2973 H   0  0  0  0  0  0  0  0  0  0  0  0
   -6.5506   -5.2592  -10.4125 H   0  0  0  0  0  0  0  0  0  0  0  0
   -5.3168   -4.4667  -11.3398 H   0  0  0  0  0  0  0  0  0  0  0  0
   -5.9806   -3.8985   -8.4649 H   0  0  0  0  0  0  0  0  0  0  0  0
   -4.5682   -4.7629   -9.0001 H   0  0  0  0  0  0  0  0  0  0  0  0
   -4.6958   -3.1174   -9.3668 H   0  0  0  0  0  0  0  0  0  0  0  0
   -4.9313   -2.6297  -14.3614 H   0  0  0  0  0  0  0  0  0  0  0  0
   -7.6809   -2.3305  -13.4417 H   0  0  0  0  0  0  0  0  0  0  0  0
   -8.7364   -1.8841  -15.3241 H   0  0  0  0  0  0  0  0  0  0  0  0
   -7.5861   -0.6300  -14.7254 H   0  0  0  0  0  0  0  0  0  0  0  0
   -6.0796   -1.3526  -16.1795 H   0  0  0  0  0  0  0  0  0  0  0  0
   -6.9331   -5.5962  -15.8104 H   0  0  0  0  0  0  0  0  0  0  0  0
   -5.6326   -2.9754  -16.0210 H   0  0  0  0  0  0  0  0  0  0  0  0
   -3.7150   -3.5082  -16.9655 H   0  0  0  0  0  0  0  0  0  0  0  0
   -3.9694   -4.2564  -15.3638 H   0  0  0  0  0  0  0  0  0  0  0  0
   -3.3511   -4.8596  -19.0421 H   0  0  0  0  0  0  0  0  0  0  0  0
   -2.8569   -7.2986  -20.1087 H   0  0  0  0  0  0  0  0  0  0  0  0
   -3.9012   -9.4401  -18.7341 H   0  0  0  0  0  0  0  0  0  0  0  0
   -4.8079   -9.1558  -16.2328 H   0  0  0  0  0  0  0  0  0  0  0  0
   -5.1869   -6.7559  -15.3239 H   0  0  0  0  0  0  0  0  0  0  0  0
   -6.9118   -4.4863  -19.6169 H   0  0  0  0  0  0  0  0  0  0  0  0
   -6.1350   -5.9553  -17.2709 H   0  0  0  0  0  0  0  0  0  0  0  0
   -7.0895   -7.9528  -17.5501 H   0  0  0  0  0  0  0  0  0  0  0  0
   -8.2875   -6.6568  -17.3466 H   0  0  0  0  0  0  0  0  0  0  0  0
   -8.9787   -8.0459  -19.3185 H   0  0  0  0  0  0  0  0  0  0  0  0
   -8.4104   -6.5380  -19.7826 H   0  0  0  0  0  0  0  0  0  0  0  0
   -6.4500   -8.2492  -20.7074 H   0  0  0  0  0  0  0  0  0  0  0  0
   -6.0662   -7.8851  -19.5616 H   0  0  0  0  0  0  0  0  0  0  0  0
   -5.5165   -9.7809  -20.3148 H   0  0  0  0  0  0  0  0  0  0  0  0
   -5.9467   -9.4977  -18.5908 H   0  0  0  0  0  0  0  0  0  0  0  0
   -7.2592  -11.2887  -19.4125 H   0  0  0  0  0  0  0  0  0  0  0  0
   -8.2484   -9.9480  -19.3062 H   0  0  0  0  0  0  0  0  0  0  0  0
   -4.6027   -7.1187  -20.7751 H   0  0  0  0  0  0  0  0  0  0  0  0
   -7.1582   -5.9508  -20.6537 H   0  0  0  0  0  0  0  0  0  0  0  0
   -7.4949   -5.1137  -22.6100 H   0  0  0  0  0  0  0  0  0  0  0  0
   -5.9623   -4.4710  -21.8018 H   0  0  0  0  0  0  0  0  0  0  0  0
   -5.5579   -5.0273  -24.0282 H   0  0  0  0  0  0  0  0  0  0  0  0
   -4.7092   -6.0988  -23.0365 H   0  0  0  0  0  0  0  0  0  0  0  0
   -6.3397   -6.7693  -25.9310 H   0  0  0  0  0  0  0  0  0  0  0  0
   -6.8488   -9.6342  -22.9839 H   0  0  0  0  0  0  0  0  0  0  0  0
   -4.6833   -7.6856  -22.5182 H   0  0  0  0  0  0  0  0  0  0  0  0
   -2.9807   -9.0121  -23.2115 H   0  0  0  0  0  0  0  0  0  0  0  0
   -3.8544   -9.6008  -21.8003 H   0  0  0  0  0  0  0  0  0  0  0  0
   -3.6493  -11.5095  -23.3663 H   0  0  0  0  0  0  0  0  0  0  0  0
   -5.3444  -11.0176  -23.2630 H   0  0  0  0  0  0  0  0  0  0  0  0
   -4.6853  -11.4592  -25.6844 H   0  0  0  0  0  0  0  0  0  0  0  0
   -5.4190  -10.1175  -25.2240 H   0  0  0  0  0  0  0  0  0  0  0  0
   -3.3276   -9.6093  -26.7754 H   0  0  0  0  0  0  0  0  0  0  0  0
   -2.8885   -8.9307  -25.2411 H   0  0  0  0  0  0  0  0  0  0  0  0
   -1.2354  -10.4026  -25.8151 H   0  0  0  0  0  0  0  0  0  0  0  0
   -2.0263  -10.9734  -24.4987 H   0  0  0  0  0  0  0  0  0  0  0  0
   -4.1634   -5.9328  -24.7493 H   0  0  0  0  0  0  0  0  0  0  0  0
  -10.7424    8.2432   -1.1633 H   0  0  0  0  0  0  0  0  0  0  0  0
  -11.1083    6.9066   -0.5018 H   0  0  0  0  0  0  0  0  0  0  0  0
  -12.6754    7.3946    0.5046 H   0  0  0  0  0  0  0  0  0  0  0  0
  -11.5079    7.0986    1.7301 H   0  0  0  0  0  0  0  0  0  0  0  0
  -12.5713    9.3863    2.0505 H   0  0  0  0  0  0  0  0  0  0  0  0
  -10.8982    9.5412    1.8614 H   0  0  0  0  0  0  0  0  0  0  0  0
  -11.8713   11.1166    0.2649 H   0  0  0  0  0  0  0  0  0  0  0  0
  -11.0924    9.9735   -0.6888 H   0  0  0  0  0  0  0  0  0  0  0  0
  -13.3096   10.1733   -1.6176 H   0  0  0  0  0  0  0  0  0  0  0  0
  -13.1825    8.5785   -1.0074 H   0  0  0  0  0  0  0  0  0  0  0  0
  -15.2852    9.5043   -0.1705 H   0  0  0  0  0  0  0  0  0  0  0  0
  -14.2758    9.2241    1.1802 H   0  0  0  0  0  0  0  0  0  0  0  0
  -15.1786   11.4820    1.4154 H   0  0  0  0  0  0  0  0  0  0  0  0
  -13.4874   11.6348    1.2035 H   0  0  0  0  0  0  0  0  0  0  0  0
  -14.5537   13.2240   -0.3157 H   0  0  0  0  0  0  0  0  0  0  0  0
  -13.7514   12.0568   -1.2804 H   0  0  0  0  0  0  0  0  0  0  0  0
  -16.0060   12.3270   -2.1875 H   0  0  0  0  0  0  0  0  0  0  0  0
  -15.8845   10.7263   -1.5864 H   0  0  0  0  0  0  0  0  0  0  0  0
  -17.9828   11.6651   -0.7507 H   0  0  0  0  0  0  0  0  0  0  0  0
  -16.9692   11.3836    0.6050 H   0  0  0  0  0  0  0  0  0  0  0  0
  -17.8875   13.6387    0.8319 H   0  0  0  0  0  0  0  0  0  0  0  0
  -16.1918   13.7918    0.6195 H   0  0  0  0  0  0  0  0  0  0  0  0
  -17.2637   15.3885   -0.8915 H   0  0  0  0  0  0  0  0  0  0  0  0
  -16.4648   14.2168   -1.8599 H   0  0  0  0  0  0  0  0  0  0  0  0
  -18.7336   14.5557   -2.7515 H   0  0  0  0  0  0  0  0  0  0  0  0
  -18.5996   12.9171   -2.1764 H   0  0  0  0  0  0  0  0  0  0  0  0
  -20.7158   13.8831   -1.3812 H   0  0  0  0  0  0  0  0  0  0  0  0
  -19.6992   13.5496   -0.0040 H   0  0  0  0  0  0  0  0  0  0  0  0
  -19.9606   16.2697   -1.3665 H   0  0  0  0  0  0  0  0  0  0  0  0
  -20.6717   15.8113    0.2065 H   0  0  0  0  0  0  0  0  0  0  0  0
  -18.9348   15.9549    0.0412 H   0  0  0  0  0  0  0  0  0  0  0  0
  1  2  1  0  0  0  0
  1150  1  0  0  0  0
  1151  1  0  0  0  0
  1152  1  0  0  0  0
  2  3  1  0  0  0  0
  2153  1  0  0  0  0
  2154  1  0  0  0  0
  3  4  1  0  0  0  0
  3155  1  0  0  0  0
  3156  1  0  0  0  0
  4  5  1  0  0  0  0
  4157  1  0  0  0  0
  4158  1  0  0  0  0
  5  6  1  0  0  0  0
  5159  1  0  0  0  0
  5160  1  0  0  0  0
  6  7  1  0  0  0  0
  6161  1  0  0  0  0
  6162  1  0  0  0  0
  7  8  1  0  0  0  0
  7163  1  0  0  0  0
  7164  1  0  0  0  0
  8  9  1  0  0  0  0
  8165  1  0  0  0  0
  8166  1  0  0  0  0
  9 10  1  0  0  0  0
  9167  1  0  0  0  0
  9168  1  0  0  0  0
 10 11  1  0  0  0  0
 10169  1  0  0  0  0
 10170  1  0  0  0  0
 11 12  1  0  0  0  0
 11171  1  0  0  0  0
 11172  1  0  0  0  0
 12 13  1  0  0  0  0
 12173  1  0  0  0  0
 12174  1  0  0  0  0
 13 14  1  0  0  0  0
 13175  1  0  0  0  0
 13176  1  0  0  0  0
 14 15  1  0  0  0  0
 14177  1  0  0  0  0
 14178  1  0  0  0  0
 15 16  1  0  0  0  0
 15179  1  0  0  0  0
 15180  1  0  0  0  0
 16 17  2  0  0  0  0
 16 18  1  0  0  0  0
 18 19  1  0  0  0  0
 19181  1  0  0  0  0
 19182  1  0  0  0  0
 20132  1  0  0  0  0
 20183  1  1  0  0  0
 20 21  1  0  0  0  0
 20 19  1  0  0  0  0
 21 22  1  0  0  0  0
 21184  1  0  0  0  0
 21185  1  0  0  0  0
 22 23  1  0  0  0  0
 23186  1  0  0  0  0
 23187  1  0  0  0  0
 24 26  1  0  0  0  0
 24188  1  1  0  0  0
 24 25  1  0  0  0  0
 24 23  1  0  0  0  0
 25189  1  0  0  0  0
 25190  1  0  0  0  0
 26 27  2  0  0  0  0
 26 28  1  0  0  0  0
 28 29  1  0  0  0  0
 28191  1  0  0  0  0
 29 30  1  0  0  0  0
 29192  1  0  0  0  0
 29193  1  0  0  0  0
 30 31  2  0  0  0  0
 30 32  1  0  0  0  0
 32194  1  0  0  0  0
 33 32  1  0  0  0  0
 33 34  1  0  0  0  0
 33 38  1  0  0  0  0
 33195  1  1  0  0  0
 34 35  1  0  0  0  0
 34196  1  0  0  0  0
 34197  1  0  0  0  0
 35 36  1  0  0  0  0
 35 37  2  0  0  0  0
 36198  1  0  0  0  0
 36199  1  0  0  0  0
 38 39  2  0  0  0  0
 38 40  1  0  0  0  0
 40200  1  0  0  0  0
 41 40  1  0  0  0  0
 41 42  1  0  0  0  0
 41 46  1  0  0  0  0
 41201  1  1  0  0  0
 42 43  1  0  0  0  0
 42202  1  0  0  0  0
 42203  1  0  0  0  0
 43 44  1  0  0  0  0
 43 45  2  0  0  0  0
 44204  1  0  0  0  0
 44205  1  0  0  0  0
 46 47  2  0  0  0  0
 46 48  1  0  0  0  0
 48206  1  0  0  0  0
 49 48  1  0  0  0  0
 49 50  1  0  0  0  0
 49 54  1  0  0  0  0
 49207  1  1  0  0  0
 50 51  1  0  0  0  0
 50208  1  0  0  0  0
 50209  1  0  0  0  0
 51 52  1  0  0  0  0
 51 53  2  0  0  0  0
 52210  1  0  0  0  0
 54 55  2  0  0  0  0
 54 56  1  0  0  0  0
 56211  1  0  0  0  0
 57 56  1  0  0  0  0
 57 58  1  0  0  0  0
 57 63  1  0  0  0  0
 57212  1  1  0  0  0
 58 59  1  0  0  0  0
 58213  1  0  0  0  0
 58214  1  0  0  0  0
 59 60  1  0  0  0  0
 59215  1  0  0  0  0
 59216  1  0  0  0  0
 60 61  1  0  0  0  0
 60 62  2  0  0  0  0
 61217  1  0  0  0  0
 63 64  2  0  0  0  0
 63 65  1  0  0  0  0
 65218  1  0  0  0  0
 66 65  1  0  0  0  0
 66 67  1  0  0  0  0
 66 69  1  0  0  0  0
 66219  1  1  0  0  0
 67 68  1  0  0  0  0
 67220  1  0  0  0  0
 67221  1  0  0  0  0
 68222  1  0  0  0  0
 69 70  2  0  0  0  0
 69 71  1  0  0  0  0
 71223  1  0  0  0  0
 72 71  1  0  0  0  0
 72 73  1  0  0  0  0
 72 77  1  0  0  0  0
 72224  1  1  0  0  0
 73 74  1  0  0  0  0
 73225  1  0  0  0  0
 73226  1  0  0  0  0
 74 75  1  0  0  0  0
 74 76  2  0  0  0  0
 75227  1  0  0  0  0
 75228  1  0  0  0  0
 77 78  2  0  0  0  0
 77 79  1  0  0  0  0
 79229  1  0  0  0  0
 80 79  1  0  0  0  0
 80 81  1  0  0  0  0
 80 85  1  0  0  0  0
 80230  1  1  0  0  0
 81 82  1  0  0  0  0
 81 83  1  0  0  0  0
 81231  1  1  0  0  0
 82232  1  0  0  0  0
 82233  1  0  0  0  0
 82234  1  0  0  0  0
 83 84  1  0  0  0  0
 83235  1  0  0  0  0
 83236  1  0  0  0  0
 84237  1  0  0  0  0
 84238  1  0  0  0  0
 84239  1  0  0  0  0
 85 86  2  0  0  0  0
 85 87  1  0  0  0  0
 87240  1  0  0  0  0
 88 87  1  0  0  0  0
 88 89  1  0  0  0  0
 88 91  1  0  0  0  0
 88241  1  1  0  0  0
 89 90  1  0  0  0  0
 89242  1  0  0  0  0
 89243  1  0  0  0  0
 90244  1  0  0  0  0
 91 92  2  0  0  0  0
 91 93  1  0  0  0  0
 93245  1  0  0  0  0
 94 93  1  0  0  0  0
 94 95  1  0  0  0  0
 94102  1  0  0  0  0
 94246  1  1  0  0  0
 95 96  1  0  0  0  0
 95247  1  0  0  0  0
 95248  1  0  0  0  0
 96 97  2  0  0  0  0
 96101  1  0  0  0  0
 97 98  1  0  0  0  0
 97249  1  0  0  0  0
 98 99  2  0  0  0  0
 98250  1  0  0  0  0
 99100  1  0  0  0  0
 99251  1  0  0  0  0
100101  2  0  0  0  0
100252  1  0  0  0  0
101253  1  0  0  0  0
102103  2  0  0  0  0
102104  1  0  0  0  0
104254  1  0  0  0  0
105104  1  0  0  0  0
105106  1  0  0  0  0
105111  1  0  0  0  0
105255  1  1  0  0  0
106107  1  0  0  0  0
106256  1  0  0  0  0
106257  1  0  0  0  0
107108  1  0  0  0  0
107258  1  0  0  0  0
107259  1  0  0  0  0
108109  1  0  0  0  0
108260  1  0  0  0  0
108261  1  0  0  0  0
109110  1  0  0  0  0
109262  1  0  0  0  0
109263  1  0  0  0  0
110264  1  0  0  0  0
110265  1  0  0  0  0
111112  2  0  0  0  0
111113  1  0  0  0  0
113266  1  0  0  0  0
114113  1  0  0  0  0
114115  1  0  0  0  0
114120  1  0  0  0  0
114267  1  1  0  0  0
115116  1  0  0  0  0
115268  1  0  0  0  0
115269  1  0  0  0  0
116117  1  0  0  0  0
116270  1  0  0  0  0
116271  1  0  0  0  0
117118  1  0  0  0  0
117119  2  0  0  0  0
118272  1  0  0  0  0
120121  2  0  0  0  0
120122  1  0  0  0  0
122273  1  0  0  0  0
123122  1  0  0  0  0
123124  1  0  0  0  0
123129  1  0  0  0  0
123274  1  1  0  0  0
124125  1  0  0  0  0
124275  1  0  0  0  0
124276  1  0  0  0  0
125126  1  0  0  0  0
125277  1  0  0  0  0
125278  1  0  0  0  0
126127  1  0  0  0  0
126279  1  0  0  0  0
126280  1  0  0  0  0
127128  1  0  0  0  0
127281  1  0  0  0  0
127282  1  0  0  0  0
128283  1  0  0  0  0
128284  1  0  0  0  0
129130  1  0  0  0  0
129131  2  0  0  0  0
130285  1  0  0  0  0
132133  1  0  0  0  0
133134  2  0  0  0  0
133135  1  0  0  0  0
135136  1  0  0  0  0
135286  1  0  0  0  0
135287  1  0  0  0  0
136137  1  0  0  0  0
136288  1  0  0  0  0
136289  1  0  0  0  0
137138  1  0  0  0  0
137290  1  0  0  0  0
137291  1  0  0  0  0
138139  1  0  0  0  0
138292  1  0  0  0  0
138293  1  0  0  0  0
139140  1  0  0  0  0
139294  1  0  0  0  0
139295  1  0  0  0  0
140141  1  0  0  0  0
140296  1  0  0  0  0
140297  1  0  0  0  0
141142  1  0  0  0  0
141298  1  0  0  0  0
141299  1  0  0  0  0
142143  1  0  0  0  0
142300  1  0  0  0  0
142301  1  0  0  0  0
143144  1  0  0  0  0
143302  1  0  0  0  0
143303  1  0  0  0  0
144145  1  0  0  0  0
144304  1  0  0  0  0
144305  1  0  0  0  0
145146  1  0  0  0  0
145306  1  0  0  0  0
145307  1  0  0  0  0
146147  1  0  0  0  0
146308  1  0  0  0  0
146309  1  0  0  0  0
147148  1  0  0  0  0
147310  1  0  0  0  0
147311  1  0  0  0  0
148149  1  0  0  0  0
148312  1  0  0  0  0
148313  1  0  0  0  0
149314  1  0  0  0  0
149315  1  0  0  0  0
149316  1  0  0  0  0
M  END
>  <DRUGBANK_ID>
DB18482

>  <COMMON_NAME>
MALP-2

>  <CAS_NUMBER>
250718-44-6

>  <UNII>
DZX5IUA94D

>  <SYNONYMS>
L-lysine, s-((2r)-2,3-bis((1-oxohexadecyl)oxy)propyl)-l-cysteinylglycyl-l-asparaginyl-l-asparaginyl-l-.alpha.-aspartyl-l-.alpha.-glutamyl-l-seryl-l-asparaginyl-l-isoleucyl-l-seryl-l-phenylalanyl-l-lysyl-l-.alpha.-glutamyl-; Macrophage-activating lipopeptide-2; S-(2,3-bispalmitoyloxy-(2r)-propyl)-cysteinly-gnndesnisfkek; S-[2,3-bispalmitoyloxy-(2R)-propyl]-cysteinly-GNNDESNISFKEK

$$$$
