
 OpenBabel10282417133D

 24 23  0  0  1  0  0  0  0  0999 V2000
    0.9396    0.2545    0.0057 C   0  0  0  0  0  0  0  0  0  0  0  0
    0.2206    0.0932    1.6728 S   0  0  0  0  0  0  0  0  0  0  0  0
    0.9197   -1.4698    2.3554 C   0  0  0  0  0  0  0  0  0  0  0  0
    0.4611   -2.7590    1.6697 C   0  0  0  0  0  0  0  0  0  0  0  0
    0.9936   -2.9482    0.2437 C   0  0  1  0  0  0  0  0  0  0  0  0
    2.4611   -2.9125    0.2262 N   0  0  0  0  0  0  0  0  0  0  0  0
    3.2046   -3.7913   -0.4838 C   0  0  0  0  0  0  0  0  0  0  0  0
    4.5347   -3.6695   -0.3374 N   0  0  0  0  0  0  0  0  0  0  0  0
    2.7636   -4.6822   -1.2003 O   0  0  0  0  0  0  0  0  0  0  0  0
    0.2750   -4.1452   -0.4101 C   0  0  0  0  0  0  0  0  0  0  0  0
   -0.4595   -3.8097   -1.5081 O   0  0  0  0  0  0  0  0  0  0  0  0
    0.3111   -5.2896    0.0174 O   0  0  0  0  0  0  0  0  0  0  0  0
    0.7130    1.2531   -0.3727 H   0  0  0  0  0  0  0  0  0  0  0  0
    0.4610   -0.3904   -0.7320 H   0  0  0  0  0  0  0  0  0  0  0  0
    2.0231    0.1097    0.0016 H   0  0  0  0  0  0  0  0  0  0  0  0
    2.0106   -1.4067    2.4309 H   0  0  0  0  0  0  0  0  0  0  0  0
    0.5666   -1.5134    3.3960 H   0  0  0  0  0  0  0  0  0  0  0  0
    0.7878   -3.6139    2.2802 H   0  0  0  0  0  0  0  0  0  0  0  0
   -0.6364   -2.7974    1.6762 H   0  0  0  0  0  0  0  0  0  0  0  0
    0.6632   -2.1100   -0.3393 H   0  0  0  0  0  0  0  0  0  0  0  0
    2.9432   -2.1116    0.6111 H   0  0  0  0  0  0  0  0  0  0  0  0
    5.0680   -4.3911   -0.8062 H   0  0  0  0  0  0  0  0  0  0  0  0
    5.0263   -2.9393    0.1493 H   0  0  0  0  0  0  0  0  0  0  0  0
   -0.4367   -2.8765   -1.7926 H   0  0  0  0  0  0  0  0  0  0  0  0
  1  2  1  0  0  0  0
  1 13  1  0  0  0  0
  1 14  1  0  0  0  0
  1 15  1  0  0  0  0
  2  3  1  0  0  0  0
  3  4  1  0  0  0  0
  3 16  1  0  0  0  0
  3 17  1  0  0  0  0
  4  5  1  0  0  0  0
  4 18  1  0  0  0  0
  4 19  1  0  0  0  0
  5  6  1  0  0  0  0
  5 10  1  0  0  0  0
  5 20  1  6  0  0  0
  6  7  1  0  0  0  0
  6 21  1  0  0  0  0
  7  8  1  0  0  0  0
  7  9  2  0  0  0  0
  8 22  1  0  0  0  0
  8 23  1  0  0  0  0
 10 11  1  0  0  0  0
 10 12  2  0  0  0  0
 11 24  1  0  0  0  0
M  END
>  <DRUGBANK_ID>
DB03364

>  <SECONDARY_ACCESSION_NUMBERS>
EXPT00877

>  <COMMON_NAME>
N-Carbamyl-D-Methionine

$$$$
