NFT
 OpenBabel10282417173D

 62 63  0  0  0  0  0  0  0  0999 V2000
   13.6680    2.8774    2.1911 C   0  0  0  0  0  0  0  0  0  0  0  0
   12.4172    1.1928    0.8222 C   0  0  0  0  0  0  0  0  0  0  0  0
   12.9614    1.6000    2.0495 C   0  0  0  0  0  0  0  0  0  0  0  0
   12.6941    0.8310    3.1899 C   0  0  0  0  0  0  0  0  0  0  0  0
   11.8051   -0.2332    3.1314 C   0  0  0  0  0  0  0  0  0  0  0  0
   11.5567    0.0964    0.7508 C   0  0  0  0  0  0  0  0  0  0  0  0
   11.2377   -0.6203    1.9099 C   0  0  0  0  0  0  0  0  0  0  0  0
   10.3543   -1.8517    1.8415 C   0  0  1  0  0  0  0  0  0  0  0  0
   11.2137   -3.1037    2.2370 C   0  0  0  0  0  0  0  0  0  0  0  0
   11.5683   -3.0584    3.5462 F   0  0  0  0  0  0  0  0  0  0  0  0
   12.3390   -3.2131    1.5007 F   0  0  0  0  0  0  0  0  0  0  0  0
   10.5280   -4.2577    2.0629 F   0  0  0  0  0  0  0  0  0  0  0  0
    6.0766   -1.7787    3.2344 N   0  0  0  0  0  0  0  0  0  0  0  0
    4.6950   -1.3780    3.0574 C   0  0  0  0  0  0  0  0  0  0  0  0
    9.1063   -1.5928    2.6340 N   0  0  0  0  0  0  0  0  0  0  0  0
    8.2265   -2.7729    2.5474 C   0  0  1  0  0  0  0  0  0  0  0  0
    8.3081   -3.6235    3.8247 C   0  0  0  0  0  0  0  0  0  0  0  0
    7.4802   -4.9113    3.7093 C   0  0  0  0  0  0  0  0  0  0  0  0
    7.9607   -5.7996    2.5595 C   0  0  0  0  0  0  0  0  0  0  0  0
    7.5511   -5.6823    5.0217 C   0  0  0  0  0  0  0  0  0  0  0  0
    6.7913   -2.3496    2.2109 C   0  0  0  0  0  0  0  0  0  0  0  0
    6.3164   -2.5617    1.0958 O   0  0  0  0  0  0  0  0  0  0  0  0
   13.0052    4.0773    1.8698 C   0  0  0  0  0  0  0  0  0  0  0  0
   13.5989    5.3215    2.1016 C   0  0  0  0  0  0  0  0  0  0  0  0
   14.8685    5.3730    2.6744 C   0  0  0  0  0  0  0  0  0  0  0  0
   15.5248    4.1928    3.0420 C   0  0  0  0  0  0  0  0  0  0  0  0
   14.9457    2.9526    2.7588 C   0  0  0  0  0  0  0  0  0  0  0  0
   15.7357    6.9006    2.9020 S   0  0  0  0  0  0  0  0  0  0  0  0
   14.7086    8.0983    2.3054 N   0  0  0  0  0  0  0  0  0  0  0  0
   16.8871    6.8837    2.0202 O   0  0  0  0  0  0  0  0  0  0  0  0
   15.8488    7.1562    4.3123 O   0  0  0  0  0  0  0  0  0  0  0  0
    3.7680   -2.1151    4.0288 C   0  0  0  0  0  0  0  0  0  0  0  0
    4.1033   -1.8103    5.4243 N   0  0  0  0  0  0  0  0  0  0  0  0
   10.0454   -1.9847    0.7945 H   0  0  0  0  0  0  0  0  0  0  0  0
    8.5228   -3.3666    1.6790 H   0  0  0  0  0  0  0  0  0  0  0  0
   12.6528    1.7393   -0.0886 H   0  0  0  0  0  0  0  0  0  0  0  0
   13.1444    1.0782    4.1485 H   0  0  0  0  0  0  0  0  0  0  0  0
   11.5617   -0.7567    4.0534 H   0  0  0  0  0  0  0  0  0  0  0  0
   11.1324   -0.1828   -0.2120 H   0  0  0  0  0  0  0  0  0  0  0  0
    6.5353   -1.5412    4.1023 H   0  0  0  0  0  0  0  0  0  0  0  0
    4.6504   -0.2969    3.2207 H   0  0  0  0  0  0  0  0  0  0  0  0
    4.3729   -1.5773    2.0306 H   0  0  0  0  0  0  0  0  0  0  0  0
    9.3763   -1.4417    3.6053 H   0  0  0  0  0  0  0  0  0  0  0  0
    9.3473   -3.8947    4.0461 H   0  0  0  0  0  0  0  0  0  0  0  0
    7.9788   -3.0426    4.6962 H   0  0  0  0  0  0  0  0  0  0  0  0
    6.4319   -4.6462    3.5306 H   0  0  0  0  0  0  0  0  0  0  0  0
    9.0028   -6.1015    2.7081 H   0  0  0  0  0  0  0  0  0  0  0  0
    7.3481   -6.7012    2.4848 H   0  0  0  0  0  0  0  0  0  0  0  0
    7.8917   -5.2970    1.5906 H   0  0  0  0  0  0  0  0  0  0  0  0
    7.1953   -5.0658    5.8534 H   0  0  0  0  0  0  0  0  0  0  0  0
    6.9256   -6.5780    4.9692 H   0  0  0  0  0  0  0  0  0  0  0  0
    8.5788   -5.9914    5.2407 H   0  0  0  0  0  0  0  0  0  0  0  0
   12.0011    4.0413    1.4477 H   0  0  0  0  0  0  0  0  0  0  0  0
   13.0536    6.2196    1.8307 H   0  0  0  0  0  0  0  0  0  0  0  0
   16.4879    4.2310    3.5462 H   0  0  0  0  0  0  0  0  0  0  0  0
   15.4945    2.0406    2.9867 H   0  0  0  0  0  0  0  0  0  0  0  0
   13.8905    8.2135    2.9017 H   0  0  0  0  0  0  0  0  0  0  0  0
   15.2401    8.9717    2.2501 H   0  0  0  0  0  0  0  0  0  0  0  0
    2.7324   -1.8196    3.8335 H   0  0  0  0  0  0  0  0  0  0  0  0
    3.8434   -3.1980    3.8727 H   0  0  0  0  0  0  0  0  0  0  0  0
    3.4790   -2.3345    6.0364 H   0  0  0  0  0  0  0  0  0  0  0  0
    5.0416   -2.1500    5.6222 H   0  0  0  0  0  0  0  0  0  0  0  0
  1  3  1  0  0  0  0
  1 23  2  0  0  0  0
  1 27  1  0  0  0  0
  2  6  2  0  0  0  0
  2  3  1  0  0  0  0
  2 36  1  0  0  0  0
  3  4  2  0  0  0  0
  4  5  1  0  0  0  0
  4 37  1  0  0  0  0
  5  7  2  0  0  0  0
  5 38  1  0  0  0  0
  6  7  1  0  0  0  0
  6 39  1  0  0  0  0
  7  8  1  0  0  0  0
  8  9  1  0  0  0  0
  8 15  1  0  0  0  0
  8 34  1  6  0  0  0
  9 10  1  0  0  0  0
  9 12  1  0  0  0  0
  9 11  1  0  0  0  0
 13 14  1  0  0  0  0
 13 21  1  0  0  0  0
 13 40  1  0  0  0  0
 14 32  1  0  0  0  0
 14 41  1  0  0  0  0
 14 42  1  0  0  0  0
 15 43  1  0  0  0  0
 16 17  1  0  0  0  0
 16 35  1  6  0  0  0
 16 21  1  0  0  0  0
 16 15  1  0  0  0  0
 17 18  1  0  0  0  0
 17 44  1  0  0  0  0
 17 45  1  0  0  0  0
 18 19  1  0  0  0  0
 18 20  1  0  0  0  0
 18 46  1  0  0  0  0
 19 47  1  0  0  0  0
 19 48  1  0  0  0  0
 19 49  1  0  0  0  0
 20 50  1  0  0  0  0
 20 51  1  0  0  0  0
 20 52  1  0  0  0  0
 21 22  2  0  0  0  0
 23 24  1  0  0  0  0
 23 53  1  0  0  0  0
 24 25  2  0  0  0  0
 24 54  1  0  0  0  0
 25 26  1  0  0  0  0
 25 28  1  0  0  0  0
 26 27  2  0  0  0  0
 26 55  1  0  0  0  0
 27 56  1  0  0  0  0
 28 31  2  0  0  0  0
 28 30  2  0  0  0  0
 28 29  1  0  0  0  0
 29 57  1  0  0  0  0
 29 58  1  0  0  0  0
 32 33  1  0  0  0  0
 32 59  1  0  0  0  0
 32 60  1  0  0  0  0
 33 61  1  0  0  0  0
 33 62  1  0  0  0  0
M  END
>  <DRUGBANK_ID>
DB08270

>  <COMMON_NAME>
N-(2-AMINOETHYL)-N~2~-{(1S)-1-[4'-(AMINOSULFONYL)BIPHENYL-4-YL]-2,2,2-TRIFLUOROETHYL}-L-LEUCINAMIDE

$$$$
