
 OpenBabel10282417143D

 94 97  0  0  1  0  0  0  0  0999 V2000
   -7.3058    3.3750   -8.3661 C   0  0  0  0  0  0  0  0  0  0  0  0
   -8.1777    2.6220   -7.4245 C   0  0  0  0  0  0  0  0  0  0  0  0
   -7.8033    1.2398   -7.8514 C   0  0  0  0  0  0  0  0  0  0  0  0
   -7.9473    2.9646   -5.9544 C   0  0  0  0  0  0  0  0  0  0  0  0
   -8.3859    4.3755   -5.5563 N   0  0  0  0  0  0  0  0  0  0  0  0
   -8.3048    4.4520   -4.0543 C   0  0  0  0  0  0  0  0  0  0  0  0
   -6.9160    4.1691   -3.5345 C   0  0  1  0  0  0  0  0  0  0  0  0
   -5.8703    4.9641   -4.0860 O   0  0  0  0  0  0  0  0  0  0  0  0
   -6.7978    4.4014   -2.0492 C   0  0  2  0  0  0  0  0  0  0  0  0
   -6.6644    5.9230   -1.7150 C   0  0  0  0  0  0  0  0  0  0  0  0
   -5.5357    6.4034   -0.8410 C   0  0  0  0  0  0  0  0  0  0  0  0
   -4.3431    5.6961   -0.6754 C   0  0  0  0  0  0  0  0  0  0  0  0
   -3.2216    6.1710   -0.0395 C   0  0  0  0  0  0  0  0  0  0  0  0
   -3.2505    7.4526    0.4353 C   0  0  0  0  0  0  0  0  0  0  0  0
   -4.4117    8.2167    0.2823 C   0  0  0  0  0  0  0  0  0  0  0  0
   -5.5678    7.6871   -0.3079 C   0  0  0  0  0  0  0  0  0  0  0  0
   -5.6818    3.5217   -1.7610 N   0  0  0  0  0  0  0  0  0  0  0  0
   -5.4721    2.7385   -0.6807 C   0  0  0  0  0  0  0  0  0  0  0  0
   -4.3039    2.4562   -0.4207 O   0  0  0  0  0  0  0  0  0  0  0  0
   -6.6941    2.2547    0.1064 C   0  0  2  0  0  0  0  0  0  0  0  0
   -6.3105    1.5448    1.4228 C   0  0  0  0  0  0  0  0  0  0  0  0
   -5.2821    0.4063    1.3218 C   0  0  0  0  0  0  0  0  0  0  0  0
   -5.7465    2.5380    2.4400 C   0  0  0  0  0  0  0  0  0  0  0  0
   -7.5212    1.3819   -0.7451 N   0  0  0  0  0  0  0  0  0  0  0  0
   -7.0482    0.1093   -1.2400 C   0  0  0  0  0  0  0  0  0  0  0  0
   -8.3104   -0.5477   -1.6763 C   0  0  0  0  0  0  0  0  0  0  0  0
   -9.0213    0.5795   -2.1872 N   0  0  0  0  0  0  0  0  0  0  0  0
  -10.0698    0.4451   -3.1452 C   0  0  0  0  0  0  0  0  0  0  0  0
   -9.5431   -0.2827   -4.3455 C   0  0  0  0  0  0  0  0  0  0  0  0
   -9.7346    0.1457   -5.6317 C   0  0  0  0  0  0  0  0  0  0  0  0
   -9.3702   -1.1495   -6.6906 S   0  0  0  0  0  0  0  0  0  0  0  0
   -8.4527   -1.8792   -5.4699 C   0  0  0  0  0  0  0  0  0  0  0  0
   -7.5375   -2.9760   -5.8700 C   0  0  0  0  0  0  0  0  0  0  0  0
   -8.7909   -1.4681   -4.2694 N   0  0  0  0  0  0  0  0  0  0  0  0
   -8.6851    1.6989   -1.4507 C   0  0  0  0  0  0  0  0  0  0  0  0
   -9.3101    2.7706   -1.4633 O   0  0  0  0  0  0  0  0  0  0  0  0
   -7.6444    5.6375   -6.4591 S   0  0  0  0  0  0  0  0  0  0  0  0
   -6.2096    5.4053   -6.4195 O   0  0  0  0  0  0  0  0  0  0  0  0
   -8.3330    5.8585   -7.7085 O   0  0  0  0  0  0  0  0  0  0  0  0
   -7.9684    7.1787   -5.7738 C   0  0  0  0  0  0  0  0  0  0  0  0
   -9.0520    7.4196   -4.9430 C   0  0  0  0  0  0  0  0  0  0  0  0
   -9.4087    8.7289   -4.6927 C   0  0  0  0  0  0  0  0  0  0  0  0
   -8.7386    9.7493   -5.3752 C   0  0  0  0  0  0  0  0  0  0  0  0
   -7.6884    9.4892   -6.2574 C   0  0  0  0  0  0  0  0  0  0  0  0
   -7.3202    8.1936   -6.4797 C   0  0  0  0  0  0  0  0  0  0  0  0
   -9.2015   11.1307   -5.2688 C   0  0  0  0  0  0  0  0  0  0  0  0
   -8.6192   12.0541   -5.9609 N   0  0  0  0  0  0  0  0  0  0  0  0
   -9.2236   13.2806   -5.7220 O   0  0  0  0  0  0  0  0  0  0  0  0
   -6.2861    3.4638   -7.9845 H   0  0  0  0  0  0  0  0  0  0  0  0
   -7.8272    4.2720   -8.5020 H   0  0  0  0  0  0  0  0  0  0  0  0
   -7.3146    3.0439   -9.4005 H   0  0  0  0  0  0  0  0  0  0  0  0
   -9.2431    2.7963   -7.6276 H   0  0  0  0  0  0  0  0  0  0  0  0
   -6.9401    0.8384   -7.3145 H   0  0  0  0  0  0  0  0  0  0  0  0
   -8.7287    0.7414   -7.7365 H   0  0  0  0  0  0  0  0  0  0  0  0
   -7.6517    1.1059   -8.9286 H   0  0  0  0  0  0  0  0  0  0  0  0
   -8.5070    2.3002   -5.2854 H   0  0  0  0  0  0  0  0  0  0  0  0
   -6.9000    2.7783   -5.6967 H   0  0  0  0  0  0  0  0  0  0  0  0
   -8.6583    5.3865   -3.6401 H   0  0  0  0  0  0  0  0  0  0  0  0
   -9.0147    3.7166   -3.6544 H   0  0  0  0  0  0  0  0  0  0  0  0
   -6.6621    3.1253   -3.7508 H   0  0  0  0  0  0  0  0  0  0  0  0
   -5.7749    4.7779   -5.0398 H   0  0  0  0  0  0  0  0  0  0  0  0
   -7.6497    4.0690   -1.4845 H   0  0  0  0  0  0  0  0  0  0  0  0
   -6.5928    6.5192   -2.6389 H   0  0  0  0  0  0  0  0  0  0  0  0
   -7.6375    6.2496   -1.3132 H   0  0  0  0  0  0  0  0  0  0  0  0
   -4.1483    4.7199   -1.0464 H   0  0  0  0  0  0  0  0  0  0  0  0
   -2.3577    5.5144    0.0140 H   0  0  0  0  0  0  0  0  0  0  0  0
   -2.3614    7.8409    0.9117 H   0  0  0  0  0  0  0  0  0  0  0  0
   -4.4013    9.2507    0.6033 H   0  0  0  0  0  0  0  0  0  0  0  0
   -6.4657    8.2968   -0.3842 H   0  0  0  0  0  0  0  0  0  0  0  0
   -4.8575    3.7106   -2.3276 H   0  0  0  0  0  0  0  0  0  0  0  0
   -7.3015    3.1365    0.3561 H   0  0  0  0  0  0  0  0  0  0  0  0
   -7.2442    1.1366    1.8330 H   0  0  0  0  0  0  0  0  0  0  0  0
   -4.3170    0.7359    0.9397 H   0  0  0  0  0  0  0  0  0  0  0  0
   -5.1249   -0.0483    2.2984 H   0  0  0  0  0  0  0  0  0  0  0  0
   -5.5538   -0.4320    0.7058 H   0  0  0  0  0  0  0  0  0  0  0  0
   -6.4326    3.3664    2.6321 H   0  0  0  0  0  0  0  0  0  0  0  0
   -5.5625    2.0186    3.3860 H   0  0  0  0  0  0  0  0  0  0  0  0
   -4.7907    2.9520    2.1018 H   0  0  0  0  0  0  0  0  0  0  0  0
   -6.6802   -0.5749   -0.5090 H   0  0  0  0  0  0  0  0  0  0  0  0
   -6.3233    0.2684   -2.0481 H   0  0  0  0  0  0  0  0  0  0  0  0
   -8.8713   -0.9485   -0.8246 H   0  0  0  0  0  0  0  0  0  0  0  0
   -8.0684   -1.3580   -2.3460 H   0  0  0  0  0  0  0  0  0  0  0  0
  -10.9052   -0.1084   -2.7110 H   0  0  0  0  0  0  0  0  0  0  0  0
  -10.4247    1.4491   -3.4148 H   0  0  0  0  0  0  0  0  0  0  0  0
  -10.1468    1.0935   -5.9525 H   0  0  0  0  0  0  0  0  0  0  0  0
   -7.9174   -3.4335   -6.7912 H   0  0  0  0  0  0  0  0  0  0  0  0
   -6.5277   -2.6101   -6.0955 H   0  0  0  0  0  0  0  0  0  0  0  0
   -7.4874   -3.7508   -5.1057 H   0  0  0  0  0  0  0  0  0  0  0  0
   -9.6952    6.6244   -4.5849 H   0  0  0  0  0  0  0  0  0  0  0  0
  -10.2394    8.9199   -4.0227 H   0  0  0  0  0  0  0  0  0  0  0  0
   -7.1878   10.2715   -6.8166 H   0  0  0  0  0  0  0  0  0  0  0  0
   -6.6424    7.9554   -7.3034 H   0  0  0  0  0  0  0  0  0  0  0  0
  -10.0567   11.3345   -4.6047 H   0  0  0  0  0  0  0  0  0  0  0  0
   -8.6928   13.8685   -6.2916 H   0  0  0  0  0  0  0  0  0  0  0  0
  1  2  1  0  0  0  0
  1 49  1  0  0  0  0
  1 50  1  0  0  0  0
  1 51  1  0  0  0  0
  2  3  1  0  0  0  0
  2  4  1  0  0  0  0
  2 52  1  0  0  0  0
  3 53  1  0  0  0  0
  3 54  1  0  0  0  0
  3 55  1  0  0  0  0
  4  5  1  0  0  0  0
  4 56  1  0  0  0  0
  4 57  1  0  0  0  0
  5  6  1  0  0  0  0
  5 37  1  0  0  0  0
  6  7  1  0  0  0  0
  6 58  1  0  0  0  0
  6 59  1  0  0  0  0
  7  8  1  0  0  0  0
  7 60  1  6  0  0  0
  8 61  1  0  0  0  0
  9 17  1  0  0  0  0
  9 62  1  1  0  0  0
  9 10  1  0  0  0  0
  9  7  1  0  0  0  0
 10 11  1  0  0  0  0
 10 63  1  0  0  0  0
 10 64  1  0  0  0  0
 11 12  2  0  0  0  0
 11 16  1  0  0  0  0
 12 13  1  0  0  0  0
 12 65  1  0  0  0  0
 13 14  2  0  0  0  0
 13 66  1  0  0  0  0
 14 15  1  0  0  0  0
 14 67  1  0  0  0  0
 15 16  2  0  0  0  0
 15 68  1  0  0  0  0
 16 69  1  0  0  0  0
 17 18  1  0  0  0  0
 17 70  1  0  0  0  0
 18 19  2  0  0  0  0
 20 24  1  0  0  0  0
 20 71  1  1  0  0  0
 20 21  1  0  0  0  0
 20 18  1  0  0  0  0
 21 22  1  0  0  0  0
 21 23  1  0  0  0  0
 21 72  1  0  0  0  0
 22 73  1  0  0  0  0
 22 74  1  0  0  0  0
 22 75  1  0  0  0  0
 23 76  1  0  0  0  0
 23 77  1  0  0  0  0
 23 78  1  0  0  0  0
 24 25  1  0  0  0  0
 24 35  1  0  0  0  0
 25 26  1  0  0  0  0
 25 79  1  0  0  0  0
 25 80  1  0  0  0  0
 26 27  1  0  0  0  0
 26 81  1  0  0  0  0
 26 82  1  0  0  0  0
 27 28  1  0  0  0  0
 27 35  1  0  0  0  0
 28 29  1  0  0  0  0
 28 83  1  0  0  0  0
 28 84  1  0  0  0  0
 29 30  2  0  0  0  0
 29 34  1  0  0  0  0
 30 31  1  0  0  0  0
 30 85  1  0  0  0  0
 31 32  1  0  0  0  0
 32 33  1  0  0  0  0
 32 34  2  0  0  0  0
 33 86  1  0  0  0  0
 33 87  1  0  0  0  0
 33 88  1  0  0  0  0
 35 36  2  0  0  0  0
 37 38  2  0  0  0  0
 37 39  2  0  0  0  0
 37 40  1  0  0  0  0
 40 41  2  0  0  0  0
 40 45  1  0  0  0  0
 41 42  1  0  0  0  0
 41 89  1  0  0  0  0
 42 43  2  0  0  0  0
 42 90  1  0  0  0  0
 43 44  1  0  0  0  0
 43 46  1  0  0  0  0
 44 45  2  0  0  0  0
 44 91  1  0  0  0  0
 45 92  1  0  0  0  0
 46 47  2  0  0  0  0
 46 93  1  0  0  0  0
 47 48  1  0  0  0  0
 48 94  1  0  0  0  0
M  END
>  <DRUGBANK_ID>
DB04748

>  <COMMON_NAME>
OXIMINOARYLSULFONAMIDE

$$$$
