3290
 OpenBabel10282417103D

 46 48  0  0  1  0  0  0  0  0999 V2000
    0.1436    1.6655   -0.4647 S   0  0  0  0  0  0  0  0  0  0  0  0
   -2.1997   -1.1317    3.1660 N   0  0  0  0  0  0  0  0  0  0  0  0
    0.0619   -1.3001    0.5508 N   0  0  0  0  0  0  0  0  0  0  0  0
   -0.7751   -1.5905    3.1859 C   0  0  3  0  0  0  0  0  0  0  0  0
   -0.1050   -2.1829    1.8039 C   0  0  0  0  0  0  0  0  0  0  0  0
   -0.6481   -2.6687    4.2982 C   0  0  0  0  0  0  0  0  0  0  0  0
   -2.8896   -0.7382    4.3935 C   0  0  0  0  0  0  0  0  0  0  0  0
   -2.4051   -0.0457    2.2316 C   0  0  0  0  0  0  0  0  0  0  0  0
   -1.0272   -0.9221   -0.2951 C   0  0  0  0  0  0  0  0  0  0  0  0
    1.3358   -0.7601    0.2829 C   0  0  0  0  0  0  0  0  0  0  0  0
   -1.1534    0.4453   -0.6989 C   0  0  0  0  0  0  0  0  0  0  0  0
    1.5079    0.5849   -0.1242 C   0  0  0  0  0  0  0  0  0  0  0  0
   -2.3060    0.4962    5.0606 C   0  0  0  0  0  0  0  0  0  0  0  0
   -1.5413    1.2052    2.2882 C   0  0  0  0  0  0  0  0  0  0  0  0
    2.4480   -1.6073    0.1254 C   0  0  0  0  0  0  0  0  0  0  0  0
   -2.1475   -1.7582   -0.4818 C   0  0  0  0  0  0  0  0  0  0  0  0
   -2.4228    0.9861   -0.9833 C   0  0  0  0  0  0  0  0  0  0  0  0
    2.7336    1.0967   -0.5132 C   0  0  0  0  0  0  0  0  0  0  0  0
    3.6338   -1.1253   -0.4152 C   0  0  0  0  0  0  0  0  0  0  0  0
   -3.3987   -1.2062   -0.8222 C   0  0  0  0  0  0  0  0  0  0  0  0
    3.8028    0.2252   -0.7138 C   0  0  0  0  0  0  0  0  0  0  0  0
   -3.5450    0.1678   -1.0182 C   0  0  0  0  0  0  0  0  0  0  0  0
   -0.1275   -0.7695    3.5093 H   0  0  0  0  0  0  0  0  0  0  0  0
   -0.6005   -3.1226    1.5331 H   0  0  0  0  0  0  0  0  0  0  0  0
    0.9041   -2.4882    2.1243 H   0  0  0  0  0  0  0  0  0  0  0  0
    0.3977   -2.9244    4.4953 H   0  0  0  0  0  0  0  0  0  0  0  0
   -1.0385   -2.3131    5.2599 H   0  0  0  0  0  0  0  0  0  0  0  0
   -1.1910   -3.5856    4.0426 H   0  0  0  0  0  0  0  0  0  0  0  0
   -3.9323   -0.5101    4.1167 H   0  0  0  0  0  0  0  0  0  0  0  0
   -2.9844   -1.5677    5.0948 H   0  0  0  0  0  0  0  0  0  0  0  0
   -2.1734   -0.5722    1.3661 H   0  0  0  0  0  0  0  0  0  0  0  0
   -3.4590    0.1856    2.0485 H   0  0  0  0  0  0  0  0  0  0  0  0
   -2.6198    1.3956    4.5320 H   0  0  0  0  0  0  0  0  0  0  0  0
   -2.7010    0.6407    6.0616 H   0  0  0  0  0  0  0  0  0  0  0  0
   -1.2127    0.4607    5.0950 H   0  0  0  0  0  0  0  0  0  0  0  0
   -0.4799    0.9857    2.4345 H   0  0  0  0  0  0  0  0  0  0  0  0
   -1.6681    1.7600    1.3699 H   0  0  0  0  0  0  0  0  0  0  0  0
   -1.8368    1.9564    3.0061 H   0  0  0  0  0  0  0  0  0  0  0  0
    2.3286   -2.6768    0.2820 H   0  0  0  0  0  0  0  0  0  0  0  0
   -2.1188   -2.7924   -0.1514 H   0  0  0  0  0  0  0  0  0  0  0  0
   -2.5591    2.0685   -1.0069 H   0  0  0  0  0  0  0  0  0  0  0  0
    2.8352    2.1445   -0.7862 H   0  0  0  0  0  0  0  0  0  0  0  0
    4.4356   -1.8232   -0.6676 H   0  0  0  0  0  0  0  0  0  0  0  0
   -4.2888   -1.8295   -0.7837 H   0  0  0  0  0  0  0  0  0  0  0  0
    4.7042    0.5996   -1.1683 H   0  0  0  0  0  0  0  0  0  0  0  0
   -4.5319    0.6143   -1.1169 H   0  0  0  0  0  0  0  0  0  0  0  0
  1 11  1  0  0  0  0
  1 12  1  0  0  0  0
  2  4  1  0  0  0  0
  2  7  1  0  0  0  0
  2  8  1  0  0  0  0
  3  5  1  0  0  0  0
  3  9  1  0  0  0  0
  3 10  1  0  0  0  0
  4  5  1  0  0  0  0
  4  6  1  0  0  0  0
  4 23  1  0  0  0  0
  5 24  1  0  0  0  0
  5 25  1  0  0  0  0
  6 26  1  0  0  0  0
  6 27  1  0  0  0  0
  6 28  1  0  0  0  0
  7 13  1  0  0  0  0
  7 29  1  0  0  0  0
  7 30  1  0  0  0  0
  8 14  1  0  0  0  0
  8 31  1  0  0  0  0
  8 32  1  0  0  0  0
  9 11  1  0  0  0  0
  9 16  2  0  0  0  0
 10 12  1  0  0  0  0
 10 15  2  0  0  0  0
 11 17  2  0  0  0  0
 12 18  2  0  0  0  0
 13 33  1  0  0  0  0
 13 34  1  0  0  0  0
 13 35  1  0  0  0  0
 14 36  1  0  0  0  0
 14 37  1  0  0  0  0
 14 38  1  0  0  0  0
 15 19  1  0  0  0  0
 15 39  1  0  0  0  0
 16 20  1  0  0  0  0
 16 40  1  0  0  0  0
 17 22  1  0  0  0  0
 17 41  1  0  0  0  0
 18 21  1  0  0  0  0
 18 42  1  0  0  0  0
 19 21  2  0  0  0  0
 19 43  1  0  0  0  0
 20 22  2  0  0  0  0
 20 44  1  0  0  0  0
 21 45  1  0  0  0  0
 22 46  1  0  0  0  0
M  END
>  <DRUGBANK_ID>
DB00392

>  <SECONDARY_ACCESSION_NUMBERS>
APRD00729

>  <COMMON_NAME>
Profenamine

>  <CAS_NUMBER>
522-00-9

>  <UNII>
7WI4P02YN1

>  <SYNONYMS>
10-(2-diethylaminopropyl)phenothiazine; 10-[2-(diethylamino)-1-propyl]phenothiazine; 10-[2-(diethylamino)-2-methylethyl]phenothiazine; 10-[2-(diethylamino)propyl]phenothiazine; 2-diethylamino-1-propyl-N-dibenzoparathiazine; Ethopropazine; N,N-diethyl-1-(10H-phenothiazin-10-yl)-2-propanamine; N,N-diethyl-α-methyl-10H-phenothiazine-10-ethanamine; Profenamina; Profénamine; Profenamine; Profenaminum

$$$$
