
 OpenBabel10282417203D

 75 75  0  0  0  0  0  0  0  0999 V2000
    1.1044   -0.4056   -0.7582 C   0  0  0  0  0  0  0  0  0  0  0  0
    0.7459    1.1030   -0.8546 C   0  0  0  0  0  0  0  0  0  0  0  0
    1.2973    2.4201   -1.3180 N   0  0  0  0  0  0  0  0  0  0  0  0
    0.6206    3.7925   -0.9365 C   0  0  0  0  0  0  0  0  0  0  0  0
    0.7356    4.7255    0.3833 C   0  0  0  0  0  0  0  0  0  0  0  0
    2.6661    2.4259   -0.8531 C   0  0  0  0  0  0  0  0  0  0  0  0
    2.8978    2.8535    0.6150 C   0  0  0  0  0  0  0  0  0  0  0  0
    1.9119    2.8834    1.7278 O   0  0  0  0  0  0  0  0  0  0  0  0
    0.7193    2.3001    2.0953 C   0  0  0  0  0  0  0  0  0  0  0  0
   -0.3335    2.0097    1.2489 C   0  0  0  0  0  0  0  0  0  0  0  0
   -1.2211    0.9507    1.2967 C   0  0  0  0  0  0  0  0  0  0  0  0
   -1.3399    0.3340    2.5261 C   0  0  0  0  0  0  0  0  0  0  0  0
   -0.6718    0.9680    3.6238 C   0  0  0  0  0  0  0  0  0  0  0  0
    0.4090    1.9603    3.4321 C   0  0  0  0  0  0  0  0  0  0  0  0
    1.2375    2.2730    4.5021 O   0  0  0  0  0  0  0  0  0  0  0  0
    2.6189    2.6315    4.1865 C   0  0  0  0  0  0  0  0  0  0  0  0
    3.6023    1.4552    3.6765 C   0  0  0  0  0  0  0  0  0  0  0  0
    3.2437    0.6154    2.4977 N   0  0  0  0  0  0  0  0  0  0  0  0
    4.2204   -0.1720    1.7962 C   0  0  0  0  0  0  0  0  0  0  0  0
    4.3596   -1.4710    2.5461 C   0  0  0  0  0  0  0  0  0  0  0  0
    2.0299   -0.1626    2.6644 C   0  0  0  0  0  0  0  0  0  0  0  0
    1.5587   -1.1537    3.7018 C   0  0  0  0  0  0  0  0  0  0  0  0
   -1.2606    0.8663    4.8747 O   0  0  0  0  0  0  0  0  0  0  0  0
   -2.6708    0.5427    4.8080 C   0  0  0  0  0  0  0  0  0  0  0  0
   -3.6622    1.6907    4.3084 C   0  0  0  0  0  0  0  0  0  0  0  0
   -3.5688    2.3012    2.9525 N   0  0  0  0  0  0  0  0  0  0  0  0
   -4.6879    3.0639    2.4293 C   0  0  0  0  0  0  0  0  0  0  0  0
   -4.7011    4.4264    3.1028 C   0  0  0  0  0  0  0  0  0  0  0  0
   -2.4184    3.1843    2.7468 C   0  0  0  0  0  0  0  0  0  0  0  0
   -1.7403    4.1723    3.6742 C   0  0  0  0  0  0  0  0  0  0  0  0
    0.7748   -1.0048   -1.5957 H   0  0  0  0  0  0  0  0  0  0  0  0
    0.5567   -0.8381    0.1109 H   0  0  0  0  0  0  0  0  0  0  0  0
    2.1526   -0.5832   -0.5090 H   0  0  0  0  0  0  0  0  0  0  0  0
   -0.3277    1.1070   -1.0368 H   0  0  0  0  0  0  0  0  0  0  0  0
    1.0974    1.1803    0.1525 H   0  0  0  0  0  0  0  0  0  0  0  0
    0.9716    4.4771   -1.7096 H   0  0  0  0  0  0  0  0  0  0  0  0
   -0.4578    3.7082   -1.1321 H   0  0  0  0  0  0  0  0  0  0  0  0
    1.7516    4.9869    0.6828 H   0  0  0  0  0  0  0  0  0  0  0  0
    0.2461    5.6932    0.2659 H   0  0  0  0  0  0  0  0  0  0  0  0
    0.2246    4.3694    1.2811 H   0  0  0  0  0  0  0  0  0  0  0  0
    3.1183    1.4372   -1.0272 H   0  0  0  0  0  0  0  0  0  0  0  0
    3.2316    3.0678   -1.5403 H   0  0  0  0  0  0  0  0  0  0  0  0
    3.8337    2.3829    0.9364 H   0  0  0  0  0  0  0  0  0  0  0  0
    3.2555    3.8874    0.5346 H   0  0  0  0  0  0  0  0  0  0  0  0
   -0.5480    2.6217    0.3895 H   0  0  0  0  0  0  0  0  0  0  0  0
   -1.9423    0.7910    0.5082 H   0  0  0  0  0  0  0  0  0  0  0  0
   -2.2225   -0.2816    2.5626 H   0  0  0  0  0  0  0  0  0  0  0  0
    2.6615    3.5457    3.5763 H   0  0  0  0  0  0  0  0  0  0  0  0
    3.0476    2.9931    5.1309 H   0  0  0  0  0  0  0  0  0  0  0  0
    4.5637    1.9446    3.4693 H   0  0  0  0  0  0  0  0  0  0  0  0
    3.7395    0.7890    4.5291 H   0  0  0  0  0  0  0  0  0  0  0  0
    3.8287   -0.3781    0.7890 H   0  0  0  0  0  0  0  0  0  0  0  0
    5.1546    0.3685    1.6317 H   0  0  0  0  0  0  0  0  0  0  0  0
    3.4406   -2.0514    2.4401 H   0  0  0  0  0  0  0  0  0  0  0  0
    5.1277   -2.1134    2.1412 H   0  0  0  0  0  0  0  0  0  0  0  0
    4.5197   -1.2676    3.6103 H   0  0  0  0  0  0  0  0  0  0  0  0
    1.6232    0.5776    3.2306 H   0  0  0  0  0  0  0  0  0  0  0  0
    1.4522   -0.2033    1.7519 H   0  0  0  0  0  0  0  0  0  0  0  0
    1.9040   -0.8325    4.6886 H   0  0  0  0  0  0  0  0  0  0  0  0
    0.4648   -1.1272    3.7526 H   0  0  0  0  0  0  0  0  0  0  0  0
    1.7921   -2.1782    3.4702 H   0  0  0  0  0  0  0  0  0  0  0  0
   -2.8421   -0.4215    4.3066 H   0  0  0  0  0  0  0  0  0  0  0  0
   -2.9468    0.2992    5.8399 H   0  0  0  0  0  0  0  0  0  0  0  0
   -4.6576    1.2338    4.3863 H   0  0  0  0  0  0  0  0  0  0  0  0
   -3.5995    2.4818    5.0538 H   0  0  0  0  0  0  0  0  0  0  0  0
   -4.5056    3.2035    1.3477 H   0  0  0  0  0  0  0  0  0  0  0  0
   -5.6308    2.5215    2.4961 H   0  0  0  0  0  0  0  0  0  0  0  0
   -3.8473    5.0242    2.7705 H   0  0  0  0  0  0  0  0  0  0  0  0
   -5.5560    5.0274    2.8280 H   0  0  0  0  0  0  0  0  0  0  0  0
   -4.6269    4.3115    4.1894 H   0  0  0  0  0  0  0  0  0  0  0  0
   -1.7277    2.4586    2.9109 H   0  0  0  0  0  0  0  0  0  0  0  0
   -2.3014    3.4436    1.6858 H   0  0  0  0  0  0  0  0  0  0  0  0
   -1.8816    3.8863    4.7150 H   0  0  0  0  0  0  0  0  0  0  0  0
   -0.6578    4.1598    3.4999 H   0  0  0  0  0  0  0  0  0  0  0  0
   -2.0203    5.1960    3.4691 H   0  0  0  0  0  0  0  0  0  0  0  0
  1  2  1  0  0  0  0
  1 31  1  0  0  0  0
  1 32  1  0  0  0  0
  1 33  1  0  0  0  0
  2  3  1  0  0  0  0
  2 34  1  0  0  0  0
  2 35  1  0  0  0  0
  3  4  1  0  0  0  0
  3  6  1  0  0  0  0
  4  5  1  0  0  0  0
  4 36  1  0  0  0  0
  4 37  1  0  0  0  0
  5 38  1  0  0  0  0
  5 39  1  0  0  0  0
  5 40  1  0  0  0  0
  6  7  1  0  0  0  0
  6 41  1  0  0  0  0
  6 42  1  0  0  0  0
  7  8  1  0  0  0  0
  7 43  1  0  0  0  0
  7 44  1  0  0  0  0
  8  9  1  0  0  0  0
  9 10  2  0  0  0  0
  9 14  1  0  0  0  0
 10 11  1  0  0  0  0
 10 45  1  0  0  0  0
 11 12  2  0  0  0  0
 11 46  1  0  0  0  0
 12 13  1  0  0  0  0
 12 47  1  0  0  0  0
 13 14  2  0  0  0  0
 13 23  1  0  0  0  0
 14 15  1  0  0  0  0
 15 16  1  0  0  0  0
 16 17  1  0  0  0  0
 16 48  1  0  0  0  0
 16 49  1  0  0  0  0
 17 18  1  0  0  0  0
 17 50  1  0  0  0  0
 17 51  1  0  0  0  0
 18 19  1  0  0  0  0
 18 21  1  0  0  0  0
 19 20  1  0  0  0  0
 19 52  1  0  0  0  0
 19 53  1  0  0  0  0
 20 54  1  0  0  0  0
 20 55  1  0  0  0  0
 20 56  1  0  0  0  0
 21 22  1  0  0  0  0
 21 57  1  0  0  0  0
 21 58  1  0  0  0  0
 22 59  1  0  0  0  0
 22 60  1  0  0  0  0
 22 61  1  0  0  0  0
 23 24  1  0  0  0  0
 24 25  1  0  0  0  0
 24 62  1  0  0  0  0
 24 63  1  0  0  0  0
 25 26  1  0  0  0  0
 25 64  1  0  0  0  0
 25 65  1  0  0  0  0
 26 27  1  0  0  0  0
 26 29  1  0  0  0  0
 27 28  1  0  0  0  0
 27 66  1  0  0  0  0
 27 67  1  0  0  0  0
 28 68  1  0  0  0  0
 28 69  1  0  0  0  0
 28 70  1  0  0  0  0
 29 30  1  0  0  0  0
 29 71  1  0  0  0  0
 29 72  1  0  0  0  0
 30 73  1  0  0  0  0
 30 74  1  0  0  0  0
 30 75  1  0  0  0  0
M  END
>  <DRUGBANK_ID>
DB13584

>  <COMMON_NAME>
Gallamine

>  <CAS_NUMBER>
153-76-4

>  <UNII>
1146X1WTNM

$$$$
