
 OpenBabel10282417203D

 42 43  0  0  0  0  0  0  0  0999 V2000
    2.1914    1.5966   -0.1771 C   0  0  0  0  0  0  0  0  0  0  0  0
    1.0851    0.8129   -0.8552 C   0  0  0  0  0  0  0  0  0  0  0  0
   -0.0553    1.5177   -1.1192 C   0  0  0  0  0  0  0  0  0  0  0  0
   -1.2484    0.7743   -1.3941 C   0  0  0  0  0  0  0  0  0  0  0  0
   -1.4928   -0.7680   -1.3452 C   0  0  0  0  0  0  0  0  0  0  0  0
   -0.2143   -1.4040   -1.1258 C   0  0  0  0  0  0  0  0  0  0  0  0
    1.0296   -0.6288   -0.8944 C   0  0  0  0  0  0  0  0  0  0  0  0
    2.0674   -1.3100   -0.2033 N   0  0  0  0  0  0  0  0  0  0  0  0
   -3.4458   -1.8339   -0.9376 S   0  0  0  0  0  0  0  0  0  0  0  0
   -3.8125   -2.6095   -2.1779 O   0  0  0  0  0  0  0  0  0  0  0  0
   -3.5382   -2.6937    0.2341 O   0  0  0  0  0  0  0  0  0  0  0  0
   -4.8115   -0.5488   -0.4977 N   0  0  0  0  0  0  0  0  0  0  0  0
   -4.7953    0.8011    0.0853 C   0  0  0  0  0  0  0  0  0  0  0  0
   -5.8398    1.4837    0.0066 O   0  0  0  0  0  0  0  0  0  0  0  0
   -3.7168    1.4233    0.7489 N   0  0  0  0  0  0  0  0  0  0  0  0
   -2.4873    0.6601    0.8972 C   0  0  0  0  0  0  0  0  0  0  0  0
   -2.5546   -0.7307    1.4751 C   0  0  0  0  0  0  0  0  0  0  0  0
   -1.5016   -1.9043    1.3292 C   0  0  0  0  0  0  0  0  0  0  0  0
   -0.3097   -1.4168    2.0453 C   0  0  0  0  0  0  0  0  0  0  0  0
   -0.0665    0.0871    1.8961 C   0  0  0  0  0  0  0  0  0  0  0  0
   -1.2611    1.1104    1.6499 C   0  0  0  0  0  0  0  0  0  0  0  0
    2.4347    1.2222    0.8276 H   0  0  0  0  0  0  0  0  0  0  0  0
    3.0427    1.5182   -0.8404 H   0  0  0  0  0  0  0  0  0  0  0  0
    1.9276    2.6561   -0.0193 H   0  0  0  0  0  0  0  0  0  0  0  0
   -0.1314    2.5769   -0.7705 H   0  0  0  0  0  0  0  0  0  0  0  0
   -1.9586    1.6012   -1.2023 H   0  0  0  0  0  0  0  0  0  0  0  0
   -0.0483   -2.4485   -0.8267 H   0  0  0  0  0  0  0  0  0  0  0  0
    2.0490   -2.3176   -0.1370 H   0  0  0  0  0  0  0  0  0  0  0  0
    2.9715   -0.8641   -0.1088 H   0  0  0  0  0  0  0  0  0  0  0  0
   -5.6263   -1.0470   -0.0795 H   0  0  0  0  0  0  0  0  0  0  0  0
   -3.6238    2.3523    0.3115 H   0  0  0  0  0  0  0  0  0  0  0  0
   -2.6458    0.5422   -0.1623 H   0  0  0  0  0  0  0  0  0  0  0  0
   -3.3205   -0.8625    2.2092 H   0  0  0  0  0  0  0  0  0  0  0  0
   -3.1019   -0.8689    0.6408 H   0  0  0  0  0  0  0  0  0  0  0  0
   -1.7675   -2.8970    1.7298 H   0  0  0  0  0  0  0  0  0  0  0  0
   -1.3861   -2.3849    0.3454 H   0  0  0  0  0  0  0  0  0  0  0  0
   -0.5988   -1.5871    3.0725 H   0  0  0  0  0  0  0  0  0  0  0  0
    0.5772   -2.0372    1.8382 H   0  0  0  0  0  0  0  0  0  0  0  0
    0.5345    0.4505    2.7269 H   0  0  0  0  0  0  0  0  0  0  0  0
    0.6928    0.1495    1.1608 H   0  0  0  0  0  0  0  0  0  0  0  0
   -0.8717    2.0872    1.3668 H   0  0  0  0  0  0  0  0  0  0  0  0
   -1.6852    1.2266    2.6426 H   0  0  0  0  0  0  0  0  0  0  0  0
  1  2  1  0  0  0  0
  1 22  1  0  0  0  0
  1 23  1  0  0  0  0
  1 24  1  0  0  0  0
  2  3  2  0  0  0  0
  2  7  1  0  0  0  0
  3  4  1  0  0  0  0
  3 25  1  0  0  0  0
  4  5  2  0  0  0  0
  4 26  1  0  0  0  0
  5  6  1  0  0  0  0
  5  9  1  0  0  0  0
  6  7  2  0  0  0  0
  6 27  1  0  0  0  0
  7  8  1  0  0  0  0
  8 28  1  0  0  0  0
  8 29  1  0  0  0  0
  9 10  2  0  0  0  0
  9 11  2  0  0  0  0
  9 12  1  0  0  0  0
 12 13  1  0  0  0  0
 12 30  1  0  0  0  0
 13 14  2  0  0  0  0
 13 15  1  0  0  0  0
 15 16  1  0  0  0  0
 15 31  1  0  0  0  0
 16 17  1  0  0  0  0
 16 21  1  0  0  0  0
 16 32  1  0  0  0  0
 17 18  1  0  0  0  0
 17 33  1  0  0  0  0
 17 34  1  0  0  0  0
 18 19  1  0  0  0  0
 18 35  1  0  0  0  0
 18 36  1  0  0  0  0
 19 20  1  0  0  0  0
 19 37  1  0  0  0  0
 19 38  1  0  0  0  0
 20 21  1  0  0  0  0
 20 39  1  0  0  0  0
 20 40  1  0  0  0  0
 21 41  1  0  0  0  0
 21 42  1  0  0  0  0
M  END
>  <DRUGBANK_ID>
DB13675

>  <COMMON_NAME>
Metahexamide

>  <CAS_NUMBER>
565-33-3

>  <UNII>
T3U6F5D722

>  <SYNONYMS>
Metahexamide

$$$$
