WAY
 OpenBabel10282417123D

 51 53  0  0  0  0  0  0  0  0999 V2000
    0.1653    1.3280   -0.3620 C   0  0  0  0  0  0  0  0  0  0  0  0
    1.0317    0.1258   -0.5557 C   0  0  0  0  0  0  0  0  0  0  0  0
    0.3334   -1.1352   -0.2958 C   0  0  0  0  0  0  0  0  0  0  0  0
   -1.0515   -1.2841   -0.0817 C   0  0  0  0  0  0  0  0  0  0  0  0
   -1.8450   -0.1716   -0.0662 C   0  0  0  0  0  0  0  0  0  0  0  0
   -1.2456    1.0833   -0.1352 C   0  0  0  0  0  0  0  0  0  0  0  0
    2.6844   -0.2642   -0.7250 C   0  0  0  0  0  0  0  0  0  0  0  0
    2.9890   -1.4619   -0.5796 O   0  0  0  0  0  0  0  0  0  0  0  0
    3.8710    0.4958   -0.8997 N   0  0  0  0  0  0  0  0  0  0  0  0
    4.0333    1.7642   -0.3828 O   0  0  0  0  0  0  0  0  0  0  0  0
   -2.2040    2.1888    0.0860 C   0  0  0  0  0  0  0  0  0  0  0  0
    0.6065    2.7243    0.0543 N   0  0  0  0  0  0  0  0  0  0  0  0
   -0.0077    4.3441   -0.1983 S   0  0  0  0  0  0  0  0  0  0  0  0
    1.9931    2.8552    0.3309 C   0  0  0  0  0  0  0  0  0  0  0  0
    3.0156   -0.0762    2.9200 C   0  0  0  0  0  0  0  0  0  0  0  0
    3.7490    0.6601    3.7882 C   0  0  0  0  0  0  0  0  0  0  0  0
    3.9406    1.9920    3.6245 N   0  0  0  0  0  0  0  0  0  0  0  0
    3.3411    2.6385    2.5723 C   0  0  0  0  0  0  0  0  0  0  0  0
    2.4236    2.0591    1.7145 C   0  0  0  0  0  0  0  0  0  0  0  0
    2.2932    0.6539    1.9796 C   0  0  0  0  0  0  0  0  0  0  0  0
    0.4859    5.0736    1.3934 C   0  0  0  0  0  0  0  0  0  0  0  0
    0.5977    6.4470    1.3412 C   0  0  0  0  0  0  0  0  0  0  0  0
    0.6542    7.1721    2.5151 C   0  0  0  0  0  0  0  0  0  0  0  0
    0.6818    6.5354    3.7567 C   0  0  0  0  0  0  0  0  0  0  0  0
    0.6134    5.1412    3.8144 C   0  0  0  0  0  0  0  0  0  0  0  0
    0.5299    4.3953    2.6295 C   0  0  0  0  0  0  0  0  0  0  0  0
    0.7648    7.1970    4.9522 O   0  0  0  0  0  0  0  0  0  0  0  0
    0.9210    8.6128    4.8511 C   0  0  0  0  0  0  0  0  0  0  0  0
    0.8473    4.9757   -1.2295 O   0  0  0  0  0  0  0  0  0  0  0  0
   -1.3963    4.6145   -0.2324 O   0  0  0  0  0  0  0  0  0  0  0  0
    0.8940   -2.0690   -0.1738 H   0  0  0  0  0  0  0  0  0  0  0  0
   -1.5218   -2.2571    0.0590 H   0  0  0  0  0  0  0  0  0  0  0  0
   -2.9278   -0.2392    0.0466 H   0  0  0  0  0  0  0  0  0  0  0  0
    4.7090    0.0063   -0.5688 H   0  0  0  0  0  0  0  0  0  0  0  0
    3.3492    1.5341    0.2376 H   0  0  0  0  0  0  0  0  0  0  0  0
   -2.6229    2.5354   -0.8627 H   0  0  0  0  0  0  0  0  0  0  0  0
   -2.8951    2.1986    0.9280 H   0  0  0  0  0  0  0  0  0  0  0  0
   -1.5397    2.8628    0.5454 H   0  0  0  0  0  0  0  0  0  0  0  0
    2.3024    2.5646   -0.7022 H   0  0  0  0  0  0  0  0  0  0  0  0
    2.4572    3.8613    0.2910 H   0  0  0  0  0  0  0  0  0  0  0  0
    2.9847   -1.1685    2.9329 H   0  0  0  0  0  0  0  0  0  0  0  0
    4.1961    0.1752    4.6496 H   0  0  0  0  0  0  0  0  0  0  0  0
    3.7101    3.6446    2.3994 H   0  0  0  0  0  0  0  0  0  0  0  0
    1.7552   -0.0701    1.4108 H   0  0  0  0  0  0  0  0  0  0  0  0
    0.5389    6.9523    0.3832 H   0  0  0  0  0  0  0  0  0  0  0  0
    0.6164    8.2476    2.4123 H   0  0  0  0  0  0  0  0  0  0  0  0
    0.5718    4.6396    4.7822 H   0  0  0  0  0  0  0  0  0  0  0  0
    0.4819    3.3132    2.7303 H   0  0  0  0  0  0  0  0  0  0  0  0
    1.8040    8.8801    4.2563 H   0  0  0  0  0  0  0  0  0  0  0  0
    0.0174    9.0690    4.4307 H   0  0  0  0  0  0  0  0  0  0  0  0
    1.0655    9.0188    5.8544 H   0  0  0  0  0  0  0  0  0  0  0  0
  1  2  2  0  0  0  0
  1  6  1  0  0  0  0
  1 12  1  0  0  0  0
  2  3  1  0  0  0  0
  2  7  1  0  0  0  0
  3  4  2  0  0  0  0
  3 31  1  0  0  0  0
  4  5  1  0  0  0  0
  4 32  1  0  0  0  0
  5  6  2  0  0  0  0
  5 33  1  0  0  0  0
  6 11  1  0  0  0  0
  7  8  2  0  0  0  0
  7  9  1  0  0  0  0
  9 10  1  0  0  0  0
  9 34  1  0  0  0  0
 10 35  1  0  0  0  0
 11 36  1  0  0  0  0
 11 37  1  0  0  0  0
 11 38  1  0  0  0  0
 12 13  1  0  0  0  0
 12 14  1  0  0  0  0
 13 21  1  0  0  0  0
 13 29  2  0  0  0  0
 13 30  2  0  0  0  0
 14 19  1  0  0  0  0
 14 39  1  0  0  0  0
 14 40  1  0  0  0  0
 15 16  2  0  0  0  0
 15 20  1  0  0  0  0
 15 41  1  0  0  0  0
 16 17  1  0  0  0  0
 16 42  1  0  0  0  0
 17 18  2  0  0  0  0
 18 19  1  0  0  0  0
 18 43  1  0  0  0  0
 19 20  2  0  0  0  0
 20 44  1  0  0  0  0
 21 22  2  0  0  0  0
 21 26  1  0  0  0  0
 22 23  1  0  0  0  0
 22 45  1  0  0  0  0
 23 24  2  0  0  0  0
 23 46  1  0  0  0  0
 24 25  1  0  0  0  0
 24 27  1  0  0  0  0
 25 26  2  0  0  0  0
 25 47  1  0  0  0  0
 26 48  1  0  0  0  0
 27 28  1  0  0  0  0
 28 49  1  0  0  0  0
 28 50  1  0  0  0  0
 28 51  1  0  0  0  0
M  END
>  <DRUGBANK_ID>
DB02071

>  <SECONDARY_ACCESSION_NUMBERS>
EXPT03240

>  <COMMON_NAME>
WAY-151693

>  <SYNONYMS>
N-Hydroxy-2-{[(4-methoxyphenyl)sulfonyl](3-pyridinylmethyl)amino}-3-methylbenzamide

$$$$
