
 OpenBabel10282417193D

 59 63  0  0  0  0  0  0  0  0999 V2000
    0.9403   -0.0837   -0.0191 C   0  0  0  0  0  0  0  0  0  0  0  0
    0.3326    0.2717   -1.4007 C   0  0  0  0  0  0  0  0  0  0  0  0
    0.9597   -0.7165   -2.4176 C   0  0  0  0  0  0  0  0  0  0  0  0
   -1.2489    0.2625   -1.3771 C   0  0  0  0  0  0  0  0  0  0  0  0
   -2.0418   -0.8846   -1.3064 C   0  0  0  0  0  0  0  0  0  0  0  0
   -3.6545   -1.0028   -1.1399 C   0  0  0  0  0  0  0  0  0  0  0  0
   -4.7592   -0.0359   -0.9825 C   0  0  0  0  0  0  0  0  0  0  0  0
   -3.7811    1.2160   -1.0872 C   0  0  0  0  0  0  0  0  0  0  0  0
   -2.1277    1.3414   -1.3165 C   0  0  0  0  0  0  0  0  0  0  0  0
   -6.5990   -0.7129   -0.9188 C   0  0  0  0  0  0  0  0  0  0  0  0
   -8.6474   -0.4013   -0.4125 C   0  0  0  0  0  0  0  0  0  0  0  0
  -10.3334   -0.7850   -0.5256 C   0  0  0  0  0  0  0  0  0  0  0  0
  -11.7488   -0.1681   -1.3454 C   0  0  0  0  0  0  0  0  0  0  0  0
  -11.4979    0.8674   -2.2011 C   0  0  0  0  0  0  0  0  0  0  0  0
  -10.1807    1.2216   -2.1393 C   0  0  0  0  0  0  0  0  0  0  0  0
   -9.0431    0.4816   -1.3918 C   0  0  0  0  0  0  0  0  0  0  0  0
   -7.9980    0.3822   -2.2136 N   0  0  0  0  0  0  0  0  0  0  0  0
   -7.7135   -1.2512   -2.3058 C   0  0  0  0  0  0  0  0  0  0  0  0
   -8.4558   -2.2085   -2.0430 O   0  0  0  0  0  0  0  0  0  0  0  0
   -6.4724   -1.4231   -1.9548 N   0  0  0  0  0  0  0  0  0  0  0  0
   -7.2119    1.6172   -1.3980 C   0  0  0  0  0  0  0  0  0  0  0  0
   -6.6891    1.5928    0.1648 C   0  0  0  0  0  0  0  0  0  0  0  0
   -6.2973    2.8304    0.6415 C   0  0  0  0  0  0  0  0  0  0  0  0
   -5.4813    2.8539    1.7615 C   0  0  0  0  0  0  0  0  0  0  0  0
   -5.0094    1.6819    2.3573 C   0  0  0  0  0  0  0  0  0  0  0  0
   -5.6179    0.4873    2.1820 C   0  0  0  0  0  0  0  0  0  0  0  0
   -6.3785    0.4659    1.0705 C   0  0  0  0  0  0  0  0  0  0  0  0
   -5.4246   -0.5881    2.9839 N   0  0  0  0  0  0  0  0  0  0  0  0
   -4.8275   -0.2593    4.1480 C   0  0  0  0  0  0  0  0  0  0  0  0
   -4.1758    0.9752    4.2560 C   0  0  0  0  0  0  0  0  0  0  0  0
   -3.9685    1.6628    3.1440 N   0  0  0  0  0  0  0  0  0  0  0  0
   -4.4699    2.4264    5.4964 Br  0  0  0  0  0  0  0  0  0  0  0  0
  -13.2088   -0.2839   -1.4189 O   0  0  0  0  0  0  0  0  0  0  0  0
  -14.3921   -1.1049   -0.8688 C   0  0  0  0  0  0  0  0  0  0  0  0
  -13.8628   -2.5039   -1.1389 C   0  0  0  0  0  0  0  0  0  0  0  0
  -13.4089   -3.7040   -1.3706 C   0  0  0  0  0  0  0  0  0  0  0  0
    0.6313   -1.0863    0.2940 H   0  0  0  0  0  0  0  0  0  0  0  0
    0.6193    0.6293    0.7445 H   0  0  0  0  0  0  0  0  0  0  0  0
    2.0443   -0.0812   -0.0207 H   0  0  0  0  0  0  0  0  0  0  0  0
    0.7411    1.2661   -1.6636 H   0  0  0  0  0  0  0  0  0  0  0  0
    0.6746   -1.7487   -2.1919 H   0  0  0  0  0  0  0  0  0  0  0  0
    0.6346   -0.4814   -3.4336 H   0  0  0  0  0  0  0  0  0  0  0  0
    2.0636   -0.6979   -2.4116 H   0  0  0  0  0  0  0  0  0  0  0  0
   -1.4737   -1.8239   -1.3598 H   0  0  0  0  0  0  0  0  0  0  0  0
   -3.8977   -2.0569   -1.1166 H   0  0  0  0  0  0  0  0  0  0  0  0
   -4.0807    2.2687   -0.9566 H   0  0  0  0  0  0  0  0  0  0  0  0
   -1.6239    2.3276   -1.4397 H   0  0  0  0  0  0  0  0  0  0  0  0
  -10.8407   -1.4986    0.1555 H   0  0  0  0  0  0  0  0  0  0  0  0
  -12.1940    1.3559   -2.8949 H   0  0  0  0  0  0  0  0  0  0  0  0
   -9.8510    2.0519   -2.7549 H   0  0  0  0  0  0  0  0  0  0  0  0
   -6.4655    1.9227   -2.1048 H   0  0  0  0  0  0  0  0  0  0  0  0
   -7.9793    2.4318   -1.3097 H   0  0  0  0  0  0  0  0  0  0  0  0
   -6.4960    3.7534    0.1045 H   0  0  0  0  0  0  0  0  0  0  0  0
   -5.1752    3.7954    2.1970 H   0  0  0  0  0  0  0  0  0  0  0  0
   -6.4037   -0.6200    0.9291 H   0  0  0  0  0  0  0  0  0  0  0  0
   -4.7379   -1.1235    4.8030 H   0  0  0  0  0  0  0  0  0  0  0  0
  -14.3382   -0.8897    0.2017 H   0  0  0  0  0  0  0  0  0  0  0  0
  -15.3853   -0.9096   -1.2747 H   0  0  0  0  0  0  0  0  0  0  0  0
  -13.0314   -4.6820   -1.5628 H   0  0  0  0  0  0  0  0  0  0  0  0
  1  2  1  0  0  0  0
  1 37  1  0  0  0  0
  1 38  1  0  0  0  0
  1 39  1  0  0  0  0
  2  3  1  0  0  0  0
  2  4  1  0  0  0  0
  2 40  1  0  0  0  0
  3 41  1  0  0  0  0
  3 42  1  0  0  0  0
  3 43  1  0  0  0  0
  4  5  2  0  0  0  0
  4  9  1  0  0  0  0
  5  6  1  0  0  0  0
  5 44  1  0  0  0  0
  6  7  2  0  0  0  0
  6 45  1  0  0  0  0
  7  8  1  0  0  0  0
  7 10  1  0  0  0  0
  8  9  2  0  0  0  0
  8 46  1  0  0  0  0
  9 47  1  0  0  0  0
 10 11  1  0  0  0  0
 10 20  2  0  0  0  0
 11 12  2  0  0  0  0
 11 16  1  0  0  0  0
 12 13  1  0  0  0  0
 12 48  1  0  0  0  0
 13 14  2  0  0  0  0
 13 33  1  0  0  0  0
 14 15  1  0  0  0  0
 14 49  1  0  0  0  0
 15 16  2  0  0  0  0
 15 50  1  0  0  0  0
 16 17  1  0  0  0  0
 17 18  1  0  0  0  0
 17 21  1  0  0  0  0
 18 19  2  0  0  0  0
 18 20  1  0  0  0  0
 21 22  1  0  0  0  0
 21 51  1  0  0  0  0
 21 52  1  0  0  0  0
 22 23  2  0  0  0  0
 22 27  1  0  0  0  0
 23 24  1  0  0  0  0
 23 53  1  0  0  0  0
 24 25  2  0  0  0  0
 24 54  1  0  0  0  0
 25 26  1  0  0  0  0
 25 31  1  0  0  0  0
 26 27  2  0  0  0  0
 26 28  1  0  0  0  0
 27 55  1  0  0  0  0
 28 29  2  0  0  0  0
 29 30  1  0  0  0  0
 29 56  1  0  0  0  0
 30 31  2  0  0  0  0
 30 32  1  0  0  0  0
 33 34  1  0  0  0  0
 34 35  1  0  0  0  0
 34 57  1  0  0  0  0
 34 58  1  0  0  0  0
 35 36  3  0  0  0  0
 36 59  1  0  0  0  0
M  END
>  <DRUGBANK_ID>
DB12673

>  <COMMON_NAME>
ATX-914

>  <UNII>
8VK61D7U5D

$$$$
