295
 OpenBabel10282417163D

 23 23  0  0  0  0  0  0  0  0999 V2000
   -1.1292    1.1752    0.2154 C   0  0  0  0  0  0  0  0  0  0  0  0
    0.2549    1.1466    0.1083 C   0  0  0  0  0  0  0  0  0  0  0  0
    0.8913   -0.0730    0.0173 C   0  0  0  0  0  0  0  0  0  0  0  0
    0.1587   -1.2555    0.0038 C   0  0  0  0  0  0  0  0  0  0  0  0
   -1.2426   -1.2141    0.0043 C   0  0  0  0  0  0  0  0  0  0  0  0
   -1.9147    0.0170    0.0651 C   0  0  0  0  0  0  0  0  0  0  0  0
   -3.4346    0.0930   -0.0569 C   0  0  2  0  0  0  0  0  0  0  0  0
   -3.8828   -0.6897   -1.1738 O   0  0  0  0  0  0  0  0  0  0  0  0
   -4.0261    1.5297   -0.1493 C   0  0  1  0  0  0  0  0  0  0  0  0
   -3.5746    2.2789   -1.4277 C   0  0  0  0  0  0  0  0  0  0  0  0
   -2.4224    2.4809   -1.7875 O   0  0  0  0  0  0  0  0  0  0  0  0
   -4.6041    2.7514   -2.1668 O   0  0  0  0  0  0  0  0  0  0  0  0
   -5.4682    1.5241   -0.1215 O   0  0  0  0  0  0  0  0  0  0  0  0
    2.2280   -0.1077   -0.0366 F   0  0  0  0  0  0  0  0  0  0  0  0
   -3.8579   -0.4027    0.8284 H   0  0  0  0  0  0  0  0  0  0  0  0
   -3.7147    2.0997    0.7351 H   0  0  0  0  0  0  0  0  0  0  0  0
   -1.5663    2.1604    0.3407 H   0  0  0  0  0  0  0  0  0  0  0  0
    0.8145    2.0757    0.0816 H   0  0  0  0  0  0  0  0  0  0  0  0
    0.6881   -2.2015   -0.0299 H   0  0  0  0  0  0  0  0  0  0  0  0
   -1.8025   -2.1467   -0.0559 H   0  0  0  0  0  0  0  0  0  0  0  0
   -3.5098   -0.2948   -1.9814 H   0  0  0  0  0  0  0  0  0  0  0  0
   -5.4548    2.3913   -1.8419 H   0  0  0  0  0  0  0  0  0  0  0  0
   -5.7435    2.4042    0.1984 H   0  0  0  0  0  0  0  0  0  0  0  0
  1  2  2  0  0  0  0
  1  6  1  0  0  0  0
  1 17  1  0  0  0  0
  2  3  1  0  0  0  0
  2 18  1  0  0  0  0
  3 14  1  0  0  0  0
  3  4  2  0  0  0  0
  4 19  1  0  0  0  0
  5  4  1  0  0  0  0
  5 20  1  0  0  0  0
  6  5  2  0  0  0  0
  7  6  1  0  0  0  0
  7  8  1  0  0  0  0
  7 15  1  1  0  0  0
  8 21  1  0  0  0  0
  9  7  1  0  0  0  0
  9 16  1  1  0  0  0
  9 13  1  0  0  0  0
 10  9  1  0  0  0  0
 10 12  1  0  0  0  0
 11 10  2  0  0  0  0
 12 22  1  0  0  0  0
 13 23  1  0  0  0  0
M  END
>  <DRUGBANK_ID>
DB06946

>  <COMMON_NAME>
(2S,3S)-3-(4-fluorophenyl)-2,3-dihydroxypropanoic acid

$$$$
