
 OpenBabel10282417103D

 87 91  0  0  0  0  0  0  0  0999 V2000
  -11.2779    2.0059   -1.8624 C   0  0  0  0  0  0  0  0  0  0  0  0
  -10.3819    1.3734   -2.7219 C   0  0  0  0  0  0  0  0  0  0  0  0
   -9.3243    0.6039   -2.2206 C   0  0  0  0  0  0  0  0  0  0  0  0
  -11.1222    1.8827   -0.4901 C   0  0  0  0  0  0  0  0  0  0  0  0
  -10.0870    1.0962    0.0274 C   0  0  0  0  0  0  0  0  0  0  0  0
   -9.1925    0.4508   -0.8256 C   0  0  0  0  0  0  0  0  0  0  0  0
   -8.1563   -0.4154   -0.2233 C   0  0  0  0  0  0  0  0  0  0  0  0
   -9.9917    0.9562    1.4901 C   0  0  0  0  0  0  0  0  0  0  0  0
   -8.9753    0.0521    2.0775 C   0  0  0  0  0  0  0  0  0  0  0  0
   -8.2016   -0.7377    1.2280 C   0  0  0  0  0  0  0  0  0  0  0  0
   -7.2450   -1.6300    1.7731 C   0  0  0  0  0  0  0  0  0  0  0  0
   -8.7488    0.0038    3.4653 C   0  0  0  0  0  0  0  0  0  0  0  0
  -10.7827    1.5901    2.1747 O   0  0  0  0  0  0  0  0  0  0  0  0
   -7.1925   -0.8247   -0.8661 O   0  0  0  0  0  0  0  0  0  0  0  0
   -8.4195   -0.0357   -3.0242 O   0  0  0  0  0  0  0  0  0  0  0  0
   -8.5735    0.0807   -4.4326 C   0  0  0  0  0  0  0  0  0  0  0  0
   -9.5272    0.7842    4.2745 O   0  0  0  0  0  0  0  0  0  0  0  0
   -6.3436   -2.2916    0.9545 O   0  0  0  0  0  0  0  0  0  0  0  0
   -7.7002   -0.7678    4.0045 C   0  0  0  0  0  0  0  0  0  0  0  0
   -6.9103   -1.5702    3.1455 C   0  0  0  0  0  0  0  0  0  0  0  0
   -5.5727   -2.1467    3.6306 C   0  0  2  0  0  0  0  0  0  0  0  0
   -5.6798   -2.4513    5.1379 C   0  0  0  0  0  0  0  0  0  0  0  0
   -6.0306   -1.1770    5.9240 C   0  0  1  0  0  0  0  0  0  0  0  0
   -7.4354   -0.7389    5.4961 C   0  0  0  0  0  0  0  0  0  0  0  0
   -6.0358   -1.4348    7.4400 C   0  0  0  0  0  0  0  0  0  0  0  0
   -5.1314   -0.5575    8.3254 C   0  0  0  0  0  0  0  0  0  0  0  0
   -6.7588   -2.3031    7.9397 O   0  0  0  0  0  0  0  0  0  0  0  0
   -5.8021    0.2406    9.2953 O   0  0  0  0  0  0  0  0  0  0  0  0
   -6.7339    1.1056    8.8095 C   0  0  0  0  0  0  0  0  0  0  0  0
   -5.1052   -0.1248    5.6640 O   0  0  0  0  0  0  0  0  0  0  0  0
   -4.4271   -1.2711    3.5122 O   0  0  0  0  0  0  0  0  0  0  0  0
   -5.3480   -3.0809    3.1064 H   0  0  0  0  0  0  0  0  0  0  0  0
   -6.9216    1.3301    7.6362 O   0  0  0  0  0  0  0  0  0  0  0  0
   -7.5239    1.7828    9.9017 C   0  0  0  0  0  0  0  0  0  0  0  0
   -8.3135    0.8047   10.7701 C   0  0  0  0  0  0  0  0  0  0  0  0
   -7.4314   -0.1630   11.5615 C   0  0  0  0  0  0  0  0  0  0  0  0
   -6.4305    0.5813   12.4336 C   0  0  0  0  0  0  0  0  0  0  0  0
   -4.0682   -0.7490    2.2376 C   0  0  1  0  0  0  0  0  0  0  0  0
   -5.0212    0.2964    1.6887 C   0  0  0  0  0  0  0  0  0  0  0  0
   -5.2833    1.3964    2.6929 C   0  0  1  0  0  0  0  0  0  0  0  0
   -3.9653    2.1156    2.8763 C   0  0  1  0  0  0  0  0  0  0  0  0
   -2.8635    1.0757    3.2206 C   0  0  1  0  0  0  0  0  0  0  0  0
   -2.8134   -0.0548    2.3242 O   0  0  0  0  0  0  0  0  0  0  0  0
   -1.4987    1.7268    3.1639 C   0  0  0  0  0  0  0  0  0  0  0  0
   -3.6719    2.8021    1.6465 O   0  0  0  0  0  0  0  0  0  0  0  0
   -6.4070    2.2350    2.2711 N   0  0  0  0  0  0  0  0  0  0  0  0
   -7.0148    3.1073    3.1740 C   0  0  0  0  0  0  0  0  0  0  0  0
   -8.2967    3.8173    2.6844 C   0  0  0  0  0  0  0  0  0  0  0  0
   -6.5421    3.2800    4.2992 O   0  0  0  0  0  0  0  0  0  0  0  0
   -9.3656    3.5739    3.4845 F   0  0  0  0  0  0  0  0  0  0  0  0
   -8.1538    5.1701    2.6380 F   0  0  0  0  0  0  0  0  0  0  0  0
   -8.6397    3.4331    1.4181 F   0  0  0  0  0  0  0  0  0  0  0  0
  -12.1023    2.5892   -2.2636 H   0  0  0  0  0  0  0  0  0  0  0  0
  -10.5472    1.4918   -3.7877 H   0  0  0  0  0  0  0  0  0  0  0  0
  -11.8215    2.3840    0.1785 H   0  0  0  0  0  0  0  0  0  0  0  0
   -9.5252   -0.3531   -4.7564 H   0  0  0  0  0  0  0  0  0  0  0  0
   -8.4815    1.1233   -4.7549 H   0  0  0  0  0  0  0  0  0  0  0  0
   -7.7694   -0.4871   -4.9097 H   0  0  0  0  0  0  0  0  0  0  0  0
   -9.3574    0.6755    5.2223 H   0  0  0  0  0  0  0  0  0  0  0  0
   -6.3313   -1.8424    0.0708 H   0  0  0  0  0  0  0  0  0  0  0  0
   -4.7334   -2.8617    5.5074 H   0  0  0  0  0  0  0  0  0  0  0  0
   -6.4568   -3.2100    5.3010 H   0  0  0  0  0  0  0  0  0  0  0  0
   -8.1936   -1.3896    5.9495 H   0  0  0  0  0  0  0  0  0  0  0  0
   -7.6062    0.2747    5.8519 H   0  0  0  0  0  0  0  0  0  0  0  0
   -4.4727   -1.2569    8.8576 H   0  0  0  0  0  0  0  0  0  0  0  0
   -4.4535    0.0873    7.7648 H   0  0  0  0  0  0  0  0  0  0  0  0
   -4.2053   -0.4972    5.6624 H   0  0  0  0  0  0  0  0  0  0  0  0
   -6.8555    2.4252   10.4804 H   0  0  0  0  0  0  0  0  0  0  0  0
   -8.2320    2.4624    9.4121 H   0  0  0  0  0  0  0  0  0  0  0  0
   -8.9257    1.3795   11.4769 H   0  0  0  0  0  0  0  0  0  0  0  0
   -9.0117    0.2332   10.1453 H   0  0  0  0  0  0  0  0  0  0  0  0
   -8.0561   -0.8138   12.1806 H   0  0  0  0  0  0  0  0  0  0  0  0
   -6.9084   -0.8469   10.8873 H   0  0  0  0  0  0  0  0  0  0  0  0
   -6.9588    1.1798   13.1813 H   0  0  0  0  0  0  0  0  0  0  0  0
   -5.7650   -0.1200   12.9400 H   0  0  0  0  0  0  0  0  0  0  0  0
   -5.7920    1.2574   11.8562 H   0  0  0  0  0  0  0  0  0  0  0  0
   -3.9182   -1.5832    1.5433 H   0  0  0  0  0  0  0  0  0  0  0  0
   -5.9809   -0.0620    1.4927 H   0  0  0  0  0  0  0  0  0  0  0  0
   -4.7229    0.6303    0.6920 H   0  0  0  0  0  0  0  0  0  0  0  0
   -5.5934    0.9763    3.6506 H   0  0  0  0  0  0  0  0  0  0  0  0
   -4.0409    2.8664    3.6672 H   0  0  0  0  0  0  0  0  0  0  0  0
   -3.0241    0.6805    4.2283 H   0  0  0  0  0  0  0  0  0  0  0  0
   -1.4504    2.5652    3.8625 H   0  0  0  0  0  0  0  0  0  0  0  0
   -0.7239    0.9968    3.4117 H   0  0  0  0  0  0  0  0  0  0  0  0
   -1.2832    2.0864    2.1521 H   0  0  0  0  0  0  0  0  0  0  0  0
   -3.5461    2.1245    0.9598 H   0  0  0  0  0  0  0  0  0  0  0  0
   -6.7882    2.1424    1.3357 H   0  0  0  0  0  0  0  0  0  0  0  0
  1  2  2  0  0  0  0
  1 53  1  0  0  0  0
  2  3  1  0  0  0  0
  2 54  1  0  0  0  0
  3  6  2  0  0  0  0
  3 15  1  0  0  0  0
  4  1  1  0  0  0  0
  4 55  1  0  0  0  0
  5  8  1  0  0  0  0
  5  4  2  0  0  0  0
  5  6  1  0  0  0  0
  6  7  1  0  0  0  0
  7 14  2  0  0  0  0
  7 10  1  0  0  0  0
  8 13  2  0  0  0  0
  9  8  1  0  0  0  0
  9 10  2  0  0  0  0
 10 11  1  0  0  0  0
 11 20  2  0  0  0  0
 11 18  1  0  0  0  0
 12  9  1  0  0  0  0
 12 17  1  0  0  0  0
 15 16  1  0  0  0  0
 16 56  1  0  0  0  0
 16 57  1  0  0  0  0
 16 58  1  0  0  0  0
 17 59  1  0  0  0  0
 18 60  1  0  0  0  0
 19 12  2  0  0  0  0
 19 20  1  0  0  0  0
 19 24  1  0  0  0  0
 20 21  1  0  0  0  0
 21 31  1  0  0  0  0
 21 32  1  6  0  0  0
 21 22  1  0  0  0  0
 22 23  1  0  0  0  0
 22 61  1  0  0  0  0
 22 62  1  0  0  0  0
 23 25  1  1  0  0  0
 23 30  1  0  0  0  0
 23 24  1  0  0  0  0
 24 63  1  0  0  0  0
 24 64  1  0  0  0  0
 25 26  1  0  0  0  0
 25 27  2  0  0  0  0
 26 28  1  0  0  0  0
 26 65  1  0  0  0  0
 26 66  1  0  0  0  0
 28 29  1  0  0  0  0
 29 33  2  0  0  0  0
 29 34  1  0  0  0  0
 30 67  1  0  0  0  0
 34 35  1  0  0  0  0
 34 68  1  0  0  0  0
 34 69  1  0  0  0  0
 35 36  1  0  0  0  0
 35 70  1  0  0  0  0
 35 71  1  0  0  0  0
 36 37  1  0  0  0  0
 36 72  1  0  0  0  0
 36 73  1  0  0  0  0
 37 74  1  0  0  0  0
 37 75  1  0  0  0  0
 37 76  1  0  0  0  0
 38 39  1  0  0  0  0
 38 43  1  0  0  0  0
 38 77  1  6  0  0  0
 38 31  1  0  0  0  0
 39 40  1  0  0  0  0
 39 78  1  0  0  0  0
 39 79  1  0  0  0  0
 40 41  1  0  0  0  0
 40 80  1  1  0  0  0
 40 46  1  0  0  0  0
 41 42  1  0  0  0  0
 41 45  1  0  0  0  0
 41 81  1  1  0  0  0
 42 43  1  0  0  0  0
 42 44  1  0  0  0  0
 42 82  1  1  0  0  0
 44 83  1  0  0  0  0
 44 84  1  0  0  0  0
 44 85  1  0  0  0  0
 45 86  1  0  0  0  0
 46 47  1  0  0  0  0
 46 87  1  0  0  0  0
 47 48  1  0  0  0  0
 47 49  2  0  0  0  0
 48 50  1  0  0  0  0
 48 51  1  0  0  0  0
 48 52  1  0  0  0  0
M  END
>  <DRUGBANK_ID>
DB00385

>  <SECONDARY_ACCESSION_NUMBERS>
APRD00662

>  <COMMON_NAME>
Valrubicin

>  <CAS_NUMBER>
56124-62-0

>  <UNII>
2C6NUM6878

>  <SYNONYMS>
(8S, 10S)-8-glycoloyl-7,8,9,10-tetrahydro-6,8,11-trihydroxy-1-methoxy-10-[[2,3,6-trideoxy-3-(2,2,2-trifluoroacetamido)-α-L-lyxo-hexopyranosyl]oxy]-5,12-naphthacenedione 8²-valerate; 2-oxo-2-[(2S,4S)-2,5,12-trihydroxy-7-methoxy-6,11-dioxo-4-({2,3,6-trideoxy-3-[(trifluoroacetyl)amino]hexopyranosyl}oxy)-1,2,3,4,6,11-hexahydrotetracen-2-yl]ethyl pentanoate; Valrubicin; Valrubicina; Valrubicine; Valrubicinum

$$$$
