
 OpenBabel10282417203D

 38 40  0  0  0  0  0  0  0  0999 V2000
    1.3962   -0.2198    0.0188 C   0  0  0  0  0  0  0  0  0  0  0  0
    0.5348   -1.3135    0.0202 C   0  0  0  0  0  0  0  0  0  0  0  0
   -0.8425   -1.1139   -0.0381 C   0  0  0  0  0  0  0  0  0  0  0  0
   -1.3815    0.1784   -0.0989 C   0  0  0  0  0  0  0  0  0  0  0  0
   -0.5031    1.2724   -0.0119 C   0  0  0  0  0  0  0  0  0  0  0  0
    0.8795    1.0741    0.0017 C   0  0  0  0  0  0  0  0  0  0  0  0
   -2.8232    0.3555   -0.3098 C   0  0  0  0  0  0  0  0  0  0  0  0
   -3.7547   -0.2882    0.5151 C   0  0  0  0  0  0  0  0  0  0  0  0
   -5.1287   -0.0793    0.3490 C   0  0  0  0  0  0  0  0  0  0  0  0
   -5.5917    0.8530   -0.5972 C   0  0  0  0  0  0  0  0  0  0  0  0
   -4.6704    1.4576   -1.4620 C   0  0  0  0  0  0  0  0  0  0  0  0
   -3.3062    1.1783   -1.3409 C   0  0  0  0  0  0  0  0  0  0  0  0
   -7.0217    1.3335   -0.5406 C   0  0  0  0  0  0  0  0  0  0  0  0
   -7.2166    2.8463   -0.3748 C   0  0  0  0  0  0  0  0  0  0  0  0
   -7.7366    3.4918   -1.3053 O   0  0  0  0  0  0  0  0  0  0  0  0
   -6.9663    3.5048    0.8042 N   0  0  0  0  0  0  0  0  0  0  0  0
   -6.3332    3.0540    1.9674 C   0  0  0  0  0  0  0  0  0  0  0  0
   -5.1458    2.3672    1.8896 C   0  0  0  0  0  0  0  0  0  0  0  0
   -4.6102    1.7145    2.9931 C   0  0  0  0  0  0  0  0  0  0  0  0
   -5.1682    1.9520    4.2221 C   0  0  0  0  0  0  0  0  0  0  0  0
   -6.2275    2.8437    4.2612 C   0  0  0  0  0  0  0  0  0  0  0  0
   -6.8353    3.3878    3.1653 N   0  0  0  0  0  0  0  0  0  0  0  0
    2.4707   -0.3781    0.0340 H   0  0  0  0  0  0  0  0  0  0  0  0
    0.9295   -2.3250    0.0352 H   0  0  0  0  0  0  0  0  0  0  0  0
   -1.5030   -1.9777   -0.0692 H   0  0  0  0  0  0  0  0  0  0  0  0
   -0.8894    2.2895    0.0340 H   0  0  0  0  0  0  0  0  0  0  0  0
    1.5522    1.9279   -0.0200 H   0  0  0  0  0  0  0  0  0  0  0  0
   -3.4077   -0.8606    1.3752 H   0  0  0  0  0  0  0  0  0  0  0  0
   -5.8058   -0.4734    1.1078 H   0  0  0  0  0  0  0  0  0  0  0  0
   -4.9905    2.2292   -2.1609 H   0  0  0  0  0  0  0  0  0  0  0  0
   -2.6106    1.6448   -2.0360 H   0  0  0  0  0  0  0  0  0  0  0  0
   -7.4954    1.0274   -1.4840 H   0  0  0  0  0  0  0  0  0  0  0  0
   -7.5875    0.8301    0.2529 H   0  0  0  0  0  0  0  0  0  0  0  0
   -7.3999    4.4151    0.8766 H   0  0  0  0  0  0  0  0  0  0  0  0
   -4.6051    2.3532    0.9597 H   0  0  0  0  0  0  0  0  0  0  0  0
   -3.7581    1.0520    2.8811 H   0  0  0  0  0  0  0  0  0  0  0  0
   -4.7394    1.5038    5.1099 H   0  0  0  0  0  0  0  0  0  0  0  0
   -6.6223    3.1620    5.2199 H   0  0  0  0  0  0  0  0  0  0  0  0
  1  2  2  0  0  0  0
  1  6  1  0  0  0  0
  1 23  1  0  0  0  0
  2  3  1  0  0  0  0
  2 24  1  0  0  0  0
  3  4  2  0  0  0  0
  3 25  1  0  0  0  0
  4  5  1  0  0  0  0
  4  7  1  0  0  0  0
  5  6  2  0  0  0  0
  5 26  1  0  0  0  0
  6 27  1  0  0  0  0
  7  8  2  0  0  0  0
  7 12  1  0  0  0  0
  8  9  1  0  0  0  0
  8 28  1  0  0  0  0
  9 10  2  0  0  0  0
  9 29  1  0  0  0  0
 10 11  1  0  0  0  0
 10 13  1  0  0  0  0
 11 12  2  0  0  0  0
 11 30  1  0  0  0  0
 12 31  1  0  0  0  0
 13 14  1  0  0  0  0
 13 32  1  0  0  0  0
 13 33  1  0  0  0  0
 14 15  2  0  0  0  0
 14 16  1  0  0  0  0
 16 17  1  0  0  0  0
 16 34  1  0  0  0  0
 17 18  2  0  0  0  0
 17 22  1  0  0  0  0
 18 19  1  0  0  0  0
 18 35  1  0  0  0  0
 19 20  2  0  0  0  0
 19 36  1  0  0  0  0
 20 21  1  0  0  0  0
 20 37  1  0  0  0  0
 21 22  2  0  0  0  0
 21 38  1  0  0  0  0
M  END
>  <DRUGBANK_ID>
DB13371

>  <COMMON_NAME>
Difenpiramide

>  <CAS_NUMBER>
51484-40-3

>  <UNII>
Q6U5F6E1QL

$$$$
