
 OpenBabel10282417233D

 61 65  0  0  1  0  0  0  0  0999 V2000
   16.2771    3.0209   12.9007 O   0  0  0  0  0  0  0  0  0  0  0  0
   15.1570    3.5368   12.1842 C   0  0  0  0  0  0  0  0  0  0  0  0
   14.4240    2.4226   11.4134 C   0  0  1  0  0  0  0  0  0  0  0  0
   13.4506    1.8373   12.2838 O   0  0  0  0  0  0  0  0  0  0  0  0
   12.6532    0.8029   11.6848 C   0  0  2  0  0  0  0  0  0  0  0  0
   11.8916    1.3370   10.4368 C   0  0  2  0  0  0  0  0  0  0  0  0
   11.2047    0.3005    9.7163 O   0  0  0  0  0  0  0  0  0  0  0  0
   12.8722    2.0147    9.4687 C   0  0  1  0  0  0  0  0  0  0  0  0
   12.1608    2.6375    8.3892 O   0  0  0  0  0  0  0  0  0  0  0  0
   13.7447    3.0413   10.1878 C   0  0  2  0  0  0  0  0  0  0  0  0
   14.7203    3.5783    9.2910 O   0  0  0  0  0  0  0  0  0  0  0  0
   11.7153    0.2504   12.7555 C   0  0  0  0  0  0  0  0  0  0  0  0
   10.8828   -0.8377   12.4629 C   0  0  0  0  0  0  0  0  0  0  0  0
    9.9137   -1.3482   13.3560 C   0  0  0  0  0  0  0  0  0  0  0  0
    8.9582   -2.4360   12.8906 C   0  0  0  0  0  0  0  0  0  0  0  0
    8.0295   -2.0208   11.7686 C   0  0  0  0  0  0  0  0  0  0  0  0
    8.5882   -1.7268   10.5127 C   0  0  0  0  0  0  0  0  0  0  0  0
    7.8178   -1.3154    9.4526 C   0  0  0  0  0  0  0  0  0  0  0  0
    6.4596   -1.3029    9.5685 C   0  0  0  0  0  0  0  0  0  0  0  0
    5.6872   -1.0816    8.4815 O   0  0  0  0  0  0  0  0  0  0  0  0
    6.0772   -0.0175    7.5704 C   0  0  1  0  0  0  0  0  0  0  0  0
    6.8138   -0.4869    6.2849 C   0  0  0  0  0  0  0  0  0  0  0  0
    5.7898   -1.3730    5.6192 C   0  0  2  0  0  0  0  0  0  0  0  0
    4.7714   -0.8607    4.6374 C   0  0  0  0  0  0  0  0  0  0  0  0
    4.4480   -0.8451    6.0922 C   0  0  2  0  0  0  0  0  0  0  0  0
    4.7095    0.3506    6.9881 C   0  0  0  0  0  0  0  0  0  0  0  0
    5.8459   -1.6667   10.7830 C   0  0  0  0  0  0  0  0  0  0  0  0
    6.6417   -1.9716   11.8980 C   0  0  0  0  0  0  0  0  0  0  0  0
    9.8979   -0.8152   14.6450 C   0  0  0  0  0  0  0  0  0  0  0  0
    8.8453   -1.4058   15.8787 Cl  0  0  0  0  0  0  0  0  0  0  0  0
   10.7781    0.2154   14.9912 C   0  0  0  0  0  0  0  0  0  0  0  0
   11.6564    0.7610   14.0502 C   0  0  0  0  0  0  0  0  0  0  0  0
   15.9446    2.6593   13.7394 H   0  0  0  0  0  0  0  0  0  0  0  0
   14.4866    4.0289   12.8981 H   0  0  0  0  0  0  0  0  0  0  0  0
   15.5496    4.2979   11.5051 H   0  0  0  0  0  0  0  0  0  0  0  0
   15.1429    1.6441   11.1249 H   0  0  0  0  0  0  0  0  0  0  0  0
   13.3178   -0.0191   11.3863 H   0  0  0  0  0  0  0  0  0  0  0  0
   11.1272    2.0639   10.7405 H   0  0  0  0  0  0  0  0  0  0  0  0
   11.8632   -0.3154    9.3531 H   0  0  0  0  0  0  0  0  0  0  0  0
   13.5041    1.2577    8.9881 H   0  0  0  0  0  0  0  0  0  0  0  0
   11.5469    3.2924    8.7664 H   0  0  0  0  0  0  0  0  0  0  0  0
   13.1082    3.8769   10.5031 H   0  0  0  0  0  0  0  0  0  0  0  0
   15.2864    2.8543    8.9699 H   0  0  0  0  0  0  0  0  0  0  0  0
   11.0009   -1.2909   11.4890 H   0  0  0  0  0  0  0  0  0  0  0  0
    9.5495   -3.2924   12.5406 H   0  0  0  0  0  0  0  0  0  0  0  0
    8.3576   -2.8340   13.7150 H   0  0  0  0  0  0  0  0  0  0  0  0
    9.6372   -1.8282   10.3123 H   0  0  0  0  0  0  0  0  0  0  0  0
    8.3206   -1.0736    8.5213 H   0  0  0  0  0  0  0  0  0  0  0  0
    6.5864    0.8063    8.0851 H   0  0  0  0  0  0  0  0  0  0  0  0
    7.7801   -0.9656    6.4598 H   0  0  0  0  0  0  0  0  0  0  0  0
    6.9986    0.3745    5.6249 H   0  0  0  0  0  0  0  0  0  0  0  0
    6.1485   -2.3581    5.3643 H   0  0  0  0  0  0  0  0  0  0  0  0
    5.1617   -0.0530    4.0403 H   0  0  0  0  0  0  0  0  0  0  0  0
    4.0971   -1.5231    4.1041 H   0  0  0  0  0  0  0  0  0  0  0  0
    3.7034   -1.5232    6.4874 H   0  0  0  0  0  0  0  0  0  0  0  0
    3.9764    0.4470    7.7962 H   0  0  0  0  0  0  0  0  0  0  0  0
    4.7163    1.2692    6.3947 H   0  0  0  0  0  0  0  0  0  0  0  0
    4.7652   -1.7207   10.8582 H   0  0  0  0  0  0  0  0  0  0  0  0
    6.1595   -2.2041   12.8508 H   0  0  0  0  0  0  0  0  0  0  0  0
   10.7843    0.6080   16.0037 H   0  0  0  0  0  0  0  0  0  0  0  0
   12.3050    1.5790   14.3519 H   0  0  0  0  0  0  0  0  0  0  0  0
  1  2  1  0  0  0  0
  1 33  1  0  0  0  0
  2 34  1  0  0  0  0
  2 35  1  0  0  0  0
  3  4  1  0  0  0  0
  3 36  1  6  0  0  0
  3  2  1  0  0  0  0
  5  4  1  0  0  0  0
  5 12  1  0  0  0  0
  5 37  1  6  0  0  0
  6  5  1  0  0  0  0
  6  7  1  0  0  0  0
  6  8  1  0  0  0  0
  6 38  1  1  0  0  0
  7 39  1  0  0  0  0
  8  9  1  0  0  0  0
  8 10  1  0  0  0  0
  8 40  1  6  0  0  0
  9 41  1  0  0  0  0
 10  3  1  0  0  0  0
 10 11  1  0  0  0  0
 10 42  1  1  0  0  0
 11 43  1  0  0  0  0
 12 13  2  0  0  0  0
 12 32  1  0  0  0  0
 13 14  1  0  0  0  0
 13 44  1  0  0  0  0
 14 15  1  0  0  0  0
 14 29  2  0  0  0  0
 15 16  1  0  0  0  0
 15 45  1  0  0  0  0
 15 46  1  0  0  0  0
 16 17  2  0  0  0  0
 16 28  1  0  0  0  0
 17 18  1  0  0  0  0
 17 47  1  0  0  0  0
 18 19  2  0  0  0  0
 18 48  1  0  0  0  0
 19 20  1  0  0  0  0
 19 27  1  0  0  0  0
 21 22  1  0  0  0  0
 21 26  1  0  0  0  0
 21 49  1  1  0  0  0
 21 20  1  0  0  0  0
 22 50  1  0  0  0  0
 22 51  1  0  0  0  0
 23 22  1  0  0  0  0
 23 24  1  0  0  0  0
 23 25  1  0  0  0  0
 23 52  1  1  0  0  0
 24 53  1  0  0  0  0
 24 54  1  0  0  0  0
 25 24  1  0  0  0  0
 25 26  1  0  0  0  0
 25 55  1  1  0  0  0
 26 56  1  0  0  0  0
 26 57  1  0  0  0  0
 27 28  2  0  0  0  0
 27 58  1  0  0  0  0
 28 59  1  0  0  0  0
 29 30  1  0  0  0  0
 29 31  1  0  0  0  0
 31 32  2  0  0  0  0
 31 60  1  0  0  0  0
 32 61  1  0  0  0  0
M  END
>  <DRUGBANK_ID>
DB16209

>  <COMMON_NAME>
Janagliflozin

>  <CAS_NUMBER>
1800115-22-3

>  <UNII>
WK4RT85HCA

$$$$
