
 OpenBabel10282417193D

 75 77  0  0  1  0  0  0  0  0999 V2000
   -3.1916   -5.3725    5.4735 C   0  0  0  0  0  0  0  0  0  0  0  0
   -4.3808   -5.3929    4.6076 C   0  0  0  0  0  0  0  0  0  0  0  0
   -5.3282   -4.5490    5.2278 O   0  0  0  0  0  0  0  0  0  0  0  0
   -5.2829   -3.3022    4.5150 C   0  0  0  0  0  0  0  0  0  0  0  0
   -4.2361   -3.4225    3.4287 C   0  0  2  0  0  0  0  0  0  0  0  0
   -4.0201   -4.8480    3.3250 O   0  0  0  0  0  0  0  0  0  0  0  0
   -2.9908   -2.4452    3.5877 C   0  0  0  0  0  0  0  0  0  0  0  0
   -1.9224   -2.6710    4.5792 O   0  0  0  0  0  0  0  0  0  0  0  0
   -2.1554   -2.7799    5.9293 C   0  0  0  0  0  0  0  0  0  0  0  0
   -3.1432   -2.3510    6.4624 O   0  0  0  0  0  0  0  0  0  0  0  0
   -1.0952   -3.7117    6.6798 C   0  0  0  0  0  0  0  0  0  0  0  0
   -0.5773   -5.1402    6.2153 C   0  0  0  0  0  0  0  0  0  0  0  0
   -0.0594   -5.2039    4.7920 C   0  0  0  0  0  0  0  0  0  0  0  0
   -0.8365   -5.0014    3.6503 C   0  0  0  0  0  0  0  0  0  0  0  0
   -0.3302   -4.6064    2.4400 C   0  0  0  0  0  0  0  0  0  0  0  0
    1.0210   -4.6594    2.2487 C   0  0  0  0  0  0  0  0  0  0  0  0
    1.8313   -5.0539    3.3141 C   0  0  0  0  0  0  0  0  0  0  0  0
    1.2934   -5.3561    4.5719 C   0  0  0  0  0  0  0  0  0  0  0  0
    1.5964   -4.3956    1.0437 O   0  0  0  0  0  0  0  0  0  0  0  0
    0.7191   -4.5578   -0.0881 C   0  0  0  0  0  0  0  0  0  0  0  0
    0.3259   -6.0397   -0.2898 C   0  0  2  0  0  0  0  0  0  0  0  0
   -0.1897   -6.2650   -1.6999 C   0  0  0  0  0  0  0  0  0  0  0  0
   -0.0106   -7.6817   -2.0202 N   0  0  0  0  0  0  0  0  0  0  0  0
   -0.4291   -7.9814   -3.3709 C   0  0  0  0  0  0  0  0  0  0  0  0
    0.3034   -7.1670   -4.4265 C   0  0  0  0  0  0  0  0  0  0  0  0
    1.7384   -7.3710   -4.4856 N   0  0  0  0  0  0  0  0  0  0  0  0
    2.4686   -7.8590   -5.5224 C   0  0  0  0  0  0  0  0  0  0  0  0
    3.6252   -8.2166   -5.3069 O   0  0  0  0  0  0  0  0  0  0  0  0
    1.8520   -7.9971   -6.7385 N   0  0  0  0  0  0  0  0  0  0  0  0
    0.9478   -7.0102   -7.3430 C   0  0  0  0  0  0  0  0  0  0  0  0
   -0.1483   -7.7460   -8.1179 C   0  0  0  0  0  0  0  0  0  0  0  0
    0.4418   -8.5527   -9.1492 O   0  0  0  0  0  0  0  0  0  0  0  0
    1.3302   -9.5328   -8.5780 C   0  0  0  0  0  0  0  0  0  0  0  0
    2.4424   -8.8779   -7.7436 C   0  0  0  0  0  0  0  0  0  0  0  0
   -0.6595   -6.5592    0.6104 O   0  0  0  0  0  0  0  0  0  0  0  0
   -4.5705   -6.9009    4.6654 C   0  0  0  0  0  0  0  0  0  0  0  0
   -2.5264   -6.1950    5.1973 H   0  0  0  0  0  0  0  0  0  0  0  0
   -2.6786   -4.5231    5.1504 H   0  0  0  0  0  0  0  0  0  0  0  0
   -3.3415   -5.3112    6.5498 H   0  0  0  0  0  0  0  0  0  0  0  0
   -6.2765   -3.1822    4.0785 H   0  0  0  0  0  0  0  0  0  0  0  0
   -5.1134   -2.4384    5.1610 H   0  0  0  0  0  0  0  0  0  0  0  0
   -4.6946   -3.1327    2.4709 H   0  0  0  0  0  0  0  0  0  0  0  0
   -2.4535   -2.4877    2.6271 H   0  0  0  0  0  0  0  0  0  0  0  0
   -3.3388   -1.4093    3.6744 H   0  0  0  0  0  0  0  0  0  0  0  0
   -0.2197   -3.0928    6.8660 H   0  0  0  0  0  0  0  0  0  0  0  0
   -1.5737   -3.8978    7.6566 H   0  0  0  0  0  0  0  0  0  0  0  0
    0.2204   -5.4415    6.9095 H   0  0  0  0  0  0  0  0  0  0  0  0
   -1.2472   -5.9791    6.4505 H   0  0  0  0  0  0  0  0  0  0  0  0
   -1.8991   -5.0558    3.5862 H   0  0  0  0  0  0  0  0  0  0  0  0
   -1.0534   -4.3324    1.6794 H   0  0  0  0  0  0  0  0  0  0  0  0
    2.9017   -5.1093    3.1794 H   0  0  0  0  0  0  0  0  0  0  0  0
    1.9294   -5.6856    5.3861 H   0  0  0  0  0  0  0  0  0  0  0  0
   -0.1307   -3.8625   -0.0529 H   0  0  0  0  0  0  0  0  0  0  0  0
    1.3175   -4.2313   -0.9459 H   0  0  0  0  0  0  0  0  0  0  0  0
    1.2325   -6.6280   -0.1166 H   0  0  0  0  0  0  0  0  0  0  0  0
   -1.2543   -6.0047   -1.7795 H   0  0  0  0  0  0  0  0  0  0  0  0
    0.3752   -5.6243   -2.3788 H   0  0  0  0  0  0  0  0  0  0  0  0
    0.9633   -7.9540   -1.8878 H   0  0  0  0  0  0  0  0  0  0  0  0
   -0.2776   -9.0486   -3.5644 H   0  0  0  0  0  0  0  0  0  0  0  0
   -1.5051   -7.7931   -3.4687 H   0  0  0  0  0  0  0  0  0  0  0  0
   -0.1835   -7.4801   -5.3394 H   0  0  0  0  0  0  0  0  0  0  0  0
    0.1528   -6.0884   -4.3185 H   0  0  0  0  0  0  0  0  0  0  0  0
    2.2782   -7.3037   -3.6299 H   0  0  0  0  0  0  0  0  0  0  0  0
    1.5590   -6.4065   -8.0199 H   0  0  0  0  0  0  0  0  0  0  0  0
    0.5350   -6.2911   -6.6360 H   0  0  0  0  0  0  0  0  0  0  0  0
   -0.7482   -8.3953   -7.4655 H   0  0  0  0  0  0  0  0  0  0  0  0
   -0.8262   -7.0281   -8.5869 H   0  0  0  0  0  0  0  0  0  0  0  0
    1.7625  -10.1060   -9.4028 H   0  0  0  0  0  0  0  0  0  0  0  0
    0.7354  -10.2202   -7.9640 H   0  0  0  0  0  0  0  0  0  0  0  0
    3.0719   -8.2470   -8.3814 H   0  0  0  0  0  0  0  0  0  0  0  0
    3.0739   -9.6424   -7.2798 H   0  0  0  0  0  0  0  0  0  0  0  0
   -1.5120   -6.1227    0.4525 H   0  0  0  0  0  0  0  0  0  0  0  0
   -5.5071   -7.2317    4.2521 H   0  0  0  0  0  0  0  0  0  0  0  0
   -3.7418   -7.4065    4.1356 H   0  0  0  0  0  0  0  0  0  0  0  0
   -4.5046   -7.2409    5.7173 H   0  0  0  0  0  0  0  0  0  0  0  0
  1  2  1  0  0  0  0
  1 37  1  0  0  0  0
  1 38  1  0  0  0  0
  1 39  1  0  0  0  0
  2  3  1  0  0  0  0
  2  6  1  0  0  0  0
  2 36  1  0  0  0  0
  3  4  1  0  0  0  0
  4  5  1  0  0  0  0
  4 40  1  0  0  0  0
  4 41  1  0  0  0  0
  5  6  1  0  0  0  0
  5 42  1  6  0  0  0
  5  7  1  0  0  0  0
  7  8  1  0  0  0  0
  7 43  1  0  0  0  0
  7 44  1  0  0  0  0
  8  9  1  0  0  0  0
  9 10  2  0  0  0  0
  9 11  1  0  0  0  0
 11 12  1  0  0  0  0
 11 45  1  0  0  0  0
 11 46  1  0  0  0  0
 12 13  1  0  0  0  0
 12 47  1  0  0  0  0
 12 48  1  0  0  0  0
 13 14  2  0  0  0  0
 13 18  1  0  0  0  0
 14 15  1  0  0  0  0
 14 49  1  0  0  0  0
 15 16  2  0  0  0  0
 15 50  1  0  0  0  0
 16 17  1  0  0  0  0
 16 19  1  0  0  0  0
 17 18  2  0  0  0  0
 17 51  1  0  0  0  0
 18 52  1  0  0  0  0
 19 20  1  0  0  0  0
 20 53  1  0  0  0  0
 20 54  1  0  0  0  0
 21 35  1  0  0  0  0
 21 55  1  1  0  0  0
 21 22  1  0  0  0  0
 21 20  1  0  0  0  0
 22 23  1  0  0  0  0
 22 56  1  0  0  0  0
 22 57  1  0  0  0  0
 23 24  1  0  0  0  0
 23 58  1  0  0  0  0
 24 25  1  0  0  0  0
 24 59  1  0  0  0  0
 24 60  1  0  0  0  0
 25 26  1  0  0  0  0
 25 61  1  0  0  0  0
 25 62  1  0  0  0  0
 26 27  1  0  0  0  0
 26 63  1  0  0  0  0
 27 28  2  0  0  0  0
 27 29  1  0  0  0  0
 29 30  1  0  0  0  0
 29 34  1  0  0  0  0
 30 31  1  0  0  0  0
 30 64  1  0  0  0  0
 30 65  1  0  0  0  0
 31 32  1  0  0  0  0
 31 66  1  0  0  0  0
 31 67  1  0  0  0  0
 32 33  1  0  0  0  0
 33 34  1  0  0  0  0
 33 68  1  0  0  0  0
 33 69  1  0  0  0  0
 34 70  1  0  0  0  0
 34 71  1  0  0  0  0
 35 72  1  0  0  0  0
 36 73  1  0  0  0  0
 36 74  1  0  0  0  0
 36 75  1  0  0  0  0
M  END
>  <DRUGBANK_ID>
DB12212

>  <COMMON_NAME>
Landiolol

>  <CAS_NUMBER>
133242-30-5

>  <UNII>
62NWQ924LH

>  <SYNONYMS>
Landiolol; Landiololum

$$$$
