
 OpenBabel10282417113D

 54 56  0  0  0  0  0  0  0  0999 V2000
   -1.6339   -0.0495   -0.1994 C   0  0  0  0  0  0  0  0  0  0  0  0
    1.3610   -0.0492    0.2791 N   0  0  0  0  0  0  0  0  0  0  0  0
   -0.8397    1.2090    0.2873 C   0  0  0  0  0  0  0  0  0  0  0  0
   -0.8203   -1.2942    0.2645 C   0  0  0  0  0  0  0  0  0  0  0  0
    0.6331    1.1689   -0.0889 C   0  0  0  0  0  0  0  0  0  0  0  0
    0.6735   -1.2875   -0.0940 C   0  0  0  0  0  0  0  0  0  0  0  0
    2.7634   -0.0222   -0.2224 C   0  0  0  0  0  0  0  0  0  0  0  0
    1.2589    3.7156   -3.2992 C   0  0  0  0  0  0  0  0  0  0  0  0
    2.5915    1.3555   -2.4181 C   0  0  0  0  0  0  0  0  0  0  0  0
    0.4931    4.8394   -3.5875 N   0  0  0  0  0  0  0  0  0  0  0  0
    3.0047    0.0493   -1.7627 C   0  0  0  0  0  0  0  0  0  0  0  0
    2.3252    3.7658   -2.3995 C   0  0  0  0  0  0  0  0  0  0  0  0
    0.8775    2.4711   -3.7579 C   0  0  0  0  0  0  0  0  0  0  0  0
    2.9725    2.6019   -1.9436 C   0  0  0  0  0  0  0  0  0  0  0  0
    1.6392    1.3374   -3.4294 C   0  0  0  0  0  0  0  0  0  0  0  0
   -4.0858   -0.2010    0.0709 O   0  0  0  0  0  0  0  0  0  0  0  0
   -2.9725   -0.0529    0.5824 C   0  0  0  0  0  0  0  0  0  0  0  0
   -0.8813   -0.1856   -2.6964 C   0  0  0  0  0  0  0  0  0  0  0  0
   -1.9003   -0.0577   -1.7640 C   0  0  0  0  0  0  0  0  0  0  0  0
   -1.0586   -0.0266   -4.0870 C   0  0  0  0  0  0  0  0  0  0  0  0
   -2.2676    0.3528   -4.6041 C   0  0  0  0  0  0  0  0  0  0  0  0
   -3.1536    0.0710   -2.3830 C   0  0  0  0  0  0  0  0  0  0  0  0
   -3.3355    0.3479   -3.7471 C   0  0  0  0  0  0  0  0  0  0  0  0
   -2.8833    0.0996    1.9304 O   0  0  0  0  0  0  0  0  0  0  0  0
   -4.1899    0.0980    2.5476 C   0  0  0  0  0  0  0  0  0  0  0  0
   -4.9899    1.3546    2.1949 C   0  0  0  0  0  0  0  0  0  0  0  0
   -1.2773    2.1251   -0.1325 H   0  0  0  0  0  0  0  0  0  0  0  0
   -0.8809    1.3283    1.3788 H   0  0  0  0  0  0  0  0  0  0  0  0
   -0.8720   -1.3831    1.3587 H   0  0  0  0  0  0  0  0  0  0  0  0
   -1.2796   -2.2024   -0.1403 H   0  0  0  0  0  0  0  0  0  0  0  0
    0.6151    1.3052   -1.1545 H   0  0  0  0  0  0  0  0  0  0  0  0
    1.1478    2.0480    0.3220 H   0  0  0  0  0  0  0  0  0  0  0  0
    1.1605   -2.1361    0.4026 H   0  0  0  0  0  0  0  0  0  0  0  0
    0.7960   -1.5324   -1.1469 H   0  0  0  0  0  0  0  0  0  0  0  0
    3.2885    0.8111    0.2610 H   0  0  0  0  0  0  0  0  0  0  0  0
    3.2692   -0.9221    0.1563 H   0  0  0  0  0  0  0  0  0  0  0  0
    0.9543    5.7374   -3.5079 H   0  0  0  0  0  0  0  0  0  0  0  0
   -0.1843    4.7664   -4.3408 H   0  0  0  0  0  0  0  0  0  0  0  0
    4.0636   -0.1129   -1.9823 H   0  0  0  0  0  0  0  0  0  0  0  0
    2.4852   -0.8003   -2.2292 H   0  0  0  0  0  0  0  0  0  0  0  0
    2.6477    4.7234   -2.0094 H   0  0  0  0  0  0  0  0  0  0  0  0
   -0.0309    2.3812   -4.3511 H   0  0  0  0  0  0  0  0  0  0  0  0
    3.7302    2.6745   -1.1718 H   0  0  0  0  0  0  0  0  0  0  0  0
    1.4027    0.3686   -3.8421 H   0  0  0  0  0  0  0  0  0  0  0  0
    0.1245   -0.3472   -2.3659 H   0  0  0  0  0  0  0  0  0  0  0  0
   -0.2247   -0.0874   -4.7781 H   0  0  0  0  0  0  0  0  0  0  0  0
   -2.3598    0.6087   -5.6517 H   0  0  0  0  0  0  0  0  0  0  0  0
   -4.0929   -0.0574   -1.8717 H   0  0  0  0  0  0  0  0  0  0  0  0
   -4.3336    0.5472   -4.1166 H   0  0  0  0  0  0  0  0  0  0  0  0
   -4.7383   -0.8125    2.2624 H   0  0  0  0  0  0  0  0  0  0  0  0
   -4.0444    0.0479    3.6288 H   0  0  0  0  0  0  0  0  0  0  0  0
   -5.2042    1.4491    1.1241 H   0  0  0  0  0  0  0  0  0  0  0  0
   -5.9566    1.3535    2.7033 H   0  0  0  0  0  0  0  0  0  0  0  0
   -4.4241    2.2498    2.4634 H   0  0  0  0  0  0  0  0  0  0  0  0
  1 17  1  0  0  0  0
  3  1  1  0  0  0  0
  3 27  1  0  0  0  0
  3 28  1  0  0  0  0
  4  1  1  0  0  0  0
  4 29  1  0  0  0  0
  4 30  1  0  0  0  0
  5  2  1  0  0  0  0
  5  3  1  0  0  0  0
  5 31  1  0  0  0  0
  5 32  1  0  0  0  0
  6  2  1  0  0  0  0
  6  4  1  0  0  0  0
  6 33  1  0  0  0  0
  6 34  1  0  0  0  0
  7  2  1  0  0  0  0
  7 35  1  0  0  0  0
  7 36  1  0  0  0  0
 10  8  1  0  0  0  0
 10 37  1  0  0  0  0
 10 38  1  0  0  0  0
 11  7  1  0  0  0  0
 11  9  1  0  0  0  0
 11 39  1  0  0  0  0
 11 40  1  0  0  0  0
 12  8  2  0  0  0  0
 12 41  1  0  0  0  0
 13  8  1  0  0  0  0
 13 42  1  0  0  0  0
 14  9  2  0  0  0  0
 14 12  1  0  0  0  0
 14 43  1  0  0  0  0
 15  9  1  0  0  0  0
 15 13  2  0  0  0  0
 15 44  1  0  0  0  0
 17 16  2  0  0  0  0
 17 24  1  0  0  0  0
 18 45  1  0  0  0  0
 19  1  1  0  0  0  0
 19 18  2  0  0  0  0
 20 18  1  0  0  0  0
 20 46  1  0  0  0  0
 21 20  2  0  0  0  0
 21 47  1  0  0  0  0
 22 19  1  0  0  0  0
 22 48  1  0  0  0  0
 23 21  1  0  0  0  0
 23 22  2  0  0  0  0
 23 49  1  0  0  0  0
 24 25  1  0  0  0  0
 25 26  1  0  0  0  0
 25 50  1  0  0  0  0
 25 51  1  0  0  0  0
 26 52  1  0  0  0  0
 26 53  1  0  0  0  0
 26 54  1  0  0  0  0
M  END
>  <DRUGBANK_ID>
DB00913

>  <SECONDARY_ACCESSION_NUMBERS>
APRD00741

>  <COMMON_NAME>
Anileridine

>  <CAS_NUMBER>
144-14-9

>  <UNII>
71Q1A3O279

>  <SYNONYMS>
1-[2-(4-aminophenyl)ethyl]-4-phenyl-4-piperidinecarboxlic acid ethyl ester; Anileridina; Anileridine; Anileridinum; ethyl 1-(2-(4-aminophenyl)ethyl)-4-phenyl-4-piperidinecarboxylate; ethyl 1-(4-aminophenethyl)-4-phenylisonipecotate; ethyl 1-(p-aminophenethyl)-4-phenylisonipecotate; N-(β-(p-aminophenyl)ethyl)-4-phenyl-4-carbethoxypiperidine; N-β-(p-aminophenyl)ethylnormeperidine

$$$$
