960
 OpenBabel10282417113D

 38 39  0  0  1  0  0  0  0  0999 V2000
    1.0898   -0.0220   -0.0624 O   0  0  0  0  0  0  0  0  0  0  0  0
    1.9188   -2.3460   -1.8597 O   0  0  0  0  0  0  0  0  0  0  0  0
   -1.6233   -3.1467   -1.4164 N   0  0  0  0  0  0  0  0  0  0  0  0
    4.9109    2.5021   -0.0748 N   0  0  0  0  0  0  0  0  0  0  0  0
    0.5724   -1.9918   -1.5254 C   0  0  3  0  0  0  0  0  0  0  0  0
   -0.1776   -3.3232   -1.4896 C   0  0  0  0  0  0  0  0  0  0  0  0
   -2.3297   -4.4270   -1.4304 C   0  0  0  0  0  0  0  0  0  0  0  0
    0.4029   -1.2659   -0.1643 C   0  0  0  0  0  0  0  0  0  0  0  0
    3.1222    1.1788    0.0018 C   0  0  0  0  0  0  0  0  0  0  0  0
    2.4468   -0.0521    0.0951 C   0  0  0  0  0  0  0  0  0  0  0  0
   -1.9918   -5.2805   -0.2065 C   0  0  0  0  0  0  0  0  0  0  0  0
   -3.8218   -4.1080   -1.4504 C   0  0  0  0  0  0  0  0  0  0  0  0
    4.5192    1.1852   -0.0234 C   0  0  0  0  0  0  0  0  0  0  0  0
    2.6967    2.5330   -0.1127 C   0  0  0  0  0  0  0  0  0  0  0  0
    3.2134   -1.2155    0.2536 C   0  0  0  0  0  0  0  0  0  0  0  0
    5.2792    0.0128   -0.0158 C   0  0  0  0  0  0  0  0  0  0  0  0
    3.8192    3.3247   -0.1390 C   0  0  0  0  0  0  0  0  0  0  0  0
    4.5972   -1.1935    0.1113 C   0  0  0  0  0  0  0  0  0  0  0  0
    2.4021   -1.5136   -2.0094 H   0  0  0  0  0  0  0  0  0  0  0  0
   -1.8824   -2.6334   -0.5759 H   0  0  0  0  0  0  0  0  0  0  0  0
    5.8749    2.8091   -0.0631 H   0  0  0  0  0  0  0  0  0  0  0  0
    0.2133   -1.3537   -2.3386 H   0  0  0  0  0  0  0  0  0  0  0  0
    0.0923   -3.9135   -2.3744 H   0  0  0  0  0  0  0  0  0  0  0  0
    0.2034   -3.8832   -0.6257 H   0  0  0  0  0  0  0  0  0  0  0  0
   -2.0778   -4.9742   -2.3469 H   0  0  0  0  0  0  0  0  0  0  0  0
    0.6329   -1.9019    0.6998 H   0  0  0  0  0  0  0  0  0  0  0  0
   -0.6560   -1.0022   -0.0500 H   0  0  0  0  0  0  0  0  0  0  0  0
   -2.2029   -4.7387    0.7226 H   0  0  0  0  0  0  0  0  0  0  0  0
   -2.5758   -6.2044   -0.2079 H   0  0  0  0  0  0  0  0  0  0  0  0
   -0.9376   -5.5756   -0.1896 H   0  0  0  0  0  0  0  0  0  0  0  0
   -4.0838   -3.5035   -2.3263 H   0  0  0  0  0  0  0  0  0  0  0  0
   -4.4095   -5.0295   -1.4880 H   0  0  0  0  0  0  0  0  0  0  0  0
   -4.1218   -3.5499   -0.5553 H   0  0  0  0  0  0  0  0  0  0  0  0
    1.6694    2.8770   -0.1465 H   0  0  0  0  0  0  0  0  0  0  0  0
    2.7485   -2.1898    0.3762 H   0  0  0  0  0  0  0  0  0  0  0  0
    6.3605    0.0286   -0.1002 H   0  0  0  0  0  0  0  0  0  0  0  0
    3.9331    4.3987   -0.1945 H   0  0  0  0  0  0  0  0  0  0  0  0
    5.1370   -2.1367    0.0739 H   0  0  0  0  0  0  0  0  0  0  0  0
  1  8  1  0  0  0  0
  1 10  1  0  0  0  0
  2  5  1  0  0  0  0
  2 19  1  0  0  0  0
  3  6  1  0  0  0  0
  3  7  1  0  0  0  0
  3 20  1  0  0  0  0
  4 13  1  0  0  0  0
  4 17  1  0  0  0  0
  4 21  1  0  0  0  0
  5  6  1  0  0  0  0
  5  8  1  0  0  0  0
  5 22  1  0  0  0  0
  6 23  1  0  0  0  0
  6 24  1  0  0  0  0
  7 11  1  0  0  0  0
  7 12  1  0  0  0  0
  7 25  1  0  0  0  0
  8 26  1  0  0  0  0
  8 27  1  0  0  0  0
  9 10  1  0  0  0  0
  9 13  2  0  0  0  0
  9 14  1  0  0  0  0
 10 15  2  0  0  0  0
 11 28  1  0  0  0  0
 11 29  1  0  0  0  0
 11 30  1  0  0  0  0
 12 31  1  0  0  0  0
 12 32  1  0  0  0  0
 12 33  1  0  0  0  0
 13 16  1  0  0  0  0
 14 17  2  0  0  0  0
 14 34  1  0  0  0  0
 15 18  1  0  0  0  0
 15 35  1  0  0  0  0
 16 18  2  0  0  0  0
 16 36  1  0  0  0  0
 17 37  1  0  0  0  0
 18 38  1  0  0  0  0
M  END
>  <DRUGBANK_ID>
DB00960

>  <SECONDARY_ACCESSION_NUMBERS>
APRD00678

>  <COMMON_NAME>
Pindolol

>  <CAS_NUMBER>
13523-86-9

>  <UNII>
BJ4HF6IU1D

>  <SYNONYMS>
1-(1H-indol-4-yloxy)-3-(isopropylamino)propan-2-ol; 1-(1H-indol-4-yloxy)-3-(propan-2-ylamino)-propan-2-ol; 1-(1H-indol-4-yloxy)-3-[(1-methylethyl)amino]propan-2-ol; 4-(2-hydroxy-3-isopropylaminopropoxy)-indole; Pindolol; Pindololum

$$$$
