
 OpenBabel10282417173D

 55 55  0  0  0  0  0  0  0  0999 V2000
    1.2947   -0.2101   -0.4977 C   0  0  0  0  0  0  0  0  0  0  0  0
    0.4497   -1.2876   -0.2787 C   0  0  0  0  0  0  0  0  0  0  0  0
    0.7612    1.0687   -0.6358 C   0  0  0  0  0  0  0  0  0  0  0  0
   -0.9266   -1.0287   -0.3142 C   0  0  0  0  0  0  0  0  0  0  0  0
   -0.5579    1.3247   -0.2523 C   0  0  0  0  0  0  0  0  0  0  0  0
   -1.4333    0.2537   -0.2024 C   0  0  0  0  0  0  0  0  0  0  0  0
    1.0529   -2.6533   -0.0553 C   0  0  0  0  0  0  0  0  0  0  0  0
    0.5713   -3.3747    1.2159 C   0  0  0  0  0  0  0  0  0  0  0  0
   -0.9402   -3.5970    1.2608 C   0  0  0  0  0  0  0  0  0  0  0  0
   -1.4429   -4.2564   -0.0369 C   0  0  0  0  0  0  0  0  0  0  0  0
   -1.0169    2.6634    0.2613 C   0  0  0  0  0  0  0  0  0  0  0  0
   -0.4223    3.0505    1.6526 C   0  0  0  0  0  0  0  0  0  0  0  0
    1.1246    3.2832    1.7424 C   0  0  0  0  0  0  0  0  0  0  0  0
    1.5536    4.2326    0.5798 C   0  0  0  0  0  0  0  0  0  0  0  0
    1.0120    5.5434    0.7341 O   0  0  0  0  0  0  0  0  0  0  0  0
    1.5684    3.9200    3.0941 C   0  0  0  0  0  0  0  0  0  0  0  0
    1.2357    3.1389    4.2477 O   0  0  0  0  0  0  0  0  0  0  0  0
    1.8586    2.0092    1.7920 N   0  0  0  0  0  0  0  0  0  0  0  0
   -2.9596   -6.5716    1.0619 C   0  0  0  0  0  0  0  0  0  0  0  0
   -1.4305   -6.5446    0.9976 C   0  0  0  0  0  0  0  0  0  0  0  0
   -0.9224   -5.6833   -0.1573 C   0  0  0  0  0  0  0  0  0  0  0  0
   -3.5412   -7.1735   -0.2068 C   0  0  0  0  0  0  0  0  0  0  0  0
    2.3738   -0.3430   -0.4780 H   0  0  0  0  0  0  0  0  0  0  0  0
    1.4616    1.8724   -0.8315 H   0  0  0  0  0  0  0  0  0  0  0  0
   -1.6747   -1.8089   -0.3330 H   0  0  0  0  0  0  0  0  0  0  0  0
   -2.4956    0.3914   -0.0230 H   0  0  0  0  0  0  0  0  0  0  0  0
    0.8843   -3.2567   -0.9531 H   0  0  0  0  0  0  0  0  0  0  0  0
    2.1457   -2.5764    0.0234 H   0  0  0  0  0  0  0  0  0  0  0  0
    1.0772   -4.3476    1.2751 H   0  0  0  0  0  0  0  0  0  0  0  0
    0.8832   -2.8287    2.1136 H   0  0  0  0  0  0  0  0  0  0  0  0
   -1.2059   -4.1838    2.1434 H   0  0  0  0  0  0  0  0  0  0  0  0
   -1.4571   -2.6554    1.4630 H   0  0  0  0  0  0  0  0  0  0  0  0
   -2.5355   -4.2057   -0.0783 H   0  0  0  0  0  0  0  0  0  0  0  0
   -1.1339   -3.7221   -0.9405 H   0  0  0  0  0  0  0  0  0  0  0  0
   -0.8503    3.4328   -0.4971 H   0  0  0  0  0  0  0  0  0  0  0  0
   -2.1093    2.6316    0.3893 H   0  0  0  0  0  0  0  0  0  0  0  0
   -0.9263    3.9751    1.9657 H   0  0  0  0  0  0  0  0  0  0  0  0
   -0.7343    2.2922    2.3834 H   0  0  0  0  0  0  0  0  0  0  0  0
    2.6415    4.3241    0.5216 H   0  0  0  0  0  0  0  0  0  0  0  0
    1.2318    3.8798   -0.4030 H   0  0  0  0  0  0  0  0  0  0  0  0
    0.0415    5.4835    0.7052 H   0  0  0  0  0  0  0  0  0  0  0  0
    2.6633    4.0237    3.0951 H   0  0  0  0  0  0  0  0  0  0  0  0
    1.1413    4.9117    3.2408 H   0  0  0  0  0  0  0  0  0  0  0  0
    0.4293    2.6395    4.0507 H   0  0  0  0  0  0  0  0  0  0  0  0
    1.2788    1.2029    1.5772 H   0  0  0  0  0  0  0  0  0  0  0  0
    2.6907    2.0040    1.2102 H   0  0  0  0  0  0  0  0  0  0  0  0
   -3.2744   -7.1509    1.9340 H   0  0  0  0  0  0  0  0  0  0  0  0
   -3.3735   -5.5673    1.2150 H   0  0  0  0  0  0  0  0  0  0  0  0
   -1.0335   -7.5579    0.8939 H   0  0  0  0  0  0  0  0  0  0  0  0
   -1.0348   -6.1776    1.9512 H   0  0  0  0  0  0  0  0  0  0  0  0
   -1.2197   -6.0982   -1.1256 H   0  0  0  0  0  0  0  0  0  0  0  0
    0.1729   -5.6933   -0.1776 H   0  0  0  0  0  0  0  0  0  0  0  0
   -3.1522   -8.1858   -0.3492 H   0  0  0  0  0  0  0  0  0  0  0  0
   -4.6302   -7.2129   -0.1516 H   0  0  0  0  0  0  0  0  0  0  0  0
   -3.2863   -6.5853   -1.0947 H   0  0  0  0  0  0  0  0  0  0  0  0
  1 23  1  0  0  0  0
  2  1  1  0  0  0  0
  3  1  2  0  0  0  0
  3 24  1  0  0  0  0
  4  2  2  0  0  0  0
  4 25  1  0  0  0  0
  5  3  1  0  0  0  0
  6  4  1  0  0  0  0
  6  5  2  0  0  0  0
  6 26  1  0  0  0  0
  7  2  1  0  0  0  0
  7 27  1  0  0  0  0
  7 28  1  0  0  0  0
  8  7  1  0  0  0  0
  8 29  1  0  0  0  0
  8 30  1  0  0  0  0
  9  8  1  0  0  0  0
  9 31  1  0  0  0  0
  9 32  1  0  0  0  0
 10 21  1  0  0  0  0
 10  9  1  0  0  0  0
 10 33  1  0  0  0  0
 10 34  1  0  0  0  0
 11  5  1  0  0  0  0
 11 35  1  0  0  0  0
 11 36  1  0  0  0  0
 12 11  1  0  0  0  0
 12 37  1  0  0  0  0
 12 38  1  0  0  0  0
 13 12  1  0  0  0  0
 13 16  1  0  0  0  0
 13 18  1  0  0  0  0
 14 13  1  0  0  0  0
 14 39  1  0  0  0  0
 14 40  1  0  0  0  0
 15 14  1  0  0  0  0
 15 41  1  0  0  0  0
 16 17  1  0  0  0  0
 16 42  1  0  0  0  0
 16 43  1  0  0  0  0
 17 44  1  0  0  0  0
 18 45  1  0  0  0  0
 18 46  1  0  0  0  0
 19 22  1  0  0  0  0
 19 47  1  0  0  0  0
 19 48  1  0  0  0  0
 20 19  1  0  0  0  0
 20 49  1  0  0  0  0
 20 50  1  0  0  0  0
 21 20  1  0  0  0  0
 21 51  1  0  0  0  0
 21 52  1  0  0  0  0
 22 53  1  0  0  0  0
 22 54  1  0  0  0  0
 22 55  1  0  0  0  0
M  END
>  <DRUGBANK_ID>
DB08868

>  <COMMON_NAME>
Fingolimod

>  <CAS_NUMBER>
162359-55-9

>  <UNII>
3QN8BYN5QF

>  <SYNONYMS>
Fingolimod; Fingolimodum

$$$$
