
 OpenBabel10282417183D

 50 52  0  0  0  0  0  0  0  0999 V2000
    2.6096    0.0909   -0.0206 C   0  0  0  0  0  0  0  0  0  0  0  0
   -3.0428   -5.4220    0.4705 C   0  0  0  0  0  0  0  0  0  0  0  0
   -4.5497   -5.4927    0.6440 C   0  0  0  0  0  0  0  0  0  0  0  0
   -4.5486    3.4027   -1.1093 C   0  0  0  0  0  0  0  0  0  0  0  0
   -5.4045    3.6998   -0.0549 C   0  0  0  0  0  0  0  0  0  0  0  0
   -3.8947    2.1750   -1.1265 C   0  0  0  0  0  0  0  0  0  0  0  0
    0.3613    1.2939    0.0022 C   0  0  0  0  0  0  0  0  0  0  0  0
    0.4839   -1.0780    0.0053 C   0  0  0  0  0  0  0  0  0  0  0  0
   -1.0441    1.2384    0.0176 C   0  0  0  0  0  0  0  0  0  0  0  0
   -0.8947   -1.1040    0.0572 C   0  0  0  0  0  0  0  0  0  0  0  0
   -6.5153    3.0511    2.0577 C   0  0  0  0  0  0  0  0  0  0  0  0
   -6.7637    2.2103    3.0735 C   0  0  0  0  0  0  0  0  0  0  0  0
   -4.0187   -1.1148   -0.0354 C   0  0  0  0  0  0  0  0  0  0  0  0
   -2.6851   -4.2598    1.3673 C   0  0  0  0  0  0  0  0  0  0  0  0
   -4.9979   -4.0707    0.9650 C   0  0  0  0  0  0  0  0  0  0  0  0
   -3.5777   -2.5408   -0.1202 C   0  0  0  0  0  0  0  0  0  0  0  0
    1.1257    0.1296   -0.0144 C   0  0  0  0  0  0  0  0  0  0  0  0
   -1.7365    0.0209    0.0125 C   0  0  0  0  0  0  0  0  0  0  0  0
   -5.5880    2.7521    0.9497 C   0  0  0  0  0  0  0  0  0  0  0  0
   -3.2617    0.0131   -0.0055 C   0  0  0  0  0  0  0  0  0  0  0  0
   -4.0803    1.2866   -0.0654 C   0  0  0  0  0  0  0  0  0  0  0  0
   -7.6968    2.4908    4.1801 C   0  0  0  0  0  0  0  0  0  0  0  0
   -4.9398    1.5553    0.9563 N   0  0  0  0  0  0  0  0  0  0  0  0
   -3.7699   -3.2784    1.1302 N   0  0  0  0  0  0  0  0  0  0  0  0
   -7.9273    1.7350    5.0943 O   0  0  0  0  0  0  0  0  0  0  0  0
   -8.2986    3.6939    4.0907 O   0  0  0  0  0  0  0  0  0  0  0  0
   -7.0160    4.0158    2.0185 H   0  0  0  0  0  0  0  0  0  0  0  0
   -6.2761    1.2434    3.1354 H   0  0  0  0  0  0  0  0  0  0  0  0
   -5.1073   -1.0189   -0.0469 H   0  0  0  0  0  0  0  0  0  0  0  0
    2.9592   -0.4613    0.8597 H   0  0  0  0  0  0  0  0  0  0  0  0
    2.9464   -0.4331   -0.9216 H   0  0  0  0  0  0  0  0  0  0  0  0
    3.0240    1.0966   -0.0046 H   0  0  0  0  0  0  0  0  0  0  0  0
   -2.7732   -5.1976   -0.5700 H   0  0  0  0  0  0  0  0  0  0  0  0
   -2.5404   -6.3515    0.7520 H   0  0  0  0  0  0  0  0  0  0  0  0
   -5.0362   -5.8825   -0.2535 H   0  0  0  0  0  0  0  0  0  0  0  0
   -4.7911   -6.1405    1.4918 H   0  0  0  0  0  0  0  0  0  0  0  0
   -4.3796    4.1254   -1.9032 H   0  0  0  0  0  0  0  0  0  0  0  0
   -5.9153    4.6578   -0.0297 H   0  0  0  0  0  0  0  0  0  0  0  0
   -3.2109    1.9367   -1.9355 H   0  0  0  0  0  0  0  0  0  0  0  0
    0.8473    2.2631    0.0117 H   0  0  0  0  0  0  0  0  0  0  0  0
    1.0202   -2.0252    0.0175 H   0  0  0  0  0  0  0  0  0  0  0  0
   -1.5716    2.1869    0.0573 H   0  0  0  0  0  0  0  0  0  0  0  0
   -1.1671   -2.1241    0.1879 H   0  0  0  0  0  0  0  0  0  0  0  0
   -2.6816   -4.5770    2.4189 H   0  0  0  0  0  0  0  0  0  0  0  0
   -1.6745   -3.8870    1.1712 H   0  0  0  0  0  0  0  0  0  0  0  0
   -5.6318   -3.6778    0.1590 H   0  0  0  0  0  0  0  0  0  0  0  0
   -5.6028   -4.0257    1.8745 H   0  0  0  0  0  0  0  0  0  0  0  0
   -3.9907   -3.0360   -1.0063 H   0  0  0  0  0  0  0  0  0  0  0  0
   -2.5649   -2.6183   -0.4168 H   0  0  0  0  0  0  0  0  0  0  0  0
   -8.8753    3.7273    4.8830 H   0  0  0  0  0  0  0  0  0  0  0  0
  1 30  1  0  0  0  0
  1 31  1  0  0  0  0
  1 32  1  0  0  0  0
  2 33  1  0  0  0  0
  2 34  1  0  0  0  0
  3  2  1  0  0  0  0
  3 35  1  0  0  0  0
  3 36  1  0  0  0  0
  4 37  1  0  0  0  0
  5  4  2  0  0  0  0
  5 38  1  0  0  0  0
  6  4  1  0  0  0  0
  6 39  1  0  0  0  0
  7 40  1  0  0  0  0
  8 41  1  0  0  0  0
  9  7  1  0  0  0  0
  9 42  1  0  0  0  0
 10  8  2  0  0  0  0
 10 43  1  0  0  0  0
 12 11  2  0  0  0  0
 14  2  1  0  0  0  0
 14 44  1  0  0  0  0
 14 45  1  0  0  0  0
 15  3  1  0  0  0  0
 15 46  1  0  0  0  0
 15 47  1  0  0  0  0
 16 13  1  0  0  0  0
 16 48  1  0  0  0  0
 16 49  1  0  0  0  0
 17  1  1  0  0  0  0
 17  7  2  0  0  0  0
 17  8  1  0  0  0  0
 18  9  2  0  0  0  0
 18 10  1  0  0  0  0
 19  5  1  0  0  0  0
 19 11  1  0  0  0  0
 20 13  2  0  0  0  0
 20 18  1  0  0  0  0
 21  6  2  0  0  0  0
 21 20  1  0  0  0  0
 22 12  1  0  0  0  0
 23 19  2  0  0  0  0
 23 21  1  0  0  0  0
 24 14  1  0  0  0  0
 24 15  1  0  0  0  0
 24 16  1  0  0  0  0
 25 22  2  0  0  0  0
 26 22  1  0  0  0  0
 26 50  1  0  0  0  0
 27 11  1  0  0  0  0
 28 12  1  0  0  0  0
 29 13  1  0  0  0  0
M  END
>  <DRUGBANK_ID>
DB09488

>  <COMMON_NAME>
Acrivastine

>  <CAS_NUMBER>
87848-99-5

>  <UNII>
A20F9XAI7W

>  <SYNONYMS>
(2E)-3-{6-[(1E)-1-(4-methylphenyl)-3-(pyrrolidin-1-yl)prop-1-en-1-yl]pyridin-2-yl}acrylic acid; acrivastina; Acrivastine

$$$$
