
 OpenBabel10282417203D

 47 50  0  0  1  0  0  0  0  0999 V2000
   -1.9986    0.5707    0.0756 C   0  0  0  0  0  0  0  0  0  0  0  0
   -2.0265   -0.7722   -0.0010 N   0  0  0  0  0  0  0  0  0  0  0  0
   -0.8414   -1.4241   -0.0071 C   0  0  0  0  0  0  0  0  0  0  0  0
    0.3423   -0.6474    0.0555 C   0  0  0  0  0  0  0  0  0  0  0  0
    0.2300    0.7194    0.1210 C   0  0  0  0  0  0  0  0  0  0  0  0
   -0.9228    1.3848    0.1737 N   0  0  0  0  0  0  0  0  0  0  0  0
    1.5234    1.1812    0.0872 N   0  0  0  0  0  0  0  0  0  0  0  0
    2.3566    0.1074    0.0598 C   0  0  0  0  0  0  0  0  0  0  0  0
    1.6762   -0.9960    0.0792 N   0  0  0  0  0  0  0  0  0  0  0  0
    2.0464    2.5150   -0.0202 C   0  0  1  0  0  0  0  0  0  0  0  0
    1.6815    3.2278   -1.3131 C   0  0  1  0  0  0  0  0  0  0  0  0
    1.7316    4.6825   -0.8561 C   0  0  1  0  0  0  0  0  0  0  0  0
    1.2459    4.6047    0.5947 C   0  0  2  0  0  0  0  0  0  0  0  0
    1.6033    3.2992    1.0912 O   0  0  0  0  0  0  0  0  0  0  0  0
   -0.2722    4.8351    0.7860 C   0  0  0  0  0  0  0  0  0  0  0  0
   -1.1555    3.8727    0.2147 O   0  0  0  0  0  0  0  0  0  0  0  0
   -1.4091    3.9564   -1.1794 N   0  3  0  0  0  0  0  0  0  0  0  0
   -0.9102    4.9145   -1.7766 O   0  0  0  0  0  0  0  0  0  0  0  0
   -2.0566    3.0275   -1.6379 O   0  5  0  0  0  0  0  0  0  0  0  0
    3.0684    5.1931   -0.9691 O   0  0  0  0  0  0  0  0  0  0  0  0
    2.5545    2.9188   -2.3923 O   0  0  0  0  0  0  0  0  0  0  0  0
   -0.8728   -2.8020   -0.0931 N   0  0  0  0  0  0  0  0  0  0  0  0
    0.3217   -3.6167   -0.0095 C   0  0  0  0  0  0  0  0  0  0  0  0
    1.1163   -3.4118    1.2870 C   0  0  0  0  0  0  0  0  0  0  0  0
    2.5649   -3.7098    0.9148 C   0  0  0  0  0  0  0  0  0  0  0  0
    2.6455   -3.7948   -0.6149 C   0  0  0  0  0  0  0  0  0  0  0  0
    1.2918   -3.3792   -1.1731 C   0  0  0  0  0  0  0  0  0  0  0  0
   -2.9659    1.0675    0.0327 H   0  0  0  0  0  0  0  0  0  0  0  0
    3.4356    0.1648    0.0117 H   0  0  0  0  0  0  0  0  0  0  0  0
    3.1399    2.4412    0.0531 H   0  0  0  0  0  0  0  0  0  0  0  0
    0.6946    2.9004   -1.6292 H   0  0  0  0  0  0  0  0  0  0  0  0
    1.1499    5.3996   -1.4258 H   0  0  0  0  0  0  0  0  0  0  0  0
    1.7934    5.3217    1.2197 H   0  0  0  0  0  0  0  0  0  0  0  0
   -0.4525    4.7551    1.8686 H   0  0  0  0  0  0  0  0  0  0  0  0
   -0.5589    5.8528    0.5080 H   0  0  0  0  0  0  0  0  0  0  0  0
    3.6929    4.6420   -0.4764 H   0  0  0  0  0  0  0  0  0  0  0  0
    3.3739    3.4313   -2.2899 H   0  0  0  0  0  0  0  0  0  0  0  0
   -1.7867   -3.2228    0.0107 H   0  0  0  0  0  0  0  0  0  0  0  0
    0.0232   -4.6705   -0.0508 H   0  0  0  0  0  0  0  0  0  0  0  0
    1.0450   -2.4061    1.7128 H   0  0  0  0  0  0  0  0  0  0  0  0
    0.7510   -4.0418    2.1025 H   0  0  0  0  0  0  0  0  0  0  0  0
    3.2364   -2.9332    1.3041 H   0  0  0  0  0  0  0  0  0  0  0  0
    2.8801   -4.6553    1.3639 H   0  0  0  0  0  0  0  0  0  0  0  0
    3.4535   -3.1658   -1.0077 H   0  0  0  0  0  0  0  0  0  0  0  0
    2.8554   -4.8245   -0.9148 H   0  0  0  0  0  0  0  0  0  0  0  0
    1.0110   -3.9303   -2.0744 H   0  0  0  0  0  0  0  0  0  0  0  0
    1.3335   -2.3522   -1.5432 H   0  0  0  0  0  0  0  0  0  0  0  0
  1  2  2  0  0  0  0
  1  6  1  0  0  0  0
  1 28  1  0  0  0  0
  2  3  1  0  0  0  0
  3  4  2  0  0  0  0
  3 22  1  0  0  0  0
  4  5  1  0  0  0  0
  4  9  1  0  0  0  0
  5  6  2  0  0  0  0
  5  7  1  0  0  0  0
  7  8  1  0  0  0  0
  8  9  2  0  0  0  0
  8 29  1  0  0  0  0
 10  7  1  0  0  0  0
 10 11  1  0  0  0  0
 10 14  1  0  0  0  0
 10 30  1  1  0  0  0
 11 12  1  0  0  0  0
 11 21  1  0  0  0  0
 11 31  1  6  0  0  0
 12 13  1  0  0  0  0
 12 20  1  0  0  0  0
 12 32  1  6  0  0  0
 13 14  1  0  0  0  0
 13 33  1  1  0  0  0
 13 15  1  0  0  0  0
 15 16  1  0  0  0  0
 15 34  1  0  0  0  0
 15 35  1  0  0  0  0
 16 17  1  0  0  0  0
 17 18  2  0  0  0  0
 17 19  1  0  0  0  0
 20 36  1  0  0  0  0
 21 37  1  0  0  0  0
 22 23  1  0  0  0  0
 22 38  1  0  0  0  0
 23 24  1  0  0  0  0
 23 27  1  0  0  0  0
 23 39  1  0  0  0  0
 24 25  1  0  0  0  0
 24 40  1  0  0  0  0
 24 41  1  0  0  0  0
 25 26  1  0  0  0  0
 25 42  1  0  0  0  0
 25 43  1  0  0  0  0
 26 27  1  0  0  0  0
 26 44  1  0  0  0  0
 26 45  1  0  0  0  0
 27 46  1  0  0  0  0
 27 47  1  0  0  0  0
M  CHG  2  17   1  19  -1
M  END
>  <DRUGBANK_ID>
DB13122

>  <COMMON_NAME>
Trabodenoson

>  <CAS_NUMBER>
871108-05-3

>  <UNII>
1T237110W4

>  <SYNONYMS>
Trabodenoson

$$$$
