
 OpenBabel10282417233D

 30 33  0  0  0  0  0  0  0  0999 V2000
   -0.6694   -0.0782    0.2206 C   0  0  0  0  0  0  0  0  0  0  0  0
    0.6628    0.0291    0.2298 C   0  0  0  0  0  0  0  0  0  0  0  0
   -1.5333    1.1349   -0.0590 C   0  0  0  0  0  0  0  0  0  0  0  0
   -1.5142   -1.1604    0.3389 N   0  0  0  0  0  0  0  0  0  0  0  0
    1.5507   -1.1667   -0.0465 C   0  0  0  0  0  0  0  0  0  0  0  0
    1.4881    1.1243    0.3718 N   0  0  0  0  0  0  0  0  0  0  0  0
   -2.9148    0.6131   -0.1005 C   0  0  0  0  0  0  0  0  0  0  0  0
   -1.1798    2.2796   -0.2740 O   0  0  0  0  0  0  0  0  0  0  0  0
   -2.8339   -0.7527    0.2068 C   0  0  0  0  0  0  0  0  0  0  0  0
    2.9240   -0.6173   -0.0741 C   0  0  0  0  0  0  0  0  0  0  0  0
    1.2185   -2.3147   -0.2769 O   0  0  0  0  0  0  0  0  0  0  0  0
    2.8153    0.7443    0.2434 C   0  0  0  0  0  0  0  0  0  0  0  0
   -4.1072    1.2520   -0.3849 C   0  0  0  0  0  0  0  0  0  0  0  0
   -3.9873   -1.4947    0.3473 C   0  0  0  0  0  0  0  0  0  0  0  0
    4.1303   -1.2244   -0.3696 C   0  0  0  0  0  0  0  0  0  0  0  0
    3.9485    1.5223    0.3511 C   0  0  0  0  0  0  0  0  0  0  0  0
   -5.2735    0.4902   -0.2840 C   0  0  0  0  0  0  0  0  0  0  0  0
   -5.2153   -0.8630    0.1041 C   0  0  0  0  0  0  0  0  0  0  0  0
    5.2766   -0.4287   -0.2943 C   0  0  0  0  0  0  0  0  0  0  0  0
    5.1877    0.9268    0.0801 C   0  0  0  0  0  0  0  0  0  0  0  0
   -1.1763   -2.0937    0.5246 H   0  0  0  0  0  0  0  0  0  0  0  0
    1.1326    2.0382    0.6136 H   0  0  0  0  0  0  0  0  0  0  0  0
   -4.1339    2.2955   -0.6783 H   0  0  0  0  0  0  0  0  0  0  0  0
   -3.9543   -2.5375    0.6433 H   0  0  0  0  0  0  0  0  0  0  0  0
    4.1821   -2.2684   -0.6575 H   0  0  0  0  0  0  0  0  0  0  0  0
    3.8896    2.5673    0.6356 H   0  0  0  0  0  0  0  0  0  0  0  0
   -6.2394    0.9452   -0.4961 H   0  0  0  0  0  0  0  0  0  0  0  0
   -6.1398   -1.4284    0.2093 H   0  0  0  0  0  0  0  0  0  0  0  0
    6.2512   -0.8573   -0.5212 H   0  0  0  0  0  0  0  0  0  0  0  0
    6.0959    1.5231    0.1500 H   0  0  0  0  0  0  0  0  0  0  0  0
  1  2  2  0  0  0  0
  1  3  1  0  0  0  0
  1  4  1  0  0  0  0
  2  5  1  0  0  0  0
  2  6  1  0  0  0  0
  3  7  1  0  0  0  0
  3  8  2  0  0  0  0
  4  9  1  0  0  0  0
  4 21  1  0  0  0  0
  5 10  1  0  0  0  0
  5 11  2  0  0  0  0
  6 12  1  0  0  0  0
  6 22  1  0  0  0  0
  7 13  1  0  0  0  0
  7  9  2  0  0  0  0
  9 14  1  0  0  0  0
 10 15  1  0  0  0  0
 10 12  2  0  0  0  0
 12 16  1  0  0  0  0
 13 17  2  0  0  0  0
 13 23  1  0  0  0  0
 14 18  2  0  0  0  0
 14 24  1  0  0  0  0
 15 19  2  0  0  0  0
 15 25  1  0  0  0  0
 16 20  2  0  0  0  0
 16 26  1  0  0  0  0
 17 18  1  0  0  0  0
 17 27  1  0  0  0  0
 18 28  1  0  0  0  0
 19 20  1  0  0  0  0
 19 29  1  0  0  0  0
 20 30  1  0  0  0  0
M  END
>  <DRUGBANK_ID>
DB16862

>  <COMMON_NAME>
Indigo

>  <CAS_NUMBER>
482-89-3

>  <UNII>
1G5BK41P4F

>  <SYNONYMS>
D&C Blue No. 6; Indigotin

$$$$
