
 OpenBabel10282417203D

 30 32  0  0  0  0  0  0  0  0999 V2000
    1.0467    0.0742   -0.0302 C   0  0  0  0  0  0  0  0  0  0  0  0
    0.5462   -0.6057   -1.2987 C   0  0  0  0  0  0  0  0  0  0  0  0
   -0.1685   -5.4817   -1.7055 C   0  0  0  0  0  0  0  0  0  0  0  0
   -1.2709   -3.0858   -0.8720 C   0  0  0  0  0  0  0  0  0  0  0  0
    2.3837   -2.2868   -1.5282 C   0  0  0  0  0  0  0  0  0  0  0  0
   -2.5185   -6.3701   -0.1934 C   0  0  0  0  0  0  0  0  0  0  0  0
    0.6339   -4.3801   -1.4510 C   0  0  0  0  0  0  0  0  0  0  0  0
    2.9737   -3.4927   -1.5945 C   0  0  0  0  0  0  0  0  0  0  0  0
    0.1093   -3.0975   -1.2099 C   0  0  0  0  0  0  0  0  0  0  0  0
   -1.5167   -5.3504   -1.6441 C   0  0  0  0  0  0  0  0  0  0  0  0
   -1.9939   -4.3088   -0.9074 C   0  0  0  0  0  0  0  0  0  0  0  0
    2.0682   -4.6428   -1.5366 C   0  0  0  0  0  0  0  0  0  0  0  0
    4.4278   -3.7474   -1.7294 C   0  0  0  0  0  0  0  0  0  0  0  0
    1.0100   -2.0078   -1.3422 N   0  0  0  0  0  0  0  0  0  0  0  0
    2.4542   -5.8051   -1.5802 O   0  0  0  0  0  0  0  0  0  0  0  0
    4.9795   -4.8127   -1.7912 O   0  0  0  0  0  0  0  0  0  0  0  0
    5.1668   -2.6177   -1.7727 O   0  0  0  0  0  0  0  0  0  0  0  0
   -2.2829   -6.4762   -1.5905 O   0  0  0  0  0  0  0  0  0  0  0  0
   -2.7128   -4.9375    0.1455 O   0  0  0  0  0  0  0  0  0  0  0  0
    0.6989   -0.4654    0.8550 H   0  0  0  0  0  0  0  0  0  0  0  0
    0.6869    1.1059    0.0224 H   0  0  0  0  0  0  0  0  0  0  0  0
    2.1419    0.1058    0.0054 H   0  0  0  0  0  0  0  0  0  0  0  0
   -0.5404   -0.5070   -1.3604 H   0  0  0  0  0  0  0  0  0  0  0  0
    0.9388   -0.0589   -2.1705 H   0  0  0  0  0  0  0  0  0  0  0  0
    0.2418   -6.4795   -1.7884 H   0  0  0  0  0  0  0  0  0  0  0  0
   -1.8276   -2.1493   -0.8455 H   0  0  0  0  0  0  0  0  0  0  0  0
    2.9995   -1.3899   -1.5932 H   0  0  0  0  0  0  0  0  0  0  0  0
   -1.6204   -6.7879    0.3087 H   0  0  0  0  0  0  0  0  0  0  0  0
   -3.3483   -7.0383    0.0628 H   0  0  0  0  0  0  0  0  0  0  0  0
    6.0740   -2.9877   -1.8552 H   0  0  0  0  0  0  0  0  0  0  0  0
  1 20  1  0  0  0  0
  1 21  1  0  0  0  0
  1 22  1  0  0  0  0
  2  1  1  0  0  0  0
  2 23  1  0  0  0  0
  2 24  1  0  0  0  0
  3 25  1  0  0  0  0
  4 26  1  0  0  0  0
  5 27  1  0  0  0  0
  6 28  1  0  0  0  0
  6 29  1  0  0  0  0
  7  3  2  0  0  0  0
  8  5  2  0  0  0  0
  9  4  2  0  0  0  0
  9  7  1  0  0  0  0
 10  3  1  0  0  0  0
 11  4  1  0  0  0  0
 11 10  2  0  0  0  0
 12  7  1  0  0  0  0
 12  8  1  0  0  0  0
 13  8  1  0  0  0  0
 14  2  1  0  0  0  0
 14  5  1  0  0  0  0
 14  9  1  0  0  0  0
 15 12  2  0  0  0  0
 16 13  2  0  0  0  0
 17 13  1  0  0  0  0
 17 30  1  0  0  0  0
 18  6  1  0  0  0  0
 18 10  1  0  0  0  0
 19  6  1  0  0  0  0
 19 11  1  0  0  0  0
M  END
>  <DRUGBANK_ID>
DB13627

>  <COMMON_NAME>
Oxolinic acid

>  <CAS_NUMBER>
14698-29-4

>  <UNII>
L0A22B22FT

>  <SYNONYMS>
ácido oxolínico; Oxolinic acid

$$$$
