
 OpenBabel10282417233D

 57 60  0  0  0  0  0  0  0  0999 V2000
    1.0317    0.0655    0.1422 N   0  0  0  0  0  0  0  0  0  0  0  0
    0.2422   -0.4920    1.1148 C   0  0  0  0  0  0  0  0  0  0  0  0
   -0.9660   -0.4049    1.0703 O   0  0  0  0  0  0  0  0  0  0  0  0
    0.9331   -1.1768    2.2227 C   0  0  0  0  0  0  0  0  0  0  0  0
    2.0359   -0.5877    2.7760 C   0  0  0  0  0  0  0  0  0  0  0  0
    2.5705   -1.1803    3.8931 C   0  0  0  0  0  0  0  0  0  0  0  0
    2.0670   -2.3614    4.4505 C   0  0  0  0  0  0  0  0  0  0  0  0
    1.0168   -2.9725    3.8814 N   0  0  0  0  0  0  0  0  0  0  0  0
    0.4577   -2.3672    2.7886 C   0  0  0  0  0  0  0  0  0  0  0  0
   -0.5956   -3.1307    2.1462 C   0  0  0  0  0  0  0  0  0  0  0  0
   -0.4064   -3.5266    0.8184 C   0  0  0  0  0  0  0  0  0  0  0  0
   -1.4245   -4.1433    0.1210 C   0  0  0  0  0  0  0  0  0  0  0  0
   -2.6287   -4.4478    0.7544 C   0  0  0  0  0  0  0  0  0  0  0  0
   -3.7170   -5.0028    0.1117 O   0  0  0  0  0  0  0  0  0  0  0  0
   -3.5935   -5.3243   -1.2219 C   0  0  0  0  0  0  0  0  0  0  0  0
   -2.6728   -6.2841   -1.6546 C   0  0  0  0  0  0  0  0  0  0  0  0
   -2.5672   -6.5901   -3.0092 C   0  0  0  0  0  0  0  0  0  0  0  0
   -3.4400   -6.0013   -3.9220 C   0  0  0  0  0  0  0  0  0  0  0  0
   -4.4077   -5.0963   -3.4809 C   0  0  0  0  0  0  0  0  0  0  0  0
   -4.4571   -4.7214   -2.1359 C   0  0  0  0  0  0  0  0  0  0  0  0
   -2.7987   -4.1248    2.1065 C   0  0  0  0  0  0  0  0  0  0  0  0
   -1.8037   -3.4203    2.7873 C   0  0  0  0  0  0  0  0  0  0  0  0
    2.6521   -2.9870    5.7141 C   0  0  0  0  0  0  0  0  0  0  0  0
    2.5524   -2.0355    6.9251 C   0  0  0  0  0  0  0  0  0  0  0  0
    3.5271   -0.8534    6.8442 C   0  0  0  0  0  0  0  0  0  0  0  0
    4.8922   -1.3175    6.5091 N   0  0  0  0  0  0  0  0  0  0  0  0
    4.9851   -2.1997    5.3547 C   0  0  0  0  0  0  0  0  0  0  0  0
    4.1019   -3.4138    5.5078 C   0  0  0  0  0  0  0  0  0  0  0  0
    5.9369   -0.9240    7.3216 C   0  0  0  0  0  0  0  0  0  0  0  0
    5.7573   -0.1691    8.2822 O   0  0  0  0  0  0  0  0  0  0  0  0
    7.3508   -1.3906    7.1065 C   0  0  0  0  0  0  0  0  0  0  0  0
    7.9699   -2.1918    6.2283 C   0  0  0  0  0  0  0  0  0  0  0  0
    0.5377    0.4882   -0.6329 H   0  0  0  0  0  0  0  0  0  0  0  0
    2.0373    0.0023    0.1008 H   0  0  0  0  0  0  0  0  0  0  0  0
    2.4626    0.3434    2.4220 H   0  0  0  0  0  0  0  0  0  0  0  0
    3.3820   -0.6104    4.3020 H   0  0  0  0  0  0  0  0  0  0  0  0
    0.5156   -3.2904    0.2928 H   0  0  0  0  0  0  0  0  0  0  0  0
   -1.2408   -4.3525   -0.9247 H   0  0  0  0  0  0  0  0  0  0  0  0
   -2.0017   -6.7534   -0.9404 H   0  0  0  0  0  0  0  0  0  0  0  0
   -1.8139   -7.2962   -3.3462 H   0  0  0  0  0  0  0  0  0  0  0  0
   -3.3692   -6.2511   -4.9775 H   0  0  0  0  0  0  0  0  0  0  0  0
   -5.1261   -4.6882   -4.1872 H   0  0  0  0  0  0  0  0  0  0  0  0
   -5.1612   -3.9609   -1.8091 H   0  0  0  0  0  0  0  0  0  0  0  0
   -3.7136   -4.3889    2.6289 H   0  0  0  0  0  0  0  0  0  0  0  0
   -1.9805   -3.0576    3.7985 H   0  0  0  0  0  0  0  0  0  0  0  0
    2.0858   -3.9006    5.9515 H   0  0  0  0  0  0  0  0  0  0  0  0
    1.5219   -1.6777    7.0307 H   0  0  0  0  0  0  0  0  0  0  0  0
    2.7939   -2.5959    7.8383 H   0  0  0  0  0  0  0  0  0  0  0  0
    3.2012   -0.1321    6.0924 H   0  0  0  0  0  0  0  0  0  0  0  0
    3.4898   -0.2644    7.7658 H   0  0  0  0  0  0  0  0  0  0  0  0
    5.9420   -2.5869    5.1336 H   0  0  0  0  0  0  0  0  0  0  0  0
    4.8387   -1.6274    4.4456 H   0  0  0  0  0  0  0  0  0  0  0  0
    4.4593   -3.9892    6.3755 H   0  0  0  0  0  0  0  0  0  0  0  0
    4.2151   -4.0640    4.6329 H   0  0  0  0  0  0  0  0  0  0  0  0
    7.9971   -0.9583    7.8723 H   0  0  0  0  0  0  0  0  0  0  0  0
    9.0327   -2.3794    6.2810 H   0  0  0  0  0  0  0  0  0  0  0  0
    7.5526   -2.7339    5.4043 H   0  0  0  0  0  0  0  0  0  0  0  0
  1  2  1  0  0  0  0
  1 33  1  0  0  0  0
  1 34  1  0  0  0  0
  2  3  2  0  0  0  0
  2  4  1  0  0  0  0
  4  5  2  0  0  0  0
  4  9  1  0  0  0  0
  5  6  1  0  0  0  0
  5 35  1  0  0  0  0
  6  7  2  0  0  0  0
  6 36  1  0  0  0  0
  7  8  1  0  0  0  0
  7 23  1  0  0  0  0
  8  9  2  0  0  0  0
  9 10  1  0  0  0  0
 10 11  2  0  0  0  0
 10 22  1  0  0  0  0
 11 12  1  0  0  0  0
 11 37  1  0  0  0  0
 12 13  2  0  0  0  0
 12 38  1  0  0  0  0
 13 14  1  0  0  0  0
 13 21  1  0  0  0  0
 14 15  1  0  0  0  0
 15 16  2  0  0  0  0
 15 20  1  0  0  0  0
 16 17  1  0  0  0  0
 16 39  1  0  0  0  0
 17 18  2  0  0  0  0
 17 40  1  0  0  0  0
 18 19  1  0  0  0  0
 18 41  1  0  0  0  0
 19 20  2  0  0  0  0
 19 42  1  0  0  0  0
 20 43  1  0  0  0  0
 21 22  2  0  0  0  0
 21 44  1  0  0  0  0
 22 45  1  0  0  0  0
 23 24  1  0  0  0  0
 23 28  1  0  0  0  0
 23 46  1  0  0  0  0
 24 25  1  0  0  0  0
 24 47  1  0  0  0  0
 24 48  1  0  0  0  0
 25 26  1  0  0  0  0
 25 49  1  0  0  0  0
 25 50  1  0  0  0  0
 26 27  1  0  0  0  0
 26 29  1  0  0  0  0
 27 28  1  0  0  0  0
 27 51  1  0  0  0  0
 27 52  1  0  0  0  0
 28 53  1  0  0  0  0
 28 54  1  0  0  0  0
 29 30  2  0  0  0  0
 29 31  1  0  0  0  0
 31 32  2  0  0  0  0
 31 55  1  0  0  0  0
 32 56  1  0  0  0  0
 32 57  1  0  0  0  0
M  END
>  <DRUGBANK_ID>
DB16272

>  <COMMON_NAME>
Orelabrutinib

>  <CAS_NUMBER>
1655504-04-3

>  <UNII>
WJA5UO9E10

>  <SYNONYMS>
Orelabrutinib

$$$$
