
 OpenBabel10282417183D

 41 43  0  0  0  0  0  0  0  0999 V2000
    1.0116   -0.1513   -0.3175 C   0  0  0  0  0  0  0  0  0  0  0  0
    0.5056    1.1693   -0.6818 N   0  0  0  0  0  0  0  0  0  0  0  0
   -0.9563    1.1696   -0.6958 C   0  0  0  0  0  0  0  0  0  0  0  0
    1.0237    2.2234    0.2020 C   0  0  0  0  0  0  0  0  0  0  0  0
    0.5726    2.1701    1.6671 C   0  0  0  0  0  0  0  0  0  0  0  0
    1.0357    1.0086    2.4198 N   0  0  0  0  0  0  0  0  0  0  0  0
    1.8790    0.9139    3.4900 C   0  0  0  0  0  0  0  0  0  0  0  0
    2.2272   -0.1919    3.8737 O   0  0  0  0  0  0  0  0  0  0  0  0
    2.2128    2.1569    4.2041 C   0  0  0  0  0  0  0  0  0  0  0  0
    1.1652    3.0629    4.4479 C   0  0  0  0  0  0  0  0  0  0  0  0
    1.4128    4.2731    5.0575 C   0  0  0  0  0  0  0  0  0  0  0  0
    2.6909    4.5226    5.5334 C   0  0  0  0  0  0  0  0  0  0  0  0
    3.7220    3.5716    5.3744 C   0  0  0  0  0  0  0  0  0  0  0  0
    3.5030    2.3731    4.6686 C   0  0  0  0  0  0  0  0  0  0  0  0
    4.4875    1.4725    4.4764 N   0  0  0  0  0  0  0  0  0  0  0  0
    5.6646    1.6332    5.0823 C   0  0  0  0  0  0  0  0  0  0  0  0
    6.6082    0.6247    4.9760 C   0  0  0  0  0  0  0  0  0  0  0  0
    7.8278    0.7012    5.6473 C   0  0  0  0  0  0  0  0  0  0  0  0
    8.1160    1.8162    6.4276 C   0  0  0  0  0  0  0  0  0  0  0  0
    7.1925    2.8573    6.5199 C   0  0  0  0  0  0  0  0  0  0  0  0
    5.9608    2.7699    5.8514 C   0  0  0  0  0  0  0  0  0  0  0  0
    4.9829    3.7686    5.9434 C   0  0  0  0  0  0  0  0  0  0  0  0
    0.8016   -0.8839   -1.0986 H   0  0  0  0  0  0  0  0  0  0  0  0
    0.5174   -0.5504    0.5662 H   0  0  0  0  0  0  0  0  0  0  0  0
    2.0950   -0.1347   -0.1499 H   0  0  0  0  0  0  0  0  0  0  0  0
   -1.3876    0.9834    0.2938 H   0  0  0  0  0  0  0  0  0  0  0  0
   -1.3354    2.1319   -1.0569 H   0  0  0  0  0  0  0  0  0  0  0  0
   -1.3360    0.3915   -1.3622 H   0  0  0  0  0  0  0  0  0  0  0  0
    2.1212    2.2514    0.1612 H   0  0  0  0  0  0  0  0  0  0  0  0
    0.7040    3.1966   -0.2002 H   0  0  0  0  0  0  0  0  0  0  0  0
    0.9398    3.0980    2.0996 H   0  0  0  0  0  0  0  0  0  0  0  0
   -0.5168    2.1846    1.7642 H   0  0  0  0  0  0  0  0  0  0  0  0
    0.6918    0.0887    2.1930 H   0  0  0  0  0  0  0  0  0  0  0  0
    0.1534    2.8313    4.1229 H   0  0  0  0  0  0  0  0  0  0  0  0
    0.6072    4.9908    5.1750 H   0  0  0  0  0  0  0  0  0  0  0  0
    2.8691    5.4521    6.0670 H   0  0  0  0  0  0  0  0  0  0  0  0
    6.3715   -0.2529    4.3776 H   0  0  0  0  0  0  0  0  0  0  0  0
    8.5384   -0.1167    5.5665 H   0  0  0  0  0  0  0  0  0  0  0  0
    9.0556    1.8708    6.9698 H   0  0  0  0  0  0  0  0  0  0  0  0
    7.4240    3.7210    7.1377 H   0  0  0  0  0  0  0  0  0  0  0  0
    5.1857    4.6782    6.5024 H   0  0  0  0  0  0  0  0  0  0  0  0
  1  2  1  0  0  0  0
  1 23  1  0  0  0  0
  1 24  1  0  0  0  0
  1 25  1  0  0  0  0
  2  3  1  0  0  0  0
  2  4  1  0  0  0  0
  3 26  1  0  0  0  0
  3 27  1  0  0  0  0
  3 28  1  0  0  0  0
  4  5  1  0  0  0  0
  4 29  1  0  0  0  0
  4 30  1  0  0  0  0
  5  6  1  0  0  0  0
  5 31  1  0  0  0  0
  5 32  1  0  0  0  0
  6  7  1  0  0  0  0
  6 33  1  0  0  0  0
  7  8  2  0  0  0  0
  7  9  1  0  0  0  0
  9 10  1  0  0  0  0
  9 14  2  0  0  0  0
 10 11  2  0  0  0  0
 10 34  1  0  0  0  0
 11 12  1  0  0  0  0
 11 35  1  0  0  0  0
 12 13  2  0  0  0  0
 12 36  1  0  0  0  0
 13 14  1  0  0  0  0
 13 22  1  0  0  0  0
 14 15  1  0  0  0  0
 15 16  2  0  0  0  0
 16 17  1  0  0  0  0
 16 21  1  0  0  0  0
 17 18  2  0  0  0  0
 17 37  1  0  0  0  0
 18 19  1  0  0  0  0
 18 38  1  0  0  0  0
 19 20  2  0  0  0  0
 19 39  1  0  0  0  0
 20 21  1  0  0  0  0
 20 40  1  0  0  0  0
 21 22  2  0  0  0  0
 22 41  1  0  0  0  0
M  END
>  <DRUGBANK_ID>
DB11880

>  <COMMON_NAME>
Acridine Carboxamide

>  <CAS_NUMBER>
89459-25-6

>  <UNII>
0N3V8R4E13

>  <SYNONYMS>
DACA

$$$$
