
 OpenBabel10282417223D

 73 77  0  0  1  0  0  0  0  0999 V2000
    4.9526   -8.1326   -1.6825 C   0  0  0  0  0  0  0  0  0  0  0  0
    4.6370   -8.6864   -0.3190 C   0  0  0  0  0  0  0  0  0  0  0  0
    3.9029   -7.8310    0.5916 C   0  0  0  0  0  0  0  0  0  0  0  0
    4.3989   -7.7346    1.8231 N   0  0  0  0  0  0  0  0  0  0  0  0
    3.4651   -7.0658    2.5346 O   0  0  0  0  0  0  0  0  0  0  0  0
    2.4612   -6.7783    1.7075 C   0  0  0  0  0  0  0  0  0  0  0  0
    1.6760   -5.7265    2.1782 C   0  0  0  0  0  0  0  0  0  0  0  0
    0.8075   -5.6910    3.3610 C   0  0  0  0  0  0  0  0  0  0  0  0
    2.6633   -7.1780    0.4001 C   0  0  0  0  0  0  0  0  0  0  0  0
    1.9345   -6.9224   -0.8374 C   0  0  0  0  0  0  0  0  0  0  0  0
    1.9847   -7.7862   -1.7764 O   0  0  0  0  0  0  0  0  0  0  0  0
    1.2186   -5.8228   -1.1383 O   0  0  0  0  0  0  0  0  0  0  0  0
    0.9411   -4.5642   -0.5009 C   0  0  1  0  0  0  0  0  0  0  0  0
   -0.3563   -4.5967    0.3417 C   0  0  0  0  0  0  0  0  0  0  0  0
   -1.4832   -5.6442    0.1302 C   0  0  0  0  0  0  0  0  0  0  0  0
   -0.2002   -3.8187    1.4461 C   0  0  0  0  0  0  0  0  0  0  0  0
    1.2833   -3.1336    1.6912 C   0  0  1  0  0  0  0  0  0  0  0  0
    1.0323   -1.6524    1.9603 C   0  0  2  0  0  0  0  0  0  0  0  0
   -0.2252   -0.9441    1.5049 C   0  0  0  0  0  0  0  0  0  0  0  0
    2.1358   -0.7847    1.4457 C   0  0  0  0  0  0  0  0  0  0  0  0
    3.5824   -1.1430    1.4150 C   0  0  2  0  0  0  0  0  0  0  0  0
    4.1592   -1.4146    2.7374 C   0  0  2  0  0  0  0  0  0  0  0  0
    3.7248   -2.8661    2.8459 C   0  0  2  0  0  0  0  0  0  0  0  0
    4.5828   -3.9962    3.1588 C   0  0  0  0  0  0  0  0  0  0  0  0
    4.9961   -4.7355    2.1003 C   0  0  0  0  0  0  0  0  0  0  0  0
    6.3002   -5.6459    2.6489 C   0  0  0  0  0  0  0  0  0  0  0  0
    6.7781   -5.2358    4.0075 O   0  0  0  0  0  0  0  0  0  0  0  0
    4.0062   -4.4525    0.5346 C   0  0  1  0  0  0  0  0  0  0  0  0
    4.3593   -5.3495   -0.5194 O   0  0  0  0  0  0  0  0  0  0  0  0
    2.2092   -3.7572    0.3005 C   0  0  2  0  0  0  0  0  0  0  0  0
    2.3422   -2.6304   -0.6397 O   0  0  0  0  0  0  0  0  0  0  0  0
    2.2698   -3.1758    3.1175 C   0  0  0  0  0  0  0  0  0  0  0  0
    1.8818   -3.3102    4.2797 O   0  0  0  0  0  0  0  0  0  0  0  0
    4.5607   -0.0955    1.5992 C   0  0  0  0  0  0  0  0  0  0  0  0
    6.0275    0.0587    1.3456 C   0  0  0  0  0  0  0  0  0  0  0  0
    3.9352    1.0695    0.7917 C   0  0  0  0  0  0  0  0  0  0  0  0
    4.1236   -7.6343   -2.1796 H   0  0  0  0  0  0  0  0  0  0  0  0
    5.2444   -8.9753   -2.3076 H   0  0  0  0  0  0  0  0  0  0  0  0
    5.7585   -7.3946   -1.6501 H   0  0  0  0  0  0  0  0  0  0  0  0
    3.9877   -9.5608   -0.3788 H   0  0  0  0  0  0  0  0  0  0  0  0
    5.5713   -8.9802    0.1722 H   0  0  0  0  0  0  0  0  0  0  0  0
    2.4167   -4.9624    2.1860 H   0  0  0  0  0  0  0  0  0  0  0  0
    1.0640   -5.6409    1.3371 H   0  0  0  0  0  0  0  0  0  0  0  0
    1.3903   -5.8791    4.2483 H   0  0  0  0  0  0  0  0  0  0  0  0
    0.3467   -4.7080    3.5238 H   0  0  0  0  0  0  0  0  0  0  0  0
   -0.0249   -6.3450    3.1458 H   0  0  0  0  0  0  0  0  0  0  0  0
    0.5905   -3.9224   -1.3384 H   0  0  0  0  0  0  0  0  0  0  0  0
   -2.3018   -5.2827   -0.5036 H   0  0  0  0  0  0  0  0  0  0  0  0
   -1.1235   -6.5840   -0.3197 H   0  0  0  0  0  0  0  0  0  0  0  0
   -1.9462   -5.9702    1.0783 H   0  0  0  0  0  0  0  0  0  0  0  0
   -0.9863   -3.8861    2.2083 H   0  0  0  0  0  0  0  0  0  0  0  0
    0.9236   -1.5387    3.0584 H   0  0  0  0  0  0  0  0  0  0  0  0
   -1.0679   -1.1407    2.1700 H   0  0  0  0  0  0  0  0  0  0  0  0
   -0.0370    0.1377    1.5728 H   0  0  0  0  0  0  0  0  0  0  0  0
   -0.4441   -1.1948    0.4707 H   0  0  0  0  0  0  0  0  0  0  0  0
    2.0702    0.1102    2.0694 H   0  0  0  0  0  0  0  0  0  0  0  0
    1.8706   -0.5906    0.4094 H   0  0  0  0  0  0  0  0  0  0  0  0
    3.8447   -1.7241    0.5401 H   0  0  0  0  0  0  0  0  0  0  0  0
    3.8941   -1.0102    3.7024 H   0  0  0  0  0  0  0  0  0  0  0  0
    3.6819   -3.0742    1.8262 H   0  0  0  0  0  0  0  0  0  0  0  0
    4.8185   -4.2593    4.1914 H   0  0  0  0  0  0  0  0  0  0  0  0
    6.0947   -6.6925    2.8922 H   0  0  0  0  0  0  0  0  0  0  0  0
    7.2177   -5.6024    2.0551 H   0  0  0  0  0  0  0  0  0  0  0  0
    7.1518   -4.3390    3.9981 H   0  0  0  0  0  0  0  0  0  0  0  0
    4.5438   -3.5701    0.1615 H   0  0  0  0  0  0  0  0  0  0  0  0
    4.6975   -4.8462   -1.2814 H   0  0  0  0  0  0  0  0  0  0  0  0
    2.5485   -2.9555   -1.5332 H   0  0  0  0  0  0  0  0  0  0  0  0
    6.6849   -0.4659    2.0308 H   0  0  0  0  0  0  0  0  0  0  0  0
    6.2867   -0.1189    0.2956 H   0  0  0  0  0  0  0  0  0  0  0  0
    6.2185    1.1327    1.5145 H   0  0  0  0  0  0  0  0  0  0  0  0
    4.4954    1.1652   -0.1522 H   0  0  0  0  0  0  0  0  0  0  0  0
    2.9137    1.0154    0.4032 H   0  0  0  0  0  0  0  0  0  0  0  0
    4.0283    1.9824    1.3655 H   0  0  0  0  0  0  0  0  0  0  0  0
  1  2  1  0  0  0  0
  1 37  1  0  0  0  0
  1 38  1  0  0  0  0
  1 39  1  0  0  0  0
  2  3  1  0  0  0  0
  2 40  1  0  0  0  0
  2 41  1  0  0  0  0
  3  4  2  0  0  0  0
  3  9  1  0  0  0  0
  4  5  1  0  0  0  0
  5  6  1  0  0  0  0
  6  7  1  0  0  0  0
  6  9  2  0  0  0  0
  7  8  1  0  0  0  0
  7 42  1  0  0  0  0
  7 43  1  0  0  0  0
  8 44  1  0  0  0  0
  8 45  1  0  0  0  0
  8 46  1  0  0  0  0
  9 10  1  0  0  0  0
 10 11  2  0  0  0  0
 10 12  1  0  0  0  0
 13 14  1  0  0  0  0
 13 12  1  0  0  0  0
 13 47  1  6  0  0  0
 14 16  2  0  0  0  0
 14 15  1  0  0  0  0
 15 48  1  0  0  0  0
 15 49  1  0  0  0  0
 15 50  1  0  0  0  0
 16 51  1  0  0  0  0
 17 16  1  6  0  0  0
 17 18  1  0  0  0  0
 17 32  1  0  0  0  0
 18 20  1  0  0  0  0
 18 52  1  1  0  0  0
 18 19  1  0  0  0  0
 19 53  1  0  0  0  0
 19 54  1  0  0  0  0
 19 55  1  0  0  0  0
 20 56  1  0  0  0  0
 20 57  1  0  0  0  0
 21 20  1  0  0  0  0
 21 34  1  0  0  0  0
 21 58  1  6  0  0  0
 22 21  1  0  0  0  0
 22 23  1  0  0  0  0
 22 34  1  0  0  0  0
 22 59  1  6  0  0  0
 23 24  1  0  0  0  0
 23 32  1  0  0  0  0
 23 60  1  1  0  0  0
 24 25  2  0  0  0  0
 24 61  1  0  0  0  0
 25 26  1  0  0  0  0
 26 27  1  0  0  0  0
 26 62  1  0  0  0  0
 26 63  1  0  0  0  0
 27 64  1  0  0  0  0
 28 25  1  0  0  0  0
 28 29  1  0  0  0  0
 28 65  1  6  0  0  0
 29 66  1  0  0  0  0
 30 28  1  0  0  0  0
 30 13  1  0  0  0  0
 30 17  1  0  0  0  0
 30 31  1  1  0  0  0
 31 67  1  0  0  0  0
 32 33  2  0  0  0  0
 34 35  1  0  0  0  0
 34 36  1  0  0  0  0
 35 68  1  0  0  0  0
 35 69  1  0  0  0  0
 35 70  1  0  0  0  0
 36 71  1  0  0  0  0
 36 72  1  0  0  0  0
 36 73  1  0  0  0  0
M  END
>  <DRUGBANK_ID>
DB15109

>  <COMMON_NAME>
Ingenol disoxate

>  <CAS_NUMBER>
1383547-60-1

>  <UNII>
3B100VJ4ZW

>  <SYNONYMS>
Ingenol disoxate

$$$$
