
 OpenBabel10282417193D

212218  0  0  1  0  0  0  0  0999 V2000
  -16.8332    6.7077  -13.6871 C   0  0  0  0  0  0  0  0  0  0  0  0
  -17.1731    5.2585  -13.8316 C   0  0  2  0  0  0  0  0  0  0  0  0
  -18.1183    5.0118  -14.9843 C   0  0  0  0  0  0  0  0  0  0  0  0
  -17.8007    5.3161  -16.1285 O   0  0  0  0  0  0  0  0  0  0  0  0
  -19.3333    4.4683  -14.7021 N   0  0  0  0  0  0  0  0  0  0  0  0
  -17.6401    4.6854  -12.5777 N   0  0  0  0  0  0  0  0  0  0  0  0
  -17.2795    3.3798  -12.3160 C   0  0  0  0  0  0  0  0  0  0  0  0
  -18.0966    2.5930  -11.8542 O   0  0  0  0  0  0  0  0  0  0  0  0
  -15.7944    3.1015  -12.6026 C   0  0  2  0  0  0  0  0  0  0  0  0
  -15.9069    1.9163  -13.5066 C   0  0  0  0  0  0  0  0  0  0  0  0
  -14.5231    1.3834  -13.6799 C   0  0  0  0  0  0  0  0  0  0  0  0
  -13.7500    1.9602  -12.5356 C   0  0  0  0  0  0  0  0  0  0  0  0
  -14.7293    2.7766  -11.7389 N   0  0  0  0  0  0  0  0  0  0  0  0
  -14.5221    3.5082  -10.5816 C   0  0  0  0  0  0  0  0  0  0  0  0
  -13.4076    3.5691  -10.0375 O   0  0  0  0  0  0  0  0  0  0  0  0
  -15.7864    4.2350   -9.8805 C   0  0  2  0  0  0  0  0  0  0  0  0
  -17.4143    3.8257   -9.4908 C   0  0  0  0  0  0  0  0  0  0  0  0
  -18.2298    3.9957   -7.7266 C   0  0  0  0  0  0  0  0  0  0  0  0
  -18.7873    5.2551   -7.4597 C   0  0  0  0  0  0  0  0  0  0  0  0
  -19.6071    5.5249   -8.5772 C   0  0  0  0  0  0  0  0  0  0  0  0
  -20.6758    4.7240   -8.1643 N   0  0  0  0  0  0  0  0  0  0  0  0
  -21.5118    4.6175   -9.2861 C   0  0  0  0  0  0  0  0  0  0  0  0
  -20.9001    4.0124  -10.5476 C   0  0  0  0  0  0  0  0  0  0  0  0
  -22.5934    3.7946   -8.6750 C   0  0  0  0  0  0  0  0  0  0  0  0
  -15.8424    5.3447  -10.6891 N   0  0  0  0  0  0  0  0  0  0  0  0
  -15.3457    6.5362  -10.3306 C   0  0  0  0  0  0  0  0  0  0  0  0
  -15.8561    7.4799  -10.9323 O   0  0  0  0  0  0  0  0  0  0  0  0
  -14.5368    6.7242   -8.9845 C   0  0  2  0  0  0  0  0  0  0  0  0
  -14.6793    8.1994   -8.5900 C   0  0  0  0  0  0  0  0  0  0  0  0
  -14.4403    8.5291   -7.1265 C   0  0  0  0  0  0  0  0  0  0  0  0
  -13.1717    8.0197   -6.5876 C   0  0  0  0  0  0  0  0  0  0  0  0
  -14.7930    9.9191   -6.7303 C   0  0  0  0  0  0  0  0  0  0  0  0
  -13.4513    5.9295   -8.5519 N   0  0  0  0  0  0  0  0  0  0  0  0
  -13.3880    5.1386   -7.3906 C   0  0  0  0  0  0  0  0  0  0  0  0
  -12.3384    4.4930   -7.2748 O   0  0  0  0  0  0  0  0  0  0  0  0
  -14.6148    4.9837   -6.1089 C   0  0  1  0  0  0  0  0  0  0  0  0
  -15.5818    6.0476   -5.5453 C   0  0  0  0  0  0  0  0  0  0  0  0
  -16.5862    6.8013   -6.4732 C   0  0  0  0  0  0  0  0  0  0  0  0
  -16.8366    6.7219   -7.8724 C   0  0  0  0  0  0  0  0  0  0  0  0
  -17.6460    7.4031   -8.7750 C   0  0  0  0  0  0  0  0  0  0  0  0
  -18.0481    8.5542   -8.2862 C   0  0  0  0  0  0  0  0  0  0  0  0
  -17.8002    8.7546   -6.9036 C   0  0  0  0  0  0  0  0  0  0  0  0
  -17.1542    7.9126   -5.9892 C   0  0  0  0  0  0  0  0  0  0  0  0
  -18.4081    9.4496   -9.2793 N   0  0  0  0  0  0  0  0  0  0  0  0
  -18.6147   10.7758   -9.1060 C   0  0  0  0  0  0  0  0  0  0  0  0
  -19.0197   11.4703  -10.0291 O   0  0  0  0  0  0  0  0  0  0  0  0
  -18.3112   11.3371   -7.7571 C   0  0  0  0  0  0  0  0  0  0  0  0
  -15.6906    4.0473   -6.1805 N   0  0  0  0  0  0  0  0  0  0  0  0
  -16.3836    3.1596   -5.3495 C   0  0  0  0  0  0  0  0  0  0  0  0
  -17.6173    3.1643   -5.2870 O   0  0  0  0  0  0  0  0  0  0  0  0
  -15.7150    1.9830   -4.6854 C   0  0  2  0  0  0  0  0  0  0  0  0
  -16.9714    1.1457   -4.1078 C   0  0  0  0  0  0  0  0  0  0  0  0
  -17.1051   -0.3587   -4.2626 C   0  0  0  0  0  0  0  0  0  0  0  0
  -17.9959   -1.1337   -5.0221 C   0  0  0  0  0  0  0  0  0  0  0  0
  -17.8094   -2.5104   -5.3535 C   0  0  0  0  0  0  0  0  0  0  0  0
  -16.8102   -3.1633   -4.6943 C   0  0  0  0  0  0  0  0  0  0  0  0
  -16.0229   -2.3688   -3.8959 C   0  0  0  0  0  0  0  0  0  0  0  0
  -16.1953   -1.0483   -3.5951 C   0  0  0  0  0  0  0  0  0  0  0  0
  -16.6651   -4.5565   -4.6902 N   0  0  0  0  0  0  0  0  0  0  0  0
  -15.8702   -5.3121   -3.8447 C   0  0  0  0  0  0  0  0  0  0  0  0
  -16.0042   -6.5346   -3.8062 O   0  0  0  0  0  0  0  0  0  0  0  0
  -14.8197   -4.6659   -2.9788 C   0  0  0  0  0  0  0  0  0  0  0  0
  -14.2205    2.2848   -4.6272 N   0  0  0  0  0  0  0  0  0  0  0  0
  -12.9626    2.0983   -5.3609 C   0  0  0  0  0  0  0  0  0  0  0  0
  -12.0994    2.9423   -5.0712 O   0  0  0  0  0  0  0  0  0  0  0  0
  -12.3843    0.8731   -6.3707 C   0  0  2  0  0  0  0  0  0  0  0  0
  -11.1465    0.1393   -5.8565 C   0  0  0  0  0  0  0  0  0  0  0  0
  -11.1994   -1.2766   -6.0416 O   0  0  0  0  0  0  0  0  0  0  0  0
  -12.6265    0.6589   -7.7357 N   0  0  0  0  0  0  0  0  0  0  0  0
  -13.4794   -0.2999   -8.1497 C   0  0  0  0  0  0  0  0  0  0  0  0
  -13.0135   -1.0042   -9.0796 O   0  0  0  0  0  0  0  0  0  0  0  0
  -14.6505   -1.2629   -8.1011 C   0  0  1  0  0  0  0  0  0  0  0  0
  -14.2951   -2.3561   -7.1736 C   0  0  0  0  0  0  0  0  0  0  0  0
  -13.9256   -1.9854   -5.7737 C   0  0  0  0  0  0  0  0  0  0  0  0
  -14.0124   -0.8055   -5.0274 C   0  0  0  0  0  0  0  0  0  0  0  0
  -13.3806   -0.3370   -3.8751 C   0  0  0  0  0  0  0  0  0  0  0  0
  -12.6314   -1.2515   -3.3125 C   0  0  0  0  0  0  0  0  0  0  0  0
  -12.5132   -2.4767   -3.8940 N   0  0  0  0  0  0  0  0  0  0  0  0
  -13.1620   -2.8347   -5.0808 C   0  0  0  0  0  0  0  0  0  0  0  0
  -16.0186   -1.0210   -8.1971 N   0  0  0  0  0  0  0  0  0  0  0  0
  -16.6829   -0.3890   -9.2278 C   0  0  0  0  0  0  0  0  0  0  0  0
  -17.2381    0.6840   -9.3843 O   0  0  0  0  0  0  0  0  0  0  0  0
  -17.1856   -0.9253  -10.4222 C   0  0  1  0  0  0  0  0  0  0  0  0
  -16.2516   -0.1389  -11.2733 C   0  0  0  0  0  0  0  0  0  0  0  0
  -14.7676   -0.4674  -11.0761 C   0  0  0  0  0  0  0  0  0  0  0  0
  -13.8695    0.5431  -10.5598 C   0  0  0  0  0  0  0  0  0  0  0  0
  -12.3170    0.5086  -10.5087 C   0  0  0  0  0  0  0  0  0  0  0  0
  -11.7404   -0.8750  -10.6272 C   0  0  0  0  0  0  0  0  0  0  0  0
  -12.7853   -2.0658  -10.8587 C   0  0  0  0  0  0  0  0  0  0  0  0
  -14.2393   -1.7794  -11.1801 C   0  0  0  0  0  0  0  0  0  0  0  0
  -10.3738   -1.2633   -9.3802 Cl  0  0  0  0  0  0  0  0  0  0  0  0
  -17.3043   -2.2711  -10.1567 N   0  0  0  0  0  0  0  0  0  0  0  0
  -18.5044   -2.8357   -9.8795 C   0  0  0  0  0  0  0  0  0  0  0  0
  -18.4389   -3.9734   -9.4143 O   0  0  0  0  0  0  0  0  0  0  0  0
  -19.8605   -2.0828  -10.0284 C   0  0  1  0  0  0  0  0  0  0  0  0
  -20.4025   -1.3809   -8.7496 C   0  0  0  0  0  0  0  0  0  0  0  0
  -19.6357   -0.2547   -8.1389 C   0  0  0  0  0  0  0  0  0  0  0  0
  -20.0364    0.9657   -8.5237 C   0  0  0  0  0  0  0  0  0  0  0  0
  -19.0463    1.8664   -8.3841 C   0  0  0  0  0  0  0  0  0  0  0  0
  -17.6283    1.8029   -7.7177 C   0  0  0  0  0  0  0  0  0  0  0  0
  -16.3741    2.4348   -8.2092 C   0  0  0  0  0  0  0  0  0  0  0  0
  -15.1197    1.9225   -8.3924 C   0  0  0  0  0  0  0  0  0  0  0  0
  -14.7286    2.0588   -7.2157 C   0  0  0  0  0  0  0  0  0  0  0  0
  -15.6247    1.0729   -6.8768 C   0  0  0  0  0  0  0  0  0  0  0  0
  -17.2468    0.7639   -7.0900 C   0  0  0  0  0  0  0  0  0  0  0  0
  -18.3867   -0.3636   -7.4279 C   0  0  0  0  0  0  0  0  0  0  0  0
  -19.9741   -1.2617  -11.2639 N   0  0  0  0  0  0  0  0  0  0  0  0
  -20.6575   -1.5291  -12.3918 C   0  0  0  0  0  0  0  0  0  0  0  0
  -20.5106   -0.8054  -13.3705 O   0  0  0  0  0  0  0  0  0  0  0  0
  -21.5921   -2.6759  -12.3156 C   0  0  0  0  0  0  0  0  0  0  0  0
  -17.7275    7.3250  -13.6260 H   0  0  0  0  0  0  0  0  0  0  0  0
  -16.1741    7.0396  -14.4898 H   0  0  0  0  0  0  0  0  0  0  0  0
  -16.2480    6.8440  -12.7998 H   0  0  0  0  0  0  0  0  0  0  0  0
  -16.2688    4.7635  -14.1687 H   0  0  0  0  0  0  0  0  0  0  0  0
  -19.6139    4.0927  -13.8052 H   0  0  0  0  0  0  0  0  0  0  0  0
  -19.9419    4.2959  -15.4910 H   0  0  0  0  0  0  0  0  0  0  0  0
  -18.5624    4.9621  -12.2634 H   0  0  0  0  0  0  0  0  0  0  0  0
  -15.2966    3.9494  -13.0500 H   0  0  0  0  0  0  0  0  0  0  0  0
  -16.5933    1.2072  -13.0608 H   0  0  0  0  0  0  0  0  0  0  0  0
  -16.3933    2.1496  -14.4347 H   0  0  0  0  0  0  0  0  0  0  0  0
  -14.5591    0.2703  -13.6861 H   0  0  0  0  0  0  0  0  0  0  0  0
  -14.0110    1.7486  -14.5436 H   0  0  0  0  0  0  0  0  0  0  0  0
  -13.4911    0.9417  -12.3063 H   0  0  0  0  0  0  0  0  0  0  0  0
  -12.7123    2.2848  -12.4625 H   0  0  0  0  0  0  0  0  0  0  0  0
  -15.3065    4.4999   -8.9525 H   0  0  0  0  0  0  0  0  0  0  0  0
  -18.2019    3.9092  -10.1990 H   0  0  0  0  0  0  0  0  0  0  0  0
  -17.2639    2.7839   -9.8398 H   0  0  0  0  0  0  0  0  0  0  0  0
  -18.9261    3.3476   -7.1697 H   0  0  0  0  0  0  0  0  0  0  0  0
  -17.5954    4.0274   -6.8992 H   0  0  0  0  0  0  0  0  0  0  0  0
  -18.8303    5.6530   -6.4475 H   0  0  0  0  0  0  0  0  0  0  0  0
  -17.8541    5.3426   -7.8177 H   0  0  0  0  0  0  0  0  0  0  0  0
  -19.8008    6.5569   -8.7536 H   0  0  0  0  0  0  0  0  0  0  0  0
  -19.0626    5.2158   -9.4675 H   0  0  0  0  0  0  0  0  0  0  0  0
  -20.4523    3.8100   -7.7628 H   0  0  0  0  0  0  0  0  0  0  0  0
  -21.7878    5.6561   -9.4638 H   0  0  0  0  0  0  0  0  0  0  0  0
  -20.5839    2.9748  -10.4484 H   0  0  0  0  0  0  0  0  0  0  0  0
  -21.6406    4.0590  -11.3331 H   0  0  0  0  0  0  0  0  0  0  0  0
  -20.0322    4.5592  -10.9241 H   0  0  0  0  0  0  0  0  0  0  0  0
  -22.8844    4.2081   -7.6971 H   0  0  0  0  0  0  0  0  0  0  0  0
  -23.4212    3.8202   -9.3626 H   0  0  0  0  0  0  0  0  0  0  0  0
  -22.2676    2.7646   -8.4897 H   0  0  0  0  0  0  0  0  0  0  0  0
  -16.6150    5.2995  -11.3343 H   0  0  0  0  0  0  0  0  0  0  0  0
  -15.0338    6.2157   -8.2112 H   0  0  0  0  0  0  0  0  0  0  0  0
  -14.0889    8.7741   -9.2797 H   0  0  0  0  0  0  0  0  0  0  0  0
  -15.6761    8.5757   -8.8424 H   0  0  0  0  0  0  0  0  0  0  0  0
  -15.0232    7.9773   -6.4561 H   0  0  0  0  0  0  0  0  0  0  0  0
  -12.3844    8.3054   -7.2598 H   0  0  0  0  0  0  0  0  0  0  0  0
  -13.0836    8.1946   -5.5195 H   0  0  0  0  0  0  0  0  0  0  0  0
  -13.2557    6.9593   -6.5629 H   0  0  0  0  0  0  0  0  0  0  0  0
  -15.8258   10.1491   -6.9378 H   0  0  0  0  0  0  0  0  0  0  0  0
  -14.6937   10.0346   -5.6466 H   0  0  0  0  0  0  0  0  0  0  0  0
  -14.1889   10.5873   -7.3173 H   0  0  0  0  0  0  0  0  0  0  0  0
  -12.6578    5.9649   -9.1715 H   0  0  0  0  0  0  0  0  0  0  0  0
  -13.9989    4.5341   -5.3552 H   0  0  0  0  0  0  0  0  0  0  0  0
  -16.3081    5.5607   -4.8446 H   0  0  0  0  0  0  0  0  0  0  0  0
  -14.9806    6.6325   -4.8590 H   0  0  0  0  0  0  0  0  0  0  0  0
  -16.5409    5.8590   -8.4483 H   0  0  0  0  0  0  0  0  0  0  0  0
  -17.8095    7.0250   -9.7917 H   0  0  0  0  0  0  0  0  0  0  0  0
  -17.7680    9.7105   -6.4488 H   0  0  0  0  0  0  0  0  0  0  0  0
  -16.7002    8.3511   -5.1008 H   0  0  0  0  0  0  0  0  0  0  0  0
  -18.4438    9.1223  -10.2494 H   0  0  0  0  0  0  0  0  0  0  0  0
  -18.9442   10.8351   -7.0159 H   0  0  0  0  0  0  0  0  0  0  0  0
  -17.2331   11.2461   -7.5866 H   0  0  0  0  0  0  0  0  0  0  0  0
  -18.5465   12.3779   -7.6473 H   0  0  0  0  0  0  0  0  0  0  0  0
  -16.2259    4.5773   -6.8288 H   0  0  0  0  0  0  0  0  0  0  0  0
  -15.5569    1.0510   -5.0951 H   0  0  0  0  0  0  0  0  0  0  0  0
  -16.9690    1.5030   -3.1040 H   0  0  0  0  0  0  0  0  0  0  0  0
  -17.9329    1.3640   -4.5935 H   0  0  0  0  0  0  0  0  0  0  0  0
  -18.8482   -0.6040   -5.4284 H   0  0  0  0  0  0  0  0  0  0  0  0
  -18.4242   -3.0152   -6.1051 H   0  0  0  0  0  0  0  0  0  0  0  0
  -15.0587   -2.6557   -3.5606 H   0  0  0  0  0  0  0  0  0  0  0  0
  -15.4741   -0.5041   -3.0136 H   0  0  0  0  0  0  0  0  0  0  0  0
  -17.3784   -5.0981   -5.1697 H   0  0  0  0  0  0  0  0  0  0  0  0
  -14.0960   -4.2403   -3.6551 H   0  0  0  0  0  0  0  0  0  0  0  0
  -15.2527   -3.9409   -2.2782 H   0  0  0  0  0  0  0  0  0  0  0  0
  -14.2191   -5.3421   -2.3881 H   0  0  0  0  0  0  0  0  0  0  0  0
  -14.2279    3.2080   -4.2457 H   0  0  0  0  0  0  0  0  0  0  0  0
  -13.0140    0.0828   -6.3069 H   0  0  0  0  0  0  0  0  0  0  0  0
  -10.2502    0.4048   -6.3811 H   0  0  0  0  0  0  0  0  0  0  0  0
  -11.0841    0.3313   -4.7913 H   0  0  0  0  0  0  0  0  0  0  0  0
  -11.6273   -1.6014   -5.2309 H   0  0  0  0  0  0  0  0  0  0  0  0
  -11.8408    1.0318   -8.2622 H   0  0  0  0  0  0  0  0  0  0  0  0
  -14.7598   -1.8204   -9.0214 H   0  0  0  0  0  0  0  0  0  0  0  0
  -15.1597   -3.0135   -7.2341 H   0  0  0  0  0  0  0  0  0  0  0  0
  -13.4476   -2.8468   -7.6933 H   0  0  0  0  0  0  0  0  0  0  0  0
  -14.3573    0.0834   -5.4152 H   0  0  0  0  0  0  0  0  0  0  0  0
  -13.2779    0.7113   -3.5963 H   0  0  0  0  0  0  0  0  0  0  0  0
  -11.9551   -0.8498   -2.5759 H   0  0  0  0  0  0  0  0  0  0  0  0
  -12.8855   -3.7662   -5.5550 H   0  0  0  0  0  0  0  0  0  0  0  0
  -16.1590   -0.7861   -7.2399 H   0  0  0  0  0  0  0  0  0  0  0  0
  -18.1698   -0.4619  -10.5082 H   0  0  0  0  0  0  0  0  0  0  0  0
  -16.6954   -0.3370  -12.2278 H   0  0  0  0  0  0  0  0  0  0  0  0
  -16.4475    0.9684  -11.0850 H   0  0  0  0  0  0  0  0  0  0  0  0
  -14.4497    1.4066  -10.2772 H   0  0  0  0  0  0  0  0  0  0  0  0
  -11.8146    1.4091  -10.0256 H   0  0  0  0  0  0  0  0  0  0  0  0
  -12.7311   -2.9369  -10.0830 H   0  0  0  0  0  0  0  0  0  0  0  0
  -15.0235   -2.5585  -11.0589 H   0  0  0  0  0  0  0  0  0  0  0  0
  -16.6183   -2.5674   -9.4721 H   0  0  0  0  0  0  0  0  0  0  0  0
  -20.5537   -2.9162  -10.1585 H   0  0  0  0  0  0  0  0  0  0  0  0
  -21.3947   -0.9673   -9.0115 H   0  0  0  0  0  0  0  0  0  0  0  0
  -20.5519   -2.0847   -7.9328 H   0  0  0  0  0  0  0  0  0  0  0  0
  -20.8623    1.2078   -9.1855 H   0  0  0  0  0  0  0  0  0  0  0  0
  -19.2749    2.7210   -9.0079 H   0  0  0  0  0  0  0  0  0  0  0  0
  -16.2981    3.4585   -7.9953 H   0  0  0  0  0  0  0  0  0  0  0  0
  -14.1312    2.1496   -8.7856 H   0  0  0  0  0  0  0  0  0  0  0  0
  -14.3887    3.1039   -7.3531 H   0  0  0  0  0  0  0  0  0  0  0  0
  -14.9585    0.2810   -6.8110 H   0  0  0  0  0  0  0  0  0  0  0  0
  -18.0016   -1.4046   -7.4954 H   0  0  0  0  0  0  0  0  0  0  0  0
  -19.4088   -0.4491  -11.4767 H   0  0  0  0  0  0  0  0  0  0  0  0
  -21.0208   -3.5912  -12.1398 H   0  0  0  0  0  0  0  0  0  0  0  0
  -22.2880   -2.4937  -11.4900 H   0  0  0  0  0  0  0  0  0  0  0  0
  -22.1373   -2.7493  -13.2508 H   0  0  0  0  0  0  0  0  0  0  0  0
  1111  1  0  0  0  0
  1112  1  0  0  0  0
  1113  1  0  0  0  0
  2  6  1  0  0  0  0
  2114  1  6  0  0  0
  2  3  1  0  0  0  0
  2  1  1  0  0  0  0
  3  4  2  0  0  0  0
  3  5  1  0  0  0  0
  5115  1  0  0  0  0
  5116  1  0  0  0  0
  6  7  1  0  0  0  0
  6117  1  0  0  0  0
  7  8  2  0  0  0  0
  9  7  1  0  0  0  0
  9 10  1  0  0  0  0
  9 13  1  0  0  0  0
  9118  1  6  0  0  0
 10 11  1  0  0  0  0
 10119  1  0  0  0  0
 10120  1  0  0  0  0
 11 12  1  0  0  0  0
 11121  1  0  0  0  0
 11122  1  0  0  0  0
 12 13  1  0  0  0  0
 12123  1  0  0  0  0
 12124  1  0  0  0  0
 13 14  1  0  0  0  0
 14 15  2  0  0  0  0
 16 25  1  0  0  0  0
 16125  1  1  0  0  0
 16 17  1  0  0  0  0
 16 14  1  0  0  0  0
 17 18  1  0  0  0  0
 17126  1  0  0  0  0
 17127  1  0  0  0  0
 18 19  1  0  0  0  0
 18128  1  0  0  0  0
 18129  1  0  0  0  0
 19 20  1  0  0  0  0
 19130  1  0  0  0  0
 19131  1  0  0  0  0
 20 21  1  0  0  0  0
 20132  1  0  0  0  0
 20133  1  0  0  0  0
 21 22  1  0  0  0  0
 21134  1  0  0  0  0
 22 23  1  0  0  0  0
 22 24  1  0  0  0  0
 22135  1  0  0  0  0
 23136  1  0  0  0  0
 23137  1  0  0  0  0
 23138  1  0  0  0  0
 24139  1  0  0  0  0
 24140  1  0  0  0  0
 24141  1  0  0  0  0
 25 26  1  0  0  0  0
 25142  1  0  0  0  0
 26 27  2  0  0  0  0
 28 33  1  0  0  0  0
 28143  1  1  0  0  0
 28 29  1  0  0  0  0
 28 26  1  0  0  0  0
 29 30  1  0  0  0  0
 29144  1  0  0  0  0
 29145  1  0  0  0  0
 30 31  1  0  0  0  0
 30 32  1  0  0  0  0
 30146  1  0  0  0  0
 31147  1  0  0  0  0
 31148  1  0  0  0  0
 31149  1  0  0  0  0
 32150  1  0  0  0  0
 32151  1  0  0  0  0
 32152  1  0  0  0  0
 33 34  1  0  0  0  0
 33153  1  0  0  0  0
 34 35  2  0  0  0  0
 34 36  1  0  0  0  0
 36 37  1  0  0  0  0
 36 48  1  0  0  0  0
 36154  1  1  0  0  0
 37 38  1  0  0  0  0
 37155  1  0  0  0  0
 37156  1  0  0  0  0
 38 39  2  0  0  0  0
 38 43  1  0  0  0  0
 39 40  1  0  0  0  0
 39157  1  0  0  0  0
 40 41  2  0  0  0  0
 40158  1  0  0  0  0
 41 42  1  0  0  0  0
 41 44  1  0  0  0  0
 42 43  2  0  0  0  0
 42159  1  0  0  0  0
 43160  1  0  0  0  0
 44 45  1  0  0  0  0
 44161  1  0  0  0  0
 45 46  2  0  0  0  0
 45 47  1  0  0  0  0
 47162  1  0  0  0  0
 47163  1  0  0  0  0
 47164  1  0  0  0  0
 48 49  1  0  0  0  0
 48165  1  0  0  0  0
 49 50  2  0  0  0  0
 51 63  1  0  0  0  0
 51166  1  6  0  0  0
 51 52  1  0  0  0  0
 51 49  1  0  0  0  0
 52 53  1  0  0  0  0
 52167  1  0  0  0  0
 52168  1  0  0  0  0
 53 54  2  0  0  0  0
 53 58  1  0  0  0  0
 54 55  1  0  0  0  0
 54169  1  0  0  0  0
 55 56  2  0  0  0  0
 55170  1  0  0  0  0
 56 57  1  0  0  0  0
 56 59  1  0  0  0  0
 57 58  2  0  0  0  0
 57171  1  0  0  0  0
 58172  1  0  0  0  0
 59 60  1  0  0  0  0
 59173  1  0  0  0  0
 60 61  2  0  0  0  0
 60 62  1  0  0  0  0
 62174  1  0  0  0  0
 62175  1  0  0  0  0
 62176  1  0  0  0  0
 63 64  1  0  0  0  0
 63177  1  0  0  0  0
 64 65  2  0  0  0  0
 66 69  1  0  0  0  0
 66178  1  1  0  0  0
 66 67  1  0  0  0  0
 66 64  1  0  0  0  0
 67 68  1  0  0  0  0
 67179  1  0  0  0  0
 67180  1  0  0  0  0
 68181  1  0  0  0  0
 69 70  1  0  0  0  0
 69182  1  0  0  0  0
 70 71  2  0  0  0  0
 70 72  1  0  0  0  0
 72 73  1  0  0  0  0
 72 80  1  0  0  0  0
 72183  1  6  0  0  0
 73 74  1  0  0  0  0
 73184  1  0  0  0  0
 73185  1  0  0  0  0
 74 75  2  0  0  0  0
 74 79  1  0  0  0  0
 75 76  1  0  0  0  0
 75186  1  0  0  0  0
 76 77  2  0  0  0  0
 76187  1  0  0  0  0
 77 78  1  0  0  0  0
 77188  1  0  0  0  0
 78 79  2  0  0  0  0
 79189  1  0  0  0  0
 80 81  1  0  0  0  0
 80190  1  0  0  0  0
 81 82  2  0  0  0  0
 81 83  1  0  0  0  0
 83 84  1  0  0  0  0
 83 92  1  0  0  0  0
 83191  1  6  0  0  0
 84 85  1  0  0  0  0
 84192  1  0  0  0  0
 84193  1  0  0  0  0
 85 86  2  0  0  0  0
 85 90  1  0  0  0  0
 86 87  1  0  0  0  0
 86194  1  0  0  0  0
 87 88  2  0  0  0  0
 87195  1  0  0  0  0
 88 89  1  0  0  0  0
 88 91  1  0  0  0  0
 89 90  2  0  0  0  0
 89196  1  0  0  0  0
 90197  1  0  0  0  0
 92 93  1  0  0  0  0
 92198  1  0  0  0  0
 93 94  2  0  0  0  0
 93 95  1  0  0  0  0
 95 96  1  0  0  0  0
 95107  1  0  0  0  0
 95199  1  6  0  0  0
 96 97  1  0  0  0  0
 96200  1  0  0  0  0
 96201  1  0  0  0  0
 97 98  2  0  0  0  0
 97106  1  0  0  0  0
 98 99  1  0  0  0  0
 98202  1  0  0  0  0
 99100  2  0  0  0  0
 99203  1  0  0  0  0
100101  1  0  0  0  0
100105  1  0  0  0  0
101102  2  0  0  0  0
101204  1  0  0  0  0
102103  1  0  0  0  0
102205  1  0  0  0  0
103104  2  0  0  0  0
103206  1  0  0  0  0
104105  1  0  0  0  0
104207  1  0  0  0  0
105106  2  0  0  0  0
106208  1  0  0  0  0
107108  1  0  0  0  0
107209  1  0  0  0  0
108109  2  0  0  0  0
108110  1  0  0  0  0
110210  1  0  0  0  0
110211  1  0  0  0  0
110212  1  0  0  0  0
M  END
>  <DRUGBANK_ID>
DB11906

>  <COMMON_NAME>
Acyline

>  <CAS_NUMBER>
170157-13-8

>  <UNII>
S3439D3B35

$$$$
