
 OpenBabel10282417203D

 80 85  0  0  1  0  0  0  0  0999 V2000
    1.0515   -3.4607    0.4396 C   0  0  0  0  0  0  0  0  0  0  0  0
   -0.3248    0.4777    4.9405 C   0  0  0  0  0  0  0  0  0  0  0  0
    5.1245    2.6354    8.3180 C   0  0  0  0  0  0  0  0  0  0  0  0
    1.9862    6.1246    7.7343 C   0  0  0  0  0  0  0  0  0  0  0  0
    2.2408    2.4684    2.2440 C   0  0  0  0  0  0  0  0  0  0  0  0
    3.4960    2.2933    3.0610 C   0  0  0  0  0  0  0  0  0  0  0  0
    1.8392    7.4250    7.9254 C   0  0  0  0  0  0  0  0  0  0  0  0
   -1.3341    1.3090    2.4802 C   0  0  0  0  0  0  0  0  0  0  0  0
    1.3248    1.5372    6.8144 C   0  0  0  0  0  0  0  0  0  0  0  0
    2.6110    3.4031    6.5302 C   0  0  0  0  0  0  0  0  0  0  0  0
   -0.6660    2.3727    3.6098 C   0  0  0  0  0  0  0  0  0  0  0  0
    2.6503    1.4624    7.7846 C   0  0  0  0  0  0  0  0  0  0  0  0
    3.7773    1.8562    5.9891 C   0  0  0  0  0  0  0  0  0  0  0  0
    0.8508    0.4686    2.0087 C   0  0  0  0  0  0  0  0  0  0  0  0
    4.2297    6.3924    6.9414 C   0  0  0  0  0  0  0  0  0  0  0  0
   -0.0083   -2.6486    1.1439 C   0  0  1  0  0  0  0  0  0  0  0  0
    3.2571    5.5530    7.3425 C   0  0  0  0  0  0  0  0  0  0  0  0
    1.2607    1.4387    2.8105 C   0  0  0  0  0  0  0  0  0  0  0  0
   -0.5029   -0.0369    2.3071 C   0  0  1  0  0  0  0  0  0  0  0  0
    3.2740    4.1151    7.6322 C   0  0  2  0  0  0  0  0  0  0  0  0
    1.6637    1.7186    5.1001 C   0  0  1  0  0  0  0  0  0  0  0  0
    3.0178    2.7884    4.4235 C   0  0  2  0  0  0  0  0  0  0  0  0
    2.9519    8.3464    7.6215 C   0  0  0  0  0  0  0  0  0  0  0  0
   -1.3650   -2.4261    0.4051 C   0  0  1  0  0  0  0  0  0  0  0  0
   -2.5390   -1.7915    1.2594 C   0  0  2  0  0  0  0  0  0  0  0  0
   -2.5495   -2.3200    2.6923 C   0  0  2  0  0  0  0  0  0  0  0  0
   -1.0945   -2.3389    3.1987 C   0  0  1  0  0  0  0  0  0  0  0  0
    0.5021    1.5870    4.1637 C   0  0  2  0  0  0  0  0  0  0  0  0
    3.9498    2.8569    7.4061 C   0  0  1  0  0  0  0  0  0  0  0  0
    4.2228    3.0894    5.6039 C   0  0  2  0  0  0  0  0  0  0  0  0
    2.8382    9.5223    7.8620 O   0  0  0  0  0  0  0  0  0  0  0  0
   -1.1530   -1.6663   -0.7884 O   0  0  0  0  0  0  0  0  0  0  0  0
   -3.7904   -1.8949    0.5850 O   0  0  0  0  0  0  0  0  0  0  0  0
   -3.1666   -3.6117    2.7145 O   0  0  0  0  0  0  0  0  0  0  0  0
    5.5225    3.3075    5.2166 O   0  0  0  0  0  0  0  0  0  0  0  0
    4.0782    7.7894    7.0401 O   0  0  0  0  0  0  0  0  0  0  0  0
   -0.2447   -3.1907    2.4327 O   0  0  0  0  0  0  0  0  0  0  0  0
   -0.4988   -1.0645    3.2883 O   0  0  0  0  0  0  0  0  0  0  0  0
    0.5848   -1.7397    1.2046 H   0  0  0  0  0  0  0  0  0  0  0  0
   -0.7418   -0.4529    1.3705 H   0  0  0  0  0  0  0  0  0  0  0  0
    2.8740    4.0114    8.6428 H   0  0  0  0  0  0  0  0  0  0  0  0
    2.1049    0.6943    4.9621 H   0  0  0  0  0  0  0  0  0  0  0  0
    2.5684    3.7529    4.1691 H   0  0  0  0  0  0  0  0  0  0  0  0
   -1.7191   -3.4114    0.1045 H   0  0  0  0  0  0  0  0  0  0  0  0
   -2.4857   -0.7100    1.3422 H   0  0  0  0  0  0  0  0  0  0  0  0
   -3.1495   -1.6684    3.3449 H   0  0  0  0  0  0  0  0  0  0  0  0
   -1.1079   -2.7914    4.2063 H   0  0  0  0  0  0  0  0  0  0  0  0
    0.7459   -4.4964    0.3289 H   0  0  0  0  0  0  0  0  0  0  0  0
    1.2982   -3.0039   -0.5233 H   0  0  0  0  0  0  0  0  0  0  0  0
    1.9680   -3.4397    1.0511 H   0  0  0  0  0  0  0  0  0  0  0  0
   -0.7757    0.6737    5.9061 H   0  0  0  0  0  0  0  0  0  0  0  0
   -1.3155    0.3265    4.5095 H   0  0  0  0  0  0  0  0  0  0  0  0
    0.2924   -0.4225    5.0655 H   0  0  0  0  0  0  0  0  0  0  0  0
    6.0534    2.7508    7.7669 H   0  0  0  0  0  0  0  0  0  0  0  0
    5.0734    3.3281    9.1566 H   0  0  0  0  0  0  0  0  0  0  0  0
    5.0655    1.6172    8.7189 H   0  0  0  0  0  0  0  0  0  0  0  0
    1.1598    5.4506    7.9670 H   0  0  0  0  0  0  0  0  0  0  0  0
    1.8735    3.5080    2.3138 H   0  0  0  0  0  0  0  0  0  0  0  0
    2.4118    2.3243    1.1720 H   0  0  0  0  0  0  0  0  0  0  0  0
    4.3508    2.9013    2.7554 H   0  0  0  0  0  0  0  0  0  0  0  0
    3.8066    1.2404    2.9956 H   0  0  0  0  0  0  0  0  0  0  0  0
    0.9238    7.8358    8.3278 H   0  0  0  0  0  0  0  0  0  0  0  0
   -2.3948    1.1153    2.6654 H   0  0  0  0  0  0  0  0  0  0  0  0
   -1.2762    1.7211    1.4567 H   0  0  0  0  0  0  0  0  0  0  0  0
    0.7065    2.2956    7.3119 H   0  0  0  0  0  0  0  0  0  0  0  0
    0.4763    0.9061    6.9971 H   0  0  0  0  0  0  0  0  0  0  0  0
    1.6799    3.4315    7.0663 H   0  0  0  0  0  0  0  0  0  0  0  0
    2.0875    3.9969    5.7560 H   0  0  0  0  0  0  0  0  0  0  0  0
   -1.3497    2.5944    4.4386 H   0  0  0  0  0  0  0  0  0  0  0  0
   -0.3964    3.3472    3.1780 H   0  0  0  0  0  0  0  0  0  0  0  0
    2.3908    1.4977    8.8425 H   0  0  0  0  0  0  0  0  0  0  0  0
    3.0639    0.4540    7.5874 H   0  0  0  0  0  0  0  0  0  0  0  0
    4.6281    1.3327    6.5233 H   0  0  0  0  0  0  0  0  0  0  0  0
    3.7959    1.1268    5.1513 H   0  0  0  0  0  0  0  0  0  0  0  0
    1.1896    0.4579    0.9806 H   0  0  0  0  0  0  0  0  0  0  0  0
    5.2263    6.1326    6.6354 H   0  0  0  0  0  0  0  0  0  0  0  0
   -0.9080   -0.7525   -0.5600 H   0  0  0  0  0  0  0  0  0  0  0  0
   -4.1157   -2.7991    0.7071 H   0  0  0  0  0  0  0  0  0  0  0  0
   -2.5826   -4.2191    2.2278 H   0  0  0  0  0  0  0  0  0  0  0  0
    5.8269    4.0061    5.8212 H   0  0  0  0  0  0  0  0  0  0  0  0
  1 48  1  0  0  0  0
  1 49  1  0  0  0  0
  1 50  1  0  0  0  0
  2 51  1  0  0  0  0
  2 52  1  0  0  0  0
  2 53  1  0  0  0  0
  3 54  1  0  0  0  0
  3 55  1  0  0  0  0
  3 56  1  0  0  0  0
  4 57  1  0  0  0  0
  5 58  1  0  0  0  0
  5 59  1  0  0  0  0
  6  5  1  0  0  0  0
  6 60  1  0  0  0  0
  6 61  1  0  0  0  0
  7  4  2  0  0  0  0
  7 62  1  0  0  0  0
  8 63  1  0  0  0  0
  8 64  1  0  0  0  0
  9 65  1  0  0  0  0
  9 66  1  0  0  0  0
 10 67  1  0  0  0  0
 10 68  1  0  0  0  0
 11  8  1  0  0  0  0
 11 69  1  0  0  0  0
 11 70  1  0  0  0  0
 12  9  1  0  0  0  0
 12 71  1  0  0  0  0
 12 72  1  0  0  0  0
 13 10  1  0  0  0  0
 13 73  1  0  0  0  0
 13 74  1  0  0  0  0
 14 75  1  0  0  0  0
 15 76  1  0  0  0  0
 16  1  1  0  0  0  0
 16 39  1  1  0  0  0
 17  4  1  0  0  0  0
 17 15  2  0  0  0  0
 18  5  1  0  0  0  0
 18 14  2  0  0  0  0
 19  8  1  0  0  0  0
 19 14  1  0  0  0  0
 19 38  1  0  0  0  0
 19 40  1  6  0  0  0
 20 10  1  0  0  0  0
 20 41  1  1  0  0  0
 20 17  1  0  0  0  0
 21  9  1  0  0  0  0
 21 42  1  1  0  0  0
 22  6  1  0  0  0  0
 22 21  1  0  0  0  0
 22 43  1  1  0  0  0
 23  7  1  0  0  0  0
 24 16  1  0  0  0  0
 24 32  1  0  0  0  0
 24 44  1  6  0  0  0
 25 24  1  0  0  0  0
 25 33  1  0  0  0  0
 25 45  1  1  0  0  0
 26 25  1  0  0  0  0
 26 34  1  0  0  0  0
 26 46  1  1  0  0  0
 27 26  1  0  0  0  0
 27 38  1  0  0  0  0
 27 47  1  1  0  0  0
 28 11  1  0  0  0  0
 28 18  1  0  0  0  0
 28 21  1  0  0  0  0
 28  2  1  1  0  0  0
 29 12  1  0  0  0  0
 29 20  1  0  0  0  0
 29  3  1  1  0  0  0
 30 13  1  0  0  0  0
 30 22  1  0  0  0  0
 30 29  1  0  0  0  0
 30 35  1  1  0  0  0
 31 23  2  0  0  0  0
 32 77  1  0  0  0  0
 33 78  1  0  0  0  0
 34 79  1  0  0  0  0
 35 80  1  0  0  0  0
 36 15  1  0  0  0  0
 36 23  1  0  0  0  0
 37 16  1  0  0  0  0
 37 27  1  0  0  0  0
M  END
>  <DRUGBANK_ID>
DB13307

>  <COMMON_NAME>
Proscillaridin

>  <CAS_NUMBER>
466-06-8

>  <UNII>
KC6BL281EN

>  <SYNONYMS>
Proscillaridin

$$$$
