
 OpenBabel10282417203D

 41 42  0  0  0  0  0  0  0  0999 V2000
    0.8075    0.0804   -0.1690 C   0  0  0  0  0  0  0  0  0  0  0  0
    0.6128    3.3946    3.0157 C   0  0  0  0  0  0  0  0  0  0  0  0
    2.0244   -3.9623    2.9132 C   0  0  0  0  0  0  0  0  0  0  0  0
    5.6259   -2.2687    0.0043 C   0  0  0  0  0  0  0  0  0  0  0  0
    0.2769    1.1798    0.7558 C   0  0  0  0  0  0  0  0  0  0  0  0
    0.3743    3.5224    1.5168 C   0  0  0  0  0  0  0  0  0  0  0  0
    2.4131    2.4138    0.6943 C   0  0  0  0  0  0  0  0  0  0  0  0
    3.0860    1.9198    2.0115 C   0  0  0  0  0  0  0  0  0  0  0  0
    1.7350    0.2272    3.4471 C   0  0  0  0  0  0  0  0  0  0  0  0
    3.1971   -0.5431    2.0476 C   0  0  0  0  0  0  0  0  0  0  0  0
    2.4839   -1.5555    2.6004 C   0  0  0  0  0  0  0  0  0  0  0  0
    4.2281   -0.7179    1.0993 C   0  0  0  0  0  0  0  0  0  0  0  0
    3.8419   -3.1464    1.4590 C   0  0  0  0  0  0  0  0  0  0  0  0
    1.5401   -1.0833    3.4476 N   0  0  0  0  0  0  0  0  0  0  0  0
    2.7603   -2.8693    2.3019 N   0  0  0  0  0  0  0  0  0  0  0  0
    4.5107   -2.0566    0.8859 N   0  0  0  0  0  0  0  0  0  0  0  0
    0.9421    2.4847    0.6315 N   0  0  0  0  0  0  0  0  0  0  0  0
    2.6836    0.6188    2.5277 N   0  0  0  0  0  0  0  0  0  0  0  0
    4.7988    0.1957    0.5347 O   0  0  0  0  0  0  0  0  0  0  0  0
    4.2052   -4.3029    1.2310 O   0  0  0  0  0  0  0  0  0  0  0  0
    0.4988    0.2503   -1.2009 H   0  0  0  0  0  0  0  0  0  0  0  0
    0.4464   -0.8982    0.1653 H   0  0  0  0  0  0  0  0  0  0  0  0
    1.8952   -0.0038   -0.1785 H   0  0  0  0  0  0  0  0  0  0  0  0
    1.6467    3.5482    3.3050 H   0  0  0  0  0  0  0  0  0  0  0  0
    0.0822    4.1410    3.6040 H   0  0  0  0  0  0  0  0  0  0  0  0
    0.2524    2.4301    3.3515 H   0  0  0  0  0  0  0  0  0  0  0  0
    2.0742   -3.8764    4.0028 H   0  0  0  0  0  0  0  0  0  0  0  0
    0.9802   -3.9408    2.5849 H   0  0  0  0  0  0  0  0  0  0  0  0
    2.4488   -4.9302    2.6305 H   0  0  0  0  0  0  0  0  0  0  0  0
    5.3899   -1.8176   -0.9658 H   0  0  0  0  0  0  0  0  0  0  0  0
    6.4924   -1.7423    0.4215 H   0  0  0  0  0  0  0  0  0  0  0  0
    5.8595   -3.3228   -0.1196 H   0  0  0  0  0  0  0  0  0  0  0  0
   -0.8067    1.2594    0.6225 H   0  0  0  0  0  0  0  0  0  0  0  0
    0.3575    0.8334    1.7721 H   0  0  0  0  0  0  0  0  0  0  0  0
    0.7448    4.5019    1.1925 H   0  0  0  0  0  0  0  0  0  0  0  0
   -0.7110    3.5467    1.3738 H   0  0  0  0  0  0  0  0  0  0  0  0
    2.7753    1.8163   -0.1549 H   0  0  0  0  0  0  0  0  0  0  0  0
    2.8067    3.4094    0.4407 H   0  0  0  0  0  0  0  0  0  0  0  0
    4.1634    1.8818    1.8292 H   0  0  0  0  0  0  0  0  0  0  0  0
    3.0666    2.6432    2.8130 H   0  0  0  0  0  0  0  0  0  0  0  0
    1.1159    0.8917    4.0301 H   0  0  0  0  0  0  0  0  0  0  0  0
  1 21  1  0  0  0  0
  1 22  1  0  0  0  0
  1 23  1  0  0  0  0
  2 24  1  0  0  0  0
  2 25  1  0  0  0  0
  2 26  1  0  0  0  0
  3 27  1  0  0  0  0
  3 28  1  0  0  0  0
  3 29  1  0  0  0  0
  4 30  1  0  0  0  0
  4 31  1  0  0  0  0
  4 32  1  0  0  0  0
  5  1  1  0  0  0  0
  5 33  1  0  0  0  0
  5 34  1  0  0  0  0
  6  2  1  0  0  0  0
  6 35  1  0  0  0  0
  6 36  1  0  0  0  0
  7 37  1  0  0  0  0
  7 38  1  0  0  0  0
  8  7  1  0  0  0  0
  8 39  1  0  0  0  0
  8 40  1  0  0  0  0
  9 41  1  0  0  0  0
 11 10  2  0  0  0  0
 12 10  1  0  0  0  0
 14  9  2  0  0  0  0
 14 11  1  0  0  0  0
 15  3  1  0  0  0  0
 15 11  1  0  0  0  0
 15 13  1  0  0  0  0
 16  4  1  0  0  0  0
 16 12  1  0  0  0  0
 16 13  1  0  0  0  0
 17  5  1  0  0  0  0
 17  6  1  0  0  0  0
 17  7  1  0  0  0  0
 18  8  1  0  0  0  0
 18  9  1  0  0  0  0
 18 10  1  0  0  0  0
 19 12  2  0  0  0  0
 20 13  2  0  0  0  0
M  END
>  <DRUGBANK_ID>
DB13592

>  <COMMON_NAME>
Etamiphylline

>  <CAS_NUMBER>
314-35-2

>  <UNII>
221A91BQ2S

>  <SYNONYMS>
Etamiphyllin; Etamiphylline

$$$$
