
 OpenBabel10282417183D

 62 66  0  0  0  0  0  0  0  0999 V2000
    1.0847   -0.1603    0.0064 C   0  0  0  0  0  0  0  0  0  0  0  0
    0.6377   -0.6448    1.3007 N   0  0  0  0  0  0  0  0  0  0  0  0
   -0.0990    0.3014    2.0906 C   0  0  0  0  0  0  0  0  0  0  0  0
    0.9019   -1.9648    1.6858 C   0  0  0  0  0  0  0  0  0  0  0  0
    1.5899   -2.6884    0.9451 O   0  0  0  0  0  0  0  0  0  0  0  0
    0.4452   -2.4719    2.9895 C   0  0  0  0  0  0  0  0  0  0  0  0
    1.2555   -3.1421    3.9087 C   0  0  0  0  0  0  0  0  0  0  0  0
    0.4986   -3.4493    5.0668 C   0  0  0  0  0  0  0  0  0  0  0  0
    0.7326   -4.0192    6.3146 C   0  0  0  0  0  0  0  0  0  0  0  0
   -0.2864   -4.1430    7.2083 N   0  0  0  0  0  0  0  0  0  0  0  0
   -1.5292   -3.7432    6.8597 C   0  0  0  0  0  0  0  0  0  0  0  0
   -1.8314   -3.1844    5.6702 N   0  0  0  0  0  0  0  0  0  0  0  0
   -0.7976   -3.0497    4.8172 C   0  0  0  0  0  0  0  0  0  0  0  0
   -0.8417   -2.5000    3.5424 N   0  0  0  0  0  0  0  0  0  0  0  0
   -2.0523   -2.0173    2.9016 C   0  0  0  0  0  0  0  0  0  0  0  0
   -2.6812   -0.7954    3.6029 C   0  0  0  0  0  0  0  0  0  0  0  0
   -4.0884   -0.6968    3.0434 C   0  0  0  0  0  0  0  0  0  0  0  0
   -4.4061   -2.0674    2.4534 C   0  0  0  0  0  0  0  0  0  0  0  0
   -3.2328   -2.9802    2.8102 C   0  0  0  0  0  0  0  0  0  0  0  0
   -2.5495   -3.9590    7.8075 N   0  0  0  0  0  0  0  0  0  0  0  0
   -3.8810   -3.5261    7.6850 C   0  0  0  0  0  0  0  0  0  0  0  0
   -4.6476   -4.0515    6.6481 C   0  0  0  0  0  0  0  0  0  0  0  0
   -5.9784   -3.6537    6.4634 C   0  0  0  0  0  0  0  0  0  0  0  0
   -6.5487   -2.6883    7.2851 C   0  0  0  0  0  0  0  0  0  0  0  0
   -5.7056   -2.2260    8.3026 C   0  0  0  0  0  0  0  0  0  0  0  0
   -4.4198   -2.6428    8.5520 N   0  0  0  0  0  0  0  0  0  0  0  0
   -7.8342   -2.2244    7.1152 N   0  0  0  0  0  0  0  0  0  0  0  0
   -9.0065   -3.1049    7.0685 C   0  0  0  0  0  0  0  0  0  0  0  0
   -9.7592   -2.9496    5.7259 C   0  0  0  0  0  0  0  0  0  0  0  0
  -10.1082   -1.5475    5.3969 N   0  0  0  0  0  0  0  0  0  0  0  0
   -8.8685   -0.7363    5.4298 C   0  0  0  0  0  0  0  0  0  0  0  0
   -8.1073   -0.8216    6.7806 C   0  0  0  0  0  0  0  0  0  0  0  0
    0.7256    0.8608   -0.1672 H   0  0  0  0  0  0  0  0  0  0  0  0
    0.6989   -0.8011   -0.7899 H   0  0  0  0  0  0  0  0  0  0  0  0
    2.1767   -0.1522   -0.0085 H   0  0  0  0  0  0  0  0  0  0  0  0
   -1.1222   -0.0005    1.9634 H   0  0  0  0  0  0  0  0  0  0  0  0
    0.2308    0.2909    3.1306 H   0  0  0  0  0  0  0  0  0  0  0  0
   -0.0955    1.3157    1.6888 H   0  0  0  0  0  0  0  0  0  0  0  0
    2.3101   -3.3454    3.7591 H   0  0  0  0  0  0  0  0  0  0  0  0
    1.7098   -4.3697    6.6278 H   0  0  0  0  0  0  0  0  0  0  0  0
   -1.7986   -1.8185    1.8528 H   0  0  0  0  0  0  0  0  0  0  0  0
   -2.7065   -0.9355    4.6862 H   0  0  0  0  0  0  0  0  0  0  0  0
   -2.1785    0.1651    3.4800 H   0  0  0  0  0  0  0  0  0  0  0  0
   -4.7849   -0.4127    3.8370 H   0  0  0  0  0  0  0  0  0  0  0  0
   -4.1462    0.0749    2.2648 H   0  0  0  0  0  0  0  0  0  0  0  0
   -5.3492   -2.4589    2.8419 H   0  0  0  0  0  0  0  0  0  0  0  0
   -4.5042   -1.9797    1.3642 H   0  0  0  0  0  0  0  0  0  0  0  0
   -3.0753   -3.7546    2.0521 H   0  0  0  0  0  0  0  0  0  0  0  0
   -3.4275   -3.4780    3.7611 H   0  0  0  0  0  0  0  0  0  0  0  0
   -2.1831   -3.9866    8.7460 H   0  0  0  0  0  0  0  0  0  0  0  0
   -4.2030   -4.7974    5.9968 H   0  0  0  0  0  0  0  0  0  0  0  0
   -6.5330   -4.0839    5.6366 H   0  0  0  0  0  0  0  0  0  0  0  0
   -6.0795   -1.4779    8.9989 H   0  0  0  0  0  0  0  0  0  0  0  0
   -8.7554   -4.1543    7.2527 H   0  0  0  0  0  0  0  0  0  0  0  0
   -9.6804   -2.7936    7.8791 H   0  0  0  0  0  0  0  0  0  0  0  0
   -9.1473   -3.3573    4.9131 H   0  0  0  0  0  0  0  0  0  0  0  0
  -10.6832   -3.5384    5.7562 H   0  0  0  0  0  0  0  0  0  0  0  0
  -10.7353   -1.1967    6.1219 H   0  0  0  0  0  0  0  0  0  0  0  0
   -8.2157   -1.0667    4.6123 H   0  0  0  0  0  0  0  0  0  0  0  0
   -9.1317    0.3071    5.2230 H   0  0  0  0  0  0  0  0  0  0  0  0
   -8.7431   -0.3998    7.5693 H   0  0  0  0  0  0  0  0  0  0  0  0
   -7.1961   -0.2168    6.7290 H   0  0  0  0  0  0  0  0  0  0  0  0
  1  2  1  0  0  0  0
  1 33  1  0  0  0  0
  1 34  1  0  0  0  0
  1 35  1  0  0  0  0
  2  3  1  0  0  0  0
  2  4  1  0  0  0  0
  3 36  1  0  0  0  0
  3 37  1  0  0  0  0
  3 38  1  0  0  0  0
  4  5  2  0  0  0  0
  4  6  1  0  0  0  0
  6  7  2  0  0  0  0
  6 14  1  0  0  0  0
  7  8  1  0  0  0  0
  7 39  1  0  0  0  0
  8  9  2  0  0  0  0
  8 13  1  0  0  0  0
  9 10  1  0  0  0  0
  9 40  1  0  0  0  0
 10 11  2  0  0  0  0
 11 12  1  0  0  0  0
 11 20  1  0  0  0  0
 12 13  2  0  0  0  0
 13 14  1  0  0  0  0
 14 15  1  0  0  0  0
 15 16  1  0  0  0  0
 15 19  1  0  0  0  0
 15 41  1  0  0  0  0
 16 17  1  0  0  0  0
 16 42  1  0  0  0  0
 16 43  1  0  0  0  0
 17 18  1  0  0  0  0
 17 44  1  0  0  0  0
 17 45  1  0  0  0  0
 18 19  1  0  0  0  0
 18 46  1  0  0  0  0
 18 47  1  0  0  0  0
 19 48  1  0  0  0  0
 19 49  1  0  0  0  0
 20 21  1  0  0  0  0
 20 50  1  0  0  0  0
 21 22  2  0  0  0  0
 21 26  1  0  0  0  0
 22 23  1  0  0  0  0
 22 51  1  0  0  0  0
 23 24  2  0  0  0  0
 23 52  1  0  0  0  0
 24 25  1  0  0  0  0
 24 27  1  0  0  0  0
 25 26  2  0  0  0  0
 25 53  1  0  0  0  0
 27 28  1  0  0  0  0
 27 32  1  0  0  0  0
 28 29  1  0  0  0  0
 28 54  1  0  0  0  0
 28 55  1  0  0  0  0
 29 30  1  0  0  0  0
 29 56  1  0  0  0  0
 29 57  1  0  0  0  0
 30 31  1  0  0  0  0
 30 58  1  0  0  0  0
 31 32  1  0  0  0  0
 31 59  1  0  0  0  0
 31 60  1  0  0  0  0
 32 61  1  0  0  0  0
 32 62  1  0  0  0  0
M  END
>  <DRUGBANK_ID>
DB11730

>  <COMMON_NAME>
Ribociclib

>  <CAS_NUMBER>
1211441-98-3

>  <UNII>
TK8ERE8P56

>  <SYNONYMS>
Ribociclib

$$$$
