1494
 OpenBabel10282417113D

 29 27  0  0  0  0  0  0  0  0999 V2000
    1.3304    1.1670   -0.9405 Cl  0  0  0  0  0  0  0  0  0  0  0  0
    4.2443   -1.6845   -0.8696 Cl  0  0  0  0  0  0  0  0  0  0  0  0
    4.1408    1.1747   -2.1885 Cl  0  0  0  0  0  0  0  0  0  0  0  0
    0.7360   -1.2736    0.6290 O   0  5  0  0  0  0  0  0  0  0  0  0
    1.9650   -1.0998   -1.3043 O   0  0  0  0  0  0  0  0  0  0  0  0
    3.1498    2.0392    0.1457 O   0  0  0  0  0  0  0  0  0  0  0  0
    2.8481   -0.2098    2.4738 O   0  0  0  0  0  0  0  0  0  0  0  0
    2.7559    1.2916    2.1748 N   0  3  0  0  0  0  0  0  0  0  0  0
    3.1306   -0.6826    1.0736 C   0  0  0  0  0  0  0  0  0  0  0  0
    1.1195    1.2673    2.6260 C   0  0  0  0  0  0  0  0  0  0  0  0
    3.7923    1.0354    3.7260 C   0  0  0  0  0  0  0  0  0  0  0  0
    3.1345    2.9063    1.9285 C   0  0  0  0  0  0  0  0  0  0  0  0
    1.7889   -1.1817   -0.0401 C   0  0  0  0  0  0  0  0  0  0  0  0
    3.7380    0.8644    0.8550 C   0  0  0  0  0  0  0  0  0  0  0  0
    3.4454    0.3568   -0.7576 C   0  0  0  0  0  0  0  0  0  0  0  0
    3.6653    2.6838   -0.3448 H   0  0  0  0  0  0  0  0  0  0  0  0
    1.8562   -0.3365    2.0539 H   0  0  0  0  0  0  0  0  0  0  0  0
    3.0279   -1.6808    1.7815 H   0  0  0  0  0  0  0  0  0  0  0  0
    4.3825   -0.7938    1.2717 H   0  0  0  0  0  0  0  0  0  0  0  0
    0.8478    0.3016    3.1241 H   0  0  0  0  0  0  0  0  0  0  0  0
    0.9957    2.0787    3.3213 H   0  0  0  0  0  0  0  0  0  0  0  0
    0.6959    1.2685    1.6309 H   0  0  0  0  0  0  0  0  0  0  0  0
    4.8114    0.9680    3.3233 H   0  0  0  0  0  0  0  0  0  0  0  0
    3.4624    1.8353    4.3633 H   0  0  0  0  0  0  0  0  0  0  0  0
    3.5416    0.0492    4.1799 H   0  0  0  0  0  0  0  0  0  0  0  0
    4.2237    2.9184    1.6379 H   0  0  0  0  0  0  0  0  0  0  0  0
    2.3634    3.2417    1.1986 H   0  0  0  0  0  0  0  0  0  0  0  0
    2.9088    3.5294    2.7559 H   0  0  0  0  0  0  0  0  0  0  0  0
    4.7836    1.0218    1.1274 H   0  0  0  0  0  0  0  0  0  0  0  0
  1 15  1  0  0  0  0
  2 15  1  0  0  0  0
  3 15  1  0  0  0  0
  4 13  1  0  0  0  0
  5 13  2  0  0  0  0
  6 14  1  0  0  0  0
  6 16  1  0  0  0  0
  7 14  1  0  0  0  0
  7 17  1  0  0  0  0
  8  9  1  0  0  0  0
  8 10  1  0  0  0  0
  8 11  1  0  0  0  0
  8 12  1  0  0  0  0
  9 13  1  0  0  0  0
  9 18  1  0  0  0  0
  9 19  1  0  0  0  0
 10 20  1  0  0  0  0
 10 21  1  0  0  0  0
 10 22  1  0  0  0  0
 11 23  1  0  0  0  0
 11 24  1  0  0  0  0
 11 25  1  0  0  0  0
 12 26  1  0  0  0  0
 12 27  1  0  0  0  0
 12 28  1  0  0  0  0
 14 15  1  0  0  0  0
 14 29  1  0  0  0  0
M  CHG  2   4  -1   8   1
M  END
>  <DRUGBANK_ID>
DB01494

>  <COMMON_NAME>
Chloral betaine

>  <CAS_NUMBER>
2218-68-0

>  <UNII>
8680278NRH

>  <SYNONYMS>
Chloral betaine; Cloral betaine

$$$$
