813
 OpenBabel10282417113D

 53 55  0  0  0  0  0  0  0  0999 V2000
    0.8340    0.4267    0.0664 O   0  0  0  0  0  0  0  0  0  0  0  0
    5.6867   -1.2729    0.9848 N   0  0  0  0  0  0  0  0  0  0  0  0
    3.0225    1.3723   -0.0904 N   0  0  0  0  0  0  0  0  0  0  0  0
    4.6089    1.3217   -0.0684 C   0  0  0  0  0  0  0  0  0  0  0  0
    5.3388    0.3284   -1.0114 C   0  0  0  0  0  0  0  0  0  0  0  0
    5.2671    1.2207    1.3427 C   0  0  0  0  0  0  0  0  0  0  0  0
    5.4620   -1.0813   -0.4538 C   0  0  0  0  0  0  0  0  0  0  0  0
    5.3380   -0.2032    1.9726 C   0  0  0  0  0  0  0  0  0  0  0  0
    5.3564   -2.6830    1.3402 C   0  0  0  0  0  0  0  0  0  0  0  0
    3.8883   -3.2508    1.2046 C   0  0  0  0  0  0  0  0  0  0  0  0
    2.4144    2.6676   -0.1441 C   0  0  0  0  0  0  0  0  0  0  0  0
    2.0968    0.4049    0.3142 C   0  0  0  0  0  0  0  0  0  0  0  0
    2.9171   -3.2385   -0.2060 C   0  0  0  0  0  0  0  0  0  0  0  0
    2.5808   -0.6810    1.0956 C   0  0  0  0  0  0  0  0  0  0  0  0
    1.3228    2.9284    0.7245 C   0  0  0  0  0  0  0  0  0  0  0  0
    2.8175    3.6526   -1.0247 C   0  0  0  0  0  0  0  0  0  0  0  0
    1.6807   -1.4708    1.9847 C   0  0  0  0  0  0  0  0  0  0  0  0
    2.3949   -4.4076   -0.6758 C   0  0  0  0  0  0  0  0  0  0  0  0
    2.4363   -2.0925   -1.0596 C   0  0  0  0  0  0  0  0  0  0  0  0
    0.6389    4.1231    0.7103 C   0  0  0  0  0  0  0  0  0  0  0  0
    2.1814    4.8948   -0.9789 C   0  0  0  0  0  0  0  0  0  0  0  0
    1.0867    5.1196   -0.1325 C   0  0  0  0  0  0  0  0  0  0  0  0
    1.6470   -4.3511   -1.8993 C   0  0  0  0  0  0  0  0  0  0  0  0
    1.4870   -1.9713   -2.0522 C   0  0  0  0  0  0  0  0  0  0  0  0
    1.2305   -3.1697   -2.5905 C   0  0  0  0  0  0  0  0  0  0  0  0
    4.9127    2.3017   -0.4630 H   0  0  0  0  0  0  0  0  0  0  0  0
    4.8266    0.3081   -1.9835 H   0  0  0  0  0  0  0  0  0  0  0  0
    6.3614    0.6785   -1.2185 H   0  0  0  0  0  0  0  0  0  0  0  0
    6.3061    1.5661    1.2675 H   0  0  0  0  0  0  0  0  0  0  0  0
    4.7405    1.9187    2.0055 H   0  0  0  0  0  0  0  0  0  0  0  0
    4.5490   -1.5102   -0.7803 H   0  0  0  0  0  0  0  0  0  0  0  0
    6.1139   -1.7567   -1.0301 H   0  0  0  0  0  0  0  0  0  0  0  0
    5.9678   -0.2364    2.8676 H   0  0  0  0  0  0  0  0  0  0  0  0
    4.4206   -0.3298    2.5790 H   0  0  0  0  0  0  0  0  0  0  0  0
    5.9862   -3.3766    0.7794 H   0  0  0  0  0  0  0  0  0  0  0  0
    5.6797   -2.8017    2.3912 H   0  0  0  0  0  0  0  0  0  0  0  0
    3.8267   -4.2660    1.6393 H   0  0  0  0  0  0  0  0  0  0  0  0
    3.4979   -2.7386    2.0980 H   0  0  0  0  0  0  0  0  0  0  0  0
    3.1959   -1.3454    0.5755 H   0  0  0  0  0  0  0  0  0  0  0  0
    3.4726   -0.2652    1.3690 H   0  0  0  0  0  0  0  0  0  0  0  0
    0.9575    2.1843    1.4316 H   0  0  0  0  0  0  0  0  0  0  0  0
    3.5786    3.4621   -1.7757 H   0  0  0  0  0  0  0  0  0  0  0  0
    0.6725   -1.4415    1.5952 H   0  0  0  0  0  0  0  0  0  0  0  0
    1.7995   -2.5607    2.0327 H   0  0  0  0  0  0  0  0  0  0  0  0
    1.8534   -1.1062    2.9874 H   0  0  0  0  0  0  0  0  0  0  0  0
    2.6357   -5.3466   -0.1889 H   0  0  0  0  0  0  0  0  0  0  0  0
    2.8631   -1.0959   -1.0909 H   0  0  0  0  0  0  0  0  0  0  0  0
   -0.2137    4.2469    1.3706 H   0  0  0  0  0  0  0  0  0  0  0  0
    2.5369    5.6996   -1.6118 H   0  0  0  0  0  0  0  0  0  0  0  0
    0.5759    6.0748   -0.1291 H   0  0  0  0  0  0  0  0  0  0  0  0
    1.3988   -5.2808   -2.3851 H   0  0  0  0  0  0  0  0  0  0  0  0
    1.2149   -0.9840   -2.4526 H   0  0  0  0  0  0  0  0  0  0  0  0
    0.8097   -3.1595   -3.5882 H   0  0  0  0  0  0  0  0  0  0  0  0
  1 12  2  0  0  0  0
  2  7  1  0  0  0  0
  2  8  1  0  0  0  0
  2  9  1  0  0  0  0
  3  4  1  0  0  0  0
  3 11  1  0  0  0  0
  3 12  1  0  0  0  0
  4  5  1  0  0  0  0
  4  6  1  0  0  0  0
  4 26  1  0  0  0  0
  5  7  1  0  0  0  0
  5 27  1  0  0  0  0
  5 28  1  0  0  0  0
  6  8  1  0  0  0  0
  6 29  1  0  0  0  0
  6 30  1  0  0  0  0
  7 31  1  0  0  0  0
  7 32  1  0  0  0  0
  8 33  1  0  0  0  0
  8 34  1  0  0  0  0
  9 10  1  0  0  0  0
  9 35  1  0  0  0  0
  9 36  1  0  0  0  0
 10 13  1  0  0  0  0
 10 37  1  0  0  0  0
 10 38  1  0  0  0  0
 11 15  2  0  0  0  0
 11 16  1  0  0  0  0
 12 14  1  0  0  0  0
 13 18  2  0  0  0  0
 13 19  1  0  0  0  0
 14 17  1  0  0  0  0
 14 39  1  0  0  0  0
 14 40  1  0  0  0  0
 15 20  1  0  0  0  0
 15 41  1  0  0  0  0
 16 21  2  0  0  0  0
 16 42  1  0  0  0  0
 17 43  1  0  0  0  0
 17 44  1  0  0  0  0
 17 45  1  0  0  0  0
 18 23  1  0  0  0  0
 18 46  1  0  0  0  0
 19 24  2  0  0  0  0
 19 47  1  0  0  0  0
 20 22  2  0  0  0  0
 20 48  1  0  0  0  0
 21 22  1  0  0  0  0
 21 49  1  0  0  0  0
 22 50  1  0  0  0  0
 23 25  2  0  0  0  0
 23 51  1  0  0  0  0
 24 25  1  0  0  0  0
 24 52  1  0  0  0  0
 25 53  1  0  0  0  0
M  END
>  <DRUGBANK_ID>
DB00813

>  <SECONDARY_ACCESSION_NUMBERS>
APRD00347; DB05853; DB06055; DB06220; DB05564

>  <COMMON_NAME>
Fentanyl

>  <CAS_NUMBER>
437-38-7

>  <UNII>
UF599785JZ

>  <SYNONYMS>
1-Phenethyl-4-(N-phenylpropionamido)piperidine; 1-phenethyl-4-N-propionylanilinopiperidine; Fentanil; Fentanila; Fentanilo; Fentanyl; Fentanyl CII; Fentanylum; N-(1-phenethyl-4-piperidinyl)-N-phenylpropionamide; N-(1-phenethyl-4-piperidyl)propionanilide; N-(1-Phenethyl-piperidin-4-yl)-N-phenyl-propionamide; N-(1-phenethylpiperidin-4-yl)-N-phenylpropionamide; N-phenethyl-4-(N-propionylanilino)piperidine; N-phenyl-N-(1-(2-phenylethyl)-4-piperidinyl)propanamide; Phentanyl

$$$$
