
 OpenBabel10282417143D

 27 27  0  0  1  0  0  0  0  0999 V2000
    0.8427    0.1007   -0.5294 Cl  0  0  0  0  0  0  0  0  0  0  0  0
    4.4320    1.3282    0.6491 O   0  0  0  0  0  0  0  0  0  0  0  0
    1.4145   -0.1053    2.4614 N   0  0  0  0  0  0  0  0  0  0  0  0
    2.7077    0.5890    2.3357 C   0  0  1  0  0  0  0  0  0  0  0  0
    3.7992   -0.2912    2.9828 C   0  0  0  0  0  0  0  0  0  0  0  0
    3.0411    1.0413    0.8664 C   0  0  2  0  0  0  0  0  0  0  0  0
    5.1230    0.4065    3.1900 C   0  0  0  0  0  0  0  0  0  0  0  0
    2.5928    0.0514   -0.2114 C   0  0  0  0  0  0  0  0  0  0  0  0
    5.1820    1.7418    3.6135 C   0  0  0  0  0  0  0  0  0  0  0  0
    6.3221   -0.2788    2.9457 C   0  0  0  0  0  0  0  0  0  0  0  0
    6.3993    2.3893    3.7840 C   0  0  0  0  0  0  0  0  0  0  0  0
    7.5436    0.3558    3.1706 C   0  0  0  0  0  0  0  0  0  0  0  0
    7.5840    1.6853    3.5819 C   0  0  0  0  0  0  0  0  0  0  0  0
    1.1637   -0.2357    3.4404 H   0  0  0  0  0  0  0  0  0  0  0  0
    0.6769    0.4654    2.0427 H   0  0  0  0  0  0  0  0  0  0  0  0
    4.8631    0.5742    0.2080 H   0  0  0  0  0  0  0  0  0  0  0  0
    2.5920    1.5012    2.9320 H   0  0  0  0  0  0  0  0  0  0  0  0
    3.4673   -0.6313    3.9748 H   0  0  0  0  0  0  0  0  0  0  0  0
    3.9320   -1.1968    2.3766 H   0  0  0  0  0  0  0  0  0  0  0  0
    2.5507    2.0078    0.7042 H   0  0  0  0  0  0  0  0  0  0  0  0
    2.8930   -0.9683    0.0531 H   0  0  0  0  0  0  0  0  0  0  0  0
    3.0809    0.2946   -1.1593 H   0  0  0  0  0  0  0  0  0  0  0  0
    4.2776    2.3241    3.7749 H   0  0  0  0  0  0  0  0  0  0  0  0
    6.3098   -1.2954    2.5640 H   0  0  0  0  0  0  0  0  0  0  0  0
    6.4157    3.4354    4.0683 H   0  0  0  0  0  0  0  0  0  0  0  0
    8.4717   -0.1911    3.0176 H   0  0  0  0  0  0  0  0  0  0  0  0
    8.5345    2.1845    3.7379 H   0  0  0  0  0  0  0  0  0  0  0  0
  1  8  1  0  0  0  0
  2 16  1  0  0  0  0
  3 14  1  0  0  0  0
  3 15  1  0  0  0  0
  4  3  1  0  0  0  0
  4  5  1  0  0  0  0
  4 17  1  1  0  0  0
  5  7  1  0  0  0  0
  5 18  1  0  0  0  0
  5 19  1  0  0  0  0
  6  8  1  0  0  0  0
  6 20  1  6  0  0  0
  6  4  1  0  0  0  0
  6  2  1  0  0  0  0
  7  9  2  0  0  0  0
  7 10  1  0  0  0  0
  8 21  1  0  0  0  0
  8 22  1  0  0  0  0
  9 11  1  0  0  0  0
  9 23  1  0  0  0  0
 10 12  2  0  0  0  0
 10 24  1  0  0  0  0
 11 13  2  0  0  0  0
 11 25  1  0  0  0  0
 12 13  1  0  0  0  0
 12 26  1  0  0  0  0
 13 27  1  0  0  0  0
M  END
>  <DRUGBANK_ID>
DB04415

>  <SECONDARY_ACCESSION_NUMBERS>
EXPT02589

>  <COMMON_NAME>
3-amino-1-chloro-4-phenyl-butanol-2-yl

>  <CAS_NUMBER>
160233-25-0

>  <SYNONYMS>
(2R,3S)-3-amino-1-chloro-4-phenylbutan-2-ol

$$$$
