
 OpenBabel10282417223D

 56 60  0  0  0  0  0  0  0  0999 V2000
    0.8463   -0.1056    0.0835 C   0  0  0  0  0  0  0  0  0  0  0  0
    0.4407    1.1912    0.7462 C   0  0  0  0  0  0  0  0  0  0  0  0
    1.1063    2.3496    0.4059 C   0  0  0  0  0  0  0  0  0  0  0  0
    0.6293    3.7126    0.6109 C   0  0  0  0  0  0  0  0  0  0  0  0
    0.9840    4.8310   -0.1822 C   0  0  0  0  0  0  0  0  0  0  0  0
    1.9348    4.7544   -1.1862 N   0  0  0  0  0  0  0  0  0  0  0  0
    2.2990    3.5931   -1.9688 C   0  0  0  0  0  0  0  0  0  0  0  0
    1.7115    3.4712   -3.3412 C   0  0  0  0  0  0  0  0  0  0  0  0
    2.7762    3.4872   -4.3622 N   0  0  0  0  0  0  0  0  0  0  0  0
    0.4508    4.2560   -3.7185 C   0  0  0  0  0  0  0  0  0  0  0  0
   -0.1161    3.0845   -4.3814 O   0  0  0  0  0  0  0  0  0  0  0  0
    0.7585    2.2435   -3.5736 C   0  0  0  0  0  0  0  0  0  0  0  0
    0.4592    6.1065   -0.0787 N   0  0  0  0  0  0  0  0  0  0  0  0
   -0.3633    6.4220    0.9244 C   0  0  0  0  0  0  0  0  0  0  0  0
   -0.6540    5.3922    1.8357 N   0  0  0  0  0  0  0  0  0  0  0  0
   -0.2653    3.9948    1.6190 C   0  0  0  0  0  0  0  0  0  0  0  0
   -0.6637    2.7351    2.2673 C   0  0  0  0  0  0  0  0  0  0  0  0
   -0.4982    1.3991    1.7168 C   0  0  0  0  0  0  0  0  0  0  0  0
   -0.6955    7.8918    1.1461 N   0  0  0  0  0  0  0  0  0  0  0  0
   -0.6776    9.1720   -0.0093 C   0  0  0  0  0  0  0  0  0  0  0  0
    0.1408   10.6504    0.1451 C   0  0  0  0  0  0  0  0  0  0  0  0
    1.4032   11.0919    1.3630 S   0  0  0  0  0  0  0  0  0  0  0  0
    0.7502   11.2881    2.6672 O   0  0  0  0  0  0  0  0  0  0  0  0
    2.2037   12.1656    0.8419 O   0  0  0  0  0  0  0  0  0  0  0  0
    2.4784    9.6677    1.5201 C   0  0  0  0  0  0  0  0  0  0  0  0
    3.8258    9.7424    1.1816 C   0  0  0  0  0  0  0  0  0  0  0  0
    4.5345    8.5512    0.9638 C   0  0  0  0  0  0  0  0  0  0  0  0
    3.9327    7.3096    1.1557 C   0  0  0  0  0  0  0  0  0  0  0  0
    2.6651    7.2504    1.6922 C   0  0  0  0  0  0  0  0  0  0  0  0
    1.9203    8.4148    1.8499 C   0  0  0  0  0  0  0  0  0  0  0  0
    0.4272    8.2650    2.0011 C   0  0  0  0  0  0  0  0  0  0  0  0
    0.4842   -0.1724   -0.9555 H   0  0  0  0  0  0  0  0  0  0  0  0
    0.5057   -0.9941    0.6206 H   0  0  0  0  0  0  0  0  0  0  0  0
    1.9424   -0.1700    0.0240 H   0  0  0  0  0  0  0  0  0  0  0  0
    2.0672    2.1414   -0.0407 H   0  0  0  0  0  0  0  0  0  0  0  0
    2.0336    5.6582   -1.6371 H   0  0  0  0  0  0  0  0  0  0  0  0
    3.3928    3.5175   -1.9531 H   0  0  0  0  0  0  0  0  0  0  0  0
    1.9954    2.6471   -1.5869 H   0  0  0  0  0  0  0  0  0  0  0  0
    3.5083    2.7980   -4.1712 H   0  0  0  0  0  0  0  0  0  0  0  0
    2.4757    3.3369   -5.3211 H   0  0  0  0  0  0  0  0  0  0  0  0
   -0.1868    4.5483   -2.8731 H   0  0  0  0  0  0  0  0  0  0  0  0
    0.5897    5.1086   -4.3813 H   0  0  0  0  0  0  0  0  0  0  0  0
    1.1383    1.3775   -4.1242 H   0  0  0  0  0  0  0  0  0  0  0  0
    0.2099    1.8673   -2.6957 H   0  0  0  0  0  0  0  0  0  0  0  0
   -1.1440    2.7550    3.2465 H   0  0  0  0  0  0  0  0  0  0  0  0
   -1.0643    0.5475    2.0960 H   0  0  0  0  0  0  0  0  0  0  0  0
   -1.7111    9.4127   -0.3021 H   0  0  0  0  0  0  0  0  0  0  0  0
   -0.1728    8.7340   -0.8683 H   0  0  0  0  0  0  0  0  0  0  0  0
   -0.5333   11.5333    0.1113 H   0  0  0  0  0  0  0  0  0  0  0  0
    0.6987   10.7806   -0.8029 H   0  0  0  0  0  0  0  0  0  0  0  0
    4.3286   10.6987    1.0765 H   0  0  0  0  0  0  0  0  0  0  0  0
    5.5732    8.5784    0.6511 H   0  0  0  0  0  0  0  0  0  0  0  0
    4.4352    6.3778    0.9157 H   0  0  0  0  0  0  0  0  0  0  0  0
    2.1911    6.2932    1.8737 H   0  0  0  0  0  0  0  0  0  0  0  0
    0.7598    8.4312    0.9802 H   0  0  0  0  0  0  0  0  0  0  0  0
    0.0593    9.1532    2.5078 H   0  0  0  0  0  0  0  0  0  0  0  0
  1  2  1  0  0  0  0
  1 32  1  0  0  0  0
  1 33  1  0  0  0  0
  1 34  1  0  0  0  0
  2  3  2  0  0  0  0
  2 18  1  0  0  0  0
  3  4  1  0  0  0  0
  3 35  1  0  0  0  0
  4  5  2  0  0  0  0
  4 16  1  0  0  0  0
  5  6  1  0  0  0  0
  5 13  1  0  0  0  0
  6  7  1  0  0  0  0
  6 36  1  0  0  0  0
  7  8  1  0  0  0  0
  7 37  1  0  0  0  0
  7 38  1  0  0  0  0
  8  9  1  0  0  0  0
  8 10  1  0  0  0  0
  8 12  1  0  0  0  0
  9 39  1  0  0  0  0
  9 40  1  0  0  0  0
 10 11  1  0  0  0  0
 10 41  1  0  0  0  0
 10 42  1  0  0  0  0
 11 12  1  0  0  0  0
 12 43  1  0  0  0  0
 12 44  1  0  0  0  0
 13 14  2  0  0  0  0
 14 15  1  0  0  0  0
 14 19  1  0  0  0  0
 15 16  2  0  0  0  0
 16 17  1  0  0  0  0
 17 18  2  0  0  0  0
 17 45  1  0  0  0  0
 18 46  1  0  0  0  0
 19 20  1  0  0  0  0
 19 31  1  0  0  0  0
 20 21  1  0  0  0  0
 20 47  1  0  0  0  0
 20 48  1  0  0  0  0
 21 22  1  0  0  0  0
 21 49  1  0  0  0  0
 21 50  1  0  0  0  0
 22 23  2  0  0  0  0
 22 24  2  0  0  0  0
 22 25  1  0  0  0  0
 25 26  2  0  0  0  0
 25 30  1  0  0  0  0
 26 27  1  0  0  0  0
 26 51  1  0  0  0  0
 27 28  2  0  0  0  0
 27 52  1  0  0  0  0
 28 29  1  0  0  0  0
 28 53  1  0  0  0  0
 29 30  2  0  0  0  0
 29 54  1  0  0  0  0
 30 31  1  0  0  0  0
 31 55  1  0  0  0  0
 31 56  1  0  0  0  0
M  END
>  <DRUGBANK_ID>
DB15145

>  <COMMON_NAME>
Ziresovir

>  <CAS_NUMBER>
1422500-60-4

>  <UNII>
XCF42D7AG4

>  <SYNONYMS>
Ziresovir

$$$$
