
 OpenBabel10282417143D

 20 19  0  0  1  0  0  0  0  0999 V2000
    0.9213    0.2659    0.2308 N   0  0  0  0  0  0  0  0  0  0  0  0
    0.3738    1.2544   -0.7221 C   0  0  1  0  0  0  0  0  0  0  0  0
    0.9096    1.0447   -2.1518 C   0  0  0  0  0  0  0  0  0  0  0  0
    0.3711   -0.4544   -3.0859 S   0  0  0  0  0  0  0  0  0  0  0  0
    1.0164   -1.8699   -2.1186 C   0  0  0  0  0  0  0  0  0  0  0  0
    2.5262   -1.8551   -2.0706 C   0  0  0  0  0  0  0  0  0  0  0  0
    3.0721   -1.7619   -0.8352 O   0  0  0  0  0  0  0  0  0  0  0  0
    3.2366   -1.8939   -3.0703 O   0  0  0  0  0  0  0  0  0  0  0  0
   -1.1672    1.2132   -0.6892 C   0  0  0  0  0  0  0  0  0  0  0  0
   -1.7583    2.3182   -0.1849 O   0  0  0  0  0  0  0  0  0  0  0  0
   -1.8299    0.2413   -1.0307 O   0  0  0  0  0  0  0  0  0  0  0  0
    0.4172   -0.6001    0.0519 H   0  0  0  0  0  0  0  0  0  0  0  0
    1.9114    0.1382    0.0218 H   0  0  0  0  0  0  0  0  0  0  0  0
    0.7147    2.2318   -0.3608 H   0  0  0  0  0  0  0  0  0  0  0  0
    0.5755    1.9006   -2.7534 H   0  0  0  0  0  0  0  0  0  0  0  0
    2.0057    1.0857   -2.1627 H   0  0  0  0  0  0  0  0  0  0  0  0
    0.5616   -1.9840   -1.1336 H   0  0  0  0  0  0  0  0  0  0  0  0
    0.7116   -2.7837   -2.6399 H   0  0  0  0  0  0  0  0  0  0  0  0
    2.4770   -1.8356   -0.0652 H   0  0  0  0  0  0  0  0  0  0  0  0
   -1.1541    2.9881    0.1828 H   0  0  0  0  0  0  0  0  0  0  0  0
  1 12  1  0  0  0  0
  1 13  1  0  0  0  0
  2  1  1  0  0  0  0
  2  3  1  0  0  0  0
  2  9  1  0  0  0  0
  2 14  1  1  0  0  0
  3  4  1  0  0  0  0
  3 15  1  0  0  0  0
  3 16  1  0  0  0  0
  4  5  1  0  0  0  0
  5  6  1  0  0  0  0
  5 17  1  0  0  0  0
  5 18  1  0  0  0  0
  6  7  1  0  0  0  0
  6  8  2  0  0  0  0
  7 19  1  0  0  0  0
  9 10  1  0  0  0  0
  9 11  2  0  0  0  0
 10 20  1  0  0  0  0
M  END
>  <DRUGBANK_ID>
DB04339

>  <SECONDARY_ACCESSION_NUMBERS>
EXPT00835; DB02476

>  <COMMON_NAME>
Carbocisteine

>  <CAS_NUMBER>
638-23-3

>  <UNII>
740J2QX53R

>  <SYNONYMS>
(L)-2-Amino-3-(carboxymethylthio)propionic acid; (R)-S-(carboxymethyl)cysteine; carbociste√≠na; Carbocisteine; L-3-((carboxymethyl)thio)alanine; L-carbocysteine; S-(carboxymethyl)-(R)-cysteine; S-carboxymethyl-L-cysteine; S-carboxymethylcysteine

$$$$
