
 OpenBabel10282417193D

200205  0  0  0  0  0  0  0  0999 V2000
   20.0575   -2.6271   -8.6588 Cl  0  0  0  0  0  0  0  0  0  0  0  0
   20.5917   -6.9300    4.2806 O   0  0  0  0  0  0  0  0  0  0  0  0
   23.3005   -4.9306    0.1588 O   0  0  0  0  0  0  0  0  0  0  0  0
   25.0575   -4.9483    1.1291 O   0  0  0  0  0  0  0  0  0  0  0  0
   21.5737   -9.7782    1.9402 O   0  0  0  0  0  0  0  0  0  0  0  0
   24.9365   -9.4890    2.8761 O   0  0  0  0  0  0  0  0  0  0  0  0
   20.3947   -5.6749   -0.1137 O   0  0  0  0  0  0  0  0  0  0  0  0
   22.8325   -1.5661   -1.9632 O   0  0  0  0  0  0  0  0  0  0  0  0
   24.6445   -1.0604   -2.9674 O   0  0  0  0  0  0  0  0  0  0  0  0
   24.0571   -6.5953   -2.6904 O   0  0  0  0  0  0  0  0  0  0  0  0
   26.2329  -11.0209    0.6906 O   0  0  0  0  0  0  0  0  0  0  0  0
   24.8760  -12.1288   -4.5903 O   0  0  0  0  0  0  0  0  0  0  0  0
   21.5135   -2.0842    0.6727 O   0  0  0  0  0  0  0  0  0  0  0  0
   17.5271   -4.2917   -2.0760 O   0  0  0  0  0  0  0  0  0  0  0  0
   21.4437   -0.3887   -0.4940 O   0  0  0  0  0  0  0  0  0  0  0  0
   22.6208   -7.2554    3.0430 N   0  0  0  0  0  0  0  0  0  0  0  0
   22.3518   -5.8122    1.3744 N   0  0  0  0  0  0  0  0  0  0  0  0
   22.8268   -7.3484   -0.9921 N   0  0  0  0  0  0  0  0  0  0  0  0
   24.3988   -6.6033    3.6239 N   0  0  0  0  0  0  0  0  0  0  0  0
   16.5410   -7.7395    0.4731 N   0  0  0  0  0  0  0  0  0  0  0  0
   21.8590   -7.6330    0.7238 N   0  0  0  0  0  0  0  0  0  0  0  0
   20.0696  -10.0378    0.5602 N   0  0  0  0  0  0  0  0  0  0  0  0
   22.2426   -3.9130   -1.9884 N   0  0  0  0  0  0  0  0  0  0  0  0
   15.1956   -6.7916   -1.1632 N   0  0  0  0  0  0  0  0  0  0  0  0
   14.6433   -7.1578    1.1718 N   0  0  0  0  0  0  0  0  0  0  0  0
   24.7202  -10.6259   -3.0385 N   0  0  0  0  0  0  0  0  0  0  0  0
   24.4974   -4.5637   -2.8475 N   0  0  0  0  0  0  0  0  0  0  0  0
   21.4426   -4.1328   -0.4330 N   0  0  0  0  0  0  0  0  0  0  0  0
   18.9387   -2.7958   -2.4271 N   0  0  0  0  0  0  0  0  0  0  0  0
   25.4496   -9.9567   -5.0654 N   0  0  0  0  0  0  0  0  0  0  0  0
   19.5178   -1.8106    0.5148 N   0  0  0  0  0  0  0  0  0  0  0  0
   17.2835   -4.0923    0.2737 N   0  0  0  0  0  0  0  0  0  0  0  0
   24.2228   -6.7107    1.9363 C   0  0  1  0  0  0  0  0  0  0  0  0
   25.6012   -7.6350    2.5683 C   0  0  0  0  0  0  0  0  0  0  0  0
   24.8616   -8.3771    4.3969 C   0  0  0  0  0  0  0  0  0  0  0  0
   22.9895   -7.9028    4.4385 C   0  0  0  0  0  0  0  0  0  0  0  0
   21.2423   -7.0370    3.2515 C   0  0  0  0  0  0  0  0  0  0  0  0
   20.6862   -6.5157    2.0652 C   0  0  2  0  0  0  0  0  0  0  0  0
   23.7821   -6.2540    0.0625 C   0  0  0  0  0  0  0  0  0  0  0  0
   19.7004   -7.5660    1.4761 C   0  0  0  0  0  0  0  0  0  0  0  0
   18.6792   -8.0255    2.3657 C   0  0  0  0  0  0  0  0  0  0  0  0
   22.1411   -8.6795   -0.9126 C   0  0  2  0  0  0  0  0  0  0  0  0
   23.9023   -4.8579    1.7448 C   0  0  0  0  0  0  0  0  0  0  0  0
   24.2279   -4.7081    3.0170 C   0  0  2  0  0  0  0  0  0  0  0  0
   17.5308   -7.2021    2.0733 C   0  0  0  0  0  0  0  0  0  0  0  0
   24.9832   -3.4732    2.4617 C   0  0  0  0  0  0  0  0  0  0  0  0
   21.4455   -9.7687   -2.5366 C   0  0  0  0  0  0  0  0  0  0  0  0
   24.0478   -2.4434    1.6346 C   0  0  0  0  0  0  0  0  0  0  0  0
   21.3074   -9.6936    0.6942 C   0  0  0  0  0  0  0  0  0  0  0  0
   22.9780   -8.7091    1.1802 C   0  0  1  0  0  0  0  0  0  0  0  0
   23.9412   -8.4488    2.8213 C   0  0  0  0  0  0  0  0  0  0  0  0
   22.8057   -2.1132    2.3592 C   0  0  0  0  0  0  0  0  0  0  0  0
   23.1853  -10.3805    0.2187 C   0  0  0  0  0  0  0  0  0  0  0  0
   22.5802  -10.4280   -1.1236 C   0  0  0  0  0  0  0  0  0  0  0  0
   22.9053   -5.2338   -1.3135 C   0  0  2  0  0  0  0  0  0  0  0  0
   15.3445   -7.2346    0.1274 C   0  0  0  0  0  0  0  0  0  0  0  0
   22.8379   -1.9951    3.7839 C   0  0  0  0  0  0  0  0  0  0  0  0
   23.3052   -9.1511   -2.6268 C   0  0  0  0  0  0  0  0  0  0  0  0
   21.3880   -6.2933   -0.2722 C   0  0  0  0  0  0  0  0  0  0  0  0
   24.8349   -4.9002   -0.8387 C   0  0  0  0  0  0  0  0  0  0  0  0
   24.6679   -9.2994   -2.7760 C   0  0  0  0  0  0  0  0  0  0  0  0
   23.0583   -2.7544   -1.7876 C   0  0  0  0  0  0  0  0  0  0  0  0
   25.7584   -6.5087   -0.3582 C   0  0  0  0  0  0  0  0  0  0  0  0
   24.3609   -3.1297   -1.9264 C   0  0  2  0  0  0  0  0  0  0  0  0
   20.2832   -4.1008   -2.2629 C   0  0  0  0  0  0  0  0  0  0  0  0
   24.9446   -2.4129   -2.9859 C   0  0  0  0  0  0  0  0  0  0  0  0
   25.0506   -7.7414    0.1824 C   0  0  0  0  0  0  0  0  0  0  0  0
   26.2076   -7.3473   -1.2055 C   0  0  0  0  0  0  0  0  0  0  0  0
   21.2670   -5.5020   -2.0365 C   0  0  1  0  0  0  0  0  0  0  0  0
   23.3132   -5.5566   -3.0797 C   0  0  0  0  0  0  0  0  0  0  0  0
   19.8962   -6.8479   -1.5958 C   0  0  0  0  0  0  0  0  0  0  0  0
   25.0982   -9.2952    0.6375 C   0  0  0  0  0  0  0  0  0  0  0  0
   26.6106   -8.8348   -0.7574 C   0  0  0  0  0  0  0  0  0  0  0  0
   20.8242   -2.3190   -2.0738 C   0  0  1  0  0  0  0  0  0  0  0  0
   25.0043  -10.9637   -4.2754 C   0  0  0  0  0  0  0  0  0  0  0  0
   26.1824   -9.7668    0.2507 C   0  0  0  0  0  0  0  0  0  0  0  0
   21.4178   -2.7260   -0.3607 C   0  0  0  0  0  0  0  0  0  0  0  0
   21.8269   -3.0137   -3.5804 C   0  0  0  0  0  0  0  0  0  0  0  0
   18.5321   -6.2989   -1.0537 C   0  0  0  0  0  0  0  0  0  0  0  0
   19.0770   -3.1458    0.3921 C   0  0  1  0  0  0  0  0  0  0  0  0
   18.1444   -3.3220   -1.4169 C   0  0  0  0  0  0  0  0  0  0  0  0
   20.0317   -4.3066    1.4057 C   0  0  0  0  0  0  0  0  0  0  0  0
   21.3730   -2.9697   -4.8340 C   0  0  0  0  0  0  0  0  0  0  0  0
   18.0571   -6.3804    0.1208 C   0  0  0  0  0  0  0  0  0  0  0  0
   20.8252   -4.2201    2.6555 C   0  0  0  0  0  0  0  0  0  0  0  0
   18.2858   -5.1863   -0.4236 C   0  0  0  0  0  0  0  0  0  0  0  0
   22.0770   -1.9908   -5.4559 C   0  0  0  0  0  0  0  0  0  0  0  0
   20.3640   -3.8330   -5.0589 C   0  0  0  0  0  0  0  0  0  0  0  0
   20.0626   -4.0463    3.6297 C   0  0  0  0  0  0  0  0  0  0  0  0
   21.9124   -4.8697    3.2162 C   0  0  0  0  0  0  0  0  0  0  0  0
   16.7613   -5.5180    0.9607 C   0  0  0  0  0  0  0  0  0  0  0  0
   20.6483   -4.2933    4.8252 C   0  0  0  0  0  0  0  0  0  0  0  0
   21.9147   -4.7495    5.2389 C   0  0  0  0  0  0  0  0  0  0  0  0
   21.6296   -1.9056   -6.6746 C   0  0  0  0  0  0  0  0  0  0  0  0
   19.9072   -3.6719   -6.2624 C   0  0  0  0  0  0  0  0  0  0  0  0
   20.2216   -0.7845   -0.6801 C   0  0  0  0  0  0  0  0  0  0  0  0
   22.6122   -5.1012    4.3485 C   0  0  0  0  0  0  0  0  0  0  0  0
   16.1997   -4.4822    0.5484 C   0  0  0  0  0  0  0  0  0  0  0  0
   20.5627   -2.7359   -7.0643 C   0  0  0  0  0  0  0  0  0  0  0  0
   19.8090   -4.3087    5.7517 C   0  0  0  0  0  0  0  0  0  0  0  0
   22.6146   -5.1583    6.2809 C   0  0  0  0  0  0  0  0  0  0  0  0
   19.6652   -0.7368   -2.5980 C   0  0  0  0  0  0  0  0  0  0  0  0
   20.4588   -4.3873    6.9455 C   0  0  0  0  0  0  0  0  0  0  0  0
   21.8033   -4.8028    7.2236 C   0  0  0  0  0  0  0  0  0  0  0  0
   22.5045   -5.8145    0.3624 H   0  0  0  0  0  0  0  0  0  0  0  0
   22.1641   -7.4273   -1.7667 H   0  0  0  0  0  0  0  0  0  0  0  0
   25.3748   -6.3322    3.8579 H   0  0  0  0  0  0  0  0  0  0  0  0
   16.7769   -7.1914   -0.5279 H   0  0  0  0  0  0  0  0  0  0  0  0
   21.6768   -7.8357    1.6686 H   0  0  0  0  0  0  0  0  0  0  0  0
   19.8872   -9.3488   -0.1606 H   0  0  0  0  0  0  0  0  0  0  0  0
   19.9080   -9.7741    1.5454 H   0  0  0  0  0  0  0  0  0  0  0  0
   14.2246   -6.7376   -1.4064 H   0  0  0  0  0  0  0  0  0  0  0  0
   15.8686   -6.5771   -1.9306 H   0  0  0  0  0  0  0  0  0  0  0  0
   13.7439   -6.7752    1.0946 H   0  0  0  0  0  0  0  0  0  0  0  0
   24.2555  -11.2781   -2.4071 H   0  0  0  0  0  0  0  0  0  0  0  0
   25.4171   -5.0207   -2.4675 H   0  0  0  0  0  0  0  0  0  0  0  0
   22.1189   -4.1116    0.4793 H   0  0  0  0  0  0  0  0  0  0  0  0
   18.6978   -3.4109   -3.2435 H   0  0  0  0  0  0  0  0  0  0  0  0
   25.5248   -8.9768   -4.8264 H   0  0  0  0  0  0  0  0  0  0  0  0
   25.8373  -10.1927   -5.9499 H   0  0  0  0  0  0  0  0  0  0  0  0
   20.2527   -2.2063    1.2458 H   0  0  0  0  0  0  0  0  0  0  0  0
   23.6503   -0.9806   -2.8491 H   0  0  0  0  0  0  0  0  0  0  0  0
   25.6720  -11.0740    1.5256 H   0  0  0  0  0  0  0  0  0  0  0  0
   25.2595   -6.1316    2.1792 H   0  0  0  0  0  0  0  0  0  0  0  0
   25.0389   -8.0485    1.8240 H   0  0  0  0  0  0  0  0  0  0  0  0
   26.3824   -7.9305    1.8707 H   0  0  0  0  0  0  0  0  0  0  0  0
   24.3315   -9.5441    4.3730 H   0  0  0  0  0  0  0  0  0  0  0  0
   25.8103   -7.9237    4.4943 H   0  0  0  0  0  0  0  0  0  0  0  0
   22.2267   -8.7057    4.3661 H   0  0  0  0  0  0  0  0  0  0  0  0
   23.0920   -7.2339    5.2255 H   0  0  0  0  0  0  0  0  0  0  0  0
   19.8875   -5.9638    2.5434 H   0  0  0  0  0  0  0  0  0  0  0  0
   19.4314   -8.0397    0.5401 H   0  0  0  0  0  0  0  0  0  0  0  0
   20.3181   -8.2687    1.2100 H   0  0  0  0  0  0  0  0  0  0  0  0
   18.3666   -8.9555    1.9887 H   0  0  0  0  0  0  0  0  0  0  0  0
   19.1852   -7.8219    3.2722 H   0  0  0  0  0  0  0  0  0  0  0  0
   23.4981   -8.8945   -0.9611 H   0  0  0  0  0  0  0  0  0  0  0  0
   23.3641   -4.0691    2.8002 H   0  0  0  0  0  0  0  0  0  0  0  0
   16.9944   -6.8394    2.9380 H   0  0  0  0  0  0  0  0  0  0  0  0
   18.1082   -6.0266    2.1634 H   0  0  0  0  0  0  0  0  0  0  0  0
   25.0899   -3.3242    3.4755 H   0  0  0  0  0  0  0  0  0  0  0  0
   25.8904   -3.6372    1.8819 H   0  0  0  0  0  0  0  0  0  0  0  0
   20.8166  -10.6247   -2.2040 H   0  0  0  0  0  0  0  0  0  0  0  0
   21.0755   -8.8551   -2.8255 H   0  0  0  0  0  0  0  0  0  0  0  0
   22.4206  -10.5798   -2.8722 H   0  0  0  0  0  0  0  0  0  0  0  0
   24.6531   -1.5947    1.4550 H   0  0  0  0  0  0  0  0  0  0  0  0
   23.6249   -2.6627    0.6395 H   0  0  0  0  0  0  0  0  0  0  0  0
   23.3118   -8.4325    0.3024 H   0  0  0  0  0  0  0  0  0  0  0  0
   22.4682   -1.1647    2.0076 H   0  0  0  0  0  0  0  0  0  0  0  0
   22.0640   -2.8516    2.1826 H   0  0  0  0  0  0  0  0  0  0  0  0
   24.0869  -10.5981   -0.3133 H   0  0  0  0  0  0  0  0  0  0  0  0
   22.9073  -11.0704    0.9865 H   0  0  0  0  0  0  0  0  0  0  0  0
   22.4327  -11.4566   -1.2527 H   0  0  0  0  0  0  0  0  0  0  0  0
   21.2079   -9.9533   -0.9567 H   0  0  0  0  0  0  0  0  0  0  0  0
   22.4318   -6.3986   -2.2946 H   0  0  0  0  0  0  0  0  0  0  0  0
   23.5155   -1.1792    3.8291 H   0  0  0  0  0  0  0  0  0  0  0  0
   21.8155   -1.8475    4.1125 H   0  0  0  0  0  0  0  0  0  0  0  0
   23.2407   -2.8878    4.2062 H   0  0  0  0  0  0  0  0  0  0  0  0
   22.6862   -8.7672   -3.5423 H   0  0  0  0  0  0  0  0  0  0  0  0
   23.2460   -8.0955   -2.6295 H   0  0  0  0  0  0  0  0  0  0  0  0
   24.4131   -5.5771   -1.3810 H   0  0  0  0  0  0  0  0  0  0  0  0
   24.6436   -3.9613   -0.1402 H   0  0  0  0  0  0  0  0  0  0  0  0
   25.0229   -8.4580   -3.3579 H   0  0  0  0  0  0  0  0  0  0  0  0
   24.9747   -9.2445   -1.8098 H   0  0  0  0  0  0  0  0  0  0  0  0
   24.7100   -2.6754   -0.9535 H   0  0  0  0  0  0  0  0  0  0  0  0
   19.9778   -3.6069   -1.2823 H   0  0  0  0  0  0  0  0  0  0  0  0
   19.5692   -5.0038   -2.8964 H   0  0  0  0  0  0  0  0  0  0  0  0
   19.7380   -4.8833   -1.8173 H   0  0  0  0  0  0  0  0  0  0  0  0
   25.9360   -2.7263   -2.7105 H   0  0  0  0  0  0  0  0  0  0  0  0
   24.4969   -2.9563   -3.8244 H   0  0  0  0  0  0  0  0  0  0  0  0
   23.9928   -7.5225    0.7745 H   0  0  0  0  0  0  0  0  0  0  0  0
   25.9093   -6.9851   -2.1785 H   0  0  0  0  0  0  0  0  0  0  0  0
   21.0111   -5.4909   -3.0272 H   0  0  0  0  0  0  0  0  0  0  0  0
   20.2672   -7.8469   -1.6441 H   0  0  0  0  0  0  0  0  0  0  0  0
   20.0053   -7.2276   -0.5439 H   0  0  0  0  0  0  0  0  0  0  0  0
   24.2719   -9.9681    1.5189 H   0  0  0  0  0  0  0  0  0  0  0  0
   26.8472   -9.3099   -1.6455 H   0  0  0  0  0  0  0  0  0  0  0  0
   21.2314   -1.1797   -2.1004 H   0  0  0  0  0  0  0  0  0  0  0  0
   22.3016   -4.0550   -3.7000 H   0  0  0  0  0  0  0  0  0  0  0  0
   22.7697   -2.5381   -3.6322 H   0  0  0  0  0  0  0  0  0  0  0  0
   18.6233   -3.5297    1.3920 H   0  0  0  0  0  0  0  0  0  0  0  0
   19.4980   -5.2681    1.2627 H   0  0  0  0  0  0  0  0  0  0  0  0
   20.9345   -4.6646    1.1341 H   0  0  0  0  0  0  0  0  0  0  0  0
   18.1764   -7.4853    0.1875 H   0  0  0  0  0  0  0  0  0  0  0  0
   19.1407   -4.6342   -0.4625 H   0  0  0  0  0  0  0  0  0  0  0  0
   22.8571   -1.3949   -4.9568 H   0  0  0  0  0  0  0  0  0  0  0  0
   19.9477   -4.4988   -4.3543 H   0  0  0  0  0  0  0  0  0  0  0  0
   19.0665   -4.2632    3.2955 H   0  0  0  0  0  0  0  0  0  0  0  0
   22.5684   -5.5491    2.8413 H   0  0  0  0  0  0  0  0  0  0  0  0
   16.1761   -6.0738    1.6385 H   0  0  0  0  0  0  0  0  0  0  0  0
   22.1548   -1.2116   -7.2790 H   0  0  0  0  0  0  0  0  0  0  0  0
   19.1069   -4.3216   -6.5235 H   0  0  0  0  0  0  0  0  0  0  0  0
   23.5190   -5.5652    4.6148 H   0  0  0  0  0  0  0  0  0  0  0  0
   15.2562   -4.1276    0.5995 H   0  0  0  0  0  0  0  0  0  0  0  0
   18.8343   -4.0626    5.4315 H   0  0  0  0  0  0  0  0  0  0  0  0
   23.6414   -5.5700    6.3283 H   0  0  0  0  0  0  0  0  0  0  0  0
   20.6838   -1.0233   -3.4005 H   0  0  0  0  0  0  0  0  0  0  0  0
   18.8617   -1.1914   -2.0495 H   0  0  0  0  0  0  0  0  0  0  0  0
   19.8971   -1.7745   -3.4984 H   0  0  0  0  0  0  0  0  0  0  0  0
   19.8804   -4.0046    7.7160 H   0  0  0  0  0  0  0  0  0  0  0  0
   22.2544   -4.8057    8.1698 H   0  0  0  0  0  0  0  0  0  0  0  0
  1 99  1  0  0  0  0
  2 37  2  0  0  0  0
  3 39  2  0  0  0  0
  4 43  2  0  0  0  0
  5 49  2  0  0  0  0
  6 51  2  0  0  0  0
  7 59  2  0  0  0  0
  8 62  2  0  0  0  0
  9 66  1  0  0  0  0
  9122  1  0  0  0  0
 10 70  2  0  0  0  0
 11 76  1  0  0  0  0
 11123  1  0  0  0  0
 12 75  2  0  0  0  0
 13 77  2  0  0  0  0
 14 81  2  0  0  0  0
 15 96  2  0  0  0  0
 16 33  1  0  0  0  0
 16 36  1  0  0  0  0
 16 37  1  0  0  0  0
 17 43  1  0  0  0  0
 17105  1  0  0  0  0
 18 39  1  0  0  0  0
 18106  1  0  0  0  0
 19 51  1  0  0  0  0
 19107  1  0  0  0  0
 20 45  1  0  0  0  0
 20 56  1  0  0  0  0
 20108  1  0  0  0  0
 21 59  1  0  0  0  0
 21109  1  0  0  0  0
 22 49  1  0  0  0  0
 22110  1  0  0  0  0
 22111  1  0  0  0  0
 23 62  1  0  0  0  0
 23 65  1  0  0  0  0
 24 56  1  0  0  0  0
 24112  1  0  0  0  0
 24113  1  0  0  0  0
 25 56  2  0  0  0  0
 25114  1  0  0  0  0
 26 61  1  0  0  0  0
 26 75  1  0  0  0  0
 26115  1  0  0  0  0
 27 70  1  0  0  0  0
 27116  1  0  0  0  0
 28 77  1  0  0  0  0
 28117  1  0  0  0  0
 29 81  1  0  0  0  0
 29118  1  0  0  0  0
 30 75  1  0  0  0  0
 30119  1  0  0  0  0
 30120  1  0  0  0  0
 31 96  1  0  0  0  0
 31121  1  0  0  0  0
 32 86  1  0  0  0  0
 32 98  2  0  0  0  0
 33 34  1  0  0  0  0
 33124  1  1  0  0  0
 33 39  1  0  0  0  0
 34 35  1  0  0  0  0
 34125  1  0  0  0  0
 34126  1  0  0  0  0
 35 36  1  0  0  0  0
 35127  1  0  0  0  0
 35128  1  0  0  0  0
 36129  1  0  0  0  0
 36130  1  0  0  0  0
 38 40  1  0  0  0  0
 38131  1  1  0  0  0
 38 37  1  0  0  0  0
 38 17  1  0  0  0  0
 40 41  1  0  0  0  0
 40132  1  0  0  0  0
 40133  1  0  0  0  0
 41 45  1  0  0  0  0
 41134  1  0  0  0  0
 41135  1  0  0  0  0
 42 49  1  0  0  0  0
 42136  1  1  0  0  0
 42 47  1  0  0  0  0
 42 18  1  0  0  0  0
 44 46  1  0  0  0  0
 44137  1  1  0  0  0
 44 43  1  0  0  0  0
 44 19  1  0  0  0  0
 45138  1  0  0  0  0
 45139  1  0  0  0  0
 46 48  1  0  0  0  0
 46140  1  0  0  0  0
 46141  1  0  0  0  0
 47142  1  0  0  0  0
 47143  1  0  0  0  0
 47144  1  0  0  0  0
 48 52  1  0  0  0  0
 48145  1  0  0  0  0
 48146  1  0  0  0  0
 50 21  1  0  0  0  0
 50 51  1  0  0  0  0
 50 53  1  0  0  0  0
 50147  1  6  0  0  0
 52 57  1  0  0  0  0
 52148  1  0  0  0  0
 52149  1  0  0  0  0
 53 54  1  0  0  0  0
 53150  1  0  0  0  0
 53151  1  0  0  0  0
 54 58  1  0  0  0  0
 54152  1  0  0  0  0
 54153  1  0  0  0  0
 55 60  1  0  0  0  0
 55154  1  6  0  0  0
 55 59  1  0  0  0  0
 55 23  1  0  0  0  0
 57155  1  0  0  0  0
 57156  1  0  0  0  0
 57157  1  0  0  0  0
 58 61  1  0  0  0  0
 58158  1  0  0  0  0
 58159  1  0  0  0  0
 60 63  1  0  0  0  0
 60160  1  0  0  0  0
 60161  1  0  0  0  0
 61162  1  0  0  0  0
 61163  1  0  0  0  0
 63 67  2  0  0  0  0
 63 68  1  0  0  0  0
 64 66  1  0  0  0  0
 64164  1  1  0  0  0
 64 62  1  0  0  0  0
 64 27  1  0  0  0  0
 65165  1  0  0  0  0
 65166  1  0  0  0  0
 65167  1  0  0  0  0
 66168  1  0  0  0  0
 66169  1  0  0  0  0
 67 72  1  0  0  0  0
 67170  1  0  0  0  0
 68 73  2  0  0  0  0
 68171  1  0  0  0  0
 69 28  1  0  0  0  0
 69 70  1  0  0  0  0
 69 71  1  0  0  0  0
 69172  1  6  0  0  0
 71 79  1  0  0  0  0
 71173  1  0  0  0  0
 71174  1  0  0  0  0
 72 76  2  0  0  0  0
 72175  1  0  0  0  0
 73 76  1  0  0  0  0
 73176  1  0  0  0  0
 74 29  1  0  0  0  0
 74 77  1  0  0  0  0
 74 78  1  0  0  0  0
 74177  1  6  0  0  0
 78 83  1  0  0  0  0
 78178  1  0  0  0  0
 78179  1  0  0  0  0
 79 84  1  0  0  0  0
 79 86  2  0  0  0  0
 80 82  1  0  0  0  0
 80180  1  1  0  0  0
 80 81  1  0  0  0  0
 80 31  1  0  0  0  0
 82 85  1  0  0  0  0
 82181  1  0  0  0  0
 82182  1  0  0  0  0
 83 87  2  0  0  0  0
 83 88  1  0  0  0  0
 84 91  2  0  0  0  0
 84183  1  0  0  0  0
 85 89  2  0  0  0  0
 85 90  1  0  0  0  0
 86184  1  0  0  0  0
 87 94  1  0  0  0  0
 87185  1  0  0  0  0
 88 95  2  0  0  0  0
 88186  1  0  0  0  0
 89 92  1  0  0  0  0
 89187  1  0  0  0  0
 90 97  2  0  0  0  0
 90188  1  0  0  0  0
 91 98  1  0  0  0  0
 91189  1  0  0  0  0
 92 93  1  0  0  0  0
 92100  2  0  0  0  0
 93 97  1  0  0  0  0
 93101  2  0  0  0  0
 94 99  2  0  0  0  0
 94190  1  0  0  0  0
 95 99  1  0  0  0  0
 95191  1  0  0  0  0
 96102  1  0  0  0  0
 97192  1  0  0  0  0
 98193  1  0  0  0  0
100103  1  0  0  0  0
100194  1  0  0  0  0
101104  1  0  0  0  0
101195  1  0  0  0  0
102196  1  0  0  0  0
102197  1  0  0  0  0
102198  1  0  0  0  0
103104  2  0  0  0  0
103199  1  0  0  0  0
104200  1  0  0  0  0
M  END
>  <DRUGBANK_ID>
DB12581

>  <SECONDARY_ACCESSION_NUMBERS>
DB05603

>  <COMMON_NAME>
Ozarelix

>  <CAS_NUMBER>
295350-45-7

>  <UNII>
Q1IF8M2YL3

>  <SYNONYMS>
Ozarélix; Ozarelix; Ozarelixum

$$$$
