
 OpenBabel10282417173D

 50 54  0  0  0  0  0  0  0  0999 V2000
    2.4148    0.7035   -0.0024 C   0  0  0  0  0  0  0  0  0  0  0  0
    2.4567   -0.6849    0.0009 C   0  0  0  0  0  0  0  0  0  0  0  0
    1.2672   -1.4127    0.0131 C   0  0  0  0  0  0  0  0  0  0  0  0
    1.1821    1.3624    0.0358 C   0  0  0  0  0  0  0  0  0  0  0  0
   -0.0154    0.6590    0.1027 C   0  0  0  0  0  0  0  0  0  0  0  0
    0.0294   -0.7456    0.0640 C   0  0  0  0  0  0  0  0  0  0  0  0
   -1.1855   -1.4474    0.0740 C   0  0  0  0  0  0  0  0  0  0  0  0
   -2.3888   -0.7489    0.1359 C   0  0  0  0  0  0  0  0  0  0  0  0
   -2.3465    0.6406    0.1754 C   0  0  0  0  0  0  0  0  0  0  0  0
   -1.1756    1.3377    0.1769 N   0  0  0  0  0  0  0  0  0  0  0  0
   -3.6126    1.4517   -0.0222 C   0  0  0  0  0  0  0  0  0  0  0  0
   -4.3873    1.1526   -1.2060 O   0  0  0  0  0  0  0  0  0  0  0  0
   -3.8094    1.3978   -2.4245 C   0  0  0  0  0  0  0  0  0  0  0  0
   -4.6191    1.9318   -3.4281 C   0  0  0  0  0  0  0  0  0  0  0  0
   -4.1181    2.1005   -4.7307 C   0  0  0  0  0  0  0  0  0  0  0  0
   -2.7897    1.7775   -5.0230 C   0  0  0  0  0  0  0  0  0  0  0  0
   -1.9944    1.2207   -4.0309 C   0  0  0  0  0  0  0  0  0  0  0  0
   -2.5143    1.0166   -2.7623 C   0  0  0  0  0  0  0  0  0  0  0  0
   -2.2066    1.9845   -6.3370 C   0  0  0  0  0  0  0  0  0  0  0  0
   -1.5939    0.9995   -7.1654 C   0  0  0  0  0  0  0  0  0  0  0  0
   -1.0903    1.6998   -8.2387 C   0  0  0  0  0  0  0  0  0  0  0  0
   -1.3812    3.0109   -7.9970 N   0  0  0  0  0  0  0  0  0  0  0  0
   -2.0917    3.2092   -6.8729 N   0  0  0  0  0  0  0  0  0  0  0  0
   -1.4742   -0.4318   -6.9785 C   0  0  0  0  0  0  0  0  0  0  0  0
   -0.2223   -1.0364   -6.8777 C   0  0  0  0  0  0  0  0  0  0  0  0
   -0.1740   -2.4023   -6.6526 C   0  0  0  0  0  0  0  0  0  0  0  0
   -1.2677   -3.1852   -6.5311 N   0  0  0  0  0  0  0  0  0  0  0  0
   -2.4669   -2.5714   -6.6224 C   0  0  0  0  0  0  0  0  0  0  0  0
   -2.6212   -1.2123   -6.8327 C   0  0  0  0  0  0  0  0  0  0  0  0
   -0.9666    4.1488   -8.7824 C   0  0  0  0  0  0  0  0  0  0  0  0
    3.3358    1.2810   -0.0243 H   0  0  0  0  0  0  0  0  0  0  0  0
    3.4122   -1.2033   -0.0046 H   0  0  0  0  0  0  0  0  0  0  0  0
    1.3084   -2.4979   -0.0007 H   0  0  0  0  0  0  0  0  0  0  0  0
    1.1544    2.4484    0.0169 H   0  0  0  0  0  0  0  0  0  0  0  0
   -1.2018   -2.5302   -0.0064 H   0  0  0  0  0  0  0  0  0  0  0  0
   -3.3358   -1.2747    0.0600 H   0  0  0  0  0  0  0  0  0  0  0  0
   -4.2632    1.2414    0.8362 H   0  0  0  0  0  0  0  0  0  0  0  0
   -3.3990    2.5272    0.0071 H   0  0  0  0  0  0  0  0  0  0  0  0
   -5.6431    2.2212   -3.2074 H   0  0  0  0  0  0  0  0  0  0  0  0
   -4.7679    2.4703   -5.5190 H   0  0  0  0  0  0  0  0  0  0  0  0
   -0.9670    0.9205   -4.2212 H   0  0  0  0  0  0  0  0  0  0  0  0
   -1.8453    0.5170   -2.0870 H   0  0  0  0  0  0  0  0  0  0  0  0
   -0.5535    1.3862   -9.1224 H   0  0  0  0  0  0  0  0  0  0  0  0
    0.6944   -0.4614   -6.9440 H   0  0  0  0  0  0  0  0  0  0  0  0
    0.7761   -2.9196   -6.5544 H   0  0  0  0  0  0  0  0  0  0  0  0
   -3.3310   -3.2211   -6.5168 H   0  0  0  0  0  0  0  0  0  0  0  0
   -3.6141   -0.7775   -6.8750 H   0  0  0  0  0  0  0  0  0  0  0  0
   -1.8488    4.7405   -9.0383 H   0  0  0  0  0  0  0  0  0  0  0  0
   -0.2673    4.7414   -8.1861 H   0  0  0  0  0  0  0  0  0  0  0  0
   -0.4734    3.8010   -9.6934 H   0  0  0  0  0  0  0  0  0  0  0  0
  1  2  2  0  0  0  0
  1 31  1  0  0  0  0
  2  3  1  0  0  0  0
  2 32  1  0  0  0  0
  3  6  2  0  0  0  0
  3 33  1  0  0  0  0
  4  1  1  0  0  0  0
  4 34  1  0  0  0  0
  5  4  2  0  0  0  0
  5  6  1  0  0  0  0
  6  7  1  0  0  0  0
  7  8  2  0  0  0  0
  7 35  1  0  0  0  0
  8  9  1  0  0  0  0
  8 36  1  0  0  0  0
  9 10  2  0  0  0  0
  9 11  1  0  0  0  0
 10  5  1  0  0  0  0
 11 12  1  0  0  0  0
 11 37  1  0  0  0  0
 11 38  1  0  0  0  0
 12 13  1  0  0  0  0
 13 14  2  0  0  0  0
 14 15  1  0  0  0  0
 14 39  1  0  0  0  0
 15 16  2  0  0  0  0
 15 40  1  0  0  0  0
 16 17  1  0  0  0  0
 16 19  1  0  0  0  0
 17 18  2  0  0  0  0
 17 41  1  0  0  0  0
 18 13  1  0  0  0  0
 18 42  1  0  0  0  0
 19 20  1  0  0  0  0
 20 21  2  0  0  0  0
 20 24  1  0  0  0  0
 21 22  1  0  0  0  0
 21 43  1  0  0  0  0
 22 23  1  0  0  0  0
 22 30  1  0  0  0  0
 23 19  2  0  0  0  0
 24 25  2  0  0  0  0
 25 26  1  0  0  0  0
 25 44  1  0  0  0  0
 26 27  2  0  0  0  0
 26 45  1  0  0  0  0
 27 28  1  0  0  0  0
 28 29  2  0  0  0  0
 28 46  1  0  0  0  0
 29 24  1  0  0  0  0
 29 47  1  0  0  0  0
 30 48  1  0  0  0  0
 30 49  1  0  0  0  0
 30 50  1  0  0  0  0
M  END
>  <DRUGBANK_ID>
DB08387

>  <COMMON_NAME>
Mardepodect

>  <CAS_NUMBER>
898562-94-2

>  <UNII>
R9Y8EY0G42

>  <SYNONYMS>
2-[4-(1-Methyl-4-pyridin-4-yl-lH-pyrazol-3-yl)-phenoxymethyl]-quinoline succinic acid; Mardepodect

$$$$
