A56
 OpenBabel10282417163D

 29 31  0  0  0  0  0  0  0  0999 V2000
    3.8676   -1.2405   -0.0022 C   0  0  0  0  0  0  0  0  0  0  0  0
    2.5069   -1.5590    0.0091 C   0  0  0  0  0  0  0  0  0  0  0  0
    1.5286   -0.5452    0.0079 C   0  0  0  0  0  0  0  0  0  0  0  0
    1.9400    0.8041   -0.0032 C   0  0  0  0  0  0  0  0  0  0  0  0
    3.3105    1.1058   -0.0112 C   0  0  0  0  0  0  0  0  0  0  0  0
    4.2682    0.0914   -0.0107 C   0  0  0  0  0  0  0  0  0  0  0  0
    0.1531   -0.8303    0.0143 C   0  0  0  0  0  0  0  0  0  0  0  0
   -0.8001    0.2023    0.0202 C   0  0  0  0  0  0  0  0  0  0  0  0
   -0.4097    1.5522    0.0204 C   0  0  0  0  0  0  0  0  0  0  0  0
    0.9727    1.8258   -0.0024 C   0  0  0  0  0  0  0  0  0  0  0  0
   -2.6316   -0.3254   -0.0254 Br  0  0  0  0  0  0  0  0  0  0  0  0
   -1.3655    2.6664    0.0461 C   0  0  0  0  0  0  0  0  0  0  0  0
   -1.3333    3.5243   -0.9734 N   0  0  0  0  0  0  0  0  0  0  0  0
   -2.2429    4.4839   -0.9094 C   0  0  0  0  0  0  0  0  0  0  0  0
   -3.1188    4.6396    0.0702 N   0  0  0  0  0  0  0  0  0  0  0  0
   -3.0397    3.7528    1.0497 C   0  0  0  0  0  0  0  0  0  0  0  0
   -2.1773    2.7520    1.0975 N   0  0  0  0  0  0  0  0  0  0  0  0
   -3.9138    3.8792    2.0899 N   0  0  0  0  0  0  0  0  0  0  0  0
   -2.2775    5.3911   -1.9301 N   0  0  0  0  0  0  0  0  0  0  0  0
    4.6149   -2.0305   -0.0038 H   0  0  0  0  0  0  0  0  0  0  0  0
    2.2180   -2.6083    0.0206 H   0  0  0  0  0  0  0  0  0  0  0  0
    3.6437    2.1412   -0.0164 H   0  0  0  0  0  0  0  0  0  0  0  0
    5.3253    0.3451   -0.0161 H   0  0  0  0  0  0  0  0  0  0  0  0
   -0.1819   -1.8660    0.0099 H   0  0  0  0  0  0  0  0  0  0  0  0
    1.3010    2.8653   -0.0100 H   0  0  0  0  0  0  0  0  0  0  0  0
   -4.5577    4.6511    2.0807 H   0  0  0  0  0  0  0  0  0  0  0  0
   -3.8410    3.2279    2.8522 H   0  0  0  0  0  0  0  0  0  0  0  0
   -2.9886    6.1018   -1.9068 H   0  0  0  0  0  0  0  0  0  0  0  0
   -1.6375    5.2746   -2.6956 H   0  0  0  0  0  0  0  0  0  0  0  0
  1  6  2  0  0  0  0
  1  2  1  0  0  0  0
  1 20  1  0  0  0  0
  2  3  2  0  0  0  0
  2 21  1  0  0  0  0
  3  4  1  0  0  0  0
  3  7  1  0  0  0  0
  4 10  1  0  0  0  0
  4  5  2  0  0  0  0
  5  6  1  0  0  0  0
  5 22  1  0  0  0  0
  6 23  1  0  0  0  0
  7  8  2  0  0  0  0
  7 24  1  0  0  0  0
  8  9  1  0  0  0  0
  8 11  1  0  0  0  0
  9 12  1  0  0  0  0
  9 10  2  0  0  0  0
 10 25  1  0  0  0  0
 12 17  2  0  0  0  0
 12 13  1  0  0  0  0
 13 14  2  0  0  0  0
 14 15  1  0  0  0  0
 14 19  1  0  0  0  0
 15 16  2  0  0  0  0
 16 18  1  0  0  0  0
 16 17  1  0  0  0  0
 18 26  1  0  0  0  0
 18 27  1  0  0  0  0
 19 28  1  0  0  0  0
 19 29  1  0  0  0  0
M  END
>  <DRUGBANK_ID>
DB07319

>  <COMMON_NAME>
6-(3-BROMO-2-NAPHTHYL)-1,3,5-TRIAZINE-2,4-DIAMINE

$$$$
