BZN
 OpenBabel10282417163D

 61 63  0  0  0  0  0  0  0  0999 V2000
   -0.9624   -0.4598   -0.4104 C   0  0  0  0  0  0  0  0  0  0  0  0
    0.2936   -0.9999    0.2181 C   0  0  1  0  0  0  0  0  0  0  0  0
    1.1879    0.1902   -0.1176 C   0  0  2  0  0  0  0  0  0  0  0  0
    0.2830    1.4220    0.0386 C   0  0  0  0  0  0  0  0  0  0  0  0
    1.6160    0.1391   -1.5749 C   0  0  0  0  0  0  0  0  0  0  0  0
   -1.0726    0.9043    0.0599 N   0  0  0  0  0  0  0  0  0  0  0  0
    0.3489   -1.3425    1.6880 C   0  0  0  0  0  0  0  0  0  0  0  0
   -0.4768   -2.5511    2.0360 N   0  0  0  0  0  0  0  0  0  0  0  0
   -0.2763   -2.9047    3.4881 C   0  0  0  0  0  0  0  0  0  0  0  0
   -0.7262   -1.7809    4.4382 C   0  0  0  0  0  0  0  0  0  0  0  0
   -2.1600   -1.4215    4.1679 C   0  0  0  0  0  0  0  0  0  0  0  0
   -0.6122   -2.1220    5.9029 C   0  0  0  0  0  0  0  0  0  0  0  0
   -2.0430   -2.7137    1.2496 S   0  0  0  0  0  0  0  0  0  0  0  0
   -2.9171   -1.6130    1.5318 O   0  0  0  0  0  0  0  0  0  0  0  0
   -1.7989   -3.0875   -0.1497 O   0  0  0  0  0  0  0  0  0  0  0  0
   -2.8006   -4.1073    1.9103 C   0  0  0  0  0  0  0  0  0  0  0  0
   -2.2150   -5.3079    1.5550 C   0  0  0  0  0  0  0  0  0  0  0  0
   -2.8480   -6.4656    1.9200 C   0  0  0  0  0  0  0  0  0  0  0  0
   -4.0308   -6.3947    2.6622 C   0  0  0  0  0  0  0  0  0  0  0  0
   -4.5975   -5.1701    3.0330 C   0  0  0  0  0  0  0  0  0  0  0  0
   -4.0116   -4.0011    2.5968 C   0  0  0  0  0  0  0  0  0  0  0  0
    1.7067   -1.1565   -2.1478 O   0  0  0  0  0  0  0  0  0  0  0  0
    2.4418   -2.1487   -1.4483 C   0  0  0  0  0  0  0  0  0  0  0  0
    3.9115   -1.9635   -1.5154 C   0  0  0  0  0  0  0  0  0  0  0  0
    4.6966   -3.0248   -1.0801 C   0  0  0  0  0  0  0  0  0  0  0  0
    6.0742   -2.8998   -1.1260 C   0  0  0  0  0  0  0  0  0  0  0  0
    6.6633   -1.7100   -1.5628 C   0  0  0  0  0  0  0  0  0  0  0  0
    5.8853   -0.6387   -1.9495 C   0  0  0  0  0  0  0  0  0  0  0  0
    4.5217   -0.7718   -1.9098 C   0  0  0  0  0  0  0  0  0  0  0  0
    0.4805   -1.9500   -0.2736 H   0  0  0  0  0  0  0  0  0  0  0  0
    2.0781    0.2829    0.5217 H   0  0  0  0  0  0  0  0  0  0  0  0
   -0.9334   -0.6262   -1.4936 H   0  0  0  0  0  0  0  0  0  0  0  0
   -1.8772   -0.8944   -0.1209 H   0  0  0  0  0  0  0  0  0  0  0  0
    0.4807    1.9785    0.9558 H   0  0  0  0  0  0  0  0  0  0  0  0
    0.3490    2.1146   -0.8055 H   0  0  0  0  0  0  0  0  0  0  0  0
    0.9852    0.7239   -2.2534 H   0  0  0  0  0  0  0  0  0  0  0  0
    2.5357    0.7039   -1.5870 H   0  0  0  0  0  0  0  0  0  0  0  0
   -1.4074    0.8355    1.0245 H   0  0  0  0  0  0  0  0  0  0  0  0
    1.3988   -1.5794    1.9595 H   0  0  0  0  0  0  0  0  0  0  0  0
    0.0811   -0.4765    2.2914 H   0  0  0  0  0  0  0  0  0  0  0  0
   -0.7442   -3.8679    3.7101 H   0  0  0  0  0  0  0  0  0  0  0  0
    0.8014   -3.0844    3.6513 H   0  0  0  0  0  0  0  0  0  0  0  0
   -0.1176   -0.8861    4.2687 H   0  0  0  0  0  0  0  0  0  0  0  0
   -2.7779   -2.3225    4.1690 H   0  0  0  0  0  0  0  0  0  0  0  0
   -2.6141   -0.6826    4.8206 H   0  0  0  0  0  0  0  0  0  0  0  0
   -2.1261   -0.9112    3.2218 H   0  0  0  0  0  0  0  0  0  0  0  0
    0.4310   -2.2523    6.1943 H   0  0  0  0  0  0  0  0  0  0  0  0
   -1.0317   -1.2927    6.4854 H   0  0  0  0  0  0  0  0  0  0  0  0
   -1.1817   -3.0254    6.1334 H   0  0  0  0  0  0  0  0  0  0  0  0
   -1.3093   -5.3057    0.9495 H   0  0  0  0  0  0  0  0  0  0  0  0
   -2.4175   -7.4085    1.6088 H   0  0  0  0  0  0  0  0  0  0  0  0
   -4.5319   -7.3148    2.9343 H   0  0  0  0  0  0  0  0  0  0  0  0
   -5.4987   -5.1287    3.6367 H   0  0  0  0  0  0  0  0  0  0  0  0
   -4.4933   -3.0378    2.7714 H   0  0  0  0  0  0  0  0  0  0  0  0
    2.2494   -2.2095   -0.3742 H   0  0  0  0  0  0  0  0  0  0  0  0
    2.1320   -3.1196   -1.8605 H   0  0  0  0  0  0  0  0  0  0  0  0
    4.2274   -3.9401   -0.7203 H   0  0  0  0  0  0  0  0  0  0  0  0
    6.6886   -3.7429   -0.8394 H   0  0  0  0  0  0  0  0  0  0  0  0
    7.7374   -1.6093   -1.6166 H   0  0  0  0  0  0  0  0  0  0  0  0
    6.2929    0.2959   -2.3181 H   0  0  0  0  0  0  0  0  0  0  0  0
    3.9971    0.1043   -2.2404 H   0  0  0  0  0  0  0  0  0  0  0  0
  1  2  1  0  0  0  0
  1  6  1  0  0  0  0
  1 32  1  0  0  0  0
  1 33  1  0  0  0  0
  2  3  1  0  0  0  0
  2  7  1  0  0  0  0
  2 30  1  6  0  0  0
  3  4  1  0  0  0  0
  3 31  1  1  0  0  0
  3  5  1  0  0  0  0
  4  6  1  0  0  0  0
  4 34  1  0  0  0  0
  4 35  1  0  0  0  0
  5 22  1  0  0  0  0
  5 36  1  0  0  0  0
  5 37  1  0  0  0  0
  6 38  1  0  0  0  0
  7  8  1  0  0  0  0
  7 39  1  0  0  0  0
  7 40  1  0  0  0  0
  8  9  1  0  0  0  0
  8 13  1  0  0  0  0
  9 10  1  0  0  0  0
  9 41  1  0  0  0  0
  9 42  1  0  0  0  0
 10 11  1  0  0  0  0
 10 12  1  0  0  0  0
 10 43  1  0  0  0  0
 11 44  1  0  0  0  0
 11 45  1  0  0  0  0
 11 46  1  0  0  0  0
 12 47  1  0  0  0  0
 12 48  1  0  0  0  0
 12 49  1  0  0  0  0
 13 14  2  0  0  0  0
 13 15  2  0  0  0  0
 13 16  1  0  0  0  0
 16 17  2  0  0  0  0
 16 21  1  0  0  0  0
 17 18  1  0  0  0  0
 17 50  1  0  0  0  0
 18 19  2  0  0  0  0
 18 51  1  0  0  0  0
 19 20  1  0  0  0  0
 19 52  1  0  0  0  0
 20 21  2  0  0  0  0
 20 53  1  0  0  0  0
 21 54  1  0  0  0  0
 22 23  1  0  0  0  0
 23 24  1  0  0  0  0
 23 55  1  0  0  0  0
 23 56  1  0  0  0  0
 24 25  2  0  0  0  0
 24 29  1  0  0  0  0
 25 26  1  0  0  0  0
 25 57  1  0  0  0  0
 26 27  2  0  0  0  0
 26 58  1  0  0  0  0
 27 28  1  0  0  0  0
 27 59  1  0  0  0  0
 28 29  2  0  0  0  0
 28 60  1  0  0  0  0
 29 61  1  0  0  0  0
M  END
>  <DRUGBANK_ID>
DB07505

>  <COMMON_NAME>
N-({(3R,4R)-4-[(benzyloxy)methyl]pyrrolidin-3-yl}methyl)-N-(2-methylpropyl)benzenesulfonamide

$$$$
