S79
 OpenBabel10282417173D

 43 47  0  0  0  0  0  0  0  0999 V2000
    0.8748   -0.1051   -0.2821 N   0  0  0  0  0  0  0  0  0  0  0  0
    0.1915    0.6585   -1.1754 C   0  0  0  0  0  0  0  0  0  0  0  0
   -0.8746    1.3031   -0.8434 N   0  0  0  0  0  0  0  0  0  0  0  0
   -1.6098    1.9602   -1.8496 C   0  0  0  0  0  0  0  0  0  0  0  0
   -2.7607    2.6195   -1.4395 C   0  0  0  0  0  0  0  0  0  0  0  0
   -3.6691    2.9976   -2.4180 C   0  0  0  0  0  0  0  0  0  0  0  0
   -4.9448    3.4498   -2.2858 N   0  0  0  0  0  0  0  0  0  0  0  0
   -5.4928    3.6453   -3.5183 C   0  0  0  0  0  0  0  0  0  0  0  0
   -6.7731    4.0698   -3.6286 N   0  0  0  0  0  0  0  0  0  0  0  0
   -7.6880    4.3061   -2.5162 C   0  0  0  0  0  0  0  0  0  0  0  0
   -8.2173    5.7280   -2.5236 C   0  0  0  0  0  0  0  0  0  0  0  0
   -9.6071    6.0339   -2.5254 C   0  0  0  0  0  0  0  0  0  0  0  0
  -10.6257    5.0562   -2.5104 C   0  0  0  0  0  0  0  0  0  0  0  0
  -11.9672    5.3961   -2.3464 C   0  0  0  0  0  0  0  0  0  0  0  0
  -12.3457    6.7289   -2.3444 C   0  0  0  0  0  0  0  0  0  0  0  0
  -11.3793    7.7206   -2.4940 C   0  0  0  0  0  0  0  0  0  0  0  0
  -10.0134    7.3952   -2.5080 C   0  0  0  0  0  0  0  0  0  0  0  0
   -9.0530    8.4152   -2.4680 C   0  0  0  0  0  0  0  0  0  0  0  0
   -7.6975    8.1101   -2.4028 C   0  0  0  0  0  0  0  0  0  0  0  0
   -7.2848    6.7807   -2.4256 C   0  0  0  0  0  0  0  0  0  0  0  0
   -4.5932    3.3726   -4.4513 N   0  0  0  0  0  0  0  0  0  0  0  0
   -3.4461    2.9289   -3.7823 C   0  0  0  0  0  0  0  0  0  0  0  0
   -2.1822    2.4401   -4.2071 C   0  0  0  0  0  0  0  0  0  0  0  0
   -1.3062    1.8984   -3.2149 C   0  0  0  0  0  0  0  0  0  0  0  0
   -0.0438    1.1848   -3.5308 C   0  0  0  0  0  0  0  0  0  0  0  0
    0.3516    1.0246   -4.6872 O   0  0  0  0  0  0  0  0  0  0  0  0
    0.6517    0.6588   -2.4585 N   0  0  0  0  0  0  0  0  0  0  0  0
    0.4382   -0.2229    0.6271 H   0  0  0  0  0  0  0  0  0  0  0  0
    1.8854   -0.0524   -0.2493 H   0  0  0  0  0  0  0  0  0  0  0  0
   -2.9835    2.7417   -0.3882 H   0  0  0  0  0  0  0  0  0  0  0  0
   -5.4170    3.5471   -1.4067 H   0  0  0  0  0  0  0  0  0  0  0  0
   -7.1724    4.2089   -4.5532 H   0  0  0  0  0  0  0  0  0  0  0  0
   -8.4823    3.5605   -2.5765 H   0  0  0  0  0  0  0  0  0  0  0  0
   -7.2465    4.1416   -1.5264 H   0  0  0  0  0  0  0  0  0  0  0  0
  -10.4047    3.9986   -2.6002 H   0  0  0  0  0  0  0  0  0  0  0  0
  -12.7087    4.6109   -2.2293 H   0  0  0  0  0  0  0  0  0  0  0  0
  -13.3919    6.9962   -2.2295 H   0  0  0  0  0  0  0  0  0  0  0  0
  -11.7020    8.7570   -2.5681 H   0  0  0  0  0  0  0  0  0  0  0  0
   -9.3570    9.4602   -2.4457 H   0  0  0  0  0  0  0  0  0  0  0  0
   -6.9630    8.9085   -2.3319 H   0  0  0  0  0  0  0  0  0  0  0  0
   -6.2201    6.5615   -2.3655 H   0  0  0  0  0  0  0  0  0  0  0  0
   -1.9184    2.4270   -5.2617 H   0  0  0  0  0  0  0  0  0  0  0  0
    1.4493    0.0834   -2.6752 H   0  0  0  0  0  0  0  0  0  0  0  0
  1 28  1  0  0  0  0
  1 29  1  0  0  0  0
  2 27  1  0  0  0  0
  2  1  1  0  0  0  0
  3  2  2  0  0  0  0
  4 24  1  0  0  0  0
  4  3  1  0  0  0  0
  5  4  2  0  0  0  0
  5 30  1  0  0  0  0
  6 22  2  0  0  0  0
  6  5  1  0  0  0  0
  7  6  1  0  0  0  0
  7 31  1  0  0  0  0
  8  7  1  0  0  0  0
  8 21  2  0  0  0  0
  9  8  1  0  0  0  0
  9 32  1  0  0  0  0
 10  9  1  0  0  0  0
 10 33  1  0  0  0  0
 10 34  1  0  0  0  0
 11 12  1  0  0  0  0
 11 10  1  0  0  0  0
 12 13  2  0  0  0  0
 13 14  1  0  0  0  0
 13 35  1  0  0  0  0
 14 36  1  0  0  0  0
 15 14  2  0  0  0  0
 15 37  1  0  0  0  0
 16 15  1  0  0  0  0
 16 38  1  0  0  0  0
 17 16  2  0  0  0  0
 17 12  1  0  0  0  0
 18 17  1  0  0  0  0
 18 39  1  0  0  0  0
 19 18  2  0  0  0  0
 19 20  1  0  0  0  0
 19 40  1  0  0  0  0
 20 11  2  0  0  0  0
 20 41  1  0  0  0  0
 21 22  1  0  0  0  0
 22 23  1  0  0  0  0
 23 24  2  0  0  0  0
 23 42  1  0  0  0  0
 24 25  1  0  0  0  0
 25 26  2  0  0  0  0
 25 27  1  0  0  0  0
 27 43  1  0  0  0  0
M  END
>  <DRUGBANK_ID>
DB08512

>  <COMMON_NAME>
6-amino-2-[(1-naphthylmethyl)amino]-3,7-dihydro-8H-imidazo[4,5-g]quinazolin-8-one

$$$$
