
 OpenBabel10282417223D

 34 35  0  0  0  0  0  0  0  0999 V2000
   -4.5368    1.5538   -4.0859 O   0  0  0  0  0  0  0  0  0  0  0  0
   -5.4344    1.1318   -3.1700 C   0  0  0  0  0  0  0  0  0  0  0  0
   -6.4600    0.5631   -3.5129 O   0  0  0  0  0  0  0  0  0  0  0  0
   -5.0582    1.5250   -1.7762 C   0  0  0  0  0  0  0  0  0  0  0  0
   -3.7124    0.9416   -1.3456 C   0  0  1  0  0  0  0  0  0  0  0  0
   -2.6574    1.4536   -2.1715 O   0  0  0  0  0  0  0  0  0  0  0  0
   -3.3483    1.2524    0.1199 C   0  0  1  0  0  0  0  0  0  0  0  0
   -3.8655    2.5743    0.6796 C   0  0  2  0  0  0  0  0  0  0  0  0
   -2.9308    3.7434    0.3767 C   0  0  0  0  0  0  0  0  0  0  0  0
   -4.0666    2.2753    2.0702 O   0  0  0  0  0  0  0  0  0  0  0  0
   -4.2262    0.9163    2.0906 C   0  0  0  0  0  0  0  0  0  0  0  0
   -3.9295    0.2378    1.0237 N   0  0  0  0  0  0  0  0  0  0  0  0
   -4.7288    0.3172    3.3528 C   0  0  0  0  0  0  0  0  0  0  0  0
   -5.9918    0.6475    3.8684 C   0  0  0  0  0  0  0  0  0  0  0  0
   -6.4548    0.0496    5.0551 C   0  0  0  0  0  0  0  0  0  0  0  0
   -5.6646   -0.8790    5.7335 C   0  0  0  0  0  0  0  0  0  0  0  0
   -4.4251   -1.2434    5.2077 C   0  0  0  0  0  0  0  0  0  0  0  0
   -3.9697   -0.6582    4.0171 C   0  0  0  0  0  0  0  0  0  0  0  0
   -2.7554   -1.0322    3.5101 O   0  0  0  0  0  0  0  0  0  0  0  0
   -4.9316    1.3301   -4.9557 H   0  0  0  0  0  0  0  0  0  0  0  0
   -5.0488    2.6210   -1.7670 H   0  0  0  0  0  0  0  0  0  0  0  0
   -5.8488    1.1793   -1.0995 H   0  0  0  0  0  0  0  0  0  0  0  0
   -3.7216   -0.1468   -1.4876 H   0  0  0  0  0  0  0  0  0  0  0  0
   -2.9113    1.2787   -3.1003 H   0  0  0  0  0  0  0  0  0  0  0  0
   -2.2526    1.2089    0.2266 H   0  0  0  0  0  0  0  0  0  0  0  0
   -4.8536    2.8484    0.3023 H   0  0  0  0  0  0  0  0  0  0  0  0
   -2.7974    3.8607   -0.7077 H   0  0  0  0  0  0  0  0  0  0  0  0
   -3.3442    4.6845    0.7536 H   0  0  0  0  0  0  0  0  0  0  0  0
   -1.9417    3.6179    0.8267 H   0  0  0  0  0  0  0  0  0  0  0  0
   -6.6374    1.3493    3.3485 H   0  0  0  0  0  0  0  0  0  0  0  0
   -7.4341    0.3061    5.4567 H   0  0  0  0  0  0  0  0  0  0  0  0
   -6.0149   -1.3197    6.6665 H   0  0  0  0  0  0  0  0  0  0  0  0
   -3.8258   -1.9755    5.7427 H   0  0  0  0  0  0  0  0  0  0  0  0
   -2.3920   -1.7670    4.0281 H   0  0  0  0  0  0  0  0  0  0  0  0
  1  2  1  0  0  0  0
  1 20  1  0  0  0  0
  2  3  2  0  0  0  0
  2  4  1  0  0  0  0
  4 21  1  0  0  0  0
  4 22  1  0  0  0  0
  5  4  1  0  0  0  0
  5  6  1  0  0  0  0
  5 23  1  6  0  0  0
  6 24  1  0  0  0  0
  7  8  1  0  0  0  0
  7 12  1  0  0  0  0
  7 25  1  1  0  0  0
  7  5  1  0  0  0  0
  8  9  1  0  0  0  0
  8 10  1  0  0  0  0
  8 26  1  6  0  0  0
  9 27  1  0  0  0  0
  9 28  1  0  0  0  0
  9 29  1  0  0  0  0
 10 11  1  0  0  0  0
 11 12  2  0  0  0  0
 11 13  1  0  0  0  0
 13 14  2  0  0  0  0
 13 18  1  0  0  0  0
 14 15  1  0  0  0  0
 14 30  1  0  0  0  0
 15 16  2  0  0  0  0
 15 31  1  0  0  0  0
 16 17  1  0  0  0  0
 16 32  1  0  0  0  0
 17 18  2  0  0  0  0
 17 33  1  0  0  0  0
 18 19  1  0  0  0  0
 19 34  1  0  0  0  0
M  END
>  <DRUGBANK_ID>
DB15553

>  <COMMON_NAME>
Leptazoline C

$$$$
