
 OpenBabel10282417213D

 52 55  0  0  1  0  0  0  0  0999 V2000
   -2.2769   -8.4439    2.5004 C   0  0  0  0  0  0  0  0  0  0  0  0
   -1.5511   -7.5079    1.5714 C   0  0  0  0  0  0  0  0  0  0  0  0
   -0.9993   -6.3059    2.2046 O   0  0  0  0  0  0  0  0  0  0  0  0
   -1.7886   -5.1933    2.4989 C   0  0  0  0  0  0  0  0  0  0  0  0
   -1.4085   -3.9241    1.9673 C   0  0  0  0  0  0  0  0  0  0  0  0
   -2.0955   -2.7668    2.4405 C   0  0  0  0  0  0  0  0  0  0  0  0
   -3.1370   -2.8311    3.3545 C   0  0  0  0  0  0  0  0  0  0  0  0
   -3.9310   -1.3984    3.8786 Cl  0  0  0  0  0  0  0  0  0  0  0  0
   -3.4976   -4.0530    3.8566 C   0  0  0  0  0  0  0  0  0  0  0  0
   -4.4764   -4.1336    4.7717 F   0  0  0  0  0  0  0  0  0  0  0  0
   -2.8087   -5.2157    3.4924 C   0  0  0  0  0  0  0  0  0  0  0  0
   -3.1164   -6.4155    4.3157 C   0  0  2  0  0  0  0  0  0  0  0  0
   -4.5061   -7.0745    4.1333 C   0  0  0  0  0  0  0  0  0  0  0  0
   -4.6186   -7.8972    5.2894 N   0  0  0  0  0  0  0  0  0  0  0  0
   -3.6731   -7.5977    6.2528 C   0  0  0  0  0  0  0  0  0  0  0  0
   -3.5009   -8.2241    7.2664 O   0  0  0  0  0  0  0  0  0  0  0  0
   -2.9107   -6.3649    5.8203 C   0  0  0  0  0  0  0  0  0  0  0  0
   -0.3134   -3.7878    0.8809 C   0  0  2  0  0  0  0  0  0  0  0  0
    0.0420   -2.3375    0.4631 C   0  0  0  0  0  0  0  0  0  0  0  0
   -0.6380   -4.5763   -0.3288 N   0  0  0  0  0  0  0  0  0  0  0  0
   -1.8682   -5.1391   -0.4779 N   0  0  0  0  0  0  0  0  0  0  0  0
   -1.7940   -5.7944   -1.6361 C   0  0  0  0  0  0  0  0  0  0  0  0
   -2.9167   -6.6312   -2.1111 C   0  0  0  0  0  0  0  0  0  0  0  0
   -0.5883   -5.5342   -2.3108 C   0  0  0  0  0  0  0  0  0  0  0  0
    0.1581   -4.7574   -1.4431 C   0  0  0  0  0  0  0  0  0  0  0  0
    1.3855   -4.2609   -1.6910 N   0  0  0  0  0  0  0  0  0  0  0  0
    1.8035   -4.6007   -2.9307 C   0  0  0  0  0  0  0  0  0  0  0  0
    1.1706   -5.3524   -3.8600 N   0  0  0  0  0  0  0  0  0  0  0  0
   -0.0431   -5.8461   -3.5551 C   0  0  0  0  0  0  0  0  0  0  0  0
   -0.7090   -6.6111   -4.4832 N   0  0  0  0  0  0  0  0  0  0  0  0
   -1.7743   -8.6104    3.4606 H   0  0  0  0  0  0  0  0  0  0  0  0
   -2.7180   -9.3870    2.1829 H   0  0  0  0  0  0  0  0  0  0  0  0
   -3.1575   -7.8526    2.5776 H   0  0  0  0  0  0  0  0  0  0  0  0
   -0.7278   -8.0863    1.1464 H   0  0  0  0  0  0  0  0  0  0  0  0
   -2.2484   -7.2421    0.7751 H   0  0  0  0  0  0  0  0  0  0  0  0
   -1.8606   -1.7623    2.1160 H   0  0  0  0  0  0  0  0  0  0  0  0
   -2.2570   -7.0301    4.1253 H   0  0  0  0  0  0  0  0  0  0  0  0
   -5.3298   -6.3617    4.0769 H   0  0  0  0  0  0  0  0  0  0  0  0
   -4.6961   -7.7416    3.2846 H   0  0  0  0  0  0  0  0  0  0  0  0
   -5.2153   -8.7104    5.3725 H   0  0  0  0  0  0  0  0  0  0  0  0
   -3.2992   -5.4683    6.2924 H   0  0  0  0  0  0  0  0  0  0  0  0
   -1.8435   -6.4850    6.0472 H   0  0  0  0  0  0  0  0  0  0  0  0
    0.6029   -4.2441    1.2863 H   0  0  0  0  0  0  0  0  0  0  0  0
   -0.6286   -1.5563    0.8098 H   0  0  0  0  0  0  0  0  0  0  0  0
    1.0278   -2.0681    0.8561 H   0  0  0  0  0  0  0  0  0  0  0  0
    0.0541   -2.1988   -0.6211 H   0  0  0  0  0  0  0  0  0  0  0  0
   -3.3350   -6.1975   -3.0240 H   0  0  0  0  0  0  0  0  0  0  0  0
   -2.5586   -7.6419   -2.3390 H   0  0  0  0  0  0  0  0  0  0  0  0
   -3.7152   -6.7180   -1.3707 H   0  0  0  0  0  0  0  0  0  0  0  0
    2.7769   -4.2191   -3.2276 H   0  0  0  0  0  0  0  0  0  0  0  0
   -1.6257   -6.9827   -4.3017 H   0  0  0  0  0  0  0  0  0  0  0  0
   -0.2677   -6.7734   -5.3738 H   0  0  0  0  0  0  0  0  0  0  0  0
  1  2  1  0  0  0  0
  1 31  1  0  0  0  0
  1 32  1  0  0  0  0
  1 33  1  0  0  0  0
  2  3  1  0  0  0  0
  2 34  1  0  0  0  0
  2 35  1  0  0  0  0
  3  4  1  0  0  0  0
  4  5  2  0  0  0  0
  4 11  1  0  0  0  0
  5  6  1  0  0  0  0
  6  7  2  0  0  0  0
  6 36  1  0  0  0  0
  7  8  1  0  0  0  0
  7  9  1  0  0  0  0
  9 10  1  0  0  0  0
  9 11  2  0  0  0  0
 12 13  1  0  0  0  0
 12 17  1  0  0  0  0
 12 37  1  6  0  0  0
 12 11  1  0  0  0  0
 13 14  1  0  0  0  0
 13 38  1  0  0  0  0
 13 39  1  0  0  0  0
 14 15  1  0  0  0  0
 14 40  1  0  0  0  0
 15 16  2  0  0  0  0
 15 17  1  0  0  0  0
 17 41  1  0  0  0  0
 17 42  1  0  0  0  0
 18 20  1  0  0  0  0
 18 43  1  1  0  0  0
 18 19  1  0  0  0  0
 18  5  1  0  0  0  0
 19 44  1  0  0  0  0
 19 45  1  0  0  0  0
 19 46  1  0  0  0  0
 20 21  1  0  0  0  0
 20 25  1  0  0  0  0
 21 22  2  0  0  0  0
 22 23  1  0  0  0  0
 22 24  1  0  0  0  0
 23 47  1  0  0  0  0
 23 48  1  0  0  0  0
 23 49  1  0  0  0  0
 24 25  2  0  0  0  0
 24 29  1  0  0  0  0
 25 26  1  0  0  0  0
 26 27  2  0  0  0  0
 27 28  1  0  0  0  0
 27 50  1  0  0  0  0
 28 29  2  0  0  0  0
 29 30  1  0  0  0  0
 30 51  1  0  0  0  0
 30 52  1  0  0  0  0
M  END
>  <DRUGBANK_ID>
DB14867

>  <COMMON_NAME>
Parsaclisib

>  <CAS_NUMBER>
1426698-88-5

>  <UNII>
OS7097575K

>  <SYNONYMS>
INCB050465; Parsaclisib

$$$$
