AT5
 OpenBabel10282417143D

 44 44  0  0  0  0  0  0  0  0999 V2000
    3.2600    2.7984   -1.9297 O   0  0  0  0  0  0  0  0  0  0  0  0
    3.6188    3.6701   -1.1354 C   0  0  0  0  0  0  0  0  0  0  0  0
    3.6630    3.4228    0.3586 C   0  0  2  0  0  0  0  0  0  0  0  0
    3.8249    1.8656    0.6051 C   0  0  0  0  0  0  0  0  0  0  0  0
    2.6681    0.9176    1.0248 C   0  0  2  0  0  0  0  0  0  0  0  0
    2.3457   -0.0930   -0.0945 C   0  0  0  0  0  0  0  0  0  0  0  0
    1.4669    1.6896    1.5396 C   0  0  1  0  0  0  0  0  0  0  0  0
   -0.0052    0.6665    1.7776 Cl  0  0  0  0  0  0  0  0  0  0  0  0
    1.7165    2.4158    2.8960 C   0  0  0  0  0  0  0  0  0  0  0  0
    3.3862    2.8574    3.4613 Cl  0  0  0  0  0  0  0  0  0  0  0  0
    2.5563    4.3760    0.9080 C   0  0  0  0  0  0  0  0  0  0  0  0
    3.8638    5.0663   -1.5848 C   0  0  0  0  0  0  0  0  0  0  0  0
    5.0275    5.8620   -1.1165 C   0  0  0  0  0  0  0  0  0  0  0  0
    5.0562    7.1608   -1.5522 N   0  0  0  0  0  0  0  0  0  0  0  0
    4.0834    7.7625   -2.3030 C   0  0  0  0  0  0  0  0  0  0  0  0
    2.9714    7.0690   -2.6736 C   0  0  0  0  0  0  0  0  0  0  0  0
    2.8664    5.6645   -2.2583 C   0  0  0  0  0  0  0  0  0  0  0  0
    1.6852    4.9656   -2.4319 O   0  0  0  0  0  0  0  0  0  0  0  0
    2.0085    7.7167   -3.4077 O   0  0  0  0  0  0  0  0  0  0  0  0
    0.7938    7.1992   -3.8883 C   0  0  0  0  0  0  0  0  0  0  0  0
    4.4015    9.0726   -2.5793 O   0  0  0  0  0  0  0  0  0  0  0  0
    3.4793    9.8339   -3.3540 C   0  0  0  0  0  0  0  0  0  0  0  0
    5.8922    5.4118   -0.3904 O   0  0  0  0  0  0  0  0  0  0  0  0
    4.6181    3.8147    0.7226 H   0  0  0  0  0  0  0  0  0  0  0  0
    3.0228    0.3057    1.8673 H   0  0  0  0  0  0  0  0  0  0  0  0
    1.1365    2.3215    0.7104 H   0  0  0  0  0  0  0  0  0  0  0  0
    4.3358    1.4282   -0.2654 H   0  0  0  0  0  0  0  0  0  0  0  0
    4.6015    1.7334    1.3730 H   0  0  0  0  0  0  0  0  0  0  0  0
    3.2054   -0.2795   -0.7464 H   0  0  0  0  0  0  0  0  0  0  0  0
    2.0805   -1.0648    0.3423 H   0  0  0  0  0  0  0  0  0  0  0  0
    1.5127    0.2294   -0.7262 H   0  0  0  0  0  0  0  0  0  0  0  0
    1.0806    3.3085    2.9499 H   0  0  0  0  0  0  0  0  0  0  0  0
    1.4466    1.7583    3.7094 H   0  0  0  0  0  0  0  0  0  0  0  0
    2.4743    4.4990    1.9801 H   0  0  0  0  0  0  0  0  0  0  0  0
    2.7481    5.4178    0.6341 H   0  0  0  0  0  0  0  0  0  0  0  0
    1.5638    4.1586    0.5058 H   0  0  0  0  0  0  0  0  0  0  0  0
    5.8633    7.7075   -1.2776 H   0  0  0  0  0  0  0  0  0  0  0  0
    1.2598    5.1946   -3.2607 H   0  0  0  0  0  0  0  0  0  0  0  0
    0.9868    6.4091   -4.6191 H   0  0  0  0  0  0  0  0  0  0  0  0
    0.1605    6.8810   -3.0561 H   0  0  0  0  0  0  0  0  0  0  0  0
    0.2638    7.9924   -4.4206 H   0  0  0  0  0  0  0  0  0  0  0  0
    3.3549    9.3953   -4.3510 H   0  0  0  0  0  0  0  0  0  0  0  0
    2.5228    9.9333   -2.8280 H   0  0  0  0  0  0  0  0  0  0  0  0
    3.8733   10.8426   -3.4951 H   0  0  0  0  0  0  0  0  0  0  0  0
  1  2  2  0  0  0  0
  2 12  1  0  0  0  0
  3 11  1  0  0  0  0
  3 24  1  1  0  0  0
  3  4  1  0  0  0  0
  3  2  1  0  0  0  0
  4 27  1  0  0  0  0
  4 28  1  0  0  0  0
  5  7  1  0  0  0  0
  5 25  1  1  0  0  0
  5  6  1  0  0  0  0
  5  4  1  0  0  0  0
  6 29  1  0  0  0  0
  6 30  1  0  0  0  0
  6 31  1  0  0  0  0
  7  8  1  0  0  0  0
  7  9  1  0  0  0  0
  7 26  1  6  0  0  0
  9 10  1  0  0  0  0
  9 32  1  0  0  0  0
  9 33  1  0  0  0  0
 11 34  1  0  0  0  0
 11 35  1  0  0  0  0
 11 36  1  0  0  0  0
 12 13  1  0  0  0  0
 12 17  2  0  0  0  0
 13 14  1  0  0  0  0
 13 23  2  0  0  0  0
 14 15  1  0  0  0  0
 14 37  1  0  0  0  0
 15 16  2  0  0  0  0
 15 21  1  0  0  0  0
 16 17  1  0  0  0  0
 16 19  1  0  0  0  0
 17 18  1  0  0  0  0
 18 38  1  0  0  0  0
 19 20  1  0  0  0  0
 20 39  1  0  0  0  0
 20 40  1  0  0  0  0
 20 41  1  0  0  0  0
 21 22  1  0  0  0  0
 22 42  1  0  0  0  0
 22 43  1  0  0  0  0
 22 44  1  0  0  0  0
M  END
>  <DRUGBANK_ID>
DB04631

>  <COMMON_NAME>
Atpenin A5

>  <CAS_NUMBER>
119509-24-9

>  <SYNONYMS>
3-[(2S,4S,5R)-5,6-dichloro-2,4-dimethyl-1-oxohexyl]-4-hydroxy-5,6-dimethoxy-2(1H)-pyridinone

$$$$
