
 OpenBabel10282417143D

 11 11  0  0  0  0  0  0  0  0999 V2000
    1.0311    0.0950    0.0037 O   0  0  0  0  0  0  0  0  0  0  0  0
    0.5311   -0.6440    1.2096 B   0  0  0  0  0  0  0  0  0  0  0  0
   -0.6265   -0.3543    2.1873 O   0  0  0  0  0  0  0  0  0  0  0  0
   -0.9475   -1.6826    2.8949 C   0  0  0  0  0  0  0  0  0  0  0  0
    0.0267   -2.7333    2.3222 C   0  0  0  0  0  0  0  0  0  0  0  0
    1.2245   -1.8970    1.7984 O   0  0  0  0  0  0  0  0  0  0  0  0
    2.0311    0.0950    0.0037 H   0  0  0  0  0  0  0  0  0  0  0  0
   -0.8375   -1.5916    3.9554 H   0  0  0  0  0  0  0  0  0  0  0  0
   -1.9590   -1.9708    2.6981 H   0  0  0  0  0  0  0  0  0  0  0  0
    0.3214   -3.4590    3.0511 H   0  0  0  0  0  0  0  0  0  0  0  0
   -0.4313   -3.2806    1.5250 H   0  0  0  0  0  0  0  0  0  0  0  0
  1  2  1  0  0  0  0
  1  7  1  0  0  0  0
  2  3  1  0  0  0  0
  2  6  1  0  0  0  0
  3  4  1  0  0  0  0
  4  5  1  0  0  0  0
  4  8  1  0  0  0  0
  4  9  1  0  0  0  0
  5  6  1  0  0  0  0
  5 10  1  0  0  0  0
  5 11  1  0  0  0  0
M  END
>  <DRUGBANK_ID>
DB04369

>  <SECONDARY_ACCESSION_NUMBERS>
EXPT02853

>  <COMMON_NAME>
1,3,2-Dioxaborolan-2-Ol

$$$$
