
 OpenBabel10282417133D

 17 17  0  0  0  0  0  0  0  0999 V2000
    0.9900   -0.0903    0.0813 C   0  0  0  0  0  0  0  0  0  0  0  0
    0.5287    1.0882   -0.6612 N   0  3  0  0  0  0  0  0  0  0  0  0
   -0.5653    1.0732   -1.4101 C   0  0  0  0  0  0  0  0  0  0  0  0
   -1.3721    0.0435   -1.5851 N   0  0  0  0  0  0  0  0  0  0  0  0
   -0.9927    2.3510   -2.0364 C   0  0  0  0  0  0  0  0  0  0  0  0
   -0.3648    3.4786   -1.7001 C   0  0  0  0  0  0  0  0  0  0  0  0
    0.7802    3.4095   -0.9658 N   0  0  0  0  0  0  0  0  0  0  0  0
    1.3367    2.2628   -0.4939 C   0  0  0  0  0  0  0  0  0  0  0  0
    2.4220    2.1917    0.0636 O   0  0  0  0  0  0  0  0  0  0  0  0
    0.6352   -1.0099   -0.3883 H   0  0  0  0  0  0  0  0  0  0  0  0
    0.6026   -0.0331    1.1038 H   0  0  0  0  0  0  0  0  0  0  0  0
    2.0812   -0.1420    0.0997 H   0  0  0  0  0  0  0  0  0  0  0  0
   -2.2075    0.1144   -2.1548 H   0  0  0  0  0  0  0  0  0  0  0  0
   -1.2489   -0.8303   -1.0942 H   0  0  0  0  0  0  0  0  0  0  0  0
   -1.8389    2.3725   -2.7136 H   0  0  0  0  0  0  0  0  0  0  0  0
   -0.7070    4.4671   -1.9940 H   0  0  0  0  0  0  0  0  0  0  0  0
    1.3351    4.2471   -0.8136 H   0  0  0  0  0  0  0  0  0  0  0  0
  1  2  1  0  0  0  0
  1 10  1  0  0  0  0
  1 11  1  0  0  0  0
  1 12  1  0  0  0  0
  2  3  2  0  0  0  0
  2  8  1  0  0  0  0
  3  4  1  0  0  0  0
  3  5  1  0  0  0  0
  4 13  1  0  0  0  0
  4 14  1  0  0  0  0
  5  6  2  0  0  0  0
  5 15  1  0  0  0  0
  6  7  1  0  0  0  0
  6 16  1  0  0  0  0
  7  8  1  0  0  0  0
  7 17  1  0  0  0  0
  8  9  2  0  0  0  0
M  CHG  1   2   1
M  END
>  <DRUGBANK_ID>
DB04103

>  <SECONDARY_ACCESSION_NUMBERS>
EXPT00178

>  <COMMON_NAME>
3-Methylcytosine

$$$$
