
 OpenBabel10282417133D

 27 28  0  0  1  0  0  0  0  0999 V2000
    0.7725   -0.3260   -0.4198 N   0  0  0  0  0  0  0  0  0  0  0  0
    0.3253   -1.5390    0.2780 C   0  0  1  0  0  0  0  0  0  0  0  0
    0.9314   -1.7793    1.6785 C   0  0  0  0  0  0  0  0  0  0  0  0
    0.5978   -0.7699    2.7416 C   0  0  0  0  0  0  0  0  0  0  0  0
   -0.0811   -1.0412    3.9173 C   0  0  0  0  0  0  0  0  0  0  0  0
   -0.2334    0.1306    4.6110 N   0  0  0  0  0  0  0  0  0  0  0  0
    0.3104    1.1781    3.9034 C   0  0  0  0  0  0  0  0  0  0  0  0
    0.8788    0.6409    2.7470 C   0  0  0  0  0  0  0  0  0  0  0  0
    1.5450    1.5418    1.8867 C   0  0  0  0  0  0  0  0  0  0  0  0
    2.2502    1.1075    0.8350 F   0  0  0  0  0  0  0  0  0  0  0  0
    1.5045    2.9135    2.0867 C   0  0  0  0  0  0  0  0  0  0  0  0
    0.9484    3.4115    3.2514 C   0  0  0  0  0  0  0  0  0  0  0  0
    0.3700    2.5512    4.1960 C   0  0  0  0  0  0  0  0  0  0  0  0
   -1.2112   -1.4981    0.3279 C   0  0  0  0  0  0  0  0  0  0  0  0
   -1.8128   -2.3306   -0.5514 O   0  0  0  0  0  0  0  0  0  0  0  0
   -1.8665   -0.7324    1.0311 O   0  0  0  0  0  0  0  0  0  0  0  0
    0.3308    0.4593    0.0788 H   0  0  0  0  0  0  0  0  0  0  0  0
    1.7645   -0.1699   -0.2054 H   0  0  0  0  0  0  0  0  0  0  0  0
    0.6511   -2.3688   -0.3596 H   0  0  0  0  0  0  0  0  0  0  0  0
    0.5937   -2.7715    2.0140 H   0  0  0  0  0  0  0  0  0  0  0  0
    2.0250   -1.8442    1.6100 H   0  0  0  0  0  0  0  0  0  0  0  0
   -0.4867   -1.9663    4.3100 H   0  0  0  0  0  0  0  0  0  0  0  0
   -0.6930    0.2158    5.5073 H   0  0  0  0  0  0  0  0  0  0  0  0
    1.9383    3.5633    1.3332 H   0  0  0  0  0  0  0  0  0  0  0  0
    0.9934    4.4809    3.4381 H   0  0  0  0  0  0  0  0  0  0  0  0
   -0.0300    2.9497    5.1220 H   0  0  0  0  0  0  0  0  0  0  0  0
   -1.1866   -2.7620   -1.1620 H   0  0  0  0  0  0  0  0  0  0  0  0
  1 17  1  0  0  0  0
  1 18  1  0  0  0  0
  2  1  1  0  0  0  0
  2  3  1  0  0  0  0
  2 14  1  0  0  0  0
  2 19  1  6  0  0  0
  3  4  1  0  0  0  0
  3 20  1  0  0  0  0
  3 21  1  0  0  0  0
  4  5  2  0  0  0  0
  4  8  1  0  0  0  0
  5  6  1  0  0  0  0
  5 22  1  0  0  0  0
  6  7  1  0  0  0  0
  6 23  1  0  0  0  0
  7  8  2  0  0  0  0
  7 13  1  0  0  0  0
  8  9  1  0  0  0  0
  9 10  1  0  0  0  0
  9 11  2  0  0  0  0
 11 12  1  0  0  0  0
 11 24  1  0  0  0  0
 12 13  2  0  0  0  0
 12 25  1  0  0  0  0
 13 26  1  0  0  0  0
 14 15  1  0  0  0  0
 14 16  2  0  0  0  0
 15 27  1  0  0  0  0
M  END
>  <DRUGBANK_ID>
DB03386

>  <SECONDARY_ACCESSION_NUMBERS>
EXPT00213

>  <COMMON_NAME>
4-Fluorotryptophane

$$$$
