655
 OpenBabel10282417103D

 42 45  0  0  1  0  0  0  0  0999 V2000
    1.2301    0.7151   -0.2436 O   0  0  0  0  0  0  0  0  0  0  0  0
   -1.4180   -9.4637    2.0805 O   0  0  0  0  0  0  0  0  0  0  0  0
    1.3049   -2.7187   -0.7589 C   0  0  2  0  0  0  0  0  0  0  0  0
    0.7252   -1.6427    0.1845 C   0  0  2  0  0  0  0  0  0  0  0  0
    0.9212   -4.1177   -0.3423 C   0  0  1  0  0  0  0  0  0  0  0  0
   -0.6092   -4.3114   -0.2049 C   0  0  2  0  0  0  0  0  0  0  0  0
   -0.8025   -1.7568    0.1121 C   0  0  0  0  0  0  0  0  0  0  0  0
    2.8020   -2.4461   -0.7297 C   0  0  0  0  0  0  0  0  0  0  0  0
   -1.2415   -3.1583    0.6149 C   0  0  0  0  0  0  0  0  0  0  0  0
    1.4545   -5.1739   -1.3100 C   0  0  0  0  0  0  0  0  0  0  0  0
    1.5323   -0.4670   -0.3663 C   0  0  0  0  0  0  0  0  0  0  0  0
    2.8520   -0.9446   -0.9825 C   0  0  0  0  0  0  0  0  0  0  0  0
    1.1558   -1.7003    1.6666 C   0  0  0  0  0  0  0  0  0  0  0  0
   -0.8407   -5.7127    0.3627 C   0  0  0  0  0  0  0  0  0  0  0  0
    1.4146   -6.5090   -0.5886 C   0  0  0  0  0  0  0  0  0  0  0  0
    0.1264   -6.7346    0.1718 C   0  0  0  0  0  0  0  0  0  0  0  0
   -2.0067   -6.0192    1.0791 C   0  0  0  0  0  0  0  0  0  0  0  0
   -0.0572   -7.9927    0.7634 C   0  0  0  0  0  0  0  0  0  0  0  0
   -2.1839   -7.2797    1.6486 C   0  0  0  0  0  0  0  0  0  0  0  0
   -1.2078   -8.2516    1.4948 C   0  0  0  0  0  0  0  0  0  0  0  0
    0.9438   -2.5422   -1.7878 H   0  0  0  0  0  0  0  0  0  0  0  0
    1.3828   -4.2907    0.6389 H   0  0  0  0  0  0  0  0  0  0  0  0
   -1.0770   -4.2874   -1.2009 H   0  0  0  0  0  0  0  0  0  0  0  0
   -0.6629  -10.0383    1.8753 H   0  0  0  0  0  0  0  0  0  0  0  0
   -1.2887   -0.9895    0.7264 H   0  0  0  0  0  0  0  0  0  0  0  0
   -1.1760   -1.6132   -0.9098 H   0  0  0  0  0  0  0  0  0  0  0  0
    3.3764   -3.0091   -1.4685 H   0  0  0  0  0  0  0  0  0  0  0  0
    3.2130   -2.7019    0.2559 H   0  0  0  0  0  0  0  0  0  0  0  0
   -0.9725   -3.2820    1.6719 H   0  0  0  0  0  0  0  0  0  0  0  0
   -2.3356   -3.2186    0.5914 H   0  0  0  0  0  0  0  0  0  0  0  0
    0.8481   -5.2051   -2.2255 H   0  0  0  0  0  0  0  0  0  0  0  0
    2.4823   -4.9740   -1.6259 H   0  0  0  0  0  0  0  0  0  0  0  0
    2.8485   -0.7370   -2.0554 H   0  0  0  0  0  0  0  0  0  0  0  0
    3.7328   -0.5129   -0.5023 H   0  0  0  0  0  0  0  0  0  0  0  0
    0.9955   -2.6783    2.1227 H   0  0  0  0  0  0  0  0  0  0  0  0
    2.2100   -1.4456    1.8128 H   0  0  0  0  0  0  0  0  0  0  0  0
    0.5831   -0.9611    2.2408 H   0  0  0  0  0  0  0  0  0  0  0  0
    1.5796   -7.3134   -1.3127 H   0  0  0  0  0  0  0  0  0  0  0  0
    2.2438   -6.5312    0.1320 H   0  0  0  0  0  0  0  0  0  0  0  0
   -2.7905   -5.2814    1.2223 H   0  0  0  0  0  0  0  0  0  0  0  0
    0.7132   -8.7501    0.6515 H   0  0  0  0  0  0  0  0  0  0  0  0
   -3.0817   -7.4964    2.2190 H   0  0  0  0  0  0  0  0  0  0  0  0
  1 11  2  0  0  0  0
  2 20  1  0  0  0  0
  2 24  1  0  0  0  0
  3  4  1  0  0  0  0
  3  5  1  0  0  0  0
  3  8  1  0  0  0  0
  3 21  1  6  0  0  0
  4  7  1  0  0  0  0
  4 11  1  0  0  0  0
  4 13  1  1  0  0  0
  5  6  1  0  0  0  0
  5 10  1  0  0  0  0
  5 22  1  1  0  0  0
  6  9  1  0  0  0  0
  6 14  1  0  0  0  0
  6 23  1  6  0  0  0
  7  9  1  0  0  0  0
  7 25  1  0  0  0  0
  7 26  1  0  0  0  0
  8 12  1  0  0  0  0
  8 27  1  0  0  0  0
  8 28  1  0  0  0  0
  9 29  1  0  0  0  0
  9 30  1  0  0  0  0
 10 15  1  0  0  0  0
 10 31  1  0  0  0  0
 10 32  1  0  0  0  0
 11 12  1  0  0  0  0
 12 33  1  0  0  0  0
 12 34  1  0  0  0  0
 13 35  1  0  0  0  0
 13 36  1  0  0  0  0
 13 37  1  0  0  0  0
 14 16  2  0  0  0  0
 14 17  1  0  0  0  0
 15 16  1  0  0  0  0
 15 38  1  0  0  0  0
 15 39  1  0  0  0  0
 16 18  1  0  0  0  0
 17 19  2  0  0  0  0
 17 40  1  0  0  0  0
 18 20  2  0  0  0  0
 18 41  1  0  0  0  0
 19 20  1  0  0  0  0
 19 42  1  0  0  0  0
M  END
>  <DRUGBANK_ID>
DB00655

>  <SECONDARY_ACCESSION_NUMBERS>
APRD00588

>  <COMMON_NAME>
Estrone

>  <CAS_NUMBER>
53-16-7

>  <UNII>
2DI9HA706A

>  <SYNONYMS>
3-Hydroxy-1,3,5(10)-estratrien-17-one; Estrona; Estrone; Estronum; Follicular hormone; Folliculin; Oestrone

$$$$
