
 OpenBabel10282417203D

 22 21  0  0  0  0  0  0  0  0999 V2000
    0.6635    0.0767   -0.0280 N   0  0  0  0  0  0  0  0  0  0  0  0
    0.2008   -0.8177    0.9319 C   0  0  0  0  0  0  0  0  0  0  0  0
    0.1715    0.9492   -0.9613 C   0  0  0  0  0  0  0  0  0  0  0  0
   -1.2885   -0.9661    1.1172 C   0  0  3  0  0  0  0  0  0  0  0  0
    1.0167   -1.4180    1.6330 O   0  0  0  0  0  0  0  0  0  0  0  0
    0.9558    1.5912   -1.6676 O   0  0  0  0  0  0  0  0  0  0  0  0
   -1.1438    1.1343   -1.1476 N   0  0  0  0  0  0  0  0  0  0  0  0
   -1.7480   -2.8243    0.7578 Br  0  0  0  0  0  0  0  0  0  0  0  0
   -1.8250   -0.4001    2.4296 C   0  0  0  0  0  0  0  0  0  0  0  0
   -1.3189    1.0359    2.6679 C   0  0  0  0  0  0  0  0  0  0  0  0
   -3.3591   -0.3482    2.3930 C   0  0  0  0  0  0  0  0  0  0  0  0
    1.6777    0.0887   -0.0350 H   0  0  0  0  0  0  0  0  0  0  0  0
   -1.8385   -0.5168    0.3229 H   0  0  0  0  0  0  0  0  0  0  0  0
   -1.9425    0.7648   -0.6710 H   0  0  0  0  0  0  0  0  0  0  0  0
   -1.3999    1.7841   -1.8782 H   0  0  0  0  0  0  0  0  0  0  0  0
   -1.5018   -1.0279    3.2683 H   0  0  0  0  0  0  0  0  0  0  0  0
   -1.6704    1.7190    1.8846 H   0  0  0  0  0  0  0  0  0  0  0  0
   -1.6822    1.4189    3.6273 H   0  0  0  0  0  0  0  0  0  0  0  0
   -0.2261    1.0912    2.6899 H   0  0  0  0  0  0  0  0  0  0  0  0
   -3.7957   -1.3309    2.1977 H   0  0  0  0  0  0  0  0  0  0  0  0
   -3.7581    0.0098    3.3460 H   0  0  0  0  0  0  0  0  0  0  0  0
   -3.7093    0.3314    1.6054 H   0  0  0  0  0  0  0  0  0  0  0  0
  1 12  1  0  0  0  0
  2  1  1  0  0  0  0
  3  1  1  0  0  0  0
  4  2  1  0  0  0  0
  4 13  1  0  0  0  0
  5  2  2  0  0  0  0
  6  3  2  0  0  0  0
  7  3  1  0  0  0  0
  7 14  1  0  0  0  0
  7 15  1  0  0  0  0
  8  4  1  0  0  0  0
  9  4  1  0  0  0  0
  9 16  1  0  0  0  0
 10  9  1  0  0  0  0
 10 17  1  0  0  0  0
 10 18  1  0  0  0  0
 10 19  1  0  0  0  0
 11  9  1  0  0  0  0
 11 20  1  0  0  0  0
 11 21  1  0  0  0  0
 11 22  1  0  0  0  0
M  END
>  <DRUGBANK_ID>
DB13370

>  <COMMON_NAME>
Bromisoval

>  <CAS_NUMBER>
496-67-3

>  <UNII>
469GW8R486

>  <SYNONYMS>
Bromisoval; Bromisovalum

$$$$
