
 OpenBabel10282417153D

 35 35  0  0  1  0  0  0  0  0999 V2000
    1.9617   -0.0932    0.0480 O   0  0  0  0  0  0  0  0  0  0  0  0
    0.6689   -3.7034   -2.1277 O   0  0  0  0  0  0  0  0  0  0  0  0
   -0.1534   -1.1011    0.0091 N   0  0  0  0  0  0  0  0  0  0  0  0
   -1.4723   -3.3057   -1.6221 N   0  0  0  0  0  0  0  0  0  0  0  0
   -1.4398    0.8253   -0.2749 C   0  0  1  0  0  0  0  0  0  0  0  0
   -1.5177   -0.6379    0.0766 C   0  0  0  0  0  0  0  0  0  0  0  0
   -0.0656    1.1882    0.3011 C   0  0  0  0  0  0  0  0  0  0  0  0
   -1.5801    1.0229   -1.7904 C   0  0  0  0  0  0  0  0  0  0  0  0
    0.2767   -2.4986   -0.0366 C   0  0  1  0  0  0  0  0  0  0  0  0
    0.7398   -0.0527    0.0971 C   0  0  0  0  0  0  0  0  0  0  0  0
   -1.8335    2.4882   -2.1389 C   0  0  0  0  0  0  0  0  0  0  0  0
   -0.1057   -3.2672    1.2402 C   0  0  0  0  0  0  0  0  0  0  0  0
   -0.1378   -3.1982   -1.3508 C   0  0  0  0  0  0  0  0  0  0  0  0
   -0.7454    3.4151   -1.6323 C   0  0  0  0  0  0  0  0  0  0  0  0
   -1.5990   -3.4562    1.4728 C   0  0  0  0  0  0  0  0  0  0  0  0
   -2.1978   -3.0055   -0.9933 H   0  0  0  0  0  0  0  0  0  0  0  0
   -1.7535   -3.8249   -2.4407 H   0  0  0  0  0  0  0  0  0  0  0  0
   -2.2603    1.3558    0.2236 H   0  0  0  0  0  0  0  0  0  0  0  0
   -1.8818   -0.7058    1.1017 H   0  0  0  0  0  0  0  0  0  0  0  0
   -2.1747   -1.1709   -0.6036 H   0  0  0  0  0  0  0  0  0  0  0  0
   -0.1416    1.4126    1.3695 H   0  0  0  0  0  0  0  0  0  0  0  0
    0.4796    1.9805   -0.1945 H   0  0  0  0  0  0  0  0  0  0  0  0
   -0.6959    0.6426   -2.3166 H   0  0  0  0  0  0  0  0  0  0  0  0
   -2.4316    0.4363   -2.1674 H   0  0  0  0  0  0  0  0  0  0  0  0
    1.3783   -2.4831   -0.0646 H   0  0  0  0  0  0  0  0  0  0  0  0
   -1.9182    2.5848   -3.2250 H   0  0  0  0  0  0  0  0  0  0  0  0
   -2.7920    2.7960   -1.7048 H   0  0  0  0  0  0  0  0  0  0  0  0
    0.3589   -4.2596    1.2096 H   0  0  0  0  0  0  0  0  0  0  0  0
    0.3195   -2.7462    2.1092 H   0  0  0  0  0  0  0  0  0  0  0  0
    0.2367    3.0653   -1.9724 H   0  0  0  0  0  0  0  0  0  0  0  0
   -0.8847    4.4392   -1.9720 H   0  0  0  0  0  0  0  0  0  0  0  0
   -0.7668    3.4669   -0.5383 H   0  0  0  0  0  0  0  0  0  0  0  0
   -2.0551   -4.0459    0.6789 H   0  0  0  0  0  0  0  0  0  0  0  0
   -1.7958   -3.9728    2.4117 H   0  0  0  0  0  0  0  0  0  0  0  0
   -2.1370   -2.5169    1.5424 H   0  0  0  0  0  0  0  0  0  0  0  0
  1 10  2  0  0  0  0
  2 13  2  0  0  0  0
  3  6  1  0  0  0  0
  3  9  1  0  0  0  0
  3 10  1  0  0  0  0
  4 13  1  0  0  0  0
  4 16  1  0  0  0  0
  4 17  1  0  0  0  0
  5  6  1  0  0  0  0
  5  7  1  0  0  0  0
  5 18  1  1  0  0  0
  5  8  1  0  0  0  0
  6 19  1  0  0  0  0
  6 20  1  0  0  0  0
  7 10  1  0  0  0  0
  7 21  1  0  0  0  0
  7 22  1  0  0  0  0
  8 11  1  0  0  0  0
  8 23  1  0  0  0  0
  8 24  1  0  0  0  0
  9 12  1  0  0  0  0
  9 13  1  0  0  0  0
  9 25  1  6  0  0  0
 11 14  1  0  0  0  0
 11 26  1  0  0  0  0
 11 27  1  0  0  0  0
 12 15  1  0  0  0  0
 12 28  1  0  0  0  0
 12 29  1  0  0  0  0
 14 30  1  0  0  0  0
 14 31  1  0  0  0  0
 14 32  1  0  0  0  0
 15 33  1  0  0  0  0
 15 34  1  0  0  0  0
 15 35  1  0  0  0  0
M  END
>  <DRUGBANK_ID>
DB05541

>  <COMMON_NAME>
Brivaracetam

>  <CAS_NUMBER>
357336-20-0

>  <UNII>
U863JGG2IA

>  <SYNONYMS>
Brivaracetam

$$$$
