
 OpenBabel10282417113D

 26 27  0  0  1  0  0  0  0  0999 V2000
   -0.1268    3.6500    1.6756 C   0  0  0  0  0  0  0  0  0  0  0  0
    2.9984    5.7949    0.0359 C   0  0  0  0  0  0  0  0  0  0  0  0
    2.0972    2.3170   -1.2867 C   0  0  0  0  0  0  0  0  0  0  0  0
   -0.6325    3.7585    2.9061 C   0  0  0  0  0  0  0  0  0  0  0  0
    1.2751    2.6438   -0.0404 C   0  0  1  0  0  0  0  0  0  0  0  0
    2.0297    4.7220   -0.4305 C   0  0  2  0  0  0  0  0  0  0  0  0
   -0.6516    2.5477    3.7347 C   0  0  0  0  0  0  0  0  0  0  0  0
    0.4956    1.4366    2.0856 C   0  0  0  0  0  0  0  0  0  0  0  0
   -1.1488    4.9021    3.3758 F   0  0  0  0  0  0  0  0  0  0  0  0
   -1.2479    2.5274    4.8828 N   0  0  0  0  0  0  0  0  0  0  0  0
   -0.0116    1.4123    3.2819 N   0  0  0  0  0  0  0  0  0  0  0  0
    0.4189    2.4792    1.1563 N   0  0  0  0  0  0  0  0  0  0  0  0
    3.0575    5.8979    1.4682 O   0  0  0  0  0  0  0  0  0  0  0  0
    1.1233    0.3146    1.6847 O   0  0  0  0  0  0  0  0  0  0  0  0
    2.1856    3.6082    0.4571 O   0  0  0  0  0  0  0  0  0  0  0  0
    2.2305    3.9799   -2.0635 S   0  0  0  0  0  0  0  0  0  0  0  0
    1.3814    1.5589    0.0155 H   0  0  0  0  0  0  0  0  0  0  0  0
    1.0121    5.1323   -0.3885 H   0  0  0  0  0  0  0  0  0  0  0  0
   -0.0872    4.5396    1.0810 H   0  0  0  0  0  0  0  0  0  0  0  0
    4.0046    5.5498   -0.3018 H   0  0  0  0  0  0  0  0  0  0  0  0
    2.7003    6.7724   -0.3483 H   0  0  0  0  0  0  0  0  0  0  0  0
    3.1365    2.0417   -1.0074 H   0  0  0  0  0  0  0  0  0  0  0  0
    1.7191    1.5904   -2.0040 H   0  0  0  0  0  0  0  0  0  0  0  0
   -1.6503    3.4598    5.0485 H   0  0  0  0  0  0  0  0  0  0  0  0
    2.1582    5.9421    1.8336 H   0  0  0  0  0  0  0  0  0  0  0  0
    1.0244   -0.3530    2.3856 H   0  0  0  0  0  0  0  0  0  0  0  0
  1 19  1  0  0  0  0
  2 20  1  0  0  0  0
  2 21  1  0  0  0  0
  3 22  1  0  0  0  0
  3 23  1  0  0  0  0
  4  1  2  0  0  0  0
  5  3  1  0  0  0  0
  5 15  1  0  0  0  0
  5 17  1  6  0  0  0
  5 12  1  0  0  0  0
  6 15  1  0  0  0  0
  6 16  1  0  0  0  0
  6 18  1  1  0  0  0
  6  2  1  0  0  0  0
  7  4  1  0  0  0  0
  9  4  1  0  0  0  0
 10  7  2  0  0  0  0
 10 24  1  0  0  0  0
 11  7  1  0  0  0  0
 11  8  2  0  0  0  0
 12  1  1  0  0  0  0
 12  8  1  0  0  0  0
 13  2  1  0  0  0  0
 13 25  1  0  0  0  0
 14  8  1  0  0  0  0
 14 26  1  0  0  0  0
 16  3  1  0  0  0  0
M  END
>  <DRUGBANK_ID>
DB00879

>  <SECONDARY_ACCESSION_NUMBERS>
APRD00226

>  <COMMON_NAME>
Emtricitabine

>  <CAS_NUMBER>
143491-57-0

>  <UNII>
G70B4ETF4S

>  <SYNONYMS>
(−)-(2R,5S)-5-fluoro-1-[2-(hydroxymethyl)-1,3-oxathiolan-5-yl]cytosine; (−)-2'-deoxy-5-fluoro-3'-thiacytidine; (−)-cis-4-amino-5-fluoro-1-(2-hydroxymethyl-1,3-oxathiolan-5-yl)-(1H)-pyrimidin-2-one; (−)-FTC; (−)-β-2',3'-dideoxy-5-fluoro-3'-thiacytidine; (2R-cis)-4-amino-5-fluoro-1-(2-(hydroxymethyl)-1,3-oxathiolan-5-yl)-2(1H)-pyrimidinone; 4-amino-5-fluoro-1-((2R,5S)-2-(hydroxymethyl)-1,3-oxathiolan-5-yl)pyrimidin-2(1H)-one; 4-Amino-5-fluoro-1-((2R,5S)-2-hydroxymethyl-[1,3]oxathiolan-5-yl)-1H-pyrimidin-2-one; 5-fluoro-1-((2R,5S)-2-(hydroxymethyl)-1,3-oxathiolan-5-yl)cytosine; Emtricitabin; Emtricitabina; Emtricitabine; Emtricitabinum

$$$$
