
 OpenBabel10282417103D

 39 41  0  0  0  0  0  0  0  0999 V2000
    1.5276   -4.0061   -0.5418 C   0  0  0  0  0  0  0  0  0  0  0  0
    1.9077   -3.6932    0.7728 C   0  0  0  0  0  0  0  0  0  0  0  0
    1.8222   -5.2882   -1.0281 C   0  0  0  0  0  0  0  0  0  0  0  0
    2.6061   -4.6200    1.5510 C   0  0  0  0  0  0  0  0  0  0  0  0
    2.5817   -6.1896   -0.2812 C   0  0  0  0  0  0  0  0  0  0  0  0
    2.9622   -5.8532    1.0107 C   0  0  0  0  0  0  0  0  0  0  0  0
    3.8309   -6.9891    1.9659 Cl  0  0  0  0  0  0  0  0  0  0  0  0
    1.1298   -5.8762   -2.4859 Cl  0  0  0  0  0  0  0  0  0  0  0  0
    0.8043   -2.9720   -1.3738 C   0  0  0  0  0  0  0  0  0  0  0  0
    1.5006   -2.6154   -2.5771 O   0  0  0  0  0  0  0  0  0  0  0  0
    2.7425   -2.0133   -2.2963 N   0  0  0  0  0  0  0  0  0  0  0  0
    3.3957   -1.7661   -3.4049 C   0  0  0  0  0  0  0  0  0  0  0  0
    4.7449   -1.1330   -3.3085 C   0  0  0  0  0  0  0  0  0  0  0  0
    2.8750   -2.0916   -4.7969 C   0  0  0  0  0  0  0  0  0  0  0  0
    2.6335   -3.5051   -5.0225 N   0  0  0  0  0  0  0  0  0  0  0  0
    3.4611   -4.5337   -4.6796 C   0  0  0  0  0  0  0  0  0  0  0  0
    2.9814   -5.6864   -5.0883 N   0  0  0  0  0  0  0  0  0  0  0  0
    1.5544   -4.0325   -5.6755 C   0  0  0  0  0  0  0  0  0  0  0  0
    1.7720   -5.3892   -5.6673 C   0  0  0  0  0  0  0  0  0  0  0  0
    7.3088   -0.0346   -3.0363 C   0  0  0  0  0  0  0  0  0  0  0  0
    6.4134    0.5160   -3.9484 C   0  0  0  0  0  0  0  0  0  0  0  0
    6.9377   -1.1270   -2.2552 C   0  0  0  0  0  0  0  0  0  0  0  0
    5.1286   -0.0216   -4.0790 C   0  0  0  0  0  0  0  0  0  0  0  0
    5.6583   -1.6774   -2.3901 C   0  0  0  0  0  0  0  0  0  0  0  0
    8.8742    0.6557   -2.8608 Cl  0  0  0  0  0  0  0  0  0  0  0  0
    4.0605    0.8012   -5.1617 Cl  0  0  0  0  0  0  0  0  0  0  0  0
    1.6472   -2.7286    1.2042 H   0  0  0  0  0  0  0  0  0  0  0  0
    2.8694   -4.3733    2.5759 H   0  0  0  0  0  0  0  0  0  0  0  0
    2.8387   -7.1601   -0.6980 H   0  0  0  0  0  0  0  0  0  0  0  0
   -0.1742   -3.3718   -1.6660 H   0  0  0  0  0  0  0  0  0  0  0  0
    0.6032   -2.0584   -0.8026 H   0  0  0  0  0  0  0  0  0  0  0  0
    1.9383   -1.5470   -4.9602 H   0  0  0  0  0  0  0  0  0  0  0  0
    3.5880   -1.8146   -5.5781 H   0  0  0  0  0  0  0  0  0  0  0  0
    4.3775   -4.3994   -4.1206 H   0  0  0  0  0  0  0  0  0  0  0  0
    0.7355   -3.4290   -6.0413 H   0  0  0  0  0  0  0  0  0  0  0  0
    1.1111   -6.1692   -6.0210 H   0  0  0  0  0  0  0  0  0  0  0  0
    6.7085    1.3767   -4.5448 H   0  0  0  0  0  0  0  0  0  0  0  0
    7.6380   -1.5490   -1.5370 H   0  0  0  0  0  0  0  0  0  0  0  0
    5.3806   -2.5310   -1.7721 H   0  0  0  0  0  0  0  0  0  0  0  0
  2  1  1  0  0  0  0
  2 27  1  0  0  0  0
  3  1  2  0  0  0  0
  4  2  2  0  0  0  0
  4 28  1  0  0  0  0
  5  3  1  0  0  0  0
  5 29  1  0  0  0  0
  6  4  1  0  0  0  0
  6  5  2  0  0  0  0
  7  6  1  0  0  0  0
  8  3  1  0  0  0  0
  9  1  1  0  0  0  0
  9 30  1  0  0  0  0
  9 31  1  0  0  0  0
 10  9  1  0  0  0  0
 11 10  1  0  0  0  0
 12 11  2  0  0  0  0
 13 12  1  0  0  0  0
 14 12  1  0  0  0  0
 14 32  1  0  0  0  0
 14 33  1  0  0  0  0
 15 14  1  0  0  0  0
 16 15  1  0  0  0  0
 16 34  1  0  0  0  0
 17 16  2  0  0  0  0
 18 15  1  0  0  0  0
 18 35  1  0  0  0  0
 19 17  1  0  0  0  0
 19 18  2  0  0  0  0
 19 36  1  0  0  0  0
 21 20  1  0  0  0  0
 21 37  1  0  0  0  0
 22 20  2  0  0  0  0
 22 38  1  0  0  0  0
 23 13  1  0  0  0  0
 23 21  2  0  0  0  0
 24 13  2  0  0  0  0
 24 22  1  0  0  0  0
 24 39  1  0  0  0  0
 25 20  1  0  0  0  0
 26 23  1  0  0  0  0
M  END
>  <DRUGBANK_ID>
DB00239

>  <SECONDARY_ACCESSION_NUMBERS>
APRD01154

>  <COMMON_NAME>
Oxiconazole

>  <CAS_NUMBER>
64211-45-6

>  <UNII>
C668Q9I33J

>  <SYNONYMS>
2',4'-Dichloro-2-imidazol-1-ylacetophenone (Z)-[O-(2,4-dichlorobenzyl)oxime]; Oxiconazol; Oxiconazole; Oxiconazolum

$$$$
