
 OpenBabel10282417233D

 42 45  0  0  1  0  0  0  0  0999 V2000
    1.0391   -0.1629   -0.1404 C   0  0  0  0  0  0  0  0  0  0  0  0
    0.5186    0.3465   -1.4314 C   0  0  0  0  0  0  0  0  0  0  0  0
    0.5273   -0.4134   -2.5360 N   0  0  0  0  0  0  0  0  0  0  0  0
    0.0584    0.4059   -3.5575 O   0  0  0  0  0  0  0  0  0  0  0  0
   -0.2129    1.6404   -3.0569 C   0  0  0  0  0  0  0  0  0  0  0  0
    0.0042    1.6295   -1.7075 C   0  0  0  0  0  0  0  0  0  0  0  0
   -0.2814    2.7634   -0.8772 C   0  0  0  0  0  0  0  0  0  0  0  0
   -0.0566    4.0803   -1.2958 C   0  0  0  0  0  0  0  0  0  0  0  0
   -0.3945    5.1281   -0.4244 C   0  0  0  0  0  0  0  0  0  0  0  0
   -0.9076    4.8639    0.8484 C   0  0  0  0  0  0  0  0  0  0  0  0
   -1.1159    3.5556    1.2606 C   0  0  0  0  0  0  0  0  0  0  0  0
   -0.8374    2.5166    0.3873 C   0  0  0  0  0  0  0  0  0  0  0  0
    0.5370    4.4334   -2.6296 C   0  0  0  0  0  0  0  0  0  0  0  0
    0.2377    3.9119   -3.7683 N   0  0  0  0  0  0  0  0  0  0  0  0
   -0.6499    2.7545   -3.9435 C   0  0  1  0  0  0  0  0  0  0  0  0
   -0.6854    2.3625   -5.4241 C   0  0  0  0  0  0  0  0  0  0  0  0
    0.6934    2.0314   -5.9609 C   0  0  0  0  0  0  0  0  0  0  0  0
    0.8604    0.7733   -6.4553 N   0  0  0  0  0  0  0  0  0  0  0  0
    1.6376    2.8204   -6.0038 O   0  0  0  0  0  0  0  0  0  0  0  0
    1.5638    5.5194   -2.6288 C   0  0  0  0  0  0  0  0  0  0  0  0
    2.6935    5.4248   -1.8051 C   0  0  0  0  0  0  0  0  0  0  0  0
    3.5207    6.5385   -1.6389 C   0  0  0  0  0  0  0  0  0  0  0  0
    3.2772    7.6957   -2.3785 C   0  0  0  0  0  0  0  0  0  0  0  0
    4.2498    9.0924   -2.1232 Cl  0  0  0  0  0  0  0  0  0  0  0  0
    2.2323    7.7395   -3.3023 C   0  0  0  0  0  0  0  0  0  0  0  0
    1.3458    6.6645   -3.3981 C   0  0  0  0  0  0  0  0  0  0  0  0
    0.6519   -1.1597    0.0803 H   0  0  0  0  0  0  0  0  0  0  0  0
    0.7615    0.4777    0.7002 H   0  0  0  0  0  0  0  0  0  0  0  0
    2.1318   -0.1779   -0.1522 H   0  0  0  0  0  0  0  0  0  0  0  0
   -0.2675    6.1645   -0.7274 H   0  0  0  0  0  0  0  0  0  0  0  0
   -1.1572    5.6830    1.5160 H   0  0  0  0  0  0  0  0  0  0  0  0
   -1.5079    3.3323    2.2486 H   0  0  0  0  0  0  0  0  0  0  0  0
   -1.0727    1.5029    0.7034 H   0  0  0  0  0  0  0  0  0  0  0  0
   -1.6681    3.0542   -3.6583 H   0  0  0  0  0  0  0  0  0  0  0  0
   -1.3631    1.5102   -5.5695 H   0  0  0  0  0  0  0  0  0  0  0  0
   -1.0864    3.1850   -6.0293 H   0  0  0  0  0  0  0  0  0  0  0  0
    1.8129    0.5178   -6.6833 H   0  0  0  0  0  0  0  0  0  0  0  0
    0.1853    0.0323   -6.3308 H   0  0  0  0  0  0  0  0  0  0  0  0
    2.9274    4.4986   -1.2864 H   0  0  0  0  0  0  0  0  0  0  0  0
    4.3450    6.5020   -0.9310 H   0  0  0  0  0  0  0  0  0  0  0  0
    2.0913    8.6122   -3.9337 H   0  0  0  0  0  0  0  0  0  0  0  0
    0.4784    6.7263   -4.0497 H   0  0  0  0  0  0  0  0  0  0  0  0
  1  2  1  0  0  0  0
  1 27  1  0  0  0  0
  1 28  1  0  0  0  0
  1 29  1  0  0  0  0
  2  3  2  0  0  0  0
  2  6  1  0  0  0  0
  3  4  1  0  0  0  0
  4  5  1  0  0  0  0
  5  6  2  0  0  0  0
  6  7  1  0  0  0  0
  7  8  2  0  0  0  0
  7 12  1  0  0  0  0
  8  9  1  0  0  0  0
  8 13  1  0  0  0  0
  9 10  2  0  0  0  0
  9 30  1  0  0  0  0
 10 11  1  0  0  0  0
 10 31  1  0  0  0  0
 11 12  2  0  0  0  0
 11 32  1  0  0  0  0
 12 33  1  0  0  0  0
 13 14  2  0  0  0  0
 13 20  1  0  0  0  0
 15 14  1  0  0  0  0
 15  5  1  0  0  0  0
 15 34  1  1  0  0  0
 15 16  1  0  0  0  0
 16 17  1  0  0  0  0
 16 35  1  0  0  0  0
 16 36  1  0  0  0  0
 17 18  1  0  0  0  0
 17 19  2  0  0  0  0
 18 37  1  0  0  0  0
 18 38  1  0  0  0  0
 20 21  2  0  0  0  0
 20 26  1  0  0  0  0
 21 22  1  0  0  0  0
 21 39  1  0  0  0  0
 22 23  2  0  0  0  0
 22 40  1  0  0  0  0
 23 24  1  0  0  0  0
 23 25  1  0  0  0  0
 25 26  2  0  0  0  0
 25 41  1  0  0  0  0
 26 42  1  0  0  0  0
M  END
>  <DRUGBANK_ID>
DB17129

>  <COMMON_NAME>
Pelabresib anhydrous

>  <CAS_NUMBER>
1380087-89-7

>  <UNII>
U4017GUQ06

>  <SYNONYMS>
2-((4s)-6-(4-chlorophenyl)-1-methyl-4h-isoxazolo(5,4-d)(2)benzazepin-4-yl)acetamide; 4h-isoxazolo(5,4-d)(2)benzazepine-4-acetamide, 6-(4-chlorophenyl)-1-methyl-, (4s); CPI-0610 anhydrous; Pelabresib

$$$$
