
 OpenBabel10282417113D

 76 79  0  0  1  0  0  0  0  0999 V2000
    2.2086   -0.1547   -0.0594 F   0  0  0  0  0  0  0  0  0  0  0  0
   -1.5156    1.6033   -2.5676 O   0  0  0  0  0  0  0  0  0  0  0  0
   -2.5087    3.9016    0.9636 O   0  0  0  0  0  0  0  0  0  0  0  0
   -1.6246    7.7692   -1.3232 O   0  0  0  0  0  0  0  0  0  0  0  0
   -0.3774    6.1110   -2.1381 O   0  0  0  0  0  0  0  0  0  0  0  0
   -7.3915   -1.2902    2.4152 O   0  0  0  0  0  0  0  0  0  0  0  0
   -8.6138   -0.2035    0.6011 N   0  0  0  0  0  0  0  0  0  0  0  0
   -4.3731    0.5264   -0.8334 N   0  0  0  0  0  0  0  0  0  0  0  0
   -2.2691    2.4469   -1.7113 C   0  0  1  0  0  0  0  0  0  0  0  0
   -2.2277    4.5480   -0.2869 C   0  0  2  0  0  0  0  0  0  0  0  0
   -6.8116    0.5840   -0.8361 C   0  0  0  0  0  0  0  0  0  0  0  0
   -4.2444    1.2265   -2.1844 C   0  0  0  0  0  0  0  0  0  0  0  0
   -1.4878    3.6485   -1.2893 C   0  0  0  0  0  0  0  0  0  0  0  0
   -3.6448    2.6445   -2.2142 C   0  0  0  0  0  0  0  0  0  0  0  0
   -1.3998    5.7831    0.0300 C   0  0  0  0  0  0  0  0  0  0  0  0
   -7.4378   -1.2925   -1.1016 C   0  0  0  0  0  0  0  0  0  0  0  0
   -7.3918    1.9849    0.0350 C   0  0  0  0  0  0  0  0  0  0  0  0
   -1.0728    6.5461   -1.2321 C   0  0  0  0  0  0  0  0  0  0  0  0
   -7.2444   -0.6272    1.3337 C   0  0  0  0  0  0  0  0  0  0  0  0
   -5.5868    0.3120   -0.2999 C   0  0  0  0  0  0  0  0  0  0  0  0
   -3.5166   -0.0667    0.1618 C   0  0  0  0  0  0  0  0  0  0  0  0
    0.8719   -0.1456    0.0099 C   0  0  0  0  0  0  0  0  0  0  0  0
   -9.1229    0.3759   -0.9605 C   0  0  0  0  0  0  0  0  0  0  0  0
   -5.7880   -0.3659    0.8503 C   0  0  0  0  0  0  0  0  0  0  0  0
   -4.4365   -0.6377    1.1464 C   0  0  0  0  0  0  0  0  0  0  0  0
   -1.9910   -0.1224    0.1760 C   0  0  0  0  0  0  0  0  0  0  0  0
   -4.0870   -1.4246    2.3018 C   0  0  0  0  0  0  0  0  0  0  0  0
    0.2244    1.0370    0.1959 C   0  0  0  0  0  0  0  0  0  0  0  0
    0.1298   -1.3210   -0.0192 C   0  0  0  0  0  0  0  0  0  0  0  0
   -8.3494    0.2733   -2.4497 C   0  0  0  0  0  0  0  0  0  0  0  0
  -10.0651    1.3363   -0.9727 C   0  0  0  0  0  0  0  0  0  0  0  0
   -1.1560    0.9899    0.4350 C   0  0  0  0  0  0  0  0  0  0  0  0
   -1.2897   -1.3080    0.0057 C   0  0  0  0  0  0  0  0  0  0  0  0
   -4.6513   -2.7013    2.4546 C   0  0  0  0  0  0  0  0  0  0  0  0
   -3.3021   -0.8870    3.3091 C   0  0  0  0  0  0  0  0  0  0  0  0
   -8.3256    0.9569   -3.6070 C   0  0  0  0  0  0  0  0  0  0  0  0
  -10.0496    2.0951   -2.1938 C   0  0  0  0  0  0  0  0  0  0  0  0
   -2.8866   -1.7143    4.3459 C   0  0  0  0  0  0  0  0  0  0  0  0
   -4.3035   -3.4970    3.5377 C   0  0  0  0  0  0  0  0  0  0  0  0
   -9.1916    1.9540   -3.4113 C   0  0  0  0  0  0  0  0  0  0  0  0
   -3.3906   -3.0120    4.4664 C   0  0  0  0  0  0  0  0  0  0  0  0
   -1.8367    0.6852   -2.4855 H   0  0  0  0  0  0  0  0  0  0  0  0
   -3.1044    3.1391    0.8318 H   0  0  0  0  0  0  0  0  0  0  0  0
   -2.1098    8.0790   -0.5392 H   0  0  0  0  0  0  0  0  0  0  0  0
   -9.3914   -0.4542    1.2021 H   0  0  0  0  0  0  0  0  0  0  0  0
   -2.5318    1.9514   -0.8176 H   0  0  0  0  0  0  0  0  0  0  0  0
   -3.1912    4.8594   -0.6910 H   0  0  0  0  0  0  0  0  0  0  0  0
   -6.6212    1.1776   -1.7188 H   0  0  0  0  0  0  0  0  0  0  0  0
   -3.7772    0.5449   -2.8996 H   0  0  0  0  0  0  0  0  0  0  0  0
   -5.2168    1.4077   -2.6547 H   0  0  0  0  0  0  0  0  0  0  0  0
   -0.5253    3.3551   -0.8586 H   0  0  0  0  0  0  0  0  0  0  0  0
   -1.2416    4.1405   -2.2228 H   0  0  0  0  0  0  0  0  0  0  0  0
   -3.5952    3.1206   -3.2025 H   0  0  0  0  0  0  0  0  0  0  0  0
   -4.2328    3.2963   -1.5593 H   0  0  0  0  0  0  0  0  0  0  0  0
   -1.9471    6.4054    0.7462 H   0  0  0  0  0  0  0  0  0  0  0  0
   -0.4659    5.5038    0.5338 H   0  0  0  0  0  0  0  0  0  0  0  0
   -7.6385   -1.9717   -0.2628 H   0  0  0  0  0  0  0  0  0  0  0  0
   -8.5009   -1.4763   -1.5104 H   0  0  0  0  0  0  0  0  0  0  0  0
   -6.9301   -1.8248   -1.9151 H   0  0  0  0  0  0  0  0  0  0  0  0
   -6.6239    2.7538    0.1802 H   0  0  0  0  0  0  0  0  0  0  0  0
   -8.1127    2.5553   -0.5618 H   0  0  0  0  0  0  0  0  0  0  0  0
   -7.8454    1.8220    1.0237 H   0  0  0  0  0  0  0  0  0  0  0  0
    0.7721    1.9775    0.1738 H   0  0  0  0  0  0  0  0  0  0  0  0
    0.6719   -2.2563   -0.0518 H   0  0  0  0  0  0  0  0  0  0  0  0
   -7.3531   -0.2175   -2.6371 H   0  0  0  0  0  0  0  0  0  0  0  0
  -10.4703    1.7238   -0.0370 H   0  0  0  0  0  0  0  0  0  0  0  0
   -1.5610    1.9360    0.7413 H   0  0  0  0  0  0  0  0  0  0  0  0
   -1.8304   -2.2454   -0.0548 H   0  0  0  0  0  0  0  0  0  0  0  0
   -5.3982   -3.0695    1.7529 H   0  0  0  0  0  0  0  0  0  0  0  0
   -3.0274    0.1641    3.2940 H   0  0  0  0  0  0  0  0  0  0  0  0
   -7.4988    0.7753   -4.3174 H   0  0  0  0  0  0  0  0  0  0  0  0
  -10.6495    2.9900   -2.1959 H   0  0  0  0  0  0  0  0  0  0  0  0
   -2.1484   -1.3505    5.0508 H   0  0  0  0  0  0  0  0  0  0  0  0
   -4.7260   -4.4923    3.6358 H   0  0  0  0  0  0  0  0  0  0  0  0
   -9.1330    2.7313   -4.1555 H   0  0  0  0  0  0  0  0  0  0  0  0
   -3.0812   -3.6388    5.2962 H   0  0  0  0  0  0  0  0  0  0  0  0
  1 22  1  0  0  0  0
  2 42  1  0  0  0  0
  3 43  1  0  0  0  0
  4 18  1  0  0  0  0
  4 44  1  0  0  0  0
  5 18  2  0  0  0  0
  6 19  2  0  0  0  0
  7 19  1  0  0  0  0
  7 23  1  0  0  0  0
  7 45  1  0  0  0  0
  8 12  1  0  0  0  0
  8 20  1  0  0  0  0
  8 21  1  0  0  0  0
  9  2  1  0  0  0  0
  9 13  1  0  0  0  0
  9 14  1  0  0  0  0
  9 46  1  1  0  0  0
 10  3  1  0  0  0  0
 10 13  1  0  0  0  0
 10 15  1  0  0  0  0
 10 47  1  6  0  0  0
 11 16  1  0  0  0  0
 11 17  1  0  0  0  0
 11 20  1  0  0  0  0
 11 48  1  0  0  0  0
 12 14  1  0  0  0  0
 12 49  1  0  0  0  0
 12 50  1  0  0  0  0
 13 51  1  0  0  0  0
 13 52  1  0  0  0  0
 14 53  1  0  0  0  0
 14 54  1  0  0  0  0
 15 18  1  0  0  0  0
 15 55  1  0  0  0  0
 15 56  1  0  0  0  0
 16 57  1  0  0  0  0
 16 58  1  0  0  0  0
 16 59  1  0  0  0  0
 17 60  1  0  0  0  0
 17 61  1  0  0  0  0
 17 62  1  0  0  0  0
 19 24  1  0  0  0  0
 20 24  2  0  0  0  0
 21 25  2  0  0  0  0
 21 26  1  0  0  0  0
 22 28  1  0  0  0  0
 22 29  2  0  0  0  0
 23 30  1  0  0  0  0
 23 31  2  0  0  0  0
 24 25  1  0  0  0  0
 25 27  1  0  0  0  0
 26 32  1  0  0  0  0
 26 33  2  0  0  0  0
 27 34  2  0  0  0  0
 27 35  1  0  0  0  0
 28 32  2  0  0  0  0
 28 63  1  0  0  0  0
 29 33  1  0  0  0  0
 29 64  1  0  0  0  0
 30 36  2  0  0  0  0
 30 65  1  0  0  0  0
 31 37  1  0  0  0  0
 31 66  1  0  0  0  0
 32 67  1  0  0  0  0
 33 68  1  0  0  0  0
 34 39  1  0  0  0  0
 34 69  1  0  0  0  0
 35 38  2  0  0  0  0
 35 70  1  0  0  0  0
 36 40  1  0  0  0  0
 36 71  1  0  0  0  0
 37 40  2  0  0  0  0
 37 72  1  0  0  0  0
 38 41  1  0  0  0  0
 38 73  1  0  0  0  0
 39 41  2  0  0  0  0
 39 74  1  0  0  0  0
 40 75  1  0  0  0  0
 41 76  1  0  0  0  0
M  END
>  <DRUGBANK_ID>
DB01076

>  <SECONDARY_ACCESSION_NUMBERS>
APRD00055

>  <COMMON_NAME>
Atorvastatin

>  <CAS_NUMBER>
134523-00-5

>  <UNII>
A0JWA85V8F

>  <SYNONYMS>
Atorvastatin; atorvastatina; atorvastatine; atorvastatinum

$$$$
