1CX
 OpenBabel10282417163D

 36 37  0  0  0  0  0  0  0  0999 V2000
    1.3566   -0.6739    0.4077 N   0  0  0  0  0  0  0  0  0  0  0  0
    0.4730   -2.5707    1.2926 C   0  0  0  0  0  0  0  0  0  0  0  0
   -0.5360   -3.4966    1.3526 C   0  0  0  0  0  0  0  0  0  0  0  0
   -1.3683   -3.7215    0.2504 C   0  0  0  0  0  0  0  0  0  0  0  0
    3.1547    1.1592    0.4952 C   0  0  0  0  0  0  0  0  0  0  0  0
    4.4926    1.2011    0.2597 C   0  0  0  0  0  0  0  0  0  0  0  0
    4.9288   -1.2072    0.1143 C   0  0  0  0  0  0  0  0  0  0  0  0
    2.4273    2.6736    0.4123 C   0  0  0  0  0  0  0  0  0  0  0  0
    1.3557    0.8024   -1.7301 C   0  0  0  0  0  0  0  0  0  0  0  0
   -1.2571   -2.9583   -0.9031 C   0  0  0  0  0  0  0  0  0  0  0  0
   -0.2946   -1.9712   -0.9173 C   0  0  0  0  0  0  0  0  0  0  0  0
    0.6355   -1.8075    0.1635 C   0  0  0  0  0  0  0  0  0  0  0  0
   -2.7853   -5.2106    0.3816 I   0  0  0  0  0  0  0  0  0  0  0  0
    5.3677    0.0473    0.1085 C   0  0  0  0  0  0  0  0  0  0  0  0
    3.5263   -1.5486    0.3137 C   0  0  2  0  0  0  0  0  0  0  0  0
    2.6332   -0.3551    0.4726 C   0  0  0  0  0  0  0  0  0  0  0  0
    5.7842   -2.2388   -0.0579 F   0  0  0  0  0  0  0  0  0  0  0  0
    3.3822   -2.3724    1.3931 F   0  0  0  0  0  0  0  0  0  0  0  0
   -0.4190   -1.0682   -1.9067 F   0  0  0  0  0  0  0  0  0  0  0  0
    3.1837    3.6633    0.3908 O   0  0  0  0  0  0  0  0  0  0  0  0
    1.1014    3.0812    0.2503 N   0  0  0  0  0  0  0  0  0  0  0  0
    0.0157    2.4469   -0.3701 O   0  0  0  0  0  0  0  0  0  0  0  0
    0.3588    1.1191   -0.4414 C   0  0  0  0  0  0  0  0  0  0  0  0
    2.2952    1.8236   -2.0754 O   0  0  0  0  0  0  0  0  0  0  0  0
    3.1699   -2.0974   -0.5710 H   0  0  0  0  0  0  0  0  0  0  0  0
    1.0778   -2.3093    2.1550 H   0  0  0  0  0  0  0  0  0  0  0  0
   -0.6589   -4.0081    2.2981 H   0  0  0  0  0  0  0  0  0  0  0  0
    4.9892    2.1579    0.0857 H   0  0  0  0  0  0  0  0  0  0  0  0
    2.0003   -0.0947   -1.6848 H   0  0  0  0  0  0  0  0  0  0  0  0
    0.7661    0.6072   -2.6155 H   0  0  0  0  0  0  0  0  0  0  0  0
   -1.9277   -3.0570   -1.7553 H   0  0  0  0  0  0  0  0  0  0  0  0
    6.4333    0.2022   -0.0282 H   0  0  0  0  0  0  0  0  0  0  0  0
    0.9412    4.0803    0.1528 H   0  0  0  0  0  0  0  0  0  0  0  0
    0.7321    1.0480    0.6062 H   0  0  0  0  0  0  0  0  0  0  0  0
   -0.5124    0.4644   -0.3556 H   0  0  0  0  0  0  0  0  0  0  0  0
    1.8750    2.6699   -1.8522 H   0  0  0  0  0  0  0  0  0  0  0  0
  1 12  1  0  0  0  0
  1 16  2  0  0  0  0
  2  3  2  0  0  0  0
  2 12  1  0  0  0  0
  2 26  1  0  0  0  0
  3  4  1  0  0  0  0
  3 27  1  0  0  0  0
  4 10  2  0  0  0  0
  4 13  1  0  0  0  0
  5  6  2  0  0  0  0
  5  8  1  0  0  0  0
  5 16  1  0  0  0  0
  6 14  1  0  0  0  0
  6 28  1  0  0  0  0
  7 14  2  0  0  0  0
  7 15  1  0  0  0  0
  7 17  1  0  0  0  0
  8 20  2  0  0  0  0
  8 21  1  0  0  0  0
  9 23  1  0  0  0  0
  9 24  1  0  0  0  0
  9 29  1  0  0  0  0
  9 30  1  0  0  0  0
 10 11  1  0  0  0  0
 10 31  1  0  0  0  0
 11 12  2  0  0  0  0
 11 19  1  0  0  0  0
 14 32  1  0  0  0  0
 15 16  1  0  0  0  0
 15 18  1  0  0  0  0
 15 25  1  6  0  0  0
 21 22  1  0  0  0  0
 21 33  1  0  0  0  0
 22 23  1  0  0  0  0
 23 34  1  0  0  0  0
 23 35  1  0  0  0  0
 24 36  1  0  0  0  0
M  END
>  <DRUGBANK_ID>
DB06892

>  <COMMON_NAME>
(5S)-4,5-difluoro-6-[(2-fluoro-4-iodophenyl)imino]-N-(2-hydroxyethoxy)cyclohexa-1,3-diene-1-carboxamide

$$$$
