
 OpenBabel10282417233D

 36 37  0  0  1  0  0  0  0  0999 V2000
    0.8181   -0.0629   -0.0554 C   0  0  0  0  0  0  0  0  0  0  0  0
    0.4396   -0.5812    1.2218 O   0  0  0  0  0  0  0  0  0  0  0  0
    0.9119   -1.8418    1.5045 C   0  0  0  0  0  0  0  0  0  0  0  0
   -0.0498   -2.7485    2.0129 C   0  0  0  0  0  0  0  0  0  0  0  0
    0.3335   -4.0638    2.3825 C   0  0  0  0  0  0  0  0  0  0  0  0
    1.6722   -4.4182    2.2255 C   0  0  0  0  0  0  0  0  0  0  0  0
    1.8226   -5.7147    2.6464 N   0  0  0  0  0  0  0  0  0  0  0  0
    0.6323   -6.1964    3.0977 C   0  0  0  0  0  0  0  0  0  0  0  0
   -0.3318   -5.2171    2.9265 C   0  0  0  0  0  0  0  0  0  0  0  0
   -1.7897   -5.3741    3.2882 C   0  0  1  0  0  0  0  0  0  0  0  0
   -2.4180   -6.5255    2.4897 C   0  0  0  0  0  0  0  0  0  0  0  0
   -1.9680   -5.6278    4.7998 C   0  0  0  0  0  0  0  0  0  0  0  0
   -1.4739   -4.5235    5.6118 N   0  0  0  0  0  0  0  0  0  0  0  0
   -2.2926   -3.8228    6.4603 C   0  0  0  0  0  0  0  0  0  0  0  0
   -1.6367   -2.6983    7.2150 C   0  0  0  0  0  0  0  0  0  0  0  0
   -3.4868   -4.0780    6.6095 O   0  0  0  0  0  0  0  0  0  0  0  0
    2.6397   -3.5391    1.7450 C   0  0  0  0  0  0  0  0  0  0  0  0
    2.2544   -2.2348    1.4270 C   0  0  0  0  0  0  0  0  0  0  0  0
    3.5759   -1.1741    1.0755 Cl  0  0  0  0  0  0  0  0  0  0  0  0
    0.3559    0.9220   -0.1731 H   0  0  0  0  0  0  0  0  0  0  0  0
    0.4749   -0.7115   -0.8671 H   0  0  0  0  0  0  0  0  0  0  0  0
    1.8866    0.1179   -0.1520 H   0  0  0  0  0  0  0  0  0  0  0  0
   -1.0842   -2.4333    2.1348 H   0  0  0  0  0  0  0  0  0  0  0  0
    2.6972   -6.2216    2.6438 H   0  0  0  0  0  0  0  0  0  0  0  0
    0.5624   -7.1998    3.4980 H   0  0  0  0  0  0  0  0  0  0  0  0
   -2.3245   -4.4526    3.0260 H   0  0  0  0  0  0  0  0  0  0  0  0
   -1.9300   -7.4826    2.7110 H   0  0  0  0  0  0  0  0  0  0  0  0
   -3.4818   -6.6343    2.7237 H   0  0  0  0  0  0  0  0  0  0  0  0
   -2.3227   -6.3512    1.4121 H   0  0  0  0  0  0  0  0  0  0  0  0
   -3.0265   -5.8036    5.0199 H   0  0  0  0  0  0  0  0  0  0  0  0
   -1.4206   -6.5242    5.1155 H   0  0  0  0  0  0  0  0  0  0  0  0
   -0.4966   -4.2702    5.5170 H   0  0  0  0  0  0  0  0  0  0  0  0
   -2.1514   -1.7645    6.9701 H   0  0  0  0  0  0  0  0  0  0  0  0
   -1.7302   -2.8908    8.2879 H   0  0  0  0  0  0  0  0  0  0  0  0
   -0.5774   -2.5888    6.9692 H   0  0  0  0  0  0  0  0  0  0  0  0
    3.6772   -3.8444    1.6638 H   0  0  0  0  0  0  0  0  0  0  0  0
  1  2  1  0  0  0  0
  1 20  1  0  0  0  0
  1 21  1  0  0  0  0
  1 22  1  0  0  0  0
  2  3  1  0  0  0  0
  3  4  2  0  0  0  0
  3 18  1  0  0  0  0
  4  5  1  0  0  0  0
  4 23  1  0  0  0  0
  5  6  2  0  0  0  0
  5  9  1  0  0  0  0
  6  7  1  0  0  0  0
  6 17  1  0  0  0  0
  7  8  1  0  0  0  0
  7 24  1  0  0  0  0
  8  9  2  0  0  0  0
  8 25  1  0  0  0  0
 10  9  1  0  0  0  0
 10 11  1  0  0  0  0
 10 12  1  0  0  0  0
 10 26  1  6  0  0  0
 11 27  1  0  0  0  0
 11 28  1  0  0  0  0
 11 29  1  0  0  0  0
 12 13  1  0  0  0  0
 12 30  1  0  0  0  0
 12 31  1  0  0  0  0
 13 14  1  0  0  0  0
 13 32  1  0  0  0  0
 14 15  1  0  0  0  0
 14 16  2  0  0  0  0
 15 33  1  0  0  0  0
 15 34  1  0  0  0  0
 15 35  1  0  0  0  0
 17 18  2  0  0  0  0
 17 36  1  0  0  0  0
 18 19  1  0  0  0  0
M  END
>  <DRUGBANK_ID>
DB16909

>  <COMMON_NAME>
TIK-301

>  <CAS_NUMBER>
118702-11-7

>  <UNII>
3ZX95B1ZWK

>  <SYNONYMS>
(R)-N-[2-(6-Chloro-5-Methoxy-1H-Indol-3-Yl)Propyl]Acetamide; Beta-methyl-6-chloromelatonin; LY-156,735; LY-156735; N-((2r)-2-(6-chloro-5-methoxy-1h-indol-3-yl)propyl)acetamide

$$$$
