
 OpenBabel10282417223D

 42 43  0  0  0  0  0  0  0  0999 V2000
   -1.9269    0.8532   -0.0166 O   0  0  0  0  0  0  0  0  0  0  0  0
   -0.6011    0.6851   -0.4961 C   0  0  1  0  0  0  0  0  0  0  0  0
    0.4802    1.3508    0.3834 C   0  0  1  0  0  0  0  0  0  0  0  0
    1.6690    0.5427    0.2675 O   0  0  0  0  0  0  0  0  0  0  0  0
    1.3181   -0.7053   -0.3458 C   0  0  1  0  0  0  0  0  0  0  0  0
   -0.1982   -0.7634   -0.4753 C   0  0  1  0  0  0  0  0  0  0  0  0
   -0.7720   -1.4288    0.6536 O   0  0  0  0  0  0  0  0  0  0  0  0
    2.0602   -0.8927   -1.6813 C   0  0  0  0  0  0  0  0  0  0  0  0
    1.4477   -1.8675   -2.5544 O   0  0  0  0  0  0  0  0  0  0  0  0
    1.1959   -3.1592   -2.2276 C   0  0  0  0  0  0  0  0  0  0  0  0
    1.7711   -3.7074   -0.9352 C   0  0  0  0  0  0  0  0  0  0  0  0
    0.6610   -4.2066   -0.0162 C   0  0  0  0  0  0  0  0  0  0  0  0
    2.7525   -4.8214   -1.2246 C   0  0  0  0  0  0  0  0  0  0  0  0
    0.5104   -3.8541   -2.9786 O   0  0  0  0  0  0  0  0  0  0  0  0
    0.7625    2.7006   -0.0865 N   0  0  0  0  0  0  0  0  0  0  0  0
   -0.2559    3.6384    0.0589 C   0  0  0  0  0  0  0  0  0  0  0  0
   -1.2217    3.5015    0.8149 O   0  0  0  0  0  0  0  0  0  0  0  0
   -0.1653    4.7339   -0.7612 N   0  0  0  0  0  0  0  0  0  0  0  0
    0.7189    4.8672   -1.7954 C   0  0  0  0  0  0  0  0  0  0  0  0
    1.8332    3.9153   -1.8146 C   0  0  0  0  0  0  0  0  0  0  0  0
    1.8288    2.9183   -0.9366 C   0  0  0  0  0  0  0  0  0  0  0  0
    0.6344    5.7806   -2.7082 N   0  0  0  0  0  0  0  0  0  0  0  0
   -0.4815    6.6034   -2.5244 O   0  0  0  0  0  0  0  0  0  0  0  0
   -2.5178    0.3238   -0.5804 H   0  0  0  0  0  0  0  0  0  0  0  0
   -0.5497    1.0681   -1.5228 H   0  0  0  0  0  0  0  0  0  0  0  0
    0.1840    1.3727    1.4389 H   0  0  0  0  0  0  0  0  0  0  0  0
    1.6548   -1.4398    0.3836 H   0  0  0  0  0  0  0  0  0  0  0  0
   -0.5626   -1.2945   -1.3582 H   0  0  0  0  0  0  0  0  0  0  0  0
   -0.5811   -0.9248    1.4624 H   0  0  0  0  0  0  0  0  0  0  0  0
    2.0768    0.0539   -2.2366 H   0  0  0  0  0  0  0  0  0  0  0  0
    3.1145   -1.1595   -1.5420 H   0  0  0  0  0  0  0  0  0  0  0  0
    2.3707   -2.9679   -0.4165 H   0  0  0  0  0  0  0  0  0  0  0  0
    0.1068   -5.0348   -0.4660 H   0  0  0  0  0  0  0  0  0  0  0  0
    1.0654   -4.5310    0.9475 H   0  0  0  0  0  0  0  0  0  0  0  0
   -0.0779   -3.4407    0.1894 H   0  0  0  0  0  0  0  0  0  0  0  0
    3.5606   -4.4531   -1.8632 H   0  0  0  0  0  0  0  0  0  0  0  0
    3.1903   -5.1746   -0.2850 H   0  0  0  0  0  0  0  0  0  0  0  0
    2.2603   -5.6589   -1.7234 H   0  0  0  0  0  0  0  0  0  0  0  0
   -0.9230    5.3981   -0.7145 H   0  0  0  0  0  0  0  0  0  0  0  0
    2.6089    4.0426   -2.5560 H   0  0  0  0  0  0  0  0  0  0  0  0
    2.6552    2.2145   -0.9064 H   0  0  0  0  0  0  0  0  0  0  0  0
   -0.3986    7.2144   -3.2824 H   0  0  0  0  0  0  0  0  0  0  0  0
  1 24  1  0  0  0  0
  2  1  1  0  0  0  0
  2  3  1  0  0  0  0
  2  6  1  0  0  0  0
  2 25  1  6  0  0  0
  3  4  1  0  0  0  0
  3 26  1  1  0  0  0
  3 15  1  0  0  0  0
  4  5  1  0  0  0  0
  5 27  1  1  0  0  0
  5  8  1  0  0  0  0
  6  5  1  0  0  0  0
  6  7  1  0  0  0  0
  6 28  1  6  0  0  0
  7 29  1  0  0  0  0
  8  9  1  0  0  0  0
  8 30  1  0  0  0  0
  8 31  1  0  0  0  0
  9 10  1  0  0  0  0
 10 11  1  0  0  0  0
 10 14  2  0  0  0  0
 11 12  1  0  0  0  0
 11 13  1  0  0  0  0
 11 32  1  0  0  0  0
 12 33  1  0  0  0  0
 12 34  1  0  0  0  0
 12 35  1  0  0  0  0
 13 36  1  0  0  0  0
 13 37  1  0  0  0  0
 13 38  1  0  0  0  0
 15 16  1  0  0  0  0
 15 21  1  0  0  0  0
 16 17  2  0  0  0  0
 16 18  1  0  0  0  0
 18 19  1  0  0  0  0
 18 39  1  0  0  0  0
 19 22  2  0  0  0  0
 20 19  1  0  0  0  0
 20 40  1  0  0  0  0
 21 20  2  0  0  0  0
 21 41  1  0  0  0  0
 22 23  1  0  0  0  0
 23 42  1  0  0  0  0
M  END
>  <DRUGBANK_ID>
DB15661

>  <COMMON_NAME>
Molnupiravir

>  <CAS_NUMBER>
2349386-89-4

>  <UNII>
YA84KI1VEW

>  <SYNONYMS>
Molnupiravir

$$$$
