
 OpenBabel10282417243D

 96101  0  0  1  0  0  0  0  0999 V2000
   10.0226   15.4267    9.3857 C   0  0  0  0  0  0  0  0  0  0  0  0
    8.6796   15.0112    9.2105 O   0  0  0  0  0  0  0  0  0  0  0  0
    8.2710   14.9690    7.9005 C   0  0  0  0  0  0  0  0  0  0  0  0
    9.2902   14.8677    6.8208 C   0  0  0  0  0  0  0  0  0  0  0  0
    8.8429   14.8184    5.5551 C   0  0  0  0  0  0  0  0  0  0  0  0
    7.3030   14.6841    5.7099 C   0  0  0  0  0  0  0  0  0  0  0  0
    6.1895   14.5868    6.5579 C   0  0  0  0  0  0  0  0  0  0  0  0
    4.8427   14.7904    6.1836 O   0  0  0  0  0  0  0  0  0  0  0  0
    4.1987   15.0484    4.8749 C   0  0  0  0  0  0  0  0  0  0  0  0
    6.7383   15.0589    7.7287 C   0  0  0  0  0  0  0  0  0  0  0  0
    5.8570   15.9657    8.6279 C   0  0  0  0  0  0  0  0  0  0  0  0
    5.4053   17.4015    8.3209 N   0  0  0  0  0  0  0  0  0  0  0  0
    4.4794   17.6528    7.2150 C   0  0  0  0  0  0  0  0  0  0  0  0
    5.2235   17.7796    5.9170 C   0  0  0  0  0  0  0  0  0  0  0  0
    6.4798   18.6086    5.7833 C   0  0  2  0  0  0  0  0  0  0  0  0
    7.1411   18.2854    4.4872 N   0  0  3  0  0  0  0  0  0  0  0  0
    6.5094   18.3479    3.1553 C   0  0  0  0  0  0  0  0  0  0  0  0
    5.6419   17.1715    2.6273 C   0  0  0  0  0  0  0  0  0  0  0  0
    6.3647   15.9116    2.5984 N   0  0  0  0  0  0  0  0  0  0  0  0
    7.1946   15.7142    3.6833 C   0  0  0  0  0  0  0  0  0  0  0  0
    7.8000   17.0230    4.5392 C   0  0  0  0  0  0  0  0  0  0  0  0
    6.2035   14.6417    2.0218 C   0  0  0  0  0  0  0  0  0  0  0  0
    6.9129   14.6398    0.8443 C   0  0  0  0  0  0  0  0  0  0  0  0
    7.0990   13.4904    0.1217 C   0  0  0  0  0  0  0  0  0  0  0  0
    6.5940   12.2752    0.5714 C   0  0  0  0  0  0  0  0  0  0  0  0
    6.5530   11.1967   -0.2982 N   0  0  0  0  0  0  0  0  0  0  0  0
    5.4282   10.2804   -0.0984 C   0  0  1  0  0  0  0  0  0  0  0  0
    4.0417   10.9589   -0.1160 C   0  0  0  0  0  0  0  0  0  0  0  0
    2.9562    9.9055    0.0483 C   0  0  0  0  0  0  0  0  0  0  0  0
    3.1691    8.8056   -0.9600 C   0  0  0  0  0  0  0  0  0  0  0  0
    2.3161    8.4429   -1.7565 O   0  0  0  0  0  0  0  0  0  0  0  0
    4.4261    8.2596   -0.8962 N   0  0  0  0  0  0  0  0  0  0  0  0
    5.4359    9.1610   -1.1266 C   0  0  0  0  0  0  0  0  0  0  0  0
    6.2313    9.0617   -2.0566 O   0  0  0  0  0  0  0  0  0  0  0  0
    6.1470   12.1650    1.8736 C   0  0  0  0  0  0  0  0  0  0  0  0
    5.9414   13.3227    2.5886 C   0  0  0  0  0  0  0  0  0  0  0  0
    5.5725   13.0347    3.8509 F   0  0  0  0  0  0  0  0  0  0  0  0
    7.3462   18.4924    7.1254 C   0  0  0  0  0  0  0  0  0  0  0  0
    8.0939   17.3811    7.2643 F   0  0  0  0  0  0  0  0  0  0  0  0
    8.2484   19.5027    7.1902 F   0  0  0  0  0  0  0  0  0  0  0  0
    6.4286   18.4711    8.3379 C   0  0  0  0  0  0  0  0  0  0  0  0
    9.8492   15.2109    4.1399 C   0  0  0  0  0  0  0  0  0  0  0  0
   10.4863   14.0952    3.7347 C   0  0  0  0  0  0  0  0  0  0  0  0
   11.2783   14.0102    2.6086 N   0  0  0  0  0  0  0  0  0  0  0  0
   12.0449   12.8147    2.3980 C   0  0  0  0  0  0  0  0  0  0  0  0
   11.5247   15.0021    1.6389 C   0  0  0  0  0  0  0  0  0  0  0  0
   12.2689   14.9001    0.7190 O   0  0  0  0  0  0  0  0  0  0  0  0
   10.7941   16.2648    1.8509 C   0  0  0  0  0  0  0  0  0  0  0  0
   10.9776   17.3753    0.7931 C   0  0  0  0  0  0  0  0  0  0  0  0
   10.0818   16.4468    2.9850 C   0  0  0  0  0  0  0  0  0  0  0  0
    9.6296   17.9494    2.8394 C   0  0  0  0  0  0  0  0  0  0  0  0
   10.3288   15.0677   10.3626 H   0  0  0  0  0  0  0  0  0  0  0  0
   10.0519   16.5166    9.3264 H   0  0  0  0  0  0  0  0  0  0  0  0
   10.7585   14.9977    8.6996 H   0  0  0  0  0  0  0  0  0  0  0  0
   10.3595   14.9976    6.9164 H   0  0  0  0  0  0  0  0  0  0  0  0
    7.0054   15.7681    5.7056 H   0  0  0  0  0  0  0  0  0  0  0  0
    4.3961   16.0179    4.4544 H   0  0  0  0  0  0  0  0  0  0  0  0
    4.3975   14.3781    4.0653 H   0  0  0  0  0  0  0  0  0  0  0  0
    3.1027   15.0809    4.9173 H   0  0  0  0  0  0  0  0  0  0  0  0
    4.9358   15.3871    8.7628 H   0  0  0  0  0  0  0  0  0  0  0  0
    6.3538   15.9988    9.5978 H   0  0  0  0  0  0  0  0  0  0  0  0
    3.7367   16.8500    7.1247 H   0  0  0  0  0  0  0  0  0  0  0  0
    3.8931   18.5766    7.3198 H   0  0  0  0  0  0  0  0  0  0  0  0
    5.5795   16.7955    5.8271 H   0  0  0  0  0  0  0  0  0  0  0  0
    4.5276   17.9427    5.1005 H   0  0  0  0  0  0  0  0  0  0  0  0
    6.2049   19.6618    5.7152 H   0  0  0  0  0  0  0  0  0  0  0  0
    6.0302   19.3122    3.0838 H   0  0  0  0  0  0  0  0  0  0  0  0
    7.2725   18.3742    2.3766 H   0  0  0  0  0  0  0  0  0  0  0  0
    4.8038   17.2223    3.2916 H   0  0  0  0  0  0  0  0  0  0  0  0
    5.2675   17.3478    1.6336 H   0  0  0  0  0  0  0  0  0  0  0  0
    6.3201   15.4021    4.2108 H   0  0  0  0  0  0  0  0  0  0  0  0
    7.7368   14.7287    3.6337 H   0  0  0  0  0  0  0  0  0  0  0  0
    8.8063   17.0940    4.3157 H   0  0  0  0  0  0  0  0  0  0  0  0
    8.2991   16.9652    5.5133 H   0  0  0  0  0  0  0  0  0  0  0  0
    7.4042   15.5702    0.5765 H   0  0  0  0  0  0  0  0  0  0  0  0
    7.6043   13.6017   -0.8241 H   0  0  0  0  0  0  0  0  0  0  0  0
    6.7285   11.4561   -1.2677 H   0  0  0  0  0  0  0  0  0  0  0  0
    5.5774    9.7552    0.8531 H   0  0  0  0  0  0  0  0  0  0  0  0
    3.9190   11.6813    0.6984 H   0  0  0  0  0  0  0  0  0  0  0  0
    3.8951   11.5130   -1.0512 H   0  0  0  0  0  0  0  0  0  0  0  0
    3.0176    9.4394    1.0394 H   0  0  0  0  0  0  0  0  0  0  0  0
    1.9581   10.3438   -0.0507 H   0  0  0  0  0  0  0  0  0  0  0  0
    4.5191    7.4392   -1.4754 H   0  0  0  0  0  0  0  0  0  0  0  0
    5.8878   11.2126    2.3390 H   0  0  0  0  0  0  0  0  0  0  0  0
    5.9366   19.4528    8.3572 H   0  0  0  0  0  0  0  0  0  0  0  0
    7.0163   18.3969    9.2544 H   0  0  0  0  0  0  0  0  0  0  0  0
   10.3719   13.1877    4.3170 H   0  0  0  0  0  0  0  0  0  0  0  0
   11.8067   12.4219    1.4074 H   0  0  0  0  0  0  0  0  0  0  0  0
   13.1012   13.0944    2.4433 H   0  0  0  0  0  0  0  0  0  0  0  0
   11.8254   12.0714    3.1656 H   0  0  0  0  0  0  0  0  0  0  0  0
   10.0232   17.5921    0.2809 H   0  0  0  0  0  0  0  0  0  0  0  0
   11.2982   18.3132    1.2794 H   0  0  0  0  0  0  0  0  0  0  0  0
   11.7056   17.1977    0.0125 H   0  0  0  0  0  0  0  0  0  0  0  0
   10.4155   18.6510    3.1028 H   0  0  0  0  0  0  0  0  0  0  0  0
    9.1316   18.0900    1.8679 H   0  0  0  0  0  0  0  0  0  0  0  0
    8.8866   18.4608    3.3923 H   0  0  0  0  0  0  0  0  0  0  0  0
  1  2  1  0  0  0  0
  1 52  1  0  0  0  0
  1 53  1  0  0  0  0
  1 54  1  0  0  0  0
  2  3  1  0  0  0  0
  3  4  2  0  0  0  0
  3 10  1  0  0  0  0
  4  5  1  0  0  0  0
  4 55  1  0  0  0  0
  5  6  2  0  0  0  0
  5 42  1  0  0  0  0
  6  7  1  0  0  0  0
  6 56  1  0  0  0  0
  7  8  1  0  0  0  0
  7 10  2  0  0  0  0
  8  9  1  0  0  0  0
  9 57  1  0  0  0  0
  9 58  1  0  0  0  0
  9 59  1  0  0  0  0
 10 11  1  0  0  0  0
 11 12  1  0  0  0  0
 11 60  1  0  0  0  0
 11 61  1  0  0  0  0
 12 13  1  0  0  0  0
 12 41  1  0  0  0  0
 13 14  1  0  0  0  0
 13 62  1  0  0  0  0
 13 63  1  0  0  0  0
 14 64  1  0  0  0  0
 14 65  1  0  0  0  0
 15 14  1  0  0  0  0
 15 16  1  0  0  0  0
 15 38  1  0  0  0  0
 15 66  1  6  0  0  0
 16 17  1  0  0  0  0
 16 21  1  0  0  0  0
 17 18  1  0  0  0  0
 17 67  1  0  0  0  0
 17 68  1  0  0  0  0
 18 19  1  0  0  0  0
 18 69  1  0  0  0  0
 18 70  1  0  0  0  0
 19 20  1  0  0  0  0
 19 22  1  0  0  0  0
 20 21  1  0  0  0  0
 20 71  1  0  0  0  0
 20 72  1  0  0  0  0
 21 73  1  0  0  0  0
 21 74  1  0  0  0  0
 22 23  2  0  0  0  0
 22 36  1  0  0  0  0
 23 24  1  0  0  0  0
 23 75  1  0  0  0  0
 24 25  2  0  0  0  0
 24 76  1  0  0  0  0
 25 26  1  0  0  0  0
 25 35  1  0  0  0  0
 26 77  1  0  0  0  0
 27 28  1  0  0  0  0
 27 33  1  0  0  0  0
 27 78  1  1  0  0  0
 27 26  1  0  0  0  0
 28 29  1  0  0  0  0
 28 79  1  0  0  0  0
 28 80  1  0  0  0  0
 29 30  1  0  0  0  0
 29 81  1  0  0  0  0
 29 82  1  0  0  0  0
 30 31  2  0  0  0  0
 30 32  1  0  0  0  0
 32 33  1  0  0  0  0
 32 83  1  0  0  0  0
 33 34  2  0  0  0  0
 35 36  2  0  0  0  0
 35 84  1  0  0  0  0
 36 37  1  0  0  0  0
 38 39  1  0  0  0  0
 38 40  1  0  0  0  0
 38 41  1  0  0  0  0
 41 85  1  0  0  0  0
 41 86  1  0  0  0  0
 42 43  2  0  0  0  0
 42 50  1  0  0  0  0
 43 44  1  0  0  0  0
 43 87  1  0  0  0  0
 44 45  1  0  0  0  0
 44 46  1  0  0  0  0
 45 88  1  0  0  0  0
 45 89  1  0  0  0  0
 45 90  1  0  0  0  0
 46 47  2  0  0  0  0
 46 48  1  0  0  0  0
 48 49  1  0  0  0  0
 48 50  2  0  0  0  0
 49 91  1  0  0  0  0
 49 92  1  0  0  0  0
 49 93  1  0  0  0  0
 50 51  1  0  0  0  0
 51 94  1  0  0  0  0
 51 95  1  0  0  0  0
 51 96  1  0  0  0  0
M  END
>  <DRUGBANK_ID>
DB18443

>  <COMMON_NAME>
CFT-8634

>  <CAS_NUMBER>
2704617-96-7

>  <UNII>
AW8PEP3VZ3

>  <SYNONYMS>
2,6-PIPERIDINEDIONE, 3-((4-(4-((4S)-1-((4-(1,6-DIHYDRO-1,4,5-TRIMETHYL-6-OXO-3-PYRIDINYL)-2,6-DIMETHOXYPHENYL)METHYL)-3,3-DIFLUORO-4-PIPERIDINYL)-1-PIPERAZINYL)-3-FLUOROPHENYL)AMINO)-, (3S)-

$$$$
