
 OpenBabel10282417123D

  7  6  0  0  0  0  0  0  0  0999 V2000
    0.9326    0.0687   -0.0273 H   0  0  0  0  0  0  0  0  0  0  0  0
    1.9326    0.0687   -0.0273 O   0  0  0  0  0  0  0  0  0  0  0  0
    2.6159    1.5517   -1.2667 Sb  0  0  0  0  0  0  0  0  0  0  0  0
    1.9326    3.3666   -0.6020 O   0  0  0  0  0  0  0  0  0  0  0  0
    0.9326    3.3666   -0.6020 H   0  0  0  0  0  0  0  0  0  0  0  0
    4.6659    1.5517   -1.2667 O   0  0  0  0  0  0  0  0  0  0  0  0
    4.9993    2.2751   -1.8713 H   0  0  0  0  0  0  0  0  0  0  0  0
  1  2  1  0  0  0  0
  2  3  1  0  0  0  0
  3  4  1  0  0  0  0
  3  6  1  0  0  0  0
  4  5  1  0  0  0  0
  6  7  1  0  0  0  0
M  END
>  <DRUGBANK_ID>
DB02453

>  <SECONDARY_ACCESSION_NUMBERS>
EXPT02857

>  <COMMON_NAME>
Antimonous acid

>  <SYNONYMS>
Stiborous acid; Trihydroxyantimonite(III)

$$$$
