
 OpenBabel10282417213D

 32 32  0  0  0  0  0  0  0  0999 V2000
    0.8860    0.0390   -0.2050 C   0  0  0  0  0  0  0  0  0  0  0  0
   -0.5452   -1.3842    4.6851 C   0  0  0  0  0  0  0  0  0  0  0  0
    0.0941   -0.3830    3.9612 C   0  0  0  0  0  0  0  0  0  0  0  0
   -0.3880   -2.7086    4.2770 C   0  0  0  0  0  0  0  0  0  0  0  0
   -1.4559   -3.9603    0.2011 C   0  0  0  0  0  0  0  0  0  0  0  0
    0.8046   -0.6983    2.8142 C   0  0  0  0  0  0  0  0  0  0  0  0
    0.3586   -3.0183    3.1339 C   0  0  0  0  0  0  0  0  0  0  0  0
   -2.0477   -3.6387    1.5633 C   0  0  0  0  0  0  0  0  0  0  0  0
   -1.5559   -2.7843   -0.7687 C   0  0  0  0  0  0  0  0  0  0  0  0
    1.2743   -2.2517    0.8639 C   0  0  0  0  0  0  0  0  0  0  0  0
    0.5215   -1.4557   -0.2742 C   0  0  3  0  0  0  0  0  0  0  0  0
    0.8363   -1.9971    2.2970 C   0  0  0  0  0  0  0  0  0  0  0  0
   -3.8159   -3.6131    1.5869 Cl  0  0  0  0  0  0  0  0  0  0  0  0
   -0.9458   -1.5257   -0.3397 N   0  0  0  0  0  0  0  0  0  0  0  0
    0.3422    0.5563    0.5920 H   0  0  0  0  0  0  0  0  0  0  0  0
    0.6317    0.5773   -1.1220 H   0  0  0  0  0  0  0  0  0  0  0  0
    1.9614    0.1597   -0.0306 H   0  0  0  0  0  0  0  0  0  0  0  0
   -1.1387   -1.1345    5.5535 H   0  0  0  0  0  0  0  0  0  0  0  0
    0.0102    0.6564    4.2713 H   0  0  0  0  0  0  0  0  0  0  0  0
   -0.9228   -3.4914    4.8160 H   0  0  0  0  0  0  0  0  0  0  0  0
   -1.9450   -4.8477   -0.2135 H   0  0  0  0  0  0  0  0  0  0  0  0
   -0.4129   -4.2653    0.3009 H   0  0  0  0  0  0  0  0  0  0  0  0
    1.3138    0.1087    2.2962 H   0  0  0  0  0  0  0  0  0  0  0  0
    0.4397   -4.0632    2.8317 H   0  0  0  0  0  0  0  0  0  0  0  0
   -1.7237   -4.3857    2.2920 H   0  0  0  0  0  0  0  0  0  0  0  0
   -1.7458   -2.6473    1.8958 H   0  0  0  0  0  0  0  0  0  0  0  0
   -2.6231   -2.5911   -0.9354 H   0  0  0  0  0  0  0  0  0  0  0  0
   -1.1580   -3.0753   -1.7472 H   0  0  0  0  0  0  0  0  0  0  0  0
    1.2173   -3.3205    0.6392 H   0  0  0  0  0  0  0  0  0  0  0  0
    2.3472   -2.0380    0.7912 H   0  0  0  0  0  0  0  0  0  0  0  0
    0.9112   -1.8091   -1.2381 H   0  0  0  0  0  0  0  0  0  0  0  0
   -1.3692   -1.1650    0.5144 H   0  0  0  0  0  0  0  0  0  0  0  0
  1 15  1  0  0  0  0
  1 16  1  0  0  0  0
  1 17  1  0  0  0  0
  2 18  1  0  0  0  0
  3  2  2  0  0  0  0
  3 19  1  0  0  0  0
  4  2  1  0  0  0  0
  4 20  1  0  0  0  0
  5 21  1  0  0  0  0
  5 22  1  0  0  0  0
  6  3  1  0  0  0  0
  6 23  1  0  0  0  0
  7  4  2  0  0  0  0
  7 24  1  0  0  0  0
  8  5  1  0  0  0  0
  8 25  1  0  0  0  0
  8 26  1  0  0  0  0
  9  5  1  0  0  0  0
  9 27  1  0  0  0  0
  9 28  1  0  0  0  0
 10 29  1  0  0  0  0
 10 30  1  0  0  0  0
 11  1  1  0  0  0  0
 11 10  1  0  0  0  0
 11 31  1  0  0  0  0
 12  6  2  0  0  0  0
 12  7  1  0  0  0  0
 12 10  1  0  0  0  0
 13  8  1  0  0  0  0
 14  9  1  0  0  0  0
 14 11  1  0  0  0  0
 14 32  1  0  0  0  0
M  END
>  <DRUGBANK_ID>
DB13852

>  <COMMON_NAME>
Mefenorex

>  <CAS_NUMBER>
17243-57-1

>  <UNII>
K98M4N387W

$$$$
