
 OpenBabel10282417183D

 76 78  0  0  1  0  0  0  0  0999 V2000
    1.1411    0.0187   -0.0011 C   0  0  0  0  0  0  0  0  0  0  0  0
    0.7358   -0.0174   -1.4644 C   0  0  0  0  0  0  0  0  0  0  0  0
    1.0614   -1.3546   -2.1614 C   0  0  0  0  0  0  0  0  0  0  0  0
    0.5258   -2.6032   -1.4659 C   0  0  0  0  0  0  0  0  0  0  0  0
   -1.0564   -2.7483   -1.2948 C   0  0  2  0  0  0  0  0  0  0  0  0
   -1.5483   -3.7734   -2.4512 C   0  0  0  0  0  0  0  0  0  0  0  0
   -3.3881   -4.1965   -2.9437 S   0  0  0  0  0  0  0  0  0  0  0  0
   -3.2713   -5.0176   -4.1575 O   0  0  0  0  0  0  0  0  0  0  0  0
   -4.4276   -4.6768   -2.0749 O   0  0  0  0  0  0  0  0  0  0  0  0
   -3.9520   -2.5637   -3.3232 C   0  0  0  0  0  0  0  0  0  0  0  0
   -4.6741   -2.5921   -4.4754 C   0  0  0  0  0  0  0  0  0  0  0  0
   -5.1692   -1.4331   -5.0350 C   0  0  0  0  0  0  0  0  0  0  0  0
   -4.9467   -0.1923   -4.4252 C   0  0  0  0  0  0  0  0  0  0  0  0
   -4.2903   -0.1767   -3.1867 C   0  0  0  0  0  0  0  0  0  0  0  0
   -3.8152   -1.3674   -2.5792 C   0  0  0  0  0  0  0  0  0  0  0  0
   -3.1306   -1.2341   -1.2125 C   0  0  2  0  0  0  0  0  0  0  0  0
   -1.6948   -1.4455   -1.4530 N   0  0  0  0  0  0  0  0  0  0  0  0
   -3.7693   -2.0433   -0.0832 C   0  0  0  0  0  0  0  0  0  0  0  0
   -3.7051   -3.4164   -0.1976 C   0  0  0  0  0  0  0  0  0  0  0  0
   -4.0875   -4.4771    0.5877 C   0  0  0  0  0  0  0  0  0  0  0  0
   -4.5394   -4.1216    1.7953 C   0  0  0  0  0  0  0  0  0  0  0  0
   -4.4915   -2.7499    2.1229 C   0  0  0  0  0  0  0  0  0  0  0  0
   -4.1479   -1.7040    1.1924 C   0  0  0  0  0  0  0  0  0  0  0  0
   -5.2847    1.0593   -4.8789 O   0  0  0  0  0  0  0  0  0  0  0  0
   -5.9851    1.1468   -6.1063 C   0  0  0  0  0  0  0  0  0  0  0  0
   -5.9405   -1.7387   -6.2612 C   0  0  0  0  0  0  0  0  0  0  0  0
   -7.3060   -1.3330   -6.0374 N   0  0  0  0  0  0  0  0  0  0  0  0
   -8.1151   -1.3879   -7.2337 C   0  0  0  0  0  0  0  0  0  0  0  0
   -8.2272   -2.8576   -7.6531 C   0  0  0  0  0  0  0  0  0  0  0  0
   -8.9019   -3.6982   -6.5842 C   0  0  0  0  0  0  0  0  0  0  0  0
   -9.9341   -4.3132   -6.7271 O   0  0  0  0  0  0  0  0  0  0  0  0
   -8.2615   -3.6788   -5.3891 O   0  0  0  0  0  0  0  0  0  0  0  0
   -9.4877   -0.7375   -6.9930 C   0  0  0  0  0  0  0  0  0  0  0  0
   -9.4827    0.7391   -6.6538 C   0  0  0  0  0  0  0  0  0  0  0  0
   -9.8444    1.6390   -7.3917 O   0  0  0  0  0  0  0  0  0  0  0  0
   -9.0575    1.0105   -5.4037 O   0  0  0  0  0  0  0  0  0  0  0  0
   -1.0388   -3.1589    0.2346 C   0  0  0  0  0  0  0  0  0  0  0  0
   -0.8358   -4.6421    0.4356 C   0  0  0  0  0  0  0  0  0  0  0  0
    0.7145   -0.8019    0.5768 H   0  0  0  0  0  0  0  0  0  0  0  0
    0.7686    0.9332    0.4676 H   0  0  0  0  0  0  0  0  0  0  0  0
    2.2265   -0.0303    0.0924 H   0  0  0  0  0  0  0  0  0  0  0  0
   -0.3181    0.2537   -1.4973 H   0  0  0  0  0  0  0  0  0  0  0  0
    1.2058    0.7958   -2.0219 H   0  0  0  0  0  0  0  0  0  0  0  0
    0.7117   -1.3584   -3.1973 H   0  0  0  0  0  0  0  0  0  0  0  0
    2.1553   -1.4485   -2.1956 H   0  0  0  0  0  0  0  0  0  0  0  0
    0.9241   -3.5085   -1.9413 H   0  0  0  0  0  0  0  0  0  0  0  0
    1.0405   -2.6253   -0.4924 H   0  0  0  0  0  0  0  0  0  0  0  0
   -1.2143   -3.3326   -3.4072 H   0  0  0  0  0  0  0  0  0  0  0  0
   -1.0344   -4.7329   -2.3757 H   0  0  0  0  0  0  0  0  0  0  0  0
   -4.8894   -3.5632   -4.9262 H   0  0  0  0  0  0  0  0  0  0  0  0
   -4.1494    0.7919   -2.7013 H   0  0  0  0  0  0  0  0  0  0  0  0
   -3.1880   -0.1755   -0.9068 H   0  0  0  0  0  0  0  0  0  0  0  0
   -1.4758   -1.0536   -2.3765 H   0  0  0  0  0  0  0  0  0  0  0  0
   -2.9725   -3.7653   -0.8636 H   0  0  0  0  0  0  0  0  0  0  0  0
   -3.8740   -5.4842    0.2296 H   0  0  0  0  0  0  0  0  0  0  0  0
   -4.8140   -4.9280    2.4573 H   0  0  0  0  0  0  0  0  0  0  0  0
   -4.6583   -2.5046    3.1615 H   0  0  0  0  0  0  0  0  0  0  0  0
   -4.0780   -0.6772    1.5329 H   0  0  0  0  0  0  0  0  0  0  0  0
   -5.4375    0.6983   -6.9375 H   0  0  0  0  0  0  0  0  0  0  0  0
   -6.9553    0.7169   -5.9701 H   0  0  0  0  0  0  0  0  0  0  0  0
   -6.2286    2.1724   -6.3789 H   0  0  0  0  0  0  0  0  0  0  0  0
   -5.4400   -1.2822   -7.1137 H   0  0  0  0  0  0  0  0  0  0  0  0
   -5.8935   -2.8160   -6.4663 H   0  0  0  0  0  0  0  0  0  0  0  0
   -7.7122   -1.8572   -5.2546 H   0  0  0  0  0  0  0  0  0  0  0  0
   -7.6005   -0.8110   -8.0161 H   0  0  0  0  0  0  0  0  0  0  0  0
   -8.7900   -2.9300   -8.5855 H   0  0  0  0  0  0  0  0  0  0  0  0
   -7.2464   -3.2952   -7.8798 H   0  0  0  0  0  0  0  0  0  0  0  0
   -8.8128   -4.1685   -4.7430 H   0  0  0  0  0  0  0  0  0  0  0  0
  -10.0667   -0.8341   -7.9186 H   0  0  0  0  0  0  0  0  0  0  0  0
  -10.0489   -1.2555   -6.2100 H   0  0  0  0  0  0  0  0  0  0  0  0
   -8.9050    1.9778   -5.3591 H   0  0  0  0  0  0  0  0  0  0  0  0
   -0.3592   -2.5375    0.8313 H   0  0  0  0  0  0  0  0  0  0  0  0
   -1.8892   -2.8848    0.8332 H   0  0  0  0  0  0  0  0  0  0  0  0
    0.2229   -4.8820    0.4718 H   0  0  0  0  0  0  0  0  0  0  0  0
   -1.3283   -4.9528    1.3603 H   0  0  0  0  0  0  0  0  0  0  0  0
   -1.3058   -5.2279   -0.3579 H   0  0  0  0  0  0  0  0  0  0  0  0
  1  2  1  0  0  0  0
  1 39  1  0  0  0  0
  1 40  1  0  0  0  0
  1 41  1  0  0  0  0
  2  3  1  0  0  0  0
  2 42  1  0  0  0  0
  2 43  1  0  0  0  0
  3  4  1  0  0  0  0
  3 44  1  0  0  0  0
  3 45  1  0  0  0  0
  4 46  1  0  0  0  0
  4 47  1  0  0  0  0
  5  4  1  6  0  0  0
  5  6  1  0  0  0  0
  5 17  1  0  0  0  0
  5 37  1  0  0  0  0
  6  7  1  0  0  0  0
  6 48  1  0  0  0  0
  6 49  1  0  0  0  0
  7  8  2  0  0  0  0
  7  9  2  0  0  0  0
  7 10  1  0  0  0  0
 10 11  2  0  0  0  0
 10 15  1  0  0  0  0
 11 12  1  0  0  0  0
 11 50  1  0  0  0  0
 12 13  2  0  0  0  0
 12 26  1  0  0  0  0
 13 14  1  0  0  0  0
 13 24  1  0  0  0  0
 14 15  2  0  0  0  0
 14 51  1  0  0  0  0
 15 16  1  0  0  0  0
 16 17  1  0  0  0  0
 16 52  1  1  0  0  0
 16 18  1  0  0  0  0
 17 53  1  0  0  0  0
 18 19  2  0  0  0  0
 18 23  1  0  0  0  0
 19 20  1  0  0  0  0
 19 54  1  0  0  0  0
 20 21  2  0  0  0  0
 20 55  1  0  0  0  0
 21 22  1  0  0  0  0
 21 56  1  0  0  0  0
 22 23  2  0  0  0  0
 22 57  1  0  0  0  0
 23 58  1  0  0  0  0
 24 25  1  0  0  0  0
 25 59  1  0  0  0  0
 25 60  1  0  0  0  0
 25 61  1  0  0  0  0
 26 27  1  0  0  0  0
 26 62  1  0  0  0  0
 26 63  1  0  0  0  0
 27 28  1  0  0  0  0
 27 64  1  0  0  0  0
 28 29  1  0  0  0  0
 28 33  1  0  0  0  0
 28 65  1  0  0  0  0
 29 30  1  0  0  0  0
 29 66  1  0  0  0  0
 29 67  1  0  0  0  0
 30 31  2  0  0  0  0
 30 32  1  0  0  0  0
 32 68  1  0  0  0  0
 33 34  1  0  0  0  0
 33 69  1  0  0  0  0
 33 70  1  0  0  0  0
 34 35  2  0  0  0  0
 34 36  1  0  0  0  0
 36 71  1  0  0  0  0
 37 38  1  0  0  0  0
 37 72  1  0  0  0  0
 37 73  1  0  0  0  0
 38 74  1  0  0  0  0
 38 75  1  0  0  0  0
 38 76  1  0  0  0  0
M  END
>  <DRUGBANK_ID>
DB11729

>  <COMMON_NAME>
Linerixibat

>  <CAS_NUMBER>
1345982-69-5

>  <UNII>
386012Z45S

>  <SYNONYMS>
3-((((3R,5R)-3-BUTYL-3-ETHYL-7-METHOXY-1,1-DIOXO-5-PHENYL-2,3,4,5-TETRAHYDRO- 1H-1.LAMBDA.6,4-BENZOTHIAZEPIN-8-YL)METHYL)AMINO)PENTANEDIOIC ACID; PENTANEDIOIC ACID, 3-((((3R,5R)-3-BUTYL-3-ETHYL-2,3,4,5-TETRAHYDRO-7-METHOXY-1,1-DIOXIDO-5-PHENYL-1,4-BENZOTHIAZEPIN-8-YL)METHYL)AMINO)-

$$$$
