175
 OpenBabel10282417103D

 66 67  0  0  1  0  0  0  0  0999 V2000
    1.1446    0.6768   -0.8091 O   0  0  0  0  0  0  0  0  0  0  0  0
    5.4075    0.8567    1.0470 O   0  0  0  0  0  0  0  0  0  0  0  0
    1.3577    2.3108   -0.1760 O   0  0  0  0  0  0  0  0  0  0  0  0
   -1.0645    1.6349   -2.0192 O   0  0  0  0  0  0  0  0  0  0  0  0
    4.4099    2.7402   -3.4070 O   0  0  0  0  0  0  0  0  0  0  0  0
    2.9780   -0.6694   -5.8459 O   0  0  0  0  0  0  0  0  0  0  0  0
    2.8303   -1.3866   -3.7342 O   0  0  0  0  0  0  0  0  0  0  0  0
    2.9928    3.1604    0.4148 C   0  0  1  0  0  0  0  0  0  0  0  0
    2.0401    4.5670   -0.5027 C   0  0  2  0  0  0  0  0  0  0  0  0
    2.9414    1.2474   -0.1185 C   0  0  2  0  0  0  0  0  0  0  0  0
    1.5823    5.7425    0.5690 C   0  0  2  0  0  0  0  0  0  0  0  0
    0.9947    4.2160   -1.7418 C   0  0  0  0  0  0  0  0  0  0  0  0
    4.2293    3.9122    0.7371 C   0  0  0  0  0  0  0  0  0  0  0  0
    4.4220    1.5398   -0.8734 C   0  0  0  0  0  0  0  0  0  0  0  0
    5.5090    1.8600    0.0762 C   0  0  1  0  0  0  0  0  0  0  0  0
    2.9086    6.0544    1.2188 C   0  0  0  0  0  0  0  0  0  0  0  0
    1.3072    3.1234   -2.6947 C   0  0  0  0  0  0  0  0  0  0  0  0
    5.3885    3.2570    0.6332 C   0  0  0  0  0  0  0  0  0  0  0  0
    4.0227    5.2788    1.2649 C   0  0  0  0  0  0  0  0  0  0  0  0
    0.5319    5.7070    1.8245 C   0  0  0  0  0  0  0  0  0  0  0  0
    2.0963    2.2954   -1.7861 C   0  0  2  0  0  0  0  0  0  0  0  0
    2.6930    1.0330   -2.4833 C   0  0  0  0  0  0  0  0  0  0  0  0
   -0.3101    1.6722   -0.9699 C   0  0  0  0  0  0  0  0  0  0  0  0
    3.4911    1.6381   -3.6210 C   0  0  2  0  0  0  0  0  0  0  0  0
   -0.6353    3.1781    0.1376 C   0  0  2  0  0  0  0  0  0  0  0  0
    4.2639    0.5196   -4.2273 C   0  0  0  0  0  0  0  0  0  0  0  0
    0.1709    3.2880    1.4078 C   0  0  0  0  0  0  0  0  0  0  0  0
   -2.0643    3.3244    0.3919 C   0  0  0  0  0  0  0  0  0  0  0  0
    0.0202    2.1944    2.3256 C   0  0  0  0  0  0  0  0  0  0  0  0
    3.3150   -0.6153   -4.5500 C   0  0  0  0  0  0  0  0  0  0  0  0
    2.6964    2.9958    1.4627 H   0  0  0  0  0  0  0  0  0  0  0  0
    4.5051    0.9066    1.4038 H   0  0  0  0  0  0  0  0  0  0  0  0
    1.4361    1.6087    0.6137 H   0  0  0  0  0  0  0  0  0  0  0  0
    4.0494    3.5044   -2.9083 H   0  0  0  0  0  0  0  0  0  0  0  0
    3.4835   -0.0459   -6.3937 H   0  0  0  0  0  0  0  0  0  0  0  0
    2.7677    5.0589   -1.1706 H   0  0  0  0  0  0  0  0  0  0  0  0
    2.9241    0.4655    0.6285 H   0  0  0  0  0  0  0  0  0  0  0  0
    1.1844    6.5550   -0.0529 H   0  0  0  0  0  0  0  0  0  0  0  0
    0.5971    3.5177   -1.1431 H   0  0  0  0  0  0  0  0  0  0  0  0
    0.0319    4.6694   -1.9813 H   0  0  0  0  0  0  0  0  0  0  0  0
    4.4278    2.4994   -1.3859 H   0  0  0  0  0  0  0  0  0  0  0  0
    4.8514    0.8586   -1.6036 H   0  0  0  0  0  0  0  0  0  0  0  0
    6.4191    1.7882   -0.5320 H   0  0  0  0  0  0  0  0  0  0  0  0
    2.8959    7.0169    1.7259 H   0  0  0  0  0  0  0  0  0  0  0  0
    0.6134    2.3878   -3.1208 H   0  0  0  0  0  0  0  0  0  0  0  0
    1.8335    3.5887   -3.5001 H   0  0  0  0  0  0  0  0  0  0  0  0
    6.3118    3.7726    0.8479 H   0  0  0  0  0  0  0  0  0  0  0  0
    4.8676    5.6859    1.8082 H   0  0  0  0  0  0  0  0  0  0  0  0
    0.9428    5.2022    2.7327 H   0  0  0  0  0  0  0  0  0  0  0  0
    0.1595    6.6447    2.2222 H   0  0  0  0  0  0  0  0  0  0  0  0
   -0.4313    5.2454    1.5907 H   0  0  0  0  0  0  0  0  0  0  0  0
    2.8615    2.9990   -1.5831 H   0  0  0  0  0  0  0  0  0  0  0  0
    3.2509    0.2238   -1.9247 H   0  0  0  0  0  0  0  0  0  0  0  0
    1.9172    0.3276   -2.7681 H   0  0  0  0  0  0  0  0  0  0  0  0
    2.7370    2.0347   -4.2819 H   0  0  0  0  0  0  0  0  0  0  0  0
   -0.5674    4.2550   -0.2697 H   0  0  0  0  0  0  0  0  0  0  0  0
    4.7634    0.9536   -5.0884 H   0  0  0  0  0  0  0  0  0  0  0  0
    5.0464    0.1504   -3.5539 H   0  0  0  0  0  0  0  0  0  0  0  0
    0.9997    3.5244    0.8355 H   0  0  0  0  0  0  0  0  0  0  0  0
    1.0216    3.7806    1.8776 H   0  0  0  0  0  0  0  0  0  0  0  0
   -2.2060    4.0914    1.1626 H   0  0  0  0  0  0  0  0  0  0  0  0
   -2.5199    3.6366   -0.5534 H   0  0  0  0  0  0  0  0  0  0  0  0
   -2.2410    2.3132    0.6973 H   0  0  0  0  0  0  0  0  0  0  0  0
   -0.2304    1.2921    1.7864 H   0  0  0  0  0  0  0  0  0  0  0  0
    0.9524    2.0839    2.8864 H   0  0  0  0  0  0  0  0  0  0  0  0
   -0.7817    2.6289    2.9057 H   0  0  0  0  0  0  0  0  0  0  0  0
  1 23  1  0  0  0  0
  2 32  1  0  0  0  0
  3 33  1  0  0  0  0
  4 23  2  0  0  0  0
  5 34  1  0  0  0  0
  6 30  1  0  0  0  0
  6 35  1  0  0  0  0
  7 30  2  0  0  0  0
  8  9  1  0  0  0  0
  8 10  1  0  0  0  0
  8 13  1  0  0  0  0
  8 31  1  1  0  0  0
  9 11  1  0  0  0  0
  9 36  1  6  0  0  0
  9 12  1  0  0  0  0
 10 14  1  0  0  0  0
 10 37  1  1  0  0  0
 10  1  1  0  0  0  0
 11 16  1  0  0  0  0
 11 38  1  6  0  0  0
 11 20  1  0  0  0  0
 12 17  1  0  0  0  0
 12 39  1  0  0  0  0
 12 40  1  0  0  0  0
 13 18  2  0  0  0  0
 13 19  1  0  0  0  0
 14 15  1  0  0  0  0
 14 41  1  0  0  0  0
 14 42  1  0  0  0  0
 15  2  1  0  0  0  0
 15 18  1  0  0  0  0
 15 43  1  6  0  0  0
 16 19  2  0  0  0  0
 16 44  1  0  0  0  0
 17 21  1  0  0  0  0
 17 45  1  0  0  0  0
 17 46  1  0  0  0  0
 18 47  1  0  0  0  0
 19 48  1  0  0  0  0
 20 49  1  0  0  0  0
 20 50  1  0  0  0  0
 20 51  1  0  0  0  0
 21  3  1  0  0  0  0
 21 22  1  0  0  0  0
 21 52  1  1  0  0  0
 22 24  1  0  0  0  0
 22 53  1  0  0  0  0
 22 54  1  0  0  0  0
 24  5  1  0  0  0  0
 24 26  1  0  0  0  0
 24 55  1  6  0  0  0
 25 28  1  0  0  0  0
 25 56  1  6  0  0  0
 25 27  1  0  0  0  0
 25 23  1  0  0  0  0
 26 30  1  0  0  0  0
 26 57  1  0  0  0  0
 26 58  1  0  0  0  0
 27 29  1  0  0  0  0
 27 59  1  0  0  0  0
 27 60  1  0  0  0  0
 28 61  1  0  0  0  0
 28 62  1  0  0  0  0
 28 63  1  0  0  0  0
 29 64  1  0  0  0  0
 29 65  1  0  0  0  0
 29 66  1  0  0  0  0
M  END
>  <DRUGBANK_ID>
DB00175

>  <SECONDARY_ACCESSION_NUMBERS>
APRD00328

>  <COMMON_NAME>
Pravastatin

>  <CAS_NUMBER>
81093-37-0

>  <UNII>
KXO2KT9N0G

>  <SYNONYMS>
(+)-(3R,5R)-3,5-dihydroxy-7-[(1S,2S,6S,8S,8aR)-6-hydroxy-2-methyl-8-{[(S)-2-methylbutyryl]oxy}-1,2,6,7,8,8a-hexahydro-1-naphthyl]heptanoic acid; Pravastatin; Pravastatin acid; Pravastatina; Pravastatine; Pravastatinum

$$$$
