
 OpenBabel10282417123D

 41 41  0  0  0  0  0  0  0  0999 V2000
    1.7311   -1.3491   -0.1312 C   0  0  2  0  0  0  0  0  0  0  0  0
    0.3353   -1.5290    0.1280 C   0  0  1  0  0  0  0  0  0  0  0  0
    1.8382    0.0484    0.1616 O   0  0  0  0  0  0  0  0  0  0  0  0
   -0.7952    0.0999   -0.6516 C   0  0  2  0  0  0  0  0  0  0  0  0
    1.2216    1.0775   -0.7141 C   0  0  1  0  0  0  0  0  0  0  0  0
   -0.2436    1.4054   -0.5259 C   0  0  2  0  0  0  0  0  0  0  0  0
   -0.4632   -2.9959    0.4048 N   0  0  0  0  0  0  0  0  0  0  0  0
   -2.6579    0.1419   -0.6797 O   0  0  0  0  0  0  0  0  0  0  0  0
   -0.3620    1.9773    0.7655 O   0  0  0  0  0  0  0  0  0  0  0  0
    1.9981    2.3331   -0.5544 C   0  0  0  0  0  0  0  0  0  0  0  0
    3.1851    1.8268    0.0200 O   0  0  0  0  0  0  0  0  0  0  0  0
   -1.0588   -3.4814    1.5916 C   0  0  0  0  0  0  0  0  0  0  0  0
   -1.5493   -4.6091    1.5699 O   0  0  0  0  0  0  0  0  0  0  0  0
   -1.1450   -2.6581    2.9001 C   0  0  0  0  0  0  0  0  0  0  0  0
    1.8979   -1.8069   -1.4389 O   0  0  0  0  0  0  0  0  0  0  0  0
   -1.4842   -1.0617    0.6131 C   0  0  0  0  0  0  0  0  0  0  0  0
   -0.8662   -1.6524   -1.4461 C   0  0  1  0  0  0  0  0  0  0  0  0
   -2.0958   -0.0870    1.1623 O   0  0  0  0  0  0  0  0  0  0  0  0
   -1.4581   -0.5527   -2.8308 N   0  0  0  0  0  0  0  0  0  0  0  0
    0.7734   -1.3961   -2.2103 C   0  0  0  0  0  0  0  0  0  0  0  0
   -0.2847   -0.3259    1.5577 O   0  0  0  0  0  0  0  0  0  0  0  0
    2.2317   -1.9644    0.6509 H   0  0  0  0  0  0  0  0  0  0  0  0
    0.5044   -1.7369    1.2023 H   0  0  0  0  0  0  0  0  0  0  0  0
   -1.8291   -0.4536   -1.1035 H   0  0  0  0  0  0  0  0  0  0  0  0
    1.5590    0.8560   -1.7010 H   0  0  0  0  0  0  0  0  0  0  0  0
   -0.7395    2.0088   -1.2811 H   0  0  0  0  0  0  0  0  0  0  0  0
   -0.5840   -3.6262   -0.3833 H   0  0  0  0  0  0  0  0  0  0  0  0
   -3.0160   -0.1022    0.2411 H   0  0  0  0  0  0  0  0  0  0  0  0
   -0.0950    1.2576    1.3809 H   0  0  0  0  0  0  0  0  0  0  0  0
    2.0892    2.7427   -1.5700 H   0  0  0  0  0  0  0  0  0  0  0  0
    1.6043    3.0992    0.1068 H   0  0  0  0  0  0  0  0  0  0  0  0
    2.7956    1.1488    0.6404 H   0  0  0  0  0  0  0  0  0  0  0  0
   -0.1598   -2.3396    3.2481 H   0  0  0  0  0  0  0  0  0  0  0  0
   -1.8184   -1.7962    2.8300 H   0  0  0  0  0  0  0  0  0  0  0  0
   -1.5824   -3.2611    3.7052 H   0  0  0  0  0  0  0  0  0  0  0  0
   -1.2718   -2.5362   -1.8416 H   0  0  0  0  0  0  0  0  0  0  0  0
   -2.4451   -0.3437   -2.5495 H   0  0  0  0  0  0  0  0  0  0  0  0
   -1.1432    0.4565   -2.7695 H   0  0  0  0  0  0  0  0  0  0  0  0
    0.9279   -0.3559   -2.4992 H   0  0  0  0  0  0  0  0  0  0  0  0
    0.8777   -1.7189   -3.2561 H   0  0  0  0  0  0  0  0  0  0  0  0
   -0.6993   -0.2813    2.4377 H   0  0  0  0  0  0  0  0  0  0  0  0
  1  2  1  0  0  0  0
  1  3  1  0  0  0  0
  1 15  1  0  0  0  0
  1 22  1  1  0  0  0
  2  4  1  0  0  0  0
  2  7  1  0  0  0  0
  2 23  1  1  0  0  0
  3  5  1  0  0  0  0
  4  6  1  0  0  0  0
  4  8  1  0  0  0  0
  4 24  1  6  0  0  0
  5  6  1  0  0  0  0
  5 25  1  6  0  0  0
  5 10  1  0  0  0  0
  6  9  1  0  0  0  0
  6 26  1  6  0  0  0
  7 12  1  0  0  0  0
  7 27  1  0  0  0  0
  8 28  1  0  0  0  0
  9 29  1  0  0  0  0
 10 30  1  0  0  0  0
 10 31  1  0  0  0  0
 11 10  1  0  0  0  0
 11 32  1  0  0  0  0
 13 12  2  0  0  0  0
 14 12  1  0  0  0  0
 14 33  1  0  0  0  0
 14 34  1  0  0  0  0
 14 35  1  0  0  0  0
 16 17  1  0  0  0  0
 16 18  2  0  0  0  0
 17 19  1  0  0  0  0
 17 20  1  0  0  0  0
 17 36  1  6  0  0  0
 19 37  1  0  0  0  0
 19 38  1  0  0  0  0
 20 15  1  0  0  0  0
 20 39  1  0  0  0  0
 20 40  1  0  0  0  0
 21 16  1  0  0  0  0
 21 41  1  0  0  0  0
M  END
>  <DRUGBANK_ID>
DB02397

>  <SECONDARY_ACCESSION_NUMBERS>
EXPT03081

>  <COMMON_NAME>
O-(N-acetyl-alpha-D-galactosaminyl)-L-serine

>  <CAS_NUMBER>
67262-86-6

>  <SYNONYMS>
Tn Antigen; Î±-D-GalNAc-Ser

$$$$
