401
 OpenBabel10282417163D

 51 52  0  0  0  0  0  0  0  0999 V2000
    1.0222   -0.0484   -0.0844 O   0  0  0  0  0  0  0  0  0  0  0  0
    1.0552   -2.2393    0.3047 O   0  0  0  0  0  0  0  0  0  0  0  0
    0.4024   -1.2263    0.1288 C   0  0  0  0  0  0  0  0  0  0  0  0
   -1.1154   -1.1262    0.1579 C   0  0  1  0  0  0  0  0  0  0  0  0
   -1.6350   -0.3596    1.3752 C   0  0  0  0  0  0  0  0  0  0  0  0
   -1.2315    1.1079    1.3855 C   0  0  0  0  0  0  0  0  0  0  0  0
   -1.6750   -0.5286   -1.1409 C   0  0  0  0  0  0  0  0  0  0  0  0
   -1.2510   -1.3452   -2.3200 C   0  0  0  0  0  0  0  0  0  0  0  0
   -0.3984   -0.8065   -3.2981 C   0  0  0  0  0  0  0  0  0  0  0  0
    0.0742   -1.5897   -4.3677 C   0  0  0  0  0  0  0  0  0  0  0  0
   -0.4220   -2.9148   -4.4210 C   0  0  0  0  0  0  0  0  0  0  0  0
   -1.1643   -3.4676   -3.3805 C   0  0  0  0  0  0  0  0  0  0  0  0
   -1.6351   -2.6792   -2.3692 C   0  0  0  0  0  0  0  0  0  0  0  0
   -0.4420   -3.8558   -5.4082 O   0  0  0  0  0  0  0  0  0  0  0  0
    0.1366   -3.4670   -6.5968 C   0  0  0  0  0  0  0  0  0  0  0  0
    0.9543   -0.8680   -5.3836 C   0  0  0  0  0  0  0  0  0  0  0  0
    2.2791   -1.4575   -5.6398 N   0  0  0  0  0  0  0  0  0  0  0  0
    2.8185   -2.0083   -6.8003 C   0  0  0  0  0  0  0  0  0  0  0  0
    3.8294   -2.7153   -6.7174 O   0  0  0  0  0  0  0  0  0  0  0  0
    2.1049   -1.9398   -8.1179 C   0  0  0  0  0  0  0  0  0  0  0  0
    1.4426   -0.7824   -8.4986 C   0  0  0  0  0  0  0  0  0  0  0  0
    0.5662   -0.7757   -9.5811 C   0  0  0  0  0  0  0  0  0  0  0  0
    0.3715   -1.9218  -10.3641 C   0  0  0  0  0  0  0  0  0  0  0  0
    1.0636   -3.0926  -10.0226 C   0  0  0  0  0  0  0  0  0  0  0  0
    1.9188   -3.1064   -8.9042 C   0  0  0  0  0  0  0  0  0  0  0  0
   -0.5610   -1.8816  -11.5517 C   0  0  0  0  0  0  0  0  0  0  0  0
    1.5485    0.3402   -7.7764 F   0  0  0  0  0  0  0  0  0  0  0  0
    0.0782   -2.1724  -12.7160 F   0  0  0  0  0  0  0  0  0  0  0  0
   -1.5880   -2.7677  -11.4490 F   0  0  0  0  0  0  0  0  0  0  0  0
   -1.1380   -0.6613  -11.7352 F   0  0  0  0  0  0  0  0  0  0  0  0
   -1.4737   -2.1612    0.2643 H   0  0  0  0  0  0  0  0  0  0  0  0
    1.9755   -0.2395    0.0347 H   0  0  0  0  0  0  0  0  0  0  0  0
   -2.7315   -0.4218    1.3844 H   0  0  0  0  0  0  0  0  0  0  0  0
   -1.2837   -0.8442    2.2928 H   0  0  0  0  0  0  0  0  0  0  0  0
   -1.5730    1.6265    0.4852 H   0  0  0  0  0  0  0  0  0  0  0  0
   -1.6606    1.6207    2.2466 H   0  0  0  0  0  0  0  0  0  0  0  0
   -0.1477    1.2201    1.4538 H   0  0  0  0  0  0  0  0  0  0  0  0
   -2.7727   -0.5047   -1.1108 H   0  0  0  0  0  0  0  0  0  0  0  0
   -1.3415    0.5025   -1.2870 H   0  0  0  0  0  0  0  0  0  0  0  0
   -0.1232    0.2475   -3.2229 H   0  0  0  0  0  0  0  0  0  0  0  0
   -1.4177   -4.5244   -3.4167 H   0  0  0  0  0  0  0  0  0  0  0  0
   -2.2927   -3.1222   -1.6295 H   0  0  0  0  0  0  0  0  0  0  0  0
   -0.3423   -2.5766   -7.0185 H   0  0  0  0  0  0  0  0  0  0  0  0
    1.1725   -3.3655   -6.3374 H   0  0  0  0  0  0  0  0  0  0  0  0
    0.1016   -4.2666   -7.3309 H   0  0  0  0  0  0  0  0  0  0  0  0
    0.3598   -0.7615   -6.2842 H   0  0  0  0  0  0  0  0  0  0  0  0
    1.1680    0.1585   -5.0494 H   0  0  0  0  0  0  0  0  0  0  0  0
    2.8210   -1.6835   -4.8121 H   0  0  0  0  0  0  0  0  0  0  0  0
    0.0203    0.1410   -9.7888 H   0  0  0  0  0  0  0  0  0  0  0  0
    0.9040   -4.0050  -10.6025 H   0  0  0  0  0  0  0  0  0  0  0  0
    2.3204   -4.0694   -8.5769 H   0  0  0  0  0  0  0  0  0  0  0  0
  1  3  1  0  0  0  0
  1 32  1  0  0  0  0
  2  3  2  0  0  0  0
  3  4  1  0  0  0  0
  4  5  1  0  0  0  0
  4  7  1  0  0  0  0
  4 31  1  1  0  0  0
  5  6  1  0  0  0  0
  5 33  1  0  0  0  0
  5 34  1  0  0  0  0
  6 35  1  0  0  0  0
  6 36  1  0  0  0  0
  6 37  1  0  0  0  0
  7  8  1  0  0  0  0
  7 38  1  0  0  0  0
  7 39  1  0  0  0  0
  8  9  2  0  0  0  0
  8 13  1  0  0  0  0
  9 10  1  0  0  0  0
  9 40  1  0  0  0  0
 10 11  2  0  0  0  0
 10 16  1  0  0  0  0
 11 12  1  0  0  0  0
 11 14  1  0  0  0  0
 12 13  2  0  0  0  0
 12 41  1  0  0  0  0
 13 42  1  0  0  0  0
 14 15  1  0  0  0  0
 15 43  1  0  0  0  0
 15 44  1  0  0  0  0
 15 45  1  0  0  0  0
 16 17  1  0  0  0  0
 16 46  1  0  0  0  0
 16 47  1  0  0  0  0
 17 18  1  0  0  0  0
 17 48  1  0  0  0  0
 18 19  2  0  0  0  0
 18 20  1  0  0  0  0
 20 21  2  0  0  0  0
 20 25  1  0  0  0  0
 21 22  1  0  0  0  0
 21 27  1  0  0  0  0
 22 23  2  0  0  0  0
 22 49  1  0  0  0  0
 23 24  1  0  0  0  0
 23 26  1  0  0  0  0
 24 25  2  0  0  0  0
 24 50  1  0  0  0  0
 25 51  1  0  0  0  0
 26 28  1  0  0  0  0
 26 29  1  0  0  0  0
 26 30  1  0  0  0  0
M  END
>  <DRUGBANK_ID>
DB07070

>  <COMMON_NAME>
(2S)-2-{3-[({[2-fluoro-4-(trifluoromethyl)phenyl]carbonyl}amino)methyl]-4-methoxybenzyl}butanoic acid

$$$$
