
 OpenBabel10282417243D

 66 71  0  0  0  0  0  0  0  0999 V2000
   -2.4169   -0.0007   -0.1186 C   0  0  0  0  0  0  0  0  0  0  0  0
   -1.0115    0.0003    0.2817 N   0  0  0  0  0  0  0  0  0  0  0  0
   -0.3448   -1.2166   -0.1961 C   0  0  0  0  0  0  0  0  0  0  0  0
    1.1234   -1.2537    0.2252 C   0  0  0  0  0  0  0  0  0  0  0  0
    1.8700   -0.0043   -0.2665 C   0  0  0  0  0  0  0  0  0  0  0  0
    1.0973    1.2457    0.1926 C   0  0  0  0  0  0  0  0  0  0  0  0
   -0.3581    1.2057   -0.2342 C   0  0  0  0  0  0  0  0  0  0  0  0
    3.3160   -0.0061    0.1862 C   0  0  0  0  0  0  0  0  0  0  0  0
    4.1963   -1.0349   -0.1552 C   0  0  0  0  0  0  0  0  0  0  0  0
    5.5138   -1.0169    0.3233 C   0  0  0  0  0  0  0  0  0  0  0  0
    5.9475    0.0479    1.1136 C   0  0  0  0  0  0  0  0  0  0  0  0
    7.2439    0.0479    1.6716 N   0  0  0  0  0  0  0  0  0  0  0  0
    7.6970    1.1757    2.3869 C   0  0  0  0  0  0  0  0  0  0  0  0
    7.1269    1.4146    3.5846 N   0  0  0  0  0  0  0  0  0  0  0  0
    7.4979    2.5275    4.2523 C   0  0  0  0  0  0  0  0  0  0  0  0
    8.4234    3.3954    3.7978 C   0  0  0  0  0  0  0  0  0  0  0  0
    8.7287    4.5327    4.4449 F   0  0  0  0  0  0  0  0  0  0  0  0
    8.9912    3.0864    2.5928 C   0  0  0  0  0  0  0  0  0  0  0  0
    8.6600    1.9640    1.8664 N   0  0  0  0  0  0  0  0  0  0  0  0
    9.8456    4.0957    1.9881 C   0  0  0  0  0  0  0  0  0  0  0  0
    9.3488    4.7630    0.8564 C   0  0  0  0  0  0  0  0  0  0  0  0
   10.2853    5.3881    0.0678 C   0  0  0  0  0  0  0  0  0  0  0  0
   11.5723    5.7382    0.5537 C   0  0  0  0  0  0  0  0  0  0  0  0
   12.3535    6.3901   -0.3986 N   0  0  0  0  0  0  0  0  0  0  0  0
   11.6962    6.2232   -1.5266 C   0  0  0  0  0  0  0  0  0  0  0  0
   12.0064    7.1226   -2.7228 C   0  0  0  0  0  0  0  0  0  0  0  0
   10.4230    5.2118   -1.4172 C   0  0  0  0  0  0  0  0  0  0  0  0
   10.5188    3.4970   -1.0713 C   0  0  0  0  0  0  0  0  0  0  0  0
   11.8297    3.1476   -1.6402 C   0  0  0  0  0  0  0  0  0  0  0  0
   11.5932    3.7695   -2.9950 C   0  0  0  0  0  0  0  0  0  0  0  0
   10.3201    4.6941   -2.8508 C   0  0  0  0  0  0  0  0  0  0  0  0
   12.0088    5.2217    1.7672 C   0  0  0  0  0  0  0  0  0  0  0  0
   13.2700    5.3977    2.1830 F   0  0  0  0  0  0  0  0  0  0  0  0
   11.1637    4.3560    2.4537 C   0  0  0  0  0  0  0  0  0  0  0  0
    5.1142    1.0623    1.4055 N   0  0  0  0  0  0  0  0  0  0  0  0
    3.8449    1.0119    0.9665 C   0  0  0  0  0  0  0  0  0  0  0  0
   -2.9295    0.8783    0.2870 H   0  0  0  0  0  0  0  0  0  0  0  0
   -2.5252    0.0075   -1.2091 H   0  0  0  0  0  0  0  0  0  0  0  0
   -2.9309   -0.8822    0.2771 H   0  0  0  0  0  0  0  0  0  0  0  0
   -0.8407   -2.1010    0.2216 H   0  0  0  0  0  0  0  0  0  0  0  0
   -0.4104   -1.2899   -1.2894 H   0  0  0  0  0  0  0  0  0  0  0  0
    1.1953   -1.3270    1.3190 H   0  0  0  0  0  0  0  0  0  0  0  0
    1.5798   -2.1658   -0.1780 H   0  0  0  0  0  0  0  0  0  0  0  0
    1.8731   -0.0075   -1.3666 H   0  0  0  0  0  0  0  0  0  0  0  0
    1.1313    1.3291    1.2883 H   0  0  0  0  0  0  0  0  0  0  0  0
    1.5612    2.1516   -0.2178 H   0  0  0  0  0  0  0  0  0  0  0  0
   -0.4212    1.2583   -1.3279 H   0  0  0  0  0  0  0  0  0  0  0  0
   -0.8497    2.0997    0.1694 H   0  0  0  0  0  0  0  0  0  0  0  0
    3.8621   -1.8680   -0.7705 H   0  0  0  0  0  0  0  0  0  0  0  0
    6.1774   -1.8396    0.0820 H   0  0  0  0  0  0  0  0  0  0  0  0
    7.9339   -0.2279    0.9931 H   0  0  0  0  0  0  0  0  0  0  0  0
    6.9898    2.7129    5.1900 H   0  0  0  0  0  0  0  0  0  0  0  0
    8.4037    4.4465    0.4158 H   0  0  0  0  0  0  0  0  0  0  0  0
   12.0432    6.5894   -3.6754 H   0  0  0  0  0  0  0  0  0  0  0  0
   11.2567    7.9202   -2.8079 H   0  0  0  0  0  0  0  0  0  0  0  0
   12.9794    7.6139   -2.6034 H   0  0  0  0  0  0  0  0  0  0  0  0
   10.5056    3.0659   -0.0677 H   0  0  0  0  0  0  0  0  0  0  0  0
    9.6486    2.9610   -1.5157 H   0  0  0  0  0  0  0  0  0  0  0  0
   12.0863    2.0882   -1.6058 H   0  0  0  0  0  0  0  0  0  0  0  0
   12.5652    3.6681   -1.0135 H   0  0  0  0  0  0  0  0  0  0  0  0
   11.4318    2.9975   -3.7437 H   0  0  0  0  0  0  0  0  0  0  0  0
   12.4879    4.3460   -3.2376 H   0  0  0  0  0  0  0  0  0  0  0  0
    9.3694    4.1674   -3.0238 H   0  0  0  0  0  0  0  0  0  0  0  0
   10.3116    5.4678   -3.6182 H   0  0  0  0  0  0  0  0  0  0  0  0
   11.5575    3.8368    3.3253 H   0  0  0  0  0  0  0  0  0  0  0  0
    3.2566    1.8586    1.3041 H   0  0  0  0  0  0  0  0  0  0  0  0
  1  2  1  0  0  0  0
  1 37  1  0  0  0  0
  1 38  1  0  0  0  0
  1 39  1  0  0  0  0
  2  3  1  0  0  0  0
  2  7  1  0  0  0  0
  3  4  1  0  0  0  0
  3 40  1  0  0  0  0
  3 41  1  0  0  0  0
  4  5  1  0  0  0  0
  4 42  1  0  0  0  0
  4 43  1  0  0  0  0
  5  6  1  0  0  0  0
  5  8  1  0  0  0  0
  5 44  1  0  0  0  0
  6  7  1  0  0  0  0
  6 45  1  0  0  0  0
  6 46  1  0  0  0  0
  7 47  1  0  0  0  0
  7 48  1  0  0  0  0
  8  9  2  0  0  0  0
  8 36  1  0  0  0  0
  9 10  1  0  0  0  0
  9 49  1  0  0  0  0
 10 11  2  0  0  0  0
 10 50  1  0  0  0  0
 11 12  1  0  0  0  0
 11 35  1  0  0  0  0
 12 13  1  0  0  0  0
 12 51  1  0  0  0  0
 13 14  2  0  0  0  0
 13 19  1  0  0  0  0
 14 15  1  0  0  0  0
 15 16  2  0  0  0  0
 15 52  1  0  0  0  0
 16 17  1  0  0  0  0
 16 18  1  0  0  0  0
 18 19  2  0  0  0  0
 18 20  1  0  0  0  0
 20 21  2  0  0  0  0
 20 34  1  0  0  0  0
 21 22  1  0  0  0  0
 21 53  1  0  0  0  0
 22 23  2  0  0  0  0
 22 27  1  0  0  0  0
 23 24  1  0  0  0  0
 23 32  1  0  0  0  0
 24 25  2  0  0  0  0
 25 26  1  0  0  0  0
 25 27  1  0  0  0  0
 26 54  1  0  0  0  0
 26 55  1  0  0  0  0
 26 56  1  0  0  0  0
 27 28  1  0  0  0  0
 27 31  1  0  0  0  0
 28 29  1  0  0  0  0
 28 57  1  0  0  0  0
 28 58  1  0  0  0  0
 29 30  1  0  0  0  0
 29 59  1  0  0  0  0
 29 60  1  0  0  0  0
 30 31  1  0  0  0  0
 30 61  1  0  0  0  0
 30 62  1  0  0  0  0
 31 63  1  0  0  0  0
 31 64  1  0  0  0  0
 32 33  1  0  0  0  0
 32 34  2  0  0  0  0
 34 65  1  0  0  0  0
 35 36  2  0  0  0  0
 36 66  1  0  0  0  0
M  END
>  <DRUGBANK_ID>
DB18081

>  <COMMON_NAME>
Crozbaciclib

>  <CAS_NUMBER>
2099128-41-1

>  <UNII>
5Y2Z8AH65E

>  <SYNONYMS>
2-PYRIMIDINAMINE, 5-FLUORO-4-(7'-FLUORO-2'-METHYLSPIRO(CYCLOPENTANE-1,3'-(3H)INDOL)-5'-YL)-N-(5-(1-METHYL-4-PIPERIDINYL)-2-PYRIDINYL)-; 5-fluoro-4-(7'-fluoro-2'-methylspiro[cyclopentane-1,3'- indol]-5'-yl)-N-[5-(1-methylpiperidin-4-yl)pyridin-2- yl]pyrimidin-2-amine

$$$$
