
 OpenBabel10282417113D

 51 54  0  0  1  0  0  0  0  0999 V2000
    1.2881   -1.7236    0.1328 C   0  0  0  0  0  0  0  0  0  0  0  0
    2.2658   -0.5427   -0.0111 C   0  0  0  0  0  0  0  0  0  0  0  0
    1.4910    1.1095    0.4333 S   0  0  0  0  0  0  0  0  0  0  0  0
   -0.0289   -1.4463    0.2891 C   0  0  0  0  0  0  0  0  0  0  0  0
   -0.6007   -0.3049   -0.1846 N   0  0  0  0  0  0  0  0  0  0  0  0
    0.1002    0.8525   -0.6973 C   0  0  1  0  0  0  0  0  0  0  0  0
   -1.2520    1.5897   -0.5317 C   0  0  1  0  0  0  0  0  0  0  0  0
   -1.7552    0.3165    0.0982 C   0  0  0  0  0  0  0  0  0  0  0  0
   -2.7906   -0.0304    0.6407 O   0  0  0  0  0  0  0  0  0  0  0  0
   -2.0744    3.8757   -0.2365 C   0  0  0  0  0  0  0  0  0  0  0  0
   -2.2106    5.1516    0.6190 C   0  0  0  0  0  0  0  0  0  0  0  0
   -2.5838    3.7821   -1.3480 O   0  0  0  0  0  0  0  0  0  0  0  0
   -2.8622    6.2227    0.2267 N   0  0  0  0  0  0  0  0  0  0  0  0
   -1.6130    5.2004    1.9589 C   0  0  0  0  0  0  0  0  0  0  0  0
   -3.3880    6.0666   -1.0698 O   0  0  0  0  0  0  0  0  0  0  0  0
   -2.2488    5.7369    3.0624 C   0  0  0  0  0  0  0  0  0  0  0  0
   -1.2479    5.6219    4.4437 S   0  0  0  0  0  0  0  0  0  0  0  0
   -0.0380    4.8504    3.5005 C   0  0  0  0  0  0  0  0  0  0  0  0
   -0.3578    4.6446    2.2427 N   0  0  0  0  0  0  0  0  0  0  0  0
   -0.9013   -2.3549    1.0754 C   0  0  0  0  0  0  0  0  0  0  0  0
   -2.1850   -2.4057    0.6765 O   0  0  0  0  0  0  0  0  0  0  0  0
   -0.4872   -3.0007    2.0261 O   0  0  0  0  0  0  0  0  0  0  0  0
    1.8515   -3.1139    0.2314 C   0  0  0  0  0  0  0  0  0  0  0  0
    1.2700   -4.3314    0.0103 C   0  0  0  0  0  0  0  0  0  0  0  0
   -0.0803   -4.5501   -0.4631 C   0  0  0  0  0  0  0  0  0  0  0  0
   -0.8046   -3.9071   -1.4739 C   0  0  0  0  0  0  0  0  0  0  0  0
   -2.1927   -4.0585   -1.4147 N   0  0  0  0  0  0  0  0  0  0  0  0
   -2.5195   -4.8030   -0.3736 C   0  0  0  0  0  0  0  0  0  0  0  0
   -1.1962   -5.5995    0.3947 S   0  0  0  0  0  0  0  0  0  0  0  0
   -0.2744   -2.8313   -2.3632 C   0  0  0  0  0  0  0  0  0  0  0  0
   -1.3627    2.8090    0.2897 N   0  0  0  0  0  0  0  0  0  0  0  0
    1.1233    4.4792    4.0517 N   0  0  0  0  0  0  0  0  0  0  0  0
    0.4024    0.8178   -1.7517 H   0  0  0  0  0  0  0  0  0  0  0  0
   -4.0483    7.2400   -1.5204 C   0  0  0  0  0  0  0  0  0  0  0  0
    2.6668   -0.4582   -1.0256 H   0  0  0  0  0  0  0  0  0  0  0  0
    3.0990   -0.6571    0.6914 H   0  0  0  0  0  0  0  0  0  0  0  0
   -1.7815    1.6890   -1.4926 H   0  0  0  0  0  0  0  0  0  0  0  0
   -3.2391    6.1656    3.1145 H   0  0  0  0  0  0  0  0  0  0  0  0
   -2.3796   -2.0617   -0.2240 H   0  0  0  0  0  0  0  0  0  0  0  0
    2.9010   -3.1442    0.5414 H   0  0  0  0  0  0  0  0  0  0  0  0
    1.8333   -5.2252    0.2889 H   0  0  0  0  0  0  0  0  0  0  0  0
   -3.5347   -4.8148    0.0281 H   0  0  0  0  0  0  0  0  0  0  0  0
   -0.4315   -3.0271   -3.4167 H   0  0  0  0  0  0  0  0  0  0  0  0
   -0.7702   -1.8804   -2.1406 H   0  0  0  0  0  0  0  0  0  0  0  0
    0.7969   -2.6831   -2.2071 H   0  0  0  0  0  0  0  0  0  0  0  0
   -0.9710    2.8627    1.2304 H   0  0  0  0  0  0  0  0  0  0  0  0
    1.3291    4.6459    5.0292 H   0  0  0  0  0  0  0  0  0  0  0  0
    1.8501    4.0465    3.4963 H   0  0  0  0  0  0  0  0  0  0  0  0
   -4.8918    7.4880   -0.8711 H   0  0  0  0  0  0  0  0  0  0  0  0
   -3.3512    8.0793   -1.5916 H   0  0  0  0  0  0  0  0  0  0  0  0
   -4.4402    7.0398   -2.5246 H   0  0  0  0  0  0  0  0  0  0  0  0
  1  4  2  0  0  0  0
  1 23  1  0  0  0  0
  1  2  1  0  0  0  0
  2  3  1  0  0  0  0
  2 35  1  0  0  0  0
  2 36  1  0  0  0  0
  3  6  1  0  0  0  0
  4 20  1  0  0  0  0
  5  4  1  0  0  0  0
  5  6  1  0  0  0  0
  6  7  1  0  0  0  0
  6 33  1  6  0  0  0
  7  8  1  0  0  0  0
  7 31  1  0  0  0  0
  7 37  1  6  0  0  0
  8  5  1  0  0  0  0
  8  9  2  0  0  0  0
 10 11  1  0  0  0  0
 10 12  2  0  0  0  0
 11 13  2  0  0  0  0
 11 14  1  0  0  0  0
 13 15  1  0  0  0  0
 14 16  2  0  0  0  0
 15 34  1  0  0  0  0
 16 17  1  0  0  0  0
 16 38  1  0  0  0  0
 17 18  1  0  0  0  0
 18 19  2  0  0  0  0
 18 32  1  0  0  0  0
 19 14  1  0  0  0  0
 20 21  1  0  0  0  0
 20 22  2  0  0  0  0
 21 39  1  0  0  0  0
 23 24  2  0  0  0  0
 23 40  1  0  0  0  0
 24 25  1  0  0  0  0
 24 41  1  0  0  0  0
 25 26  2  0  0  0  0
 26 27  1  0  0  0  0
 26 30  1  0  0  0  0
 27 28  2  0  0  0  0
 28 29  1  0  0  0  0
 28 42  1  0  0  0  0
 29 25  1  0  0  0  0
 30 43  1  0  0  0  0
 30 44  1  0  0  0  0
 30 45  1  0  0  0  0
 31 10  1  0  0  0  0
 31 46  1  0  0  0  0
 32 47  1  0  0  0  0
 32 48  1  0  0  0  0
 34 49  1  0  0  0  0
 34 50  1  0  0  0  0
 34 51  1  0  0  0  0
M  END
>  <DRUGBANK_ID>
DB01066

>  <SECONDARY_ACCESSION_NUMBERS>
APRD00850

>  <COMMON_NAME>
Cefditoren

>  <CAS_NUMBER>
104145-95-1

>  <UNII>
81QS09V3YW

>  <SYNONYMS>
Cefditoren; Cefditoreno

$$$$
