
 OpenBabel10282417143D

 87 87  0  0  0  0  0  0  0  0999 V2000
    1.0671   -0.0371    0.0642 P   0  0  0  0  0  0  0  0  0  0  0  0
    0.6403   -2.1965   -2.9821 S   0  0  0  0  0  0  0  0  0  0  0  0
    0.7180   -0.1482   -5.2162 C   0  0  2  0  0  0  0  0  0  0  0  0
    0.3374   -1.4803   -5.6010 C   0  0  0  0  0  0  0  0  0  0  0  0
   -0.8411   -1.4312   -6.1916 N   0  0  0  0  0  0  0  0  0  0  0  0
    0.2563   -0.1767   -3.9068 C   0  0  0  0  0  0  0  0  0  0  0  0
   -1.1706   -2.6654   -6.8128 C   0  0  1  0  0  0  0  0  0  0  0  0
    0.3821    1.1325   -5.7333 N   0  0  0  0  0  0  0  0  0  0  0  0
    0.9618   -1.5747   -0.5305 N   0  0  0  0  0  0  0  0  0  0  0  0
    1.2137   -0.4114    1.7648 N   0  0  0  0  0  0  0  0  0  0  0  0
   -2.6632   -2.6709   -6.8042 C   0  0  0  0  0  0  0  0  0  0  0  0
    3.6668   -0.5385   -4.3973 C   0  0  0  0  0  0  0  0  0  0  0  0
    1.3024    2.1250   -5.9678 C   0  0  0  0  0  0  0  0  0  0  0  0
    2.7035   -2.0952   -1.9516 C   0  0  0  0  0  0  0  0  0  0  0  0
   -0.4813   -0.0371    0.0642 O   0  0  0  0  0  0  0  0  0  0  0  0
    0.3458   -3.6006   -3.3839 O   0  0  0  0  0  0  0  0  0  0  0  0
   -0.4293   -1.9228   -2.2698 O   0  0  0  0  0  0  0  0  0  0  0  0
    2.7971   -0.0371    0.0642 O   0  0  0  0  0  0  0  0  0  0  0  0
    0.9965   -2.4714   -5.3340 O   0  0  0  0  0  0  0  0  0  0  0  0
   -3.3858   -2.7282   -7.7820 O   0  0  0  0  0  0  0  0  0  0  0  0
    4.5300   -1.2620   -3.9399 O   0  0  0  0  0  0  0  0  0  0  0  0
    3.4853   -0.6834   -1.0116 C   0  0  0  0  0  0  0  0  0  0  0  0
    3.0203    0.9777   -3.7635 C   0  0  2  0  0  0  0  0  0  0  0  0
   -0.5249   -2.7317   -8.1680 C   0  0  0  0  0  0  0  0  0  0  0  0
    0.8381    3.1812   -6.3847 O   0  0  0  0  0  0  0  0  0  0  0  0
    3.5191    2.1314   -4.4679 C   0  0  0  0  0  0  0  0  0  0  0  0
    2.8612    1.9472   -5.8201 C   0  0  0  0  0  0  0  0  0  0  0  0
    0.5279   -1.6512    2.2943 C   0  0  0  0  0  0  0  0  0  0  0  0
    2.5840   -0.2791    2.3400 C   0  0  0  0  0  0  0  0  0  0  0  0
   -0.4980   -2.6298   -0.3655 C   0  0  0  0  0  0  0  0  0  0  0  0
    0.9447   -0.3955   -1.6988 C   0  0  0  0  0  0  0  0  0  0  0  0
   -3.1673   -2.5557   -5.5602 O   0  0  0  0  0  0  0  0  0  0  0  0
    3.0845   -1.0189   -5.5537 O   0  0  0  0  0  0  0  0  0  0  0  0
    3.1439    1.5372   -2.4385 N   0  0  0  0  0  0  0  0  0  0  0  0
    2.3776   -3.8953    2.9170 Cl  0  0  0  0  0  0  0  0  0  0  0  0
   -2.8524   -2.0798   -2.6355 Cl  0  0  0  0  0  0  0  0  0  0  0  0
    4.4546   -2.3619    0.6870 Cl  0  0  0  0  0  0  0  0  0  0  0  0
   -0.7632    2.1040   -1.5727 Cl  0  0  0  0  0  0  0  0  0  0  0  0
    1.1025   -3.1105    1.9242 C   0  0  0  0  0  0  0  0  0  0  0  0
    3.6603   -1.3441    1.9124 C   0  0  0  0  0  0  0  0  0  0  0  0
   -0.6766    0.3949   -1.9488 C   0  0  0  0  0  0  0  0  0  0  0  0
   -2.1231   -2.1200   -0.7846 C   0  0  0  0  0  0  0  0  0  0  0  0
   -0.1093   -1.5723   -8.8463 C   0  0  0  0  0  0  0  0  0  0  0  0
   -0.3347   -3.9793   -8.7584 C   0  0  0  0  0  0  0  0  0  0  0  0
    0.3260   -4.0626   -9.9759 C   0  0  0  0  0  0  0  0  0  0  0  0
    0.4802   -1.6559  -10.0923 C   0  0  0  0  0  0  0  0  0  0  0  0
    0.6764   -2.9028  -10.6665 C   0  0  0  0  0  0  0  0  0  0  0  0
    1.6896   -0.1322   -4.9564 H   0  0  0  0  0  0  0  0  0  0  0  0
   -0.9857   -0.5308   -6.6388 H   0  0  0  0  0  0  0  0  0  0  0  0
   -0.6414    0.5258   -3.9586 H   0  0  0  0  0  0  0  0  0  0  0  0
    0.7067    0.6913   -3.2923 H   0  0  0  0  0  0  0  0  0  0  0  0
   -0.7926   -3.5020   -6.1998 H   0  0  0  0  0  0  0  0  0  0  0  0
   -0.5706    1.4764   -5.5479 H   0  0  0  0  0  0  0  0  0  0  0  0
    3.2197   -2.0971   -2.8601 H   0  0  0  0  0  0  0  0  0  0  0  0
    2.9949   -3.0406   -1.4870 H   0  0  0  0  0  0  0  0  0  0  0  0
    3.7922    0.3389   -1.0832 H   0  0  0  0  0  0  0  0  0  0  0  0
    4.6062   -0.7390   -1.1028 H   0  0  0  0  0  0  0  0  0  0  0  0
    2.0132    1.2108   -3.9192 H   0  0  0  0  0  0  0  0  0  0  0  0
    4.5944    1.9860   -4.3171 H   0  0  0  0  0  0  0  0  0  0  0  0
    3.1502    3.0420   -3.9508 H   0  0  0  0  0  0  0  0  0  0  0  0
    3.1222    0.9780   -6.2276 H   0  0  0  0  0  0  0  0  0  0  0  0
    3.3544    2.6842   -6.4203 H   0  0  0  0  0  0  0  0  0  0  0  0
    0.3980   -1.6015    3.3771 H   0  0  0  0  0  0  0  0  0  0  0  0
   -0.5174   -1.5546    1.9444 H   0  0  0  0  0  0  0  0  0  0  0  0
    2.9526    0.7437    2.2023 H   0  0  0  0  0  0  0  0  0  0  0  0
    2.4575   -0.4067    3.4248 H   0  0  0  0  0  0  0  0  0  0  0  0
   -0.2583   -3.6178   -0.8825 H   0  0  0  0  0  0  0  0  0  0  0  0
   -0.6319   -2.9847    0.6433 H   0  0  0  0  0  0  0  0  0  0  0  0
    1.9461   -0.0365   -1.9810 H   0  0  0  0  0  0  0  0  0  0  0  0
    1.5712   -0.6441   -2.6940 H   0  0  0  0  0  0  0  0  0  0  0  0
   -4.1400   -2.5454   -5.6148 H   0  0  0  0  0  0  0  0  0  0  0  0
    2.9977   -2.0088   -5.6194 H   0  0  0  0  0  0  0  0  0  0  0  0
    2.4596    1.3705   -1.6988 H   0  0  0  0  0  0  0  0  0  0  0  0
    4.0836    1.3125   -2.1848 H   0  0  0  0  0  0  0  0  0  0  0  0
    0.3247   -3.8653    1.9480 H   0  0  0  0  0  0  0  0  0  0  0  0
    1.5014   -3.1321    0.9085 H   0  0  0  0  0  0  0  0  0  0  0  0
    4.3452   -1.4895    2.7095 H   0  0  0  0  0  0  0  0  0  0  0  0
    2.8586   -1.9966    1.7555 H   0  0  0  0  0  0  0  0  0  0  0  0
   -1.2713   -0.0780   -2.7509 H   0  0  0  0  0  0  0  0  0  0  0  0
   -1.5284   -0.0545   -1.4972 H   0  0  0  0  0  0  0  0  0  0  0  0
   -2.9211   -2.7158   -0.3847 H   0  0  0  0  0  0  0  0  0  0  0  0
   -2.2696   -1.1154   -0.4119 H   0  0  0  0  0  0  0  0  0  0  0  0
   -0.2624   -0.5800   -8.4365 H   0  0  0  0  0  0  0  0  0  0  0  0
   -0.7186   -4.8791   -8.2802 H   0  0  0  0  0  0  0  0  0  0  0  0
    0.5689   -5.0337  -10.3922 H   0  0  0  0  0  0  0  0  0  0  0  0
    0.7816   -0.7461  -10.5999 H   0  0  0  0  0  0  0  0  0  0  0  0
    1.0919   -2.9728  -11.6651 H   0  0  0  0  0  0  0  0  0  0  0  0
  2 14  1  0  0  0  0
  3  6  1  0  0  0  0
  3  4  1  0  0  0  0
  3 48  1  1  0  0  0
  5  4  1  0  0  0  0
  5 49  1  0  0  0  0
  6  2  1  0  0  0  0
  6 50  1  0  0  0  0
  6 51  1  0  0  0  0
  7  5  1  0  0  0  0
  7 52  1  1  0  0  0
  8  3  1  0  0  0  0
  8 53  1  0  0  0  0
  9  1  1  0  0  0  0
 10  1  1  0  0  0  0
 11  7  1  0  0  0  0
 12 23  1  0  0  0  0
 13  8  1  0  0  0  0
 14 22  1  0  0  0  0
 14 54  1  0  0  0  0
 14 55  1  0  0  0  0
 15  1  2  0  0  0  0
 16  2  2  0  0  0  0
 17  2  2  0  0  0  0
 18  1  1  0  0  0  0
 19  4  2  0  0  0  0
 20 11  2  0  0  0  0
 21 12  2  0  0  0  0
 22 18  1  0  0  0  0
 22 56  1  0  0  0  0
 22 57  1  0  0  0  0
 23 26  1  0  0  0  0
 23 34  1  0  0  0  0
 23 58  1  6  0  0  0
 24  7  1  0  0  0  0
 25 13  2  0  0  0  0
 26 27  1  0  0  0  0
 26 59  1  0  0  0  0
 26 60  1  0  0  0  0
 27 13  1  0  0  0  0
 27 61  1  0  0  0  0
 27 62  1  0  0  0  0
 28 10  1  0  0  0  0
 28 63  1  0  0  0  0
 28 64  1  0  0  0  0
 29 10  1  0  0  0  0
 29 65  1  0  0  0  0
 29 66  1  0  0  0  0
 30  9  1  0  0  0  0
 30 67  1  0  0  0  0
 30 68  1  0  0  0  0
 31  9  1  0  0  0  0
 31 69  1  0  0  0  0
 31 70  1  0  0  0  0
 32 11  1  0  0  0  0
 32 71  1  0  0  0  0
 33 12  1  0  0  0  0
 33 72  1  0  0  0  0
 34 73  1  0  0  0  0
 34 74  1  0  0  0  0
 35 39  1  0  0  0  0
 36 42  1  0  0  0  0
 37 40  1  0  0  0  0
 38 41  1  0  0  0  0
 39 28  1  0  0  0  0
 39 75  1  0  0  0  0
 39 76  1  0  0  0  0
 40 29  1  0  0  0  0
 40 77  1  0  0  0  0
 40 78  1  0  0  0  0
 41 31  1  0  0  0  0
 41 79  1  0  0  0  0
 41 80  1  0  0  0  0
 42 30  1  0  0  0  0
 42 81  1  0  0  0  0
 42 82  1  0  0  0  0
 43 24  1  0  0  0  0
 43 83  1  0  0  0  0
 44 24  2  0  0  0  0
 44 84  1  0  0  0  0
 45 44  1  0  0  0  0
 45 85  1  0  0  0  0
 46 43  2  0  0  0  0
 46 86  1  0  0  0  0
 47 46  1  0  0  0  0
 47 45  2  0  0  0  0
 47 87  1  0  0  0  0
M  END
>  <DRUGBANK_ID>
DB04972

>  <COMMON_NAME>
Canfosfamide

>  <CAS_NUMBER>
158382-37-7

>  <UNII>
1RS284BFUI

>  <SYNONYMS>
Canfosfamide

$$$$
