
 OpenBabel10282417153D

 50 52  0  0  0  0  0  0  0  0999 V2000
    0.5399    0.8413    0.5634 S   0  0  0  0  0  0  0  0  0  0  0  0
    5.2469   10.1380   -5.8792 F   0  0  0  0  0  0  0  0  0  0  0  0
    2.3738    4.9758   -3.5271 O   0  0  0  0  0  0  0  0  0  0  0  0
    2.2013   -0.4432   -2.6048 O   0  0  0  0  0  0  0  0  0  0  0  0
    6.0752    4.5415   -5.5385 O   0  0  0  0  0  0  0  0  0  0  0  0
   -0.2783   -0.3670    0.3382 O   0  0  0  0  0  0  0  0  0  0  0  0
    0.1493    1.5948    1.7020 O   0  0  0  0  0  0  0  0  0  0  0  0
    0.1601    1.6366   -0.8841 N   0  0  0  0  0  0  0  0  0  0  0  0
    6.1376    2.3739   -5.1637 N   0  0  0  0  0  0  0  0  0  0  0  0
    3.2072    2.8850   -3.5968 C   0  0  0  0  0  0  0  0  0  0  0  0
    2.1700    3.6854   -3.1511 C   0  0  0  0  0  0  0  0  0  0  0  0
    4.1597    3.7729   -4.3101 C   0  0  0  0  0  0  0  0  0  0  0  0
    1.1359    1.8420   -1.9198 C   0  0  0  0  0  0  0  0  0  0  0  0
    3.5632    5.0420   -4.2061 C   0  0  0  0  0  0  0  0  0  0  0  0
    1.9955    0.9276   -2.5318 C   0  0  0  0  0  0  0  0  0  0  0  0
    3.0350    1.5057   -3.2485 C   0  0  0  0  0  0  0  0  0  0  0  0
    1.1183    3.1945   -2.3629 C   0  0  0  0  0  0  0  0  0  0  0  0
    3.9445    6.3925   -4.6497 C   0  0  0  0  0  0  0  0  0  0  0  0
    1.3602   -1.5023   -2.0999 C   0  0  0  0  0  0  0  0  0  0  0  0
    5.4814    3.5935   -5.0208 C   0  0  0  0  0  0  0  0  0  0  0  0
    4.1839    7.4142   -3.7150 C   0  0  0  0  0  0  0  0  0  0  0  0
    4.1501    6.6773   -6.0115 C   0  0  0  0  0  0  0  0  0  0  0  0
    1.6727   -1.6448   -0.6484 C   0  0  0  0  0  0  0  0  0  0  0  0
   -0.0355   -1.2034   -2.6063 C   0  0  0  0  0  0  0  0  0  0  0  0
    2.6206    0.6722    0.5563 C   0  0  0  0  0  0  0  0  0  0  0  0
    4.6203    8.6804   -4.1312 C   0  0  0  0  0  0  0  0  0  0  0  0
    4.5981    7.9379   -6.4271 C   0  0  0  0  0  0  0  0  0  0  0  0
    4.8241    8.9295   -5.4830 C   0  0  0  0  0  0  0  0  0  0  0  0
    5.6883    1.1335   -4.6724 C   0  0  0  0  0  0  0  0  0  0  0  0
   -0.7013    1.2258   -1.2611 H   0  0  0  0  0  0  0  0  0  0  0  0
    7.0084    2.3965   -5.6738 H   0  0  0  0  0  0  0  0  0  0  0  0
    3.7396    0.7092   -3.4588 H   0  0  0  0  0  0  0  0  0  0  0  0
    0.3294    3.8603   -2.0268 H   0  0  0  0  0  0  0  0  0  0  0  0
    1.6890   -2.4784   -2.4617 H   0  0  0  0  0  0  0  0  0  0  0  0
    4.0607    7.2233   -2.6517 H   0  0  0  0  0  0  0  0  0  0  0  0
    4.0061    5.9029   -6.7613 H   0  0  0  0  0  0  0  0  0  0  0  0
    1.6479   -0.6097   -0.5704 H   0  0  0  0  0  0  0  0  0  0  0  0
    0.9746   -2.0296    0.0910 H   0  0  0  0  0  0  0  0  0  0  0  0
    2.6909   -1.8499   -0.3020 H   0  0  0  0  0  0  0  0  0  0  0  0
   -0.0741   -1.5727   -3.6335 H   0  0  0  0  0  0  0  0  0  0  0  0
   -0.8338   -1.6308   -2.0058 H   0  0  0  0  0  0  0  0  0  0  0  0
   -0.2531   -0.1406   -2.7363 H   0  0  0  0  0  0  0  0  0  0  0  0
    2.9389   -0.0249    1.3436 H   0  0  0  0  0  0  0  0  0  0  0  0
    3.1215    0.2975   -0.3566 H   0  0  0  0  0  0  0  0  0  0  0  0
    3.0137    1.6769    0.6473 H   0  0  0  0  0  0  0  0  0  0  0  0
    4.8154    9.4685   -3.4104 H   0  0  0  0  0  0  0  0  0  0  0  0
    4.7878    8.1429   -7.4763 H   0  0  0  0  0  0  0  0  0  0  0  0
    5.3339    0.4063   -5.4032 H   0  0  0  0  0  0  0  0  0  0  0  0
    6.2077    0.7447   -3.7953 H   0  0  0  0  0  0  0  0  0  0  0  0
    4.8106    1.5226   -4.3032 H   0  0  0  0  0  0  0  0  0  0  0  0
  1  6  2  0  0  0  0
  1  7  2  0  0  0  0
  1  8  1  0  0  0  0
  1 25  1  0  0  0  0
  2 28  1  0  0  0  0
  3 11  1  0  0  0  0
  3 14  1  0  0  0  0
  4 15  1  0  0  0  0
  4 19  1  0  0  0  0
  5 20  2  0  0  0  0
  8 13  1  0  0  0  0
  8 30  1  0  0  0  0
  9 20  1  0  0  0  0
  9 29  1  0  0  0  0
  9 31  1  0  0  0  0
 10 11  1  0  0  0  0
 10 12  1  0  0  0  0
 10 16  2  0  0  0  0
 11 17  2  0  0  0  0
 12 14  2  0  0  0  0
 12 20  1  0  0  0  0
 13 15  2  0  0  0  0
 13 17  1  0  0  0  0
 14 18  1  0  0  0  0
 15 16  1  0  0  0  0
 16 32  1  0  0  0  0
 17 33  1  0  0  0  0
 18 21  2  0  0  0  0
 18 22  1  0  0  0  0
 19 23  1  0  0  0  0
 19 24  1  0  0  0  0
 19 34  1  0  0  0  0
 21 26  1  0  0  0  0
 21 35  1  0  0  0  0
 22 27  2  0  0  0  0
 22 36  1  0  0  0  0
 23 37  1  0  0  0  0
 23 38  1  0  0  0  0
 23 39  1  0  0  0  0
 24 40  1  0  0  0  0
 24 41  1  0  0  0  0
 24 42  1  0  0  0  0
 25 43  1  0  0  0  0
 25 44  1  0  0  0  0
 25 45  1  0  0  0  0
 26 28  2  0  0  0  0
 26 46  1  0  0  0  0
 27 28  1  0  0  0  0
 27 47  1  0  0  0  0
 29 48  1  0  0  0  0
 29 49  1  0  0  0  0
 29 50  1  0  0  0  0
M  END
>  <DRUGBANK_ID>
DB05884

>  <COMMON_NAME>
HCV-086

$$$$
