
 OpenBabel10282417133D

 24 23  0  0  1  0  0  0  0  0999 V2000
    1.0774    0.0253    0.0514 C   0  0  0  0  0  0  0  0  0  0  0  0
    0.5855    0.0326    1.4716 C   0  0  0  0  0  0  0  0  0  0  0  0
   -0.1215    0.9336    1.9124 O   0  0  0  0  0  0  0  0  0  0  0  0
    0.9782   -0.9952    2.2778 N   0  0  0  0  0  0  0  0  0  0  0  0
    1.7320   -2.1951    1.9066 C   0  0  1  0  0  0  0  0  0  0  0  0
    2.9604   -2.3359    2.8297 C   0  0  0  0  0  0  0  0  0  0  0  0
    2.7075   -2.4786    4.3391 C   0  0  0  0  0  0  0  0  0  0  0  0
    1.9796   -3.7232    4.8040 C   0  0  0  0  0  0  0  0  0  0  0  0
    2.7680   -4.7248    5.2445 O   0  0  0  0  0  0  0  0  0  0  0  0
    0.7751   -3.8146    4.8513 O   0  0  0  0  0  0  0  0  0  0  0  0
    0.7750   -3.4056    1.8065 C   0  0  0  0  0  0  0  0  0  0  0  0
    1.0159   -4.2474    0.7748 O   0  0  0  0  0  0  0  0  0  0  0  0
   -0.1850   -3.5915    2.5311 O   0  0  0  0  0  0  0  0  0  0  0  0
    0.7055    0.9070   -0.4757 H   0  0  0  0  0  0  0  0  0  0  0  0
    0.7067   -0.8667   -0.4618 H   0  0  0  0  0  0  0  0  0  0  0  0
    2.1706    0.0466    0.0367 H   0  0  0  0  0  0  0  0  0  0  0  0
    0.5098   -0.9984    3.1815 H   0  0  0  0  0  0  0  0  0  0  0  0
    2.1222   -2.0419    0.8952 H   0  0  0  0  0  0  0  0  0  0  0  0
    3.6167   -3.1358    2.4701 H   0  0  0  0  0  0  0  0  0  0  0  0
    3.5437   -1.4042    2.7110 H   0  0  0  0  0  0  0  0  0  0  0  0
    3.6631   -2.4133    4.8730 H   0  0  0  0  0  0  0  0  0  0  0  0
    2.1241   -1.6235    4.6983 H   0  0  0  0  0  0  0  0  0  0  0  0
    3.6056   -4.4348    5.6430 H   0  0  0  0  0  0  0  0  0  0  0  0
    1.3598   -3.8223   -0.0298 H   0  0  0  0  0  0  0  0  0  0  0  0
  1  2  1  0  0  0  0
  1 14  1  0  0  0  0
  1 15  1  0  0  0  0
  1 16  1  0  0  0  0
  2  3  2  0  0  0  0
  2  4  1  0  0  0  0
  4 17  1  0  0  0  0
  5  4  1  0  0  0  0
  5  6  1  0  0  0  0
  5 11  1  0  0  0  0
  5 18  1  6  0  0  0
  6  7  1  0  0  0  0
  6 19  1  0  0  0  0
  6 20  1  0  0  0  0
  7  8  1  0  0  0  0
  7 21  1  0  0  0  0
  7 22  1  0  0  0  0
  8  9  1  0  0  0  0
  8 10  2  0  0  0  0
  9 23  1  0  0  0  0
 11 12  1  0  0  0  0
 11 13  2  0  0  0  0
 12 24  1  0  0  0  0
M  END
>  <DRUGBANK_ID>
DB04075

>  <SECONDARY_ACCESSION_NUMBERS>
EXPT02356

>  <COMMON_NAME>
N-Acetyl-L-Glutamate

>  <CAS_NUMBER>
1188-37-0

>  <UNII>
MA61H539YZ

$$$$
