
 OpenBabel10282417133D

 85 87  0  0  0  0  0  0  0  0999 V2000
   19.7488   -3.2445   -0.5067 S   0  0  0  0  0  0  0  0  0  0  0  0
   18.5629   -4.9210   -0.5624 S   0  0  0  0  0  0  0  0  0  0  0  0
   15.8461    3.1508    5.7396 P   0  0  0  0  0  0  0  0  0  0  0  0
   11.4997    5.2144    1.9720 P   0  0  2  0  0  0  0  0  0  0  0  0
   12.7349    3.4636    0.1308 P   0  0  2  0  0  0  0  0  0  0  0  0
   12.4146    4.5566    4.7045 O   0  0  0  0  0  0  0  0  0  0  0  0
   14.9747    2.2819    4.6900 O   0  0  0  0  0  0  0  0  0  0  0  0
   12.7187    2.7320    6.5114 O   0  0  0  0  0  0  0  0  0  0  0  0
   12.9811    5.8855    2.0410 O   0  0  0  0  0  0  0  0  0  0  0  0
   16.3325    4.3881    4.8493 O   0  0  0  0  0  0  0  0  0  0  0  0
   14.6909    3.7240    6.6581 O   0  0  0  0  0  0  0  0  0  0  0  0
   11.7339    4.8651    0.2939 O   0  0  0  0  0  0  0  0  0  0  0  0
   14.1419    4.4701    0.1177 O   0  0  0  0  0  0  0  0  0  0  0  0
   16.9158    2.5141    6.5301 O   0  0  0  0  0  0  0  0  0  0  0  0
   13.9968    1.3291   -1.1026 O   0  0  0  0  0  0  0  0  0  0  0  0
   10.6190    6.4714    1.4060 O   0  0  0  0  0  0  0  0  0  0  0  0
   11.2901    5.5270    3.4739 O   0  0  0  0  0  0  0  0  0  0  0  0
   12.7453    3.5699   -1.5153 O   0  0  0  0  0  0  0  0  0  0  0  0
   15.9215   -0.8243    0.6650 O   0  0  0  0  0  0  0  0  0  0  0  0
   11.4757    2.5628    0.1425 O   0  0  0  0  0  0  0  0  0  0  0  0
   19.8852    0.8362   -3.7987 O   0  0  0  0  0  0  0  0  0  0  0  0
   10.4182    2.9903    3.7738 N   0  0  0  0  0  0  0  0  0  0  0  0
    8.9067    2.6032    2.1084 N   0  0  0  0  0  0  0  0  0  0  0  0
    9.4585    1.4044    5.3713 N   0  0  0  0  0  0  0  0  0  0  0  0
    7.6433    0.1020    4.3222 N   0  0  0  0  0  0  0  0  0  0  0  0
   16.2962   -0.0651   -1.4495 N   0  0  0  0  0  0  0  0  0  0  0  0
    7.0163    0.5322    2.0310 N   0  0  0  0  0  0  0  0  0  0  0  0
   19.5578   -0.2380   -1.8519 N   0  0  0  0  0  0  0  0  0  0  0  0
   13.7171    2.7889    4.2088 C   0  0  1  0  0  0  0  0  0  0  0  0
   12.4807    2.4224    5.1261 C   0  0  2  0  0  0  0  0  0  0  0  0
   13.6415    4.3347    4.0691 C   0  0  1  0  0  0  0  0  0  0  0  0
   11.4564    3.4430    4.7538 C   0  0  1  0  0  0  0  0  0  0  0  0
   13.8953    5.0139    2.6835 C   0  0  0  0  0  0  0  0  0  0  0  0
    9.4980    2.0443    4.2026 C   0  0  0  0  0  0  0  0  0  0  0  0
   10.0197    3.1486    2.4885 C   0  0  0  0  0  0  0  0  0  0  0  0
   15.6192    2.5301    0.4463 C   0  0  0  0  0  0  0  0  0  0  0  0
    8.6580    1.8115    3.1330 C   0  0  0  0  0  0  0  0  0  0  0  0
   14.7643    1.2129    0.1075 C   0  0  2  0  0  0  0  0  0  0  0  0
   15.2869    3.8165   -0.3388 C   0  0  0  0  0  0  0  0  0  0  0  0
   15.9864    2.7448    1.8926 C   0  0  0  0  0  0  0  0  0  0  0  0
   17.0114    2.2937    0.0128 C   0  0  0  0  0  0  0  0  0  0  0  0
    7.7327    0.7935    3.1785 C   0  0  0  0  0  0  0  0  0  0  0  0
   15.6564    0.0152   -0.2306 C   0  0  0  0  0  0  0  0  0  0  0  0
    8.4815    0.4621    5.3369 C   0  0  0  0  0  0  0  0  0  0  0  0
   16.5608    0.8423   -2.5905 C   0  0  0  0  0  0  0  0  0  0  0  0
   17.9687    1.5443   -2.6128 C   0  0  0  0  0  0  0  0  0  0  0  0
   19.1615    0.6658   -2.7854 C   0  0  0  0  0  0  0  0  0  0  0  0
   19.0805   -0.5614   -0.5026 C   0  0  0  0  0  0  0  0  0  0  0  0
   18.4807   -1.9716   -0.3732 C   0  0  0  0  0  0  0  0  0  0  0  0
   16.8908   -0.8534   -1.5217 H   0  0  0  0  0  0  0  0  0  0  0  0
    7.2011    1.1423    1.2347 H   0  0  0  0  0  0  0  0  0  0  0  0
    6.2887   -0.1534    2.0143 H   0  0  0  0  0  0  0  0  0  0  0  0
   20.4055   -0.7199   -2.1205 H   0  0  0  0  0  0  0  0  0  0  0  0
   19.5335   -5.8336   -0.6683 H   0  0  0  0  0  0  0  0  0  0  0  0
   12.7892    3.7358    6.5194 H   0  0  0  0  0  0  0  0  0  0  0  0
   17.2550    4.2984    4.5569 H   0  0  0  0  0  0  0  0  0  0  0  0
   14.1889    2.9025    6.9151 H   0  0  0  0  0  0  0  0  0  0  0  0
   13.0243    1.3044   -0.9796 H   0  0  0  0  0  0  0  0  0  0  0  0
   10.0341    6.1711    0.6829 H   0  0  0  0  0  0  0  0  0  0  0  0
   13.5213    3.2435   -2.0026 H   0  0  0  0  0  0  0  0  0  0  0  0
   13.5175    2.3093    3.2359 H   0  0  0  0  0  0  0  0  0  0  0  0
   12.1560    1.3901    5.0448 H   0  0  0  0  0  0  0  0  0  0  0  0
   14.3383    4.8974    4.6668 H   0  0  0  0  0  0  0  0  0  0  0  0
   10.8217    3.8351    5.5601 H   0  0  0  0  0  0  0  0  0  0  0  0
   13.8461    4.1562    2.0596 H   0  0  0  0  0  0  0  0  0  0  0  0
   14.9015    5.4404    2.5577 H   0  0  0  0  0  0  0  0  0  0  0  0
   10.4295    3.5930    1.6348 H   0  0  0  0  0  0  0  0  0  0  0  0
   14.1047    0.9308    0.9486 H   0  0  0  0  0  0  0  0  0  0  0  0
   16.1009    4.5446   -0.2645 H   0  0  0  0  0  0  0  0  0  0  0  0
   15.2188    3.6348   -1.4193 H   0  0  0  0  0  0  0  0  0  0  0  0
   16.2872    1.8174    2.3822 H   0  0  0  0  0  0  0  0  0  0  0  0
   16.8018    3.4780    1.9783 H   0  0  0  0  0  0  0  0  0  0  0  0
   15.2008    3.1492    2.4555 H   0  0  0  0  0  0  0  0  0  0  0  0
   17.4025    1.4259    0.5235 H   0  0  0  0  0  0  0  0  0  0  0  0
   16.7939    2.2074   -1.0106 H   0  0  0  0  0  0  0  0  0  0  0  0
   17.7346    3.1008    0.1026 H   0  0  0  0  0  0  0  0  0  0  0  0
    8.3634   -0.0939    6.2565 H   0  0  0  0  0  0  0  0  0  0  0  0
   15.7550    1.5825   -2.6354 H   0  0  0  0  0  0  0  0  0  0  0  0
   16.4764    0.2253   -3.4867 H   0  0  0  0  0  0  0  0  0  0  0  0
   18.3085    2.1511   -1.7684 H   0  0  0  0  0  0  0  0  0  0  0  0
   17.9230    2.3152   -3.3965 H   0  0  0  0  0  0  0  0  0  0  0  0
   18.3566    0.1823   -0.2503 H   0  0  0  0  0  0  0  0  0  0  0  0
   19.8793   -0.4071    0.2314 H   0  0  0  0  0  0  0  0  0  0  0  0
   17.7838   -2.2126   -1.1789 H   0  0  0  0  0  0  0  0  0  0  0  0
   17.9428   -2.0717    0.5759 H   0  0  0  0  0  0  0  0  0  0  0  0
  1  2  1  0  0  0  0
  1 49  1  0  0  0  0
  2 54  1  0  0  0  0
  3  7  1  0  0  0  0
  3 10  1  0  0  0  0
  3 11  1  0  0  0  0
  3 14  2  0  0  0  0
  4  9  1  0  0  0  0
  4 12  1  0  0  0  0
  4 16  1  0  0  0  0
  4 17  2  1  0  0  0
  5 12  1  0  0  0  0
  5 13  1  0  0  0  0
  5 18  1  0  0  0  0
  5 20  2  1  0  0  0
  6 31  1  0  0  0  0
  6 32  1  0  0  0  0
  8 55  1  0  0  0  0
  9 33  1  0  0  0  0
 10 56  1  0  0  0  0
 11 57  1  0  0  0  0
 13 39  1  0  0  0  0
 15 58  1  0  0  0  0
 16 59  1  0  0  0  0
 18 60  1  0  0  0  0
 19 43  2  0  0  0  0
 21 47  2  0  0  0  0
 22 34  1  0  0  0  0
 22 35  1  0  0  0  0
 23 35  2  0  0  0  0
 23 37  1  0  0  0  0
 24 34  2  0  0  0  0
 24 44  1  0  0  0  0
 25 42  1  0  0  0  0
 25 44  2  0  0  0  0
 26 43  1  0  0  0  0
 26 45  1  0  0  0  0
 26 50  1  0  0  0  0
 27 42  1  0  0  0  0
 27 51  1  0  0  0  0
 27 52  1  0  0  0  0
 28 47  1  0  0  0  0
 28 48  1  0  0  0  0
 28 53  1  0  0  0  0
 29  7  1  0  0  0  0
 29 30  1  0  0  0  0
 29 31  1  0  0  0  0
 29 61  1  6  0  0  0
 30  8  1  0  0  0  0
 30 32  1  0  0  0  0
 30 62  1  6  0  0  0
 31 63  1  1  0  0  0
 31 33  1  0  0  0  0
 32 22  1  0  0  0  0
 32 64  1  1  0  0  0
 33 65  1  0  0  0  0
 33 66  1  0  0  0  0
 34 37  1  0  0  0  0
 35 67  1  0  0  0  0
 36 39  1  0  0  0  0
 36 40  1  0  0  0  0
 36 41  1  0  0  0  0
 37 42  2  0  0  0  0
 38 43  1  0  0  0  0
 38 68  1  1  0  0  0
 38 36  1  0  0  0  0
 38 15  1  0  0  0  0
 39 69  1  0  0  0  0
 39 70  1  0  0  0  0
 40 71  1  0  0  0  0
 40 72  1  0  0  0  0
 40 73  1  0  0  0  0
 41 74  1  0  0  0  0
 41 75  1  0  0  0  0
 41 76  1  0  0  0  0
 44 77  1  0  0  0  0
 45 46  1  0  0  0  0
 45 78  1  0  0  0  0
 45 79  1  0  0  0  0
 46 47  1  0  0  0  0
 46 80  1  0  0  0  0
 46 81  1  0  0  0  0
 48 49  1  0  0  0  0
 48 82  1  0  0  0  0
 48 83  1  0  0  0  0
 49 84  1  0  0  0  0
 49 85  1  0  0  0  0
M  END
>  <DRUGBANK_ID>
DB04036

>  <SECONDARY_ACCESSION_NUMBERS>
EXPT00989

>  <COMMON_NAME>
Coenzyme A persulfide

>  <CAS_NUMBER>
81918-99-2

>  <SYNONYMS>
CoA persulfide

$$$$
