
 OpenBabel10282417233D

 39 39  0  0  1  0  0  0  0  0999 V2000
    1.1115   -0.0836    0.0393 C   0  0  0  0  0  0  0  0  0  0  0  0
    0.5723    1.1892   -0.4188 N   0  0  0  0  0  0  0  0  0  0  0  0
   -0.9024    1.2144   -0.4263 C   0  0  1  0  0  0  0  0  0  0  0  0
   -1.4770    1.0253    0.9819 C   0  0  0  0  0  0  0  0  0  0  0  0
   -1.4182    2.5606   -0.9930 C   0  0  0  0  0  0  0  0  0  0  0  0
   -0.9798    2.8202   -2.4040 C   0  0  0  0  0  0  0  0  0  0  0  0
   -1.8300    3.0080   -3.4334 C   0  0  0  0  0  0  0  0  0  0  0  0
   -1.3520    3.2264   -4.7974 C   0  0  0  0  0  0  0  0  0  0  0  0
   -0.3409    2.4221   -5.3053 C   0  0  0  0  0  0  0  0  0  0  0  0
    0.1585    2.5872   -6.5890 C   0  0  0  0  0  0  0  0  0  0  0  0
    1.1680    1.8603   -7.1470 O   0  0  0  0  0  0  0  0  0  0  0  0
    1.8090    0.8255   -6.3784 C   0  0  0  0  0  0  0  0  0  0  0  0
    2.5923    1.3700   -5.1759 C   0  0  0  0  0  0  0  0  0  0  0  0
    0.8734   -0.3531   -6.0790 C   0  0  0  0  0  0  0  0  0  0  0  0
   -0.4301    3.5826   -7.3545 C   0  0  0  0  0  0  0  0  0  0  0  0
   -1.4421    4.3804   -6.9216 N   0  0  0  0  0  0  0  0  0  0  0  0
   -1.8776    4.1790   -5.6526 C   0  0  0  0  0  0  0  0  0  0  0  0
    0.7512   -0.9092   -0.5823 H   0  0  0  0  0  0  0  0  0  0  0  0
    0.8605   -0.2847    1.0845 H   0  0  0  0  0  0  0  0  0  0  0  0
    2.2029   -0.0659   -0.0255 H   0  0  0  0  0  0  0  0  0  0  0  0
    0.9269    1.9440    0.1678 H   0  0  0  0  0  0  0  0  0  0  0  0
   -1.2691    0.4078   -1.0753 H   0  0  0  0  0  0  0  0  0  0  0  0
   -1.1120    1.8034    1.6617 H   0  0  0  0  0  0  0  0  0  0  0  0
   -2.5703    1.0711    0.9646 H   0  0  0  0  0  0  0  0  0  0  0  0
   -1.2121    0.0518    1.4045 H   0  0  0  0  0  0  0  0  0  0  0  0
   -2.5138    2.5755   -0.9389 H   0  0  0  0  0  0  0  0  0  0  0  0
   -1.0622    3.3901   -0.3684 H   0  0  0  0  0  0  0  0  0  0  0  0
    0.0980    2.8548   -2.5583 H   0  0  0  0  0  0  0  0  0  0  0  0
   -2.9029    2.9735   -3.2885 H   0  0  0  0  0  0  0  0  0  0  0  0
    0.0359    1.6623   -4.6367 H   0  0  0  0  0  0  0  0  0  0  0  0
    2.5736    0.4172   -7.0534 H   0  0  0  0  0  0  0  0  0  0  0  0
    1.9851    1.9056   -4.4453 H   0  0  0  0  0  0  0  0  0  0  0  0
    3.0986    0.5658   -4.6363 H   0  0  0  0  0  0  0  0  0  0  0  0
    3.3342    2.1022   -5.5121 H   0  0  0  0  0  0  0  0  0  0  0  0
    0.4748   -0.7606   -7.0141 H   0  0  0  0  0  0  0  0  0  0  0  0
    1.3936   -1.1432   -5.5323 H   0  0  0  0  0  0  0  0  0  0  0  0
   -0.0089   -0.0931   -5.4932 H   0  0  0  0  0  0  0  0  0  0  0  0
   -0.0971    3.7738   -8.3710 H   0  0  0  0  0  0  0  0  0  0  0  0
   -2.6770    4.8361   -5.3277 H   0  0  0  0  0  0  0  0  0  0  0  0
  1  2  1  0  0  0  0
  1 18  1  0  0  0  0
  1 19  1  0  0  0  0
  1 20  1  0  0  0  0
  2 21  1  0  0  0  0
  3  2  1  0  0  0  0
  3  4  1  0  0  0  0
  3  5  1  0  0  0  0
  3 22  1  6  0  0  0
  4 23  1  0  0  0  0
  4 24  1  0  0  0  0
  4 25  1  0  0  0  0
  5  6  1  0  0  0  0
  5 26  1  0  0  0  0
  5 27  1  0  0  0  0
  6  7  2  0  0  0  0
  6 28  1  0  0  0  0
  7  8  1  0  0  0  0
  7 29  1  0  0  0  0
  8  9  2  0  0  0  0
  8 17  1  0  0  0  0
  9 10  1  0  0  0  0
  9 30  1  0  0  0  0
 10 11  1  0  0  0  0
 10 15  2  0  0  0  0
 11 12  1  0  0  0  0
 12 13  1  0  0  0  0
 12 14  1  0  0  0  0
 12 31  1  0  0  0  0
 13 32  1  0  0  0  0
 13 33  1  0  0  0  0
 13 34  1  0  0  0  0
 14 35  1  0  0  0  0
 14 36  1  0  0  0  0
 14 37  1  0  0  0  0
 15 16  1  0  0  0  0
 15 38  1  0  0  0  0
 16 17  2  0  0  0  0
 17 39  1  0  0  0  0
M  END
>  <DRUGBANK_ID>
DB16205

>  <COMMON_NAME>
Ispronicline

>  <CAS_NUMBER>
252870-53-4

>  <UNII>
3E05NBH9V5

>  <SYNONYMS>
Ispronicline

$$$$
