IDA
 OpenBabel10282417173D

 38 39  0  0  0  0  0  0  0  0999 V2000
    1.0349    0.1939   -0.0086 N   0  0  0  0  0  0  0  0  0  0  0  0
    0.3114    0.4850    1.1160 C   0  0  0  0  0  0  0  0  0  0  0  0
   -0.9158    0.4494    1.0865 O   0  0  0  0  0  0  0  0  0  0  0  0
    1.1133    0.8506    2.3695 C   0  0  0  0  0  0  0  0  0  0  0  0
    1.9060   -0.3302    2.8237 C   0  0  0  0  0  0  0  0  0  0  0  0
    3.1737   -0.2837    3.3694 N   0  0  0  0  0  0  0  0  0  0  0  0
    3.6486   -1.5714    3.5753 C   0  0  0  0  0  0  0  0  0  0  0  0
    2.6308   -2.4216    3.1665 C   0  0  0  0  0  0  0  0  0  0  0  0
    1.5248   -1.6495    2.7834 C   0  0  0  0  0  0  0  0  0  0  0  0
    2.8411   -3.7967    3.1684 C   0  0  0  0  0  0  0  0  0  0  0  0
    4.0036   -4.3434    3.7098 C   0  0  0  0  0  0  0  0  0  0  0  0
    4.1157   -5.8412    3.8379 C   0  0  0  0  0  0  0  0  0  0  0  0
    3.1053   -6.4471    4.8303 C   0  0  0  0  0  0  0  0  0  0  0  0
    1.6409   -6.2500    4.4496 C   0  0  0  0  0  0  0  0  0  0  0  0
    5.0228   -3.4790    4.1127 C   0  0  0  0  0  0  0  0  0  0  0  0
    4.8895   -2.0702    4.0336 C   0  0  0  0  0  0  0  0  0  0  0  0
    6.0539   -1.1920    4.4030 C   0  0  0  0  0  0  0  0  0  0  0  0
    6.4621   -0.3018    3.2614 C   0  0  0  0  0  0  0  0  0  0  0  0
    6.3744    0.9205    3.2486 O   0  0  0  0  0  0  0  0  0  0  0  0
    6.9046   -0.9737    2.1813 O   0  0  0  0  0  0  0  0  0  0  0  0
    0.5200   -0.1599   -0.8056 H   0  0  0  0  0  0  0  0  0  0  0  0
    2.0307    0.0231    0.0272 H   0  0  0  0  0  0  0  0  0  0  0  0
    1.7417    1.7186    2.1553 H   0  0  0  0  0  0  0  0  0  0  0  0
    0.3995    1.1192    3.1565 H   0  0  0  0  0  0  0  0  0  0  0  0
    3.7100    0.5568    3.5497 H   0  0  0  0  0  0  0  0  0  0  0  0
    0.5705   -2.0245    2.4346 H   0  0  0  0  0  0  0  0  0  0  0  0
    2.0510   -4.4172    2.7650 H   0  0  0  0  0  0  0  0  0  0  0  0
    3.9921   -6.2900    2.8445 H   0  0  0  0  0  0  0  0  0  0  0  0
    5.1278   -6.1074    4.1688 H   0  0  0  0  0  0  0  0  0  0  0  0
    3.2941   -7.5246    4.8983 H   0  0  0  0  0  0  0  0  0  0  0  0
    3.2698   -6.0254    5.8288 H   0  0  0  0  0  0  0  0  0  0  0  0
    1.4610   -6.5718    3.4176 H   0  0  0  0  0  0  0  0  0  0  0  0
    0.9738   -6.8052    5.1108 H   0  0  0  0  0  0  0  0  0  0  0  0
    1.3385   -5.2047    4.5584 H   0  0  0  0  0  0  0  0  0  0  0  0
    5.9595   -3.9061    4.4713 H   0  0  0  0  0  0  0  0  0  0  0  0
    5.7701   -0.5693    5.2588 H   0  0  0  0  0  0  0  0  0  0  0  0
    6.9276   -1.7768    4.7143 H   0  0  0  0  0  0  0  0  0  0  0  0
    7.0595   -0.2966    1.4917 H   0  0  0  0  0  0  0  0  0  0  0  0
  1  2  1  0  0  0  0
  1 21  1  0  0  0  0
  1 22  1  0  0  0  0
  2  3  2  0  0  0  0
  2  4  1  0  0  0  0
  4  5  1  0  0  0  0
  4 23  1  0  0  0  0
  4 24  1  0  0  0  0
  5  6  1  0  0  0  0
  5  9  2  0  0  0  0
  6  7  1  0  0  0  0
  6 25  1  0  0  0  0
  7  8  2  0  0  0  0
  7 16  1  0  0  0  0
  8  9  1  0  0  0  0
  8 10  1  0  0  0  0
  9 26  1  0  0  0  0
 10 11  2  0  0  0  0
 10 27  1  0  0  0  0
 11 12  1  0  0  0  0
 11 15  1  0  0  0  0
 12 13  1  0  0  0  0
 12 28  1  0  0  0  0
 12 29  1  0  0  0  0
 13 14  1  0  0  0  0
 13 30  1  0  0  0  0
 13 31  1  0  0  0  0
 14 32  1  0  0  0  0
 14 33  1  0  0  0  0
 14 34  1  0  0  0  0
 15 16  2  0  0  0  0
 15 35  1  0  0  0  0
 16 17  1  0  0  0  0
 17 18  1  0  0  0  0
 17 36  1  0  0  0  0
 17 37  1  0  0  0  0
 18 19  2  0  0  0  0
 18 20  1  0  0  0  0
 20 38  1  0  0  0  0
M  END
>  <DRUGBANK_ID>
DB07958

>  <COMMON_NAME>
(2-CARBAMOYLMETHYL-5-PROPYL-OCTAHYDRO-INDOL-7-YL)ACETIC ACID

$$$$
