
 OpenBabel10282417203D

 35 37  0  0  0  0  0  0  0  0999 V2000
    0.9775   -0.0292   -0.0617 C   0  0  0  0  0  0  0  0  0  0  0  0
    0.8790   -3.7880   -0.3681 C   0  0  0  0  0  0  0  0  0  0  0  0
   -4.3000    0.0581   -1.2911 C   0  0  0  0  0  0  0  0  0  0  0  0
   -3.8008   -6.6964    0.1021 C   0  0  0  0  0  0  0  0  0  0  0  0
   -0.3632   -4.0485    0.4788 C   0  0  0  0  0  0  0  0  0  0  0  0
   -3.2917   -0.9457   -1.3218 C   0  0  0  0  0  0  0  0  0  0  0  0
   -3.2590   -5.4910    0.6324 C   0  0  0  0  0  0  0  0  0  0  0  0
    1.4551   -2.4035   -0.0761 C   0  0  0  0  0  0  0  0  0  0  0  0
   -5.2808   -0.2332   -0.3728 C   0  0  0  0  0  0  0  0  0  0  0  0
   -4.1509   -6.5598   -1.2202 C   0  0  0  0  0  0  0  0  0  0  0  0
   -0.7439   -1.5925    0.5422 C   0  0  0  0  0  0  0  0  0  0  0  0
   -1.3847   -2.9414    0.2559 C   0  0  0  0  0  0  0  0  0  0  0  0
   -3.4993   -1.9674   -0.4053 C   0  0  0  0  0  0  0  0  0  0  0  0
   -3.1807   -4.4652   -0.2990 C   0  0  0  0  0  0  0  0  0  0  0  0
   -2.6738   -3.1232   -0.1373 C   0  0  0  0  0  0  0  0  0  0  0  0
    0.4413   -1.3686   -0.3023 N   0  0  0  0  0  0  0  0  0  0  0  0
   -4.9689   -1.6967    0.4577 S   0  0  0  0  0  0  0  0  0  0  0  0
   -3.8097   -4.9945   -1.8168 S   0  0  0  0  0  0  0  0  0  0  0  0
    0.7181    0.3562    0.9313 H   0  0  0  0  0  0  0  0  0  0  0  0
    0.5685    0.6586   -0.8091 H   0  0  0  0  0  0  0  0  0  0  0  0
    2.0687    0.0083   -0.1508 H   0  0  0  0  0  0  0  0  0  0  0  0
    1.6354   -4.5536   -0.1612 H   0  0  0  0  0  0  0  0  0  0  0  0
    0.6241   -3.8707   -1.4334 H   0  0  0  0  0  0  0  0  0  0  0  0
   -4.3035    0.9434   -1.9150 H   0  0  0  0  0  0  0  0  0  0  0  0
   -3.9298   -7.6126    0.6647 H   0  0  0  0  0  0  0  0  0  0  0  0
   -0.7272   -5.0483    0.2366 H   0  0  0  0  0  0  0  0  0  0  0  0
   -0.0885   -4.0641    1.5416 H   0  0  0  0  0  0  0  0  0  0  0  0
   -2.4208   -0.9132   -1.9671 H   0  0  0  0  0  0  0  0  0  0  0  0
   -2.9156   -5.3802    1.6539 H   0  0  0  0  0  0  0  0  0  0  0  0
    1.8318   -2.3657    0.9540 H   0  0  0  0  0  0  0  0  0  0  0  0
    2.3093   -2.2433   -0.7453 H   0  0  0  0  0  0  0  0  0  0  0  0
   -6.1671    0.3458   -0.1497 H   0  0  0  0  0  0  0  0  0  0  0  0
   -4.5917   -7.3059   -1.8674 H   0  0  0  0  0  0  0  0  0  0  0  0
   -1.4358   -0.7582    0.4097 H   0  0  0  0  0  0  0  0  0  0  0  0
   -0.4658   -1.5664    1.6053 H   0  0  0  0  0  0  0  0  0  0  0  0
  1 19  1  0  0  0  0
  1 20  1  0  0  0  0
  1 21  1  0  0  0  0
  2 22  1  0  0  0  0
  2 23  1  0  0  0  0
  3 24  1  0  0  0  0
  4 25  1  0  0  0  0
  5  2  1  0  0  0  0
  5 26  1  0  0  0  0
  5 27  1  0  0  0  0
  6  3  1  0  0  0  0
  6 28  1  0  0  0  0
  7  4  1  0  0  0  0
  7 29  1  0  0  0  0
  8  2  1  0  0  0  0
  8 30  1  0  0  0  0
  8 31  1  0  0  0  0
  9  3  2  0  0  0  0
  9 32  1  0  0  0  0
 10  4  2  0  0  0  0
 10 33  1  0  0  0  0
 11 34  1  0  0  0  0
 11 35  1  0  0  0  0
 12  5  1  0  0  0  0
 12 11  1  0  0  0  0
 13  6  2  0  0  0  0
 14  7  2  0  0  0  0
 15 12  2  0  0  0  0
 15 13  1  0  0  0  0
 15 14  1  0  0  0  0
 16  1  1  0  0  0  0
 16  8  1  0  0  0  0
 16 11  1  0  0  0  0
 17  9  1  0  0  0  0
 17 13  1  0  0  0  0
 18 10  1  0  0  0  0
 18 14  1  0  0  0  0
M  END
>  <DRUGBANK_ID>
DB13474

>  <COMMON_NAME>
Tipepidine

>  <CAS_NUMBER>
5169-78-8

>  <UNII>
2260ZP67IT

>  <SYNONYMS>
Tipepidine

$$$$
