BBB
 OpenBabel10282417163D

 51 53  0  0  0  0  0  0  0  0999 V2000
    0.7958    0.0725   -0.1153 O   0  0  0  0  0  0  0  0  0  0  0  0
    0.5490    1.1889    0.7418 C   0  0  0  0  0  0  0  0  0  0  0  0
    1.0384    0.9248    2.1497 C   0  0  0  0  0  0  0  0  0  0  0  0
    2.4443    0.8261    2.3320 O   0  0  0  0  0  0  0  0  0  0  0  0
    3.0832   -0.2733    1.7292 C   0  0  0  0  0  0  0  0  0  0  0  0
    2.6180   -1.6140    2.1073 N   0  0  0  0  0  0  0  0  0  0  0  0
    1.6707   -1.8781    3.0875 C   0  0  0  0  0  0  0  0  0  0  0  0
    1.2726   -1.1120    3.9662 O   0  0  0  0  0  0  0  0  0  0  0  0
    1.1439   -3.1321    3.0990 N   0  0  0  0  0  0  0  0  0  0  0  0
    1.8026   -4.2336    2.6502 C   0  0  0  0  0  0  0  0  0  0  0  0
    1.5305   -5.3468    3.0484 O   0  0  0  0  0  0  0  0  0  0  0  0
    3.2924   -2.6774    1.5506 C   0  0  0  0  0  0  0  0  0  0  0  0
    2.9299   -3.9526    1.7369 C   0  0  0  0  0  0  0  0  0  0  0  0
    3.6231   -5.1390    1.1544 C   0  0  0  0  0  0  0  0  0  0  0  0
    3.4387   -5.2487   -0.3369 C   0  0  0  0  0  0  0  0  0  0  0  0
    3.9341   -4.2524   -1.1899 C   0  0  0  0  0  0  0  0  0  0  0  0
    3.8969   -4.3725   -2.5474 C   0  0  0  0  0  0  0  0  0  0  0  0
    3.5125   -5.5900   -3.0565 C   0  0  0  0  0  0  0  0  0  0  0  0
    2.7861   -6.3472   -0.9009 C   0  0  0  0  0  0  0  0  0  0  0  0
    2.7794   -6.4865   -2.2824 C   0  0  0  0  0  0  0  0  0  0  0  0
    1.9824   -7.4616   -2.8141 O   0  0  0  0  0  0  0  0  0  0  0  0
    1.7452   -7.3934   -4.2342 C   0  0  0  0  0  0  0  0  0  0  0  0
    0.8451   -6.2501   -4.7185 C   0  0  0  0  0  0  0  0  0  0  0  0
    1.1813   -4.8853   -4.6232 C   0  0  0  0  0  0  0  0  0  0  0  0
    0.3947   -3.8332   -5.0553 C   0  0  0  0  0  0  0  0  0  0  0  0
   -0.8046   -4.1248   -5.6452 C   0  0  0  0  0  0  0  0  0  0  0  0
   -1.1850   -5.4621   -5.7871 C   0  0  0  0  0  0  0  0  0  0  0  0
   -0.3740   -6.5180   -5.3325 C   0  0  0  0  0  0  0  0  0  0  0  0
    4.4694   -2.3626    0.9040 O   0  0  0  0  0  0  0  0  0  0  0  0
    1.6317    0.2350   -0.5780 H   0  0  0  0  0  0  0  0  0  0  0  0
    0.9885    2.0905    0.3160 H   0  0  0  0  0  0  0  0  0  0  0  0
   -0.5381    1.2828    0.7991 H   0  0  0  0  0  0  0  0  0  0  0  0
    0.7059    1.6899    2.8554 H   0  0  0  0  0  0  0  0  0  0  0  0
    0.5147    0.0174    2.4156 H   0  0  0  0  0  0  0  0  0  0  0  0
    3.0275   -0.1645    0.6389 H   0  0  0  0  0  0  0  0  0  0  0  0
    4.1582   -0.2030    1.9374 H   0  0  0  0  0  0  0  0  0  0  0  0
    0.4851   -3.2994    3.8424 H   0  0  0  0  0  0  0  0  0  0  0  0
    4.6950   -5.0915    1.3779 H   0  0  0  0  0  0  0  0  0  0  0  0
    3.2758   -6.0675    1.6214 H   0  0  0  0  0  0  0  0  0  0  0  0
    4.4418   -3.3739   -0.8542 H   0  0  0  0  0  0  0  0  0  0  0  0
    4.1717   -3.5376   -3.1856 H   0  0  0  0  0  0  0  0  0  0  0  0
    3.6253   -5.7151   -4.1254 H   0  0  0  0  0  0  0  0  0  0  0  0
    2.3119   -7.0990   -0.2739 H   0  0  0  0  0  0  0  0  0  0  0  0
    2.6964   -7.4259   -4.7827 H   0  0  0  0  0  0  0  0  0  0  0  0
    1.2747   -8.3536   -4.4844 H   0  0  0  0  0  0  0  0  0  0  0  0
    2.0772   -4.5005   -4.1945 H   0  0  0  0  0  0  0  0  0  0  0  0
    0.7544   -2.8188   -4.9015 H   0  0  0  0  0  0  0  0  0  0  0  0
   -1.4303   -3.3077   -5.9808 H   0  0  0  0  0  0  0  0  0  0  0  0
   -2.1375   -5.6834   -6.2536 H   0  0  0  0  0  0  0  0  0  0  0  0
   -0.7127   -7.5430   -5.4610 H   0  0  0  0  0  0  0  0  0  0  0  0
    4.2932   -1.6848    0.2303 H   0  0  0  0  0  0  0  0  0  0  0  0
  1  2  1  0  0  0  0
  1 30  1  0  0  0  0
  2  3  1  0  0  0  0
  2 31  1  0  0  0  0
  2 32  1  0  0  0  0
  3  4  1  0  0  0  0
  3 33  1  0  0  0  0
  3 34  1  0  0  0  0
  4  5  1  0  0  0  0
  5  6  1  0  0  0  0
  5 35  1  0  0  0  0
  5 36  1  0  0  0  0
  6  7  1  0  0  0  0
  6 12  1  0  0  0  0
  7  8  2  0  0  0  0
  7  9  1  0  0  0  0
  9 10  1  0  0  0  0
  9 37  1  0  0  0  0
 10 11  2  0  0  0  0
 10 13  1  0  0  0  0
 12 13  2  0  0  0  0
 12 29  1  0  0  0  0
 13 14  1  0  0  0  0
 14 15  1  0  0  0  0
 14 38  1  0  0  0  0
 14 39  1  0  0  0  0
 15 16  2  0  0  0  0
 15 19  1  0  0  0  0
 16 17  1  0  0  0  0
 16 40  1  0  0  0  0
 17 18  2  0  0  0  0
 17 41  1  0  0  0  0
 18 20  1  0  0  0  0
 18 42  1  0  0  0  0
 19 20  2  0  0  0  0
 19 43  1  0  0  0  0
 20 21  1  0  0  0  0
 21 22  1  0  0  0  0
 22 23  1  0  0  0  0
 22 44  1  0  0  0  0
 22 45  1  0  0  0  0
 23 24  2  0  0  0  0
 23 28  1  0  0  0  0
 24 25  1  0  0  0  0
 24 46  1  0  0  0  0
 25 26  2  0  0  0  0
 25 47  1  0  0  0  0
 26 27  1  0  0  0  0
 26 48  1  0  0  0  0
 27 28  2  0  0  0  0
 27 49  1  0  0  0  0
 28 50  1  0  0  0  0
 29 51  1  0  0  0  0
M  END
>  <DRUGBANK_ID>
DB07439

>  <COMMON_NAME>
1-((2-HYDROXYETHOXY)METHYL)-5-(3-(BENZYLOXY)BENZYL)-6-HYDROXYPYRIMIDINE-2,4(1H,3H)-DIONE

$$$$
