LJ1
 OpenBabel10282417173D

 33 34  0  0  0  0  0  0  0  0999 V2000
   -2.5861    0.5295    0.0021 C   0  0  0  0  0  0  0  0  0  0  0  0
   -1.2148   -0.0818   -0.0083 C   0  0  0  0  0  0  0  0  0  0  0  0
   -1.0747   -1.4838   -0.0100 C   0  0  0  0  0  0  0  0  0  0  0  0
   -0.0577    0.7099   -0.0020 C   0  0  0  0  0  0  0  0  0  0  0  0
   -0.1123    2.0769    0.0016 O   0  0  0  0  0  0  0  0  0  0  0  0
    1.2116    0.1289    0.0007 C   0  0  0  0  0  0  0  0  0  0  0  0
    2.4610    0.9581   -0.0234 C   0  0  0  0  0  0  0  0  0  0  0  0
    1.3191   -1.2645    0.0195 C   0  0  0  0  0  0  0  0  0  0  0  0
    0.1910   -2.0909    0.0204 C   0  0  0  0  0  0  0  0  0  0  0  0
    0.3023   -3.5599    0.0470 C   0  0  0  0  0  0  0  0  0  0  0  0
    1.4626   -4.2420    0.1067 C   0  0  0  0  0  0  0  0  0  0  0  0
    1.5442   -5.7028    0.0783 C   0  0  0  0  0  0  0  0  0  0  0  0
    0.7930   -6.4382   -0.8439 C   0  0  0  0  0  0  0  0  0  0  0  0
    0.9215   -7.8230   -0.9139 C   0  0  0  0  0  0  0  0  0  0  0  0
    1.8300   -8.4798   -0.0868 C   0  0  0  0  0  0  0  0  0  0  0  0
    2.6142   -7.7517    0.8072 C   0  0  0  0  0  0  0  0  0  0  0  0
    2.4569   -6.3680    0.9068 C   0  0  0  0  0  0  0  0  0  0  0  0
   -2.7217    1.1208    0.9140 H   0  0  0  0  0  0  0  0  0  0  0  0
   -2.7170    1.1764   -0.8717 H   0  0  0  0  0  0  0  0  0  0  0  0
   -3.3749   -0.2285   -0.0239 H   0  0  0  0  0  0  0  0  0  0  0  0
   -1.9678   -2.1068   -0.0294 H   0  0  0  0  0  0  0  0  0  0  0  0
   -1.0366    2.3660    0.0065 H   0  0  0  0  0  0  0  0  0  0  0  0
    2.4922    1.5629   -0.9343 H   0  0  0  0  0  0  0  0  0  0  0  0
    2.5074    1.6048    0.8573 H   0  0  0  0  0  0  0  0  0  0  0  0
    3.3565    0.3262   -0.0176 H   0  0  0  0  0  0  0  0  0  0  0  0
    2.3164   -1.6913    0.0316 H   0  0  0  0  0  0  0  0  0  0  0  0
   -0.6371   -4.1066    0.0187 H   0  0  0  0  0  0  0  0  0  0  0  0
    2.4271   -3.7496    0.1515 H   0  0  0  0  0  0  0  0  0  0  0  0
    0.1130   -5.9321   -1.5246 H   0  0  0  0  0  0  0  0  0  0  0  0
    0.3222   -8.3821   -1.6262 H   0  0  0  0  0  0  0  0  0  0  0  0
    1.9293   -9.5600   -0.1432 H   0  0  0  0  0  0  0  0  0  0  0  0
    3.3515   -8.2612    1.4221 H   0  0  0  0  0  0  0  0  0  0  0  0
    3.0485   -5.8174    1.6351 H   0  0  0  0  0  0  0  0  0  0  0  0
  1  2  1  0  0  0  0
  1 18  1  0  0  0  0
  1 19  1  0  0  0  0
  1 20  1  0  0  0  0
  2  3  2  0  0  0  0
  2  4  1  0  0  0  0
  3  9  1  0  0  0  0
  3 21  1  0  0  0  0
  4  5  1  0  0  0  0
  4  6  2  0  0  0  0
  5 22  1  0  0  0  0
  6  7  1  0  0  0  0
  6  8  1  0  0  0  0
  7 23  1  0  0  0  0
  7 24  1  0  0  0  0
  7 25  1  0  0  0  0
  8  9  2  0  0  0  0
  8 26  1  0  0  0  0
  9 10  1  0  0  0  0
 10 11  2  0  0  0  0
 10 27  1  0  0  0  0
 11 12  1  0  0  0  0
 11 28  1  0  0  0  0
 12 13  2  0  0  0  0
 12 17  1  0  0  0  0
 13 14  1  0  0  0  0
 13 29  1  0  0  0  0
 14 15  2  0  0  0  0
 14 30  1  0  0  0  0
 15 16  1  0  0  0  0
 15 31  1  0  0  0  0
 16 17  2  0  0  0  0
 16 32  1  0  0  0  0
 17 33  1  0  0  0  0
M  END
>  <DRUGBANK_ID>
DB08100

>  <COMMON_NAME>
2,6-dimethyl-4-[(E)-2-phenylethenyl]phenol

>  <UNII>
1JVW0GEF1L

$$$$
