
 OpenBabel10282417213D

 34 36  0  0  0  0  0  0  0  0999 V2000
   -2.0834   -0.7547   -0.0005 N   0  0  0  0  0  0  0  0  0  0  0  0
   -0.8848    1.3483   -0.0322 N   0  0  0  0  0  0  0  0  0  0  0  0
   -1.9968    0.5909   -0.0107 C   0  0  0  0  0  0  0  0  0  0  0  0
    0.2816   -0.7706    0.0181 C   0  0  0  0  0  0  0  0  0  0  0  0
   -0.9375   -1.4616    0.0031 C   0  0  0  0  0  0  0  0  0  0  0  0
    0.2367    0.6170    0.0154 C   0  0  0  0  0  0  0  0  0  0  0  0
    1.5330    1.0866    0.0472 N   0  0  0  0  0  0  0  0  0  0  0  0
    2.3989    0.0110    0.0272 C   0  0  0  0  0  0  0  0  0  0  0  0
    1.6471   -1.1405    0.0186 C   0  0  0  0  0  0  0  0  0  0  0  0
   -1.0002   -2.8343   -0.0078 N   0  0  0  0  0  0  0  0  0  0  0  0
    2.1614   -2.4661    0.0011 C   0  0  0  0  0  0  0  0  0  0  0  0
    2.5211   -3.5733   -0.0089 N   0  0  0  0  0  0  0  0  0  0  0  0
    1.9974    2.4665   -0.0437 C   0  0  1  0  0  0  0  0  0  0  0  0
    1.5517    3.1933   -1.3056 C   0  0  2  0  0  0  0  0  0  0  0  0
    2.4018    2.9343   -2.4215 O   0  0  0  0  0  0  0  0  0  0  0  0
    1.5706    4.6475   -0.8560 C   0  0  2  0  0  0  0  0  0  0  0  0
    2.8684    5.2170   -1.0834 O   0  0  0  0  0  0  0  0  0  0  0  0
    1.2457    4.5737    0.6408 C   0  0  2  0  0  0  0  0  0  0  0  0
    1.5993    3.2445    1.0970 O   0  0  0  0  0  0  0  0  0  0  0  0
   -0.2312    4.8570    0.9471 C   0  0  0  0  0  0  0  0  0  0  0  0
   -1.1432    3.9907    0.2979 O   0  0  0  0  0  0  0  0  0  0  0  0
   -2.9420    1.1295   -0.0054 H   0  0  0  0  0  0  0  0  0  0  0  0
    3.4717    0.1484    0.0086 H   0  0  0  0  0  0  0  0  0  0  0  0
   -0.1703   -3.4075   -0.0003 H   0  0  0  0  0  0  0  0  0  0  0  0
   -1.9063   -3.2747   -0.0012 H   0  0  0  0  0  0  0  0  0  0  0  0
    3.0946    2.4228   -0.0110 H   0  0  0  0  0  0  0  0  0  0  0  0
    0.5426    2.9005   -1.5999 H   0  0  0  0  0  0  0  0  0  0  0  0
    3.2670    3.3487   -2.2547 H   0  0  0  0  0  0  0  0  0  0  0  0
    0.8569    5.2723   -1.4027 H   0  0  0  0  0  0  0  0  0  0  0  0
    3.5365    4.7269   -0.5773 H   0  0  0  0  0  0  0  0  0  0  0  0
    1.8554    5.2892    1.2094 H   0  0  0  0  0  0  0  0  0  0  0  0
   -0.4135    4.7551    2.0214 H   0  0  0  0  0  0  0  0  0  0  0  0
   -0.4934    5.8737    0.6447 H   0  0  0  0  0  0  0  0  0  0  0  0
   -0.9440    3.9174   -0.6471 H   0  0  0  0  0  0  0  0  0  0  0  0
  3  1  2  0  0  0  0
  3  2  1  0  0  0  0
  3 22  1  0  0  0  0
  5  1  1  0  0  0  0
  5  4  2  0  0  0  0
  6  2  2  0  0  0  0
  6  4  1  0  0  0  0
  7  6  1  0  0  0  0
  8  7  1  0  0  0  0
  8 23  1  0  0  0  0
  9  4  1  0  0  0  0
  9  8  2  0  0  0  0
 10  5  1  0  0  0  0
 10 24  1  0  0  0  0
 10 25  1  0  0  0  0
 11  9  1  0  0  0  0
 12 11  3  0  0  0  0
 13  7  1  0  0  0  0
 13 26  1  6  0  0  0
 14 13  1  0  0  0  0
 14 15  1  0  0  0  0
 14 27  1  6  0  0  0
 15 28  1  0  0  0  0
 16 14  1  0  0  0  0
 16 17  1  0  0  0  0
 16 29  1  6  0  0  0
 17 30  1  0  0  0  0
 18 16  1  0  0  0  0
 18 31  1  1  0  0  0
 18 20  1  0  0  0  0
 19 13  1  0  0  0  0
 19 18  1  0  0  0  0
 20 32  1  0  0  0  0
 20 33  1  0  0  0  0
 21 20  1  0  0  0  0
 21 34  1  0  0  0  0
M  END
>  <DRUGBANK_ID>
DB13916

>  <COMMON_NAME>
Toyocamycin

>  <CAS_NUMBER>
606-58-6

>  <UNII>
L7995C4D7F

>  <SYNONYMS>
4-amino-5-cyano-7-(D-ribofuranosyl)-7H-pyrrolo(2,3-d)pyrimidine; 7-deaza-7-cyanoadenosine; Ahygroscopin-B; Cyanotubericidin; Siromycin; Uramycin B; Vengicide

$$$$
