
 OpenBabel10282417123D

  9  8  0  0  0  0  0  0  0  0999 V2000
    0.8587    0.1010   -0.0354 O   0  0  0  0  0  0  0  0  0  0  0  0
    0.2836    1.3058    0.1025 C   0  0  0  0  0  0  0  0  0  0  0  0
    0.9388    2.3265    0.2194 O   0  0  0  0  0  0  0  0  0  0  0  0
   -1.1866    1.2584    0.0971 C   0  0  0  0  0  0  0  0  0  0  0  0
   -1.8991    0.1315   -0.0319 C   0  0  0  0  0  0  0  0  0  0  0  0
    1.8206    0.2802   -0.0149 H   0  0  0  0  0  0  0  0  0  0  0  0
   -1.6784    2.2187    0.2071 H   0  0  0  0  0  0  0  0  0  0  0  0
   -2.9834    0.1571   -0.0290 H   0  0  0  0  0  0  0  0  0  0  0  0
   -1.4218   -0.8377   -0.1429 H   0  0  0  0  0  0  0  0  0  0  0  0
  1  2  1  0  0  0  0
  1  6  1  0  0  0  0
  2  3  2  0  0  0  0
  2  4  1  0  0  0  0
  4  5  2  0  0  0  0
  4  7  1  0  0  0  0
  5  8  1  0  0  0  0
  5  9  1  0  0  0  0
M  END
>  <DRUGBANK_ID>
DB02579

>  <SECONDARY_ACCESSION_NUMBERS>
EXPT00484

>  <COMMON_NAME>
Acrylic Acid

>  <CAS_NUMBER>
79-10-7

>  <UNII>
J94PBK7X8S

>  <SYNONYMS>
2-Propenoic acid; acroleic acid; Acrylate; ethylenecarboxylic acid; Propenoate; Propenoic acid; Vinylformic acid

$$$$
