LZ8
 OpenBabel10282417173D

 37 39  0  0  0  0  0  0  0  0999 V2000
    2.3283    0.1329    0.2073 F   0  0  0  0  0  0  0  0  0  0  0  0
    1.0105    0.0611   -0.0090 C   0  0  0  0  0  0  0  0  0  0  0  0
    0.2453    1.2148   -0.1385 C   0  0  0  0  0  0  0  0  0  0  0  0
   -1.1243    1.1199   -0.4635 C   0  0  0  0  0  0  0  0  0  0  0  0
   -1.7072   -0.1411   -0.6923 C   0  0  0  0  0  0  0  0  0  0  0  0
   -3.0876   -0.3500   -0.9365 N   0  0  0  0  0  0  0  0  0  0  0  0
   -3.8926   -1.5086   -0.8381 C   0  0  0  0  0  0  0  0  0  0  0  0
   -5.0165   -1.4869   -1.2980 O   0  0  0  0  0  0  0  0  0  0  0  0
   -3.3882   -2.7228   -0.1598 C   0  0  0  0  0  0  0  0  0  0  0  0
   -3.6008   -3.8933   -0.7929 N   0  0  0  0  0  0  0  0  0  0  0  0
   -2.7026   -4.7197   -0.2719 N   0  0  0  0  0  0  0  0  0  0  0  0
   -2.0068   -4.1640    0.7700 C   0  0  0  0  0  0  0  0  0  0  0  0
   -2.5495   -2.9000    0.9995 C   0  0  0  0  0  0  0  0  0  0  0  0
   -2.0833   -2.0086    1.9895 N   0  0  0  0  0  0  0  0  0  0  0  0
   -2.4063   -0.6703    2.2984 C   0  0  0  0  0  0  0  0  0  0  0  0
   -1.5736   -0.0040    2.9201 O   0  0  0  0  0  0  0  0  0  0  0  0
   -3.6894    0.0195    1.8880 C   0  0  0  0  0  0  0  0  0  0  0  0
   -4.8668   -0.7080    1.7592 C   0  0  0  0  0  0  0  0  0  0  0  0
   -5.9278   -0.2027    0.9878 C   0  0  0  0  0  0  0  0  0  0  0  0
   -5.8291    1.0326    0.3424 C   0  0  0  0  0  0  0  0  0  0  0  0
   -4.7320    1.8467    0.5989 C   0  0  0  0  0  0  0  0  0  0  0  0
   -3.6825    1.3570    1.4086 C   0  0  0  0  0  0  0  0  0  0  0  0
   -0.8652   -1.2394   -0.6426 C   0  0  0  0  0  0  0  0  0  0  0  0
    0.4407   -1.1745   -0.1965 C   0  0  0  0  0  0  0  0  0  0  0  0
    0.7279    2.1756    0.0180 H   0  0  0  0  0  0  0  0  0  0  0  0
   -1.6858    2.0524   -0.4932 H   0  0  0  0  0  0  0  0  0  0  0  0
   -3.6833    0.4562   -1.0743 H   0  0  0  0  0  0  0  0  0  0  0  0
   -2.5805   -5.6171   -0.7368 H   0  0  0  0  0  0  0  0  0  0  0  0
   -1.1663   -4.7121    1.1765 H   0  0  0  0  0  0  0  0  0  0  0  0
   -1.1931   -2.2782    2.4046 H   0  0  0  0  0  0  0  0  0  0  0  0
   -4.8955   -1.7501    2.0622 H   0  0  0  0  0  0  0  0  0  0  0  0
   -6.7318   -0.8807    0.7033 H   0  0  0  0  0  0  0  0  0  0  0  0
   -6.5396    1.2821   -0.4480 H   0  0  0  0  0  0  0  0  0  0  0  0
   -4.6252    2.7812    0.0445 H   0  0  0  0  0  0  0  0  0  0  0  0
   -2.7808    1.9625    1.4811 H   0  0  0  0  0  0  0  0  0  0  0  0
   -1.2258   -2.2111   -0.9257 H   0  0  0  0  0  0  0  0  0  0  0  0
    0.9903   -2.0940   -0.0464 H   0  0  0  0  0  0  0  0  0  0  0  0
  1  2  1  0  0  0  0
  2  3  1  0  0  0  0
  2 24  2  0  0  0  0
  3  4  2  0  0  0  0
  3 25  1  0  0  0  0
  4  5  1  0  0  0  0
  4 26  1  0  0  0  0
  5  6  1  0  0  0  0
  5 23  2  0  0  0  0
  6  7  1  0  0  0  0
  6 27  1  0  0  0  0
  7  8  2  0  0  0  0
  7  9  1  0  0  0  0
  9 10  2  0  0  0  0
  9 13  1  0  0  0  0
 10 11  1  0  0  0  0
 11 12  1  0  0  0  0
 11 28  1  0  0  0  0
 12 13  2  0  0  0  0
 12 29  1  0  0  0  0
 13 14  1  0  0  0  0
 14 15  1  0  0  0  0
 14 30  1  0  0  0  0
 15 16  2  0  0  0  0
 15 17  1  0  0  0  0
 17 18  1  0  0  0  0
 17 22  2  0  0  0  0
 18 19  2  0  0  0  0
 18 31  1  0  0  0  0
 19 20  1  0  0  0  0
 19 32  1  0  0  0  0
 20 21  2  0  0  0  0
 20 33  1  0  0  0  0
 21 22  1  0  0  0  0
 21 34  1  0  0  0  0
 22 35  1  0  0  0  0
 23 24  1  0  0  0  0
 23 36  1  0  0  0  0
 24 37  1  0  0  0  0
M  END
>  <DRUGBANK_ID>
DB08137

>  <COMMON_NAME>
(4E)-N-(4-fluorophenyl)-4-[(phenylcarbonyl)imino]-4H-pyrazole-3-carboxamide

$$$$
