
 OpenBabel10282417213D

 77 80  0  0  0  0  0  0  0  0999 V2000
    2.6313   -6.0531   -0.1764 C   0  0  1  0  0  0  0  0  0  0  0  0
    1.5428   -5.2303    0.1784 O   0  0  0  0  0  0  0  0  0  0  0  0
    2.0825   -7.4542    0.2739 C   0  0  1  0  0  0  0  0  0  0  0  0
    0.2487   -5.9418    0.2159 C   0  0  1  0  0  0  0  0  0  0  0  0
    0.5822   -7.3969   -0.0679 C   0  0  1  0  0  0  0  0  0  0  0  0
    2.7263   -8.5936   -0.2843 O   0  0  0  0  0  0  0  0  0  0  0  0
    0.4222   -7.7579   -1.4515 O   0  0  0  0  0  0  0  0  0  0  0  0
    2.9880   -6.1103   -1.6528 C   0  0  0  0  0  0  0  0  0  0  0  0
    3.2840   -6.1576   -2.8777 N   0  0  0  0  0  0  0  0  0  0  0  0
   -0.4512   -5.5886    1.5750 C   0  0  0  0  0  0  0  0  0  0  0  0
   -0.6889   -4.1504    1.7792 O   0  0  0  0  0  0  0  0  0  0  0  0
    0.8061   -3.2815    1.7251 P   0  0  1  0  0  0  0  0  0  0  0  0
    0.4437   -3.1202    0.1298 N   0  0  0  0  0  0  0  0  0  0  0  0
    1.2665   -2.2835   -0.6861 C   0  0  2  0  0  0  0  0  0  0  0  0
    1.5078   -0.8708   -0.1714 C   0  0  0  0  0  0  0  0  0  0  0  0
    0.5293   -2.4678   -1.9706 C   0  0  0  0  0  0  0  0  0  0  0  0
    2.5030   -0.1612   -0.7079 O   0  0  0  0  0  0  0  0  0  0  0  0
    0.9060   -0.3353    0.7830 O   0  0  0  0  0  0  0  0  0  0  0  0
    2.8803   -0.2607   -2.0704 C   0  0  0  0  0  0  0  0  0  0  0  0
    4.1019   -1.1752   -2.2477 C   0  0  0  0  0  0  0  0  0  0  0  0
    3.9996   -2.6322   -1.8558 C   0  0  0  0  0  0  0  0  0  0  0  0
    4.5498   -1.2170   -3.6917 C   0  0  0  0  0  0  0  0  0  0  0  0
    4.8955    0.1522   -4.1654 C   0  0  0  0  0  0  0  0  0  0  0  0
    3.1184   -3.4036   -2.8387 C   0  0  0  0  0  0  0  0  0  0  0  0
    3.9097   -5.6457    0.5636 C   0  0  0  0  0  0  0  0  0  0  0  0
    4.1789   -5.5528    1.9331 N   0  0  0  0  0  0  0  0  0  0  0  0
    5.1230   -5.3582   -0.0695 C   0  0  0  0  0  0  0  0  0  0  0  0
    5.4839   -5.1580    2.0938 C   0  0  0  0  0  0  0  0  0  0  0  0
    6.0847   -5.0115    0.8750 C   0  0  0  0  0  0  0  0  0  0  0  0
    3.3670   -5.7981    2.9936 N   0  0  0  0  0  0  0  0  0  0  0  0
    3.9508   -5.6147    4.1515 C   0  0  0  0  0  0  0  0  0  0  0  0
    6.0205   -4.9684    3.3985 C   0  0  0  0  0  0  0  0  0  0  0  0
    5.2415   -5.2039    4.4033 N   0  0  0  0  0  0  0  0  0  0  0  0
    7.3102   -4.5683    3.5909 N   0  0  0  0  0  0  0  0  0  0  0  0
   -0.0944   -1.9607    2.3156 O   0  0  0  0  0  0  0  0  0  0  0  0
    2.1441   -2.5038    1.6767 O   0  0  0  0  0  0  0  0  0  0  0  0
   -1.4753   -1.8380    2.2890 C   0  0  0  0  0  0  0  0  0  0  0  0
   -2.1954   -2.6769    3.1377 C   0  0  0  0  0  0  0  0  0  0  0  0
   -2.1590   -0.9005    1.5070 C   0  0  0  0  0  0  0  0  0  0  0  0
   -3.5809   -2.6875    3.1317 C   0  0  0  0  0  0  0  0  0  0  0  0
   -3.5630   -0.8508    1.5645 C   0  0  0  0  0  0  0  0  0  0  0  0
   -4.2688   -1.7581    2.3616 C   0  0  0  0  0  0  0  0  0  0  0  0
    2.1424   -7.5439    1.3640 H   0  0  0  0  0  0  0  0  0  0  0  0
   -0.3560   -5.5175   -0.5967 H   0  0  0  0  0  0  0  0  0  0  0  0
   -0.0405   -8.0881    0.5080 H   0  0  0  0  0  0  0  0  0  0  0  0
    2.4424   -8.6638   -1.2194 H   0  0  0  0  0  0  0  0  0  0  0  0
    0.1620   -7.0018   -2.0098 H   0  0  0  0  0  0  0  0  0  0  0  0
   -1.4264   -6.0827    1.6426 H   0  0  0  0  0  0  0  0  0  0  0  0
    0.1698   -5.9241    2.4115 H   0  0  0  0  0  0  0  0  0  0  0  0
    0.8643   -4.0080   -0.0987 H   0  0  0  0  0  0  0  0  0  0  0  0
    2.1694   -2.8648   -0.6195 H   0  0  0  0  0  0  0  0  0  0  0  0
    0.9958   -1.8939   -2.7422 H   0  0  0  0  0  0  0  0  0  0  0  0
    0.5063   -3.5259   -2.2893 H   0  0  0  0  0  0  0  0  0  0  0  0
   -0.4907   -2.1132   -1.8912 H   0  0  0  0  0  0  0  0  0  0  0  0
    2.0410   -0.4168   -2.7488 H   0  0  0  0  0  0  0  0  0  0  0  0
    3.1637    0.7699   -2.3000 H   0  0  0  0  0  0  0  0  0  0  0  0
    4.8738   -0.7614   -1.5890 H   0  0  0  0  0  0  0  0  0  0  0  0
    4.9680   -3.1370   -1.8669 H   0  0  0  0  0  0  0  0  0  0  0  0
    3.8110   -2.6571   -0.7815 H   0  0  0  0  0  0  0  0  0  0  0  0
    5.4047   -1.8999   -3.7700 H   0  0  0  0  0  0  0  0  0  0  0  0
    3.7585   -1.6128   -4.3392 H   0  0  0  0  0  0  0  0  0  0  0  0
    5.6391    0.5843   -3.4934 H   0  0  0  0  0  0  0  0  0  0  0  0
    5.2711    0.0810   -5.1811 H   0  0  0  0  0  0  0  0  0  0  0  0
    4.0037    0.7834   -4.1743 H   0  0  0  0  0  0  0  0  0  0  0  0
    3.7143   -3.8793   -3.6203 H   0  0  0  0  0  0  0  0  0  0  0  0
    2.5102   -4.1139   -2.3080 H   0  0  0  0  0  0  0  0  0  0  0  0
    2.3961   -2.8448   -3.4265 H   0  0  0  0  0  0  0  0  0  0  0  0
    5.3033   -5.3725   -1.1365 H   0  0  0  0  0  0  0  0  0  0  0  0
    7.1010   -4.7056    0.6766 H   0  0  0  0  0  0  0  0  0  0  0  0
    3.3631   -5.8042    5.0696 H   0  0  0  0  0  0  0  0  0  0  0  0
    7.9067   -4.3321    2.8098 H   0  0  0  0  0  0  0  0  0  0  0  0
    7.6508   -4.3763    4.5218 H   0  0  0  0  0  0  0  0  0  0  0  0
   -1.6535   -3.3937    3.7439 H   0  0  0  0  0  0  0  0  0  0  0  0
   -1.6299   -0.2042    0.8605 H   0  0  0  0  0  0  0  0  0  0  0  0
   -4.1014   -3.4250    3.7316 H   0  0  0  0  0  0  0  0  0  0  0  0
   -4.1151   -0.1079    0.9913 H   0  0  0  0  0  0  0  0  0  0  0  0
   -5.3540   -1.7387    2.3958 H   0  0  0  0  0  0  0  0  0  0  0  0
  1  2  1  0  0  0  0
  1  3  1  0  0  0  0
  1  8  1  6  0  0  0
  1 25  1  0  0  0  0
  2  4  1  0  0  0  0
  3  5  1  0  0  0  0
  3  6  1  0  0  0  0
  3 43  1  1  0  0  0
  4  5  1  0  0  0  0
  4 10  1  0  0  0  0
  4 44  1  6  0  0  0
  5 45  1  1  0  0  0
  5  7  1  0  0  0  0
  6 46  1  0  0  0  0
  7 47  1  0  0  0  0
  8  9  3  0  0  0  0
 10 11  1  0  0  0  0
 10 48  1  0  0  0  0
 10 49  1  0  0  0  0
 11 12  1  0  0  0  0
 12 13  1  0  0  0  0
 12 35  1  0  0  0  0
 12 36  2  1  0  0  0
 13 50  1  0  0  0  0
 14 16  1  0  0  0  0
 14 51  1  6  0  0  0
 14 15  1  0  0  0  0
 14 13  1  0  0  0  0
 15 17  1  0  0  0  0
 15 18  2  0  0  0  0
 16 52  1  0  0  0  0
 16 53  1  0  0  0  0
 16 54  1  0  0  0  0
 17 19  1  0  0  0  0
 19 20  1  0  0  0  0
 19 55  1  0  0  0  0
 19 56  1  0  0  0  0
 20 21  1  0  0  0  0
 20 22  1  0  0  0  0
 20 57  1  0  0  0  0
 21 24  1  0  0  0  0
 21 58  1  0  0  0  0
 21 59  1  0  0  0  0
 22 23  1  0  0  0  0
 22 60  1  0  0  0  0
 22 61  1  0  0  0  0
 23 62  1  0  0  0  0
 23 63  1  0  0  0  0
 23 64  1  0  0  0  0
 24 65  1  0  0  0  0
 24 66  1  0  0  0  0
 24 67  1  0  0  0  0
 25 26  1  0  0  0  0
 25 27  2  0  0  0  0
 26 30  1  0  0  0  0
 26 28  1  0  0  0  0
 27 29  1  0  0  0  0
 27 68  1  0  0  0  0
 28 29  2  0  0  0  0
 28 32  1  0  0  0  0
 29 69  1  0  0  0  0
 30 31  2  0  0  0  0
 31 33  1  0  0  0  0
 31 70  1  0  0  0  0
 32 33  2  0  0  0  0
 32 34  1  0  0  0  0
 34 71  1  0  0  0  0
 34 72  1  0  0  0  0
 35 37  1  0  0  0  0
 37 38  1  0  0  0  0
 37 39  2  0  0  0  0
 38 40  2  0  0  0  0
 38 73  1  0  0  0  0
 39 41  1  0  0  0  0
 39 74  1  0  0  0  0
 40 42  1  0  0  0  0
 40 75  1  0  0  0  0
 41 42  2  0  0  0  0
 41 76  1  0  0  0  0
 42 77  1  0  0  0  0
M  END
>  <DRUGBANK_ID>
DB14761

>  <COMMON_NAME>
Remdesivir

>  <CAS_NUMBER>
1809249-37-3

>  <UNII>
3QKI37EEHE

>  <SYNONYMS>
Remdesivir; Remd√©sivir; Remdesivirum

$$$$
