
 OpenBabel10282417103D

 24 24  0  0  0  0  0  0  0  0999 V2000
   -1.1816   -1.2068   -0.0072 C   0  0  0  0  0  0  0  0  0  0  0  0
   -1.0715    1.1782   -0.2861 C   0  0  0  0  0  0  0  0  0  0  0  0
    0.2195   -1.2538    0.0159 C   0  0  0  0  0  0  0  0  0  0  0  0
    0.3082    1.1505   -0.1348 C   0  0  0  0  0  0  0  0  0  0  0  0
   -3.3501    0.1392   -0.0378 C   0  0  0  0  0  0  0  0  0  0  0  0
   -1.8433    0.0225   -0.1187 C   0  0  0  0  0  0  0  0  0  0  0  0
    0.9490   -0.0679   -0.0105 C   0  0  0  0  0  0  0  0  0  0  0  0
   -3.8874    0.8604    1.2263 C   0  0  1  0  0  0  0  0  0  0  0  0
   -3.4622    2.3388    1.3345 C   0  0  0  0  0  0  0  0  0  0  0  0
   -5.3779    0.8121    1.1887 N   0  0  0  0  0  0  0  0  0  0  0  0
    2.3095   -0.0426    0.0517 O   0  0  0  0  0  0  0  0  0  0  0  0
   -4.1360    3.3069    0.9998 O   0  0  0  0  0  0  0  0  0  0  0  0
   -2.2172    2.5177    1.8128 O   0  0  0  0  0  0  0  0  0  0  0  0
   -3.5604    0.3448    2.1363 H   0  0  0  0  0  0  0  0  0  0  0  0
   -1.7461   -2.1354    0.0556 H   0  0  0  0  0  0  0  0  0  0  0  0
   -1.5478    2.1345   -0.4769 H   0  0  0  0  0  0  0  0  0  0  0  0
    0.7182   -2.2159    0.0736 H   0  0  0  0  0  0  0  0  0  0  0  0
    0.8731    2.0768   -0.1190 H   0  0  0  0  0  0  0  0  0  0  0  0
   -3.7015    0.6414   -0.9489 H   0  0  0  0  0  0  0  0  0  0  0  0
   -3.7817   -0.8721   -0.0688 H   0  0  0  0  0  0  0  0  0  0  0  0
   -5.7286    1.3512    1.9839 H   0  0  0  0  0  0  0  0  0  0  0  0
   -5.6821    1.3584    0.3768 H   0  0  0  0  0  0  0  0  0  0  0  0
    2.6403   -0.9523   -0.0044 H   0  0  0  0  0  0  0  0  0  0  0  0
   -1.9529    3.4239    1.5484 H   0  0  0  0  0  0  0  0  0  0  0  0
  1 15  1  0  0  0  0
  2 16  1  0  0  0  0
  3  1  1  0  0  0  0
  3 17  1  0  0  0  0
  4  2  2  0  0  0  0
  4 18  1  0  0  0  0
  5 19  1  0  0  0  0
  5 20  1  0  0  0  0
  6  1  2  0  0  0  0
  6  2  1  0  0  0  0
  6  5  1  0  0  0  0
  7  3  2  0  0  0  0
  7  4  1  0  0  0  0
  8  5  1  0  0  0  0
  8  9  1  0  0  0  0
  8 10  1  0  0  0  0
  8 14  1  1  0  0  0
 10 21  1  0  0  0  0
 10 22  1  0  0  0  0
 11  7  1  0  0  0  0
 11 23  1  0  0  0  0
 12  9  2  0  0  0  0
 13  9  1  0  0  0  0
 13 24  1  0  0  0  0
M  END
>  <DRUGBANK_ID>
DB00135

>  <SECONDARY_ACCESSION_NUMBERS>
NUTR00059

>  <COMMON_NAME>
Tyrosine

>  <CAS_NUMBER>
60-18-4

>  <UNII>
42HK56048U

>  <SYNONYMS>
(−)-α-amino-p-hydroxyhydrocinnamic acid; (2S)-2-amino-3-(4-hydroxyphenyl)propanoic acid; (S)-(-)-Tyrosine; (S)-2-Amino-3-(p-hydroxyphenyl)propionic acid; (S)-3-(p-Hydroxyphenyl)alanine; (S)-alpha-amino-4-Hydroxybenzenepropanoic acid; (S)-Tyrosine; (S)-α-amino-4-hydroxybenzenepropanoic acid; 4-hydroxy-L-phenylalanine; L-Tyrosin; L-tyrosine; Tirosina; Tyr; Tyrosine; Tyrosinum; Y

$$$$
