
 OpenBabel10282417203D

 28 29  0  0  0  0  0  0  0  0999 V2000
    1.0916    1.4722    0.0568 O   0  0  0  0  0  0  0  0  0  0  0  0
    2.2397    0.7217   -0.3336 C   0  0  0  0  0  0  0  0  0  0  0  0
    2.2832   -0.6483    0.3359 C   0  0  3  0  0  0  0  0  0  0  0  0
    1.1308   -1.4271   -0.0522 O   0  0  0  0  0  0  0  0  0  0  0  0
   -0.0407    0.7058    0.0292 C   0  0  0  0  0  0  0  0  0  0  0  0
   -0.0263   -0.6902   -0.0219 C   0  0  0  0  0  0  0  0  0  0  0  0
   -1.2324   -1.3903   -0.0623 C   0  0  0  0  0  0  0  0  0  0  0  0
   -2.4456   -0.6950   -0.0298 C   0  0  0  0  0  0  0  0  0  0  0  0
   -2.4534    0.6990    0.0349 C   0  0  0  0  0  0  0  0  0  0  0  0
   -1.2489    1.3989    0.0658 C   0  0  0  0  0  0  0  0  0  0  0  0
    3.5498   -1.3951   -0.1067 C   0  0  0  0  0  0  0  0  0  0  0  0
    4.7688   -0.7191    0.3338 N   0  0  0  0  0  0  0  0  0  0  0  0
    5.6836   -1.3163    1.1257 C   0  0  0  0  0  0  0  0  0  0  0  0
    6.7608   -0.5644    1.4022 N   0  0  0  0  0  0  0  0  0  0  0  0
    5.5354   -2.4999    1.5906 N   0  0  0  0  0  0  0  0  0  0  0  0
    3.1096    1.3191   -0.0458 H   0  0  0  0  0  0  0  0  0  0  0  0
    2.2424    0.6288   -1.4273 H   0  0  0  0  0  0  0  0  0  0  0  0
    2.2653   -0.5514    1.4302 H   0  0  0  0  0  0  0  0  0  0  0  0
   -1.2331   -2.4760   -0.1069 H   0  0  0  0  0  0  0  0  0  0  0  0
   -3.3863   -1.2398   -0.0512 H   0  0  0  0  0  0  0  0  0  0  0  0
   -3.3947    1.2417    0.0603 H   0  0  0  0  0  0  0  0  0  0  0  0
   -1.2466    2.4843    0.1088 H   0  0  0  0  0  0  0  0  0  0  0  0
    3.4960   -2.4234    0.2702 H   0  0  0  0  0  0  0  0  0  0  0  0
    3.5639   -1.4960   -1.1993 H   0  0  0  0  0  0  0  0  0  0  0  0
    4.9892    0.1709   -0.0860 H   0  0  0  0  0  0  0  0  0  0  0  0
    7.4813   -0.9193    2.0143 H   0  0  0  0  0  0  0  0  0  0  0  0
    6.8785    0.3775    1.0657 H   0  0  0  0  0  0  0  0  0  0  0  0
    6.3362   -2.7507    2.1675 H   0  0  0  0  0  0  0  0  0  0  0  0
  1  2  1  0  0  0  0
  2  3  1  0  0  0  0
  2 16  1  0  0  0  0
  2 17  1  0  0  0  0
  3  4  1  0  0  0  0
  3 11  1  0  0  0  0
  3 18  1  0  0  0  0
  5  6  2  0  0  0  0
  5  1  1  0  0  0  0
  6  4  1  0  0  0  0
  6  7  1  0  0  0  0
  7  8  2  0  0  0  0
  7 19  1  0  0  0  0
  8  9  1  0  0  0  0
  8 20  1  0  0  0  0
  9 10  2  0  0  0  0
  9 21  1  0  0  0  0
 10  5  1  0  0  0  0
 10 22  1  0  0  0  0
 11 12  1  0  0  0  0
 11 23  1  0  0  0  0
 11 24  1  0  0  0  0
 12 13  1  0  0  0  0
 12 25  1  0  0  0  0
 13 14  1  0  0  0  0
 13 15  2  0  0  0  0
 14 26  1  0  0  0  0
 14 27  1  0  0  0  0
 15 28  1  0  0  0  0
M  END
>  <DRUGBANK_ID>
DB13211

>  <COMMON_NAME>
Guanoxan

>  <CAS_NUMBER>
2165-19-7

>  <UNII>
9V0MRL0R5Y

>  <SYNONYMS>
Guanoxan; Guanoxano; Guanoxanum

$$$$
