
 OpenBabel10282417123D

 48 51  0  0  0  0  0  0  0  0999 V2000
   -2.9414   -1.8366   -0.2021 C   0  0  0  0  0  0  0  0  0  0  0  0
    0.1386   -2.1388    0.4700 C   0  0  0  0  0  0  0  0  0  0  0  0
   -4.0999    0.2794    0.3082 C   0  0  2  0  0  0  0  0  0  0  0  0
   -1.9636    1.6987    0.6310 C   0  0  0  0  0  0  0  0  0  0  0  0
   -4.3377   -1.1970   -0.0644 C   0  0  0  0  0  0  0  0  0  0  0  0
    1.7355    0.3199    0.3402 C   0  0  0  0  0  0  0  0  0  0  0  0
   -0.4455    1.7171    0.3838 C   0  0  0  0  0  0  0  0  0  0  0  0
    1.5940   -2.2193    0.0251 C   0  0  0  0  0  0  0  0  0  0  0  0
   -5.0499    1.1457   -0.2827 O   0  0  0  0  0  0  0  0  0  0  0  0
    2.3450   -0.9131    0.0654 C   0  0  0  0  0  0  0  0  0  0  0  0
    2.5541    1.4716    0.3482 C   0  0  0  0  0  0  0  0  0  0  0  0
    3.7088   -0.9526   -0.2449 C   0  0  0  0  0  0  0  0  0  0  0  0
    4.4990    0.1969   -0.2683 C   0  0  0  0  0  0  0  0  0  0  0  0
    5.7873   -0.0880   -0.6103 O   0  0  0  0  0  0  0  0  0  0  0  0
   -0.5032   -0.8329   -0.0069 C   0  0  2  0  0  0  0  0  0  0  0  0
   -0.3804   -0.7754   -1.0968 H   0  0  0  0  0  0  0  0  0  0  0  0
    0.2453    0.3619    0.6737 C   0  0  1  0  0  0  0  0  0  0  0  0
    0.1832    0.2126    1.7628 H   0  0  0  0  0  0  0  0  0  0  0  0
   -2.6436    0.5491   -0.1207 C   0  0  2  0  0  0  0  0  0  0  0  0
   -2.5564    0.7997   -1.6477 C   0  0  0  0  0  0  0  0  0  0  0  0
   -1.9921   -0.7691    0.3425 C   0  0  1  0  0  0  0  0  0  0  0  0
   -2.0631   -0.8333    1.4411 H   0  0  0  0  0  0  0  0  0  0  0  0
    3.9330    1.4345    0.0379 C   0  0  0  0  0  0  0  0  0  0  0  0
    4.5098    2.6752    0.0882 O   0  0  0  0  0  0  0  0  0  0  0  0
    5.8863    2.8237   -0.2042 C   0  0  0  0  0  0  0  0  0  0  0  0
   -2.7302   -2.0678   -1.2523 H   0  0  0  0  0  0  0  0  0  0  0  0
   -2.8777   -2.7745    0.3585 H   0  0  0  0  0  0  0  0  0  0  0  0
   -0.3967   -3.0133    0.0832 H   0  0  0  0  0  0  0  0  0  0  0  0
    0.0869   -2.1987    1.5650 H   0  0  0  0  0  0  0  0  0  0  0  0
   -4.2019    0.3909    1.3949 H   0  0  0  0  0  0  0  0  0  0  0  0
   -2.1348    1.5921    1.7107 H   0  0  0  0  0  0  0  0  0  0  0  0
   -2.3984    2.6623    0.3422 H   0  0  0  0  0  0  0  0  0  0  0  0
   -4.9157   -1.3081   -0.9884 H   0  0  0  0  0  0  0  0  0  0  0  0
   -4.9090   -1.6904    0.7304 H   0  0  0  0  0  0  0  0  0  0  0  0
   -0.0203    2.4973    1.0258 H   0  0  0  0  0  0  0  0  0  0  0  0
   -0.2379    2.0266   -0.6470 H   0  0  0  0  0  0  0  0  0  0  0  0
    1.6264   -2.5891   -1.0076 H   0  0  0  0  0  0  0  0  0  0  0  0
    2.1134   -2.9540    0.6530 H   0  0  0  0  0  0  0  0  0  0  0  0
   -5.0623    0.9903   -1.2417 H   0  0  0  0  0  0  0  0  0  0  0  0
    2.1250    2.4415    0.5964 H   0  0  0  0  0  0  0  0  0  0  0  0
    4.1773   -1.9045   -0.4872 H   0  0  0  0  0  0  0  0  0  0  0  0
    6.3385    0.6991   -0.6320 H   0  0  0  0  0  0  0  0  0  0  0  0
   -2.9750   -0.0266   -2.2304 H   0  0  0  0  0  0  0  0  0  0  0  0
   -3.1075    1.7052   -1.9248 H   0  0  0  0  0  0  0  0  0  0  0  0
   -1.5306    0.9399   -1.9974 H   0  0  0  0  0  0  0  0  0  0  0  0
    6.4970    2.2705    0.5173 H   0  0  0  0  0  0  0  0  0  0  0  0
    6.0955    2.5328   -1.2392 H   0  0  0  0  0  0  0  0  0  0  0  0
    6.1607    3.8781   -0.1101 H   0  0  0  0  0  0  0  0  0  0  0  0
  1 26  1  0  0  0  0
  1 27  1  0  0  0  0
  2  8  1  0  0  0  0
  2 28  1  0  0  0  0
  2 29  1  0  0  0  0
  3  9  1  0  0  0  0
  3  5  1  0  0  0  0
  3 30  1  1  0  0  0
  4  7  1  0  0  0  0
  4 31  1  0  0  0  0
  4 32  1  0  0  0  0
  5  1  1  0  0  0  0
  5 33  1  0  0  0  0
  5 34  1  0  0  0  0
  6 10  2  0  0  0  0
  6 11  1  0  0  0  0
  7 35  1  0  0  0  0
  7 36  1  0  0  0  0
  8 10  1  0  0  0  0
  8 37  1  0  0  0  0
  8 38  1  0  0  0  0
  9 39  1  0  0  0  0
 10 12  1  0  0  0  0
 11 23  2  0  0  0  0
 11 40  1  0  0  0  0
 12 13  2  0  0  0  0
 12 41  1  0  0  0  0
 13 14  1  0  0  0  0
 14 42  1  0  0  0  0
 15 17  1  0  0  0  0
 15  2  1  0  0  0  0
 15 16  1  6  0  0  0
 17  6  1  0  0  0  0
 17  7  1  0  0  0  0
 17 18  1  1  0  0  0
 19  3  1  0  0  0  0
 19  4  1  0  0  0  0
 19 20  1  6  0  0  0
 20 43  1  0  0  0  0
 20 44  1  0  0  0  0
 20 45  1  0  0  0  0
 21 15  1  0  0  0  0
 21 19  1  0  0  0  0
 21  1  1  0  0  0  0
 21 22  1  1  0  0  0
 23 13  1  0  0  0  0
 23 24  1  0  0  0  0
 24 25  1  0  0  0  0
 25 46  1  0  0  0  0
 25 47  1  0  0  0  0
 25 48  1  0  0  0  0
M  END
>  <DRUGBANK_ID>
DB02342

>  <SECONDARY_ACCESSION_NUMBERS>
EXPT01362

>  <COMMON_NAME>
2-Methoxyestradiol

>  <CAS_NUMBER>
362-07-2

>  <UNII>
6I2QW73SR5

>  <SYNONYMS>
2-Hydroxyestradiol 2-methyl ether; 2-Hydroxyestradol 2-methyl ether; 2-ME2; 2-methoxy-17Î²-estradiol; 2-Methoxyestradiol-17beta; 2ME2

$$$$
