
 OpenBabel10282417133D

 24 25  0  0  1  0  0  0  0  0999 V2000
   -1.7750    0.9840   -0.0010 C   0  0  0  0  0  0  0  0  0  0  0  0
   -2.2270   -0.7420    0.0010 C   0  0  0  0  0  0  0  0  0  0  0  0
    2.2161   -2.1413   -0.0009 C   0  0  0  0  0  0  0  0  0  0  0  0
    2.1320    0.3580   -0.0020 C   0  0  0  0  0  0  0  0  0  0  0  0
    1.5240   -0.7880   -0.0010 C   0  0  0  0  0  0  0  0  0  0  0  0
    3.0837   -2.2667   -1.2426 C   0  0  1  0  0  0  0  0  0  0  0  0
   -0.0130    0.7870   -0.0010 C   0  0  0  0  0  0  0  0  0  0  0  0
    0.1590   -0.5990   -0.0000 C   0  0  0  0  0  0  0  0  0  0  0  0
    4.1290   -1.1632   -1.2440 C   0  0  0  0  0  0  0  0  0  0  0  0
    3.7530   -3.5755   -1.2426 N   0  0  0  0  0  0  0  0  0  0  0  0
    1.2140    1.3650    0.0030 N   0  0  0  0  0  0  0  0  0  0  0  0
    5.3650   -1.4586   -1.2448 O   0  0  0  0  0  0  0  0  0  0  0  0
    3.7243    0.1980   -1.2443 O   0  0  0  0  0  0  0  0  0  0  0  0
   -1.0150   -1.3660    0.0010 Se  0  0  0  0  0  0  0  0  0  0  0  0
    2.4715   -2.1792   -2.1159 H   0  0  0  0  0  0  0  0  0  0  0  0
   -2.3806    1.8661   -0.0019 H   0  0  0  0  0  0  0  0  0  0  0  0
   -3.2042   -1.1779    0.0020 H   0  0  0  0  0  0  0  0  0  0  0  0
    2.8282   -2.2288    0.8723 H   0  0  0  0  0  0  0  0  0  0  0  0
    1.4803   -2.9182   -0.0000 H   0  0  0  0  0  0  0  0  0  0  0  0
    3.1935    0.4922   -0.0061 H   0  0  0  0  0  0  0  0  0  0  0  0
    4.3353   -3.6597   -2.0758 H   0  0  0  0  0  0  0  0  0  0  0  0
    4.3366   -3.6589   -0.4102 H   0  0  0  0  0  0  0  0  0  0  0  0
    1.4123    2.3655    0.0087 H   0  0  0  0  0  0  0  0  0  0  0  0
    4.4120    0.9240   -1.2451 H   0  0  0  0  0  0  0  0  0  0  0  0
  1 16  1  0  0  0  0
  2  1  2  0  0  0  0
  2 17  1  0  0  0  0
  3 18  1  0  0  0  0
  3 19  1  0  0  0  0
  4 20  1  0  0  0  0
  5  3  1  0  0  0  0
  5  4  2  0  0  0  0
  6  3  1  0  0  0  0
  6 10  1  0  0  0  0
  6 15  1  6  0  0  0
  7  1  1  0  0  0  0
  8  5  1  0  0  0  0
  8  7  2  0  0  0  0
  9  6  1  0  0  0  0
 10 21  1  0  0  0  0
 10 22  1  0  0  0  0
 11  4  1  0  0  0  0
 11  7  1  0  0  0  0
 11 23  1  0  0  0  0
 12  9  2  0  0  0  0
 13  9  1  0  0  0  0
 13 24  1  0  0  0  0
 14  2  1  0  0  0  0
 14  8  1  0  0  0  0
M  END
>  <DRUGBANK_ID>
DB03513

>  <SECONDARY_ACCESSION_NUMBERS>
EXPT00151

>  <COMMON_NAME>
(S)-2-Amino-3-(4h-Selenolo[3,2-B]-Pyrrol-6-Yl)-Propionic Acid

$$$$
