
 OpenBabel10282417203D

 38 38  0  0  0  0  0  0  0  0999 V2000
    1.0793    1.3349   -0.2841 C   0  0  0  0  0  0  0  0  0  0  0  0
    1.8104    0.1175   -0.1488 C   0  0  0  0  0  0  0  0  0  0  0  0
    1.2371   -1.0944   -0.5671 C   0  0  0  0  0  0  0  0  0  0  0  0
    0.1727   -0.9188   -1.4185 C   0  0  0  0  0  0  0  0  0  0  0  0
   -0.5319    0.2401   -1.6312 N   0  0  0  0  0  0  0  0  0  0  0  0
   -0.1340    1.3243   -0.9457 C   0  0  0  0  0  0  0  0  0  0  0  0
    1.6318   -2.4139   -0.1510 N   0  0  0  0  0  0  0  0  0  0  0  0
    0.9549   -3.6385   -0.0656 C   0  0  0  0  0  0  0  0  0  0  0  0
    1.6536   -4.6597    0.0074 O   0  0  0  0  0  0  0  0  0  0  0  0
   -0.5854   -3.8563    0.0329 C   0  0  0  0  0  0  0  0  0  0  0  0
   -1.2633   -3.4054    1.3334 C   0  0  0  0  0  0  0  0  0  0  0  0
   -1.1093   -1.9421    1.5448 C   0  0  0  0  0  0  0  0  0  0  0  0
   -1.7941   -1.2044    0.4108 C   0  0  0  0  0  0  0  0  0  0  0  0
   -3.2298   -0.8424    0.3539 C   0  0  0  0  0  0  0  0  0  0  0  0
   -3.5227    0.0073    1.5613 C   0  0  0  0  0  0  0  0  0  0  0  0
   -2.9513    1.4282    1.5067 C   0  0  0  0  0  0  0  0  0  0  0  0
   -3.6943    2.3573    1.1044 O   0  0  0  0  0  0  0  0  0  0  0  0
   -1.6914    1.7760    1.8451 N   0  0  0  0  0  0  0  0  0  0  0  0
   -0.6595    1.0030    2.3772 O   0  0  0  0  0  0  0  0  0  0  0  0
    1.4057    2.2662    0.1735 H   0  0  0  0  0  0  0  0  0  0  0  0
    2.7717    0.1728    0.3521 H   0  0  0  0  0  0  0  0  0  0  0  0
   -0.2981   -1.8057   -1.8147 H   0  0  0  0  0  0  0  0  0  0  0  0
   -0.8654    2.1337   -0.8591 H   0  0  0  0  0  0  0  0  0  0  0  0
    2.6161   -2.5332    0.0727 H   0  0  0  0  0  0  0  0  0  0  0  0
   -1.0870   -3.5057   -0.8696 H   0  0  0  0  0  0  0  0  0  0  0  0
   -0.7905   -4.9367   -0.0052 H   0  0  0  0  0  0  0  0  0  0  0  0
   -2.3442   -3.5994    1.3152 H   0  0  0  0  0  0  0  0  0  0  0  0
   -0.8507   -3.9210    2.2049 H   0  0  0  0  0  0  0  0  0  0  0  0
   -1.4610   -1.6620    2.5367 H   0  0  0  0  0  0  0  0  0  0  0  0
   -0.0381   -1.7043    1.5724 H   0  0  0  0  0  0  0  0  0  0  0  0
   -1.2849   -0.2620    0.3828 H   0  0  0  0  0  0  0  0  0  0  0  0
   -1.7181   -1.7383   -0.5238 H   0  0  0  0  0  0  0  0  0  0  0  0
   -3.4036   -0.2950   -0.5905 H   0  0  0  0  0  0  0  0  0  0  0  0
   -3.8082   -1.7699    0.2767 H   0  0  0  0  0  0  0  0  0  0  0  0
   -4.6106    0.0732    1.6088 H   0  0  0  0  0  0  0  0  0  0  0  0
   -3.1856   -0.5078    2.4595 H   0  0  0  0  0  0  0  0  0  0  0  0
   -1.4051    2.7265    1.6317 H   0  0  0  0  0  0  0  0  0  0  0  0
   -0.9621    0.1006    2.2635 H   0  0  0  0  0  0  0  0  0  0  0  0
  1  2  2  0  0  0  0
  1  6  1  0  0  0  0
  1 20  1  0  0  0  0
  2  3  1  0  0  0  0
  2 21  1  0  0  0  0
  3  4  2  0  0  0  0
  3  7  1  0  0  0  0
  4  5  1  0  0  0  0
  4 22  1  0  0  0  0
  5  6  2  0  0  0  0
  6 23  1  0  0  0  0
  7  8  1  0  0  0  0
  7 24  1  0  0  0  0
  8  9  2  0  0  0  0
  8 10  1  0  0  0  0
 10 11  1  0  0  0  0
 10 25  1  0  0  0  0
 10 26  1  0  0  0  0
 11 12  1  0  0  0  0
 11 27  1  0  0  0  0
 11 28  1  0  0  0  0
 12 13  1  0  0  0  0
 12 29  1  0  0  0  0
 12 30  1  0  0  0  0
 13 14  1  0  0  0  0
 13 31  1  0  0  0  0
 13 32  1  0  0  0  0
 14 15  1  0  0  0  0
 14 33  1  0  0  0  0
 14 34  1  0  0  0  0
 15 16  1  0  0  0  0
 15 35  1  0  0  0  0
 15 36  1  0  0  0  0
 16 17  2  0  0  0  0
 16 18  1  0  0  0  0
 18 19  1  0  0  0  0
 18 37  1  0  0  0  0
 19 38  1  0  0  0  0
M  END
>  <DRUGBANK_ID>
DB12847

>  <COMMON_NAME>
Pyroxamide

>  <CAS_NUMBER>
382180-17-8

>  <UNII>
12N86DSS23

$$$$
