
 OpenBabel10282417183D

 23 23  0  0  0  0  0  0  0  0999 V2000
    0.6781    0.1498   -0.0159 C   0  0  0  0  0  0  0  0  0  0  0  0
    0.4942    0.2697   -1.5089 C   0  0  0  0  0  0  0  0  0  0  0  0
    4.2745    0.6842    0.4019 C   0  0  0  0  0  0  0  0  0  0  0  0
    3.5368   -0.2537   -0.3136 C   0  0  0  0  0  0  0  0  0  0  0  0
    5.2713    1.3898   -0.2493 C   0  0  0  0  0  0  0  0  0  0  0  0
    4.5789    0.4194   -2.3499 C   0  0  0  0  0  0  0  0  0  0  0  0
    3.5253   -0.2335   -1.7035 C   0  0  0  0  0  0  0  0  0  0  0  0
    5.5129    1.1616   -1.6072 C   0  0  0  0  0  0  0  0  0  0  0  0
    2.4949   -0.9840   -2.4653 C   0  0  0  0  0  0  0  0  0  0  0  0
    6.5448    1.8575   -2.2398 N   0  0  0  0  0  0  0  0  0  0  0  0
    2.8765   -1.7923   -3.3208 O   0  0  0  0  0  0  0  0  0  0  0  0
    1.1659   -0.8075   -2.2280 O   0  0  0  0  0  0  0  0  0  0  0  0
    0.7213   -0.8992    0.3011 H   0  0  0  0  0  0  0  0  0  0  0  0
   -0.0143    0.7080    0.6115 H   0  0  0  0  0  0  0  0  0  0  0  0
    1.6045    0.6577    0.2093 H   0  0  0  0  0  0  0  0  0  0  0  0
   -0.5781    0.1836   -1.7280 H   0  0  0  0  0  0  0  0  0  0  0  0
    0.8388    1.2361   -1.8866 H   0  0  0  0  0  0  0  0  0  0  0  0
    4.0651    0.8585    1.4549 H   0  0  0  0  0  0  0  0  0  0  0  0
    2.8890   -0.9325    0.2289 H   0  0  0  0  0  0  0  0  0  0  0  0
    5.8958    2.0675    0.3267 H   0  0  0  0  0  0  0  0  0  0  0  0
    4.6971    0.3084   -3.4250 H   0  0  0  0  0  0  0  0  0  0  0  0
    6.8601    1.4649   -3.1214 H   0  0  0  0  0  0  0  0  0  0  0  0
    7.3065    2.1413   -1.6286 H   0  0  0  0  0  0  0  0  0  0  0  0
  1 13  1  0  0  0  0
  1 14  1  0  0  0  0
  1 15  1  0  0  0  0
  2  1  1  0  0  0  0
  2 16  1  0  0  0  0
  2 17  1  0  0  0  0
  3 18  1  0  0  0  0
  4  3  2  0  0  0  0
  4 19  1  0  0  0  0
  5  3  1  0  0  0  0
  5 20  1  0  0  0  0
  6 21  1  0  0  0  0
  7  4  1  0  0  0  0
  7  6  2  0  0  0  0
  8  5  2  0  0  0  0
  8  6  1  0  0  0  0
  9  7  1  0  0  0  0
 10  8  1  0  0  0  0
 10 22  1  0  0  0  0
 10 23  1  0  0  0  0
 11  9  2  0  0  0  0
 12  2  1  0  0  0  0
 12  9  1  0  0  0  0
M  END
>  <DRUGBANK_ID>
DB11552

>  <COMMON_NAME>
Tricaine

>  <CAS_NUMBER>
582-33-2

>  <UNII>
02591PHL19

>  <SYNONYMS>
Tricaine mesylate

$$$$
