
 OpenBabel10282417203D

 48 49  0  0  0  0  0  0  0  0999 V2000
    0.9661   -0.0205    0.0258 C   0  0  0  0  0  0  0  0  0  0  0  0
    0.5639    1.3695   -0.4848 C   0  0  3  0  0  0  0  0  0  0  0  0
    1.1004    1.5042   -1.9177 C   0  0  0  0  0  0  0  0  0  0  0  0
    0.3929    0.6638   -3.0656 C   0  0  0  0  0  0  0  0  0  0  0  0
   -1.1474    0.5507   -3.2441 C   0  0  0  0  0  0  0  0  0  0  0  0
   -1.7833   -0.6561   -2.8978 C   0  0  0  0  0  0  0  0  0  0  0  0
   -3.1720   -0.7112   -2.7493 C   0  0  0  0  0  0  0  0  0  0  0  0
   -3.9558    0.4219   -2.8923 C   0  0  0  0  0  0  0  0  0  0  0  0
   -3.3631    1.5845   -3.3846 C   0  0  0  0  0  0  0  0  0  0  0  0
   -2.0034    1.5773   -3.6808 C   0  0  0  0  0  0  0  0  0  0  0  0
    1.0312    1.0613   -4.3787 C   0  0  0  0  0  0  0  0  0  0  0  0
    1.0220    2.3964   -4.8111 C   0  0  0  0  0  0  0  0  0  0  0  0
    1.5239    2.7416   -6.0534 C   0  0  0  0  0  0  0  0  0  0  0  0
    2.0904    1.7550   -6.8465 C   0  0  0  0  0  0  0  0  0  0  0  0
    2.1522    0.4319   -6.4068 C   0  0  0  0  0  0  0  0  0  0  0  0
    1.5929    0.0747   -5.1855 C   0  0  0  0  0  0  0  0  0  0  0  0
   -0.8690    1.6141   -0.3181 N   0  0  0  0  0  0  0  0  0  0  0  0
   -1.3930    2.9762   -0.5928 C   0  0  0  0  0  0  0  0  0  0  0  0
   -0.9438    3.6622   -1.8908 C   0  0  0  0  0  0  0  0  0  0  0  0
   -2.9321    2.8890   -0.4919 C   0  0  0  0  0  0  0  0  0  0  0  0
   -0.9232    3.9697    0.4576 C   0  0  0  0  0  0  0  0  0  0  0  0
    0.5911   -0.8213   -0.6180 H   0  0  0  0  0  0  0  0  0  0  0  0
    0.6180   -0.2044    1.0453 H   0  0  0  0  0  0  0  0  0  0  0  0
    2.0624   -0.0969    0.0372 H   0  0  0  0  0  0  0  0  0  0  0  0
    1.0932    2.0765    0.1654 H   0  0  0  0  0  0  0  0  0  0  0  0
    1.2102    2.5658   -2.1542 H   0  0  0  0  0  0  0  0  0  0  0  0
    2.1657    1.2149   -1.8985 H   0  0  0  0  0  0  0  0  0  0  0  0
    0.7330   -0.3566   -2.8416 H   0  0  0  0  0  0  0  0  0  0  0  0
   -1.1913   -1.5434   -2.7113 H   0  0  0  0  0  0  0  0  0  0  0  0
   -3.6427   -1.6481   -2.4472 H   0  0  0  0  0  0  0  0  0  0  0  0
   -4.9986    0.4349   -2.6009 H   0  0  0  0  0  0  0  0  0  0  0  0
   -3.9229    2.5154   -3.4114 H   0  0  0  0  0  0  0  0  0  0  0  0
   -1.6262    2.4973   -4.1363 H   0  0  0  0  0  0  0  0  0  0  0  0
    0.5971    3.1881   -4.2056 H   0  0  0  0  0  0  0  0  0  0  0  0
    1.4593    3.7730   -6.3821 H   0  0  0  0  0  0  0  0  0  0  0  0
    2.4826    2.0207   -7.8226 H   0  0  0  0  0  0  0  0  0  0  0  0
    2.6224   -0.3293   -7.0180 H   0  0  0  0  0  0  0  0  0  0  0  0
    1.5846   -0.9657   -4.8712 H   0  0  0  0  0  0  0  0  0  0  0  0
   -1.3966    0.9217   -0.8541 H   0  0  0  0  0  0  0  0  0  0  0  0
   -0.6451    2.9340   -2.6018 H   0  0  0  0  0  0  0  0  0  0  0  0
   -1.7031    4.2767   -2.3787 H   0  0  0  0  0  0  0  0  0  0  0  0
   -0.0313    4.2589   -1.7817 H   0  0  0  0  0  0  0  0  0  0  0  0
   -3.2671    2.8343    0.5484 H   0  0  0  0  0  0  0  0  0  0  0  0
   -3.4197    3.7486   -0.9646 H   0  0  0  0  0  0  0  0  0  0  0  0
   -3.3427    1.9903   -0.9485 H   0  0  0  0  0  0  0  0  0  0  0  0
   -1.2578    3.6948    1.4556 H   0  0  0  0  0  0  0  0  0  0  0  0
    0.1681    4.0528    0.4467 H   0  0  0  0  0  0  0  0  0  0  0  0
   -1.3235    4.9599    0.2036 H   0  0  0  0  0  0  0  0  0  0  0  0
  1  2  1  0  0  0  0
  1 22  1  0  0  0  0
  1 23  1  0  0  0  0
  1 24  1  0  0  0  0
  2  3  1  0  0  0  0
  2 17  1  0  0  0  0
  2 25  1  0  0  0  0
  3  4  1  0  0  0  0
  3 26  1  0  0  0  0
  3 27  1  0  0  0  0
  4  5  1  0  0  0  0
  4 11  1  0  0  0  0
  4 28  1  0  0  0  0
  5  6  2  0  0  0  0
  5 10  1  0  0  0  0
  6  7  1  0  0  0  0
  6 29  1  0  0  0  0
  7  8  2  0  0  0  0
  7 30  1  0  0  0  0
  8  9  1  0  0  0  0
  8 31  1  0  0  0  0
  9 10  2  0  0  0  0
  9 32  1  0  0  0  0
 10 33  1  0  0  0  0
 11 12  2  0  0  0  0
 11 16  1  0  0  0  0
 12 13  1  0  0  0  0
 12 34  1  0  0  0  0
 13 14  2  0  0  0  0
 13 35  1  0  0  0  0
 14 15  1  0  0  0  0
 14 36  1  0  0  0  0
 15 16  2  0  0  0  0
 15 37  1  0  0  0  0
 16 38  1  0  0  0  0
 17 18  1  0  0  0  0
 17 39  1  0  0  0  0
 18 19  1  0  0  0  0
 18 20  1  0  0  0  0
 18 21  1  0  0  0  0
 19 40  1  0  0  0  0
 19 41  1  0  0  0  0
 19 42  1  0  0  0  0
 20 43  1  0  0  0  0
 20 44  1  0  0  0  0
 20 45  1  0  0  0  0
 21 46  1  0  0  0  0
 21 47  1  0  0  0  0
 21 48  1  0  0  0  0
M  END
>  <DRUGBANK_ID>
DB13725

>  <COMMON_NAME>
Terodiline

>  <CAS_NUMBER>
15793-40-5

>  <UNII>
70KG06964W

>  <SYNONYMS>
Terodiline

$$$$
