
 OpenBabel10282417153D

 50 52  0  0  0  0  0  0  0  0999 V2000
   -1.6186   -0.0218   -0.2242 C   0  0  0  0  0  0  0  0  0  0  0  0
   -0.8632    1.2523    0.1233 C   0  0  0  0  0  0  0  0  0  0  0  0
    0.5066    1.1982   -0.5240 C   0  0  0  0  0  0  0  0  0  0  0  0
    1.2404   -0.0470   -0.2226 N   0  0  0  0  0  0  0  0  0  0  0  0
    0.5450   -1.2912   -0.6339 C   0  0  2  0  0  0  0  0  0  0  0  0
   -0.8201   -1.2914    0.2001 C   0  0  1  0  0  0  0  0  0  0  0  0
   -0.8224   -1.2089    1.6932 N   0  0  0  0  0  0  0  0  0  0  0  0
    1.3786   -2.6179   -0.7265 C   0  0  0  0  0  0  0  0  0  0  0  0
   -0.1669   -2.2898    2.3962 C   0  0  0  0  0  0  0  0  0  0  0  0
    1.3476   -2.2874    2.4579 C   0  0  0  0  0  0  0  0  0  0  0  0
    0.8674   -3.8712   -0.9257 C   0  0  0  0  0  0  0  0  0  0  0  0
    2.7631   -2.6636   -0.4631 C   0  0  0  0  0  0  0  0  0  0  0  0
    3.5917   -3.8098   -0.3861 C   0  0  0  0  0  0  0  0  0  0  0  0
    2.9723   -5.0032   -0.2844 C   0  0  0  0  0  0  0  0  0  0  0  0
    1.6141   -5.0617   -0.6554 C   0  0  0  0  0  0  0  0  0  0  0  0
    3.4737   -0.9216    2.1308 C   0  0  0  0  0  0  0  0  0  0  0  0
    2.0843   -1.0270    2.3604 C   0  0  0  0  0  0  0  0  0  0  0  0
    2.0628   -3.4913    2.5092 C   0  0  0  0  0  0  0  0  0  0  0  0
    3.5004   -3.3689    2.4779 C   0  0  0  0  0  0  0  0  0  0  0  0
    4.1822   -2.1227    2.1890 C   0  0  0  0  0  0  0  0  0  0  0  0
    4.1418    0.1391    1.5392 O   0  0  0  0  0  0  0  0  0  0  0  0
    1.5355   -4.7817    2.3927 O   0  0  0  0  0  0  0  0  0  0  0  0
    0.1753   -5.1359    1.9960 C   0  0  0  0  0  0  0  0  0  0  0  0
    3.5350    1.4315    1.4903 C   0  0  0  0  0  0  0  0  0  0  0  0
    2.9016    1.6230    0.3231 F   0  0  0  0  0  0  0  0  0  0  0  0
    2.7055    1.6374    2.5290 F   0  0  0  0  0  0  0  0  0  0  0  0
    4.4827    2.4000    1.5190 F   0  0  0  0  0  0  0  0  0  0  0  0
   -2.6084    0.0030    0.2435 H   0  0  0  0  0  0  0  0  0  0  0  0
   -1.7741   -0.0361   -1.3095 H   0  0  0  0  0  0  0  0  0  0  0  0
   -1.4029    2.1416   -0.2209 H   0  0  0  0  0  0  0  0  0  0  0  0
   -0.7602    1.3865    1.2090 H   0  0  0  0  0  0  0  0  0  0  0  0
    0.4467    1.3374   -1.6073 H   0  0  0  0  0  0  0  0  0  0  0  0
    1.0114    2.0921   -0.1422 H   0  0  0  0  0  0  0  0  0  0  0  0
    2.1850    0.0035   -0.5990 H   0  0  0  0  0  0  0  0  0  0  0  0
    0.2957   -1.1442   -1.6910 H   0  0  0  0  0  0  0  0  0  0  0  0
   -1.4134   -2.1557   -0.1146 H   0  0  0  0  0  0  0  0  0  0  0  0
   -0.4568   -0.3324    2.0363 H   0  0  0  0  0  0  0  0  0  0  0  0
   -0.5457   -2.3995    3.4185 H   0  0  0  0  0  0  0  0  0  0  0  0
   -0.5881   -3.1177    1.8649 H   0  0  0  0  0  0  0  0  0  0  0  0
   -0.2118   -3.9775   -1.0710 H   0  0  0  0  0  0  0  0  0  0  0  0
    3.0054   -1.9159    0.2373 H   0  0  0  0  0  0  0  0  0  0  0  0
    4.6088   -3.7200    0.0377 H   0  0  0  0  0  0  0  0  0  0  0  0
    3.4199   -5.8139    0.3009 H   0  0  0  0  0  0  0  0  0  0  0  0
    1.1147   -6.0046   -0.5251 H   0  0  0  0  0  0  0  0  0  0  0  0
    1.4879   -0.1360    2.2060 H   0  0  0  0  0  0  0  0  0  0  0  0
    4.1061   -4.2754    2.3794 H   0  0  0  0  0  0  0  0  0  0  0  0
    5.1574   -2.1466    1.6701 H   0  0  0  0  0  0  0  0  0  0  0  0
   -0.5395   -4.9513    2.8022 H   0  0  0  0  0  0  0  0  0  0  0  0
   -0.2018   -4.6682    1.0779 H   0  0  0  0  0  0  0  0  0  0  0  0
    0.0887   -6.2021    1.7345 H   0  0  0  0  0  0  0  0  0  0  0  0
  1  2  1  0  0  0  0
  1  6  1  0  0  0  0
  1 28  1  0  0  0  0
  1 29  1  0  0  0  0
  2  3  1  0  0  0  0
  2 30  1  0  0  0  0
  2 31  1  0  0  0  0
  3  4  1  0  0  0  0
  3 32  1  0  0  0  0
  3 33  1  0  0  0  0
  4  5  1  0  0  0  0
  4 34  1  0  0  0  0
  5  6  1  0  0  0  0
  5  8  1  0  0  0  0
  5 35  1  6  0  0  0
  6  7  1  0  0  0  0
  6 36  1  6  0  0  0
  7  9  1  0  0  0  0
  7 37  1  0  0  0  0
  8 12  2  0  0  0  0
  9 10  1  0  0  0  0
  9 38  1  0  0  0  0
  9 39  1  0  0  0  0
 10 18  1  0  0  0  0
 11  8  1  0  0  0  0
 11 15  2  0  0  0  0
 11 40  1  0  0  0  0
 12 13  1  0  0  0  0
 12 41  1  0  0  0  0
 13 14  2  0  0  0  0
 13 42  1  0  0  0  0
 14 15  1  0  0  0  0
 14 43  1  0  0  0  0
 15 44  1  0  0  0  0
 16 17  1  0  0  0  0
 16 20  2  0  0  0  0
 16 21  1  0  0  0  0
 17 10  2  0  0  0  0
 17 45  1  0  0  0  0
 18 19  2  0  0  0  0
 18 22  1  0  0  0  0
 19 20  1  0  0  0  0
 19 46  1  0  0  0  0
 20 47  1  0  0  0  0
 21 24  1  0  0  0  0
 22 23  1  0  0  0  0
 23 48  1  0  0  0  0
 23 49  1  0  0  0  0
 23 50  1  0  0  0  0
 24 25  1  0  0  0  0
 24 26  1  0  0  0  0
 24 27  1  0  0  0  0
M  END
>  <DRUGBANK_ID>
DB05421

>  <COMMON_NAME>
CP-122721

>  <CAS_NUMBER>
145742-28-5

>  <UNII>
R7OYP6N58F

$$$$
