
 OpenBabel10282417123D

 29 29  0  0  1  0  0  0  0  0999 V2000
    1.0819    0.0692    0.4467 N   0  0  0  0  0  0  0  0  0  0  0  0
    0.3928    1.3504    0.1623 C   0  0  1  0  0  0  0  0  0  0  0  0
    0.8364    2.0414   -1.1589 C   0  0  0  0  0  0  0  0  0  0  0  0
    0.4131    1.4075   -2.5107 C   0  0  0  0  0  0  0  0  0  0  0  0
   -1.0218    1.7777   -2.9256 C   0  0  0  0  0  0  0  0  0  0  0  0
   -1.5155    0.9556   -4.1161 C   0  0  0  0  0  0  0  0  0  0  0  0
   -1.3038   -0.5483   -3.9391 C   0  0  0  0  0  0  0  0  0  0  0  0
    0.1646   -0.8629   -3.6977 C   0  0  0  0  0  0  0  0  0  0  0  0
    0.6140   -0.1058   -2.4768 C   0  0  0  0  0  0  0  0  0  0  0  0
   -1.1463    1.1682    0.2918 C   0  0  0  0  0  0  0  0  0  0  0  0
   -1.7307    1.9841    1.2026 O   0  0  0  0  0  0  0  0  0  0  0  0
   -1.8100    0.3624   -0.3325 O   0  0  0  0  0  0  0  0  0  0  0  0
    0.6546   -0.6848   -0.0957 H   0  0  0  0  0  0  0  0  0  0  0  0
    2.0453    0.1106    0.1161 H   0  0  0  0  0  0  0  0  0  0  0  0
    0.7226    1.9987    0.9794 H   0  0  0  0  0  0  0  0  0  0  0  0
    0.5173    3.0927   -1.1407 H   0  0  0  0  0  0  0  0  0  0  0  0
    1.9379    2.0852   -1.1537 H   0  0  0  0  0  0  0  0  0  0  0  0
    1.0724    1.8229   -3.2885 H   0  0  0  0  0  0  0  0  0  0  0  0
   -1.7352    1.6274   -2.1205 H   0  0  0  0  0  0  0  0  0  0  0  0
   -1.0878    2.8509   -3.1433 H   0  0  0  0  0  0  0  0  0  0  0  0
   -2.5835    1.1494   -4.2593 H   0  0  0  0  0  0  0  0  0  0  0  0
   -0.9889    1.2876   -5.0158 H   0  0  0  0  0  0  0  0  0  0  0  0
   -1.9014   -0.9072   -3.0878 H   0  0  0  0  0  0  0  0  0  0  0  0
   -1.6519   -1.0933   -4.8200 H   0  0  0  0  0  0  0  0  0  0  0  0
    0.2845   -1.9345   -3.4918 H   0  0  0  0  0  0  0  0  0  0  0  0
    0.7859   -0.6125   -4.5607 H   0  0  0  0  0  0  0  0  0  0  0  0
    1.6513   -0.3519   -2.2290 H   0  0  0  0  0  0  0  0  0  0  0  0
   -0.0439   -0.5081   -1.7124 H   0  0  0  0  0  0  0  0  0  0  0  0
   -1.1072    2.3984    1.8234 H   0  0  0  0  0  0  0  0  0  0  0  0
  1 13  1  0  0  0  0
  1 14  1  0  0  0  0
  2  1  1  0  0  0  0
  2  3  1  0  0  0  0
  2 10  1  0  0  0  0
  2 15  1  1  0  0  0
  3  4  1  0  0  0  0
  3 16  1  0  0  0  0
  3 17  1  0  0  0  0
  4  5  1  0  0  0  0
  4  9  1  0  0  0  0
  4 18  1  0  0  0  0
  5  6  1  0  0  0  0
  5 19  1  0  0  0  0
  5 20  1  0  0  0  0
  6  7  1  0  0  0  0
  6 21  1  0  0  0  0
  6 22  1  0  0  0  0
  7  8  1  0  0  0  0
  7 23  1  0  0  0  0
  7 24  1  0  0  0  0
  8  9  1  0  0  0  0
  8 25  1  0  0  0  0
  8 26  1  0  0  0  0
  9 27  1  0  0  0  0
  9 28  1  0  0  0  0
 10 11  1  0  0  0  0
 10 12  2  0  0  0  0
 11 29  1  0  0  0  0
M  END
>  <DRUGBANK_ID>
DB02884

>  <SECONDARY_ACCESSION_NUMBERS>
EXPT01686

>  <COMMON_NAME>
3-Cyclohexyl-L-alanine

>  <CAS_NUMBER>
27527-05-5

>  <UNII>
GYR4SF0FVQ

>  <SYNONYMS>
beta-Cyclohexyl-alanine; beta-Cyclohexyl-L-alanine; Î²-Cyclohexyl-alanine

$$$$
