502
 OpenBabel10282417103D

 49 51  0  0  0  0  0  0  0  0999 V2000
   -2.2027    0.0363   -0.0279 Cl  0  0  0  0  0  0  0  0  0  0  0  0
    5.5908   -5.3811   -3.1499 F   0  0  0  0  0  0  0  0  0  0  0  0
    4.2314    0.6992    1.2277 O   0  0  0  0  0  0  0  0  0  0  0  0
    9.3289   -3.2929    1.6478 O   0  0  0  0  0  0  0  0  0  0  0  0
    6.1724   -0.5833   -1.3475 N   0  0  0  0  0  0  0  0  0  0  0  0
    3.7810    0.0501    0.0258 C   0  0  0  0  0  0  0  0  0  0  0  0
    4.2707    0.8405   -1.2027 C   0  0  0  0  0  0  0  0  0  0  0  0
    4.2745   -1.3882   -0.0044 C   0  0  0  0  0  0  0  0  0  0  0  0
    5.7661    0.7943   -1.3299 C   0  0  0  0  0  0  0  0  0  0  0  0
    5.7335   -1.3760   -0.2095 C   0  0  0  0  0  0  0  0  0  0  0  0
    7.5980   -0.6117   -1.5342 C   0  0  0  0  0  0  0  0  0  0  0  0
    2.2787    0.0302    0.0603 C   0  0  0  0  0  0  0  0  0  0  0  0
    8.5693   -0.2869   -0.4122 C   0  0  0  0  0  0  0  0  0  0  0  0
    1.5922    1.2439    0.0459 C   0  0  0  0  0  0  0  0  0  0  0  0
    1.5542   -1.1776    0.0521 C   0  0  0  0  0  0  0  0  0  0  0  0
    8.4945   -1.1851    0.8275 C   0  0  0  0  0  0  0  0  0  0  0  0
    0.2083    1.2439    0.0041 C   0  0  0  0  0  0  0  0  0  0  0  0
    0.1777   -1.1786    0.0036 C   0  0  0  0  0  0  0  0  0  0  0  0
    8.7404   -2.7292    0.7035 C   0  0  0  0  0  0  0  0  0  0  0  0
   -0.4891    0.0355   -0.0102 C   0  0  0  0  0  0  0  0  0  0  0  0
    8.1538   -3.6578   -0.3650 C   0  0  0  0  0  0  0  0  0  0  0  0
    8.3387   -3.4714   -1.7429 C   0  0  0  0  0  0  0  0  0  0  0  0
    7.2806   -4.6918    0.0113 C   0  0  0  0  0  0  0  0  0  0  0  0
    7.3499   -3.9027   -2.6510 C   0  0  0  0  0  0  0  0  0  0  0  0
    6.4853   -5.3463   -0.9536 C   0  0  0  0  0  0  0  0  0  0  0  0
    6.4574   -4.8782   -2.2606 C   0  0  0  0  0  0  0  0  0  0  0  0
    5.2029    0.7264    1.2377 H   0  0  0  0  0  0  0  0  0  0  0  0
    3.8197    0.4289   -2.1158 H   0  0  0  0  0  0  0  0  0  0  0  0
    4.0122    1.9003   -1.1407 H   0  0  0  0  0  0  0  0  0  0  0  0
    4.0816   -1.8865    0.9609 H   0  0  0  0  0  0  0  0  0  0  0  0
    3.8410   -1.9964   -0.8070 H   0  0  0  0  0  0  0  0  0  0  0  0
    6.0740    1.2718   -2.2685 H   0  0  0  0  0  0  0  0  0  0  0  0
    6.2576    1.3278   -0.5111 H   0  0  0  0  0  0  0  0  0  0  0  0
    6.0238   -2.4188   -0.2739 H   0  0  0  0  0  0  0  0  0  0  0  0
    6.0816   -0.9648    0.7177 H   0  0  0  0  0  0  0  0  0  0  0  0
    7.6692   -1.6320   -1.6793 H   0  0  0  0  0  0  0  0  0  0  0  0
    7.9206   -0.2262   -2.5082 H   0  0  0  0  0  0  0  0  0  0  0  0
    9.5847   -0.3969   -0.8061 H   0  0  0  0  0  0  0  0  0  0  0  0
    8.4568    0.7731   -0.1448 H   0  0  0  0  0  0  0  0  0  0  0  0
    2.1432    2.1829    0.0585 H   0  0  0  0  0  0  0  0  0  0  0  0
    2.0319   -2.1541    0.0693 H   0  0  0  0  0  0  0  0  0  0  0  0
    9.2428   -0.7837    1.5253 H   0  0  0  0  0  0  0  0  0  0  0  0
    7.6114   -1.0007    1.4417 H   0  0  0  0  0  0  0  0  0  0  0  0
   -0.3135    2.1923   -0.0176 H   0  0  0  0  0  0  0  0  0  0  0  0
   -0.3406   -2.1308   -0.0227 H   0  0  0  0  0  0  0  0  0  0  0  0
    9.0759   -2.7569   -2.1091 H   0  0  0  0  0  0  0  0  0  0  0  0
    7.1817   -4.9734    1.0566 H   0  0  0  0  0  0  0  0  0  0  0  0
    7.2293   -3.4246   -3.6240 H   0  0  0  0  0  0  0  0  0  0  0  0
    5.8446   -6.1804   -0.6872 H   0  0  0  0  0  0  0  0  0  0  0  0
  1 20  1  0  0  0  0
  2 26  1  0  0  0  0
  3  6  1  0  0  0  0
  3 27  1  0  0  0  0
  4 19  2  0  0  0  0
  5  9  1  0  0  0  0
  5 10  1  0  0  0  0
  5 11  1  0  0  0  0
  6  7  1  0  0  0  0
  6  8  1  0  0  0  0
  6 12  1  0  0  0  0
  7  9  1  0  0  0  0
  7 28  1  0  0  0  0
  7 29  1  0  0  0  0
  8 10  1  0  0  0  0
  8 30  1  0  0  0  0
  8 31  1  0  0  0  0
  9 32  1  0  0  0  0
  9 33  1  0  0  0  0
 10 34  1  0  0  0  0
 10 35  1  0  0  0  0
 11 13  1  0  0  0  0
 11 36  1  0  0  0  0
 11 37  1  0  0  0  0
 12 14  2  0  0  0  0
 12 15  1  0  0  0  0
 13 16  1  0  0  0  0
 13 38  1  0  0  0  0
 13 39  1  0  0  0  0
 14 17  1  0  0  0  0
 14 40  1  0  0  0  0
 15 18  2  0  0  0  0
 15 41  1  0  0  0  0
 16 19  1  0  0  0  0
 16 42  1  0  0  0  0
 16 43  1  0  0  0  0
 17 20  2  0  0  0  0
 17 44  1  0  0  0  0
 18 20  1  0  0  0  0
 18 45  1  0  0  0  0
 19 21  1  0  0  0  0
 21 22  2  0  0  0  0
 21 23  1  0  0  0  0
 22 24  1  0  0  0  0
 22 46  1  0  0  0  0
 23 25  2  0  0  0  0
 23 47  1  0  0  0  0
 24 26  2  0  0  0  0
 24 48  1  0  0  0  0
 25 26  1  0  0  0  0
 25 49  1  0  0  0  0
M  END
>  <DRUGBANK_ID>
DB00502

>  <SECONDARY_ACCESSION_NUMBERS>
APRD00538

>  <COMMON_NAME>
Haloperidol

>  <CAS_NUMBER>
52-86-8

>  <UNII>
J6292F8L3D

>  <SYNONYMS>
1-(3-p-fluorobenzoylpropyl)-4-p-chlorophenyl-4-hydroxypiperidine; 4-(4-(para-chlorophenyl)-4-hydroxypiperidino)-4'-fluorobutyrophenone; 4-[4-(4-chlorophenyl)-4-hydroxy-1-piperidyl]-1-(4-fluorophenyl)-butan-1-one; 4'-fluoro-4-(4-(p-chlorophenyl)-4-hydroxypiperidinyl)butyrophenone; 4'-fluoro-4-(4-hydroxy-4-(4'-chlorophenyl)piperidino)butyrophenone; Haloperidol; Haloperidolum; Î³-(4-(p-chlorophenyl)-4-hydroxpiperidino)-p-fluorbutyrophenone

$$$$
