
 OpenBabel10282417173D

 20 20  0  0  0  0  0  0  0  0999 V2000
    0.8099   -0.0933   -0.0764 O   0  0  0  0  0  0  0  0  0  0  0  0
    0.3135    1.1392    0.1431 C   0  0  0  0  0  0  0  0  0  0  0  0
    1.0958    2.0668    0.2856 O   0  0  0  0  0  0  0  0  0  0  0  0
   -1.2045    1.1793    0.1438 C   0  0  3  0  0  0  0  0  0  0  0  0
   -1.7367    1.5513    1.5295 C   0  0  0  0  0  0  0  0  0  0  0  0
   -1.3971    2.9267    1.8918 N   0  0  0  0  0  0  0  0  0  0  0  0
   -1.9387    3.8843    0.9288 C   0  0  0  0  0  0  0  0  0  0  0  0
   -1.4600    3.6074   -0.4981 C   0  0  0  0  0  0  0  0  0  0  0  0
   -1.7298    2.1598   -0.9098 C   0  0  0  0  0  0  0  0  0  0  0  0
    1.7784    0.0706   -0.0564 H   0  0  0  0  0  0  0  0  0  0  0  0
   -1.5689    0.1748   -0.1119 H   0  0  0  0  0  0  0  0  0  0  0  0
   -2.8294    1.4381    1.5506 H   0  0  0  0  0  0  0  0  0  0  0  0
   -1.3352    0.8669    2.2848 H   0  0  0  0  0  0  0  0  0  0  0  0
   -1.7191    3.1441    2.8327 H   0  0  0  0  0  0  0  0  0  0  0  0
   -1.6281    4.8933    1.2191 H   0  0  0  0  0  0  0  0  0  0  0  0
   -3.0337    3.8579    0.9644 H   0  0  0  0  0  0  0  0  0  0  0  0
   -0.3877    3.8197   -0.5766 H   0  0  0  0  0  0  0  0  0  0  0  0
   -1.9554    4.2899   -1.1969 H   0  0  0  0  0  0  0  0  0  0  0  0
   -1.2844    1.9559   -1.8900 H   0  0  0  0  0  0  0  0  0  0  0  0
   -2.8148    2.0239   -1.0180 H   0  0  0  0  0  0  0  0  0  0  0  0
  1  2  1  0  0  0  0
  1 10  1  0  0  0  0
  2  3  2  0  0  0  0
  2  4  1  0  0  0  0
  4  5  1  0  0  0  0
  4 11  1  0  0  0  0
  5  6  1  0  0  0  0
  5 12  1  0  0  0  0
  5 13  1  0  0  0  0
  6  7  1  0  0  0  0
  6 14  1  0  0  0  0
  7  8  1  0  0  0  0
  7 15  1  0  0  0  0
  7 16  1  0  0  0  0
  8  9  1  0  0  0  0
  8 17  1  0  0  0  0
  8 18  1  0  0  0  0
  9  4  1  0  0  0  0
  9 19  1  0  0  0  0
  9 20  1  0  0  0  0
M  END
>  <DRUGBANK_ID>
DB08849

>  <COMMON_NAME>
Nipecotic acid

>  <CAS_NUMBER>
498-95-3

>  <UNII>
1U1QTN40SY

$$$$
