
 OpenBabel10282417133D

 36 37  0  0  0  0  0  0  0  0999 V2000
    0.8387   -1.2922   -0.0337 N   0  0  0  0  0  0  0  0  0  0  0  0
   -0.4061   -0.7648   -0.0453 C   0  0  0  0  0  0  0  0  0  0  0  0
   -1.5389   -1.7512    0.0014 C   0  0  0  0  0  0  0  0  0  0  0  0
   -0.6316    0.6147   -0.0691 C   0  0  0  0  0  0  0  0  0  0  0  0
   -1.9380    1.0220   -0.0788 O   0  0  0  0  0  0  0  0  0  0  0  0
    0.4601    1.5057   -0.0259 C   0  0  0  0  0  0  0  0  0  0  0  0
    0.2634    3.0043    0.0369 C   0  0  0  0  0  0  0  0  0  0  0  0
    1.7620    0.9541   -0.0213 C   0  0  0  0  0  0  0  0  0  0  0  0
    1.8836   -0.4373   -0.0306 C   0  0  0  0  0  0  0  0  0  0  0  0
    3.0177    1.7909    0.0522 C   0  0  0  0  0  0  0  0  0  0  0  0
    3.7437    1.5233    1.2464 O   0  0  0  0  0  0  0  0  0  0  0  0
    2.7632    1.8082    2.6429 P   0  0  0  0  0  0  0  0  0  0  0  0
    3.0543    0.4021    3.1492 O   0  0  0  0  0  0  0  0  0  0  0  0
    3.8865    2.8305    3.2062 O   0  0  0  0  0  0  0  0  0  0  0  0
    1.7826    2.0930    4.0394 O   0  0  0  0  0  0  0  0  0  0  0  0
    0.7468    3.6767    1.2509 N   0  0  0  0  0  0  0  0  0  0  0  0
    0.1648    3.4157    2.3748 C   0  0  0  0  0  0  0  0  0  0  0  0
    0.4853    4.1373    3.6637 C   0  0  0  0  0  0  0  0  0  0  0  0
    1.4421    4.8368    3.8535 O   0  0  0  0  0  0  0  0  0  0  0  0
   -0.4255    3.6413    4.5688 N   0  0  0  0  0  0  0  0  0  0  0  0
   -1.2341    2.6025    4.0255 O   0  0  0  0  0  0  0  0  0  0  0  0
   -0.7611    2.2885    2.7114 C   0  0  0  0  0  0  0  0  0  0  0  0
   -1.5038   -2.3949   -0.8817 H   0  0  0  0  0  0  0  0  0  0  0  0
   -1.4558   -2.3708    0.9004 H   0  0  0  0  0  0  0  0  0  0  0  0
   -2.5216   -1.2709    0.0272 H   0  0  0  0  0  0  0  0  0  0  0  0
   -2.0456    1.9792   -0.1522 H   0  0  0  0  0  0  0  0  0  0  0  0
    0.7700    3.4408   -0.8330 H   0  0  0  0  0  0  0  0  0  0  0  0
   -0.7776    3.3009   -0.0960 H   0  0  0  0  0  0  0  0  0  0  0  0
    2.8592   -0.9222   -0.0042 H   0  0  0  0  0  0  0  0  0  0  0  0
    3.6589    1.5732   -0.8080 H   0  0  0  0  0  0  0  0  0  0  0  0
    2.8185    2.8633    0.0210 H   0  0  0  0  0  0  0  0  0  0  0  0
    4.6422    2.8738    2.5960 H   0  0  0  0  0  0  0  0  0  0  0  0
    0.9518    1.6256    4.2011 H   0  0  0  0  0  0  0  0  0  0  0  0
   -0.1521    3.5586    5.5452 H   0  0  0  0  0  0  0  0  0  0  0  0
   -1.5868    2.1734    2.0240 H   0  0  0  0  0  0  0  0  0  0  0  0
   -0.2184    1.3346    2.7679 H   0  0  0  0  0  0  0  0  0  0  0  0
  1  2  2  0  0  0  0
  1  9  1  0  0  0  0
  2  3  1  0  0  0  0
  2  4  1  0  0  0  0
  3 23  1  0  0  0  0
  3 24  1  0  0  0  0
  3 25  1  0  0  0  0
  4  5  1  0  0  0  0
  4  6  2  0  0  0  0
  5 26  1  0  0  0  0
  6  7  1  0  0  0  0
  6  8  1  0  0  0  0
  7 16  1  0  0  0  0
  7 27  1  0  0  0  0
  7 28  1  0  0  0  0
  8  9  2  0  0  0  0
  8 10  1  0  0  0  0
  9 29  1  0  0  0  0
 10 11  1  0  0  0  0
 10 30  1  0  0  0  0
 10 31  1  0  0  0  0
 11 12  1  0  0  0  0
 12 13  2  0  0  0  0
 12 14  1  0  0  0  0
 12 15  1  0  0  0  0
 14 32  1  0  0  0  0
 15 33  1  0  0  0  0
 16 17  2  0  0  0  0
 17 18  1  0  0  0  0
 17 22  1  0  0  0  0
 18 19  2  0  0  0  0
 18 20  1  0  0  0  0
 20 21  1  0  0  0  0
 20 34  1  0  0  0  0
 21 22  1  0  0  0  0
 22 35  1  0  0  0  0
 22 36  1  0  0  0  0
M  END
>  <DRUGBANK_ID>
DB03787

>  <SECONDARY_ACCESSION_NUMBERS>
EXPT02011

>  <COMMON_NAME>
(5-Hydroxy-6-methyl-4-{[(E)-(3-oxo-1,2-oxazolidin-4-ylidene)amino]methyl}-3-pyridinyl)methyl dihydrogen phosphate

$$$$
