
 OpenBabel10282417143D

 53 55  0  0  1  0  0  0  0  0999 V2000
    4.6540    0.3831   -1.0581 O   0  0  0  0  0  0  0  0  0  0  0  0
    4.6313   -0.9461   -0.4761 C   0  0  2  0  0  0  0  0  0  0  0  0
    5.1025   -1.9581   -1.5035 C   0  0  0  0  0  0  0  0  0  0  0  0
    4.7434   -3.3003   -1.1801 O   0  0  0  0  0  0  0  0  0  0  0  0
    3.3336   -3.5277   -1.1090 C   0  0  2  0  0  0  0  0  0  0  0  0
    2.4456   -3.4509   -2.7761 S   0  0  0  0  0  0  0  0  0  0  0  0
    1.8687   -1.6649   -3.1259 C   0  0  0  0  0  0  0  0  0  0  0  0
    0.5393   -1.1129   -2.4514 C   0  0  1  0  0  0  0  0  0  0  0  0
   -0.2710   -2.2516   -2.2013 O   0  0  0  0  0  0  0  0  0  0  0  0
   -1.4573   -1.9834   -1.4643 C   0  0  1  0  0  0  0  0  0  0  0  0
   -2.2885   -3.1574   -1.4596 O   0  0  0  0  0  0  0  0  0  0  0  0
   -1.7865   -4.2976   -0.8876 C   0  0  0  0  0  0  0  0  0  0  0  0
   -1.5546   -4.4148    0.4860 C   0  0  0  0  0  0  0  0  0  0  0  0
   -1.1715   -5.6257    1.0570 C   0  0  0  0  0  0  0  0  0  0  0  0
   -1.1444   -6.7681    0.2679 C   0  0  0  0  0  0  0  0  0  0  0  0
   -1.4658   -6.6937   -1.0976 C   0  0  0  0  0  0  0  0  0  0  0  0
   -1.7282   -5.4442   -1.6799 C   0  0  0  0  0  0  0  0  0  0  0  0
   -0.7828   -8.0606    0.8603 N   0  3  0  0  0  0  0  0  0  0  0  0
   -0.8129   -9.0558    0.1583 O   0  5  0  0  0  0  0  0  0  0  0  0
   -0.4456   -8.0507    2.0739 O   0  0  0  0  0  0  0  0  0  0  0  0
   -1.2075   -1.3938   -0.0596 C   0  0  2  0  0  0  0  0  0  0  0  0
   -2.4120   -1.1429    0.6617 O   0  0  0  0  0  0  0  0  0  0  0  0
   -0.3501   -0.1341   -0.0856 C   0  0  1  0  0  0  0  0  0  0  0  0
    0.2331   -0.0211    1.2551 O   0  0  0  0  0  0  0  0  0  0  0  0
    0.7198   -0.2864   -1.1689 C   0  0  2  0  0  0  0  0  0  0  0  0
    1.5631    0.8252   -1.4341 O   0  0  0  0  0  0  0  0  0  0  0  0
    2.7226   -2.7275    0.0312 C   0  0  2  0  0  0  0  0  0  0  0  0
    1.3036   -2.9772    0.0188 O   0  0  0  0  0  0  0  0  0  0  0  0
    3.2104   -1.2677   -0.1427 C   0  0  1  0  0  0  0  0  0  0  0  0
    2.7881   -0.2943    0.8108 O   0  0  0  0  0  0  0  0  0  0  0  0
    3.8645    0.8609   -0.7097 H   0  0  0  0  0  0  0  0  0  0  0  0
    5.2043   -0.9056    0.4477 H   0  0  0  0  0  0  0  0  0  0  0  0
    6.1857   -1.8860   -1.5786 H   0  0  0  0  0  0  0  0  0  0  0  0
    4.7177   -1.7255   -2.5021 H   0  0  0  0  0  0  0  0  0  0  0  0
    3.2029   -4.5829   -0.8302 H   0  0  0  0  0  0  0  0  0  0  0  0
    2.7137   -0.9679   -3.1210 H   0  0  0  0  0  0  0  0  0  0  0  0
    1.6234   -1.7406   -4.1962 H   0  0  0  0  0  0  0  0  0  0  0  0
    0.0691   -0.4415   -3.1794 H   0  0  0  0  0  0  0  0  0  0  0  0
   -2.0154   -1.2252   -2.0235 H   0  0  0  0  0  0  0  0  0  0  0  0
   -1.7030   -3.5883    1.1688 H   0  0  0  0  0  0  0  0  0  0  0  0
   -0.9481   -5.6542    2.1229 H   0  0  0  0  0  0  0  0  0  0  0  0
   -1.5344   -7.5896   -1.7079 H   0  0  0  0  0  0  0  0  0  0  0  0
   -1.9202   -5.3789   -2.7488 H   0  0  0  0  0  0  0  0  0  0  0  0
   -0.6628   -2.1124    0.5465 H   0  0  0  0  0  0  0  0  0  0  0  0
   -2.7647   -0.2942    0.3511 H   0  0  0  0  0  0  0  0  0  0  0  0
   -0.8967    0.7970   -0.1961 H   0  0  0  0  0  0  0  0  0  0  0  0
    0.5411   -0.9091    1.5395 H   0  0  0  0  0  0  0  0  0  0  0  0
    1.2249   -0.9986   -0.5882 H   0  0  0  0  0  0  0  0  0  0  0  0
    1.2148    1.6280   -1.0170 H   0  0  0  0  0  0  0  0  0  0  0  0
    3.0267   -3.0494    1.0279 H   0  0  0  0  0  0  0  0  0  0  0  0
    1.0237   -3.2046   -0.9057 H   0  0  0  0  0  0  0  0  0  0  0  0
    2.8260   -0.9825   -1.1032 H   0  0  0  0  0  0  0  0  0  0  0  0
    2.5741   -0.6898    1.6668 H   0  0  0  0  0  0  0  0  0  0  0  0
  1 31  1  0  0  0  0
  2  1  1  0  0  0  0
  2  3  1  0  0  0  0
  2 29  1  0  0  0  0
  2 32  1  1  0  0  0
  3  4  1  0  0  0  0
  3 33  1  0  0  0  0
  3 34  1  0  0  0  0
  4  5  1  0  0  0  0
  5 27  1  0  0  0  0
  5 35  1  1  0  0  0
  5  6  1  0  0  0  0
  6  7  1  0  0  0  0
  7 36  1  0  0  0  0
  7 37  1  0  0  0  0
  8  9  1  0  0  0  0
  8 25  1  0  0  0  0
  8 38  1  6  0  0  0
  8  7  1  0  0  0  0
  9 10  1  0  0  0  0
 10 11  1  0  0  0  0
 10 21  1  0  0  0  0
 10 39  1  6  0  0  0
 11 12  1  0  0  0  0
 12 13  2  0  0  0  0
 12 17  1  0  0  0  0
 13 14  1  0  0  0  0
 13 40  1  0  0  0  0
 14 15  2  0  0  0  0
 14 41  1  0  0  0  0
 15 16  1  0  0  0  0
 15 18  1  0  0  0  0
 16 17  2  0  0  0  0
 16 42  1  0  0  0  0
 17 43  1  0  0  0  0
 18 19  1  0  0  0  0
 18 20  2  0  0  0  0
 21 22  1  0  0  0  0
 21 23  1  0  0  0  0
 21 44  1  1  0  0  0
 22 45  1  0  0  0  0
 23 24  1  0  0  0  0
 23 25  1  0  0  0  0
 23 46  1  6  0  0  0
 24 47  1  0  0  0  0
 25 26  1  0  0  0  0
 25 48  1  1  0  0  0
 26 49  1  0  0  0  0
 27 28  1  0  0  0  0
 27 29  1  0  0  0  0
 27 50  1  1  0  0  0
 28 51  1  0  0  0  0
 29 30  1  0  0  0  0
 29 52  1  6  0  0  0
 30 53  1  0  0  0  0
M  CHG  2  18   1  19  -1
M  END
>  <DRUGBANK_ID>
DB04807

>  <COMMON_NAME>
4-NITROPHENYL-(6-S-ALPHA-D-XYLOPYRANOSYL)-BETA-D-GLUCOPYRANOSIDE

$$$$
