
 OpenBabel10282417133D

 17 16  0  0  1  0  0  0  0  0999 V2000
    0.9507   -0.0026    0.0548 C   0  0  0  0  0  0  0  0  0  0  0  0
    0.4029   -1.4202   -0.1056 C   0  0  1  0  0  0  0  0  0  0  0  0
    0.8771   -2.1728    1.0166 O   0  0  0  0  0  0  0  0  0  0  0  0
   -1.1417   -1.4429   -0.1279 C   0  0  1  0  0  0  0  0  0  0  0  0
   -1.6841   -0.5962   -1.2137 N   0  0  0  0  0  0  0  0  0  0  0  0
   -1.6154   -2.8967   -0.3327 C   0  0  0  0  0  0  0  0  0  0  0  0
   -2.4110   -3.3762    0.6569 O   0  0  0  0  0  0  0  0  0  0  0  0
   -1.3572   -3.5781   -1.3198 O   0  0  0  0  0  0  0  0  0  0  0  0
    0.6024    0.4356    0.9973 H   0  0  0  0  0  0  0  0  0  0  0  0
    0.6551    0.6541   -0.7673 H   0  0  0  0  0  0  0  0  0  0  0  0
    2.0445   -0.0130    0.0954 H   0  0  0  0  0  0  0  0  0  0  0  0
    0.8057   -1.8750   -1.0191 H   0  0  0  0  0  0  0  0  0  0  0  0
    1.8456   -2.2398    0.9211 H   0  0  0  0  0  0  0  0  0  0  0  0
   -1.5247   -1.0741    0.8317 H   0  0  0  0  0  0  0  0  0  0  0  0
   -2.7011   -0.6134   -1.2128 H   0  0  0  0  0  0  0  0  0  0  0  0
   -1.3931    0.3714   -1.1022 H   0  0  0  0  0  0  0  0  0  0  0  0
   -2.5289   -2.7856    1.4231 H   0  0  0  0  0  0  0  0  0  0  0  0
  1  2  1  0  0  0  0
  1  9  1  0  0  0  0
  1 10  1  0  0  0  0
  1 11  1  0  0  0  0
  2  3  1  0  0  0  0
  2  4  1  0  0  0  0
  2 12  1  6  0  0  0
  3 13  1  0  0  0  0
  4  5  1  0  0  0  0
  4  6  1  0  0  0  0
  4 14  1  1  0  0  0
  5 15  1  0  0  0  0
  5 16  1  0  0  0  0
  6  7  1  0  0  0  0
  6  8  2  0  0  0  0
  7 17  1  0  0  0  0
M  END
>  <DRUGBANK_ID>
DB03700

>  <SECONDARY_ACCESSION_NUMBERS>
EXPT01284

>  <COMMON_NAME>
D-Threonine

>  <CAS_NUMBER>
632-20-2

>  <UNII>
0756UWA0SA

$$$$
