
 OpenBabel10282417123D

 15 14  0  0  0  0  0  0  0  0999 V2000
    0.7763    0.0189   -0.0014 O   0  0  0  0  0  0  0  0  0  0  0  0
    0.1948    0.4230   -1.1311 C   0  0  0  0  0  0  0  0  0  0  0  0
    0.8079    0.7921   -2.1217 O   0  0  0  0  0  0  0  0  0  0  0  0
   -1.3419    0.4098   -1.0814 C   0  0  0  0  0  0  0  0  0  0  0  0
   -1.9326    0.0698   -0.0639 O   0  0  0  0  0  0  0  0  0  0  0  0
   -2.0616    0.8214   -2.3381 C   0  0  0  0  0  0  0  0  0  0  0  0
   -1.6195    2.5466   -2.7591 P   0  0  0  0  0  0  0  0  0  0  0  0
   -2.2619    2.1556   -4.2189 O   0  0  0  0  0  0  0  0  0  0  0  0
   -2.9966    2.9889   -1.9688 O   0  0  0  0  0  0  0  0  0  0  0  0
   -1.2455    4.0063   -3.1153 O   0  0  0  0  0  0  0  0  0  0  0  0
    1.7503    0.0565   -0.1058 H   0  0  0  0  0  0  0  0  0  0  0  0
   -1.7377    0.1287   -3.1253 H   0  0  0  0  0  0  0  0  0  0  0  0
   -3.1388    0.6628   -2.2091 H   0  0  0  0  0  0  0  0  0  0  0  0
   -1.5953    2.2677   -4.9239 H   0  0  0  0  0  0  0  0  0  0  0  0
   -3.2762    2.4862   -1.1785 H   0  0  0  0  0  0  0  0  0  0  0  0
  1  2  1  0  0  0  0
  1 11  1  0  0  0  0
  2  3  2  0  0  0  0
  2  4  1  0  0  0  0
  4  5  2  0  0  0  0
  4  6  1  0  0  0  0
  6  7  1  0  0  0  0
  6 12  1  0  0  0  0
  6 13  1  0  0  0  0
  7  8  1  0  0  0  0
  7  9  1  0  0  0  0
  7 10  2  0  0  0  0
  8 14  1  0  0  0  0
  9 15  1  0  0  0  0
M  END
>  <DRUGBANK_ID>
DB02522

>  <SECONDARY_ACCESSION_NUMBERS>
EXPT02646

>  <COMMON_NAME>
Phosphonopyruvate

>  <UNII>
AQ57DYF7MV

$$$$
