
 OpenBabel10282417143D

 30 30  0  0  1  0  0  0  0  0999 V2000
    0.9106    0.7559    2.3579 N   0  0  0  0  0  0  0  0  0  0  0  0
    0.4856   -0.2061    1.3306 C   0  0  2  0  0  0  0  0  0  0  0  0
    1.0597    0.1892   -0.0495 C   0  0  0  0  0  0  0  0  0  0  0  0
    0.7044    1.5265   -0.3899 O   0  0  0  0  0  0  0  0  0  0  0  0
   -1.0595   -0.3052    1.3233 C   0  0  0  0  0  0  0  0  0  0  0  0
   -1.5745   -1.3531    0.3136 C   0  0  0  0  0  0  0  0  0  0  0  0
   -3.1074   -1.3884    0.2308 C   0  0  0  0  0  0  0  0  0  0  0  0
   -3.5663   -2.4632   -0.7591 C   0  0  0  0  0  0  0  0  0  0  0  0
   -3.0087   -3.8364   -0.3944 C   0  0  0  0  0  0  0  0  0  0  0  0
   -1.4909   -3.8127   -0.3116 C   0  0  0  0  0  0  0  0  0  0  0  0
   -1.0112   -2.7427    0.6526 C   0  0  0  0  0  0  0  0  0  0  0  0
    0.6589    1.6934    2.0389 H   0  0  0  0  0  0  0  0  0  0  0  0
    1.9327    0.7693    2.3728 H   0  0  0  0  0  0  0  0  0  0  0  0
    0.9104   -1.1701    1.6241 H   0  0  0  0  0  0  0  0  0  0  0  0
    2.1530    0.1270   -0.0396 H   0  0  0  0  0  0  0  0  0  0  0  0
    0.7220   -0.4756   -0.8496 H   0  0  0  0  0  0  0  0  0  0  0  0
   -0.2715    1.5848   -0.3712 H   0  0  0  0  0  0  0  0  0  0  0  0
   -1.4126   -0.5712    2.3295 H   0  0  0  0  0  0  0  0  0  0  0  0
   -1.5044    0.6726    1.0984 H   0  0  0  0  0  0  0  0  0  0  0  0
   -1.2355   -1.0727   -0.6901 H   0  0  0  0  0  0  0  0  0  0  0  0
   -3.5406   -1.5850    1.2186 H   0  0  0  0  0  0  0  0  0  0  0  0
   -3.4872   -0.4133   -0.0989 H   0  0  0  0  0  0  0  0  0  0  0  0
   -4.6601   -2.5039   -0.7864 H   0  0  0  0  0  0  0  0  0  0  0  0
   -3.2310   -2.1939   -1.7694 H   0  0  0  0  0  0  0  0  0  0  0  0
   -3.4193   -4.1514    0.5724 H   0  0  0  0  0  0  0  0  0  0  0  0
   -3.3194   -4.5781   -1.1374 H   0  0  0  0  0  0  0  0  0  0  0  0
   -1.1139   -4.7877    0.0163 H   0  0  0  0  0  0  0  0  0  0  0  0
   -1.0639   -3.6212   -1.3039 H   0  0  0  0  0  0  0  0  0  0  0  0
    0.0816   -2.7433    0.6117 H   0  0  0  0  0  0  0  0  0  0  0  0
   -1.2953   -3.0113    1.6780 H   0  0  0  0  0  0  0  0  0  0  0  0
  1 12  1  0  0  0  0
  1 13  1  0  0  0  0
  2  5  1  0  0  0  0
  2 14  1  1  0  0  0
  2  3  1  0  0  0  0
  2  1  1  0  0  0  0
  3  4  1  0  0  0  0
  3 15  1  0  0  0  0
  3 16  1  0  0  0  0
  4 17  1  0  0  0  0
  5  6  1  0  0  0  0
  5 18  1  0  0  0  0
  5 19  1  0  0  0  0
  6  7  1  0  0  0  0
  6 11  1  0  0  0  0
  6 20  1  0  0  0  0
  7  8  1  0  0  0  0
  7 21  1  0  0  0  0
  7 22  1  0  0  0  0
  8  9  1  0  0  0  0
  8 23  1  0  0  0  0
  8 24  1  0  0  0  0
  9 10  1  0  0  0  0
  9 25  1  0  0  0  0
  9 26  1  0  0  0  0
 10 11  1  0  0  0  0
 10 27  1  0  0  0  0
 10 28  1  0  0  0  0
 11 29  1  0  0  0  0
 11 30  1  0  0  0  0
M  END
>  <DRUGBANK_ID>
DB04387

>  <SECONDARY_ACCESSION_NUMBERS>
EXPT00905

>  <COMMON_NAME>
1-Hydroxy-2-Amino-3-Cyclohexylpropane

$$$$
