619
 OpenBabel10282417103D

 68 72  0  0  0  0  0  0  0  0999 V2000
    1.1514    0.0811   -0.0883 O   0  0  0  0  0  0  0  0  0  0  0  0
    5.5388   -5.1886    2.2015 N   0  0  0  0  0  0  0  0  0  0  0  0
    7.5621   -7.0769    1.1433 N   0  0  0  0  0  0  0  0  0  0  0  0
    3.1500    0.9906   -0.6503 N   0  0  0  0  0  0  0  0  0  0  0  0
    7.3436   -1.4390   -1.1978 N   0  0  0  0  0  0  0  0  0  0  0  0
    9.1800   -2.0181   -2.6032 N   0  0  0  0  0  0  0  0  0  0  0  0
    9.5083   -1.4351   -0.3268 N   0  0  0  0  0  0  0  0  0  0  0  0
   11.4017   -1.9452   -6.4571 N   0  0  0  0  0  0  0  0  0  0  0  0
    6.5820   -4.7403    1.2603 C   0  0  0  0  0  0  0  0  0  0  0  0
    6.0945   -6.2553    3.0546 C   0  0  0  0  0  0  0  0  0  0  0  0
    7.0459   -5.9184    0.3807 C   0  0  0  0  0  0  0  0  0  0  0  0
    6.5932   -7.4437    2.2020 C   0  0  0  0  0  0  0  0  0  0  0  0
    5.0401   -4.0904    3.0238 C   0  0  0  0  0  0  0  0  0  0  0  0
    8.8633   -6.7563    1.7279 C   0  0  0  0  0  0  0  0  0  0  0  0
    4.3665   -3.0058    2.2180 C   0  0  0  0  0  0  0  0  0  0  0  0
    3.2710   -3.3109    1.3936 C   0  0  0  0  0  0  0  0  0  0  0  0
    4.8034   -1.6817    2.3256 C   0  0  0  0  0  0  0  0  0  0  0  0
    2.6002   -2.3023    0.7065 C   0  0  0  0  0  0  0  0  0  0  0  0
    4.0867   -0.6638    1.7040 C   0  0  0  0  0  0  0  0  0  0  0  0
    3.0190   -0.9792    0.8510 C   0  0  0  0  0  0  0  0  0  0  0  0
    2.3689    0.0515   -0.0001 C   0  0  0  0  0  0  0  0  0  0  0  0
    4.5432    1.0056   -0.8345 C   0  0  0  0  0  0  0  0  0  0  0  0
    6.6988   -0.1673   -1.1477 C   0  0  0  0  0  0  0  0  0  0  0  0
    5.2924   -0.1695   -1.0368 C   0  0  0  0  0  0  0  0  0  0  0  0
    7.3320    1.0942   -1.0833 C   0  0  0  0  0  0  0  0  0  0  0  0
    5.1865    2.2337   -0.7964 C   0  0  0  0  0  0  0  0  0  0  0  0
    6.5658    2.2734   -0.9404 C   0  0  0  0  0  0  0  0  0  0  0  0
    8.8069    1.3448   -1.1227 C   0  0  0  0  0  0  0  0  0  0  0  0
    8.7083   -1.7009   -1.3776 C   0  0  0  0  0  0  0  0  0  0  0  0
   10.5267   -1.9442   -2.7812 C   0  0  0  0  0  0  0  0  0  0  0  0
   11.0828   -2.3430   -4.0773 C   0  0  0  0  0  0  0  0  0  0  0  0
   11.3897   -1.5273   -1.7846 C   0  0  0  0  0  0  0  0  0  0  0  0
   10.8220   -1.2922   -0.5646 C   0  0  0  0  0  0  0  0  0  0  0  0
   11.9883   -3.4132   -4.1630 C   0  0  0  0  0  0  0  0  0  0  0  0
   10.8319   -1.6505   -5.2582 C   0  0  0  0  0  0  0  0  0  0  0  0
   12.5808   -3.7474   -5.3775 C   0  0  0  0  0  0  0  0  0  0  0  0
   12.2556   -2.9915   -6.4886 C   0  0  0  0  0  0  0  0  0  0  0  0
    2.6168    1.7592   -1.0414 H   0  0  0  0  0  0  0  0  0  0  0  0
    6.7837   -2.1556   -1.6396 H   0  0  0  0  0  0  0  0  0  0  0  0
    6.2072   -3.9575    0.5924 H   0  0  0  0  0  0  0  0  0  0  0  0
    7.4320   -4.3089    1.8049 H   0  0  0  0  0  0  0  0  0  0  0  0
    6.9207   -5.8648    3.6640 H   0  0  0  0  0  0  0  0  0  0  0  0
    5.3333   -6.6201    3.7547 H   0  0  0  0  0  0  0  0  0  0  0  0
    6.1999   -6.2510   -0.2368 H   0  0  0  0  0  0  0  0  0  0  0  0
    7.8052   -5.5635   -0.3269 H   0  0  0  0  0  0  0  0  0  0  0  0
    5.7254   -7.9249    1.7307 H   0  0  0  0  0  0  0  0  0  0  0  0
    7.0306   -8.2041    2.8610 H   0  0  0  0  0  0  0  0  0  0  0  0
    4.2764   -4.4704    3.7152 H   0  0  0  0  0  0  0  0  0  0  0  0
    5.8422   -3.6698    3.6433 H   0  0  0  0  0  0  0  0  0  0  0  0
    8.8222   -5.9382    2.4538 H   0  0  0  0  0  0  0  0  0  0  0  0
    9.2756   -7.6340    2.2344 H   0  0  0  0  0  0  0  0  0  0  0  0
    9.5726   -6.4724    0.9438 H   0  0  0  0  0  0  0  0  0  0  0  0
    2.9574   -4.3461    1.2732 H   0  0  0  0  0  0  0  0  0  0  0  0
    5.7092   -1.4391    2.8778 H   0  0  0  0  0  0  0  0  0  0  0  0
    1.7701   -2.5487    0.0499 H   0  0  0  0  0  0  0  0  0  0  0  0
    4.4088    0.3656    1.8398 H   0  0  0  0  0  0  0  0  0  0  0  0
    4.7680   -1.1194   -1.1031 H   0  0  0  0  0  0  0  0  0  0  0  0
    4.6511    3.1548   -0.5803 H   0  0  0  0  0  0  0  0  0  0  0  0
    7.0723    3.2379   -0.9215 H   0  0  0  0  0  0  0  0  0  0  0  0
    9.0624    2.1031   -1.8651 H   0  0  0  0  0  0  0  0  0  0  0  0
    9.1729    1.6299   -0.1308 H   0  0  0  0  0  0  0  0  0  0  0  0
    9.3646    0.5024   -1.4728 H   0  0  0  0  0  0  0  0  0  0  0  0
   12.4495   -1.3846   -1.9536 H   0  0  0  0  0  0  0  0  0  0  0  0
   11.3990   -0.8853    0.2589 H   0  0  0  0  0  0  0  0  0  0  0  0
   12.2358   -3.9918   -3.2754 H   0  0  0  0  0  0  0  0  0  0  0  0
   10.1672   -0.7901   -5.2765 H   0  0  0  0  0  0  0  0  0  0  0  0
   13.2769   -4.5756   -5.4504 H   0  0  0  0  0  0  0  0  0  0  0  0
   12.6866   -3.2155   -7.4606 H   0  0  0  0  0  0  0  0  0  0  0  0
  1 21  2  0  0  0  0
  2  9  1  0  0  0  0
  2 10  1  0  0  0  0
  2 13  1  0  0  0  0
  3 11  1  0  0  0  0
  3 12  1  0  0  0  0
  3 14  1  0  0  0  0
  4 21  1  0  0  0  0
  4 22  1  0  0  0  0
  4 38  1  0  0  0  0
  5 23  1  0  0  0  0
  5 29  1  0  0  0  0
  5 39  1  0  0  0  0
  6 29  1  0  0  0  0
  6 30  2  0  0  0  0
  7 29  2  0  0  0  0
  7 33  1  0  0  0  0
  8 35  1  0  0  0  0
  8 37  2  0  0  0  0
  9 11  1  0  0  0  0
  9 40  1  0  0  0  0
  9 41  1  0  0  0  0
 10 12  1  0  0  0  0
 10 42  1  0  0  0  0
 10 43  1  0  0  0  0
 11 44  1  0  0  0  0
 11 45  1  0  0  0  0
 12 46  1  0  0  0  0
 12 47  1  0  0  0  0
 13 15  1  0  0  0  0
 13 48  1  0  0  0  0
 13 49  1  0  0  0  0
 14 50  1  0  0  0  0
 14 51  1  0  0  0  0
 14 52  1  0  0  0  0
 15 16  2  0  0  0  0
 15 17  1  0  0  0  0
 16 18  1  0  0  0  0
 16 53  1  0  0  0  0
 17 19  2  0  0  0  0
 17 54  1  0  0  0  0
 18 20  2  0  0  0  0
 18 55  1  0  0  0  0
 19 20  1  0  0  0  0
 19 56  1  0  0  0  0
 20 21  1  0  0  0  0
 22 24  2  0  0  0  0
 22 26  1  0  0  0  0
 23 24  1  0  0  0  0
 23 25  2  0  0  0  0
 24 57  1  0  0  0  0
 25 27  1  0  0  0  0
 25 28  1  0  0  0  0
 26 27  2  0  0  0  0
 26 58  1  0  0  0  0
 27 59  1  0  0  0  0
 28 60  1  0  0  0  0
 28 61  1  0  0  0  0
 28 62  1  0  0  0  0
 30 31  1  0  0  0  0
 30 32  1  0  0  0  0
 31 34  1  0  0  0  0
 31 35  2  0  0  0  0
 32 33  2  0  0  0  0
 32 63  1  0  0  0  0
 33 64  1  0  0  0  0
 34 36  2  0  0  0  0
 34 65  1  0  0  0  0
 35 66  1  0  0  0  0
 36 37  1  0  0  0  0
 36 67  1  0  0  0  0
 37 68  1  0  0  0  0
M  END
>  <DRUGBANK_ID>
DB00619

>  <SECONDARY_ACCESSION_NUMBERS>
APRD01028; EXPT02967; DB03261

>  <COMMON_NAME>
Imatinib

>  <CAS_NUMBER>
152459-95-5

>  <UNII>
BKJ8M8G5HI

>  <SYNONYMS>
Imatinib; Imatinibum; Î±-(4-methyl-1-piperazinyl)-3'-((4-(3-pyridyl)-2-pyrimidinyl)amino)-p-toluidide

$$$$
