DFM
 OpenBabel10282417163D

 57 58  0  0  0  0  0  0  0  0999 V2000
    0.9756    0.0014   -0.0970 C   0  0  0  0  0  0  0  0  0  0  0  0
    2.7614   -1.0315    1.1892 O   0  0  0  0  0  0  0  0  0  0  0  0
    2.8269   -0.8687   -1.5089 O   0  0  0  0  0  0  0  0  0  0  0  0
    4.3540    0.0014   -0.0970 O   0  0  0  0  0  0  0  0  0  0  0  0
    0.4225   -1.4235   -0.2271 C   0  0  0  0  0  0  0  0  0  0  0  0
    1.2862   -2.5657   -0.2729 C   0  0  0  0  0  0  0  0  0  0  0  0
    0.8586   -3.8626   -0.3245 C   0  0  0  0  0  0  0  0  0  0  0  0
   -0.4924   -4.0630   -0.4170 C   0  0  0  0  0  0  0  0  0  0  0  0
   -1.3632   -2.9572   -0.5218 C   0  0  0  0  0  0  0  0  0  0  0  0
   -0.9291   -1.6456   -0.3549 C   0  0  0  0  0  0  0  0  0  0  0  0
   -0.9963   -5.4661   -0.3831 C   0  0  0  0  0  0  0  0  0  0  0  0
   -1.6778   -5.8691    0.9268 C   0  0  1  0  0  0  0  0  0  0  0  0
   -2.9438   -4.9970    1.2077 C   0  0  0  0  0  0  0  0  0  0  0  0
   -4.0670   -5.3215    0.8726 O   0  0  0  0  0  0  0  0  0  0  0  0
   -2.7481   -3.7617    1.7869 N   0  0  0  0  0  0  0  0  0  0  0  0
   -2.0297   -7.2985    0.7941 N   0  0  0  0  0  0  0  0  0  0  0  0
   -1.5418   -8.2583    1.6661 C   0  0  0  0  0  0  0  0  0  0  0  0
   -2.2012   -9.6571    1.5697 C   0  0  1  0  0  0  0  0  0  0  0  0
   -0.7010   -7.9891    2.5205 O   0  0  0  0  0  0  0  0  0  0  0  0
   -1.1542  -10.7081    1.5061 N   0  0  0  0  0  0  0  0  0  0  0  0
   -3.1284   -9.8698    2.7553 C   0  0  0  0  0  0  0  0  0  0  0  0
   -4.3067   -9.0066    3.0102 C   0  0  0  0  0  0  0  0  0  0  0  0
   -5.5112   -9.5965    3.3975 C   0  0  0  0  0  0  0  0  0  0  0  0
   -6.5807   -8.7885    3.7524 C   0  0  0  0  0  0  0  0  0  0  0  0
   -6.4408   -7.4006    3.7396 C   0  0  0  0  0  0  0  0  0  0  0  0
   -5.2213   -6.8204    3.4349 C   0  0  0  0  0  0  0  0  0  0  0  0
   -4.1633   -7.6279    3.0839 C   0  0  0  0  0  0  0  0  0  0  0  0
   -0.7763  -11.7076    2.3624 C   0  0  0  0  0  0  0  0  0  0  0  0
    0.2193  -12.3718    2.0671 O   0  0  0  0  0  0  0  0  0  0  0  0
   -1.5552  -12.0540    3.6143 C   0  0  0  0  0  0  0  0  0  0  0  0
    0.6654    0.6622    1.0462 F   0  0  0  0  0  0  0  0  0  0  0  0
    0.6889    0.8128   -1.1471 F   0  0  0  0  0  0  0  0  0  0  0  0
    2.8056    0.0014   -0.0970 P   0  0  0  0  0  0  0  0  0  0  0  0
   -1.0006   -5.7376    1.7796 H   0  0  0  0  0  0  0  0  0  0  0  0
   -2.7659   -9.7271    0.6312 H   0  0  0  0  0  0  0  0  0  0  0  0
    3.0441   -0.5855    2.0107 H   0  0  0  0  0  0  0  0  0  0  0  0
    2.0274   -0.8452   -2.0727 H   0  0  0  0  0  0  0  0  0  0  0  0
    2.3767   -2.5173   -0.2643 H   0  0  0  0  0  0  0  0  0  0  0  0
    1.5983   -4.6616   -0.2988 H   0  0  0  0  0  0  0  0  0  0  0  0
   -2.4280   -3.1275   -0.6515 H   0  0  0  0  0  0  0  0  0  0  0  0
   -1.6397   -0.8249   -0.3304 H   0  0  0  0  0  0  0  0  0  0  0  0
   -1.6592   -5.5981   -1.2423 H   0  0  0  0  0  0  0  0  0  0  0  0
   -0.1512   -6.1525   -0.5470 H   0  0  0  0  0  0  0  0  0  0  0  0
   -1.8290   -3.3341    1.8225 H   0  0  0  0  0  0  0  0  0  0  0  0
   -3.5196   -3.1106    1.6777 H   0  0  0  0  0  0  0  0  0  0  0  0
   -2.8193   -7.5079    0.1910 H   0  0  0  0  0  0  0  0  0  0  0  0
   -0.4794  -10.6018    0.7564 H   0  0  0  0  0  0  0  0  0  0  0  0
   -3.5268  -10.8799    2.6497 H   0  0  0  0  0  0  0  0  0  0  0  0
   -2.5467   -9.7683    3.6743 H   0  0  0  0  0  0  0  0  0  0  0  0
   -5.6063  -10.6804    3.4578 H   0  0  0  0  0  0  0  0  0  0  0  0
   -7.5173   -9.2427    4.0545 H   0  0  0  0  0  0  0  0  0  0  0  0
   -7.2762   -6.7595    3.9868 H   0  0  0  0  0  0  0  0  0  0  0  0
   -5.0621   -5.7482    3.4715 H   0  0  0  0  0  0  0  0  0  0  0  0
   -3.2143   -7.1446    2.9179 H   0  0  0  0  0  0  0  0  0  0  0  0
   -1.5257  -11.2364    4.3368 H   0  0  0  0  0  0  0  0  0  0  0  0
   -2.5757  -12.3610    3.3751 H   0  0  0  0  0  0  0  0  0  0  0  0
   -1.1111  -12.9105    4.1239 H   0  0  0  0  0  0  0  0  0  0  0  0
  1  5  1  0  0  0  0
  1 31  1  0  0  0  0
  1 32  1  0  0  0  0
  1 33  1  0  0  0  0
  2 33  1  0  0  0  0
  2 36  1  0  0  0  0
  3 33  1  0  0  0  0
  3 37  1  0  0  0  0
  4 33  2  0  0  0  0
  5  6  1  0  0  0  0
  5 10  2  0  0  0  0
  6  7  2  0  0  0  0
  6 38  1  0  0  0  0
  7  8  1  0  0  0  0
  7 39  1  0  0  0  0
  8  9  2  0  0  0  0
  8 11  1  0  0  0  0
  9 10  1  0  0  0  0
  9 40  1  0  0  0  0
 10 41  1  0  0  0  0
 11 12  1  0  0  0  0
 11 42  1  0  0  0  0
 11 43  1  0  0  0  0
 12 13  1  0  0  0  0
 12 16  1  0  0  0  0
 12 34  1  1  0  0  0
 13 14  2  0  0  0  0
 13 15  1  0  0  0  0
 15 44  1  0  0  0  0
 15 45  1  0  0  0  0
 16 17  1  0  0  0  0
 16 46  1  0  0  0  0
 17 18  1  0  0  0  0
 17 19  2  0  0  0  0
 18 20  1  0  0  0  0
 18 21  1  0  0  0  0
 18 35  1  6  0  0  0
 20 28  1  0  0  0  0
 20 47  1  0  0  0  0
 21 22  1  0  0  0  0
 21 48  1  0  0  0  0
 21 49  1  0  0  0  0
 22 23  1  0  0  0  0
 22 27  2  0  0  0  0
 23 24  2  0  0  0  0
 23 50  1  0  0  0  0
 24 25  1  0  0  0  0
 24 51  1  0  0  0  0
 25 26  2  0  0  0  0
 25 52  1  0  0  0  0
 26 27  1  0  0  0  0
 26 53  1  0  0  0  0
 27 54  1  0  0  0  0
 28 29  2  0  0  0  0
 28 30  1  0  0  0  0
 30 55  1  0  0  0  0
 30 56  1  0  0  0  0
 30 57  1  0  0  0  0
M  END
>  <DRUGBANK_ID>
DB07651

>  <COMMON_NAME>
N-ACETYL-L-PHENYLALANYL-4-[DIFLUORO(PHOSPHONO)METHYL]-L-PHENYLALANINAMIDE

$$$$
