
 OpenBabel10282417233D

 61 66  0  0  0  0  0  0  0  0999 V2000
    1.1680   -0.2013   -0.0945 C   0  0  0  0  0  0  0  0  0  0  0  0
    0.8314    0.3093    1.3011 C   0  0  0  0  0  0  0  0  0  0  0  0
    1.5659    1.6133    1.5725 C   0  0  0  0  0  0  0  0  0  0  0  0
   -0.6145    0.4184    1.3880 N   0  0  0  0  0  0  0  0  0  0  0  0
   -1.1999    1.5929    0.7193 C   0  0  0  0  0  0  0  0  0  0  0  0
   -1.2494    2.8928    1.5506 C   0  0  0  0  0  0  0  0  0  0  0  0
   -1.7944    2.7246    2.9084 N   0  0  0  0  0  0  0  0  0  0  0  0
   -3.2786    2.6930    2.9048 C   0  0  0  0  0  0  0  0  0  0  0  0
   -3.9467    1.4791    2.3390 C   0  0  0  0  0  0  0  0  0  0  0  0
   -4.1499    0.2152    2.8508 C   0  0  0  0  0  0  0  0  0  0  0  0
   -4.4237   -0.6652    1.8509 N   0  0  0  0  0  0  0  0  0  0  0  0
   -4.5191    0.0936    0.7595 C   0  0  0  0  0  0  0  0  0  0  0  0
   -4.3209    1.4351    1.0053 O   0  0  0  0  0  0  0  0  0  0  0  0
   -5.0340   -0.3513   -0.5146 C   0  0  0  0  0  0  0  0  0  0  0  0
   -6.0670   -1.3061   -0.4760 C   0  0  0  0  0  0  0  0  0  0  0  0
   -6.7193   -1.7687   -1.6162 C   0  0  0  0  0  0  0  0  0  0  0  0
   -6.2996   -1.3092   -2.8723 C   0  0  0  0  0  0  0  0  0  0  0  0
   -5.2165   -0.4244   -2.9186 C   0  0  0  0  0  0  0  0  0  0  0  0
   -4.5685    0.0658   -1.7845 C   0  0  0  0  0  0  0  0  0  0  0  0
   -3.5456    0.8819   -2.3173 C   0  0  0  0  0  0  0  0  0  0  0  0
   -3.5553    0.9389   -3.6560 N   0  0  0  0  0  0  0  0  0  0  0  0
   -4.5837    0.1466   -3.9927 N   0  0  0  0  0  0  0  0  0  0  0  0
   -7.8423   -2.6941   -1.4792 C   0  0  0  0  0  0  0  0  0  0  0  0
   -8.9744   -2.3612   -0.7096 C   0  0  0  0  0  0  0  0  0  0  0  0
  -10.0329   -3.2512   -0.5607 C   0  0  0  0  0  0  0  0  0  0  0  0
   -9.9995   -4.5108   -1.1639 C   0  0  0  0  0  0  0  0  0  0  0  0
   -8.8777   -4.8306   -1.9420 C   0  0  0  0  0  0  0  0  0  0  0  0
   -7.8056   -3.9564   -2.1163 C   0  0  0  0  0  0  0  0  0  0  0  0
   -6.8683   -4.6190   -2.9653 C   0  0  0  0  0  0  0  0  0  0  0  0
   -7.3941   -5.8354   -3.3098 C   0  0  0  0  0  0  0  0  0  0  0  0
   -8.5933   -5.9759   -2.6582 N   0  0  0  0  0  0  0  0  0  0  0  0
   -1.1564    1.5851    3.6055 C   0  0  0  0  0  0  0  0  0  0  0  0
   -1.0748    0.2898    2.7692 C   0  0  0  0  0  0  0  0  0  0  0  0
    0.8122    0.4798   -0.8744 H   0  0  0  0  0  0  0  0  0  0  0  0
    0.7130   -1.1813   -0.2771 H   0  0  0  0  0  0  0  0  0  0  0  0
    2.2505   -0.2895   -0.1993 H   0  0  0  0  0  0  0  0  0  0  0  0
    1.1714   -0.4523    2.0155 H   0  0  0  0  0  0  0  0  0  0  0  0
    1.3909    2.3256    0.7597 H   0  0  0  0  0  0  0  0  0  0  0  0
    1.2546    2.0752    2.5096 H   0  0  0  0  0  0  0  0  0  0  0  0
    2.6385    1.4541    1.6550 H   0  0  0  0  0  0  0  0  0  0  0  0
   -0.7573    1.7793   -0.2638 H   0  0  0  0  0  0  0  0  0  0  0  0
   -2.2133    1.3288    0.4484 H   0  0  0  0  0  0  0  0  0  0  0  0
   -0.2502    3.3276    1.6417 H   0  0  0  0  0  0  0  0  0  0  0  0
   -1.7995    3.6644    0.9991 H   0  0  0  0  0  0  0  0  0  0  0  0
   -3.5908    2.8049    3.9498 H   0  0  0  0  0  0  0  0  0  0  0  0
   -3.6351    3.5931    2.3920 H   0  0  0  0  0  0  0  0  0  0  0  0
   -3.8759   -0.1448    3.8365 H   0  0  0  0  0  0  0  0  0  0  0  0
   -6.3709   -1.6875    0.5031 H   0  0  0  0  0  0  0  0  0  0  0  0
   -6.7979   -1.6419   -3.7777 H   0  0  0  0  0  0  0  0  0  0  0  0
   -2.7820    1.4360   -1.7951 H   0  0  0  0  0  0  0  0  0  0  0  0
   -4.8059    0.0276   -4.9745 H   0  0  0  0  0  0  0  0  0  0  0  0
   -9.0297   -1.3856   -0.2287 H   0  0  0  0  0  0  0  0  0  0  0  0
  -10.8964   -2.9580    0.0317 H   0  0  0  0  0  0  0  0  0  0  0  0
  -10.8231   -5.2045   -1.0382 H   0  0  0  0  0  0  0  0  0  0  0  0
   -5.9172   -4.2228   -3.3020 H   0  0  0  0  0  0  0  0  0  0  0  0
   -7.0154   -6.6195   -3.9546 H   0  0  0  0  0  0  0  0  0  0  0  0
   -9.1896   -6.7825   -2.7076 H   0  0  0  0  0  0  0  0  0  0  0  0
   -0.1414    1.8627    3.9200 H   0  0  0  0  0  0  0  0  0  0  0  0
   -1.6668    1.3932    4.5573 H   0  0  0  0  0  0  0  0  0  0  0  0
   -2.0549   -0.1096    2.6395 H   0  0  0  0  0  0  0  0  0  0  0  0
   -0.6110   -0.5326    3.3276 H   0  0  0  0  0  0  0  0  0  0  0  0
  1  2  1  0  0  0  0
  1 34  1  0  0  0  0
  1 35  1  0  0  0  0
  1 36  1  0  0  0  0
  2  3  1  0  0  0  0
  2  4  1  0  0  0  0
  2 37  1  0  0  0  0
  3 38  1  0  0  0  0
  3 39  1  0  0  0  0
  3 40  1  0  0  0  0
  4  5  1  0  0  0  0
  4 33  1  0  0  0  0
  5  6  1  0  0  0  0
  5 41  1  0  0  0  0
  5 42  1  0  0  0  0
  6  7  1  0  0  0  0
  6 43  1  0  0  0  0
  6 44  1  0  0  0  0
  7  8  1  0  0  0  0
  7 32  1  0  0  0  0
  8  9  1  0  0  0  0
  8 45  1  0  0  0  0
  8 46  1  0  0  0  0
  9 10  2  0  0  0  0
  9 13  1  0  0  0  0
 10 11  1  0  0  0  0
 10 47  1  0  0  0  0
 11 12  2  0  0  0  0
 12 13  1  0  0  0  0
 12 14  1  0  0  0  0
 14 15  2  0  0  0  0
 14 19  1  0  0  0  0
 15 16  1  0  0  0  0
 15 48  1  0  0  0  0
 16 17  2  0  0  0  0
 16 23  1  0  0  0  0
 17 18  1  0  0  0  0
 17 49  1  0  0  0  0
 18 19  2  0  0  0  0
 18 22  1  0  0  0  0
 19 20  1  0  0  0  0
 20 21  2  0  0  0  0
 20 50  1  0  0  0  0
 21 22  1  0  0  0  0
 22 51  1  0  0  0  0
 23 24  2  0  0  0  0
 23 28  1  0  0  0  0
 24 25  1  0  0  0  0
 24 52  1  0  0  0  0
 25 26  2  0  0  0  0
 25 53  1  0  0  0  0
 26 27  1  0  0  0  0
 26 54  1  0  0  0  0
 27 28  2  0  0  0  0
 27 31  1  0  0  0  0
 28 29  1  0  0  0  0
 29 30  2  0  0  0  0
 29 55  1  0  0  0  0
 30 31  1  0  0  0  0
 30 56  1  0  0  0  0
 31 57  1  0  0  0  0
 32 33  1  0  0  0  0
 32 58  1  0  0  0  0
 32 59  1  0  0  0  0
 33 60  1  0  0  0  0
 33 61  1  0  0  0  0
M  END
>  <DRUGBANK_ID>
DB16253

>  <COMMON_NAME>
Nemiralisib

>  <CAS_NUMBER>
1254036-71-9

>  <UNII>
OEP8JJ3OZR

>  <SYNONYMS>
Nemiralisib

$$$$
