
 OpenBabel10282417213D

 51 51  0  0  0  0  0  0  0  0999 V2000
    0.9664   -0.0483   -0.0808 C   0  0  0  0  0  0  0  0  0  0  0  0
    0.4598   -1.2596    0.6850 C   0  0  0  0  0  0  0  0  0  0  0  0
    0.9498   -1.2038    2.0698 N   0  3  0  0  0  0  0  0  0  0  0  0
    0.4598    0.0233    2.7140 C   0  0  0  0  0  0  0  0  0  0  0  0
    0.4598   -2.3752    2.8105 C   0  0  0  0  0  0  0  0  0  0  0  0
    0.9664   -3.6441    2.1445 C   0  0  0  0  0  0  0  0  0  0  0  0
    2.4198   -1.2038    2.0698 C   0  0  0  0  0  0  0  0  0  0  0  0
    2.9264   -2.4727    1.4038 C   0  0  0  0  0  0  0  0  0  0  0  0
    2.4531   -2.5266    0.0661 O   0  0  0  0  0  0  0  0  0  0  0  0
    1.0331   -2.5266    0.0661 C   0  0  0  0  0  0  0  0  0  0  0  0
    0.5264   -3.7378    0.8320 C   0  0  0  0  0  0  0  0  0  0  0  0
    0.7359   -4.9296    0.2851 C   0  0  0  0  0  0  0  0  0  0  0  0
    0.5902   -6.0757    1.0287 C   0  0  0  0  0  0  0  0  0  0  0  0
    0.1393   -6.0246    2.3185 C   0  0  0  0  0  0  0  0  0  0  0  0
    0.0138   -4.8220    2.8495 C   0  0  0  0  0  0  0  0  0  0  0  0
    0.0090   -3.6151    2.1110 C   0  0  0  0  0  0  0  0  0  0  0  0
    0.5264   -1.2577    0.7321 C   0  0  0  0  0  0  0  0  0  0  0  0
    0.0212   -1.2822    1.9599 C   0  0  0  0  0  0  0  0  0  0  0  0
   -0.1634   -0.1167    2.6637 C   0  0  0  0  0  0  0  0  0  0  0  0
    0.0811    1.0989    2.0874 C   0  0  0  0  0  0  0  0  0  0  0  0
    0.6512    1.0803    0.8964 C   0  0  0  0  0  0  0  0  0  0  0  0
    0.7373   -0.0619    0.0657 C   0  0  0  0  0  0  0  0  0  0  0  0
    1.0961    0.0031    0.0274 I   0  5  0  0  0  0  0  0  0  0  0  0
    0.6098    0.8449    0.3880 H   0  0  0  0  0  0  0  0  0  0  0  0
    0.6098   -0.0889   -1.0888 H   0  0  0  0  0  0  0  0  0  0  0  0
    2.0364   -0.0483   -0.0808 H   0  0  0  0  0  0  0  0  0  0  0  0
   -0.6102   -1.2596    0.6850 H   0  0  0  0  0  0  0  0  0  0  0  0
    0.8164   -2.1528    0.2162 H   0  0  0  0  0  0  0  0  0  0  0  0
   -0.6102    0.0233    2.7140 H   0  0  0  0  0  0  0  0  0  0  0  0
    0.8164    0.0639    3.7220 H   0  0  0  0  0  0  0  0  0  0  0  0
    0.8164    0.8760    2.1748 H   0  0  0  0  0  0  0  0  0  0  0  0
    0.8164   -2.3346    3.8185 H   0  0  0  0  0  0  0  0  0  0  0  0
   -0.6102   -2.3752    2.8105 H   0  0  0  0  0  0  0  0  0  0  0  0
    2.0364   -3.6441    2.1445 H   0  0  0  0  0  0  0  0  0  0  0  0
    0.6098   -4.4968    2.6837 H   0  0  0  0  0  0  0  0  0  0  0  0
    0.6098   -3.6847    1.1365 H   0  0  0  0  0  0  0  0  0  0  0  0
    2.7764   -0.3512    1.5307 H   0  0  0  0  0  0  0  0  0  0  0  0
    2.7764   -1.1632    3.0778 H   0  0  0  0  0  0  0  0  0  0  0  0
    3.9964   -2.4727    1.4038 H   0  0  0  0  0  0  0  0  0  0  0  0
    2.5698   -3.3254    1.9430 H   0  0  0  0  0  0  0  0  0  0  0  0
    0.6765   -2.5672   -0.9419 H   0  0  0  0  0  0  0  0  0  0  0  0
    1.0208   -4.9979   -0.7440 H   0  0  0  0  0  0  0  0  0  0  0  0
    0.8330   -7.0220    0.5921 H   0  0  0  0  0  0  0  0  0  0  0  0
   -0.0990   -6.9112    2.8680 H   0  0  0  0  0  0  0  0  0  0  0  0
   -0.0916   -4.7557    3.9123 H   0  0  0  0  0  0  0  0  0  0  0  0
   -0.3608   -2.6915    2.5047 H   0  0  0  0  0  0  0  0  0  0  0  0
   -0.2446   -2.2182    2.4052 H   0  0  0  0  0  0  0  0  0  0  0  0
   -0.5033   -0.1609    3.6773 H   0  0  0  0  0  0  0  0  0  0  0  0
   -0.1756    2.0159    2.5753 H   0  0  0  0  0  0  0  0  0  0  0  0
    1.0778    1.9924    0.5343 H   0  0  0  0  0  0  0  0  0  0  0  0
    0.9462   -0.0069   -0.9823 H   0  0  0  0  0  0  0  0  0  0  0  0
  1  2  1  0  0  0  0
  1 24  1  0  0  0  0
  1 25  1  0  0  0  0
  1 26  1  0  0  0  0
  2  3  1  0  0  0  0
  2 27  1  0  0  0  0
  2 28  1  0  0  0  0
  3  4  1  0  0  0  0
  3  5  1  0  0  0  0
  3  7  1  0  0  0  0
  4 29  1  0  0  0  0
  4 30  1  0  0  0  0
  4 31  1  0  0  0  0
  5  6  1  0  0  0  0
  5 32  1  0  0  0  0
  5 33  1  0  0  0  0
  6 34  1  0  0  0  0
  6 35  1  0  0  0  0
  6 36  1  0  0  0  0
  7  8  1  0  0  0  0
  7 37  1  0  0  0  0
  7 38  1  0  0  0  0
  8  9  1  0  0  0  0
  8 39  1  0  0  0  0
  8 40  1  0  0  0  0
  9 10  1  0  0  0  0
 10 11  1  0  0  0  0
 10 17  1  0  0  0  0
 10 41  1  0  0  0  0
 11 12  2  0  0  0  0
 11 16  1  0  0  0  0
 12 13  1  0  0  0  0
 12 42  1  0  0  0  0
 13 14  2  0  0  0  0
 13 43  1  0  0  0  0
 14 15  1  0  0  0  0
 14 44  1  0  0  0  0
 15 16  2  0  0  0  0
 15 45  1  0  0  0  0
 16 46  1  0  0  0  0
 17 18  2  0  0  0  0
 17 22  1  0  0  0  0
 18 19  1  0  0  0  0
 18 47  1  0  0  0  0
 19 20  2  0  0  0  0
 19 48  1  0  0  0  0
 20 21  1  0  0  0  0
 20 49  1  0  0  0  0
 21 22  2  0  0  0  0
 21 50  1  0  0  0  0
 22 51  1  0  0  0  0
M  CHG  2   3   1  23  -1
M  END
>  <DRUGBANK_ID>
DB13769

>  <COMMON_NAME>
Emetonium iodide

>  <CAS_NUMBER>
5982-52-5

>  <UNII>
CW3OT0Y51W

>  <SYNONYMS>
(2-benzhydryloxyethyl)diethyl-methylammonium iodide; Ethylbenzhydramine methyl iodide

$$$$
