JCL
 OpenBabel10282417173D

 30 30  0  0  0  0  0  0  0  0999 V2000
   -0.8119    1.0811   -0.0882 N   0  0  0  0  0  0  0  0  0  0  0  0
   -0.7518   -1.2188    0.0205 N   0  0  0  0  0  0  0  0  0  0  0  0
    0.6006   -1.2181    0.0203 C   0  0  0  0  0  0  0  0  0  0  0  0
    1.2670   -2.7945   -0.0454 Cl  0  0  0  0  0  0  0  0  0  0  0  0
    1.3041   -0.0850    0.0505 C   0  0  0  0  0  0  0  0  0  0  0  0
    2.7855   -0.0264   -0.0881 C   0  0  0  0  0  0  0  0  0  0  0  0
   -1.5064   -0.0855   -0.0307 C   0  0  0  0  0  0  0  0  0  0  0  0
    0.4988    1.1556    0.2248 C   0  0  0  0  0  0  0  0  0  0  0  0
   -2.7272   -0.1074    0.0013 O   0  0  0  0  0  0  0  0  0  0  0  0
    0.9536    2.2270    0.6324 O   0  0  0  0  0  0  0  0  0  0  0  0
    3.1895    0.6662   -1.4104 C   0  0  0  0  0  0  0  0  0  0  0  0
    2.9365    2.1675   -1.3856 C   0  0  0  0  0  0  0  0  0  0  0  0
    3.5075    2.7892   -0.1108 C   0  0  0  0  0  0  0  0  0  0  0  0
    4.9049    2.6740   -0.1723 O   0  0  0  0  0  0  0  0  0  0  0  0
    5.8379    1.4246    0.1782 P   0  0  0  0  0  0  0  0  0  0  0  0
    6.9750    1.7947   -0.8727 O   0  0  0  0  0  0  0  0  0  0  0  0
    6.3452    1.8771    1.6103 O   0  0  0  0  0  0  0  0  0  0  0  0
    5.4325   -0.0012    0.0787 O   0  0  0  0  0  0  0  0  0  0  0  0
   -1.3375    1.9354    0.0237 H   0  0  0  0  0  0  0  0  0  0  0  0
   -1.2355   -2.1053    0.0157 H   0  0  0  0  0  0  0  0  0  0  0  0
    3.1957    0.4340    0.8189 H   0  0  0  0  0  0  0  0  0  0  0  0
    3.2343   -1.0258   -0.0850 H   0  0  0  0  0  0  0  0  0  0  0  0
    4.2459    0.5328   -1.6543 H   0  0  0  0  0  0  0  0  0  0  0  0
    2.6949    0.1877   -2.2599 H   0  0  0  0  0  0  0  0  0  0  0  0
    3.4291    2.6275   -2.2497 H   0  0  0  0  0  0  0  0  0  0  0  0
    1.8716    2.3652   -1.5319 H   0  0  0  0  0  0  0  0  0  0  0  0
    3.2463    3.8540   -0.0937 H   0  0  0  0  0  0  0  0  0  0  0  0
    3.1519    2.3999    0.8459 H   0  0  0  0  0  0  0  0  0  0  0  0
    6.5869    1.6582   -1.7599 H   0  0  0  0  0  0  0  0  0  0  0  0
    5.5798    2.2226    2.1037 H   0  0  0  0  0  0  0  0  0  0  0  0
  1  7  1  0  0  0  0
  1  8  1  0  0  0  0
  1 19  1  0  0  0  0
  2  3  1  0  0  0  0
  2  7  1  0  0  0  0
  2 20  1  0  0  0  0
  3  4  1  0  0  0  0
  3  5  2  0  0  0  0
  5  6  1  0  0  0  0
  5  8  1  0  0  0  0
  6 11  1  0  0  0  0
  6 21  1  0  0  0  0
  6 22  1  0  0  0  0
  7  9  2  0  0  0  0
  8 10  2  0  0  0  0
 11 12  1  0  0  0  0
 11 23  1  0  0  0  0
 11 24  1  0  0  0  0
 12 13  1  0  0  0  0
 12 25  1  0  0  0  0
 12 26  1  0  0  0  0
 13 14  1  0  0  0  0
 13 27  1  0  0  0  0
 13 28  1  0  0  0  0
 14 15  1  0  0  0  0
 15 16  1  0  0  0  0
 15 17  1  0  0  0  0
 15 18  2  0  0  0  0
 16 29  1  0  0  0  0
 17 30  1  0  0  0  0
M  END
>  <DRUGBANK_ID>
DB08016

>  <COMMON_NAME>
4-(6-CHLORO-2,4-DIOXO-1,2,3,4-TETRAHYDROPYRIMIDIN-5-YL) BUTYL PHOSPHATE

$$$$
