1460
 OpenBabel10282417113D

 36 37  0  0  0  0  0  0  0  0999 V2000
    0.9562   -0.2403   -0.4561 N   0  0  0  0  0  0  0  0  0  0  0  0
   -0.0893    0.3982    4.9911 N   0  0  0  0  0  0  0  0  0  0  0  0
    0.5634   -1.4320    0.4095 C   0  0  0  0  0  0  0  0  0  0  0  0
    1.1957   -1.7147    1.9599 C   0  0  0  0  0  0  0  0  0  0  0  0
    1.0613   -0.6636    3.3075 C   0  0  0  0  0  0  0  0  0  0  0  0
    1.6092    0.8128    3.5670 C   0  0  0  0  0  0  0  0  0  0  0  0
    0.1804    0.9636   -0.0591 C   0  0  0  0  0  0  0  0  0  0  0  0
    2.4260   -0.0453   -0.3828 C   0  0  0  0  0  0  0  0  0  0  0  0
    0.6695    1.4208    4.4049 C   0  0  0  0  0  0  0  0  0  0  0  0
    0.0698   -0.7974    4.2739 C   0  0  0  0  0  0  0  0  0  0  0  0
    2.4108    1.7625    2.7671 C   0  0  0  0  0  0  0  0  0  0  0  0
    0.1567    0.9023    1.3876 C   0  0  0  0  0  0  0  0  0  0  0  0
    3.0936   -1.0316   -1.3127 C   0  0  0  0  0  0  0  0  0  0  0  0
    0.4817    2.8438    4.4623 C   0  0  0  0  0  0  0  0  0  0  0  0
    1.9905    3.1157    2.6045 C   0  0  0  0  0  0  0  0  0  0  0  0
    1.0871    3.6648    3.4848 C   0  0  0  0  0  0  0  0  0  0  0  0
   -0.8204    0.5555    5.6386 H   0  0  0  0  0  0  0  0  0  0  0  0
   -0.5399   -1.4639    0.4303 H   0  0  0  0  0  0  0  0  0  0  0  0
    0.7963   -2.3066   -0.2196 H   0  0  0  0  0  0  0  0  0  0  0  0
    0.7018   -2.6617    2.2570 H   0  0  0  0  0  0  0  0  0  0  0  0
    2.2575   -1.9435    1.8467 H   0  0  0  0  0  0  0  0  0  0  0  0
    0.6181    1.9290   -0.3468 H   0  0  0  0  0  0  0  0  0  0  0  0
   -0.8846    0.9435   -0.2847 H   0  0  0  0  0  0  0  0  0  0  0  0
    2.7317    0.9764   -0.6484 H   0  0  0  0  0  0  0  0  0  0  0  0
    2.8508   -0.2320    0.6097 H   0  0  0  0  0  0  0  0  0  0  0  0
   -0.6711   -1.5834    4.4526 H   0  0  0  0  0  0  0  0  0  0  0  0
    3.0372    1.4098    1.9519 H   0  0  0  0  0  0  0  0  0  0  0  0
    1.1859    0.6064    1.5249 H   0  0  0  0  0  0  0  0  0  0  0  0
   -0.0847    1.8071    1.9073 H   0  0  0  0  0  0  0  0  0  0  0  0
   -0.4999    0.1229    1.7687 H   0  0  0  0  0  0  0  0  0  0  0  0
    2.7753   -0.8454   -2.3402 H   0  0  0  0  0  0  0  0  0  0  0  0
    4.1808   -0.9415   -1.2432 H   0  0  0  0  0  0  0  0  0  0  0  0
    2.8334   -2.0561   -1.0319 H   0  0  0  0  0  0  0  0  0  0  0  0
   -0.2378    3.3040    5.1275 H   0  0  0  0  0  0  0  0  0  0  0  0
    2.2573    3.6758    1.6949 H   0  0  0  0  0  0  0  0  0  0  0  0
    0.8085    4.7172    3.3755 H   0  0  0  0  0  0  0  0  0  0  0  0
  1  3  1  0  0  0  0
  1  7  1  0  0  0  0
  1  8  1  0  0  0  0
  2  9  1  0  0  0  0
  2 10  1  0  0  0  0
  2 17  1  0  0  0  0
  3  4  1  0  0  0  0
  3 18  1  0  0  0  0
  3 19  1  0  0  0  0
  4  5  1  0  0  0  0
  4 20  1  0  0  0  0
  4 21  1  0  0  0  0
  5  6  1  0  0  0  0
  5 10  2  0  0  0  0
  6  9  1  0  0  0  0
  6 11  2  0  0  0  0
  7 12  1  0  0  0  0
  7 22  1  0  0  0  0
  7 23  1  0  0  0  0
  8 13  1  0  0  0  0
  8 24  1  0  0  0  0
  8 25  1  0  0  0  0
  9 14  2  0  0  0  0
 10 26  1  0  0  0  0
 11 15  1  0  0  0  0
 11 27  1  0  0  0  0
 12 28  1  0  0  0  0
 12 29  1  0  0  0  0
 12 30  1  0  0  0  0
 13 31  1  0  0  0  0
 13 32  1  0  0  0  0
 13 33  1  0  0  0  0
 14 16  1  0  0  0  0
 14 34  1  0  0  0  0
 15 16  2  0  0  0  0
 15 35  1  0  0  0  0
 16 36  1  0  0  0  0
M  END
>  <DRUGBANK_ID>
DB01460

>  <COMMON_NAME>
Diethyltryptamine

>  <CAS_NUMBER>
61-51-8

>  <UNII>
916E8V4S2V

>  <SYNONYMS>
3-(2-Diethylaminoethyl)indole; DET; N,N-Diethyltryptamine

$$$$
