
 OpenBabel10282417153D

 74 78  0  0  0  0  0  0  0  0999 V2000
    0.2500    0.0464   -0.4814 C   0  0  0  0  0  0  0  0  0  0  0  0
    2.3060    5.2116   -3.2620 C   0  0  0  0  0  0  0  0  0  0  0  0
    2.7059   -1.6332    0.0325 C   0  0  0  0  0  0  0  0  0  0  0  0
    1.9651   -0.9925   -0.8684 C   0  0  0  0  0  0  0  0  0  0  0  0
    3.9694   -1.5539   -0.4022 C   0  0  0  0  0  0  0  0  0  0  0  0
    2.4984    0.2023   -5.5810 C   0  0  0  0  0  0  0  0  0  0  0  0
    2.0495    1.6683   -5.8972 C   0  0  0  0  0  0  0  0  0  0  0  0
    0.8981   -2.5850   -2.8015 C   0  0  0  0  0  0  0  0  0  0  0  0
    0.3657    1.9418   -4.8244 C   0  0  0  0  0  0  0  0  0  0  0  0
   -0.2757   -1.5122   -2.7832 C   0  0  0  0  0  0  0  0  0  0  0  0
    2.0188    1.3212   -3.8237 C   0  0  0  0  0  0  0  0  0  0  0  0
    3.5201    0.2851   -1.8803 C   0  0  0  0  0  0  0  0  0  0  0  0
    2.3274   -1.8247   -4.5450 C   0  0  0  0  0  0  0  0  0  0  0  0
   -0.1934    4.1416   -2.2208 C   0  0  0  0  0  0  0  0  0  0  0  0
    1.3115    2.1336   -1.7991 C   0  0  0  0  0  0  0  0  0  0  0  0
    5.3838    2.1340   -2.3568 C   0  0  0  0  0  0  0  0  0  0  0  0
    2.2708    0.4888   -1.4379 C   0  0  0  0  0  0  0  0  0  0  0  0
    4.3703   -0.6111   -1.3641 C   0  0  0  0  0  0  0  0  0  0  0  0
    1.4353   -0.8242   -4.3344 C   0  0  0  0  0  0  0  0  0  0  0  0
    1.3717   -2.8048   -4.1742 C   0  0  0  0  0  0  0  0  0  0  0  0
    0.8846    2.2262   -4.3664 C   0  0  3  0  0  0  0  0  0  0  0  0
    0.5790    3.6834   -4.5820 C   0  0  3  0  0  0  0  0  0  0  0  0
   -0.5717    2.4843   -1.2335 C   0  0  3  0  0  0  0  0  0  0  0  0
    4.2949    2.5124   -3.4109 C   0  0  0  0  0  0  0  0  0  0  0  0
   -0.2025    1.1909   -2.8671 C   0  0  3  0  0  0  0  0  0  0  0  0
    5.5946   -0.4589   -2.1290 C   0  0  0  0  0  0  0  0  0  0  0  0
    0.4879   -0.2824   -2.5343 C   0  0  3  0  0  0  0  0  0  0  0  0
    1.4473    4.0419   -3.2841 C   0  0  3  0  0  0  0  0  0  0  0  0
    2.8715    2.7131   -2.9285 C   0  0  3  0  0  0  0  0  0  0  0  0
    1.7895    4.2896    0.0054 N   0  0  0  0  0  0  0  0  0  0  0  0
    0.7821   -3.4278   -5.0397 O   0  0  0  0  0  0  0  0  0  0  0  0
    0.6255    2.2035   -0.0171 O   0  0  0  0  0  0  0  0  0  0  0  0
    4.5391    2.3470   -4.6044 O   0  0  0  0  0  0  0  0  0  0  0  0
    6.0911   -1.5090   -2.5040 O   0  0  0  0  0  0  0  0  0  0  0  0
    3.3667    2.7306   -1.4006 O   0  0  0  0  0  0  0  0  0  0  0  0
    1.8286    3.6366    1.0357 O   0  0  0  0  0  0  0  0  0  0  0  0
    2.0133    5.4788   -0.1733 O   0  0  0  0  0  0  0  0  0  0  0  0
    5.9991    0.8050   -2.5746 O   0  0  0  0  0  0  0  0  0  0  0  0
    1.6566    3.6461   -1.2090 O   0  0  0  0  0  0  0  0  0  0  0  0
    0.1676   -0.7618    0.3364 H   0  0  0  0  0  0  0  0  0  0  0  0
   -0.3297    0.7109    0.2180 H   0  0  0  0  0  0  0  0  0  0  0  0
    1.3171    0.4148    0.2198 H   0  0  0  0  0  0  0  0  0  0  0  0
    2.6791    5.3414   -2.2605 H   0  0  0  0  0  0  0  0  0  0  0  0
    3.2164    4.9993   -3.8280 H   0  0  0  0  0  0  0  0  0  0  0  0
    1.6539    6.0007   -3.5563 H   0  0  0  0  0  0  0  0  0  0  0  0
    2.2517   -1.9678    0.9680 H   0  0  0  0  0  0  0  0  0  0  0  0
    0.9598   -1.5929   -0.8262 H   0  0  0  0  0  0  0  0  0  0  0  0
    4.6143   -2.3306   -0.0797 H   0  0  0  0  0  0  0  0  0  0  0  0
    3.5576    0.2888   -5.1775 H   0  0  0  0  0  0  0  0  0  0  0  0
    2.8192   -0.1788   -6.5756 H   0  0  0  0  0  0  0  0  0  0  0  0
    2.8641    2.3993   -6.2024 H   0  0  0  0  0  0  0  0  0  0  0  0
    1.4988    1.7433   -6.8251 H   0  0  0  0  0  0  0  0  0  0  0  0
    1.8936   -2.2140   -2.4627 H   0  0  0  0  0  0  0  0  0  0  0  0
    0.7761   -3.4339   -2.1701 H   0  0  0  0  0  0  0  0  0  0  0  0
   -0.8306    1.8569   -4.5608 H   0  0  0  0  0  0  0  0  0  0  0  0
    0.1129    1.4490   -5.8895 H   0  0  0  0  0  0  0  0  0  0  0  0
   -1.0363   -1.6363   -2.0218 H   0  0  0  0  0  0  0  0  0  0  0  0
   -0.7383   -1.1775   -3.7222 H   0  0  0  0  0  0  0  0  0  0  0  0
    2.3604    0.3203   -3.3704 H   0  0  0  0  0  0  0  0  0  0  0  0
    1.2212    0.7414   -3.7481 H   0  0  0  0  0  0  0  0  0  0  0  0
    3.8455    0.4788   -2.9053 H   0  0  0  0  0  0  0  0  0  0  0  0
    3.3667   -1.5882   -4.2552 H   0  0  0  0  0  0  0  0  0  0  0  0
   -1.0230    4.0654   -2.9646 H   0  0  0  0  0  0  0  0  0  0  0  0
   -0.1865    5.0665   -1.6653 H   0  0  0  0  0  0  0  0  0  0  0  0
    0.8660    2.5235   -2.7368 H   0  0  0  0  0  0  0  0  0  0  0  0
    0.2591    2.5567   -2.5247 H   0  0  0  0  0  0  0  0  0  0  0  0
    6.0226    2.9993   -2.5127 H   0  0  0  0  0  0  0  0  0  0  0  0
    5.1712    2.1847   -1.2836 H   0  0  0  0  0  0  0  0  0  0  0  0
    2.0263    2.7825   -4.4855 H   0  0  0  0  0  0  0  0  0  0  0  0
    0.4785    4.3938   -5.3545 H   0  0  0  0  0  0  0  0  0  0  0  0
   -0.9427    2.7850   -0.2412 H   0  0  0  0  0  0  0  0  0  0  0  0
   -1.1816    0.8663   -2.3976 H   0  0  0  0  0  0  0  0  0  0  0  0
    1.6248    2.2693   -0.1833 H   0  0  0  0  0  0  0  0  0  0  0  0
    3.3827    1.9593   -0.7674 H   0  0  0  0  0  0  0  0  0  0  0  0
  1 40  1  0  0  0  0
  1 41  1  0  0  0  0
  1 42  1  0  0  0  0
  2 43  1  0  0  0  0
  2 44  1  0  0  0  0
  2 45  1  0  0  0  0
  3 46  1  0  0  0  0
  4  3  2  0  0  0  0
  4 47  1  0  0  0  0
  5  3  1  0  0  0  0
  5 48  1  0  0  0  0
  6 49  1  0  0  0  0
  6 50  1  0  0  0  0
  7  6  1  0  0  0  0
  7 51  1  0  0  0  0
  7 52  1  0  0  0  0
  8 53  1  0  0  0  0
  8 54  1  0  0  0  0
  9 55  1  0  0  0  0
  9 56  1  0  0  0  0
 10  8  1  0  0  0  0
 10 57  1  0  0  0  0
 10 58  1  0  0  0  0
 11  9  1  0  0  0  0
 11 59  1  0  0  0  0
 11 60  1  0  0  0  0
 12 61  1  0  0  0  0
 13 62  1  0  0  0  0
 14 63  1  0  0  0  0
 14 64  1  0  0  0  0
 15 65  1  0  0  0  0
 15 66  1  0  0  0  0
 16 67  1  0  0  0  0
 16 68  1  0  0  0  0
 17  4  1  0  0  0  0
 17 12  2  0  0  0  0
 17 15  1  0  0  0  0
 18  5  2  0  0  0  0
 18 12  1  0  0  0  0
 19  6  1  0  0  0  0
 19 13  2  0  0  0  0
 20  8  1  0  0  0  0
 20 13  1  0  0  0  0
 21  7  1  0  0  0  0
 21 69  1  0  0  0  0
 22  9  1  0  0  0  0
 22 21  1  0  0  0  0
 22 70  1  0  0  0  0
 23 14  1  0  0  0  0
 23 71  1  0  0  0  0
 24 16  1  0  0  0  0
 25 21  1  0  0  0  0
 25 23  1  0  0  0  0
 25 72  1  0  0  0  0
 26 18  1  0  0  0  0
 27  1  1  0  0  0  0
 27 10  1  0  0  0  0
 27 19  1  0  0  0  0
 27 25  1  0  0  0  0
 28  2  1  0  0  0  0
 28 14  1  0  0  0  0
 28 22  1  0  0  0  0
 29 11  1  0  0  0  0
 29 24  1  0  0  0  0
 29 28  1  0  0  0  0
 31 20  2  0  0  0  0
 32 23  1  0  0  0  0
 32 73  1  0  0  0  0
 33 24  2  0  0  0  0
 34 26  2  0  0  0  0
 35 29  1  0  0  0  0
 35 74  1  0  0  0  0
 36 30  2  0  0  0  0
 37 30  2  0  0  0  0
 38 16  1  0  0  0  0
 38 26  1  0  0  0  0
 39 15  1  0  0  0  0
 39 30  1  0  0  0  0
M  END
>  <DRUGBANK_ID>
DB05410

>  <COMMON_NAME>
NCX 1022

>  <CAS_NUMBER>
571186-50-0

>  <UNII>
XY2WH7X5M5

$$$$
