
 OpenBabel10282417183D

 52 54  0  0  0  0  0  0  0  0999 V2000
    0.9779    0.0806    0.0549 In  0  1  0  0  0  0  0  0  0  0  0  0
    1.6480    2.0100   -0.0210 O   0  5  0  0  0  0  0  0  0  0  0  0
    1.6480    2.0100   -0.0210 O   0  5  0  0  0  0  0  0  0  0  0  0
    1.6480    2.0100   -0.0210 O   0  5  0  0  0  0  0  0  0  0  0  0
   -0.9620    1.3620    0.0250 N   0  0  0  0  0  0  0  0  0  0  0  0
   -0.9620    1.3620    0.0250 N   0  0  0  0  0  0  0  0  0  0  0  0
   -0.9620    1.3620    0.0250 N   0  0  0  0  0  0  0  0  0  0  0  0
   -0.0550    0.3430    0.0120 C   0  0  0  0  0  0  0  0  0  0  0  0
   -0.0550    0.3430    0.0120 C   0  0  0  0  0  0  0  0  0  0  0  0
   -0.0550    0.3430    0.0120 C   0  0  0  0  0  0  0  0  0  0  0  0
   -0.4270   -1.0280   -0.0040 C   0  0  0  0  0  0  0  0  0  0  0  0
   -0.4270   -1.0280   -0.0040 C   0  0  0  0  0  0  0  0  0  0  0  0
   -0.4270   -1.0280   -0.0040 C   0  0  0  0  0  0  0  0  0  0  0  0
    1.3420    0.7760   -0.0060 C   0  0  0  0  0  0  0  0  0  0  0  0
    1.3420    0.7760   -0.0060 C   0  0  0  0  0  0  0  0  0  0  0  0
    1.3420    0.7760   -0.0060 C   0  0  0  0  0  0  0  0  0  0  0  0
    0.6140   -2.0130    0.0050 C   0  0  0  0  0  0  0  0  0  0  0  0
    0.6140   -2.0130    0.0050 C   0  0  0  0  0  0  0  0  0  0  0  0
    0.6140   -2.0130    0.0050 C   0  0  0  0  0  0  0  0  0  0  0  0
   -1.8260   -1.2870   -0.0180 C   0  0  0  0  0  0  0  0  0  0  0  0
   -1.8260   -1.2870   -0.0180 C   0  0  0  0  0  0  0  0  0  0  0  0
   -1.8260   -1.2870   -0.0180 C   0  0  0  0  0  0  0  0  0  0  0  0
    2.3010   -0.2630    0.0020 C   0  0  0  0  0  0  0  0  0  0  0  0
    2.3010   -0.2630    0.0020 C   0  0  0  0  0  0  0  0  0  0  0  0
    2.3010   -0.2630    0.0020 C   0  0  0  0  0  0  0  0  0  0  0  0
    1.9370   -1.6170    0.0120 C   0  0  0  0  0  0  0  0  0  0  0  0
    1.9370   -1.6170    0.0120 C   0  0  0  0  0  0  0  0  0  0  0  0
    1.9370   -1.6170    0.0120 C   0  0  0  0  0  0  0  0  0  0  0  0
   -2.2440    1.0760    0.0150 C   0  0  0  0  0  0  0  0  0  0  0  0
   -2.2440    1.0760    0.0150 C   0  0  0  0  0  0  0  0  0  0  0  0
   -2.2440    1.0760    0.0150 C   0  0  0  0  0  0  0  0  0  0  0  0
   -2.7170   -0.2540   -0.0190 C   0  0  0  0  0  0  0  0  0  0  0  0
   -2.7170   -0.2540   -0.0190 C   0  0  0  0  0  0  0  0  0  0  0  0
   -2.7170   -0.2540   -0.0190 C   0  0  0  0  0  0  0  0  0  0  0  0
    0.3664   -3.0540    0.0063 H   0  0  0  0  0  0  0  0  0  0  0  0
    0.3664   -3.0540    0.0063 H   0  0  0  0  0  0  0  0  0  0  0  0
    0.3664   -3.0540    0.0063 H   0  0  0  0  0  0  0  0  0  0  0  0
   -2.1808   -2.2964   -0.0278 H   0  0  0  0  0  0  0  0  0  0  0  0
   -2.1808   -2.2964   -0.0278 H   0  0  0  0  0  0  0  0  0  0  0  0
   -2.1808   -2.2964   -0.0278 H   0  0  0  0  0  0  0  0  0  0  0  0
    3.3400   -0.0072    0.0004 H   0  0  0  0  0  0  0  0  0  0  0  0
    3.3400   -0.0072    0.0004 H   0  0  0  0  0  0  0  0  0  0  0  0
    3.3400   -0.0072    0.0004 H   0  0  0  0  0  0  0  0  0  0  0  0
    2.7041   -2.3628    0.0254 H   0  0  0  0  0  0  0  0  0  0  0  0
    2.7041   -2.3628    0.0254 H   0  0  0  0  0  0  0  0  0  0  0  0
    2.7041   -2.3628    0.0254 H   0  0  0  0  0  0  0  0  0  0  0  0
   -2.9531    1.8771    0.0332 H   0  0  0  0  0  0  0  0  0  0  0  0
   -2.9531    1.8771    0.0332 H   0  0  0  0  0  0  0  0  0  0  0  0
   -2.9531    1.8771    0.0332 H   0  0  0  0  0  0  0  0  0  0  0  0
   -3.7685   -0.4505   -0.0454 H   0  0  0  0  0  0  0  0  0  0  0  0
   -3.7685   -0.4505   -0.0454 H   0  0  0  0  0  0  0  0  0  0  0  0
   -3.7685   -0.4505   -0.0454 H   0  0  0  0  0  0  0  0  0  0  0  0
  2 14  1  0  0  0  0
  3 15  1  0  0  0  0
  4 16  1  0  0  0  0
  5  8  1  0  0  0  0
  5 29  2  0  0  0  0
  6  9  1  0  0  0  0
  6 30  2  0  0  0  0
  7 10  1  0  0  0  0
  7 31  2  0  0  0  0
  8 11  2  0  0  0  0
  8 14  1  0  0  0  0
  9 12  2  0  0  0  0
  9 15  1  0  0  0  0
 10 13  2  0  0  0  0
 10 16  1  0  0  0  0
 11 17  1  0  0  0  0
 11 20  1  0  0  0  0
 12 18  1  0  0  0  0
 12 21  1  0  0  0  0
 13 19  1  0  0  0  0
 13 22  1  0  0  0  0
 14 23  2  0  0  0  0
 15 24  2  0  0  0  0
 16 25  2  0  0  0  0
 17 26  2  0  0  0  0
 17 35  1  0  0  0  0
 18 27  2  0  0  0  0
 18 36  1  0  0  0  0
 19 28  2  0  0  0  0
 19 37  1  0  0  0  0
 20 32  2  0  0  0  0
 20 38  1  0  0  0  0
 21 33  2  0  0  0  0
 21 39  1  0  0  0  0
 22 34  2  0  0  0  0
 22 40  1  0  0  0  0
 23 26  1  0  0  0  0
 23 41  1  0  0  0  0
 24 27  1  0  0  0  0
 24 42  1  0  0  0  0
 25 28  1  0  0  0  0
 25 43  1  0  0  0  0
 26 44  1  0  0  0  0
 27 45  1  0  0  0  0
 28 46  1  0  0  0  0
 29 32  1  0  0  0  0
 29 47  1  0  0  0  0
 30 33  1  0  0  0  0
 30 48  1  0  0  0  0
 31 34  1  0  0  0  0
 31 49  1  0  0  0  0
 32 50  1  0  0  0  0
 33 51  1  0  0  0  0
 34 52  1  0  0  0  0
M  ISO  1   1 111
M  CHG  4   1   3   2  -1   3  -1   4  -1
M  END
>  <DRUGBANK_ID>
DB09473

>  <COMMON_NAME>
Indium In-111 oxyquinoline

>  <CAS_NUMBER>
65389-08-4

>  <UNII>
LGX9OL562T

>  <SYNONYMS>
In-111 oxyquinoline; Indium (111 In) oxyquinoline; Indium (In111) oxine; Indium (In111) oxyquinoline; Indium 111In oxyquinoline; Indium In-111 oxine; Indium In111 oxine; Indium-111 oxine; Indium-111 oxyquinoline

$$$$
