
 OpenBabel10282417123D

 23 22  0  0  1  0  0  0  0  0999 V2000
    0.9293   -0.0107    0.0695 C   0  0  0  0  0  0  0  0  0  0  0  0
    0.3975   -0.6479    1.3575 C   0  0  0  0  0  0  0  0  0  0  0  0
    0.9476    0.1520    2.5505 C   0  0  0  0  0  0  0  0  0  0  0  0
   -1.1601   -0.7492    1.3954 C   0  0  1  0  0  0  0  0  0  0  0  0
   -1.6553   -1.5552    0.2598 N   0  0  0  0  0  0  0  0  0  0  0  0
   -2.5212   -2.5948    0.3872 C   0  0  0  0  0  0  0  0  0  0  0  0
   -2.8019   -3.2478   -0.7569 N   0  0  0  0  0  0  0  0  0  0  0  0
   -3.0342   -2.9888    1.4246 O   0  0  0  0  0  0  0  0  0  0  0  0
   -1.5291   -1.3143    2.7957 C   0  0  0  0  0  0  0  0  0  0  0  0
   -2.3195   -0.4989    3.5388 O   0  0  0  0  0  0  0  0  0  0  0  0
   -1.0862   -2.3625    3.2489 O   0  0  0  0  0  0  0  0  0  0  0  0
    0.5826    1.0229   -0.0319 H   0  0  0  0  0  0  0  0  0  0  0  0
    0.6220   -0.5678   -0.8193 H   0  0  0  0  0  0  0  0  0  0  0  0
    2.0259    0.0032    0.0755 H   0  0  0  0  0  0  0  0  0  0  0  0
    0.8084   -1.6655    1.4162 H   0  0  0  0  0  0  0  0  0  0  0  0
    0.5948    1.1882    2.5239 H   0  0  0  0  0  0  0  0  0  0  0  0
    0.6491   -0.2803    3.5102 H   0  0  0  0  0  0  0  0  0  0  0  0
    2.0426    0.1625    2.5397 H   0  0  0  0  0  0  0  0  0  0  0  0
   -1.5798    0.2584    1.2753 H   0  0  0  0  0  0  0  0  0  0  0  0
   -1.4412   -1.2502   -0.6778 H   0  0  0  0  0  0  0  0  0  0  0  0
   -3.4115   -4.0479   -0.6369 H   0  0  0  0  0  0  0  0  0  0  0  0
   -2.5574   -2.9577   -1.6874 H   0  0  0  0  0  0  0  0  0  0  0  0
   -2.6176    0.3194    3.1052 H   0  0  0  0  0  0  0  0  0  0  0  0
  1  2  1  0  0  0  0
  1 12  1  0  0  0  0
  1 13  1  0  0  0  0
  1 14  1  0  0  0  0
  2  3  1  0  0  0  0
  2  4  1  0  0  0  0
  2 15  1  0  0  0  0
  3 16  1  0  0  0  0
  3 17  1  0  0  0  0
  3 18  1  0  0  0  0
  4  5  1  0  0  0  0
  4  9  1  0  0  0  0
  4 19  1  6  0  0  0
  5  6  1  0  0  0  0
  5 20  1  0  0  0  0
  6  7  1  0  0  0  0
  6  8  2  0  0  0  0
  7 21  1  0  0  0  0
  7 22  1  0  0  0  0
  9 10  1  0  0  0  0
  9 11  2  0  0  0  0
 10 23  1  0  0  0  0
M  END
>  <DRUGBANK_ID>
DB01847

>  <SECONDARY_ACCESSION_NUMBERS>
EXPT00879

>  <COMMON_NAME>
N-Carbamyl-D-Valine

$$$$
