532
 OpenBabel10282417103D

 30 31  0  0  1  0  0  0  0  0999 V2000
    1.0298   -0.1032   -0.0427 O   0  0  0  0  0  0  0  0  0  0  0  0
    5.2494   -1.4292    0.7779 O   0  0  0  0  0  0  0  0  0  0  0  0
    4.4239    0.6237    0.1222 N   0  0  0  0  0  0  0  0  0  0  0  0
    3.0949   -1.1318   -0.0153 N   0  0  0  0  0  0  0  0  0  0  0  0
    3.1092    1.2449    0.1733 C   0  0  3  0  0  0  0  0  0  0  0  0
    2.9313    1.9103    1.5584 C   0  0  0  0  0  0  0  0  0  0  0  0
    2.2510   -0.0530    0.0261 C   0  0  0  0  0  0  0  0  0  0  0  0
    2.8314    2.2130   -0.9764 C   0  0  0  0  0  0  0  0  0  0  0  0
    4.3420   -0.7347    0.3355 C   0  0  0  0  0  0  0  0  0  0  0  0
    3.9420    3.0525    1.8096 C   0  0  0  0  0  0  0  0  0  0  0  0
    3.0030    1.8334   -2.3114 C   0  0  0  0  0  0  0  0  0  0  0  0
    2.3330    3.5139   -0.7371 C   0  0  0  0  0  0  0  0  0  0  0  0
    2.7832   -2.4371   -0.5558 C   0  0  0  0  0  0  0  0  0  0  0  0
    2.7503    2.7482   -3.3396 C   0  0  0  0  0  0  0  0  0  0  0  0
    2.1390    4.4411   -1.7477 C   0  0  0  0  0  0  0  0  0  0  0  0
    2.3634    4.0594   -3.0553 C   0  0  0  0  0  0  0  0  0  0  0  0
    5.3044    1.1128    0.1973 H   0  0  0  0  0  0  0  0  0  0  0  0
    1.9021    2.2844    1.6499 H   0  0  0  0  0  0  0  0  0  0  0  0
    3.0391    1.1795    2.3672 H   0  0  0  0  0  0  0  0  0  0  0  0
    4.0049    3.8015    1.0130 H   0  0  0  0  0  0  0  0  0  0  0  0
    3.6740    3.6013    2.7153 H   0  0  0  0  0  0  0  0  0  0  0  0
    4.9566    2.6616    1.9049 H   0  0  0  0  0  0  0  0  0  0  0  0
    3.3080    0.8207   -2.5676 H   0  0  0  0  0  0  0  0  0  0  0  0
    2.0909    3.8715    0.2597 H   0  0  0  0  0  0  0  0  0  0  0  0
    3.4759   -2.6298   -1.3877 H   0  0  0  0  0  0  0  0  0  0  0  0
    2.9351   -3.2205    0.1888 H   0  0  0  0  0  0  0  0  0  0  0  0
    1.7658   -2.4629   -0.9549 H   0  0  0  0  0  0  0  0  0  0  0  0
    2.8459    2.4345   -4.3743 H   0  0  0  0  0  0  0  0  0  0  0  0
    1.7982    5.4404   -1.4914 H   0  0  0  0  0  0  0  0  0  0  0  0
    2.2092    4.7802   -3.8507 H   0  0  0  0  0  0  0  0  0  0  0  0
  1  7  2  0  0  0  0
  2  9  2  0  0  0  0
  3  5  1  0  0  0  0
  3  9  1  0  0  0  0
  3 17  1  0  0  0  0
  4  7  1  0  0  0  0
  4  9  1  0  0  0  0
  4 13  1  0  0  0  0
  5  6  1  0  0  0  0
  5  7  1  0  0  0  0
  5  8  1  0  0  0  0
  6 10  1  0  0  0  0
  6 18  1  0  0  0  0
  6 19  1  0  0  0  0
  8 11  2  0  0  0  0
  8 12  1  0  0  0  0
 10 20  1  0  0  0  0
 10 21  1  0  0  0  0
 10 22  1  0  0  0  0
 11 14  1  0  0  0  0
 11 23  1  0  0  0  0
 12 15  2  0  0  0  0
 12 24  1  0  0  0  0
 13 25  1  0  0  0  0
 13 26  1  0  0  0  0
 13 27  1  0  0  0  0
 14 16  2  0  0  0  0
 14 28  1  0  0  0  0
 15 16  1  0  0  0  0
 15 29  1  0  0  0  0
 16 30  1  0  0  0  0
M  END
>  <DRUGBANK_ID>
DB00532

>  <SECONDARY_ACCESSION_NUMBERS>
APRD00512

>  <COMMON_NAME>
Mephenytoin

>  <CAS_NUMBER>
50-12-4

>  <UNII>
R420KW629U

>  <SYNONYMS>
mefenitoÃ­na; Mephenytoin

$$$$
