
 OpenBabel10282417233D

 32 34  0  0  0  0  0  0  0  0999 V2000
    0.0516   -0.3245    0.0235 C   0  0  0  0  0  0  0  0  0  0  0  0
   -0.3278    1.0195    0.0359 C   0  0  0  0  0  0  0  0  0  0  0  0
    1.4947   -0.6413    0.0182 C   0  0  0  0  0  0  0  0  0  0  0  0
   -0.9363   -1.3243    0.0022 C   0  0  0  0  0  0  0  0  0  0  0  0
    0.5783    2.0572    0.0448 O   0  0  0  0  0  0  0  0  0  0  0  0
   -1.6848    1.3602    0.0295 C   0  0  0  0  0  0  0  0  0  0  0  0
    2.4371    0.5093   -0.0442 C   0  0  0  0  0  0  0  0  0  0  0  0
    1.9289   -1.7886    0.0555 O   0  0  0  0  0  0  0  0  0  0  0  0
   -2.2919   -0.9879   -0.0182 C   0  0  0  0  0  0  0  0  0  0  0  0
   -0.5777   -2.6424   -0.0102 O   0  0  0  0  0  0  0  0  0  0  0  0
    1.9314    1.7585   -0.0494 C   0  0  0  0  0  0  0  0  0  0  0  0
   -2.6525    0.3566   -0.0070 C   0  0  0  0  0  0  0  0  0  0  0  0
    3.7875    0.2039   -0.0870 O   0  0  0  0  0  0  0  0  0  0  0  0
    2.8119    2.9478   -0.1193 C   0  0  0  0  0  0  0  0  0  0  0  0
   -3.9606    0.7442   -0.0396 O   0  0  0  0  0  0  0  0  0  0  0  0
    2.8772    3.9014    0.9075 C   0  0  0  0  0  0  0  0  0  0  0  0
    3.6725    3.1089   -1.2256 C   0  0  0  0  0  0  0  0  0  0  0  0
    3.7621    4.9796    0.8310 C   0  0  0  0  0  0  0  0  0  0  0  0
    2.1234    3.8234    2.0472 O   0  0  0  0  0  0  0  0  0  0  0  0
    4.5771    4.1751   -1.2940 C   0  0  0  0  0  0  0  0  0  0  0  0
    4.6058    5.1091   -0.2666 C   0  0  0  0  0  0  0  0  0  0  0  0
    5.4575    6.1735   -0.2960 O   0  0  0  0  0  0  0  0  0  0  0  0
   -1.9964    2.4019    0.0397 H   0  0  0  0  0  0  0  0  0  0  0  0
   -3.0490   -1.7648   -0.0477 H   0  0  0  0  0  0  0  0  0  0  0  0
   -1.3462   -3.2311   -0.0244 H   0  0  0  0  0  0  0  0  0  0  0  0
    4.3159    1.0147   -0.0322 H   0  0  0  0  0  0  0  0  0  0  0  0
   -4.5369   -0.0372   -0.0870 H   0  0  0  0  0  0  0  0  0  0  0  0
    3.6631    2.3841   -2.0395 H   0  0  0  0  0  0  0  0  0  0  0  0
    3.8005    5.7114    1.6330 H   0  0  0  0  0  0  0  0  0  0  0  0
    1.5416    3.0466    1.9980 H   0  0  0  0  0  0  0  0  0  0  0  0
    5.2458    4.2552   -2.1463 H   0  0  0  0  0  0  0  0  0  0  0  0
    5.9701    6.1546   -1.1211 H   0  0  0  0  0  0  0  0  0  0  0  0
  1  2  1  0  0  0  0
  1  3  1  0  0  0  0
  1  4  2  0  0  0  0
  2  5  1  0  0  0  0
  2  6  2  0  0  0  0
  3  7  1  0  0  0  0
  3  8  2  0  0  0  0
  4  9  1  0  0  0  0
  4 10  1  0  0  0  0
  5 11  1  0  0  0  0
  6 12  1  0  0  0  0
  6 23  1  0  0  0  0
  7 13  1  0  0  0  0
  7 11  2  0  0  0  0
  9 12  2  0  0  0  0
  9 24  1  0  0  0  0
 10 25  1  0  0  0  0
 11 14  1  0  0  0  0
 12 15  1  0  0  0  0
 13 26  1  0  0  0  0
 14 16  1  0  0  0  0
 14 17  2  0  0  0  0
 15 27  1  0  0  0  0
 16 18  2  0  0  0  0
 16 19  1  0  0  0  0
 17 20  1  0  0  0  0
 17 28  1  0  0  0  0
 18 21  1  0  0  0  0
 18 29  1  0  0  0  0
 19 30  1  0  0  0  0
 20 21  2  0  0  0  0
 20 31  1  0  0  0  0
 21 22  1  0  0  0  0
 22 32  1  0  0  0  0
M  END
>  <DRUGBANK_ID>
DB16770

>  <COMMON_NAME>
Morin

>  <CAS_NUMBER>
480-16-0

>  <UNII>
8NFQ3F76WR

>  <SYNONYMS>
2-(2,4-Dihydroxyphenyl)-3,5,7-trihydroxy-4h-1-benzopyran-4-one; 2',3,4',5,7-Pentahydroxyflavone; Al-Morin; Aurantica; C.I. Natural yellow 8; Calico Yellow

$$$$
