
 OpenBabel10282417193D

 69 73  0  0  1  0  0  0  0  0999 V2000
    0.9753   -0.0759   -0.0586 C   0  0  0  0  0  0  0  0  0  0  0  0
    0.4782   -1.3401    0.3406 O   0  0  0  0  0  0  0  0  0  0  0  0
    0.7841   -2.3249   -0.5532 C   0  0  0  0  0  0  0  0  0  0  0  0
    2.0858   -2.6264   -0.9658 C   0  0  0  0  0  0  0  0  0  0  0  0
    2.3214   -3.7462   -1.7546 C   0  0  0  0  0  0  0  0  0  0  0  0
    1.2472   -4.5629   -2.0945 C   0  0  0  0  0  0  0  0  0  0  0  0
   -0.0672   -4.2790   -1.6372 C   0  0  0  0  0  0  0  0  0  0  0  0
   -0.2843   -3.1274   -0.9128 C   0  0  0  0  0  0  0  0  0  0  0  0
   -1.0383   -5.2379   -1.5385 N   0  0  0  0  0  0  0  0  0  0  0  0
   -0.5332   -6.4154   -0.9155 C   0  0  0  0  0  0  0  0  0  0  0  0
   -0.5366   -7.3195   -2.0978 C   0  0  0  0  0  0  0  0  0  0  0  0
   -1.9068   -7.9327   -2.2510 N   0  0  0  0  0  0  0  0  0  0  0  0
   -2.6094   -6.7536   -2.9194 C   0  0  0  0  0  0  0  0  0  0  0  0
   -2.4105   -5.3925   -2.0949 C   0  0  0  0  0  0  0  0  0  0  0  0
   -2.3525   -8.9026   -1.1934 C   0  0  0  0  0  0  0  0  0  0  0  0
   -1.8739   -8.6576    0.0796 N   0  0  0  0  0  0  0  0  0  0  0  0
   -1.1806   -9.7365    0.8910 C   0  0  0  0  0  0  0  0  0  0  0  0
   -0.8407  -10.9236    0.1751 C   0  0  0  0  0  0  0  0  0  0  0  0
   -0.6843  -12.1717    0.7890 C   0  0  0  0  0  0  0  0  0  0  0  0
   -0.8626  -12.2980    2.1541 C   0  0  0  0  0  0  0  0  0  0  0  0
   -1.0435  -11.1517    2.9309 C   0  0  0  0  0  0  0  0  0  0  0  0
   -1.2015   -9.8740    2.3172 C   0  0  0  0  0  0  0  0  0  0  0  0
   -1.7370   -8.9224    3.1059 F   0  0  0  0  0  0  0  0  0  0  0  0
   -0.9765  -10.8949   -1.3334 C   0  0  1  0  0  0  0  0  0  0  0  0
   -2.3111  -10.2958   -1.7403 N   0  0  0  0  0  0  0  0  0  0  0  0
   -3.3683  -11.3964   -1.6672 C   0  0  0  0  0  0  0  0  0  0  0  0
   -4.0354  -11.8202   -2.8432 C   0  0  0  0  0  0  0  0  0  0  0  0
   -4.8316  -13.0322   -2.8783 C   0  0  0  0  0  0  0  0  0  0  0  0
   -4.9089  -13.8950   -1.7769 C   0  0  0  0  0  0  0  0  0  0  0  0
   -4.2251  -13.5603   -0.6499 C   0  0  0  0  0  0  0  0  0  0  0  0
   -3.6325  -12.2910   -0.5633 C   0  0  0  0  0  0  0  0  0  0  0  0
   -3.6801  -12.0263    0.7882 O   0  0  0  0  0  0  0  0  0  0  0  0
   -3.7582  -10.6657    1.0274 C   0  0  0  0  0  0  0  0  0  0  0  0
   -5.5724  -13.5052   -4.1036 C   0  0  0  0  0  0  0  0  0  0  0  0
   -5.1468  -14.7404   -4.4989 F   0  0  0  0  0  0  0  0  0  0  0  0
   -6.9133  -13.6352   -3.8930 F   0  0  0  0  0  0  0  0  0  0  0  0
   -5.4266  -12.6908   -5.1767 F   0  0  0  0  0  0  0  0  0  0  0  0
    0.1406   -9.9663   -1.6873 C   0  0  0  0  0  0  0  0  0  0  0  0
    0.2832   -9.8229   -3.1876 C   0  0  0  0  0  0  0  0  0  0  0  0
   -0.1695   -9.0644   -3.9799 O   0  0  0  0  0  0  0  0  0  0  0  0
    1.1916  -10.7049   -3.6320 O   0  0  0  0  0  0  0  0  0  0  0  0
    0.5995    0.6546    0.6608 H   0  0  0  0  0  0  0  0  0  0  0  0
    0.6035    0.1947   -1.0526 H   0  0  0  0  0  0  0  0  0  0  0  0
    2.0670   -0.0515   -0.0264 H   0  0  0  0  0  0  0  0  0  0  0  0
    2.9279   -2.0229   -0.6493 H   0  0  0  0  0  0  0  0  0  0  0  0
    3.3324   -4.0151   -2.0533 H   0  0  0  0  0  0  0  0  0  0  0  0
    1.4699   -5.4755   -2.6476 H   0  0  0  0  0  0  0  0  0  0  0  0
   -1.2753   -2.9496   -0.5101 H   0  0  0  0  0  0  0  0  0  0  0  0
    0.4839   -6.4025   -0.5008 H   0  0  0  0  0  0  0  0  0  0  0  0
   -1.1748   -6.6527   -0.0715 H   0  0  0  0  0  0  0  0  0  0  0  0
   -0.2661   -6.8226   -3.0469 H   0  0  0  0  0  0  0  0  0  0  0  0
    0.3998   -7.8513   -2.0250 H   0  0  0  0  0  0  0  0  0  0  0  0
   -2.0714   -6.5816   -3.8806 H   0  0  0  0  0  0  0  0  0  0  0  0
   -3.6367   -6.9248   -3.2551 H   0  0  0  0  0  0  0  0  0  0  0  0
   -3.0959   -5.4811   -1.2499 H   0  0  0  0  0  0  0  0  0  0  0  0
   -2.6709   -4.5186   -2.6980 H   0  0  0  0  0  0  0  0  0  0  0  0
   -0.6706  -13.0577    0.1585 H   0  0  0  0  0  0  0  0  0  0  0  0
   -1.0206  -13.2942    2.5675 H   0  0  0  0  0  0  0  0  0  0  0  0
   -1.2685  -11.2936    3.9899 H   0  0  0  0  0  0  0  0  0  0  0  0
   -0.7693  -11.8471   -1.8217 H   0  0  0  0  0  0  0  0  0  0  0  0
   -3.9789  -11.2289   -3.7558 H   0  0  0  0  0  0  0  0  0  0  0  0
   -5.5268  -14.7936   -1.7642 H   0  0  0  0  0  0  0  0  0  0  0  0
   -4.2685  -14.1895    0.2399 H   0  0  0  0  0  0  0  0  0  0  0  0
   -3.0195  -10.3501    0.3764 H   0  0  0  0  0  0  0  0  0  0  0  0
   -4.5685  -10.0395    0.6733 H   0  0  0  0  0  0  0  0  0  0  0  0
   -3.4444  -10.4600    2.0381 H   0  0  0  0  0  0  0  0  0  0  0  0
   -0.1505   -9.0917   -1.1572 H   0  0  0  0  0  0  0  0  0  0  0  0
    1.1088   -9.9998   -1.1792 H   0  0  0  0  0  0  0  0  0  0  0  0
    1.2215  -10.3550   -4.5487 H   0  0  0  0  0  0  0  0  0  0  0  0
  1  2  1  0  0  0  0
  1 42  1  0  0  0  0
  1 43  1  0  0  0  0
  1 44  1  0  0  0  0
  2  3  1  0  0  0  0
  3  4  2  0  0  0  0
  3  8  1  0  0  0  0
  4  5  1  0  0  0  0
  4 45  1  0  0  0  0
  5  6  2  0  0  0  0
  5 46  1  0  0  0  0
  6  7  1  0  0  0  0
  6 47  1  0  0  0  0
  7  8  2  0  0  0  0
  7  9  1  0  0  0  0
  8 48  1  0  0  0  0
  9 10  1  0  0  0  0
  9 14  1  0  0  0  0
 10 11  1  0  0  0  0
 10 49  1  0  0  0  0
 10 50  1  0  0  0  0
 11 12  1  0  0  0  0
 11 51  1  0  0  0  0
 11 52  1  0  0  0  0
 12 13  1  0  0  0  0
 12 15  1  0  0  0  0
 13 14  1  0  0  0  0
 13 53  1  0  0  0  0
 13 54  1  0  0  0  0
 14 55  1  0  0  0  0
 14 56  1  0  0  0  0
 15 16  2  0  0  0  0
 15 25  1  0  0  0  0
 16 17  1  0  0  0  0
 17 18  2  0  0  0  0
 17 22  1  0  0  0  0
 18 19  1  0  0  0  0
 18 24  1  0  0  0  0
 19 20  2  0  0  0  0
 19 57  1  0  0  0  0
 20 21  1  0  0  0  0
 20 58  1  0  0  0  0
 21 22  2  0  0  0  0
 21 59  1  0  0  0  0
 22 23  1  0  0  0  0
 24 25  1  0  0  0  0
 24 60  1  6  0  0  0
 24 38  1  0  0  0  0
 25 26  1  0  0  0  0
 26 27  2  0  0  0  0
 26 31  1  0  0  0  0
 27 28  1  0  0  0  0
 27 61  1  0  0  0  0
 28 29  2  0  0  0  0
 28 34  1  0  0  0  0
 29 30  1  0  0  0  0
 29 62  1  0  0  0  0
 30 31  2  0  0  0  0
 30 63  1  0  0  0  0
 31 32  1  0  0  0  0
 32 33  1  0  0  0  0
 33 64  1  0  0  0  0
 33 65  1  0  0  0  0
 33 66  1  0  0  0  0
 34 35  1  0  0  0  0
 34 36  1  0  0  0  0
 34 37  1  0  0  0  0
 38 39  1  0  0  0  0
 38 67  1  0  0  0  0
 38 68  1  0  0  0  0
 39 40  2  0  0  0  0
 39 41  1  0  0  0  0
 41 69  1  0  0  0  0
M  END
>  <DRUGBANK_ID>
DB12070

>  <COMMON_NAME>
Letermovir

>  <CAS_NUMBER>
917389-32-3

>  <UNII>
1H09Y5WO1F

>  <SYNONYMS>
Letermovir

$$$$
