SNR
 OpenBabel10282417123D

 29 30  0  0  0  0  0  0  0  0999 V2000
   -1.7780   -0.0266   -0.1453 C   0  0  0  0  0  0  0  0  0  0  0  0
   -1.1279   -1.1736    0.2397 N   0  0  0  0  0  0  0  0  0  0  0  0
    0.0999   -0.8978    0.9591 C   0  0  2  0  0  0  0  0  0  0  0  0
    0.1070    0.6411    1.0736 C   0  0  2  0  0  0  0  0  0  0  0  0
   -1.1084    1.0413    0.3895 N   0  0  0  0  0  0  0  0  0  0  0  0
    1.3902    1.1980    0.4368 C   0  0  1  0  0  0  0  0  0  0  0  0
    1.8341    0.0099   -0.8468 S   0  0  0  0  0  0  0  0  0  0  0  0
    1.3527   -1.3674    0.2150 C   0  0  0  0  0  0  0  0  0  0  0  0
   -2.7851    0.0411   -0.8289 O   0  0  0  0  0  0  0  0  0  0  0  0
    1.2354    2.6234   -0.0810 C   0  0  0  0  0  0  0  0  0  0  0  0
    0.9179    3.5937    1.0698 C   0  0  0  0  0  0  0  0  0  0  0  0
    1.9933    3.6217    2.1601 C   0  0  0  0  0  0  0  0  0  0  0  0
    3.3457    4.0162    1.6069 C   0  0  0  0  0  0  0  0  0  0  0  0
    3.8606    5.1424    2.1325 O   0  0  0  0  0  0  0  0  0  0  0  0
    3.9497    3.3700    0.7639 O   0  0  0  0  0  0  0  0  0  0  0  0
    0.0239   -1.3832    1.9373 H   0  0  0  0  0  0  0  0  0  0  0  0
    0.0108    0.9738    2.1138 H   0  0  0  0  0  0  0  0  0  0  0  0
    2.2049    1.1337    1.1672 H   0  0  0  0  0  0  0  0  0  0  0  0
   -1.4789   -2.0797   -0.0357 H   0  0  0  0  0  0  0  0  0  0  0  0
   -1.3989    1.9828    0.1587 H   0  0  0  0  0  0  0  0  0  0  0  0
    2.1662   -1.5321    0.9302 H   0  0  0  0  0  0  0  0  0  0  0  0
    1.1967   -2.2748   -0.3699 H   0  0  0  0  0  0  0  0  0  0  0  0
    2.1376    2.9415   -0.6109 H   0  0  0  0  0  0  0  0  0  0  0  0
    0.4433    2.6809   -0.8370 H   0  0  0  0  0  0  0  0  0  0  0  0
    0.7702    4.5973    0.6584 H   0  0  0  0  0  0  0  0  0  0  0  0
   -0.0378    3.3158    1.5339 H   0  0  0  0  0  0  0  0  0  0  0  0
    1.6823    4.3010    2.9597 H   0  0  0  0  0  0  0  0  0  0  0  0
    2.1028    2.6442    2.6447 H   0  0  0  0  0  0  0  0  0  0  0  0
    3.3277    5.5624    2.8301 H   0  0  0  0  0  0  0  0  0  0  0  0
  1  2  1  0  0  0  0
  1  5  1  0  0  0  0
  1  9  2  0  0  0  0
  2  3  1  0  0  0  0
  2 19  1  0  0  0  0
  3  4  1  0  0  0  0
  3  8  1  0  0  0  0
  3 16  1  1  0  0  0
  4  5  1  0  0  0  0
  4  6  1  0  0  0  0
  4 17  1  1  0  0  0
  5 20  1  0  0  0  0
  6  7  1  0  0  0  0
  6 10  1  0  0  0  0
  6 18  1  1  0  0  0
  7  8  1  0  0  0  0
  8 21  1  0  0  0  0
  8 22  1  0  0  0  0
 10 11  1  0  0  0  0
 10 23  1  0  0  0  0
 10 24  1  0  0  0  0
 11 12  1  0  0  0  0
 11 25  1  0  0  0  0
 11 26  1  0  0  0  0
 12 13  1  0  0  0  0
 12 27  1  0  0  0  0
 12 28  1  0  0  0  0
 13 14  1  0  0  0  0
 13 15  2  0  0  0  0
 14 29  1  0  0  0  0
M  END
>  <DRUGBANK_ID>
DB02674

>  <SECONDARY_ACCESSION_NUMBERS>
EXPT02932

>  <COMMON_NAME>
4-(2-Oxo-Hexahydro-Thieno[3,4-D]Imidazol-4-Yl)-Butyricacid

$$$$
