
 OpenBabel10282417243D

 55 55  0  0  1  0  0  0  0  0999 V2000
    1.0316   -0.4089    0.3015 C   0  0  0  0  0  0  0  0  0  0  0  0
    0.5568   -1.2744   -0.7186 O   0  0  0  0  0  0  0  0  0  0  0  0
    0.9872   -0.9782   -2.0458 C   0  0  0  0  0  0  0  0  0  0  0  0
    0.4504    0.3459   -2.5995 C   0  0  0  0  0  0  0  0  0  0  0  0
    1.0350    1.5911   -1.9331 C   0  0  0  0  0  0  0  0  0  0  0  0
    2.5639    1.5235   -1.9355 C   0  0  0  0  0  0  0  0  0  0  0  0
    3.0420    1.6178   -3.3874 C   0  0  0  0  0  0  0  0  0  0  0  0
    2.5227    2.9192   -4.0170 C   0  0  0  0  0  0  0  0  0  0  0  0
    2.9288    4.0860   -3.1345 C   0  0  0  0  0  0  0  0  0  0  0  0
    4.4387    4.0280   -2.9533 C   0  0  0  0  0  0  0  0  0  0  0  0
    5.1660    4.3587   -4.2625 C   0  0  0  0  0  0  0  0  0  0  0  0
    4.7671    5.6595   -4.8034 N   0  0  0  0  0  0  0  0  0  0  0  0
    5.0834    5.7301   -6.2446 C   0  0  0  0  0  0  0  0  0  0  0  0
    4.5060    6.9979   -6.8878 C   0  0  2  0  0  0  0  0  0  0  0  0
    4.8000    7.0136   -8.2870 O   0  0  0  0  0  0  0  0  0  0  0  0
    5.0773    8.2252   -6.1667 C   0  0  1  0  0  0  0  0  0  0  0  0
    4.5452    9.4347   -6.7143 O   0  0  0  0  0  0  0  0  0  0  0  0
    4.7782    8.1368   -4.6630 C   0  0  2  0  0  0  0  0  0  0  0  0
    5.3579    9.2629   -3.9946 O   0  0  0  0  0  0  0  0  0  0  0  0
    5.3322    6.8242   -4.0677 C   0  0  1  0  0  0  0  0  0  0  0  0
    5.0910    6.8804   -2.5332 C   0  0  0  0  0  0  0  0  0  0  0  0
    6.0982    6.1349   -1.8259 O   0  0  0  0  0  0  0  0  0  0  0  0
    0.8177   -0.8435    1.2769 H   0  0  0  0  0  0  0  0  0  0  0  0
    0.4689    0.5201    0.3035 H   0  0  0  0  0  0  0  0  0  0  0  0
    2.1081   -0.2294    0.2317 H   0  0  0  0  0  0  0  0  0  0  0  0
    2.0780   -1.0664   -2.1194 H   0  0  0  0  0  0  0  0  0  0  0  0
    0.6085   -1.7814   -2.6875 H   0  0  0  0  0  0  0  0  0  0  0  0
    0.6811    0.3859   -3.6736 H   0  0  0  0  0  0  0  0  0  0  0  0
   -0.6390    0.3803   -2.5311 H   0  0  0  0  0  0  0  0  0  0  0  0
    0.6541    2.4739   -2.4532 H   0  0  0  0  0  0  0  0  0  0  0  0
    0.6541    1.7986   -0.9390 H   0  0  0  0  0  0  0  0  0  0  0  0
    2.9714    2.3061   -1.2833 H   0  0  0  0  0  0  0  0  0  0  0  0
    2.9748    0.6167   -1.4897 H   0  0  0  0  0  0  0  0  0  0  0  0
    4.1334    1.5398   -3.4179 H   0  0  0  0  0  0  0  0  0  0  0  0
    2.7208    0.7611   -3.9808 H   0  0  0  0  0  0  0  0  0  0  0  0
    2.9082    3.0321   -5.0309 H   0  0  0  0  0  0  0  0  0  0  0  0
    1.4378    2.9216   -4.1481 H   0  0  0  0  0  0  0  0  0  0  0  0
    2.5898    5.0398   -3.5501 H   0  0  0  0  0  0  0  0  0  0  0  0
    2.4510    4.0588   -2.1456 H   0  0  0  0  0  0  0  0  0  0  0  0
    4.6215    4.6347   -2.0823 H   0  0  0  0  0  0  0  0  0  0  0  0
    4.8392    3.0822   -2.5812 H   0  0  0  0  0  0  0  0  0  0  0  0
    6.2520    4.2832   -4.1568 H   0  0  0  0  0  0  0  0  0  0  0  0
    4.9116    3.5692   -4.9846 H   0  0  0  0  0  0  0  0  0  0  0  0
    4.6843    4.8650   -6.7928 H   0  0  0  0  0  0  0  0  0  0  0  0
    6.1713    5.7006   -6.3981 H   0  0  0  0  0  0  0  0  0  0  0  0
    3.4116    6.9987   -6.8099 H   0  0  0  0  0  0  0  0  0  0  0  0
    5.7600    7.1124   -8.4033 H   0  0  0  0  0  0  0  0  0  0  0  0
    6.1609    8.2852   -6.3250 H   0  0  0  0  0  0  0  0  0  0  0  0
    3.5936    9.4575   -6.5134 H   0  0  0  0  0  0  0  0  0  0  0  0
    3.6946    8.2001   -4.4958 H   0  0  0  0  0  0  0  0  0  0  0  0
    6.3260    9.1796   -4.0445 H   0  0  0  0  0  0  0  0  0  0  0  0
    6.4199    6.7960   -4.2056 H   0  0  0  0  0  0  0  0  0  0  0  0
    5.1756    7.8840   -2.1271 H   0  0  0  0  0  0  0  0  0  0  0  0
    4.0732    6.5582   -2.2745 H   0  0  0  0  0  0  0  0  0  0  0  0
    6.3539    5.3778   -2.3494 H   0  0  0  0  0  0  0  0  0  0  0  0
  1  2  1  0  0  0  0
  1 23  1  0  0  0  0
  1 24  1  0  0  0  0
  1 25  1  0  0  0  0
  2  3  1  0  0  0  0
  3  4  1  0  0  0  0
  3 26  1  0  0  0  0
  3 27  1  0  0  0  0
  4  5  1  0  0  0  0
  4 28  1  0  0  0  0
  4 29  1  0  0  0  0
  5  6  1  0  0  0  0
  5 30  1  0  0  0  0
  5 31  1  0  0  0  0
  6  7  1  0  0  0  0
  6 32  1  0  0  0  0
  6 33  1  0  0  0  0
  7  8  1  0  0  0  0
  7 34  1  0  0  0  0
  7 35  1  0  0  0  0
  8  9  1  0  0  0  0
  8 36  1  0  0  0  0
  8 37  1  0  0  0  0
  9 10  1  0  0  0  0
  9 38  1  0  0  0  0
  9 39  1  0  0  0  0
 10 11  1  0  0  0  0
 10 40  1  0  0  0  0
 10 41  1  0  0  0  0
 11 12  1  0  0  0  0
 11 42  1  0  0  0  0
 11 43  1  0  0  0  0
 12 13  1  0  0  0  0
 13 44  1  0  0  0  0
 13 45  1  0  0  0  0
 14 13  1  0  0  0  0
 14 15  1  0  0  0  0
 14 46  1  1  0  0  0
 15 47  1  0  0  0  0
 16 14  1  0  0  0  0
 16 17  1  0  0  0  0
 16 18  1  0  0  0  0
 16 48  1  6  0  0  0
 17 49  1  0  0  0  0
 18 19  1  0  0  0  0
 18 20  1  0  0  0  0
 18 50  1  1  0  0  0
 19 51  1  0  0  0  0
 20 12  1  0  0  0  0
 20 21  1  0  0  0  0
 20 52  1  6  0  0  0
 21 22  1  0  0  0  0
 21 53  1  0  0  0  0
 21 54  1  0  0  0  0
 22 55  1  0  0  0  0
M  END
>  <DRUGBANK_ID>
DB17804

>  <COMMON_NAME>
N-9-Methoxynonyldeoxynojirimycin

>  <CAS_NUMBER>
615253-61-7

>  <UNII>
3P161BU63E

>  <SYNONYMS>
3,4,5-piperidinetriol, 2-(hydroxymethyl)-1-(9-methoxynonyl)-, (2r,3r,4r,5s)-

$$$$
