
 OpenBabel10282417233D

 65 66  0  0  0  0  0  0  0  0999 V2000
    4.0205    3.6812    0.8209 C   0  0  0  0  0  0  0  0  0  0  0  0
    3.4731    4.4881   -0.2798 C   0  0  0  0  0  0  0  0  0  0  0  0
    2.7017    3.8265   -1.1920 N   0  0  0  0  0  0  0  0  0  0  0  0
    2.1645    2.5658   -1.0277 C   0  0  0  0  0  0  0  0  0  0  0  0
    2.6012    1.8895    0.1670 N   0  0  0  0  0  0  0  0  0  0  0  0
    3.6398    2.4151    0.9259 C   0  0  0  0  0  0  0  0  0  0  0  0
    2.3745    0.4583    0.2890 C   0  0  1  0  0  0  0  0  0  0  0  0
    2.7324   -0.0699   -0.9913 C   0  0  0  0  0  0  0  0  0  0  0  0
    4.6054   -0.5975   -0.6238 C   0  0  1  0  0  0  0  0  0  0  0  0
    4.3243   -0.9940    0.9614 C   0  0  2  0  0  0  0  0  0  0  0  0
    3.2122   -0.1455    1.3590 O   0  0  0  0  0  0  0  0  0  0  0  0
    5.7794   -0.9971    1.3955 C   0  0  0  0  0  0  0  0  0  0  0  0
    6.3016    0.1618    0.8193 O   0  0  0  0  0  0  0  0  0  0  0  0
    6.5544    0.2776   -0.8882 P   0  0  3  0  0  0  0  0  0  0  0  0
    5.9625    1.7627   -1.1270 O   0  0  0  0  0  0  0  0  0  0  0  0
    4.6908    1.6659   -1.7103 C   0  0  0  0  0  0  0  0  0  0  0  0
    4.2279    0.7952   -2.9597 C   0  0  0  0  0  0  0  0  0  0  0  0
    4.3305   -0.7559   -2.8330 C   0  0  0  0  0  0  0  0  0  0  0  0
    3.4552   -1.7410   -1.2710 C   0  0  0  0  0  0  0  0  0  0  0  0
    8.0520    0.4567   -0.6544 O   0  0  0  0  0  0  0  0  0  0  0  0
    6.8072    0.3933   -2.5957 O   0  0  0  0  0  0  0  0  0  0  0  0
    5.0628   -2.2321   -1.8211 O   0  0  0  0  0  0  0  0  0  0  0  0
    3.9163   -3.5095   -1.6046 P   0  0  3  0  0  0  0  0  0  0  0  0
    4.9307   -4.3877   -0.6171 O   0  0  0  0  0  0  0  0  0  0  0  0
    5.8326   -5.2348   -1.2959 C   0  0  0  0  0  0  0  0  0  0  0  0
    5.0334   -6.2819   -2.0684 C   0  0  0  0  0  0  0  0  0  0  0  0
    4.1819   -5.7435   -3.2409 C   0  0  0  0  0  0  0  0  0  0  0  0
    4.9231   -4.8028   -4.1466 C   0  0  0  0  0  0  0  0  0  0  0  0
    2.5120   -3.2270   -0.7200 O   0  0  0  0  0  0  0  0  0  0  0  0
    2.7698   -4.7868   -1.3881 O   0  0  0  0  0  0  0  0  0  0  0  0
    1.5857    2.0481   -1.9855 O   0  0  0  0  0  0  0  0  0  0  0  0
    3.7147    5.6818   -0.3876 O   0  0  0  0  0  0  0  0  0  0  0  0
    4.8351    4.2965    1.8906 C   0  0  0  0  0  0  0  0  0  0  0  0
    2.6669    4.2365   -2.1200 H   0  0  0  0  0  0  0  0  0  0  0  0
    4.2755    1.7448    1.5208 H   0  0  0  0  0  0  0  0  0  0  0  0
    1.3162    0.1885    0.3415 H   0  0  0  0  0  0  0  0  0  0  0  0
    1.9182   -0.8811   -1.2293 H   0  0  0  0  0  0  0  0  0  0  0  0
    2.5459    0.2281   -1.9949 H   0  0  0  0  0  0  0  0  0  0  0  0
    5.4143   -0.8517   -1.2074 H   0  0  0  0  0  0  0  0  0  0  0  0
    3.9678   -2.0033    1.2832 H   0  0  0  0  0  0  0  0  0  0  0  0
    5.8727   -1.0610    2.4781 H   0  0  0  0  0  0  0  0  0  0  0  0
    6.3921   -1.8198    0.9729 H   0  0  0  0  0  0  0  0  0  0  0  0
    4.2804    1.2981   -0.8202 H   0  0  0  0  0  0  0  0  0  0  0  0
    4.3201    2.6409   -1.8217 H   0  0  0  0  0  0  0  0  0  0  0  0
    3.2163    0.9040   -3.3489 H   0  0  0  0  0  0  0  0  0  0  0  0
    4.7134    1.2692   -3.8005 H   0  0  0  0  0  0  0  0  0  0  0  0
    4.3228   -1.4153   -3.7094 H   0  0  0  0  0  0  0  0  0  0  0  0
    5.4401   -0.8837   -2.8918 H   0  0  0  0  0  0  0  0  0  0  0  0
    2.9433   -2.0298   -2.1381 H   0  0  0  0  0  0  0  0  0  0  0  0
    4.0874   -2.5441   -0.1822 H   0  0  0  0  0  0  0  0  0  0  0  0
    4.6854   -2.1871   -0.3653 H   0  0  0  0  0  0  0  0  0  0  0  0
    6.2502    0.8359   -3.2277 H   0  0  0  0  0  0  0  0  0  0  0  0
    6.4667   -4.6205   -1.9360 H   0  0  0  0  0  0  0  0  0  0  0  0
    6.5004   -5.6993   -0.5595 H   0  0  0  0  0  0  0  0  0  0  0  0
    5.7284   -7.0028   -2.4995 H   0  0  0  0  0  0  0  0  0  0  0  0
    4.4043   -6.8129   -1.3363 H   0  0  0  0  0  0  0  0  0  0  0  0
    3.5529   -6.5265   -3.6597 H   0  0  0  0  0  0  0  0  0  0  0  0
    3.3668   -5.0784   -3.0597 H   0  0  0  0  0  0  0  0  0  0  0  0
    5.6104   -5.3827   -4.7376 H   0  0  0  0  0  0  0  0  0  0  0  0
    4.1897   -4.2522   -4.7476 H   0  0  0  0  0  0  0  0  0  0  0  0
    5.4663   -4.0189   -3.6050 H   0  0  0  0  0  0  0  0  0  0  0  0
    1.9283   -4.3854   -1.0912 H   0  0  0  0  0  0  0  0  0  0  0  0
    4.3379    4.0474    2.8367 H   0  0  0  0  0  0  0  0  0  0  0  0
    5.8682    3.9427    1.9345 H   0  0  0  0  0  0  0  0  0  0  0  0
    4.8214    5.3823    1.8055 H   0  0  0  0  0  0  0  0  0  0  0  0
  1  2  1  0  0  0  0
  1  6  2  0  0  0  0
  1 33  1  0  0  0  0
  2 32  2  0  0  0  0
  3  2  1  0  0  0  0
  3 34  1  0  0  0  0
  4  3  1  0  0  0  0
  4 31  2  0  0  0  0
  5  4  1  0  0  0  0
  6  5  1  0  0  0  0
  6 35  1  0  0  0  0
  7 11  1  0  0  0  0
  7 36  1  1  0  0  0
  7  5  1  0  0  0  0
  8  7  1  0  0  0  0
  8  9  1  0  0  0  0
  8 37  1  0  0  0  0
  8 38  1  0  0  0  0
  9 10  1  0  0  0  0
  9 22  1  0  0  0  0
  9 39  1  6  0  0  0
 10 40  1  1  0  0  0
 10 12  1  0  0  0  0
 11 10  1  0  0  0  0
 12 13  1  0  0  0  0
 12 41  1  0  0  0  0
 12 42  1  0  0  0  0
 13 14  1  0  0  0  0
 14 15  1  0  0  0  0
 14 20  2  0  0  0  0
 14 21  1  0  0  0  0
 15 16  1  0  0  0  0
 16 17  1  0  0  0  0
 16 43  1  0  0  0  0
 16 44  1  0  0  0  0
 17 18  1  0  0  0  0
 17 45  1  0  0  0  0
 17 46  1  0  0  0  0
 18 19  1  0  0  0  0
 18 47  1  0  0  0  0
 18 48  1  0  0  0  0
 19 49  1  0  0  0  0
 19 50  1  0  0  0  0
 19 51  1  0  0  0  0
 21 52  1  0  0  0  0
 22 23  1  0  0  0  0
 23 24  1  0  0  0  0
 23 29  2  0  0  0  0
 23 30  1  0  0  0  0
 24 25  1  0  0  0  0
 25 26  1  0  0  0  0
 25 53  1  0  0  0  0
 25 54  1  0  0  0  0
 26 27  1  0  0  0  0
 26 55  1  0  0  0  0
 26 56  1  0  0  0  0
 27 28  1  0  0  0  0
 27 57  1  0  0  0  0
 27 58  1  0  0  0  0
 28 59  1  0  0  0  0
 28 60  1  0  0  0  0
 28 61  1  0  0  0  0
 30 62  1  0  0  0  0
 33 63  1  0  0  0  0
 33 64  1  0  0  0  0
 33 65  1  0  0  0  0
M  END
>  <DRUGBANK_ID>
DB16015

>  <COMMON_NAME>
Bisphosphocin Nu-3

>  <CAS_NUMBER>
403717-06-6

>  <UNII>
8BK3483OW5

>  <SYNONYMS>
3'-thymidylic acid, monobutyl ester, 5'-(butyl hydrogen phosphate); Bisphosphocin Nu-3; Bisphosphocin Nu3; Nu-3

$$$$
