NU1
 OpenBabel10282417123D

 21 22  0  0  0  0  0  0  0  0999 V2000
   -1.1654   -1.4251    0.1225 C   0  0  0  0  0  0  0  0  0  0  0  0
   -1.1409   -2.7857    0.2793 O   0  0  0  0  0  0  0  0  0  0  0  0
    0.0404   -0.7121    0.1062 C   0  0  0  0  0  0  0  0  0  0  0  0
    1.2763   -1.3866    0.0384 N   0  0  0  0  0  0  0  0  0  0  0  0
    2.3515   -0.6782   -0.0515 C   0  0  0  0  0  0  0  0  0  0  0  0
    3.6880   -1.3443   -0.1754 C   0  0  0  0  0  0  0  0  0  0  0  0
    2.3613    0.6893   -0.0365 N   0  0  0  0  0  0  0  0  0  0  0  0
    1.2241    1.4380    0.0661 C   0  0  0  0  0  0  0  0  0  0  0  0
    1.2506    2.6688    0.0789 O   0  0  0  0  0  0  0  0  0  0  0  0
   -0.0340    0.6842    0.1127 C   0  0  0  0  0  0  0  0  0  0  0  0
   -1.2546    1.3581    0.0658 C   0  0  0  0  0  0  0  0  0  0  0  0
   -2.4171    0.6262   -0.1408 C   0  0  0  0  0  0  0  0  0  0  0  0
   -2.3862   -0.7658   -0.0443 C   0  0  0  0  0  0  0  0  0  0  0  0
   -2.0467   -3.1155    0.3838 H   0  0  0  0  0  0  0  0  0  0  0  0
    3.8374   -1.9954    0.6896 H   0  0  0  0  0  0  0  0  0  0  0  0
    3.7050   -1.9527   -1.0846 H   0  0  0  0  0  0  0  0  0  0  0  0
    4.4990   -0.6131   -0.2205 H   0  0  0  0  0  0  0  0  0  0  0  0
    3.2233    1.2097   -0.1051 H   0  0  0  0  0  0  0  0  0  0  0  0
   -1.2873    2.4422    0.1415 H   0  0  0  0  0  0  0  0  0  0  0  0
   -3.3413    1.1434   -0.3844 H   0  0  0  0  0  0  0  0  0  0  0  0
   -3.3181   -1.3183   -0.1115 H   0  0  0  0  0  0  0  0  0  0  0  0
  1  2  1  0  0  0  0
  1  3  1  0  0  0  0
  1 13  2  0  0  0  0
  2 14  1  0  0  0  0
  3  4  1  0  0  0  0
  3 10  2  0  0  0  0
  4  5  2  0  0  0  0
  5  6  1  0  0  0  0
  5  7  1  0  0  0  0
  6 15  1  0  0  0  0
  6 16  1  0  0  0  0
  6 17  1  0  0  0  0
  7  8  1  0  0  0  0
  7 18  1  0  0  0  0
  8  9  2  0  0  0  0
  8 10  1  0  0  0  0
 10 11  1  0  0  0  0
 11 12  2  0  0  0  0
 11 19  1  0  0  0  0
 12 13  1  0  0  0  0
 12 20  1  0  0  0  0
 13 21  1  0  0  0  0
M  END
>  <DRUGBANK_ID>
DB02690

>  <SECONDARY_ACCESSION_NUMBERS>
EXPT02396

>  <COMMON_NAME>
NU1025

>  <CAS_NUMBER>
90417-38-2

>  <UNII>
X5ZL2C7V9B

$$$$
