
 OpenBabel10282417143D

 44 46  0  0  1  0  0  0  0  0999 V2000
    0.9854    0.0612    0.0646 I   0  0  0  0  0  0  0  0  0  0  0  0
    9.1859    5.2905    0.2990 F   0  0  0  0  0  0  0  0  0  0  0  0
    8.2684   -0.7283   -2.3806 O   0  0  0  0  0  0  0  0  0  0  0  0
    6.6226    0.3614   -1.4072 O   0  0  0  0  0  0  0  0  0  0  0  0
    5.8142   -2.2369    0.7625 N   0  0  0  0  0  0  0  0  0  0  0  0
    7.2308   -2.4351    0.3745 C   0  0  1  0  0  0  0  0  0  0  0  0
    5.9316   -1.6212    2.0980 C   0  0  2  0  0  0  0  0  0  0  0  0
    7.9947   -1.1045    0.0801 C   0  0  2  0  0  0  0  0  0  0  0  0
    7.9553   -0.1528    1.3338 C   0  0  2  0  0  0  0  0  0  0  0  0
    6.5856   -0.2143    2.0809 C   0  0  0  0  0  0  0  0  0  0  0  0
    7.7387   -3.1543    1.6495 C   0  0  0  0  0  0  0  0  0  0  0  0
    6.8552   -2.6257    2.7859 C   0  0  0  0  0  0  0  0  0  0  0  0
    5.0893   -1.4059   -0.1867 C   0  0  0  0  0  0  0  0  0  0  0  0
    8.4113    1.2912    1.1091 C   0  0  0  0  0  0  0  0  0  0  0  0
    7.5512   -0.4572   -1.2733 C   0  0  0  0  0  0  0  0  0  0  0  0
    3.6131   -1.3321   -0.1232 C   0  0  0  0  0  0  0  0  0  0  0  0
    8.4068    2.2292    2.1418 C   0  0  0  0  0  0  0  0  0  0  0  0
    8.7998    1.7735   -0.1465 C   0  0  0  0  0  0  0  0  0  0  0  0
    8.6796    3.5788    1.8661 C   0  0  0  0  0  0  0  0  0  0  0  0
    9.0210    3.0990   -0.4522 C   0  0  0  0  0  0  0  0  0  0  0  0
    2.9998   -0.1603    0.1089 C   0  0  0  0  0  0  0  0  0  0  0  0
    8.9591    4.0022    0.5690 C   0  0  0  0  0  0  0  0  0  0  0  0
    9.6974   -0.7520   -2.3415 C   0  0  0  0  0  0  0  0  0  0  0  0
    7.3276   -3.1113   -0.4835 H   0  0  0  0  0  0  0  0  0  0  0  0
    4.9599   -1.5791    2.6024 H   0  0  0  0  0  0  0  0  0  0  0  0
    9.0508   -1.3713   -0.0393 H   0  0  0  0  0  0  0  0  0  0  0  0
    8.6889   -0.5731    2.0426 H   0  0  0  0  0  0  0  0  0  0  0  0
    6.7102    0.1121    3.1223 H   0  0  0  0  0  0  0  0  0  0  0  0
    5.8985    0.5237    1.6510 H   0  0  0  0  0  0  0  0  0  0  0  0
    8.8022   -2.9914    1.8549 H   0  0  0  0  0  0  0  0  0  0  0  0
    7.5880   -4.2392    1.5686 H   0  0  0  0  0  0  0  0  0  0  0  0
    7.4437   -2.1764    3.5933 H   0  0  0  0  0  0  0  0  0  0  0  0
    6.2751   -3.4486    3.2235 H   0  0  0  0  0  0  0  0  0  0  0  0
    5.3468   -1.7122   -1.2080 H   0  0  0  0  0  0  0  0  0  0  0  0
    5.3964   -0.3850   -0.0224 H   0  0  0  0  0  0  0  0  0  0  0  0
    3.0718   -2.2233   -0.4087 H   0  0  0  0  0  0  0  0  0  0  0  0
    8.1673    1.9355    3.1611 H   0  0  0  0  0  0  0  0  0  0  0  0
    8.8929    1.1693   -1.0161 H   0  0  0  0  0  0  0  0  0  0  0  0
    8.6522    4.3163    2.6572 H   0  0  0  0  0  0  0  0  0  0  0  0
    9.2108    3.3782   -1.4831 H   0  0  0  0  0  0  0  0  0  0  0  0
    3.5805    0.7409    0.3155 H   0  0  0  0  0  0  0  0  0  0  0  0
   10.1424   -0.2066   -1.5046 H   0  0  0  0  0  0  0  0  0  0  0  0
    9.9918   -1.7940   -2.2902 H   0  0  0  0  0  0  0  0  0  0  0  0
   10.0656   -0.2810   -3.2575 H   0  0  0  0  0  0  0  0  0  0  0  0
  1 21  1  0  0  0  0
  2 22  1  0  0  0  0
  3 15  1  0  0  0  0
  3 23  1  0  0  0  0
  4 15  2  0  0  0  0
  5  6  1  0  0  0  0
  5  7  1  0  0  0  0
  5 13  1  0  0  0  0
  6  8  1  0  0  0  0
  6 11  1  0  0  0  0
  6 24  1  6  0  0  0
  7 10  1  0  0  0  0
  7 12  1  0  0  0  0
  7 25  1  1  0  0  0
  8  9  1  0  0  0  0
  8 15  1  0  0  0  0
  8 26  1  6  0  0  0
  9 10  1  0  0  0  0
  9 14  1  0  0  0  0
  9 27  1  1  0  0  0
 10 28  1  0  0  0  0
 10 29  1  0  0  0  0
 11 12  1  0  0  0  0
 11 30  1  0  0  0  0
 11 31  1  0  0  0  0
 12 32  1  0  0  0  0
 12 33  1  0  0  0  0
 13 16  1  0  0  0  0
 13 34  1  0  0  0  0
 13 35  1  0  0  0  0
 14 17  2  0  0  0  0
 14 18  1  0  0  0  0
 16 21  2  0  0  0  0
 16 36  1  0  0  0  0
 17 19  1  0  0  0  0
 17 37  1  0  0  0  0
 18 20  2  0  0  0  0
 18 38  1  0  0  0  0
 19 22  2  0  0  0  0
 19 39  1  0  0  0  0
 20 22  1  0  0  0  0
 20 40  1  0  0  0  0
 21 41  1  0  0  0  0
 23 42  1  0  0  0  0
 23 43  1  0  0  0  0
 23 44  1  0  0  0  0
M  END
>  <DRUGBANK_ID>
DB04947

>  <COMMON_NAME>
Altropane

>  <CAS_NUMBER>
180468-34-2

>  <UNII>
1Q4092099O

$$$$
