73V
 OpenBabel10282417163D

 69 71  0  0  0  0  0  0  0  0999 V2000
    8.0221   -6.3895   -7.2095 C   0  0  0  0  0  0  0  0  0  0  0  0
    6.8408   -7.0792   -6.6355 C   0  0  0  0  0  0  0  0  0  0  0  0
    6.5705   -6.2091   -5.4612 C   0  0  0  0  0  0  0  0  0  0  0  0
    6.0392   -4.8146   -5.9136 N   0  0  0  0  0  0  0  0  0  0  0  0
    2.6540   -4.2643   -4.3554 C   0  0  0  0  0  0  0  0  0  0  0  0
    1.8138   -5.3584   -4.5692 C   0  0  0  0  0  0  0  0  0  0  0  0
    2.1264   -6.6769   -4.4481 C   0  0  0  0  0  0  0  0  0  0  0  0
    3.4237   -6.9811   -4.2982 C   0  0  0  0  0  0  0  0  0  0  0  0
    4.2619   -5.8864   -3.9906 C   0  0  0  0  0  0  0  0  0  0  0  0
    3.9746   -4.5029   -3.8491 C   0  0  0  0  0  0  0  0  0  0  0  0
    1.6887   -2.9728   -4.6445 C   0  0  0  0  0  0  0  0  0  0  0  0
    3.5554   -2.8334   -6.9609 O   0  0  0  0  0  0  0  0  0  0  0  0
    2.3367   -2.7092   -6.4537 C   0  0  2  0  0  0  0  0  0  0  0  0
    1.2978   -1.1666   -6.1867 C   0  0  0  0  0  0  0  0  0  0  0  0
    0.0276   -1.0770   -6.1732 O   0  0  0  0  0  0  0  0  0  0  0  0
    4.1722   -3.1195   -5.8792 C   0  0  1  0  0  0  0  0  0  0  0  0
    4.7242   -4.5166   -6.2556 C   0  0  0  0  0  0  0  0  0  0  0  0
    3.9583   -5.3808   -6.6941 O   0  0  0  0  0  0  0  0  0  0  0  0
    1.5307   -0.1359   -5.3983 N   0  0  0  0  0  0  0  0  0  0  0  0
    2.7928   -0.0973   -4.9101 C   0  0  2  0  0  0  0  0  0  0  0  0
    3.7190   -0.2060   -6.5075 C   0  0  0  0  0  0  0  0  0  0  0  0
    4.8064    0.4007   -6.4033 O   0  0  0  0  0  0  0  0  0  0  0  0
    3.0747   -1.0211   -3.3426 C   0  0  2  0  0  0  0  0  0  0  0  0
    2.0264   -2.1710   -2.2973 C   0  0  0  0  0  0  0  0  0  0  0  0
    3.0493    0.0445   -2.2673 C   0  0  0  0  0  0  0  0  0  0  0  0
    1.7214   -3.7164   -2.2473 C   0  0  0  0  0  0  0  0  0  0  0  0
    3.4815   -1.1488   -7.8991 N   0  0  0  0  0  0  0  0  0  0  0  0
    2.0548   -2.2566   -8.4741 C   0  0  2  0  0  0  0  0  0  0  0  0
    0.4204   -2.7409   -7.5967 C   0  0  0  0  0  0  0  0  0  0  0  0
    0.4214   -3.1961   -5.9419 O   0  0  0  0  0  0  0  0  0  0  0  0
   -0.6756   -2.4550   -8.1083 O   0  0  0  0  0  0  0  0  0  0  0  0
    2.7351   -3.9236   -8.7105 C   0  0  0  0  0  0  0  0  0  0  0  0
    4.4030   -3.7412   -8.8086 C   0  0  0  0  0  0  0  0  0  0  0  0
    4.9477   -2.1098   -8.1978 C   0  0  0  0  0  0  0  0  0  0  0  0
    1.8994   -3.7056   -6.5413 H   0  0  0  0  0  0  0  0  0  0  0  0
    4.6889   -2.3089   -5.4177 H   0  0  0  0  0  0  0  0  0  0  0  0
    2.7824    0.9780   -4.6088 H   0  0  0  0  0  0  0  0  0  0  0  0
    4.1145   -1.3613   -3.4625 H   0  0  0  0  0  0  0  0  0  0  0  0
    1.9057   -1.9209   -9.4997 H   0  0  0  0  0  0  0  0  0  0  0  0
    7.7153   -5.4079   -7.5830 H   0  0  0  0  0  0  0  0  0  0  0  0
    8.4477   -6.9697   -8.0103 H   0  0  0  0  0  0  0  0  0  0  0  0
    8.7419   -6.2276   -6.3962 H   0  0  0  0  0  0  0  0  0  0  0  0
    5.9646   -7.1223   -7.2987 H   0  0  0  0  0  0  0  0  0  0  0  0
    7.0318   -8.1118   -6.3058 H   0  0  0  0  0  0  0  0  0  0  0  0
    5.9682   -6.9667   -4.9328 H   0  0  0  0  0  0  0  0  0  0  0  0
    7.2892   -6.0338   -4.6519 H   0  0  0  0  0  0  0  0  0  0  0  0
    6.6932   -4.1351   -6.2770 H   0  0  0  0  0  0  0  0  0  0  0  0
    0.7890   -5.1173   -4.7554 H   0  0  0  0  0  0  0  0  0  0  0  0
    1.3731   -7.3889   -4.7031 H   0  0  0  0  0  0  0  0  0  0  0  0
    3.7739   -7.7177   -5.0681 H   0  0  0  0  0  0  0  0  0  0  0  0
    4.7077   -6.0287   -4.9505 H   0  0  0  0  0  0  0  0  0  0  0  0
    4.8538   -3.7755   -3.8641 H   0  0  0  0  0  0  0  0  0  0  0  0
    2.5305   -2.2467   -4.8041 H   0  0  0  0  0  0  0  0  0  0  0  0
    1.1851   -2.1620   -4.1327 H   0  0  0  0  0  0  0  0  0  0  0  0
    0.6447    0.0676   -4.9087 H   0  0  0  0  0  0  0  0  0  0  0  0
    2.1785   -1.9815   -1.2418 H   0  0  0  0  0  0  0  0  0  0  0  0
    1.0042   -1.8288   -2.4794 H   0  0  0  0  0  0  0  0  0  0  0  0
    3.4589   -0.4064   -1.3555 H   0  0  0  0  0  0  0  0  0  0  0  0
    3.6107    0.9375   -2.5121 H   0  0  0  0  0  0  0  0  0  0  0  0
    1.9911    0.2840   -2.1142 H   0  0  0  0  0  0  0  0  0  0  0  0
    2.5737   -4.3997   -2.1242 H   0  0  0  0  0  0  0  0  0  0  0  0
    0.8317   -4.2140   -1.8634 H   0  0  0  0  0  0  0  0  0  0  0  0
    1.1346   -3.8703   -3.1279 H   0  0  0  0  0  0  0  0  0  0  0  0
    2.4412   -4.5643   -7.8351 H   0  0  0  0  0  0  0  0  0  0  0  0
    2.1570   -4.6853   -9.2873 H   0  0  0  0  0  0  0  0  0  0  0  0
    4.9777   -4.6107   -8.3703 H   0  0  0  0  0  0  0  0  0  0  0  0
    4.7043   -3.8837   -9.8286 H   0  0  0  0  0  0  0  0  0  0  0  0
    5.5554   -2.1963   -7.2147 H   0  0  0  0  0  0  0  0  0  0  0  0
    5.7370   -1.6452   -8.7715 H   0  0  0  0  0  0  0  0  0  0  0  0
  1  2  1  0  0  0  0
  1 40  1  0  0  0  0
  1 41  1  0  0  0  0
  1 42  1  0  0  0  0
  2  3  1  0  0  0  0
  2 43  1  0  0  0  0
  2 44  1  0  0  0  0
  3  4  1  0  0  0  0
  3 45  1  0  0  0  0
  3 46  1  0  0  0  0
  4 17  1  0  0  0  0
  4 47  1  0  0  0  0
  5  6  1  0  0  0  0
  5 10  2  0  0  0  0
  5 11  1  0  0  0  0
  6  7  2  0  0  0  0
  6 48  1  0  0  0  0
  7  8  1  0  0  0  0
  7 49  1  0  0  0  0
  8  9  2  0  0  0  0
  8 50  1  0  0  0  0
  9 10  1  0  0  0  0
  9 51  1  0  0  0  0
 10 52  1  0  0  0  0
 11 30  1  0  0  0  0
 11 53  1  0  0  0  0
 11 54  1  0  0  0  0
 12 13  1  0  0  0  0
 12 16  1  0  0  0  0
 13 14  1  0  0  0  0
 13 16  1  0  0  0  0
 13 35  1  6  0  0  0
 14 15  2  0  0  0  0
 14 19  1  0  0  0  0
 16 36  1  1  0  0  0
 16 17  1  0  0  0  0
 17 18  2  0  0  0  0
 19 55  1  0  0  0  0
 20 37  1  1  0  0  0
 20 21  1  0  0  0  0
 20 19  1  0  0  0  0
 21 22  2  0  0  0  0
 21 27  1  0  0  0  0
 23 25  1  0  0  0  0
 23 38  1  6  0  0  0
 23 24  1  0  0  0  0
 23 20  1  0  0  0  0
 24 26  1  0  0  0  0
 24 56  1  0  0  0  0
 24 57  1  0  0  0  0
 25 58  1  0  0  0  0
 25 59  1  0  0  0  0
 25 60  1  0  0  0  0
 26 61  1  0  0  0  0
 26 62  1  0  0  0  0
 26 63  1  0  0  0  0
 27 28  1  0  0  0  0
 27 34  1  0  0  0  0
 28 32  1  0  0  0  0
 28 39  1  6  0  0  0
 28 29  1  0  0  0  0
 29 30  1  0  0  0  0
 29 31  2  0  0  0  0
 32 33  1  0  0  0  0
 32 64  1  0  0  0  0
 32 65  1  0  0  0  0
 33 34  1  0  0  0  0
 33 66  1  0  0  0  0
 33 67  1  0  0  0  0
 34 68  1  0  0  0  0
 34 69  1  0  0  0  0
M  END
>  <DRUGBANK_ID>
DB07219

>  <COMMON_NAME>
BENZYL N-({(2S,3S)-3-[(PROPYLAMINO)CARBONYL]OXIRAN-2-YL}CARBONYL)-L-ISOLEUCYL-L-PROLINATE

$$$$
