582
 OpenBabel10282417163D

 30 32  0  0  0  0  0  0  0  0999 V2000
   -3.3374    0.2142   -0.0018 C   0  0  0  0  0  0  0  0  0  0  0  0
   -2.5395   -0.9180   -0.0050 C   0  0  0  0  0  0  0  0  0  0  0  0
   -1.1421   -0.8246   -0.0027 C   0  0  0  0  0  0  0  0  0  0  0  0
   -0.5289    0.4668   -0.0005 C   0  0  0  0  0  0  0  0  0  0  0  0
   -1.3455    1.6062   -0.0019 C   0  0  0  0  0  0  0  0  0  0  0  0
   -2.7453    1.4704   -0.0013 C   0  0  0  0  0  0  0  0  0  0  0  0
   -0.3379   -2.0195    0.0098 N   0  0  0  0  0  0  0  0  0  0  0  0
    1.0577   -1.9896    0.0647 C   0  0  0  0  0  0  0  0  0  0  0  0
    1.6646   -0.6937    0.0248 C   0  0  0  0  0  0  0  0  0  0  0  0
    0.9350    0.4733    0.0019 C   0  0  0  0  0  0  0  0  0  0  0  0
    1.7410   -3.0146    0.1427 O   0  0  0  0  0  0  0  0  0  0  0  0
   -0.9158   -3.3542   -0.0029 C   0  0  0  0  0  0  0  0  0  0  0  0
    1.8785    1.4658   -0.0033 N   0  0  0  0  0  0  0  0  0  0  0  0
    3.0216   -0.3366    0.0035 C   0  0  0  0  0  0  0  0  0  0  0  0
    4.1750   -1.2807   -0.0030 C   0  0  0  0  0  0  0  0  0  0  0  0
    3.1583    0.9986   -0.0092 N   0  0  0  0  0  0  0  0  0  0  0  0
   -0.5542   -4.1159   -1.2707 C   0  0  0  0  0  0  0  0  0  0  0  0
   -4.4179    0.0896    0.0008 H   0  0  0  0  0  0  0  0  0  0  0  0
   -3.0678   -1.8609   -0.0036 H   0  0  0  0  0  0  0  0  0  0  0  0
   -0.9309    2.6097   -0.0021 H   0  0  0  0  0  0  0  0  0  0  0  0
   -3.3928    2.3437   -0.0004 H   0  0  0  0  0  0  0  0  0  0  0  0
   -0.5514   -3.8802    0.8874 H   0  0  0  0  0  0  0  0  0  0  0  0
   -1.9979   -3.3618    0.0801 H   0  0  0  0  0  0  0  0  0  0  0  0
    1.7533    2.4728   -0.0027 H   0  0  0  0  0  0  0  0  0  0  0  0
    4.7866   -1.1601   -0.9001 H   0  0  0  0  0  0  0  0  0  0  0  0
    4.7879   -1.1676    0.8940 H   0  0  0  0  0  0  0  0  0  0  0  0
    3.8497   -2.3251   -0.0104 H   0  0  0  0  0  0  0  0  0  0  0  0
    0.5198   -4.3021   -1.3540 H   0  0  0  0  0  0  0  0  0  0  0  0
   -1.0529   -5.0868   -1.2730 H   0  0  0  0  0  0  0  0  0  0  0  0
   -0.8572   -3.5517   -2.1582 H   0  0  0  0  0  0  0  0  0  0  0  0
  1  6  1  0  0  0  0
  1  2  2  0  0  0  0
  1 18  1  0  0  0  0
  2  3  1  0  0  0  0
  2 19  1  0  0  0  0
  3  4  2  0  0  0  0
  3  7  1  0  0  0  0
  4  5  1  0  0  0  0
  4 10  1  0  0  0  0
  5  6  2  0  0  0  0
  5 20  1  0  0  0  0
  6 21  1  0  0  0  0
  7  8  1  0  0  0  0
  7 12  1  0  0  0  0
  8  9  1  0  0  0  0
  8 11  2  0  0  0  0
  9 10  2  0  0  0  0
  9 14  1  0  0  0  0
 10 13  1  0  0  0  0
 12 17  1  0  0  0  0
 12 22  1  0  0  0  0
 12 23  1  0  0  0  0
 13 16  1  0  0  0  0
 13 24  1  0  0  0  0
 14 16  2  0  0  0  0
 14 15  1  0  0  0  0
 15 25  1  0  0  0  0
 15 26  1  0  0  0  0
 15 27  1  0  0  0  0
 17 28  1  0  0  0  0
 17 29  1  0  0  0  0
 17 30  1  0  0  0  0
M  END
>  <DRUGBANK_ID>
DB07158

>  <COMMON_NAME>
5-ETHYL-3-METHYL-1,5-DIHYDRO-4H-PYRAZOLO[4,3-C]QUINOLIN-4-ONE

$$$$
