
 OpenBabel10282417233D

 77 78  0  0  0  0  0  0  0  0999 V2000
   -2.1020   -0.0750   -0.0020 N   0  0  0  0  0  0  0  0  0  0  0  0
   -2.9090    0.9880   -0.0230 C   0  0  0  0  0  0  0  0  0  0  0  0
   -4.2980    0.5130   -0.0810 C   0  0  0  0  0  0  0  0  0  0  0  0
   -4.2440   -0.8370   -0.0820 C   0  0  0  0  0  0  0  0  0  0  0  0
   -2.8200   -1.1990   -0.0240 C   0  0  0  0  0  0  0  0  0  0  0  0
   -2.3470   -2.5120    0.0050 C   0  0  0  0  0  0  0  0  0  0  0  0
   -1.0050   -2.8510    0.0270 C   0  0  0  0  0  0  0  0  0  0  0  0
    0.0810   -2.0040    0.0160 N   0  0  0  0  0  0  0  0  0  0  0  0
    1.2250   -2.7710    0.0280 C   0  0  0  0  0  0  0  0  0  0  0  0
    2.5400   -2.3340    0.0060 C   0  0  0  0  0  0  0  0  0  0  0  0
    2.9090   -0.9870   -0.0240 C   0  0  0  0  0  0  0  0  0  0  0  0
    2.1020    0.0750   -0.0050 N   0  0  0  0  0  0  0  0  0  0  0  0
    2.8210    1.1990   -0.0250 C   0  0  0  0  0  0  0  0  0  0  0  0
    2.3480    2.5120    0.0050 C   0  0  0  0  0  0  0  0  0  0  0  0
    1.0040    2.8510    0.0270 C   0  0  0  0  0  0  0  0  0  0  0  0
   -0.0820    2.0040    0.0150 N   0  0  0  0  0  0  0  0  0  0  0  0
   -1.2260    2.7710    0.0280 C   0  0  0  0  0  0  0  0  0  0  0  0
   -2.5410    2.3340    0.0060 C   0  0  0  0  0  0  0  0  0  0  0  0
   -0.8380    4.1240    0.0650 C   0  0  0  0  0  0  0  0  0  0  0  0
   -1.7745    5.3207    0.0990 C   0  0  0  0  0  0  0  0  0  0  0  0
   -3.1216    5.1306    0.0951 C   0  0  0  0  0  0  0  0  0  0  0  0
    0.5210    4.1730    0.0650 C   0  0  0  0  0  0  0  0  0  0  0  0
    1.3696    5.4336    0.0999 C   0  0  0  0  0  0  0  0  0  0  0  0
    4.2440    0.8370   -0.0810 C   0  0  0  0  0  0  0  0  0  0  0  0
    5.4240    1.7938   -0.1304 C   0  0  0  0  0  0  0  0  0  0  0  0
    4.2980   -0.5130   -0.0800 C   0  0  0  0  0  0  0  0  0  0  0  0
    5.5506   -1.3727   -0.1275 C   0  0  0  0  0  0  0  0  0  0  0  0
    6.3241   -1.0712   -1.4008 C   0  0  0  0  0  0  0  0  0  0  0  0
    6.7163    0.3972   -1.4197 C   0  0  0  0  0  0  0  0  0  0  0  0
    7.9427    0.7268   -1.4690 O   0  0  0  0  0  0  0  0  0  0  0  0
    5.7124    1.4008   -1.3824 O   0  5  0  0  0  0  0  0  0  0  0  0
    0.8380   -4.1240    0.0650 C   0  0  0  0  0  0  0  0  0  0  0  0
    1.7749   -5.3204    0.0990 C   0  0  0  0  0  0  0  0  0  0  0  0
    2.6527   -5.3120   -1.1419 C   0  0  0  0  0  0  0  0  0  0  0  0
    3.4688   -4.0301   -1.1765 C   0  0  0  0  0  0  0  0  0  0  0  0
    4.8875   -4.0913   -1.1734 O   0  5  0  0  0  0  0  0  0  0  0  0
    2.8815   -2.9035   -1.2082 O   0  0  0  0  0  0  0  0  0  0  0  0
   -0.5200   -4.1730    0.0650 C   0  0  0  0  0  0  0  0  0  0  0  0
   -1.3677   -5.4342    0.0999 C   0  0  0  0  0  0  0  0  0  0  0  0
   -5.4239   -1.7939   -0.1331 C   0  0  0  0  0  0  0  0  0  0  0  0
   -5.2107   -3.1375   -0.1275 C   0  0  0  0  0  0  0  0  0  0  0  0
   -5.5508    1.3723   -0.1303 C   0  0  0  0  0  0  0  0  0  0  0  0
    1.0250    0.0616   -0.0747 Sn  0  0  0  0  0  0  0  0  0  0  0  0
    1.0701   -0.0642   -0.0310 Cl  0  5  0  0  0  0  0  0  0  0  0  0
    1.0315   -0.0947   -0.0064 Cl  0  5  0  0  0  0  0  0  0  0  0  0
   -3.0656   -3.3048    0.0106 H   0  0  0  0  0  0  0  0  0  0  0  0
    0.0444   -0.9848    0.0015 H   0  0  0  0  0  0  0  0  0  0  0  0
    3.3166   -3.0700    0.0124 H   0  0  0  0  0  0  0  0  0  0  0  0
    3.0664    3.3049    0.0114 H   0  0  0  0  0  0  0  0  0  0  0  0
   -0.0454    0.9848   -0.0008 H   0  0  0  0  0  0  0  0  0  0  0  0
   -3.3178    3.0698    0.0116 H   0  0  0  0  0  0  0  0  0  0  0  0
   -1.3743    6.3127    0.1260 H   0  0  0  0  0  0  0  0  0  0  0  0
   -3.7808    5.9731    0.1190 H   0  0  0  0  0  0  0  0  0  0  0  0
   -3.5218    4.1387    0.0681 H   0  0  0  0  0  0  0  0  0  0  0  0
    1.9881    5.4231    0.9730 H   0  0  0  0  0  0  0  0  0  0  0  0
    1.9863    5.4727   -0.7736 H   0  0  0  0  0  0  0  0  0  0  0  0
    0.7317    6.2923    0.1249 H   0  0  0  0  0  0  0  0  0  0  0  0
    6.0531    1.6285    0.7192 H   0  0  0  0  0  0  0  0  0  0  0  0
    5.9833    1.6244   -1.0267 H   0  0  0  0  0  0  0  0  0  0  0  0
    5.0663    2.8022   -0.1184 H   0  0  0  0  0  0  0  0  0  0  0  0
    6.1641   -1.1564    0.7221 H   0  0  0  0  0  0  0  0  0  0  0  0
    5.2745   -2.4064   -0.1142 H   0  0  0  0  0  0  0  0  0  0  0  0
    7.2058   -1.6764   -1.4343 H   0  0  0  0  0  0  0  0  0  0  0  0
    5.7106   -1.2875   -2.2504 H   0  0  0  0  0  0  0  0  0  0  0  0
    2.3911   -5.2662    0.9721 H   0  0  0  0  0  0  0  0  0  0  0  0
    1.2004   -6.2228    0.1234 H   0  0  0  0  0  0  0  0  0  0  0  0
    3.3123   -6.1542   -1.1180 H   0  0  0  0  0  0  0  0  0  0  0  0
    2.0366   -5.3662   -2.0150 H   0  0  0  0  0  0  0  0  0  0  0  0
   -1.1471   -6.0361   -0.7568 H   0  0  0  0  0  0  0  0  0  0  0  0
   -1.1489   -5.9865    0.9898 H   0  0  0  0  0  0  0  0  0  0  0  0
   -2.4040   -5.1677    0.0913 H   0  0  0  0  0  0  0  0  0  0  0  0
   -6.4221   -1.4108   -0.1734 H   0  0  0  0  0  0  0  0  0  0  0  0
   -6.0413   -3.8111   -0.1634 H   0  0  0  0  0  0  0  0  0  0  0  0
   -4.2125   -3.5207   -0.0871 H   0  0  0  0  0  0  0  0  0  0  0  0
   -6.0939    1.1599   -1.0274 H   0  0  0  0  0  0  0  0  0  0  0  0
   -6.1654    1.1558    0.7185 H   0  0  0  0  0  0  0  0  0  0  0  0
   -5.2751    2.4060   -0.1165 H   0  0  0  0  0  0  0  0  0  0  0  0
  1  5  2  0  0  0  0
  2  3  1  0  0  0  0
  2  1  1  0  0  0  0
  3  4  2  0  0  0  0
  3 42  1  0  0  0  0
  4 40  1  0  0  0  0
  5  4  1  0  0  0  0
  5  6  1  0  0  0  0
  6  7  2  0  0  0  0
  6 46  1  0  0  0  0
  7  8  1  0  0  0  0
  7 38  1  0  0  0  0
  8  9  1  0  0  0  0
  8 47  1  0  0  0  0
  9 10  2  0  0  0  0
  9 32  1  0  0  0  0
 10 48  1  0  0  0  0
 11 10  1  0  0  0  0
 11 12  2  0  0  0  0
 11 26  1  0  0  0  0
 12 13  1  0  0  0  0
 13 14  2  0  0  0  0
 13 24  1  0  0  0  0
 14 15  1  0  0  0  0
 14 49  1  0  0  0  0
 15 16  1  0  0  0  0
 15 22  2  0  0  0  0
 16 17  1  0  0  0  0
 16 50  1  0  0  0  0
 17 18  1  0  0  0  0
 17 19  2  0  0  0  0
 18  2  2  0  0  0  0
 18 51  1  0  0  0  0
 19 20  1  0  0  0  0
 19 22  1  0  0  0  0
 20 21  2  0  0  0  0
 20 52  1  0  0  0  0
 21 53  1  0  0  0  0
 21 54  1  0  0  0  0
 22 23  1  0  0  0  0
 23 55  1  0  0  0  0
 23 56  1  0  0  0  0
 23 57  1  0  0  0  0
 24 25  1  0  0  0  0
 25 58  1  0  0  0  0
 25 59  1  0  0  0  0
 25 60  1  0  0  0  0
 26 24  2  0  0  0  0
 26 27  1  0  0  0  0
 27 28  1  0  0  0  0
 27 61  1  0  0  0  0
 27 62  1  0  0  0  0
 28 29  1  0  0  0  0
 28 63  1  0  0  0  0
 28 64  1  0  0  0  0
 29 30  2  0  0  0  0
 29 31  1  0  0  0  0
 32 33  1  0  0  0  0
 32 38  2  0  0  0  0
 33 34  1  0  0  0  0
 33 65  1  0  0  0  0
 33 66  1  0  0  0  0
 34 35  1  0  0  0  0
 34 67  1  0  0  0  0
 34 68  1  0  0  0  0
 35 36  1  0  0  0  0
 35 37  2  0  0  0  0
 38 39  1  0  0  0  0
 39 69  1  0  0  0  0
 39 70  1  0  0  0  0
 39 71  1  0  0  0  0
 40 41  2  0  0  0  0
 40 72  1  0  0  0  0
 41 73  1  0  0  0  0
 41 74  1  0  0  0  0
 42 75  1  0  0  0  0
 42 76  1  0  0  0  0
 42 77  1  0  0  0  0
M  CHG  5  31  -1  36  -1  43   4  44  -1  45  -1
M  END
>  <DRUGBANK_ID>
DB16449

>  <COMMON_NAME>
Tin protoporphyrin IX

>  <CAS_NUMBER>
14325-05-4

>  <UNII>
DIO3JT9G2P

>  <SYNONYMS>
Sn Protoporphyrin; Sn-heme; SnPP; SnPP Protoporphyrin; Tin protoporphyrin IX

$$$$
