
 OpenBabel10282417193D

 62 63  0  0  0  0  0  0  0  0999 V2000
    0.9824   -0.2291   -0.3111 C   0  0  0  0  0  0  0  0  0  0  0  0
    0.5122    0.9940    0.4157 C   0  0  0  0  0  0  0  0  0  0  0  0
    0.9601    2.3550   -0.1453 C   0  0  0  0  0  0  0  0  0  0  0  0
    0.4320    2.5054   -1.5748 C   0  0  0  0  0  0  0  0  0  0  0  0
   -1.0906    2.4832   -1.6249 C   0  0  0  0  0  0  0  0  0  0  0  0
    0.5520    3.6051    0.6964 C   0  0  0  0  0  0  0  0  0  0  0  0
    0.9561    3.6190    2.2161 C   0  0  0  0  0  0  0  0  0  0  0  0
    0.1655    2.4501    2.7999 C   0  0  0  0  0  0  0  0  0  0  0  0
   -0.0807    2.3124    4.2449 C   0  0  0  0  0  0  0  0  0  0  0  0
   -0.2200    3.7180    4.8549 C   0  0  0  0  0  0  0  0  0  0  0  0
    0.4751    4.9532    4.2329 C   0  0  0  0  0  0  0  0  0  0  0  0
    0.3826    4.9401    2.7441 C   0  0  0  0  0  0  0  0  0  0  0  0
    2.5504    3.5196    2.3397 C   0  0  0  0  0  0  0  0  0  0  0  0
    3.2074    3.5941    1.2820 O   0  0  0  0  0  0  0  0  0  0  0  0
    3.3505    3.4300    3.4845 N   0  0  0  0  0  0  0  0  0  0  0  0
    3.0873    3.4747    4.8844 C   0  0  0  0  0  0  0  0  0  0  0  0
    2.4110    2.3734    5.3189 C   0  0  0  0  0  0  0  0  0  0  0  0
    1.6655    2.3032    6.5158 C   0  0  0  0  0  0  0  0  0  0  0  0
    1.7806    3.3160    7.4335 C   0  0  0  0  0  0  0  0  0  0  0  0
    2.7124    4.3225    7.1443 C   0  0  0  0  0  0  0  0  0  0  0  0
    3.3680    4.4456    5.8503 C   0  0  0  0  0  0  0  0  0  0  0  0
    4.2750    5.9505    5.5483 S   0  0  0  0  0  0  0  0  0  0  0  0
    4.6969    6.0804    3.8467 C   0  0  0  0  0  0  0  0  0  0  0  0
    4.2065    5.4184    2.9094 O   0  0  0  0  0  0  0  0  0  0  0  0
    5.6672    7.0902    3.4004 C   0  0  0  0  0  0  0  0  0  0  0  0
    5.0170    8.4416    3.5670 C   0  0  0  0  0  0  0  0  0  0  0  0
    6.9799    6.8568    4.1004 C   0  0  0  0  0  0  0  0  0  0  0  0
    0.6102   -0.2904   -1.3267 H   0  0  0  0  0  0  0  0  0  0  0  0
    0.6463   -1.1010    0.2611 H   0  0  0  0  0  0  0  0  0  0  0  0
    2.0779   -0.2226   -0.2925 H   0  0  0  0  0  0  0  0  0  0  0  0
   -0.5646    0.9750    0.6261 H   0  0  0  0  0  0  0  0  0  0  0  0
    1.0456    0.7674    1.3193 H   0  0  0  0  0  0  0  0  0  0  0  0
    2.0510    2.3329   -0.2077 H   0  0  0  0  0  0  0  0  0  0  0  0
    0.8164    3.4279   -2.0229 H   0  0  0  0  0  0  0  0  0  0  0  0
    0.8304    1.6875   -2.1833 H   0  0  0  0  0  0  0  0  0  0  0  0
   -1.5181    3.3484   -1.1113 H   0  0  0  0  0  0  0  0  0  0  0  0
   -1.4388    2.4973   -2.6566 H   0  0  0  0  0  0  0  0  0  0  0  0
   -1.5014    1.5852   -1.1536 H   0  0  0  0  0  0  0  0  0  0  0  0
    0.9203    4.5163    0.2000 H   0  0  0  0  0  0  0  0  0  0  0  0
   -0.5433    3.7080    0.6697 H   0  0  0  0  0  0  0  0  0  0  0  0
   -0.8204    2.3364    2.3412 H   0  0  0  0  0  0  0  0  0  0  0  0
    0.8101    1.6129    2.6436 H   0  0  0  0  0  0  0  0  0  0  0  0
   -0.8783    1.6276    4.5583 H   0  0  0  0  0  0  0  0  0  0  0  0
    0.6392    1.5289    4.4879 H   0  0  0  0  0  0  0  0  0  0  0  0
   -1.2915    3.8868    4.7924 H   0  0  0  0  0  0  0  0  0  0  0  0
   -0.0325    3.7865    5.9165 H   0  0  0  0  0  0  0  0  0  0  0  0
    0.0518    5.8634    4.6647 H   0  0  0  0  0  0  0  0  0  0  0  0
    1.5274    5.0887    4.4391 H   0  0  0  0  0  0  0  0  0  0  0  0
    0.8982    5.8077    2.3109 H   0  0  0  0  0  0  0  0  0  0  0  0
   -0.6820    5.0425    2.4972 H   0  0  0  0  0  0  0  0  0  0  0  0
    4.2642    3.7803    3.1974 H   0  0  0  0  0  0  0  0  0  0  0  0
    2.3109    1.6935    4.4855 H   0  0  0  0  0  0  0  0  0  0  0  0
    0.7910    1.6416    6.5806 H   0  0  0  0  0  0  0  0  0  0  0  0
    1.0603    3.3723    8.2562 H   0  0  0  0  0  0  0  0  0  0  0  0
    2.8396    5.0639    7.9315 H   0  0  0  0  0  0  0  0  0  0  0  0
    5.8310    6.9250    2.3210 H   0  0  0  0  0  0  0  0  0  0  0  0
    4.7746    8.6331    4.6148 H   0  0  0  0  0  0  0  0  0  0  0  0
    5.6763    9.2236    3.1966 H   0  0  0  0  0  0  0  0  0  0  0  0
    4.0725    8.4774    3.0046 H   0  0  0  0  0  0  0  0  0  0  0  0
    7.3379    5.8385    3.8939 H   0  0  0  0  0  0  0  0  0  0  0  0
    7.7218    7.5711    3.7489 H   0  0  0  0  0  0  0  0  0  0  0  0
    6.8726    6.9514    5.1826 H   0  0  0  0  0  0  0  0  0  0  0  0
  1  2  1  0  0  0  0
  1 28  1  0  0  0  0
  1 29  1  0  0  0  0
  1 30  1  0  0  0  0
  2  3  1  0  0  0  0
  2 31  1  0  0  0  0
  2 32  1  0  0  0  0
  3  4  1  0  0  0  0
  3  6  1  0  0  0  0
  3 33  1  0  0  0  0
  4  5  1  0  0  0  0
  4 34  1  0  0  0  0
  4 35  1  0  0  0  0
  5 36  1  0  0  0  0
  5 37  1  0  0  0  0
  5 38  1  0  0  0  0
  6  7  1  0  0  0  0
  6 39  1  0  0  0  0
  6 40  1  0  0  0  0
  7  8  1  0  0  0  0
  7 12  1  0  0  0  0
  7 13  1  0  0  0  0
  8  9  1  0  0  0  0
  8 41  1  0  0  0  0
  8 42  1  0  0  0  0
  9 10  1  0  0  0  0
  9 43  1  0  0  0  0
  9 44  1  0  0  0  0
 10 11  1  0  0  0  0
 10 45  1  0  0  0  0
 10 46  1  0  0  0  0
 11 12  1  0  0  0  0
 11 47  1  0  0  0  0
 11 48  1  0  0  0  0
 12 49  1  0  0  0  0
 12 50  1  0  0  0  0
 13 14  2  0  0  0  0
 13 15  1  0  0  0  0
 15 16  1  0  0  0  0
 15 51  1  0  0  0  0
 16 17  2  0  0  0  0
 16 21  1  0  0  0  0
 17 18  1  0  0  0  0
 17 52  1  0  0  0  0
 18 19  2  0  0  0  0
 18 53  1  0  0  0  0
 19 20  1  0  0  0  0
 19 54  1  0  0  0  0
 20 21  2  0  0  0  0
 20 55  1  0  0  0  0
 21 22  1  0  0  0  0
 22 23  1  0  0  0  0
 23 24  2  0  0  0  0
 23 25  1  0  0  0  0
 25 26  1  0  0  0  0
 25 27  1  0  0  0  0
 25 56  1  0  0  0  0
 26 57  1  0  0  0  0
 26 58  1  0  0  0  0
 26 59  1  0  0  0  0
 27 60  1  0  0  0  0
 27 61  1  0  0  0  0
 27 62  1  0  0  0  0
M  END
>  <DRUGBANK_ID>
DB12181

>  <COMMON_NAME>
Dalcetrapib

>  <CAS_NUMBER>
211513-37-0

>  <UNII>
3D050LIQ3H

>  <SYNONYMS>
Dalcetrapib

$$$$
