
 OpenBabel10282417153D

 50 52  0  0  1  0  0  0  0  0999 V2000
    1.3243    0.4914    0.0509 C   0  0  0  0  0  0  0  0  0  0  0  0
    1.9459    0.6434   -1.2085 O   0  0  0  0  0  0  0  0  0  0  0  0
    1.1217    0.7002   -2.4295 C   0  0  0  0  0  0  0  0  0  0  0  0
    0.4628   -0.8241   -2.8054 C   0  0  2  0  0  0  0  0  0  0  0  0
    0.8028   -1.8951   -1.8770 O   0  0  0  0  0  0  0  0  0  0  0  0
   -0.1290   -2.1491   -0.8745 C   0  0  0  0  0  0  0  0  0  0  0  0
   -1.2039   -1.3416   -0.7738 N   0  0  0  0  0  0  0  0  0  0  0  0
   -1.8005   -1.2212    0.4386 C   0  0  0  0  0  0  0  0  0  0  0  0
   -2.8420   -0.1465    0.6159 C   0  0  0  0  0  0  0  0  0  0  0  0
   -1.4202   -1.9897    1.5135 C   0  0  0  0  0  0  0  0  0  0  0  0
   -0.3731   -2.8673    1.2975 C   0  0  0  0  0  0  0  0  0  0  0  0
   -0.0091   -3.8521    2.3686 C   0  0  0  0  0  0  0  0  0  0  0  0
    0.3141   -2.9239    0.1291 N   0  0  0  0  0  0  0  0  0  0  0  0
    0.7402   -1.4140   -4.2384 C   0  0  0  0  0  0  0  0  0  0  0  0
    0.0372   -1.2207   -5.2365 O   0  0  0  0  0  0  0  0  0  0  0  0
    1.8610   -2.1614   -4.4048 O   0  0  0  0  0  0  0  0  0  0  0  0
    0.0632    1.9031   -2.2720 C   0  0  0  0  0  0  0  0  0  0  0  0
   -0.9601    1.8516   -1.3378 C   0  0  0  0  0  0  0  0  0  0  0  0
   -1.6757    2.9805   -0.8894 C   0  0  0  0  0  0  0  0  0  0  0  0
   -1.3303    4.2449   -1.3318 C   0  0  0  0  0  0  0  0  0  0  0  0
   -0.3482    4.3465   -2.2867 C   0  0  0  0  0  0  0  0  0  0  0  0
    0.1751    3.1780   -2.8524 C   0  0  0  0  0  0  0  0  0  0  0  0
    2.2556    1.0823   -3.4231 C   0  0  0  0  0  0  0  0  0  0  0  0
    2.6914    2.3671   -3.7339 C   0  0  0  0  0  0  0  0  0  0  0  0
    3.3845    2.6511   -4.9073 C   0  0  0  0  0  0  0  0  0  0  0  0
    3.8955    1.6064   -5.6512 C   0  0  0  0  0  0  0  0  0  0  0  0
    3.8113    0.3306   -5.1217 C   0  0  0  0  0  0  0  0  0  0  0  0
    3.0802    0.1177   -3.9559 C   0  0  0  0  0  0  0  0  0  0  0  0
    2.0431    0.2034    0.8209 H   0  0  0  0  0  0  0  0  0  0  0  0
    0.6293   -0.3091    0.0323 H   0  0  0  0  0  0  0  0  0  0  0  0
    0.7825    1.3754    0.3852 H   0  0  0  0  0  0  0  0  0  0  0  0
   -0.6246   -0.7145   -2.8511 H   0  0  0  0  0  0  0  0  0  0  0  0
   -3.8207   -0.5858    0.7924 H   0  0  0  0  0  0  0  0  0  0  0  0
   -2.5752    0.5318    1.4390 H   0  0  0  0  0  0  0  0  0  0  0  0
   -2.9546    0.4676   -0.2794 H   0  0  0  0  0  0  0  0  0  0  0  0
   -1.9305   -1.9194    2.4665 H   0  0  0  0  0  0  0  0  0  0  0  0
    0.2133   -3.3549    3.3186 H   0  0  0  0  0  0  0  0  0  0  0  0
   -0.8520   -4.5360    2.5134 H   0  0  0  0  0  0  0  0  0  0  0  0
    0.8623   -4.4428    2.0732 H   0  0  0  0  0  0  0  0  0  0  0  0
    2.1721   -1.9759   -5.3234 H   0  0  0  0  0  0  0  0  0  0  0  0
   -1.1619    0.9050   -0.8905 H   0  0  0  0  0  0  0  0  0  0  0  0
   -2.4651    2.8725   -0.1524 H   0  0  0  0  0  0  0  0  0  0  0  0
   -1.8454    5.1338   -0.9848 H   0  0  0  0  0  0  0  0  0  0  0  0
    0.0073    5.3149   -2.6309 H   0  0  0  0  0  0  0  0  0  0  0  0
    0.6972    3.3494   -3.7818 H   0  0  0  0  0  0  0  0  0  0  0  0
    2.4918    3.1953   -3.0613 H   0  0  0  0  0  0  0  0  0  0  0  0
    3.5513    3.6853   -5.1891 H   0  0  0  0  0  0  0  0  0  0  0  0
    4.4755    1.7989   -6.5453 H   0  0  0  0  0  0  0  0  0  0  0  0
    4.3383   -0.4991   -5.5763 H   0  0  0  0  0  0  0  0  0  0  0  0
    3.1455   -0.8260   -3.4267 H   0  0  0  0  0  0  0  0  0  0  0  0
  1  2  1  0  0  0  0
  1 29  1  0  0  0  0
  1 30  1  0  0  0  0
  1 31  1  0  0  0  0
  2  3  1  0  0  0  0
  3 17  1  0  0  0  0
  3 23  1  0  0  0  0
  4 14  1  0  0  0  0
  4 32  1  1  0  0  0
  4  5  1  0  0  0  0
  4  3  1  0  0  0  0
  5  6  1  0  0  0  0
  6  7  2  0  0  0  0
  6 13  1  0  0  0  0
  7  8  1  0  0  0  0
  8  9  1  0  0  0  0
  8 10  2  0  0  0  0
  9 33  1  0  0  0  0
  9 34  1  0  0  0  0
  9 35  1  0  0  0  0
 10 11  1  0  0  0  0
 10 36  1  0  0  0  0
 11 12  1  0  0  0  0
 11 13  2  0  0  0  0
 12 37  1  0  0  0  0
 12 38  1  0  0  0  0
 12 39  1  0  0  0  0
 14 15  2  0  0  0  0
 14 16  1  0  0  0  0
 16 40  1  0  0  0  0
 17 18  2  0  0  0  0
 17 22  1  0  0  0  0
 18 19  1  0  0  0  0
 18 41  1  0  0  0  0
 19 20  2  0  0  0  0
 19 42  1  0  0  0  0
 20 21  1  0  0  0  0
 20 43  1  0  0  0  0
 21 22  2  0  0  0  0
 21 44  1  0  0  0  0
 22 45  1  0  0  0  0
 23 24  2  0  0  0  0
 23 28  1  0  0  0  0
 24 25  1  0  0  0  0
 24 46  1  0  0  0  0
 25 26  2  0  0  0  0
 25 47  1  0  0  0  0
 26 27  1  0  0  0  0
 26 48  1  0  0  0  0
 27 28  2  0  0  0  0
 27 49  1  0  0  0  0
 28 50  1  0  0  0  0
M  END
>  <DRUGBANK_ID>
DB06403

>  <COMMON_NAME>
Ambrisentan

>  <CAS_NUMBER>
177036-94-1

>  <UNII>
HW6NV07QEC

>  <SYNONYMS>
(2S)-2-[(4,6-dimethylpyrimidin-2-yl)oxy]-3-methoxy- 3,3-diphenylpropanoic acid; Ambrisentan

$$$$
