
 OpenBabel10282417203D

 25 23  0  0  1  0  0  0  0  0999 V2000
    1.3161   -0.1963    0.3695 C   0  0  0  0  0  0  0  0  0  0  0  0
    0.6515   -1.8866    0.3344 S   0  3  0  0  0  0  0  0  0  0  0  0
   -1.1414   -1.7736    0.1649 C   0  0  0  0  0  0  0  0  0  0  0  0
    1.0460   -2.5639   -1.2949 C   0  0  0  0  0  0  0  0  0  0  0  0
    0.5933   -1.8761   -2.5848 C   0  0  0  0  0  0  0  0  0  0  0  0
    1.1492   -0.4770   -2.8021 C   0  0  1  0  0  0  0  0  0  0  0  0
    2.6997   -0.3944   -2.8120 C   0  0  0  0  0  0  0  0  0  0  0  0
    3.3839    0.1305   -3.6650 O   0  0  0  0  0  0  0  0  0  0  0  0
    3.3012   -0.9621   -1.7441 O   0  0  0  0  0  0  0  0  0  0  0  0
    0.6037    0.1445   -4.0307 N   0  0  0  0  0  0  0  0  0  0  0  0
   -1.6368    1.6749   -0.5435 Cl  0  5  0  0  0  0  0  0  0  0  0  0
    1.0436    0.3048    1.3019 H   0  0  0  0  0  0  0  0  0  0  0  0
    1.0967    0.5354   -0.3989 H   0  0  0  0  0  0  0  0  0  0  0  0
    2.4110   -0.2640    0.3769 H   0  0  0  0  0  0  0  0  0  0  0  0
   -1.5030   -1.3606   -0.7772 H   0  0  0  0  0  0  0  0  0  0  0  0
   -1.5299   -2.8022    0.2066 H   0  0  0  0  0  0  0  0  0  0  0  0
   -1.5879   -1.2493    1.0129 H   0  0  0  0  0  0  0  0  0  0  0  0
    2.1184   -2.7601   -1.3102 H   0  0  0  0  0  0  0  0  0  0  0  0
    0.6090   -3.5710   -1.2987 H   0  0  0  0  0  0  0  0  0  0  0  0
    0.9017   -2.5056   -3.4325 H   0  0  0  0  0  0  0  0  0  0  0  0
   -0.5029   -1.8538   -2.6302 H   0  0  0  0  0  0  0  0  0  0  0  0
    0.7503    0.1649   -2.0424 H   0  0  0  0  0  0  0  0  0  0  0  0
    4.2634   -0.8309   -1.8292 H   0  0  0  0  0  0  0  0  0  0  0  0
    0.8592    1.1353   -3.9726 H   0  0  0  0  0  0  0  0  0  0  0  0
    1.0659   -0.2335   -4.8467 H   0  0  0  0  0  0  0  0  0  0  0  0
  1  2  1  0  0  0  0
  1 12  1  0  0  0  0
  1 13  1  0  0  0  0
  1 14  1  0  0  0  0
  2  3  1  0  0  0  0
  2  4  1  0  0  0  0
  3 15  1  0  0  0  0
  3 16  1  0  0  0  0
  3 17  1  0  0  0  0
  4  5  1  0  0  0  0
  4 18  1  0  0  0  0
  4 19  1  0  0  0  0
  5  6  1  0  0  0  0
  5 20  1  0  0  0  0
  5 21  1  0  0  0  0
  6  7  1  0  0  0  0
  6 10  1  0  0  0  0
  6 22  1  1  0  0  0
  7  8  2  0  0  0  0
  7  9  1  0  0  0  0
  9 23  1  0  0  0  0
 10 24  1  0  0  0  0
 10 25  1  0  0  0  0
M  CHG  2   2   1  11  -1
M  END
>  <DRUGBANK_ID>
DB13250

>  <COMMON_NAME>
Methylmethionine chloride

>  <CAS_NUMBER>
1115-84-0

>  <UNII>
G9CUR2204U

>  <SYNONYMS>
Methiosulfonium chloride

$$$$
