
 OpenBabel10282417193D

 65 68  0  0  0  0  0  0  0  0999 V2000
    1.1921    0.1789   -0.2298 C   0  0  0  0  0  0  0  0  0  0  0  0
    0.7196    1.5794    0.3023 C   0  0  0  0  0  0  0  0  0  0  0  0
    1.0776    2.5837   -0.7693 C   0  0  0  0  0  0  0  0  0  0  0  0
   -0.9176    1.2037    0.2785 C   0  0  0  0  0  0  0  0  0  0  0  0
   -1.4514    0.1267    1.3361 C   0  0  0  0  0  0  0  0  0  0  0  0
   -0.9254    0.1493    2.9038 C   0  0  0  0  0  0  0  0  0  0  0  0
   -1.3248    1.7459    3.3911 C   0  0  0  0  0  0  0  0  0  0  0  0
   -1.5085    2.1427    5.1776 C   0  0  0  0  0  0  0  0  0  0  0  0
   -1.4426    3.8480    5.7636 C   0  0  0  0  0  0  0  0  0  0  0  0
   -1.1733    5.2143    4.5917 C   0  0  0  0  0  0  0  0  0  0  0  0
   -1.1810    4.8921    2.8237 C   0  0  0  0  0  0  0  0  0  0  0  0
   -1.3144    3.1835    2.2260 C   0  0  0  0  0  0  0  0  0  0  0  0
   -1.5622   -0.8549    3.8216 C   0  0  0  0  0  0  0  0  0  0  0  0
   -1.4814   -2.1608    3.4044 C   0  0  0  0  0  0  0  0  0  0  0  0
   -1.5738   -3.1530    4.3618 C   0  0  0  0  0  0  0  0  0  0  0  0
   -1.8465   -2.8686    5.7079 C   0  0  0  0  0  0  0  0  0  0  0  0
   -1.9661   -1.5839    6.1338 C   0  0  0  0  0  0  0  0  0  0  0  0
   -1.8048   -0.6277    5.1819 C   0  0  0  0  0  0  0  0  0  0  0  0
    0.8222   -0.4403    3.1106 C   0  0  0  0  0  0  0  0  0  0  0  0
    1.5285   -0.8951    2.2063 O   0  0  0  0  0  0  0  0  0  0  0  0
    1.5645   -0.1590    4.2862 N   0  0  0  0  0  0  0  0  0  0  0  0
    1.6588    2.2279    1.5757 N   0  0  0  0  0  0  0  0  0  0  0  0
    0.9108    1.9492    2.7161 C   0  0  0  0  0  0  0  0  0  0  0  0
    0.7002    3.2271    3.3776 C   0  0  0  0  0  0  0  0  0  0  0  0
    1.3241    3.6876    2.0093 C   0  0  0  0  0  0  0  0  0  0  0  0
   -0.8246    3.4469    4.0082 O   0  0  0  0  0  0  0  0  0  0  0  0
   -2.7026    3.4324    3.7706 C   0  0  0  0  0  0  0  0  0  0  0  0
   -3.5522    2.2567    3.3550 C   0  0  0  0  0  0  0  0  0  0  0  0
   -4.9150    2.2494    3.3021 C   0  0  0  0  0  0  0  0  0  0  0  0
   -5.5479    3.4441    3.5425 C   0  0  0  0  0  0  0  0  0  0  0  0
   -4.8418    4.5085    4.0871 C   0  0  0  0  0  0  0  0  0  0  0  0
   -3.5046    4.4731    4.3038 C   0  0  0  0  0  0  0  0  0  0  0  0
   -5.3764    5.6798    4.5180 O   0  0  0  0  0  0  0  0  0  0  0  0
    0.8029   -0.0007   -1.2467 H   0  0  0  0  0  0  0  0  0  0  0  0
    0.7500   -0.6709    0.3016 H   0  0  0  0  0  0  0  0  0  0  0  0
    2.2687    0.0704   -0.2442 H   0  0  0  0  0  0  0  0  0  0  0  0
    0.6931    2.3056   -1.7474 H   0  0  0  0  0  0  0  0  0  0  0  0
    0.6929    3.5736   -0.5281 H   0  0  0  0  0  0  0  0  0  0  0  0
    2.1713    2.6328   -0.8139 H   0  0  0  0  0  0  0  0  0  0  0  0
   -1.6398    2.0239    0.1893 H   0  0  0  0  0  0  0  0  0  0  0  0
   -1.1551    0.8174   -0.7325 H   0  0  0  0  0  0  0  0  0  0  0  0
   -2.5525    0.2355    1.3286 H   0  0  0  0  0  0  0  0  0  0  0  0
   -1.2915   -0.8504    0.8691 H   0  0  0  0  0  0  0  0  0  0  0  0
   -2.5129    1.7772    5.5499 H   0  0  0  0  0  0  0  0  0  0  0  0
   -2.2636    3.9900    6.4966 H   0  0  0  0  0  0  0  0  0  0  0  0
   -1.5251    6.2249    4.7943 H   0  0  0  0  0  0  0  0  0  0  0  0
   -0.8486    5.6847    2.1580 H   0  0  0  0  0  0  0  0  0  0  0  0
   -1.0647    3.2125    1.1624 H   0  0  0  0  0  0  0  0  0  0  0  0
   -1.1580   -2.3874    2.3897 H   0  0  0  0  0  0  0  0  0  0  0  0
   -1.3505   -4.1602    4.0514 H   0  0  0  0  0  0  0  0  0  0  0  0
   -1.9253   -3.6396    6.4524 H   0  0  0  0  0  0  0  0  0  0  0  0
   -2.0699   -1.2542    7.1658 H   0  0  0  0  0  0  0  0  0  0  0  0
   -1.7369    0.2750    5.7169 H   0  0  0  0  0  0  0  0  0  0  0  0
    1.1371    0.4052    5.0167 H   0  0  0  0  0  0  0  0  0  0  0  0
    2.4400    0.3245    4.0098 H   0  0  0  0  0  0  0  0  0  0  0  0
    0.1221    1.5616    2.1755 H   0  0  0  0  0  0  0  0  0  0  0  0
    0.8998    1.4463    3.6300 H   0  0  0  0  0  0  0  0  0  0  0  0
    1.3739    3.1947    4.2667 H   0  0  0  0  0  0  0  0  0  0  0  0
    2.1982    4.3035    2.2082 H   0  0  0  0  0  0  0  0  0  0  0  0
    0.6681    4.2169    1.3421 H   0  0  0  0  0  0  0  0  0  0  0  0
   -3.2319    1.2333    3.1724 H   0  0  0  0  0  0  0  0  0  0  0  0
   -5.3945    1.3010    3.0699 H   0  0  0  0  0  0  0  0  0  0  0  0
   -6.5962    3.5112    3.3367 H   0  0  0  0  0  0  0  0  0  0  0  0
   -3.2041    5.2502    4.9831 H   0  0  0  0  0  0  0  0  0  0  0  0
   -6.3305    5.5832    4.5069 H   0  0  0  0  0  0  0  0  0  0  0  0
  1  2  1  0  0  0  0
  1 34  1  0  0  0  0
  1 35  1  0  0  0  0
  1 36  1  0  0  0  0
  2  3  1  0  0  0  0
  2  4  1  0  0  0  0
  2 22  1  0  0  0  0
  3 37  1  0  0  0  0
  3 38  1  0  0  0  0
  3 39  1  0  0  0  0
  4  5  1  0  0  0  0
  4 40  1  0  0  0  0
  4 41  1  0  0  0  0
  5  6  1  0  0  0  0
  5 42  1  0  0  0  0
  5 43  1  0  0  0  0
  6  7  1  0  0  0  0
  6 13  1  0  0  0  0
  6 19  1  0  0  0  0
  7  8  2  0  0  0  0
  7 12  1  0  0  0  0
  8  9  1  0  0  0  0
  8 44  1  0  0  0  0
  9 10  2  0  0  0  0
  9 45  1  0  0  0  0
 10 11  1  0  0  0  0
 10 46  1  0  0  0  0
 11 12  2  0  0  0  0
 11 47  1  0  0  0  0
 12 48  1  0  0  0  0
 13 14  2  0  0  0  0
 13 18  1  0  0  0  0
 14 15  1  0  0  0  0
 14 49  1  0  0  0  0
 15 16  2  0  0  0  0
 15 50  1  0  0  0  0
 16 17  1  0  0  0  0
 16 51  1  0  0  0  0
 17 18  2  0  0  0  0
 17 52  1  0  0  0  0
 18 53  1  0  0  0  0
 19 20  2  0  0  0  0
 19 21  1  0  0  0  0
 21 54  1  0  0  0  0
 21 55  1  0  0  0  0
 22 23  1  0  0  0  0
 22 25  1  0  0  0  0
 23 24  1  0  0  0  0
 23 56  1  0  0  0  0
 23 57  1  0  0  0  0
 24 25  1  0  0  0  0
 24 26  1  0  0  0  0
 24 58  1  0  0  0  0
 25 59  1  0  0  0  0
 25 60  1  0  0  0  0
 26 27  1  0  0  0  0
 27 28  2  0  0  0  0
 27 32  1  0  0  0  0
 28 29  1  0  0  0  0
 28 61  1  0  0  0  0
 29 30  2  0  0  0  0
 29 62  1  0  0  0  0
 30 31  1  0  0  0  0
 30 63  1  0  0  0  0
 31 32  2  0  0  0  0
 31 33  1  0  0  0  0
 32 64  1  0  0  0  0
 33 65  1  0  0  0  0
M  END
>  <DRUGBANK_ID>
DB12408

>  <COMMON_NAME>
PF-03635659

>  <CAS_NUMBER>
931409-24-4

>  <UNII>
O0RG3QM34H

$$$$
