
 OpenBabel10282417233D

 50 51  0  0  0  0  0  0  0  0999 V2000
    2.6208   -0.1268   -0.0106 C   0  0  0  0  0  0  0  0  0  0  0  0
    1.1371   -0.1614    0.0123 C   0  0  0  0  0  0  0  0  0  0  0  0
    0.5239    1.0578   -0.0025 C   0  0  0  0  0  0  0  0  0  0  0  0
   -0.8389    1.1011   -0.0828 C   0  0  0  0  0  0  0  0  0  0  0  0
   -1.6749   -0.0261   -0.0245 C   0  0  0  0  0  0  0  0  0  0  0  0
   -1.0462   -1.2625    0.0044 C   0  0  0  0  0  0  0  0  0  0  0  0
    0.3551   -1.3264    0.0072 C   0  0  0  0  0  0  0  0  0  0  0  0
   -3.1667   -0.0053   -0.0097 C   0  0  0  0  0  0  0  0  0  0  0  0
   -3.8417   -1.0524   -0.1051 O   0  0  0  0  0  0  0  0  0  0  0  0
   -3.8407    1.1533    0.1457 N   0  0  0  0  0  0  0  0  0  0  0  0
   -3.2962    2.4727    0.3282 C   0  0  0  0  0  0  0  0  0  0  0  0
   -3.3996    3.2382   -0.9317 C   0  0  0  0  0  0  0  0  0  0  0  0
   -4.8157    3.6326   -0.7892 C   0  0  0  0  0  0  0  0  0  0  0  0
   -5.3665    4.5865    0.2310 C   0  0  0  0  0  0  0  0  0  0  0  0
   -4.7865    5.9310   -0.0969 C   0  0  0  0  0  0  0  0  0  0  0  0
   -5.2853    6.6085   -1.4254 C   0  0  0  0  0  0  0  0  0  0  0  0
   -5.5238    7.8225   -1.3576 O   0  0  0  0  0  0  0  0  0  0  0  0
   -5.1916    6.0458   -2.7015 N   0  0  0  0  0  0  0  0  0  0  0  0
   -5.7878    4.8543   -3.3046 C   0  0  0  0  0  0  0  0  0  0  0  0
   -6.7216    4.0724   -2.5976 C   0  0  0  0  0  0  0  0  0  0  0  0
   -6.7188    2.6616   -2.7350 C   0  0  0  0  0  0  0  0  0  0  0  0
   -6.0275    2.0611   -3.7678 C   0  0  0  0  0  0  0  0  0  0  0  0
   -5.3988    2.8870   -4.6971 C   0  0  0  0  0  0  0  0  0  0  0  0
   -5.2463    4.2851   -4.4793 C   0  0  0  0  0  0  0  0  0  0  0  0
   -4.3140    4.9655   -5.2908 N   0  0  0  0  0  0  0  0  0  0  0  0
    3.0073   -0.6154    0.8811 H   0  0  0  0  0  0  0  0  0  0  0  0
    2.9787   -0.5810   -0.9341 H   0  0  0  0  0  0  0  0  0  0  0  0
    2.9769    0.9145    0.0005 H   0  0  0  0  0  0  0  0  0  0  0  0
    1.0636    2.0020   -0.0058 H   0  0  0  0  0  0  0  0  0  0  0  0
   -1.0850    2.1288   -0.2412 H   0  0  0  0  0  0  0  0  0  0  0  0
   -1.6427   -2.1742    0.0052 H   0  0  0  0  0  0  0  0  0  0  0  0
    0.8322   -2.2989    0.0053 H   0  0  0  0  0  0  0  0  0  0  0  0
   -4.8491    1.0436    0.0561 H   0  0  0  0  0  0  0  0  0  0  0  0
   -3.8047    2.9188    1.1707 H   0  0  0  0  0  0  0  0  0  0  0  0
   -2.3151    2.5602    0.7094 H   0  0  0  0  0  0  0  0  0  0  0  0
   -2.7389    4.1074   -1.0419 H   0  0  0  0  0  0  0  0  0  0  0  0
   -3.2794    2.6644   -1.8763 H   0  0  0  0  0  0  0  0  0  0  0  0
   -4.7830    4.1435   -1.6972 H   0  0  0  0  0  0  0  0  0  0  0  0
   -5.4484    2.7544   -0.7836 H   0  0  0  0  0  0  0  0  0  0  0  0
   -6.4578    4.6464    0.1733 H   0  0  0  0  0  0  0  0  0  0  0  0
   -5.1865    4.2402    1.2535 H   0  0  0  0  0  0  0  0  0  0  0  0
   -5.0447    6.5847    0.7475 H   0  0  0  0  0  0  0  0  0  0  0  0
   -3.6891    5.8721   -0.0873 H   0  0  0  0  0  0  0  0  0  0  0  0
   -4.5956    6.5882   -3.3149 H   0  0  0  0  0  0  0  0  0  0  0  0
   -7.1630    4.4805   -1.6962 H   0  0  0  0  0  0  0  0  0  0  0  0
   -7.0630    2.0291   -1.9092 H   0  0  0  0  0  0  0  0  0  0  0  0
   -5.9589    0.9741   -3.8223 H   0  0  0  0  0  0  0  0  0  0  0  0
   -4.9573    2.4084   -5.5674 H   0  0  0  0  0  0  0  0  0  0  0  0
   -4.3668    4.6413   -6.2560 H   0  0  0  0  0  0  0  0  0  0  0  0
   -4.3857    5.9734   -5.2461 H   0  0  0  0  0  0  0  0  0  0  0  0
  1  2  1  0  0  0  0
  1 26  1  0  0  0  0
  1 27  1  0  0  0  0
  1 28  1  0  0  0  0
  2  3  2  0  0  0  0
  2  7  1  0  0  0  0
  3  4  1  0  0  0  0
  3 29  1  0  0  0  0
  4  5  2  0  0  0  0
  4 30  1  0  0  0  0
  5  6  1  0  0  0  0
  5  8  1  0  0  0  0
  6  7  2  0  0  0  0
  6 31  1  0  0  0  0
  7 32  1  0  0  0  0
  8  9  2  0  0  0  0
  8 10  1  0  0  0  0
 10 11  1  0  0  0  0
 10 33  1  0  0  0  0
 11 12  1  0  0  0  0
 11 34  1  0  0  0  0
 11 35  1  0  0  0  0
 12 13  1  0  0  0  0
 12 36  1  0  0  0  0
 12 37  1  0  0  0  0
 13 14  1  0  0  0  0
 13 38  1  0  0  0  0
 13 39  1  0  0  0  0
 14 15  1  0  0  0  0
 14 40  1  0  0  0  0
 14 41  1  0  0  0  0
 15 16  1  0  0  0  0
 15 42  1  0  0  0  0
 15 43  1  0  0  0  0
 16 17  2  0  0  0  0
 16 18  1  0  0  0  0
 18 19  1  0  0  0  0
 18 44  1  0  0  0  0
 19 20  2  0  0  0  0
 19 24  1  0  0  0  0
 20 21  1  0  0  0  0
 20 45  1  0  0  0  0
 21 22  2  0  0  0  0
 21 46  1  0  0  0  0
 22 23  1  0  0  0  0
 22 47  1  0  0  0  0
 23 24  2  0  0  0  0
 23 48  1  0  0  0  0
 24 25  1  0  0  0  0
 25 49  1  0  0  0  0
 25 50  1  0  0  0  0
M  END
>  <DRUGBANK_ID>
DB16955

>  <COMMON_NAME>
RG-2833

>  <CAS_NUMBER>
1215493-56-3

>  <UNII>
17V14R89EU

>  <SYNONYMS>
N-(6-(2-aminophenylamino)-6-oxohexyl)-4-methylbenzamide

$$$$
