
 OpenBabel10282417143D

 28 28  0  0  0  0  0  0  0  0999 V2000
    0.9247   -0.0923   -0.1471 O   0  0  0  0  0  0  0  0  0  0  0  0
    0.9991    1.2704   -1.9311 O   0  0  0  0  0  0  0  0  0  0  0  0
   -1.3962    1.9075    2.6512 O   0  0  0  0  0  0  0  0  0  0  0  0
    1.0542    2.7597    0.2670 O   0  0  0  0  0  0  0  0  0  0  0  0
   -1.4742    1.1694    0.5673 N   0  0  0  0  0  0  0  0  0  0  0  0
    0.3910    2.3593    1.4245 N   0  0  0  0  0  0  0  0  0  0  0  0
   -1.1383    0.9351   -0.8498 C   0  0  2  0  0  0  0  0  0  0  0  0
   -1.8745   -0.3033   -1.3986 C   0  0  0  0  0  0  0  0  0  0  0  0
   -1.4099   -0.8472   -2.7383 C   0  0  0  0  0  0  0  0  0  0  0  0
    0.3494    0.7253   -1.0557 C   0  0  0  0  0  0  0  0  0  0  0  0
   -0.1331   -1.4225   -2.8931 C   0  0  0  0  0  0  0  0  0  0  0  0
   -2.2862   -0.9010   -3.8228 C   0  0  0  0  0  0  0  0  0  0  0  0
    0.2687   -2.0164   -4.0829 C   0  0  0  0  0  0  0  0  0  0  0  0
   -1.9212   -1.5933   -4.9813 C   0  0  0  0  0  0  0  0  0  0  0  0
   -0.8425    1.8383    1.5613 C   0  0  0  0  0  0  0  0  0  0  0  0
   -0.6403   -2.1288   -5.1205 C   0  0  0  0  0  0  0  0  0  0  0  0
   -2.4235    0.9501    0.8508 H   0  0  0  0  0  0  0  0  0  0  0  0
    0.7950    2.7386    2.2736 H   0  0  0  0  0  0  0  0  0  0  0  0
    1.8788    0.1155   -0.2194 H   0  0  0  0  0  0  0  0  0  0  0  0
    0.3579    2.9142   -0.3960 H   0  0  0  0  0  0  0  0  0  0  0  0
   -1.4543    1.8313   -1.3952 H   0  0  0  0  0  0  0  0  0  0  0  0
   -1.8020   -1.1311   -0.6794 H   0  0  0  0  0  0  0  0  0  0  0  0
   -2.9473   -0.0676   -1.4500 H   0  0  0  0  0  0  0  0  0  0  0  0
    0.5945   -1.4391   -2.0889 H   0  0  0  0  0  0  0  0  0  0  0  0
   -3.2726   -0.4478   -3.7646 H   0  0  0  0  0  0  0  0  0  0  0  0
    1.2732   -2.4226   -4.1665 H   0  0  0  0  0  0  0  0  0  0  0  0
   -2.6499   -1.7397   -5.7727 H   0  0  0  0  0  0  0  0  0  0  0  0
   -0.3531   -2.6465   -6.0299 H   0  0  0  0  0  0  0  0  0  0  0  0
  1 10  1  0  0  0  0
  1 19  1  0  0  0  0
  2 10  2  0  0  0  0
  3 15  2  0  0  0  0
  4  6  1  0  0  0  0
  4 20  1  0  0  0  0
  5 15  1  0  0  0  0
  5 17  1  0  0  0  0
  6 15  1  0  0  0  0
  6 18  1  0  0  0  0
  7 10  1  0  0  0  0
  7 21  1  6  0  0  0
  7  8  1  0  0  0  0
  7  5  1  0  0  0  0
  8  9  1  0  0  0  0
  8 22  1  0  0  0  0
  8 23  1  0  0  0  0
  9 11  2  0  0  0  0
  9 12  1  0  0  0  0
 11 13  1  0  0  0  0
 11 24  1  0  0  0  0
 12 14  2  0  0  0  0
 12 25  1  0  0  0  0
 13 16  2  0  0  0  0
 13 26  1  0  0  0  0
 14 16  1  0  0  0  0
 14 27  1  0  0  0  0
 16 28  1  0  0  0  0
M  END
>  <DRUGBANK_ID>
DB04316

>  <SECONDARY_ACCESSION_NUMBERS>
EXPT01884

>  <COMMON_NAME>
D-[(N-Hydroxyamino)Carbonyl]Phenylalanine

$$$$
