
 OpenBabel10282417133D

 12 12  0  0  0  0  0  0  0  0999 V2000
   -2.2308    0.9692    0.0061 O   0  0  0  0  0  0  0  0  0  0  0  0
   -1.1845    0.3292    0.0090 C   0  0  0  0  0  0  0  0  0  0  0  0
   -1.1716   -1.0405    0.0173 N   0  0  0  0  0  0  0  0  0  0  0  0
   -0.0267   -1.7863    0.0006 C   0  0  0  0  0  0  0  0  0  0  0  0
    1.1726   -1.2005   -0.0166 C   0  0  0  0  0  0  0  0  0  0  0  0
    1.2416    0.2748   -0.0040 C   0  0  0  0  0  0  0  0  0  0  0  0
    2.3208    0.8550   -0.0002 O   0  0  0  0  0  0  0  0  0  0  0  0
    0.0426    0.9304    0.0038 N   0  0  0  0  0  0  0  0  0  0  0  0
   -2.0808   -1.4892    0.0290 H   0  0  0  0  0  0  0  0  0  0  0  0
   -0.1442   -2.8651   -0.0011 H   0  0  0  0  0  0  0  0  0  0  0  0
    2.1043   -1.7490   -0.0357 H   0  0  0  0  0  0  0  0  0  0  0  0
    0.0627    1.9376    0.0087 H   0  0  0  0  0  0  0  0  0  0  0  0
  1  2  2  0  0  0  0
  2  3  1  0  0  0  0
  2  8  1  0  0  0  0
  3  4  1  0  0  0  0
  3  9  1  0  0  0  0
  4  5  2  0  0  0  0
  4 10  1  0  0  0  0
  5  6  1  0  0  0  0
  5 11  1  0  0  0  0
  6  7  2  0  0  0  0
  6  8  1  0  0  0  0
  8 12  1  0  0  0  0
M  END
>  <DRUGBANK_ID>
DB03419

>  <SECONDARY_ACCESSION_NUMBERS>
EXPT03201

>  <COMMON_NAME>
Uracil

>  <CAS_NUMBER>
66-22-8

>  <UNII>
56HH86ZVCT

>  <SYNONYMS>
Uracil

$$$$
