303
 OpenBabel10282417123D

 55 58  0  0  0  0  0  0  0  0999 V2000
    0.9085    0.0158    0.1072 N   0  0  0  0  0  0  0  0  0  0  0  0
    0.2684    0.8557   -0.6343 C   0  0  0  0  0  0  0  0  0  0  0  0
    0.9336    1.7005   -1.4803 N   0  0  0  0  0  0  0  0  0  0  0  0
   -1.2204    0.8789   -0.5593 C   0  0  0  0  0  0  0  0  0  0  0  0
   -1.9439    1.1907   -1.6914 C   0  0  0  0  0  0  0  0  0  0  0  0
   -3.3356    1.3518   -1.6021 C   0  0  0  0  0  0  0  0  0  0  0  0
   -4.0140    1.9878   -2.6164 C   0  0  0  0  0  0  0  0  0  0  0  0
   -5.3979    1.9363   -2.6994 C   0  0  0  0  0  0  0  0  0  0  0  0
   -6.1790    1.3377   -1.7264 C   0  0  0  0  0  0  0  0  0  0  0  0
   -5.5072    0.9730   -0.5463 C   0  0  0  0  0  0  0  0  0  0  0  0
   -4.0754    0.9688   -0.4772 C   0  0  0  0  0  0  0  0  0  0  0  0
   -3.3219    0.6598    0.6647 C   0  0  0  0  0  0  0  0  0  0  0  0
   -1.9109    0.6572    0.6324 C   0  0  0  0  0  0  0  0  0  0  0  0
   -7.6834    1.2397   -1.8576 C   0  0  0  0  0  0  0  0  0  0  0  0
   -8.3476    1.1098   -0.8448 O   0  0  0  0  0  0  0  0  0  0  0  0
   -8.3463    1.4031   -3.0849 N   0  0  0  0  0  0  0  0  0  0  0  0
   -7.8296    1.4406   -4.3958 C   0  0  0  0  0  0  0  0  0  0  0  0
   -6.8382    0.5349   -4.8115 C   0  0  0  0  0  0  0  0  0  0  0  0
   -6.1178    0.7607   -5.9957 C   0  0  0  0  0  0  0  0  0  0  0  0
   -6.5423    1.7859   -6.8575 C   0  0  0  0  0  0  0  0  0  0  0  0
   -7.5415    2.6788   -6.4607 C   0  0  0  0  0  0  0  0  0  0  0  0
   -8.1953    2.5018   -5.2359 C   0  0  0  0  0  0  0  0  0  0  0  0
   -5.9009    1.8558   -8.2156 C   0  0  0  0  0  0  0  0  0  0  0  0
   -5.5508    0.4341   -8.6898 C   0  0  0  0  0  0  0  0  0  0  0  0
   -4.9073   -0.4876   -7.7566 N   0  0  0  0  0  0  0  0  0  0  0  0
   -4.8636   -0.0260   -6.3751 C   0  0  1  0  0  0  0  0  0  0  0  0
   -3.4657    0.6686   -6.1535 C   0  0  0  0  0  0  0  0  0  0  0  0
   -3.3836    2.1931   -6.3524 C   0  0  0  0  0  0  0  0  0  0  0  0
   -3.0234    0.3230   -4.7618 C   0  0  0  0  0  0  0  0  0  0  0  0
   -4.8714   -0.9371   -5.7564 H   0  0  0  0  0  0  0  0  0  0  0  0
    1.9112    0.0874   -0.0671 H   0  0  0  0  0  0  0  0  0  0  0  0
    0.4523    2.5066   -1.8658 H   0  0  0  0  0  0  0  0  0  0  0  0
    1.9333    1.8238   -1.3794 H   0  0  0  0  0  0  0  0  0  0  0  0
   -1.4137    1.3123   -2.6312 H   0  0  0  0  0  0  0  0  0  0  0  0
   -3.4786    2.4498   -3.4397 H   0  0  0  0  0  0  0  0  0  0  0  0
   -5.8053    2.3561   -3.6043 H   0  0  0  0  0  0  0  0  0  0  0  0
   -6.0863    0.7194    0.3395 H   0  0  0  0  0  0  0  0  0  0  0  0
   -3.8324    0.4734    1.6042 H   0  0  0  0  0  0  0  0  0  0  0  0
   -1.3495    0.4976    1.5470 H   0  0  0  0  0  0  0  0  0  0  0  0
   -9.3246    1.6487   -2.9647 H   0  0  0  0  0  0  0  0  0  0  0  0
   -6.5680   -0.2904   -4.1566 H   0  0  0  0  0  0  0  0  0  0  0  0
   -7.7948    3.5227   -7.0988 H   0  0  0  0  0  0  0  0  0  0  0  0
   -8.9205    3.2494   -4.9215 H   0  0  0  0  0  0  0  0  0  0  0  0
   -5.0321    2.5078   -8.2128 H   0  0  0  0  0  0  0  0  0  0  0  0
   -6.5802    2.3187   -8.9353 H   0  0  0  0  0  0  0  0  0  0  0  0
   -4.9354    0.4894   -9.5908 H   0  0  0  0  0  0  0  0  0  0  0  0
   -6.4921   -0.0514   -8.9662 H   0  0  0  0  0  0  0  0  0  0  0  0
   -3.9648   -0.7169   -8.0639 H   0  0  0  0  0  0  0  0  0  0  0  0
   -2.6962    0.2289   -6.8008 H   0  0  0  0  0  0  0  0  0  0  0  0
   -4.1942    2.7344   -5.8515 H   0  0  0  0  0  0  0  0  0  0  0  0
   -2.4501    2.6263   -5.9774 H   0  0  0  0  0  0  0  0  0  0  0  0
   -3.3687    2.4297   -7.4144 H   0  0  0  0  0  0  0  0  0  0  0  0
   -2.7723   -0.7184   -4.5635 H   0  0  0  0  0  0  0  0  0  0  0  0
   -2.1818    0.9544   -4.4776 H   0  0  0  0  0  0  0  0  0  0  0  0
   -3.9055    0.4794   -4.1667 H   0  0  0  0  0  0  0  0  0  0  0  0
  1  2  2  0  0  0  0
  1 31  1  0  0  0  0
  2  3  1  0  0  0  0
  2  4  1  0  0  0  0
  3 32  1  0  0  0  0
  3 33  1  0  0  0  0
  4  5  2  0  0  0  0
  4 13  1  0  0  0  0
  5  6  1  0  0  0  0
  5 34  1  0  0  0  0
  6  7  2  0  0  0  0
  6 11  1  0  0  0  0
  7  8  1  0  0  0  0
  7 35  1  0  0  0  0
  8  9  2  0  0  0  0
  8 36  1  0  0  0  0
  9 10  1  0  0  0  0
  9 14  1  0  0  0  0
 10 11  2  0  0  0  0
 10 37  1  0  0  0  0
 11 12  1  0  0  0  0
 12 13  2  0  0  0  0
 12 38  1  0  0  0  0
 13 39  1  0  0  0  0
 14 15  2  0  0  0  0
 14 16  1  0  0  0  0
 16 17  1  0  0  0  0
 16 40  1  0  0  0  0
 17 18  2  0  0  0  0
 17 22  1  0  0  0  0
 18 19  1  0  0  0  0
 18 41  1  0  0  0  0
 19 20  2  0  0  0  0
 19 26  1  0  0  0  0
 20 21  1  0  0  0  0
 20 23  1  0  0  0  0
 21 22  2  0  0  0  0
 21 42  1  0  0  0  0
 22 43  1  0  0  0  0
 23 24  1  0  0  0  0
 23 44  1  0  0  0  0
 23 45  1  0  0  0  0
 24 25  1  0  0  0  0
 24 46  1  0  0  0  0
 24 47  1  0  0  0  0
 25 26  1  0  0  0  0
 25 48  1  0  0  0  0
 26 30  1  1  0  0  0
 26 27  1  0  0  0  0
 27 28  1  0  0  0  0
 27 29  1  0  0  0  0
 27 49  1  0  0  0  0
 28 50  1  0  0  0  0
 28 51  1  0  0  0  0
 28 52  1  0  0  0  0
 29 53  1  0  0  0  0
 29 54  1  0  0  0  0
 29 55  1  0  0  0  0
M  END
>  <DRUGBANK_ID>
DB02705

>  <SECONDARY_ACCESSION_NUMBERS>
EXPT00148

>  <COMMON_NAME>
6-[N-(1-Isopropyl-1,2,3,4-Tetrahydro-7-Isoquinolinyl)Carbamyl]-2-Naphthalenecarboxamidine

$$$$
