
 OpenBabel10282417163D

 63 66  0  0  0  0  0  0  0  0999 V2000
    0.7818    0.0272    0.0584 C   0  0  0  0  0  0  0  0  0  0  0  0
    0.4375   -0.2909   -1.3835 C   0  0  0  0  0  0  0  0  0  0  0  0
    6.2397   -2.4501   -1.3075 C   0  0  0  0  0  0  0  0  0  0  0  0
    6.8235   -3.6245   -1.7860 C   0  0  0  0  0  0  0  0  0  0  0  0
    6.7853   -6.0667   -1.9910 C   0  0  0  0  0  0  0  0  0  0  0  0
    6.1710   -7.2908   -1.7088 C   0  0  0  0  0  0  0  0  0  0  0  0
    4.1400    0.6553   -3.2807 C   0  0  0  0  0  0  0  0  0  0  0  0
    4.6280   -1.6503   -3.6871 C   0  0  0  0  0  0  0  0  0  0  0  0
    4.4450    0.8479   -4.5986 C   0  0  0  0  0  0  0  0  0  0  0  0
    5.2203   -1.3578   -4.9091 C   0  0  0  0  0  0  0  0  0  0  0  0
    7.1620    2.1871   -5.7762 C   0  0  0  0  0  0  0  0  0  0  0  0
    6.3045    3.0380   -4.8626 C   0  0  0  0  0  0  0  0  0  0  0  0
    4.4438   -3.7374   -0.3307 C   0  0  0  0  0  0  0  0  0  0  0  0
    4.1945   -1.2619   -0.3968 C   0  0  0  0  0  0  0  0  0  0  0  0
    4.3979   -6.1365   -0.5572 C   0  0  0  0  0  0  0  0  0  0  0  0
    5.0599    2.6378   -6.8885 C   0  0  0  0  0  0  0  0  0  0  0  0
    5.0220   -2.5002   -0.6150 C   0  0  0  0  0  0  0  0  0  0  0  0
    6.2272   -4.8673   -1.5310 C   0  0  0  0  0  0  0  0  0  0  0  0
    4.0995   -0.6433   -2.8603 C   0  0  0  0  0  0  0  0  0  0  0  0
    4.9690   -7.3420   -0.9904 C   0  0  0  0  0  0  0  0  0  0  0  0
    5.0247   -4.9141   -0.7963 C   0  0  0  0  0  0  0  0  0  0  0  0
    5.1530   -0.0611   -5.3688 C   0  0  0  0  0  0  0  0  0  0  0  0
    6.1847    1.6044   -6.8020 C   0  0  3  0  0  0  0  0  0  0  0  0
    3.3131   -0.9214   -1.6117 C   0  0  3  0  0  0  0  0  0  0  0  0
    4.3191   -8.6640   -0.6625 C   0  0  0  0  0  0  0  0  0  0  0  0
    2.2059   -1.9484   -1.9171 C   0  0  0  0  0  0  0  0  0  0  0  0
    4.1245   -8.8052    0.7579 N   0  0  0  0  0  0  0  0  0  0  0  0
    3.0051   -8.7734   -1.2286 N   0  0  0  0  0  0  0  0  0  0  0  0
    5.2094    3.5488   -5.7136 N   0  0  0  0  0  0  0  0  0  0  0  0
    2.4347   -3.0716   -2.3272 O   0  0  0  0  0  0  0  0  0  0  0  0
    0.9103   -1.5932   -1.7418 O   0  0  0  0  0  0  0  0  0  0  0  0
    5.7583    0.2458   -6.5493 O   0  0  0  0  0  0  0  0  0  0  0  0
    0.4025   -0.7572    0.7182 H   0  0  0  0  0  0  0  0  0  0  0  0
    0.3817    0.9996    0.3436 H   0  0  0  0  0  0  0  0  0  0  0  0
    1.8525    0.0612    0.2525 H   0  0  0  0  0  0  0  0  0  0  0  0
   -0.6530   -0.3342   -1.4811 H   0  0  0  0  0  0  0  0  0  0  0  0
    0.7905    0.4544   -2.1048 H   0  0  0  0  0  0  0  0  0  0  0  0
    6.6589   -1.4934   -1.6177 H   0  0  0  0  0  0  0  0  0  0  0  0
    7.7085   -3.5543   -2.4135 H   0  0  0  0  0  0  0  0  0  0  0  0
    7.7112   -6.0578   -2.5596 H   0  0  0  0  0  0  0  0  0  0  0  0
    6.6407   -8.2077   -2.0543 H   0  0  0  0  0  0  0  0  0  0  0  0
    3.8224    1.5065   -2.6832 H   0  0  0  0  0  0  0  0  0  0  0  0
    4.5821   -2.6897   -3.3739 H   0  0  0  0  0  0  0  0  0  0  0  0
    4.1183    1.8006   -4.9553 H   0  0  0  0  0  0  0  0  0  0  0  0
    5.6566   -2.1595   -5.4944 H   0  0  0  0  0  0  0  0  0  0  0  0
    7.8696    2.8637   -6.2667 H   0  0  0  0  0  0  0  0  0  0  0  0
    7.7157    1.4150   -5.2349 H   0  0  0  0  0  0  0  0  0  0  0  0
    5.9663    2.4387   -4.0134 H   0  0  0  0  0  0  0  0  0  0  0  0
    6.8267    3.8528   -4.3579 H   0  0  0  0  0  0  0  0  0  0  0  0
    3.4754   -3.7758    0.1658 H   0  0  0  0  0  0  0  0  0  0  0  0
    4.8591   -0.4206   -0.1548 H   0  0  0  0  0  0  0  0  0  0  0  0
    3.5612   -1.4066    0.4874 H   0  0  0  0  0  0  0  0  0  0  0  0
    3.4543   -6.1587   -0.0149 H   0  0  0  0  0  0  0  0  0  0  0  0
    5.1399    3.2361   -7.7998 H   0  0  0  0  0  0  0  0  0  0  0  0
    4.0698    2.1616   -6.9378 H   0  0  0  0  0  0  0  0  0  0  0  0
    6.6864    1.5529   -7.7756 H   0  0  0  0  0  0  0  0  0  0  0  0
    2.8508    0.0409   -1.3839 H   0  0  0  0  0  0  0  0  0  0  0  0
    4.9419   -9.4862   -1.0291 H   0  0  0  0  0  0  0  0  0  0  0  0
    3.8010   -9.7428    0.9655 H   0  0  0  0  0  0  0  0  0  0  0  0
    5.0422   -8.7251    1.1982 H   0  0  0  0  0  0  0  0  0  0  0  0
    2.5755   -9.6381   -0.9265 H   0  0  0  0  0  0  0  0  0  0  0  0
    2.4374   -8.0277   -0.8331 H   0  0  0  0  0  0  0  0  0  0  0  0
    5.4588    4.4749   -6.0491 H   0  0  0  0  0  0  0  0  0  0  0  0
  1 33  1  0  0  0  0
  1 34  1  0  0  0  0
  1 35  1  0  0  0  0
  2  1  1  0  0  0  0
  2 36  1  0  0  0  0
  2 37  1  0  0  0  0
  3 38  1  0  0  0  0
  4  3  2  0  0  0  0
  4 39  1  0  0  0  0
  5 40  1  0  0  0  0
  6  5  2  0  0  0  0
  6 41  1  0  0  0  0
  7 42  1  0  0  0  0
  8 43  1  0  0  0  0
  9  7  1  0  0  0  0
  9 44  1  0  0  0  0
 10  8  2  0  0  0  0
 10 45  1  0  0  0  0
 11 46  1  0  0  0  0
 11 47  1  0  0  0  0
 12 11  1  0  0  0  0
 12 48  1  0  0  0  0
 12 49  1  0  0  0  0
 13 50  1  0  0  0  0
 14 51  1  0  0  0  0
 14 52  1  0  0  0  0
 15 53  1  0  0  0  0
 16 54  1  0  0  0  0
 16 55  1  0  0  0  0
 17  3  1  0  0  0  0
 17 13  2  0  0  0  0
 17 14  1  0  0  0  0
 18  4  1  0  0  0  0
 18  5  1  0  0  0  0
 19  7  2  0  0  0  0
 19  8  1  0  0  0  0
 20  6  1  0  0  0  0
 20 15  2  0  0  0  0
 21 13  1  0  0  0  0
 21 15  1  0  0  0  0
 21 18  2  0  0  0  0
 22  9  2  0  0  0  0
 22 10  1  0  0  0  0
 23 11  1  0  0  0  0
 23 16  1  0  0  0  0
 23 56  1  0  0  0  0
 24 14  1  0  0  0  0
 24 19  1  0  0  0  0
 24 57  1  0  0  0  0
 25 20  1  0  0  0  0
 25 58  1  0  0  0  0
 26 24  1  0  0  0  0
 27 25  1  0  0  0  0
 27 59  1  0  0  0  0
 27 60  1  0  0  0  0
 28 25  1  0  0  0  0
 28 61  1  0  0  0  0
 28 62  1  0  0  0  0
 29 12  1  0  0  0  0
 29 16  1  0  0  0  0
 29 63  1  0  0  0  0
 30 26  2  0  0  0  0
 31  2  1  0  0  0  0
 31 26  1  0  0  0  0
 32 22  1  0  0  0  0
 32 23  1  0  0  0  0
M  END
>  <DRUGBANK_ID>
DB07639

>  <COMMON_NAME>
3-(7-DIAMINOMETHYL-NAPHTHALEN-2-YL)-PROPIONIC ACID ETHYL ESTER

$$$$
