
 OpenBabel10282417123D

 69 72  0  0  0  0  0  0  0  0999 V2000
    1.1214    0.2478    0.0147 N   0  0  0  0  0  0  0  0  0  0  0  0
    0.5046   -0.8720    0.0923 C   0  0  0  0  0  0  0  0  0  0  0  0
   -1.4041   -2.2152    0.6387 C   0  0  0  0  0  0  0  0  0  0  0  0
   -0.7998   -3.2939    0.5635 N   0  0  0  0  0  0  0  0  0  0  0  0
    0.5684   -3.1812    0.6326 C   0  0  0  0  0  0  0  0  0  0  0  0
    1.2563   -2.0897    0.2472 C   0  0  0  0  0  0  0  0  0  0  0  0
    2.5895   -2.4198   -0.0040 N   0  0  0  0  0  0  0  0  0  0  0  0
    2.7476   -3.7212    0.0952 C   0  0  0  0  0  0  0  0  0  0  0  0
    1.5860   -4.2915    0.3948 N   0  0  0  0  0  0  0  0  0  0  0  0
    1.3365   -5.7321   -0.3922 C   0  0  2  0  0  0  0  0  0  0  0  0
    0.3903   -6.1784   -2.4296 O   0  0  0  0  0  0  0  0  0  0  0  0
   -1.1347   -7.3062   -1.3666 C   0  0  1  0  0  0  0  0  0  0  0  0
   -1.2402   -7.7850    0.7777 C   0  0  1  0  0  0  0  0  0  0  0  0
   -0.2036   -9.4549    0.6752 O   0  0  0  0  0  0  0  0  0  0  0  0
    0.3767   -6.3022    1.5960 C   0  0  1  0  0  0  0  0  0  0  0  0
    1.4334   -6.5656    2.5417 O   0  0  0  0  0  0  0  0  0  0  0  0
   -2.4173   -5.5661   -0.6033 O   0  0  0  0  0  0  0  0  0  0  0  0
   -2.9867   -6.8718    1.2469 O   0  0  0  0  0  0  0  0  0  0  0  0
   -2.0569   -5.7052    1.0830 P   0  0  3  0  0  0  0  0  0  0  0  0
   -1.6966   -5.8444    2.7694 O   0  0  0  0  0  0  0  0  0  0  0  0
   -0.4478   -5.1438    0.7855 O   0  0  0  0  0  0  0  0  0  0  0  0
    0.8385   -3.8057   -1.4448 O   0  0  0  0  0  0  0  0  0  0  0  0
   -0.2512   -4.8254   -0.9035 P   0  0  3  0  0  0  0  0  0  0  0  0
   -0.0546   -4.5071   -2.5926 O   0  0  0  0  0  0  0  0  0  0  0  0
    0.2565   -6.4604   -1.1526 O   0  0  0  0  0  0  0  0  0  0  0  0
    0.5735   -8.4538   -0.7436 O   0  0  0  0  0  0  0  0  0  0  0  0
    2.1445   -7.3964    0.6067 O   0  0  0  0  0  0  0  0  0  0  0  0
    0.2403   -7.3055    0.3569 P   0  0  0  0  0  0  0  0  0  0  0  0
    0.2242   -8.1506    1.8664 O   0  0  0  0  0  0  0  0  0  0  0  0
   -2.5071   -6.7490   -1.3768 C   0  0  0  0  0  0  0  0  0  0  0  0
   -1.6333    0.2723    0.1460 C   0  0  3  0  0  0  0  0  0  0  0  0
   -2.4922    0.3146    1.3184 O   0  0  0  0  0  0  0  0  0  0  0  0
   -2.5682    0.6250   -1.1670 C   0  0  2  0  0  0  0  0  0  0  0  0
   -1.9687    1.2490   -2.2653 O   0  0  0  0  0  0  0  0  0  0  0  0
   -3.7596    1.2884   -0.5001 C   0  0  2  0  0  0  0  0  0  0  0  0
   -3.4885    2.6777   -0.5322 O   0  0  0  0  0  0  0  0  0  0  0  0
   -3.7920    0.7559    0.9492 C   0  0  1  0  0  0  0  0  0  0  0  0
   -4.8952   -0.3094    1.1700 C   0  0  0  0  0  0  0  0  0  0  0  0
   -4.5644   -1.6865    0.9298 O   0  0  0  0  0  0  0  0  0  0  0  0
   -2.6540   -1.3972   -0.5602 O   0  0  0  0  0  0  0  0  0  0  0  0
   -4.6734   -3.2850   -0.7970 O   0  0  0  0  0  0  0  0  0  0  0  0
   -3.9479   -1.8628   -0.6770 P   0  0  0  0  0  0  0  0  0  0  0  0
   -3.3315   -2.0391   -2.2838 O   0  0  0  0  0  0  0  0  0  0  0  0
   -0.8388   -1.0016    0.2843 N   0  0  0  0  0  0  0  0  0  0  0  0
    2.1129    0.0103    0.0529 H   0  0  0  0  0  0  0  0  0  0  0  0
   -2.4810   -2.5993    0.7270 H   0  0  0  0  0  0  0  0  0  0  0  0
    3.5117   -4.4138   -0.2150 H   0  0  0  0  0  0  0  0  0  0  0  0
    2.1370   -6.2425   -0.8953 H   0  0  0  0  0  0  0  0  0  0  0  0
   -1.0275   -8.1923   -2.0047 H   0  0  0  0  0  0  0  0  0  0  0  0
   -1.8595   -8.4609    1.4440 H   0  0  0  0  0  0  0  0  0  0  0  0
    0.8183   -9.2240    0.2721 H   0  0  0  0  0  0  0  0  0  0  0  0
   -0.1369   -5.7886    2.3355 H   0  0  0  0  0  0  0  0  0  0  0  0
    1.8274   -7.3265    2.0787 H   0  0  0  0  0  0  0  0  0  0  0  0
   -2.4286   -6.3223    3.2134 H   0  0  0  0  0  0  0  0  0  0  0  0
    0.8590   -4.2300   -2.7645 H   0  0  0  0  0  0  0  0  0  0  0  0
    2.8034   -6.6441    0.4193 H   0  0  0  0  0  0  0  0  0  0  0  0
    0.8004   -8.9447    1.8942 H   0  0  0  0  0  0  0  0  0  0  0  0
   -2.6535   -6.6130   -2.4285 H   0  0  0  0  0  0  0  0  0  0  0  0
   -3.1125   -7.5373   -0.8867 H   0  0  0  0  0  0  0  0  0  0  0  0
   -0.9594    1.1127    0.1605 H   0  0  0  0  0  0  0  0  0  0  0  0
   -3.0245   -0.1191   -1.7926 H   0  0  0  0  0  0  0  0  0  0  0  0
   -1.6311    2.0676   -1.9151 H   0  0  0  0  0  0  0  0  0  0  0  0
   -4.7306    1.1152   -0.9915 H   0  0  0  0  0  0  0  0  0  0  0  0
   -2.5956    2.7918   -0.1628 H   0  0  0  0  0  0  0  0  0  0  0  0
   -4.0208    1.5773    1.6333 H   0  0  0  0  0  0  0  0  0  0  0  0
   -5.2737   -0.2388    2.1932 H   0  0  0  0  0  0  0  0  0  0  0  0
   -5.7208   -0.0504    0.5005 H   0  0  0  0  0  0  0  0  0  0  0  0
   -5.4142   -3.3759   -0.1469 H   0  0  0  0  0  0  0  0  0  0  0  0
   -3.9930   -2.4802   -2.8436 H   0  0  0  0  0  0  0  0  0  0  0  0
  1  2  2  0  0  0  0
  1 45  1  0  0  0  0
  2 44  1  0  0  0  0
  2  6  1  0  0  0  0
  3  4  2  0  0  0  0
  3 46  1  0  0  0  0
  4  5  1  0  0  0  0
  5  6  2  0  0  0  0
  5  9  1  0  0  0  0
  6  7  1  0  0  0  0
  7  8  2  0  0  0  0
  8  9  1  0  0  0  0
  8 47  1  0  0  0  0
 10  9  1  0  0  0  0
 10 11  1  0  0  0  0
 10 15  1  0  0  0  0
 10 48  1  6  0  0  0
 11 12  1  0  0  0  0
 12 13  1  0  0  0  0
 12 49  1  6  0  0  0
 12 30  1  0  0  0  0
 13 14  1  0  0  0  0
 13 15  1  0  0  0  0
 13 50  1  1  0  0  0
 14 51  1  0  0  0  0
 15 16  1  0  0  0  0
 15 52  1  1  0  0  0
 16 53  1  0  0  0  0
 17 19  1  0  0  0  0
 19 18  2  0  0  0  0
 19 21  1  0  0  0  0
 19 20  1  0  0  0  0
 20 54  1  0  0  0  0
 21 23  1  0  0  0  0
 23 22  2  0  0  0  0
 23 25  1  0  0  0  0
 23 24  1  0  0  0  0
 24 55  1  0  0  0  0
 25 28  1  0  0  0  0
 27 56  1  0  0  0  0
 28 26  2  0  0  0  0
 28 27  1  0  0  0  0
 28 29  1  0  0  0  0
 29 57  1  0  0  0  0
 30 17  1  0  0  0  0
 30 58  1  0  0  0  0
 30 59  1  0  0  0  0
 31 60  1  0  0  0  0
 32 37  1  0  0  0  0
 32 31  1  0  0  0  0
 33 31  1  0  0  0  0
 33 34  1  0  0  0  0
 33 61  1  6  0  0  0
 34 62  1  0  0  0  0
 35 33  1  0  0  0  0
 35 36  1  0  0  0  0
 35 63  1  6  0  0  0
 36 64  1  0  0  0  0
 37 35  1  0  0  0  0
 37 65  1  1  0  0  0
 37 38  1  0  0  0  0
 38 39  1  0  0  0  0
 38 66  1  0  0  0  0
 38 67  1  0  0  0  0
 39 42  1  0  0  0  0
 41 68  1  0  0  0  0
 42 40  2  0  0  0  0
 42 41  1  0  0  0  0
 42 43  1  0  0  0  0
 43 69  1  0  0  0  0
 44  3  1  0  0  0  0
 44 31  1  0  0  0  0
M  END
>  <DRUGBANK_ID>
DB01661

>  <SECONDARY_ACCESSION_NUMBERS>
EXPT02665

>  <COMMON_NAME>
1-(5-phospho-D-ribosyl)-ATP

>  <SYNONYMS>
Phosphoribosyl ATP

$$$$
