PTC
 OpenBabel10282417173D

 35 36  0  0  0  0  0  0  0  0999 V2000
    2.6893    0.2307    1.4427 C   0  0  0  0  0  0  0  0  0  0  0  0
    1.6853   -0.0124    2.1173 O   0  0  0  0  0  0  0  0  0  0  0  0
    3.8252    0.5457    2.1671 N   0  0  0  0  0  0  0  0  0  0  0  0
    5.2043    0.7094    1.7647 C   0  0  0  0  0  0  0  0  0  0  0  0
    3.3524    0.7895   -1.1123 C   0  0  2  0  0  0  0  0  0  0  0  0
    2.6166    1.5116   -2.1914 C   0  0  0  0  0  0  0  0  0  0  0  0
    2.5783    1.1588   -3.3423 O   0  0  0  0  0  0  0  0  0  0  0  0
    3.3780   -0.7532   -1.0983 C   0  0  1  0  0  0  0  0  0  0  0  0
    4.6003   -1.6288   -0.7130 C   0  0  0  0  0  0  0  0  0  0  0  0
    4.8357   -1.8222    0.6310 C   0  0  0  0  0  0  0  0  0  0  0  0
    5.4469   -2.4356   -1.4931 C   0  0  0  0  0  0  0  0  0  0  0  0
    5.9803   -2.3342    1.2156 C   0  0  0  0  0  0  0  0  0  0  0  0
    6.5192   -3.2052   -0.8871 C   0  0  0  0  0  0  0  0  0  0  0  0
    6.8612   -3.0348    0.4632 C   0  0  0  0  0  0  0  0  0  0  0  0
    7.8995   -3.6191    1.1391 O   0  0  0  0  0  0  0  0  0  0  0  0
    2.5544    0.0708   -0.0602 C   0  0  1  0  0  0  0  0  0  0  0  0
    8.9207   -2.8271    2.1352 P   0  0  0  0  0  0  0  0  0  0  0  0
   10.3536   -3.1978    1.9619 O   0  0  0  0  0  0  0  0  0  0  0  0
    8.6202   -1.2585    1.9950 O   0  0  0  0  0  0  0  0  0  0  0  0
    8.4374   -3.0760    3.6494 O   0  0  0  0  0  0  0  0  0  0  0  0
    2.0404    2.6625   -1.7655 O   0  0  0  0  0  0  0  0  0  0  0  0
    4.2341    1.3352   -0.8254 H   0  0  0  0  0  0  0  0  0  0  0  0
    2.7657   -1.2261   -1.8697 H   0  0  0  0  0  0  0  0  0  0  0  0
    1.4801    0.0107   -0.2598 H   0  0  0  0  0  0  0  0  0  0  0  0
    3.6972    0.2889    3.1458 H   0  0  0  0  0  0  0  0  0  0  0  0
    5.6398    1.6285    2.1415 H   0  0  0  0  0  0  0  0  0  0  0  0
    5.7750   -0.0901    2.2409 H   0  0  0  0  0  0  0  0  0  0  0  0
    5.3079    0.6576    0.6888 H   0  0  0  0  0  0  0  0  0  0  0  0
    4.0789   -1.5193    1.3185 H   0  0  0  0  0  0  0  0  0  0  0  0
    5.2438   -2.5675   -2.5595 H   0  0  0  0  0  0  0  0  0  0  0  0
    6.1246   -2.2052    2.2815 H   0  0  0  0  0  0  0  0  0  0  0  0
    7.0214   -3.9665   -1.4833 H   0  0  0  0  0  0  0  0  0  0  0  0
    8.2176   -1.0280    1.1405 H   0  0  0  0  0  0  0  0  0  0  0  0
    9.2244   -3.1774    4.2298 H   0  0  0  0  0  0  0  0  0  0  0  0
    1.6585    3.0733   -2.5719 H   0  0  0  0  0  0  0  0  0  0  0  0
  1  2  2  0  0  0  0
  1  3  1  0  0  0  0
  3  4  1  0  0  0  0
  3 25  1  0  0  0  0
  4 26  1  0  0  0  0
  4 27  1  0  0  0  0
  4 28  1  0  0  0  0
  5  8  1  0  0  0  0
  5 16  1  0  0  0  0
  5 22  1  1  0  0  0
  5  6  1  0  0  0  0
  6  7  2  0  0  0  0
  6 21  1  0  0  0  0
  8 16  1  0  0  0  0
  8 23  1  6  0  0  0
  8  9  1  0  0  0  0
  9 10  2  0  0  0  0
  9 11  1  0  0  0  0
 10 12  1  0  0  0  0
 10 29  1  0  0  0  0
 11 13  2  0  0  0  0
 11 30  1  0  0  0  0
 12 14  2  0  0  0  0
 12 31  1  0  0  0  0
 13 14  1  0  0  0  0
 13 32  1  0  0  0  0
 14 15  1  0  0  0  0
 15 17  1  0  0  0  0
 16 24  1  6  0  0  0
 16  1  1  0  0  0  0
 17 18  2  0  0  0  0
 17 19  1  0  0  0  0
 17 20  1  0  0  0  0
 19 33  1  0  0  0  0
 20 34  1  0  0  0  0
 21 35  1  0  0  0  0
M  END
>  <DRUGBANK_ID>
DB08434

>  <COMMON_NAME>
2-METHYLCARBAMOYL-3-(4-PHOSPHONOOXY-PHENYL)-CYCLOPROPANECARBOXYLIC ACID

$$$$
