
 OpenBabel10282417123D

 99104  0  0  0  0  0  0  0  0999 V2000
   -3.0721   -4.2267    1.3816 O   0  0  0  0  0  0  0  0  0  0  0  0
    1.8211   -6.3771   -3.2997 O   0  0  0  0  0  0  0  0  0  0  0  0
   -3.2979   -7.3410    0.0842 O   0  0  0  0  0  0  0  0  0  0  0  0
    2.6130   -4.8431    1.2491 O   0  0  0  0  0  0  0  0  0  0  0  0
   -4.2969   -9.9593    3.3502 O   0  0  0  0  0  0  0  0  0  0  0  0
   -2.1028  -10.0689    4.3632 O   0  0  0  0  0  0  0  0  0  0  0  0
   -1.6310   -5.6981    3.1280 N   0  0  0  0  0  0  0  0  0  0  0  0
   -4.2018   -4.2113    4.2314 N   0  0  0  0  0  0  0  0  0  0  0  0
    1.6076   -5.2551   -0.8965 N   0  0  0  0  0  0  0  0  0  0  0  0
   -2.7468   -5.0198   -0.4558 N   0  0  0  0  0  0  0  0  0  0  0  0
   -3.0843   -5.8538    2.3588 C   0  0  1  0  0  0  0  0  0  0  0  0
   -0.6285   -4.7638    2.7821 C   0  0  0  0  0  0  0  0  0  0  0  0
   -4.3436   -4.6406    2.8500 C   0  0  0  0  0  0  0  0  0  0  0  0
   -1.7961   -5.0236    4.3930 C   0  0  0  0  0  0  0  0  0  0  0  0
    1.2950   -2.6091    0.6869 C   0  0  2  0  0  0  0  0  0  0  0  0
   -1.3253   -4.2929    1.6870 C   0  0  2  0  0  0  0  0  0  0  0  0
   -0.3108   -2.5333    1.1449 C   0  0  0  0  0  0  0  0  0  0  0  0
   -2.8209   -3.9371    4.7145 C   0  0  0  0  0  0  0  0  0  0  0  0
    1.4203   -1.6438   -0.4871 C   0  0  1  0  0  0  0  0  0  0  0  0
    0.4043   -5.1157   -2.0881 C   0  0  2  0  0  0  0  0  0  0  0  0
   -3.0082   -6.2351    0.5465 C   0  0  0  0  0  0  0  0  0  0  0  0
    0.4320   -6.0620   -3.2394 C   0  0  1  0  0  0  0  0  0  0  0  0
    2.0671   -4.2800    0.2733 C   0  0  0  0  0  0  0  0  0  0  0  0
   -4.9402   -5.2586    4.9196 C   0  0  0  0  0  0  0  0  0  0  0  0
    0.7511   -3.9472   -2.9479 C   0  0  0  0  0  0  0  0  0  0  0  0
   -0.0611   -5.1827   -4.4904 C   0  0  0  0  0  0  0  0  0  0  0  0
    0.5072   -3.8388   -4.2392 C   0  0  0  0  0  0  0  0  0  0  0  0
   -0.1077   -0.8887   -1.2089 C   0  0  0  0  0  0  0  0  0  0  0  0
    2.6982   -0.8493   -0.4957 C   0  0  0  0  0  0  0  0  0  0  0  0
   -2.0536   -3.4255    0.0189 C   0  0  0  0  0  0  0  0  0  0  0  0
   -4.3585   -6.6726    4.9856 C   0  0  0  0  0  0  0  0  0  0  0  0
    1.0756   -2.7439   -2.5722 C   0  0  0  0  0  0  0  0  0  0  0  0
    0.6790   -2.5729   -4.9698 C   0  0  0  0  0  0  0  0  0  0  0  0
   -0.5862    0.1622   -0.5216 C   0  0  0  0  0  0  0  0  0  0  0  0
   -1.0402   -1.3408   -2.4364 C   0  0  0  0  0  0  0  0  0  0  0  0
   -0.2983   -4.2668   -0.0286 C   0  0  0  0  0  0  0  0  0  0  0  0
   -2.8878   -2.2947   -0.4642 C   0  0  0  0  0  0  0  0  0  0  0  0
   -2.4126   -2.4863    1.8613 C   0  0  0  0  0  0  0  0  0  0  0  0
    1.4720   -1.4938   -3.1492 C   0  0  0  0  0  0  0  0  0  0  0  0
   -4.7936   -7.6929    4.1230 C   0  0  0  0  0  0  0  0  0  0  0  0
    1.1598   -1.3707   -4.4209 C   0  0  0  0  0  0  0  0  0  0  0  0
   -3.2056   -6.9228    5.7928 C   0  0  0  0  0  0  0  0  0  0  0  0
   -1.7854    0.7052   -1.0284 C   0  0  0  0  0  0  0  0  0  0  0  0
   -2.0193   -0.6304   -3.0844 C   0  0  0  0  0  0  0  0  0  0  0  0
   -3.9897   -8.8208    4.0233 C   0  0  0  0  0  0  0  0  0  0  0  0
   -2.2754   -7.9211    5.4223 C   0  0  0  0  0  0  0  0  0  0  0  0
   -2.7425   -8.9013    4.6046 C   0  0  0  0  0  0  0  0  0  0  0  0
   -2.4594    0.3588   -2.2705 C   0  0  0  0  0  0  0  0  0  0  0  0
   -3.1300  -10.7624    3.6363 C   0  0  0  0  0  0  0  0  0  0  0  0
    1.4660   -6.1944   -0.4742 H   0  0  0  0  0  0  0  0  0  0  0  0
   -2.6120   -5.2915   -1.4415 H   0  0  0  0  0  0  0  0  0  0  0  0
   -3.5013   -4.3880    0.4695 H   0  0  0  0  0  0  0  0  0  0  0  0
    2.2719   -5.5938   -2.8885 H   0  0  0  0  0  0  0  0  0  0  0  0
   -3.4702   -6.7875    2.6650 H   0  0  0  0  0  0  0  0  0  0  0  0
    0.3721   -5.2025    2.6533 H   0  0  0  0  0  0  0  0  0  0  0  0
   -0.3939   -3.8378    3.3380 H   0  0  0  0  0  0  0  0  0  0  0  0
   -4.5444   -3.6512    2.3470 H   0  0  0  0  0  0  0  0  0  0  0  0
   -5.2921   -4.9452    2.3804 H   0  0  0  0  0  0  0  0  0  0  0  0
   -2.2007   -5.9027    4.6358 H   0  0  0  0  0  0  0  0  0  0  0  0
   -0.8681   -4.9789    4.9982 H   0  0  0  0  0  0  0  0  0  0  0  0
    1.7853   -2.1588    1.5470 H   0  0  0  0  0  0  0  0  0  0  0  0
   -1.3082   -5.2637    1.1122 H   0  0  0  0  0  0  0  0  0  0  0  0
   -0.6623   -2.2949    0.1303 H   0  0  0  0  0  0  0  0  0  0  0  0
   -0.6162   -1.5374    1.4221 H   0  0  0  0  0  0  0  0  0  0  0  0
   -2.4019   -2.9520    4.4364 H   0  0  0  0  0  0  0  0  0  0  0  0
   -2.8445   -3.7988    5.7989 H   0  0  0  0  0  0  0  0  0  0  0  0
    1.9966   -2.4170   -1.0309 H   0  0  0  0  0  0  0  0  0  0  0  0
   -0.6306   -5.2153   -1.6928 H   0  0  0  0  0  0  0  0  0  0  0  0
   -0.1968   -6.9482   -3.0656 H   0  0  0  0  0  0  0  0  0  0  0  0
   -5.1153   -4.8829    5.9131 H   0  0  0  0  0  0  0  0  0  0  0  0
   -5.9017   -5.2874    4.3836 H   0  0  0  0  0  0  0  0  0  0  0  0
    0.4269   -5.4910   -5.3928 H   0  0  0  0  0  0  0  0  0  0  0  0
   -1.1551   -5.0662   -4.4912 H   0  0  0  0  0  0  0  0  0  0  0  0
    3.5047   -1.5201   -0.1447 H   0  0  0  0  0  0  0  0  0  0  0  0
    3.0381   -0.5607   -1.4981 H   0  0  0  0  0  0  0  0  0  0  0  0
    2.4818   -0.0186    0.1403 H   0  0  0  0  0  0  0  0  0  0  0  0
    0.3847   -2.7028   -1.7503 H   0  0  0  0  0  0  0  0  0  0  0  0
    0.3422   -2.4778   -5.9739 H   0  0  0  0  0  0  0  0  0  0  0  0
   -0.1522    0.3412    0.4528 H   0  0  0  0  0  0  0  0  0  0  0  0
   -1.0756   -2.3309   -2.9302 H   0  0  0  0  0  0  0  0  0  0  0  0
    0.2325   -3.7776   -0.6782 H   0  0  0  0  0  0  0  0  0  0  0  0
    0.3432   -4.1581    1.0198 H   0  0  0  0  0  0  0  0  0  0  0  0
    0.0164   -5.3106    0.3460 H   0  0  0  0  0  0  0  0  0  0  0  0
   -3.9197   -2.3699   -0.0848 H   0  0  0  0  0  0  0  0  0  0  0  0
   -2.5710   -1.3629    0.0273 H   0  0  0  0  0  0  0  0  0  0  0  0
   -2.9119   -2.2679   -1.5196 H   0  0  0  0  0  0  0  0  0  0  0  0
   -3.3138   -2.6014    2.4143 H   0  0  0  0  0  0  0  0  0  0  0  0
   -2.0553   -3.1119    2.6879 H   0  0  0  0  0  0  0  0  0  0  0  0
   -1.7893   -1.7889    2.4105 H   0  0  0  0  0  0  0  0  0  0  0  0
    1.4656   -0.5313   -2.5997 H   0  0  0  0  0  0  0  0  0  0  0  0
   -5.6388   -7.5637    3.4497 H   0  0  0  0  0  0  0  0  0  0  0  0
    1.0962   -0.3270   -4.7387 H   0  0  0  0  0  0  0  0  0  0  0  0
   -2.7866   -6.0697    6.3491 H   0  0  0  0  0  0  0  0  0  0  0  0
   -2.3020    1.3891   -0.3748 H   0  0  0  0  0  0  0  0  0  0  0  0
   -2.4604   -0.9751   -4.0307 H   0  0  0  0  0  0  0  0  0  0  0  0
   -1.2050   -7.8332    5.6332 H   0  0  0  0  0  0  0  0  0  0  0  0
   -3.4198    0.7872   -2.5265 H   0  0  0  0  0  0  0  0  0  0  0  0
   -3.4359  -11.6438    4.2146 H   0  0  0  0  0  0  0  0  0  0  0  0
   -2.6971  -11.0810    2.6877 H   0  0  0  0  0  0  0  0  0  0  0  0
  1 52  1  0  0  0  0
  2 53  1  0  0  0  0
  3 21  2  0  0  0  0
  4 23  2  0  0  0  0
  5 45  1  0  0  0  0
  5 49  1  0  0  0  0
  6 47  1  0  0  0  0
  6 49  1  0  0  0  0
  7 11  1  0  0  0  0
  7 12  1  0  0  0  0
  7 14  1  0  0  0  0
  8 13  1  0  0  0  0
  8 18  1  0  0  0  0
  8 24  1  0  0  0  0
  9 23  1  0  0  0  0
  9 50  1  0  0  0  0
 10 21  1  0  0  0  0
 10 30  1  0  0  0  0
 10 51  1  0  0  0  0
 11 13  1  0  0  0  0
 11 21  1  0  0  0  0
 11 54  1  1  0  0  0
 12 55  1  0  0  0  0
 12 56  1  0  0  0  0
 13 57  1  0  0  0  0
 13 58  1  0  0  0  0
 14 18  1  0  0  0  0
 14 59  1  0  0  0  0
 14 60  1  0  0  0  0
 15 23  1  0  0  0  0
 15 61  1  1  0  0  0
 15 19  1  0  0  0  0
 15 17  1  0  0  0  0
 16 17  1  0  0  0  0
 16 62  1  6  0  0  0
 16 12  1  0  0  0  0
 16  1  1  0  0  0  0
 17 63  1  0  0  0  0
 17 64  1  0  0  0  0
 18 65  1  0  0  0  0
 18 66  1  0  0  0  0
 19 28  1  0  0  0  0
 19 29  1  0  0  0  0
 19 67  1  6  0  0  0
 20  9  1  0  0  0  0
 20 22  1  0  0  0  0
 20 25  1  0  0  0  0
 20 68  1  1  0  0  0
 22  2  1  0  0  0  0
 22 26  1  0  0  0  0
 22 69  1  1  0  0  0
 24 31  1  0  0  0  0
 24 70  1  0  0  0  0
 24 71  1  0  0  0  0
 25 27  1  0  0  0  0
 25 32  2  0  0  0  0
 26 27  1  0  0  0  0
 26 72  1  0  0  0  0
 26 73  1  0  0  0  0
 27 33  2  0  0  0  0
 28 34  2  0  0  0  0
 28 35  1  0  0  0  0
 29 74  1  0  0  0  0
 29 75  1  0  0  0  0
 29 76  1  0  0  0  0
 30 36  1  0  0  0  0
 30 37  1  0  0  0  0
 30 38  1  0  0  0  0
 31 40  2  0  0  0  0
 31 42  1  0  0  0  0
 32 39  1  0  0  0  0
 32 77  1  0  0  0  0
 33 41  1  0  0  0  0
 33 78  1  0  0  0  0
 34 43  1  0  0  0  0
 34 79  1  0  0  0  0
 35 44  2  0  0  0  0
 35 80  1  0  0  0  0
 36 81  1  0  0  0  0
 36 82  1  0  0  0  0
 36 83  1  0  0  0  0
 37 84  1  0  0  0  0
 37 85  1  0  0  0  0
 37 86  1  0  0  0  0
 38 87  1  0  0  0  0
 38 88  1  0  0  0  0
 38 89  1  0  0  0  0
 39 41  2  0  0  0  0
 39 90  1  0  0  0  0
 40 45  1  0  0  0  0
 40 91  1  0  0  0  0
 41 92  1  0  0  0  0
 42 46  2  0  0  0  0
 42 93  1  0  0  0  0
 43 48  2  0  0  0  0
 43 94  1  0  0  0  0
 44 48  1  0  0  0  0
 44 95  1  0  0  0  0
 45 47  2  0  0  0  0
 46 47  1  0  0  0  0
 46 96  1  0  0  0  0
 48 97  1  0  0  0  0
 49 98  1  0  0  0  0
 49 99  1  0  0  0  0
M  END
>  <DRUGBANK_ID>
DB01721

>  <SECONDARY_ACCESSION_NUMBERS>
EXPT03261

>  <COMMON_NAME>
N-[2-hydroxy-1-indanyl]-5-[(2-tertiarybutylaminocarbonyl)-4(benzo[1,3]dioxol-5-ylmethyl)-piperazino]-4-hydroxy-2-(1-phenylethyl)-pentanamide

>  <SYNONYMS>
Analogue of indinavir drug

$$$$
