
 OpenBabel10282417143D

 83 87  0  0  1  0  0  0  0  0999 V2000
   -7.3165   -1.8013   -2.3205 Cl  0  0  0  0  0  0  0  0  0  0  0  0
   -9.2792   -1.2930    0.2039 Cl  0  0  0  0  0  0  0  0  0  0  0  0
   -1.1497    1.8981    2.3379 O   0  0  0  0  0  0  0  0  0  0  0  0
   -0.0862    3.7112    4.3280 O   0  0  0  0  0  0  0  0  0  0  0  0
   -0.6169    2.5761   -0.4455 N   0  0  0  0  0  0  0  0  0  0  0  0
   -2.4486    3.2223    0.8375 N   0  0  0  0  0  0  0  0  0  0  0  0
    2.0360    4.1437    3.5420 N   0  0  0  0  0  0  0  0  0  0  0  0
   -3.8751    1.4234   -0.0869 C   0  0  2  0  0  0  0  0  0  0  0  0
    1.5610    3.7298    2.3141 C   0  0  3  0  0  0  0  0  0  0  0  0
   -2.6100    0.4781   -0.2242 C   0  0  0  0  0  0  0  0  0  0  0  0
   -4.3169    2.2926   -1.3486 C   0  0  0  0  0  0  0  0  0  0  0  0
   -3.5090    2.3124    1.1782 C   0  0  0  0  0  0  0  0  0  0  0  0
    1.1548    1.9053    2.1264 C   0  0  0  0  0  0  0  0  0  0  0  0
   -0.0171    4.7610    1.9359 C   0  0  0  0  0  0  0  0  0  0  0  0
   -1.6394    0.6836   -1.4579 C   0  0  0  0  0  0  0  0  0  0  0  0
    0.2303    1.3690    0.4482 C   0  0  0  0  0  0  0  0  0  0  0  0
   -0.7611    4.3633    0.1095 C   0  0  0  0  0  0  0  0  0  0  0  0
   -1.0954    2.0618   -1.5958 C   0  0  0  0  0  0  0  0  0  0  0  0
   -3.3760    3.2674   -1.8781 C   0  0  0  0  0  0  0  0  0  0  0  0
   -5.1700    0.6187    0.0625 C   0  0  0  0  0  0  0  0  0  0  0  0
   -2.8971    4.0107   -0.5994 C   0  0  0  0  0  0  0  0  0  0  0  0
    2.7215    4.0051    1.0199 C   0  0  0  0  0  0  0  0  0  0  0  0
   -5.6135   -0.1957   -1.0085 C   0  0  0  0  0  0  0  0  0  0  0  0
   -6.0305    0.8220    1.1395 C   0  0  0  0  0  0  0  0  0  0  0  0
   -0.9213    2.8132    1.5074 C   0  0  0  0  0  0  0  0  0  0  0  0
    3.3263    4.7492    3.6617 C   0  0  0  0  0  0  0  0  0  0  0  0
    2.1511    3.8393   -0.9684 C   0  0  0  0  0  0  0  0  0  0  0  0
    4.4833    4.0698    1.3275 C   0  0  0  0  0  0  0  0  0  0  0  0
    1.0710    4.0700    4.4851 C   0  0  0  0  0  0  0  0  0  0  0  0
   -6.8724   -0.7925   -0.9914 C   0  0  0  0  0  0  0  0  0  0  0  0
   -7.2888    0.2247    1.1588 C   0  0  0  0  0  0  0  0  0  0  0  0
    0.8462    3.3546    0.5697 C   0  0  0  0  0  0  0  0  0  0  0  0
   -7.7127   -0.5786    0.0982 C   0  0  0  0  0  0  0  0  0  0  0  0
    3.3305    3.7943   -2.2101 C   0  0  0  0  0  0  0  0  0  0  0  0
    5.5415    4.1522   -0.0348 C   0  0  0  0  0  0  0  0  0  0  0  0
    1.5814    4.4488    5.7816 C   0  0  0  0  0  0  0  0  0  0  0  0
    4.9803    3.9754   -1.7205 C   0  0  0  0  0  0  0  0  0  0  0  0
    1.1185    5.2211    0.2539 C   0  0  0  0  0  0  0  0  0  0  0  0
    2.2796    2.1781    0.2130 C   0  0  0  0  0  0  0  0  0  0  0  0
    2.2980    5.9496   -0.0861 C   0  0  0  0  0  0  0  0  0  0  0  0
    3.6835    2.9538   -0.2602 C   0  0  0  0  0  0  0  0  0  0  0  0
    3.5781    4.9935   -0.3931 C   0  0  0  0  0  0  0  0  0  0  0  0
   -2.0567    0.5877    0.7160 H   0  0  0  0  0  0  0  0  0  0  0  0
   -2.8498   -0.5783   -0.1450 H   0  0  0  0  0  0  0  0  0  0  0  0
   -4.5426    1.6473   -2.1985 H   0  0  0  0  0  0  0  0  0  0  0  0
   -5.1460    2.9396   -1.0876 H   0  0  0  0  0  0  0  0  0  0  0  0
   -4.2914    3.0134    1.4453 H   0  0  0  0  0  0  0  0  0  0  0  0
   -3.2917    1.6689    2.0455 H   0  0  0  0  0  0  0  0  0  0  0  0
    2.0788    1.3286    2.2473 H   0  0  0  0  0  0  0  0  0  0  0  0
    0.5993    1.8228    3.0495 H   0  0  0  0  0  0  0  0  0  0  0  0
   -0.8548    4.7031    2.6190 H   0  0  0  0  0  0  0  0  0  0  0  0
    0.3912    5.8026    2.1134 H   0  0  0  0  0  0  0  0  0  0  0  0
   -0.7635    0.0558   -1.3758 H   0  0  0  0  0  0  0  0  0  0  0  0
   -2.2337    0.4971   -2.3326 H   0  0  0  0  0  0  0  0  0  0  0  0
    0.7581    1.2887   -0.5473 H   0  0  0  0  0  0  0  0  0  0  0  0
   -0.1730    0.3782    0.5304 H   0  0  0  0  0  0  0  0  0  0  0  0
   -1.3901    5.2625   -0.0678 H   0  0  0  0  0  0  0  0  0  0  0  0
   -0.2574    4.5794   -0.8929 H   0  0  0  0  0  0  0  0  0  0  0  0
   -0.7735    2.6724   -2.4385 H   0  0  0  0  0  0  0  0  0  0  0  0
   -1.9328    2.3990   -1.1397 H   0  0  0  0  0  0  0  0  0  0  0  0
   -2.7792    2.6032   -2.5516 H   0  0  0  0  0  0  0  0  0  0  0  0
   -3.4191    3.9899   -2.6949 H   0  0  0  0  0  0  0  0  0  0  0  0
   -2.1018    4.4058   -1.2298 H   0  0  0  0  0  0  0  0  0  0  0  0
   -3.4404    4.8648   -0.2177 H   0  0  0  0  0  0  0  0  0  0  0  0
   -4.9877   -0.3218   -1.8935 H   0  0  0  0  0  0  0  0  0  0  0  0
   -5.7451    1.4604    1.9704 H   0  0  0  0  0  0  0  0  0  0  0  0
    3.3648    5.7035    4.1631 H   0  0  0  0  0  0  0  0  0  0  0  0
    4.0127    3.9680    4.0143 H   0  0  0  0  0  0  0  0  0  0  0  0
    3.5777    5.1888    2.7175 H   0  0  0  0  0  0  0  0  0  0  0  0
    1.2216    3.4411   -1.4093 H   0  0  0  0  0  0  0  0  0  0  0  0
    4.9851    4.0027    2.2733 H   0  0  0  0  0  0  0  0  0  0  0  0
   -7.9336    0.3874    2.0168 H   0  0  0  0  0  0  0  0  0  0  0  0
    2.9710    3.5946   -3.2022 H   0  0  0  0  0  0  0  0  0  0  0  0
    6.2503    4.9717    0.1195 H   0  0  0  0  0  0  0  0  0  0  0  0
    2.4049    3.7585    5.9720 H   0  0  0  0  0  0  0  0  0  0  0  0
    1.9030    5.4867    5.7006 H   0  0  0  0  0  0  0  0  0  0  0  0
    0.7465    4.3150    6.4530 H   0  0  0  0  0  0  0  0  0  0  0  0
    5.6845    4.2030   -2.4806 H   0  0  0  0  0  0  0  0  0  0  0  0
    0.3094    5.9959    0.3610 H   0  0  0  0  0  0  0  0  0  0  0  0
    2.2885    1.0724    0.1898 H   0  0  0  0  0  0  0  0  0  0  0  0
    2.2536    6.9513    0.3155 H   0  0  0  0  0  0  0  0  0  0  0  0
    4.4800    2.2333   -0.3806 H   0  0  0  0  0  0  0  0  0  0  0  0
    4.2887    5.7266   -0.7063 H   0  0  0  0  0  0  0  0  0  0  0  0
  1 30  1  0  0  0  0
  2 33  1  0  0  0  0
  3 25  2  0  0  0  0
  4 29  2  0  0  0  0
  5 16  1  0  0  0  0
  5 17  1  0  0  0  0
  5 18  1  0  0  0  0
  6 12  1  0  0  0  0
  6 21  1  0  0  0  0
  6 25  1  0  0  0  0
  7  9  1  0  0  0  0
  7 26  1  0  0  0  0
  7 29  1  0  0  0  0
  8 11  1  0  0  0  0
  8 12  1  0  0  0  0
  8 20  1  0  0  0  0
  8 10  1  6  0  0  0
  9 13  1  0  0  0  0
  9 14  1  0  0  0  0
  9 22  1  0  0  0  0
 10 15  1  0  0  0  0
 10 43  1  0  0  0  0
 10 44  1  0  0  0  0
 11 19  1  0  0  0  0
 11 45  1  0  0  0  0
 11 46  1  0  0  0  0
 12 47  1  0  0  0  0
 12 48  1  0  0  0  0
 13 16  1  0  0  0  0
 13 49  1  0  0  0  0
 13 50  1  0  0  0  0
 14 17  1  0  0  0  0
 14 51  1  0  0  0  0
 14 52  1  0  0  0  0
 15 18  1  0  0  0  0
 15 53  1  0  0  0  0
 15 54  1  0  0  0  0
 16 55  1  0  0  0  0
 16 56  1  0  0  0  0
 17 57  1  0  0  0  0
 17 58  1  0  0  0  0
 18 59  1  0  0  0  0
 18 60  1  0  0  0  0
 19 21  1  0  0  0  0
 19 61  1  0  0  0  0
 19 62  1  0  0  0  0
 20 23  2  0  0  0  0
 20 24  1  0  0  0  0
 21 63  1  0  0  0  0
 21 64  1  0  0  0  0
 22 27  2  0  0  0  0
 22 28  1  0  0  0  0
 23 30  1  0  0  0  0
 23 65  1  0  0  0  0
 24 31  2  0  0  0  0
 24 66  1  0  0  0  0
 25 32  1  0  0  0  0
 26 67  1  0  0  0  0
 26 68  1  0  0  0  0
 26 69  1  0  0  0  0
 27 34  1  0  0  0  0
 27 70  1  0  0  0  0
 28 35  2  0  0  0  0
 28 71  1  0  0  0  0
 29 36  1  0  0  0  0
 30 33  2  0  0  0  0
 31 33  1  0  0  0  0
 31 72  1  0  0  0  0
 32 38  2  0  0  0  0
 32 39  1  0  0  0  0
 34 37  2  0  0  0  0
 34 73  1  0  0  0  0
 35 37  1  0  0  0  0
 35 74  1  0  0  0  0
 36 75  1  0  0  0  0
 36 76  1  0  0  0  0
 36 77  1  0  0  0  0
 37 78  1  0  0  0  0
 38 40  1  0  0  0  0
 38 79  1  0  0  0  0
 39 41  2  0  0  0  0
 39 80  1  0  0  0  0
 40 42  2  0  0  0  0
 40 81  1  0  0  0  0
 41 42  1  0  0  0  0
 41 82  1  0  0  0  0
 42 83  1  0  0  0  0
M  END
>  <DRUGBANK_ID>
DB04872

>  <COMMON_NAME>
Osanetant

>  <CAS_NUMBER>
160492-56-8

>  <UNII>
K7G81N94DT

>  <SYNONYMS>
Osanetant

$$$$
