
 OpenBabel10282417243D

 41 43  0  0  0  0  0  0  0  0999 V2000
    2.2550    0.0304    0.0041 C   0  0  0  0  0  0  0  0  0  0  0  0
    0.7825   -0.0825   -0.0265 C   0  0  0  0  0  0  0  0  0  0  0  0
   -0.0047   -1.2522   -0.0559 C   0  0  0  0  0  0  0  0  0  0  0  0
   -1.3303   -0.8421   -0.1031 C   0  0  0  0  0  0  0  0  0  0  0  0
   -1.2773    0.5461   -0.0834 O   0  0  0  0  0  0  0  0  0  0  0  0
    0.0163    1.0059   -0.0347 N   0  0  0  0  0  0  0  0  0  0  0  0
   -2.5801   -1.5786   -0.0517 C   0  0  0  0  0  0  0  0  0  0  0  0
   -3.6465   -0.7885    0.2235 C   0  0  0  0  0  0  0  0  0  0  0  0
   -4.8401   -1.1077    0.8057 N   0  0  0  0  0  0  0  0  0  0  0  0
   -6.1042   -0.5165    0.6380 C   0  0  0  0  0  0  0  0  0  0  0  0
   -6.4324    0.3406   -0.4165 C   0  0  0  0  0  0  0  0  0  0  0  0
   -7.7556    0.7611   -0.5945 C   0  0  0  0  0  0  0  0  0  0  0  0
   -8.7491    0.3334    0.2853 C   0  0  0  0  0  0  0  0  0  0  0  0
  -10.3817    0.8123    0.0361 Cl  0  0  0  0  0  0  0  0  0  0  0  0
   -8.4462   -0.5714    1.2974 C   0  0  0  0  0  0  0  0  0  0  0  0
   -7.1245   -0.9635    1.4929 C   0  0  0  0  0  0  0  0  0  0  0  0
   -2.5577   -3.1107   -0.0475 C   0  0  0  0  0  0  0  0  0  0  0  0
   -1.4673   -3.7156    0.0355 O   0  0  0  0  0  0  0  0  0  0  0  0
   -3.6582   -3.9313   -0.0614 N   0  0  0  0  0  0  0  0  0  0  0  0
   -4.9946   -3.7372   -0.4405 C   0  0  0  0  0  0  0  0  0  0  0  0
   -5.3474   -2.8812   -1.4811 C   0  0  0  0  0  0  0  0  0  0  0  0
   -6.6896   -2.5417   -1.6833 C   0  0  0  0  0  0  0  0  0  0  0  0
   -7.6821   -3.0632   -0.8547 C   0  0  0  0  0  0  0  0  0  0  0  0
   -9.3281   -2.6296   -1.1138 Cl  0  0  0  0  0  0  0  0  0  0  0  0
   -7.3263   -3.8467    0.2430 C   0  0  0  0  0  0  0  0  0  0  0  0
   -5.9905   -4.2324    0.4219 C   0  0  0  0  0  0  0  0  0  0  0  0
    2.6128    0.5741   -0.8760 H   0  0  0  0  0  0  0  0  0  0  0  0
    2.5923    0.5575    0.9021 H   0  0  0  0  0  0  0  0  0  0  0  0
    2.7177   -0.9614   -0.0015 H   0  0  0  0  0  0  0  0  0  0  0  0
    0.3618   -2.2665   -0.0159 H   0  0  0  0  0  0  0  0  0  0  0  0
   -3.5765    0.2938    0.1226 H   0  0  0  0  0  0  0  0  0  0  0  0
   -4.9348   -2.1004    0.9711 H   0  0  0  0  0  0  0  0  0  0  0  0
   -5.7059    0.5577   -1.1962 H   0  0  0  0  0  0  0  0  0  0  0  0
   -8.0216    1.3432   -1.4726 H   0  0  0  0  0  0  0  0  0  0  0  0
   -9.2389   -1.0759    1.8441 H   0  0  0  0  0  0  0  0  0  0  0  0
   -6.9094   -1.7512    2.2140 H   0  0  0  0  0  0  0  0  0  0  0  0
   -3.4086   -4.8957    0.1440 H   0  0  0  0  0  0  0  0  0  0  0  0
   -4.5839   -2.3589   -2.0500 H   0  0  0  0  0  0  0  0  0  0  0  0
   -6.9295   -1.7362   -2.3749 H   0  0  0  0  0  0  0  0  0  0  0  0
   -8.0567   -4.0362    1.0299 H   0  0  0  0  0  0  0  0  0  0  0  0
   -5.7220   -4.7543    1.3403 H   0  0  0  0  0  0  0  0  0  0  0  0
  1  2  1  0  0  0  0
  1 27  1  0  0  0  0
  1 28  1  0  0  0  0
  1 29  1  0  0  0  0
  2  3  1  0  0  0  0
  2  6  2  0  0  0  0
  3  4  2  0  0  0  0
  3 30  1  0  0  0  0
  4  5  1  0  0  0  0
  4  7  1  0  0  0  0
  5  6  1  0  0  0  0
  7  8  2  0  0  0  0
  7 17  1  0  0  0  0
  8  9  1  0  0  0  0
  8 31  1  0  0  0  0
  9 10  1  0  0  0  0
  9 32  1  0  0  0  0
 10 11  2  0  0  0  0
 10 16  1  0  0  0  0
 11 12  1  0  0  0  0
 11 33  1  0  0  0  0
 12 13  2  0  0  0  0
 12 34  1  0  0  0  0
 13 14  1  0  0  0  0
 13 15  1  0  0  0  0
 15 16  2  0  0  0  0
 15 35  1  0  0  0  0
 16 36  1  0  0  0  0
 17 18  2  0  0  0  0
 17 19  1  0  0  0  0
 19 20  1  0  0  0  0
 19 37  1  0  0  0  0
 20 21  2  0  0  0  0
 20 26  1  0  0  0  0
 21 22  1  0  0  0  0
 21 38  1  0  0  0  0
 22 23  2  0  0  0  0
 22 39  1  0  0  0  0
 23 24  1  0  0  0  0
 23 25  1  0  0  0  0
 25 26  2  0  0  0  0
 25 40  1  0  0  0  0
 26 41  1  0  0  0  0
M  END
>  <DRUGBANK_ID>
DB18707

>  <COMMON_NAME>
AVL-3288

>  <CAS_NUMBER>
917837-54-8

>  <UNII>
VA80VAX4WF

>  <SYNONYMS>
(z)-3-(4-chloroanilino)-n-(4-chlorophenyl)-2-(3-methylisoxazol-5-yl)prop-2-enamide; Anvylic-3288; AVL-3288

$$$$
