
 OpenBabel10282417183D

 30 30  0  0  0  0  0  0  0  0999 V2000
   -0.2810    5.0007    3.2304 C   0  0  0  0  0  0  0  0  0  0  0  0
   -0.0629    4.1416    4.3014 C   0  0  0  0  0  0  0  0  0  0  0  0
    0.0059    2.7790    4.0807 C   0  0  0  0  0  0  0  0  0  0  0  0
   -0.2082    2.2942    2.7952 C   0  0  0  0  0  0  0  0  0  0  0  0
   -0.5225    3.1161    1.7034 C   0  0  0  0  0  0  0  0  0  0  0  0
   -0.4978    4.5015    1.9343 C   0  0  0  0  0  0  0  0  0  0  0  0
   -1.0089    2.5259    0.3677 C   0  0  2  0  0  0  0  0  0  0  0  0
   -0.3553    1.1460   -0.0198 C   0  0  2  0  0  0  0  0  0  0  0  0
   -0.7346    3.4641   -0.6899 O   0  0  0  0  0  0  0  0  0  0  0  0
   -0.6550    0.6454   -1.4408 C   0  0  0  0  0  0  0  0  0  0  0  0
   -0.4846    0.0511    0.9602 N   0  0  0  0  0  0  0  0  0  0  0  0
    0.6413   -0.8642    0.9011 C   0  0  0  0  0  0  0  0  0  0  0  0
   -1.7785   -0.5991    1.0898 C   0  0  0  0  0  0  0  0  0  0  0  0
   -0.3151    6.0732    3.4068 H   0  0  0  0  0  0  0  0  0  0  0  0
    0.0550    4.5185    5.3131 H   0  0  0  0  0  0  0  0  0  0  0  0
    0.1896    2.0744    4.8827 H   0  0  0  0  0  0  0  0  0  0  0  0
   -0.1398    1.2200    2.7179 H   0  0  0  0  0  0  0  0  0  0  0  0
   -0.6724    5.2047    1.1254 H   0  0  0  0  0  0  0  0  0  0  0  0
   -2.1010    2.4345    0.4213 H   0  0  0  0  0  0  0  0  0  0  0  0
    0.7092    1.4224   -0.0459 H   0  0  0  0  0  0  0  0  0  0  0  0
    0.2292    3.5973   -0.6958 H   0  0  0  0  0  0  0  0  0  0  0  0
    0.2873    0.3281   -1.9030 H   0  0  0  0  0  0  0  0  0  0  0  0
   -1.3035   -0.2351   -1.4587 H   0  0  0  0  0  0  0  0  0  0  0  0
   -1.1238    1.3956   -2.0787 H   0  0  0  0  0  0  0  0  0  0  0  0
    0.6338   -1.5493    1.7532 H   0  0  0  0  0  0  0  0  0  0  0  0
    0.6532   -1.4352   -0.0295 H   0  0  0  0  0  0  0  0  0  0  0  0
    1.5801   -0.3002    0.9766 H   0  0  0  0  0  0  0  0  0  0  0  0
   -1.7794   -1.2594    1.9661 H   0  0  0  0  0  0  0  0  0  0  0  0
   -2.5796    0.1289    1.2601 H   0  0  0  0  0  0  0  0  0  0  0  0
   -2.0419   -1.2143    0.2260 H   0  0  0  0  0  0  0  0  0  0  0  0
  1  2  2  0  0  0  0
  1 14  1  0  0  0  0
  2  3  1  0  0  0  0
  2 15  1  0  0  0  0
  3  4  2  0  0  0  0
  3 16  1  0  0  0  0
  4  5  1  0  0  0  0
  4 17  1  0  0  0  0
  5  6  2  0  0  0  0
  6  1  1  0  0  0  0
  6 18  1  0  0  0  0
  7  9  1  0  0  0  0
  7 19  1  1  0  0  0
  7  8  1  0  0  0  0
  7  5  1  0  0  0  0
  8 20  1  6  0  0  0
  8 11  1  0  0  0  0
  8 10  1  0  0  0  0
  9 21  1  0  0  0  0
 10 22  1  0  0  0  0
 10 23  1  0  0  0  0
 10 24  1  0  0  0  0
 11 12  1  0  0  0  0
 11 13  1  0  0  0  0
 12 25  1  0  0  0  0
 12 26  1  0  0  0  0
 12 27  1  0  0  0  0
 13 28  1  0  0  0  0
 13 29  1  0  0  0  0
 13 30  1  0  0  0  0
M  END
>  <DRUGBANK_ID>
DB11278

>  <COMMON_NAME>
DL-Methylephedrine

>  <CAS_NUMBER>
1201-56-5

>  <UNII>
SHS9PGQ2LS

>  <SYNONYMS>
(+/-)-Methylephedrine; (+/-)-N-methylephedrine; Methylephedrine, (+/-)-; Methylephedrine, DL-; N-methylephedrine DL-form

$$$$
