
 OpenBabel10282417203D

 47 48  0  0  0  0  0  0  0  0999 V2000
    1.0829   -0.0551    0.0092 C   0  0  0  0  0  0  0  0  0  0  0  0
    0.5929    1.2754    0.3973 N   0  3  0  0  0  0  0  0  0  0  0  0
    1.2888    1.9764    1.9233 C   0  0  0  0  0  0  0  0  0  0  0  0
    0.7007    3.3742    2.1351 C   0  0  0  0  0  0  0  0  0  0  0  0
    1.1035    4.2883    0.9817 O   0  0  0  0  0  0  0  0  0  0  0  0
    0.3670    3.9027   -0.2979 C   0  0  0  0  0  0  0  0  0  0  0  0
    0.9119    2.5749   -0.8324 C   0  0  0  0  0  0  0  0  0  0  0  0
   -0.8342    0.9623    0.5591 C   0  0  0  0  0  0  0  0  0  0  0  0
   -1.3928    0.4487   -0.7580 C   0  0  0  0  0  0  0  0  0  0  0  0
   -0.6423   -0.8068   -1.1714 C   0  0  3  0  0  0  0  0  0  0  0  0
   -0.8090   -1.8725   -0.1005 C   0  0  0  0  0  0  0  0  0  0  0  0
   -1.3090   -3.0678   -0.3910 C   0  0  0  0  0  0  0  0  0  0  0  0
   -1.2215   -4.1006    0.5109 C   0  0  0  0  0  0  0  0  0  0  0  0
   -0.7021   -3.9014    1.7599 C   0  0  0  0  0  0  0  0  0  0  0  0
   -0.1490   -2.7235    1.9850 C   0  0  0  0  0  0  0  0  0  0  0  0
   -0.3267   -1.5838    1.1655 C   0  0  0  0  0  0  0  0  0  0  0  0
   -1.2009   -1.3204   -2.4885 C   0  0  0  0  0  0  0  0  0  0  0  0
   -1.1294   -2.6417   -2.8645 C   0  0  0  0  0  0  0  0  0  0  0  0
   -1.5898   -2.8580   -4.1677 C   0  0  0  0  0  0  0  0  0  0  0  0
   -2.0019   -1.7129   -4.7757 C   0  0  0  0  0  0  0  0  0  0  0  0
   -1.8482   -0.3409   -3.7492 S   0  0  0  0  0  0  0  0  0  0  0  0
    0.7363   -0.5044   -1.3277 O   0  0  0  0  0  0  0  0  0  0  0  0
    1.0382    0.0177    0.0907 I   0  5  0  0  0  0  0  0  0  0  0  0
    0.7262   -0.2948   -0.9707 H   0  0  0  0  0  0  0  0  0  0  0  0
    0.7262   -0.7840    0.7067 H   0  0  0  0  0  0  0  0  0  0  0  0
    2.1529   -0.0551    0.0092 H   0  0  0  0  0  0  0  0  0  0  0  0
    2.3541    2.0377    1.8432 H   0  0  0  0  0  0  0  0  0  0  0  0
    1.0377    1.3505    2.7540 H   0  0  0  0  0  0  0  0  0  0  0  0
    1.0756    3.7785    3.0521 H   0  0  0  0  0  0  0  0  0  0  0  0
   -0.3663    3.3071    2.1785 H   0  0  0  0  0  0  0  0  0  0  0  0
   -0.6762    3.7956   -0.0855 H   0  0  0  0  0  0  0  0  0  0  0  0
    0.5096    4.6666   -1.0333 H   0  0  0  0  0  0  0  0  0  0  0  0
    0.4302    2.3288   -1.7556 H   0  0  0  0  0  0  0  0  0  0  0  0
    1.9651    2.6600   -1.0011 H   0  0  0  0  0  0  0  0  0  0  0  0
   -0.9515    0.2121    1.3130 H   0  0  0  0  0  0  0  0  0  0  0  0
   -1.3625    1.8461    0.8501 H   0  0  0  0  0  0  0  0  0  0  0  0
   -2.4316    0.2208   -0.6402 H   0  0  0  0  0  0  0  0  0  0  0  0
   -1.2755    1.1989   -1.5119 H   0  0  0  0  0  0  0  0  0  0  0  0
   -1.7843   -3.2282   -1.3361 H   0  0  0  0  0  0  0  0  0  0  0  0
   -1.5647   -5.0749    0.2319 H   0  0  0  0  0  0  0  0  0  0  0  0
   -0.7417   -4.6590    2.5144 H   0  0  0  0  0  0  0  0  0  0  0  0
    0.4771   -2.6240    2.8469 H   0  0  0  0  0  0  0  0  0  0  0  0
   -0.1084   -0.5891    1.4939 H   0  0  0  0  0  0  0  0  0  0  0  0
   -0.7614   -3.4199   -2.2290 H   0  0  0  0  0  0  0  0  0  0  0  0
   -1.6151   -3.8199   -4.6357 H   0  0  0  0  0  0  0  0  0  0  0  0
   -2.3782   -1.6705   -5.7765 H   0  0  0  0  0  0  0  0  0  0  0  0
    1.2300   -1.3304   -1.5998 H   0  0  0  0  0  0  0  0  0  0  0  0
  1  2  1  0  0  0  0
  1 24  1  0  0  0  0
  1 25  1  0  0  0  0
  1 26  1  0  0  0  0
  2  3  1  0  0  0  0
  2  7  1  0  0  0  0
  2  8  1  0  0  0  0
  3  4  1  0  0  0  0
  3 27  1  0  0  0  0
  3 28  1  0  0  0  0
  4  5  1  0  0  0  0
  4 29  1  0  0  0  0
  4 30  1  0  0  0  0
  5  6  1  0  0  0  0
  6  7  1  0  0  0  0
  6 31  1  0  0  0  0
  6 32  1  0  0  0  0
  7 33  1  0  0  0  0
  7 34  1  0  0  0  0
  8  9  1  0  0  0  0
  8 35  1  0  0  0  0
  8 36  1  0  0  0  0
  9 10  1  0  0  0  0
  9 37  1  0  0  0  0
  9 38  1  0  0  0  0
 10 11  1  0  0  0  0
 10 17  1  0  0  0  0
 10 22  1  0  0  0  0
 11 12  2  0  0  0  0
 11 16  1  0  0  0  0
 12 13  1  0  0  0  0
 12 39  1  0  0  0  0
 13 14  2  0  0  0  0
 13 40  1  0  0  0  0
 14 15  1  0  0  0  0
 14 41  1  0  0  0  0
 15 16  2  0  0  0  0
 15 42  1  0  0  0  0
 16 43  1  0  0  0  0
 17 18  2  0  0  0  0
 17 21  1  0  0  0  0
 18 19  1  0  0  0  0
 18 44  1  0  0  0  0
 19 20  2  0  0  0  0
 19 45  1  0  0  0  0
 20 21  1  0  0  0  0
 20 46  1  0  0  0  0
 22 47  1  0  0  0  0
M  CHG  2   2   1  23  -1
M  END
>  <DRUGBANK_ID>
DB13666

>  <COMMON_NAME>
Tiemonium iodide

>  <CAS_NUMBER>
144-12-7

>  <UNII>
FZ2LZ7U304

>  <SYNONYMS>
Tiemonium iodide

$$$$
