
 OpenBabel10282417203D

 62 63  0  0  0  0  0  0  0  0999 V2000
   -2.8778    0.1858    0.9041 C   0  0  0  0  0  0  0  0  0  0  0  0
   -2.4137   -7.3215   -3.7075 C   0  0  0  0  0  0  0  0  0  0  0  0
    5.6536   -1.3577    0.2864 C   0  0  0  0  0  0  0  0  0  0  0  0
   -3.5331   -0.2798   -2.0350 C   0  0  0  0  0  0  0  0  0  0  0  0
    1.9552   -0.8623   -1.9202 C   0  0  0  0  0  0  0  0  0  0  0  0
    0.7910   -1.1351   -1.1071 C   0  0  0  0  0  0  0  0  0  0  0  0
    2.9378    0.2624   -1.4365 C   0  0  0  0  0  0  0  0  0  0  0  0
   -0.0545    0.0265   -0.9469 C   0  0  0  0  0  0  0  0  0  0  0  0
    0.7837    1.6723    1.2528 C   0  0  0  0  0  0  0  0  0  0  0  0
   -0.6964   -6.0335   -0.6687 C   0  0  0  0  0  0  0  0  0  0  0  0
    1.4040    0.3624    1.6060 C   0  0  0  0  0  0  0  0  0  0  0  0
   -1.1028   -4.6980   -0.6662 C   0  0  0  0  0  0  0  0  0  0  0  0
   -0.7279    1.6808    1.1115 C   0  0  0  0  0  0  0  0  0  0  0  0
   -1.1969   -6.9002   -1.6322 C   0  0  0  0  0  0  0  0  0  0  0  0
    3.8481    0.1461   -0.1445 C   0  0  0  0  0  0  0  0  0  0  0  0
   -1.1217    0.3954   -1.8920 C   0  0  0  0  0  0  0  0  0  0  0  0
   -0.7134   -0.9705    1.6334 C   0  0  0  0  0  0  0  0  0  0  0  0
   -2.5252   -5.1761   -2.5442 C   0  0  0  0  0  0  0  0  0  0  0  0
    0.7729   -0.9092    1.8586 C   0  0  0  0  0  0  0  0  0  0  0  0
   -2.0576   -4.2715   -1.5956 C   0  0  0  0  0  0  0  0  0  0  0  0
    3.3626   -2.3321    0.4572 C   0  0  0  0  0  0  0  0  0  0  0  0
   -1.7897   -1.9965   -2.1583 C   0  0  0  0  0  0  0  0  0  0  0  0
   -1.4268    0.3672    1.3339 N   0  3  0  0  0  0  0  0  0  0  0  0
   -2.0536   -6.4477   -2.5767 N   0  3  0  0  0  0  0  0  0  0  0  0
    4.2153   -1.2303    0.1347 N   0  0  0  0  0  0  0  0  0  0  0  0
   -2.1181   -0.6816   -1.9301 N   0  0  0  0  0  0  0  0  0  0  0  0
    3.7314   -3.4982    0.1957 O   0  0  0  0  0  0  0  0  0  0  0  0
   -0.6520   -2.3663   -2.7440 O   0  0  0  0  0  0  0  0  0  0  0  0
    1.9172   -2.0833    1.1975 O   0  0  0  0  0  0  0  0  0  0  0  0
   -2.5843   -2.9600   -1.5984 O   0  0  0  0  0  0  0  0  0  0  0  0
   -2.9884   -0.6902    0.2550 H   0  0  0  0  0  0  0  0  0  0  0  0
   -3.3692   -0.1308    1.8141 H   0  0  0  0  0  0  0  0  0  0  0  0
   -3.3223    1.0769    0.4357 H   0  0  0  0  0  0  0  0  0  0  0  0
   -3.5013   -7.4023   -3.7486 H   0  0  0  0  0  0  0  0  0  0  0  0
   -2.0145   -6.8560   -4.6136 H   0  0  0  0  0  0  0  0  0  0  0  0
   -1.9630   -8.3080   -3.5748 H   0  0  0  0  0  0  0  0  0  0  0  0
    6.1312   -0.8088   -0.5341 H   0  0  0  0  0  0  0  0  0  0  0  0
    5.9144   -0.8556    1.2289 H   0  0  0  0  0  0  0  0  0  0  0  0
    6.0003   -2.3875    0.3119 H   0  0  0  0  0  0  0  0  0  0  0  0
   -3.9395   -0.5858   -2.9918 H   0  0  0  0  0  0  0  0  0  0  0  0
   -4.1423   -0.7838   -1.2807 H   0  0  0  0  0  0  0  0  0  0  0  0
   -3.6348    0.8018   -1.8811 H   0  0  0  0  0  0  0  0  0  0  0  0
    1.5142   -0.6139   -2.8830 H   0  0  0  0  0  0  0  0  0  0  0  0
    2.4311   -1.8322   -1.9389 H   0  0  0  0  0  0  0  0  0  0  0  0
    0.3258   -2.1084   -0.9357 H   0  0  0  0  0  0  0  0  0  0  0  0
    1.2528   -1.1437   -0.1943 H   0  0  0  0  0  0  0  0  0  0  0  0
    2.4537    1.2504   -1.4925 H   0  0  0  0  0  0  0  0  0  0  0  0
    3.6417    0.2492   -2.2712 H   0  0  0  0  0  0  0  0  0  0  0  0
   -0.4598   -0.3577   -0.1203 H   0  0  0  0  0  0  0  0  0  0  0  0
    0.3629    0.7836   -0.4083 H   0  0  0  0  0  0  0  0  0  0  0  0
    1.4104    2.3272    0.4808 H   0  0  0  0  0  0  0  0  0  0  0  0
    0.0266   -6.4010    0.0608 H   0  0  0  0  0  0  0  0  0  0  0  0
    2.1489    0.0409    0.9047 H   0  0  0  0  0  0  0  0  0  0  0  0
   -0.6362   -4.0319    0.0520 H   0  0  0  0  0  0  0  0  0  0  0  0
   -1.2111    2.4416    0.3718 H   0  0  0  0  0  0  0  0  0  0  0  0
   -0.9020   -7.9470   -1.6665 H   0  0  0  0  0  0  0  0  0  0  0  0
    3.6512    0.5140    0.8714 H   0  0  0  0  0  0  0  0  0  0  0  0
    4.6749    0.8786   -0.2470 H   0  0  0  0  0  0  0  0  0  0  0  0
   -1.5692    1.3713   -1.6448 H   0  0  0  0  0  0  0  0  0  0  0  0
   -0.5308    0.5335   -2.7735 H   0  0  0  0  0  0  0  0  0  0  0  0
   -1.1944   -1.8329    1.0398 H   0  0  0  0  0  0  0  0  0  0  0  0
   -3.2571   -4.8918   -3.2924 H   0  0  0  0  0  0  0  0  0  0  0  0
  1 31  1  0  0  0  0
  1 32  1  0  0  0  0
  1 33  1  0  0  0  0
  2 34  1  0  0  0  0
  2 35  1  0  0  0  0
  2 36  1  0  0  0  0
  3 37  1  0  0  0  0
  3 38  1  0  0  0  0
  3 39  1  0  0  0  0
  4 40  1  0  0  0  0
  4 41  1  0  0  0  0
  4 42  1  0  0  0  0
  5 43  1  0  0  0  0
  5 44  1  0  0  0  0
  6  5  1  0  0  0  0
  6 45  1  0  0  0  0
  6 46  1  0  0  0  0
  7  5  1  0  0  0  0
  7 47  1  0  0  0  0
  7 48  1  0  0  0  0
  8  6  1  0  0  0  0
  8 49  1  0  0  0  0
  8 50  1  0  0  0  0
  9 51  1  0  0  0  0
 10 52  1  0  0  0  0
 11  9  2  0  0  0  0
 11 53  1  0  0  0  0
 12 10  2  0  0  0  0
 12 54  1  0  0  0  0
 13  9  1  0  0  0  0
 13 55  1  0  0  0  0
 14 10  1  0  0  0  0
 14 56  1  0  0  0  0
 15  7  1  0  0  0  0
 15 57  1  0  0  0  0
 15 58  1  0  0  0  0
 16  8  1  0  0  0  0
 16 59  1  0  0  0  0
 16 60  1  0  0  0  0
 17 61  1  0  0  0  0
 18 62  1  0  0  0  0
 19 11  1  0  0  0  0
 19 17  2  0  0  0  0
 20 12  1  0  0  0  0
 20 18  2  0  0  0  0
 23  1  1  0  0  0  0
 23 13  2  0  0  0  0
 23 17  1  0  0  0  0
 24  2  1  0  0  0  0
 24 14  2  0  0  0  0
 24 18  1  0  0  0  0
 25  3  1  0  0  0  0
 25 15  1  0  0  0  0
 25 21  1  0  0  0  0
 26  4  1  0  0  0  0
 26 16  1  0  0  0  0
 26 22  1  0  0  0  0
 27 21  2  0  0  0  0
 28 22  2  0  0  0  0
 29 19  1  0  0  0  0
 29 21  1  0  0  0  0
 30 20  1  0  0  0  0
 30 22  1  0  0  0  0
M  CHG  2  23   1  24   1
M  END
>  <DRUGBANK_ID>
DB13694

>  <COMMON_NAME>
Distigmine

>  <CAS_NUMBER>
17299-00-2

>  <UNII>
T940307O7B

$$$$
