
 OpenBabel10282417223D

 51 54  0  0  1  0  0  0  0  0999 V2000
   -1.1129    5.1472    0.6647 C   0  0  0  0  0  0  0  0  0  0  0  0
   -2.0690    5.2718    1.6389 O   0  0  0  0  0  0  0  0  0  0  0  0
   -1.8931    4.1082    2.4639 C   0  0  0  0  0  0  0  0  0  0  0  0
   -2.0906    2.7091    1.8634 C   0  0  0  0  0  0  0  0  0  0  0  0
   -3.1170    2.0039    2.5043 C   0  0  0  0  0  0  0  0  0  0  0  0
   -3.4635    0.7250    2.1182 C   0  0  0  0  0  0  0  0  0  0  0  0
   -2.7610    0.1591    1.0806 C   0  0  0  0  0  0  0  0  0  0  0  0
   -1.7575    0.7902    0.4290 N   0  0  0  0  0  0  0  0  0  0  0  0
   -1.3995    2.0493    0.8073 C   0  0  0  0  0  0  0  0  0  0  0  0
   -0.4104    2.6552    0.0247 N   0  0  0  0  0  0  0  0  0  0  0  0
    0.9129    3.0783    0.7132 C   0  0  0  0  0  0  0  0  0  0  0  0
    1.5587    4.5447    0.1865 C   0  0  0  0  0  0  0  0  0  0  0  0
    1.4275    4.9037   -1.2842 N   0  0  0  0  0  0  0  0  0  0  0  0
    2.6799    4.2093   -1.9530 C   0  0  0  0  0  0  0  0  0  0  0  0
    2.7380    2.6488   -1.5976 C   0  0  1  0  0  0  0  0  0  0  0  0
    1.4517    2.2785   -2.2231 C   0  0  0  0  0  0  0  0  0  0  0  0
    0.6859    1.1368   -2.0035 O   0  0  0  0  0  0  0  0  0  0  0  0
    1.4054    0.2335   -1.3930 C   0  0  0  0  0  0  0  0  0  0  0  0
    0.6684   -0.9319   -1.0903 C   0  0  0  0  0  0  0  0  0  0  0  0
    1.3578   -2.0856   -1.0228 C   0  0  0  0  0  0  0  0  0  0  0  0
    2.7656   -2.0335   -1.1570 C   0  0  0  0  0  0  0  0  0  0  0  0
    3.4671   -0.8055   -1.3126 C   0  0  0  0  0  0  0  0  0  0  0  0
    2.8205    0.3479   -1.4319 C   0  0  0  0  0  0  0  0  0  0  0  0
    3.5281    1.5150   -1.8572 O   0  0  0  0  0  0  0  0  0  0  0  0
   -0.0295    4.5447   -1.9038 C   0  0  0  0  0  0  0  0  0  0  0  0
   -0.8956    3.1468   -1.4213 C   0  0  0  0  0  0  0  0  0  0  0  0
   -0.7235    5.9994    0.1217 H   0  0  0  0  0  0  0  0  0  0  0  0
   -1.5735    4.4815   -0.0301 H   0  0  0  0  0  0  0  0  0  0  0  0
   -0.2950    4.7202    1.2075 H   0  0  0  0  0  0  0  0  0  0  0  0
   -0.9264    4.1397    2.9900 H   0  0  0  0  0  0  0  0  0  0  0  0
   -2.6454    4.3177    3.2172 H   0  0  0  0  0  0  0  0  0  0  0  0
   -3.6650    2.4892    3.3067 H   0  0  0  0  0  0  0  0  0  0  0  0
   -4.2723    0.2069    2.6143 H   0  0  0  0  0  0  0  0  0  0  0  0
   -3.0053   -0.8398    0.7266 H   0  0  0  0  0  0  0  0  0  0  0  0
    0.8227    3.0961    1.8147 H   0  0  0  0  0  0  0  0  0  0  0  0
    1.6426    2.2539    0.6504 H   0  0  0  0  0  0  0  0  0  0  0  0
    1.2216    5.4237    0.7603 H   0  0  0  0  0  0  0  0  0  0  0  0
    2.6121    4.6368    0.5207 H   0  0  0  0  0  0  0  0  0  0  0  0
    2.6670    4.4218   -3.0269 H   0  0  0  0  0  0  0  0  0  0  0  0
    3.5678    4.7229   -1.5550 H   0  0  0  0  0  0  0  0  0  0  0  0
    2.8942    2.7417   -0.5226 H   0  0  0  0  0  0  0  0  0  0  0  0
    0.9947    2.8652   -1.5140 H   0  0  0  0  0  0  0  0  0  0  0  0
    1.2451    2.6838   -3.2069 H   0  0  0  0  0  0  0  0  0  0  0  0
   -0.4330   -0.9042   -1.0770 H   0  0  0  0  0  0  0  0  0  0  0  0
    0.8258   -3.0366   -0.9472 H   0  0  0  0  0  0  0  0  0  0  0  0
    3.3154   -2.9489   -1.1896 H   0  0  0  0  0  0  0  0  0  0  0  0
    4.5468   -0.7762   -1.4507 H   0  0  0  0  0  0  0  0  0  0  0  0
   -0.7352    5.3777   -1.7733 H   0  0  0  0  0  0  0  0  0  0  0  0
    0.0699    4.5589   -3.0055 H   0  0  0  0  0  0  0  0  0  0  0  0
   -0.8023    2.4366   -2.2687 H   0  0  0  0  0  0  0  0  0  0  0  0
   -1.9980    3.1691   -1.5033 H   0  0  0  0  0  0  0  0  0  0  0  0
  1  2  1  0  0  0  0
  1 27  1  0  0  0  0
  1 28  1  0  0  0  0
  1 29  1  0  0  0  0
  2  3  1  0  0  0  0
  3  4  1  0  0  0  0
  3 30  1  0  0  0  0
  3 31  1  0  0  0  0
  4  5  2  0  0  0  0
  4  9  1  0  0  0  0
  5  6  1  0  0  0  0
  5 32  1  0  0  0  0
  6  7  2  0  0  0  0
  6 33  1  0  0  0  0
  7  8  1  0  0  0  0
  7 34  1  0  0  0  0
  8  9  2  0  0  0  0
  9 10  1  0  0  0  0
 10 11  1  0  0  0  0
 10 26  1  0  0  0  0
 11 12  1  0  0  0  0
 11 35  1  0  0  0  0
 11 36  1  0  0  0  0
 12 13  1  0  0  0  0
 12 37  1  0  0  0  0
 12 38  1  0  0  0  0
 13 14  1  0  0  0  0
 13 25  1  0  0  0  0
 14 39  1  0  0  0  0
 14 40  1  0  0  0  0
 15 16  1  0  0  0  0
 15 24  1  0  0  0  0
 15 41  1  1  0  0  0
 15 14  1  0  0  0  0
 16 17  1  0  0  0  0
 16 42  1  0  0  0  0
 16 43  1  0  0  0  0
 17 18  1  0  0  0  0
 18 19  2  0  0  0  0
 18 23  1  0  0  0  0
 19 20  1  0  0  0  0
 19 44  1  0  0  0  0
 20 21  2  0  0  0  0
 20 45  1  0  0  0  0
 21 22  1  0  0  0  0
 21 46  1  0  0  0  0
 22 23  2  0  0  0  0
 22 47  1  0  0  0  0
 23 24  1  0  0  0  0
 25 26  1  0  0  0  0
 25 48  1  0  0  0  0
 25 49  1  0  0  0  0
 26 50  1  0  0  0  0
 26 51  1  0  0  0  0
M  ISO  1   1  11
M  END
>  <DRUGBANK_ID>
DB15324

>  <COMMON_NAME>
ORM-13070 C-11

>  <CAS_NUMBER>
1227170-74-2

>  <UNII>
Y61S1UFN4Y

>  <SYNONYMS>
11C-ORM-13070

$$$$
