
 OpenBabel10282417183D

  8  7  0  0  0  0  0  0  0  0999 V2000
    1.0403    0.0904    0.0141 O   0  0  0  0  0  0  0  0  0  0  0  0
    2.5887    0.0904    0.0141 P   0  0  0  0  0  0  0  0  0  0  0  0
    2.7233    0.9713   -1.3484 O   0  0  0  0  0  0  0  0  0  0  0  0
    2.7202    1.2975    1.0961 O   0  0  0  0  0  0  0  0  0  0  0  0
    4.3187    0.0904    0.0141 O   0  0  0  0  0  0  0  0  0  0  0  0
    2.6527    0.3845   -2.1191 H   0  0  0  0  0  0  0  0  0  0  0  0
    1.8059    1.6124    1.2393 H   0  0  0  0  0  0  0  0  0  0  0  0
    4.5316    0.9887    0.3415 H   0  0  0  0  0  0  0  0  0  0  0  0
  2  1  2  0  0  0  0
  3  2  1  0  0  0  0
  3  6  1  0  0  0  0
  4  2  1  0  0  0  0
  4  7  1  0  0  0  0
  5  2  1  0  0  0  0
  5  8  1  0  0  0  0
M  END
>  <DRUGBANK_ID>
DB09394

>  <COMMON_NAME>
Phosphoric acid

>  <CAS_NUMBER>
7664-38-2

>  <UNII>
E4GA8884NN

$$$$
