
 OpenBabel10282417133D

100103  0  0  0  0  0  0  0  0999 V2000
  -13.1985   -2.5557    5.1185 S   0  0  0  0  0  0  0  0  0  0  0  0
   -9.1029    0.0765    7.8109 P   0  0  0  0  0  0  0  0  0  0  0  0
   -6.8323   -0.5258    5.3170 P   0  0  1  0  0  0  0  0  0  0  0  0
   -8.0104   -2.5849    3.7845 P   0  0  2  0  0  0  0  0  0  0  0  0
   -9.6446    3.6626    4.7046 O   0  0  0  0  0  0  0  0  0  0  0  0
   -9.7171   -0.2995    6.2379 O   0  0  0  0  0  0  0  0  0  0  0  0
  -11.9051    2.3645    7.4436 O   0  0  0  0  0  0  0  0  0  0  0  0
   -7.5870    0.2173    3.9491 O   0  0  0  0  0  0  0  0  0  0  0  0
   -9.4213   -1.3796    8.4963 O   0  0  0  0  0  0  0  0  0  0  0  0
   -7.4717    0.9101    8.0631 O   0  0  0  0  0  0  0  0  0  0  0  0
   -7.9832   -1.4682    4.8166 O   0  0  0  0  0  0  0  0  0  0  0  0
   -8.5531    0.4130    9.2187 O   0  0  0  0  0  0  0  0  0  0  0  0
   -6.7205   -1.5597    3.2573 O   0  0  0  0  0  0  0  0  0  0  0  0
   -5.7145    0.0628    4.1106 O   0  0  0  0  0  0  0  0  0  0  0  0
   -5.8106   -3.4773    7.5702 O   0  0  0  0  0  0  0  0  0  0  0  0
   -6.1569   -1.1909    6.5413 O   0  0  0  0  0  0  0  0  0  0  0  0
   -8.8853   -1.8559    2.5967 O   0  0  0  0  0  0  0  0  0  0  0  0
   -9.1648   -3.5025    4.2564 O   0  0  0  0  0  0  0  0  0  0  0  0
   -8.1869   -4.4944    6.2748 O   0  0  0  0  0  0  0  0  0  0  0  0
   -9.8555    2.5707    7.3608 O   0  0  0  0  0  0  0  0  0  0  0  0
  -16.0004   -0.4730    5.9008 O   0  0  0  0  0  0  0  0  0  0  0  0
  -16.9811   -1.0425   -0.2490 O   0  0  0  0  0  0  0  0  0  0  0  0
  -11.8303    3.8542    4.1908 N   0  0  0  0  0  0  0  0  0  0  0  0
  -12.4071    3.6574    2.0849 N   0  0  0  0  0  0  0  0  0  0  0  0
  -13.9632    3.4938    5.3102 N   0  0  0  0  0  0  0  0  0  0  0  0
  -15.7316    3.5184    3.7145 N   0  0  0  0  0  0  0  0  0  0  0  0
  -15.2837    3.8351    1.3974 N   0  0  0  0  0  0  0  0  0  0  0  0
   -8.4051   -2.3260    6.6611 N   0  0  0  0  0  0  0  0  0  0  0  0
  -11.3637    0.2876    6.1613 N   0  0  0  0  0  0  0  0  0  0  0  0
  -10.1304    1.2067    4.9928 C   0  0  1  0  0  0  0  0  0  0  0  0
  -11.4960    2.3867    5.7900 C   0  0  2  0  0  0  0  0  0  0  0  0
   -9.0238    2.3750    4.6319 C   0  0  1  0  0  0  0  0  0  0  0  0
  -10.9777    3.6934    5.3169 C   0  0  1  0  0  0  0  0  0  0  0  0
   -7.8241    1.7676    3.7410 C   0  0  0  0  0  0  0  0  0  0  0  0
  -13.1726    3.6620    4.2372 C   0  0  0  0  0  0  0  0  0  0  0  0
  -11.3959    3.7188    2.9025 C   0  0  0  0  0  0  0  0  0  0  0  0
  -13.5072    3.6462    2.9192 C   0  0  0  0  0  0  0  0  0  0  0  0
   -4.8123   -1.7398    5.4079 C   0  0  0  0  0  0  0  0  0  0  0  0
   -5.9733   -3.1683    6.1604 C   0  0  2  0  0  0  0  0  0  0  0  0
   -5.1941   -2.1342    3.8484 C   0  0  0  0  0  0  0  0  0  0  0  0
  -14.8625    3.6567    2.6821 C   0  0  0  0  0  0  0  0  0  0  0  0
   -4.7082    0.2125    5.9432 C   0  0  0  0  0  0  0  0  0  0  0  0
   -3.7136   -1.9284    6.3926 C   0  0  0  0  0  0  0  0  0  0  0  0
  -15.2442    3.3955    4.9642 C   0  0  0  0  0  0  0  0  0  0  0  0
   -7.6274   -3.4020    6.3830 C   0  0  0  0  0  0  0  0  0  0  0  0
   -7.8219   -1.1149    7.1147 C   0  0  0  0  0  0  0  0  0  0  0  0
   -8.2450    0.7895    6.2949 C   0  0  0  0  0  0  0  0  0  0  0  0
  -10.0628    1.3929    6.7896 C   0  0  0  0  0  0  0  0  0  0  0  0
  -11.0224   -1.0516    4.8551 C   0  0  0  0  0  0  0  0  0  0  0  0
  -11.4692   -2.3634    5.3922 C   0  0  0  0  0  0  0  0  0  0  0  0
  -13.7411   -0.8640    5.4178 C   0  0  0  0  0  0  0  0  0  0  0  0
  -15.1538   -0.7222    5.0491 C   0  0  0  0  0  0  0  0  0  0  0  0
  -15.4642   -0.7314    3.5852 C   0  0  0  0  0  0  0  0  0  0  0  0
  -14.8124   -1.5367    2.6283 C   0  0  0  0  0  0  0  0  0  0  0  0
  -16.5100    0.0801    3.1811 C   0  0  0  0  0  0  0  0  0  0  0  0
  -15.3022   -1.6603    1.3344 C   0  0  0  0  0  0  0  0  0  0  0  0
  -16.9894   -0.0270    1.8797 C   0  0  0  0  0  0  0  0  0  0  0  0
  -16.4122   -0.9192    0.9804 C   0  0  0  0  0  0  0  0  0  0  0  0
  -14.5646    3.9944    0.7008 H   0  0  0  0  0  0  0  0  0  0  0  0
  -16.2632    3.9465    1.2299 H   0  0  0  0  0  0  0  0  0  0  0  0
   -9.3959   -2.2910    6.4610 H   0  0  0  0  0  0  0  0  0  0  0  0
  -12.0410    0.6350    5.4763 H   0  0  0  0  0  0  0  0  0  0  0  0
  -11.1074    2.5709    8.0238 H   0  0  0  0  0  0  0  0  0  0  0  0
  -10.1844   -1.9332    8.6826 H   0  0  0  0  0  0  0  0  0  0  0  0
   -6.7330    1.3429    7.5896 H   0  0  0  0  0  0  0  0  0  0  0  0
   -5.9935   -0.2622    3.2216 H   0  0  0  0  0  0  0  0  0  0  0  0
   -5.4433   -2.7004    8.0075 H   0  0  0  0  0  0  0  0  0  0  0  0
   -8.3029   -1.4151    1.9544 H   0  0  0  0  0  0  0  0  0  0  0  0
  -16.5152   -1.7371   -0.7427 H   0  0  0  0  0  0  0  0  0  0  0  0
  -10.4554    0.8426    3.9816 H   0  0  0  0  0  0  0  0  0  0  0  0
  -12.5241    2.0457    5.6457 H   0  0  0  0  0  0  0  0  0  0  0  0
   -8.3492    2.7378    5.3891 H   0  0  0  0  0  0  0  0  0  0  0  0
  -11.0974    4.4642    6.0842 H   0  0  0  0  0  0  0  0  0  0  0  0
   -6.8801    2.2684    3.9994 H   0  0  0  0  0  0  0  0  0  0  0  0
   -8.0534    1.9319    2.6867 H   0  0  0  0  0  0  0  0  0  0  0  0
  -10.3438    3.6621    2.6385 H   0  0  0  0  0  0  0  0  0  0  0  0
   -5.7273   -4.0713    5.6055 H   0  0  0  0  0  0  0  0  0  0  0  0
   -4.4654   -1.7012    3.1601 H   0  0  0  0  0  0  0  0  0  0  0  0
   -5.2731   -3.2114    3.7228 H   0  0  0  0  0  0  0  0  0  0  0  0
   -4.8636    0.4030    7.0288 H   0  0  0  0  0  0  0  0  0  0  0  0
   -4.0722    0.8961    5.3587 H   0  0  0  0  0  0  0  0  0  0  0  0
   -5.5825    0.9769    5.7822 H   0  0  0  0  0  0  0  0  0  0  0  0
   -4.0995   -1.5664    7.3806 H   0  0  0  0  0  0  0  0  0  0  0  0
   -3.5247   -2.9749    6.5036 H   0  0  0  0  0  0  0  0  0  0  0  0
   -2.9233   -1.2257    6.1667 H   0  0  0  0  0  0  0  0  0  0  0  0
  -15.9474    3.2345    5.7780 H   0  0  0  0  0  0  0  0  0  0  0  0
   -7.0273   -0.7769    7.8614 H   0  0  0  0  0  0  0  0  0  0  0  0
   -7.6676   -1.6059    8.1130 H   0  0  0  0  0  0  0  0  0  0  0  0
   -8.4284    0.6449    5.3175 H   0  0  0  0  0  0  0  0  0  0  0  0
   -7.7113    1.7354    6.4719 H   0  0  0  0  0  0  0  0  0  0  0  0
   -9.9564   -1.0808    4.5975 H   0  0  0  0  0  0  0  0  0  0  0  0
  -11.3027   -0.8271    3.7931 H   0  0  0  0  0  0  0  0  0  0  0  0
  -11.2757   -2.3727    6.4550 H   0  0  0  0  0  0  0  0  0  0  0  0
  -11.0105   -3.2390    4.9539 H   0  0  0  0  0  0  0  0  0  0  0  0
  -13.5665   -0.6290    6.4748 H   0  0  0  0  0  0  0  0  0  0  0  0
  -13.3302   -0.0714    4.7777 H   0  0  0  0  0  0  0  0  0  0  0  0
  -13.9512   -2.1567    2.8324 H   0  0  0  0  0  0  0  0  0  0  0  0
  -16.9668    0.7716    3.8843 H   0  0  0  0  0  0  0  0  0  0  0  0
  -14.8218   -2.3644    0.6609 H   0  0  0  0  0  0  0  0  0  0  0  0
  -17.8459    0.5638    1.5814 H   0  0  0  0  0  0  0  0  0  0  0  0
  1 50  1  0  0  0  0
  1 51  1  0  0  0  0
  2  6  1  0  0  0  0
  2  9  1  0  0  0  0
  2 10  1  0  0  0  0
  2 12  2  0  0  0  0
  3 14  1  0  0  0  0
  3 16  2  1  0  0  0
  3 11  1  0  0  0  0
  3  8  1  0  0  0  0
  4 11  1  0  0  0  0
  4 13  1  0  0  0  0
  4 17  1  0  0  0  0
  4 18  2  1  0  0  0
  5 32  1  0  0  0  0
  5 33  1  0  0  0  0
  7 63  1  0  0  0  0
  8 34  1  0  0  0  0
  9 64  1  0  0  0  0
 10 65  1  0  0  0  0
 13 40  1  0  0  0  0
 14 66  1  0  0  0  0
 15 67  1  0  0  0  0
 17 68  1  0  0  0  0
 19 45  2  0  0  0  0
 20 48  2  0  0  0  0
 21 52  2  0  0  0  0
 22 58  1  0  0  0  0
 22 69  1  0  0  0  0
 23 35  1  0  0  0  0
 23 36  1  0  0  0  0
 24 36  2  0  0  0  0
 24 37  1  0  0  0  0
 25 35  2  0  0  0  0
 25 44  1  0  0  0  0
 26 41  1  0  0  0  0
 26 44  2  0  0  0  0
 27 41  1  0  0  0  0
 27 59  1  0  0  0  0
 27 60  1  0  0  0  0
 28 45  1  0  0  0  0
 28 46  1  0  0  0  0
 28 61  1  0  0  0  0
 29 48  1  0  0  0  0
 29 49  1  0  0  0  0
 29 62  1  0  0  0  0
 30  6  1  0  0  0  0
 30 31  1  0  0  0  0
 30 32  1  0  0  0  0
 30 70  1  6  0  0  0
 31  7  1  0  0  0  0
 31 33  1  0  0  0  0
 31 71  1  6  0  0  0
 32 72  1  1  0  0  0
 32 34  1  0  0  0  0
 33 23  1  0  0  0  0
 33 73  1  1  0  0  0
 34 74  1  0  0  0  0
 34 75  1  0  0  0  0
 35 37  1  0  0  0  0
 36 76  1  0  0  0  0
 37 41  2  0  0  0  0
 38 40  1  0  0  0  0
 38 42  1  0  0  0  0
 38 43  1  0  0  0  0
 39 45  1  0  0  0  0
 39 77  1  6  0  0  0
 39 38  1  0  0  0  0
 39 15  1  0  0  0  0
 40 78  1  0  0  0  0
 40 79  1  0  0  0  0
 42 80  1  0  0  0  0
 42 81  1  0  0  0  0
 42 82  1  0  0  0  0
 43 83  1  0  0  0  0
 43 84  1  0  0  0  0
 43 85  1  0  0  0  0
 44 86  1  0  0  0  0
 46 47  1  0  0  0  0
 46 87  1  0  0  0  0
 46 88  1  0  0  0  0
 47 48  1  0  0  0  0
 47 89  1  0  0  0  0
 47 90  1  0  0  0  0
 49 50  1  0  0  0  0
 49 91  1  0  0  0  0
 49 92  1  0  0  0  0
 50 93  1  0  0  0  0
 50 94  1  0  0  0  0
 51 52  1  0  0  0  0
 51 95  1  0  0  0  0
 51 96  1  0  0  0  0
 52 53  1  0  0  0  0
 53 54  2  0  0  0  0
 53 55  1  0  0  0  0
 54 56  1  0  0  0  0
 54 97  1  0  0  0  0
 55 57  2  0  0  0  0
 55 98  1  0  0  0  0
 56 58  2  0  0  0  0
 56 99  1  0  0  0  0
 57 58  1  0  0  0  0
 57100  1  0  0  0  0
M  END
>  <DRUGBANK_ID>
DB03613

>  <SECONDARY_ACCESSION_NUMBERS>
EXPT00209

>  <COMMON_NAME>
4-hydroxyphenacyl coenzyme A

$$$$
