Daidzin
 OpenBabel10282417123D

 50 53  0  0  1  0  0  0  0  0999 V2000
   -1.4044   -1.7928    2.3117 O   0  0  0  0  0  0  0  0  0  0  0  0
   -0.0739   -2.2130    2.6217 C   0  0  0  0  0  0  0  0  0  0  0  0
    0.9266   -1.2364    1.9915 C   0  0  1  0  0  0  0  0  0  0  0  0
    1.7669   -0.6961    3.0222 O   0  0  0  0  0  0  0  0  0  0  0  0
    2.6394    0.3294    2.5315 C   0  0  1  0  0  0  0  0  0  0  0  0
    3.4105    0.9366    3.6021 O   0  0  0  0  0  0  0  0  0  0  0  0
    4.2912    0.1033    4.2380 C   0  0  0  0  0  0  0  0  0  0  0  0
    4.1213   -0.1474    5.5990 C   0  0  0  0  0  0  0  0  0  0  0  0
    5.0110   -1.0076    6.2531 C   0  0  0  0  0  0  0  0  0  0  0  0
    6.0303   -1.6340    5.5365 C   0  0  0  0  0  0  0  0  0  0  0  0
    6.2280   -1.3512    4.1933 C   0  0  0  0  0  0  0  0  0  0  0  0
    5.4102   -0.4160    3.5831 C   0  0  0  0  0  0  0  0  0  0  0  0
    6.9437   -2.5556    6.2138 C   0  0  0  0  0  0  0  0  0  0  0  0
    7.8399   -3.1202    5.5892 O   0  0  0  0  0  0  0  0  0  0  0  0
    6.7341   -2.7420    7.6682 C   0  0  0  0  0  0  0  0  0  0  0  0
    5.7365   -2.0459    8.2381 C   0  0  0  0  0  0  0  0  0  0  0  0
    4.8522   -1.1989    7.6035 O   0  0  0  0  0  0  0  0  0  0  0  0
    7.6115   -3.6319    8.4413 C   0  0  0  0  0  0  0  0  0  0  0  0
    8.9920   -3.3838    8.4889 C   0  0  0  0  0  0  0  0  0  0  0  0
    9.8524   -4.2560    9.1622 C   0  0  0  0  0  0  0  0  0  0  0  0
    9.3268   -5.3795    9.7901 C   0  0  0  0  0  0  0  0  0  0  0  0
   10.1170   -6.2640   10.4627 O   0  0  0  0  0  0  0  0  0  0  0  0
    7.9626   -5.6437    9.7485 C   0  0  0  0  0  0  0  0  0  0  0  0
    7.1025   -4.7705    9.0785 C   0  0  0  0  0  0  0  0  0  0  0  0
    3.4974   -0.1762    1.3474 C   0  0  2  0  0  0  0  0  0  0  0  0
    4.3050    0.8657    0.7914 O   0  0  0  0  0  0  0  0  0  0  0  0
    2.6976   -0.8881    0.2666 C   0  0  1  0  0  0  0  0  0  0  0  0
    3.6032   -1.5307   -0.6461 O   0  0  0  0  0  0  0  0  0  0  0  0
    1.7721   -1.9251    0.9105 C   0  0  2  0  0  0  0  0  0  0  0  0
    0.9585   -2.5360   -0.0872 O   0  0  0  0  0  0  0  0  0  0  0  0
   -1.5390   -0.9277    2.7361 H   0  0  0  0  0  0  0  0  0  0  0  0
    0.0227   -2.2566    3.7111 H   0  0  0  0  0  0  0  0  0  0  0  0
    0.0444   -3.2299    2.2347 H   0  0  0  0  0  0  0  0  0  0  0  0
    0.3691   -0.4069    1.5354 H   0  0  0  0  0  0  0  0  0  0  0  0
    2.0056    1.1484    2.1644 H   0  0  0  0  0  0  0  0  0  0  0  0
    3.3136    0.3306    6.1461 H   0  0  0  0  0  0  0  0  0  0  0  0
    7.0281   -1.8226    3.6280 H   0  0  0  0  0  0  0  0  0  0  0  0
    5.6779   -0.1149    2.5761 H   0  0  0  0  0  0  0  0  0  0  0  0
    5.5143   -2.0724    9.2976 H   0  0  0  0  0  0  0  0  0  0  0  0
    9.4077   -2.5179    7.9764 H   0  0  0  0  0  0  0  0  0  0  0  0
   10.9173   -4.0471    9.1671 H   0  0  0  0  0  0  0  0  0  0  0  0
   11.0379   -5.9589   10.4240 H   0  0  0  0  0  0  0  0  0  0  0  0
    7.5723   -6.5379   10.2256 H   0  0  0  0  0  0  0  0  0  0  0  0
    6.0420   -5.0060    9.0352 H   0  0  0  0  0  0  0  0  0  0  0  0
    4.1651   -0.9633    1.6930 H   0  0  0  0  0  0  0  0  0  0  0  0
    3.7235    1.5319    0.3873 H   0  0  0  0  0  0  0  0  0  0  0  0
    2.1333   -0.1693   -0.3352 H   0  0  0  0  0  0  0  0  0  0  0  0
    4.1681   -2.1445   -0.1406 H   0  0  0  0  0  0  0  0  0  0  0  0
    2.3798   -2.7214    1.3611 H   0  0  0  0  0  0  0  0  0  0  0  0
    0.4307   -1.8482   -0.5283 H   0  0  0  0  0  0  0  0  0  0  0  0
  1  2  1  0  0  0  0
  1 31  1  0  0  0  0
  2 32  1  0  0  0  0
  2 33  1  0  0  0  0
  3  4  1  0  0  0  0
  3 29  1  0  0  0  0
  3 34  1  6  0  0  0
  3  2  1  0  0  0  0
  4  5  1  0  0  0  0
  5  6  1  0  0  0  0
  5 25  1  0  0  0  0
  5 35  1  6  0  0  0
  6  7  1  0  0  0  0
  7  8  2  0  0  0  0
  7 12  1  0  0  0  0
  8  9  1  0  0  0  0
  8 36  1  0  0  0  0
  9 10  2  0  0  0  0
  9 17  1  0  0  0  0
 10 11  1  0  0  0  0
 10 13  1  0  0  0  0
 11 12  2  0  0  0  0
 11 37  1  0  0  0  0
 12 38  1  0  0  0  0
 13 14  2  0  0  0  0
 13 15  1  0  0  0  0
 15 16  2  0  0  0  0
 15 18  1  0  0  0  0
 16 17  1  0  0  0  0
 16 39  1  0  0  0  0
 18 19  2  0  0  0  0
 18 24  1  0  0  0  0
 19 20  1  0  0  0  0
 19 40  1  0  0  0  0
 20 21  2  0  0  0  0
 20 41  1  0  0  0  0
 21 22  1  0  0  0  0
 21 23  1  0  0  0  0
 22 42  1  0  0  0  0
 23 24  2  0  0  0  0
 23 43  1  0  0  0  0
 24 44  1  0  0  0  0
 25 26  1  0  0  0  0
 25 27  1  0  0  0  0
 25 45  1  1  0  0  0
 26 46  1  0  0  0  0
 27 28  1  0  0  0  0
 27 29  1  0  0  0  0
 27 47  1  6  0  0  0
 28 48  1  0  0  0  0
 29 30  1  0  0  0  0
 29 49  1  1  0  0  0
 30 50  1  0  0  0  0
M  END
>  <DRUGBANK_ID>
DB02115

>  <SECONDARY_ACCESSION_NUMBERS>
EXPT01311

>  <COMMON_NAME>
Daidzin

>  <CAS_NUMBER>
552-66-9

>  <UNII>
4R2X91A5M5

>  <SYNONYMS>
7-(beta-D-glucopyranosyloxy)-3-(4-hydroxyphenyl)-4H-chromen-4-one; Daidzein 7-glucoside; daidzein 7-O-beta-D-glucoside; Daidzein 7-O-glucoside; daidzein 7-O-Î²-D-glucoside; Daidzoside

$$$$
