
 OpenBabel10282417213D

117121  0  0  1  0  0  0  0  0999 V2000
    0.7471   -1.0815   -0.1440 C   0  0  0  0  0  0  0  0  0  0  0  0
    0.2700   -0.8543    1.1633 O   0  0  0  0  0  0  0  0  0  0  0  0
    1.1238   -1.5567    2.0179 C   0  0  2  0  0  0  0  0  0  0  0  0
    1.0010   -1.0545    3.4466 C   0  0  0  0  0  0  0  0  0  0  0  0
    1.9445    0.0847    3.8973 C   0  0  2  0  0  0  0  0  0  0  0  0
    1.2412    1.3231    3.9865 O   0  0  0  0  0  0  0  0  0  0  0  0
    3.2842    0.1901    3.0974 C   0  0  1  0  0  0  0  0  0  0  0  0
    4.3430   -0.8344    3.4813 N   0  0  0  0  0  0  0  0  0  0  0  0
    4.0991   -1.8909    4.3389 C   0  0  0  0  0  0  0  0  0  0  0  0
    5.0715   -3.0384    4.4179 C   0  0  0  0  0  0  0  0  0  0  0  0
    3.1338   -1.9617    5.0335 O   0  0  0  0  0  0  0  0  0  0  0  0
    2.9522    0.0296    1.5903 C   0  0  1  0  0  0  0  0  0  0  0  0
    2.4483   -1.3480    1.5357 O   0  0  0  0  0  0  0  0  0  0  0  0
    2.1077    1.3073    0.9275 C   0  0  2  0  0  0  0  0  0  0  0  0
    0.8315    1.5178    1.5594 O   0  0  0  0  0  0  0  0  0  0  0  0
    1.9512    1.4298   -0.7065 C   0  0  2  0  0  0  0  0  0  0  0  0
    2.6874    2.5937   -1.1234 O   0  0  0  0  0  0  0  0  0  0  0  0
    0.4548    1.5580   -1.3754 C   0  0  0  0  0  0  0  0  0  0  0  0
   -0.2967    2.5742   -0.7399 O   0  0  0  0  0  0  0  0  0  0  0  0
    0.2688   -2.9018    1.8260 C   0  0  0  0  0  0  0  0  0  0  0  0
   -0.8402   -2.9795    1.2817 O   0  0  0  0  0  0  0  0  0  0  0  0
    0.7761   -4.0576    2.2730 N   0  0  0  0  0  0  0  0  0  0  0  0
    2.0079   -4.1445    2.9962 C   0  0  2  0  0  0  0  0  0  0  0  0
    2.8038   -5.2770    2.4141 C   0  0  0  0  0  0  0  0  0  0  0  0
    2.1561   -6.5735    2.8169 C   0  0  0  0  0  0  0  0  0  0  0  0
    1.8495   -6.6583    4.3645 C   0  0  1  0  0  0  0  0  0  0  0  0
    3.2502   -6.7739    5.0546 C   0  0  0  0  0  0  0  0  0  0  0  0
    1.0303   -5.4757    4.8608 C   0  0  1  0  0  0  0  0  0  0  0  0
    0.7036   -5.5344    6.3657 C   0  0  0  0  0  0  0  0  0  0  0  0
   -0.1658   -6.7357    6.7031 C   0  0  0  0  0  0  0  0  0  0  0  0
    0.4624   -7.9692    6.1657 C   0  0  1  0  0  0  0  0  0  0  0  0
   -0.4502   -9.2160    6.3511 C   0  0  2  0  0  0  0  0  0  0  0  0
   -0.9525   -9.6735    7.6938 C   0  0  0  0  0  0  0  0  0  0  0  0
   -1.2954  -11.1830    7.5335 C   0  0  0  0  0  0  0  0  0  0  0  0
   -0.6107  -11.7099    6.2597 C   0  0  2  0  0  0  0  0  0  0  0  0
    0.0314  -13.2048    6.3511 C   0  0  2  0  0  0  0  0  0  0  0  0
   -0.5443  -14.2354    7.3486 C   0  0  0  0  0  0  0  0  0  0  0  0
    1.4704  -13.0883    6.7827 C   0  0  0  0  0  0  0  0  0  0  0  0
    2.5596  -13.2534    5.7032 C   0  0  0  0  0  0  0  0  0  0  0  0
    2.3992  -12.7851    4.2337 C   0  0  0  0  0  0  0  0  0  0  0  0
    2.7080  -11.3271    3.8730 C   0  0  0  0  0  0  0  0  0  0  0  0
    3.9929  -10.6500    4.4327 C   0  0  0  0  0  0  0  0  0  0  0  0
    2.0577  -11.0024    2.4042 C   0  0  0  0  0  0  0  0  0  0  0  0
    0.3222  -10.4456    5.9112 C   0  0  2  0  0  0  0  0  0  0  0  0
    1.7444  -10.3271    6.7765 C   0  0  0  0  0  0  0  0  0  0  0  0
    0.2660  -10.1527    4.3888 C   0  0  0  0  0  0  0  0  0  0  0  0
    1.2540   -9.0027    4.0958 C   0  0  0  0  0  0  0  0  0  0  0  0
    0.7983   -7.7519    4.6740 C   0  0  2  0  0  0  0  0  0  0  0  0
    1.7278   -4.2221    4.4985 C   0  0  0  0  0  0  0  0  0  0  0  0
    0.5872   -0.0783   -0.2807 H   0  0  0  0  0  0  0  0  0  0  0  0
    0.1592   -1.5626   -0.9084 H   0  0  0  0  0  0  0  0  0  0  0  0
    1.8244   -1.1293   -0.3537 H   0  0  0  0  0  0  0  0  0  0  0  0
    1.3224   -1.9041    4.0005 H   0  0  0  0  0  0  0  0  0  0  0  0
   -0.0336   -0.9232    3.7721 H   0  0  0  0  0  0  0  0  0  0  0  0
    2.1918   -0.0609    4.9491 H   0  0  0  0  0  0  0  0  0  0  0  0
    0.9516    1.6109    3.0995 H   0  0  0  0  0  0  0  0  0  0  0  0
    3.7555    1.1669    3.2543 H   0  0  0  0  0  0  0  0  0  0  0  0
    5.3031   -0.6451    3.2313 H   0  0  0  0  0  0  0  0  0  0  0  0
    4.9221   -3.4495    5.4252 H   0  0  0  0  0  0  0  0  0  0  0  0
    4.8041   -3.8340    3.7251 H   0  0  0  0  0  0  0  0  0  0  0  0
    6.1060   -2.7571    4.2834 H   0  0  0  0  0  0  0  0  0  0  0  0
    3.8998    0.0004    1.0311 H   0  0  0  0  0  0  0  0  0  0  0  0
    2.6857    2.1890    1.2387 H   0  0  0  0  0  0  0  0  0  0  0  0
    0.3710    0.6484    1.6150 H   0  0  0  0  0  0  0  0  0  0  0  0
    2.4941    0.6000   -1.1746 H   0  0  0  0  0  0  0  0  0  0  0  0
    3.3399    2.3012   -1.7831 H   0  0  0  0  0  0  0  0  0  0  0  0
    0.5131    1.6624   -2.4632 H   0  0  0  0  0  0  0  0  0  0  0  0
   -0.2611    0.7151   -1.3530 H   0  0  0  0  0  0  0  0  0  0  0  0
   -0.2597    2.3511    0.2156 H   0  0  0  0  0  0  0  0  0  0  0  0
    0.1282   -4.8358    2.1890 H   0  0  0  0  0  0  0  0  0  0  0  0
    2.5969   -3.2642    2.7848 H   0  0  0  0  0  0  0  0  0  0  0  0
    3.8349   -5.2554    2.7621 H   0  0  0  0  0  0  0  0  0  0  0  0
    2.8616   -5.1851    1.3196 H   0  0  0  0  0  0  0  0  0  0  0  0
    2.8480   -7.3563    2.4792 H   0  0  0  0  0  0  0  0  0  0  0  0
    1.2300   -6.6999    2.2432 H   0  0  0  0  0  0  0  0  0  0  0  0
    3.1984   -6.9588    6.1273 H   0  0  0  0  0  0  0  0  0  0  0  0
    3.8631   -7.5604    4.6050 H   0  0  0  0  0  0  0  0  0  0  0  0
    3.8628   -5.8723    4.9271 H   0  0  0  0  0  0  0  0  0  0  0  0
    0.0636   -5.4680    4.3347 H   0  0  0  0  0  0  0  0  0  0  0  0
    1.6307   -5.5611    6.9517 H   0  0  0  0  0  0  0  0  0  0  0  0
    0.1487   -4.6454    6.6651 H   0  0  0  0  0  0  0  0  0  0  0  0
   -0.2747   -6.8520    7.7827 H   0  0  0  0  0  0  0  0  0  0  0  0
   -1.1489   -6.6470    6.2383 H   0  0  0  0  0  0  0  0  0  0  0  0
    1.3946   -8.0518    6.7228 H   0  0  0  0  0  0  0  0  0  0  0  0
   -1.3332   -9.0606    5.7134 H   0  0  0  0  0  0  0  0  0  0  0  0
   -0.1860   -9.5486    8.4609 H   0  0  0  0  0  0  0  0  0  0  0  0
   -1.8185   -9.0814    7.9816 H   0  0  0  0  0  0  0  0  0  0  0  0
   -0.9492  -11.7313    8.4096 H   0  0  0  0  0  0  0  0  0  0  0  0
   -2.3805  -11.3121    7.4483 H   0  0  0  0  0  0  0  0  0  0  0  0
   -1.3911  -11.7944    5.4772 H   0  0  0  0  0  0  0  0  0  0  0  0
   -0.0333  -13.6716    5.3579 H   0  0  0  0  0  0  0  0  0  0  0  0
    0.1550  -14.4464    8.1731 H   0  0  0  0  0  0  0  0  0  0  0  0
   -1.4815  -13.9445    7.8133 H   0  0  0  0  0  0  0  0  0  0  0  0
   -0.6538  -15.2113    6.8579 H   0  0  0  0  0  0  0  0  0  0  0  0
    1.3674  -12.1993    7.3632 H   0  0  0  0  0  0  0  0  0  0  0  0
    1.8178  -13.6312    7.6706 H   0  0  0  0  0  0  0  0  0  0  0  0
    3.4995  -12.8791    6.1143 H   0  0  0  0  0  0  0  0  0  0  0  0
    2.6785  -14.3366    5.6324 H   0  0  0  0  0  0  0  0  0  0  0  0
    3.0556  -13.3555    3.5854 H   0  0  0  0  0  0  0  0  0  0  0  0
    1.3689  -13.0094    3.9289 H   0  0  0  0  0  0  0  0  0  0  0  0
    2.0980  -10.9511    4.6430 H   0  0  0  0  0  0  0  0  0  0  0  0
    4.8120  -10.6587    3.7345 H   0  0  0  0  0  0  0  0  0  0  0  0
    3.8932   -9.6039    4.7594 H   0  0  0  0  0  0  0  0  0  0  0  0
    4.2849  -11.0898    5.3957 H   0  0  0  0  0  0  0  0  0  0  0  0
    1.2557  -11.7210    2.1638 H   0  0  0  0  0  0  0  0  0  0  0  0
    1.4242  -10.1297    2.1849 H   0  0  0  0  0  0  0  0  0  0  0  0
    2.7948  -10.9262    1.6195 H   0  0  0  0  0  0  0  0  0  0  0  0
    1.5762  -10.3550    7.8652 H   0  0  0  0  0  0  0  0  0  0  0  0
    2.4917  -11.0893    6.5995 H   0  0  0  0  0  0  0  0  0  0  0  0
    2.4022   -9.4819    6.5928 H   0  0  0  0  0  0  0  0  0  0  0  0
   -0.7174   -9.8962    3.9701 H   0  0  0  0  0  0  0  0  0  0  0  0
    0.3742  -11.1220    3.9124 H   0  0  0  0  0  0  0  0  0  0  0  0
    1.5087   -8.7702    3.0743 H   0  0  0  0  0  0  0  0  0  0  0  0
    2.2043   -9.1129    4.5737 H   0  0  0  0  0  0  0  0  0  0  0  0
   -0.1237   -7.5213    4.1223 H   0  0  0  0  0  0  0  0  0  0  0  0
    2.6519   -4.1697    5.0675 H   0  0  0  0  0  0  0  0  0  0  0  0
    1.0627   -3.4410    4.8648 H   0  0  0  0  0  0  0  0  0  0  0  0
  1  2  1  0  0  0  0
  1 50  1  0  0  0  0
  1 51  1  0  0  0  0
  1 52  1  0  0  0  0
  3  2  1  6  0  0  0
  3  4  1  0  0  0  0
  3 13  1  0  0  0  0
  3 20  1  0  0  0  0
  4 53  1  0  0  0  0
  4 54  1  0  0  0  0
  5  4  1  0  0  0  0
  5  6  1  0  0  0  0
  5 55  1  1  0  0  0
  6 56  1  0  0  0  0
  7  5  1  0  0  0  0
  7 12  1  0  0  0  0
  7 57  1  1  0  0  0
  7  8  1  0  0  0  0
  8  9  1  0  0  0  0
  8 58  1  0  0  0  0
  9 10  1  0  0  0  0
  9 11  2  0  0  0  0
 10 59  1  0  0  0  0
 10 60  1  0  0  0  0
 10 61  1  0  0  0  0
 12 13  1  0  0  0  0
 12 62  1  6  0  0  0
 12 14  1  0  0  0  0
 14 63  1  1  0  0  0
 14 16  1  0  0  0  0
 14 15  1  0  0  0  0
 15 64  1  0  0  0  0
 16 65  1  6  0  0  0
 16 18  1  0  0  0  0
 16 17  1  0  0  0  0
 17 66  1  0  0  0  0
 18 19  1  0  0  0  0
 18 67  1  0  0  0  0
 18 68  1  0  0  0  0
 19 69  1  0  0  0  0
 20 21  2  0  0  0  0
 20 22  1  0  0  0  0
 22 70  1  0  0  0  0
 23 22  1  0  0  0  0
 23 24  1  0  0  0  0
 23 49  1  0  0  0  0
 23 71  1  6  0  0  0
 24 25  1  0  0  0  0
 24 72  1  0  0  0  0
 24 73  1  0  0  0  0
 25 74  1  0  0  0  0
 25 75  1  0  0  0  0
 26 25  1  0  0  0  0
 26 27  1  1  0  0  0
 26 28  1  0  0  0  0
 26 48  1  0  0  0  0
 27 76  1  0  0  0  0
 27 77  1  0  0  0  0
 27 78  1  0  0  0  0
 28 29  1  0  0  0  0
 28 49  1  0  0  0  0
 28 79  1  6  0  0  0
 29 30  1  0  0  0  0
 29 80  1  0  0  0  0
 29 81  1  0  0  0  0
 30 82  1  0  0  0  0
 30 83  1  0  0  0  0
 31 30  1  0  0  0  0
 31 32  1  0  0  0  0
 31 84  1  1  0  0  0
 32 33  1  0  0  0  0
 32 44  1  0  0  0  0
 32 85  1  6  0  0  0
 33 34  1  0  0  0  0
 33 86  1  0  0  0  0
 33 87  1  0  0  0  0
 34 88  1  0  0  0  0
 34 89  1  0  0  0  0
 35 34  1  0  0  0  0
 35 90  1  6  0  0  0
 35 36  1  0  0  0  0
 36 91  1  6  0  0  0
 36 38  1  0  0  0  0
 36 37  1  0  0  0  0
 37 92  1  0  0  0  0
 37 93  1  0  0  0  0
 37 94  1  0  0  0  0
 38 39  1  0  0  0  0
 38 95  1  0  0  0  0
 38 96  1  0  0  0  0
 39 40  1  0  0  0  0
 39 97  1  0  0  0  0
 39 98  1  0  0  0  0
 40 41  1  0  0  0  0
 40 99  1  0  0  0  0
 40100  1  0  0  0  0
 41 42  1  0  0  0  0
 41 43  1  0  0  0  0
 41101  1  0  0  0  0
 42102  1  0  0  0  0
 42103  1  0  0  0  0
 42104  1  0  0  0  0
 43105  1  0  0  0  0
 43106  1  0  0  0  0
 43107  1  0  0  0  0
 44 35  1  0  0  0  0
 44 45  1  1  0  0  0
 44 46  1  0  0  0  0
 45108  1  0  0  0  0
 45109  1  0  0  0  0
 45110  1  0  0  0  0
 46 47  1  0  0  0  0
 46111  1  0  0  0  0
 46112  1  0  0  0  0
 47113  1  0  0  0  0
 47114  1  0  0  0  0
 48 47  1  0  0  0  0
 48 31  1  0  0  0  0
 48115  1  6  0  0  0
 49116  1  0  0  0  0
 49117  1  0  0  0  0
M  END
>  <DRUGBANK_ID>
DB14932

>  <COMMON_NAME>
Coleneuramide

>  <CAS_NUMBER>
204200-47-5

>  <UNII>
G2D52T65LR

>  <SYNONYMS>
Coleneuramide

$$$$
