421
 OpenBabel10282417163D

 47 49  0  0  0  0  0  0  0  0999 V2000
   -0.0138   -0.6950    0.0185 C   0  0  0  0  0  0  0  0  0  0  0  0
    1.2236   -1.3671    0.0052 C   0  0  0  0  0  0  0  0  0  0  0  0
    2.4355   -0.6664   -0.0242 C   0  0  0  0  0  0  0  0  0  0  0  0
    2.4404    0.7280   -0.0137 C   0  0  0  0  0  0  0  0  0  0  0  0
    1.2126    1.4036    0.0331 C   0  0  0  0  0  0  0  0  0  0  0  0
   -0.0387    0.7298    0.0319 C   0  0  0  0  0  0  0  0  0  0  0  0
   -1.3043    1.3923    0.0314 C   0  0  0  0  0  0  0  0  0  0  0  0
   -2.4714    0.6185   -0.0005 C   0  0  0  0  0  0  0  0  0  0  0  0
   -2.4535   -0.7772   -0.0078 C   0  0  0  0  0  0  0  0  0  0  0  0
   -1.2209   -1.4291    0.0120 C   0  0  0  0  0  0  0  0  0  0  0  0
    3.7414    1.4821   -0.0668 C   0  0  0  0  0  0  0  0  0  0  0  0
    3.7785    2.8443   -0.0759 N   0  0  0  0  0  0  0  0  0  0  0  0
    4.8501    0.8169   -0.1155 N   0  0  0  0  0  0  0  0  0  0  0  0
   -1.3905    2.8203    0.0485 N   0  0  0  0  0  0  0  0  0  0  0  0
   -2.5552    3.5748   -0.0311 C   0  0  0  0  0  0  0  0  0  0  0  0
   -2.4157    5.0527   -0.0887 C   0  0  0  0  0  0  0  0  0  0  0  0
   -3.7064    3.1554   -0.0458 O   0  0  0  0  0  0  0  0  0  0  0  0
   -3.3159    5.7758    0.7215 C   0  0  0  0  0  0  0  0  0  0  0  0
   -3.3479    7.1667    0.6886 C   0  0  0  0  0  0  0  0  0  0  0  0
   -2.4782    7.8463   -0.1543 C   0  0  0  0  0  0  0  0  0  0  0  0
   -1.5978    7.1341   -0.9710 C   0  0  0  0  0  0  0  0  0  0  0  0
   -1.5559    5.7278   -0.9756 C   0  0  0  0  0  0  0  0  0  0  0  0
   -0.6557    5.0147   -1.9414 C   0  0  0  0  0  0  0  0  0  0  0  0
   -0.7918    7.8969   -1.7716 O   0  0  0  0  0  0  0  0  0  0  0  0
   -3.7799   -1.4677   -0.0394 C   0  0  0  0  0  0  0  0  0  0  0  0
   -4.8464   -0.8652   -0.0653 O   0  0  0  0  0  0  0  0  0  0  0  0
   -3.6568   -2.8180   -0.0377 O   0  0  0  0  0  0  0  0  0  0  0  0
   -4.9153   -3.5071   -0.0679 C   0  0  0  0  0  0  0  0  0  0  0  0
    1.2600   -2.4562    0.0070 H   0  0  0  0  0  0  0  0  0  0  0  0
    3.3739   -1.2186   -0.0572 H   0  0  0  0  0  0  0  0  0  0  0  0
    1.2282    2.4816    0.0676 H   0  0  0  0  0  0  0  0  0  0  0  0
   -3.4492    1.0841   -0.0155 H   0  0  0  0  0  0  0  0  0  0  0  0
   -1.1968   -2.5170    0.0149 H   0  0  0  0  0  0  0  0  0  0  0  0
    4.6557    3.3458   -0.0880 H   0  0  0  0  0  0  0  0  0  0  0  0
    2.9546    3.4202   -0.0071 H   0  0  0  0  0  0  0  0  0  0  0  0
    5.6467    1.4546   -0.1541 H   0  0  0  0  0  0  0  0  0  0  0  0
   -0.5259    3.3369    0.0917 H   0  0  0  0  0  0  0  0  0  0  0  0
   -4.0182    5.2447    1.3648 H   0  0  0  0  0  0  0  0  0  0  0  0
   -4.0546    7.7138    1.3077 H   0  0  0  0  0  0  0  0  0  0  0  0
   -2.4949    8.9330   -0.1893 H   0  0  0  0  0  0  0  0  0  0  0  0
   -0.8640    5.3401   -2.9649 H   0  0  0  0  0  0  0  0  0  0  0  0
    0.3866    5.2273   -1.6836 H   0  0  0  0  0  0  0  0  0  0  0  0
   -0.7816    3.9335   -1.9559 H   0  0  0  0  0  0  0  0  0  0  0  0
   -0.2383    7.3292   -2.3284 H   0  0  0  0  0  0  0  0  0  0  0  0
   -5.5150   -3.2660    0.8171 H   0  0  0  0  0  0  0  0  0  0  0  0
   -5.4714   -3.2671   -0.9813 H   0  0  0  0  0  0  0  0  0  0  0  0
   -4.7167   -4.5824   -0.0625 H   0  0  0  0  0  0  0  0  0  0  0  0
  1  2  2  0  0  0  0
  1  6  1  0  0  0  0
  1 10  1  0  0  0  0
  2  3  1  0  0  0  0
  2 29  1  0  0  0  0
  3  4  2  0  0  0  0
  3 30  1  0  0  0  0
  4  5  1  0  0  0  0
  4 11  1  0  0  0  0
  5  6  2  0  0  0  0
  5 31  1  0  0  0  0
  6  7  1  0  0  0  0
  7  8  2  0  0  0  0
  7 14  1  0  0  0  0
  8  9  1  0  0  0  0
  8 32  1  0  0  0  0
  9 10  2  0  0  0  0
  9 25  1  0  0  0  0
 10 33  1  0  0  0  0
 11 12  1  0  0  0  0
 11 13  2  0  0  0  0
 12 34  1  0  0  0  0
 12 35  1  0  0  0  0
 13 36  1  0  0  0  0
 14 15  1  0  0  0  0
 14 37  1  0  0  0  0
 15 16  1  0  0  0  0
 15 17  2  0  0  0  0
 16 18  2  0  0  0  0
 16 22  1  0  0  0  0
 18 19  1  0  0  0  0
 18 38  1  0  0  0  0
 19 20  2  0  0  0  0
 19 39  1  0  0  0  0
 20 21  1  0  0  0  0
 20 40  1  0  0  0  0
 21 22  2  0  0  0  0
 21 24  1  0  0  0  0
 22 23  1  0  0  0  0
 23 41  1  0  0  0  0
 23 42  1  0  0  0  0
 23 43  1  0  0  0  0
 24 44  1  0  0  0  0
 25 26  2  0  0  0  0
 25 27  1  0  0  0  0
 27 28  1  0  0  0  0
 28 45  1  0  0  0  0
 28 46  1  0  0  0  0
 28 47  1  0  0  0  0
M  END
>  <DRUGBANK_ID>
DB07074

>  <COMMON_NAME>
6-CARBAMIMIDOYL-4-(3-HYDROXY-2-METHYL-BENZOYLAMINO)-NAPHTHALENE-2-CARBOXYLIC ACID METHYL ESTER

$$$$
