
 OpenBabel10282417233D

 31 32  0  0  1  0  0  0  0  0999 V2000
    0.5854    0.6926    0.3787 C   0  0  1  0  0  0  0  0  0  0  0  0
   -0.6848    0.4749   -0.4136 C   0  0  1  0  0  0  0  0  0  0  0  0
   -0.5449   -0.9695   -0.9177 C   0  0  1  0  0  0  0  0  0  0  0  0
    0.3548   -1.6552   -0.0046 O   0  0  0  0  0  0  0  0  0  0  0  0
    0.8850   -0.7137    0.9558 C   0  0  2  0  0  0  0  0  0  0  0  0
    0.1370   -0.8957    2.3153 C   0  0  0  0  0  0  0  0  0  0  0  0
    0.3017   -2.2124    2.8525 O   0  0  0  0  0  0  0  0  0  0  0  0
    2.3420   -0.8369    1.1767 N   0  0  0  0  0  0  0  0  0  0  0  0
    2.7531   -1.9212    1.6186 N   0  3  0  0  0  0  0  0  0  0  0  0
    3.1454   -2.9212    2.0207 N   0  5  0  0  0  0  0  0  0  0  0  0
    1.6033    1.1876   -0.5039 O   0  0  0  0  0  0  0  0  0  0  0  0
   -1.7464    0.5896    0.4314 F   0  0  0  0  0  0  0  0  0  0  0  0
   -1.8108   -1.7011   -1.0433 N   0  0  0  0  0  0  0  0  0  0  0  0
   -2.8026   -1.1499   -1.8686 C   0  0  0  0  0  0  0  0  0  0  0  0
   -4.0383   -1.7614   -1.9093 N   0  0  0  0  0  0  0  0  0  0  0  0
   -4.3271   -2.6768   -1.0374 C   0  0  0  0  0  0  0  0  0  0  0  0
   -3.3654   -3.1431   -0.0231 C   0  0  0  0  0  0  0  0  0  0  0  0
   -2.1103   -2.7396   -0.1930 C   0  0  0  0  0  0  0  0  0  0  0  0
   -2.5636   -0.1479   -2.5411 O   0  0  0  0  0  0  0  0  0  0  0  0
   -5.5577   -3.2662   -1.0757 N   0  0  0  0  0  0  0  0  0  0  0  0
    0.4539    1.4399    1.1693 H   0  0  0  0  0  0  0  0  0  0  0  0
   -0.8094    1.1936   -1.2299 H   0  0  0  0  0  0  0  0  0  0  0  0
   -0.0483   -0.9715   -1.8966 H   0  0  0  0  0  0  0  0  0  0  0  0
    0.5217   -0.1913    3.0617 H   0  0  0  0  0  0  0  0  0  0  0  0
   -0.9396   -0.7435    2.2141 H   0  0  0  0  0  0  0  0  0  0  0  0
    0.1072   -2.8452    2.1393 H   0  0  0  0  0  0  0  0  0  0  0  0
    1.9033    0.4600   -1.0762 H   0  0  0  0  0  0  0  0  0  0  0  0
   -3.6732   -3.8273    0.7517 H   0  0  0  0  0  0  0  0  0  0  0  0
   -1.3088   -3.1731    0.3899 H   0  0  0  0  0  0  0  0  0  0  0  0
   -5.7801   -4.0765   -0.5128 H   0  0  0  0  0  0  0  0  0  0  0  0
   -6.1425   -3.0907   -1.8841 H   0  0  0  0  0  0  0  0  0  0  0  0
  1 11  1  0  0  0  0
  1  2  1  0  0  0  0
  1 21  1  1  0  0  0
  2 12  1  0  0  0  0
  2  3  1  0  0  0  0
  2 22  1  6  0  0  0
  3 13  1  0  0  0  0
  3  4  1  0  0  0  0
  3 23  1  6  0  0  0
  4  5  1  0  0  0  0
  5  1  1  0  0  0  0
  5  6  1  0  0  0  0
  5  8  1  1  0  0  0
  6  7  1  0  0  0  0
  6 24  1  0  0  0  0
  6 25  1  0  0  0  0
  7 26  1  0  0  0  0
  8  9  2  0  0  0  0
  9 10  2  0  0  0  0
 11 27  1  0  0  0  0
 13 14  1  0  0  0  0
 13 18  1  0  0  0  0
 14 15  1  0  0  0  0
 14 19  2  0  0  0  0
 15 16  2  0  0  0  0
 16 17  1  0  0  0  0
 16 20  1  0  0  0  0
 17 18  2  0  0  0  0
 17 28  1  0  0  0  0
 18 29  1  0  0  0  0
 20 30  1  0  0  0  0
 20 31  1  0  0  0  0
M  CHG  2   9   1  10  -1
M  END
>  <DRUGBANK_ID>
DB16407

>  <COMMON_NAME>
Azvudine

>  <CAS_NUMBER>
1011529-10-4

>  <UNII>
IJ2XP0ID0K

>  <SYNONYMS>
Azvudine

$$$$
