
 OpenBabel10282417153D

 17 17  0  0  0  0  0  0  0  0999 V2000
   -0.1133   -1.0717    0.0329 C   0  0  0  0  0  0  0  0  0  0  0  0
   -1.1274   -0.1238   -0.0011 C   0  0  0  0  0  0  0  0  0  0  0  0
   -0.2067   -2.5727    0.0313 C   0  0  0  0  0  0  0  0  0  0  0  0
    1.4038   -0.2686    0.1659 S   0  0  0  0  0  0  0  0  0  0  0  0
   -0.6950    1.1962   -0.0193 N   0  0  0  0  0  0  0  0  0  0  0  0
   -2.5947   -0.3627   -0.0199 C   0  0  0  0  0  0  0  0  0  0  0  0
    0.3254   -3.2445   -1.2343 C   0  0  0  0  0  0  0  0  0  0  0  0
    0.6129    1.2377    0.0366 C   0  0  0  0  0  0  0  0  0  0  0  0
    2.1005   -3.2154   -1.3758 Cl  0  0  0  0  0  0  0  0  0  0  0  0
    0.2605   -2.9866    0.9321 H   0  0  0  0  0  0  0  0  0  0  0  0
   -1.2651   -2.8528    0.1020 H   0  0  0  0  0  0  0  0  0  0  0  0
   -3.0589    0.0909    0.8614 H   0  0  0  0  0  0  0  0  0  0  0  0
   -3.0371    0.0782   -0.9176 H   0  0  0  0  0  0  0  0  0  0  0  0
   -2.8436   -1.4263   -0.0131 H   0  0  0  0  0  0  0  0  0  0  0  0
    0.0502   -4.3032   -1.2234 H   0  0  0  0  0  0  0  0  0  0  0  0
   -0.0963   -2.7914   -2.1369 H   0  0  0  0  0  0  0  0  0  0  0  0
    1.1693    2.1676    0.0161 H   0  0  0  0  0  0  0  0  0  0  0  0
  1  2  2  0  0  0  0
  1  3  1  0  0  0  0
  1  4  1  0  0  0  0
  2  5  1  0  0  0  0
  2  6  1  0  0  0  0
  3  7  1  0  0  0  0
  3 10  1  0  0  0  0
  3 11  1  0  0  0  0
  4  8  1  0  0  0  0
  5  8  2  0  0  0  0
  6 12  1  0  0  0  0
  6 13  1  0  0  0  0
  6 14  1  0  0  0  0
  7  9  1  0  0  0  0
  7 15  1  0  0  0  0
  7 16  1  0  0  0  0
  8 17  1  0  0  0  0
M  END
>  <DRUGBANK_ID>
DB06470

>  <COMMON_NAME>
Clomethiazole

>  <CAS_NUMBER>
533-45-9

>  <UNII>
0C5DBZ19HV

>  <SYNONYMS>
Clomethiazole; Clomethiazolum; Clometiazol

$$$$
