AJB
 OpenBabel10282417163D

 37 39  0  0  0  0  0  0  0  0999 V2000
    0.2563    1.1658    0.0254 C   0  0  0  0  0  0  0  0  0  0  0  0
   -1.1863   -1.2097    0.0122 C   0  0  0  0  0  0  0  0  0  0  0  0
    2.4372   -6.9022    0.3882 C   0  0  0  0  0  0  0  0  0  0  0  0
   -4.6096    3.7398   -0.5086 C   0  0  0  0  0  0  0  0  0  0  0  0
    1.4442   -7.1118   -0.5495 C   0  0  0  0  0  0  0  0  0  0  0  0
    0.9527   -0.0487    0.0285 C   0  0  0  0  0  0  0  0  0  0  0  0
   -4.1794    1.6668    0.0285 C   0  0  0  0  0  0  0  0  0  0  0  0
    1.2684   -8.3519   -1.3557 C   0  0  0  0  0  0  0  0  0  0  0  0
   -3.3554    2.4632   -2.2323 C   0  0  0  0  0  0  0  0  0  0  0  0
   -1.1340    1.2045    0.0713 C   0  0  0  0  0  0  0  0  0  0  0  0
   -1.8806    0.0292    0.0281 C   0  0  0  0  0  0  0  0  0  0  0  0
    0.2285   -1.2734    0.0190 C   0  0  0  0  0  0  0  0  0  0  0  0
    0.9782   -5.0102   -0.0025 C   0  0  0  0  0  0  0  0  0  0  0  0
    1.0049   -2.5876    0.0518 C   0  0  0  0  0  0  0  0  0  0  0  0
    2.3385    0.0221   -0.1222 N   0  0  0  0  0  0  0  0  0  0  0  0
   -5.1827    3.5053    0.6480 N   0  0  0  0  0  0  0  0  0  0  0  0
    0.5556   -6.0439   -0.6995 N   0  0  0  0  0  0  0  0  0  0  0  0
   -4.9230    2.1915    0.9804 N   0  0  0  0  0  0  0  0  0  0  0  0
    0.3145   -3.7929    0.0666 N   0  0  0  0  0  0  0  0  0  0  0  0
   -4.0047    2.6009   -0.9581 N   0  0  0  0  0  0  0  0  0  0  0  0
    2.2422   -2.5301    0.0256 O   0  0  0  0  0  0  0  0  0  0  0  0
    2.3310   -5.3109    1.0069 S   0  0  0  0  0  0  0  0  0  0  0  0
   -3.6772    0.0055   -0.0438 S   0  0  0  0  0  0  0  0  0  0  0  0
    0.8017    2.1074   -0.0006 H   0  0  0  0  0  0  0  0  0  0  0  0
   -1.7757   -2.1215    0.0000 H   0  0  0  0  0  0  0  0  0  0  0  0
    3.2072   -7.5878    0.7145 H   0  0  0  0  0  0  0  0  0  0  0  0
   -4.6142    4.6805   -1.0438 H   0  0  0  0  0  0  0  0  0  0  0  0
    0.2746   -8.7796   -1.1997 H   0  0  0  0  0  0  0  0  0  0  0  0
    1.3992   -8.1402   -2.4219 H   0  0  0  0  0  0  0  0  0  0  0  0
    2.0089   -9.1130   -1.0797 H   0  0  0  0  0  0  0  0  0  0  0  0
   -2.3277    2.1319   -2.0901 H   0  0  0  0  0  0  0  0  0  0  0  0
   -3.9118    1.7393   -2.8292 H   0  0  0  0  0  0  0  0  0  0  0  0
   -3.3358    3.4324   -2.7378 H   0  0  0  0  0  0  0  0  0  0  0  0
   -1.5973    2.1839    0.1242 H   0  0  0  0  0  0  0  0  0  0  0  0
    2.8447   -0.8583    0.0265 H   0  0  0  0  0  0  0  0  0  0  0  0
    2.8441    0.8775    0.0618 H   0  0  0  0  0  0  0  0  0  0  0  0
   -0.6427   -3.8393   -0.2434 H   0  0  0  0  0  0  0  0  0  0  0  0
  1  6  2  0  0  0  0
  1 10  1  0  0  0  0
  1 24  1  0  0  0  0
  2 11  1  0  0  0  0
  2 12  2  0  0  0  0
  2 25  1  0  0  0  0
  3  5  2  0  0  0  0
  3 22  1  0  0  0  0
  3 26  1  0  0  0  0
  4 16  2  0  0  0  0
  4 20  1  0  0  0  0
  4 27  1  0  0  0  0
  5  8  1  0  0  0  0
  5 17  1  0  0  0  0
  6 12  1  0  0  0  0
  6 15  1  0  0  0  0
  7 18  2  0  0  0  0
  7 20  1  0  0  0  0
  7 23  1  0  0  0  0
  8 28  1  0  0  0  0
  8 29  1  0  0  0  0
  8 30  1  0  0  0  0
  9 20  1  0  0  0  0
  9 31  1  0  0  0  0
  9 32  1  0  0  0  0
  9 33  1  0  0  0  0
 10 11  2  0  0  0  0
 10 34  1  0  0  0  0
 11 23  1  0  0  0  0
 12 14  1  0  0  0  0
 13 17  2  0  0  0  0
 13 19  1  0  0  0  0
 13 22  1  0  0  0  0
 14 19  1  0  0  0  0
 14 21  2  0  0  0  0
 15 35  1  0  0  0  0
 15 36  1  0  0  0  0
 16 18  1  0  0  0  0
 19 37  1  0  0  0  0
M  END
>  <DRUGBANK_ID>
DB07358

>  <COMMON_NAME>
2-amino-N-(4-methyl-1,3-thiazol-2-yl)-5-[(4-methyl-4H-1,2,4-triazol-3-yl)sulfanyl]benzamide

$$$$
