
 OpenBabel10282417203D

 40 39  0  0  1  0  0  0  0  0999 V2000
    2.0054    1.8436   -1.0231 C   0  0  0  0  0  0  0  0  0  0  0  0
    3.4676    1.8854   -1.4145 C   0  0  0  0  0  0  0  0  0  0  0  0
    4.6012    2.1236   -0.0596 S   0  0  0  0  0  0  0  0  0  0  0  0
    4.3954    1.1740    1.0099 O   0  0  0  0  0  0  0  0  0  0  0  0
    5.9205    2.3799   -0.5846 O   0  0  0  0  0  0  0  0  0  0  0  0
    4.0362    3.5363    0.4841 O   0  0  0  0  0  0  0  0  0  0  0  0
    1.6189    0.7166   -0.0622 C   0  0  1  0  0  0  0  0  0  0  0  0
    0.1350    0.7456    0.3440 C   0  0  0  0  0  0  0  0  0  0  0  0
   -1.0899    0.4484   -0.9824 S   0  0  0  0  0  0  0  0  0  0  0  0
   -1.0527    2.1866   -2.0833 S   0  0  0  0  0  0  0  0  0  0  0  0
   -1.6807    1.6815   -3.7028 C   0  0  0  0  0  0  0  0  0  0  0  0
   -1.1733    0.3744   -4.3300 C   0  0  2  0  0  0  0  0  0  0  0  0
    0.3446    0.3451   -4.5886 C   0  0  0  0  0  0  0  0  0  0  0  0
    0.8063   -0.5298   -5.7716 C   0  0  0  0  0  0  0  0  0  0  0  0
    0.5336    0.1216   -7.4623 S   0  0  0  0  0  0  0  0  0  0  0  0
    0.6772    1.5684   -7.4398 O   0  0  0  0  0  0  0  0  0  0  0  0
    1.2482   -0.6922   -8.4096 O   0  0  0  0  0  0  0  0  0  0  0  0
   -1.0226   -0.1447   -7.7947 O   0  0  0  0  0  0  0  0  0  0  0  0
   -1.8733    0.2559   -5.5868 N   0  0  0  0  0  0  0  0  0  0  0  0
    2.0250   -0.5663   -0.6485 N   0  0  0  0  0  0  0  0  0  0  0  0
    1.4897    1.6999   -1.9734 H   0  0  0  0  0  0  0  0  0  0  0  0
    1.6843    2.8099   -0.6137 H   0  0  0  0  0  0  0  0  0  0  0  0
    3.7546    0.9624   -1.9259 H   0  0  0  0  0  0  0  0  0  0  0  0
    3.6226    2.7046   -2.1275 H   0  0  0  0  0  0  0  0  0  0  0  0
    4.5512    3.7750    1.2843 H   0  0  0  0  0  0  0  0  0  0  0  0
    2.1591    0.8468    0.8775 H   0  0  0  0  0  0  0  0  0  0  0  0
   -0.0238   -0.0385    1.0946 H   0  0  0  0  0  0  0  0  0  0  0  0
   -0.1012    1.6946    0.8381 H   0  0  0  0  0  0  0  0  0  0  0  0
   -2.7689    1.6284   -3.5918 H   0  0  0  0  0  0  0  0  0  0  0  0
   -1.4872    2.5059   -4.4047 H   0  0  0  0  0  0  0  0  0  0  0  0
   -1.4558   -0.4977   -3.7304 H   0  0  0  0  0  0  0  0  0  0  0  0
    0.7515    1.3574   -4.6958 H   0  0  0  0  0  0  0  0  0  0  0  0
    0.8162   -0.0611   -3.6787 H   0  0  0  0  0  0  0  0  0  0  0  0
    1.9050   -0.5670   -5.7083 H   0  0  0  0  0  0  0  0  0  0  0  0
    0.4520   -1.5607   -5.7002 H   0  0  0  0  0  0  0  0  0  0  0  0
   -1.4178    0.6359   -8.2374 H   0  0  0  0  0  0  0  0  0  0  0  0
   -2.8849    0.2247   -5.5216 H   0  0  0  0  0  0  0  0  0  0  0  0
   -1.6280    1.0384   -6.1921 H   0  0  0  0  0  0  0  0  0  0  0  0
    1.8903   -1.3100    0.0380 H   0  0  0  0  0  0  0  0  0  0  0  0
    1.4011   -0.7912   -1.4235 H   0  0  0  0  0  0  0  0  0  0  0  0
  1  2  1  0  0  0  0
  1  7  1  0  0  0  0
  1 21  1  0  0  0  0
  1 22  1  0  0  0  0
  2  3  1  0  0  0  0
  2 23  1  0  0  0  0
  2 24  1  0  0  0  0
  3  4  2  0  0  0  0
  3  5  2  0  0  0  0
  3  6  1  0  0  0  0
  6 25  1  0  0  0  0
  7  8  1  0  0  0  0
  7 20  1  0  0  0  0
  7 26  1  1  0  0  0
  8  9  1  0  0  0  0
  8 27  1  0  0  0  0
  8 28  1  0  0  0  0
  9 10  1  0  0  0  0
 10 11  1  0  0  0  0
 11 29  1  0  0  0  0
 11 30  1  0  0  0  0
 12 19  1  0  0  0  0
 12 31  1  1  0  0  0
 12 13  1  0  0  0  0
 12 11  1  0  0  0  0
 13 14  1  0  0  0  0
 13 32  1  0  0  0  0
 13 33  1  0  0  0  0
 14 15  1  0  0  0  0
 14 34  1  0  0  0  0
 14 35  1  0  0  0  0
 15 16  2  0  0  0  0
 15 17  2  0  0  0  0
 15 18  1  0  0  0  0
 18 36  1  0  0  0  0
 19 37  1  0  0  0  0
 19 38  1  0  0  0  0
 20 39  1  0  0  0  0
 20 40  1  0  0  0  0
M  END
>  <DRUGBANK_ID>
DB13107

>  <COMMON_NAME>
QGC-001

>  <CAS_NUMBER>
648927-86-0

>  <UNII>
638KY4573I

$$$$
