
 OpenBabel10282417133D

 34 36  0  0  1  0  0  0  0  0999 V2000
    2.8097    3.2988   -0.0222 C   0  0  0  0  0  0  0  0  0  0  0  0
    1.3082    3.2342    0.1328 C   0  0  0  0  0  0  0  0  0  0  0  0
    0.4094    4.1118   -0.3603 C   0  0  0  0  0  0  0  0  0  0  0  0
   -0.9762    4.0938   -0.0766 N   0  0  0  0  0  0  0  0  0  0  0  0
   -1.4999    3.0214    0.6683 C   0  0  0  0  0  0  0  0  0  0  0  0
   -2.6665    2.9051    1.0073 O   0  0  0  0  0  0  0  0  0  0  0  0
   -0.5769    2.0421    1.0232 N   0  0  0  0  0  0  0  0  0  0  0  0
    0.7915    2.1061    0.9455 C   0  0  0  0  0  0  0  0  0  0  0  0
    1.5182    1.3002    1.4873 O   0  0  0  0  0  0  0  0  0  0  0  0
   -1.8370    5.1682   -0.7321 C   0  0  1  0  0  0  0  0  0  0  0  0
   -1.8644    5.0080   -2.2789 C   0  0  0  0  0  0  0  0  0  0  0  0
   -3.3841    5.1841   -2.6377 C   0  0  2  0  0  0  0  0  0  0  0  0
   -3.6987    5.2782   -4.0052 O   0  0  0  0  0  0  0  0  0  0  0  0
   -3.5730    6.5065   -1.8848 C   0  0  1  0  0  0  0  0  0  0  0  0
   -4.4481    7.7195   -2.2535 C   0  0  0  0  0  0  0  0  0  0  0  0
   -5.7742    7.7765   -1.7874 O   0  0  0  0  0  0  0  0  0  0  0  0
   -3.1402    6.0436   -0.4752 C   0  0  2  0  0  0  0  0  0  0  0  0
   -1.8735    6.4622    0.1329 C   0  0  0  0  0  0  0  0  0  0  0  0
    3.1543    2.7795   -0.9235 H   0  0  0  0  0  0  0  0  0  0  0  0
    3.3380    2.8420    0.8275 H   0  0  0  0  0  0  0  0  0  0  0  0
    3.1576    4.3360   -0.0604 H   0  0  0  0  0  0  0  0  0  0  0  0
    0.7509    4.8987   -1.0256 H   0  0  0  0  0  0  0  0  0  0  0  0
   -0.9241    1.2557    1.5501 H   0  0  0  0  0  0  0  0  0  0  0  0
   -1.2375    5.7792   -2.7569 H   0  0  0  0  0  0  0  0  0  0  0  0
   -1.4664    4.0429   -2.5930 H   0  0  0  0  0  0  0  0  0  0  0  0
   -3.9071    4.3151   -2.2034 H   0  0  0  0  0  0  0  0  0  0  0  0
   -4.5656    5.7216   -4.0617 H   0  0  0  0  0  0  0  0  0  0  0  0
   -2.7014    7.0371   -2.2858 H   0  0  0  0  0  0  0  0  0  0  0  0
   -3.9413    8.6176   -1.8660 H   0  0  0  0  0  0  0  0  0  0  0  0
   -4.4537    7.8825   -3.3469 H   0  0  0  0  0  0  0  0  0  0  0  0
   -6.3323    7.2234   -2.3551 H   0  0  0  0  0  0  0  0  0  0  0  0
   -3.9548    6.0392    0.2364 H   0  0  0  0  0  0  0  0  0  0  0  0
   -1.7030    7.5117   -0.0513 H   0  0  0  0  0  0  0  0  0  0  0  0
   -1.7100    6.2378    1.1914 H   0  0  0  0  0  0  0  0  0  0  0  0
  1  2  1  0  0  0  0
  1 19  1  0  0  0  0
  1 20  1  0  0  0  0
  1 21  1  0  0  0  0
  2  3  2  0  0  0  0
  2  8  1  0  0  0  0
  3  4  1  0  0  0  0
  3 22  1  0  0  0  0
  4  5  1  0  0  0  0
  5  6  2  0  0  0  0
  5  7  1  0  0  0  0
  7  8  1  0  0  0  0
  7 23  1  0  0  0  0
  8  9  2  0  0  0  0
 10 11  1  0  0  0  0
 10 17  1  0  0  0  0
 10 18  1  0  0  0  0
 10  4  1  1  0  0  0
 11 12  1  0  0  0  0
 11 24  1  0  0  0  0
 11 25  1  0  0  0  0
 12 14  1  0  0  0  0
 12 13  1  0  0  0  0
 12 26  1  1  0  0  0
 13 27  1  0  0  0  0
 14 17  1  0  0  0  0
 14 15  1  0  0  0  0
 14 28  1  6  0  0  0
 15 16  1  0  0  0  0
 15 29  1  0  0  0  0
 15 30  1  0  0  0  0
 16 31  1  0  0  0  0
 17 18  1  0  0  0  0
 17 32  1  1  0  0  0
 18 33  1  0  0  0  0
 18 34  1  0  0  0  0
M  END
>  <DRUGBANK_ID>
DB02921

>  <SECONDARY_ACCESSION_NUMBERS>
EXPT02872

>  <COMMON_NAME>
(South)-Methanocarba-Thymidine

>  <SYNONYMS>
(South)-methanocarbathymidine

$$$$
