816
 OpenBabel10282417113D

 32 32  0  0  1  0  0  0  0  0999 V2000
    0.8911    0.0489   -0.1194 O   0  0  0  0  0  0  0  0  0  0  0  0
    0.0214    5.9420    1.0412 O   0  0  0  0  0  0  0  0  0  0  0  0
    3.5313    4.1514   -1.5564 O   0  0  0  0  0  0  0  0  0  0  0  0
    2.4615    0.6035    2.2973 N   0  0  0  0  0  0  0  0  0  0  0  0
    0.4849    1.0526    0.8168 C   0  0  3  0  0  0  0  0  0  0  0  0
    0.9893    0.6789    2.2271 C   0  0  0  0  0  0  0  0  0  0  0  0
    2.9434    0.2835    3.6439 C   0  0  0  0  0  0  0  0  0  0  0  0
    0.9389    2.4358    0.4057 C   0  0  0  0  0  0  0  0  0  0  0  0
    2.4788   -1.1063    4.0800 C   0  0  0  0  0  0  0  0  0  0  0  0
    4.4721    0.3306    3.6173 C   0  0  0  0  0  0  0  0  0  0  0  0
    2.0620    2.6428   -0.4126 C   0  0  0  0  0  0  0  0  0  0  0  0
    0.2522    3.5560    0.9081 C   0  0  0  0  0  0  0  0  0  0  0  0
    0.6670    4.8377    0.5664 C   0  0  0  0  0  0  0  0  0  0  0  0
    2.4536    3.9318   -0.7491 C   0  0  0  0  0  0  0  0  0  0  0  0
    1.7586    5.0355   -0.2709 C   0  0  0  0  0  0  0  0  0  0  0  0
    1.8587    0.0117   -0.0724 H   0  0  0  0  0  0  0  0  0  0  0  0
   -0.6994    5.6558    1.6253 H   0  0  0  0  0  0  0  0  0  0  0  0
    3.9038    3.2917   -1.8139 H   0  0  0  0  0  0  0  0  0  0  0  0
    2.8044   -0.1051    1.6544 H   0  0  0  0  0  0  0  0  0  0  0  0
   -0.6114    1.0271    0.8179 H   0  0  0  0  0  0  0  0  0  0  0  0
    0.6175    1.4043    2.9613 H   0  0  0  0  0  0  0  0  0  0  0  0
    0.5593   -0.2995    2.4614 H   0  0  0  0  0  0  0  0  0  0  0  0
    2.5889    1.0388    4.3560 H   0  0  0  0  0  0  0  0  0  0  0  0
    2.7939   -1.8680    3.3574 H   0  0  0  0  0  0  0  0  0  0  0  0
    2.8919   -1.3665    5.0577 H   0  0  0  0  0  0  0  0  0  0  0  0
    1.3897   -1.1609    4.1724 H   0  0  0  0  0  0  0  0  0  0  0  0
    4.8356    1.3247    3.3336 H   0  0  0  0  0  0  0  0  0  0  0  0
    4.8808    0.0947    4.6054 H   0  0  0  0  0  0  0  0  0  0  0  0
    4.8828   -0.3940    2.9041 H   0  0  0  0  0  0  0  0  0  0  0  0
    2.6378    1.7984   -0.7768 H   0  0  0  0  0  0  0  0  0  0  0  0
   -0.5969    3.4106    1.5718 H   0  0  0  0  0  0  0  0  0  0  0  0
    2.0685    6.0363   -0.5427 H   0  0  0  0  0  0  0  0  0  0  0  0
  1  5  1  0  0  0  0
  1 16  1  0  0  0  0
  2 13  1  0  0  0  0
  2 17  1  0  0  0  0
  3 14  1  0  0  0  0
  3 18  1  0  0  0  0
  4  6  1  0  0  0  0
  4  7  1  0  0  0  0
  4 19  1  0  0  0  0
  5  6  1  0  0  0  0
  5  8  1  0  0  0  0
  5 20  1  0  0  0  0
  6 21  1  0  0  0  0
  6 22  1  0  0  0  0
  7  9  1  0  0  0  0
  7 10  1  0  0  0  0
  7 23  1  0  0  0  0
  8 11  2  0  0  0  0
  8 12  1  0  0  0  0
  9 24  1  0  0  0  0
  9 25  1  0  0  0  0
  9 26  1  0  0  0  0
 10 27  1  0  0  0  0
 10 28  1  0  0  0  0
 10 29  1  0  0  0  0
 11 14  1  0  0  0  0
 11 30  1  0  0  0  0
 12 13  2  0  0  0  0
 12 31  1  0  0  0  0
 13 15  1  0  0  0  0
 14 15  2  0  0  0  0
 15 32  1  0  0  0  0
M  END
>  <DRUGBANK_ID>
DB00816

>  <SECONDARY_ACCESSION_NUMBERS>
APRD00210

>  <COMMON_NAME>
Orciprenaline

>  <CAS_NUMBER>
586-06-1

>  <UNII>
53QOG569E0

>  <SYNONYMS>
Metaproterenol; Orciprenalina; Orciprenaline; Orciprenalinum

$$$$
