
 OpenBabel10282417213D

 49 52  0  0  0  0  0  0  0  0999 V2000
    2.2458   -0.0955    0.1397 N   0  0  0  0  0  0  0  0  0  0  0  0
    0.8700   -0.0570    0.0181 C   0  0  0  0  0  0  0  0  0  0  0  0
    0.2789    1.1458   -0.0007 N   0  0  0  0  0  0  0  0  0  0  0  0
   -1.0862    1.1927   -0.0175 C   0  0  0  0  0  0  0  0  0  0  0  0
   -1.9361    0.0881   -0.0327 C   0  0  0  0  0  0  0  0  0  0  0  0
   -3.4003    0.2603   -0.1074 C   0  0  0  0  0  0  0  0  0  0  0  0
   -4.1233   -0.2196    0.9086 N   0  0  0  0  0  0  0  0  0  0  0  0
   -5.4428   -0.1237    0.7691 C   0  0  0  0  0  0  0  0  0  0  0  0
   -6.0202    0.4696   -0.2727 N   0  0  0  0  0  0  0  0  0  0  0  0
   -5.2233    0.9620   -1.2306 C   0  0  0  0  0  0  0  0  0  0  0  0
   -3.8954    0.8530   -1.1939 N   0  0  0  0  0  0  0  0  0  0  0  0
   -5.8163    1.5472   -2.3171 N   0  0  0  0  0  0  0  0  0  0  0  0
   -5.5582    1.0715   -3.6718 C   0  0  0  0  0  0  0  0  0  0  0  0
   -4.9027    2.1651   -4.5280 C   0  0  0  0  0  0  0  0  0  0  0  0
   -5.6638    3.3857   -4.4953 O   0  0  0  0  0  0  0  0  0  0  0  0
   -5.7626    3.8693   -3.1433 C   0  0  0  0  0  0  0  0  0  0  0  0
   -6.4730    2.8500   -2.2247 C   0  0  0  0  0  0  0  0  0  0  0  0
   -6.2380   -0.6663    1.7507 N   0  0  0  0  0  0  0  0  0  0  0  0
   -6.0423   -0.3584    3.1613 C   0  0  0  0  0  0  0  0  0  0  0  0
   -5.9038   -1.6543    3.9763 C   0  0  0  0  0  0  0  0  0  0  0  0
   -7.0131   -2.5421    3.7437 O   0  0  0  0  0  0  0  0  0  0  0  0
   -7.0865   -2.8858    2.3466 C   0  0  0  0  0  0  0  0  0  0  0  0
   -7.2942   -1.6322    1.4627 C   0  0  0  0  0  0  0  0  0  0  0  0
   -1.2893   -1.1622    0.0092 C   0  0  0  0  0  0  0  0  0  0  0  0
    0.1229   -1.2213    0.0526 C   0  0  0  0  0  0  0  0  0  0  0  0
   -2.0726   -2.4461   -0.0377 C   0  0  0  0  0  0  0  0  0  0  0  0
   -2.8922   -2.6285    1.0296 F   0  0  0  0  0  0  0  0  0  0  0  0
   -2.8509   -2.5376   -1.1507 F   0  0  0  0  0  0  0  0  0  0  0  0
   -1.2746   -3.5543   -0.0656 F   0  0  0  0  0  0  0  0  0  0  0  0
    2.6876    0.7996   -0.0427 H   0  0  0  0  0  0  0  0  0  0  0  0
    2.7520   -0.9203   -0.1475 H   0  0  0  0  0  0  0  0  0  0  0  0
   -1.4884    2.2039   -0.0047 H   0  0  0  0  0  0  0  0  0  0  0  0
   -6.5355    0.8370   -4.1144 H   0  0  0  0  0  0  0  0  0  0  0  0
   -4.9643    0.1526   -3.6932 H   0  0  0  0  0  0  0  0  0  0  0  0
   -3.8807    2.3760   -4.1955 H   0  0  0  0  0  0  0  0  0  0  0  0
   -4.8554    1.8393   -5.5729 H   0  0  0  0  0  0  0  0  0  0  0  0
   -6.3260    4.8083   -3.1757 H   0  0  0  0  0  0  0  0  0  0  0  0
   -4.7537    4.0990   -2.7813 H   0  0  0  0  0  0  0  0  0  0  0  0
   -7.5032    2.7301   -2.5829 H   0  0  0  0  0  0  0  0  0  0  0  0
   -6.5159    3.2363   -1.2011 H   0  0  0  0  0  0  0  0  0  0  0  0
   -6.9443    0.1654    3.5068 H   0  0  0  0  0  0  0  0  0  0  0  0
   -5.1908    0.3042    3.3432 H   0  0  0  0  0  0  0  0  0  0  0  0
   -4.9729   -2.1790    3.7345 H   0  0  0  0  0  0  0  0  0  0  0  0
   -5.8909   -1.4227    5.0469 H   0  0  0  0  0  0  0  0  0  0  0  0
   -7.9236   -3.5819    2.2268 H   0  0  0  0  0  0  0  0  0  0  0  0
   -6.1685   -3.4193    2.0719 H   0  0  0  0  0  0  0  0  0  0  0  0
   -8.2592   -1.1807    1.7246 H   0  0  0  0  0  0  0  0  0  0  0  0
   -7.3285   -1.9297    0.4096 H   0  0  0  0  0  0  0  0  0  0  0  0
    0.6348   -2.1805    0.0866 H   0  0  0  0  0  0  0  0  0  0  0  0
  1  2  1  0  0  0  0
  1 30  1  0  0  0  0
  1 31  1  0  0  0  0
  2  3  2  0  0  0  0
  2 25  1  0  0  0  0
  3  4  1  0  0  0  0
  4  5  2  0  0  0  0
  4 32  1  0  0  0  0
  5  6  1  0  0  0  0
  5 24  1  0  0  0  0
  6  7  2  0  0  0  0
  6 11  1  0  0  0  0
  7  8  1  0  0  0  0
  8  9  2  0  0  0  0
  8 18  1  0  0  0  0
  9 10  1  0  0  0  0
 10 11  2  0  0  0  0
 10 12  1  0  0  0  0
 12 13  1  0  0  0  0
 12 17  1  0  0  0  0
 13 14  1  0  0  0  0
 13 33  1  0  0  0  0
 13 34  1  0  0  0  0
 14 15  1  0  0  0  0
 14 35  1  0  0  0  0
 14 36  1  0  0  0  0
 15 16  1  0  0  0  0
 16 17  1  0  0  0  0
 16 37  1  0  0  0  0
 16 38  1  0  0  0  0
 17 39  1  0  0  0  0
 17 40  1  0  0  0  0
 18 19  1  0  0  0  0
 18 23  1  0  0  0  0
 19 20  1  0  0  0  0
 19 41  1  0  0  0  0
 19 42  1  0  0  0  0
 20 21  1  0  0  0  0
 20 43  1  0  0  0  0
 20 44  1  0  0  0  0
 21 22  1  0  0  0  0
 22 23  1  0  0  0  0
 22 45  1  0  0  0  0
 22 46  1  0  0  0  0
 23 47  1  0  0  0  0
 23 48  1  0  0  0  0
 24 25  2  0  0  0  0
 24 26  1  0  0  0  0
 25 49  1  0  0  0  0
 26 27  1  0  0  0  0
 26 28  1  0  0  0  0
 26 29  1  0  0  0  0
M  END
>  <DRUGBANK_ID>
DB14846

>  <COMMON_NAME>
Bimiralisib

>  <CAS_NUMBER>
1225037-39-7

>  <UNII>
6Z3QHB00LB

>  <SYNONYMS>
2-Pyridinamine, 5-(4,6-di-4-morpholinyl-1,3,5-triazin-2-yl)-4-(trifluoromethyl)-; 5-(4,6-Dimorpholino-1,3,5-triazin-2-yl)-4-(trifluoromethyl)pyridin-2-amine; Bimiralisib

$$$$
