171
 OpenBabel10282417123D

 24 24  0  0  0  0  0  0  0  0999 V2000
    1.3797   -0.2160   -0.0007 C   0  0  0  0  0  0  0  0  0  0  0  0
    0.4761   -1.2832    0.0140 C   0  0  0  0  0  0  0  0  0  0  0  0
   -0.9082   -1.0605    0.0100 C   0  0  0  0  0  0  0  0  0  0  0  0
   -1.3497    0.2642   -0.0073 C   0  0  0  0  0  0  0  0  0  0  0  0
   -1.7652   -2.1350    0.0923 N   0  0  0  0  0  0  0  0  0  0  0  0
   -3.2158   -2.0713    0.0752 C   0  0  0  0  0  0  0  0  0  0  0  0
   -3.7896   -2.7570   -1.1429 C   0  0  0  0  0  0  0  0  0  0  0  0
   -3.5867   -4.5247   -1.0746 S   0  0  0  0  0  0  0  0  0  0  0  0
   -4.0327   -5.0277    0.2005 O   0  0  0  0  0  0  0  0  0  0  0  0
   -4.0387   -5.1090   -2.3202 O   0  0  0  0  0  0  0  0  0  0  0  0
   -1.9720   -4.6328   -1.0790 O   0  0  0  0  0  0  0  0  0  0  0  0
   -0.4568    1.3323    0.0181 C   0  0  0  0  0  0  0  0  0  0  0  0
    0.9096    1.0936   -0.0151 C   0  0  0  0  0  0  0  0  0  0  0  0
    2.4486   -0.4084    0.0184 H   0  0  0  0  0  0  0  0  0  0  0  0
    0.8696   -2.2975    0.0312 H   0  0  0  0  0  0  0  0  0  0  0  0
   -2.4029    0.5125   -0.0305 H   0  0  0  0  0  0  0  0  0  0  0  0
   -1.3498   -3.0655    0.0397 H   0  0  0  0  0  0  0  0  0  0  0  0
   -3.5996   -2.5051    1.0036 H   0  0  0  0  0  0  0  0  0  0  0  0
   -3.5862   -1.0437    0.0649 H   0  0  0  0  0  0  0  0  0  0  0  0
   -4.8716   -2.5838   -1.1739 H   0  0  0  0  0  0  0  0  0  0  0  0
   -3.3600   -2.3824   -2.0770 H   0  0  0  0  0  0  0  0  0  0  0  0
   -1.7255   -5.5829   -1.0841 H   0  0  0  0  0  0  0  0  0  0  0  0
   -0.8453    2.3442    0.0769 H   0  0  0  0  0  0  0  0  0  0  0  0
    1.6016    1.9285   -0.0500 H   0  0  0  0  0  0  0  0  0  0  0  0
  1  2  2  0  0  0  0
  1 13  1  0  0  0  0
  1 14  1  0  0  0  0
  2  3  1  0  0  0  0
  2 15  1  0  0  0  0
  3  4  2  0  0  0  0
  3  5  1  0  0  0  0
  4 12  1  0  0  0  0
  4 16  1  0  0  0  0
  5  6  1  0  0  0  0
  5 17  1  0  0  0  0
  6  7  1  0  0  0  0
  6 18  1  0  0  0  0
  6 19  1  0  0  0  0
  7  8  1  0  0  0  0
  7 20  1  0  0  0  0
  7 21  1  0  0  0  0
  8  9  2  0  0  0  0
  8 10  2  0  0  0  0
  8 11  1  0  0  0  0
 11 22  1  0  0  0  0
 12 13  2  0  0  0  0
 12 23  1  0  0  0  0
 13 24  1  0  0  0  0
M  END
>  <DRUGBANK_ID>
DB02283

>  <SECONDARY_ACCESSION_NUMBERS>
EXPT00051

>  <COMMON_NAME>
2-Phenylamino-Ethanesulfonic Acid

$$$$
