
 OpenBabel10282417203D

 88 87  0  0  1  0  0  0  0  0999 V2000
  -10.1733   11.0860    0.6372 C   0  0  0  0  0  0  0  0  0  0  0  0
   -9.4319   12.4123    0.9010 C   0  0  0  0  0  0  0  0  0  0  0  0
  -10.5600   13.4178    0.9133 C   0  0  0  0  0  0  0  0  0  0  0  0
   -8.5395   12.7259    2.1831 C   0  0  0  0  0  0  0  0  0  0  0  0
   -7.1408   12.0554    2.3087 C   0  0  1  0  0  0  0  0  0  0  0  0
   -6.1475   12.1045    1.1113 C   0  0  0  0  0  0  0  0  0  0  0  0
   -4.9317   12.0372    1.1597 O   0  0  0  0  0  0  0  0  0  0  0  0
   -6.7900   11.8887   -0.0678 O   0  0  0  0  0  0  0  0  0  0  0  0
   -6.6952   11.7375    3.7417 N   0  0  0  0  0  0  0  0  0  0  0  0
   -6.8504   10.7447    4.7076 C   0  0  0  0  0  0  0  0  0  0  0  0
   -6.1333   10.9395    5.7114 O   0  0  0  0  0  0  0  0  0  0  0  0
   -7.7435    9.3148    4.7205 C   0  0  2  0  0  0  0  0  0  0  0  0
   -9.0352    9.0313    3.9975 C   0  0  0  0  0  0  0  0  0  0  0  0
   -8.7972    9.6715    2.7064 C   0  0  0  0  0  0  0  0  0  0  0  0
   -7.7347    9.1639    1.5537 C   0  0  0  0  0  0  0  0  0  0  0  0
   -7.9301    8.9185    0.3769 O   0  0  0  0  0  0  0  0  0  0  0  0
   -6.4485    9.3199    1.9255 O   0  0  0  0  0  0  0  0  0  0  0  0
   -7.7747    8.7996    6.0483 N   0  0  0  0  0  0  0  0  0  0  0  0
   -7.6712    7.4617    6.2223 C   0  0  0  0  0  0  0  0  0  0  0  0
   -8.4486    7.0337    7.0821 O   0  0  0  0  0  0  0  0  0  0  0  0
   -6.5824    6.5548    5.4476 C   0  0  2  0  0  0  0  0  0  0  0  0
   -5.4317    6.9360    4.4723 C   0  0  0  0  0  0  0  0  0  0  0  0
   -4.8903    8.4992    3.8621 S   0  0  0  0  0  0  0  0  0  0  0  0
   -7.2437    5.3516    4.9213 N   0  0  0  0  0  0  0  0  0  0  0  0
   -6.9103    4.0372    5.1276 C   0  0  0  0  0  0  0  0  0  0  0  0
   -7.6664    3.1507    4.7344 O   0  0  0  0  0  0  0  0  0  0  0  0
   -5.7077    3.7212    6.0097 C   0  0  0  0  0  0  0  0  0  0  0  0
   -4.3727    4.2470    5.6965 N   0  0  0  0  0  0  0  0  0  0  0  0
   -3.5451    5.1778    6.3031 C   0  0  0  0  0  0  0  0  0  0  0  0
   -2.4857    5.4537    5.7364 O   0  0  0  0  0  0  0  0  0  0  0  0
   -3.9149    5.8461    7.6520 C   0  0  2  0  0  0  0  0  0  0  0  0
   -4.0239    7.3830    7.7171 C   0  0  0  0  0  0  0  0  0  0  0  0
   -5.2059    7.7842    8.5688 C   0  0  0  0  0  0  0  0  0  0  0  0
   -5.2714    8.6503    9.4522 O   0  0  0  0  0  0  0  0  0  0  0  0
   -6.2684    7.0838    8.2273 O   0  0  0  0  0  0  0  0  0  0  0  0
   -3.0738    5.3551    8.7143 N   0  0  0  0  0  0  0  0  0  0  0  0
   -3.4119    4.6740    9.8324 C   0  0  0  0  0  0  0  0  0  0  0  0
   -2.5024    4.5495   10.6563 O   0  0  0  0  0  0  0  0  0  0  0  0
   -4.8342    4.0717   10.0815 C   0  0  2  0  0  0  0  0  0  0  0  0
   -4.8001    2.5797   10.3200 C   0  0  0  0  0  0  0  0  0  0  0  0
   -3.9805    2.2145   11.5302 C   0  0  0  0  0  0  0  0  0  0  0  0
   -4.6603    2.8820   13.1211 S   0  0  0  0  0  0  0  0  0  0  0  0
   -4.5333    4.7214   13.0324 C   0  0  0  0  0  0  0  0  0  0  0  0
   -5.8518    4.2293    9.1192 N   0  0  0  0  0  0  0  0  0  0  0  0
   -7.0397    4.8695    9.2582 C   0  0  0  0  0  0  0  0  0  0  0  0
   -7.8723    4.8436    8.3658 O   0  0  0  0  0  0  0  0  0  0  0  0
  -10.9522   10.8808    1.3858 H   0  0  0  0  0  0  0  0  0  0  0  0
   -9.5162   10.2452    0.5378 H   0  0  0  0  0  0  0  0  0  0  0  0
  -10.6833   11.0440   -0.3284 H   0  0  0  0  0  0  0  0  0  0  0  0
   -8.8354   12.5985    0.0119 H   0  0  0  0  0  0  0  0  0  0  0  0
  -11.2170   13.2271    1.7692 H   0  0  0  0  0  0  0  0  0  0  0  0
  -10.1528   14.4241    0.9771 H   0  0  0  0  0  0  0  0  0  0  0  0
  -11.1402   13.3180   -0.0077 H   0  0  0  0  0  0  0  0  0  0  0  0
   -8.3496   13.8009    2.2387 H   0  0  0  0  0  0  0  0  0  0  0  0
   -9.1514   12.5079    3.0731 H   0  0  0  0  0  0  0  0  0  0  0  0
   -7.4091   11.1037    2.0097 H   0  0  0  0  0  0  0  0  0  0  0  0
   -6.1624   11.6571   -0.7818 H   0  0  0  0  0  0  0  0  0  0  0  0
   -5.9925   12.3937    4.0725 H   0  0  0  0  0  0  0  0  0  0  0  0
   -7.2363    8.5148    4.2349 H   0  0  0  0  0  0  0  0  0  0  0  0
   -9.2823    7.9910    3.7552 H   0  0  0  0  0  0  0  0  0  0  0  0
   -9.8935    9.4663    4.5303 H   0  0  0  0  0  0  0  0  0  0  0  0
   -9.7727    9.8722    2.3481 H   0  0  0  0  0  0  0  0  0  0  0  0
   -8.5819   10.6363    3.1251 H   0  0  0  0  0  0  0  0  0  0  0  0
   -5.7517    9.2907    1.2194 H   0  0  0  0  0  0  0  0  0  0  0  0
   -8.4022    9.2591    6.7022 H   0  0  0  0  0  0  0  0  0  0  0  0
   -6.0041    6.1794    6.2753 H   0  0  0  0  0  0  0  0  0  0  0  0
   -4.4785    6.7347    4.9287 H   0  0  0  0  0  0  0  0  0  0  0  0
   -5.5100    6.3079    3.5810 H   0  0  0  0  0  0  0  0  0  0  0  0
   -5.9854    8.5278    3.0764 H   0  0  0  0  0  0  0  0  0  0  0  0
   -8.1335    5.4738    4.4625 H   0  0  0  0  0  0  0  0  0  0  0  0
   -6.0619    4.2091    6.8834 H   0  0  0  0  0  0  0  0  0  0  0  0
   -5.6301    2.6457    6.2217 H   0  0  0  0  0  0  0  0  0  0  0  0
   -3.9942    3.9057    4.8210 H   0  0  0  0  0  0  0  0  0  0  0  0
   -4.8882    5.4776    7.8256 H   0  0  0  0  0  0  0  0  0  0  0  0
   -3.1318    7.8562    8.1311 H   0  0  0  0  0  0  0  0  0  0  0  0
   -4.1931    7.8062    6.7276 H   0  0  0  0  0  0  0  0  0  0  0  0
   -7.1658    7.3462    8.5482 H   0  0  0  0  0  0  0  0  0  0  0  0
   -2.1065    5.6664    8.7157 H   0  0  0  0  0  0  0  0  0  0  0  0
   -5.2831    4.5847   10.8925 H   0  0  0  0  0  0  0  0  0  0  0  0
   -5.8271    2.1940   10.4357 H   0  0  0  0  0  0  0  0  0  0  0  0
   -4.4213    2.0811    9.4122 H   0  0  0  0  0  0  0  0  0  0  0  0
   -4.0053    1.1198   11.5966 H   0  0  0  0  0  0  0  0  0  0  0  0
   -2.9259    2.4568   11.3882 H   0  0  0  0  0  0  0  0  0  0  0  0
   -3.5441    5.0725   12.7346 H   0  0  0  0  0  0  0  0  0  0  0  0
   -5.3044    5.2265   12.4437 H   0  0  0  0  0  0  0  0  0  0  0  0
   -4.7637    5.1206   14.0182 H   0  0  0  0  0  0  0  0  0  0  0  0
   -5.6753    3.6572    8.3287 H   0  0  0  0  0  0  0  0  0  0  0  0
   -7.1376    5.4937   10.1637 H   0  0  0  0  0  0  0  0  0  0  0  0
  1  2  1  0  0  0  0
  1 47  1  0  0  0  0
  1 48  1  0  0  0  0
  1 49  1  0  0  0  0
  2  3  1  0  0  0  0
  2  4  1  0  0  0  0
  2 50  1  0  0  0  0
  3 51  1  0  0  0  0
  3 52  1  0  0  0  0
  3 53  1  0  0  0  0
  4  5  1  0  0  0  0
  4 54  1  0  0  0  0
  4 55  1  0  0  0  0
  5  6  1  0  0  0  0
  5  9  1  0  0  0  0
  5 56  1  6  0  0  0
  6  7  2  0  0  0  0
  6  8  1  0  0  0  0
  8 57  1  0  0  0  0
  9 10  1  0  0  0  0
  9 58  1  0  0  0  0
 10 11  2  0  0  0  0
 12 18  1  0  0  0  0
 12 59  1  6  0  0  0
 12 13  1  0  0  0  0
 12 10  1  0  0  0  0
 13 14  1  0  0  0  0
 13 60  1  0  0  0  0
 13 61  1  0  0  0  0
 14 15  1  0  0  0  0
 14 62  1  0  0  0  0
 14 63  1  0  0  0  0
 15 16  2  0  0  0  0
 15 17  1  0  0  0  0
 17 64  1  0  0  0  0
 18 19  1  0  0  0  0
 18 65  1  0  0  0  0
 19 20  2  0  0  0  0
 21 24  1  0  0  0  0
 21 66  1  1  0  0  0
 21 22  1  0  0  0  0
 21 19  1  0  0  0  0
 22 23  1  0  0  0  0
 22 67  1  0  0  0  0
 22 68  1  0  0  0  0
 23 69  1  0  0  0  0
 24 25  1  0  0  0  0
 24 70  1  0  0  0  0
 25 26  2  0  0  0  0
 25 27  1  0  0  0  0
 27 28  1  0  0  0  0
 27 71  1  0  0  0  0
 27 72  1  0  0  0  0
 28 29  1  0  0  0  0
 28 73  1  0  0  0  0
 29 30  2  0  0  0  0
 31 36  1  0  0  0  0
 31 74  1  1  0  0  0
 31 32  1  0  0  0  0
 31 29  1  0  0  0  0
 32 33  1  0  0  0  0
 32 75  1  0  0  0  0
 32 76  1  0  0  0  0
 33 34  2  0  0  0  0
 33 35  1  0  0  0  0
 35 77  1  0  0  0  0
 36 37  1  0  0  0  0
 36 78  1  0  0  0  0
 37 38  2  0  0  0  0
 39 44  1  0  0  0  0
 39 79  1  1  0  0  0
 39 40  1  0  0  0  0
 39 37  1  0  0  0  0
 40 41  1  0  0  0  0
 40 80  1  0  0  0  0
 40 81  1  0  0  0  0
 41 42  1  0  0  0  0
 41 82  1  0  0  0  0
 41 83  1  0  0  0  0
 42 43  1  0  0  0  0
 43 84  1  0  0  0  0
 43 85  1  0  0  0  0
 43 86  1  0  0  0  0
 44 45  1  0  0  0  0
 44 87  1  0  0  0  0
 45 46  2  0  0  0  0
 45 88  1  0  0  0  0
M  END
>  <DRUGBANK_ID>
DB13034

>  <COMMON_NAME>
Foxy-5

>  <CAS_NUMBER>
881188-51-8

>  <UNII>
CBZ9UL0ARB

$$$$
