
 OpenBabel10282417203D

 34 36  0  0  0  0  0  0  0  0999 V2000
    0.7687    0.0959    0.0701 C   0  0  0  0  0  0  0  0  0  0  0  0
    0.4688    1.0037   -1.1134 C   0  0  0  0  0  0  0  0  0  0  0  0
    8.2080    1.7980   -6.7238 C   0  0  0  0  0  0  0  0  0  0  0  0
    3.1323   -0.2221   -1.7256 C   0  0  0  0  0  0  0  0  0  0  0  0
    6.8318    1.9149   -6.5587 C   0  0  0  0  0  0  0  0  0  0  0  0
    4.5026   -0.2199   -1.9140 C   0  0  0  0  0  0  0  0  0  0  0  0
    8.3883    0.6658   -4.6050 C   0  0  0  0  0  0  0  0  0  0  0  0
    2.7869    1.0601   -3.7228 C   0  0  0  0  0  0  0  0  0  0  0  0
    8.9982    1.1862   -5.7468 C   0  0  0  0  0  0  0  0  0  0  0  0
    2.2754    0.4810   -2.5680 C   0  0  0  0  0  0  0  0  0  0  0  0
    6.2336    1.4099   -5.4096 C   0  0  0  0  0  0  0  0  0  0  0  0
    4.1639    0.9919   -3.9751 C   0  0  0  0  0  0  0  0  0  0  0  0
    5.0299    0.3696   -3.0488 C   0  0  0  0  0  0  0  0  0  0  0  0
    7.0089    0.7809   -4.4243 C   0  0  0  0  0  0  0  0  0  0  0  0
    4.7622    1.5403   -5.2250 C   0  0  0  0  0  0  0  0  0  0  0  0
   10.3558    1.0279   -5.9500 N   0  0  0  0  0  0  0  0  0  0  0  0
    4.0678    2.1209   -6.1644 N   0  0  0  0  0  0  0  0  0  0  0  0
    6.4025    0.2837   -3.2739 N   0  0  0  0  0  0  0  0  0  0  0  0
    0.9216    0.5059   -2.3846 O   0  0  0  0  0  0  0  0  0  0  0  0
    0.5875   -0.9526   -0.1918 H   0  0  0  0  0  0  0  0  0  0  0  0
    0.1847    0.3619    0.9512 H   0  0  0  0  0  0  0  0  0  0  0  0
    1.8094    0.2054    0.3879 H   0  0  0  0  0  0  0  0  0  0  0  0
   -0.6219    1.0734   -1.1997 H   0  0  0  0  0  0  0  0  0  0  0  0
    0.8368    2.0223   -0.9405 H   0  0  0  0  0  0  0  0  0  0  0  0
    8.6555    2.1980   -7.6275 H   0  0  0  0  0  0  0  0  0  0  0  0
    2.7664   -0.8451   -0.9251 H   0  0  0  0  0  0  0  0  0  0  0  0
    6.2253    2.3983   -7.3197 H   0  0  0  0  0  0  0  0  0  0  0  0
    5.1364   -0.7251   -1.1921 H   0  0  0  0  0  0  0  0  0  0  0  0
    8.9913    0.1732   -3.8473 H   0  0  0  0  0  0  0  0  0  0  0  0
    2.0983    1.5275   -4.4170 H   0  0  0  0  0  0  0  0  0  0  0  0
   10.9439    0.6514   -5.2201 H   0  0  0  0  0  0  0  0  0  0  0  0
   10.7955    1.4706   -6.7451 H   0  0  0  0  0  0  0  0  0  0  0  0
    3.0729    2.1625   -5.9638 H   0  0  0  0  0  0  0  0  0  0  0  0
    6.9789   -0.1758   -2.5822 H   0  0  0  0  0  0  0  0  0  0  0  0
  1 20  1  0  0  0  0
  1 21  1  0  0  0  0
  1 22  1  0  0  0  0
  2  1  1  0  0  0  0
  2 23  1  0  0  0  0
  2 24  1  0  0  0  0
  3 25  1  0  0  0  0
  4 26  1  0  0  0  0
  5  3  2  0  0  0  0
  5 27  1  0  0  0  0
  6  4  2  0  0  0  0
  6 28  1  0  0  0  0
  7 29  1  0  0  0  0
  8 30  1  0  0  0  0
  9  3  1  0  0  0  0
  9  7  2  0  0  0  0
 10  4  1  0  0  0  0
 10  8  2  0  0  0  0
 11  5  1  0  0  0  0
 12  8  1  0  0  0  0
 13  6  1  0  0  0  0
 13 12  2  0  0  0  0
 14  7  1  0  0  0  0
 14 11  2  0  0  0  0
 15 11  1  0  0  0  0
 15 12  1  0  0  0  0
 16  9  1  0  0  0  0
 16 31  1  0  0  0  0
 16 32  1  0  0  0  0
 17 15  2  0  0  0  0
 17 33  1  0  0  0  0
 18 13  1  0  0  0  0
 18 14  1  0  0  0  0
 18 34  1  0  0  0  0
 19  2  1  0  0  0  0
 19 10  1  0  0  0  0
M  END
>  <DRUGBANK_ID>
DB13190

>  <COMMON_NAME>
Ethacridine

>  <CAS_NUMBER>
442-16-0

>  <UNII>
WIX85M1A6R

>  <SYNONYMS>
Etacridina; Ethacridine; Ethacridinum

$$$$
