
 OpenBabel10282417183D

 58 61  0  0  0  0  0  0  0  0999 V2000
   -1.2662    1.3892   -0.0028 N   0  0  0  0  0  0  0  0  0  0  0  0
   -2.3780    0.5578    0.0800 C   0  0  0  0  0  0  0  0  0  0  0  0
   -2.3537   -0.8687    0.1512 C   0  0  0  0  0  0  0  0  0  0  0  0
   -1.0468   -1.3652    0.2023 C   0  0  0  0  0  0  0  0  0  0  0  0
    0.1466   -0.4511    0.2689 C   0  0  0  0  0  0  0  0  0  0  0  0
    1.5196   -0.7548    0.5044 C   0  0  0  0  0  0  0  0  0  0  0  0
    2.6739   -0.0436    0.2381 C   0  0  0  0  0  0  0  0  0  0  0  0
    2.4863    1.2656   -0.0126 C   0  0  0  0  0  0  0  0  0  0  0  0
    1.1543    1.7321   -0.0280 C   0  0  0  0  0  0  0  0  0  0  0  0
   -0.0174    0.9041    0.0777 C   0  0  0  0  0  0  0  0  0  0  0  0
   -0.9602   -2.7338   -0.4064 C   0  0  0  0  0  0  0  0  0  0  0  0
   -1.6125   -2.9332   -1.4441 O   0  0  0  0  0  0  0  0  0  0  0  0
   -0.1391   -3.7406    0.0690 N   0  0  0  0  0  0  0  0  0  0  0  0
    1.2491   -3.4989   -0.1587 C   0  0  1  0  0  0  0  0  0  0  0  0
    2.0615   -3.7109    1.1378 C   0  0  0  0  0  0  0  0  0  0  0  0
    2.4067   -5.1553    1.3240 C   0  0  0  0  0  0  0  0  0  0  0  0
    1.9877   -3.7103   -1.4463 C   0  0  0  0  0  0  0  0  0  0  0  0
    2.6717   -2.6292   -2.0871 C   0  0  0  0  0  0  0  0  0  0  0  0
    3.5378   -2.8458   -3.1417 C   0  0  0  0  0  0  0  0  0  0  0  0
    3.7215   -4.1498   -3.5651 C   0  0  0  0  0  0  0  0  0  0  0  0
    3.0384   -5.2068   -2.9477 C   0  0  0  0  0  0  0  0  0  0  0  0
    2.1277   -4.9848   -1.9301 C   0  0  0  0  0  0  0  0  0  0  0  0
   -3.6268   -1.6774    0.3219 N   0  0  0  0  0  0  0  0  0  0  0  0
   -3.9379   -3.3868    0.0696 S   0  0  0  0  0  0  0  0  0  0  0  0
   -4.8319   -3.7310    1.5395 C   0  0  0  0  0  0  0  0  0  0  0  0
   -4.8804   -3.5142   -1.0222 O   0  0  0  0  0  0  0  0  0  0  0  0
   -2.8342   -4.3051    0.2519 O   0  0  0  0  0  0  0  0  0  0  0  0
   -3.6248    1.3482    0.0325 C   0  0  0  0  0  0  0  0  0  0  0  0
   -3.8867    2.2500   -1.0197 C   0  0  0  0  0  0  0  0  0  0  0  0
   -4.5917    1.2107    1.0358 C   0  0  0  0  0  0  0  0  0  0  0  0
   -5.1182    2.9060   -1.1135 C   0  0  0  0  0  0  0  0  0  0  0  0
   -5.8404    1.8174    0.9132 C   0  0  0  0  0  0  0  0  0  0  0  0
   -6.1014    2.6710   -0.1558 C   0  0  0  0  0  0  0  0  0  0  0  0
    1.7792   -1.6729    0.9421 H   0  0  0  0  0  0  0  0  0  0  0  0
    3.6366   -0.5568    0.2612 H   0  0  0  0  0  0  0  0  0  0  0  0
    3.3649    1.8901   -0.1292 H   0  0  0  0  0  0  0  0  0  0  0  0
    1.0257    2.8029   -0.1360 H   0  0  0  0  0  0  0  0  0  0  0  0
   -0.4652   -4.6508   -0.2408 H   0  0  0  0  0  0  0  0  0  0  0  0
    1.1042   -2.4959   -0.4575 H   0  0  0  0  0  0  0  0  0  0  0  0
    3.0093   -3.1511    1.1290 H   0  0  0  0  0  0  0  0  0  0  0  0
    1.4938   -3.3571    2.0183 H   0  0  0  0  0  0  0  0  0  0  0  0
    3.0606   -5.4631    0.5079 H   0  0  0  0  0  0  0  0  0  0  0  0
    2.9463   -5.3015    2.2601 H   0  0  0  0  0  0  0  0  0  0  0  0
    1.4940   -5.7526    1.3177 H   0  0  0  0  0  0  0  0  0  0  0  0
    2.5446   -1.5918   -1.7862 H   0  0  0  0  0  0  0  0  0  0  0  0
    4.0655   -2.0136   -3.6030 H   0  0  0  0  0  0  0  0  0  0  0  0
    4.3923   -4.3507   -4.3911 H   0  0  0  0  0  0  0  0  0  0  0  0
    3.2314   -6.2294   -3.2405 H   0  0  0  0  0  0  0  0  0  0  0  0
    1.5764   -5.7891   -1.4577 H   0  0  0  0  0  0  0  0  0  0  0  0
   -4.4256   -1.1814   -0.0945 H   0  0  0  0  0  0  0  0  0  0  0  0
   -5.8115   -3.2665    1.5096 H   0  0  0  0  0  0  0  0  0  0  0  0
   -4.9229   -4.8225    1.6161 H   0  0  0  0  0  0  0  0  0  0  0  0
   -4.2112   -3.3833    2.3664 H   0  0  0  0  0  0  0  0  0  0  0  0
   -3.1331    2.4365   -1.7855 H   0  0  0  0  0  0  0  0  0  0  0  0
   -4.3750    0.6081    1.9148 H   0  0  0  0  0  0  0  0  0  0  0  0
   -5.3200    3.5763   -1.9464 H   0  0  0  0  0  0  0  0  0  0  0  0
   -6.6134    1.6083    1.6468 H   0  0  0  0  0  0  0  0  0  0  0  0
   -7.0696    3.1583   -0.2361 H   0  0  0  0  0  0  0  0  0  0  0  0
  1  2  2  0  0  0  0
  1 10  1  0  0  0  0
  2  3  1  0  0  0  0
  2 28  1  0  0  0  0
  3  4  2  0  0  0  0
  3 23  1  0  0  0  0
  4  5  1  0  0  0  0
  4 11  1  0  0  0  0
  5  6  2  0  0  0  0
  5 10  1  0  0  0  0
  6  7  1  0  0  0  0
  6 34  1  0  0  0  0
  7  8  2  0  0  0  0
  7 35  1  0  0  0  0
  8  9  1  0  0  0  0
  8 36  1  0  0  0  0
  9 10  2  0  0  0  0
  9 37  1  0  0  0  0
 11 12  2  0  0  0  0
 11 13  1  0  0  0  0
 13 38  1  0  0  0  0
 14 13  1  0  0  0  0
 14 15  1  0  0  0  0
 14 17  1  0  0  0  0
 14 39  1  6  0  0  0
 15 16  1  0  0  0  0
 15 40  1  0  0  0  0
 15 41  1  0  0  0  0
 16 42  1  0  0  0  0
 16 43  1  0  0  0  0
 16 44  1  0  0  0  0
 17 18  1  0  0  0  0
 17 22  2  0  0  0  0
 18 19  2  0  0  0  0
 18 45  1  0  0  0  0
 19 20  1  0  0  0  0
 19 46  1  0  0  0  0
 20 21  2  0  0  0  0
 20 47  1  0  0  0  0
 21 22  1  0  0  0  0
 21 48  1  0  0  0  0
 22 49  1  0  0  0  0
 23 24  1  0  0  0  0
 23 50  1  0  0  0  0
 24 25  1  0  0  0  0
 24 26  2  0  0  0  0
 24 27  2  0  0  0  0
 25 51  1  0  0  0  0
 25 52  1  0  0  0  0
 25 53  1  0  0  0  0
 29 28  1  0  0  0  0
 29 54  1  0  0  0  0
 30 28  2  0  0  0  0
 30 55  1  0  0  0  0
 31 29  2  0  0  0  0
 31 56  1  0  0  0  0
 32 30  1  0  0  0  0
 32 57  1  0  0  0  0
 33 31  1  0  0  0  0
 33 32  2  0  0  0  0
 33 58  1  0  0  0  0
M  END
>  <DRUGBANK_ID>
DB11692

>  <COMMON_NAME>
Pavinetant

>  <CAS_NUMBER>
941690-55-7

>  <UNII>
3U471ZVC5K

>  <SYNONYMS>
Pavinetant

$$$$
