229
 OpenBabel10282417103D

 57 60  0  0  1  0  0  0  0  0999 V2000
    1.3273    1.0516    0.5031 S   0  0  0  0  0  0  0  0  0  0  0  0
    2.7165   -3.4716    1.9633 S   0  0  0  0  0  0  0  0  0  0  0  0
    0.1715    3.8905   -4.3833 S   0  0  0  0  0  0  0  0  0  0  0  0
   -2.7056   -0.4576    0.6598 O   0  0  0  0  0  0  0  0  0  0  0  0
   -2.1341   -2.8776   -0.3640 O   0  0  0  0  0  0  0  0  0  0  0  0
   -0.3038   -4.0790    0.0143 O   0  0  0  0  0  0  0  0  0  0  0  0
   -2.1181    4.8261    0.5269 O   0  0  0  0  0  0  0  0  0  0  0  0
   -0.6361   -0.5093   -0.4291 N   0  0  0  0  0  0  0  0  0  0  0  0
   -1.4554    2.6762    0.3030 N   0  0  0  0  0  0  0  0  0  0  0  0
    2.1120   -2.9461    4.6694 N   0  0  0  0  0  0  0  0  0  0  0  0
    0.5567   -5.7200    3.9212 N   0  0  0  0  0  0  0  0  0  0  0  0
   -1.4372    2.3177   -3.1799 N   0  0  0  0  0  0  0  0  0  0  0  0
    1.7315   -1.2566    3.3022 N   0  0  0  0  0  0  0  0  0  0  0  0
    1.7949   -1.8827    5.4482 N   0  0  0  0  0  0  0  0  0  0  0  0
    1.5344   -0.8850    4.6144 N   0  0  0  0  0  0  0  0  0  0  0  0
    0.1169    1.2141   -4.5183 N   0  0  0  0  0  0  0  0  0  0  0  0
    0.0270    0.7627   -0.7130 C   0  0  1  0  0  0  0  0  0  0  0  0
   -1.3573    1.4098   -0.4532 C   0  0  1  0  0  0  0  0  0  0  0  0
   -1.7326    0.0600    0.1178 C   0  0  0  0  0  0  0  0  0  0  0  0
    0.0002   -1.6906   -0.1284 C   0  0  0  0  0  0  0  0  0  0  0  0
    1.3446   -1.6994    0.0958 C   0  0  0  0  0  0  0  0  0  0  0  0
    2.2084   -0.4554    0.0352 C   0  0  0  0  0  0  0  0  0  0  0  0
    2.2214   -2.9122    0.3104 C   0  0  0  0  0  0  0  0  0  0  0  0
   -0.8107   -2.9741   -0.1133 C   0  0  0  0  0  0  0  0  0  0  0  0
   -2.0615    3.8187   -0.1797 C   0  0  0  0  0  0  0  0  0  0  0  0
   -2.6972    3.7886   -1.5743 C   0  0  0  0  0  0  0  0  0  0  0  0
   -1.6833    3.5931   -2.6681 C   0  0  0  0  0  0  0  0  0  0  0  0
    2.2216   -2.4774    3.3335 C   0  0  0  0  0  0  0  0  0  0  0  0
    2.1935   -4.2708    5.3093 C   0  0  0  0  0  0  0  0  0  0  0  0
    0.9695   -5.3068    5.2732 C   0  0  0  0  0  0  0  0  0  0  0  0
   -0.9186    4.5791   -3.2537 C   0  0  0  0  0  0  0  0  0  0  0  0
   -0.4353    2.3295   -4.0219 C   0  0  0  0  0  0  0  0  0  0  0  0
   -0.4914   -6.7057    3.7618 C   0  0  0  0  0  0  0  0  0  0  0  0
    0.0003   -4.5650    3.2630 C   0  0  0  0  0  0  0  0  0  0  0  0
    0.3775    0.8548   -1.7448 H   0  0  0  0  0  0  0  0  0  0  0  0
   -2.5393   -1.9892   -0.3050 H   0  0  0  0  0  0  0  0  0  0  0  0
   -1.0323    2.7800    1.2235 H   0  0  0  0  0  0  0  0  0  0  0  0
    0.7924    1.2577   -5.2709 H   0  0  0  0  0  0  0  0  0  0  0  0
   -0.3169    0.3137   -4.3546 H   0  0  0  0  0  0  0  0  0  0  0  0
   -1.9958    1.4600   -1.3287 H   0  0  0  0  0  0  0  0  0  0  0  0
    2.6394   -0.3557   -0.9721 H   0  0  0  0  0  0  0  0  0  0  0  0
    3.0435   -0.5612    0.7318 H   0  0  0  0  0  0  0  0  0  0  0  0
    1.9307   -3.7200   -0.3823 H   0  0  0  0  0  0  0  0  0  0  0  0
    3.2121   -2.6722   -0.0914 H   0  0  0  0  0  0  0  0  0  0  0  0
   -3.4766    3.0177   -1.5968 H   0  0  0  0  0  0  0  0  0  0  0  0
   -3.2116    4.7436   -1.7356 H   0  0  0  0  0  0  0  0  0  0  0  0
    3.1032   -4.7506    4.9391 H   0  0  0  0  0  0  0  0  0  0  0  0
    2.3653   -4.0722    6.3813 H   0  0  0  0  0  0  0  0  0  0  0  0
    1.2763   -6.2063    5.8316 H   0  0  0  0  0  0  0  0  0  0  0  0
    0.1125   -4.8931    5.8226 H   0  0  0  0  0  0  0  0  0  0  0  0
   -0.9418    5.6395   -3.0511 H   0  0  0  0  0  0  0  0  0  0  0  0
   -1.4438   -6.3228    4.1421 H   0  0  0  0  0  0  0  0  0  0  0  0
   -0.6146   -6.8709    2.6776 H   0  0  0  0  0  0  0  0  0  0  0  0
   -0.2461   -7.6686    4.2013 H   0  0  0  0  0  0  0  0  0  0  0  0
   -0.7204   -3.9558    3.8116 H   0  0  0  0  0  0  0  0  0  0  0  0
    0.8517   -3.9872    3.2378 H   0  0  0  0  0  0  0  0  0  0  0  0
   -0.2235   -4.7010    2.2143 H   0  0  0  0  0  0  0  0  0  0  0  0
  1 17  1  0  0  0  0
  1 22  1  0  0  0  0
  2 23  1  0  0  0  0
  2 28  1  0  0  0  0
  3 31  1  0  0  0  0
  3 32  1  0  0  0  0
  4 19  2  0  0  0  0
  5 24  1  0  0  0  0
  5 36  1  0  0  0  0
  6 24  2  0  0  0  0
  7 25  2  0  0  0  0
  8 17  1  0  0  0  0
  8 19  1  0  0  0  0
  8 20  1  0  0  0  0
  9 25  1  0  0  0  0
  9 37  1  0  0  0  0
 10 14  1  0  0  0  0
 10 28  1  0  0  0  0
 10 29  1  0  0  0  0
 11 30  1  0  0  0  0
 11 33  1  0  0  0  0
 11 34  1  0  0  0  0
 12 27  1  0  0  0  0
 12 32  2  0  0  0  0
 13 15  1  0  0  0  0
 13 28  2  0  0  0  0
 14 15  2  0  0  0  0
 16 32  1  0  0  0  0
 16 38  1  0  0  0  0
 16 39  1  0  0  0  0
 17 18  1  0  0  0  0
 17 35  1  6  0  0  0
 18  9  1  0  0  0  0
 18 19  1  0  0  0  0
 18 40  1  6  0  0  0
 20 21  2  0  0  0  0
 20 24  1  0  0  0  0
 21 22  1  0  0  0  0
 21 23  1  0  0  0  0
 22 41  1  0  0  0  0
 22 42  1  0  0  0  0
 23 43  1  0  0  0  0
 23 44  1  0  0  0  0
 25 26  1  0  0  0  0
 26 27  1  0  0  0  0
 26 45  1  0  0  0  0
 26 46  1  0  0  0  0
 27 31  2  0  0  0  0
 29 30  1  0  0  0  0
 29 47  1  0  0  0  0
 29 48  1  0  0  0  0
 30 49  1  0  0  0  0
 30 50  1  0  0  0  0
 31 51  1  0  0  0  0
 33 52  1  0  0  0  0
 33 53  1  0  0  0  0
 33 54  1  0  0  0  0
 34 55  1  0  0  0  0
 34 56  1  0  0  0  0
 34 57  1  0  0  0  0
M  END
>  <DRUGBANK_ID>
DB00229

>  <SECONDARY_ACCESSION_NUMBERS>
APRD00855

>  <COMMON_NAME>
Cefotiam

>  <CAS_NUMBER>
61622-34-2

>  <UNII>
91W6Z2N718

>  <SYNONYMS>
(6R,7R)-7-[2-(2-Amino-thiazol-4-yl)-acetylamino]-3-[1-(2-dimethylamino-ethyl)-1H-tetrazol-5-ylsulfanylmethyl]-8-oxo-5-thia-1-aza-bicyclo[4.2.0]oct-2-ene-2-carboxylic acid; Cefotiam; Cefotiamum; CTM

$$$$
