
 OpenBabel10282417213D

 44 28  0  0  0  0  0  0  0  0999 V2000
   -0.0995   -1.1714   -2.4350 Na  0  3  0  0  0  0  0  0  0  0  0  0
   -2.1210    1.6626   -0.1024 Na  0  3  0  0  0  0  0  0  0  0  0  0
    2.6730   -3.7131   -0.4065 Na  0  3  0  0  0  0  0  0  0  0  0  0
    2.6281    0.5021    0.1182 O   0  5  0  0  0  0  0  0  0  0  0  0
    3.9554    1.4163    1.6382 O   0  5  0  0  0  0  0  0  0  0  0  0
    3.8983   -1.1892    0.8882 O   0  5  0  0  0  0  0  0  0  0  0  0
    5.0591    0.5332   -0.5720 O   0  0  0  0  0  0  0  0  0  0  0  0
    4.0741    0.3230    0.6518 P   0  0  0  0  0  0  0  0  0  0  0  0
    1.8490   -2.5725    2.2487 O   0  0  0  0  0  0  0  0  0  0  0  0
   -0.2873    0.8253   -2.5647 O   0  0  0  0  0  0  0  0  0  0  0  0
    0.0087    0.5681    0.3791 O   0  0  0  0  0  0  0  0  0  0  0  0
    2.6675    2.7454   -1.1347 O   0  0  0  0  0  0  0  0  0  0  0  0
    2.2316   -0.3111    2.3377 O   0  0  0  0  0  0  0  0  0  0  0  0
    1.0760   -2.2794    0.1658 O   0  0  0  0  0  0  0  0  0  0  0  0
    0.5813    1.1679    2.5502 O   0  0  0  0  0  0  0  0  0  0  0  0
   -0.2922   -1.1720    1.5612 O   0  0  0  0  0  0  0  0  0  0  0  0
   -0.9720   -2.0694   -0.8893 O   0  0  0  0  0  0  0  0  0  0  0  0
    0.4525    2.5763   -0.3140 O   0  0  0  0  0  0  0  0  0  0  0  0
    2.2827   -1.3976   -1.3445 O   0  0  0  0  0  0  0  0  0  0  0  0
    1.7594    0.7009   -1.9012 O   0  0  0  0  0  0  0  0  0  0  0  0
    1.1647   -1.9447    2.6128 H   0  0  0  0  0  0  0  0  0  0  0  0
    2.6772   -2.0300    2.3589 H   0  0  0  0  0  0  0  0  0  0  0  0
   -0.0805    1.2862   -1.7195 H   0  0  0  0  0  0  0  0  0  0  0  0
    0.6963    0.6901   -2.7868 H   0  0  0  0  0  0  0  0  0  0  0  0
   -0.4136    0.5341    1.3044 H   0  0  0  0  0  0  0  0  0  0  0  0
    0.9121    0.8379    0.7406 H   0  0  0  0  0  0  0  0  0  0  0  0
    1.9528    2.3543   -1.6948 H   0  0  0  0  0  0  0  0  0  0  0  0
    3.3144    2.0656   -0.9182 H   0  0  0  0  0  0  0  0  0  0  0  0
    2.0801   -0.8194    1.5347 H   0  0  0  0  0  0  0  0  0  0  0  0
    2.4060    0.5162    1.8357 H   0  0  0  0  0  0  0  0  0  0  0  0
    0.6117   -2.5482    1.0135 H   0  0  0  0  0  0  0  0  0  0  0  0
    1.9748   -2.0333    0.5048 H   0  0  0  0  0  0  0  0  0  0  0  0
    0.3703    2.0734    2.3349 H   0  0  0  0  0  0  0  0  0  0  0  0
    1.5194    1.2726    2.8706 H   0  0  0  0  0  0  0  0  0  0  0  0
   -0.0998   -1.0498    0.5983 H   0  0  0  0  0  0  0  0  0  0  0  0
    0.4946   -0.6088    1.7614 H   0  0  0  0  0  0  0  0  0  0  0  0
   -1.3450   -1.5989   -0.1180 H   0  0  0  0  0  0  0  0  0  0  0  0
   -0.0328   -2.3119   -0.6637 H   0  0  0  0  0  0  0  0  0  0  0  0
    0.0004    2.1595    0.4229 H   0  0  0  0  0  0  0  0  0  0  0  0
    1.4039    2.3459   -0.1132 H   0  0  0  0  0  0  0  0  0  0  0  0
    1.6561   -0.9386   -0.7185 H   0  0  0  0  0  0  0  0  0  0  0  0
    3.0083   -0.7918   -1.1190 H   0  0  0  0  0  0  0  0  0  0  0  0
    1.4838    0.7005   -0.9461 H   0  0  0  0  0  0  0  0  0  0  0  0
    2.7267    0.7521   -1.7842 H   0  0  0  0  0  0  0  0  0  0  0  0
  8  4  1  0  0  0  0
  8  5  1  0  0  0  0
  8  6  1  0  0  0  0
  8  7  2  0  0  0  0
  9 21  1  0  0  0  0
  9 22  1  0  0  0  0
 10 23  1  0  0  0  0
 10 24  1  0  0  0  0
 11 25  1  0  0  0  0
 11 26  1  0  0  0  0
 12 27  1  0  0  0  0
 12 28  1  0  0  0  0
 13 29  1  0  0  0  0
 13 30  1  0  0  0  0
 14 31  1  0  0  0  0
 14 32  1  0  0  0  0
 15 33  1  0  0  0  0
 15 34  1  0  0  0  0
 16 35  1  0  0  0  0
 16 36  1  0  0  0  0
 17 37  1  0  0  0  0
 17 38  1  0  0  0  0
 18 39  1  0  0  0  0
 18 40  1  0  0  0  0
 19 41  1  0  0  0  0
 19 42  1  0  0  0  0
 20 43  1  0  0  0  0
 20 44  1  0  0  0  0
M  CHG  6   1   1   2   1   3   1   4  -1   5  -1   6  -1
M  END
>  <DRUGBANK_ID>
DB14622

>  <COMMON_NAME>
Sodium phosphate tribasic dodecahydrate

>  <CAS_NUMBER>
10101-89-0

>  <UNII>
B70850QPHR

>  <SYNONYMS>
Phosphoric acid, trisodium salt, dodeahydrate; Phosphoric acid, trisodium salt, dodecahydrate; Sodium phosphate dodecahydrate; Sodium phosphate, tribasic, dodecahydrate; Trisodium phosphate; Trisodium phosphate dodecahydrate

$$$$
