
 OpenBabel10282417203D

 93 94  0  0  0  0  0  0  0  0999 V2000
    1.0453   -0.1353   -0.0458 C   0  0  0  0  0  0  0  0  0  0  0  0
    0.5977   -1.0790    1.0584 C   0  0  0  0  0  0  0  0  0  0  0  0
    1.0960   -0.5824    2.4163 C   0  0  0  0  0  0  0  0  0  0  0  0
    0.5436    0.8116    2.7347 C   0  0  0  0  0  0  0  0  0  0  0  0
   -0.9890    0.7960    2.7501 C   0  0  0  0  0  0  0  0  0  0  0  0
   -1.4942   -0.1670    3.8293 C   0  0  0  0  0  0  0  0  0  0  0  0
   -0.9858    0.2766    5.2050 C   0  0  0  0  0  0  0  0  0  0  0  0
   -1.4920    1.6838    5.5153 C   0  0  0  0  0  0  0  0  0  0  0  0
   -3.0186    1.6905    5.5193 C   0  0  0  0  0  0  0  0  0  0  0  0
   -3.5699    0.7301    6.5834 C   0  0  0  0  0  0  0  0  0  0  0  0
   -3.0949    1.1096    7.9939 C   0  0  0  0  0  0  0  0  0  0  0  0
   -3.5279    2.5144    8.3679 C   0  0  0  0  0  0  0  0  0  0  0  0
   -4.9875    2.6001    8.3919 N   0  0  0  0  0  0  0  0  0  0  0  0
   -5.4061    3.9838    8.5901 C   0  0  0  0  0  0  0  0  0  0  0  0
   -4.9309    4.9212    7.4559 C   0  0  3  0  0  0  0  0  0  0  0  0
   -5.5164    4.4720    6.1069 C   0  0  0  0  0  0  0  0  0  0  0  0
   -7.0449    4.4505    6.0990 C   0  0  0  0  0  0  0  0  0  0  0  0
   -7.6267    5.8392    6.3321 C   0  0  0  0  0  0  0  0  0  0  0  0
   -7.0478    6.8184    5.3044 C   0  0  0  0  0  0  0  0  0  0  0  0
   -7.5157    6.3842    3.9210 C   0  0  0  0  0  0  0  0  0  0  0  0
   -9.0423    6.3725    3.8996 C   0  0  0  0  0  0  0  0  0  0  0  0
   -9.5955    7.7676    4.1997 C   0  0  0  0  0  0  0  0  0  0  0  0
   -9.1111    8.7579    3.1429 C   0  0  0  0  0  0  0  0  0  0  0  0
   -9.5999    8.3308    1.7492 C   0  0  0  0  0  0  0  0  0  0  0  0
  -11.0570    8.2988    1.7039 N   0  0  0  0  0  0  0  0  0  0  0  0
  -11.7255    7.0635    1.7207 C   0  0  0  0  0  0  0  0  0  0  0  0
  -11.1917    5.9687    1.6766 O   0  0  0  0  0  0  0  0  0  0  0  0
  -13.1385    7.2065    1.7927 C   0  0  0  0  0  0  0  0  0  0  0  0
  -13.7677    8.4123    1.8242 C   0  0  0  0  0  0  0  0  0  0  0  0
  -15.1222    8.2689    1.8572 N   0  0  0  0  0  0  0  0  0  0  0  0
  -15.3179    6.9628    1.8512 C   0  0  0  0  0  0  0  0  0  0  0  0
  -14.1344    6.2724    1.8296 N   0  0  0  0  0  0  0  0  0  0  0  0
  -13.9759    4.8383    1.8300 C   0  0  0  0  0  0  0  0  0  0  0  0
  -13.0605    9.5930    1.8058 N   0  0  0  0  0  0  0  0  0  0  0  0
  -11.6747    9.5568    1.7462 C   0  0  0  0  0  0  0  0  0  0  0  0
  -11.0017   10.5932    1.7375 O   0  0  0  0  0  0  0  0  0  0  0  0
  -13.7180   10.8805    1.8301 C   0  0  0  0  0  0  0  0  0  0  0  0
   -5.1940    6.2865    7.7588 O   0  0  0  0  0  0  0  0  0  0  0  0
    0.6507    0.8768    0.0914 H   0  0  0  0  0  0  0  0  0  0  0  0
    0.6918   -0.4804   -1.0176 H   0  0  0  0  0  0  0  0  0  0  0  0
    2.1372   -0.0710   -0.0570 H   0  0  0  0  0  0  0  0  0  0  0  0
   -0.4950   -1.1703    1.0452 H   0  0  0  0  0  0  0  0  0  0  0  0
    0.9759   -2.0881    0.8742 H   0  0  0  0  0  0  0  0  0  0  0  0
    0.8129   -1.3029    3.1936 H   0  0  0  0  0  0  0  0  0  0  0  0
    2.1895   -0.5574    2.4366 H   0  0  0  0  0  0  0  0  0  0  0  0
    0.9537    1.1588    3.6888 H   0  0  0  0  0  0  0  0  0  0  0  0
    0.8980    1.5582    2.0200 H   0  0  0  0  0  0  0  0  0  0  0  0
   -1.3652    1.8130    2.9007 H   0  0  0  0  0  0  0  0  0  0  0  0
   -1.4080    0.5157    1.7800 H   0  0  0  0  0  0  0  0  0  0  0  0
   -2.5867   -0.2207    3.7915 H   0  0  0  0  0  0  0  0  0  0  0  0
   -1.1854   -1.1980    3.6381 H   0  0  0  0  0  0  0  0  0  0  0  0
   -1.2964   -0.4449    5.9653 H   0  0  0  0  0  0  0  0  0  0  0  0
    0.1051    0.2570    5.2688 H   0  0  0  0  0  0  0  0  0  0  0  0
   -1.0818    2.0314    6.4671 H   0  0  0  0  0  0  0  0  0  0  0  0
   -1.1248    2.4240    4.7966 H   0  0  0  0  0  0  0  0  0  0  0  0
   -3.3429    2.7179    5.6683 H   0  0  0  0  0  0  0  0  0  0  0  0
   -3.4385    1.4321    4.5410 H   0  0  0  0  0  0  0  0  0  0  0  0
   -4.6611    0.7040    6.5182 H   0  0  0  0  0  0  0  0  0  0  0  0
   -3.2712   -0.3023    6.3770 H   0  0  0  0  0  0  0  0  0  0  0  0
   -3.4642    0.3904    8.7279 H   0  0  0  0  0  0  0  0  0  0  0  0
   -2.0011    1.0651    8.0561 H   0  0  0  0  0  0  0  0  0  0  0  0
   -3.1222    2.8096    9.3373 H   0  0  0  0  0  0  0  0  0  0  0  0
   -3.0761    3.1917    7.6398 H   0  0  0  0  0  0  0  0  0  0  0  0
   -5.3710    2.2661    7.5065 H   0  0  0  0  0  0  0  0  0  0  0  0
   -6.5007    3.9956    8.6626 H   0  0  0  0  0  0  0  0  0  0  0  0
   -5.0711    4.3431    9.5656 H   0  0  0  0  0  0  0  0  0  0  0  0
   -3.8452    4.9131    7.3667 H   0  0  0  0  0  0  0  0  0  0  0  0
   -5.1079    5.0925    5.3018 H   0  0  0  0  0  0  0  0  0  0  0  0
   -5.1926    3.4654    5.8434 H   0  0  0  0  0  0  0  0  0  0  0  0
   -7.3837    4.0353    5.1424 H   0  0  0  0  0  0  0  0  0  0  0  0
   -7.4459    3.7483    6.8336 H   0  0  0  0  0  0  0  0  0  0  0  0
   -8.7154    5.7773    6.3027 H   0  0  0  0  0  0  0  0  0  0  0  0
   -7.4892    6.2070    7.3429 H   0  0  0  0  0  0  0  0  0  0  0  0
   -7.3458    7.8417    5.5460 H   0  0  0  0  0  0  0  0  0  0  0  0
   -5.9561    6.8759    5.3176 H   0  0  0  0  0  0  0  0  0  0  0  0
   -7.0926    7.0359    3.1518 H   0  0  0  0  0  0  0  0  0  0  0  0
   -7.1396    5.3930    3.6485 H   0  0  0  0  0  0  0  0  0  0  0  0
   -9.3472    5.9820    2.9363 H   0  0  0  0  0  0  0  0  0  0  0  0
   -9.4826    5.6500    4.5915 H   0  0  0  0  0  0  0  0  0  0  0  0
  -10.6879    7.7378    4.2458 H   0  0  0  0  0  0  0  0  0  0  0  0
   -9.3010    8.1211    5.1949 H   0  0  0  0  0  0  0  0  0  0  0  0
   -9.4574    9.7592    3.4151 H   0  0  0  0  0  0  0  0  0  0  0  0
   -8.0183    8.8420    3.1390 H   0  0  0  0  0  0  0  0  0  0  0  0
   -9.2309    9.0432    1.0055 H   0  0  0  0  0  0  0  0  0  0  0  0
   -9.1848    7.3608    1.4599 H   0  0  0  0  0  0  0  0  0  0  0  0
  -16.2828    6.4706    1.8600 H   0  0  0  0  0  0  0  0  0  0  0  0
  -13.4353    4.5441    0.9264 H   0  0  0  0  0  0  0  0  0  0  0  0
  -13.4160    4.5470    2.7232 H   0  0  0  0  0  0  0  0  0  0  0  0
  -14.9576    4.3573    1.8411 H   0  0  0  0  0  0  0  0  0  0  0  0
  -14.3412   10.9775    0.9383 H   0  0  0  0  0  0  0  0  0  0  0  0
  -14.3199   10.9655    2.7379 H   0  0  0  0  0  0  0  0  0  0  0  0
  -12.9937   11.7020    1.8269 H   0  0  0  0  0  0  0  0  0  0  0  0
   -6.0030    6.3337    8.2908 H   0  0  0  0  0  0  0  0  0  0  0  0
  1  2  1  0  0  0  0
  1 39  1  0  0  0  0
  1 40  1  0  0  0  0
  1 41  1  0  0  0  0
  2  3  1  0  0  0  0
  2 42  1  0  0  0  0
  2 43  1  0  0  0  0
  3  4  1  0  0  0  0
  3 44  1  0  0  0  0
  3 45  1  0  0  0  0
  4  5  1  0  0  0  0
  4 46  1  0  0  0  0
  4 47  1  0  0  0  0
  5  6  1  0  0  0  0
  5 48  1  0  0  0  0
  5 49  1  0  0  0  0
  6  7  1  0  0  0  0
  6 50  1  0  0  0  0
  6 51  1  0  0  0  0
  7  8  1  0  0  0  0
  7 52  1  0  0  0  0
  7 53  1  0  0  0  0
  8  9  1  0  0  0  0
  8 54  1  0  0  0  0
  8 55  1  0  0  0  0
  9 10  1  0  0  0  0
  9 56  1  0  0  0  0
  9 57  1  0  0  0  0
 10 11  1  0  0  0  0
 10 58  1  0  0  0  0
 10 59  1  0  0  0  0
 11 12  1  0  0  0  0
 11 60  1  0  0  0  0
 11 61  1  0  0  0  0
 12 13  1  0  0  0  0
 12 62  1  0  0  0  0
 12 63  1  0  0  0  0
 13 14  1  0  0  0  0
 13 64  1  0  0  0  0
 14 15  1  0  0  0  0
 14 65  1  0  0  0  0
 14 66  1  0  0  0  0
 15 16  1  0  0  0  0
 15 38  1  0  0  0  0
 15 67  1  0  0  0  0
 16 17  1  0  0  0  0
 16 68  1  0  0  0  0
 16 69  1  0  0  0  0
 17 18  1  0  0  0  0
 17 70  1  0  0  0  0
 17 71  1  0  0  0  0
 18 19  1  0  0  0  0
 18 72  1  0  0  0  0
 18 73  1  0  0  0  0
 19 20  1  0  0  0  0
 19 74  1  0  0  0  0
 19 75  1  0  0  0  0
 20 21  1  0  0  0  0
 20 76  1  0  0  0  0
 20 77  1  0  0  0  0
 21 22  1  0  0  0  0
 21 78  1  0  0  0  0
 21 79  1  0  0  0  0
 22 23  1  0  0  0  0
 22 80  1  0  0  0  0
 22 81  1  0  0  0  0
 23 24  1  0  0  0  0
 23 82  1  0  0  0  0
 23 83  1  0  0  0  0
 24 25  1  0  0  0  0
 24 84  1  0  0  0  0
 24 85  1  0  0  0  0
 25 26  1  0  0  0  0
 25 35  1  0  0  0  0
 26 27  2  0  0  0  0
 26 28  1  0  0  0  0
 28 29  2  0  0  0  0
 28 32  1  0  0  0  0
 29 30  1  0  0  0  0
 29 34  1  0  0  0  0
 30 31  2  0  0  0  0
 31 32  1  0  0  0  0
 31 86  1  0  0  0  0
 32 33  1  0  0  0  0
 33 87  1  0  0  0  0
 33 88  1  0  0  0  0
 33 89  1  0  0  0  0
 34 35  1  0  0  0  0
 34 37  1  0  0  0  0
 35 36  2  0  0  0  0
 37 90  1  0  0  0  0
 37 91  1  0  0  0  0
 37 92  1  0  0  0  0
 38 93  1  0  0  0  0
M  END
>  <DRUGBANK_ID>
DB13098

>  <COMMON_NAME>
CT-2584

>  <CAS_NUMBER>
166981-13-1

>  <UNII>
67E5N3R22H

$$$$
