
 OpenBabel10282417123D

 24 24  0  0  1  0  0  0  0  0999 V2000
   -0.4554   -1.3620    0.0077 C   0  0  0  0  0  0  0  0  0  0  0  0
   -1.0742    1.0519    0.0099 C   0  0  0  0  0  0  0  0  0  0  0  0
   -2.8695   -0.7317    0.0120 C   0  0  0  0  0  0  0  0  0  0  0  0
   -1.4016   -0.4087    0.0033 C   0  0  0  0  0  0  0  0  0  0  0  0
    1.0121   -1.1111    0.0351 C   0  0  1  0  0  0  0  0  0  0  0  0
    0.3990    1.4652   -0.0156 C   0  0  1  0  0  0  0  0  0  0  0  0
    1.4805    0.3701   -0.0204 C   0  0  1  0  0  0  0  0  0  0  0  0
    1.5363   -1.8151    1.2128 N   0  0  0  0  0  0  0  0  0  0  0  0
   -3.4649   -0.1733    1.1736 O   0  0  0  0  0  0  0  0  0  0  0  0
    0.6100    2.3142   -1.1648 O   0  0  0  0  0  0  0  0  0  0  0  0
    2.3867    0.6432    1.0789 O   0  0  0  0  0  0  0  0  0  0  0  0
    1.4234   -1.6024   -0.8577 H   0  0  0  0  0  0  0  0  0  0  0  0
    0.5630    2.1239    0.8461 H   0  0  0  0  0  0  0  0  0  0  0  0
    2.0992    0.4893   -0.9202 H   0  0  0  0  0  0  0  0  0  0  0  0
   -0.7509   -2.4101    0.0072 H   0  0  0  0  0  0  0  0  0  0  0  0
   -1.5094    1.4775    0.9233 H   0  0  0  0  0  0  0  0  0  0  0  0
   -1.6039    1.5218   -0.8290 H   0  0  0  0  0  0  0  0  0  0  0  0
   -3.3545   -0.2965   -0.8675 H   0  0  0  0  0  0  0  0  0  0  0  0
   -3.0668   -1.8077    0.0120 H   0  0  0  0  0  0  0  0  0  0  0  0
    1.8963   -1.1050    1.8583 H   0  0  0  0  0  0  0  0  0  0  0  0
    2.3216   -2.4036    0.9499 H   0  0  0  0  0  0  0  0  0  0  0  0
   -2.9627   -0.5115    1.9353 H   0  0  0  0  0  0  0  0  0  0  0  0
    0.4601    1.7740   -1.9594 H   0  0  0  0  0  0  0  0  0  0  0  0
    3.1847    0.1110    0.9217 H   0  0  0  0  0  0  0  0  0  0  0  0
  1 15  1  0  0  0  0
  2 16  1  0  0  0  0
  2 17  1  0  0  0  0
  3 18  1  0  0  0  0
  3 19  1  0  0  0  0
  4  1  2  0  0  0  0
  4  2  1  0  0  0  0
  4  3  1  0  0  0  0
  5  1  1  0  0  0  0
  5 12  1  6  0  0  0
  5  8  1  0  0  0  0
  6  2  1  0  0  0  0
  6 13  1  1  0  0  0
  6 10  1  0  0  0  0
  7  5  1  0  0  0  0
  7  6  1  0  0  0  0
  7 14  1  6  0  0  0
  7 11  1  0  0  0  0
  8 20  1  0  0  0  0
  8 21  1  0  0  0  0
  9  3  1  0  0  0  0
  9 22  1  0  0  0  0
 10 23  1  0  0  0  0
 11 24  1  0  0  0  0
M  END
>  <DRUGBANK_ID>
DB01789

>  <SECONDARY_ACCESSION_NUMBERS>
EXPT00430

>  <COMMON_NAME>
1-Amino-2,3-Dihydroxy-5-Hydroxymethyl Cyclohex-5-Ene

$$$$
