4HG
 OpenBabel10282417163D

 28 29  0  0  0  0  0  0  0  0999 V2000
   -2.4454    0.6489   -0.1460 C   0  0  0  0  0  0  0  0  0  0  0  0
   -2.4396   -0.7398   -0.0505 C   0  0  0  0  0  0  0  0  0  0  0  0
   -1.2394   -1.4163    0.1285 C   0  0  0  0  0  0  0  0  0  0  0  0
   -1.2779    1.3744    0.0690 C   0  0  0  0  0  0  0  0  0  0  0  0
   -0.0424    0.7234    0.1009 C   0  0  0  0  0  0  0  0  0  0  0  0
   -0.0301   -0.6968    0.0983 C   0  0  0  0  0  0  0  0  0  0  0  0
    1.2109   -1.3015    0.0209 C   0  0  0  0  0  0  0  0  0  0  0  0
    2.3630   -0.6247   -0.0429 N   0  0  0  0  0  0  0  0  0  0  0  0
    2.3442    0.7222   -0.0253 C   0  0  0  0  0  0  0  0  0  0  0  0
    1.1649    1.4456    0.0666 C   0  0  0  0  0  0  0  0  0  0  0  0
   -1.3484   -3.4977    0.4401 I   0  0  0  0  0  0  0  0  0  0  0  0
    1.1239    2.8189    0.0774 O   0  0  0  0  0  0  0  0  0  0  0  0
    3.6743    1.3973   -0.1163 C   0  0  0  0  0  0  0  0  0  0  0  0
    5.0763   -0.7616   -0.2555 C   0  0  0  0  0  0  0  0  0  0  0  0
    5.6250   -1.1965   -1.6026 C   0  0  0  0  0  0  0  0  0  0  0  0
    6.6950   -2.0181   -1.5117 O   0  0  0  0  0  0  0  0  0  0  0  0
    3.7196    2.6309   -0.1176 O   0  0  0  0  0  0  0  0  0  0  0  0
    5.1438   -0.8747   -2.6878 O   0  0  0  0  0  0  0  0  0  0  0  0
    4.8517    0.6810   -0.1661 N   0  0  0  0  0  0  0  0  0  0  0  0
   -3.3617    1.1757   -0.3914 H   0  0  0  0  0  0  0  0  0  0  0  0
   -3.3781   -1.2806   -0.1151 H   0  0  0  0  0  0  0  0  0  0  0  0
   -1.3274    2.4587    0.1505 H   0  0  0  0  0  0  0  0  0  0  0  0
    1.3449   -2.3764   -0.0444 H   0  0  0  0  0  0  0  0  0  0  0  0
    2.0437    3.1617   -0.0040 H   0  0  0  0  0  0  0  0  0  0  0  0
    5.7392   -1.0279    0.5702 H   0  0  0  0  0  0  0  0  0  0  0  0
    4.2073   -1.3877   -0.1171 H   0  0  0  0  0  0  0  0  0  0  0  0
    6.9871   -2.2086   -0.5997 H   0  0  0  0  0  0  0  0  0  0  0  0
    5.6609    1.2794   -0.2805 H   0  0  0  0  0  0  0  0  0  0  0  0
  1  2  2  0  0  0  0
  1  4  1  0  0  0  0
  1 20  1  0  0  0  0
  2  3  1  0  0  0  0
  2 21  1  0  0  0  0
  3  6  2  0  0  0  0
  3 11  1  0  0  0  0
  4  5  2  0  0  0  0
  4 22  1  0  0  0  0
  5  6  1  0  0  0  0
  5 10  1  0  0  0  0
  6  7  1  0  0  0  0
  7  8  2  0  0  0  0
  7 23  1  0  0  0  0
  8  9  1  0  0  0  0
  9 10  2  0  0  0  0
  9 13  1  0  0  0  0
 10 12  1  0  0  0  0
 12 24  1  0  0  0  0
 13 17  2  0  0  0  0
 13 19  1  0  0  0  0
 14 15  1  0  0  0  0
 14 19  1  0  0  0  0
 14 25  1  0  0  0  0
 14 26  1  0  0  0  0
 15 16  1  0  0  0  0
 15 18  2  0  0  0  0
 16 27  1  0  0  0  0
 19 28  1  0  0  0  0
M  END
>  <DRUGBANK_ID>
DB07112

>  <COMMON_NAME>
N-[(4-HYDROXY-8-IODOISOQUINOLIN-3-YL)CARBONYL]GLYCINE

$$$$
