8BD
 OpenBabel10282417163D

 29 29  0  0  0  0  0  0  0  0999 V2000
    0.7133   -0.1080   -0.0635 C   0  0  0  0  0  0  0  0  0  0  0  0
    0.3810    1.1041   -0.7287 O   0  0  0  0  0  0  0  0  0  0  0  0
    0.8581    2.3086   -0.2730 C   0  0  0  0  0  0  0  0  0  0  0  0
   -0.0892    3.3561   -0.3770 C   0  0  0  0  0  0  0  0  0  0  0  0
    0.2605    4.7024   -0.1977 C   0  0  0  0  0  0  0  0  0  0  0  0
    1.5466    5.0261    0.1627 C   0  0  0  0  0  0  0  0  0  0  0  0
    2.4749    4.0082    0.2855 C   0  0  0  0  0  0  0  0  0  0  0  0
    2.1773    2.6458    0.0675 C   0  0  0  0  0  0  0  0  0  0  0  0
    3.2880    1.6642    0.0609 C   0  0  0  0  0  0  0  0  0  0  0  0
    4.5695    1.8058    0.2422 N   0  0  0  0  0  0  0  0  0  0  0  0
    4.8915    3.0566    0.7127 O   0  0  0  0  0  0  0  0  0  0  0  0
    6.2270    3.0988    1.1471 C   0  0  0  0  0  0  0  0  0  0  0  0
    6.3943    2.3990    2.4816 C   0  0  0  0  0  0  0  0  0  0  0  0
    6.2504    0.8989    2.4021 C   0  0  0  0  0  0  0  0  0  0  0  0
    4.9718    0.4625    2.4110 O   0  0  0  0  0  0  0  0  0  0  0  0
    7.1688    0.1101    2.3324 O   0  0  0  0  0  0  0  0  0  0  0  0
    0.1284   -0.9137   -0.5180 H   0  0  0  0  0  0  0  0  0  0  0  0
    0.4970   -0.0592    1.0056 H   0  0  0  0  0  0  0  0  0  0  0  0
    1.7270   -0.4483   -0.2444 H   0  0  0  0  0  0  0  0  0  0  0  0
   -1.1228    3.1322   -0.6317 H   0  0  0  0  0  0  0  0  0  0  0  0
   -0.4506    5.5045   -0.3675 H   0  0  0  0  0  0  0  0  0  0  0  0
    1.8725    6.0502    0.3241 H   0  0  0  0  0  0  0  0  0  0  0  0
    3.4629    4.3789    0.5003 H   0  0  0  0  0  0  0  0  0  0  0  0
    3.0685    0.6231   -0.1225 H   0  0  0  0  0  0  0  0  0  0  0  0
    6.8766    2.7234    0.3528 H   0  0  0  0  0  0  0  0  0  0  0  0
    6.4365    4.1669    1.2758 H   0  0  0  0  0  0  0  0  0  0  0  0
    7.4076    2.6055    2.8378 H   0  0  0  0  0  0  0  0  0  0  0  0
    5.6938    2.7825    3.2307 H   0  0  0  0  0  0  0  0  0  0  0  0
    5.0110   -0.4132    1.9734 H   0  0  0  0  0  0  0  0  0  0  0  0
  1 17  1  0  0  0  0
  1 18  1  0  0  0  0
  1 19  1  0  0  0  0
  2  1  1  0  0  0  0
  2  3  1  0  0  0  0
  3  8  1  0  0  0  0
  4  3  2  0  0  0  0
  4  5  1  0  0  0  0
  4 20  1  0  0  0  0
  5  6  2  0  0  0  0
  5 21  1  0  0  0  0
  6  7  1  0  0  0  0
  6 22  1  0  0  0  0
  7 23  1  0  0  0  0
  8  7  2  0  0  0  0
  8  9  1  0  0  0  0
  9 10  2  0  0  0  0
  9 24  1  0  0  0  0
 10 11  1  0  0  0  0
 11 12  1  0  0  0  0
 12 13  1  0  0  0  0
 12 25  1  0  0  0  0
 12 26  1  0  0  0  0
 13 14  1  0  0  0  0
 13 27  1  0  0  0  0
 13 28  1  0  0  0  0
 14 16  2  0  0  0  0
 14 15  1  0  0  0  0
 15 29  1  0  0  0  0
M  END
>  <DRUGBANK_ID>
DB07282

>  <COMMON_NAME>
3-({[(1Z)-(2-methoxyphenyl)methylidene]amino}oxy)propanoic acid

$$$$
