
 OpenBabel10282417113D

 33 34  0  0  0  0  0  0  0  0999 V2000
   -0.2567    0.8413    0.3829 C   0  0  0  0  0  0  0  0  0  0  0  0
   -1.5711    0.3871    0.1539 C   0  0  0  0  0  0  0  0  0  0  0  0
   -1.8884   -0.9737    0.0787 C   0  0  0  0  0  0  0  0  0  0  0  0
   -0.8814   -1.9268    0.1661 C   0  0  0  0  0  0  0  0  0  0  0  0
    0.4088   -1.5186    0.4674 C   0  0  0  0  0  0  0  0  0  0  0  0
    0.7084   -0.1588    0.6502 C   0  0  0  0  0  0  0  0  0  0  0  0
    0.0397    2.2055    0.1047 N   0  0  0  0  0  0  0  0  0  0  0  0
    2.3495    0.1380    1.1364 Cl  0  0  0  0  0  0  0  0  0  0  0  0
   -2.5583    1.2782   -0.0399 F   0  0  0  0  0  0  0  0  0  0  0  0
    1.3129    2.7969    0.0092 C   0  0  0  0  0  0  0  0  0  0  0  0
    1.7614    3.6001    1.0779 C   0  0  0  0  0  0  0  0  0  0  0  0
    2.1993    2.4825   -1.0479 C   0  0  0  0  0  0  0  0  0  0  0  0
    3.5259    2.9569   -0.9679 C   0  0  0  0  0  0  0  0  0  0  0  0
    3.9811    3.7190    0.1191 C   0  0  0  0  0  0  0  0  0  0  0  0
    3.0869    4.0413    1.1413 C   0  0  0  0  0  0  0  0  0  0  0  0
    5.4132    4.1654    0.1940 C   0  0  0  0  0  0  0  0  0  0  0  0
    1.7894    1.7194   -2.3028 C   0  0  0  0  0  0  0  0  0  0  0  0
    1.4126    0.2753   -2.1911 C   0  0  0  0  0  0  0  0  0  0  0  0
    0.2875   -0.1939   -2.3611 O   0  0  0  0  0  0  0  0  0  0  0  0
    2.4650   -0.5073   -1.8707 O   0  0  0  0  0  0  0  0  0  0  0  0
   -2.9121   -1.2824   -0.1042 H   0  0  0  0  0  0  0  0  0  0  0  0
   -1.0874   -2.9796   -0.0032 H   0  0  0  0  0  0  0  0  0  0  0  0
    1.2044   -2.2601    0.4975 H   0  0  0  0  0  0  0  0  0  0  0  0
   -0.7393    2.8476    0.2299 H   0  0  0  0  0  0  0  0  0  0  0  0
    1.1018    3.8162    1.9165 H   0  0  0  0  0  0  0  0  0  0  0  0
    4.2274    2.7074   -1.7618 H   0  0  0  0  0  0  0  0  0  0  0  0
    3.4265    4.6009    2.0114 H   0  0  0  0  0  0  0  0  0  0  0  0
    5.4705    5.2572    0.2488 H   0  0  0  0  0  0  0  0  0  0  0  0
    5.9038    3.7343    1.0730 H   0  0  0  0  0  0  0  0  0  0  0  0
    5.9762    3.8469   -0.6899 H   0  0  0  0  0  0  0  0  0  0  0  0
    0.9582    2.2472   -2.7782 H   0  0  0  0  0  0  0  0  0  0  0  0
    2.6146    1.7211   -3.0238 H   0  0  0  0  0  0  0  0  0  0  0  0
    2.1233   -1.2575   -1.3459 H   0  0  0  0  0  0  0  0  0  0  0  0
  1  2  1  0  0  0  0
  1  6  2  0  0  0  0
  1  7  1  0  0  0  0
  2  3  2  0  0  0  0
  2  9  1  0  0  0  0
  3  4  1  0  0  0  0
  3 21  1  0  0  0  0
  4  5  2  0  0  0  0
  4 22  1  0  0  0  0
  5  6  1  0  0  0  0
  5 23  1  0  0  0  0
  6  8  1  0  0  0  0
  7 10  1  0  0  0  0
  7 24  1  0  0  0  0
 10 11  2  0  0  0  0
 10 12  1  0  0  0  0
 11 25  1  0  0  0  0
 12 13  2  0  0  0  0
 12 17  1  0  0  0  0
 13 14  1  0  0  0  0
 13 26  1  0  0  0  0
 14 15  2  0  0  0  0
 14 16  1  0  0  0  0
 15 11  1  0  0  0  0
 15 27  1  0  0  0  0
 16 28  1  0  0  0  0
 16 29  1  0  0  0  0
 16 30  1  0  0  0  0
 17 18  1  0  0  0  0
 17 31  1  0  0  0  0
 17 32  1  0  0  0  0
 18 19  2  0  0  0  0
 18 20  1  0  0  0  0
 20 33  1  0  0  0  0
M  END
>  <DRUGBANK_ID>
DB01283

>  <COMMON_NAME>
Lumiracoxib

>  <CAS_NUMBER>
220991-20-8

>  <UNII>
V91T9204HU

>  <SYNONYMS>
2-((2-chloro-6-fluorophenyl)amino)-5-methylbenzeneacetic acid; Lumiracoxib; Lumiracoxibum

$$$$
