5F1
 OpenBabel10282417163D

 30 32  0  0  0  0  0  0  0  0999 V2000
   -0.0335   -1.2493    0.5239 C   0  0  0  0  0  0  0  0  0  0  0  0
   -0.8933    0.0009    0.5396 C   0  0  2  0  0  0  0  0  0  0  0  0
   -1.7525   -0.0295   -0.6034 O   0  0  0  0  0  0  0  0  0  0  0  0
    0.1163    1.1299    0.4200 C   0  0  1  0  0  0  0  0  0  0  0  0
    0.6291    1.6098    1.7823 C   0  0  0  0  0  0  0  0  0  0  0  0
    0.0676    2.8282    2.0435 F   0  0  0  0  0  0  0  0  0  0  0  0
    1.1532    0.5840   -0.4105 O   0  0  0  0  0  0  0  0  0  0  0  0
    1.1118   -0.8598   -0.4000 C   0  0  1  0  0  0  0  0  0  0  0  0
    2.4184   -1.4025   -0.0629 N   0  0  0  0  0  0  0  0  0  0  0  0
    2.7641   -2.7301    0.0163 C   0  0  0  0  0  0  0  0  0  0  0  0
    4.0592   -2.8925    0.2201 N   0  0  0  0  0  0  0  0  0  0  0  0
    4.5785   -1.6128    0.2604 C   0  0  0  0  0  0  0  0  0  0  0  0
    3.5688   -0.6775    0.1001 C   0  0  0  0  0  0  0  0  0  0  0  0
    3.7015    0.6520    0.0915 N   0  0  0  0  0  0  0  0  0  0  0  0
    4.9726    1.0358    0.2421 C   0  0  0  0  0  0  0  0  0  0  0  0
    6.0517    0.2482    0.4074 N   0  0  0  0  0  0  0  0  0  0  0  0
    5.8757   -1.0940    0.4226 C   0  0  0  0  0  0  0  0  0  0  0  0
    6.9913   -1.8807    0.5973 N   0  0  0  0  0  0  0  0  0  0  0  0
   -1.5273    0.0785    1.4264 H   0  0  0  0  0  0  0  0  0  0  0  0
   -0.2857    1.9880   -0.1279 H   0  0  0  0  0  0  0  0  0  0  0  0
    0.9099   -1.1688   -1.4326 H   0  0  0  0  0  0  0  0  0  0  0  0
    0.3303   -1.4823    1.5301 H   0  0  0  0  0  0  0  0  0  0  0  0
   -0.5677   -2.1240    0.1373 H   0  0  0  0  0  0  0  0  0  0  0  0
   -1.2197    0.1341   -1.4033 H   0  0  0  0  0  0  0  0  0  0  0  0
    0.3230    0.9508    2.6005 H   0  0  0  0  0  0  0  0  0  0  0  0
    1.7134    1.7350    1.8229 H   0  0  0  0  0  0  0  0  0  0  0  0
    2.0520   -3.5404   -0.0856 H   0  0  0  0  0  0  0  0  0  0  0  0
    5.1403    2.1065    0.2303 H   0  0  0  0  0  0  0  0  0  0  0  0
    6.8943   -2.8835    0.5995 H   0  0  0  0  0  0  0  0  0  0  0  0
    7.8802   -1.4170    0.6967 H   0  0  0  0  0  0  0  0  0  0  0  0
  1  2  1  0  0  0  0
  1  8  1  0  0  0  0
  1 22  1  0  0  0  0
  1 23  1  0  0  0  0
  2  3  1  0  0  0  0
  2  4  1  0  0  0  0
  2 19  1  1  0  0  0
  3 24  1  0  0  0  0
  4  7  1  0  0  0  0
  4 20  1  6  0  0  0
  4  5  1  0  0  0  0
  5  6  1  0  0  0  0
  5 25  1  0  0  0  0
  5 26  1  0  0  0  0
  7  8  1  0  0  0  0
  8 21  1  6  0  0  0
  8  9  1  0  0  0  0
  9 10  1  0  0  0  0
  9 13  1  0  0  0  0
 10 11  2  0  0  0  0
 10 27  1  0  0  0  0
 11 12  1  0  0  0  0
 12 13  2  0  0  0  0
 12 17  1  0  0  0  0
 13 14  1  0  0  0  0
 14 15  2  0  0  0  0
 15 16  1  0  0  0  0
 15 28  1  0  0  0  0
 16 17  2  0  0  0  0
 17 18  1  0  0  0  0
 18 29  1  0  0  0  0
 18 30  1  0  0  0  0
M  END
>  <DRUGBANK_ID>
DB07170

>  <COMMON_NAME>
5'-FLUORO-2',5'-DIDEOXYADENOSINE

$$$$
