
 OpenBabel10282417183D

119127  0  0  0  0  0  0  0  0999 V2000
    2.9822   -1.1638    0.9340 C   0  0  0  0  0  0  0  0  0  0  0  0
    3.0897   -1.3440    2.2962 N   0  0  0  0  0  0  0  0  0  0  0  0
    2.4225   -0.5170    3.2675 C   0  0  1  0  0  0  0  0  0  0  0  0
    1.0633   -1.1431    3.5292 C   0  0  0  0  0  0  0  0  0  0  0  0
    3.2928   -0.5920    4.5285 C   0  0  0  0  0  0  0  0  0  0  0  0
    4.5260   -1.3982    4.1288 C   0  0  0  0  0  0  0  0  0  0  0  0
    4.0233   -2.3043    2.9885 C   0  0  1  0  0  0  0  0  0  0  0  0
    3.5854   -3.8292    3.3922 C   0  0  0  0  0  0  0  0  0  0  0  0
    2.5171   -4.5893    3.8163 N   0  0  0  0  0  0  0  0  0  0  0  0
    2.5773   -5.8594    3.0539 C   0  0  0  0  0  0  0  0  0  0  0  0
    1.6323   -6.8420    2.5564 C   0  0  0  0  0  0  0  0  0  0  0  0
    1.4540   -6.9767    1.1569 C   0  0  0  0  0  0  0  0  0  0  0  0
    2.2083   -6.1687    0.3424 C   0  0  0  0  0  0  0  0  0  0  0  0
    1.8892   -5.9603   -0.9748 C   0  0  0  0  0  0  0  0  0  0  0  0
    2.6090   -5.0116   -1.6651 C   0  0  0  0  0  0  0  0  0  0  0  0
    2.3379   -4.7268   -3.0417 C   0  0  0  0  0  0  0  0  0  0  0  0
    1.2148   -5.2058   -3.7339 C   0  0  0  0  0  0  0  0  0  0  0  0
    1.0818   -5.0209   -5.0941 C   0  0  0  0  0  0  0  0  0  0  0  0
    2.0024   -4.2471   -5.7530 C   0  0  0  0  0  0  0  0  0  0  0  0
    1.8522   -4.1037   -7.1932 C   0  0  0  0  0  0  0  0  0  0  0  0
    0.8757   -3.4533   -7.9096 C   0  0  0  0  0  0  0  0  0  0  0  0
    1.1290   -3.5205   -9.2537 N   0  0  0  0  0  0  0  0  0  0  0  0
    2.3497   -4.0178   -9.3717 C   0  0  0  0  0  0  0  0  0  0  0  0
    3.2637   -3.7917  -10.5785 C   0  0  2  0  0  0  0  0  0  0  0  0
    3.5801   -5.0860  -11.1969 C   0  0  0  0  0  0  0  0  0  0  0  0
    4.5911   -4.7734  -12.2887 C   0  0  2  0  0  0  0  0  0  0  0  0
    5.4433   -5.9992  -12.5949 C   0  0  0  0  0  0  0  0  0  0  0  0
    4.6642   -7.1135  -13.0591 O   0  0  0  0  0  0  0  0  0  0  0  0
    3.7927   -7.6974  -12.0970 C   0  0  0  0  0  0  0  0  0  0  0  0
    5.3608   -3.5735  -11.7157 C   0  0  0  0  0  0  0  0  0  0  0  0
    4.5950   -3.1298  -10.5250 N   0  0  0  0  0  0  0  0  0  0  0  0
    5.1053   -2.0034   -9.8623 C   0  0  0  0  0  0  0  0  0  0  0  0
    6.2854   -1.6699  -10.0507 O   0  0  0  0  0  0  0  0  0  0  0  0
    4.3104   -1.2307   -8.7785 C   0  0  1  0  0  0  0  0  0  0  0  0
    3.0384   -0.5406   -9.2090 C   0  0  0  0  0  0  0  0  0  0  0  0
    2.6164    0.6313   -8.6154 C   0  0  0  0  0  0  0  0  0  0  0  0
    1.3545    1.1676   -8.9353 C   0  0  0  0  0  0  0  0  0  0  0  0
    0.5000    0.5703   -9.8697 C   0  0  0  0  0  0  0  0  0  0  0  0
    0.9290   -0.5400  -10.5279 C   0  0  0  0  0  0  0  0  0  0  0  0
    2.1694   -1.0277  -10.1736 C   0  0  0  0  0  0  0  0  0  0  0  0
    4.0992   -2.2213   -7.7855 N   0  0  0  0  0  0  0  0  0  0  0  0
    5.0099   -2.5273   -6.8245 C   0  0  0  0  0  0  0  0  0  0  0  0
    5.2509   -3.6647   -6.5211 O   0  0  0  0  0  0  0  0  0  0  0  0
    5.2711   -1.3697   -6.1626 O   0  0  0  0  0  0  0  0  0  0  0  0
    5.4949   -1.4617   -4.7733 C   0  0  0  0  0  0  0  0  0  0  0  0
    2.6674   -4.6716   -8.1772 N   0  0  0  0  0  0  0  0  0  0  0  0
    2.9738   -3.6044   -4.9751 C   0  0  0  0  0  0  0  0  0  0  0  0
    3.2785   -3.9450   -3.6738 C   0  0  0  0  0  0  0  0  0  0  0  0
    4.5641   -3.6444   -2.9307 C   0  0  0  0  0  0  0  0  0  0  0  0
    4.3625   -3.3260   -1.5895 O   0  0  0  0  0  0  0  0  0  0  0  0
    3.6559   -4.3272   -1.0285 C   0  0  0  0  0  0  0  0  0  0  0  0
    4.0379   -4.5549    0.2432 C   0  0  0  0  0  0  0  0  0  0  0  0
    3.3138   -5.4973    0.8880 C   0  0  0  0  0  0  0  0  0  0  0  0
    3.6377   -5.5969    2.2119 C   0  0  0  0  0  0  0  0  0  0  0  0
    4.4846   -4.8482    3.0237 N   0  0  0  0  0  0  0  0  0  0  0  0
    3.1946   -2.1168    0.2073 O   0  0  0  0  0  0  0  0  0  0  0  0
    2.4691    0.1177    0.1932 C   0  0  2  0  0  0  0  0  0  0  0  0
    0.9239    0.0741    0.0601 C   0  0  0  0  0  0  0  0  0  0  0  0
    0.3965    1.0207   -1.0261 C   0  0  0  0  0  0  0  0  0  0  0  0
    0.3707   -1.3347   -0.2263 C   0  0  0  0  0  0  0  0  0  0  0  0
    3.0687    0.1866   -1.1761 N   0  0  0  0  0  0  0  0  0  0  0  0
    3.8222    1.1898   -1.7349 C   0  0  0  0  0  0  0  0  0  0  0  0
    4.1887    1.1740   -2.8877 O   0  0  0  0  0  0  0  0  0  0  0  0
    4.0929    2.1829   -0.8422 O   0  0  0  0  0  0  0  0  0  0  0  0
    4.9100    3.2477   -1.3403 C   0  0  0  0  0  0  0  0  0  0  0  0
    2.3107    0.5094    2.8987 H   0  0  0  0  0  0  0  0  0  0  0  0
    0.5307   -0.6077    4.3136 H   0  0  0  0  0  0  0  0  0  0  0  0
    0.4482   -1.1571    2.6288 H   0  0  0  0  0  0  0  0  0  0  0  0
    1.1834   -2.1887    3.8344 H   0  0  0  0  0  0  0  0  0  0  0  0
    3.5490    0.4133    4.8857 H   0  0  0  0  0  0  0  0  0  0  0  0
    2.7815   -1.1138    5.3402 H   0  0  0  0  0  0  0  0  0  0  0  0
    5.2610   -0.6699    3.7367 H   0  0  0  0  0  0  0  0  0  0  0  0
    5.0108   -1.9084    4.9632 H   0  0  0  0  0  0  0  0  0  0  0  0
    4.8908   -2.4269    2.3210 H   0  0  0  0  0  0  0  0  0  0  0  0
    1.0223   -7.5073    3.1623 H   0  0  0  0  0  0  0  0  0  0  0  0
    0.6831   -7.5986    0.6983 H   0  0  0  0  0  0  0  0  0  0  0  0
    1.0885   -6.5020   -1.4541 H   0  0  0  0  0  0  0  0  0  0  0  0
    0.4406   -5.7719   -3.2372 H   0  0  0  0  0  0  0  0  0  0  0  0
    0.2475   -5.4540   -5.6301 H   0  0  0  0  0  0  0  0  0  0  0  0
    0.0419   -2.8950   -7.5015 H   0  0  0  0  0  0  0  0  0  0  0  0
    2.7134   -3.3393  -11.4184 H   0  0  0  0  0  0  0  0  0  0  0  0
    3.9902   -5.7513  -10.4339 H   0  0  0  0  0  0  0  0  0  0  0  0
    2.6179   -5.4119  -11.5947 H   0  0  0  0  0  0  0  0  0  0  0  0
    4.0543   -4.4749  -13.2023 H   0  0  0  0  0  0  0  0  0  0  0  0
    6.1523   -5.7530  -13.3948 H   0  0  0  0  0  0  0  0  0  0  0  0
    6.0366   -6.2969  -11.7227 H   0  0  0  0  0  0  0  0  0  0  0  0
    4.2913   -7.8464  -11.1336 H   0  0  0  0  0  0  0  0  0  0  0  0
    2.8998   -7.0985  -11.9741 H   0  0  0  0  0  0  0  0  0  0  0  0
    3.3672   -8.6280  -12.4639 H   0  0  0  0  0  0  0  0  0  0  0  0
    6.3985   -3.7965  -11.4503 H   0  0  0  0  0  0  0  0  0  0  0  0
    5.3791   -2.7567  -12.4565 H   0  0  0  0  0  0  0  0  0  0  0  0
    4.9806   -0.4986   -8.3178 H   0  0  0  0  0  0  0  0  0  0  0  0
    3.2648    1.1301   -7.9015 H   0  0  0  0  0  0  0  0  0  0  0  0
    1.0269    2.0681   -8.4357 H   0  0  0  0  0  0  0  0  0  0  0  0
   -0.4862    0.9530  -10.0923 H   0  0  0  0  0  0  0  0  0  0  0  0
    0.3464   -1.0860  -11.2677 H   0  0  0  0  0  0  0  0  0  0  0  0
    2.3708   -1.9044  -10.6941 H   0  0  0  0  0  0  0  0  0  0  0  0
    3.7566   -3.0410   -8.1907 H   0  0  0  0  0  0  0  0  0  0  0  0
    4.5223   -1.3984   -4.2522 H   0  0  0  0  0  0  0  0  0  0  0  0
    6.0807   -2.3628   -4.5676 H   0  0  0  0  0  0  0  0  0  0  0  0
    6.0413   -0.6035   -4.3984 H   0  0  0  0  0  0  0  0  0  0  0  0
    3.5722   -5.0814   -7.9783 H   0  0  0  0  0  0  0  0  0  0  0  0
    3.4754   -2.7542   -5.3568 H   0  0  0  0  0  0  0  0  0  0  0  0
    5.3080   -4.4477   -3.0110 H   0  0  0  0  0  0  0  0  0  0  0  0
    5.0851   -2.7530   -3.1572 H   0  0  0  0  0  0  0  0  0  0  0  0
    4.7539   -3.8874    0.7067 H   0  0  0  0  0  0  0  0  0  0  0  0
    4.8935   -5.3684    3.7778 H   0  0  0  0  0  0  0  0  0  0  0  0
    2.7935    1.0108    0.7321 H   0  0  0  0  0  0  0  0  0  0  0  0
    0.5134    0.4070    1.0184 H   0  0  0  0  0  0  0  0  0  0  0  0
    0.7046    0.6981   -2.0285 H   0  0  0  0  0  0  0  0  0  0  0  0
   -0.6980    1.0364   -1.0221 H   0  0  0  0  0  0  0  0  0  0  0  0
    0.7570    2.0408   -0.8672 H   0  0  0  0  0  0  0  0  0  0  0  0
    0.6488   -2.0536    0.5502 H   0  0  0  0  0  0  0  0  0  0  0  0
   -0.7231   -1.3241   -0.2513 H   0  0  0  0  0  0  0  0  0  0  0  0
    0.7329   -1.7221   -1.1848 H   0  0  0  0  0  0  0  0  0  0  0  0
    2.8699   -0.5829   -1.8085 H   0  0  0  0  0  0  0  0  0  0  0  0
    5.8893    2.8772   -1.6598 H   0  0  0  0  0  0  0  0  0  0  0  0
    4.4114    3.7833   -2.1543 H   0  0  0  0  0  0  0  0  0  0  0  0
    5.0664    3.9507   -0.5157 H   0  0  0  0  0  0  0  0  0  0  0  0
  1  2  1  0  0  0  0
  1 56  2  0  0  0  0
  2  3  1  0  0  0  0
  2  7  1  0  0  0  0
  3  4  1  0  0  0  0
  3  5  1  0  0  0  0
  3 66  1  6  0  0  0
  4 67  1  0  0  0  0
  4 68  1  0  0  0  0
  4 69  1  0  0  0  0
  5 70  1  0  0  0  0
  5 71  1  0  0  0  0
  6  5  1  0  0  0  0
  6 72  1  0  0  0  0
  6 73  1  0  0  0  0
  7  6  1  0  0  0  0
  7 74  1  6  0  0  0
  7  8  1  0  0  0  0
  8  9  2  0  0  0  0
  8 55  1  0  0  0  0
  9 10  1  0  0  0  0
 10 11  1  0  0  0  0
 11 12  2  0  0  0  0
 11 75  1  0  0  0  0
 12 76  1  0  0  0  0
 13 12  1  0  0  0  0
 13 14  1  0  0  0  0
 14 15  2  0  0  0  0
 14 77  1  0  0  0  0
 15 16  1  0  0  0  0
 16 17  2  0  0  0  0
 16 48  1  0  0  0  0
 17 18  1  0  0  0  0
 17 78  1  0  0  0  0
 18 19  2  0  0  0  0
 18 79  1  0  0  0  0
 19 20  1  0  0  0  0
 20 21  2  0  0  0  0
 20 46  1  0  0  0  0
 21 22  1  0  0  0  0
 21 80  1  0  0  0  0
 23 22  2  0  0  0  0
 24 23  1  0  0  0  0
 24 25  1  0  0  0  0
 24 31  1  0  0  0  0
 24 81  1  6  0  0  0
 25 26  1  0  0  0  0
 25 82  1  0  0  0  0
 25 83  1  0  0  0  0
 26 27  1  0  0  0  0
 26 84  1  6  0  0  0
 27 28  1  0  0  0  0
 27 85  1  0  0  0  0
 27 86  1  0  0  0  0
 28 29  1  0  0  0  0
 29 87  1  0  0  0  0
 29 88  1  0  0  0  0
 29 89  1  0  0  0  0
 30 26  1  0  0  0  0
 30 90  1  0  0  0  0
 30 91  1  0  0  0  0
 31 30  1  0  0  0  0
 31 32  1  0  0  0  0
 32 33  2  0  0  0  0
 32 34  1  0  0  0  0
 34 35  1  0  0  0  0
 34 41  1  0  0  0  0
 34 92  1  1  0  0  0
 35 36  1  0  0  0  0
 35 40  2  0  0  0  0
 36 37  2  0  0  0  0
 36 93  1  0  0  0  0
 37 38  1  0  0  0  0
 37 94  1  0  0  0  0
 38 95  1  0  0  0  0
 39 38  2  0  0  0  0
 39 96  1  0  0  0  0
 40 39  1  0  0  0  0
 40 97  1  0  0  0  0
 41 42  1  0  0  0  0
 41 98  1  0  0  0  0
 42 43  2  0  0  0  0
 42 44  1  0  0  0  0
 44 45  1  0  0  0  0
 45 99  1  0  0  0  0
 45100  1  0  0  0  0
 45101  1  0  0  0  0
 46 23  1  0  0  0  0
 46102  1  0  0  0  0
 47 19  1  0  0  0  0
 47103  1  0  0  0  0
 48 47  2  0  0  0  0
 49 48  1  0  0  0  0
 49104  1  0  0  0  0
 49105  1  0  0  0  0
 50 49  1  0  0  0  0
 51 50  1  0  0  0  0
 51 15  1  0  0  0  0
 52 51  2  0  0  0  0
 52106  1  0  0  0  0
 53 52  1  0  0  0  0
 53 13  2  0  0  0  0
 54 53  1  0  0  0  0
 54 10  2  0  0  0  0
 55 54  1  0  0  0  0
 55107  1  0  0  0  0
 57 61  1  0  0  0  0
 57108  1  1  0  0  0
 57 58  1  0  0  0  0
 57  1  1  0  0  0  0
 58 59  1  0  0  0  0
 58 60  1  0  0  0  0
 58109  1  0  0  0  0
 59110  1  0  0  0  0
 59111  1  0  0  0  0
 59112  1  0  0  0  0
 60113  1  0  0  0  0
 60114  1  0  0  0  0
 60115  1  0  0  0  0
 61 62  1  0  0  0  0
 61116  1  0  0  0  0
 62 63  2  0  0  0  0
 62 64  1  0  0  0  0
 64 65  1  0  0  0  0
 65117  1  0  0  0  0
 65118  1  0  0  0  0
 65119  1  0  0  0  0
M  END
>  <DRUGBANK_ID>
DB11613

>  <COMMON_NAME>
Velpatasvir

>  <CAS_NUMBER>
1377049-84-7

>  <UNII>
KCU0C7RS7Z

>  <SYNONYMS>
Velpatasvir; Velpatasvirum

$$$$
