
 OpenBabel10282417193D

 30 33  0  0  0  0  0  0  0  0999 V2000
   -1.9075    1.0931   -0.0002 C   0  0  0  0  0  0  0  0  0  0  0  0
   -2.6505    2.2537    0.0000 C   0  0  0  0  0  0  0  0  0  0  0  0
   -0.4163    0.8564   -0.0008 C   0  0  0  0  0  0  0  0  0  0  0  0
   -2.4609   -0.3823    0.0006 C   0  0  0  0  0  0  0  0  0  0  0  0
   -2.3797    3.6596   -0.0005 N   0  0  0  0  0  0  0  0  0  0  0  0
   -4.1818    2.2092    0.0013 C   0  0  0  0  0  0  0  0  0  0  0  0
   -0.1740   -0.5342   -0.0007 C   0  0  0  0  0  0  0  0  0  0  0  0
    0.6943    1.6749   -0.0004 C   0  0  0  0  0  0  0  0  0  0  0  0
   -1.3607   -1.2308    0.0004 N   0  0  0  0  0  0  0  0  0  0  0  0
   -3.5918   -0.8254    0.0014 O   0  0  0  0  0  0  0  0  0  0  0  0
   -3.5713    4.4340   -0.0005 C   0  0  0  0  0  0  0  0  0  0  0  0
   -4.6736    3.5876    0.0013 C   0  0  0  0  0  0  0  0  0  0  0  0
   -4.9604    1.2710    0.0019 O   0  0  0  0  0  0  0  0  0  0  0  0
    1.0833   -1.1366   -0.0013 C   0  0  0  0  0  0  0  0  0  0  0  0
    1.9878    1.0961    0.0013 C   0  0  0  0  0  0  0  0  0  0  0  0
   -3.8403    5.8112   -0.0021 C   0  0  0  0  0  0  0  0  0  0  0  0
   -6.0023    4.0075    0.0027 C   0  0  0  0  0  0  0  0  0  0  0  0
    2.1852   -0.2955   -0.0006 C   0  0  0  0  0  0  0  0  0  0  0  0
   -5.1956    6.2721   -0.0031 C   0  0  0  0  0  0  0  0  0  0  0  0
   -6.2692    5.3705    0.0007 C   0  0  0  0  0  0  0  0  0  0  0  0
   -1.4557    4.0619   -0.0022 H   0  0  0  0  0  0  0  0  0  0  0  0
    0.5927    2.7500   -0.0013 H   0  0  0  0  0  0  0  0  0  0  0  0
   -1.4412   -2.2400    0.0013 H   0  0  0  0  0  0  0  0  0  0  0  0
    1.2187   -2.2160   -0.0021 H   0  0  0  0  0  0  0  0  0  0  0  0
    2.8652    1.7398    0.0045 H   0  0  0  0  0  0  0  0  0  0  0  0
   -3.0706    6.5795   -0.0025 H   0  0  0  0  0  0  0  0  0  0  0  0
   -6.8027    3.2760    0.0050 H   0  0  0  0  0  0  0  0  0  0  0  0
    3.1926   -0.7127   -0.0014 H   0  0  0  0  0  0  0  0  0  0  0  0
   -5.4353    7.3399   -0.0069 H   0  0  0  0  0  0  0  0  0  0  0  0
   -7.3025    5.7207    0.0021 H   0  0  0  0  0  0  0  0  0  0  0  0
  1  2  2  0  0  0  0
  1  3  1  0  0  0  0
  1  4  1  0  0  0  0
  2  5  1  0  0  0  0
  2  6  1  0  0  0  0
  3  7  2  0  0  0  0
  3  8  1  0  0  0  0
  4  9  1  0  0  0  0
  4 10  2  0  0  0  0
  5 11  1  0  0  0  0
  5 21  1  0  0  0  0
  6 12  1  0  0  0  0
  6 13  2  0  0  0  0
  7 14  1  0  0  0  0
  7  9  1  0  0  0  0
  8 15  2  0  0  0  0
  8 22  1  0  0  0  0
  9 23  1  0  0  0  0
 11 16  1  0  0  0  0
 11 12  2  0  0  0  0
 12 17  1  0  0  0  0
 14 18  2  0  0  0  0
 14 24  1  0  0  0  0
 15 18  1  0  0  0  0
 15 25  1  0  0  0  0
 16 19  2  0  0  0  0
 16 26  1  0  0  0  0
 17 20  2  0  0  0  0
 17 27  1  0  0  0  0
 18 28  1  0  0  0  0
 19 20  1  0  0  0  0
 19 29  1  0  0  0  0
 20 30  1  0  0  0  0
M  END
>  <DRUGBANK_ID>
DB12379

>  <COMMON_NAME>
Indirubin

>  <CAS_NUMBER>
479-41-4

>  <UNII>
1LXW6D3W2Z

>  <SYNONYMS>
Couroupitine B; Indirubin

$$$$
