1114
 OpenBabel10282417113D

 38 39  0  0  1  0  0  0  0  0999 V2000
   -2.1888    0.2003   -0.0320 Cl  0  0  0  0  0  0  0  0  0  0  0  0
    4.1411   -3.1464    0.0958 N   0  0  0  0  0  0  0  0  0  0  0  0
    5.8620   -1.1857   -1.1399 N   0  0  0  0  0  0  0  0  0  0  0  0
    4.0060    0.1050    0.0164 C   0  0  3  0  0  0  0  0  0  0  0  0
    4.4466   -0.7744    1.2288 C   0  0  0  0  0  0  0  0  0  0  0  0
    3.9912   -2.2753    1.2866 C   0  0  0  0  0  0  0  0  0  0  0  0
    2.4128    0.1440   -0.0439 C   0  0  0  0  0  0  0  0  0  0  0  0
    4.8705   -0.2494   -1.2774 C   0  0  0  0  0  0  0  0  0  0  0  0
    1.7065    1.3389   -0.0766 C   0  0  0  0  0  0  0  0  0  0  0  0
    1.5703   -0.9979    0.0623 C   0  0  0  0  0  0  0  0  0  0  0  0
    4.3909    0.0580   -2.5525 C   0  0  0  0  0  0  0  0  0  0  0  0
    3.8640   -4.5481    0.3285 C   0  0  0  0  0  0  0  0  0  0  0  0
    3.4289   -2.8541   -1.1501 C   0  0  0  0  0  0  0  0  0  0  0  0
    0.2824    1.3672   -0.0617 C   0  0  0  0  0  0  0  0  0  0  0  0
    0.1752   -1.0039    0.0025 C   0  0  0  0  0  0  0  0  0  0  0  0
    4.7149   -0.7909   -3.6299 C   0  0  0  0  0  0  0  0  0  0  0  0
   -0.4714    0.1831   -0.0471 C   0  0  0  0  0  0  0  0  0  0  0  0
    6.0965   -2.0432   -2.1761 C   0  0  0  0  0  0  0  0  0  0  0  0
    5.5250   -1.9040   -3.4273 C   0  0  0  0  0  0  0  0  0  0  0  0
    4.3188    1.1373    0.2428 H   0  0  0  0  0  0  0  0  0  0  0  0
    5.5398   -0.7330    1.3429 H   0  0  0  0  0  0  0  0  0  0  0  0
    4.0624   -0.2841    2.1394 H   0  0  0  0  0  0  0  0  0  0  0  0
    4.5783   -2.7126    2.1084 H   0  0  0  0  0  0  0  0  0  0  0  0
    2.9829   -2.3190    1.7155 H   0  0  0  0  0  0  0  0  0  0  0  0
    2.2363    2.2912   -0.0646 H   0  0  0  0  0  0  0  0  0  0  0  0
    1.9209   -1.9842    0.2392 H   0  0  0  0  0  0  0  0  0  0  0  0
    3.6202    0.8058   -2.6843 H   0  0  0  0  0  0  0  0  0  0  0  0
    2.7823   -4.7226    0.3589 H   0  0  0  0  0  0  0  0  0  0  0  0
    4.2733   -5.1066   -0.5235 H   0  0  0  0  0  0  0  0  0  0  0  0
    4.3312   -4.9329    1.2312 H   0  0  0  0  0  0  0  0  0  0  0  0
    2.3822   -3.1595   -1.2116 H   0  0  0  0  0  0  0  0  0  0  0  0
    3.3893   -1.8139   -1.3801 H   0  0  0  0  0  0  0  0  0  0  0  0
    3.9128   -3.3410   -1.9952 H   0  0  0  0  0  0  0  0  0  0  0  0
   -0.2385    2.3116   -0.0455 H   0  0  0  0  0  0  0  0  0  0  0  0
   -0.3456   -1.9670    0.0376 H   0  0  0  0  0  0  0  0  0  0  0  0
    4.2069   -0.6740   -4.5841 H   0  0  0  0  0  0  0  0  0  0  0  0
    6.5782   -2.9840   -1.8992 H   0  0  0  0  0  0  0  0  0  0  0  0
    5.5930   -2.6997   -4.1663 H   0  0  0  0  0  0  0  0  0  0  0  0
  1 17  1  0  0  0  0
  2  6  1  0  0  0  0
  2 12  1  0  0  0  0
  2 13  1  0  0  0  0
  3  8  1  0  0  0  0
  3 18  2  0  0  0  0
  4  5  1  0  0  0  0
  4  7  1  0  0  0  0
  4  8  1  0  0  0  0
  4 20  1  0  0  0  0
  5  6  1  0  0  0  0
  5 21  1  0  0  0  0
  5 22  1  0  0  0  0
  6 23  1  0  0  0  0
  6 24  1  0  0  0  0
  7  9  2  0  0  0  0
  7 10  1  0  0  0  0
  8 11  2  0  0  0  0
  9 14  1  0  0  0  0
  9 25  1  0  0  0  0
 10 15  2  0  0  0  0
 10 26  1  0  0  0  0
 11 16  1  0  0  0  0
 11 27  1  0  0  0  0
 12 28  1  0  0  0  0
 12 29  1  0  0  0  0
 12 30  1  0  0  0  0
 13 31  1  0  0  0  0
 13 32  1  0  0  0  0
 13 33  1  0  0  0  0
 14 17  2  0  0  0  0
 14 34  1  0  0  0  0
 15 17  1  0  0  0  0
 15 35  1  0  0  0  0
 16 19  2  0  0  0  0
 16 36  1  0  0  0  0
 18 19  1  0  0  0  0
 18 37  1  0  0  0  0
 19 38  1  0  0  0  0
M  END
>  <DRUGBANK_ID>
DB01114

>  <SECONDARY_ACCESSION_NUMBERS>
APRD00001; DB09440

>  <COMMON_NAME>
Chlorpheniramine

>  <CAS_NUMBER>
132-22-9

>  <UNII>
3U6IO1965U

>  <SYNONYMS>
1-(p-chlorophenyl)-1-(2-pyridyl)-3-dimethylaminopropane; 1-(p-chlorophenyl)-1-(2-pyridyl)-3-N,N-dimethylpropylamine; 2-[p-chloro-α-[2-(dimethylamino)ethyl]benzyl]pyridine; 3-(p-chlorophenyl)-3-(2-pyridyl)-N,N-dimethylpropylamine; Chlorophenylpyridamine; Chlorphenamin; Chlorphenamine; Chlorphenaminum; Chlorpheniramine; Chlorpheniramine polistirex; Chlorpheniraminum; Clorfenamina; Clorfeniramina; γ-(4-chlorophenyl)-N,N-dimethyl-2-pyridinepropanamine; γ-(4-chlorophenyl)-γ-(2-pyridyl)propyldimethylamine

$$$$
