
 OpenBabel10282417143D

 48 49  0  0  0  0  0  0  0  0999 V2000
    1.6199   -1.0457    0.0034 N   0  0  0  0  0  0  0  0  0  0  0  0
    1.8274    1.5295   -0.0580 S   0  0  0  0  0  0  0  0  0  0  0  0
    2.4870   -0.0606   -0.0785 C   0  0  0  0  0  0  0  0  0  0  0  0
    0.3463   -0.5100    0.1075 C   0  0  0  0  0  0  0  0  0  0  0  0
    0.2761    0.8562    0.0446 C   0  0  0  0  0  0  0  0  0  0  0  0
   -0.9543    1.5842    0.1132 C   0  0  0  0  0  0  0  0  0  0  0  0
   -2.2021    0.7469   -0.0976 C   0  0  0  0  0  0  0  0  0  0  0  0
   -2.1415   -0.6033   -0.0356 C   0  0  0  0  0  0  0  0  0  0  0  0
   -0.8416   -1.2754    0.3761 C   0  0  0  0  0  0  0  0  0  0  0  0
   -0.7775   -2.3697    0.9332 O   0  0  0  0  0  0  0  0  0  0  0  0
   -1.0441    2.7971    0.2970 O   0  0  0  0  0  0  0  0  0  0  0  0
   -3.3601    1.4533   -0.3819 O   0  0  0  0  0  0  0  0  0  0  0  0
   -3.3245   -1.4930   -0.3470 C   0  0  0  0  0  0  0  0  0  0  0  0
   -3.1130   -2.3234   -1.6202 C   0  0  0  0  0  0  0  0  0  0  0  0
   -2.0138   -3.3654   -1.4481 C   0  0  0  0  0  0  0  0  0  0  0  0
   -2.3181   -4.2513   -0.2250 C   0  0  0  0  0  0  0  0  0  0  0  0
   -3.5936   -5.0441   -0.4544 C   0  0  0  0  0  0  0  0  0  0  0  0
   -3.4038   -5.9278   -1.6794 C   0  0  0  0  0  0  0  0  0  0  0  0
   -2.2150   -6.8699   -1.4533 C   0  0  0  0  0  0  0  0  0  0  0  0
   -2.4758   -7.7573   -0.2306 C   0  0  0  0  0  0  0  0  0  0  0  0
   -3.7417   -8.5948   -0.4410 C   0  0  0  0  0  0  0  0  0  0  0  0
   -3.6199   -9.4723   -1.6876 C   0  0  0  0  0  0  0  0  0  0  0  0
   -2.4452  -10.4263   -1.5469 C   0  0  0  0  0  0  0  0  0  0  0  0
    3.5530   -0.2354   -0.1406 H   0  0  0  0  0  0  0  0  0  0  0  0
   -4.1289    0.8741   -0.4803 H   0  0  0  0  0  0  0  0  0  0  0  0
   -3.5741   -2.0986    0.5292 H   0  0  0  0  0  0  0  0  0  0  0  0
   -4.2472   -0.9336   -0.5152 H   0  0  0  0  0  0  0  0  0  0  0  0
   -4.0575   -2.8186   -1.8820 H   0  0  0  0  0  0  0  0  0  0  0  0
   -2.8864   -1.6795   -2.4765 H   0  0  0  0  0  0  0  0  0  0  0  0
   -1.9055   -3.9503   -2.3653 H   0  0  0  0  0  0  0  0  0  0  0  0
   -1.0318   -2.8953   -1.3831 H   0  0  0  0  0  0  0  0  0  0  0  0
   -1.4495   -4.8766    0.0040 H   0  0  0  0  0  0  0  0  0  0  0  0
   -2.4755   -3.7079    0.7063 H   0  0  0  0  0  0  0  0  0  0  0  0
   -3.8330   -5.6156    0.4481 H   0  0  0  0  0  0  0  0  0  0  0  0
   -4.4587   -4.3870   -0.5782 H   0  0  0  0  0  0  0  0  0  0  0  0
   -4.3319   -6.4608   -1.8913 H   0  0  0  0  0  0  0  0  0  0  0  0
   -3.2422   -5.3388   -2.5858 H   0  0  0  0  0  0  0  0  0  0  0  0
   -2.0335   -7.4516   -2.3596 H   0  0  0  0  0  0  0  0  0  0  0  0
   -1.2720   -6.3298   -1.3167 H   0  0  0  0  0  0  0  0  0  0  0  0
   -1.6027   -8.3847   -0.0357 H   0  0  0  0  0  0  0  0  0  0  0  0
   -2.5740   -7.1675    0.6875 H   0  0  0  0  0  0  0  0  0  0  0  0
   -3.9293   -9.2081    0.4446 H   0  0  0  0  0  0  0  0  0  0  0  0
   -4.6257   -7.9517   -0.5333 H   0  0  0  0  0  0  0  0  0  0  0  0
   -4.5488  -10.0282   -1.8383 H   0  0  0  0  0  0  0  0  0  0  0  0
   -3.4949   -8.8651   -2.5924 H   0  0  0  0  0  0  0  0  0  0  0  0
   -2.5860  -11.0568   -0.6644 H   0  0  0  0  0  0  0  0  0  0  0  0
   -2.3487  -11.0553   -2.4319 H   0  0  0  0  0  0  0  0  0  0  0  0
   -1.4938   -9.8962   -1.4324 H   0  0  0  0  0  0  0  0  0  0  0  0
  1  3  2  0  0  0  0
  1  4  1  0  0  0  0
  2  3  1  0  0  0  0
  2  5  1  0  0  0  0
  3 24  1  0  0  0  0
  4  5  2  0  0  0  0
  4  9  1  0  0  0  0
  5  6  1  0  0  0  0
  6  7  1  0  0  0  0
  6 11  2  0  0  0  0
  7  8  2  0  0  0  0
  7 12  1  0  0  0  0
  8  9  1  0  0  0  0
  8 13  1  0  0  0  0
  9 10  2  0  0  0  0
 12 25  1  0  0  0  0
 13 14  1  0  0  0  0
 13 26  1  0  0  0  0
 13 27  1  0  0  0  0
 14 15  1  0  0  0  0
 14 28  1  0  0  0  0
 14 29  1  0  0  0  0
 15 16  1  0  0  0  0
 15 30  1  0  0  0  0
 15 31  1  0  0  0  0
 16 17  1  0  0  0  0
 16 32  1  0  0  0  0
 16 33  1  0  0  0  0
 17 18  1  0  0  0  0
 17 34  1  0  0  0  0
 17 35  1  0  0  0  0
 18 19  1  0  0  0  0
 18 36  1  0  0  0  0
 18 37  1  0  0  0  0
 19 20  1  0  0  0  0
 19 38  1  0  0  0  0
 19 39  1  0  0  0  0
 20 21  1  0  0  0  0
 20 40  1  0  0  0  0
 20 41  1  0  0  0  0
 21 22  1  0  0  0  0
 21 42  1  0  0  0  0
 21 43  1  0  0  0  0
 22 23  1  0  0  0  0
 22 44  1  0  0  0  0
 22 45  1  0  0  0  0
 23 46  1  0  0  0  0
 23 47  1  0  0  0  0
 23 48  1  0  0  0  0
M  END
>  <DRUGBANK_ID>
DB04799

>  <COMMON_NAME>
6-Hydroxy-5-undecyl-4,7-benzothiazoledione

>  <CAS_NUMBER>
43152-58-5

>  <SYNONYMS>
5-n-undecyl-6-hydroxy-4,7-dioxobenzothiazole; 6-hydroxy-5-undecyl-1,3-benzothiazole-4,7-dione; 6-Hydroxy-5-undecyl-4,7-benzothiazoledione; UHDBT

$$$$
