
 OpenBabel10282417153D

 45 48  0  0  1  0  0  0  0  0999 V2000
    1.5876    0.7721    0.7753 C   0  0  0  0  0  0  0  0  0  0  0  0
    1.4761    1.9102    1.9744 C   0  0  0  0  0  0  0  0  0  0  0  0
    2.4063    2.7002    2.7740 C   0  0  0  0  0  0  0  0  0  0  0  0
    1.5707    2.2853    3.8925 C   0  0  0  0  0  0  0  0  0  0  0  0
    2.2149    1.7327    4.7891 O   0  0  0  0  0  0  0  0  0  0  0  0
    0.2616    3.0100    3.9406 C   0  0  0  0  0  0  0  0  0  0  0  0
   -0.7192    2.7454    3.0893 C   0  0  0  0  0  0  0  0  0  0  0  0
   -0.1611    1.8561    2.0903 C   0  0  0  0  0  0  0  0  0  0  0  0
   -0.8906    1.1349    1.3852 O   0  0  0  0  0  0  0  0  0  0  0  0
   -1.6996    3.7711    3.0306 N   0  0  0  0  0  0  0  0  0  0  0  0
   -2.2091    4.0777    1.6827 C   0  0  0  0  0  0  0  0  0  0  0  0
   -0.9811    4.6772    1.0577 C   0  0  1  0  0  0  0  0  0  0  0  0
   -0.1354    5.3231    2.1812 C   0  0  1  0  0  0  0  0  0  0  0  0
   -0.8588    4.9261    3.5239 C   0  0  2  0  0  0  0  0  0  0  0  0
    0.0039    4.1562    4.7845 C   0  0  2  0  0  0  0  0  0  0  0  0
   -0.1991    3.0718    6.0325 C   0  0  0  0  0  0  0  0  0  0  0  0
    0.2981    1.6261    6.0050 O   0  0  0  0  0  0  0  0  0  0  0  0
   -0.2038    0.6417    5.1670 C   0  0  0  0  0  0  0  0  0  0  0  0
   -1.3630    0.6594    4.7275 O   0  0  0  0  0  0  0  0  0  0  0  0
    0.7364   -0.1939    4.5692 N   0  0  0  0  0  0  0  0  0  0  0  0
   -1.3577    6.1130    4.1498 O   0  0  0  0  0  0  0  0  0  0  0  0
   -2.2169    7.0213    3.5158 C   0  0  0  0  0  0  0  0  0  0  0  0
   -0.7758    6.0828    1.0786 N   0  0  0  0  0  0  0  0  0  0  0  0
    0.0107    6.5546   -0.0405 C   0  0  0  0  0  0  0  0  0  0  0  0
    2.9569    3.8269    3.7516 N   0  0  0  0  0  0  0  0  0  0  0  0
    1.0346    1.1011   -0.1312 H   0  0  0  0  0  0  0  0  0  0  0  0
    1.0302   -0.1730    1.0144 H   0  0  0  0  0  0  0  0  0  0  0  0
    2.5671    0.4171    0.4519 H   0  0  0  0  0  0  0  0  0  0  0  0
   -3.0637    4.7586    1.7890 H   0  0  0  0  0  0  0  0  0  0  0  0
   -2.5604    3.2231    1.0878 H   0  0  0  0  0  0  0  0  0  0  0  0
   -0.4391    3.9685    0.4401 H   0  0  0  0  0  0  0  0  0  0  0  0
    0.9381    5.2657    2.2142 H   0  0  0  0  0  0  0  0  0  0  0  0
   -0.8153    4.5993    5.3746 H   0  0  0  0  0  0  0  0  0  0  0  0
    0.4543    3.5551    6.7812 H   0  0  0  0  0  0  0  0  0  0  0  0
   -1.2121    3.0318    6.4322 H   0  0  0  0  0  0  0  0  0  0  0  0
    1.7182    0.0993    4.6293 H   0  0  0  0  0  0  0  0  0  0  0  0
    0.5121   -0.5378    3.6358 H   0  0  0  0  0  0  0  0  0  0  0  0
   -2.0681    7.1835    2.4552 H   0  0  0  0  0  0  0  0  0  0  0  0
   -3.2270    6.6794    3.7089 H   0  0  0  0  0  0  0  0  0  0  0  0
   -2.0834    8.0131    3.9706 H   0  0  0  0  0  0  0  0  0  0  0  0
   -0.6494    6.6587   -0.9131 H   0  0  0  0  0  0  0  0  0  0  0  0
    0.3756    7.5600    0.1826 H   0  0  0  0  0  0  0  0  0  0  0  0
    0.8550    5.9236   -0.3346 H   0  0  0  0  0  0  0  0  0  0  0  0
    2.3330    4.1094    4.5543 H   0  0  0  0  0  0  0  0  0  0  0  0
    3.6775    3.4329    4.4128 H   0  0  0  0  0  0  0  0  0  0  0  0
  1 26  1  0  0  0  0
  1 27  1  0  0  0  0
  1 28  1  0  0  0  0
  1  2  1  0  0  0  0
  2  3  2  0  0  0  0
  2  8  1  0  0  0  0
  3  4  1  0  0  0  0
  3 25  1  0  0  0  0
  4  6  1  0  0  0  0
  4  5  2  0  0  0  0
  6  7  2  0  0  0  0
  6 15  1  0  0  0  0
  7  8  1  0  0  0  0
  7 10  1  0  0  0  0
  8  9  2  0  0  0  0
 10 11  1  0  0  0  0
 10 14  1  0  0  0  0
 11 29  1  0  0  0  0
 11 30  1  0  0  0  0
 12 11  1  0  0  0  0
 12 13  1  0  0  0  0
 12 23  1  0  0  0  0
 12 31  1  1  0  0  0
 13 14  1  0  0  0  0
 13 23  1  0  0  0  0
 13 32  1  1  0  0  0
 14 15  1  0  0  0  0
 14 21  1  1  0  0  0
 15 33  1  6  0  0  0
 15 16  1  0  0  0  0
 16 17  1  0  0  0  0
 16 34  1  0  0  0  0
 16 35  1  0  0  0  0
 17 18  1  0  0  0  0
 18 19  2  0  0  0  0
 18 20  1  0  0  0  0
 20 36  1  0  0  0  0
 20 37  1  0  0  0  0
 21 22  1  0  0  0  0
 22 38  1  0  0  0  0
 22 39  1  0  0  0  0
 22 40  1  0  0  0  0
 23 24  1  0  0  0  0
 24 41  1  0  0  0  0
 24 42  1  0  0  0  0
 24 43  1  0  0  0  0
 25 44  1  0  0  0  0
 25 45  1  0  0  0  0
M  END
>  <DRUGBANK_ID>
DB06478

>  <COMMON_NAME>
Porfiromycin

>  <CAS_NUMBER>
801-52-5

>  <UNII>
H1WK901OA6

>  <SYNONYMS>
Porfiromycin

$$$$
