
 OpenBabel10282417223D

 27 28  0  0  0  0  0  0  0  0999 V2000
    1.1886    0.0454    0.0120 C   0  0  0  0  0  0  0  0  0  0  0  0
    0.4503    1.3975   -0.1593 C   0  0  0  0  0  0  0  0  0  0  0  0
    0.2942    1.9612   -1.5965 C   0  0  1  0  0  0  0  0  0  0  0  0
   -0.3885    0.8054   -2.3499 C   0  0  0  0  0  0  0  0  0  0  0  0
   -1.3043    0.1871   -1.2601 C   0  0  0  0  0  0  0  0  0  0  0  0
   -1.0954    1.1405   -0.0266 C   0  0  2  0  0  0  0  0  0  0  0  0
   -1.7840    2.4936   -0.2964 C   0  0  0  0  0  0  0  0  0  0  0  0
   -3.5908    2.3451   -1.0002 Br  0  0  0  0  0  0  0  0  0  0  0  0
   -1.8103    3.6495    1.2597 Br  0  0  0  0  0  0  0  0  0  0  0  0
   -0.8365    3.0076   -1.3654 C   0  0  0  0  0  0  0  0  0  0  0  0
   -0.9446    4.0592   -1.9899 O   0  0  0  0  0  0  0  0  0  0  0  0
    1.5537    2.5167   -2.2341 C   0  0  0  0  0  0  0  0  0  0  0  0
    1.1814    2.4126    0.7396 C   0  0  0  0  0  0  0  0  0  0  0  0
    1.0050   -0.6771   -0.7862 H   0  0  0  0  0  0  0  0  0  0  0  0
    0.8469   -0.4289    0.9411 H   0  0  0  0  0  0  0  0  0  0  0  0
    2.2735    0.1551    0.0538 H   0  0  0  0  0  0  0  0  0  0  0  0
    0.3443    0.0767   -2.7157 H   0  0  0  0  0  0  0  0  0  0  0  0
   -0.9701    1.1526   -3.2096 H   0  0  0  0  0  0  0  0  0  0  0  0
   -2.3323    0.0837   -1.6065 H   0  0  0  0  0  0  0  0  0  0  0  0
   -1.0033   -0.8389   -1.0195 H   0  0  0  0  0  0  0  0  0  0  0  0
   -1.3797    0.6745    0.9217 H   0  0  0  0  0  0  0  0  0  0  0  0
    1.9464    3.3748   -1.6747 H   0  0  0  0  0  0  0  0  0  0  0  0
    2.3438    1.7592   -2.2691 H   0  0  0  0  0  0  0  0  0  0  0  0
    1.3706    2.8709   -3.2529 H   0  0  0  0  0  0  0  0  0  0  0  0
    1.1068    2.1558    1.7983 H   0  0  0  0  0  0  0  0  0  0  0  0
    2.2505    2.4330    0.4835 H   0  0  0  0  0  0  0  0  0  0  0  0
    0.8554    3.4464    0.5993 H   0  0  0  0  0  0  0  0  0  0  0  0
  1  2  1  0  0  0  0
  1 14  1  0  0  0  0
  1 15  1  0  0  0  0
  1 16  1  0  0  0  0
  2 13  1  0  0  0  0
  3  2  1  0  0  0  0
  3  4  1  0  0  0  0
  3 10  1  0  0  0  0
  3 12  1  6  0  0  0
  4 17  1  0  0  0  0
  4 18  1  0  0  0  0
  5  4  1  0  0  0  0
  5 19  1  0  0  0  0
  5 20  1  0  0  0  0
  6  5  1  0  0  0  0
  6  2  1  0  0  0  0
  6  7  1  0  0  0  0
  6 21  1  1  0  0  0
  7  8  1  0  0  0  0
  7  9  1  0  0  0  0
  7 10  1  0  0  0  0
 10 11  2  0  0  0  0
 12 22  1  0  0  0  0
 12 23  1  0  0  0  0
 12 24  1  0  0  0  0
 13 25  1  0  0  0  0
 13 26  1  0  0  0  0
 13 27  1  0  0  0  0
M  END
>  <DRUGBANK_ID>
DB15659

>  <COMMON_NAME>
alpha,alpha-Dibromo-D-camphor

>  <CAS_NUMBER>
514-12-5

>  <UNII>
F89Z8SAG3O

>  <SYNONYMS>
(+)-3,3-Dibromocamphor; 3,3-dibromocamphor; alpha,alpha-Dibromocamphor

$$$$
