
 OpenBabel10282417143D

 52 53  0  0  0  0  0  0  0  0999 V2000
    0.8685    0.1002   -0.1516 O   0  0  0  0  0  0  0  0  0  0  0  0
    0.2713   -0.5829   -1.1617 C   0  0  0  0  0  0  0  0  0  0  0  0
    0.9389   -1.1142   -2.0313 O   0  0  0  0  0  0  0  0  0  0  0  0
   -1.2523   -0.6507   -1.1522 C   0  0  0  0  0  0  0  0  0  0  0  0
   -1.8316   -1.5145   -0.0060 C   0  0  0  0  0  0  0  0  0  0  0  0
   -1.4402   -0.9212    1.2484 C   0  0  0  0  0  0  0  0  0  0  0  0
   -2.0908    0.3892    0.9773 C   0  0  0  0  0  0  0  0  0  0  0  0
   -3.5917    0.5834    1.2486 C   0  0  0  0  0  0  0  0  0  0  0  0
   -4.0616   -0.0030    2.5803 C   0  0  0  0  0  0  0  0  0  0  0  0
   -3.7665    0.7232    3.7590 O   0  0  0  0  0  0  0  0  0  0  0  0
   -2.5073    0.5165    3.8936 C   0  0  0  0  0  0  0  0  0  0  0  0
   -1.5369    1.2589    3.5737 C   0  0  0  0  0  0  0  0  0  0  0  0
   -2.5913    2.7778    2.1685 Cl  0  0  0  0  0  0  0  0  0  0  0  0
    0.4063    1.8750    4.0132 C   0  0  0  0  0  0  0  0  0  0  0  0
    1.3289    2.1468    4.7793 C   0  0  0  0  0  0  0  0  0  0  0  0
    2.5396    1.5241    4.9104 N   0  0  0  0  0  0  0  0  0  0  0  0
    2.9498    1.1146    6.1843 C   0  0  0  0  0  0  0  0  0  0  0  0
    4.1556    1.0984    6.3975 O   0  0  0  0  0  0  0  0  0  0  0  0
    1.9177    0.6598    7.2230 N   0  0  0  0  0  0  0  0  0  0  0  0
    0.4763    0.2662    7.4059 C   0  0  0  0  0  0  0  0  0  0  0  0
   -0.1690    0.1145    8.4364 O   0  0  0  0  0  0  0  0  0  0  0  0
   -0.4283    0.2417    6.2286 C   0  0  0  0  0  0  0  0  0  0  0  0
   -1.1830    2.0724    6.0460 C   0  0  0  0  0  0  0  0  0  0  0  0
   -1.2563    3.0204    4.3247 C   0  0  0  0  0  0  0  0  0  0  0  0
   -0.4739    2.3382    2.5770 C   0  0  0  0  0  0  0  0  0  0  0  0
    0.1208    0.4234    2.8253 C   0  0  0  0  0  0  0  0  0  0  0  0
    0.1882   -0.5118    4.5243 C   0  0  0  0  0  0  0  0  0  0  0  0
    1.8133   -1.3426    4.5423 Cl  0  0  0  0  0  0  0  0  0  0  0  0
    0.2370    1.4513    4.9427 C   0  0  0  0  0  0  0  0  0  0  0  0
   -1.5940    0.5945    4.7467 C   0  0  0  0  0  0  0  0  0  0  0  0
   -2.8300   -0.0497    6.3962 Cl  0  0  0  0  0  0  0  0  0  0  0  0
    1.8483   -0.0052   -0.1483 H   0  0  0  0  0  0  0  0  0  0  0  0
   -1.6535    0.3766   -1.2527 H   0  0  0  0  0  0  0  0  0  0  0  0
   -1.6332   -1.1092   -2.0502 H   0  0  0  0  0  0  0  0  0  0  0  0
   -2.9229   -1.4807    0.0208 H   0  0  0  0  0  0  0  0  0  0  0  0
   -1.4449   -2.5111    0.0483 H   0  0  0  0  0  0  0  0  0  0  0  0
   -1.6954   -1.3375    2.2292 H   0  0  0  0  0  0  0  0  0  0  0  0
   -0.3587   -0.8882    1.2501 H   0  0  0  0  0  0  0  0  0  0  0  0
   -1.6738    0.7735    1.7886 H   0  0  0  0  0  0  0  0  0  0  0  0
   -1.4929    1.0470    0.3304 H   0  0  0  0  0  0  0  0  0  0  0  0
   -4.0321    1.5856    1.2769 H   0  0  0  0  0  0  0  0  0  0  0  0
   -4.0387    0.2219    0.3560 H   0  0  0  0  0  0  0  0  0  0  0  0
   -5.1301    0.0428    2.6000 H   0  0  0  0  0  0  0  0  0  0  0  0
   -3.6637   -1.0104    2.6710 H   0  0  0  0  0  0  0  0  0  0  0  0
    1.2080    1.9706    2.8497 H   0  0  0  0  0  0  0  0  0  0  0  0
    3.1277    1.5785    4.0797 H   0  0  0  0  0  0  0  0  0  0  0  0
    2.3830    0.5081    8.1051 H   0  0  0  0  0  0  0  0  0  0  0  0
   -2.0584    2.2686    6.6906 H   0  0  0  0  0  0  0  0  0  0  0  0
   -2.5243    2.9914    4.2471 H   0  0  0  0  0  0  0  0  0  0  0  0
   -0.4796    2.4581    1.5268 H   0  0  0  0  0  0  0  0  0  0  0  0
    0.8463    0.1234    2.0863 H   0  0  0  0  0  0  0  0  0  0  0  0
    0.9028    1.0589    5.7041 H   0  0  0  0  0  0  0  0  0  0  0  0
  1  2  1  0  0  0  0
  1 32  1  0  0  0  0
  2  3  2  0  0  0  0
  2  4  1  0  0  0  0
  4  5  1  0  0  0  0
  4 33  1  0  0  0  0
  4 34  1  0  0  0  0
  5  6  1  0  0  0  0
  5 35  1  0  0  0  0
  5 36  1  0  0  0  0
  6  7  1  0  0  0  0
  6 37  1  0  0  0  0
  6 38  1  0  0  0  0
  7  8  1  0  0  0  0
  7 39  1  0  0  0  0
  7 40  1  0  0  0  0
  8  9  1  0  0  0  0
  8 41  1  0  0  0  0
  8 42  1  0  0  0  0
  9 10  1  0  0  0  0
  9 43  1  0  0  0  0
  9 44  1  0  0  0  0
 10 11  1  0  0  0  0
 11 12  2  0  0  0  0
 11 30  1  0  0  0  0
 12 13  1  0  0  0  0
 12 14  1  0  0  0  0
 14 15  2  0  0  0  0
 14 45  1  0  0  0  0
 15 16  1  0  0  0  0
 15 29  1  0  0  0  0
 16 17  1  0  0  0  0
 16 46  1  0  0  0  0
 17 18  2  0  0  0  0
 17 19  1  0  0  0  0
 19 20  1  0  0  0  0
 19 47  1  0  0  0  0
 20 21  2  0  0  0  0
 20 22  1  0  0  0  0
 22 23  2  0  0  0  0
 22 27  1  0  0  0  0
 23 24  1  0  0  0  0
 23 48  1  0  0  0  0
 24 25  2  0  0  0  0
 24 49  1  0  0  0  0
 25 26  1  0  0  0  0
 25 50  1  0  0  0  0
 26 27  2  0  0  0  0
 26 51  1  0  0  0  0
 27 28  1  0  0  0  0
 29 30  2  0  0  0  0
 29 52  1  0  0  0  0
 30 31  1  0  0  0  0
M  END
>  <DRUGBANK_ID>
DB04642

>  <COMMON_NAME>
7-{2,6-DICHLORO-4-[3-(2-CHLORO-BENZOYL)-UREIDO]-PHENOXY}-HEPTANOIC ACID

$$$$
