
 OpenBabel10282417243D

191196  0  0  1  0  0  0  0  0999 V2000
    1.0407    0.0264   -0.0633 C   0  0  0  0  0  0  0  0  0  0  0  0
    0.2865    0.6627    1.3035 C   0  0  1  0  0  0  0  0  0  0  0  0
    1.0340    1.8950    1.4421 O   0  0  0  0  0  0  0  0  0  0  0  0
   -2.0028    1.0960    1.4482 C   0  0  1  0  0  0  0  0  0  0  0  0
   -1.5327   -0.8263    1.0850 C   0  0  0  0  0  0  0  0  0  0  0  0
   -0.9974   -1.6787    2.1141 O   0  0  0  0  0  0  0  0  0  0  0  0
   -4.2397    2.0814    1.6507 N   0  0  0  0  0  0  0  0  0  0  0  0
   -6.4993    3.0062    1.2051 C   0  0  0  0  0  0  0  0  0  0  0  0
   -5.0324    3.0662    2.1847 O   0  0  0  0  0  0  0  0  0  0  0  0
   -9.1230    3.8307    0.2383 C   0  0  0  0  0  0  0  0  0  0  0  0
  -11.8414    4.5382   -0.5096 C   0  0  0  0  0  0  0  0  0  0  0  0
  -15.0591    4.9230   -1.0270 S   0  0  0  0  0  0  0  0  0  0  0  0
  -17.8431    4.4999   -2.5818 S   0  0  0  0  0  0  0  0  0  0  0  0
  -18.4752    2.8952   -4.3365 C   0  0  0  0  0  0  0  0  0  0  0  0
  -17.3584    3.1962   -5.1670 C   0  0  2  0  0  0  0  0  0  0  0  0
  -16.6158    2.0652   -5.4367 N   0  0  0  0  0  0  0  0  0  0  0  0
  -16.1086    2.0794   -6.5561 C   0  0  0  0  0  0  0  0  0  0  0  0
  -15.1589    1.2097   -6.5472 O   0  0  0  0  0  0  0  0  0  0  0  0
  -16.7430    2.8609   -7.9881 C   0  0  1  0  0  0  0  0  0  0  0  0
  -17.9824    2.1754   -8.2772 C   0  0  0  0  0  0  0  0  0  0  0  0
  -18.8424    2.3080   -7.1080 C   0  0  0  0  0  0  0  0  0  0  0  0
  -19.5185    3.5116   -6.9073 C   0  0  0  0  0  0  0  0  0  0  0  0
  -20.4750    3.6249   -5.9238 C   0  0  0  0  0  0  0  0  0  0  0  0
  -20.7860    2.5762   -5.0549 C   0  0  0  0  0  0  0  0  0  0  0  0
  -20.2291    1.2995   -5.3504 C   0  0  0  0  0  0  0  0  0  0  0  0
  -19.0399    1.1992   -6.2775 C   0  0  0  0  0  0  0  0  0  0  0  0
  -16.7702    4.2469   -7.8023 N   0  0  0  0  0  0  0  0  0  0  0  0
  -16.1556    5.3008   -8.6438 C   0  0  0  0  0  0  0  0  0  0  0  0
  -16.0829    6.4479   -8.2977 O   0  0  0  0  0  0  0  0  0  0  0  0
  -15.1877    4.7138   -9.8705 C   0  0  0  0  0  0  0  0  0  0  0  0
  -14.0824    3.8052   -9.4255 N   0  0  0  0  0  0  0  0  0  0  0  0
  -12.8273    4.5118   -9.5382 C   0  0  0  0  0  0  0  0  0  0  0  0
  -12.5149    5.5479   -8.4847 C   0  0  0  0  0  0  0  0  0  0  0  0
  -11.8270    5.0131   -7.3110 N   0  0  0  0  0  0  0  0  0  0  0  0
  -11.2685    6.1155   -6.5365 C   0  0  0  0  0  0  0  0  0  0  0  0
  -12.3683    7.0715   -6.0606 C   0  0  0  0  0  0  0  0  0  0  0  0
  -12.5050    7.2604   -4.7269 O   0  0  0  0  0  0  0  0  0  0  0  0
  -13.1046    7.6324   -6.8718 O   0  0  0  0  0  0  0  0  0  0  0  0
  -12.6845    4.3343   -6.4124 C   0  0  0  0  0  0  0  0  0  0  0  0
  -12.0390    3.1966   -5.6409 C   0  0  0  0  0  0  0  0  0  0  0  0
  -11.9891    1.9033   -6.3587 N   0  0  0  0  0  0  0  0  0  0  0  0
  -10.9101    1.0992   -5.8271 C   0  0  0  0  0  0  0  0  0  0  0  0
  -11.1006    0.8428   -4.3265 C   0  0  0  0  0  0  0  0  0  0  0  0
  -11.2209   -0.4717   -3.9021 O   0  0  0  0  0  0  0  0  0  0  0  0
  -11.1773    1.7958   -3.5510 O   0  0  0  0  0  0  0  0  0  0  0  0
  -13.1169    1.0683   -6.1345 C   0  0  0  0  0  0  0  0  0  0  0  0
  -13.5553    0.1087   -7.2311 C   0  0  0  0  0  0  0  0  0  0  0  0
  -14.1902    0.6176   -8.4901 N   0  0  0  0  0  0  0  0  0  0  0  0
  -15.1870    1.4822   -8.2700 C   0  0  0  0  0  0  0  0  0  0  0  0
  -14.5468    2.9338   -7.2619 C   0  0  0  0  0  0  0  0  0  0  0  0
  -14.8448    4.1418   -7.5469 O   0  0  0  0  0  0  0  0  0  0  0  0
  -14.1885    3.0080   -6.0727 O   0  0  0  0  0  0  0  0  0  0  0  0
  -13.3251    1.4270   -9.2635 C   0  0  0  0  0  0  0  0  0  0  0  0
  -14.0397    2.5146  -10.0733 C   0  0  0  0  0  0  0  0  0  0  0  0
  -16.5682    4.1635   -4.3873 C   0  0  0  0  0  0  0  0  0  0  0  0
  -17.0443    5.3006   -4.1801 O   0  0  0  0  0  0  0  0  0  0  0  0
  -15.3342    3.7891   -3.9610 N   0  0  0  0  0  0  0  0  0  0  0  0
  -14.6533    4.7253   -3.3738 C   0  0  0  0  0  0  0  0  0  0  0  0
  -15.3702    6.1591   -2.9714 C   0  0  0  0  0  0  0  0  0  0  0  0
  -15.1366    7.1360   -1.6359 C   0  0  0  0  0  0  0  0  0  0  0  0
  -15.2673    8.4006   -1.9105 C   0  0  0  0  0  0  0  0  0  0  0  0
  -14.7621    9.2854   -0.9942 C   0  0  0  0  0  0  0  0  0  0  0  0
  -14.1808    8.9622    0.2385 C   0  0  0  0  0  0  0  0  0  0  0  0
  -13.2148    9.7910    0.9143 O   0  0  0  0  0  0  0  0  0  0  0  0
  -14.3147    7.5244    0.6436 C   0  0  0  0  0  0  0  0  0  0  0  0
  -14.3761    6.8110   -0.3889 C   0  0  0  0  0  0  0  0  0  0  0  0
  -14.2946    4.1046   -2.3596 C   0  0  0  0  0  0  0  0  0  0  0  0
  -15.2110    3.1491   -1.2247 O   0  0  0  0  0  0  0  0  0  0  0  0
  -12.5041    3.4959   -2.0085 N   0  0  0  0  0  0  0  0  0  0  0  0
  -12.1538    2.9244   -0.0782 C   0  0  2  0  0  0  0  0  0  0  0  0
  -11.4949    4.1233    1.0062 C   0  0  0  0  0  0  0  0  0  0  0  0
  -12.6057    5.1380    1.2270 C   0  0  0  0  0  0  0  0  0  0  0  0
  -13.9052    4.0479    0.4916 C   0  0  0  0  0  0  0  0  0  0  0  0
  -13.5817    3.7905   -0.8710 N   0  0  0  0  0  0  0  0  0  0  0  0
  -12.8557    5.6156   -1.7585 C   0  0  0  0  0  0  0  0  0  0  0  0
  -13.3435    6.4944   -2.6638 C   0  0  0  0  0  0  0  0  0  0  0  0
  -13.2386    7.7832   -2.5386 C   0  0  0  0  0  0  0  0  0  0  0  0
  -12.7883    8.3594   -1.4175 C   0  0  0  0  0  0  0  0  0  0  0  0
  -12.3168    7.7536   -0.2653 C   0  0  0  0  0  0  0  0  0  0  0  0
  -12.3455    6.4179   -0.1835 C   0  0  0  0  0  0  0  0  0  0  0  0
  -11.4423    1.9171   -0.4274 C   0  0  0  0  0  0  0  0  0  0  0  0
  -12.0067    1.1197   -1.1364 O   0  0  0  0  0  0  0  0  0  0  0  0
  -10.2057    1.9072    0.1458 N   0  0  0  0  0  0  0  0  0  0  0  0
   -9.3354    0.7861   -0.1487 C   0  0  1  0  0  0  0  0  0  0  0  0
  -10.0664   -0.1922   -1.0490 C   0  0  0  0  0  0  0  0  0  0  0  0
   -9.2194   -1.3834   -1.3540 C   0  0  0  0  0  0  0  0  0  0  0  0
   -8.8633   -2.0950   -0.0686 C   0  0  0  0  0  0  0  0  0  0  0  0
  -10.1219   -2.5604    0.6327 C   0  0  0  0  0  0  0  0  0  0  0  0
  -10.8535   -3.4819   -0.2269 N   0  0  0  0  0  0  0  0  0  0  0  0
   -8.0607    1.2384   -0.8612 C   0  0  0  0  0  0  0  0  0  0  0  0
   -8.2056    1.8601   -1.9153 O   0  0  0  0  0  0  0  0  0  0  0  0
   -6.7910    0.9128   -0.2763 N   0  0  0  0  0  0  0  0  0  0  0  0
   -5.5926    1.3446   -1.0028 C   0  0  0  0  0  0  0  0  0  0  0  0
   -5.8787    2.1152   -2.2446 C   0  0  1  0  0  0  0  0  0  0  0  0
   -4.6353    2.5827   -2.9277 C   0  0  0  0  0  0  0  0  0  0  0  0
   -6.5665    1.2124   -3.1097 O   0  0  0  0  0  0  0  0  0  0  0  0
   -5.0338    2.3305   -0.2229 C   0  0  0  0  0  0  0  0  0  0  0  0
   -4.8405    3.5119    0.0180 O   0  0  0  0  0  0  0  0  0  0  0  0
   -6.8391    3.0577    0.1682 N   0  0  0  0  0  0  0  0  0  0  0  0
    0.7047    0.6424   -0.8820 H   0  0  0  0  0  0  0  0  0  0  0  0
    0.7118   -0.9912   -0.2214 H   0  0  0  0  0  0  0  0  0  0  0  0
    2.1399    0.0186   -0.0758 H   0  0  0  0  0  0  0  0  0  0  0  0
    0.8950   -0.0562    2.0570 H   0  0  0  0  0  0  0  0  0  0  0  0
    2.0164    1.8736    1.4367 H   0  0  0  0  0  0  0  0  0  0  0  0
   -1.3825    1.2198    0.4280 H   0  0  0  0  0  0  0  0  0  0  0  0
   -2.5663   -0.8922    1.0502 H   0  0  0  0  0  0  0  0  0  0  0  0
   -1.1263   -1.2319    0.1143 H   0  0  0  0  0  0  0  0  0  0  0  0
   -0.0148   -1.6950    2.1066 H   0  0  0  0  0  0  0  0  0  0  0  0
   -2.8056    1.5021    2.5378 H   0  0  0  0  0  0  0  0  0  0  0  0
   -7.4639    4.1982    0.5696 H   0  0  0  0  0  0  0  0  0  0  0  0
  -13.7469    5.1466   -0.7829 H   0  0  0  0  0  0  0  0  0  0  0  0
  -13.7062    5.2439   -0.8105 H   0  0  0  0  0  0  0  0  0  0  0  0
  -18.9820    2.3054   -4.9945 H   0  0  0  0  0  0  0  0  0  0  0  0
  -18.4028    2.2128   -3.5854 H   0  0  0  0  0  0  0  0  0  0  0  0
  -17.6744    3.6751   -6.0563 H   0  0  0  0  0  0  0  0  0  0  0  0
  -16.1296    1.5458   -4.7429 H   0  0  0  0  0  0  0  0  0  0  0  0
  -16.1150    2.9388   -8.9536 H   0  0  0  0  0  0  0  0  0  0  0  0
  -18.4165    2.6811   -9.1148 H   0  0  0  0  0  0  0  0  0  0  0  0
  -17.8880    1.1167   -8.5078 H   0  0  0  0  0  0  0  0  0  0  0  0
  -19.2607    4.3543   -7.5127 H   0  0  0  0  0  0  0  0  0  0  0  0
  -20.9933    4.5460   -5.8060 H   0  0  0  0  0  0  0  0  0  0  0  0
  -21.3159    2.7327   -4.1418 H   0  0  0  0  0  0  0  0  0  0  0  0
  -20.3890    0.5362   -4.6799 H   0  0  0  0  0  0  0  0  0  0  0  0
  -18.2897    0.4401   -6.1331 H   0  0  0  0  0  0  0  0  0  0  0  0
  -17.1680    4.5555   -6.9607 H   0  0  0  0  0  0  0  0  0  0  0  0
  -15.8374    4.1488  -10.4784 H   0  0  0  0  0  0  0  0  0  0  0  0
  -14.7593    5.5545  -10.3050 H   0  0  0  0  0  0  0  0  0  0  0  0
  -12.0410    3.7821   -9.4922 H   0  0  0  0  0  0  0  0  0  0  0  0
  -12.8742    5.0106  -10.4990 H   0  0  0  0  0  0  0  0  0  0  0  0
  -11.8311    6.2575   -8.9404 H   0  0  0  0  0  0  0  0  0  0  0  0
  -13.4340    6.0283   -8.1903 H   0  0  0  0  0  0  0  0  0  0  0  0
  -10.7215    5.7174   -5.6944 H   0  0  0  0  0  0  0  0  0  0  0  0
  -10.5750    6.6581   -7.1724 H   0  0  0  0  0  0  0  0  0  0  0  0
  -11.9363    6.8148   -4.0411 H   0  0  0  0  0  0  0  0  0  0  0  0
  -13.2197    4.9769   -5.7329 H   0  0  0  0  0  0  0  0  0  0  0  0
  -13.3238    3.9470   -7.0660 H   0  0  0  0  0  0  0  0  0  0  0  0
  -11.0403    3.5236   -5.4757 H   0  0  0  0  0  0  0  0  0  0  0  0
  -12.5691    3.0674   -4.6937 H   0  0  0  0  0  0  0  0  0  0  0  0
  -10.8716    0.1651   -6.3677 H   0  0  0  0  0  0  0  0  0  0  0  0
   -9.9833    1.6339   -5.9879 H   0  0  0  0  0  0  0  0  0  0  0  0
  -11.1664   -1.2338   -4.5188 H   0  0  0  0  0  0  0  0  0  0  0  0
  -13.1723    0.6235   -5.1915 H   0  0  0  0  0  0  0  0  0  0  0  0
  -13.9115    1.5610   -5.8571 H   0  0  0  0  0  0  0  0  0  0  0  0
  -12.6566   -0.3032   -7.5313 H   0  0  0  0  0  0  0  0  0  0  0  0
  -14.2507   -0.6083   -6.7621 H   0  0  0  0  0  0  0  0  0  0  0  0
  -15.8626    1.6151   -8.9533 H   0  0  0  0  0  0  0  0  0  0  0  0
  -16.1437    0.8197   -7.5857 H   0  0  0  0  0  0  0  0  0  0  0  0
  -15.2515    4.0596   -8.3759 H   0  0  0  0  0  0  0  0  0  0  0  0
  -12.5874    1.8998   -8.6452 H   0  0  0  0  0  0  0  0  0  0  0  0
  -12.8823    0.7314   -9.9431 H   0  0  0  0  0  0  0  0  0  0  0  0
  -15.0581    2.1860  -10.2486 H   0  0  0  0  0  0  0  0  0  0  0  0
  -13.5477    2.6412  -10.9995 H   0  0  0  0  0  0  0  0  0  0  0  0
  -14.8426    2.9661   -4.2279 H   0  0  0  0  0  0  0  0  0  0  0  0
  -13.6021    4.8597   -3.6476 H   0  0  0  0  0  0  0  0  0  0  0  0
  -15.7277    6.5557   -3.7596 H   0  0  0  0  0  0  0  0  0  0  0  0
  -16.0727    5.9175   -2.4617 H   0  0  0  0  0  0  0  0  0  0  0  0
  -15.4456    8.5879   -2.9315 H   0  0  0  0  0  0  0  0  0  0  0  0
  -14.7238   10.2607   -1.2552 H   0  0  0  0  0  0  0  0  0  0  0  0
  -13.2957   10.7132    0.7008 H   0  0  0  0  0  0  0  0  0  0  0  0
  -13.4426    7.0808    1.3290 H   0  0  0  0  0  0  0  0  0  0  0  0
  -13.6028    5.6241    0.2649 H   0  0  0  0  0  0  0  0  0  0  0  0
  -11.9230    4.2998   -2.0949 H   0  0  0  0  0  0  0  0  0  0  0  0
  -13.0979    2.5257    0.4962 H   0  0  0  0  0  0  0  0  0  0  0  0
  -11.3464    3.6942    1.8030 H   0  0  0  0  0  0  0  0  0  0  0  0
  -10.7171    4.5629    0.3570 H   0  0  0  0  0  0  0  0  0  0  0  0
  -13.2962    3.8321    1.1048 H   0  0  0  0  0  0  0  0  0  0  0  0
  -13.9513    2.9710   -2.1414 H   0  0  0  0  0  0  0  0  0  0  0  0
  -13.9186    6.1802   -3.4012 H   0  0  0  0  0  0  0  0  0  0  0  0
  -13.8769    8.3172   -3.2309 H   0  0  0  0  0  0  0  0  0  0  0  0
  -12.9275    9.4383   -1.2381 H   0  0  0  0  0  0  0  0  0  0  0  0
  -12.6888    8.1940    0.8707 H   0  0  0  0  0  0  0  0  0  0  0  0
   -9.8653    2.6137    0.7732 H   0  0  0  0  0  0  0  0  0  0  0  0
   -9.0787    0.2942    0.7781 H   0  0  0  0  0  0  0  0  0  0  0  0
  -10.9892   -0.5118   -0.5570 H   0  0  0  0  0  0  0  0  0  0  0  0
  -10.3408    0.3108   -1.9687 H   0  0  0  0  0  0  0  0  0  0  0  0
   -9.7559   -2.0598   -2.0073 H   0  0  0  0  0  0  0  0  0  0  0  0
   -8.3213   -1.0620   -1.8623 H   0  0  0  0  0  0  0  0  0  0  0  0
   -8.2308   -2.9449   -0.2839 H   0  0  0  0  0  0  0  0  0  0  0  0
   -8.3095   -1.4205    0.5780 H   0  0  0  0  0  0  0  0  0  0  0  0
   -9.8614   -3.0513    1.5601 H   0  0  0  0  0  0  0  0  0  0  0  0
  -10.7439   -1.7026    0.8693 H   0  0  0  0  0  0  0  0  0  0  0  0
  -11.7084   -3.7827    0.2363 H   0  0  0  0  0  0  0  0  0  0  0  0
  -11.1115   -3.0074   -1.0964 H   0  0  0  0  0  0  0  0  0  0  0  0
   -6.6982    0.4806    0.6387 H   0  0  0  0  0  0  0  0  0  0  0  0
   -4.9101    0.5465   -1.1483 H   0  0  0  0  0  0  0  0  0  0  0  0
   -6.5071    2.9854   -2.0201 H   0  0  0  0  0  0  0  0  0  0  0  0
   -4.0075    1.7297   -3.1503 H   0  0  0  0  0  0  0  0  0  0  0  0
   -4.8898    3.0845   -3.8491 H   0  0  0  0  0  0  0  0  0  0  0  0
   -4.0871    3.2672   -2.2933 H   0  0  0  0  0  0  0  0  0  0  0  0
   -6.0333    0.4359   -3.2689 H   0  0  0  0  0  0  0  0  0  0  0  0
   -5.2808    2.4423    0.3506 H   0  0  0  0  0  0  0  0  0  0  0  0
  1100  1  0  0  0  0
  1101  1  0  0  0  0
  1102  1  0  0  0  0
  2  1  1  0  0  0  0
  2  3  1  0  0  0  0
  2  4  1  0  0  0  0
  2103  1  1  0  0  0
  3104  1  0  0  0  0
  4  5  1  0  0  0  0
  4  7  1  0  0  0  0
  4105  1  6  0  0  0
  5  6  1  0  0  0  0
  5106  1  0  0  0  0
  5107  1  0  0  0  0
  6108  1  0  0  0  0
  7  8  1  0  0  0  0
  7109  1  0  0  0  0
  8  9  2  0  0  0  0
 10  8  1  0  0  0  0
 10 11  1  0  0  0  0
 10 99  1  0  0  0  0
 10110  1  0  0  0  0
 11 12  1  0  0  0  0
 11111  1  0  0  0  0
 11112  1  0  0  0  0
 12 13  1  0  0  0  0
 13 14  1  0  0  0  0
 14113  1  0  0  0  0
 14114  1  0  0  0  0
 15 14  1  0  0  0  0
 15 55  1  0  0  0  0
 15115  1  6  0  0  0
 15 16  1  0  0  0  0
 16 17  1  0  0  0  0
 16116  1  0  0  0  0
 17 18  2  0  0  0  0
 19 17  1  0  0  0  0
 19 20  1  0  0  0  0
 19 27  1  0  0  0  0
 19117  1  6  0  0  0
 20 21  1  0  0  0  0
 20118  1  0  0  0  0
 20119  1  0  0  0  0
 21 22  2  0  0  0  0
 21 26  1  0  0  0  0
 22 23  1  0  0  0  0
 22120  1  0  0  0  0
 23 24  2  0  0  0  0
 23121  1  0  0  0  0
 24 25  1  0  0  0  0
 24122  1  0  0  0  0
 25 26  2  0  0  0  0
 25123  1  0  0  0  0
 26124  1  0  0  0  0
 27 28  1  0  0  0  0
 27125  1  0  0  0  0
 28 29  2  0  0  0  0
 28 30  1  0  0  0  0
 30 31  1  0  0  0  0
 30126  1  0  0  0  0
 30127  1  0  0  0  0
 31 32  1  0  0  0  0
 31 54  1  0  0  0  0
 32 33  1  0  0  0  0
 32128  1  0  0  0  0
 32129  1  0  0  0  0
 33 34  1  0  0  0  0
 33130  1  0  0  0  0
 33131  1  0  0  0  0
 34 35  1  0  0  0  0
 34 39  1  0  0  0  0
 35 36  1  0  0  0  0
 35132  1  0  0  0  0
 35133  1  0  0  0  0
 36 37  1  0  0  0  0
 36 38  2  0  0  0  0
 37134  1  0  0  0  0
 39 40  1  0  0  0  0
 39135  1  0  0  0  0
 39136  1  0  0  0  0
 40 41  1  0  0  0  0
 40137  1  0  0  0  0
 40138  1  0  0  0  0
 41 42  1  0  0  0  0
 41 46  1  0  0  0  0
 42 43  1  0  0  0  0
 42139  1  0  0  0  0
 42140  1  0  0  0  0
 43 44  1  0  0  0  0
 43 45  2  0  0  0  0
 44141  1  0  0  0  0
 46 47  1  0  0  0  0
 46142  1  0  0  0  0
 46143  1  0  0  0  0
 47 48  1  0  0  0  0
 47144  1  0  0  0  0
 47145  1  0  0  0  0
 48 49  1  0  0  0  0
 48 53  1  0  0  0  0
 49 50  1  0  0  0  0
 49146  1  0  0  0  0
 49147  1  0  0  0  0
 50 51  1  0  0  0  0
 50 52  2  0  0  0  0
 51148  1  0  0  0  0
 53 54  1  0  0  0  0
 53149  1  0  0  0  0
 53150  1  0  0  0  0
 54151  1  0  0  0  0
 54152  1  0  0  0  0
 55 56  2  0  0  0  0
 55 57  1  0  0  0  0
 57153  1  0  0  0  0
 58 57  1  0  0  0  0
 58 59  1  0  0  0  0
 58 67  1  0  0  0  0
 58154  1  0  0  0  0
 59 60  1  0  0  0  0
 59155  1  0  0  0  0
 59156  1  0  0  0  0
 60 61  2  0  0  0  0
 60 66  1  0  0  0  0
 61 62  1  0  0  0  0
 61157  1  0  0  0  0
 62 63  2  0  0  0  0
 62158  1  0  0  0  0
 63 64  1  0  0  0  0
 63 65  1  0  0  0  0
 64159  1  0  0  0  0
 65 66  2  0  0  0  0
 65160  1  0  0  0  0
 66161  1  0  0  0  0
 67 68  2  0  0  0  0
 67 69  1  0  0  0  0
 69162  1  0  0  0  0
 70 69  1  0  0  0  0
 70 81  1  0  0  0  0
 70163  1  1  0  0  0
 70 71  1  0  0  0  0
 71 72  1  0  0  0  0
 71164  1  0  0  0  0
 71165  1  0  0  0  0
 72 73  2  0  0  0  0
 72 80  1  0  0  0  0
 73 74  1  0  0  0  0
 73166  1  0  0  0  0
 74 75  1  0  0  0  0
 74167  1  0  0  0  0
 75 76  2  0  0  0  0
 75 80  1  0  0  0  0
 76 77  1  0  0  0  0
 76168  1  0  0  0  0
 77 78  2  0  0  0  0
 77169  1  0  0  0  0
 78 79  1  0  0  0  0
 78170  1  0  0  0  0
 79 80  2  0  0  0  0
 79171  1  0  0  0  0
 81 82  2  0  0  0  0
 81 83  1  0  0  0  0
 83172  1  0  0  0  0
 84 83  1  0  0  0  0
 84 85  1  0  0  0  0
 84 90  1  0  0  0  0
 84173  1  1  0  0  0
 85 86  1  0  0  0  0
 85174  1  0  0  0  0
 85175  1  0  0  0  0
 86 87  1  0  0  0  0
 86176  1  0  0  0  0
 86177  1  0  0  0  0
 87 88  1  0  0  0  0
 87178  1  0  0  0  0
 87179  1  0  0  0  0
 88 89  1  0  0  0  0
 88180  1  0  0  0  0
 88181  1  0  0  0  0
 89182  1  0  0  0  0
 89183  1  0  0  0  0
 90 91  2  0  0  0  0
 90 92  1  0  0  0  0
 92184  1  0  0  0  0
 93 92  1  0  0  0  0
 93 94  1  0  0  0  0
 93 97  1  0  0  0  0
 93185  1  0  0  0  0
 94 95  1  0  0  0  0
 94 96  1  0  0  0  0
 94186  1  1  0  0  0
 95187  1  0  0  0  0
 95188  1  0  0  0  0
 95189  1  0  0  0  0
 96190  1  0  0  0  0
 97 98  2  0  0  0  0
 97 99  1  0  0  0  0
 99191  1  0  0  0  0
M  END
>  <DRUGBANK_ID>
DB17969

>  <COMMON_NAME>
Edotreotide

>  <CAS_NUMBER>
204318-14-9

>  <UNII>
U194AS08HZ

>  <SYNONYMS>
Dotatoc; L-cysteinamide, n-((4,7,10-tris(carboxymetnyl)-1,4,7,10-tetraazacyclodec-1-yl)acetyl)-d-phenylalanyl-l-cysteinyl-l-tyrosyl-d-tryptophyl-l-lysyl-l-threonyl-n-((1r,2r)-2-hydroxy-1-(hydroxymethyl)propyl)-, cyclic(2->7)-disulfide; N-((4,7,10-tris(carboxymethyl)-1,4,7,10-tetraazacycoldodec-1-yl)acetyl-d-phenylalanyl-l-cysteinyl-l-tyrosyl-d-tryprophyl-l-lysyl-l-threonyl-n-((1r,2r)-2-hydroxy-1-(hydroxymethyl)propyl)-l-cysteinamide cyclic (2->7)-disulfide

$$$$
