124
 OpenBabel10282417123D

 33 35  0  0  0  0  0  0  0  0999 V2000
    2.2022   -0.7235   -0.0162 C   0  0  0  0  0  0  0  0  0  0  0  0
    2.1307    0.6855   -0.0261 C   0  0  0  0  0  0  0  0  0  0  0  0
    0.9111    1.3901    0.0006 C   0  0  0  0  0  0  0  0  0  0  0  0
   -0.2660    0.6398    0.0110 C   0  0  0  0  0  0  0  0  0  0  0  0
   -0.2476   -0.7494    0.0189 C   0  0  0  0  0  0  0  0  0  0  0  0
    0.9850   -1.4267    0.0207 C   0  0  0  0  0  0  0  0  0  0  0  0
    3.4978   -1.4572   -0.0537 C   0  0  0  0  0  0  0  0  0  0  0  0
    3.5351   -2.7789   -0.0439 N   0  0  0  0  0  0  0  0  0  0  0  0
    4.6415   -0.8091   -0.1021 N   0  3  0  0  0  0  0  0  0  0  0  0
   -1.5932    1.0239    0.0135 N   0  0  0  0  0  0  0  0  0  0  0  0
   -1.5882   -1.1941    0.0028 C   0  0  0  0  0  0  0  0  0  0  0  0
   -2.4087   -0.0870   -0.0525 C   0  0  0  0  0  0  0  0  0  0  0  0
   -3.8652   -0.0451   -0.1505 C   0  0  0  0  0  0  0  0  0  0  0  0
   -4.6270   -0.7037    0.8278 C   0  0  0  0  0  0  0  0  0  0  0  0
   -6.0211   -0.7370    0.7462 C   0  0  0  0  0  0  0  0  0  0  0  0
   -6.6697   -0.1184   -0.3198 C   0  0  0  0  0  0  0  0  0  0  0  0
   -5.9257    0.5263   -1.3074 C   0  0  0  0  0  0  0  0  0  0  0  0
   -4.5343    0.5589   -1.2246 C   0  0  0  0  0  0  0  0  0  0  0  0
   -3.8828    1.1790   -2.2568 O   0  0  0  0  0  0  0  0  0  0  0  0
    3.0245    1.3028   -0.0589 H   0  0  0  0  0  0  0  0  0  0  0  0
    0.8958    2.4776   -0.0027 H   0  0  0  0  0  0  0  0  0  0  0  0
    0.9281   -2.5077    0.0328 H   0  0  0  0  0  0  0  0  0  0  0  0
    4.4015   -3.2980   -0.0705 H   0  0  0  0  0  0  0  0  0  0  0  0
    2.6956   -3.3407   -0.0103 H   0  0  0  0  0  0  0  0  0  0  0  0
    4.6775    0.2016   -0.1149 H   0  0  0  0  0  0  0  0  0  0  0  0
    5.5336   -1.2836   -0.1302 H   0  0  0  0  0  0  0  0  0  0  0  0
   -1.9243    1.9811    0.0321 H   0  0  0  0  0  0  0  0  0  0  0  0
   -1.9287   -2.2216   -0.0153 H   0  0  0  0  0  0  0  0  0  0  0  0
   -4.1397   -1.2011    1.6639 H   0  0  0  0  0  0  0  0  0  0  0  0
   -6.6001   -1.2486    1.5116 H   0  0  0  0  0  0  0  0  0  0  0  0
   -7.7547   -0.1427   -0.3859 H   0  0  0  0  0  0  0  0  0  0  0  0
   -6.4304    0.9905   -2.1505 H   0  0  0  0  0  0  0  0  0  0  0  0
   -2.9395    0.9575   -2.2037 H   0  0  0  0  0  0  0  0  0  0  0  0
  1  2  1  0  0  0  0
  1  6  2  0  0  0  0
  1  7  1  0  0  0  0
  2  3  2  0  0  0  0
  2 20  1  0  0  0  0
  3  4  1  0  0  0  0
  3 21  1  0  0  0  0
  4  5  2  0  0  0  0
  4 10  1  0  0  0  0
  5  6  1  0  0  0  0
  5 11  1  0  0  0  0
  6 22  1  0  0  0  0
  7  8  1  0  0  0  0
  7  9  2  0  0  0  0
  8 23  1  0  0  0  0
  8 24  1  0  0  0  0
  9 25  1  0  0  0  0
  9 26  1  0  0  0  0
 10 12  1  0  0  0  0
 10 27  1  0  0  0  0
 11 12  2  0  0  0  0
 11 28  1  0  0  0  0
 12 13  1  0  0  0  0
 13 14  2  0  0  0  0
 13 18  1  0  0  0  0
 14 15  1  0  0  0  0
 14 29  1  0  0  0  0
 15 16  2  0  0  0  0
 15 30  1  0  0  0  0
 16 17  1  0  0  0  0
 16 31  1  0  0  0  0
 17 18  2  0  0  0  0
 17 32  1  0  0  0  0
 18 19  1  0  0  0  0
 19 33  1  0  0  0  0
M  CHG  1   9   1
M  END
>  <DRUGBANK_ID>
DB02463

>  <SECONDARY_ACCESSION_NUMBERS>
EXPT00018

>  <COMMON_NAME>
2-(2-Hydroxy-Phenyl)-1h-Indole-5-Carboxamidine

$$$$
