
 OpenBabel10282417153D

 89 93  0  0  1  0  0  0  0  0999 V2000
   -9.1294    0.3049   -0.1263 Cl  0  0  0  0  0  0  0  0  0  0  0  0
   -8.4521   -2.8887    0.0957 Cl  0  0  0  0  0  0  0  0  0  0  0  0
    1.3138   -0.2918    0.2073 Cl  0  5  0  0  0  0  0  0  0  0  0  0
   -7.3902    3.7545   -2.1584 O   0  0  0  0  0  0  0  0  0  0  0  0
   -3.4748    5.5588   -5.3435 O   0  0  0  0  0  0  0  0  0  0  0  0
   -1.2868    2.6087   -1.2809 N   0  3  3  0  0  0  0  0  0  0  0  0
   -5.4864    2.9800   -1.1772 N   0  0  0  0  0  0  0  0  0  0  0  0
   -0.8451    5.1484   -1.1165 C   0  0  3  0  0  0  0  0  0  0  0  0
    0.2069    2.8343   -1.5034 C   0  0  0  0  0  0  0  0  0  0  0  0
   -1.4937    3.1654    0.1010 C   0  0  0  0  0  0  0  0  0  0  0  0
   -1.9228    3.3426   -2.4646 C   0  0  0  0  0  0  0  0  0  0  0  0
    0.4483    4.3608   -1.4425 C   0  0  0  0  0  0  0  0  0  0  0  0
   -1.3653    4.6320    0.2075 C   0  0  0  0  0  0  0  0  0  0  0  0
   -1.8762    4.8186   -2.2077 C   0  0  0  0  0  0  0  0  0  0  0  0
   -1.6737    1.1157   -1.2703 C   0  0  0  0  0  0  0  0  0  0  0  0
   -2.5502    0.6876   -0.0444 C   0  0  0  0  0  0  0  0  0  0  0  0
   -0.6869    6.6413   -1.0473 C   0  0  0  0  0  0  0  0  0  0  0  0
   -4.0517    1.2633    0.0769 C   0  0  1  0  0  0  0  0  0  0  0  0
   -4.2273    2.1453    1.3903 C   0  0  0  0  0  0  0  0  0  0  0  0
   -4.3540    2.1111   -1.1650 C   0  0  0  0  0  0  0  0  0  0  0  0
   -0.2406    7.2998   -2.1935 C   0  0  0  0  0  0  0  0  0  0  0  0
   -1.0571    7.3972    0.0807 C   0  0  0  0  0  0  0  0  0  0  0  0
   -5.1340    0.1856    0.0505 C   0  0  0  0  0  0  0  0  0  0  0  0
   -5.3854    3.1592    1.3124 C   0  0  0  0  0  0  0  0  0  0  0  0
   -5.5162    3.9084   -0.0348 C   0  0  0  0  0  0  0  0  0  0  0  0
   -0.1617    8.6787   -2.2169 C   0  0  0  0  0  0  0  0  0  0  0  0
   -1.0190    8.7798    0.0408 C   0  0  0  0  0  0  0  0  0  0  0  0
   -6.4933    0.5585   -0.0227 C   0  0  0  0  0  0  0  0  0  0  0  0
   -4.8590   -1.1735    0.0466 C   0  0  0  0  0  0  0  0  0  0  0  0
   -0.5461    9.4157   -1.1001 C   0  0  0  0  0  0  0  0  0  0  0  0
   -6.4317    3.0026   -2.2091 C   0  0  0  0  0  0  0  0  0  0  0  0
   -7.5356   -0.3441   -0.0359 C   0  0  0  0  0  0  0  0  0  0  0  0
   -5.8969   -2.0970    0.0441 C   0  0  0  0  0  0  0  0  0  0  0  0
   -6.2511    2.0357   -3.4326 C   0  0  0  0  0  0  0  0  0  0  0  0
   -7.2310   -1.6879    0.0260 C   0  0  0  0  0  0  0  0  0  0  0  0
   -5.0672    2.3792   -4.3169 C   0  0  0  0  0  0  0  0  0  0  0  0
   -4.8747    3.7241   -4.5954 C   0  0  0  0  0  0  0  0  0  0  0  0
   -4.1280    1.4712   -4.8004 C   0  0  0  0  0  0  0  0  0  0  0  0
   -3.7419    4.2249   -5.2208 C   0  0  0  0  0  0  0  0  0  0  0  0
   -2.9659    1.9449   -5.4306 C   0  0  0  0  0  0  0  0  0  0  0  0
   -2.7774    3.3192   -5.6524 C   0  0  0  0  0  0  0  0  0  0  0  0
   -4.4482    6.5192   -4.8719 C   0  0  0  0  0  0  0  0  0  0  0  0
   -5.7692    6.4589   -5.6492 C   0  0  0  0  0  0  0  0  0  0  0  0
   -4.6038    6.5434   -3.3435 C   0  0  0  0  0  0  0  0  0  0  0  0
    0.4648    2.4038   -2.4761 H   0  0  0  0  0  0  0  0  0  0  0  0
    0.7477    2.3351   -0.7066 H   0  0  0  0  0  0  0  0  0  0  0  0
   -0.9147    2.6178    0.8516 H   0  0  0  0  0  0  0  0  0  0  0  0
   -2.5215    3.0495    0.2672 H   0  0  0  0  0  0  0  0  0  0  0  0
   -1.4001    3.0164   -3.3633 H   0  0  0  0  0  0  0  0  0  0  0  0
   -2.9453    3.0722   -2.6826 H   0  0  0  0  0  0  0  0  0  0  0  0
    1.2001    4.5683   -0.6753 H   0  0  0  0  0  0  0  0  0  0  0  0
    0.8574    4.6816   -2.4035 H   0  0  0  0  0  0  0  0  0  0  0  0
   -0.7208    4.8607    1.0633 H   0  0  0  0  0  0  0  0  0  0  0  0
   -2.3566    5.0508    0.4598 H   0  0  0  0  0  0  0  0  0  0  0  0
   -2.8649    5.1597   -1.8823 H   0  0  0  0  0  0  0  0  0  0  0  0
   -1.6729    5.3027   -3.1669 H   0  0  0  0  0  0  0  0  0  0  0  0
   -0.7545    0.5441   -1.3108 H   0  0  0  0  0  0  0  0  0  0  0  0
   -2.1854    0.8808   -2.2105 H   0  0  0  0  0  0  0  0  0  0  0  0
   -2.0220    0.8672    0.9008 H   0  0  0  0  0  0  0  0  0  0  0  0
   -2.5090   -0.3958   -0.0969 H   0  0  0  0  0  0  0  0  0  0  0  0
   -4.2966    1.4930    2.2662 H   0  0  0  0  0  0  0  0  0  0  0  0
   -3.3716    2.7594    1.6899 H   0  0  0  0  0  0  0  0  0  0  0  0
   -4.2554    1.5146   -2.0686 H   0  0  0  0  0  0  0  0  0  0  0  0
   -3.6305    2.8836   -1.1359 H   0  0  0  0  0  0  0  0  0  0  0  0
    0.0261    6.7382   -3.0858 H   0  0  0  0  0  0  0  0  0  0  0  0
   -1.3948    6.9460    1.0117 H   0  0  0  0  0  0  0  0  0  0  0  0
   -6.3053    2.6198    1.5320 H   0  0  0  0  0  0  0  0  0  0  0  0
   -5.2824    3.8891    2.1223 H   0  0  0  0  0  0  0  0  0  0  0  0
   -4.6659    4.5981   -0.1524 H   0  0  0  0  0  0  0  0  0  0  0  0
   -6.4196    4.5196   -0.0526 H   0  0  0  0  0  0  0  0  0  0  0  0
    0.1903    9.1688   -3.1172 H   0  0  0  0  0  0  0  0  0  0  0  0
   -1.3603    9.3501    0.8998 H   0  0  0  0  0  0  0  0  0  0  0  0
   -6.8082    1.5900   -0.0864 H   0  0  0  0  0  0  0  0  0  0  0  0
   -3.8595   -1.5901    0.0541 H   0  0  0  0  0  0  0  0  0  0  0  0
   -0.4714   10.4959   -1.1179 H   0  0  0  0  0  0  0  0  0  0  0  0
   -5.6335   -3.1482    0.0702 H   0  0  0  0  0  0  0  0  0  0  0  0
   -6.1980    1.0018   -3.0849 H   0  0  0  0  0  0  0  0  0  0  0  0
   -7.1560    2.1248   -4.0483 H   0  0  0  0  0  0  0  0  0  0  0  0
   -5.6506    4.3733   -4.2207 H   0  0  0  0  0  0  0  0  0  0  0  0
   -4.2641    0.4027   -4.6534 H   0  0  0  0  0  0  0  0  0  0  0  0
   -2.1770    1.2446   -5.7017 H   0  0  0  0  0  0  0  0  0  0  0  0
   -1.8608    3.6740   -6.1204 H   0  0  0  0  0  0  0  0  0  0  0  0
   -4.0095    7.4944   -5.1189 H   0  0  0  0  0  0  0  0  0  0  0  0
   -6.2963    5.5057   -5.5951 H   0  0  0  0  0  0  0  0  0  0  0  0
   -6.4693    7.2151   -5.2887 H   0  0  0  0  0  0  0  0  0  0  0  0
   -5.5777    6.6009   -6.7161 H   0  0  0  0  0  0  0  0  0  0  0  0
   -3.6529    6.8266   -2.8861 H   0  0  0  0  0  0  0  0  0  0  0  0
   -5.3605    7.2615   -3.0208 H   0  0  0  0  0  0  0  0  0  0  0  0
   -4.8691    5.5847   -2.8945 H   0  0  0  0  0  0  0  0  0  0  0  0
  1 32  1  0  0  0  0
  2 35  1  0  0  0  0
  4 31  2  0  0  0  0
  5 39  1  0  0  0  0
  5 42  1  0  0  0  0
  6  9  1  0  0  0  0
  6 10  1  0  0  0  0
  6 11  1  0  0  0  0
  6 15  1  0  0  0  0
  7 20  1  0  0  0  0
  7 25  1  0  0  0  0
  7 31  1  0  0  0  0
  8 12  1  0  0  0  0
  8 13  1  0  0  0  0
  8 14  1  0  0  0  0
  8 17  1  0  0  0  0
  9 12  1  0  0  0  0
  9 45  1  0  0  0  0
  9 46  1  0  0  0  0
 10 13  1  0  0  0  0
 10 47  1  0  0  0  0
 10 48  1  0  0  0  0
 11 14  1  0  0  0  0
 11 49  1  0  0  0  0
 11 50  1  0  0  0  0
 12 51  1  0  0  0  0
 12 52  1  0  0  0  0
 13 53  1  0  0  0  0
 13 54  1  0  0  0  0
 14 55  1  0  0  0  0
 14 56  1  0  0  0  0
 15 16  1  0  0  0  0
 15 57  1  0  0  0  0
 15 58  1  0  0  0  0
 16 59  1  0  0  0  0
 16 60  1  0  0  0  0
 17 21  2  0  0  0  0
 17 22  1  0  0  0  0
 18 19  1  0  0  0  0
 18 20  1  0  0  0  0
 18 23  1  0  0  0  0
 18 16  1  6  0  0  0
 19 24  1  0  0  0  0
 19 61  1  0  0  0  0
 19 62  1  0  0  0  0
 20 63  1  0  0  0  0
 20 64  1  0  0  0  0
 21 26  1  0  0  0  0
 21 65  1  0  0  0  0
 22 27  2  0  0  0  0
 22 66  1  0  0  0  0
 23 28  2  0  0  0  0
 23 29  1  0  0  0  0
 24 25  1  0  0  0  0
 24 67  1  0  0  0  0
 24 68  1  0  0  0  0
 25 69  1  0  0  0  0
 25 70  1  0  0  0  0
 26 30  2  0  0  0  0
 26 71  1  0  0  0  0
 27 30  1  0  0  0  0
 27 72  1  0  0  0  0
 28 32  1  0  0  0  0
 28 73  1  0  0  0  0
 29 33  2  0  0  0  0
 29 74  1  0  0  0  0
 30 75  1  0  0  0  0
 31 34  1  0  0  0  0
 32 35  2  0  0  0  0
 33 35  1  0  0  0  0
 33 76  1  0  0  0  0
 34 36  1  0  0  0  0
 34 77  1  0  0  0  0
 34 78  1  0  0  0  0
 36 37  2  0  0  0  0
 36 38  1  0  0  0  0
 37 39  1  0  0  0  0
 37 79  1  0  0  0  0
 38 40  2  0  0  0  0
 38 80  1  0  0  0  0
 39 41  2  0  0  0  0
 40 41  1  0  0  0  0
 40 81  1  0  0  0  0
 41 82  1  0  0  0  0
 42 43  1  0  0  0  0
 42 44  1  0  0  0  0
 42 83  1  0  0  0  0
 43 84  1  0  0  0  0
 43 85  1  0  0  0  0
 43 86  1  0  0  0  0
 44 87  1  0  0  0  0
 44 88  1  0  0  0  0
 44 89  1  0  0  0  0
M  CHG  2   3  -1   6   1
M  END
>  <DRUGBANK_ID>
DB05790

>  <COMMON_NAME>
SR 140333

$$$$
