
 OpenBabel10282417153D

 63 67  0  0  0  0  0  0  0  0999 V2000
    0.8756    0.0629   -0.0413 C   0  0  0  0  0  0  0  0  0  0  0  0
    0.3271    0.1225   -1.3689 O   0  0  0  0  0  0  0  0  0  0  0  0
    0.8563    1.0790   -2.1974 C   0  0  0  0  0  0  0  0  0  0  0  0
    2.1938    1.4061   -2.2212 C   0  0  0  0  0  0  0  0  0  0  0  0
    2.6780    2.4256   -3.0608 C   0  0  0  0  0  0  0  0  0  0  0  0
    1.9026    3.1805   -3.9642 C   0  0  0  0  0  0  0  0  0  0  0  0
    0.5646    2.7095   -4.0521 C   0  0  0  0  0  0  0  0  0  0  0  0
    0.0427    1.7076   -3.1436 C   0  0  0  0  0  0  0  0  0  0  0  0
    2.6336    4.3746   -4.6760 C   0  0  0  0  0  0  0  0  0  0  0  0
    2.5210    5.7952   -4.7729 C   0  0  0  0  0  0  0  0  0  0  0  0
    3.6111    6.5122   -5.5698 C   0  0  0  0  0  0  0  0  0  0  0  0
    4.6238    5.5767   -5.6966 C   0  0  0  0  0  0  0  0  0  0  0  0
    4.2787    4.0540   -5.0539 S   0  0  0  0  0  0  0  0  0  0  0  0
    5.8840    5.8328   -6.2486 C   0  0  0  0  0  0  0  0  0  0  0  0
    6.1898    7.0693   -6.7630 C   0  0  0  0  0  0  0  0  0  0  0  0
    5.2450    8.0743   -6.7314 C   0  0  0  0  0  0  0  0  0  0  0  0
    3.9666    7.8388   -6.1023 C   0  0  0  0  0  0  0  0  0  0  0  0
    7.4453    7.2682   -7.2554 O   0  0  0  0  0  0  0  0  0  0  0  0
    1.6259    6.4428   -3.9770 O   0  0  0  0  0  0  0  0  0  0  0  0
    0.4125    5.8618   -3.7756 C   0  0  0  0  0  0  0  0  0  0  0  0
   -0.4145    5.9106   -4.8500 C   0  0  0  0  0  0  0  0  0  0  0  0
   -1.7431    6.0141   -4.4752 C   0  0  0  0  0  0  0  0  0  0  0  0
   -2.3800    5.4543   -3.4204 C   0  0  0  0  0  0  0  0  0  0  0  0
   -1.4773    4.9190   -2.5152 C   0  0  0  0  0  0  0  0  0  0  0  0
   -0.0908    5.2613   -2.6351 C   0  0  0  0  0  0  0  0  0  0  0  0
   -3.6887    5.7043   -3.1084 O   0  0  0  0  0  0  0  0  0  0  0  0
   -4.6272    6.3836   -4.0167 C   0  0  0  0  0  0  0  0  0  0  0  0
   -4.4352    7.9147   -4.3652 C   0  0  0  0  0  0  0  0  0  0  0  0
   -3.4397    8.2144   -5.4012 N   0  0  0  0  0  0  0  0  0  0  0  0
   -3.2961    7.2722   -6.5116 C   0  0  0  0  0  0  0  0  0  0  0  0
   -1.8606    7.4092   -7.0102 C   0  0  0  0  0  0  0  0  0  0  0  0
   -1.4451    8.7424   -7.5248 C   0  0  0  0  0  0  0  0  0  0  0  0
   -1.7561    9.7641   -6.4145 C   0  0  0  0  0  0  0  0  0  0  0  0
   -3.1734    9.5890   -5.7989 C   0  0  0  0  0  0  0  0  0  0  0  0
    0.4719   -0.8191    0.4727 H   0  0  0  0  0  0  0  0  0  0  0  0
    0.5683    0.9456    0.5289 H   0  0  0  0  0  0  0  0  0  0  0  0
    1.9652   -0.0443   -0.0126 H   0  0  0  0  0  0  0  0  0  0  0  0
    2.9162    0.8902   -1.6024 H   0  0  0  0  0  0  0  0  0  0  0  0
    3.7408    2.6129   -2.9721 H   0  0  0  0  0  0  0  0  0  0  0  0
   -0.1575    3.1130   -4.7637 H   0  0  0  0  0  0  0  0  0  0  0  0
   -1.0192    1.4482   -3.1562 H   0  0  0  0  0  0  0  0  0  0  0  0
    6.6101    5.0311   -6.2347 H   0  0  0  0  0  0  0  0  0  0  0  0
    5.5241    9.0409   -7.1641 H   0  0  0  0  0  0  0  0  0  0  0  0
    3.3105    8.7163   -6.0607 H   0  0  0  0  0  0  0  0  0  0  0  0
    7.9671    6.4667   -7.0554 H   0  0  0  0  0  0  0  0  0  0  0  0
    0.0232    6.3311   -5.7455 H   0  0  0  0  0  0  0  0  0  0  0  0
   -2.0356    7.0580   -4.4984 H   0  0  0  0  0  0  0  0  0  0  0  0
   -1.8321    4.3516   -1.6725 H   0  0  0  0  0  0  0  0  0  0  0  0
    0.6189    4.9689   -1.8656 H   0  0  0  0  0  0  0  0  0  0  0  0
   -4.8201    5.7889   -4.9175 H   0  0  0  0  0  0  0  0  0  0  0  0
   -5.5917    6.3355   -3.4884 H   0  0  0  0  0  0  0  0  0  0  0  0
   -5.3930    8.3272   -4.7092 H   0  0  0  0  0  0  0  0  0  0  0  0
   -4.1870    8.4342   -3.4274 H   0  0  0  0  0  0  0  0  0  0  0  0
   -4.0581    7.4008   -7.2754 H   0  0  0  0  0  0  0  0  0  0  0  0
   -3.3904    6.2308   -6.1868 H   0  0  0  0  0  0  0  0  0  0  0  0
   -1.4985    6.5230   -7.5394 H   0  0  0  0  0  0  0  0  0  0  0  0
   -1.2402    7.4902   -6.1380 H   0  0  0  0  0  0  0  0  0  0  0  0
   -0.3564    8.7069   -7.6909 H   0  0  0  0  0  0  0  0  0  0  0  0
   -1.9483    8.9334   -8.4665 H   0  0  0  0  0  0  0  0  0  0  0  0
   -1.0072    9.6619   -5.6077 H   0  0  0  0  0  0  0  0  0  0  0  0
   -1.6262   10.7678   -6.8218 H   0  0  0  0  0  0  0  0  0  0  0  0
   -3.2589   10.2711   -4.9462 H   0  0  0  0  0  0  0  0  0  0  0  0
   -3.9117    9.8697   -6.5510 H   0  0  0  0  0  0  0  0  0  0  0  0
  1  2  1  0  0  0  0
  1 35  1  0  0  0  0
  1 36  1  0  0  0  0
  1 37  1  0  0  0  0
  2  3  1  0  0  0  0
  3  4  2  0  0  0  0
  3  8  1  0  0  0  0
  4  5  1  0  0  0  0
  4 38  1  0  0  0  0
  5  6  2  0  0  0  0
  5 39  1  0  0  0  0
  6  7  1  0  0  0  0
  6  9  1  0  0  0  0
  7  8  2  0  0  0  0
  7 40  1  0  0  0  0
  8 41  1  0  0  0  0
  9 10  2  0  0  0  0
  9 13  1  0  0  0  0
 10 11  1  0  0  0  0
 10 19  1  0  0  0  0
 11 12  2  0  0  0  0
 11 17  1  0  0  0  0
 12 13  1  0  0  0  0
 12 14  1  0  0  0  0
 14 15  2  0  0  0  0
 14 42  1  0  0  0  0
 15 16  1  0  0  0  0
 15 18  1  0  0  0  0
 16 17  2  0  0  0  0
 16 43  1  0  0  0  0
 17 44  1  0  0  0  0
 18 45  1  0  0  0  0
 19 20  1  0  0  0  0
 20 21  2  0  0  0  0
 20 25  1  0  0  0  0
 21 22  1  0  0  0  0
 21 46  1  0  0  0  0
 22 23  2  0  0  0  0
 22 47  1  0  0  0  0
 23 24  1  0  0  0  0
 23 26  1  0  0  0  0
 24 25  2  0  0  0  0
 24 48  1  0  0  0  0
 25 49  1  0  0  0  0
 26 27  1  0  0  0  0
 27 28  1  0  0  0  0
 27 50  1  0  0  0  0
 27 51  1  0  0  0  0
 28 29  1  0  0  0  0
 28 52  1  0  0  0  0
 28 53  1  0  0  0  0
 29 30  1  0  0  0  0
 29 34  1  0  0  0  0
 30 31  1  0  0  0  0
 30 54  1  0  0  0  0
 30 55  1  0  0  0  0
 31 32  1  0  0  0  0
 31 56  1  0  0  0  0
 31 57  1  0  0  0  0
 32 33  1  0  0  0  0
 32 58  1  0  0  0  0
 32 59  1  0  0  0  0
 33 34  1  0  0  0  0
 33 60  1  0  0  0  0
 33 61  1  0  0  0  0
 34 62  1  0  0  0  0
 34 63  1  0  0  0  0
M  END
>  <DRUGBANK_ID>
DB06249

>  <COMMON_NAME>
Arzoxifene

>  <CAS_NUMBER>
182133-25-1

>  <UNII>
E569WG6E60

>  <SYNONYMS>
Arzoxifene

$$$$
