
 OpenBabel10282417203D

 34 35  0  0  0  0  0  0  0  0999 V2000
   -2.3310    0.0297    0.0081 C   0  0  0  0  0  0  0  0  0  0  0  0
    3.1023   -2.4749    0.0379 C   0  0  0  0  0  0  0  0  0  0  0  0
    4.2153    5.3111   -2.8698 C   0  0  0  0  0  0  0  0  0  0  0  0
    4.9355    3.2089   -3.7982 C   0  0  0  0  0  0  0  0  0  0  0  0
    3.8779    4.6836   -1.6698 C   0  0  0  0  0  0  0  0  0  0  0  0
    4.5887    2.5639   -2.6072 C   0  0  0  0  0  0  0  0  0  0  0  0
    1.8218   -0.0699    0.0309 C   0  0  0  0  0  0  0  0  0  0  0  0
   -0.8272    0.0340   -0.0093 C   0  0  0  0  0  0  0  0  0  0  0  0
    4.7468    4.5857   -3.9416 C   0  0  0  0  0  0  0  0  0  0  0  0
    4.0317    3.3057   -1.5580 C   0  0  0  0  0  0  0  0  0  0  0  0
    1.1887    1.1346   -0.0046 C   0  0  0  0  0  0  0  0  0  0  0  0
    1.0829   -1.2153    0.0251 C   0  0  0  0  0  0  0  0  0  0  0  0
    5.0039    5.2109   -5.1473 N   0  0  0  0  0  0  0  0  0  0  0  0
   -0.1540    1.2198   -0.0389 N   0  0  0  0  0  0  0  0  0  0  0  0
   -0.2512   -1.1870    0.0068 N   0  0  0  0  0  0  0  0  0  0  0  0
    1.8938    2.3561   -0.2369 N   0  0  0  0  0  0  0  0  0  0  0  0
    3.8203    3.4514    1.0391 O   0  0  0  0  0  0  0  0  0  0  0  0
    4.2876    1.2496   -0.0589 O   0  0  0  0  0  0  0  0  0  0  0  0
    1.6666   -2.4622    0.0232 O   0  0  0  0  0  0  0  0  0  0  0  0
    3.5776    2.5160   -0.0300 S   0  0  0  0  0  0  0  0  0  0  0  0
   -2.7156   -0.4964   -0.8733 H   0  0  0  0  0  0  0  0  0  0  0  0
   -2.6918   -0.5021    0.8969 H   0  0  0  0  0  0  0  0  0  0  0  0
   -2.7445    1.0408    0.0195 H   0  0  0  0  0  0  0  0  0  0  0  0
    3.5178   -1.9929   -0.8584 H   0  0  0  0  0  0  0  0  0  0  0  0
    3.4961   -1.9985    0.9463 H   0  0  0  0  0  0  0  0  0  0  0  0
    3.4486   -3.5098    0.0391 H   0  0  0  0  0  0  0  0  0  0  0  0
    4.0594    6.3820   -2.9614 H   0  0  0  0  0  0  0  0  0  0  0  0
    5.3543    2.6272   -4.6163 H   0  0  0  0  0  0  0  0  0  0  0  0
    3.4997    5.2691   -0.8367 H   0  0  0  0  0  0  0  0  0  0  0  0
    4.7622    1.4934   -2.5162 H   0  0  0  0  0  0  0  0  0  0  0  0
    2.8782   -0.1522    0.0554 H   0  0  0  0  0  0  0  0  0  0  0  0
    5.4475    4.7081   -5.9039 H   0  0  0  0  0  0  0  0  0  0  0  0
    4.9274    6.2160   -5.2261 H   0  0  0  0  0  0  0  0  0  0  0  0
    1.3592    3.1800    0.0413 H   0  0  0  0  0  0  0  0  0  0  0  0
  1 21  1  0  0  0  0
  1 22  1  0  0  0  0
  1 23  1  0  0  0  0
  2 24  1  0  0  0  0
  2 25  1  0  0  0  0
  2 26  1  0  0  0  0
  3 27  1  0  0  0  0
  4 28  1  0  0  0  0
  5  3  1  0  0  0  0
  5 29  1  0  0  0  0
  6  4  2  0  0  0  0
  6 30  1  0  0  0  0
  7 31  1  0  0  0  0
  8  1  1  0  0  0  0
  9  3  2  0  0  0  0
  9  4  1  0  0  0  0
 10  5  2  0  0  0  0
 10  6  1  0  0  0  0
 11  7  2  0  0  0  0
 12  7  1  0  0  0  0
 13  9  1  0  0  0  0
 13 32  1  0  0  0  0
 13 33  1  0  0  0  0
 14  8  2  0  0  0  0
 14 11  1  0  0  0  0
 15  8  1  0  0  0  0
 15 12  2  0  0  0  0
 16 11  1  0  0  0  0
 16 34  1  0  0  0  0
 19  2  1  0  0  0  0
 19 12  1  0  0  0  0
 20 10  1  0  0  0  0
 20 16  1  0  0  0  0
 20 17  2  0  0  0  0
 20 18  2  0  0  0  0
M  END
>  <DRUGBANK_ID>
DB13485

>  <COMMON_NAME>
Sulfametomidine

>  <CAS_NUMBER>
3772-76-7

>  <UNII>
940ZL3AHKB

>  <SYNONYMS>
Sulfametomidine

$$$$
