
 OpenBabel10282417213D

 18 18  0  0  0  0  0  0  0  0999 V2000
    0.9691   -0.0102    0.0861 N   0  0  0  0  0  0  0  0  0  0  0  0
    0.4878    0.0022   -1.2955 C   0  0  0  0  0  0  0  0  0  0  0  0
    0.9214   -1.2248   -2.0590 C   0  0  0  0  0  0  0  0  0  0  0  0
    0.4226   -2.4832   -1.6777 C   0  0  0  0  0  0  0  0  0  0  0  0
    0.7746   -3.6359   -2.3800 C   0  0  0  0  0  0  0  0  0  0  0  0
    1.6300   -3.5476   -3.4742 C   0  0  0  0  0  0  0  0  0  0  0  0
    2.1405   -2.3086   -3.8652 C   0  0  0  0  0  0  0  0  0  0  0  0
    1.7841   -1.1573   -3.1584 C   0  0  0  0  0  0  0  0  0  0  0  0
    2.2749    0.0582   -3.5458 O   0  0  0  0  0  0  0  0  0  0  0  0
    0.6602   -0.8679    0.5376 H   0  0  0  0  0  0  0  0  0  0  0  0
    1.9869   -0.0633    0.0590 H   0  0  0  0  0  0  0  0  0  0  0  0
   -0.6076    0.0474   -1.2993 H   0  0  0  0  0  0  0  0  0  0  0  0
    0.8313    0.9231   -1.7772 H   0  0  0  0  0  0  0  0  0  0  0  0
   -0.2551   -2.5661   -0.8314 H   0  0  0  0  0  0  0  0  0  0  0  0
    0.3729   -4.5986   -2.0740 H   0  0  0  0  0  0  0  0  0  0  0  0
    1.8958   -4.4459   -4.0258 H   0  0  0  0  0  0  0  0  0  0  0  0
    2.8060   -2.2608   -4.7210 H   0  0  0  0  0  0  0  0  0  0  0  0
    2.8302   -0.0578   -4.3334 H   0  0  0  0  0  0  0  0  0  0  0  0
  1  2  1  0  0  0  0
  1 10  1  0  0  0  0
  1 11  1  0  0  0  0
  2  3  1  0  0  0  0
  2 12  1  0  0  0  0
  2 13  1  0  0  0  0
  3  4  2  0  0  0  0
  3  8  1  0  0  0  0
  4  5  1  0  0  0  0
  4 14  1  0  0  0  0
  5  6  2  0  0  0  0
  5 15  1  0  0  0  0
  6  7  1  0  0  0  0
  6 16  1  0  0  0  0
  7  8  2  0  0  0  0
  7 17  1  0  0  0  0
  8  9  1  0  0  0  0
  9 18  1  0  0  0  0
M  END
>  <DRUGBANK_ID>
DB14855

>  <COMMON_NAME>
2-(aminomethyl)phenol

>  <CAS_NUMBER>
932-30-9

>  <UNII>
696R5N4NRM

>  <SYNONYMS>
2-HOBA

$$$$
