
 OpenBabel10282417203D

305310  0  0  1  0  0  0  0  0999 V2000
   18.0765   23.8498   -0.2520 C   0  0  0  0  0  0  0  0  0  0  0  0
   19.4584   24.4315   -0.1300 C   0  0  2  0  0  0  0  0  0  0  0  0
   20.1060   23.7824    0.9674 N   0  0  0  0  0  0  0  0  0  0  0  0
   20.9220   22.7381    0.6042 C   0  0  0  0  0  0  0  0  0  0  0  0
   21.5340   21.9126    1.6920 C   0  0  1  0  0  0  0  0  0  0  0  0
   21.3607   20.4689    1.4347 N   0  0  0  0  0  0  0  0  0  0  0  0
   22.1895   19.7927    0.5577 C   0  0  0  0  0  0  0  0  0  0  0  0
   22.1298   18.2559    0.5468 C   0  0  2  0  0  0  0  0  0  0  0  0
   23.4695   17.5227    0.9074 C   0  0  0  0  0  0  0  0  0  0  0  0
   24.7559   18.3151    1.0530 C   0  0  0  0  0  0  0  0  0  0  0  0
   25.9541   17.8786    0.4835 C   0  0  0  0  0  0  0  0  0  0  0  0
   27.0597   18.7366    0.4125 C   0  0  0  0  0  0  0  0  0  0  0  0
   26.9461   20.0604    0.8206 C   0  0  0  0  0  0  0  0  0  0  0  0
   25.7783   20.4723    1.4302 C   0  0  0  0  0  0  0  0  0  0  0  0
   24.7772   19.5428    1.7070 C   0  0  0  0  0  0  0  0  0  0  0  0
   21.7758   17.9674   -0.8578 N   0  0  0  0  0  0  0  0  0  0  0  0
   20.5171   17.5221   -1.2033 C   0  0  0  0  0  0  0  0  0  0  0  0
   20.1523   17.4107   -2.7279 C   0  0  2  0  0  0  0  0  0  0  0  0
   20.7276   18.6017   -3.5393 C   0  0  0  0  0  0  0  0  0  0  0  0
   20.2746   19.9129   -2.9973 C   0  0  0  0  0  0  0  0  0  0  0  0
   19.5021   20.1278   -1.9096 C   0  0  0  0  0  0  0  0  0  0  0  0
   19.2232   21.4496   -1.8884 N   0  0  0  0  0  0  0  0  0  0  0  0
   19.9926   22.0483   -2.7983 C   0  0  0  0  0  0  0  0  0  0  0  0
   20.4549   21.1208   -3.5913 N   0  0  0  0  0  0  0  0  0  0  0  0
   18.6551   17.2879   -2.8668 N   0  0  0  0  0  0  0  0  0  0  0  0
   17.9968   16.1697   -3.3344 C   0  0  0  0  0  0  0  0  0  0  0  0
   16.4289   16.1845   -3.2943 C   0  0  1  0  0  0  0  0  0  0  0  0
   15.9583   15.8745   -4.6620 N   0  0  0  0  0  0  0  0  0  0  0  0
   15.0441   14.8919   -4.9881 C   0  0  0  0  0  0  0  0  0  0  0  0
   14.5224   14.7912   -6.4243 C   0  0  1  0  0  0  0  0  0  0  0  0
   14.8784   13.4780   -6.9622 N   0  0  0  0  0  0  0  0  0  0  0  0
   13.9694   12.5659   -7.4466 C   0  0  0  0  0  0  0  0  0  0  0  0
   14.5532   11.3061   -8.0655 C   0  0  1  0  0  0  0  0  0  0  0  0
   14.0270   10.1851   -7.2859 N   0  0  0  0  0  0  0  0  0  0  0  0
   13.1164    9.2640   -7.7738 C   0  0  0  0  0  0  0  0  0  0  0  0
   12.5950    8.1814   -6.8292 C   0  0  2  0  0  0  0  0  0  0  0  0
   13.0358    8.3501   -5.3624 C   0  0  0  0  0  0  0  0  0  0  0  0
   13.3151    7.0476   -4.6823 C   0  0  0  0  0  0  0  0  0  0  0  0
   12.4053    6.5515   -3.7543 C   0  0  0  0  0  0  0  0  0  0  0  0
   12.5690    5.2639   -3.2642 C   0  0  0  0  0  0  0  0  0  0  0  0
   13.6175    4.4777   -3.7393 C   0  0  0  0  0  0  0  0  0  0  0  0
   14.5172    4.9592   -4.6787 C   0  0  0  0  0  0  0  0  0  0  0  0
   14.4214    6.2790   -5.0820 C   0  0  0  0  0  0  0  0  0  0  0  0
   13.8089    3.2058   -3.2930 O   0  0  0  0  0  0  0  0  0  0  0  0
   12.9365    6.8765   -7.4419 N   0  0  0  0  0  0  0  0  0  0  0  0
   11.9780    5.9327   -7.7235 C   0  0  0  0  0  0  0  0  0  0  0  0
   12.4914    4.5653   -8.1668 C   0  0  0  0  0  0  0  0  0  0  0  0
   11.9298    3.4428   -7.2844 C   0  0  0  0  0  0  0  0  0  0  0  0
   10.4715    3.3702   -7.3301 N   0  0  0  0  0  0  0  0  0  0  0  0
   10.7780    6.1656   -7.5897 O   0  0  0  0  0  0  0  0  0  0  0  0
   12.7866    9.2108   -8.9588 O   0  0  0  0  0  0  0  0  0  0  0  0
   14.1327   11.3284   -9.5342 C   0  0  0  0  0  0  0  0  0  0  0  0
   14.7212   12.4220  -10.2287 O   0  0  0  0  0  0  0  0  0  0  0  0
   12.7504   12.7113   -7.4095 O   0  0  0  0  0  0  0  0  0  0  0  0
   13.0203   15.1013   -6.4078 C   0  0  0  0  0  0  0  0  0  0  0  0
   12.4897   16.2843   -5.6232 C   0  0  0  0  0  0  0  0  0  0  0  0
   13.2046   17.9174   -5.5248 S   0  0  0  0  0  0  0  0  0  0  0  0
   14.7088   17.8177   -6.4743 C   0  0  0  0  0  0  0  0  0  0  0  0
   14.5954   14.0825   -4.1758 O   0  0  0  0  0  0  0  0  0  0  0  0
   15.8369   15.2436   -2.2448 C   0  0  0  0  0  0  0  0  0  0  0  0
   16.2546   15.3948   -0.7984 C   0  0  0  0  0  0  0  0  0  0  0  0
   15.7572   16.6711   -0.2519 C   0  0  0  0  0  0  0  0  0  0  0  0
   14.9079   16.6779    0.7700 O   0  0  0  0  0  0  0  0  0  0  0  0
   16.1354   17.7058   -0.7705 O   0  0  0  0  0  0  0  0  0  0  0  0
   18.6122   15.2190   -3.8122 O   0  0  0  0  0  0  0  0  0  0  0  0
   19.6913   17.2341   -0.3319 O   0  0  0  0  0  0  0  0  0  0  0  0
   22.9511   20.3662   -0.2185 O   0  0  0  0  0  0  0  0  0  0  0  0
   22.9929   22.4037    1.6669 C   0  0  0  0  0  0  0  0  0  0  0  0
   23.2089   23.8693    1.9911 C   0  0  0  0  0  0  0  0  0  0  0  0
   22.6795   24.2024    3.3656 C   0  0  0  0  0  0  0  0  0  0  0  0
   23.4141   23.4684    4.3709 N   0  0  0  0  0  0  0  0  0  0  0  0
   24.1610   23.9758    5.3675 C   0  0  0  0  0  0  0  0  0  0  0  0
   24.7979   23.2565    6.2205 N   0  0  0  0  0  0  0  0  0  0  0  0
   24.2362   25.3044    5.4608 N   0  0  0  0  0  0  0  0  0  0  0  0
   21.2617   22.5756   -0.5618 O   0  0  0  0  0  0  0  0  0  0  0  0
   19.1874   25.8969   -0.0640 C   0  0  0  0  0  0  0  0  0  0  0  0
   19.1816   26.4064   -1.3820 N   0  0  0  0  0  0  0  0  0  0  0  0
   18.4233   27.5889   -1.6222 C   0  0  0  0  0  0  0  0  0  0  0  0
   18.9765   28.8127   -1.0331 C   0  0  0  0  0  0  0  0  0  0  0  0
   19.3508   29.7549   -1.9367 N   0  0  0  0  0  0  0  0  0  0  0  0
   19.9954   30.9389   -1.4180 C   0  0  2  0  0  0  0  0  0  0  0  0
   20.9221   30.5684   -0.1351 C   0  0  0  0  0  0  0  0  0  0  0  0
   20.6801   31.0566    0.9737 O   0  0  0  0  0  0  0  0  0  0  0  0
   21.7805   29.4609   -0.2678 N   0  0  0  0  0  0  0  0  0  0  0  0
   22.8688   29.2968   -1.2169 C   0  0  2  0  0  0  0  0  0  0  0  0
   22.5553   29.8847   -2.5374 C   0  0  0  0  0  0  0  0  0  0  0  0
   22.3460   29.1340   -3.6618 N   0  0  0  0  0  0  0  0  0  0  0  0
   21.9430   29.6810   -4.9753 C   0  0  2  0  0  0  0  0  0  0  0  0
   22.0710   28.5410   -6.0589 C   0  0  0  0  0  0  0  0  0  0  0  0
   21.1182   27.5383   -6.0799 N   0  0  0  0  0  0  0  0  0  0  0  0
   21.2137   26.4624   -7.0834 C   0  0  0  0  0  0  0  0  0  0  0  0
   21.6546   25.1663   -6.4279 C   0  0  0  0  0  0  0  0  0  0  0  0
   20.9026   24.0421   -6.7282 N   0  0  0  0  0  0  0  0  0  0  0  0
   21.0713   22.6952   -6.1028 C   0  0  2  0  0  0  0  0  0  0  0  0
   19.6204   22.3544   -5.6267 C   0  0  0  0  0  0  0  0  0  0  0  0
   19.1343   21.0939   -5.9289 N   0  0  0  0  0  0  0  0  0  0  0  0
   18.0090   20.4190   -5.2194 C   0  0  2  0  0  0  0  0  0  0  0  0
   17.3803   19.6099   -6.3274 C   0  0  0  0  0  0  0  0  0  0  0  0
   16.9966   20.3511   -7.4244 N   0  0  0  0  0  0  0  0  0  0  0  0
   16.2931   19.7737   -8.5678 C   0  0  2  0  0  0  0  0  0  0  0  0
   17.0769   19.7497   -9.8615 C   0  0  0  0  0  0  0  0  0  0  0  0
   17.6659   20.9318  -10.2089 N   0  0  0  0  0  0  0  0  0  0  0  0
   18.3137   21.0456  -11.4905 C   0  0  0  0  0  0  0  0  0  0  0  0
   17.6733   22.1391  -12.3321 C   0  0  0  0  0  0  0  0  0  0  0  0
   17.7989   23.5183  -11.6734 C   0  0  0  0  0  0  0  0  0  0  0  0
   19.2509   23.9093  -11.3847 C   0  0  0  0  0  0  0  0  0  0  0  0
   20.0209   23.9731  -12.6154 N   0  0  0  0  0  0  0  0  0  0  0  0
   17.0451   18.7684  -10.6001 O   0  0  0  0  0  0  0  0  0  0  0  0
   14.9410   20.4933   -8.7614 C   0  0  0  0  0  0  0  0  0  0  0  0
   14.0567   19.8893   -9.8786 C   0  0  0  0  0  0  0  0  0  0  0  0
   13.6148   18.4411   -9.6660 C   0  0  0  0  0  0  0  0  0  0  0  0
   12.6534   18.3563   -8.5047 C   0  0  0  0  0  0  0  0  0  0  0  0
   11.4011   19.0823   -8.4563 N   0  0  0  0  0  0  0  0  0  0  0  0
   17.2635   18.3946   -6.2099 O   0  0  0  0  0  0  0  0  0  0  0  0
   17.0067   21.2956   -4.4436 C   0  0  0  0  0  0  0  0  0  0  0  0
   15.7894   20.6274   -3.7604 C   0  0  0  0  0  0  0  0  0  0  0  0
   16.0329   19.5494   -2.7126 C   0  0  0  0  0  0  0  0  0  0  0  0
   16.6193   20.0405   -1.4109 C   0  0  0  0  0  0  0  0  0  0  0  0
   16.0693   21.1099   -0.6429 N   0  0  0  0  0  0  0  0  0  0  0  0
   18.9132   23.2156   -5.0917 O   0  0  0  0  0  0  0  0  0  0  0  0
   22.1954   22.6951   -5.0324 C   0  0  0  0  0  0  0  0  0  0  0  0
   22.8074   21.4118   -4.4785 C   0  0  0  0  0  0  0  0  0  0  0  0
   23.1124   20.4014   -5.5556 C   0  0  0  0  0  0  0  0  0  0  0  0
   24.3025   20.8789   -6.3533 C   0  0  0  0  0  0  0  0  0  0  0  0
   25.4343   21.0605   -5.4514 N   0  0  0  0  0  0  0  0  0  0  0  0
   22.6287   25.1983   -5.6804 O   0  0  0  0  0  0  0  0  0  0  0  0
   22.9863   28.5359   -6.8823 O   0  0  0  0  0  0  0  0  0  0  0  0
   22.8052   30.8998   -5.4650 C   0  0  0  0  0  0  0  0  0  0  0  0
   22.3037   31.4400   -6.8024 C   0  0  0  0  0  0  0  0  0  0  0  0
   22.8229   32.1303   -4.5718 C   0  0  0  0  0  0  0  0  0  0  0  0
   22.4267   31.0973   -2.4579 O   0  0  0  0  0  0  0  0  0  0  0  0
   23.0952   27.8181   -1.2195 C   0  0  0  0  0  0  0  0  0  0  0  0
   22.9663   27.4842    0.2543 C   0  0  0  0  0  0  0  0  0  0  0  0
   21.9855   28.5201    0.8216 C   0  0  0  0  0  0  0  0  0  0  0  0
   19.0545   32.1212   -1.2062 C   0  0  0  0  0  0  0  0  0  0  0  0
   19.8461   33.3743   -0.7891 C   0  0  0  0  0  0  0  0  0  0  0  0
   20.8935   33.8449   -1.8114 C   0  0  0  0  0  0  0  0  0  0  0  0
   20.2986   34.1980   -3.1707 C   0  0  0  0  0  0  0  0  0  0  0  0
   19.3659   35.3043   -3.0328 N   0  0  0  0  0  0  0  0  0  0  0  0
   19.0999   28.9056    0.1772 O   0  0  0  0  0  0  0  0  0  0  0  0
   18.8158   26.3853    0.9299 O   0  0  0  0  0  0  0  0  0  0  0  0
   16.6739   24.7423    0.2940 C   0  0  0  0  0  0  0  0  0  0  0  0
   15.9851   26.1606   -0.1373 C   0  0  0  0  0  0  0  0  0  0  0  0
   15.7435   25.9499   -1.4918 C   0  0  0  0  0  0  0  0  0  0  0  0
   15.9780   24.6128   -1.6394 N   0  0  0  0  0  0  0  0  0  0  0  0
   15.6389   24.0723   -0.3572 C   0  0  0  0  0  0  0  0  0  0  0  0
   15.6641   26.9166   -2.4831 C   0  0  0  0  0  0  0  0  0  0  0  0
   15.3334   28.2013   -2.1252 C   0  0  0  0  0  0  0  0  0  0  0  0
   15.0767   28.4405   -0.7796 C   0  0  0  0  0  0  0  0  0  0  0  0
   15.4300   27.4599    0.2579 C   0  0  0  0  0  0  0  0  0  0  0  0
   18.0757   22.8279    0.1768 H   0  0  0  0  0  0  0  0  0  0  0  0
   17.9955   23.6095   -1.3212 H   0  0  0  0  0  0  0  0  0  0  0  0
   20.0521   24.2576   -1.0380 H   0  0  0  0  0  0  0  0  0  0  0  0
   19.6382   23.8379    1.8665 H   0  0  0  0  0  0  0  0  0  0  0  0
   21.0380   22.1075    2.6481 H   0  0  0  0  0  0  0  0  0  0  0  0
   20.4006   20.1328    1.4161 H   0  0  0  0  0  0  0  0  0  0  0  0
   21.3371   17.9018    1.2145 H   0  0  0  0  0  0  0  0  0  0  0  0
   23.3251   16.9454    1.8273 H   0  0  0  0  0  0  0  0  0  0  0  0
   23.6357   16.7730    0.1189 H   0  0  0  0  0  0  0  0  0  0  0  0
   26.0336   16.8770    0.0712 H   0  0  0  0  0  0  0  0  0  0  0  0
   27.9936   18.3919   -0.0180 H   0  0  0  0  0  0  0  0  0  0  0  0
   27.7544   20.7718    0.6838 H   0  0  0  0  0  0  0  0  0  0  0  0
   25.6291   21.5280    1.6392 H   0  0  0  0  0  0  0  0  0  0  0  0
   23.9300   19.8410    2.3097 H   0  0  0  0  0  0  0  0  0  0  0  0
   22.3385   18.5113   -1.5126 H   0  0  0  0  0  0  0  0  0  0  0  0
   20.6018   16.4852   -3.0908 H   0  0  0  0  0  0  0  0  0  0  0  0
   21.8227   18.5832   -3.4929 H   0  0  0  0  0  0  0  0  0  0  0  0
   20.4683   18.5098   -4.6019 H   0  0  0  0  0  0  0  0  0  0  0  0
   18.9845   19.4114   -1.3149 H   0  0  0  0  0  0  0  0  0  0  0  0
   18.3559   21.8533   -1.5973 H   0  0  0  0  0  0  0  0  0  0  0  0
   20.0369   23.1236   -2.9104 H   0  0  0  0  0  0  0  0  0  0  0  0
   18.1092   17.8465   -2.2214 H   0  0  0  0  0  0  0  0  0  0  0  0
   16.0368   17.1744   -3.1084 H   0  0  0  0  0  0  0  0  0  0  0  0
   16.3962   16.4589   -5.3686 H   0  0  0  0  0  0  0  0  0  0  0  0
   15.0491   15.4105   -7.1279 H   0  0  0  0  0  0  0  0  0  0  0  0
   15.8749   13.3117   -7.0599 H   0  0  0  0  0  0  0  0  0  0  0  0
   15.6418   11.3096   -7.9490 H   0  0  0  0  0  0  0  0  0  0  0  0
   14.1047   10.3434   -6.2916 H   0  0  0  0  0  0  0  0  0  0  0  0
   11.5018    8.2821   -6.8528 H   0  0  0  0  0  0  0  0  0  0  0  0
   13.9437    8.9356   -5.2171 H   0  0  0  0  0  0  0  0  0  0  0  0
   12.2507    8.9165   -4.8413 H   0  0  0  0  0  0  0  0  0  0  0  0
   11.5596    7.1596   -3.4417 H   0  0  0  0  0  0  0  0  0  0  0  0
   11.8460    4.8843   -2.5523 H   0  0  0  0  0  0  0  0  0  0  0  0
   15.2706    4.3069   -5.1084 H   0  0  0  0  0  0  0  0  0  0  0  0
   15.1524    6.6767   -5.7839 H   0  0  0  0  0  0  0  0  0  0  0  0
   13.2413    3.0732   -2.5167 H   0  0  0  0  0  0  0  0  0  0  0  0
   13.9094    6.6435   -7.5758 H   0  0  0  0  0  0  0  0  0  0  0  0
   12.1948    4.4076   -9.2106 H   0  0  0  0  0  0  0  0  0  0  0  0
   13.5874    4.5277   -8.1375 H   0  0  0  0  0  0  0  0  0  0  0  0
   12.3250    2.4774   -7.6202 H   0  0  0  0  0  0  0  0  0  0  0  0
   12.2511    3.5833   -6.2482 H   0  0  0  0  0  0  0  0  0  0  0  0
   10.1223    2.7257   -6.6260 H   0  0  0  0  0  0  0  0  0  0  0  0
   10.1029    4.2985   -7.0786 H   0  0  0  0  0  0  0  0  0  0  0  0
   14.4683   10.4066  -10.0160 H   0  0  0  0  0  0  0  0  0  0  0  0
   13.0407   11.4086   -9.6344 H   0  0  0  0  0  0  0  0  0  0  0  0
   14.1879   13.2031   -9.9933 H   0  0  0  0  0  0  0  0  0  0  0  0
   12.6369   15.1185   -7.4368 H   0  0  0  0  0  0  0  0  0  0  0  0
   12.5127   14.2668   -5.9019 H   0  0  0  0  0  0  0  0  0  0  0  0
   11.4366   16.4218   -5.9022 H   0  0  0  0  0  0  0  0  0  0  0  0
   12.4911   16.0040   -4.5714 H   0  0  0  0  0  0  0  0  0  0  0  0
   15.3823   17.8934   -5.6584 H   0  0  0  0  0  0  0  0  0  0  0  0
   15.0679   17.0939   -7.2114 H   0  0  0  0  0  0  0  0  0  0  0  0
   14.8421   18.7372   -7.0010 H   0  0  0  0  0  0  0  0  0  0  0  0
   14.7408   15.3452   -2.2816 H   0  0  0  0  0  0  0  0  0  0  0  0
   16.1274   14.2335   -2.5380 H   0  0  0  0  0  0  0  0  0  0  0  0
   15.8520   14.5667   -0.2180 H   0  0  0  0  0  0  0  0  0  0  0  0
   17.3443   15.3941   -0.7224 H   0  0  0  0  0  0  0  0  0  0  0  0
   14.6623   15.8025    1.1120 H   0  0  0  0  0  0  0  0  0  0  0  0
   23.5706   21.8057    2.3579 H   0  0  0  0  0  0  0  0  0  0  0  0
   23.4329   22.2977    0.6691 H   0  0  0  0  0  0  0  0  0  0  0  0
   24.2813   24.0894    1.9122 H   0  0  0  0  0  0  0  0  0  0  0  0
   22.7220   24.4960    1.2383 H   0  0  0  0  0  0  0  0  0  0  0  0
   22.7356   25.2837    3.4732 H   0  0  0  0  0  0  0  0  0  0  0  0
   21.6184   23.9590    3.4540 H   0  0  0  0  0  0  0  0  0  0  0  0
   23.3881   22.4580    4.3095 H   0  0  0  0  0  0  0  0  0  0  0  0
   24.6646   22.2644    6.0292 H   0  0  0  0  0  0  0  0  0  0  0  0
   23.7568   25.9503    4.8625 H   0  0  0  0  0  0  0  0  0  0  0  0
   24.7634   25.6800    6.2330 H   0  0  0  0  0  0  0  0  0  0  0  0
   19.9203   26.1490   -2.0154 H   0  0  0  0  0  0  0  0  0  0  0  0
   18.1633   27.6767   -2.6783 H   0  0  0  0  0  0  0  0  0  0  0  0
   17.5556   27.5424   -1.0069 H   0  0  0  0  0  0  0  0  0  0  0  0
   18.9608   29.7596   -2.8697 H   0  0  0  0  0  0  0  0  0  0  0  0
   20.5169   31.2507   -2.3028 H   0  0  0  0  0  0  0  0  0  0  0  0
   23.7441   29.8360   -0.8204 H   0  0  0  0  0  0  0  0  0  0  0  0
   22.6134   28.1584   -3.6458 H   0  0  0  0  0  0  0  0  0  0  0  0
   20.8841   29.9652   -4.8926 H   0  0  0  0  0  0  0  0  0  0  0  0
   20.4986   27.4044   -5.2937 H   0  0  0  0  0  0  0  0  0  0  0  0
   20.2553   26.3602   -7.5940 H   0  0  0  0  0  0  0  0  0  0  0  0
   21.9867   26.6846   -7.8282 H   0  0  0  0  0  0  0  0  0  0  0  0
   20.0075   24.1777   -7.1838 H   0  0  0  0  0  0  0  0  0  0  0  0
   21.3169   22.0265   -6.9333 H   0  0  0  0  0  0  0  0  0  0  0  0
   19.7710   20.4431   -6.3791 H   0  0  0  0  0  0  0  0  0  0  0  0
   18.4305   19.6612   -4.5596 H   0  0  0  0  0  0  0  0  0  0  0  0
   17.4090   21.2733   -7.4861 H   0  0  0  0  0  0  0  0  0  0  0  0
   16.1874   18.7075   -8.3725 H   0  0  0  0  0  0  0  0  0  0  0  0
   17.5422   21.7445   -9.6219 H   0  0  0  0  0  0  0  0  0  0  0  0
   19.3703   21.2277  -11.2862 H   0  0  0  0  0  0  0  0  0  0  0  0
   18.2661   20.0981  -12.0346 H   0  0  0  0  0  0  0  0  0  0  0  0
   18.1487   22.1442  -13.3190 H   0  0  0  0  0  0  0  0  0  0  0  0
   16.6141   21.9132  -12.5068 H   0  0  0  0  0  0  0  0  0  0  0  0
   17.3274   24.2697  -12.3173 H   0  0  0  0  0  0  0  0  0  0  0  0
   17.2307   23.5330  -10.7344 H   0  0  0  0  0  0  0  0  0  0  0  0
   19.2748   24.8810  -10.8837 H   0  0  0  0  0  0  0  0  0  0  0  0
   19.7182   23.2010  -10.6921 H   0  0  0  0  0  0  0  0  0  0  0  0
   21.0000   24.1692  -12.4177 H   0  0  0  0  0  0  0  0  0  0  0  0
   20.0109   23.0787  -13.1050 H   0  0  0  0  0  0  0  0  0  0  0  0
   14.3980   20.5323   -7.8059 H   0  0  0  0  0  0  0  0  0  0  0  0
   15.1039   21.5539   -8.9882 H   0  0  0  0  0  0  0  0  0  0  0  0
   13.1584   20.5069   -9.9752 H   0  0  0  0  0  0  0  0  0  0  0  0
   14.5826   19.9537  -10.8324 H   0  0  0  0  0  0  0  0  0  0  0  0
   13.1451   18.0057  -10.5497 H   0  0  0  0  0  0  0  0  0  0  0  0
   14.4944   17.8145   -9.4525 H   0  0  0  0  0  0  0  0  0  0  0  0
   12.5137   17.3105   -8.2264 H   0  0  0  0  0  0  0  0  0  0  0  0
   13.1640   18.8981   -7.7379 H   0  0  0  0  0  0  0  0  0  0  0  0
   11.0648   18.9618   -7.4900 H   0  0  0  0  0  0  0  0  0  0  0  0
   11.6185   20.0798   -8.4841 H   0  0  0  0  0  0  0  0  0  0  0  0
   17.5356   21.8497   -3.6718 H   0  0  0  0  0  0  0  0  0  0  0  0
   16.6153   22.0605   -5.1180 H   0  0  0  0  0  0  0  0  0  0  0  0
   15.2027   21.4112   -3.2750 H   0  0  0  0  0  0  0  0  0  0  0  0
   15.1752   20.1724   -4.5342 H   0  0  0  0  0  0  0  0  0  0  0  0
   15.1198   18.9881   -2.5182 H   0  0  0  0  0  0  0  0  0  0  0  0
   16.7750   18.9046   -3.1811 H   0  0  0  0  0  0  0  0  0  0  0  0
   17.1502   19.3652   -0.7332 H   0  0  0  0  0  0  0  0  0  0  0  0
   17.3966   20.5186   -1.9056 H   0  0  0  0  0  0  0  0  0  0  0  0
   16.7508   21.3720    0.0700 H   0  0  0  0  0  0  0  0  0  0  0  0
   15.9481   21.9075   -1.2541 H   0  0  0  0  0  0  0  0  0  0  0  0
   23.0690   23.1466   -5.5114 H   0  0  0  0  0  0  0  0  0  0  0  0
   21.9343   23.3684   -4.2068 H   0  0  0  0  0  0  0  0  0  0  0  0
   23.6352   21.6998   -3.8243 H   0  0  0  0  0  0  0  0  0  0  0  0
   22.3032   20.8406   -3.7365 H   0  0  0  0  0  0  0  0  0  0  0  0
   23.3121   19.4313   -5.0874 H   0  0  0  0  0  0  0  0  0  0  0  0
   22.2318   20.2339   -6.1896 H   0  0  0  0  0  0  0  0  0  0  0  0
   24.5352   20.1432   -7.1217 H   0  0  0  0  0  0  0  0  0  0  0  0
   24.0641   21.8227   -6.8555 H   0  0  0  0  0  0  0  0  0  0  0  0
   26.2066   21.4944   -5.9430 H   0  0  0  0  0  0  0  0  0  0  0  0
   25.1998   21.7381   -4.7219 H   0  0  0  0  0  0  0  0  0  0  0  0
   23.8440   30.5623   -5.5560 H   0  0  0  0  0  0  0  0  0  0  0  0
   21.2606   31.7644   -6.7170 H   0  0  0  0  0  0  0  0  0  0  0  0
   22.9069   32.3063   -7.0944 H   0  0  0  0  0  0  0  0  0  0  0  0
   22.3777   30.7133   -7.6084 H   0  0  0  0  0  0  0  0  0  0  0  0
   23.5475   31.9879   -3.7700 H   0  0  0  0  0  0  0  0  0  0  0  0
   23.1970   33.0433   -5.0315 H   0  0  0  0  0  0  0  0  0  0  0  0
   21.8028   32.3261   -4.2272 H   0  0  0  0  0  0  0  0  0  0  0  0
   22.2990   27.3126   -1.7792 H   0  0  0  0  0  0  0  0  0  0  0  0
   24.0575   27.5574   -1.6661 H   0  0  0  0  0  0  0  0  0  0  0  0
   22.5975   26.4654    0.3675 H   0  0  0  0  0  0  0  0  0  0  0  0
   23.9398   27.5713    0.7441 H   0  0  0  0  0  0  0  0  0  0  0  0
   21.0430   28.0417    1.0891 H   0  0  0  0  0  0  0  0  0  0  0  0
   22.3792   29.0169    1.7136 H   0  0  0  0  0  0  0  0  0  0  0  0
   18.5178   32.3231   -2.1469 H   0  0  0  0  0  0  0  0  0  0  0  0
   18.2753   31.8841   -0.4772 H   0  0  0  0  0  0  0  0  0  0  0  0
   19.1441   34.1831   -0.5765 H   0  0  0  0  0  0  0  0  0  0  0  0
   20.3652   33.1955    0.1547 H   0  0  0  0  0  0  0  0  0  0  0  0
   21.4469   34.7000   -1.4071 H   0  0  0  0  0  0  0  0  0  0  0  0
   21.6599   33.0836   -1.9393 H   0  0  0  0  0  0  0  0  0  0  0  0
   21.0941   34.4768   -3.8687 H   0  0  0  0  0  0  0  0  0  0  0  0
   19.7847   33.3348   -3.6096 H   0  0  0  0  0  0  0  0  0  0  0  0
   18.9078   35.4866   -3.9200 H   0  0  0  0  0  0  0  0  0  0  0  0
   18.6327   35.0536   -2.3718 H   0  0  0  0  0  0  0  0  0  0  0  0
   16.8892   24.5700   -2.0603 H   0  0  0  0  0  0  0  0  0  0  0  0
   14.5889   24.0492   -0.0932 H   0  0  0  0  0  0  0  0  0  0  0  0
   15.9828   26.6507   -3.4783 H   0  0  0  0  0  0  0  0  0  0  0  0
   15.2968   28.9652   -2.9009 H   0  0  0  0  0  0  0  0  0  0  0  0
   14.6443   29.4207   -0.5501 H   0  0  0  0  0  0  0  0  0  0  0  0
   15.2651   27.8145    1.2797 H   0  0  0  0  0  0  0  0  0  0  0  0
  1142  1  0  0  0  0
  1151  1  0  0  0  0
  1152  1  0  0  0  0
  2 76  1  0  0  0  0
  2153  1  6  0  0  0
  2  3  1  0  0  0  0
  2  1  1  0  0  0  0
  3  4  1  0  0  0  0
  3154  1  0  0  0  0
  4  5  1  0  0  0  0
  4 75  2  0  0  0  0
  5  6  1  0  0  0  0
  5 68  1  0  0  0  0
  5155  1  1  0  0  0
  6  7  1  0  0  0  0
  6156  1  0  0  0  0
  7 67  2  0  0  0  0
  8 16  1  0  0  0  0
  8157  1  1  0  0  0
  8  9  1  0  0  0  0
  8  7  1  0  0  0  0
  9 10  1  0  0  0  0
  9158  1  0  0  0  0
  9159  1  0  0  0  0
 10 11  2  0  0  0  0
 10 15  1  0  0  0  0
 11 12  1  0  0  0  0
 11160  1  0  0  0  0
 12 13  2  0  0  0  0
 12161  1  0  0  0  0
 13162  1  0  0  0  0
 14 13  1  0  0  0  0
 14163  1  0  0  0  0
 15 14  2  0  0  0  0
 15164  1  0  0  0  0
 16 17  1  0  0  0  0
 16165  1  0  0  0  0
 17 66  2  0  0  0  0
 18 25  1  0  0  0  0
 18166  1  6  0  0  0
 18 19  1  0  0  0  0
 18 17  1  0  0  0  0
 19 20  1  0  0  0  0
 19167  1  0  0  0  0
 19168  1  0  0  0  0
 20 21  2  0  0  0  0
 20 24  1  0  0  0  0
 21 22  1  0  0  0  0
 21169  1  0  0  0  0
 22 23  1  0  0  0  0
 22170  1  0  0  0  0
 23171  1  0  0  0  0
 24 23  2  0  0  0  0
 25 26  1  0  0  0  0
 25172  1  0  0  0  0
 26 27  1  0  0  0  0
 26 65  2  0  0  0  0
 27 28  1  0  0  0  0
 27 60  1  0  0  0  0
 27173  1  1  0  0  0
 28 29  1  0  0  0  0
 28174  1  0  0  0  0
 29 30  1  0  0  0  0
 29 59  2  0  0  0  0
 30 31  1  0  0  0  0
 30 55  1  0  0  0  0
 30175  1  6  0  0  0
 31 32  1  0  0  0  0
 31176  1  0  0  0  0
 32 33  1  0  0  0  0
 32 54  2  0  0  0  0
 33 34  1  0  0  0  0
 33 52  1  0  0  0  0
 33177  1  1  0  0  0
 34 35  1  0  0  0  0
 34178  1  0  0  0  0
 35 51  2  0  0  0  0
 36 45  1  0  0  0  0
 36179  1  6  0  0  0
 36 37  1  0  0  0  0
 36 35  1  0  0  0  0
 37 38  1  0  0  0  0
 37180  1  0  0  0  0
 37181  1  0  0  0  0
 38 39  2  0  0  0  0
 38 43  1  0  0  0  0
 39 40  1  0  0  0  0
 39182  1  0  0  0  0
 40 41  2  0  0  0  0
 40183  1  0  0  0  0
 41 44  1  0  0  0  0
 42 41  1  0  0  0  0
 42184  1  0  0  0  0
 43 42  2  0  0  0  0
 43185  1  0  0  0  0
 44186  1  0  0  0  0
 45 46  1  0  0  0  0
 45187  1  0  0  0  0
 46 47  1  0  0  0  0
 46 50  2  0  0  0  0
 47 48  1  0  0  0  0
 47188  1  0  0  0  0
 47189  1  0  0  0  0
 48 49  1  0  0  0  0
 48190  1  0  0  0  0
 48191  1  0  0  0  0
 49192  1  0  0  0  0
 49193  1  0  0  0  0
 52 53  1  0  0  0  0
 52194  1  0  0  0  0
 52195  1  0  0  0  0
 53196  1  0  0  0  0
 55 56  1  0  0  0  0
 55197  1  0  0  0  0
 55198  1  0  0  0  0
 56 57  1  0  0  0  0
 56199  1  0  0  0  0
 56200  1  0  0  0  0
 57 58  1  0  0  0  0
 58201  1  0  0  0  0
 58202  1  0  0  0  0
 58203  1  0  0  0  0
 60 61  1  0  0  0  0
 60204  1  0  0  0  0
 60205  1  0  0  0  0
 61 62  1  0  0  0  0
 61206  1  0  0  0  0
 61207  1  0  0  0  0
 62 63  1  0  0  0  0
 62 64  2  0  0  0  0
 63208  1  0  0  0  0
 68 69  1  0  0  0  0
 68209  1  0  0  0  0
 68210  1  0  0  0  0
 69 70  1  0  0  0  0
 69211  1  0  0  0  0
 69212  1  0  0  0  0
 70 71  1  0  0  0  0
 70213  1  0  0  0  0
 70214  1  0  0  0  0
 71 72  1  0  0  0  0
 71215  1  0  0  0  0
 72 73  2  0  0  0  0
 72 74  1  0  0  0  0
 73216  1  0  0  0  0
 74217  1  0  0  0  0
 74218  1  0  0  0  0
 76 77  1  0  0  0  0
 76141  2  0  0  0  0
 77 78  1  0  0  0  0
 77219  1  0  0  0  0
 78 79  1  0  0  0  0
 78220  1  0  0  0  0
 78221  1  0  0  0  0
 79 80  1  0  0  0  0
 79140  2  0  0  0  0
 80222  1  0  0  0  0
 81135  1  0  0  0  0
 81223  1  6  0  0  0
 81 82  1  0  0  0  0
 81 80  1  0  0  0  0
 82 83  2  0  0  0  0
 82 84  1  0  0  0  0
 84 85  1  0  0  0  0
 84134  1  0  0  0  0
 85132  1  0  0  0  0
 85224  1  1  0  0  0
 85 86  1  0  0  0  0
 86 87  1  0  0  0  0
 86131  2  0  0  0  0
 87225  1  0  0  0  0
 88128  1  0  0  0  0
 88226  1  1  0  0  0
 88 89  1  0  0  0  0
 88 87  1  0  0  0  0
 89 90  1  0  0  0  0
 89127  2  0  0  0  0
 90 91  1  0  0  0  0
 90227  1  0  0  0  0
 91 92  1  0  0  0  0
 91228  1  0  0  0  0
 91229  1  0  0  0  0
 92 93  1  0  0  0  0
 92126  2  0  0  0  0
 93230  1  0  0  0  0
 94121  1  0  0  0  0
 94231  1  6  0  0  0
 94 95  1  0  0  0  0
 94 93  1  0  0  0  0
 95 96  1  0  0  0  0
 95120  2  0  0  0  0
 96232  1  0  0  0  0
 97115  1  0  0  0  0
 97233  1  1  0  0  0
 97 98  1  0  0  0  0
 97 96  1  0  0  0  0
 98 99  1  0  0  0  0
 98114  2  0  0  0  0
 99234  1  0  0  0  0
100109  1  0  0  0  0
100235  1  1  0  0  0
100101  1  0  0  0  0
100 99  1  0  0  0  0
101102  1  0  0  0  0
101108  2  0  0  0  0
102103  1  0  0  0  0
102236  1  0  0  0  0
103104  1  0  0  0  0
103237  1  0  0  0  0
103238  1  0  0  0  0
104105  1  0  0  0  0
104239  1  0  0  0  0
104240  1  0  0  0  0
105106  1  0  0  0  0
105241  1  0  0  0  0
105242  1  0  0  0  0
106107  1  0  0  0  0
106243  1  0  0  0  0
106244  1  0  0  0  0
107245  1  0  0  0  0
107246  1  0  0  0  0
109110  1  0  0  0  0
109247  1  0  0  0  0
109248  1  0  0  0  0
110111  1  0  0  0  0
110249  1  0  0  0  0
110250  1  0  0  0  0
111112  1  0  0  0  0
111251  1  0  0  0  0
111252  1  0  0  0  0
112113  1  0  0  0  0
112253  1  0  0  0  0
112254  1  0  0  0  0
113255  1  0  0  0  0
113256  1  0  0  0  0
115116  1  0  0  0  0
115257  1  0  0  0  0
115258  1  0  0  0  0
116117  1  0  0  0  0
116259  1  0  0  0  0
116260  1  0  0  0  0
117118  1  0  0  0  0
117261  1  0  0  0  0
117262  1  0  0  0  0
118119  1  0  0  0  0
118263  1  0  0  0  0
118264  1  0  0  0  0
119265  1  0  0  0  0
119266  1  0  0  0  0
121122  1  0  0  0  0
121267  1  0  0  0  0
121268  1  0  0  0  0
122123  1  0  0  0  0
122269  1  0  0  0  0
122270  1  0  0  0  0
123124  1  0  0  0  0
123271  1  0  0  0  0
123272  1  0  0  0  0
124125  1  0  0  0  0
124273  1  0  0  0  0
124274  1  0  0  0  0
125275  1  0  0  0  0
125276  1  0  0  0  0
128129  1  0  0  0  0
128130  1  0  0  0  0
128277  1  0  0  0  0
129278  1  0  0  0  0
129279  1  0  0  0  0
129280  1  0  0  0  0
130281  1  0  0  0  0
130282  1  0  0  0  0
130283  1  0  0  0  0
132133  1  0  0  0  0
132284  1  0  0  0  0
132285  1  0  0  0  0
133286  1  0  0  0  0
133287  1  0  0  0  0
134133  1  0  0  0  0
134288  1  0  0  0  0
134289  1  0  0  0  0
135136  1  0  0  0  0
135290  1  0  0  0  0
135291  1  0  0  0  0
136137  1  0  0  0  0
136292  1  0  0  0  0
136293  1  0  0  0  0
137138  1  0  0  0  0
137294  1  0  0  0  0
137295  1  0  0  0  0
138139  1  0  0  0  0
138296  1  0  0  0  0
138297  1  0  0  0  0
139298  1  0  0  0  0
139299  1  0  0  0  0
142143  1  0  0  0  0
142146  2  0  0  0  0
143144  2  0  0  0  0
143150  1  0  0  0  0
144145  1  0  0  0  0
144147  1  0  0  0  0
145300  1  0  0  0  0
146145  1  0  0  0  0
146301  1  0  0  0  0
147148  2  0  0  0  0
147302  1  0  0  0  0
148303  1  0  0  0  0
149148  1  0  0  0  0
149304  1  0  0  0  0
150149  2  0  0  0  0
150305  1  0  0  0  0
M  END
>  <DRUGBANK_ID>
DB13298

>  <COMMON_NAME>
Alsactide

>  <CAS_NUMBER>
34765-96-3

>  <UNII>
J0K70H3420

>  <SYNONYMS>
Alsactida; Alsactide; Alsactidum

$$$$
