
 OpenBabel10282417193D

 47 51  0  0  1  0  0  0  0  0999 V2000
    1.0383    0.1055    0.0677 C   0  0  0  0  0  0  0  0  0  0  0  0
    0.5313    0.0937   -1.3761 C   0  0  1  0  0  0  0  0  0  0  0  0
    1.0301   -1.1743   -2.0351 C   0  0  0  0  0  0  0  0  0  0  0  0
    0.7487   -2.3619   -1.4741 C   0  0  0  0  0  0  0  0  0  0  0  0
    1.0871   -3.5849   -2.1615 C   0  0  0  0  0  0  0  0  0  0  0  0
    0.6475   -4.7928   -1.6325 C   0  0  0  0  0  0  0  0  0  0  0  0
    0.6351   -5.8959   -2.4646 C   0  0  0  0  0  0  0  0  0  0  0  0
    1.4336   -5.8964   -3.6045 C   0  0  0  0  0  0  0  0  0  0  0  0
    2.0335   -4.7283   -4.0557 C   0  0  0  0  0  0  0  0  0  0  0  0
    1.7432   -3.5405   -3.3991 C   0  0  0  0  0  0  0  0  0  0  0  0
    2.0730   -2.2307   -3.9698 C   0  0  0  0  0  0  0  0  0  0  0  0
    2.6414   -2.1686   -5.0843 O   0  0  0  0  0  0  0  0  0  0  0  0
    1.7223   -1.0957   -3.2467 N   0  0  0  0  0  0  0  0  0  0  0  0
    2.0604    0.1413   -3.8544 C   0  0  0  0  0  0  0  0  0  0  0  0
    2.8921    1.0560   -3.2056 C   0  0  0  0  0  0  0  0  0  0  0  0
    3.2011    2.2596   -3.8278 C   0  0  0  0  0  0  0  0  0  0  0  0
    2.5318    2.6231   -4.9900 C   0  0  0  0  0  0  0  0  0  0  0  0
    1.6598    1.7316   -5.5980 C   0  0  0  0  0  0  0  0  0  0  0  0
    1.5368    0.4416   -5.1115 C   0  0  0  0  0  0  0  0  0  0  0  0
    3.0910   -4.8731   -5.4114 Cl  0  0  0  0  0  0  0  0  0  0  0  0
   -0.9136    0.1212   -1.5076 N   0  0  0  0  0  0  0  0  0  0  0  0
   -1.5291    1.2249   -2.1248 C   0  0  0  0  0  0  0  0  0  0  0  0
   -1.2787    1.7621   -3.4756 C   0  0  0  0  0  0  0  0  0  0  0  0
   -2.4664    1.9693   -4.1602 C   0  0  0  0  0  0  0  0  0  0  0  0
   -1.8218    2.2398   -5.4420 N   0  0  0  0  0  0  0  0  0  0  0  0
   -1.5029    3.5367   -5.0487 C   0  0  0  0  0  0  0  0  0  0  0  0
   -0.6918    3.0861   -4.0270 N   0  0  0  0  0  0  0  0  0  0  0  0
   -3.4386    2.7284   -3.5382 N   0  0  0  0  0  0  0  0  0  0  0  0
   -3.4549    2.5184   -2.2057 C   0  0  0  0  0  0  0  0  0  0  0  0
   -2.6679    1.6716   -1.5162 N   0  0  0  0  0  0  0  0  0  0  0  0
    0.7015   -0.7574    0.6532 H   0  0  0  0  0  0  0  0  0  0  0  0
    0.7056    1.0010    0.5902 H   0  0  0  0  0  0  0  0  0  0  0  0
    2.1390    0.0816    0.0755 H   0  0  0  0  0  0  0  0  0  0  0  0
    0.9104    0.9960   -1.8394 H   0  0  0  0  0  0  0  0  0  0  0  0
    0.1832   -2.4403   -0.5485 H   0  0  0  0  0  0  0  0  0  0  0  0
    0.2715   -4.8659   -0.6138 H   0  0  0  0  0  0  0  0  0  0  0  0
    0.0172   -6.7548   -2.2277 H   0  0  0  0  0  0  0  0  0  0  0  0
    1.6043   -6.8205   -4.1434 H   0  0  0  0  0  0  0  0  0  0  0  0
    3.3165    0.8244   -2.2340 H   0  0  0  0  0  0  0  0  0  0  0  0
    3.9453    2.9237   -3.4048 H   0  0  0  0  0  0  0  0  0  0  0  0
    2.6939    3.5939   -5.4447 H   0  0  0  0  0  0  0  0  0  0  0  0
    1.0680    2.0598   -6.4418 H   0  0  0  0  0  0  0  0  0  0  0  0
    1.0140   -0.3133   -5.6921 H   0  0  0  0  0  0  0  0  0  0  0  0
   -1.4682   -0.4914   -0.9132 H   0  0  0  0  0  0  0  0  0  0  0  0
   -0.9166    1.8517   -5.6586 H   0  0  0  0  0  0  0  0  0  0  0  0
   -2.4433    4.1129   -5.1553 H   0  0  0  0  0  0  0  0  0  0  0  0
   -4.2639    3.0080   -1.6655 H   0  0  0  0  0  0  0  0  0  0  0  0
  1 31  1  0  0  0  0
  1 32  1  0  0  0  0
  1 33  1  0  0  0  0
  2  1  1  0  0  0  0
  2  3  1  0  0  0  0
  2 21  1  0  0  0  0
  2 34  1  6  0  0  0
  3  4  2  0  0  0  0
  3 13  1  0  0  0  0
  4  5  1  0  0  0  0
  4 35  1  0  0  0  0
  5  6  2  0  0  0  0
  5 10  1  0  0  0  0
  6  7  1  0  0  0  0
  6 36  1  0  0  0  0
  7  8  2  0  0  0  0
  7 37  1  0  0  0  0
  8  9  1  0  0  0  0
  8 38  1  0  0  0  0
  9 10  2  0  0  0  0
  9 20  1  0  0  0  0
 10 11  1  0  0  0  0
 11 12  2  0  0  0  0
 11 13  1  0  0  0  0
 13 14  1  0  0  0  0
 14 15  2  0  0  0  0
 14 19  1  0  0  0  0
 15 16  1  0  0  0  0
 15 39  1  0  0  0  0
 16 17  2  0  0  0  0
 16 40  1  0  0  0  0
 17 18  1  0  0  0  0
 17 41  1  0  0  0  0
 18 19  2  0  0  0  0
 18 42  1  0  0  0  0
 19 43  1  0  0  0  0
 21 22  1  0  0  0  0
 21 44  1  0  0  0  0
 22 23  2  0  0  0  0
 22 30  1  0  0  0  0
 23 24  1  0  0  0  0
 23 27  1  0  0  0  0
 24 25  1  0  0  0  0
 24 28  2  0  0  0  0
 25 26  1  0  0  0  0
 25 45  1  0  0  0  0
 26 27  2  0  0  0  0
 26 46  1  0  0  0  0
 28 29  1  0  0  0  0
 29 30  2  0  0  0  0
 29 47  1  0  0  0  0
M  END
>  <DRUGBANK_ID>
DB11952

>  <COMMON_NAME>
Duvelisib

>  <CAS_NUMBER>
1201438-56-3

>  <UNII>
610V23S0JI

>  <SYNONYMS>
Duvelisib

$$$$
