4UN
 OpenBabel10282417163D

 53 56  0  0  0  0  0  0  0  0999 V2000
    0.9771    0.0204   -0.1608 O   0  0  0  0  0  0  0  0  0  0  0  0
    2.4028    0.0160    0.0201 S   0  0  0  0  0  0  0  0  0  0  0  0
    3.0750   -1.0562    0.7247 O   0  0  0  0  0  0  0  0  0  0  0  0
    3.0307    0.0213   -1.4583 O   0  0  0  0  0  0  0  0  0  0  0  0
    2.9472    1.4503    0.6468 N   0  0  0  0  0  0  0  0  0  0  0  0
    2.0674    2.3895    1.2357 C   0  0  0  0  0  0  0  0  0  0  0  0
    0.9957    2.0276    2.0543 C   0  0  0  0  0  0  0  0  0  0  0  0
    0.1774    3.0062    2.6341 C   0  0  0  0  0  0  0  0  0  0  0  0
    0.4291    4.3614    2.4057 C   0  0  0  0  0  0  0  0  0  0  0  0
    1.4798    4.6905    1.5462 C   0  0  0  0  0  0  0  0  0  0  0  0
    2.3310    3.7306    1.0127 C   0  0  0  0  0  0  0  0  0  0  0  0
   -0.4020    5.4682    3.0346 C   0  0  0  0  0  0  0  0  0  0  0  0
    0.3111    6.3974    4.0947 C   0  0  0  0  0  0  0  0  0  0  0  0
    1.5474    7.1137    3.4920 C   0  0  0  0  0  0  0  0  0  0  0  0
    1.5174    8.3702    3.0093 N   0  0  0  0  0  0  0  0  0  0  0  0
    2.7464    8.5552    2.4170 O   0  0  0  0  0  0  0  0  0  0  0  0
    3.4018    7.3739    2.5285 C   0  0  0  0  0  0  0  0  0  0  0  0
    4.5978    7.2368    1.6846 C   0  0  0  0  0  0  0  0  0  0  0  0
    2.7663    6.4920    3.2706 N   0  0  0  0  0  0  0  0  0  0  0  0
   -0.6734    7.4755    4.5636 C   0  0  0  0  0  0  0  0  0  0  0  0
   -1.9831    7.2721    4.8015 N   0  0  0  0  0  0  0  0  0  0  0  0
   -2.4154    8.4890    5.3450 O   0  0  0  0  0  0  0  0  0  0  0  0
   -1.3677    9.3469    5.2220 C   0  0  0  0  0  0  0  0  0  0  0  0
   -1.5936   10.7716    5.4784 C   0  0  0  0  0  0  0  0  0  0  0  0
   -0.2738    8.7644    4.8227 N   0  0  0  0  0  0  0  0  0  0  0  0
    0.7888    5.5047    5.2955 C   0  0  0  0  0  0  0  0  0  0  0  0
   -0.2719    4.7314    6.0622 C   0  0  0  0  0  0  0  0  0  0  0  0
   -0.3096    3.3331    6.0373 C   0  0  0  0  0  0  0  0  0  0  0  0
   -1.2983    2.6368    6.7389 C   0  0  0  0  0  0  0  0  0  0  0  0
   -2.2758    3.3280    7.4527 C   0  0  0  0  0  0  0  0  0  0  0  0
   -2.2350    4.7128    7.5085 C   0  0  0  0  0  0  0  0  0  0  0  0
   -1.2213    5.3973    6.8468 C   0  0  0  0  0  0  0  0  0  0  0  0
    2.6596   -0.7522   -1.9295 H   0  0  0  0  0  0  0  0  0  0  0  0
    3.9464    1.5348    0.8101 H   0  0  0  0  0  0  0  0  0  0  0  0
    0.7631    0.9825    2.2377 H   0  0  0  0  0  0  0  0  0  0  0  0
   -0.6585    2.6863    3.2532 H   0  0  0  0  0  0  0  0  0  0  0  0
    1.6673    5.7264    1.2934 H   0  0  0  0  0  0  0  0  0  0  0  0
    3.1608    4.0553    0.3932 H   0  0  0  0  0  0  0  0  0  0  0  0
   -0.8091    6.0762    2.2158 H   0  0  0  0  0  0  0  0  0  0  0  0
   -1.2852    5.0022    3.4972 H   0  0  0  0  0  0  0  0  0  0  0  0
    4.4191    7.6697    0.6916 H   0  0  0  0  0  0  0  0  0  0  0  0
    5.4349    7.7613    2.1456 H   0  0  0  0  0  0  0  0  0  0  0  0
    4.8574    6.1848    1.5401 H   0  0  0  0  0  0  0  0  0  0  0  0
   -2.5447   11.0878    5.0438 H   0  0  0  0  0  0  0  0  0  0  0  0
   -1.5895   10.9763    6.5503 H   0  0  0  0  0  0  0  0  0  0  0  0
   -0.7968   11.3601    5.0092 H   0  0  0  0  0  0  0  0  0  0  0  0
    1.5238    4.7775    4.9194 H   0  0  0  0  0  0  0  0  0  0  0  0
    1.3461    6.1091    6.0222 H   0  0  0  0  0  0  0  0  0  0  0  0
    0.4351    2.7689    5.4803 H   0  0  0  0  0  0  0  0  0  0  0  0
   -1.2968    1.5506    6.7399 H   0  0  0  0  0  0  0  0  0  0  0  0
   -3.0547    2.7922    7.9858 H   0  0  0  0  0  0  0  0  0  0  0  0
   -2.9722    5.2740    8.0755 H   0  0  0  0  0  0  0  0  0  0  0  0
   -1.2075    6.4779    6.9443 H   0  0  0  0  0  0  0  0  0  0  0  0
  1  2  2  0  0  0  0
  2  3  2  0  0  0  0
  2  4  1  0  0  0  0
  2  5  1  0  0  0  0
  4 33  1  0  0  0  0
  5  6  1  0  0  0  0
  5 34  1  0  0  0  0
  6  7  2  0  0  0  0
  6 11  1  0  0  0  0
  7  8  1  0  0  0  0
  7 35  1  0  0  0  0
  8  9  2  0  0  0  0
  8 36  1  0  0  0  0
  9 10  1  0  0  0  0
  9 12  1  0  0  0  0
 10 11  2  0  0  0  0
 10 37  1  0  0  0  0
 11 38  1  0  0  0  0
 12 13  1  0  0  0  0
 12 39  1  0  0  0  0
 12 40  1  0  0  0  0
 13 14  1  0  0  0  0
 13 20  1  0  0  0  0
 13 26  1  0  0  0  0
 14 15  2  0  0  0  0
 14 19  1  0  0  0  0
 15 16  1  0  0  0  0
 16 17  1  0  0  0  0
 17 18  1  0  0  0  0
 17 19  2  0  0  0  0
 18 41  1  0  0  0  0
 18 42  1  0  0  0  0
 18 43  1  0  0  0  0
 20 21  2  0  0  0  0
 20 25  1  0  0  0  0
 21 22  1  0  0  0  0
 22 23  1  0  0  0  0
 23 24  1  0  0  0  0
 23 25  2  0  0  0  0
 24 44  1  0  0  0  0
 24 45  1  0  0  0  0
 24 46  1  0  0  0  0
 26 27  1  0  0  0  0
 26 47  1  0  0  0  0
 26 48  1  0  0  0  0
 27 28  2  0  0  0  0
 27 32  1  0  0  0  0
 28 29  1  0  0  0  0
 28 49  1  0  0  0  0
 29 30  2  0  0  0  0
 29 50  1  0  0  0  0
 30 31  1  0  0  0  0
 30 51  1  0  0  0  0
 31 32  2  0  0  0  0
 31 52  1  0  0  0  0
 32 53  1  0  0  0  0
M  END
>  <DRUGBANK_ID>
DB07127

>  <COMMON_NAME>
{4-[2,2-BIS(5-METHYL-1,2,4-OXADIAZOL-3-YL)-3-PHENYLPROPYL]PHENYL}SULFAMIC ACID

$$$$
