
 OpenBabel10282417223D

 31 34  0  0  0  0  0  0  0  0999 V2000
    0.2859    0.0754    0.0009 C   0  0  0  0  0  0  0  0  0  0  0  0
    1.7305    0.4079    0.0009 C   0  0  0  0  0  0  0  0  0  0  0  0
   -0.1049   -1.3631    0.0004 C   0  0  0  0  0  0  0  0  0  0  0  0
   -0.5941    1.0247    0.0010 N   0  0  0  0  0  0  0  0  0  0  0  0
    2.6906   -0.5929    0.0000 C   0  0  0  0  0  0  0  0  0  0  0  0
    4.0380   -0.3568   -0.0008 N   0  0  0  0  0  0  0  0  0  0  0  0
    0.8256   -2.3200    0.0008 C   0  0  0  0  0  0  0  0  0  0  0  0
    2.2724   -2.0218    0.0002 C   0  0  0  0  0  0  0  0  0  0  0  0
    2.1920    1.7313    0.0010 C   0  0  0  0  0  0  0  0  0  0  0  0
   -1.4574   -1.6989   -0.0009 O   0  0  0  0  0  0  0  0  0  0  0  0
    4.4411    0.9400   -0.0011 C   0  0  0  0  0  0  0  0  0  0  0  0
    3.5530    2.0074   -0.0005 C   0  0  0  0  0  0  0  0  0  0  0  0
   -1.9413    0.6754    0.0002 C   0  0  0  0  0  0  0  0  0  0  0  0
    5.9038    1.2579   -0.0013 C   0  0  0  0  0  0  0  0  0  0  0  0
   -2.3592   -0.6571   -0.0014 C   0  0  0  0  0  0  0  0  0  0  0  0
    3.0698   -2.9523   -0.0005 O   0  0  0  0  0  0  0  0  0  0  0  0
    6.3648    2.3907   -0.0012 O   0  0  0  0  0  0  0  0  0  0  0  0
    1.3115    2.7763    0.0028 O   0  0  0  0  0  0  0  0  0  0  0  0
    6.7087    0.1817   -0.0012 O   0  0  0  0  0  0  0  0  0  0  0  0
   -2.8886    1.7013    0.0004 C   0  0  0  0  0  0  0  0  0  0  0  0
   -3.7187   -0.9628   -0.0034 C   0  0  0  0  0  0  0  0  0  0  0  0
   -4.2488    1.4016    0.0003 C   0  0  0  0  0  0  0  0  0  0  0  0
   -4.6626    0.0692   -0.0012 C   0  0  0  0  0  0  0  0  0  0  0  0
    0.5566   -3.3708    0.0009 H   0  0  0  0  0  0  0  0  0  0  0  0
    3.9186    3.0287   -0.0011 H   0  0  0  0  0  0  0  0  0  0  0  0
    1.7454    3.6421    0.0042 H   0  0  0  0  0  0  0  0  0  0  0  0
    7.6238    0.5320   -0.0010 H   0  0  0  0  0  0  0  0  0  0  0  0
   -2.5549    2.7363    0.0006 H   0  0  0  0  0  0  0  0  0  0  0  0
   -4.0454   -1.9979   -0.0067 H   0  0  0  0  0  0  0  0  0  0  0  0
   -4.9794    2.2065    0.0012 H   0  0  0  0  0  0  0  0  0  0  0  0
   -5.7240   -0.1643   -0.0007 H   0  0  0  0  0  0  0  0  0  0  0  0
  2  1  1  0  0  0  0
  3  1  1  0  0  0  0
  4  1  2  0  0  0  0
  5  2  2  0  0  0  0
  5  8  1  0  0  0  0
  6  5  1  0  0  0  0
  7  3  2  0  0  0  0
  7 24  1  0  0  0  0
  8  7  1  0  0  0  0
  9  2  1  0  0  0  0
 10  3  1  0  0  0  0
 11 12  1  0  0  0  0
 11  6  2  0  0  0  0
 12  9  2  0  0  0  0
 12 25  1  0  0  0  0
 13  4  1  0  0  0  0
 14 11  1  0  0  0  0
 15 13  1  0  0  0  0
 15 10  1  0  0  0  0
 16  8  2  0  0  0  0
 17 14  2  0  0  0  0
 18  9  1  0  0  0  0
 18 26  1  0  0  0  0
 19 14  1  0  0  0  0
 19 27  1  0  0  0  0
 20 13  2  0  0  0  0
 20 28  1  0  0  0  0
 21 15  2  0  0  0  0
 21 23  1  0  0  0  0
 21 29  1  0  0  0  0
 22 20  1  0  0  0  0
 22 30  1  0  0  0  0
 23 22  2  0  0  0  0
 23 31  1  0  0  0  0
M  END
>  <DRUGBANK_ID>
DB15945

>  <COMMON_NAME>
Pirenoxine

>  <CAS_NUMBER>
1043-21-6

>  <UNII>
27L0EP6IZK

>  <SYNONYMS>
Pirenoxina; Pirenoxine; Pirenoxinum

$$$$
