
 OpenBabel10282417123D

 25 24  0  0  1  0  0  0  0  0999 V2000
    0.9794    0.0838   -0.0157 C   0  0  0  0  0  0  0  0  0  0  0  0
    0.4424   -0.4463    1.3094 C   0  0  0  0  0  0  0  0  0  0  0  0
    0.9276    0.4117    2.4728 C   0  0  0  0  0  0  0  0  0  0  0  0
   -1.0914   -0.5185    1.2937 C   0  0  0  0  0  0  0  0  0  0  0  0
   -1.6785   -1.4652    0.2196 C   0  0  1  0  0  0  0  0  0  0  0  0
   -1.1340   -2.8844    0.2797 C   0  0  0  0  0  0  0  0  0  0  0  0
   -2.0213   -3.8843    0.4420 O   0  0  0  0  0  0  0  0  0  0  0  0
    0.0622   -3.1506    0.2192 O   0  0  0  0  0  0  0  0  0  0  0  0
   -3.1854   -1.3803    0.2280 C   0  0  0  0  0  0  0  0  0  0  0  0
   -3.8074   -0.9585   -0.7478 O   0  0  0  0  0  0  0  0  0  0  0  0
   -3.8708   -1.8329    1.3092 N   0  0  0  0  0  0  0  0  0  0  0  0
   -3.3381   -2.3962    2.4718 O   0  0  0  0  0  0  0  0  0  0  0  0
    0.6113    1.0979   -0.2021 H   0  0  0  0  0  0  0  0  0  0  0  0
    0.6745   -0.5441   -0.8581 H   0  0  0  0  0  0  0  0  0  0  0  0
    2.0720    0.1020   -0.0114 H   0  0  0  0  0  0  0  0  0  0  0  0
    0.8555   -1.4418    1.4932 H   0  0  0  0  0  0  0  0  0  0  0  0
    0.5743    1.4423    2.3816 H   0  0  0  0  0  0  0  0  0  0  0  0
    0.5696    0.0056    3.4255 H   0  0  0  0  0  0  0  0  0  0  0  0
    2.0219    0.4171    2.5052 H   0  0  0  0  0  0  0  0  0  0  0  0
   -1.4202   -0.7974    2.2990 H   0  0  0  0  0  0  0  0  0  0  0  0
   -1.5006    0.4913    1.1396 H   0  0  0  0  0  0  0  0  0  0  0  0
   -1.3909   -1.0882   -0.7718 H   0  0  0  0  0  0  0  0  0  0  0  0
   -2.9730   -3.6638    0.4949 H   0  0  0  0  0  0  0  0  0  0  0  0
   -4.8866   -1.7676    1.2846 H   0  0  0  0  0  0  0  0  0  0  0  0
   -2.3710   -2.4572    2.3886 H   0  0  0  0  0  0  0  0  0  0  0  0
  1  2  1  0  0  0  0
  1 13  1  0  0  0  0
  1 14  1  0  0  0  0
  1 15  1  0  0  0  0
  2  3  1  0  0  0  0
  2  4  1  0  0  0  0
  2 16  1  0  0  0  0
  3 17  1  0  0  0  0
  3 18  1  0  0  0  0
  3 19  1  0  0  0  0
  4  5  1  0  0  0  0
  4 20  1  0  0  0  0
  4 21  1  0  0  0  0
  5  6  1  0  0  0  0
  5  9  1  0  0  0  0
  5 22  1  6  0  0  0
  6  7  1  0  0  0  0
  6  8  2  0  0  0  0
  7 23  1  0  0  0  0
  9 10  2  0  0  0  0
  9 11  1  0  0  0  0
 11 12  1  0  0  0  0
 11 24  1  0  0  0  0
 12 25  1  0  0  0  0
M  END
>  <DRUGBANK_ID>
DB02326

>  <SECONDARY_ACCESSION_NUMBERS>
EXPT01761; DB07904

>  <COMMON_NAME>
1-Hydroxyamine-2-Isobutylmalonic Acid

$$$$
