
 OpenBabel10282417163D

 22 22  0  0  0  0  0  0  0  0999 V2000
   -0.6875    1.1188   -0.0032 N   0  0  0  0  0  0  0  0  0  0  0  0
   -0.6722   -1.2495   -0.0032 N   0  0  0  0  0  0  0  0  0  0  0  0
   -1.3078   -0.0655   -0.0041 C   0  0  0  0  0  0  0  0  0  0  0  0
    1.4261   -0.0485    0.0076 C   0  0  0  0  0  0  0  0  0  0  0  0
    0.6674    1.1012    0.0029 C   0  0  0  0  0  0  0  0  0  0  0  0
    0.6798   -1.2018    0.0020 C   0  0  0  0  0  0  0  0  0  0  0  0
    2.8945    0.0534    0.0324 C   0  0  0  0  0  0  0  0  0  0  0  0
    3.4547    1.1426    0.1023 O   0  0  0  0  0  0  0  0  0  0  0  0
    3.5160   -1.1452   -0.0408 O   0  0  0  0  0  0  0  0  0  0  0  0
   -2.6735   -0.0429   -0.0055 N   0  0  0  0  0  0  0  0  0  0  0  0
    1.2845   -2.4256    0.0082 O   0  0  0  0  0  0  0  0  0  0  0  0
    4.9548   -1.1587   -0.0289 C   0  0  0  0  0  0  0  0  0  0  0  0
    5.5270   -0.5236   -1.2834 C   0  0  0  0  0  0  0  0  0  0  0  0
    1.1311    2.0856    0.0050 H   0  0  0  0  0  0  0  0  0  0  0  0
   -3.1862   -0.9057   -0.0101 H   0  0  0  0  0  0  0  0  0  0  0  0
   -3.1321    0.8543   -0.0098 H   0  0  0  0  0  0  0  0  0  0  0  0
    0.5574   -3.0669    0.0048 H   0  0  0  0  0  0  0  0  0  0  0  0
    5.3286   -0.6823    0.8842 H   0  0  0  0  0  0  0  0  0  0  0  0
    5.2651   -2.2107    0.0078 H   0  0  0  0  0  0  0  0  0  0  0  0
    5.2342    0.5255   -1.3709 H   0  0  0  0  0  0  0  0  0  0  0  0
    6.6190   -0.5664   -1.2816 H   0  0  0  0  0  0  0  0  0  0  0  0
    5.1464   -1.0316   -2.1749 H   0  0  0  0  0  0  0  0  0  0  0  0
  3  1  2  0  0  0  0
  3  2  1  0  0  0  0
  5  1  1  0  0  0  0
  5  4  2  0  0  0  0
  5 14  1  0  0  0  0
  6  2  2  0  0  0  0
  6  4  1  0  0  0  0
  7  4  1  0  0  0  0
  8  7  2  0  0  0  0
  9  7  1  0  0  0  0
 10  3  1  0  0  0  0
 10 15  1  0  0  0  0
 10 16  1  0  0  0  0
 11  6  1  0  0  0  0
 11 17  1  0  0  0  0
 12  9  1  0  0  0  0
 12 18  1  0  0  0  0
 12 19  1  0  0  0  0
 13 12  1  0  0  0  0
 13 20  1  0  0  0  0
 13 21  1  0  0  0  0
 13 22  1  0  0  0  0
M  END
>  <DRUGBANK_ID>
DB06906

>  <COMMON_NAME>
ethyl 2-amino-4-hydroxypyrimidine-5-carboxylate

>  <CAS_NUMBER>
15400-53-0

$$$$
