
 OpenBabel10282417193D

 21 21  0  0  0  0  0  0  0  0999 V2000
    0.9569   -0.0552    0.0823 C   0  0  0  0  0  0  0  0  0  0  0  0
    1.3861   -3.2982   -3.6530 C   0  0  0  0  0  0  0  0  0  0  0  0
    2.4295   -2.7126   -2.9299 C   0  0  0  0  0  0  0  0  0  0  0  0
   -0.1775   -2.6169   -1.9440 C   0  0  0  0  0  0  0  0  0  0  0  0
   -1.0571   -3.8706   -3.9553 C   0  0  0  0  0  0  0  0  0  0  0  0
    0.0736   -3.2626   -3.1675 C   0  0  0  0  0  0  0  0  0  0  0  0
    2.1633   -2.0671   -1.7206 C   0  0  0  0  0  0  0  0  0  0  0  0
    0.8561   -1.9908   -1.2360 C   0  0  0  0  0  0  0  0  0  0  0  0
   -1.6853   -4.9139   -3.2259 O   0  0  0  0  0  0  0  0  0  0  0  0
    3.2011   -1.5433   -1.0014 O   0  0  0  0  0  0  0  0  0  0  0  0
    0.4990   -1.4002   -0.0502 O   0  0  0  0  0  0  0  0  0  0  0  0
    0.5343    0.3484    1.0077 H   0  0  0  0  0  0  0  0  0  0  0  0
    0.6060    0.5660   -0.7490 H   0  0  0  0  0  0  0  0  0  0  0  0
    2.0415    0.0185    0.1849 H   0  0  0  0  0  0  0  0  0  0  0  0
    1.6108   -3.7871   -4.5995 H   0  0  0  0  0  0  0  0  0  0  0  0
    3.4405   -2.7757   -3.3183 H   0  0  0  0  0  0  0  0  0  0  0  0
   -1.1896   -2.5901   -1.5455 H   0  0  0  0  0  0  0  0  0  0  0  0
   -1.8028   -3.1056   -4.1943 H   0  0  0  0  0  0  0  0  0  0  0  0
   -0.7010   -4.2928   -4.9012 H   0  0  0  0  0  0  0  0  0  0  0  0
   -0.9809   -5.5106   -2.9210 H   0  0  0  0  0  0  0  0  0  0  0  0
    4.0258   -1.6431   -1.5000 H   0  0  0  0  0  0  0  0  0  0  0  0
  1 12  1  0  0  0  0
  1 13  1  0  0  0  0
  1 14  1  0  0  0  0
  2 15  1  0  0  0  0
  3  2  2  0  0  0  0
  3 16  1  0  0  0  0
  4 17  1  0  0  0  0
  5 18  1  0  0  0  0
  5 19  1  0  0  0  0
  6  2  1  0  0  0  0
  6  4  2  0  0  0  0
  6  5  1  0  0  0  0
  7  3  1  0  0  0  0
  8  4  1  0  0  0  0
  8  7  2  0  0  0  0
  9  5  1  0  0  0  0
  9 20  1  0  0  0  0
 10  7  1  0  0  0  0
 10 21  1  0  0  0  0
 11  1  1  0  0  0  0
 11  8  1  0  0  0  0
M  END
>  <DRUGBANK_ID>
DB12087

>  <COMMON_NAME>
Vanillyl alcohol

>  <CAS_NUMBER>
498-00-0

>  <UNII>
X7EA1JUA6M

$$$$
