
 OpenBabel10282417243D

 54 57  0  0  0  0  0  0  0  0999 V2000
    1.0654   -0.0829   -0.0553 C   0  0  0  0  0  0  0  0  0  0  0  0
    0.5849   -1.5238    0.0823 C   0  0  0  0  0  0  0  0  0  0  0  0
    1.0198   -2.1990    1.4082 C   0  0  0  0  0  0  0  0  0  0  0  0
    0.5494   -1.3543    2.6509 C   0  0  0  0  0  0  0  0  0  0  0  0
   -0.9599   -1.1323    2.8003 C   0  0  0  0  0  0  0  0  0  0  0  0
    0.5227   -3.6517    1.4594 C   0  0  0  0  0  0  0  0  0  0  0  0
   -0.7889   -3.8998    1.5592 C   0  0  0  0  0  0  0  0  0  0  0  0
   -1.2370   -5.2787    1.8363 C   0  0  0  0  0  0  0  0  0  0  0  0
   -2.6784   -5.4150    2.2483 C   0  0  0  0  0  0  0  0  0  0  0  0
   -0.4696   -6.3281    1.7673 N   0  0  0  0  0  0  0  0  0  0  0  0
    0.8449   -6.0921    1.4545 C   0  0  0  0  0  0  0  0  0  0  0  0
    1.8885   -6.9666    1.2092 C   0  0  0  0  0  0  0  0  0  0  0  0
    3.0117   -6.1350    0.9844 C   0  0  0  0  0  0  0  0  0  0  0  0
    4.3968   -6.5617    0.6551 C   0  0  0  0  0  0  0  0  0  0  0  0
    2.7156   -4.8267    1.0840 N   0  0  0  0  0  0  0  0  0  0  0  0
    1.3815   -4.7803    1.3555 N   0  0  0  0  0  0  0  0  0  0  0  0
    1.8566   -8.4437    1.1734 C   0  0  0  0  0  0  0  0  0  0  0  0
    2.6636   -9.1746    2.0628 N   0  0  0  0  0  0  0  0  0  0  0  0
    2.5063  -10.4760    1.8807 C   0  0  0  0  0  0  0  0  0  0  0  0
    1.3917  -10.8842    0.6188 S   0  0  0  0  0  0  0  0  0  0  0  0
    1.0919   -9.2372    0.3470 C   0  0  0  0  0  0  0  0  0  0  0  0
   -0.0253   -8.8105   -0.8860 Cl  0  0  0  0  0  0  0  0  0  0  0  0
    3.0880  -11.4666    2.6091 N   0  0  0  0  0  0  0  0  0  0  0  0
    3.0144  -11.5099    4.0670 C   0  0  0  0  0  0  0  0  0  0  0  0
    4.4286  -11.4850    4.6640 C   0  0  0  0  0  0  0  0  0  0  0  0
    5.2476  -12.5395    4.1207 O   0  0  0  0  0  0  0  0  0  0  0  0
    5.3492  -12.4035    2.6911 C   0  0  0  0  0  0  0  0  0  0  0  0
    3.9636  -12.4820    2.0208 C   0  0  0  0  0  0  0  0  0  0  0  0
    0.6715    0.5609    0.7368 H   0  0  0  0  0  0  0  0  0  0  0  0
    0.7215    0.3430   -1.0025 H   0  0  0  0  0  0  0  0  0  0  0  0
    2.1577   -0.0346   -0.0277 H   0  0  0  0  0  0  0  0  0  0  0  0
   -0.5074   -1.5296   -0.0136 H   0  0  0  0  0  0  0  0  0  0  0  0
    0.9644   -2.1049   -0.7665 H   0  0  0  0  0  0  0  0  0  0  0  0
    2.1184   -2.1906    1.4387 H   0  0  0  0  0  0  0  0  0  0  0  0
    0.9242   -1.8185    3.5705 H   0  0  0  0  0  0  0  0  0  0  0  0
    1.0211   -0.3642    2.6183 H   0  0  0  0  0  0  0  0  0  0  0  0
   -1.4536   -2.0360    3.1664 H   0  0  0  0  0  0  0  0  0  0  0  0
   -1.1869   -0.3677    3.5464 H   0  0  0  0  0  0  0  0  0  0  0  0
   -1.4280   -0.8232    1.8599 H   0  0  0  0  0  0  0  0  0  0  0  0
   -1.5584   -3.1466    1.5057 H   0  0  0  0  0  0  0  0  0  0  0  0
   -3.2208   -5.9547    1.4714 H   0  0  0  0  0  0  0  0  0  0  0  0
   -2.7473   -5.9437    3.2019 H   0  0  0  0  0  0  0  0  0  0  0  0
   -3.1452   -4.4307    2.3782 H   0  0  0  0  0  0  0  0  0  0  0  0
    4.8075   -7.1639    1.4708 H   0  0  0  0  0  0  0  0  0  0  0  0
    4.4032   -7.1647   -0.2595 H   0  0  0  0  0  0  0  0  0  0  0  0
    5.0645   -5.7080    0.4957 H   0  0  0  0  0  0  0  0  0  0  0  0
    2.5424  -12.4643    4.3419 H   0  0  0  0  0  0  0  0  0  0  0  0
    2.3958  -10.7100    4.4850 H   0  0  0  0  0  0  0  0  0  0  0  0
    4.9173  -10.5239    4.4730 H   0  0  0  0  0  0  0  0  0  0  0  0
    4.3811  -11.6342    5.7476 H   0  0  0  0  0  0  0  0  0  0  0  0
    5.9933  -13.2109    2.3276 H   0  0  0  0  0  0  0  0  0  0  0  0
    5.8424  -11.4514    2.4632 H   0  0  0  0  0  0  0  0  0  0  0  0
    3.5305  -13.4706    2.2222 H   0  0  0  0  0  0  0  0  0  0  0  0
    4.0700  -12.3762    0.9362 H   0  0  0  0  0  0  0  0  0  0  0  0
  1  2  1  0  0  0  0
  1 29  1  0  0  0  0
  1 30  1  0  0  0  0
  1 31  1  0  0  0  0
  2  3  1  0  0  0  0
  2 32  1  0  0  0  0
  2 33  1  0  0  0  0
  3  4  1  0  0  0  0
  3  6  1  0  0  0  0
  3 34  1  0  0  0  0
  4  5  1  0  0  0  0
  4 35  1  0  0  0  0
  4 36  1  0  0  0  0
  5 37  1  0  0  0  0
  5 38  1  0  0  0  0
  5 39  1  0  0  0  0
  6  7  2  0  0  0  0
  6 16  1  0  0  0  0
  7  8  1  0  0  0  0
  7 40  1  0  0  0  0
  8  9  1  0  0  0  0
  8 10  2  0  0  0  0
  9 41  1  0  0  0  0
  9 42  1  0  0  0  0
  9 43  1  0  0  0  0
 10 11  1  0  0  0  0
 11 12  2  0  0  0  0
 11 16  1  0  0  0  0
 12 13  1  0  0  0  0
 12 17  1  0  0  0  0
 13 14  1  0  0  0  0
 13 15  2  0  0  0  0
 14 44  1  0  0  0  0
 14 45  1  0  0  0  0
 14 46  1  0  0  0  0
 15 16  1  0  0  0  0
 17 18  1  0  0  0  0
 17 21  2  0  0  0  0
 18 19  2  0  0  0  0
 19 20  1  0  0  0  0
 19 23  1  0  0  0  0
 20 21  1  0  0  0  0
 21 22  1  0  0  0  0
 23 24  1  0  0  0  0
 23 28  1  0  0  0  0
 24 25  1  0  0  0  0
 24 47  1  0  0  0  0
 24 48  1  0  0  0  0
 25 26  1  0  0  0  0
 25 49  1  0  0  0  0
 25 50  1  0  0  0  0
 26 27  1  0  0  0  0
 27 28  1  0  0  0  0
 27 51  1  0  0  0  0
 27 52  1  0  0  0  0
 28 53  1  0  0  0  0
 28 54  1  0  0  0  0
M  END
>  <DRUGBANK_ID>
DB18545

>  <COMMON_NAME>
Tildacerfont

>  <CAS_NUMBER>
1014983-00-6

>  <UNII>
09QCEV5481

>  <SYNONYMS>
3-(5-chloro-2-morpholin-4-yl-thiazol-4-yl)-7-(1-ethyl-propyl)-2,5-dimethyl-pyrazolo(1,5-a)pyrimidine; Pyrazolo(1,5-a)pyrimidine, 3-(4-chloro-2-(4-morpholinyl)-5-thiazolyl)-7-(1-ethylpropyl)-2,5-dimethyl-; Pyrazolo(1,5-a)pyrimidine, 3-(4-chloro-2-(4-morpholinyl)-5-thiazolyl)-7-(1-ethylpropyl)-2,5-dimethyl-pyrazolo(1,3-a)pyrimidine

$$$$
