
 OpenBabel10282417193D

 26 27  0  0  1  0  0  0  0  0999 V2000
   -0.6919    1.2336    0.0637 C   0  0  0  0  0  0  0  0  0  0  0  0
   -1.4051    0.1074    0.0242 C   0  0  0  0  0  0  0  0  0  0  0  0
   -0.6735   -1.1817    0.0165 C   0  0  0  0  0  0  0  0  0  0  0  0
    0.6249   -1.2264    0.0260 N   0  0  0  0  0  0  0  0  0  0  0  0
    1.3556   -0.0613    0.0321 C   0  0  0  0  0  0  0  0  0  0  0  0
    2.5860   -0.1172   -0.0496 O   0  0  0  0  0  0  0  0  0  0  0  0
    0.6937    1.1801    0.1048 N   0  0  0  0  0  0  0  0  0  0  0  0
    1.5612    2.3479   -0.0139 C   0  0  1  0  0  0  0  0  0  0  0  0
    1.5241    2.8754   -1.4065 C   0  0  0  0  0  0  0  0  0  0  0  0
    1.4617    4.2068   -1.3969 C   0  0  0  0  0  0  0  0  0  0  0  0
    1.4118    4.6851    0.0101 C   0  0  2  0  0  0  0  0  0  0  0  0
    1.1709    3.4753    0.8002 O   0  0  0  0  0  0  0  0  0  0  0  0
    0.2461    5.6219    0.3168 C   0  0  0  0  0  0  0  0  0  0  0  0
    0.3277    6.0738    1.6704 O   0  0  0  0  0  0  0  0  0  0  0  0
   -1.3403   -2.3756   -0.0084 N   0  0  0  0  0  0  0  0  0  0  0  0
   -2.7486    0.0568   -0.0277 F   0  0  0  0  0  0  0  0  0  0  0  0
   -1.1743    2.2045    0.0434 H   0  0  0  0  0  0  0  0  0  0  0  0
    2.5803    2.0965    0.2951 H   0  0  0  0  0  0  0  0  0  0  0  0
    1.5510    2.2549   -2.2880 H   0  0  0  0  0  0  0  0  0  0  0  0
    1.4661    4.8414   -2.2718 H   0  0  0  0  0  0  0  0  0  0  0  0
    2.3676    5.1500    0.2975 H   0  0  0  0  0  0  0  0  0  0  0  0
    0.2331    6.4981   -0.3375 H   0  0  0  0  0  0  0  0  0  0  0  0
   -0.7005    5.0822    0.2134 H   0  0  0  0  0  0  0  0  0  0  0  0
    0.4407    5.2696    2.2136 H   0  0  0  0  0  0  0  0  0  0  0  0
   -0.8043   -3.2355    0.0101 H   0  0  0  0  0  0  0  0  0  0  0  0
   -2.3495   -2.4341    0.0104 H   0  0  0  0  0  0  0  0  0  0  0  0
  1  2  2  0  0  0  0
  1  7  1  0  0  0  0
  1 17  1  0  0  0  0
  2  3  1  0  0  0  0
  2 16  1  0  0  0  0
  3  4  2  0  0  0  0
  3 15  1  0  0  0  0
  4  5  1  0  0  0  0
  5  6  2  0  0  0  0
  5  7  1  0  0  0  0
  8  7  1  0  0  0  0
  8  9  1  0  0  0  0
  8 12  1  0  0  0  0
  8 18  1  1  0  0  0
  9 10  2  0  0  0  0
  9 19  1  0  0  0  0
 10 11  1  0  0  0  0
 10 20  1  0  0  0  0
 11 12  1  0  0  0  0
 11 13  1  0  0  0  0
 11 21  1  1  0  0  0
 13 14  1  0  0  0  0
 13 22  1  0  0  0  0
 13 23  1  0  0  0  0
 14 24  1  0  0  0  0
 15 25  1  0  0  0  0
 15 26  1  0  0  0  0
M  END
>  <DRUGBANK_ID>
DB12470

>  <COMMON_NAME>
Dexelvucitabine

>  <CAS_NUMBER>
134379-77-4

>  <UNII>
KU8SPJ271W

>  <SYNONYMS>
Dexelvucitabine

$$$$
