
 OpenBabel10282417223D

 53 56  0  0  0  0  0  0  0  0999 V2000
    1.1805   -0.0452   -0.0266 C   0  0  0  0  0  0  0  0  0  0  0  0
    0.8365   -1.4276    0.0106 O   0  0  0  0  0  0  0  0  0  0  0  0
    0.9946   -2.0591   -1.1916 C   0  0  0  0  0  0  0  0  0  0  0  0
    2.2794   -2.1693   -1.7182 C   0  0  0  0  0  0  0  0  0  0  0  0
    2.4873   -2.8935   -2.8782 C   0  0  0  0  0  0  0  0  0  0  0  0
    1.4025   -3.5205   -3.4722 C   0  0  0  0  0  0  0  0  0  0  0  0
    1.6249   -4.2398   -4.7753 C   0  0  0  0  0  0  0  0  0  0  0  0
    1.2125   -5.6273   -4.7753 N   0  0  0  0  0  0  0  0  0  0  0  0
    0.2645   -6.2286   -5.5608 C   0  0  0  0  0  0  0  0  0  0  0  0
    0.0256   -7.4244   -5.4097 O   0  0  0  0  0  0  0  0  0  0  0  0
   -0.4834   -5.4152   -6.5492 C   0  0  0  0  0  0  0  0  0  0  0  0
    0.1998   -4.6281   -7.4845 C   0  0  0  0  0  0  0  0  0  0  0  0
   -0.4953   -3.7449   -8.3175 C   0  0  0  0  0  0  0  0  0  0  0  0
   -1.8825   -3.7656   -8.2226 C   0  0  0  0  0  0  0  0  0  0  0  0
   -2.5808   -4.5582   -7.3722 N   0  0  0  0  0  0  0  0  0  0  0  0
   -1.8780   -5.3806   -6.5349 C   0  0  0  0  0  0  0  0  0  0  0  0
   -2.6645   -6.2140   -5.6121 C   0  0  0  0  0  0  0  0  0  0  0  0
   -3.4103   -7.1953   -6.1864 N   0  0  0  0  0  0  0  0  0  0  0  0
   -3.9640   -8.1084   -5.3614 C   0  0  0  0  0  0  0  0  0  0  0  0
   -3.8218   -8.0948   -3.9835 C   0  0  0  0  0  0  0  0  0  0  0  0
   -3.0894   -7.0661   -3.4067 C   0  0  0  0  0  0  0  0  0  0  0  0
   -2.5170   -6.1008   -4.2267 C   0  0  0  0  0  0  0  0  0  0  0  0
    0.2289   -2.8626   -9.2315 C   0  0  0  0  0  0  0  0  0  0  0  0
    0.1705   -1.4688   -9.1458 C   0  0  0  0  0  0  0  0  0  0  0  0
    0.8789   -0.6233   -9.9360 N   0  0  0  0  0  0  0  0  0  0  0  0
    1.6856   -1.1919  -10.8645 C   0  0  0  0  0  0  0  0  0  0  0  0
    1.8111   -2.5599  -11.0360 C   0  0  0  0  0  0  0  0  0  0  0  0
    2.8641   -3.2157  -12.2202 Cl  0  0  0  0  0  0  0  0  0  0  0  0
    1.0722   -3.4004  -10.2124 C   0  0  0  0  0  0  0  0  0  0  0  0
    0.1368   -3.4262   -2.9831 N   0  0  0  0  0  0  0  0  0  0  0  0
   -0.0599   -2.7128   -1.8415 C   0  0  0  0  0  0  0  0  0  0  0  0
   -1.3732   -2.7202   -1.4493 O   0  0  0  0  0  0  0  0  0  0  0  0
   -1.6947   -2.0459   -0.2395 C   0  0  0  0  0  0  0  0  0  0  0  0
    0.7677    0.4119    0.8780 H   0  0  0  0  0  0  0  0  0  0  0  0
    0.7430    0.4674   -0.8911 H   0  0  0  0  0  0  0  0  0  0  0  0
    2.2656    0.0799   -0.0038 H   0  0  0  0  0  0  0  0  0  0  0  0
    3.1267   -1.7204   -1.2128 H   0  0  0  0  0  0  0  0  0  0  0  0
    3.4817   -2.9687   -3.3055 H   0  0  0  0  0  0  0  0  0  0  0  0
    1.1055   -3.6498   -5.5247 H   0  0  0  0  0  0  0  0  0  0  0  0
    2.6860   -4.2511   -5.0491 H   0  0  0  0  0  0  0  0  0  0  0  0
    1.5761   -6.2333   -4.0478 H   0  0  0  0  0  0  0  0  0  0  0  0
    1.2868   -4.6639   -7.5228 H   0  0  0  0  0  0  0  0  0  0  0  0
   -2.5006   -3.1374   -8.8605 H   0  0  0  0  0  0  0  0  0  0  0  0
   -4.5296   -8.8914   -5.8570 H   0  0  0  0  0  0  0  0  0  0  0  0
   -4.2630   -8.8748   -3.3750 H   0  0  0  0  0  0  0  0  0  0  0  0
   -2.9300   -7.0298   -2.3336 H   0  0  0  0  0  0  0  0  0  0  0  0
   -1.9008   -5.3171   -3.7930 H   0  0  0  0  0  0  0  0  0  0  0  0
   -0.4483   -0.9684   -8.4027 H   0  0  0  0  0  0  0  0  0  0  0  0
    2.2456   -0.4943  -11.4808 H   0  0  0  0  0  0  0  0  0  0  0  0
    1.1494   -4.4791  -10.3288 H   0  0  0  0  0  0  0  0  0  0  0  0
   -1.1809   -2.5031    0.6137 H   0  0  0  0  0  0  0  0  0  0  0  0
   -1.4870   -0.9732   -0.3208 H   0  0  0  0  0  0  0  0  0  0  0  0
   -2.7671   -2.1395   -0.0503 H   0  0  0  0  0  0  0  0  0  0  0  0
  1  2  1  0  0  0  0
  1 34  1  0  0  0  0
  1 35  1  0  0  0  0
  1 36  1  0  0  0  0
  2  3  1  0  0  0  0
  3  4  2  0  0  0  0
  3 31  1  0  0  0  0
  4  5  1  0  0  0  0
  4 37  1  0  0  0  0
  5  6  2  0  0  0  0
  5 38  1  0  0  0  0
  6  7  1  0  0  0  0
  6 30  1  0  0  0  0
  7  8  1  0  0  0  0
  7 39  1  0  0  0  0
  7 40  1  0  0  0  0
  8  9  1  0  0  0  0
  8 41  1  0  0  0  0
  9 10  2  0  0  0  0
  9 11  1  0  0  0  0
 11 12  2  0  0  0  0
 11 16  1  0  0  0  0
 12 13  1  0  0  0  0
 12 42  1  0  0  0  0
 13 14  2  0  0  0  0
 13 23  1  0  0  0  0
 14 15  1  0  0  0  0
 14 43  1  0  0  0  0
 15 16  2  0  0  0  0
 16 17  1  0  0  0  0
 17 18  2  0  0  0  0
 17 22  1  0  0  0  0
 18 19  1  0  0  0  0
 19 20  2  0  0  0  0
 19 44  1  0  0  0  0
 20 21  1  0  0  0  0
 20 45  1  0  0  0  0
 21 22  2  0  0  0  0
 21 46  1  0  0  0  0
 22 47  1  0  0  0  0
 23 24  2  0  0  0  0
 23 29  1  0  0  0  0
 24 25  1  0  0  0  0
 24 48  1  0  0  0  0
 25 26  2  0  0  0  0
 26 27  1  0  0  0  0
 26 49  1  0  0  0  0
 27 28  1  0  0  0  0
 27 29  2  0  0  0  0
 29 50  1  0  0  0  0
 30 31  2  0  0  0  0
 31 32  1  0  0  0  0
 32 33  1  0  0  0  0
 33 51  1  0  0  0  0
 33 52  1  0  0  0  0
 33 53  1  0  0  0  0
M  END
>  <DRUGBANK_ID>
DB15028

>  <COMMON_NAME>
MK-1064

>  <CAS_NUMBER>
1207253-08-4

>  <UNII>
O812716S9E

$$$$
