
 OpenBabel10282417113D

 42 43  0  0  0  0  0  0  0  0999 V2000
    1.0443    0.0480   -0.0556 C   0  0  1  0  0  0  0  0  0  0  0  0
    0.5519   -0.0084   -1.4999 C   0  0  0  0  0  0  0  0  0  0  0  0
   -0.5346   -0.8121   -1.8785 C   0  0  0  0  0  0  0  0  0  0  0  0
    1.1392    0.8051   -2.4867 C   0  0  0  0  0  0  0  0  0  0  0  0
    0.5053    1.3134    0.6827 C   0  0  2  0  0  0  0  0  0  0  0  0
    0.9344    2.5887    0.0952 N   0  0  0  0  0  0  0  0  0  0  0  0
   -0.4013    0.0038   -4.1418 C   0  0  0  0  0  0  0  0  0  0  0  0
    0.6231    7.3480    1.8032 C   0  0  0  0  0  0  0  0  0  0  0  0
    0.6647    0.8248   -3.7997 C   0  0  0  0  0  0  0  0  0  0  0  0
   -1.0025   -0.8060   -3.1928 C   0  0  0  0  0  0  0  0  0  0  0  0
    0.6471   -1.1333    0.6526 O   0  0  0  0  0  0  0  0  0  0  0  0
    1.9733    5.3562    0.3874 C   0  0  0  0  0  0  0  0  0  0  0  0
    0.8592    7.5058    0.4441 C   0  0  0  0  0  0  0  0  0  0  0  0
    1.0511    6.2105    2.4745 C   0  0  0  0  0  0  0  0  0  0  0  0
    1.5321    6.5127   -0.2682 C   0  0  0  0  0  0  0  0  0  0  0  0
    1.7442    5.2326    1.7686 C   0  0  0  0  0  0  0  0  0  0  0  0
    2.3776    2.8501    0.1298 C   0  0  0  0  0  0  0  0  0  0  0  0
   -0.8893   -0.0363   -5.4132 O   0  0  0  0  0  0  0  0  0  0  0  0
   -0.0370    8.3425    2.4603 O   0  0  0  0  0  0  0  0  0  0  0  0
    2.6603    4.2630   -0.4055 C   0  0  0  0  0  0  0  0  0  0  0  0
    0.7559    1.2981    2.1972 C   0  0  0  0  0  0  0  0  0  0  0  0
    2.1403    0.0339   -0.0487 H   0  0  0  0  0  0  0  0  0  0  0  0
   -1.0351   -1.4552   -1.1637 H   0  0  0  0  0  0  0  0  0  0  0  0
    1.9645    1.4666   -2.2421 H   0  0  0  0  0  0  0  0  0  0  0  0
   -0.5886    1.2881    0.5739 H   0  0  0  0  0  0  0  0  0  0  0  0
    0.4261    3.3524    0.5440 H   0  0  0  0  0  0  0  0  0  0  0  0
    1.1303    1.4864   -4.5209 H   0  0  0  0  0  0  0  0  0  0  0  0
   -1.8421   -1.4375   -3.4695 H   0  0  0  0  0  0  0  0  0  0  0  0
   -0.3162   -1.0786    0.7684 H   0  0  0  0  0  0  0  0  0  0  0  0
    0.5126    8.4007   -0.0654 H   0  0  0  0  0  0  0  0  0  0  0  0
    0.8561    6.0591    3.5298 H   0  0  0  0  0  0  0  0  0  0  0  0
    1.6921    6.6380   -1.3362 H   0  0  0  0  0  0  0  0  0  0  0  0
    2.0675    4.3508    2.3166 H   0  0  0  0  0  0  0  0  0  0  0  0
    2.7882    2.7558    1.1383 H   0  0  0  0  0  0  0  0  0  0  0  0
    2.9292    2.1313   -0.4818 H   0  0  0  0  0  0  0  0  0  0  0  0
   -0.3456    0.5436   -5.9687 H   0  0  0  0  0  0  0  0  0  0  0  0
   -0.0856    8.1076    3.4008 H   0  0  0  0  0  0  0  0  0  0  0  0
    3.7407    4.4475   -0.3973 H   0  0  0  0  0  0  0  0  0  0  0  0
    2.3362    4.3048   -1.4552 H   0  0  0  0  0  0  0  0  0  0  0  0
    1.8182    1.3731    2.4456 H   0  0  0  0  0  0  0  0  0  0  0  0
    0.2367    2.1378    2.6754 H   0  0  0  0  0  0  0  0  0  0  0  0
    0.3761    0.3821    2.6585 H   0  0  0  0  0  0  0  0  0  0  0  0
  1 11  1  0  0  0  0
  1 22  1  6  0  0  0
  1  5  1  0  0  0  0
  1  2  1  0  0  0  0
  3  2  2  0  0  0  0
  3 23  1  0  0  0  0
  4  2  1  0  0  0  0
  4 24  1  0  0  0  0
  5 25  1  6  0  0  0
  5 21  1  0  0  0  0
  5  6  1  0  0  0  0
  6 26  1  0  0  0  0
  7  9  1  0  0  0  0
  7 10  2  0  0  0  0
  8 14  2  0  0  0  0
  9  4  2  0  0  0  0
  9 27  1  0  0  0  0
 10  3  1  0  0  0  0
 10 28  1  0  0  0  0
 11 29  1  0  0  0  0
 12 20  1  0  0  0  0
 13 15  2  0  0  0  0
 13  8  1  0  0  0  0
 13 30  1  0  0  0  0
 14 16  1  0  0  0  0
 14 31  1  0  0  0  0
 15 12  1  0  0  0  0
 15 32  1  0  0  0  0
 16 12  2  0  0  0  0
 16 33  1  0  0  0  0
 17  6  1  0  0  0  0
 17 34  1  0  0  0  0
 17 35  1  0  0  0  0
 18  7  1  0  0  0  0
 18 36  1  0  0  0  0
 19  8  1  0  0  0  0
 19 37  1  0  0  0  0
 20 17  1  0  0  0  0
 20 38  1  0  0  0  0
 20 39  1  0  0  0  0
 21 40  1  0  0  0  0
 21 41  1  0  0  0  0
 21 42  1  0  0  0  0
M  END
>  <DRUGBANK_ID>
DB00867

>  <SECONDARY_ACCESSION_NUMBERS>
APRD00541

>  <COMMON_NAME>
Ritodrine

>  <CAS_NUMBER>
26652-09-5

>  <UNII>
I0Q6O6740J

>  <SYNONYMS>
p-Hydroxy-alpha-(1-((p-hydroxyphenethyl)amino)ethyl)benzyl alcohol; Ritodrina; Ritodrine; Ritodrinium

$$$$
