
 OpenBabel10282417153D

 35 34  0  0  1  0  0  0  0  0999 V2000
    0.9004    0.0207   -0.2665 O   0  0  0  0  0  0  0  0  0  0  0  0
    0.9733   -1.7661   -1.5924 O   0  0  0  0  0  0  0  0  0  0  0  0
   -1.2096   -0.9227   -0.9245 C   0  0  1  0  0  0  0  0  0  0  0  0
   -1.7133   -1.2077    0.5030 C   0  0  0  0  0  0  0  0  0  0  0  0
   -1.2900   -0.1749    1.5564 C   0  0  0  0  0  0  0  0  0  0  0  0
   -1.7566    0.3691   -1.5521 C   0  0  0  0  0  0  0  0  0  0  0  0
   -1.8006    1.2437    1.3001 C   0  0  0  0  0  0  0  0  0  0  0  0
   -3.3283    1.2759    1.1683 C   0  0  0  0  0  0  0  0  0  0  0  0
   -1.2938    0.6935   -2.9469 C   0  0  0  0  0  0  0  0  0  0  0  0
    0.3090   -0.9624   -0.9778 C   0  0  0  0  0  0  0  0  0  0  0  0
   -3.9367    0.9465    2.5233 C   0  0  0  0  0  0  0  0  0  0  0  0
   -1.8158   -0.3332   -3.9035 C   0  0  0  0  0  0  0  0  0  0  0  0
   -3.4509    1.9544    3.5518 C   0  0  0  0  0  0  0  0  0  0  0  0
    1.8599   -0.1668   -0.2855 H   0  0  0  0  0  0  0  0  0  0  0  0
   -1.5653   -1.7686   -1.5253 H   0  0  0  0  0  0  0  0  0  0  0  0
   -2.8067   -1.3168    0.4887 H   0  0  0  0  0  0  0  0  0  0  0  0
   -1.3505   -2.1940    0.8238 H   0  0  0  0  0  0  0  0  0  0  0  0
   -1.6306   -0.5170    2.5388 H   0  0  0  0  0  0  0  0  0  0  0  0
   -0.2051   -0.1561    1.6661 H   0  0  0  0  0  0  0  0  0  0  0  0
   -2.8506    0.3996   -1.4939 H   0  0  0  0  0  0  0  0  0  0  0  0
   -1.3675    1.2429   -1.0704 H   0  0  0  0  0  0  0  0  0  0  0  0
   -1.4325    1.9070    2.0790 H   0  0  0  0  0  0  0  0  0  0  0  0
   -1.3066    1.7519    0.4872 H   0  0  0  0  0  0  0  0  0  0  0  0
   -3.6630    2.2560    0.8100 H   0  0  0  0  0  0  0  0  0  0  0  0
   -3.7170    0.5619    0.4328 H   0  0  0  0  0  0  0  0  0  0  0  0
   -1.6676    1.6944   -3.2029 H   0  0  0  0  0  0  0  0  0  0  0  0
   -0.2004    0.7585   -2.9617 H   0  0  0  0  0  0  0  0  0  0  0  0
   -5.0273    0.9498    2.4564 H   0  0  0  0  0  0  0  0  0  0  0  0
   -3.6552   -0.0687    2.8268 H   0  0  0  0  0  0  0  0  0  0  0  0
   -2.9094   -0.3481   -3.8651 H   0  0  0  0  0  0  0  0  0  0  0  0
   -1.4827   -0.0928   -4.9105 H   0  0  0  0  0  0  0  0  0  0  0  0
   -1.4477   -1.3266   -3.6380 H   0  0  0  0  0  0  0  0  0  0  0  0
   -3.7278    2.9638    3.2331 H   0  0  0  0  0  0  0  0  0  0  0  0
   -3.8579    1.7363    4.5347 H   0  0  0  0  0  0  0  0  0  0  0  0
   -2.3649    1.9379    3.6816 H   0  0  0  0  0  0  0  0  0  0  0  0
  1 10  1  0  0  0  0
  1 14  1  0  0  0  0
  2 10  2  0  0  0  0
  3  4  1  0  0  0  0
  3  6  1  0  0  0  0
  3 10  1  0  0  0  0
  3 15  1  6  0  0  0
  4  5  1  0  0  0  0
  4 16  1  0  0  0  0
  4 17  1  0  0  0  0
  5  7  1  0  0  0  0
  5 18  1  0  0  0  0
  5 19  1  0  0  0  0
  6  9  1  0  0  0  0
  6 20  1  0  0  0  0
  6 21  1  0  0  0  0
  7  8  1  0  0  0  0
  7 22  1  0  0  0  0
  7 23  1  0  0  0  0
  8 11  1  0  0  0  0
  8 24  1  0  0  0  0
  8 25  1  0  0  0  0
  9 12  1  0  0  0  0
  9 26  1  0  0  0  0
  9 27  1  0  0  0  0
 11 13  1  0  0  0  0
 11 28  1  0  0  0  0
 11 29  1  0  0  0  0
 12 30  1  0  0  0  0
 12 31  1  0  0  0  0
 12 32  1  0  0  0  0
 13 33  1  0  0  0  0
 13 34  1  0  0  0  0
 13 35  1  0  0  0  0
M  END
>  <DRUGBANK_ID>
DB05343

>  <SECONDARY_ACCESSION_NUMBERS>
DB11887

>  <COMMON_NAME>
Arundic acid

>  <CAS_NUMBER>
185517-21-9

>  <UNII>
F2628ZD0FO

>  <SYNONYMS>
(2R)-2-propyloctanoic acid; Arundic acid

$$$$
