
 OpenBabel10282417183D

101106  0  0  0  0  0  0  0  0999 V2000
    0.8116   -1.1531    0.1936 C   0  0  0  0  0  0  0  0  0  0  0  0
    0.0018    0.2721    1.2199 C   0  0  0  0  0  0  0  0  0  0  0  0
   -1.3606    0.9246    0.8272 C   0  0  0  0  0  0  0  0  0  0  0  0
    1.4219    0.2920    0.8595 C   0  0  0  0  0  0  0  0  0  0  0  0
    1.1590    1.0414   -0.2889 C   0  0  0  0  0  0  0  0  0  0  0  0
    1.1023    2.4033   -0.3343 C   0  0  0  0  0  0  0  0  0  0  0  0
    0.2374    3.1868   -1.0738 C   0  0  0  0  0  0  0  0  0  0  0  0
    0.2254    4.4956   -0.4976 C   0  0  0  0  0  0  0  0  0  0  0  0
   -0.5979    5.5372   -0.6716 C   0  0  0  0  0  0  0  0  0  0  0  0
   -0.6740    6.6093    0.3624 C   0  0  0  0  0  0  0  0  0  0  0  0
   -0.9204    7.9170    0.2734 C   0  0  0  0  0  0  0  0  0  0  0  0
   -1.4085    9.1267    1.2725 C   0  0  0  0  0  0  0  0  0  0  0  0
   -1.6747    9.9570    2.4350 N   0  3  0  0  0  0  0  0  0  0  0  0
   -2.1739   10.1896    4.0989 C   0  0  0  0  0  0  0  0  0  0  0  0
   -1.3058   11.1798    4.9743 C   0  0  0  0  0  0  0  0  0  0  0  0
   -1.1812   12.6734    4.5465 C   0  0  0  0  0  0  0  0  0  0  0  0
   -2.4334   13.6106    4.7509 C   0  0  0  0  0  0  0  0  0  0  0  0
   -2.7575   14.1433    6.3703 S   0  0  0  0  0  0  0  0  0  0  0  0
   -1.5226   14.8397    6.6948 O   0  5  0  0  0  0  0  0  0  0  0  0
   -3.9452   14.9715    6.1766 O   0  0  0  0  0  0  0  0  0  0  0  0
   -2.9991   12.8681    7.0398 O   0  0  0  0  0  0  0  0  0  0  0  0
   -2.2568   11.1027    1.8031 C   0  0  0  0  0  0  0  0  0  0  0  0
   -2.6793   12.3189    2.1898 C   0  0  0  0  0  0  0  0  0  0  0  0
   -2.4489   13.4230    1.4009 C   0  0  0  0  0  0  0  0  0  0  0  0
   -2.1147   13.1535    0.0994 C   0  0  0  0  0  0  0  0  0  0  0  0
   -1.7321   14.1661   -0.7590 C   0  0  0  0  0  0  0  0  0  0  0  0
   -1.2406   13.8107   -2.0060 C   0  0  0  0  0  0  0  0  0  0  0  0
   -1.3024   12.4943   -2.4512 C   0  0  0  0  0  0  0  0  0  0  0  0
   -1.7020   11.4932   -1.6002 C   0  0  0  0  0  0  0  0  0  0  0  0
   -2.1505   11.8085   -0.3356 C   0  0  0  0  0  0  0  0  0  0  0  0
   -2.5310   10.8249    0.5482 C   0  0  0  0  0  0  0  0  0  0  0  0
   -2.7243    9.3747    0.5306 C   0  0  0  0  0  0  0  0  0  0  0  0
   -3.4300    9.0370   -0.7668 C   0  0  0  0  0  0  0  0  0  0  0  0
   -3.4521    8.3447    1.5508 C   0  0  0  0  0  0  0  0  0  0  0  0
    1.8971   -0.2167    2.1871 N   0  0  0  0  0  0  0  0  0  0  0  0
    2.1053   -1.6679    2.8395 C   0  0  0  0  0  0  0  0  0  0  0  0
    3.5695   -1.6691    3.3644 C   0  0  0  0  0  0  0  0  0  0  0  0
    3.8428   -0.5990    4.4356 C   0  0  0  0  0  0  0  0  0  0  0  0
    3.0474   -0.7822    5.7699 C   0  0  0  0  0  0  0  0  0  0  0  0
    3.4133   -2.1282    6.7745 S   0  0  0  0  0  0  0  0  0  0  0  0
    4.9233   -1.6664    7.0638 O   0  0  0  0  0  0  0  0  0  0  0  0
    2.5905   -2.0002    7.9543 O   0  0  0  0  0  0  0  0  0  0  0  0
    3.3963   -3.2939    5.9236 O   0  0  0  0  0  0  0  0  0  0  0  0
    1.3603    0.6566    3.0634 C   0  0  0  0  0  0  0  0  0  0  0  0
    1.4502    0.8722    4.3710 C   0  0  0  0  0  0  0  0  0  0  0  0
    1.7294    2.0782    4.9242 C   0  0  0  0  0  0  0  0  0  0  0  0
    1.3742    3.1150    4.1489 C   0  0  0  0  0  0  0  0  0  0  0  0
    1.6262    4.3924    4.6713 C   0  0  0  0  0  0  0  0  0  0  0  0
    1.5414    5.4418    3.8232 C   0  0  0  0  0  0  0  0  0  0  0  0
    0.8512    5.1812    2.6762 C   0  0  0  0  0  0  0  0  0  0  0  0
    0.1834    3.9592    2.3988 C   0  0  0  0  0  0  0  0  0  0  0  0
    0.6481    2.7983    2.9448 C   0  0  0  0  0  0  0  0  0  0  0  0
    0.4776    1.4214    2.4708 C   0  0  0  0  0  0  0  0  0  0  0  0
    0.9251   -1.0566   -0.9343 H   0  0  0  0  0  0  0  0  0  0  0  0
    0.0501   -1.8755    0.0390 H   0  0  0  0  0  0  0  0  0  0  0  0
    2.0957   -1.1555   -0.0355 H   0  0  0  0  0  0  0  0  0  0  0  0
   -2.1269    0.4167    1.4226 H   0  0  0  0  0  0  0  0  0  0  0  0
   -1.4852    1.9844    1.1373 H   0  0  0  0  0  0  0  0  0  0  0  0
   -1.6549    0.9206   -0.2222 H   0  0  0  0  0  0  0  0  0  0  0  0
    0.3577    0.6410   -1.0020 H   0  0  0  0  0  0  0  0  0  0  0  0
    1.5635    2.7659    0.5508 H   0  0  0  0  0  0  0  0  0  0  0  0
   -0.4650    2.7545   -1.7770 H   0  0  0  0  0  0  0  0  0  0  0  0
    0.9600    4.5900    0.2907 H   0  0  0  0  0  0  0  0  0  0  0  0
   -1.2574    5.4323   -1.5241 H   0  0  0  0  0  0  0  0  0  0  0  0
   -0.6955    6.3169    1.3856 H   0  0  0  0  0  0  0  0  0  0  0  0
   -1.1025    8.1481   -0.7982 H   0  0  0  0  0  0  0  0  0  0  0  0
   -3.1898   10.6507    4.0621 H   0  0  0  0  0  0  0  0  0  0  0  0
   -2.3865    9.2379    4.6017 H   0  0  0  0  0  0  0  0  0  0  0  0
   -1.6576   11.2072    6.0187 H   0  0  0  0  0  0  0  0  0  0  0  0
   -0.3121   10.7361    5.0304 H   0  0  0  0  0  0  0  0  0  0  0  0
   -0.3185   13.1623    5.0094 H   0  0  0  0  0  0  0  0  0  0  0  0
   -0.8404   12.6268    3.5084 H   0  0  0  0  0  0  0  0  0  0  0  0
   -2.3536   14.4976    4.1053 H   0  0  0  0  0  0  0  0  0  0  0  0
   -3.4213   13.1685    4.5537 H   0  0  0  0  0  0  0  0  0  0  0  0
   -3.0769   12.4008    3.1484 H   0  0  0  0  0  0  0  0  0  0  0  0
   -2.4256   14.4247    1.8282 H   0  0  0  0  0  0  0  0  0  0  0  0
   -1.8137   15.2087   -0.4618 H   0  0  0  0  0  0  0  0  0  0  0  0
   -0.7734   14.5584   -2.6318 H   0  0  0  0  0  0  0  0  0  0  0  0
   -1.0316   12.2134   -3.4596 H   0  0  0  0  0  0  0  0  0  0  0  0
   -1.5666   10.4758   -1.9336 H   0  0  0  0  0  0  0  0  0  0  0  0
   -3.4513    7.9725   -0.9930 H   0  0  0  0  0  0  0  0  0  0  0  0
   -4.4552    9.4084   -0.6441 H   0  0  0  0  0  0  0  0  0  0  0  0
   -3.0931    9.5067   -1.6819 H   0  0  0  0  0  0  0  0  0  0  0  0
   -3.4944    7.3497    1.0829 H   0  0  0  0  0  0  0  0  0  0  0  0
   -2.8957    8.0623    2.4734 H   0  0  0  0  0  0  0  0  0  0  0  0
   -4.4083    8.7216    1.8766 H   0  0  0  0  0  0  0  0  0  0  0  0
    1.4339   -1.9329    3.6983 H   0  0  0  0  0  0  0  0  0  0  0  0
    1.9762   -2.5612    2.1904 H   0  0  0  0  0  0  0  0  0  0  0  0
    3.9067   -2.6342    3.7486 H   0  0  0  0  0  0  0  0  0  0  0  0
    4.1877   -1.4738    2.4828 H   0  0  0  0  0  0  0  0  0  0  0  0
    4.9045   -0.4805    4.6495 H   0  0  0  0  0  0  0  0  0  0  0  0
    3.6750    0.3597    3.9226 H   0  0  0  0  0  0  0  0  0  0  0  0
    3.0420    0.1409    6.3666 H   0  0  0  0  0  0  0  0  0  0  0  0
    2.0114   -1.1357    5.6966 H   0  0  0  0  0  0  0  0  0  0  0  0
    5.4163   -1.6181    6.2198 H   0  0  0  0  0  0  0  0  0  0  0  0
    1.3469   -0.0289    4.8557 H   0  0  0  0  0  0  0  0  0  0  0  0
    2.1555    2.1818    5.9106 H   0  0  0  0  0  0  0  0  0  0  0  0
    1.8606    4.5636    5.7159 H   0  0  0  0  0  0  0  0  0  0  0  0
    1.8992    6.4435    4.0279 H   0  0  0  0  0  0  0  0  0  0  0  0
    0.8981    5.9994    1.9856 H   0  0  0  0  0  0  0  0  0  0  0  0
   -0.5796    3.8424    1.6536 H   0  0  0  0  0  0  0  0  0  0  0  0
  1  2  1  0  0  0  0
  1 54  1  0  0  0  0
  1 55  1  0  0  0  0
  1 56  1  0  0  0  0
  2  3  1  0  0  0  0
  2  4  1  0  0  0  0
  2 53  1  0  0  0  0
  3 57  1  0  0  0  0
  3 58  1  0  0  0  0
  3 59  1  0  0  0  0
  4  5  2  3  0  0  0
  4 35  1  0  0  0  0
  5  6  1  0  0  0  0
  5 60  1  0  0  0  0
  6  7  2  3  0  0  0
  6 61  1  0  0  0  0
  7  8  1  0  0  0  0
  7 62  1  0  0  0  0
  8  9  2  3  0  0  0
  8 63  1  0  0  0  0
  9 10  1  0  0  0  0
  9 64  1  0  0  0  0
 10 11  2  3  0  0  0
 10 65  1  0  0  0  0
 11 12  1  0  0  0  0
 11 66  1  0  0  0  0
 12 13  2  0  0  0  0
 12 32  1  0  0  0  0
 13 14  1  0  0  0  0
 13 22  1  0  0  0  0
 14 15  1  0  0  0  0
 14 67  1  0  0  0  0
 14 68  1  0  0  0  0
 15 16  1  0  0  0  0
 15 69  1  0  0  0  0
 15 70  1  0  0  0  0
 16 17  1  0  0  0  0
 16 71  1  0  0  0  0
 16 72  1  0  0  0  0
 17 18  1  0  0  0  0
 17 73  1  0  0  0  0
 17 74  1  0  0  0  0
 18 19  1  0  0  0  0
 18 20  2  0  0  0  0
 18 21  2  0  0  0  0
 22 23  2  0  0  0  0
 22 31  1  0  0  0  0
 23 24  1  0  0  0  0
 23 75  1  0  0  0  0
 24 25  2  0  0  0  0
 24 76  1  0  0  0  0
 25 26  1  0  0  0  0
 25 30  1  0  0  0  0
 26 27  2  0  0  0  0
 26 77  1  0  0  0  0
 27 28  1  0  0  0  0
 27 78  1  0  0  0  0
 28 29  2  0  0  0  0
 28 79  1  0  0  0  0
 29 30  1  0  0  0  0
 29 80  1  0  0  0  0
 30 31  2  0  0  0  0
 31 32  1  0  0  0  0
 32 33  1  0  0  0  0
 32 34  1  0  0  0  0
 33 81  1  0  0  0  0
 33 82  1  0  0  0  0
 33 83  1  0  0  0  0
 34 84  1  0  0  0  0
 34 85  1  0  0  0  0
 34 86  1  0  0  0  0
 35 36  1  0  0  0  0
 35 44  1  0  0  0  0
 36 37  1  0  0  0  0
 36 87  1  0  0  0  0
 36 88  1  0  0  0  0
 37 38  1  0  0  0  0
 37 89  1  0  0  0  0
 37 90  1  0  0  0  0
 38 39  1  0  0  0  0
 38 91  1  0  0  0  0
 38 92  1  0  0  0  0
 39 40  1  0  0  0  0
 39 93  1  0  0  0  0
 39 94  1  0  0  0  0
 40 41  1  0  0  0  0
 40 42  2  0  0  0  0
 40 43  2  0  0  0  0
 41 95  1  0  0  0  0
 44 45  2  0  0  0  0
 44 53  1  0  0  0  0
 45 46  1  0  0  0  0
 45 96  1  0  0  0  0
 46 47  2  0  0  0  0
 46 97  1  0  0  0  0
 47 48  1  0  0  0  0
 47 52  1  0  0  0  0
 48 49  2  0  0  0  0
 48 98  1  0  0  0  0
 49 50  1  0  0  0  0
 49 99  1  0  0  0  0
 50 51  2  0  0  0  0
 50100  1  0  0  0  0
 51 52  1  0  0  0  0
 51101  1  0  0  0  0
 52 53  2  0  0  0  0
M  CHG  2  13   1  19  -1
M  END
>  <DRUGBANK_ID>
DB09374

>  <COMMON_NAME>
Indocyanine green acid form

>  <CAS_NUMBER>
28782-33-4

>  <UNII>
C4V974V932

$$$$
