
 OpenBabel10282417153D

 40 39  0  0  0  0  0  0  0  0999 V2000
    0.8778    0.3746   -0.2664 S   0  0  0  0  0  0  0  0  0  0  0  0
    0.5568   -0.7948   -1.9399 S   0  0  0  0  0  0  0  0  0  0  0  0
    3.3402   -1.5292    4.0809 O   0  0  0  0  0  0  0  0  0  0  0  0
   -2.0123   -0.1115    2.5113 O   0  0  0  0  0  0  0  0  0  0  0  0
    2.8966   -0.1605    2.3690 N   0  0  0  0  0  0  0  0  0  0  0  0
   -1.5983   -1.1609    0.5860 N   0  0  0  0  0  0  0  0  0  0  0  0
    5.3100   -0.7753    0.5020 N   0  0  0  0  0  0  0  0  0  0  0  0
   -3.9550   -0.0425   -1.1353 N   0  0  0  0  0  0  0  0  0  0  0  0
    3.1191    0.8079    1.2872 C   0  0  0  0  0  0  0  0  0  0  0  0
   -1.7826   -1.7886   -0.7271 C   0  0  0  0  0  0  0  0  0  0  0  0
    5.2964   -0.6921    2.9674 C   0  0  0  0  0  0  0  0  0  0  0  0
   -3.9750   -0.6910    1.2511 C   0  0  0  0  0  0  0  0  0  0  0  0
    2.6625    0.2718   -0.0928 C   0  0  0  0  0  0  0  0  0  0  0  0
   -1.2544   -0.9212   -1.9059 C   0  0  0  0  0  0  0  0  0  0  0  0
    3.7892   -0.8210    3.1693 C   0  0  0  0  0  0  0  0  0  0  0  0
   -2.4760   -0.6317    1.4815 C   0  0  0  0  0  0  0  0  0  0  0  0
    5.8686   -1.3495    1.7064 C   0  0  0  0  0  0  0  0  0  0  0  0
   -4.5233    0.2414    0.1654 C   0  0  0  0  0  0  0  0  0  0  0  0
    1.9315   -0.3169    2.6447 H   0  0  0  0  0  0  0  0  0  0  0  0
   -0.6321   -0.9970    0.8514 H   0  0  0  0  0  0  0  0  0  0  0  0
    5.6223   -1.2153   -0.3581 H   0  0  0  0  0  0  0  0  0  0  0  0
    4.3459   -1.0756    0.5918 H   0  0  0  0  0  0  0  0  0  0  0  0
   -4.2665    0.5828   -1.8723 H   0  0  0  0  0  0  0  0  0  0  0  0
   -2.9911    0.2284   -0.9761 H   0  0  0  0  0  0  0  0  0  0  0  0
    4.1730    1.0956    1.2820 H   0  0  0  0  0  0  0  0  0  0  0  0
    2.5893    1.7317    1.5367 H   0  0  0  0  0  0  0  0  0  0  0  0
   -2.8356   -2.0533   -0.8437 H   0  0  0  0  0  0  0  0  0  0  0  0
   -1.2554   -2.7464   -0.7150 H   0  0  0  0  0  0  0  0  0  0  0  0
    5.5694    0.3656    3.0449 H   0  0  0  0  0  0  0  0  0  0  0  0
    5.7728   -1.1916    3.8233 H   0  0  0  0  0  0  0  0  0  0  0  0
   -4.2528   -1.7359    1.0799 H   0  0  0  0  0  0  0  0  0  0  0  0
   -4.4521   -0.3951    2.1959 H   0  0  0  0  0  0  0  0  0  0  0  0
    2.8860   -0.7873   -0.2560 H   0  0  0  0  0  0  0  0  0  0  0  0
    3.1274    0.8435   -0.9008 H   0  0  0  0  0  0  0  0  0  0  0  0
   -1.5502    0.1324   -1.8872 H   0  0  0  0  0  0  0  0  0  0  0  0
   -1.6343   -1.3098   -2.8564 H   0  0  0  0  0  0  0  0  0  0  0  0
    6.9532   -1.2364    1.6656 H   0  0  0  0  0  0  0  0  0  0  0  0
    5.6178   -2.4145    1.6967 H   0  0  0  0  0  0  0  0  0  0  0  0
   -5.6076    0.1476    0.0896 H   0  0  0  0  0  0  0  0  0  0  0  0
   -4.2682    1.2789    0.4022 H   0  0  0  0  0  0  0  0  0  0  0  0
  1  2  1  0  0  0  0
  1 13  1  0  0  0  0
  2 14  1  0  0  0  0
  3 15  2  0  0  0  0
  4 16  2  0  0  0  0
  5  9  1  0  0  0  0
  5 15  1  0  0  0  0
  5 19  1  0  0  0  0
  6 10  1  0  0  0  0
  6 16  1  0  0  0  0
  6 20  1  0  0  0  0
  7 17  1  0  0  0  0
  7 21  1  0  0  0  0
  7 22  1  0  0  0  0
  8 18  1  0  0  0  0
  8 23  1  0  0  0  0
  8 24  1  0  0  0  0
  9 13  1  0  0  0  0
  9 25  1  0  0  0  0
  9 26  1  0  0  0  0
 10 14  1  0  0  0  0
 10 27  1  0  0  0  0
 10 28  1  0  0  0  0
 11 15  1  0  0  0  0
 11 17  1  0  0  0  0
 11 29  1  0  0  0  0
 11 30  1  0  0  0  0
 12 16  1  0  0  0  0
 12 18  1  0  0  0  0
 12 31  1  0  0  0  0
 12 32  1  0  0  0  0
 13 33  1  0  0  0  0
 13 34  1  0  0  0  0
 14 35  1  0  0  0  0
 14 36  1  0  0  0  0
 17 37  1  0  0  0  0
 17 38  1  0  0  0  0
 18 39  1  0  0  0  0
 18 40  1  0  0  0  0
M  END
>  <DRUGBANK_ID>
DB05800

>  <COMMON_NAME>
Alethine

>  <CAS_NUMBER>
646-08-2

>  <UNII>
LY583605Y8

>  <SYNONYMS>
Beta alethine; Beta-alanyl cysteamine disulfide; Beta-alethine; Betathine

$$$$
