
 OpenBabel10282417183D

 64 67  0  0  1  0  0  0  0  0999 V2000
    0.1375   -1.2072    1.4366 C   0  0  0  0  0  0  0  0  0  0  0  0
   -0.0650   -0.8098   -0.8706 C   0  0  0  0  0  0  0  0  0  0  0  0
    1.9785   -2.4215   -8.7087 C   0  0  0  0  0  0  0  0  0  0  0  0
   -3.0955   -1.9506   -1.7158 C   0  0  0  0  0  0  0  0  0  0  0  0
   -1.9453   -0.8974   -3.5300 C   0  0  0  0  0  0  0  0  0  0  0  0
   -4.1154   -1.0491   -1.7463 C   0  0  0  0  0  0  0  0  0  0  0  0
   -2.9573    0.0816   -3.5259 C   0  0  0  0  0  0  0  0  0  0  0  0
    2.0202   -4.6974   -4.6547 C   0  0  0  0  0  0  0  0  0  0  0  0
    0.5727   -3.9698   -6.5181 C   0  0  0  0  0  0  0  0  0  0  0  0
    0.7464   -5.2777   -3.9981 C   0  0  0  0  0  0  0  0  0  0  0  0
   -0.6651   -4.5488   -5.8585 C   0  0  0  0  0  0  0  0  0  0  0  0
    4.3447   -2.4937   -9.2708 C   0  0  0  0  0  0  0  0  0  0  0  0
   -1.1870   -3.8757   -1.1014 C   0  0  0  0  0  0  0  0  0  0  0  0
    3.8992   -6.8727   -7.9256 C   0  0  0  0  0  0  0  0  0  0  0  0
   -0.6457   -1.7075    0.2212 C   0  0  0  0  0  0  0  0  0  0  0  0
    3.3286   -2.8119   -8.1712 C   0  0  2  0  0  0  0  0  0  0  0  0
   -2.0672   -2.0002   -2.6558 C   0  0  0  0  0  0  0  0  0  0  0  0
   -4.0776   -0.0619   -2.6965 C   0  0  0  0  0  0  0  0  0  0  0  0
   -1.1066   -3.2037   -2.5134 C   0  0  2  0  0  0  0  0  0  0  0  0
    4.9209   -3.8202   -9.7771 C   0  0  2  0  0  0  0  0  0  0  0  0
    3.4107   -4.2844   -7.9484 C   0  0  0  0  0  0  0  0  0  0  0  0
    4.3045   -4.8574   -8.8417 C   0  0  0  0  0  0  0  0  0  0  0  0
    2.7642   -5.0790   -7.0060 C   0  0  0  0  0  0  0  0  0  0  0  0
   -1.4924   -4.1671   -3.6257 C   0  0  0  0  0  0  0  0  0  0  0  0
   -5.4252    0.9887   -2.7802 Cl  0  0  0  0  0  0  0  0  0  0  0  0
   -0.4694   -3.1696    0.0090 N   0  0  0  0  0  0  0  0  0  0  0  0
    4.5616   -6.1692   -8.8678 N   0  0  0  0  0  0  0  0  0  0  0  0
    3.0445   -6.3940   -6.9842 N   0  0  0  0  0  0  0  0  0  0  0  0
    1.8383   -4.5910   -6.1067 N   0  0  0  0  0  0  0  0  0  0  0  0
   -0.4648   -4.5732   -4.4312 N   0  0  0  0  0  0  0  0  0  0  0  0
    6.3374   -3.7134   -9.7000 O   0  0  0  0  0  0  0  0  0  0  0  0
   -2.6859   -4.3561   -3.9496 O   0  0  0  0  0  0  0  0  0  0  0  0
    3.5929   -2.3018   -7.2380 H   0  0  0  0  0  0  0  0  0  0  0  0
   -0.0546   -2.9136   -2.6643 H   0  0  0  0  0  0  0  0  0  0  0  0
    4.6374   -3.9862  -10.8234 H   0  0  0  0  0  0  0  0  0  0  0  0
    1.2121   -1.3467    1.2724 H   0  0  0  0  0  0  0  0  0  0  0  0
   -0.1613   -1.6859    2.3674 H   0  0  0  0  0  0  0  0  0  0  0  0
   -0.0311   -0.1244    1.5450 H   0  0  0  0  0  0  0  0  0  0  0  0
    1.0045   -0.9550   -1.0247 H   0  0  0  0  0  0  0  0  0  0  0  0
   -0.4379   -1.0157   -1.8318 H   0  0  0  0  0  0  0  0  0  0  0  0
   -0.3269    0.2442   -0.7315 H   0  0  0  0  0  0  0  0  0  0  0  0
    1.2552   -2.5242   -7.9399 H   0  0  0  0  0  0  0  0  0  0  0  0
    1.8970   -1.3666   -8.9521 H   0  0  0  0  0  0  0  0  0  0  0  0
    1.6767   -3.0567   -9.5512 H   0  0  0  0  0  0  0  0  0  0  0  0
   -3.0912   -2.5567   -0.8264 H   0  0  0  0  0  0  0  0  0  0  0  0
   -1.0346   -0.7044   -4.1056 H   0  0  0  0  0  0  0  0  0  0  0  0
   -4.8793   -1.1682   -0.9896 H   0  0  0  0  0  0  0  0  0  0  0  0
   -2.8717    0.9672   -4.1494 H   0  0  0  0  0  0  0  0  0  0  0  0
    2.9005   -5.2833   -4.3738 H   0  0  0  0  0  0  0  0  0  0  0  0
    2.1684   -3.6796   -4.2645 H   0  0  0  0  0  0  0  0  0  0  0  0
    0.6221   -2.9123   -6.2060 H   0  0  0  0  0  0  0  0  0  0  0  0
    0.3761   -4.0917   -7.5836 H   0  0  0  0  0  0  0  0  0  0  0  0
    0.6167   -6.3132   -4.3353 H   0  0  0  0  0  0  0  0  0  0  0  0
    0.8101   -5.2777   -2.9093 H   0  0  0  0  0  0  0  0  0  0  0  0
   -0.8583   -5.5588   -6.2211 H   0  0  0  0  0  0  0  0  0  0  0  0
   -1.5220   -3.9088   -6.1160 H   0  0  0  0  0  0  0  0  0  0  0  0
    3.8596   -1.9510  -10.0958 H   0  0  0  0  0  0  0  0  0  0  0  0
    5.1060   -1.8009   -8.8920 H   0  0  0  0  0  0  0  0  0  0  0  0
   -0.7980   -4.9011   -1.1521 H   0  0  0  0  0  0  0  0  0  0  0  0
   -2.2214   -4.1134   -0.8094 H   0  0  0  0  0  0  0  0  0  0  0  0
    4.0640   -7.9475   -7.9169 H   0  0  0  0  0  0  0  0  0  0  0  0
   -1.6968   -1.4776    0.4358 H   0  0  0  0  0  0  0  0  0  0  0  0
    0.5228   -3.3561   -0.1029 H   0  0  0  0  0  0  0  0  0  0  0  0
    6.5960   -3.9911   -8.8060 H   0  0  0  0  0  0  0  0  0  0  0  0
  1 36  1  0  0  0  0
  1 37  1  0  0  0  0
  1 38  1  0  0  0  0
  2 39  1  0  0  0  0
  2 40  1  0  0  0  0
  2 41  1  0  0  0  0
  3 42  1  0  0  0  0
  3 43  1  0  0  0  0
  3 44  1  0  0  0  0
  4 45  1  0  0  0  0
  5 46  1  0  0  0  0
  6  4  1  0  0  0  0
  6 47  1  0  0  0  0
  7  5  2  0  0  0  0
  7 48  1  0  0  0  0
  8 49  1  0  0  0  0
  8 50  1  0  0  0  0
  9 51  1  0  0  0  0
  9 52  1  0  0  0  0
 10  8  1  0  0  0  0
 10 53  1  0  0  0  0
 10 54  1  0  0  0  0
 11  9  1  0  0  0  0
 11 55  1  0  0  0  0
 11 56  1  0  0  0  0
 12 57  1  0  0  0  0
 12 58  1  0  0  0  0
 13 59  1  0  0  0  0
 13 60  1  0  0  0  0
 14 61  1  0  0  0  0
 15  1  1  0  0  0  0
 15  2  1  0  0  0  0
 15 62  1  0  0  0  0
 16  3  1  0  0  0  0
 16 12  1  0  0  0  0
 16 33  1  1  0  0  0
 17  4  2  0  0  0  0
 17  5  1  0  0  0  0
 18  6  2  0  0  0  0
 18  7  1  0  0  0  0
 19 24  1  0  0  0  0
 19 34  1  6  0  0  0
 19 17  1  0  0  0  0
 19 13  1  0  0  0  0
 20 12  1  0  0  0  0
 20 35  1  6  0  0  0
 20 31  1  0  0  0  0
 21 16  1  0  0  0  0
 22 20  1  0  0  0  0
 22 21  2  0  0  0  0
 23 21  1  0  0  0  0
 25 18  1  0  0  0  0
 26 13  1  0  0  0  0
 26 15  1  0  0  0  0
 26 63  1  0  0  0  0
 27 14  2  0  0  0  0
 27 22  1  0  0  0  0
 28 14  1  0  0  0  0
 28 23  2  0  0  0  0
 29  8  1  0  0  0  0
 29  9  1  0  0  0  0
 29 23  1  0  0  0  0
 30 10  1  0  0  0  0
 30 11  1  0  0  0  0
 30 24  1  0  0  0  0
 31 64  1  0  0  0  0
 32 24  2  0  0  0  0
M  END
>  <DRUGBANK_ID>
DB11743

>  <COMMON_NAME>
Ipatasertib

>  <CAS_NUMBER>
1001264-89-6

>  <UNII>
524Y3IB4HQ

>  <SYNONYMS>
Ipatasertib

$$$$
