F3F
 OpenBabel10282417163D

 33 35  0  0  0  0  0  0  0  0999 V2000
   -0.6984    1.2415    0.0282 C   0  0  0  0  0  0  0  0  0  0  0  0
   -1.3452   -0.0122   -0.0259 C   0  0  0  0  0  0  0  0  0  0  0  0
   -0.6016   -1.1888   -0.0229 C   0  0  0  0  0  0  0  0  0  0  0  0
    0.7854   -1.1069    0.0469 C   0  0  0  0  0  0  0  0  0  0  0  0
    1.4291    0.1424   -0.0321 C   0  0  0  0  0  0  0  0  0  0  0  0
    0.7018    1.3408   -0.0537 C   0  0  0  0  0  0  0  0  0  0  0  0
    1.3980    2.6202   -0.1880 C   0  0  0  0  0  0  0  0  0  0  0  0
    1.9893    3.6766   -0.3326 C   0  0  0  0  0  0  0  0  0  0  0  0
    2.5743    4.9917   -0.4815 C   0  0  0  0  0  0  0  0  0  0  0  0
    3.9203    5.1661   -0.7733 O   0  0  0  0  0  0  0  0  0  0  0  0
    1.9693    6.2249   -0.3656 C   0  0  0  0  0  0  0  0  0  0  0  0
    2.9732    7.2004   -0.5831 C   0  0  0  0  0  0  0  0  0  0  0  0
    4.1701    6.5420   -0.8355 C   0  0  0  0  0  0  0  0  0  0  0  0
    5.4769    7.1742   -1.1165 C   0  0  0  0  0  0  0  0  0  0  0  0
    5.6294    8.3956   -1.1511 O   0  0  0  0  0  0  0  0  0  0  0  0
    6.8465    6.1199   -1.4103 S   0  0  0  0  0  0  0  0  0  0  0  0
    8.2230    7.1614   -1.7033 C   0  0  0  0  0  0  0  0  0  0  0  0
    8.2696    8.5339   -1.7249 N   0  0  0  0  0  0  0  0  0  0  0  0
    9.5826    8.8792   -1.9957 C   0  0  0  0  0  0  0  0  0  0  0  0
   10.0858   10.2772   -2.1051 C   0  0  0  0  0  0  0  0  0  0  0  0
   11.0510   10.5582   -1.1902 F   0  0  0  0  0  0  0  0  0  0  0  0
   10.6155   10.5482   -3.3271 F   0  0  0  0  0  0  0  0  0  0  0  0
    9.0941   11.1876   -1.9071 F   0  0  0  0  0  0  0  0  0  0  0  0
   10.2812    7.7679   -2.1330 N   0  0  0  0  0  0  0  0  0  0  0  0
    9.4319    6.7016   -1.9507 N   0  0  0  0  0  0  0  0  0  0  0  0
   -1.3167    2.1293    0.1284 H   0  0  0  0  0  0  0  0  0  0  0  0
   -2.4321   -0.0756   -0.0670 H   0  0  0  0  0  0  0  0  0  0  0  0
   -1.0962   -2.1589   -0.0642 H   0  0  0  0  0  0  0  0  0  0  0  0
    1.3702   -2.0189    0.1483 H   0  0  0  0  0  0  0  0  0  0  0  0
    2.5140    0.1623   -0.0814 H   0  0  0  0  0  0  0  0  0  0  0  0
    0.9268    6.4101   -0.1438 H   0  0  0  0  0  0  0  0  0  0  0  0
    2.8525    8.2769   -0.5602 H   0  0  0  0  0  0  0  0  0  0  0  0
    7.4938    9.1662   -1.5705 H   0  0  0  0  0  0  0  0  0  0  0  0
  1  2  1  0  0  0  0
  1  6  2  0  0  0  0
  1 26  1  0  0  0  0
  2  3  2  0  0  0  0
  2 27  1  0  0  0  0
  3  4  1  0  0  0  0
  3 28  1  0  0  0  0
  4  5  2  0  0  0  0
  4 29  1  0  0  0  0
  5  6  1  0  0  0  0
  5 30  1  0  0  0  0
  6  7  1  0  0  0  0
  7  8  3  0  0  0  0
  8  9  1  0  0  0  0
  9 10  1  0  0  0  0
  9 11  2  0  0  0  0
 10 13  1  0  0  0  0
 11 12  1  0  0  0  0
 11 31  1  0  0  0  0
 12 13  2  0  0  0  0
 12 32  1  0  0  0  0
 13 14  1  0  0  0  0
 14 15  2  0  0  0  0
 14 16  1  0  0  0  0
 16 17  1  0  0  0  0
 17 18  1  0  0  0  0
 17 25  2  0  0  0  0
 18 19  1  0  0  0  0
 18 33  1  0  0  0  0
 19 20  1  0  0  0  0
 19 24  2  0  0  0  0
 20 21  1  0  0  0  0
 20 22  1  0  0  0  0
 20 23  1  0  0  0  0
 24 25  1  0  0  0  0
M  END
>  <DRUGBANK_ID>
DB07743

>  <COMMON_NAME>
S-[5-(TRIFLUOROMETHYL)-4H-1,2,4-TRIAZOL-3-YL] 5-(PHENYLETHYNYL)FURAN-2-CARBOTHIOATE

$$$$
