
 OpenBabel10282417153D

 53 56  0  0  0  0  0  0  0  0999 V2000
    2.1123   -0.5975   -0.0021 C   0  0  0  0  0  0  0  0  0  0  0  0
    2.1130    0.7604   -0.0039 N   0  0  0  0  0  0  0  0  0  0  0  0
    0.9262    1.4038   -0.0021 C   0  0  0  0  0  0  0  0  0  0  0  0
    0.9815   -1.4166    0.0040 C   0  0  0  0  0  0  0  0  0  0  0  0
   -0.2691   -0.7513    0.0068 C   0  0  0  0  0  0  0  0  0  0  0  0
   -0.2517    0.6496    0.0042 C   0  0  0  0  0  0  0  0  0  0  0  0
   -1.5608    1.0679    0.0061 N   0  0  0  0  0  0  0  0  0  0  0  0
   -2.4091   -0.0070    0.0139 C   0  0  0  0  0  0  0  0  0  0  0  0
   -1.6668   -1.1755    0.0069 C   0  0  0  0  0  0  0  0  0  0  0  0
   -2.2082   -2.5537   -0.0276 C   0  0  0  0  0  0  0  0  0  0  0  0
   -3.7456   -2.8904   -0.0159 C   0  0  0  0  0  0  0  0  0  0  0  0
   -1.4540   -3.5208   -0.1372 O   0  0  0  0  0  0  0  0  0  0  0  0
   -4.0900   -4.2478    0.0825 N   0  0  0  0  0  0  0  0  0  0  0  0
   -4.5879   -2.0093   -0.1799 O   0  0  0  0  0  0  0  0  0  0  0  0
   -5.3836   -4.7865   -0.3879 C   0  0  0  0  0  0  0  0  0  0  0  0
   -5.2029   -6.2171   -0.9749 C   0  0  0  0  0  0  0  0  0  0  0  0
   -4.4499   -7.0829   -0.0386 N   0  0  0  0  0  0  0  0  0  0  0  0
   -3.1580   -6.5093    0.3542 C   0  0  0  0  0  0  0  0  0  0  0  0
   -3.3877   -5.1438    1.0020 C   0  0  0  0  0  0  0  0  0  0  0  0
   -4.9548   -8.3191    0.3711 C   0  0  0  0  0  0  0  0  0  0  0  0
   -6.0132   -8.7794   -0.0545 O   0  0  0  0  0  0  0  0  0  0  0  0
   -4.1842   -9.1551    1.3436 C   0  0  0  0  0  0  0  0  0  0  0  0
   -3.7934   -8.6703    2.5991 C   0  0  0  0  0  0  0  0  0  0  0  0
   -2.9550   -9.4364    3.4182 C   0  0  0  0  0  0  0  0  0  0  0  0
   -2.6241  -10.7410    3.0547 C   0  0  0  0  0  0  0  0  0  0  0  0
   -3.1412  -11.2830    1.8792 C   0  0  0  0  0  0  0  0  0  0  0  0
   -3.8806  -10.4797    1.0032 C   0  0  0  0  0  0  0  0  0  0  0  0
    0.9892   -2.7778    0.0153 O   0  0  0  0  0  0  0  0  0  0  0  0
    2.2295   -3.4620    0.0032 C   0  0  0  0  0  0  0  0  0  0  0  0
    0.8632    2.7839   -0.0056 O   0  0  0  0  0  0  0  0  0  0  0  0
    2.1347    3.4322   -0.0085 C   0  0  0  0  0  0  0  0  0  0  0  0
    3.1108   -1.0244   -0.0045 H   0  0  0  0  0  0  0  0  0  0  0  0
   -1.8436    2.0397   -0.0020 H   0  0  0  0  0  0  0  0  0  0  0  0
   -3.4790    0.1568    0.0052 H   0  0  0  0  0  0  0  0  0  0  0  0
   -6.0471   -4.8401    0.4831 H   0  0  0  0  0  0  0  0  0  0  0  0
   -5.8407   -4.1155   -1.1236 H   0  0  0  0  0  0  0  0  0  0  0  0
   -4.6023   -6.1527   -1.8935 H   0  0  0  0  0  0  0  0  0  0  0  0
   -6.1667   -6.6590   -1.2477 H   0  0  0  0  0  0  0  0  0  0  0  0
   -2.5630   -6.4024   -0.5606 H   0  0  0  0  0  0  0  0  0  0  0  0
   -2.6001   -7.1557    1.0262 H   0  0  0  0  0  0  0  0  0  0  0  0
   -2.4609   -4.7239    1.3856 H   0  0  0  0  0  0  0  0  0  0  0  0
   -4.0476   -5.2435    1.8733 H   0  0  0  0  0  0  0  0  0  0  0  0
   -4.1215   -7.6930    2.9396 H   0  0  0  0  0  0  0  0  0  0  0  0
   -2.5654   -9.0228    4.3457 H   0  0  0  0  0  0  0  0  0  0  0  0
   -1.9805  -11.3408    3.6954 H   0  0  0  0  0  0  0  0  0  0  0  0
   -2.9623  -12.3294    1.6423 H   0  0  0  0  0  0  0  0  0  0  0  0
   -4.2196  -10.8905    0.0552 H   0  0  0  0  0  0  0  0  0  0  0  0
    2.7982   -3.2369   -0.9039 H   0  0  0  0  0  0  0  0  0  0  0  0
    2.8075   -3.2384    0.9046 H   0  0  0  0  0  0  0  0  0  0  0  0
    2.0139   -4.5358    0.0034 H   0  0  0  0  0  0  0  0  0  0  0  0
    2.7093    3.2048    0.8962 H   0  0  0  0  0  0  0  0  0  0  0  0
    2.7106    3.1964   -0.9103 H   0  0  0  0  0  0  0  0  0  0  0  0
    1.9530    4.5136   -0.0138 H   0  0  0  0  0  0  0  0  0  0  0  0
  1  2  2  0  0  0  0
  1 32  1  0  0  0  0
  2  3  1  0  0  0  0
  3  6  2  0  0  0  0
  3 30  1  0  0  0  0
  4  1  1  0  0  0  0
  4 28  1  0  0  0  0
  5  4  2  0  0  0  0
  5  6  1  0  0  0  0
  6  7  1  0  0  0  0
  7  8  1  0  0  0  0
  7 33  1  0  0  0  0
  8  9  2  0  0  0  0
  8 34  1  0  0  0  0
  9  5  1  0  0  0  0
  9 10  1  0  0  0  0
 10 11  1  0  0  0  0
 10 12  2  0  0  0  0
 11 13  1  0  0  0  0
 11 14  2  0  0  0  0
 13 19  1  0  0  0  0
 13 15  1  0  0  0  0
 15 16  1  0  0  0  0
 15 35  1  0  0  0  0
 15 36  1  0  0  0  0
 16 17  1  0  0  0  0
 16 37  1  0  0  0  0
 16 38  1  0  0  0  0
 17 18  1  0  0  0  0
 17 20  1  0  0  0  0
 18 19  1  0  0  0  0
 18 39  1  0  0  0  0
 18 40  1  0  0  0  0
 19 41  1  0  0  0  0
 19 42  1  0  0  0  0
 20 21  2  0  0  0  0
 20 22  1  0  0  0  0
 22 23  2  0  0  0  0
 23 24  1  0  0  0  0
 23 43  1  0  0  0  0
 24 25  2  0  0  0  0
 24 44  1  0  0  0  0
 25 26  1  0  0  0  0
 25 45  1  0  0  0  0
 26 27  2  0  0  0  0
 26 46  1  0  0  0  0
 27 22  1  0  0  0  0
 27 47  1  0  0  0  0
 28 29  1  0  0  0  0
 29 48  1  0  0  0  0
 29 49  1  0  0  0  0
 29 50  1  0  0  0  0
 30 31  1  0  0  0  0
 31 51  1  0  0  0  0
 31 52  1  0  0  0  0
 31 53  1  0  0  0  0
M  END
>  <DRUGBANK_ID>
DB05532

>  <COMMON_NAME>
BMS-488043

>  <CAS_NUMBER>
452296-83-2

>  <UNII>
MKS21EJ435

$$$$
