RPN
 OpenBabel10282417143D

 23 23  0  0  0  0  0  0  0  0999 V2000
    0.9817   -2.3030    1.1070 C   0  0  0  0  0  0  0  0  0  0  0  0
    0.5368   -1.5016   -0.1466 C   0  0  2  0  0  0  0  0  0  0  0  0
    1.0873   -0.1865   -0.0650 O   0  0  0  0  0  0  0  0  0  0  0  0
   -0.9792   -1.4862   -0.2810 C   0  0  0  0  0  0  0  0  0  0  0  0
    0.4818   -1.7593    2.3958 N   0  0  0  0  0  0  0  0  0  0  0  0
   -0.7406   -1.6668    2.5897 N   0  3  0  0  0  0  0  0  0  0  0  0
   -1.8649   -1.5678    2.7986 N   0  5  0  0  0  0  0  0  0  0  0  0
   -1.6789   -2.7114   -0.2443 C   0  0  0  0  0  0  0  0  0  0  0  0
   -3.0626   -2.7383   -0.0668 C   0  0  0  0  0  0  0  0  0  0  0  0
   -3.7620   -1.5310    0.0364 C   0  0  0  0  0  0  0  0  0  0  0  0
   -3.0841   -0.3067    0.0060 C   0  0  0  0  0  0  0  0  0  0  0  0
   -1.7050   -0.2849   -0.2053 C   0  0  0  0  0  0  0  0  0  0  0  0
   -5.2236   -1.5421    0.1367 N   0  3  0  0  0  0  0  0  0  0  0  0
   -5.8054   -0.4492    0.1925 O   0  5  0  0  0  0  0  0  0  0  0  0
   -5.7940   -2.6422    0.1145 O   0  0  0  0  0  0  0  0  0  0  0  0
    0.9650   -1.9668   -1.0436 H   0  0  0  0  0  0  0  0  0  0  0  0
    2.0755   -2.2725    1.1715 H   0  0  0  0  0  0  0  0  0  0  0  0
    0.7075   -3.3610    1.0171 H   0  0  0  0  0  0  0  0  0  0  0  0
    0.9148    0.2533   -0.9139 H   0  0  0  0  0  0  0  0  0  0  0  0
   -1.1398   -3.6582   -0.2483 H   0  0  0  0  0  0  0  0  0  0  0  0
   -3.5645   -3.6972    0.0478 H   0  0  0  0  0  0  0  0  0  0  0  0
   -3.6021    0.6296    0.2047 H   0  0  0  0  0  0  0  0  0  0  0  0
   -1.1987    0.6785   -0.2078 H   0  0  0  0  0  0  0  0  0  0  0  0
  1  5  1  0  0  0  0
  1 17  1  0  0  0  0
  1 18  1  0  0  0  0
  2  4  1  0  0  0  0
  2 16  1  6  0  0  0
  2  3  1  0  0  0  0
  2  1  1  0  0  0  0
  3 19  1  0  0  0  0
  4  8  2  0  0  0  0
  4 12  1  0  0  0  0
  5  6  2  0  0  0  0
  6  7  2  0  0  0  0
  8  9  1  0  0  0  0
  8 20  1  0  0  0  0
  9 10  2  0  0  0  0
  9 21  1  0  0  0  0
 10 11  1  0  0  0  0
 10 13  1  0  0  0  0
 11 12  2  0  0  0  0
 11 22  1  0  0  0  0
 12 23  1  0  0  0  0
 13 14  1  0  0  0  0
 13 15  2  0  0  0  0
M  CHG  4   6   1   7  -1  13   1  14  -1
M  END
>  <DRUGBANK_ID>
DB04472

>  <SECONDARY_ACCESSION_NUMBERS>
EXPT02812

>  <COMMON_NAME>
(R)-1-Para-Nitro-Phenyl-2-Azido-Ethanol

$$$$
