711
 OpenBabel10282417103D

 35 35  0  0  0  0  0  0  0  0999 V2000
    1.1155    0.0907    0.1848 O   0  0  0  0  0  0  0  0  0  0  0  0
    3.1073    1.1511   -0.1956 N   0  0  0  0  0  0  0  0  0  0  0  0
    4.7576    3.6216   -0.5478 N   0  0  0  0  0  0  0  0  0  0  0  0
    3.0146   -1.1363    0.5879 N   0  0  0  0  0  0  0  0  0  0  0  0
    2.5469    2.4519    0.1867 C   0  0  0  0  0  0  0  0  0  0  0  0
    4.5481    1.2436   -0.2045 C   0  0  0  0  0  0  0  0  0  0  0  0
    3.2677    3.6535   -0.4989 C   0  0  0  0  0  0  0  0  0  0  0  0
    5.1491    2.3212   -1.0752 C   0  0  0  0  0  0  0  0  0  0  0  0
    2.3673    0.0265    0.1719 C   0  0  0  0  0  0  0  0  0  0  0  0
    5.3688    3.7948    0.7774 C   0  0  0  0  0  0  0  0  0  0  0  0
    2.2349   -2.2199    1.1952 C   0  0  0  0  0  0  0  0  0  0  0  0
    4.4519   -1.3938    0.5711 C   0  0  0  0  0  0  0  0  0  0  0  0
    2.5356   -3.5596    0.5322 C   0  0  0  0  0  0  0  0  0  0  0  0
    4.9657   -1.6291   -0.8610 C   0  0  0  0  0  0  0  0  0  0  0  0
    1.4616    2.5011    0.0411 H   0  0  0  0  0  0  0  0  0  0  0  0
    2.7154    2.5169    1.2702 H   0  0  0  0  0  0  0  0  0  0  0  0
    4.8263    1.3232    0.8454 H   0  0  0  0  0  0  0  0  0  0  0  0
    5.0731    0.4114   -0.5782 H   0  0  0  0  0  0  0  0  0  0  0  0
    2.9157    3.7017   -1.5382 H   0  0  0  0  0  0  0  0  0  0  0  0
    2.9593    4.5861   -0.0195 H   0  0  0  0  0  0  0  0  0  0  0  0
    4.8544    2.1825   -2.1259 H   0  0  0  0  0  0  0  0  0  0  0  0
    6.2404    2.1861   -1.0582 H   0  0  0  0  0  0  0  0  0  0  0  0
    5.0299    3.0822    1.5367 H   0  0  0  0  0  0  0  0  0  0  0  0
    6.4593    3.6798    0.7078 H   0  0  0  0  0  0  0  0  0  0  0  0
    5.1544    4.7860    1.1695 H   0  0  0  0  0  0  0  0  0  0  0  0
    2.5149   -2.2594    2.2571 H   0  0  0  0  0  0  0  0  0  0  0  0
    1.1592   -2.0228    1.1600 H   0  0  0  0  0  0  0  0  0  0  0  0
    4.9432   -0.6016    1.1409 H   0  0  0  0  0  0  0  0  0  0  0  0
    4.7120   -2.2562    1.1883 H   0  0  0  0  0  0  0  0  0  0  0  0
    3.5914   -3.8378    0.6214 H   0  0  0  0  0  0  0  0  0  0  0  0
    1.9646   -4.3660    0.9935 H   0  0  0  0  0  0  0  0  0  0  0  0
    2.3072   -3.5082   -0.5360 H   0  0  0  0  0  0  0  0  0  0  0  0
    4.5152   -0.9606   -1.6140 H   0  0  0  0  0  0  0  0  0  0  0  0
    6.0513   -1.4765   -0.8838 H   0  0  0  0  0  0  0  0  0  0  0  0
    4.7206   -2.6206   -1.2282 H   0  0  0  0  0  0  0  0  0  0  0  0
  1  9  2  0  0  0  0
  2  5  1  0  0  0  0
  2  6  1  0  0  0  0
  2  9  1  0  0  0  0
  3  7  1  0  0  0  0
  3  8  1  0  0  0  0
  3 10  1  0  0  0  0
  4  9  1  0  0  0  0
  4 11  1  0  0  0  0
  4 12  1  0  0  0  0
  5  7  1  0  0  0  0
  5 15  1  0  0  0  0
  5 16  1  0  0  0  0
  6  8  1  0  0  0  0
  6 17  1  0  0  0  0
  6 18  1  0  0  0  0
  7 19  1  0  0  0  0
  7 20  1  0  0  0  0
  8 21  1  0  0  0  0
  8 22  1  0  0  0  0
 10 23  1  0  0  0  0
 10 24  1  0  0  0  0
 10 25  1  0  0  0  0
 11 13  1  0  0  0  0
 11 26  1  0  0  0  0
 11 27  1  0  0  0  0
 12 14  1  0  0  0  0
 12 28  1  0  0  0  0
 12 29  1  0  0  0  0
 13 30  1  0  0  0  0
 13 31  1  0  0  0  0
 13 32  1  0  0  0  0
 14 33  1  0  0  0  0
 14 34  1  0  0  0  0
 14 35  1  0  0  0  0
M  END
>  <DRUGBANK_ID>
DB00711

>  <SECONDARY_ACCESSION_NUMBERS>
APRD00918

>  <COMMON_NAME>
Diethylcarbamazine

>  <CAS_NUMBER>
90-89-1

>  <UNII>
V867Q8X3ZD

>  <SYNONYMS>
Diethylcarbamazin; Di√©thylcarbamazine; Diethylcarbamazine; Diethylcarbamazinum; Dietilcarbamazina

$$$$
