
 OpenBabel10282417213D

 82 76  0  0  0  0  0  0  0  0999 V2000
    0.9980   -0.0896   -0.0443 C   0  0  0  0  0  0  0  0  0  0  0  0
    0.9980    1.4485    1.9038 C   0  0  0  0  0  0  0  0  0  0  0  0
   -1.9390   -2.2751    0.4215 C   0  5  0  0  0  0  0  0  0  0  0  0
    0.4913   -0.7405    3.5282 C   0  0  0  0  0  0  0  0  0  0  0  0
   -1.0287    0.1171    1.3738 C   0  0  0  0  0  0  0  0  0  0  0  0
    0.4913    0.1171    1.3738 C   0  0  0  0  0  0  0  0  0  0  0  0
   -1.5187   -1.1706    0.8612 N   0  3  0  0  0  0  0  0  0  0  0  0
    0.9647   -0.9337    2.2034 O   0  0  0  0  0  0  0  0  0  0  0  0
    1.0426    0.0113   -0.0898 C   0  0  0  0  0  0  0  0  0  0  0  0
    1.0426    1.4926    1.9019 C   0  0  0  0  0  0  0  0  0  0  0  0
   -1.8944   -2.1868    0.3128 C   0  5  0  0  0  0  0  0  0  0  0  0
    0.5359   -0.7424    3.4625 C   0  0  0  0  0  0  0  0  0  0  0  0
   -0.9841    0.1770    1.3337 C   0  0  0  0  0  0  0  0  0  0  0  0
    0.5359    0.1770    1.3337 C   0  0  0  0  0  0  0  0  0  0  0  0
   -1.4741   -1.0954    0.7841 N   0  3  0  0  0  0  0  0  0  0  0  0
    1.0092   -0.8973    2.1326 O   0  0  0  0  0  0  0  0  0  0  0  0
    0.9212    0.0076    0.0611 C   0  0  0  0  0  0  0  0  0  0  0  0
    0.9212   -1.8169   -1.6220 C   0  0  0  0  0  0  0  0  0  0  0  0
   -2.0158    2.0931   -0.7415 C   0  5  0  0  0  0  0  0  0  0  0  0
    0.4145    0.0906   -3.5693 C   0  0  0  0  0  0  0  0  0  0  0  0
   -1.1055   -0.4188   -1.3071 C   0  0  0  0  0  0  0  0  0  0  0  0
    0.4145   -0.4188   -1.3071 C   0  0  0  0  0  0  0  0  0  0  0  0
   -1.5955    0.9333   -1.0026 N   0  3  0  0  0  0  0  0  0  0  0  0
    0.8878    0.4889   -2.2912 O   0  0  0  0  0  0  0  0  0  0  0  0
    0.9419    0.0616   -0.0532 C   0  0  0  0  0  0  0  0  0  0  0  0
    0.9419   -1.8499    1.5303 C   0  0  0  0  0  0  0  0  0  0  0  0
   -1.9951   -0.4555   -2.2271 C   0  5  0  0  0  0  0  0  0  0  0  0
    0.4352   -3.5252   -0.6200 C   0  0  0  0  0  0  0  0  0  0  0  0
   -1.0848   -1.3513    0.1868 C   0  0  0  0  0  0  0  0  0  0  0  0
    0.4352   -1.3513    0.1868 C   0  0  0  0  0  0  0  0  0  0  0  0
   -1.5748   -0.8691   -1.1126 N   0  3  0  0  0  0  0  0  0  0  0  0
    0.9085   -2.2054   -0.8442 O   0  0  0  0  0  0  0  0  0  0  0  0
    1.0888    0.0460    0.0013 B   0  5  0  0  0  0  0  0  0  0  0  0
    0.6188   -0.1016    1.3224 F   0  0  0  0  0  0  0  0  0  0  0  0
    0.6188    1.2639   -0.5315 F   0  0  0  0  0  0  0  0  0  0  0  0
    0.6188   -1.0244   -0.7871 F   0  0  0  0  0  0  0  0  0  0  0  0
    2.4988    0.0460    0.0013 F   0  0  0  0  0  0  0  0  0  0  0  0
    1.0769   -0.0487    0.0414 Cu  0  3  0  0  0  0  0  0  0  0  0  0
    0.6413    0.7021   -0.6694 H   0  0  0  0  0  0  0  0  0  0  0  0
    0.6413   -1.0269   -0.4174 H   0  0  0  0  0  0  0  0  0  0  0  0
    2.0680   -0.0896   -0.0443 H   0  0  0  0  0  0  0  0  0  0  0  0
    0.6413    2.2403    1.2787 H   0  0  0  0  0  0  0  0  0  0  0  0
    0.6413    1.5941    2.9021 H   0  0  0  0  0  0  0  0  0  0  0  0
    2.0680    1.4485    1.9038 H   0  0  0  0  0  0  0  0  0  0  0  0
    0.8480    0.1967    3.9013 H   0  0  0  0  0  0  0  0  0  0  0  0
   -0.5787   -0.7405    3.5282 H   0  0  0  0  0  0  0  0  0  0  0  0
    0.8480   -1.5323    4.1534 H   0  0  0  0  0  0  0  0  0  0  0  0
   -1.3853    0.2626    2.3721 H   0  0  0  0  0  0  0  0  0  0  0  0
   -1.3853    0.9088    0.7486 H   0  0  0  0  0  0  0  0  0  0  0  0
    0.6859    0.8207   -0.6918 H   0  0  0  0  0  0  0  0  0  0  0  0
    0.6859   -0.9149   -0.4898 H   0  0  0  0  0  0  0  0  0  0  0  0
    2.1126    0.0113   -0.0898 H   0  0  0  0  0  0  0  0  0  0  0  0
    0.6859    2.3020    1.2998 H   0  0  0  0  0  0  0  0  0  0  0  0
    0.6859    1.6092    2.9039 H   0  0  0  0  0  0  0  0  0  0  0  0
    2.1126    1.4926    1.9019 H   0  0  0  0  0  0  0  0  0  0  0  0
    0.8926    0.1837    3.8624 H   0  0  0  0  0  0  0  0  0  0  0  0
   -0.5341   -0.7424    3.4624 H   0  0  0  0  0  0  0  0  0  0  0  0
    0.8926   -1.5519    4.0645 H   0  0  0  0  0  0  0  0  0  0  0  0
   -1.3408    0.2936    2.3357 H   0  0  0  0  0  0  0  0  0  0  0  0
   -1.3408    0.9864    0.7316 H   0  0  0  0  0  0  0  0  0  0  0  0
    0.5645   -0.6765    0.8025 H   0  0  0  0  0  0  0  0  0  0  0  0
    0.5645    0.9917    0.2827 H   0  0  0  0  0  0  0  0  0  0  0  0
    1.9912    0.0076    0.0611 H   0  0  0  0  0  0  0  0  0  0  0  0
    0.5645   -2.5009   -0.8805 H   0  0  0  0  0  0  0  0  0  0  0  0
    0.5645   -2.1170   -2.5851 H   0  0  0  0  0  0  0  0  0  0  0  0
    1.9912   -1.8169   -1.6220 H   0  0  0  0  0  0  0  0  0  0  0  0
    0.7712   -0.8935   -3.7909 H   0  0  0  0  0  0  0  0  0  0  0  0
   -0.6555    0.0906   -3.5693 H   0  0  0  0  0  0  0  0  0  0  0  0
    0.7712    0.7746   -4.3108 H   0  0  0  0  0  0  0  0  0  0  0  0
   -1.4622   -0.7189   -2.2702 H   0  0  0  0  0  0  0  0  0  0  0  0
   -1.4622   -1.1028   -0.5656 H   0  0  0  0  0  0  0  0  0  0  0  0
    0.5852    0.7052    0.7237 H   0  0  0  0  0  0  0  0  0  0  0  0
    0.5852    0.4126   -0.9990 H   0  0  0  0  0  0  0  0  0  0  0  0
    2.0119    0.0616   -0.0532 H   0  0  0  0  0  0  0  0  0  0  0  0
    0.5852   -1.2063    2.3072 H   0  0  0  0  0  0  0  0  0  0  0  0
    0.5852   -2.8444    1.6993 H   0  0  0  0  0  0  0  0  0  0  0  0
    2.0119   -1.8499    1.5303 H   0  0  0  0  0  0  0  0  0  0  0  0
    0.7919   -3.8762    0.3258 H   0  0  0  0  0  0  0  0  0  0  0  0
   -0.6348   -3.5252   -0.6200 H   0  0  0  0  0  0  0  0  0  0  0  0
    0.7919   -4.1688   -1.3968 H   0  0  0  0  0  0  0  0  0  0  0  0
   -1.4415   -2.3458    0.3557 H   0  0  0  0  0  0  0  0  0  0  0  0
   -1.4415   -0.7077    0.9636 H   0  0  0  0  0  0  0  0  0  0  0  0
  1 39  1  0  0  0  0
  1 40  1  0  0  0  0
  1 41  1  0  0  0  0
  2 42  1  0  0  0  0
  2 43  1  0  0  0  0
  2 44  1  0  0  0  0
  4 45  1  0  0  0  0
  4 46  1  0  0  0  0
  4 47  1  0  0  0  0
  5 48  1  0  0  0  0
  5 49  1  0  0  0  0
  6  1  1  0  0  0  0
  6  2  1  0  0  0  0
  6  5  1  0  0  0  0
  7  3  3  0  0  0  0
  7  5  1  0  0  0  0
  8  4  1  0  0  0  0
  8  6  1  0  0  0  0
  9 50  1  0  0  0  0
  9 51  1  0  0  0  0
  9 52  1  0  0  0  0
 10 53  1  0  0  0  0
 10 54  1  0  0  0  0
 10 55  1  0  0  0  0
 12 56  1  0  0  0  0
 12 57  1  0  0  0  0
 12 58  1  0  0  0  0
 13 59  1  0  0  0  0
 13 60  1  0  0  0  0
 14  9  1  0  0  0  0
 14 10  1  0  0  0  0
 14 13  1  0  0  0  0
 15 11  3  0  0  0  0
 15 13  1  0  0  0  0
 16 12  1  0  0  0  0
 16 14  1  0  0  0  0
 17 61  1  0  0  0  0
 17 62  1  0  0  0  0
 17 63  1  0  0  0  0
 18 64  1  0  0  0  0
 18 65  1  0  0  0  0
 18 66  1  0  0  0  0
 20 67  1  0  0  0  0
 20 68  1  0  0  0  0
 20 69  1  0  0  0  0
 21 70  1  0  0  0  0
 21 71  1  0  0  0  0
 22 17  1  0  0  0  0
 22 18  1  0  0  0  0
 22 21  1  0  0  0  0
 23 19  3  0  0  0  0
 23 21  1  0  0  0  0
 24 20  1  0  0  0  0
 24 22  1  0  0  0  0
 25 72  1  0  0  0  0
 25 73  1  0  0  0  0
 25 74  1  0  0  0  0
 26 75  1  0  0  0  0
 26 76  1  0  0  0  0
 26 77  1  0  0  0  0
 28 78  1  0  0  0  0
 28 79  1  0  0  0  0
 28 80  1  0  0  0  0
 29 81  1  0  0  0  0
 29 82  1  0  0  0  0
 30 25  1  0  0  0  0
 30 26  1  0  0  0  0
 30 29  1  0  0  0  0
 31 27  3  0  0  0  0
 31 29  1  0  0  0  0
 32 28  1  0  0  0  0
 32 30  1  0  0  0  0
 34 33  1  0  0  0  0
 35 33  1  0  0  0  0
 36 33  1  0  0  0  0
 37 33  1  0  0  0  0
M  CHG  8   3  -1   7   1  11  -1  15   1  19  -1  23   1  27  -1  31   1
M  CHG  2  33  -1  38   1
M  END
>  <DRUGBANK_ID>
DB14106

>  <COMMON_NAME>
Tetrakis(2-methoxyisobutylisocyanide)copper(I) tetrafluoroborate

>  <CAS_NUMBER>
103694-84-4

>  <UNII>
N6OU7HJ70P

>  <SYNONYMS>
Cardio-spect; Tetrakis (2-methoxyisobutyl isonitrile) copper (I) tetrafluoroborate

$$$$
