
 OpenBabel10282417183D

 48 51  0  0  0  0  0  0  0  0999 V2000
   -1.4467    0.8116    3.8773 N   0  0  0  0  0  0  0  0  0  0  0  0
   -2.4705    1.4921    3.3923 C   0  0  0  0  0  0  0  0  0  0  0  0
   -2.0259    2.4837    2.5747 N   0  0  0  0  0  0  0  0  0  0  0  0
   -0.7471    2.7105    2.9601 N   0  0  0  0  0  0  0  0  0  0  0  0
   -0.3849    1.5417    3.4705 C   0  0  0  0  0  0  0  0  0  0  0  0
   -2.7277    3.2605    1.5244 C   0  0  0  0  0  0  0  0  0  0  0  0
   -2.1154    4.6705    1.2290 C   0  0  2  0  0  0  0  0  0  0  0  0
   -2.6477    5.3788   -0.0436 C   0  0  0  0  0  0  0  0  0  0  0  0
   -4.0080    5.7198   -0.1455 C   0  0  0  0  0  0  0  0  0  0  0  0
   -1.8399    5.7377   -1.1591 C   0  0  0  0  0  0  0  0  0  0  0  0
   -4.5066    6.3100   -1.3140 C   0  0  0  0  0  0  0  0  0  0  0  0
   -2.3355    6.3547   -2.2978 C   0  0  0  0  0  0  0  0  0  0  0  0
   -3.6839    6.6201   -2.3908 C   0  0  0  0  0  0  0  0  0  0  0  0
   -0.5298    5.4823   -1.2510 F   0  0  0  0  0  0  0  0  0  0  0  0
   -0.5467    4.6298    1.1813 C   0  0  2  0  0  0  0  0  0  0  0  0
    0.0081    3.2318    0.5949 C   0  0  0  0  0  0  0  0  0  0  0  0
    0.0192    5.2688    2.4779 C   0  0  0  0  0  0  0  0  0  0  0  0
    1.6869    2.8609    0.7064 S   0  0  0  0  0  0  0  0  0  0  0  0
   -0.7134    2.1490    0.2271 N   0  0  0  0  0  0  0  0  0  0  0  0
    1.2980    1.1735    0.7941 C   0  0  0  0  0  0  0  0  0  0  0  0
   -0.0496    0.9467    0.6073 C   0  0  0  0  0  0  0  0  0  0  0  0
   -0.7271   -0.3784    0.9020 C   0  0  0  0  0  0  0  0  0  0  0  0
   -0.4470   -1.2424    2.0120 C   0  0  0  0  0  0  0  0  0  0  0  0
   -1.7176   -0.8308    0.0342 C   0  0  0  0  0  0  0  0  0  0  0  0
   -1.0759   -2.5029    2.1920 C   0  0  0  0  0  0  0  0  0  0  0  0
   -2.3041   -2.1090    0.1756 C   0  0  0  0  0  0  0  0  0  0  0  0
   -1.9893   -2.9497    1.2478 C   0  0  0  0  0  0  0  0  0  0  0  0
   -2.6220    5.4727    2.3415 O   0  0  0  0  0  0  0  0  0  0  0  0
   -2.6150   -4.2495    1.3722 C   0  0  0  0  0  0  0  0  0  0  0  0
   -3.1204   -5.2751    1.4616 N   0  0  0  0  0  0  0  0  0  0  0  0
   -5.8175    6.5595   -1.4149 F   0  0  0  0  0  0  0  0  0  0  0  0
   -3.5061    1.3349    3.6091 H   0  0  0  0  0  0  0  0  0  0  0  0
    0.6534    1.2040    3.4396 H   0  0  0  0  0  0  0  0  0  0  0  0
   -2.7882    2.6971    0.5828 H   0  0  0  0  0  0  0  0  0  0  0  0
   -3.7677    3.3265    1.8603 H   0  0  0  0  0  0  0  0  0  0  0  0
   -4.6999    5.5288    0.6711 H   0  0  0  0  0  0  0  0  0  0  0  0
   -1.6398    6.5779   -3.1019 H   0  0  0  0  0  0  0  0  0  0  0  0
   -4.0867    7.0520   -3.2982 H   0  0  0  0  0  0  0  0  0  0  0  0
   -0.1249    5.3755    0.5244 H   0  0  0  0  0  0  0  0  0  0  0  0
    1.1055    5.2636    2.5020 H   0  0  0  0  0  0  0  0  0  0  0  0
   -0.3006    6.3251    2.5107 H   0  0  0  0  0  0  0  0  0  0  0  0
   -0.3526    4.8564    3.4188 H   0  0  0  0  0  0  0  0  0  0  0  0
    2.0610    0.4806    1.0941 H   0  0  0  0  0  0  0  0  0  0  0  0
    0.2141   -0.9616    2.8314 H   0  0  0  0  0  0  0  0  0  0  0  0
   -2.0210   -0.1969   -0.7921 H   0  0  0  0  0  0  0  0  0  0  0  0
   -0.8417   -3.1229    3.0631 H   0  0  0  0  0  0  0  0  0  0  0  0
   -3.0028   -2.4470   -0.5863 H   0  0  0  0  0  0  0  0  0  0  0  0
   -2.3834    5.0071    3.1696 H   0  0  0  0  0  0  0  0  0  0  0  0
  1  5  1  0  0  0  0
  2  1  2  0  0  0  0
  2 32  1  0  0  0  0
  3  2  1  0  0  0  0
  3  4  1  0  0  0  0
  3  6  1  0  0  0  0
  5  4  2  0  0  0  0
  5 33  1  0  0  0  0
  6 34  1  0  0  0  0
  6 35  1  0  0  0  0
  7 28  1  1  0  0  0
  7  8  1  0  0  0  0
  7  6  1  0  0  0  0
  9  8  1  0  0  0  0
  9 36  1  0  0  0  0
 10  8  2  0  0  0  0
 10 14  1  0  0  0  0
 11  9  2  0  0  0  0
 11 31  1  0  0  0  0
 12 10  1  0  0  0  0
 12 37  1  0  0  0  0
 13 11  1  0  0  0  0
 13 12  2  0  0  0  0
 13 38  1  0  0  0  0
 15 17  1  0  0  0  0
 15 39  1  6  0  0  0
 15 16  1  0  0  0  0
 15  7  1  0  0  0  0
 17 40  1  0  0  0  0
 17 41  1  0  0  0  0
 17 42  1  0  0  0  0
 18 16  1  0  0  0  0
 19 16  2  0  0  0  0
 20 18  1  0  0  0  0
 20 43  1  0  0  0  0
 21 19  1  0  0  0  0
 21 20  2  0  0  0  0
 21 22  1  0  0  0  0
 23 22  1  0  0  0  0
 23 44  1  0  0  0  0
 24 22  2  0  0  0  0
 24 45  1  0  0  0  0
 25 23  2  0  0  0  0
 25 46  1  0  0  0  0
 26 24  1  0  0  0  0
 26 47  1  0  0  0  0
 27 25  1  0  0  0  0
 27 26  2  0  0  0  0
 27 29  1  0  0  0  0
 28 48  1  0  0  0  0
 29 30  3  0  0  0  0
M  END
>  <DRUGBANK_ID>
DB11633

>  <COMMON_NAME>
Isavuconazole

>  <CAS_NUMBER>
241479-67-4

>  <UNII>
60UTO373KE

>  <SYNONYMS>
isavuconazol; Isavuconazole; isavuconazolum

$$$$
