1188
 OpenBabel10282417113D

 32 33  0  0  0  0  0  0  0  0999 V2000
    0.8753   -0.2111    0.0044 O   0  0  0  0  0  0  0  0  0  0  0  0
   -1.1887    1.0479    1.2391 O   0  0  0  0  0  0  0  0  0  0  0  0
    0.3636    1.0028   -0.4994 N   0  0  0  0  0  0  0  0  0  0  0  0
    2.0586    0.8511   -2.3721 C   0  0  0  0  0  0  0  0  0  0  0  0
    1.8529   -0.6351   -2.7089 C   0  0  0  0  0  0  0  0  0  0  0  0
    3.3310    1.1215   -1.5424 C   0  0  0  0  0  0  0  0  0  0  0  0
    3.1083   -1.2752   -3.2778 C   0  0  0  0  0  0  0  0  0  0  0  0
    4.5588    0.4195   -2.1074 C   0  0  0  0  0  0  0  0  0  0  0  0
    4.2998   -1.0639   -2.3507 C   0  0  0  0  0  0  0  0  0  0  0  0
    0.8208    1.4559   -1.7285 C   0  0  0  0  0  0  0  0  0  0  0  0
    0.1448    2.4603   -2.3252 C   0  0  0  0  0  0  0  0  0  0  0  0
   -1.0406    3.0287   -1.7094 C   0  0  0  0  0  0  0  0  0  0  0  0
   -0.7525    1.4698    0.1654 C   0  0  0  0  0  0  0  0  0  0  0  0
   -1.4706    2.5653   -0.5246 C   0  0  0  0  0  0  0  0  0  0  0  0
   -1.7859    4.1260   -2.4035 C   0  0  0  0  0  0  0  0  0  0  0  0
    1.7772    0.0183    0.2665 H   0  0  0  0  0  0  0  0  0  0  0  0
    2.2260    1.3560   -3.3375 H   0  0  0  0  0  0  0  0  0  0  0  0
    1.5767   -1.2161   -1.8271 H   0  0  0  0  0  0  0  0  0  0  0  0
    1.0201   -0.7464   -3.4140 H   0  0  0  0  0  0  0  0  0  0  0  0
    3.5144    2.2018   -1.4795 H   0  0  0  0  0  0  0  0  0  0  0  0
    3.2296    0.7902   -0.5084 H   0  0  0  0  0  0  0  0  0  0  0  0
    2.9307   -2.3480   -3.4124 H   0  0  0  0  0  0  0  0  0  0  0  0
    3.3219   -0.8511   -4.2646 H   0  0  0  0  0  0  0  0  0  0  0  0
    5.3902    0.5337   -1.4022 H   0  0  0  0  0  0  0  0  0  0  0  0
    4.8570    0.9034   -3.0437 H   0  0  0  0  0  0  0  0  0  0  0  0
    4.1149   -1.5682   -1.3929 H   0  0  0  0  0  0  0  0  0  0  0  0
    5.1907   -1.5247   -2.7888 H   0  0  0  0  0  0  0  0  0  0  0  0
    0.4594    2.8539   -3.2893 H   0  0  0  0  0  0  0  0  0  0  0  0
   -2.3566    2.9392   -0.0300 H   0  0  0  0  0  0  0  0  0  0  0  0
   -2.8166    3.8142   -2.6071 H   0  0  0  0  0  0  0  0  0  0  0  0
   -1.8148    5.0174   -1.7671 H   0  0  0  0  0  0  0  0  0  0  0  0
   -1.3294    4.4111   -3.3560 H   0  0  0  0  0  0  0  0  0  0  0  0
  1  3  1  0  0  0  0
  1 16  1  0  0  0  0
  2 13  2  0  0  0  0
  3 10  1  0  0  0  0
  3 13  1  0  0  0  0
  4  5  1  0  0  0  0
  4  6  1  0  0  0  0
  4 10  1  0  0  0  0
  4 17  1  0  0  0  0
  5  7  1  0  0  0  0
  5 18  1  0  0  0  0
  5 19  1  0  0  0  0
  6  8  1  0  0  0  0
  6 20  1  0  0  0  0
  6 21  1  0  0  0  0
  7  9  1  0  0  0  0
  7 22  1  0  0  0  0
  7 23  1  0  0  0  0
  8  9  1  0  0  0  0
  8 24  1  0  0  0  0
  8 25  1  0  0  0  0
  9 26  1  0  0  0  0
  9 27  1  0  0  0  0
 10 11  2  0  0  0  0
 11 12  1  0  0  0  0
 11 28  1  0  0  0  0
 12 14  2  0  0  0  0
 12 15  1  0  0  0  0
 13 14  1  0  0  0  0
 14 29  1  0  0  0  0
 15 30  1  0  0  0  0
 15 31  1  0  0  0  0
 15 32  1  0  0  0  0
M  END
>  <DRUGBANK_ID>
DB01188

>  <SECONDARY_ACCESSION_NUMBERS>
APRD00871

>  <COMMON_NAME>
Ciclopirox

>  <CAS_NUMBER>
29342-05-0

>  <UNII>
19W019ZDRJ

>  <SYNONYMS>
6-cyclohexyl-1-hydroxy-4-methyl-2(1H)-pyridinone; Ciclopirox; Ciclopiroxum

$$$$
