
 OpenBabel10282417123D

 48 51  0  0  0  0  0  0  0  0999 V2000
    1.3955   -0.2291    0.0070 C   0  0  0  0  0  0  0  0  0  0  0  0
   -5.7568   -2.6735   -0.4740 C   0  0  0  0  0  0  0  0  0  0  0  0
    0.4882   -1.2801    0.0016 C   0  0  0  0  0  0  0  0  0  0  0  0
    0.9212    1.0678   -0.0157 C   0  0  0  0  0  0  0  0  0  0  0  0
   -4.9095   -2.5854    0.6229 C   0  0  0  0  0  0  0  0  0  0  0  0
   -5.6362   -1.7344   -1.4964 C   0  0  0  0  0  0  0  0  0  0  0  0
   -2.1537   10.5937    0.2084 C   0  0  0  0  0  0  0  0  0  0  0  0
   -1.5881   10.0388   -0.8789 C   0  0  0  0  0  0  0  0  0  0  0  0
   -0.8992   -1.0207   -0.0471 C   0  0  0  0  0  0  0  0  0  0  0  0
   -0.4478    1.3112    0.0417 C   0  0  0  0  0  0  0  0  0  0  0  0
   -3.9956   -1.5150    0.7198 C   0  0  0  0  0  0  0  0  0  0  0  0
   -4.6578   -0.7194   -1.4333 C   0  0  0  0  0  0  0  0  0  0  0  0
   -3.0955    9.6298    0.9254 C   0  0  0  0  0  0  0  0  0  0  0  0
   -2.2845    8.9107   -1.2683 C   0  0  0  0  0  0  0  0  0  0  0  0
   -3.2285    2.0721   -0.0646 C   0  0  0  0  0  0  0  0  0  0  0  0
   -4.3477    3.2670    0.0545 C   0  0  0  0  0  0  0  0  0  0  0  0
   -6.4210    6.1394   -0.5382 C   0  0  0  0  0  0  0  0  0  0  0  0
   -1.4167    0.3042   -0.0499 C   0  0  0  0  0  0  0  0  0  0  0  0
   -3.9107   -0.4964   -0.2670 C   0  0  0  0  0  0  0  0  0  0  0  0
   -2.9335    0.6924   -0.1437 C   0  0  0  0  0  0  0  0  0  0  0  0
   -3.4984    7.9644    0.5572 C   0  0  0  0  0  0  0  0  0  0  0  0
   -3.4779    8.4115   -0.6937 C   0  0  0  0  0  0  0  0  0  0  0  0
   -4.9465    6.3598   -0.5660 C   0  0  0  0  0  0  0  0  0  0  0  0
   -4.1931    6.2947    0.5964 C   0  0  0  0  0  0  0  0  0  0  0  0
   -7.0064    6.7826    0.6379 N   0  0  0  0  0  0  0  0  0  0  0  0
   -4.3987    4.6148    0.2480 N   0  0  0  0  0  0  0  0  0  0  0  0
   -4.4786    8.1299   -1.4826 N   0  0  0  0  0  0  0  0  0  0  0  0
   -4.4877    6.9398   -1.6611 N   0  0  0  0  0  0  0  0  0  0  0  0
    2.4648   -0.4099    0.0445 H   0  0  0  0  0  0  0  0  0  0  0  0
   -6.4908   -3.4756   -0.5401 H   0  0  0  0  0  0  0  0  0  0  0  0
    0.8646   -2.3023    0.0122 H   0  0  0  0  0  0  0  0  0  0  0  0
    1.5956    1.9161   -0.0725 H   0  0  0  0  0  0  0  0  0  0  0  0
   -4.9840   -3.3272    1.4183 H   0  0  0  0  0  0  0  0  0  0  0  0
   -6.3229   -1.7757   -2.3404 H   0  0  0  0  0  0  0  0  0  0  0  0
   -1.9386   11.6730    0.3695 H   0  0  0  0  0  0  0  0  0  0  0  0
   -0.7351   10.4235   -1.4365 H   0  0  0  0  0  0  0  0  0  0  0  0
   -1.5352   -1.9041   -0.0635 H   0  0  0  0  0  0  0  0  0  0  0  0
   -0.7075    2.3477    0.1818 H   0  0  0  0  0  0  0  0  0  0  0  0
   -3.3232   -1.5170    1.5771 H   0  0  0  0  0  0  0  0  0  0  0  0
   -4.4763   -0.1242   -2.3240 H   0  0  0  0  0  0  0  0  0  0  0  0
   -3.8897   10.3617    1.2784 H   0  0  0  0  0  0  0  0  0  0  0  0
   -1.8039    8.1812   -1.8899 H   0  0  0  0  0  0  0  0  0  0  0  0
   -2.4007    2.7464   -0.1121 H   0  0  0  0  0  0  0  0  0  0  0  0
   -5.3316    2.7227   -0.2287 H   0  0  0  0  0  0  0  0  0  0  0  0
   -6.7906    6.6079   -1.4538 H   0  0  0  0  0  0  0  0  0  0  0  0
   -6.7258    5.0889   -0.5993 H   0  0  0  0  0  0  0  0  0  0  0  0
   -8.0085    6.8317    0.5269 H   0  0  0  0  0  0  0  0  0  0  0  0
   -6.7940    6.1941    1.4435 H   0  0  0  0  0  0  0  0  0  0  0  0
  1 29  1  0  0  0  0
  2 30  1  0  0  0  0
  3  1  2  0  0  0  0
  3 31  1  0  0  0  0
  4  1  1  0  0  0  0
  4 32  1  0  0  0  0
  5  2  2  0  0  0  0
  5 33  1  0  0  0  0
  6  2  1  0  0  0  0
  6 34  1  0  0  0  0
  7 35  1  0  0  0  0
  8  7  2  0  0  0  0
  8 36  1  0  0  0  0
  9  3  1  0  0  0  0
  9 37  1  0  0  0  0
 10  4  2  0  0  0  0
 10 38  1  0  0  0  0
 11  5  1  0  0  0  0
 11 39  1  0  0  0  0
 12  6  2  0  0  0  0
 12 40  1  0  0  0  0
 13  7  1  0  0  0  0
 13 41  1  0  0  0  0
 14  8  1  0  0  0  0
 14 42  1  0  0  0  0
 15 43  1  0  0  0  0
 16 15  1  0  0  0  0
 16 44  1  0  0  0  0
 17 45  1  0  0  0  0
 17 46  1  0  0  0  0
 18  9  2  0  0  0  0
 18 10  1  0  0  0  0
 19 11  2  0  0  0  0
 19 12  1  0  0  0  0
 20 15  2  0  0  0  0
 20 18  1  0  0  0  0
 20 19  1  0  0  0  0
 21 13  2  0  0  0  0
 22 14  2  0  0  0  0
 22 21  1  0  0  0  0
 23 17  1  0  0  0  0
 24 21  1  0  0  0  0
 24 23  2  0  0  0  0
 25 17  1  0  0  0  0
 25 47  1  0  0  0  0
 25 48  1  0  0  0  0
 26 16  2  3  0  0  0
 26 24  1  0  0  0  0
 27 22  1  0  0  0  0
 28 23  1  0  0  0  0
 28 27  2  0  0  0  0
M  END
>  <DRUGBANK_ID>
DB02882

>  <SECONDARY_ACCESSION_NUMBERS>
EXPT02227

>  <COMMON_NAME>
Cyanocinnoline

$$$$
