
 OpenBabel10282417193D

 62 65  0  0  1  0  0  0  0  0999 V2000
    0.8848   -0.0540   -0.2734 C   0  0  0  0  0  0  0  0  0  0  0  0
    0.5119   -1.4629    0.1668 C   0  0  1  0  0  0  0  0  0  0  0  0
    1.0580   -2.0646    1.4635 C   0  0  0  0  0  0  0  0  0  0  0  0
    0.8641   -3.4594    1.6396 C   0  0  0  0  0  0  0  0  0  0  0  0
    1.1696   -4.0664    2.8481 C   0  0  0  0  0  0  0  0  0  0  0  0
    1.6734   -3.3073    3.8999 C   0  0  0  0  0  0  0  0  0  0  0  0
    1.8943   -1.9218    3.7593 C   0  0  0  0  0  0  0  0  0  0  0  0
    1.6095   -1.2888    2.5317 C   0  0  0  0  0  0  0  0  0  0  0  0
    1.8714    0.1032    2.4803 C   0  0  0  0  0  0  0  0  0  0  0  0
    2.3157    0.8680    3.5405 C   0  0  0  0  0  0  0  0  0  0  0  0
    2.5893    0.2381    4.7251 C   0  0  0  0  0  0  0  0  0  0  0  0
    2.3889   -1.1432    4.8319 C   0  0  0  0  0  0  0  0  0  0  0  0
    0.8966   -5.7562    3.0478 Cl  0  0  0  0  0  0  0  0  0  0  0  0
   -0.9448   -1.6123    0.1236 N   0  0  0  0  0  0  0  0  0  0  0  0
   -1.3669   -2.6663   -0.8107 C   0  0  0  0  0  0  0  0  0  0  0  0
   -1.6746   -0.8972    1.0905 C   0  0  0  0  0  0  0  0  0  0  0  0
   -1.1096   -0.2486    2.0022 O   0  0  0  0  0  0  0  0  0  0  0  0
   -3.1844   -0.8225    1.1308 C   0  0  0  0  0  0  0  0  0  0  0  0
   -3.8464   -0.0882   -0.0731 C   0  0  0  0  0  0  0  0  0  0  0  0
   -5.3724    0.0409    0.1246 C   0  0  0  0  0  0  0  0  0  0  0  0
   -6.0425   -1.3430    0.2397 C   0  0  0  0  0  0  0  0  0  0  0  0
   -5.7547   -2.2105   -0.9183 N   0  0  0  0  0  0  0  0  0  0  0  0
   -4.3209   -2.3310   -1.1356 C   0  0  0  0  0  0  0  0  0  0  0  0
   -3.7360   -0.9401   -1.3244 C   0  0  0  0  0  0  0  0  0  0  0  0
   -6.3065   -3.5487   -0.7113 C   0  0  0  0  0  0  0  0  0  0  0  0
   -3.1679    1.2787   -0.3126 C   0  0  0  0  0  0  0  0  0  0  0  0
   -3.2500    2.2819    0.6613 C   0  0  0  0  0  0  0  0  0  0  0  0
   -2.6273    3.5156    0.4603 C   0  0  0  0  0  0  0  0  0  0  0  0
   -1.8944    3.7489   -0.6980 C   0  0  0  0  0  0  0  0  0  0  0  0
   -1.7607    2.7712   -1.6628 C   0  0  0  0  0  0  0  0  0  0  0  0
   -2.3983    1.5520   -1.4718 C   0  0  0  0  0  0  0  0  0  0  0  0
   -1.3085    4.9365   -0.8888 F   0  0  0  0  0  0  0  0  0  0  0  0
    0.3851    0.6991    0.3449 H   0  0  0  0  0  0  0  0  0  0  0  0
    0.5579    0.1793   -1.2871 H   0  0  0  0  0  0  0  0  0  0  0  0
    1.9736    0.0569   -0.2463 H   0  0  0  0  0  0  0  0  0  0  0  0
    0.9483   -2.0819   -0.6274 H   0  0  0  0  0  0  0  0  0  0  0  0
    0.4367   -4.0659    0.8419 H   0  0  0  0  0  0  0  0  0  0  0  0
    1.8930   -3.7983    4.8441 H   0  0  0  0  0  0  0  0  0  0  0  0
    1.7381    0.7088    1.6091 H   0  0  0  0  0  0  0  0  0  0  0  0
    2.4319    1.9377    3.3913 H   0  0  0  0  0  0  0  0  0  0  0  0
    2.9640    0.8288    5.5518 H   0  0  0  0  0  0  0  0  0  0  0  0
    2.6199   -1.6114    5.7833 H   0  0  0  0  0  0  0  0  0  0  0  0
   -1.9918   -3.3903   -0.3020 H   0  0  0  0  0  0  0  0  0  0  0  0
   -1.8060   -2.3102   -1.7366 H   0  0  0  0  0  0  0  0  0  0  0  0
   -0.5107   -3.1804   -1.2497 H   0  0  0  0  0  0  0  0  0  0  0  0
   -3.5485   -1.8289    1.3463 H   0  0  0  0  0  0  0  0  0  0  0  0
   -3.4597   -0.2707    2.0490 H   0  0  0  0  0  0  0  0  0  0  0  0
   -5.7971    0.5701   -0.7413 H   0  0  0  0  0  0  0  0  0  0  0  0
   -5.6149    0.6423    1.0066 H   0  0  0  0  0  0  0  0  0  0  0  0
   -7.1232   -1.1989    0.3177 H   0  0  0  0  0  0  0  0  0  0  0  0
   -5.7157   -1.8238    1.1705 H   0  0  0  0  0  0  0  0  0  0  0  0
   -3.8970   -2.8643   -0.2803 H   0  0  0  0  0  0  0  0  0  0  0  0
   -4.0806   -2.9441   -2.0111 H   0  0  0  0  0  0  0  0  0  0  0  0
   -4.1788   -0.4771   -2.2124 H   0  0  0  0  0  0  0  0  0  0  0  0
   -2.6900   -0.9177   -1.5533 H   0  0  0  0  0  0  0  0  0  0  0  0
   -6.0856   -4.1904   -1.5727 H   0  0  0  0  0  0  0  0  0  0  0  0
   -5.8910   -4.0316    0.1822 H   0  0  0  0  0  0  0  0  0  0  0  0
   -7.3920   -3.4934   -0.6125 H   0  0  0  0  0  0  0  0  0  0  0  0
   -3.7849    2.1077    1.5919 H   0  0  0  0  0  0  0  0  0  0  0  0
   -2.7075    4.2957    1.2080 H   0  0  0  0  0  0  0  0  0  0  0  0
   -1.1725    2.9473   -2.5573 H   0  0  0  0  0  0  0  0  0  0  0  0
   -2.2524    0.8284   -2.2690 H   0  0  0  0  0  0  0  0  0  0  0  0
  1 33  1  0  0  0  0
  1 34  1  0  0  0  0
  1 35  1  0  0  0  0
  2  1  1  0  0  0  0
  2  3  1  0  0  0  0
  2 14  1  0  0  0  0
  2 36  1  6  0  0  0
  3  4  1  0  0  0  0
  3  8  2  0  0  0  0
  4  5  2  0  0  0  0
  4 37  1  0  0  0  0
  5  6  1  0  0  0  0
  5 13  1  0  0  0  0
  6  7  2  0  0  0  0
  6 38  1  0  0  0  0
  7  8  1  0  0  0  0
  7 12  1  0  0  0  0
  8  9  1  0  0  0  0
  9 10  2  0  0  0  0
  9 39  1  0  0  0  0
 10 11  1  0  0  0  0
 10 40  1  0  0  0  0
 11 12  2  0  0  0  0
 11 41  1  0  0  0  0
 12 42  1  0  0  0  0
 14 15  1  0  0  0  0
 14 16  1  0  0  0  0
 15 43  1  0  0  0  0
 15 44  1  0  0  0  0
 15 45  1  0  0  0  0
 16 17  2  0  0  0  0
 16 18  1  0  0  0  0
 18 19  1  0  0  0  0
 18 46  1  0  0  0  0
 18 47  1  0  0  0  0
 19 20  1  0  0  0  0
 19 24  1  0  0  0  0
 19 26  1  0  0  0  0
 20 21  1  0  0  0  0
 20 48  1  0  0  0  0
 20 49  1  0  0  0  0
 21 22  1  0  0  0  0
 21 50  1  0  0  0  0
 21 51  1  0  0  0  0
 22 23  1  0  0  0  0
 22 25  1  0  0  0  0
 23 24  1  0  0  0  0
 23 52  1  0  0  0  0
 23 53  1  0  0  0  0
 24 54  1  0  0  0  0
 24 55  1  0  0  0  0
 25 56  1  0  0  0  0
 25 57  1  0  0  0  0
 25 58  1  0  0  0  0
 26 27  2  0  0  0  0
 26 31  1  0  0  0  0
 27 28  1  0  0  0  0
 27 59  1  0  0  0  0
 28 29  2  0  0  0  0
 28 60  1  0  0  0  0
 29 30  1  0  0  0  0
 29 32  1  0  0  0  0
 30 31  2  0  0  0  0
 30 61  1  0  0  0  0
 31 62  1  0  0  0  0
M  END
>  <DRUGBANK_ID>
DB12219

>  <COMMON_NAME>
GSK-424887

>  <UNII>
IYI99KCF2T

$$$$
