
 OpenBabel10282417233D

159159  0  0  1  0  0  0  0  0999 V2000
   -1.8947   25.1245   17.7951 C   0  0  0  0  0  0  0  0  0  0  0  0
   -2.9289   25.1725   16.6822 C   0  0  0  0  0  0  0  0  0  0  0  0
   -2.4452   24.3737   15.4711 C   0  0  0  0  0  0  0  0  0  0  0  0
   -2.2106   22.9028   15.8326 C   0  0  0  0  0  0  0  0  0  0  0  0
   -3.4992   22.2626   16.3609 C   0  0  0  0  0  0  0  0  0  0  0  0
   -4.5888   22.3111   15.2858 C   0  0  0  0  0  0  0  0  0  0  0  0
   -4.1233   21.5444   14.0445 C   0  0  0  0  0  0  0  0  0  0  0  0
   -3.8394   20.0867   14.4192 C   0  0  0  0  0  0  0  0  0  0  0  0
   -5.1168   19.4452   14.9684 C   0  0  0  0  0  0  0  0  0  0  0  0
   -6.2110   19.5031   13.8990 C   0  0  0  0  0  0  0  0  0  0  0  0
   -5.7385   18.7472   12.6541 C   0  0  0  0  0  0  0  0  0  0  0  0
   -5.4474   17.2919   13.0312 C   0  0  0  0  0  0  0  0  0  0  0  0
   -6.7244   16.6541   13.5831 C   0  0  0  0  0  0  0  0  0  0  0  0
   -7.8139   16.7224   12.5114 C   0  0  0  0  0  0  0  0  0  0  0  0
   -7.3293   15.9719   11.2665 C   0  0  0  0  0  0  0  0  0  0  0  0
   -7.0585   14.5138   11.6474 C   0  0  0  0  0  0  0  0  0  0  0  0
   -8.3579   13.9235   12.2023 C   0  0  0  0  0  0  0  0  0  0  0  0
   -9.4793   14.1313   11.1616 C   0  0  0  0  0  0  0  0  0  0  0  0
   -9.0804   13.5123    9.8359 C   0  0  0  0  0  0  0  0  0  0  0  0
   -8.8726   12.0806   10.1266 C   0  0  0  0  0  0  0  0  0  0  0  0
  -10.2188   11.4863   10.6257 C   0  0  0  0  0  0  0  0  0  0  0  0
  -11.2368   11.2434    9.5598 C   0  0  0  0  0  0  0  0  0  0  0  0
  -10.6609   10.3519    8.4520 C   0  0  0  0  0  0  0  0  0  0  0  0
  -10.3344    8.8814    8.7617 C   0  0  0  0  0  0  0  0  0  0  0  0
  -10.9780    7.9785    8.2069 O   0  0  0  0  0  0  0  0  0  0  0  0
   -9.2763    8.4879    9.5366 N   0  0  0  0  0  0  0  0  0  0  0  0
   -8.4078    9.2523   10.4550 C   0  0  1  0  0  0  0  0  0  0  0  0
   -8.7627    9.4072   11.9663 C   0  0  0  0  0  0  0  0  0  0  0  0
   -8.4322    8.2153   12.6330 O   0  0  0  0  0  0  0  0  0  0  0  0
   -9.1337    7.1440   12.0437 C   0  0  1  0  0  0  0  0  0  0  0  0
   -8.7155    5.9426   12.6606 O   0  0  0  0  0  0  0  0  0  0  0  0
   -8.8745    6.0453   14.0765 C   0  0  2  0  0  0  0  0  0  0  0  0
   -8.2564    4.7782   14.6383 C   0  0  0  0  0  0  0  0  0  0  0  0
   -6.8202    4.7014   14.3534 N   0  0  0  0  0  0  0  0  0  0  0  0
   -5.8896    4.7046   15.3506 C   0  0  0  0  0  0  0  0  0  0  0  0
   -4.4510    4.5862   14.9439 C   0  0  0  0  0  0  0  0  0  0  0  0
   -6.2043    4.7847   16.5577 O   0  0  0  0  0  0  0  0  0  0  0  0
  -10.3830    6.2029   14.3483 C   0  0  2  0  0  0  0  0  0  0  0  0
  -11.1067    5.0975   13.7727 O   0  0  0  0  0  0  0  0  0  0  0  0
  -10.9114    7.4813   13.6828 C   0  0  2  0  0  0  0  0  0  0  0  0
  -12.3029    7.6989   13.9124 O   0  0  0  0  0  0  0  0  0  0  0  0
  -10.6660    7.3844   12.1712 C   0  0  1  0  0  0  0  0  0  0  0  0
  -11.2505    8.5322   11.5363 O   0  0  0  0  0  0  0  0  0  0  0  0
   -6.9021    9.3036   10.2521 C   0  0  2  0  0  0  0  0  0  0  0  0
   -6.5625    8.2719    9.3165 O   0  0  0  0  0  0  0  0  0  0  0  0
   -6.0458    9.3166   11.5511 C   0  0  2  0  0  0  0  0  0  0  0  0
   -6.5565    9.6023   12.8630 O   0  0  0  0  0  0  0  0  0  0  0  0
   -4.8885   10.2907   11.4836 C   0  0  0  0  0  0  0  0  0  0  0  0
   -4.1381   10.1565   12.8254 C   0  0  0  0  0  0  0  0  0  0  0  0
   -3.8242    8.6667   13.0738 C   0  0  0  0  0  0  0  0  0  0  0  0
   -2.9918    8.1484   11.8998 C   0  0  0  0  0  0  0  0  0  0  0  0
   -1.7219    8.9933   11.8144 C   0  0  0  0  0  0  0  0  0  0  0  0
   -0.9679    8.8826   13.1427 C   0  0  0  0  0  0  0  0  0  0  0  0
   -0.6129    7.4146   13.3939 C   0  0  0  0  0  0  0  0  0  0  0  0
    0.2612    6.9065   12.2441 C   0  0  0  0  0  0  0  0  0  0  0  0
    1.5387    7.7473   12.1654 C   0  0  0  0  0  0  0  0  0  0  0  0
    2.3092    7.6372   13.4842 C   0  0  0  0  0  0  0  0  0  0  0  0
    2.6863    6.1758   13.7509 C   0  0  0  0  0  0  0  0  0  0  0  0
    3.5882    5.6372   12.6348 C   0  0  0  0  0  0  0  0  0  0  0  0
    4.8710    6.4607   12.5122 C   0  0  0  0  0  0  0  0  0  0  0  0
    5.6571    6.4123   13.8123 C   0  0  0  0  0  0  0  0  0  0  0  0
   -1.7061   24.1022   18.1391 H   0  0  0  0  0  0  0  0  0  0  0  0
   -2.2333   25.6903   18.6634 H   0  0  0  0  0  0  0  0  0  0  0  0
   -0.9474   25.5385   17.4378 H   0  0  0  0  0  0  0  0  0  0  0  0
   -3.8877   24.7905   17.0528 H   0  0  0  0  0  0  0  0  0  0  0  0
   -3.1226   26.2071   16.3866 H   0  0  0  0  0  0  0  0  0  0  0  0
   -3.1769   24.4654   14.6589 H   0  0  0  0  0  0  0  0  0  0  0  0
   -1.5222   24.8050   15.0724 H   0  0  0  0  0  0  0  0  0  0  0  0
   -1.8225   22.3691   14.9586 H   0  0  0  0  0  0  0  0  0  0  0  0
   -1.4137   22.7914   16.5716 H   0  0  0  0  0  0  0  0  0  0  0  0
   -3.2925   21.2384   16.6878 H   0  0  0  0  0  0  0  0  0  0  0  0
   -3.8580   22.7474   17.2722 H   0  0  0  0  0  0  0  0  0  0  0  0
   -5.5239   21.9114   15.6905 H   0  0  0  0  0  0  0  0  0  0  0  0
   -4.8529   23.3353   15.0108 H   0  0  0  0  0  0  0  0  0  0  0  0
   -4.8735   21.6322   13.2533 H   0  0  0  0  0  0  0  0  0  0  0  0
   -3.2348   21.9892   13.5897 H   0  0  0  0  0  0  0  0  0  0  0  0
   -3.4432   19.5526   13.5509 H   0  0  0  0  0  0  0  0  0  0  0  0
   -3.0336   19.9915   15.1513 H   0  0  0  0  0  0  0  0  0  0  0  0
   -4.9057   18.4239   15.2974 H   0  0  0  0  0  0  0  0  0  0  0  0
   -5.4684   19.9272   15.8840 H   0  0  0  0  0  0  0  0  0  0  0  0
   -7.1452   19.1045   14.3037 H   0  0  0  0  0  0  0  0  0  0  0  0
   -6.4819   20.5270   13.6293 H   0  0  0  0  0  0  0  0  0  0  0  0
   -6.4863   18.8363   11.8615 H   0  0  0  0  0  0  0  0  0  0  0  0
   -4.8517   19.1956   12.1994 H   0  0  0  0  0  0  0  0  0  0  0  0
   -5.0497   16.7576   12.1644 H   0  0  0  0  0  0  0  0  0  0  0  0
   -4.6410   17.1972   13.7622 H   0  0  0  0  0  0  0  0  0  0  0  0
   -6.5164   15.6319   13.9106 H   0  0  0  0  0  0  0  0  0  0  0  0
   -7.0766   17.1334   14.4998 H   0  0  0  0  0  0  0  0  0  0  0  0
   -8.7504   16.3264   12.9142 H   0  0  0  0  0  0  0  0  0  0  0  0
   -8.0882   17.7451   12.2434 H   0  0  0  0  0  0  0  0  0  0  0  0
   -8.0690   16.0696   10.4675 H   0  0  0  0  0  0  0  0  0  0  0  0
   -6.4399   16.4136   10.8141 H   0  0  0  0  0  0  0  0  0  0  0  0
   -6.6782   13.9628   10.7816 H   0  0  0  0  0  0  0  0  0  0  0  0
   -6.2519   14.4050   12.3777 H   0  0  0  0  0  0  0  0  0  0  0  0
   -8.1898   12.8804   12.4935 H   0  0  0  0  0  0  0  0  0  0  0  0
   -8.6641   14.3734   13.1493 H   0  0  0  0  0  0  0  0  0  0  0  0
  -10.4094   13.7268   11.5580 H   0  0  0  0  0  0  0  0  0  0  0  0
   -9.7392   15.1705   10.9819 H   0  0  0  0  0  0  0  0  0  0  0  0
   -9.8398   13.5983    9.0598 H   0  0  0  0  0  0  0  0  0  0  0  0
   -8.1602   13.9099    9.3955 H   0  0  0  0  0  0  0  0  0  0  0  0
   -8.4591   11.6831    9.1921 H   0  0  0  0  0  0  0  0  0  0  0  0
   -8.0558   11.9013   10.8445 H   0  0  0  0  0  0  0  0  0  0  0  0
  -10.1637   10.4833   10.9330 H   0  0  0  0  0  0  0  0  0  0  0  0
  -10.5705   11.8953   11.5762 H   0  0  0  0  0  0  0  0  0  0  0  0
  -12.0936   10.7412   10.0237 H   0  0  0  0  0  0  0  0  0  0  0  0
  -11.5767   12.2089    9.1868 H   0  0  0  0  0  0  0  0  0  0  0  0
  -11.4077   10.3427    7.6530 H   0  0  0  0  0  0  0  0  0  0  0  0
   -9.7696   10.7909    7.9935 H   0  0  0  0  0  0  0  0  0  0  0  0
   -9.1141    7.4990    9.4151 H   0  0  0  0  0  0  0  0  0  0  0  0
   -8.6064   10.1337    9.9545 H   0  0  0  0  0  0  0  0  0  0  0  0
   -8.2909   10.3215   12.3431 H   0  0  0  0  0  0  0  0  0  0  0  0
   -9.7152    9.6938   12.3939 H   0  0  0  0  0  0  0  0  0  0  0  0
   -8.7578    6.9798   11.0503 H   0  0  0  0  0  0  0  0  0  0  0  0
   -8.3069    6.9028   14.4665 H   0  0  0  0  0  0  0  0  0  0  0  0
   -8.4284    4.7554   15.7148 H   0  0  0  0  0  0  0  0  0  0  0  0
   -8.7054    3.8994   14.1689 H   0  0  0  0  0  0  0  0  0  0  0  0
   -6.5316    4.7026   13.3782 H   0  0  0  0  0  0  0  0  0  0  0  0
   -3.8984    5.4476   15.3320 H   0  0  0  0  0  0  0  0  0  0  0  0
   -4.0361    3.6714   15.3800 H   0  0  0  0  0  0  0  0  0  0  0  0
   -4.3221    4.5460   13.8593 H   0  0  0  0  0  0  0  0  0  0  0  0
  -10.5904    6.2253   15.4175 H   0  0  0  0  0  0  0  0  0  0  0  0
  -10.7696    4.9599   12.8647 H   0  0  0  0  0  0  0  0  0  0  0  0
  -10.4097    8.3603   14.1117 H   0  0  0  0  0  0  0  0  0  0  0  0
  -12.7695    6.9786   13.4498 H   0  0  0  0  0  0  0  0  0  0  0  0
  -11.1878    6.5550   11.6981 H   0  0  0  0  0  0  0  0  0  0  0  0
  -11.4799    9.1893   12.2243 H   0  0  0  0  0  0  0  0  0  0  0  0
   -6.6599   10.2303    9.7127 H   0  0  0  0  0  0  0  0  0  0  0  0
   -5.8433    7.7271    9.6657 H   0  0  0  0  0  0  0  0  0  0  0  0
   -5.7479    8.2732   11.6201 H   0  0  0  0  0  0  0  0  0  0  0  0
   -6.6087   10.5560   13.0577 H   0  0  0  0  0  0  0  0  0  0  0  0
   -4.2730   10.0758   10.6076 H   0  0  0  0  0  0  0  0  0  0  0  0
   -5.2456   11.3221   11.3718 H   0  0  0  0  0  0  0  0  0  0  0  0
   -3.2617   10.8037   12.8241 H   0  0  0  0  0  0  0  0  0  0  0  0
   -4.7173   10.5405   13.6742 H   0  0  0  0  0  0  0  0  0  0  0  0
   -3.3448    8.5449   14.0458 H   0  0  0  0  0  0  0  0  0  0  0  0
   -4.7093    8.0330   13.1975 H   0  0  0  0  0  0  0  0  0  0  0  0
   -2.7936    7.0810   12.0261 H   0  0  0  0  0  0  0  0  0  0  0  0
   -3.5254    8.1848   10.9448 H   0  0  0  0  0  0  0  0  0  0  0  0
   -1.1257    8.6826   10.9546 H   0  0  0  0  0  0  0  0  0  0  0  0
   -1.9308   10.0434   11.5933 H   0  0  0  0  0  0  0  0  0  0  0  0
   -0.0931    9.5356   13.1259 H   0  0  0  0  0  0  0  0  0  0  0  0
   -1.5385    9.2736   13.9900 H   0  0  0  0  0  0  0  0  0  0  0  0
   -0.1291    7.3131   14.3683 H   0  0  0  0  0  0  0  0  0  0  0  0
   -1.4972    6.7785   13.4953 H   0  0  0  0  0  0  0  0  0  0  0  0
    0.4688    5.8427   12.3793 H   0  0  0  0  0  0  0  0  0  0  0  0
   -0.2586    6.9336   11.2820 H   0  0  0  0  0  0  0  0  0  0  0  0
    2.1376    7.4311   11.3079 H   0  0  0  0  0  0  0  0  0  0  0  0
    1.3284    8.7994   11.9484 H   0  0  0  0  0  0  0  0  0  0  0  0
    3.1838    8.2918   13.4565 H   0  0  0  0  0  0  0  0  0  0  0  0
    1.7325    8.0272   14.3292 H   0  0  0  0  0  0  0  0  0  0  0  0
    3.1622    6.0907   14.7306 H   0  0  0  0  0  0  0  0  0  0  0  0
    1.7998    5.5394   13.8435 H   0  0  0  0  0  0  0  0  0  0  0  0
    3.8250    4.5871   12.8294 H   0  0  0  0  0  0  0  0  0  0  0  0
    3.0624    5.6373   11.6719 H   0  0  0  0  0  0  0  0  0  0  0  0
    5.4764    6.0774   11.6865 H   0  0  0  0  0  0  0  0  0  0  0  0
    4.6506    7.5032   12.2530 H   0  0  0  0  0  0  0  0  0  0  0  0
    5.9088    5.3756   14.0538 H   0  0  0  0  0  0  0  0  0  0  0  0
    6.5726    6.9990   13.7337 H   0  0  0  0  0  0  0  0  0  0  0  0
    5.0896    6.8249   14.6530 H   0  0  0  0  0  0  0  0  0  0  0  0
  1  2  1  0  0  0  0
  1 62  1  0  0  0  0
  1 63  1  0  0  0  0
  1 64  1  0  0  0  0
  2  3  1  0  0  0  0
  2 65  1  0  0  0  0
  2 66  1  0  0  0  0
  3  4  1  0  0  0  0
  3 67  1  0  0  0  0
  3 68  1  0  0  0  0
  4  5  1  0  0  0  0
  4 69  1  0  0  0  0
  4 70  1  0  0  0  0
  5  6  1  0  0  0  0
  5 71  1  0  0  0  0
  5 72  1  0  0  0  0
  6  7  1  0  0  0  0
  6 73  1  0  0  0  0
  6 74  1  0  0  0  0
  7  8  1  0  0  0  0
  7 75  1  0  0  0  0
  7 76  1  0  0  0  0
  8  9  1  0  0  0  0
  8 77  1  0  0  0  0
  8 78  1  0  0  0  0
  9 10  1  0  0  0  0
  9 79  1  0  0  0  0
  9 80  1  0  0  0  0
 10 11  1  0  0  0  0
 10 81  1  0  0  0  0
 10 82  1  0  0  0  0
 11 12  1  0  0  0  0
 11 83  1  0  0  0  0
 11 84  1  0  0  0  0
 12 13  1  0  0  0  0
 12 85  1  0  0  0  0
 12 86  1  0  0  0  0
 13 14  1  0  0  0  0
 13 87  1  0  0  0  0
 13 88  1  0  0  0  0
 14 15  1  0  0  0  0
 14 89  1  0  0  0  0
 14 90  1  0  0  0  0
 15 16  1  0  0  0  0
 15 91  1  0  0  0  0
 15 92  1  0  0  0  0
 16 17  1  0  0  0  0
 16 93  1  0  0  0  0
 16 94  1  0  0  0  0
 17 18  1  0  0  0  0
 17 95  1  0  0  0  0
 17 96  1  0  0  0  0
 18 19  1  0  0  0  0
 18 97  1  0  0  0  0
 18 98  1  0  0  0  0
 19 20  1  0  0  0  0
 19 99  1  0  0  0  0
 19100  1  0  0  0  0
 20 21  1  0  0  0  0
 20101  1  0  0  0  0
 20102  1  0  0  0  0
 21 22  1  0  0  0  0
 21103  1  0  0  0  0
 21104  1  0  0  0  0
 22 23  1  0  0  0  0
 22105  1  0  0  0  0
 22106  1  0  0  0  0
 23 24  1  0  0  0  0
 23107  1  0  0  0  0
 23108  1  0  0  0  0
 24 25  2  0  0  0  0
 24 26  1  0  0  0  0
 26109  1  0  0  0  0
 27 26  1  0  0  0  0
 27 28  1  0  0  0  0
 27110  1  6  0  0  0
 28 29  1  0  0  0  0
 28111  1  0  0  0  0
 28112  1  0  0  0  0
 30 29  1  0  0  0  0
 30 31  1  0  0  0  0
 30113  1  6  0  0  0
 32 31  1  0  0  0  0
 32 33  1  0  0  0  0
 32114  1  1  0  0  0
 33 34  1  0  0  0  0
 33115  1  0  0  0  0
 33116  1  0  0  0  0
 34 35  1  0  0  0  0
 34117  1  0  0  0  0
 35 36  1  0  0  0  0
 35 37  2  0  0  0  0
 36118  1  0  0  0  0
 36119  1  0  0  0  0
 36120  1  0  0  0  0
 38 32  1  0  0  0  0
 38 39  1  0  0  0  0
 38 40  1  0  0  0  0
 38121  1  1  0  0  0
 39122  1  0  0  0  0
 40 41  1  0  0  0  0
 40 42  1  0  0  0  0
 40123  1  1  0  0  0
 41124  1  0  0  0  0
 42 30  1  0  0  0  0
 42 43  1  0  0  0  0
 42125  1  6  0  0  0
 43126  1  0  0  0  0
 44127  1  6  0  0  0
 44 45  1  0  0  0  0
 44 27  1  0  0  0  0
 45128  1  0  0  0  0
 46 48  1  0  0  0  0
 46129  1  1  0  0  0
 46 47  1  0  0  0  0
 46 44  1  0  0  0  0
 47130  1  0  0  0  0
 48 49  1  0  0  0  0
 48131  1  0  0  0  0
 48132  1  0  0  0  0
 49 50  1  0  0  0  0
 49133  1  0  0  0  0
 49134  1  0  0  0  0
 50 51  1  0  0  0  0
 50135  1  0  0  0  0
 50136  1  0  0  0  0
 51 52  1  0  0  0  0
 51137  1  0  0  0  0
 51138  1  0  0  0  0
 52 53  1  0  0  0  0
 52139  1  0  0  0  0
 52140  1  0  0  0  0
 53 54  1  0  0  0  0
 53141  1  0  0  0  0
 53142  1  0  0  0  0
 54 55  1  0  0  0  0
 54143  1  0  0  0  0
 54144  1  0  0  0  0
 55 56  1  0  0  0  0
 55145  1  0  0  0  0
 55146  1  0  0  0  0
 56 57  1  0  0  0  0
 56147  1  0  0  0  0
 56148  1  0  0  0  0
 57 58  1  0  0  0  0
 57149  1  0  0  0  0
 57150  1  0  0  0  0
 58 59  1  0  0  0  0
 58151  1  0  0  0  0
 58152  1  0  0  0  0
 59 60  1  0  0  0  0
 59153  1  0  0  0  0
 59154  1  0  0  0  0
 60 61  1  0  0  0  0
 60155  1  0  0  0  0
 60156  1  0  0  0  0
 61157  1  0  0  0  0
 61158  1  0  0  0  0
 61159  1  0  0  0  0
M  END
>  <DRUGBANK_ID>
DB16339

>  <COMMON_NAME>
ABX-196

>  <CAS_NUMBER>
1161877-58-2

>  <UNII>
SOI87F7GN2

$$$$
