
 OpenBabel10282417243D

 70 73  0  0  0  0  0  0  0  0999 V2000
    0.9686   -0.0423    0.0393 C   0  0  0  0  0  0  0  0  0  0  0  0
    0.3641    0.4246   -1.1727 O   0  0  0  0  0  0  0  0  0  0  0  0
    0.7862    1.6760   -1.5572 C   0  0  0  0  0  0  0  0  0  0  0  0
    2.1373    2.0180   -1.5008 C   0  0  0  0  0  0  0  0  0  0  0  0
    2.6689    3.2316   -1.9515 C   0  0  0  0  0  0  0  0  0  0  0  0
    1.7619    4.1675   -2.4119 C   0  0  0  0  0  0  0  0  0  0  0  0
    0.4096    3.8207   -2.5352 C   0  0  0  0  0  0  0  0  0  0  0  0
   -0.1147    2.5889   -2.0995 C   0  0  0  0  0  0  0  0  0  0  0  0
   -1.4780    2.2614   -2.2959 N   0  0  0  0  0  0  0  0  0  0  0  0
   -2.4211    3.1607   -2.7979 C   0  0  0  0  0  0  0  0  0  0  0  0
   -3.3232    3.7489   -2.0030 N   0  0  0  0  0  0  0  0  0  0  0  0
   -4.1236    4.6834   -2.5828 C   0  0  0  0  0  0  0  0  0  0  0  0
   -4.0843    5.0334   -3.9152 C   0  0  0  0  0  0  0  0  0  0  0  0
   -3.1307    4.3871   -4.6517 C   0  0  0  0  0  0  0  0  0  0  0  0
   -2.9835    4.6015   -6.1368 C   0  0  0  0  0  0  0  0  0  0  0  0
   -1.5726    5.0321   -6.5768 C   0  0  0  0  0  0  0  0  0  0  0  0
   -0.4766    4.0381   -6.2732 C   0  0  0  0  0  0  0  0  0  0  0  0
    0.7282    4.4966   -5.7360 C   0  0  0  0  0  0  0  0  0  0  0  0
    1.6956    3.5831   -5.3194 C   0  0  0  0  0  0  0  0  0  0  0  0
    1.3947    2.2261   -5.2478 C   0  0  0  0  0  0  0  0  0  0  0  0
    0.2031    1.7639   -5.7761 C   0  0  0  0  0  0  0  0  0  0  0  0
   -0.6543    2.6512   -6.4370 C   0  0  0  0  0  0  0  0  0  0  0  0
   -1.7220    2.0756   -7.3236 C   0  0  0  0  0  0  0  0  0  0  0  0
   -1.1229    1.2714   -8.4424 C   0  0  0  0  0  0  0  0  0  0  0  0
   -1.5402   -0.0153   -8.5323 N   0  0  0  0  0  0  0  0  0  0  0  0
   -0.3263    1.7357   -9.2643 O   0  0  0  0  0  0  0  0  0  0  0  0
   -2.3385    3.4490   -4.1009 N   0  0  0  0  0  0  0  0  0  0  0  0
   -5.0130    5.9964   -4.5559 C   0  0  0  0  0  0  0  0  0  0  0  0
   -4.3567    7.0279   -5.1595 F   0  0  0  0  0  0  0  0  0  0  0  0
   -5.7608    5.4114   -5.5362 F   0  0  0  0  0  0  0  0  0  0  0  0
   -5.9001    6.5659   -3.7029 F   0  0  0  0  0  0  0  0  0  0  0  0
    4.1637    3.5174   -1.9967 C   0  0  0  0  0  0  0  0  0  0  0  0
    4.9949    2.4475   -2.7298 C   0  0  0  0  0  0  0  0  0  0  0  0
    5.1415    1.1484   -1.9388 C   0  0  0  0  0  0  0  0  0  0  0  0
    5.5680    1.3786   -0.5490 N   0  0  0  0  0  0  0  0  0  0  0  0
    5.5276    0.1230    0.1981 C   0  0  0  0  0  0  0  0  0  0  0  0
    4.8142    2.4130    0.1793 C   0  0  0  0  0  0  0  0  0  0  0  0
    4.7266    3.7269   -0.5921 C   0  0  0  0  0  0  0  0  0  0  0  0
    0.5947   -1.0481    0.2459 H   0  0  0  0  0  0  0  0  0  0  0  0
    0.6884    0.6180    0.8648 H   0  0  0  0  0  0  0  0  0  0  0  0
    2.0589   -0.1408   -0.0073 H   0  0  0  0  0  0  0  0  0  0  0  0
    2.7956    1.2780   -1.0978 H   0  0  0  0  0  0  0  0  0  0  0  0
    2.1010    5.1165   -2.8222 H   0  0  0  0  0  0  0  0  0  0  0  0
   -0.2193    4.5046   -3.0970 H   0  0  0  0  0  0  0  0  0  0  0  0
   -1.8348    1.6616   -1.5680 H   0  0  0  0  0  0  0  0  0  0  0  0
   -4.8320    5.1598   -1.9091 H   0  0  0  0  0  0  0  0  0  0  0  0
   -3.3517    3.6812   -6.5863 H   0  0  0  0  0  0  0  0  0  0  0  0
   -3.6705    5.3507   -6.5320 H   0  0  0  0  0  0  0  0  0  0  0  0
   -1.5600    5.2365   -7.6531 H   0  0  0  0  0  0  0  0  0  0  0  0
   -1.3565    5.9866   -6.0745 H   0  0  0  0  0  0  0  0  0  0  0  0
    0.8921    5.5576   -5.5593 H   0  0  0  0  0  0  0  0  0  0  0  0
    2.6215    3.9430   -4.8835 H   0  0  0  0  0  0  0  0  0  0  0  0
    2.0630    1.5400   -4.7375 H   0  0  0  0  0  0  0  0  0  0  0  0
   -0.0538    0.7122   -5.6828 H   0  0  0  0  0  0  0  0  0  0  0  0
   -2.4522    1.5102   -6.7321 H   0  0  0  0  0  0  0  0  0  0  0  0
   -2.2557    2.8526   -7.8760 H   0  0  0  0  0  0  0  0  0  0  0  0
   -1.1318   -0.5729   -9.2682 H   0  0  0  0  0  0  0  0  0  0  0  0
   -2.1858   -0.4348   -7.8781 H   0  0  0  0  0  0  0  0  0  0  0  0
    4.3083    4.4549   -2.5546 H   0  0  0  0  0  0  0  0  0  0  0  0
    6.0047    2.8450   -2.9042 H   0  0  0  0  0  0  0  0  0  0  0  0
    4.5704    2.2387   -3.7197 H   0  0  0  0  0  0  0  0  0  0  0  0
    5.8690    0.5067   -2.4495 H   0  0  0  0  0  0  0  0  0  0  0  0
    4.2224    0.5606   -2.0036 H   0  0  0  0  0  0  0  0  0  0  0  0
    5.9449    0.2624    1.2001 H   0  0  0  0  0  0  0  0  0  0  0  0
    4.5041   -0.2566    0.3009 H   0  0  0  0  0  0  0  0  0  0  0  0
    6.1292   -0.6424   -0.3014 H   0  0  0  0  0  0  0  0  0  0  0  0
    3.8094    2.0722    0.4489 H   0  0  0  0  0  0  0  0  0  0  0  0
    5.2958    2.6147    1.1426 H   0  0  0  0  0  0  0  0  0  0  0  0
    5.7315    4.1625   -0.6660 H   0  0  0  0  0  0  0  0  0  0  0  0
    4.1109    4.4485   -0.0404 H   0  0  0  0  0  0  0  0  0  0  0  0
  1  2  1  0  0  0  0
  1 39  1  0  0  0  0
  1 40  1  0  0  0  0
  1 41  1  0  0  0  0
  2  3  1  0  0  0  0
  3  4  2  0  0  0  0
  3  8  1  0  0  0  0
  4  5  1  0  0  0  0
  4 42  1  0  0  0  0
  5  6  2  0  0  0  0
  5 32  1  0  0  0  0
  6  7  1  0  0  0  0
  6 43  1  0  0  0  0
  7  8  2  0  0  0  0
  7 44  1  0  0  0  0
  8  9  1  0  0  0  0
  9 10  1  0  0  0  0
  9 45  1  0  0  0  0
 10 11  2  0  0  0  0
 10 27  1  0  0  0  0
 11 12  1  0  0  0  0
 12 13  2  0  0  0  0
 12 46  1  0  0  0  0
 13 14  1  0  0  0  0
 13 28  1  0  0  0  0
 14 15  1  0  0  0  0
 14 27  2  0  0  0  0
 15 16  1  0  0  0  0
 15 47  1  0  0  0  0
 15 48  1  0  0  0  0
 16 17  1  0  0  0  0
 16 49  1  0  0  0  0
 16 50  1  0  0  0  0
 17 18  2  0  0  0  0
 17 22  1  0  0  0  0
 18 19  1  0  0  0  0
 18 51  1  0  0  0  0
 19 20  2  0  0  0  0
 19 52  1  0  0  0  0
 20 21  1  0  0  0  0
 20 53  1  0  0  0  0
 21 22  2  0  0  0  0
 21 54  1  0  0  0  0
 22 23  1  0  0  0  0
 23 24  1  0  0  0  0
 23 55  1  0  0  0  0
 23 56  1  0  0  0  0
 24 25  1  0  0  0  0
 24 26  2  0  0  0  0
 25 57  1  0  0  0  0
 25 58  1  0  0  0  0
 28 29  1  0  0  0  0
 28 30  1  0  0  0  0
 28 31  1  0  0  0  0
 32 33  1  0  0  0  0
 32 38  1  0  0  0  0
 32 59  1  0  0  0  0
 33 34  1  0  0  0  0
 33 60  1  0  0  0  0
 33 61  1  0  0  0  0
 34 35  1  0  0  0  0
 34 62  1  0  0  0  0
 34 63  1  0  0  0  0
 35 36  1  0  0  0  0
 35 37  1  0  0  0  0
 36 64  1  0  0  0  0
 36 65  1  0  0  0  0
 36 66  1  0  0  0  0
 37 38  1  0  0  0  0
 37 67  1  0  0  0  0
 37 68  1  0  0  0  0
 38 69  1  0  0  0  0
 38 70  1  0  0  0  0
M  END
>  <DRUGBANK_ID>
DB18463

>  <COMMON_NAME>
Narmafotinib

>  <CAS_NUMBER>
1393653-34-3

>  <UNII>
16T7U12J7U

>  <SYNONYMS>
2-(2-(2-((2-methoxy-4-(1-methyl-4-piperidinyl)phenyl)amino)-5-(trifluoromethyl)-4-pyrimidinyl)ethyl)benzeneacetamide; Benzeneacetamide, 2-(2-(2-((2-methoxy-4-(1-methyl-4-piperidinyl)phenyl)amino)-5-(trifluoromethyl)-4-pyrimidinyl)ethyl)-

$$$$
