142
 OpenBabel10282417103D

 19 18  0  0  1  0  0  0  0  0999 V2000
    0.9178    0.0425   -0.0826 O   0  0  0  0  0  0  0  0  0  0  0  0
   -2.5320    4.3555    1.8062 O   0  0  0  0  0  0  0  0  0  0  0  0
    1.0507    2.0208   -1.0966 O   0  0  0  0  0  0  0  0  0  0  0  0
   -1.4393    3.9796   -0.1101 O   0  0  0  0  0  0  0  0  0  0  0  0
   -1.7000   -0.0654   -1.3964 N   0  0  0  0  0  0  0  0  0  0  0  0
   -1.7239    1.0889    0.7990 C   0  0  0  0  0  0  0  0  0  0  0  0
   -1.1855    1.0982   -0.6419 C   0  0  1  0  0  0  0  0  0  0  0  0
   -1.2712    2.3021    1.6222 C   0  0  0  0  0  0  0  0  0  0  0  0
    0.3475    1.1230   -0.6555 C   0  0  0  0  0  0  0  0  0  0  0  0
   -1.7385    3.6086    1.0165 C   0  0  0  0  0  0  0  0  0  0  0  0
    1.8798    0.1925   -0.1833 H   0  0  0  0  0  0  0  0  0  0  0  0
   -2.7008    4.0047    2.6984 H   0  0  0  0  0  0  0  0  0  0  0  0
   -2.7173   -0.0049   -1.4293 H   0  0  0  0  0  0  0  0  0  0  0  0
   -1.3942    0.0382   -2.3661 H   0  0  0  0  0  0  0  0  0  0  0  0
   -2.8213    1.0545    0.7858 H   0  0  0  0  0  0  0  0  0  0  0  0
   -1.3920    0.1749    1.3125 H   0  0  0  0  0  0  0  0  0  0  0  0
   -1.5445    1.9755   -1.1828 H   0  0  0  0  0  0  0  0  0  0  0  0
   -1.6449    2.2025    2.6475 H   0  0  0  0  0  0  0  0  0  0  0  0
   -0.1785    2.3354    1.6997 H   0  0  0  0  0  0  0  0  0  0  0  0
  1  9  1  0  0  0  0
  1 11  1  0  0  0  0
  2 10  1  0  0  0  0
  2 12  1  0  0  0  0
  3  9  2  0  0  0  0
  4 10  2  0  0  0  0
  5 13  1  0  0  0  0
  5 14  1  0  0  0  0
  6  7  1  0  0  0  0
  6  8  1  0  0  0  0
  6 15  1  0  0  0  0
  6 16  1  0  0  0  0
  7  5  1  0  0  0  0
  7  9  1  0  0  0  0
  7 17  1  6  0  0  0
  8 10  1  0  0  0  0
  8 18  1  0  0  0  0
  8 19  1  0  0  0  0
M  END
>  <DRUGBANK_ID>
DB00142

>  <SECONDARY_ACCESSION_NUMBERS>
NUTR00027

>  <COMMON_NAME>
Glutamic acid

>  <CAS_NUMBER>
56-86-0

>  <UNII>
3KX376GY7L

>  <SYNONYMS>
(2S)-2-Aminopentanedioic acid; (S)-2-Aminopentanedioic acid; (S)-Glutamic acid; ácido glutámico; Glu; Glutamic acid; L-Glutamate; L-Glutamic acid; L-Glutaminic acid

$$$$
