
 OpenBabel10282417243D

 34 36  0  0  1  0  0  0  0  0999 V2000
   -1.1790   -7.9743   -2.5207 C   0  0  0  0  0  0  0  0  0  0  0  0
    0.0483   -7.6851   -1.7090 C   0  0  0  0  0  0  0  0  0  0  0  0
    0.1643   -6.7147   -0.7770 C   0  0  0  0  0  0  0  0  0  0  0  0
    1.3797   -6.3928   -0.1416 N   0  0  0  0  0  0  0  0  0  0  0  0
    1.4858   -5.0596    0.5674 C   0  0  1  0  0  0  0  0  0  0  0  0
    0.5200   -4.8114    1.7568 C   0  0  0  0  0  0  0  0  0  0  0  0
    1.0110   -3.4622    2.3325 C   0  0  2  0  0  0  0  0  0  0  0  0
    0.6534   -2.3587    1.5129 O   0  0  0  0  0  0  0  0  0  0  0  0
    2.5147   -3.6026    2.3744 C   0  0  2  0  0  0  0  0  0  0  0  0
    3.1018   -3.0817    3.6759 C   0  0  0  0  0  0  0  0  0  0  0  0
    2.9924   -4.0250    4.7284 O   0  0  0  0  0  0  0  0  0  0  0  0
    3.4254   -3.3452    1.2022 C   0  0  0  0  0  0  0  0  0  0  0  0
    2.8129   -4.6940    1.2779 C   0  0  2  0  0  0  0  0  0  0  0  0
    2.5151   -7.1428   -0.4818 C   0  0  0  0  0  0  0  0  0  0  0  0
    3.6864   -6.8946   -0.2343 O   0  0  0  0  0  0  0  0  0  0  0  0
    2.3018   -8.2826   -1.2022 N   0  0  0  0  0  0  0  0  0  0  0  0
    1.2351   -8.5128   -1.9936 C   0  0  0  0  0  0  0  0  0  0  0  0
    1.2681   -9.3603   -2.8951 O   0  0  0  0  0  0  0  0  0  0  0  0
   -1.9934   -8.3271   -1.8834 H   0  0  0  0  0  0  0  0  0  0  0  0
   -1.0092   -8.7472   -3.2814 H   0  0  0  0  0  0  0  0  0  0  0  0
   -1.5013   -7.0797   -3.0631 H   0  0  0  0  0  0  0  0  0  0  0  0
   -0.7017   -6.1060   -0.5292 H   0  0  0  0  0  0  0  0  0  0  0  0
    1.2570   -4.3132   -0.2080 H   0  0  0  0  0  0  0  0  0  0  0  0
   -0.5391   -4.7777    1.4969 H   0  0  0  0  0  0  0  0  0  0  0  0
    0.6789   -5.5964    2.5120 H   0  0  0  0  0  0  0  0  0  0  0  0
    0.5807   -3.2876    3.3244 H   0  0  0  0  0  0  0  0  0  0  0  0
    1.1724   -2.3956    0.6929 H   0  0  0  0  0  0  0  0  0  0  0  0
    4.1395   -2.7355    3.6138 H   0  0  0  0  0  0  0  0  0  0  0  0
    2.5329   -2.1857    3.9770 H   0  0  0  0  0  0  0  0  0  0  0  0
    2.0489   -4.1521    4.9190 H   0  0  0  0  0  0  0  0  0  0  0  0
    3.1739   -2.6892    0.3917 H   0  0  0  0  0  0  0  0  0  0  0  0
    4.5065   -3.3951    1.3783 H   0  0  0  0  0  0  0  0  0  0  0  0
    3.6401   -5.3164    1.0120 H   0  0  0  0  0  0  0  0  0  0  0  0
    3.1477   -8.7796   -1.4365 H   0  0  0  0  0  0  0  0  0  0  0  0
  1  2  1  0  0  0  0
  1 19  1  0  0  0  0
  1 20  1  0  0  0  0
  1 21  1  0  0  0  0
  2  3  2  0  0  0  0
  2 17  1  0  0  0  0
  3  4  1  0  0  0  0
  3 22  1  0  0  0  0
  4 14  1  0  0  0  0
  5  6  1  0  0  0  0
  5 23  1  6  0  0  0
  5  4  1  0  0  0  0
  6 24  1  0  0  0  0
  6 25  1  0  0  0  0
  7  6  1  0  0  0  0
  7  8  1  0  0  0  0
  7 26  1  1  0  0  0
  8 27  1  0  0  0  0
  9  7  1  0  0  0  0
  9 10  1  1  0  0  0
  9 12  1  0  0  0  0
  9 13  1  0  0  0  0
 10 11  1  0  0  0  0
 10 28  1  0  0  0  0
 10 29  1  0  0  0  0
 11 30  1  0  0  0  0
 12 31  1  0  0  0  0
 12 32  1  0  0  0  0
 13 12  1  0  0  0  0
 13  5  1  0  0  0  0
 13 33  1  1  0  0  0
 14 15  2  0  0  0  0
 14 16  1  0  0  0  0
 16 17  1  0  0  0  0
 16 34  1  0  0  0  0
 17 18  2  0  0  0  0
M  END
>  <DRUGBANK_ID>
DB17805

>  <COMMON_NAME>
North-methanocarbathymidine

>  <CAS_NUMBER>
156126-12-4

>  <UNII>
LTM5S02010

>  <SYNONYMS>
(north)-methanocarbathymidine; 1-((1s,2s,4s,5r)-4-hydroxy-5-(hydroxymethyl)bicyclo(3.1.0)hex-2-yl)-5-methyl-2,4(1h,3h)-pyrimidinedione; 2,4(1h,3h)-pyrimidinedione, 1-((1s,2s,4s,5r)-4-hydroxy-5-(hydroxymethyl)bicyclo(3.1.0)hex-2-yl)-5-methyl-; 2,4(1h,3h)-pyrimidinedione, 1-(4-hydroxy-5-(hydroxymethyl)bicyclo(3.1.0)hex-2-yl)-5-methyl-, (1s-(1.alpha.,2.alpha.,4.beta.,5.alpha.))-; N-methanocarbathymidine

$$$$
