
 OpenBabel10282417123D

 50 51  0  0  1  0  0  0  0  0999 V2000
    1.1805    0.9135   -0.2289 C   0  0  1  0  0  0  0  0  0  0  0  0
    1.2508    1.1864   -1.6252 O   0  0  0  0  0  0  0  0  0  0  0  0
   -0.0253    0.8186    0.5092 O   0  0  0  0  0  0  0  0  0  0  0  0
    1.3961   -0.4438    0.2018 C   0  0  1  0  0  0  0  0  0  0  0  0
    1.1567    2.5794   -1.9087 C   0  0  1  0  0  0  0  0  0  0  0  0
   -1.2589    0.6485   -0.2759 C   0  0  1  0  0  0  0  0  0  0  0  0
    0.0693   -1.2009   -0.2510 C   0  0  2  0  0  0  0  0  0  0  0  0
    2.5936   -0.8269   -0.3998 O   0  0  0  0  0  0  0  0  0  0  0  0
   -0.0825    2.9308   -1.2844 O   0  0  0  0  0  0  0  0  0  0  0  0
    2.3922    3.4695   -1.5491 C   0  0  1  0  0  0  0  0  0  0  0  0
   -1.3291   -0.6693    0.2362 C   0  0  2  0  0  0  0  0  0  0  0  0
   -2.4731    1.4823    0.2044 C   0  0  0  0  0  0  0  0  0  0  0  0
    0.1452   -2.4350    0.3674 O   0  0  0  0  0  0  0  0  0  0  0  0
   -0.4347    2.5266    0.4638 C   0  0  1  0  0  0  0  0  0  0  0  0
    2.6507    3.4640   -0.0653 C   0  0  2  0  0  0  0  0  0  0  0  0
    3.5486    2.8979   -2.1353 O   0  0  0  0  0  0  0  0  0  0  0  0
   -2.4905   -1.1637   -0.3566 O   0  0  0  0  0  0  0  0  0  0  0  0
   -2.4677    3.4299   -0.0578 O   0  0  0  0  0  0  0  0  0  0  0  0
    1.3092    3.4740    0.6076 C   0  0  2  0  0  0  0  0  0  0  0  0
   -2.3869    2.9606    1.5709 C   0  0  0  0  0  0  0  0  0  0  0  0
    3.5528    4.5420    0.3304 O   0  0  0  0  0  0  0  0  0  0  0  0
   -1.0590    4.2042    0.5817 P   0  0  0  0  0  0  0  0  0  0  0  0
    1.7015    3.4825    2.0069 O   0  0  0  0  0  0  0  0  0  0  0  0
   -3.9932    2.7796    0.5613 O   0  0  0  0  0  0  0  0  0  0  0  0
   -0.6434    3.3883    2.2372 O   0  0  0  0  0  0  0  0  0  0  0  0
   -0.7663    4.7920   -0.8663 O   0  0  0  0  0  0  0  0  0  0  0  0
    0.2017    4.8973    1.1541 O   0  0  0  0  0  0  0  0  0  0  0  0
    1.9304    1.4638    0.2877 H   0  0  0  0  0  0  0  0  0  0  0  0
    1.4851   -0.3541    1.3126 H   0  0  0  0  0  0  0  0  0  0  0  0
    1.0727    2.7376   -3.0226 H   0  0  0  0  0  0  0  0  0  0  0  0
   -1.2237    0.8881   -1.3500 H   0  0  0  0  0  0  0  0  0  0  0  0
    0.0442   -1.1336   -1.3493 H   0  0  0  0  0  0  0  0  0  0  0  0
    2.4406   -0.6272   -1.3429 H   0  0  0  0  0  0  0  0  0  0  0  0
    2.2645    4.5129   -1.9267 H   0  0  0  0  0  0  0  0  0  0  0  0
   -1.3981   -0.5310    1.3443 H   0  0  0  0  0  0  0  0  0  0  0  0
   -3.4298    1.0457   -0.0978 H   0  0  0  0  0  0  0  0  0  0  0  0
   -2.5569    1.2177    1.3464 H   0  0  0  0  0  0  0  0  0  0  0  0
    0.1379   -2.1813    1.3146 H   0  0  0  0  0  0  0  0  0  0  0  0
   -0.9864    2.3684   -0.4577 H   0  0  0  0  0  0  0  0  0  0  0  0
    3.1548    2.6490    0.4064 H   0  0  0  0  0  0  0  0  0  0  0  0
    3.5846    2.0167   -1.7188 H   0  0  0  0  0  0  0  0  0  0  0  0
   -2.4557   -0.8849   -1.2924 H   0  0  0  0  0  0  0  0  0  0  0  0
    1.3198    4.5843   -0.0048 H   0  0  0  0  0  0  0  0  0  0  0  0
   -2.6150    3.7782    2.3237 H   0  0  0  0  0  0  0  0  0  0  0  0
   -2.8702    4.2339    1.3153 H   0  0  0  0  0  0  0  0  0  0  0  0
    3.1810    5.4116    0.1065 H   0  0  0  0  0  0  0  0  0  0  0  0
    0.9316    3.0479    2.4137 H   0  0  0  0  0  0  0  0  0  0  0  0
   -3.6168    2.9613   -0.4659 H   0  0  0  0  0  0  0  0  0  0  0  0
   -1.1303    3.7860    3.0033 H   0  0  0  0  0  0  0  0  0  0  0  0
   -0.8943    3.9927   -1.4447 H   0  0  0  0  0  0  0  0  0  0  0  0
  1  3  1  0  0  0  0
  1  4  1  0  0  0  0
  1 28  1  1  0  0  0
  1  2  1  0  0  0  0
  3  6  1  0  0  0  0
  4  7  1  0  0  0  0
  4  8  1  0  0  0  0
  4 29  1  1  0  0  0
  5  2  1  0  0  0  0
  5  9  1  0  0  0  0
  5 10  1  0  0  0  0
  5 30  1  6  0  0  0
  6 11  1  0  0  0  0
  6 12  1  0  0  0  0
  6 31  1  6  0  0  0
  7 13  1  0  0  0  0
  7 11  1  0  0  0  0
  7 32  1  6  0  0  0
  8 33  1  0  0  0  0
  9 14  1  0  0  0  0
 10 15  1  0  0  0  0
 10 16  1  0  0  0  0
 10 34  1  6  0  0  0
 11 17  1  0  0  0  0
 11 35  1  1  0  0  0
 12 18  1  0  0  0  0
 12 36  1  0  0  0  0
 12 37  1  0  0  0  0
 13 38  1  0  0  0  0
 14 19  1  0  0  0  0
 14 20  1  0  0  0  0
 14 39  1  1  0  0  0
 15 21  1  0  0  0  0
 15 19  1  0  0  0  0
 15 40  1  1  0  0  0
 16 41  1  0  0  0  0
 17 42  1  0  0  0  0
 18 22  1  0  0  0  0
 19 23  1  0  0  0  0
 19 43  1  6  0  0  0
 20 24  1  0  0  0  0
 20 44  1  0  0  0  0
 20 45  1  0  0  0  0
 21 46  1  0  0  0  0
 22 25  1  0  0  0  0
 22 26  1  0  0  0  0
 22 27  2  0  0  0  0
 23 47  1  0  0  0  0
 24 48  1  0  0  0  0
 25 49  1  0  0  0  0
 26 50  1  0  0  0  0
M  END
>  <DRUGBANK_ID>
DB02430

>  <SECONDARY_ACCESSION_NUMBERS>
EXPT02998

>  <COMMON_NAME>
Trehalose-6-Phosphate

>  <CAS_NUMBER>
4484-88-2

$$$$
