SC3
 OpenBabel10282417173D

 49 52  0  0  0  0  0  0  0  0999 V2000
    1.9526    0.9386    0.0235 N   0  0  0  0  0  0  0  0  0  0  0  0
    2.1595   -0.4348    0.0193 C   0  0  0  0  0  0  0  0  0  0  0  0
    1.0285   -1.2524    0.0076 N   0  0  0  0  0  0  0  0  0  0  0  0
   -0.2513   -0.7157    0.0050 C   0  0  0  0  0  0  0  0  0  0  0  0
   -0.4698    0.6334   -0.0561 C   0  0  0  0  0  0  0  0  0  0  0  0
    0.6894    1.5292   -0.1648 C   0  0  0  0  0  0  0  0  0  0  0  0
   -1.8918    0.7503   -0.0046 N   0  0  0  0  0  0  0  0  0  0  0  0
   -2.4346   -0.5955   -0.0105 C   0  0  0  0  0  0  0  0  0  0  0  0
   -1.4197   -1.4461    0.0292 N   0  0  0  0  0  0  0  0  0  0  0  0
   -3.7769   -1.0028    0.1024 N   0  0  0  0  0  0  0  0  0  0  0  0
   -4.1323   -2.0467    1.1236 C   0  0  0  0  0  0  0  0  0  0  0  0
   -4.5985   -3.4242    0.5643 C   0  0  0  0  0  0  0  0  0  0  0  0
   -5.7149   -3.2504   -0.4317 N   0  3  0  0  0  0  0  0  0  0  0  0
   -5.2659   -2.3401   -1.5455 C   0  0  0  0  0  0  0  0  0  0  0  0
   -4.7702   -0.9480   -1.0088 C   0  0  0  0  0  0  0  0  0  0  0  0
   -2.6664    2.0198    0.0379 C   0  0  0  0  0  0  0  0  0  0  0  0
   -2.4884    2.8655    1.2964 C   0  0  0  0  0  0  0  0  0  0  0  0
   -1.2897    3.5352    1.5639 C   0  0  0  0  0  0  0  0  0  0  0  0
   -1.0016    4.1405    2.7847 C   0  0  0  0  0  0  0  0  0  0  0  0
   -1.9934    4.2286    3.7394 C   0  0  0  0  0  0  0  0  0  0  0  0
   -3.2649    3.7429    3.4377 C   0  0  0  0  0  0  0  0  0  0  0  0
   -3.5139    3.0664    2.2279 C   0  0  0  0  0  0  0  0  0  0  0  0
    0.6296    2.7187   -0.4948 O   0  0  0  0  0  0  0  0  0  0  0  0
    3.1580    1.7899    0.0028 C   0  0  0  0  0  0  0  0  0  0  0  0
    3.2993   -0.9098    0.0065 O   0  0  0  0  0  0  0  0  0  0  0  0
    1.2413   -2.6821    0.0001 C   0  0  0  0  0  0  0  0  0  0  0  0
   -4.9898   -1.6454    1.6815 H   0  0  0  0  0  0  0  0  0  0  0  0
   -3.3302   -2.2099    1.8483 H   0  0  0  0  0  0  0  0  0  0  0  0
   -3.8054   -3.9715    0.0469 H   0  0  0  0  0  0  0  0  0  0  0  0
   -5.0101   -4.0638    1.3560 H   0  0  0  0  0  0  0  0  0  0  0  0
   -5.9883   -4.1711   -0.8123 H   0  0  0  0  0  0  0  0  0  0  0  0
   -6.5624   -2.8875    0.0284 H   0  0  0  0  0  0  0  0  0  0  0  0
   -6.1391   -2.2319   -2.2015 H   0  0  0  0  0  0  0  0  0  0  0  0
   -4.4864   -2.8856   -2.0852 H   0  0  0  0  0  0  0  0  0  0  0  0
   -5.6647   -0.4584   -0.5986 H   0  0  0  0  0  0  0  0  0  0  0  0
   -4.4232   -0.3456   -1.8510 H   0  0  0  0  0  0  0  0  0  0  0  0
   -2.4024    2.6012   -0.8555 H   0  0  0  0  0  0  0  0  0  0  0  0
   -3.7253    1.7526   -0.0666 H   0  0  0  0  0  0  0  0  0  0  0  0
   -0.5396    3.6485    0.8069 H   0  0  0  0  0  0  0  0  0  0  0  0
   -0.0075    4.5464    2.9608 H   0  0  0  0  0  0  0  0  0  0  0  0
   -1.7820    4.7074    4.6914 H   0  0  0  0  0  0  0  0  0  0  0  0
   -4.0629    3.8826    4.1622 H   0  0  0  0  0  0  0  0  0  0  0  0
   -4.5251    2.7213    2.0304 H   0  0  0  0  0  0  0  0  0  0  0  0
    3.1660    2.4248   -0.8894 H   0  0  0  0  0  0  0  0  0  0  0  0
    3.1630    2.4381    0.8863 H   0  0  0  0  0  0  0  0  0  0  0  0
    4.0979    1.2210    0.0095 H   0  0  0  0  0  0  0  0  0  0  0  0
    0.7902   -3.1093    0.8977 H   0  0  0  0  0  0  0  0  0  0  0  0
    0.7903   -3.0994   -0.9030 H   0  0  0  0  0  0  0  0  0  0  0  0
    2.3048   -2.9425   -0.0030 H   0  0  0  0  0  0  0  0  0  0  0  0
  1  2  1  0  0  0  0
  1  6  1  0  0  0  0
  1 24  1  0  0  0  0
  2  3  1  0  0  0  0
  2 25  2  0  0  0  0
  3  4  1  0  0  0  0
  3 26  1  0  0  0  0
  4  5  2  0  0  0  0
  4  9  1  0  0  0  0
  5  6  1  0  0  0  0
  5  7  1  0  0  0  0
  6 23  2  0  0  0  0
  7  8  1  0  0  0  0
  7 16  1  0  0  0  0
  8  9  2  0  0  0  0
  8 10  1  0  0  0  0
 10 11  1  0  0  0  0
 10 15  1  0  0  0  0
 11 12  1  0  0  0  0
 11 27  1  0  0  0  0
 11 28  1  0  0  0  0
 12 13  1  0  0  0  0
 12 29  1  0  0  0  0
 12 30  1  0  0  0  0
 13 14  1  0  0  0  0
 13 31  1  0  0  0  0
 13 32  1  0  0  0  0
 14 15  1  0  0  0  0
 14 33  1  0  0  0  0
 14 34  1  0  0  0  0
 15 35  1  0  0  0  0
 15 36  1  0  0  0  0
 16 17  1  0  0  0  0
 16 37  1  0  0  0  0
 16 38  1  0  0  0  0
 17 18  1  0  0  0  0
 17 22  2  0  0  0  0
 18 19  2  0  0  0  0
 18 39  1  0  0  0  0
 19 20  1  0  0  0  0
 19 40  1  0  0  0  0
 20 21  2  0  0  0  0
 20 41  1  0  0  0  0
 21 22  1  0  0  0  0
 21 42  1  0  0  0  0
 22 43  1  0  0  0  0
 24 44  1  0  0  0  0
 24 45  1  0  0  0  0
 24 46  1  0  0  0  0
 26 47  1  0  0  0  0
 26 48  1  0  0  0  0
 26 49  1  0  0  0  0
M  CHG  1  13   1
M  END
>  <DRUGBANK_ID>
DB08530

>  <COMMON_NAME>
7-BENZYL-1,3-DIMETHYL-8-PIPERAZIN-1-YL-3,7-DIHYDRO-PURINE-2,6-DIONE

$$$$
