
 OpenBabel10282417103D

 32 32  0  0  1  0  0  0  0  0999 V2000
    0.0046   -2.8622    2.3064 C   0  0  0  0  0  0  0  0  0  0  0  0
    0.6357   -3.4468    1.2021 C   0  0  0  0  0  0  0  0  0  0  0  0
    0.8782   -4.8340    1.2116 C   0  0  0  0  0  0  0  0  0  0  0  0
   -0.3613   -3.6250    3.4032 C   0  0  0  0  0  0  0  0  0  0  0  0
    0.5410   -5.6056    2.3171 C   0  0  0  0  0  0  0  0  0  0  0  0
   -0.0220   -4.9768    3.4317 C   0  0  0  0  0  0  0  0  0  0  0  0
    1.0227   -2.6495   -0.0216 C   0  0  2  0  0  0  0  0  0  0  0  0
    0.3244   -1.2534   -0.1500 C   0  0  2  0  0  0  0  0  0  0  0  0
    0.5924   -3.4856   -1.1236 O   0  0  0  0  0  0  0  0  0  0  0  0
    0.0726   -0.9188   -1.5519 N   0  0  0  0  0  0  0  0  0  0  0  0
    0.9163   -0.0443    0.6221 C   0  0  0  0  0  0  0  0  0  0  0  0
    1.0743   -1.0272   -2.5092 C   0  0  0  0  0  0  0  0  0  0  0  0
    2.3271    0.0019    0.7042 O   0  0  0  0  0  0  0  0  0  0  0  0
   -0.1211   -5.7042    4.6943 N   0  3  0  0  0  0  0  0  0  0  0  0
    0.6011   -0.8109   -3.9385 C   0  0  0  0  0  0  0  0  0  0  0  0
    2.2363   -1.3023   -2.2112 O   0  0  0  0  0  0  0  0  0  0  0  0
   -0.5540   -5.0789    5.6792 O   0  5  0  0  0  0  0  0  0  0  0  0
    0.2769   -6.8710    4.7211 O   0  0  0  0  0  0  0  0  0  0  0  0
    1.5146    0.5308   -4.6376 Cl  0  0  0  0  0  0  0  0  0  0  0  0
    0.8042   -2.3087   -4.8615 Cl  0  0  0  0  0  0  0  0  0  0  0  0
   -0.2139   -1.8035    2.3578 H   0  0  0  0  0  0  0  0  0  0  0  0
    1.3403   -5.3151    0.3464 H   0  0  0  0  0  0  0  0  0  0  0  0
   -0.8701   -3.1380    4.2322 H   0  0  0  0  0  0  0  0  0  0  0  0
    0.7489   -6.6720    2.3030 H   0  0  0  0  0  0  0  0  0  0  0  0
    2.1169   -2.5798   -0.0750 H   0  0  0  0  0  0  0  0  0  0  0  0
   -0.6992   -1.3697    0.2277 H   0  0  0  0  0  0  0  0  0  0  0  0
   -0.3628   -3.3510   -1.2208 H   0  0  0  0  0  0  0  0  0  0  0  0
   -0.8728   -0.6636   -1.8057 H   0  0  0  0  0  0  0  0  0  0  0  0
    0.5886    0.8862    0.1411 H   0  0  0  0  0  0  0  0  0  0  0  0
    0.5261    0.0131    1.6436 H   0  0  0  0  0  0  0  0  0  0  0  0
    2.6491   -0.7860    1.1718 H   0  0  0  0  0  0  0  0  0  0  0  0
   -0.4619   -0.5527   -3.9562 H   0  0  0  0  0  0  0  0  0  0  0  0
  1  4  1  0  0  0  0
  1 21  1  0  0  0  0
  2  1  2  0  0  0  0
  2  3  1  0  0  0  0
  3  5  2  0  0  0  0
  3 22  1  0  0  0  0
  4  6  2  0  0  0  0
  4 23  1  0  0  0  0
  5  6  1  0  0  0  0
  5 24  1  0  0  0  0
  6 14  1  0  0  0  0
  7  9  1  0  0  0  0
  7 25  1  6  0  0  0
  7  8  1  0  0  0  0
  7  2  1  0  0  0  0
  8 26  1  1  0  0  0
  8 11  1  0  0  0  0
  8 10  1  0  0  0  0
  9 27  1  0  0  0  0
 10 12  1  0  0  0  0
 10 28  1  0  0  0  0
 11 13  1  0  0  0  0
 11 29  1  0  0  0  0
 11 30  1  0  0  0  0
 12 15  1  0  0  0  0
 12 16  2  0  0  0  0
 13 31  1  0  0  0  0
 14 17  1  0  0  0  0
 14 18  2  0  0  0  0
 15 19  1  0  0  0  0
 15 20  1  0  0  0  0
 15 32  1  0  0  0  0
M  CHG  2  14   1  17  -1
M  END
>  <DRUGBANK_ID>
DB00446

>  <SECONDARY_ACCESSION_NUMBERS>
APRD00862; EXPT00942

>  <COMMON_NAME>
Chloramphenicol

>  <CAS_NUMBER>
56-75-7

>  <UNII>
66974FR9Q1

>  <SYNONYMS>
Chloramphénicol; Chloramphenicol; Chloramphenicolum; Chlornitromycin; Cloramfenicol; Cloranfenicol; D-(−)-2,2-dichloro-N-(β-hydroxy-α-(hydroxymethyl)-p-nitrophenylethyl)acetamide; D-(−)-threo-1-p-nitrophenyl-2-dichloroacetylamino-1,3-propanediol; Laevomycetinum; Levomicetina; Levomycetin

$$$$
