
 OpenBabel10282417143D

 67 71  0  0  1  0  0  0  0  0999 V2000
  -14.1692    7.4320    4.0528 N   0  0  0  0  0  0  0  0  0  0  0  0
  -12.8934    7.0083    3.7144 C   0  0  0  0  0  0  0  0  0  0  0  0
  -12.6552    6.0253    2.7367 C   0  0  0  0  0  0  0  0  0  0  0  0
  -13.5040    5.2916    1.9329 N   0  0  0  0  0  0  0  0  0  0  0  0
  -12.7087    4.5944    1.1514 C   0  0  0  0  0  0  0  0  0  0  0  0
  -11.3851    4.8342    1.4156 N   0  0  0  0  0  0  0  0  0  0  0  0
  -10.2792    4.2667    0.6741 C   0  0  2  0  0  0  0  0  0  0  0  0
   -9.4753    3.4849    1.5507 O   0  0  0  0  0  0  0  0  0  0  0  0
   -8.0672    3.7222    1.3149 C   0  0  2  0  0  0  0  0  0  0  0  0
   -7.4381    4.3698    2.5625 C   0  0  0  0  0  0  0  0  0  0  0  0
   -7.4201    3.4526    3.6680 O   0  0  0  0  0  0  0  0  0  0  0  0
   -9.0321    2.9693    4.0693 P   0  0  1  0  0  0  0  0  0  0  0  0
   -8.9257    1.6353    3.1700 O   0  0  0  0  0  0  0  0  0  0  0  0
   -8.9157    3.6963    5.3701 O   0  0  0  0  0  0  0  0  0  0  0  0
  -10.6440    2.4861    4.4706 O   0  0  0  0  0  0  0  0  0  0  0  0
  -10.6604    1.7744    5.6946 C   0  0  0  0  0  0  0  0  0  0  0  0
   -9.6713    0.6149    5.6144 C   0  0  0  0  0  0  0  0  0  0  0  0
   -8.1128    0.9528    5.4990 C   0  0  0  0  0  0  0  0  0  0  0  0
   -7.5866    1.8095    6.6123 C   0  0  0  0  0  0  0  0  0  0  0  0
   -7.6904    1.0420    7.8640 C   0  0  0  0  0  0  0  0  0  0  0  0
   -7.0120   -0.3049    7.6758 C   0  0  2  0  0  0  0  0  0  0  0  0
   -7.9208   -1.6358    6.7381 S   0  0  0  0  0  0  0  0  0  0  0  0
   -6.8096   -2.8683    7.2855 C   0  0  0  0  0  0  0  0  0  0  0  0
   -6.7208   -2.5026    8.7668 C   0  0  2  0  0  0  0  0  0  0  0  0
   -7.8505   -3.0154    9.5213 N   0  0  0  0  0  0  0  0  0  0  0  0
   -8.6454   -2.0170   10.0640 C   0  0  0  0  0  0  0  0  0  0  0  0
   -9.6927   -2.1567   10.6217 O   0  0  0  0  0  0  0  0  0  0  0  0
   -7.9969   -0.8195    9.8547 N   0  0  0  0  0  0  0  0  0  0  0  0
   -6.8308   -0.9746    9.0059 C   0  0  2  0  0  0  0  0  0  0  0  0
   -7.9986    4.5802    0.0588 C   0  0  1  0  0  0  0  0  0  0  0  0
   -7.8412    3.7545   -1.1072 O   0  0  0  0  0  0  0  0  0  0  0  0
   -9.3556    5.2774    0.0119 C   0  0  1  0  0  0  0  0  0  0  0  0
   -9.7830    5.5812   -1.3132 O   0  0  0  0  0  0  0  0  0  0  0  0
  -11.3305    5.7449    2.4363 C   0  0  0  0  0  0  0  0  0  0  0  0
  -10.2403    6.2876    3.0028 N   0  0  0  0  0  0  0  0  0  0  0  0
  -10.5891    7.1948    3.9418 C   0  0  0  0  0  0  0  0  0  0  0  0
  -11.8277    7.6018    4.3015 N   0  0  0  0  0  0  0  0  0  0  0  0
  -14.8523    6.6907    4.1583 H   0  0  0  0  0  0  0  0  0  0  0  0
  -14.2211    8.2319    4.6643 H   0  0  0  0  0  0  0  0  0  0  0  0
  -13.0378    3.9151    0.3754 H   0  0  0  0  0  0  0  0  0  0  0  0
  -10.7044    3.5742   -0.0635 H   0  0  0  0  0  0  0  0  0  0  0  0
   -7.6035    2.7391    1.1633 H   0  0  0  0  0  0  0  0  0  0  0  0
   -6.4023    4.6582    2.3642 H   0  0  0  0  0  0  0  0  0  0  0  0
   -7.9857    5.2594    2.8769 H   0  0  0  0  0  0  0  0  0  0  0  0
   -8.6990    0.7332    3.4282 H   0  0  0  0  0  0  0  0  0  0  0  0
  -10.4351    2.4358    6.5379 H   0  0  0  0  0  0  0  0  0  0  0  0
  -11.6805    1.4163    5.8657 H   0  0  0  0  0  0  0  0  0  0  0  0
   -9.8708    0.0461    6.5240 H   0  0  0  0  0  0  0  0  0  0  0  0
   -9.9751   -0.0482    4.7922 H   0  0  0  0  0  0  0  0  0  0  0  0
   -7.5468    0.0589    5.2518 H   0  0  0  0  0  0  0  0  0  0  0  0
   -7.6468    1.4327    4.6551 H   0  0  0  0  0  0  0  0  0  0  0  0
   -6.5790    2.1671    6.3657 H   0  0  0  0  0  0  0  0  0  0  0  0
   -8.1606    2.7009    6.8165 H   0  0  0  0  0  0  0  0  0  0  0  0
   -7.2346    1.6602    8.6432 H   0  0  0  0  0  0  0  0  0  0  0  0
   -8.7529    0.9476    8.1192 H   0  0  0  0  0  0  0  0  0  0  0  0
   -6.0443   -0.1475    7.1732 H   0  0  0  0  0  0  0  0  0  0  0  0
   -5.8698   -2.7369    6.7395 H   0  0  0  0  0  0  0  0  0  0  0  0
   -7.2510   -3.8374    7.0540 H   0  0  0  0  0  0  0  0  0  0  0  0
   -5.8013   -2.9066    9.1821 H   0  0  0  0  0  0  0  0  0  0  0  0
   -8.1831   -3.9670    9.5161 H   0  0  0  0  0  0  0  0  0  0  0  0
   -8.4742    0.0476   10.0788 H   0  0  0  0  0  0  0  0  0  0  0  0
   -5.9798   -0.5365    9.5300 H   0  0  0  0  0  0  0  0  0  0  0  0
   -7.1595    5.2810    0.0765 H   0  0  0  0  0  0  0  0  0  0  0  0
   -8.4873    3.0277   -1.0839 H   0  0  0  0  0  0  0  0  0  0  0  0
   -9.3038    6.2100    0.5783 H   0  0  0  0  0  0  0  0  0  0  0  0
   -9.5876    4.8085   -1.8761 H   0  0  0  0  0  0  0  0  0  0  0  0
   -9.7653    7.6636    4.4746 H   0  0  0  0  0  0  0  0  0  0  0  0
  1  2  1  0  0  0  0
  1 38  1  0  0  0  0
  1 39  1  0  0  0  0
  2  3  2  0  0  0  0
  2 37  1  0  0  0  0
  3  4  1  0  0  0  0
  3 34  1  0  0  0  0
  4  5  2  0  0  0  0
  5  6  1  0  0  0  0
  5 40  1  0  0  0  0
  6 34  1  0  0  0  0
  7  6  1  0  0  0  0
  7  8  1  0  0  0  0
  7 32  1  0  0  0  0
  7 41  1  6  0  0  0
  8  9  1  0  0  0  0
  9 30  1  0  0  0  0
  9 42  1  6  0  0  0
  9 10  1  0  0  0  0
 10 11  1  0  0  0  0
 10 43  1  0  0  0  0
 10 44  1  0  0  0  0
 12 11  1  0  0  0  0
 12 13  1  0  0  0  0
 12 14  2  1  0  0  0
 12 15  1  0  0  0  0
 13 45  1  0  0  0  0
 15 16  1  0  0  0  0
 16 17  1  0  0  0  0
 16 46  1  0  0  0  0
 16 47  1  0  0  0  0
 17 18  1  0  0  0  0
 17 48  1  0  0  0  0
 17 49  1  0  0  0  0
 18 19  1  0  0  0  0
 18 50  1  0  0  0  0
 18 51  1  0  0  0  0
 19 20  1  0  0  0  0
 19 52  1  0  0  0  0
 19 53  1  0  0  0  0
 20 54  1  0  0  0  0
 20 55  1  0  0  0  0
 21 22  1  0  0  0  0
 21 29  1  0  0  0  0
 21 56  1  6  0  0  0
 21 20  1  0  0  0  0
 22 23  1  0  0  0  0
 23 24  1  0  0  0  0
 23 57  1  0  0  0  0
 23 58  1  0  0  0  0
 24 25  1  0  0  0  0
 24 29  1  0  0  0  0
 24 59  1  1  0  0  0
 25 26  1  0  0  0  0
 25 60  1  0  0  0  0
 26 27  2  0  0  0  0
 26 28  1  0  0  0  0
 28 61  1  0  0  0  0
 29 28  1  0  0  0  0
 29 62  1  1  0  0  0
 30 31  1  0  0  0  0
 30 32  1  0  0  0  0
 30 63  1  1  0  0  0
 31 64  1  0  0  0  0
 32 33  1  0  0  0  0
 32 65  1  1  0  0  0
 33 66  1  0  0  0  0
 34 35  2  0  0  0  0
 35 36  1  0  0  0  0
 36 37  2  0  0  0  0
 36 67  1  0  0  0  0
M  END
>  <DRUGBANK_ID>
DB04651

>  <COMMON_NAME>
BIOTINOL-5-AMP

$$$$
