
 OpenBabel10282417103D

 53 54  0  0  0  0  0  0  0  0999 V2000
   -1.1957    1.1247    0.3384 C   0  0  3  0  0  0  0  0  0  0  0  0
    0.2410    1.2990   -0.1952 C   0  0  0  0  0  0  0  0  0  0  0  0
   -1.7708   -0.3017   -0.0752 C   0  0  0  0  0  0  0  0  0  0  0  0
   -1.3577    1.5538    1.8390 C   0  0  0  0  0  0  0  0  0  0  0  0
    1.0437    0.2040   -0.0588 C   0  0  0  0  0  0  0  0  0  0  0  0
    0.7776    2.5356   -0.8402 C   0  0  0  0  0  0  0  0  0  0  0  0
   -0.8394   -1.2668    0.0605 C   0  0  0  0  0  0  0  0  0  0  0  0
   -3.2388   -0.4073   -0.4730 C   0  0  0  0  0  0  0  0  0  0  0  0
   -0.9716    2.7982    2.4349 C   0  0  0  0  0  0  0  0  0  0  0  0
   -2.1193    0.6997    2.6571 C   0  0  0  0  0  0  0  0  0  0  0  0
    0.4592   -0.9857    0.3168 N   0  0  0  0  0  0  0  0  0  0  0  0
    2.5428   -0.0014   -0.1601 C   0  0  0  0  0  0  0  0  0  0  0  0
    0.0477    3.6816   -0.9358 O   0  0  0  0  0  0  0  0  0  0  0  0
    1.8910    2.5343   -1.3349 O   0  0  0  0  0  0  0  0  0  0  0  0
   -1.1119   -2.6901    0.1106 C   0  0  0  0  0  0  0  0  0  0  0  0
   -3.9364   -1.5366   -0.8038 O   0  0  0  0  0  0  0  0  0  0  0  0
   -3.8972    0.6475   -0.4957 O   0  0  0  0  0  0  0  0  0  0  0  0
   -1.4386    3.1781    3.6947 C   0  0  0  0  0  0  0  0  0  0  0  0
    0.1061    4.0263    1.8702 Cl  0  0  0  0  0  0  0  0  0  0  0  0
   -2.4442    1.0350    3.9705 C   0  0  0  0  0  0  0  0  0  0  0  0
    3.0370   -0.4577    1.1240 O   0  0  0  0  0  0  0  0  0  0  0  0
   -1.3712    3.8516   -0.8030 C   0  0  0  0  0  0  0  0  0  0  0  0
   -3.5748   -2.9229   -1.0198 C   0  0  0  0  0  0  0  0  0  0  0  0
   -2.1246    2.2816    4.4808 C   0  0  0  0  0  0  0  0  0  0  0  0
    2.6321    0.3415    2.2541 C   0  0  0  0  0  0  0  0  0  0  0  0
   -2.0522    3.0505   -1.8840 C   0  0  0  0  0  0  0  0  0  0  0  0
    3.2227    1.7618    2.2668 C   0  0  0  0  0  0  0  0  0  0  0  0
    2.7325    2.6422    1.2303 N   0  0  0  0  0  0  0  0  0  0  0  0
   -1.9311    1.7506   -0.1125 H   0  0  0  0  0  0  0  0  0  0  0  0
   -2.4877   -0.2538    2.2914 H   0  0  0  0  0  0  0  0  0  0  0  0
    1.1012   -1.7762    0.3971 H   0  0  0  0  0  0  0  0  0  0  0  0
    2.7278   -0.8285   -0.8611 H   0  0  0  0  0  0  0  0  0  0  0  0
    3.1749    0.7893   -0.5401 H   0  0  0  0  0  0  0  0  0  0  0  0
   -0.9333   -3.1564   -0.8628 H   0  0  0  0  0  0  0  0  0  0  0  0
   -0.6486   -3.2652    0.9052 H   0  0  0  0  0  0  0  0  0  0  0  0
   -2.0993   -2.6241    0.5020 H   0  0  0  0  0  0  0  0  0  0  0  0
   -1.2248    4.1767    4.0761 H   0  0  0  0  0  0  0  0  0  0  0  0
   -2.9706    0.3169    4.5882 H   0  0  0  0  0  0  0  0  0  0  0  0
   -1.7407    3.5934    0.1875 H   0  0  0  0  0  0  0  0  0  0  0  0
   -1.6019    4.9178   -0.8582 H   0  0  0  0  0  0  0  0  0  0  0  0
   -2.7332   -2.9624   -1.7112 H   0  0  0  0  0  0  0  0  0  0  0  0
   -3.4559   -3.4259   -0.0544 H   0  0  0  0  0  0  0  0  0  0  0  0
   -4.3680   -3.5374   -1.4485 H   0  0  0  0  0  0  0  0  0  0  0  0
   -2.3784    2.5623    5.4945 H   0  0  0  0  0  0  0  0  0  0  0  0
    1.5406    0.3523    2.3729 H   0  0  0  0  0  0  0  0  0  0  0  0
    2.9932   -0.1836    3.1472 H   0  0  0  0  0  0  0  0  0  0  0  0
   -1.5996    2.0593   -2.0123 H   0  0  0  0  0  0  0  0  0  0  0  0
   -3.1046    2.9164   -1.6265 H   0  0  0  0  0  0  0  0  0  0  0  0
   -1.9225    3.5329   -2.8446 H   0  0  0  0  0  0  0  0  0  0  0  0
    2.9577    2.2318    3.2176 H   0  0  0  0  0  0  0  0  0  0  0  0
    4.3076    1.7000    2.1795 H   0  0  0  0  0  0  0  0  0  0  0  0
    3.1025    3.5852    1.2770 H   0  0  0  0  0  0  0  0  0  0  0  0
    2.9921    2.3381    0.2932 H   0  0  0  0  0  0  0  0  0  0  0  0
  1  2  1  0  0  0  0
  1  3  1  0  0  0  0
  1  4  1  0  0  0  0
  1 29  1  0  0  0  0
  2  5  2  0  0  0  0
  2  6  1  0  0  0  0
  3  7  2  0  0  0  0
  3  8  1  0  0  0  0
  4  9  1  0  0  0  0
  4 10  2  0  0  0  0
  5 11  1  0  0  0  0
  5 12  1  0  0  0  0
  6 13  1  0  0  0  0
  6 14  2  0  0  0  0
  7 15  1  0  0  0  0
  7 11  1  0  0  0  0
  8 16  1  0  0  0  0
  8 17  2  0  0  0  0
  9 18  2  0  0  0  0
  9 19  1  0  0  0  0
 10 20  1  0  0  0  0
 10 30  1  0  0  0  0
 11 31  1  0  0  0  0
 12 21  1  0  0  0  0
 12 32  1  0  0  0  0
 12 33  1  0  0  0  0
 13 22  1  0  0  0  0
 15 34  1  0  0  0  0
 15 35  1  0  0  0  0
 15 36  1  0  0  0  0
 16 23  1  0  0  0  0
 18 24  1  0  0  0  0
 18 37  1  0  0  0  0
 20 24  2  0  0  0  0
 20 38  1  0  0  0  0
 21 25  1  0  0  0  0
 22 26  1  0  0  0  0
 22 39  1  0  0  0  0
 22 40  1  0  0  0  0
 23 41  1  0  0  0  0
 23 42  1  0  0  0  0
 23 43  1  0  0  0  0
 24 44  1  0  0  0  0
 25 27  1  0  0  0  0
 25 45  1  0  0  0  0
 25 46  1  0  0  0  0
 26 47  1  0  0  0  0
 26 48  1  0  0  0  0
 26 49  1  0  0  0  0
 27 28  1  0  0  0  0
 27 50  1  0  0  0  0
 27 51  1  0  0  0  0
 28 52  1  0  0  0  0
 28 53  1  0  0  0  0
M  END
>  <DRUGBANK_ID>
DB00381

>  <SECONDARY_ACCESSION_NUMBERS>
APRD00520

>  <COMMON_NAME>
Amlodipine

>  <CAS_NUMBER>
88150-42-9

>  <UNII>
1J444QC288

>  <SYNONYMS>
(RS)-3-ethyl 5-methyl 2-[(2-aminoethoxy)methyl]-4-(2-chlorophenyl)-6-methyl-1,4-dihydropyridine-3,5-dicarboxylate; 3-Ethyl 5-methylester, (Â±)-2-[(2-aminoethoxy)methyl]-4-(o-chlorophenyl)-1,4-dihydro-6-methyl-3,5-pyridinedicarboxylate; Amlodipine; Amlodipine free base; Amlodipino; Amlodipinum

$$$$
