
 OpenBabel10282417133D

 32 34  0  0  0  0  0  0  0  0999 V2000
   -1.3372   -0.5096    0.2526 O   0  0  0  0  0  0  0  0  0  0  0  0
    1.6998   -0.1069    0.6183 O   0  0  0  0  0  0  0  0  0  0  0  0
   -3.3225    1.3693    1.1241 O   0  0  0  0  0  0  0  0  0  0  0  0
   -1.0365   -3.3463   -5.9538 O   0  0  0  0  0  0  0  0  0  0  0  0
   -0.6908   -1.5620   -1.7760 N   0  0  0  0  0  0  0  0  0  0  0  0
    1.3654   -2.4109   -2.8382 N   0  0  0  0  0  0  0  0  0  0  0  0
   -2.0877   -2.0248   -3.4591 N   0  0  0  0  0  0  0  0  0  0  0  0
    1.0724   -3.3089   -5.0280 N   0  0  0  0  0  0  0  0  0  0  0  0
    3.1375   -3.2360   -4.0278 N   0  0  0  0  0  0  0  0  0  0  0  0
   -0.2348   -1.1177   -0.4708 C   0  0  1  0  0  0  0  0  0  0  0  0
    0.8585   -0.0489   -0.5384 C   0  0  1  0  0  0  0  0  0  0  0  0
    0.0641    1.2344   -0.5412 C   0  0  0  0  0  0  0  0  0  0  0  0
   -1.0598    0.9005    0.4214 C   0  0  1  0  0  0  0  0  0  0  0  0
   -2.3178    1.7269    0.1808 C   0  0  0  0  0  0  0  0  0  0  0  0
    0.0518   -2.1354   -2.7651 C   0  0  0  0  0  0  0  0  0  0  0  0
   -1.9834   -1.5245   -2.2441 C   0  0  0  0  0  0  0  0  0  0  0  0
   -0.8114   -2.4203   -3.7921 C   0  0  0  0  0  0  0  0  0  0  0  0
   -0.3036   -3.0573   -5.0125 C   0  0  0  0  0  0  0  0  0  0  0  0
    1.8088   -2.9939   -4.0022 C   0  0  0  0  0  0  0  0  0  0  0  0
    2.0428   -2.2194   -2.1127 H   0  0  0  0  0  0  0  0  0  0  0  0
    3.7807   -3.0225   -3.2831 H   0  0  0  0  0  0  0  0  0  0  0  0
    3.5138   -3.6754   -4.8608 H   0  0  0  0  0  0  0  0  0  0  0  0
    1.1433   -0.0645    1.4185 H   0  0  0  0  0  0  0  0  0  0  0  0
   -3.4829    0.4138    1.0120 H   0  0  0  0  0  0  0  0  0  0  0  0
    0.0800   -2.0129    0.0775 H   0  0  0  0  0  0  0  0  0  0  0  0
    1.5153   -0.1232   -1.4074 H   0  0  0  0  0  0  0  0  0  0  0  0
    0.6358    2.1088   -0.2208 H   0  0  0  0  0  0  0  0  0  0  0  0
   -0.3358    1.4199   -1.5462 H   0  0  0  0  0  0  0  0  0  0  0  0
   -0.7367    1.0300    1.4617 H   0  0  0  0  0  0  0  0  0  0  0  0
   -2.1029    2.7929    0.3003 H   0  0  0  0  0  0  0  0  0  0  0  0
   -2.7229    1.5555   -0.8210 H   0  0  0  0  0  0  0  0  0  0  0  0
   -2.8069   -1.1273   -1.6627 H   0  0  0  0  0  0  0  0  0  0  0  0
  1 10  1  0  0  0  0
  1 13  1  0  0  0  0
  2 23  1  0  0  0  0
  3 14  1  0  0  0  0
  3 24  1  0  0  0  0
  4 18  2  0  0  0  0
  5 15  1  0  0  0  0
  5 16  1  0  0  0  0
  6 15  1  0  0  0  0
  6 19  1  0  0  0  0
  6 20  1  0  0  0  0
  7 16  2  0  0  0  0
  7 17  1  0  0  0  0
  8 18  1  0  0  0  0
  8 19  2  0  0  0  0
  9 19  1  0  0  0  0
  9 21  1  0  0  0  0
  9 22  1  0  0  0  0
 10  5  1  0  0  0  0
 10 11  1  0  0  0  0
 10 25  1  1  0  0  0
 11  2  1  0  0  0  0
 11 12  1  0  0  0  0
 11 26  1  6  0  0  0
 12 13  1  0  0  0  0
 12 27  1  0  0  0  0
 12 28  1  0  0  0  0
 13 14  1  0  0  0  0
 13 29  1  1  0  0  0
 14 30  1  0  0  0  0
 14 31  1  0  0  0  0
 15 17  2  0  0  0  0
 16 32  1  0  0  0  0
 17 18  1  0  0  0  0
M  END
>  <DRUGBANK_ID>
DB03609

>  <SECONDARY_ACCESSION_NUMBERS>
EXPT00167

>  <COMMON_NAME>
3'-deoxyguanosine

>  <CAS_NUMBER>
3608-58-0

$$$$
