
 OpenBabel10282417243D

 61 64  0  0  1  0  0  0  0  0999 V2000
    1.0513    0.0437   -0.0123 H   0  0  0  0  0  0  0  0  0  0  0  0
    2.1466    0.1167   -0.0258 C   0  0  1  0  0  0  0  0  0  0  0  0
    2.5991    1.3086   -0.8753 C   0  0  0  0  0  0  0  0  0  0  0  0
    3.8226    0.7998   -1.5710 C   0  0  0  0  0  0  0  0  0  0  0  0
    3.3514   -0.5588   -1.9608 C   0  0  0  0  0  0  0  0  0  0  0  0
    2.6092   -1.0376   -0.7976 O   0  0  0  0  0  0  0  0  0  0  0  0
    2.6071    0.2140    1.4537 C   0  0  0  0  0  0  0  0  0  0  0  0
    2.2345    1.2899    2.2380 C   0  0  0  0  0  0  0  0  0  0  0  0
    1.4733    2.2373    1.6643 F   0  0  0  0  0  0  0  0  0  0  0  0
    2.6155    1.4297    3.5972 C   0  0  0  0  0  0  0  0  0  0  0  0
    3.4185    0.4516    4.2607 C   0  0  0  0  0  0  0  0  0  0  0  0
    3.7802   -0.6827    3.5296 C   0  0  0  0  0  0  0  0  0  0  0  0
    4.5155   -1.8684    3.8164 N   0  0  0  0  0  0  0  0  0  0  0  0
    4.4558   -2.6372    2.7196 C   0  0  0  0  0  0  0  0  0  0  0  0
    5.0766   -3.9132    2.4952 N   0  0  0  0  0  0  0  0  0  0  0  0
    5.1941   -4.8582    1.4733 C   0  0  0  0  0  0  0  0  0  0  0  0
    5.8949   -5.8937    1.6641 O   0  0  0  0  0  0  0  0  0  0  0  0
    4.6131   -4.8007    0.2451 N   0  0  0  0  0  0  0  0  0  0  0  0
    3.9021   -3.6828   -0.1677 C   0  0  0  0  0  0  0  0  0  0  0  0
    4.8479   -2.6408   -0.6946 C   0  0  0  0  0  0  0  0  0  0  0  0
    3.6361   -1.9460    1.8839 N   0  0  0  0  0  0  0  0  0  0  0  0
    3.3289   -0.7005    2.2316 C   0  0  0  0  0  0  0  0  0  0  0  0
    2.2103    2.6443    4.2719 C   0  0  0  0  0  0  0  0  0  0  0  0
    0.8881    3.0135    4.4526 C   0  0  0  0  0  0  0  0  0  0  0  0
    0.4915    4.1960    4.9756 N   0  0  0  0  0  0  0  0  0  0  0  0
    1.4777    5.0597    5.2928 C   0  0  0  0  0  0  0  0  0  0  0  0
    2.7966    4.7761    5.1585 N   0  0  0  0  0  0  0  0  0  0  0  0
    3.1333    3.5805    4.6627 C   0  0  0  0  0  0  0  0  0  0  0  0
    1.1644    6.4323    5.9298 C   0  0  0  0  0  0  0  0  0  0  0  0
    1.9330    6.3814    7.2764 C   0  0  0  0  0  0  0  0  0  0  0  0
    1.7210    7.5250    5.0290 C   0  0  0  0  0  0  0  0  0  0  0  0
   -0.2505    6.6536    6.0233 O   0  0  0  0  0  0  0  0  0  0  0  0
   -0.9464    7.8338    6.8431 P   0  0  0  0  0  0  0  0  0  0  0  0
   -2.3463    7.1886    7.2609 O   0  0  0  0  0  0  0  0  0  0  0  0
   -0.2032    7.7582    8.2418 O   0  0  0  0  0  0  0  0  0  0  0  0
   -1.0692    9.1973    6.2588 O   0  0  0  0  0  0  0  0  0  0  0  0
    1.8457    1.5092   -1.6456 H   0  0  0  0  0  0  0  0  0  0  0  0
    2.8043    2.2180   -0.3176 H   0  0  0  0  0  0  0  0  0  0  0  0
    4.1877    1.3651   -2.4276 H   0  0  0  0  0  0  0  0  0  0  0  0
    4.6473    0.7020   -0.8483 H   0  0  0  0  0  0  0  0  0  0  0  0
    2.7636   -0.7020   -2.8722 H   0  0  0  0  0  0  0  0  0  0  0  0
    4.2800   -1.0680   -2.1932 H   0  0  0  0  0  0  0  0  0  0  0  0
    3.7124    0.5611    5.2994 H   0  0  0  0  0  0  0  0  0  0  0  0
    5.5946   -4.2296    3.3067 H   0  0  0  0  0  0  0  0  0  0  0  0
    4.8160   -5.4905   -0.4622 H   0  0  0  0  0  0  0  0  0  0  0  0
    2.8859   -3.7277   -0.5773 H   0  0  0  0  0  0  0  0  0  0  0  0
    3.5580   -3.5740    0.8128 H   0  0  0  0  0  0  0  0  0  0  0  0
    4.7535   -2.7241   -1.7769 H   0  0  0  0  0  0  0  0  0  0  0  0
    4.6252   -1.6447   -0.3086 H   0  0  0  0  0  0  0  0  0  0  0  0
    5.9092   -2.7149   -0.4627 H   0  0  0  0  0  0  0  0  0  0  0  0
    3.1771   -2.1417    1.0234 H   0  0  0  0  0  0  0  0  0  0  0  0
    0.0853    2.3431    4.1481 H   0  0  0  0  0  0  0  0  0  0  0  0
    4.2012    3.4084    4.5537 H   0  0  0  0  0  0  0  0  0  0  0  0
    2.9932    6.1256    7.1526 H   0  0  0  0  0  0  0  0  0  0  0  0
    1.9503    7.3406    7.7971 H   0  0  0  0  0  0  0  0  0  0  0  0
    1.5101    5.6207    7.9469 H   0  0  0  0  0  0  0  0  0  0  0  0
    1.2802    7.4506    4.0282 H   0  0  0  0  0  0  0  0  0  0  0  0
    1.4574    8.5100    5.4233 H   0  0  0  0  0  0  0  0  0  0  0  0
    2.8095    7.4680    4.9373 H   0  0  0  0  0  0  0  0  0  0  0  0
   -3.0249    7.3082    6.5737 H   0  0  0  0  0  0  0  0  0  0  0  0
   -0.1019    6.8083    8.4200 H   0  0  0  0  0  0  0  0  0  0  0  0
  2  1  1  6  0  0  0
  2  3  1  0  0  0  0
  2  6  1  0  0  0  0
  2  7  1  0  0  0  0
  3  4  1  0  0  0  0
  3 37  1  0  0  0  0
  3 38  1  0  0  0  0
  4  5  1  0  0  0  0
  4 39  1  0  0  0  0
  4 40  1  0  0  0  0
  5  6  1  0  0  0  0
  5 41  1  0  0  0  0
  5 42  1  0  0  0  0
  7  8  1  0  0  0  0
  7 22  2  0  0  0  0
  8  9  1  0  0  0  0
  8 10  2  0  0  0  0
 10 11  1  0  0  0  0
 10 23  1  0  0  0  0
 11 12  2  0  0  0  0
 11 43  1  0  0  0  0
 12 13  1  0  0  0  0
 12 22  1  0  0  0  0
 13 14  2  0  0  0  0
 14 15  1  0  0  0  0
 14 21  1  0  0  0  0
 15 16  1  0  0  0  0
 15 44  1  0  0  0  0
 16 17  2  0  0  0  0
 16 18  1  0  0  0  0
 18 19  1  0  0  0  0
 18 45  1  0  0  0  0
 19 20  1  0  0  0  0
 19 46  1  0  0  0  0
 19 47  1  0  0  0  0
 20 48  1  0  0  0  0
 20 49  1  0  0  0  0
 20 50  1  0  0  0  0
 21 22  1  0  0  0  0
 21 51  1  0  0  0  0
 23 24  2  0  0  0  0
 23 28  1  0  0  0  0
 24 25  1  0  0  0  0
 24 52  1  0  0  0  0
 25 26  2  0  0  0  0
 26 27  1  0  0  0  0
 26 29  1  0  0  0  0
 27 28  2  0  0  0  0
 28 53  1  0  0  0  0
 29 30  1  0  0  0  0
 29 31  1  0  0  0  0
 29 32  1  0  0  0  0
 30 54  1  0  0  0  0
 30 55  1  0  0  0  0
 30 56  1  0  0  0  0
 31 57  1  0  0  0  0
 31 58  1  0  0  0  0
 31 59  1  0  0  0  0
 32 33  1  0  0  0  0
 33 34  1  0  0  0  0
 33 35  1  0  0  0  0
 33 36  2  0  0  0  0
 34 60  1  0  0  0  0
 35 61  1  0  0  0  0
M  END
>  <DRUGBANK_ID>
DB18409

>  <COMMON_NAME>
Fobrepodacin

>  <CAS_NUMBER>
1384984-31-9

>  <UNII>
1NL76YUU6E

>  <SYNONYMS>
N-ethyl-n'-(6-fluoro-5-(2-(1-methyl-1-(phosphonooxy)ethyl)-5-pyrimidinyl)-7-((2r)-tetrahydro-2-furanyl)-1h-benzimidazol-2-yl)urea; SPR-720 FREE ACID; Urea, n-ethyl-n'-(6-fluoro-5-(2-(1-methyl-1-(phosphonooxy)ethyl)-5-pyrimidinyl)-7-((2r)-tetrahydro-2-furanyl)-1h-benzimidazol-2-yl)-; Vxc-486 phosphate

$$$$
