1576
 OpenBabel10282417113D

 23 23  0  0  1  0  0  0  0  0999 V2000
    0.3185    2.1712   -1.5524 N   0  0  0  0  0  0  0  0  0  0  0  0
    0.2103    1.4518   -0.2658 C   0  0  2  0  0  0  0  0  0  0  0  0
    1.0697    0.1418   -0.1422 C   0  0  0  0  0  0  0  0  0  0  0  0
    2.5299    0.5818   -0.1329 C   0  0  0  0  0  0  0  0  0  0  0  0
   -1.2847    1.2576   -0.1434 C   0  0  0  0  0  0  0  0  0  0  0  0
    2.9942    1.1789   -1.3143 C   0  0  0  0  0  0  0  0  0  0  0  0
    3.2211    0.7895    1.0599 C   0  0  0  0  0  0  0  0  0  0  0  0
    3.8542    2.2655   -1.2233 C   0  0  0  0  0  0  0  0  0  0  0  0
    4.2288    1.7586    1.1046 C   0  0  0  0  0  0  0  0  0  0  0  0
    4.4882    2.5417   -0.0260 C   0  0  0  0  0  0  0  0  0  0  0  0
    0.3560    1.4958   -2.3136 H   0  0  0  0  0  0  0  0  0  0  0  0
    1.1943    2.6920   -1.5707 H   0  0  0  0  0  0  0  0  0  0  0  0
    0.5318    2.1389    0.5289 H   0  0  0  0  0  0  0  0  0  0  0  0
    0.8290   -0.4003    0.7835 H   0  0  0  0  0  0  0  0  0  0  0  0
    0.8881   -0.5529   -0.9716 H   0  0  0  0  0  0  0  0  0  0  0  0
   -1.5644    0.8387    0.8229 H   0  0  0  0  0  0  0  0  0  0  0  0
   -1.7748    2.2385   -0.2328 H   0  0  0  0  0  0  0  0  0  0  0  0
   -1.6678    0.6236   -0.9494 H   0  0  0  0  0  0  0  0  0  0  0  0
    2.4921    0.9760   -2.2531 H   0  0  0  0  0  0  0  0  0  0  0  0
    2.9297    0.2824    1.9794 H   0  0  0  0  0  0  0  0  0  0  0  0
    3.9512    2.9339   -2.0776 H   0  0  0  0  0  0  0  0  0  0  0  0
    4.7452    1.9698    2.0330 H   0  0  0  0  0  0  0  0  0  0  0  0
    5.1814    3.3774    0.0327 H   0  0  0  0  0  0  0  0  0  0  0  0
  1 11  1  0  0  0  0
  1 12  1  0  0  0  0
  2  5  1  0  0  0  0
  2 13  1  1  0  0  0
  2  3  1  0  0  0  0
  2  1  1  0  0  0  0
  3  4  1  0  0  0  0
  3 14  1  0  0  0  0
  3 15  1  0  0  0  0
  4  6  2  0  0  0  0
  4  7  1  0  0  0  0
  5 16  1  0  0  0  0
  5 17  1  0  0  0  0
  5 18  1  0  0  0  0
  6  8  1  0  0  0  0
  6 19  1  0  0  0  0
  7  9  2  0  0  0  0
  7 20  1  0  0  0  0
  8 10  2  0  0  0  0
  8 21  1  0  0  0  0
  9 10  1  0  0  0  0
  9 22  1  0  0  0  0
 10 23  1  0  0  0  0
M  END
>  <DRUGBANK_ID>
DB01576

>  <COMMON_NAME>
Dextroamphetamine

>  <CAS_NUMBER>
51-64-9

>  <UNII>
TZ47U051FI

>  <SYNONYMS>
(+)-(S)-amphetamine; (+)-amphetamine; (+)-α-methylphenethylamine; (+)-α-methylphenylethylamine; (S)-(+)-amphetamine; (S)-(+)-β-phenylisopropylamine; (S)-1-phenyl-2-aminopropane; (S)-1-phenyl-2-propylamine; (S)-amphetamine; (S)-α-methylbenzeneethanamine; (αS)-α-methylbenzeneethanamine; d-amphetamine; Desamfetamina; Dexamfetamina; Dexamfetamine; Dexamfetaminum; Dexamphetamine; Dexanfetamina; Dextroamphetamine

$$$$
