1029
 OpenBabel10282417113D

 60 64  0  0  0  0  0  0  0  0999 V2000
   -0.7981    2.0223    0.0325 O   0  0  0  0  0  0  0  0  0  0  0  0
   -0.5596   -1.5079    0.0342 N   0  0  0  0  0  0  0  0  0  0  0  0
   -2.1263    0.1086    0.0142 N   0  0  0  0  0  0  0  0  0  0  0  0
   -8.2931   -3.2532   -2.6095 N   0  0  0  0  0  0  0  0  0  0  0  0
   -8.5246   -1.1203   -1.8890 N   0  0  0  0  0  0  0  0  0  0  0  0
   -8.5368   -3.1412   -1.2937 N   0  0  0  0  0  0  0  0  0  0  0  0
   -8.6822   -1.8978   -0.8257 N   0  0  0  0  0  0  0  0  0  0  0  0
    0.1619   -0.2359   -0.0032 C   0  0  0  0  0  0  0  0  0  0  0  0
    1.0898   -0.1570   -1.2175 C   0  0  0  0  0  0  0  0  0  0  0  0
    1.0486   -0.2015    1.2433 C   0  0  0  0  0  0  0  0  0  0  0  0
    2.3691    0.4317   -0.6336 C   0  0  0  0  0  0  0  0  0  0  0  0
    2.4728   -0.2720    0.7088 C   0  0  0  0  0  0  0  0  0  0  0  0
   -0.9492    0.8011   -0.0018 C   0  0  0  0  0  0  0  0  0  0  0  0
   -1.8122   -1.1950    0.0962 C   0  0  0  0  0  0  0  0  0  0  0  0
   -2.8025   -2.3140    0.2206 C   0  0  0  0  0  0  0  0  0  0  0  0
   -3.4353    0.7732    0.0730 C   0  0  0  0  0  0  0  0  0  0  0  0
   -2.8572   -3.0986   -1.1274 C   0  0  0  0  0  0  0  0  0  0  0  0
   -4.3139    0.5036   -1.1299 C   0  0  0  0  0  0  0  0  0  0  0  0
   -1.5891   -3.9085   -1.3757 C   0  0  0  0  0  0  0  0  0  0  0  0
   -4.7666   -0.7834   -1.3852 C   0  0  0  0  0  0  0  0  0  0  0  0
   -4.7766    1.4803   -2.0007 C   0  0  0  0  0  0  0  0  0  0  0  0
   -1.3408   -4.8392   -0.2079 C   0  0  0  0  0  0  0  0  0  0  0  0
   -5.4154   -1.1914   -2.5139 C   0  0  0  0  0  0  0  0  0  0  0  0
   -5.6341    1.1163   -3.0561 C   0  0  0  0  0  0  0  0  0  0  0  0
   -5.9080   -0.2308   -3.3479 C   0  0  0  0  0  0  0  0  0  0  0  0
   -6.7231   -0.6732   -4.4610 C   0  0  0  0  0  0  0  0  0  0  0  0
   -7.8825   -1.4685   -4.2811 C   0  0  0  0  0  0  0  0  0  0  0  0
   -6.2775   -0.3590   -5.7515 C   0  0  0  0  0  0  0  0  0  0  0  0
   -8.6173   -1.8475   -5.4049 C   0  0  0  0  0  0  0  0  0  0  0  0
   -7.0468   -0.6944   -6.8524 C   0  0  0  0  0  0  0  0  0  0  0  0
   -8.2869   -1.9517   -2.9610 C   0  0  0  0  0  0  0  0  0  0  0  0
   -8.2087   -1.4439   -6.6796 C   0  0  0  0  0  0  0  0  0  0  0  0
   -8.6002   -3.9502   -0.6810 H   0  0  0  0  0  0  0  0  0  0  0  0
    1.3014   -1.1542   -1.6284 H   0  0  0  0  0  0  0  0  0  0  0  0
    0.7005    0.4590   -2.0346 H   0  0  0  0  0  0  0  0  0  0  0  0
    0.8987    0.7257    1.8028 H   0  0  0  0  0  0  0  0  0  0  0  0
    0.8531   -1.0378    1.9264 H   0  0  0  0  0  0  0  0  0  0  0  0
    3.2452    0.2702   -1.2664 H   0  0  0  0  0  0  0  0  0  0  0  0
    2.2459    1.5105   -0.4797 H   0  0  0  0  0  0  0  0  0  0  0  0
    2.7768   -1.3177    0.5665 H   0  0  0  0  0  0  0  0  0  0  0  0
    3.1849    0.2019    1.3876 H   0  0  0  0  0  0  0  0  0  0  0  0
   -2.5466   -2.9664    1.0506 H   0  0  0  0  0  0  0  0  0  0  0  0
   -3.7356   -1.9263    0.6270 H   0  0  0  0  0  0  0  0  0  0  0  0
   -3.9502    0.4261    0.9769 H   0  0  0  0  0  0  0  0  0  0  0  0
   -3.2870    1.8541    0.1894 H   0  0  0  0  0  0  0  0  0  0  0  0
   -3.7251   -3.7724   -1.1451 H   0  0  0  0  0  0  0  0  0  0  0  0
   -2.9567   -2.4402   -2.0015 H   0  0  0  0  0  0  0  0  0  0  0  0
   -1.6740   -4.4738   -2.3102 H   0  0  0  0  0  0  0  0  0  0  0  0
   -0.7387   -3.2378   -1.5303 H   0  0  0  0  0  0  0  0  0  0  0  0
   -4.6696   -1.6005   -0.7226 H   0  0  0  0  0  0  0  0  0  0  0  0
   -4.5200    2.5259   -1.8570 H   0  0  0  0  0  0  0  0  0  0  0  0
   -2.1726   -5.5440   -0.1204 H   0  0  0  0  0  0  0  0  0  0  0  0
   -0.4010   -5.3719   -0.3287 H   0  0  0  0  0  0  0  0  0  0  0  0
   -1.2581   -4.3048    0.7409 H   0  0  0  0  0  0  0  0  0  0  0  0
   -5.6027   -2.2556   -2.6473 H   0  0  0  0  0  0  0  0  0  0  0  0
   -6.1131    1.8903   -3.6482 H   0  0  0  0  0  0  0  0  0  0  0  0
   -5.3160    0.1364   -5.8870 H   0  0  0  0  0  0  0  0  0  0  0  0
   -9.5184   -2.4433   -5.2873 H   0  0  0  0  0  0  0  0  0  0  0  0
   -6.7378   -0.3623   -7.8385 H   0  0  0  0  0  0  0  0  0  0  0  0
   -8.7925   -1.7299   -7.5484 H   0  0  0  0  0  0  0  0  0  0  0  0
  1 13  2  0  0  0  0
  2  8  1  0  0  0  0
  2 14  2  0  0  0  0
  3 13  1  0  0  0  0
  3 14  1  0  0  0  0
  3 16  1  0  0  0  0
  4  6  1  0  0  0  0
  4 31  2  0  0  0  0
  5  7  2  0  0  0  0
  5 31  1  0  0  0  0
  6  7  1  0  0  0  0
  6 33  1  0  0  0  0
  8  9  1  0  0  0  0
  8 10  1  0  0  0  0
  8 13  1  0  0  0  0
  9 11  1  0  0  0  0
  9 34  1  0  0  0  0
  9 35  1  0  0  0  0
 10 12  1  0  0  0  0
 10 36  1  0  0  0  0
 10 37  1  0  0  0  0
 11 12  1  0  0  0  0
 11 38  1  0  0  0  0
 11 39  1  0  0  0  0
 12 40  1  0  0  0  0
 12 41  1  0  0  0  0
 14 15  1  0  0  0  0
 15 17  1  0  0  0  0
 15 42  1  0  0  0  0
 15 43  1  0  0  0  0
 16 18  1  0  0  0  0
 16 44  1  0  0  0  0
 16 45  1  0  0  0  0
 17 19  1  0  0  0  0
 17 46  1  0  0  0  0
 17 47  1  0  0  0  0
 18 20  2  0  0  0  0
 18 21  1  0  0  0  0
 19 22  1  0  0  0  0
 19 48  1  0  0  0  0
 19 49  1  0  0  0  0
 20 23  1  0  0  0  0
 20 50  1  0  0  0  0
 21 24  2  0  0  0  0
 21 51  1  0  0  0  0
 22 52  1  0  0  0  0
 22 53  1  0  0  0  0
 22 54  1  0  0  0  0
 23 25  2  0  0  0  0
 23 55  1  0  0  0  0
 24 25  1  0  0  0  0
 24 56  1  0  0  0  0
 25 26  1  0  0  0  0
 26 27  1  0  0  0  0
 26 28  2  0  0  0  0
 27 29  2  0  0  0  0
 27 31  1  0  0  0  0
 28 30  1  0  0  0  0
 28 57  1  0  0  0  0
 29 32  1  0  0  0  0
 29 58  1  0  0  0  0
 30 32  2  0  0  0  0
 30 59  1  0  0  0  0
 32 60  1  0  0  0  0
M  END
>  <DRUGBANK_ID>
DB01029

>  <SECONDARY_ACCESSION_NUMBERS>
APRD00413

>  <COMMON_NAME>
Irbesartan

>  <CAS_NUMBER>
138402-11-6

>  <UNII>
J0E2756Z7N

>  <SYNONYMS>
2-butyl-3-{[2'-(1H-tetrazol-5-yl)biphenyl-4-yl]methyl}-1,3-diazaspiro[4.4]non-1-en-4-one; Irbesartan

$$$$
