
 OpenBabel10282417153D

 46 49  0  0  1  0  0  0  0  0999 V2000
    1.6825    0.4630    0.2582 O   0  0  0  0  0  0  0  0  0  0  0  0
   -1.8880    0.8812    0.0613 O   0  0  0  0  0  0  0  0  0  0  0  0
   -0.7566   -1.4778    0.6487 O   0  0  0  0  0  0  0  0  0  0  0  0
    1.4563   -1.7940   -2.6387 O   0  0  0  0  0  0  0  0  0  0  0  0
    1.9128    0.6078   -8.8339 O   0  0  0  0  0  0  0  0  0  0  0  0
    0.8846    2.6508   -0.0465 N   0  0  0  0  0  0  0  0  0  0  0  0
    1.7362    4.6899    0.2428 N   0  0  0  0  0  0  0  0  0  0  0  0
    0.8991    2.5282   -2.4700 N   0  0  0  0  0  0  0  0  0  0  0  0
    2.1268    4.3780   -3.4399 N   0  0  0  0  0  0  0  0  0  0  0  0
    1.2361    2.6220   -4.8071 N   0  0  0  0  0  0  0  0  0  0  0  0
    2.9529    6.1956   -2.1704 N   0  0  0  0  0  0  0  0  0  0  0  0
    0.0812    2.1335   -5.3257 N   0  0  0  0  0  0  0  0  0  0  0  0
    3.9167    1.1149   -8.0157 N   0  0  0  0  0  0  0  0  0  0  0  0
   -0.5983    0.6494   -0.5081 C   0  0  1  0  0  0  0  0  0  0  0  0
    0.5068    1.3032    0.3206 C   0  0  1  0  0  0  0  0  0  0  0  0
   -0.1932   -0.8163   -0.4983 C   0  0  1  0  0  0  0  0  0  0  0  0
    1.3350   -0.7726   -0.4040 C   0  0  1  0  0  0  0  0  0  0  0  0
    2.0614   -0.8623   -1.7532 C   0  0  0  0  0  0  0  0  0  0  0  0
    1.1486    3.1275   -1.2995 C   0  0  0  0  0  0  0  0  0  0  0  0
    1.1763    3.6569    0.8391 C   0  0  0  0  0  0  0  0  0  0  0  0
    1.7596    4.3524   -1.0968 C   0  0  0  0  0  0  0  0  0  0  0  0
    2.2787    4.9929   -2.2362 C   0  0  0  0  0  0  0  0  0  0  0  0
    1.3793    3.2330   -3.5144 C   0  0  0  0  0  0  0  0  0  0  0  0
    2.3062    2.3278   -5.6182 C   0  0  0  0  0  0  0  0  0  0  0  0
    1.8562    1.6757   -6.7453 C   0  0  0  0  0  0  0  0  0  0  0  0
    0.4511    1.6487   -6.5206 C   0  0  0  0  0  0  0  0  0  0  0  0
    2.5428    1.1113   -7.9099 C   0  0  0  0  0  0  0  0  0  0  0  0
    4.9364    1.5951   -7.1228 C   0  0  0  0  0  0  0  0  0  0  0  0
   -1.9976    0.2773    0.8186 H   0  0  0  0  0  0  0  0  0  0  0  0
   -0.3901   -1.0949    1.4623 H   0  0  0  0  0  0  0  0  0  0  0  0
    1.3634   -2.6482   -2.1824 H   0  0  0  0  0  0  0  0  0  0  0  0
    2.9956    6.6788   -1.2817 H   0  0  0  0  0  0  0  0  0  0  0  0
    3.2263    6.6565   -3.0234 H   0  0  0  0  0  0  0  0  0  0  0  0
    4.2342    0.6920   -8.8811 H   0  0  0  0  0  0  0  0  0  0  0  0
   -0.6257    1.0017   -1.5389 H   0  0  0  0  0  0  0  0  0  0  0  0
    0.2060    1.3350    1.3757 H   0  0  0  0  0  0  0  0  0  0  0  0
   -0.5631   -1.3530   -1.3754 H   0  0  0  0  0  0  0  0  0  0  0  0
    1.7017   -1.5853    0.2350 H   0  0  0  0  0  0  0  0  0  0  0  0
    2.1084    0.1095   -2.2507 H   0  0  0  0  0  0  0  0  0  0  0  0
    3.1009   -1.1753   -1.5967 H   0  0  0  0  0  0  0  0  0  0  0  0
    0.9889    3.5697    1.9025 H   0  0  0  0  0  0  0  0  0  0  0  0
    3.2581    2.5941   -5.2036 H   0  0  0  0  0  0  0  0  0  0  0  0
   -0.3102    1.2562   -7.1866 H   0  0  0  0  0  0  0  0  0  0  0  0
    5.5824    0.7672   -6.8301 H   0  0  0  0  0  0  0  0  0  0  0  0
    5.4950    2.3939   -7.6113 H   0  0  0  0  0  0  0  0  0  0  0  0
    4.5435    1.9980   -6.2161 H   0  0  0  0  0  0  0  0  0  0  0  0
  1 15  1  0  0  0  0
  1 17  1  0  0  0  0
  2 29  1  0  0  0  0
  3 30  1  0  0  0  0
  4 18  1  0  0  0  0
  4 31  1  0  0  0  0
  5 27  2  0  0  0  0
  6 19  1  0  0  0  0
  6 20  1  0  0  0  0
  7 20  2  0  0  0  0
  7 21  1  0  0  0  0
  8 19  1  0  0  0  0
  8 23  2  0  0  0  0
  9 22  2  0  0  0  0
  9 23  1  0  0  0  0
 10 12  1  0  0  0  0
 10 23  1  0  0  0  0
 10 24  1  0  0  0  0
 11 22  1  0  0  0  0
 11 32  1  0  0  0  0
 11 33  1  0  0  0  0
 12 26  2  0  0  0  0
 13 27  1  0  0  0  0
 13 28  1  0  0  0  0
 13 34  1  0  0  0  0
 14  2  1  0  0  0  0
 14 15  1  0  0  0  0
 14 16  1  0  0  0  0
 14 35  1  6  0  0  0
 15 36  1  1  0  0  0
 15  6  1  0  0  0  0
 16  3  1  0  0  0  0
 16 17  1  0  0  0  0
 16 37  1  6  0  0  0
 17 38  1  1  0  0  0
 17 18  1  0  0  0  0
 18 39  1  0  0  0  0
 18 40  1  0  0  0  0
 19 21  2  0  0  0  0
 20 41  1  0  0  0  0
 21 22  1  0  0  0  0
 24 25  2  0  0  0  0
 24 42  1  0  0  0  0
 25 26  1  0  0  0  0
 25 27  1  0  0  0  0
 26 43  1  0  0  0  0
 28 44  1  0  0  0  0
 28 45  1  0  0  0  0
 28 46  1  0  0  0  0
M  END
>  <DRUGBANK_ID>
DB06213

>  <COMMON_NAME>
Regadenoson

>  <CAS_NUMBER>
313348-27-5

>  <UNII>
7AXV542LZ4

>  <SYNONYMS>
Regadenoson; Regadenoson anhydrous

$$$$
