
 OpenBabel10282417233D

192196  0  0  1  0  0  0  0  0999 V2000
    1.0721   -1.9850    1.3718 C   0  0  0  0  0  0  0  0  0  0  0  0
   12.8792    6.3678   -8.2645 C   0  0  0  0  0  0  0  0  0  0  0  0
    7.8801   -6.1211   -5.7459 C   0  0  0  0  0  0  0  0  0  0  0  0
    7.5818   -4.9596   -5.1757 C   0  0  0  0  0  0  0  0  0  0  0  0
    8.9562   -6.2422   -6.6096 C   0  0  0  0  0  0  0  0  0  0  0  0
    8.9480    0.8886   -0.0418 C   0  0  0  0  0  0  0  0  0  0  0  0
    8.4653   -0.3482   -0.0162 C   0  0  0  0  0  0  0  0  0  0  0  0
    1.3421   -0.5360   -0.3011 C   0  0  0  0  0  0  0  0  0  0  0  0
    0.7272    0.6610   -1.0078 C   0  0  0  0  0  0  0  0  0  0  0  0
    8.4226   -3.8806   -5.3051 C   0  0  0  0  0  0  0  0  0  0  0  0
    9.8388   -5.1366   -6.5843 C   0  0  0  0  0  0  0  0  0  0  0  0
    8.6723    1.7459   -1.0942 C   0  0  0  0  0  0  0  0  0  0  0  0
    7.5529   -0.7625   -0.9563 C   0  0  0  0  0  0  0  0  0  0  0  0
    2.0882   -1.3924   -1.3111 C   0  0  0  0  0  0  0  0  0  0  0  0
    6.1856   -1.2840   -2.5721 C   0  0  0  0  0  0  0  0  0  0  0  0
    4.6208    0.1989   -1.6441 C   0  0  0  0  0  0  0  0  0  0  0  0
    5.2398   -2.2159   -2.5902 C   0  0  0  0  0  0  0  0  0  0  0  0
    3.6373   -0.6793   -1.7180 C   0  0  0  0  0  0  0  0  0  0  0  0
   -0.2408    0.1771   -2.0751 C   0  0  0  0  0  0  0  0  0  0  0  0
    2.8473   -1.6976   -6.8228 C   0  0  0  0  0  0  0  0  0  0  0  0
    3.0211   -2.7712   -8.9711 C   0  0  0  0  0  0  0  0  0  0  0  0
    2.9213   -1.8781   -5.3249 C   0  0  0  0  0  0  0  0  0  0  0  0
    4.5014   -3.0687   -9.1158 C   0  0  0  0  0  0  0  0  0  0  0  0
    4.4662   -3.7539   -5.1274 C   0  0  0  0  0  0  0  0  0  0  0  0
    6.0463   -4.9445   -8.9183 C   0  0  0  0  0  0  0  0  0  0  0  0
    5.9465   -4.0514   -5.2721 C   0  0  0  0  0  0  0  0  0  0  0  0
    6.1203   -5.1250   -7.4204 C   0  0  0  0  0  0  0  0  0  0  0  0
   10.3803   -2.7198   -6.3959 C   0  0  0  0  0  0  0  0  0  0  0  0
    6.8601    1.1777   -2.4728 C   0  0  0  0  0  0  0  0  0  0  0  0
    5.4448    2.4852   -2.8014 C   0  0  0  0  0  0  0  0  0  0  0  0
    6.0479    0.4630   -4.0766 C   0  0  0  0  0  0  0  0  0  0  0  0
    1.1078   -3.1624   -7.5837 C   0  0  0  0  0  0  0  0  0  0  0  0
    4.3045   -2.1095   -3.4044 C   0  0  0  0  0  0  0  0  0  0  0  0
    3.7008   -5.2822   -8.7132 C   0  0  0  0  0  0  0  0  0  0  0  0
    7.8559   -3.9159   -6.9208 C   0  0  0  0  0  0  0  0  0  0  0  0
    8.9042    1.5000   -7.3963 C   0  0  0  0  0  0  0  0  0  0  0  0
   11.4316    5.5119   -7.0816 C   0  0  0  0  0  0  0  0  0  0  0  0
    0.5654   -1.3701    0.0773 C   0  0  2  0  0  0  0  0  0  0  0  0
   13.6601    6.1453   -9.5494 C   0  0  2  0  0  0  0  0  0  0  0  0
    9.5361   -3.9476   -6.0957 C   0  0  0  0  0  0  0  0  0  0  0  0
    5.8958    0.0274   -2.2332 C   0  0  0  0  0  0  0  0  0  0  0  0
    6.9611    2.3873   -2.7619 C   0  0  0  0  0  0  0  0  0  0  0  0
    3.9768   -1.9397   -2.1247 C   0  0  0  0  0  0  0  0  0  0  0  0
    7.6313    1.2975   -1.9412 C   0  0  0  0  0  0  0  0  0  0  0  0
    7.1895    0.0540   -1.9911 C   0  0  0  0  0  0  0  0  0  0  0  0
    2.9344   -0.4004   -2.0924 C   0  0  1  0  0  0  0  0  0  0  0  0
    9.5043   -1.6408   -7.0114 C   0  0  2  0  0  0  0  0  0  0  0  0
    7.6410    0.9552   -3.7577 C   0  0  1  0  0  0  0  0  0  0  0  0
    4.8683    1.1957   -3.3629 C   0  0  2  0  0  0  0  0  0  0  0  0
    9.2936    0.9556   -6.0316 C   0  0  1  0  0  0  0  0  0  0  0  0
   12.7973    4.8505   -7.1708 C   0  0  1  0  0  0  0  0  0  0  0  0
    0.3957   -1.9886   -8.2358 C   0  0  0  0  0  0  0  0  0  0  0  0
    3.2525   -2.9548   -2.7050 C   0  0  0  0  0  0  0  0  0  0  0  0
    3.7595   -5.0243   -7.2163 C   0  0  0  0  0  0  0  0  0  0  0  0
    8.1363   -3.2075   -8.2361 C   0  0  0  0  0  0  0  0  0  0  0  0
    1.0721    0.0583   -0.0374 C   0  0  1  0  0  0  0  0  0  0  0  0
   14.4499    4.8508   -9.4447 C   0  0  1  0  0  0  0  0  0  0  0  0
    2.6445    1.0090   -1.6026 C   0  0  0  0  0  0  0  0  0  0  0  0
    8.3982   -1.2693   -6.0373 C   0  0  0  0  0  0  0  0  0  0  0  0
    6.6756    0.8665   -4.9285 C   0  0  0  0  0  0  0  0  0  0  0  0
    5.2780    0.0299   -2.4777 C   0  0  0  0  0  0  0  0  0  0  0  0
    9.3475    2.0957   -5.0278 C   0  0  0  0  0  0  0  0  0  0  0  0
   12.7434    3.7103   -8.1746 C   0  0  0  0  0  0  0  0  0  0  0  0
   14.0090    6.9181   -6.8836 C   0  0  0  0  0  0  0  0  0  0  0  0
   15.4153    4.9396   -8.2740 C   0  0  0  0  0  0  0  0  0  0  0  0
   -1.3040   -0.6203   -1.4470 N   0  0  0  0  0  0  0  0  0  0  0  0
   -0.3418   -2.1801   -9.3084 N   0  0  0  0  0  0  0  0  0  0  0  0
    3.6161   -3.8589   -1.8210 N   0  0  0  0  0  0  0  0  0  0  0  0
    2.7145   -4.5230   -6.5937 N   0  0  0  0  0  0  0  0  0  0  0  0
    6.3959   -0.4013   -3.0413 N   0  0  0  0  0  0  0  0  0  0  0  0
    8.9105   -2.1440   -8.2584 N   0  0  0  0  0  0  0  0  0  0  0  0
    4.3582   -0.7059   -1.8914 N   0  0  0  0  0  0  0  0  0  0  0  0
    8.5661    2.0778   -3.9695 N   0  0  0  0  0  0  0  0  0  0  0  0
    5.3811    0.9814   -4.7238 N   0  0  0  0  0  0  0  0  0  0  0  0
    8.2975   -0.0339   -5.5963 N   0  0  0  0  0  0  0  0  0  0  0  0
   13.7934    5.8400   -7.6062 N   0  0  0  0  0  0  0  0  0  0  0  0
    1.7694    1.2037   -0.6396 N   0  0  0  0  0  0  0  0  0  0  0  0
   13.5248    3.7282   -9.2330 N   0  0  0  0  0  0  0  0  0  0  0  0
    2.5576   -2.9193   -7.5872 N   0  0  0  0  0  0  0  0  0  0  0  0
    4.2253   -2.3304   -4.8555 N   0  0  0  0  0  0  0  0  0  0  0  0
    4.7417   -4.4930   -9.3875 N   0  0  0  0  0  0  0  0  0  0  0  0
    6.4100   -3.9032   -6.6560 N   0  0  0  0  0  0  0  0  0  0  0  0
   -0.8546   -1.3701    0.0773 O   0  0  0  0  0  0  0  0  0  0  0  0
   14.5538    7.2298   -9.7539 O   0  0  0  0  0  0  0  0  0  0  0  0
    3.0104   -2.9784   -2.0651 O   0  5  0  0  0  0  0  0  0  0  0  0
    0.5263   -0.6853   -7.6874 O   0  5  0  0  0  0  0  0  0  0  0  0
    1.8773   -2.7688   -3.0057 O   0  0  0  0  0  0  0  0  0  0  0  0
    4.9421   -5.3245   -6.4900 O   0  0  0  0  0  0  0  0  0  0  0  0
    7.5627   -3.6936   -9.4407 O   0  0  0  0  0  0  0  0  0  0  0  0
    3.3181    2.1154   -2.1843 O   0  0  0  0  0  0  0  0  0  0  0  0
    7.4735   -2.2557   -5.6033 O   0  0  0  0  0  0  0  0  0  0  0  0
    7.1710    0.6596   -6.2431 O   0  0  0  0  0  0  0  0  0  0  0  0
    6.6533   -0.2652   -2.2836 O   0  0  0  0  0  0  0  0  0  0  0  0
   10.2411    3.1802   -5.2324 O   0  0  0  0  0  0  0  0  0  0  0  0
   11.8498    2.6259   -7.9701 O   0  0  0  0  0  0  0  0  0  0  0  0
   14.9713    7.8739   -7.3041 O   0  0  0  0  0  0  0  0  0  0  0  0
   16.6658    4.8285   -8.4717 O   0  0  0  0  0  0  0  0  0  0  0  0
   14.9199    5.1465   -6.9594 O   0  0  0  0  0  0  0  0  0  0  0  0
   10.1307    2.7183   -7.9323 S   0  0  0  0  0  0  0  0  0  0  0  0
   10.2051    4.2935   -6.5455 S   0  0  0  0  0  0  0  0  0  0  0  0
    0.9205   -0.0410   -0.0446 Pb  0  2  0  0  0  0  0  0  0  0  0  0
    0.9221   -1.9429   -0.7531 H   0  0  0  0  0  0  0  0  0  0  0  0
   12.9806    6.0829  -10.3735 H   0  0  0  0  0  0  0  0  0  0  0  0
    2.6978   -0.4720   -3.1334 H   0  0  0  0  0  0  0  0  0  0  0  0
   10.0986   -0.7764   -7.2227 H   0  0  0  0  0  0  0  0  0  0  0  0
    8.1970    0.0440   -3.6840 H   0  0  0  0  0  0  0  0  0  0  0  0
    3.8009    1.2645   -3.3906 H   0  0  0  0  0  0  0  0  0  0  0  0
   10.2550    0.4900   -6.0944 H   0  0  0  0  0  0  0  0  0  0  0  0
   13.0714    4.4673   -6.2102 H   0  0  0  0  0  0  0  0  0  0  0  0
    0.4044    0.4067    0.7227 H   0  0  0  0  0  0  0  0  0  0  0  0
   14.9996    4.6943  -10.3492 H   0  0  0  0  0  0  0  0  0  0  0  0
    0.4383   -1.5853    2.1356 H   0  0  0  0  0  0  0  0  0  0  0  0
    2.0936   -1.7720    1.6083 H   0  0  0  0  0  0  0  0  0  0  0  0
    0.9334   -3.0443    1.3114 H   0  0  0  0  0  0  0  0  0  0  0  0
   13.5588    6.4302   -7.4403 H   0  0  0  0  0  0  0  0  0  0  0  0
   12.3233    7.2790   -8.3382 H   0  0  0  0  0  0  0  0  0  0  0  0
   12.2058    5.5506   -8.1103 H   0  0  0  0  0  0  0  0  0  0  0  0
    7.2778   -6.9798   -5.5341 H   0  0  0  0  0  0  0  0  0  0  0  0
    6.6785   -4.8630   -4.6104 H   0  0  0  0  0  0  0  0  0  0  0  0
    9.1063   -7.0945   -7.2388 H   0  0  0  0  0  0  0  0  0  0  0  0
    9.5617    1.2293    0.7658 H   0  0  0  0  0  0  0  0  0  0  0  0
    8.7898   -1.0283    0.7435 H   0  0  0  0  0  0  0  0  0  0  0  0
    0.5681   -1.1165    0.1561 H   0  0  0  0  0  0  0  0  0  0  0  0
    2.0235   -0.1954    0.4503 H   0  0  0  0  0  0  0  0  0  0  0  0
    0.2020    1.2639   -0.2967 H   0  0  0  0  0  0  0  0  0  0  0  0
    1.5012    1.2415   -1.4649 H   0  0  0  0  0  0  0  0  0  0  0  0
    8.2027   -2.9748   -4.7796 H   0  0  0  0  0  0  0  0  0  0  0  0
   10.8197   -5.2733   -6.9893 H   0  0  0  0  0  0  0  0  0  0  0  0
    9.1987    2.6639   -1.2523 H   0  0  0  0  0  0  0  0  0  0  0  0
    7.1206   -1.7381   -0.8775 H   0  0  0  0  0  0  0  0  0  0  0  0
    1.4068   -1.7331   -2.0625 H   0  0  0  0  0  0  0  0  0  0  0  0
    2.5210   -2.2351   -0.8137 H   0  0  0  0  0  0  0  0  0  0  0  0
    7.1906   -1.5512   -2.8240 H   0  0  0  0  0  0  0  0  0  0  0  0
    4.4410    1.1031   -1.1009 H   0  0  0  0  0  0  0  0  0  0  0  0
    5.4631   -3.1906   -2.9708 H   0  0  0  0  0  0  0  0  0  0  0  0
    2.6289   -0.4184   -1.4729 H   0  0  0  0  0  0  0  0  0  0  0  0
   -0.6736    1.0198   -2.5725 H   0  0  0  0  0  0  0  0  0  0  0  0
    0.2845   -0.4257   -2.7861 H   0  0  0  0  0  0  0  0  0  0  0  0
    3.8207   -1.3780   -7.1316 H   0  0  0  0  0  0  0  0  0  0  0  0
    2.0769   -0.9853   -7.0326 H   0  0  0  0  0  0  0  0  0  0  0  0
    2.4848   -3.4742   -9.5736 H   0  0  0  0  0  0  0  0  0  0  0  0
    2.8392   -1.7660   -9.2895 H   0  0  0  0  0  0  0  0  0  0  0  0
    2.7442   -0.9193   -4.8841 H   0  0  0  0  0  0  0  0  0  0  0  0
    2.1878   -2.6010   -5.0347 H   0  0  0  0  0  0  0  0  0  0  0  0
    4.9854   -2.8167   -8.1955 H   0  0  0  0  0  0  0  0  0  0  0  0
    4.8947   -2.4895   -9.9249 H   0  0  0  0  0  0  0  0  0  0  0  0
    4.0898   -4.3209   -4.3017 H   0  0  0  0  0  0  0  0  0  0  0  0
    3.9674   -4.0234   -6.0348 H   0  0  0  0  0  0  0  0  0  0  0  0
    6.7537   -4.1850   -9.1783 H   0  0  0  0  0  0  0  0  0  0  0  0
    6.2672   -5.8824   -9.3834 H   0  0  0  0  0  0  0  0  0  0  0  0
    6.4828   -3.3483   -4.6696 H   0  0  0  0  0  0  0  0  0  0  0  0
    6.1284   -5.0566   -4.9537 H   0  0  0  0  0  0  0  0  0  0  0  0
    6.9404   -5.7885   -7.2416 H   0  0  0  0  0  0  0  0  0  0  0  0
    5.1790   -5.5090   -7.0865 H   0  0  0  0  0  0  0  0  0  0  0  0
   11.1590   -2.9812   -7.0816 H   0  0  0  0  0  0  0  0  0  0  0  0
   10.8125   -2.3535   -5.4882 H   0  0  0  0  0  0  0  0  0  0  0  0
    7.5489    1.2415   -1.6565 H   0  0  0  0  0  0  0  0  0  0  0  0
    6.3114    2.0931   -2.5489 H   0  0  0  0  0  0  0  0  0  0  0  0
    5.1564    3.3058   -3.4245 H   0  0  0  0  0  0  0  0  0  0  0  0
    5.0715    2.6411   -1.8108 H   0  0  0  0  0  0  0  0  0  0  0  0
    6.3902    1.4767   -4.0652 H   0  0  0  0  0  0  0  0  0  0  0  0
    0.8949   -4.0572   -8.1304 H   0  0  0  0  0  0  0  0  0  0  0  0
    0.7668   -3.2709   -6.5753 H   0  0  0  0  0  0  0  0  0  0  0  0
    5.2764   -2.3877   -3.0538 H   0  0  0  0  0  0  0  0  0  0  0  0
    4.1308   -1.0755   -3.1910 H   0  0  0  0  0  0  0  0  0  0  0  0
    2.7394   -4.9976   -9.0867 H   0  0  0  0  0  0  0  0  0  0  0  0
    3.8634   -6.3227   -8.9025 H   0  0  0  0  0  0  0  0  0  0  0  0
    8.1987   -4.9277   -6.9805 H   0  0  0  0  0  0  0  0  0  0  0  0
    8.3681   -3.4119   -6.1280 H   0  0  0  0  0  0  0  0  0  0  0  0
    8.8663    0.6974   -8.1029 H   0  0  0  0  0  0  0  0  0  0  0  0
    7.9428    1.9656   -7.3335 H   0  0  0  0  0  0  0  0  0  0  0  0
   11.1574    5.8951   -8.0422 H   0  0  0  0  0  0  0  0  0  0  0  0
   11.4695    6.3145   -6.3749 H   0  0  0  0  0  0  0  0  0  0  0  0
   -1.9536   -0.9450   -2.1632 H   0  0  0  0  0  0  0  0  0  0  0  0
   -0.8915   -1.4236   -0.9728 H   0  0  0  0  0  0  0  0  0  0  0  0
   -0.4356   -3.1162   -9.7023 H   0  0  0  0  0  0  0  0  0  0  0  0
    4.6040   -3.9925   -1.6050 H   0  0  0  0  0  0  0  0  0  0  0  0
    1.8650   -4.3074   -7.1155 H   0  0  0  0  0  0  0  0  0  0  0  0
    6.0696   -1.3676   -3.0522 H   0  0  0  0  0  0  0  0  0  0  0  0
   -1.1879   -0.8349    0.8535 H   0  0  0  0  0  0  0  0  0  0  0  0
   15.1889    7.2881   -8.9837 H   0  0  0  0  0  0  0  0  0  0  0  0
    1.1851   -3.3249   -2.5456 H   0  0  0  0  0  0  0  0  0  0  0  0
    4.9807   -5.1549   -5.5052 H   0  0  0  0  0  0  0  0  0  0  0  0
    6.9743   -4.5020   -9.4237 H   0  0  0  0  0  0  0  0  0  0  0  0
    3.9832    1.9674   -2.9162 H   0  0  0  0  0  0  0  0  0  0  0  0
    7.5500   -3.1947   -5.9386 H   0  0  0  0  0  0  0  0  0  0  0  0
    8.1549    0.5722   -6.3987 H   0  0  0  0  0  0  0  0  0  0  0  0
    7.3524    0.2940   -2.7292 H   0  0  0  0  0  0  0  0  0  0  0  0
   10.8350    3.1937   -6.0368 H   0  0  0  0  0  0  0  0  0  0  0  0
   11.8144    1.8758   -8.6305 H   0  0  0  0  0  0  0  0  0  0  0  0
   15.1351    8.6934   -6.7549 H   0  0  0  0  0  0  0  0  0  0  0  0
   15.5551    5.2049   -6.1892 H   0  0  0  0  0  0  0  0  0  0  0  0
  1112  1  0  0  0  0
  1113  1  0  0  0  0
  1114  1  0  0  0  0
  2115  1  0  0  0  0
  2116  1  0  0  0  0
  2117  1  0  0  0  0
  3118  1  0  0  0  0
  4  3  2  0  0  0  0
  4119  1  0  0  0  0
  5  3  1  0  0  0  0
  5120  1  0  0  0  0
  6121  1  0  0  0  0
  7  6  2  0  0  0  0
  7122  1  0  0  0  0
  8123  1  0  0  0  0
  8124  1  0  0  0  0
  9  8  1  0  0  0  0
  9125  1  0  0  0  0
  9126  1  0  0  0  0
 10  4  1  0  0  0  0
 10127  1  0  0  0  0
 11  5  2  0  0  0  0
 11128  1  0  0  0  0
 12  6  1  0  0  0  0
 12129  1  0  0  0  0
 13  7  1  0  0  0  0
 13130  1  0  0  0  0
 14  8  1  0  0  0  0
 14131  1  0  0  0  0
 14132  1  0  0  0  0
 15133  1  0  0  0  0
 16134  1  0  0  0  0
 17 15  1  0  0  0  0
 17135  1  0  0  0  0
 18 16  2  0  0  0  0
 18136  1  0  0  0  0
 19  9  1  0  0  0  0
 19137  1  0  0  0  0
 19138  1  0  0  0  0
 20139  1  0  0  0  0
 20140  1  0  0  0  0
 21141  1  0  0  0  0
 21142  1  0  0  0  0
 22 20  1  0  0  0  0
 22143  1  0  0  0  0
 22144  1  0  0  0  0
 23 21  1  0  0  0  0
 23145  1  0  0  0  0
 23146  1  0  0  0  0
 24147  1  0  0  0  0
 24148  1  0  0  0  0
 25149  1  0  0  0  0
 25150  1  0  0  0  0
 26 24  1  0  0  0  0
 26151  1  0  0  0  0
 26152  1  0  0  0  0
 27 25  1  0  0  0  0
 27153  1  0  0  0  0
 27154  1  0  0  0  0
 28155  1  0  0  0  0
 28156  1  0  0  0  0
 29157  1  0  0  0  0
 29158  1  0  0  0  0
 30159  1  0  0  0  0
 30160  1  0  0  0  0
 31161  1  0  0  0  0
 32162  1  0  0  0  0
 32163  1  0  0  0  0
 33164  1  0  0  0  0
 33165  1  0  0  0  0
 34166  1  0  0  0  0
 34167  1  0  0  0  0
 35168  1  0  0  0  0
 35169  1  0  0  0  0
 36170  1  0  0  0  0
 36171  1  0  0  0  0
 37172  1  0  0  0  0
 37173  1  0  0  0  0
 38 83  1  0  0  0  0
 38102  1  6  0  0  0
 38 56  1  0  0  0  0
 38  1  1  0  0  0  0
 39  2  1  0  0  0  0
 39 57  1  0  0  0  0
 39 84  1  0  0  0  0
 39103  1  6  0  0  0
 40 10  2  0  0  0  0
 40 11  1  0  0  0  0
 40 28  1  0  0  0  0
 41 15  2  0  0  0  0
 41 16  1  0  0  0  0
 41 29  1  0  0  0  0
 42 30  1  0  0  0  0
 42 31  2  0  0  0  0
 43 17  2  0  0  0  0
 43 18  1  0  0  0  0
 44 12  2  0  0  0  0
 44 42  1  0  0  0  0
 45 13  2  0  0  0  0
 45 44  1  0  0  0  0
 46 58  1  0  0  0  0
 46 72  1  0  0  0  0
 46104  1  6  0  0  0
 46 14  1  0  0  0  0
 47 28  1  0  0  0  0
 47 59  1  0  0  0  0
 47 71  1  0  0  0  0
 47105  1  6  0  0  0
 48 60  1  0  0  0  0
 48 73  1  0  0  0  0
 48106  1  1  0  0  0
 48 29  1  0  0  0  0
 49 30  1  0  0  0  0
 49 61  1  0  0  0  0
 49 74  1  0  0  0  0
 49107  1  6  0  0  0
 50 36  1  0  0  0  0
 50 62  1  0  0  0  0
 50108  1  6  0  0  0
 50 75  1  0  0  0  0
 51 37  1  0  0  0  0
 51 63  1  0  0  0  0
 51 76  1  0  0  0  0
 51109  1  1  0  0  0
 52 32  1  0  0  0  0
 53 33  1  0  0  0  0
 54 34  1  0  0  0  0
 55 35  1  0  0  0  0
 55 89  1  0  0  0  0
 56 64  1  0  0  0  0
 56 77  1  0  0  0  0
 56110  1  1  0  0  0
 57 65  1  0  0  0  0
 57 78  1  0  0  0  0
 57111  1  6  0  0  0
 58 90  1  0  0  0  0
 59 91  1  0  0  0  0
 60 92  1  0  0  0  0
 61 93  1  0  0  0  0
 62 94  1  0  0  0  0
 63 95  1  0  0  0  0
 64 96  1  0  0  0  0
 66 19  1  0  0  0  0
 66174  1  0  0  0  0
 66175  1  0  0  0  0
 67 52  2  0  0  0  0
 67176  1  0  0  0  0
 68 53  2  0  0  0  0
 68177  1  0  0  0  0
 69 54  2  0  0  0  0
 69178  1  0  0  0  0
 70 31  1  0  0  0  0
 70 45  1  0  0  0  0
 70179  1  0  0  0  0
 71 55  2  3  0  0  0
 72 61  2  3  0  0  0
 73 62  2  3  0  0  0
 74 60  2  3  0  0  0
 75 59  2  3  0  0  0
 76 64  2  3  0  0  0
 77 58  2  3  0  0  0
 78 63  2  3  0  0  0
 79 20  1  0  0  0  0
 79 21  1  0  0  0  0
 79 32  1  0  0  0  0
 80 22  1  0  0  0  0
 80 24  1  0  0  0  0
 80 33  1  0  0  0  0
 81 23  1  0  0  0  0
 81 25  1  0  0  0  0
 81 34  1  0  0  0  0
 82 26  1  0  0  0  0
 82 27  1  0  0  0  0
 82 35  1  0  0  0  0
 83180  1  0  0  0  0
 84181  1  0  0  0  0
 85 43  1  0  0  0  0
 86 52  1  0  0  0  0
 87 53  1  0  0  0  0
 87182  1  0  0  0  0
 88 54  1  0  0  0  0
 88183  1  0  0  0  0
 89184  1  0  0  0  0
 90185  1  0  0  0  0
 91186  1  0  0  0  0
 92187  1  0  0  0  0
 93188  1  0  0  0  0
 94189  1  0  0  0  0
 95190  1  0  0  0  0
 96191  1  0  0  0  0
 97 65  2  0  0  0  0
 98 65  1  0  0  0  0
 98192  1  0  0  0  0
 99 36  1  0  0  0  0
100 37  1  0  0  0  0
100 99  1  0  0  0  0
M  ISO  1 101 212
M  CHG  3  85  -1  86  -1 101   2
M  END
>  <DRUGBANK_ID>
DB17312

>  <COMMON_NAME>
Dotamtate Pb-212

>  <UNII>
E9N7QV53AK

>  <SYNONYMS>
212Pb-dotamtate; Alphamedix; Dotamtate lead Pb-212; Lead-212 dotamtate

$$$$
