
 OpenBabel10282417123D

 21 20  0  0  1  0  0  0  0  0999 V2000
    0.8989   -0.2328    0.2296 N   0  0  0  0  0  0  0  0  0  0  0  0
    0.4275    0.0054    1.6317 C   0  0  1  0  0  0  0  0  0  0  0  0
    0.8618    1.4197    2.0473 C   0  0  0  0  0  0  0  0  0  0  0  0
    0.4291    2.5947    1.1352 C   0  0  0  0  0  0  0  0  0  0  0  0
   -1.0634    2.8185    0.9838 C   0  0  0  0  0  0  0  0  0  0  0  0
   -1.6625    3.5537    1.7708 O   0  0  0  0  0  0  0  0  0  0  0  0
   -1.7533    2.1428    0.0161 N   0  0  0  0  0  0  0  0  0  0  0  0
   -1.1108    1.2270   -0.8396 O   0  0  0  0  0  0  0  0  0  0  0  0
   -1.1125   -0.2690    1.9360 C   0  0  0  0  0  0  0  0  0  0  0  0
   -1.4327   -1.4633    2.4769 O   0  0  0  0  0  0  0  0  0  0  0  0
   -2.0204    0.4987    1.7487 O   0  0  0  0  0  0  0  0  0  0  0  0
    0.8153    0.5898   -0.3908 H   0  0  0  0  0  0  0  0  0  0  0  0
    1.9291   -0.2751    0.2583 H   0  0  0  0  0  0  0  0  0  0  0  0
    0.9712   -0.7296    2.2357 H   0  0  0  0  0  0  0  0  0  0  0  0
    0.5374    1.5970    3.0791 H   0  0  0  0  0  0  0  0  0  0  0  0
    1.9638    1.4364    2.0768 H   0  0  0  0  0  0  0  0  0  0  0  0
    0.8264    3.5150    1.5813 H   0  0  0  0  0  0  0  0  0  0  0  0
    0.8895    2.5347    0.1459 H   0  0  0  0  0  0  0  0  0  0  0  0
   -2.6531    1.8165    0.3880 H   0  0  0  0  0  0  0  0  0  0  0  0
   -0.8831    0.4881   -0.2410 H   0  0  0  0  0  0  0  0  0  0  0  0
   -0.7197   -2.0349    2.7875 H   0  0  0  0  0  0  0  0  0  0  0  0
  1 12  1  0  0  0  0
  1 13  1  0  0  0  0
  2  1  1  0  0  0  0
  2  3  1  0  0  0  0
  2  9  1  0  0  0  0
  2 14  1  1  0  0  0
  3  4  1  0  0  0  0
  3 15  1  0  0  0  0
  3 16  1  0  0  0  0
  4  5  1  0  0  0  0
  4 17  1  0  0  0  0
  4 18  1  0  0  0  0
  5  6  2  0  0  0  0
  5  7  1  0  0  0  0
  7  8  1  0  0  0  0
  7 19  1  0  0  0  0
  8 20  1  0  0  0  0
  9 10  1  0  0  0  0
  9 11  2  0  0  0  0
 10 21  1  0  0  0  0
M  END
>  <DRUGBANK_ID>
DB02446

>  <SECONDARY_ACCESSION_NUMBERS>
EXPT01737

>  <COMMON_NAME>
Glutamine hydroxamate

>  <CAS_NUMBER>
1955-67-5

>  <SYNONYMS>
gamma-Glutamyl hydroxamate; Glutamate-gamma-hydroxamate; Glutamate-gamma-hydroxamic acid; Glutamic acid gamma-monohydroxamate; Glutamyl-gamma-hydroxamate; L-gamma-Glutamyl hydroxamate; L-glutamic acid Î³-hydroxamic acid

$$$$
