
 OpenBabel10282417143D

 72 77  0  0  0  0  0  0  0  0999 V2000
    0.9215   -0.0759   -0.0562 C   0  0  0  0  0  0  0  0  0  0  0  0
    0.4362   -0.5350    1.2945 C   0  0  0  0  0  0  0  0  0  0  0  0
   -0.0273    0.4302    2.2039 C   0  0  0  0  0  0  0  0  0  0  0  0
   -0.4205    0.0550    3.4910 C   0  0  0  0  0  0  0  0  0  0  0  0
   -0.3616   -1.3014    3.8287 C   0  0  0  0  0  0  0  0  0  0  0  0
    0.1125   -2.2642    2.9488 C   0  0  0  0  0  0  0  0  0  0  0  0
    0.5090   -1.8941    1.6632 C   0  0  0  0  0  0  0  0  0  0  0  0
    0.9401   -2.8349    0.8026 N   0  0  0  0  0  0  0  0  0  0  0  0
    0.9924   -4.1334    1.1798 C   0  0  0  0  0  0  0  0  0  0  0  0
    0.6578   -4.4974    2.4276 N   0  0  0  0  0  0  0  0  0  0  0  0
    0.2059   -3.5498    3.3203 N   0  0  0  0  0  0  0  0  0  0  0  0
    1.3251   -5.1348    0.2334 N   0  0  0  0  0  0  0  0  0  0  0  0
    1.6020   -4.9282   -1.1233 C   0  0  0  0  0  0  0  0  0  0  0  0
    2.2579   -3.7883   -1.4661 C   0  0  0  0  0  0  0  0  0  0  0  0
    2.3514   -3.3877   -2.7973 C   0  0  0  0  0  0  0  0  0  0  0  0
    2.1791   -4.1655   -3.8907 C   0  0  0  0  0  0  0  0  0  0  0  0
    1.2552   -5.1458   -3.5926 C   0  0  0  0  0  0  0  0  0  0  0  0
    1.0293   -5.5850   -2.2207 C   0  0  0  0  0  0  0  0  0  0  0  0
    2.6432   -3.7730   -5.1224 O   0  0  0  0  0  0  0  0  0  0  0  0
    3.9684   -3.1030   -5.2900 C   0  0  0  0  0  0  0  0  0  0  0  0
    4.2548   -1.7398   -4.5737 C   0  0  0  0  0  0  0  0  0  0  0  0
    4.5251   -1.8779   -3.1416 N   0  0  0  0  0  0  0  0  0  0  0  0
    5.1193   -0.8014   -2.3950 C   0  0  0  0  0  0  0  0  0  0  0  0
    6.5011   -1.4148   -2.2313 C   0  0  0  0  0  0  0  0  0  0  0  0
    6.2709   -2.8683   -1.8776 C   0  0  0  0  0  0  0  0  0  0  0  0
    5.0204   -3.1503   -2.6137 C   0  0  0  0  0  0  0  0  0  0  0  0
   -0.8520    1.0508    4.4792 C   0  0  0  0  0  0  0  0  0  0  0  0
   -1.9405    1.8828    4.1703 C   0  0  0  0  0  0  0  0  0  0  0  0
   -2.3367    2.9314    5.0014 C   0  0  0  0  0  0  0  0  0  0  0  0
   -1.6551    3.1229    6.2068 C   0  0  0  0  0  0  0  0  0  0  0  0
   -0.6935    2.1855    6.6158 C   0  0  0  0  0  0  0  0  0  0  0  0
   -0.2409    1.2070    5.7301 C   0  0  0  0  0  0  0  0  0  0  0  0
    1.1470    0.2825    6.2026 Cl  0  0  0  0  0  0  0  0  0  0  0  0
   -3.4367    3.7905    4.6839 O   0  0  0  0  0  0  0  0  0  0  0  0
   -4.2963    3.5433    3.6140 C   0  0  0  0  0  0  0  0  0  0  0  0
   -4.2179    2.6267    2.7728 O   0  0  0  0  0  0  0  0  0  0  0  0
   -5.4619    4.4294    3.5464 C   0  0  0  0  0  0  0  0  0  0  0  0
   -5.3416    5.8145    3.6408 C   0  0  0  0  0  0  0  0  0  0  0  0
   -6.4709    6.6112    3.4288 C   0  0  0  0  0  0  0  0  0  0  0  0
   -7.7335    6.0264    3.2989 C   0  0  0  0  0  0  0  0  0  0  0  0
   -7.8602    4.6411    3.2809 C   0  0  0  0  0  0  0  0  0  0  0  0
   -6.7129    3.8548    3.2653 C   0  0  0  0  0  0  0  0  0  0  0  0
    0.5590    0.9324   -0.2908 H   0  0  0  0  0  0  0  0  0  0  0  0
    0.5600   -0.7377   -0.8480 H   0  0  0  0  0  0  0  0  0  0  0  0
    2.0160   -0.0501   -0.0690 H   0  0  0  0  0  0  0  0  0  0  0  0
   -0.0609    1.4807    1.9083 H   0  0  0  0  0  0  0  0  0  0  0  0
   -0.6665   -1.6175    4.8240 H   0  0  0  0  0  0  0  0  0  0  0  0
    1.2854   -6.0688    0.6059 H   0  0  0  0  0  0  0  0  0  0  0  0
    2.7338   -3.1675   -0.7060 H   0  0  0  0  0  0  0  0  0  0  0  0
    2.5911   -2.3668   -2.9651 H   0  0  0  0  0  0  0  0  0  0  0  0
    0.5447   -5.4345   -4.3655 H   0  0  0  0  0  0  0  0  0  0  0  0
    0.3267   -6.3916   -2.0444 H   0  0  0  0  0  0  0  0  0  0  0  0
    4.8029   -3.7975   -5.1180 H   0  0  0  0  0  0  0  0  0  0  0  0
    4.0781   -2.9040   -6.3670 H   0  0  0  0  0  0  0  0  0  0  0  0
    5.1134   -1.2302   -5.0347 H   0  0  0  0  0  0  0  0  0  0  0  0
    3.3884   -1.0823   -4.7517 H   0  0  0  0  0  0  0  0  0  0  0  0
    4.5871   -0.6796   -1.4366 H   0  0  0  0  0  0  0  0  0  0  0  0
    5.0952    0.1684   -2.9019 H   0  0  0  0  0  0  0  0  0  0  0  0
    6.9895   -1.3941   -3.2118 H   0  0  0  0  0  0  0  0  0  0  0  0
    7.1090   -0.9201   -1.4828 H   0  0  0  0  0  0  0  0  0  0  0  0
    7.0221   -3.5892   -2.1990 H   0  0  0  0  0  0  0  0  0  0  0  0
    6.0699   -3.0052   -0.8047 H   0  0  0  0  0  0  0  0  0  0  0  0
    5.0565   -4.0098   -3.2790 H   0  0  0  0  0  0  0  0  0  0  0  0
    4.4191   -3.5073   -1.7935 H   0  0  0  0  0  0  0  0  0  0  0  0
   -2.4561    1.6687    3.2443 H   0  0  0  0  0  0  0  0  0  0  0  0
   -1.8439    3.9816    6.8451 H   0  0  0  0  0  0  0  0  0  0  0  0
   -0.2802    2.2167    7.6217 H   0  0  0  0  0  0  0  0  0  0  0  0
   -4.3758    6.2751    3.8189 H   0  0  0  0  0  0  0  0  0  0  0  0
   -6.3729    7.6925    3.3744 H   0  0  0  0  0  0  0  0  0  0  0  0
   -8.6186    6.6496    3.1948 H   0  0  0  0  0  0  0  0  0  0  0  0
   -8.8425    4.1755    3.2605 H   0  0  0  0  0  0  0  0  0  0  0  0
   -6.7954    2.7950    3.0255 H   0  0  0  0  0  0  0  0  0  0  0  0
  1  2  1  0  0  0  0
  1 43  1  0  0  0  0
  1 44  1  0  0  0  0
  1 45  1  0  0  0  0
  2  3  1  0  0  0  0
  2  7  2  0  0  0  0
  3  4  2  0  0  0  0
  3 46  1  0  0  0  0
  4  5  1  0  0  0  0
  4 27  1  0  0  0  0
  5  6  2  0  0  0  0
  5 47  1  0  0  0  0
  6  7  1  0  0  0  0
  6 11  1  0  0  0  0
  7  8  1  0  0  0  0
  8  9  2  0  0  0  0
  9 10  1  0  0  0  0
  9 12  1  0  0  0  0
 10 11  2  0  0  0  0
 12 13  1  0  0  0  0
 12 48  1  0  0  0  0
 13 14  2  0  0  0  0
 13 18  1  0  0  0  0
 14 15  1  0  0  0  0
 14 49  1  0  0  0  0
 15 16  2  0  0  0  0
 15 50  1  0  0  0  0
 16 17  1  0  0  0  0
 16 19  1  0  0  0  0
 17 18  2  0  0  0  0
 17 51  1  0  0  0  0
 18 52  1  0  0  0  0
 19 20  1  0  0  0  0
 20 21  1  0  0  0  0
 20 53  1  0  0  0  0
 20 54  1  0  0  0  0
 21 22  1  0  0  0  0
 21 55  1  0  0  0  0
 21 56  1  0  0  0  0
 22 23  1  0  0  0  0
 22 26  1  0  0  0  0
 23 24  1  0  0  0  0
 23 57  1  0  0  0  0
 23 58  1  0  0  0  0
 24 25  1  0  0  0  0
 24 59  1  0  0  0  0
 24 60  1  0  0  0  0
 25 26  1  0  0  0  0
 25 61  1  0  0  0  0
 25 62  1  0  0  0  0
 26 63  1  0  0  0  0
 26 64  1  0  0  0  0
 27 28  2  0  0  0  0
 27 32  1  0  0  0  0
 28 29  1  0  0  0  0
 28 65  1  0  0  0  0
 29 30  2  0  0  0  0
 29 34  1  0  0  0  0
 30 31  1  0  0  0  0
 30 66  1  0  0  0  0
 31 32  2  0  0  0  0
 31 67  1  0  0  0  0
 32 33  1  0  0  0  0
 34 35  1  0  0  0  0
 35 36  2  0  0  0  0
 35 37  1  0  0  0  0
 37 38  2  0  0  0  0
 37 42  1  0  0  0  0
 38 39  1  0  0  0  0
 38 68  1  0  0  0  0
 39 40  2  0  0  0  0
 39 69  1  0  0  0  0
 40 41  1  0  0  0  0
 40 70  1  0  0  0  0
 41 42  2  0  0  0  0
 41 71  1  0  0  0  0
 42 72  1  0  0  0  0
M  END
>  <DRUGBANK_ID>
DB05075

>  <COMMON_NAME>
TG-100801

>  <CAS_NUMBER>
867331-82-6

>  <UNII>
1VZO7A0J9S

$$$$
