
 OpenBabel10282417113D

 54 56  0  0  0  0  0  0  0  0999 V2000
    1.1364   -0.1983   -0.2406 C   0  0  0  0  0  0  0  0  0  0  0  0
    0.4143    0.4359   -1.2765 N   0  0  0  0  0  0  0  0  0  0  0  0
   -0.9341    0.8533   -1.3980 C   0  0  0  0  0  0  0  0  0  0  0  0
    0.4752   -1.0846    0.7960 C   0  0  0  0  0  0  0  0  0  0  0  0
    2.3196   -0.0033   -0.1526 O   0  0  0  0  0  0  0  0  0  0  0  0
   -1.6135    1.5429   -0.4081 C   0  0  0  0  0  0  0  0  0  0  0  0
   -0.9724    1.5211    1.0453 C   0  0  0  0  0  0  0  0  0  0  0  0
    0.9359   -0.9894    2.1330 C   0  0  0  0  0  0  0  0  0  0  0  0
   -0.6818   -1.8165    0.5455 C   0  0  0  0  0  0  0  0  0  0  0  0
   -0.9574   -2.2684    2.9447 C   0  0  0  0  0  0  0  0  0  0  0  0
   -1.3867   -2.3995    1.6144 C   0  0  0  0  0  0  0  0  0  0  0  0
    0.2010   -1.5406    3.2020 C   0  0  0  0  0  0  0  0  0  0  0  0
   -1.8358   -2.7363    3.8910 O   0  0  0  0  0  0  0  0  0  0  0  0
   -1.5824    0.6696   -2.6560 C   0  0  0  0  0  0  0  0  0  0  0  0
   -2.9698    1.9014   -0.8281 C   0  0  0  0  0  0  0  0  0  0  0  0
   -1.4299   -2.6624    5.2560 C   0  0  0  0  0  0  0  0  0  0  0  0
   -2.9563    0.8855   -2.8903 C   0  0  0  0  0  0  0  0  0  0  0  0
   -3.6952    1.3896   -1.8917 C   0  0  0  0  0  0  0  0  0  0  0  0
   -1.2790    2.4141    2.2379 C   0  0  0  0  0  0  0  0  0  0  0  0
   -3.1792    1.3199    3.8116 N   0  0  0  0  0  0  0  0  0  0  0  0
   -2.7236    2.2940    2.8249 C   0  0  3  0  0  0  0  0  0  0  0  0
   -2.3757    1.4386    4.9993 C   0  0  0  0  0  0  0  0  0  0  0  0
   -3.2117   -0.0796    3.3790 C   0  0  0  0  0  0  0  0  0  0  0  0
   -3.6797    2.0595    1.7100 C   0  0  0  0  0  0  0  0  0  0  0  0
   -4.1231   -0.4116    2.2189 C   0  0  0  0  0  0  0  0  0  0  0  0
   -3.7155    0.5220    1.1618 C   0  0  0  0  0  0  0  0  0  0  0  0
    1.0378    1.0793   -1.7592 H   0  0  0  0  0  0  0  0  0  0  0  0
   -1.1301    0.5366    1.4822 H   0  0  0  0  0  0  0  0  0  0  0  0
    0.1176    1.5822    0.9644 H   0  0  0  0  0  0  0  0  0  0  0  0
    1.7999   -0.3707    2.3707 H   0  0  0  0  0  0  0  0  0  0  0  0
   -1.1176   -1.8382   -0.4495 H   0  0  0  0  0  0  0  0  0  0  0  0
   -2.3626   -2.8395    1.4185 H   0  0  0  0  0  0  0  0  0  0  0  0
    0.4927   -1.2871    4.2182 H   0  0  0  0  0  0  0  0  0  0  0  0
   -1.0247    0.2708   -3.4877 H   0  0  0  0  0  0  0  0  0  0  0  0
   -3.7875    2.3705   -0.3028 H   0  0  0  0  0  0  0  0  0  0  0  0
   -0.4696   -3.1650    5.3922 H   0  0  0  0  0  0  0  0  0  0  0  0
   -1.3889   -1.6277    5.6181 H   0  0  0  0  0  0  0  0  0  0  0  0
   -2.1737   -3.1887    5.8649 H   0  0  0  0  0  0  0  0  0  0  0  0
   -3.4761    0.6895   -3.8176 H   0  0  0  0  0  0  0  0  0  0  0  0
   -4.7935    1.3994   -1.8610 H   0  0  0  0  0  0  0  0  0  0  0  0
   -0.5426    2.2276    3.0381 H   0  0  0  0  0  0  0  0  0  0  0  0
   -1.0481    3.4279    1.8875 H   0  0  0  0  0  0  0  0  0  0  0  0
   -2.9068    3.3050    3.2251 H   0  0  0  0  0  0  0  0  0  0  0  0
   -2.7380    0.7263    5.7392 H   0  0  0  0  0  0  0  0  0  0  0  0
   -1.3242    1.2312    4.7875 H   0  0  0  0  0  0  0  0  0  0  0  0
   -2.4848    2.4487    5.3971 H   0  0  0  0  0  0  0  0  0  0  0  0
   -2.1874   -0.2905    3.1008 H   0  0  0  0  0  0  0  0  0  0  0  0
   -3.5002   -0.7479    4.1862 H   0  0  0  0  0  0  0  0  0  0  0  0
   -4.7016    2.3779    1.9064 H   0  0  0  0  0  0  0  0  0  0  0  0
   -3.2973    2.9034    1.1112 H   0  0  0  0  0  0  0  0  0  0  0  0
   -5.1906   -0.2736    2.3657 H   0  0  0  0  0  0  0  0  0  0  0  0
   -3.9741   -1.4338    1.8380 H   0  0  0  0  0  0  0  0  0  0  0  0
   -4.3591    0.3180    0.3030 H   0  0  0  0  0  0  0  0  0  0  0  0
   -2.7701    0.0706    0.8452 H   0  0  0  0  0  0  0  0  0  0  0  0
  2  1  1  0  0  0  0
  2 27  1  0  0  0  0
  3  2  1  0  0  0  0
  4  1  1  0  0  0  0
  5  1  2  0  0  0  0
  6  3  1  0  0  0  0
  7  6  1  0  0  0  0
  7 19  1  0  0  0  0
  7 28  1  0  0  0  0
  7 29  1  0  0  0  0
  8  4  1  0  0  0  0
  8 30  1  0  0  0  0
  9  4  2  0  0  0  0
  9 31  1  0  0  0  0
 10 11  2  0  0  0  0
 11  9  1  0  0  0  0
 11 32  1  0  0  0  0
 12  8  2  0  0  0  0
 12 10  1  0  0  0  0
 12 33  1  0  0  0  0
 13 10  1  0  0  0  0
 14  3  2  0  0  0  0
 14 34  1  0  0  0  0
 15  6  2  0  0  0  0
 15 35  1  0  0  0  0
 16 13  1  0  0  0  0
 16 36  1  0  0  0  0
 16 37  1  0  0  0  0
 16 38  1  0  0  0  0
 17 14  1  0  0  0  0
 17 39  1  0  0  0  0
 18 17  2  0  0  0  0
 18 15  1  0  0  0  0
 18 40  1  0  0  0  0
 19 41  1  0  0  0  0
 19 42  1  0  0  0  0
 20 21  1  0  0  0  0
 21 19  1  0  0  0  0
 21 43  1  0  0  0  0
 22 20  1  0  0  0  0
 22 44  1  0  0  0  0
 22 45  1  0  0  0  0
 22 46  1  0  0  0  0
 23 20  1  0  0  0  0
 23 47  1  0  0  0  0
 23 48  1  0  0  0  0
 24 21  1  0  0  0  0
 24 49  1  0  0  0  0
 24 50  1  0  0  0  0
 25 26  1  0  0  0  0
 25 23  1  0  0  0  0
 25 51  1  0  0  0  0
 25 52  1  0  0  0  0
 26 24  1  0  0  0  0
 26 53  1  0  0  0  0
 26 54  1  0  0  0  0
M  END
>  <DRUGBANK_ID>
DB01228

>  <SECONDARY_ACCESSION_NUMBERS>
APRD00613

>  <COMMON_NAME>
Encainide

>  <CAS_NUMBER>
66778-36-7

>  <UNII>
SY3J0147NB

>  <SYNONYMS>
(±)-2'-[2-(1-methyl-2-piperidyl)ethyl]-p-anisanilide; (±)-4-methoxy-N-(2-(2-(1-methyl-2-piperidinyl)ethyl)phenyl)benzamide; 4-methoxy-2'-[2-(1-methyl-2-piperidyl)ethyl]benzanilide; 4-Methoxy-N-{2-[2-(1-methyl-piperidin-2-yl)-ethyl]-phenyl}-benzamide; Encainida; Encainide; Encainidum

$$$$
