
 OpenBabel10282417173D

 53 54  0  0  0  0  0  0  0  0999 V2000
   -1.2894    1.1335    0.3579 C   0  0  0  0  0  0  0  0  0  0  0  0
   -0.1880    2.0190    0.2814 C   0  0  0  0  0  0  0  0  0  0  0  0
    1.0637    1.5130    0.2837 C   0  0  0  0  0  0  0  0  0  0  0  0
    1.1838    0.1666    0.1475 C   0  0  0  0  0  0  0  0  0  0  0  0
   -1.1489   -0.2629    0.3386 C   0  0  0  0  0  0  0  0  0  0  0  0
    0.1201   -0.8253    0.2736 C   0  0  0  0  0  0  0  0  0  0  0  0
    1.3600   -3.3220   -2.2432 C   0  0  0  0  0  0  0  0  0  0  0  0
    1.3411   -2.3402   -1.1234 C   0  0  1  0  0  0  0  0  0  0  0  0
    0.2591   -2.3686   -0.0440 C   0  0  1  0  0  0  0  0  0  0  0  0
    0.6661   -3.4144    1.0451 C   0  0  0  0  0  0  0  0  0  0  0  0
    1.9326   -3.8784    1.2375 C   0  0  0  0  0  0  0  0  0  0  0  0
    3.1366   -3.3029    0.5575 C   0  0  0  0  0  0  0  0  0  0  0  0
    2.6857   -2.2375   -0.3551 C   0  0  0  0  0  0  0  0  0  0  0  0
    2.3788   -5.0183    2.0899 C   0  0  0  0  0  0  0  0  0  0  0  0
    2.3852    0.0766   -0.5508 O   0  0  0  0  0  0  0  0  0  0  0  0
   -0.1782    3.4958    0.0409 C   0  0  0  0  0  0  0  0  0  0  0  0
   -0.8357    3.8825   -1.2781 C   0  0  0  0  0  0  0  0  0  0  0  0
   -2.3101    3.4911   -1.3244 C   0  0  0  0  0  0  0  0  0  0  0  0
   -3.0420    3.9118   -0.0405 C   0  0  0  0  0  0  0  0  0  0  0  0
   -3.0447    5.4210    0.0788 C   0  0  0  0  0  0  0  0  0  0  0  0
    1.1351   -2.8845   -3.5139 C   0  0  0  0  0  0  0  0  0  0  0  0
    1.7724   -4.7039   -1.9261 C   0  0  0  0  0  0  0  0  0  0  0  0
   -2.2733   -1.0354    0.1974 O   0  0  0  0  0  0  0  0  0  0  0  0
   -2.2996    1.5119    0.3487 H   0  0  0  0  0  0  0  0  0  0  0  0
    1.9371    2.1382    0.0951 H   0  0  0  0  0  0  0  0  0  0  0  0
    1.1396   -1.4085   -1.6717 H   0  0  0  0  0  0  0  0  0  0  0  0
   -0.6947   -2.7367   -0.4610 H   0  0  0  0  0  0  0  0  0  0  0  0
   -0.1541   -3.9670    1.5093 H   0  0  0  0  0  0  0  0  0  0  0  0
    3.7826   -2.8417    1.3237 H   0  0  0  0  0  0  0  0  0  0  0  0
    3.7709   -4.0014    0.0215 H   0  0  0  0  0  0  0  0  0  0  0  0
    3.4786   -1.8608   -0.9979 H   0  0  0  0  0  0  0  0  0  0  0  0
    2.5384   -1.5576    0.4887 H   0  0  0  0  0  0  0  0  0  0  0  0
    2.9817   -5.6992    1.4719 H   0  0  0  0  0  0  0  0  0  0  0  0
    3.0337   -4.6318    2.8792 H   0  0  0  0  0  0  0  0  0  0  0  0
    1.5595   -5.5814    2.5279 H   0  0  0  0  0  0  0  0  0  0  0  0
    3.1016    0.1617    0.1064 H   0  0  0  0  0  0  0  0  0  0  0  0
   -0.5720    3.9816    0.9320 H   0  0  0  0  0  0  0  0  0  0  0  0
    0.8580    3.8682   -0.0243 H   0  0  0  0  0  0  0  0  0  0  0  0
   -0.7284    4.9656   -1.4002 H   0  0  0  0  0  0  0  0  0  0  0  0
   -0.3051    3.4359   -2.1309 H   0  0  0  0  0  0  0  0  0  0  0  0
   -2.7862    3.9391   -2.1997 H   0  0  0  0  0  0  0  0  0  0  0  0
   -2.3981    2.4133   -1.5016 H   0  0  0  0  0  0  0  0  0  0  0  0
   -4.0567    3.5070   -0.0415 H   0  0  0  0  0  0  0  0  0  0  0  0
   -2.5816    3.5101    0.8705 H   0  0  0  0  0  0  0  0  0  0  0  0
   -3.5368    5.8514   -0.7951 H   0  0  0  0  0  0  0  0  0  0  0  0
   -3.5613    5.7328    0.9870 H   0  0  0  0  0  0  0  0  0  0  0  0
   -2.0270    5.8231    0.1322 H   0  0  0  0  0  0  0  0  0  0  0  0
    1.2713   -3.5351   -4.3580 H   0  0  0  0  0  0  0  0  0  0  0  0
    0.8612   -1.8525   -3.7122 H   0  0  0  0  0  0  0  0  0  0  0  0
    2.7810   -4.6945   -1.5174 H   0  0  0  0  0  0  0  0  0  0  0  0
    1.0891   -5.1411   -1.1929 H   0  0  0  0  0  0  0  0  0  0  0  0
    1.8172   -5.3370   -2.8073 H   0  0  0  0  0  0  0  0  0  0  0  0
   -3.0423   -0.4633    0.0235 H   0  0  0  0  0  0  0  0  0  0  0  0
  1  2  2  0  0  0  0
  1 24  1  0  0  0  0
  2  3  1  0  0  0  0
  2 16  1  0  0  0  0
  3  4  2  0  0  0  0
  3 25  1  0  0  0  0
  4 15  1  0  0  0  0
  4  6  1  0  0  0  0
  5  6  2  0  0  0  0
  5  1  1  0  0  0  0
  5 23  1  0  0  0  0
  7 21  2  0  0  0  0
  7 22  1  0  0  0  0
  8 13  1  0  0  0  0
  8  7  1  0  0  0  0
  8  9  1  0  0  0  0
  8 26  1  6  0  0  0
  9 10  1  0  0  0  0
  9  6  1  0  0  0  0
  9 27  1  6  0  0  0
 10 11  2  0  0  0  0
 10 28  1  0  0  0  0
 11 12  1  0  0  0  0
 11 14  1  0  0  0  0
 12 13  1  0  0  0  0
 12 29  1  0  0  0  0
 12 30  1  0  0  0  0
 13 31  1  0  0  0  0
 13 32  1  0  0  0  0
 14 33  1  0  0  0  0
 14 34  1  0  0  0  0
 14 35  1  0  0  0  0
 15 36  1  0  0  0  0
 16 17  1  0  0  0  0
 16 37  1  0  0  0  0
 16 38  1  0  0  0  0
 17 18  1  0  0  0  0
 17 39  1  0  0  0  0
 17 40  1  0  0  0  0
 18 19  1  0  0  0  0
 18 41  1  0  0  0  0
 18 42  1  0  0  0  0
 19 20  1  0  0  0  0
 19 43  1  0  0  0  0
 19 44  1  0  0  0  0
 20 45  1  0  0  0  0
 20 46  1  0  0  0  0
 20 47  1  0  0  0  0
 21 48  1  0  0  0  0
 21 49  1  0  0  0  0
 22 50  1  0  0  0  0
 22 51  1  0  0  0  0
 22 52  1  0  0  0  0
 23 53  1  0  0  0  0
M  END
>  <DRUGBANK_ID>
DB09061

>  <COMMON_NAME>
Cannabidiol

>  <CAS_NUMBER>
13956-29-1

>  <UNII>
19GBJ60SN5

>  <SYNONYMS>
.DELTA.1(2)-TRANS-CANNABIDIOL; (−)-trans-2-p-mentha-1,8-dien-3-yl-5-pentylresorcinol; (−)-trans-cannabidiol; (1'R,2'R)-5'-methyl-4-pentyl-2'-(prop-1-en-2-yl)-1',2',3',4'-tetrahydrobiphenyl-2,6-diol; Cannabidiol; CBD; Δ1(2)-trans-cannabidiol

$$$$
