
 OpenBabel10282417123D

 36 37  0  0  1  0  0  0  0  0999 V2000
    1.0834    0.0652   -0.0254 C   0  0  0  0  0  0  0  0  0  0  0  0
    0.6476   -0.6198    1.2286 C   0  0  0  0  0  0  0  0  0  0  0  0
    0.9147   -1.9041    1.4935 C   0  0  0  0  0  0  0  0  0  0  0  0
    0.4012   -2.5468    2.6051 N   0  0  0  0  0  0  0  0  0  0  0  0
    0.5133   -3.9690    2.7876 C   0  0  1  0  0  0  0  0  0  0  0  0
   -0.1508   -4.7721    1.6992 C   0  0  0  0  0  0  0  0  0  0  0  0
    0.6236   -6.0371    1.8186 C   0  0  2  0  0  0  0  0  0  0  0  0
    0.1664   -6.9438    2.8012 O   0  0  0  0  0  0  0  0  0  0  0  0
    2.0623   -5.5523    2.0863 C   0  0  1  0  0  0  0  0  0  0  0  0
    2.9212   -5.1371    0.8828 C   0  0  0  0  0  0  0  0  0  0  0  0
    2.3447   -5.5309   -0.3477 O   0  0  0  0  0  0  0  0  0  0  0  0
    1.8222   -7.1787   -0.4156 P   0  0  0  0  0  0  0  0  0  0  0  0
    1.9595   -6.9817   -2.0339 O   0  0  0  0  0  0  0  0  0  0  0  0
    3.3940   -7.6261   -0.2574 O   0  0  0  0  0  0  0  0  0  0  0  0
    1.3546   -8.6535   -0.4764 O   0  0  0  0  0  0  0  0  0  0  0  0
    1.8961   -4.3506    2.8636 O   0  0  0  0  0  0  0  0  0  0  0  0
   -0.3234   -1.8701    3.5678 C   0  0  0  0  0  0  0  0  0  0  0  0
   -0.8881   -2.4121    4.5147 O   0  0  0  0  0  0  0  0  0  0  0  0
   -0.4102   -0.5227    3.3971 N   0  0  0  0  0  0  0  0  0  0  0  0
   -0.1472    0.1377    2.2291 C   0  0  0  0  0  0  0  0  0  0  0  0
   -0.5465    1.2700    2.0275 O   0  0  0  0  0  0  0  0  0  0  0  0
    0.7070    1.0898   -0.0968 H   0  0  0  0  0  0  0  0  0  0  0  0
    0.7121   -0.4744   -0.9046 H   0  0  0  0  0  0  0  0  0  0  0  0
    2.1756    0.1061   -0.0781 H   0  0  0  0  0  0  0  0  0  0  0  0
    1.5173   -2.4915    0.8059 H   0  0  0  0  0  0  0  0  0  0  0  0
    0.0746   -4.2923    3.7349 H   0  0  0  0  0  0  0  0  0  0  0  0
    0.0181   -4.3478    0.6977 H   0  0  0  0  0  0  0  0  0  0  0  0
   -1.2233   -4.9189    1.8297 H   0  0  0  0  0  0  0  0  0  0  0  0
    0.3664   -6.5573    0.9184 H   0  0  0  0  0  0  0  0  0  0  0  0
    0.2714   -6.5770    3.6920 H   0  0  0  0  0  0  0  0  0  0  0  0
    2.6301   -6.2640    2.6988 H   0  0  0  0  0  0  0  0  0  0  0  0
    3.1193   -4.0616    0.8413 H   0  0  0  0  0  0  0  0  0  0  0  0
    3.9329   -5.5518    0.9744 H   0  0  0  0  0  0  0  0  0  0  0  0
    1.1039   -6.9572   -2.4816 H   0  0  0  0  0  0  0  0  0  0  0  0
    3.9525   -7.3008    0.4580 H   0  0  0  0  0  0  0  0  0  0  0  0
   -0.9549   -0.0316    4.0858 H   0  0  0  0  0  0  0  0  0  0  0  0
  1  2  1  0  0  0  0
  1 22  1  0  0  0  0
  1 23  1  0  0  0  0
  1 24  1  0  0  0  0
  2  3  2  0  0  0  0
  2 20  1  0  0  0  0
  3  4  1  0  0  0  0
  3 25  1  0  0  0  0
  4 17  1  0  0  0  0
  5  4  1  0  0  0  0
  5  6  1  0  0  0  0
  5 16  1  0  0  0  0
  5 26  1  1  0  0  0
  6  7  1  0  0  0  0
  6 27  1  0  0  0  0
  6 28  1  0  0  0  0
  7  8  1  0  0  0  0
  7  9  1  0  0  0  0
  7 29  1  6  0  0  0
  8 30  1  0  0  0  0
  9 16  1  0  0  0  0
  9 31  1  1  0  0  0
  9 10  1  0  0  0  0
 10 11  1  0  0  0  0
 10 32  1  0  0  0  0
 10 33  1  0  0  0  0
 11 12  1  0  0  0  0
 12 13  1  0  0  0  0
 12 14  1  0  0  0  0
 12 15  2  0  0  0  0
 13 34  1  0  0  0  0
 14 35  1  0  0  0  0
 17 18  2  0  0  0  0
 17 19  1  0  0  0  0
 19 20  1  0  0  0  0
 19 36  1  0  0  0  0
 20 21  2  0  0  0  0
M  END
>  <DRUGBANK_ID>
DB01643

>  <SECONDARY_ACCESSION_NUMBERS>
EXPT03073; EXPT02988

>  <COMMON_NAME>
Thymidine monophosphate

>  <CAS_NUMBER>
365-07-1

>  <UNII>
43W3021X6C

>  <SYNONYMS>
2'-deoxy-5-methyluridine 5'-(dihydrogen phosphate); 5-Methyl-dUMP; 5'-Thymidylic acid; 5'-TMP; Deoxyribosylthymine monophosphate; Deoxythymidine monophosphate; dTMP; ribothymidine 5'-monophosphate; thymidine 5'-(dihydrogen phosphate); Thymidine 5'-phosphate; Thymidine 5'-phosphoric acid; Thymidine mononucleotide; Thymidine monophosphate; Thymidine-5'-Monophosphate; Thymidine-5'-monophosphoric acid; Thymidine-5'-phosphate; Thymidylate; Thymidylic acid; TMP

$$$$
