K05
 OpenBabel10282417173D

 41 43  0  0  0  0  0  0  0  0999 V2000
    0.9100   -0.0308    0.1040 N   0  0  0  0  0  0  0  0  0  0  0  0
    2.2709   -0.0596    0.1279 N   0  0  0  0  0  0  0  0  0  0  0  0
    2.9983    0.4905    1.1801 C   0  0  0  0  0  0  0  0  0  0  0  0
    4.2293    0.5406    1.1478 O   0  0  0  0  0  0  0  0  0  0  0  0
    2.2654    1.0434    2.3574 C   0  0  0  0  0  0  0  0  0  0  0  0
    2.6491    2.2754    2.9030 C   0  0  0  0  0  0  0  0  0  0  0  0
    1.9110    2.8134    3.9545 C   0  0  0  0  0  0  0  0  0  0  0  0
    0.8087    2.1367    4.4786 C   0  0  0  0  0  0  0  0  0  0  0  0
    0.4512    0.8908    3.9770 C   0  0  0  0  0  0  0  0  0  0  0  0
    1.1953    0.3384    2.9300 C   0  0  0  0  0  0  0  0  0  0  0  0
    0.1023    2.7335    5.4869 O   0  0  0  0  0  0  0  0  0  0  0  0
    2.2756    4.0307    4.4610 O   0  0  0  0  0  0  0  0  0  0  0  0
    0.2847   -0.4934   -0.9318 C   0  0  0  0  0  0  0  0  0  0  0  0
   -1.2112   -0.4697   -0.9873 C   0  0  0  0  0  0  0  0  0  0  0  0
   -1.8905    0.6830   -0.5344 C   0  0  0  0  0  0  0  0  0  0  0  0
   -1.1275    1.7444   -0.1257 O   0  0  0  0  0  0  0  0  0  0  0  0
   -3.2858    0.7111   -0.5641 C   0  0  0  0  0  0  0  0  0  0  0  0
   -4.0081   -0.3787   -1.0458 C   0  0  0  0  0  0  0  0  0  0  0  0
   -3.3560   -1.5165   -1.5299 C   0  0  0  0  0  0  0  0  0  0  0  0
   -4.1194   -2.5797   -2.0422 C   0  0  0  0  0  0  0  0  0  0  0  0
   -3.5058   -3.7303   -2.5271 C   0  0  0  0  0  0  0  0  0  0  0  0
   -2.1218   -3.8328   -2.4943 C   0  0  0  0  0  0  0  0  0  0  0  0
   -1.3489   -2.7830   -1.9840 C   0  0  0  0  0  0  0  0  0  0  0  0
   -1.9362   -1.5876   -1.5033 C   0  0  0  0  0  0  0  0  0  0  0  0
   -1.7905    2.9105    0.3368 C   0  0  0  0  0  0  0  0  0  0  0  0
    2.7985   -0.3728   -0.6798 H   0  0  0  0  0  0  0  0  0  0  0  0
    3.4968    2.8239    2.5035 H   0  0  0  0  0  0  0  0  0  0  0  0
   -0.3968    0.3364    4.3640 H   0  0  0  0  0  0  0  0  0  0  0  0
    0.9249   -0.6393    2.5388 H   0  0  0  0  0  0  0  0  0  0  0  0
   -0.6316    2.1439    5.7345 H   0  0  0  0  0  0  0  0  0  0  0  0
    1.6374    4.2155    5.1774 H   0  0  0  0  0  0  0  0  0  0  0  0
    0.8188   -0.9299   -1.7937 H   0  0  0  0  0  0  0  0  0  0  0  0
   -3.8489    1.5772   -0.2322 H   0  0  0  0  0  0  0  0  0  0  0  0
   -5.0958   -0.3199   -1.0453 H   0  0  0  0  0  0  0  0  0  0  0  0
   -5.2065   -2.5175   -2.0755 H   0  0  0  0  0  0  0  0  0  0  0  0
   -4.1079   -4.5436   -2.9254 H   0  0  0  0  0  0  0  0  0  0  0  0
   -1.6376   -4.7319   -2.8673 H   0  0  0  0  0  0  0  0  0  0  0  0
   -0.2710   -2.9197   -1.9653 H   0  0  0  0  0  0  0  0  0  0  0  0
   -2.3702    3.3696   -0.4704 H   0  0  0  0  0  0  0  0  0  0  0  0
   -2.4214    2.6912    1.2044 H   0  0  0  0  0  0  0  0  0  0  0  0
   -1.0278    3.6282    0.6516 H   0  0  0  0  0  0  0  0  0  0  0  0
  1 13  2  0  0  0  0
  1  2  1  0  0  0  0
  2  3  1  0  0  0  0
  2 26  1  0  0  0  0
  3  4  2  0  0  0  0
  3  5  1  0  0  0  0
  5  6  2  0  0  0  0
  5 10  1  0  0  0  0
  6  7  1  0  0  0  0
  6 27  1  0  0  0  0
  7 12  1  0  0  0  0
  7  8  2  0  0  0  0
  8  9  1  0  0  0  0
  8 11  1  0  0  0  0
  9 10  2  0  0  0  0
  9 28  1  0  0  0  0
 10 29  1  0  0  0  0
 11 30  1  0  0  0  0
 12 31  1  0  0  0  0
 13 14  1  0  0  0  0
 13 32  1  0  0  0  0
 14 15  2  0  0  0  0
 14 24  1  0  0  0  0
 15 17  1  0  0  0  0
 15 16  1  0  0  0  0
 16 25  1  0  0  0  0
 17 18  2  0  0  0  0
 17 33  1  0  0  0  0
 18 19  1  0  0  0  0
 18 34  1  0  0  0  0
 19 20  2  0  0  0  0
 19 24  1  0  0  0  0
 20 21  1  0  0  0  0
 20 35  1  0  0  0  0
 21 22  2  0  0  0  0
 21 36  1  0  0  0  0
 22 23  1  0  0  0  0
 22 37  1  0  0  0  0
 23 24  2  0  0  0  0
 23 38  1  0  0  0  0
 25 39  1  0  0  0  0
 25 40  1  0  0  0  0
 25 41  1  0  0  0  0
M  END
>  <DRUGBANK_ID>
DB08034

>  <COMMON_NAME>
(E)-3,4-DIHYDROXY-N'-[(2-METHOXYNAPHTHALEN-1-YL)METHYLENE]BENZOHYDRAZIDE

$$$$
