
 OpenBabel10282417223D

 50 52  0  0  1  0  0  0  0  0999 V2000
    6.0863    1.0855   -4.3608 C   0  0  0  0  0  0  0  0  0  0  0  0
    5.5109    0.1053   -3.4822 C   0  0  0  0  0  0  0  0  0  0  0  0
    5.0891   -0.7165   -2.7137 C   0  0  0  0  0  0  0  0  0  0  0  0
    4.7115   -1.7291   -1.8069 C   0  0  0  0  0  0  0  0  0  0  0  0
    5.0035   -2.8753   -2.1020 O   0  0  0  0  0  0  0  0  0  0  0  0
    4.0708   -1.2781   -0.6853 N   0  0  0  0  0  0  0  0  0  0  0  0
    3.3841   -2.1868    0.2009 C   0  0  1  0  0  0  0  0  0  0  0  0
    3.5828   -3.6744   -0.0879 C   0  0  0  0  0  0  0  0  0  0  0  0
    3.0722   -4.6469    0.9564 C   0  0  0  0  0  0  0  0  0  0  0  0
    3.5608   -4.2564    2.3503 C   0  0  0  0  0  0  0  0  0  0  0  0
    3.1062   -2.8948    2.6281 N   0  0  0  0  0  0  0  0  0  0  0  0
    3.6380   -1.8629    1.7129 C   0  0  0  0  0  0  0  0  0  0  0  0
    2.2355   -2.6246    3.6912 C   0  0  0  0  0  0  0  0  0  0  0  0
    0.9302   -2.0394    3.5352 C   0  0  0  0  0  0  0  0  0  0  0  0
    0.1747   -1.6306    2.3903 C   0  0  0  0  0  0  0  0  0  0  0  0
    0.5496   -1.7306    1.0032 C   0  0  0  0  0  0  0  0  0  0  0  0
   -1.0338   -1.1392    2.7556 C   0  0  0  0  0  0  0  0  0  0  0  0
   -2.0986   -0.6026    1.8839 C   0  0  0  0  0  0  0  0  0  0  0  0
   -1.0926   -1.2693    4.0996 N   0  0  0  0  0  0  0  0  0  0  0  0
    0.0675   -1.8158    4.6261 C   0  0  0  0  0  0  0  0  0  0  0  0
    0.4329   -2.1381    5.9467 C   0  0  0  0  0  0  0  0  0  0  0  0
    1.7098   -2.7122    6.1159 C   0  0  0  0  0  0  0  0  0  0  0  0
    2.5642   -2.9524    5.0295 C   0  0  0  0  0  0  0  0  0  0  0  0
    3.7690   -3.4911    5.2957 F   0  0  0  0  0  0  0  0  0  0  0  0
   -0.4273   -1.9147    7.1503 C   0  0  0  0  0  0  0  0  0  0  0  0
   -1.6767   -1.3674    7.0199 N   0  0  0  0  0  0  0  0  0  0  0  0
   -0.0345   -2.2126    8.2736 O   0  0  0  0  0  0  0  0  0  0  0  0
    6.7562    1.7290   -3.7862 H   0  0  0  0  0  0  0  0  0  0  0  0
    6.6540    0.5994   -5.1574 H   0  0  0  0  0  0  0  0  0  0  0  0
    5.2894    1.6892   -4.7963 H   0  0  0  0  0  0  0  0  0  0  0  0
    3.7199   -0.3240   -0.7104 H   0  0  0  0  0  0  0  0  0  0  0  0
    2.3909   -1.9661   -0.1704 H   0  0  0  0  0  0  0  0  0  0  0  0
    3.1091   -3.9159   -1.0506 H   0  0  0  0  0  0  0  0  0  0  0  0
    4.6573   -3.8499   -0.1538 H   0  0  0  0  0  0  0  0  0  0  0  0
    1.9786   -4.6995    0.9215 H   0  0  0  0  0  0  0  0  0  0  0  0
    3.4585   -5.6359    0.6842 H   0  0  0  0  0  0  0  0  0  0  0  0
    3.2048   -4.9938    3.0750 H   0  0  0  0  0  0  0  0  0  0  0  0
    4.6591   -4.2796    2.3624 H   0  0  0  0  0  0  0  0  0  0  0  0
    4.7286   -1.8479    1.8379 H   0  0  0  0  0  0  0  0  0  0  0  0
    3.2875   -0.8606    1.9851 H   0  0  0  0  0  0  0  0  0  0  0  0
   -0.1280   -2.2827    0.3560 H   0  0  0  0  0  0  0  0  0  0  0  0
    0.7883   -0.7470    0.5810 H   0  0  0  0  0  0  0  0  0  0  0  0
    1.3735   -2.3918    1.1005 H   0  0  0  0  0  0  0  0  0  0  0  0
   -2.9986   -1.2154    1.9473 H   0  0  0  0  0  0  0  0  0  0  0  0
   -2.3105    0.4369    2.1355 H   0  0  0  0  0  0  0  0  0  0  0  0
   -1.7725   -0.6176    0.8354 H   0  0  0  0  0  0  0  0  0  0  0  0
   -1.9191   -1.0007    4.5899 H   0  0  0  0  0  0  0  0  0  0  0  0
    2.0603   -2.9794    7.1132 H   0  0  0  0  0  0  0  0  0  0  0  0
   -2.2245   -1.2302    7.8582 H   0  0  0  0  0  0  0  0  0  0  0  0
   -2.1303   -1.0725    6.1880 H   0  0  0  0  0  0  0  0  0  0  0  0
  1  2  1  0  0  0  0
  1 28  1  0  0  0  0
  1 29  1  0  0  0  0
  1 30  1  0  0  0  0
  2  3  3  0  0  0  0
  3  4  1  0  0  0  0
  4  5  2  0  0  0  0
  4  6  1  0  0  0  0
  6 31  1  0  0  0  0
  7  8  1  0  0  0  0
  7 12  1  0  0  0  0
  7 32  1  6  0  0  0
  7  6  1  0  0  0  0
  8  9  1  0  0  0  0
  8 33  1  0  0  0  0
  8 34  1  0  0  0  0
  9 10  1  0  0  0  0
  9 35  1  0  0  0  0
  9 36  1  0  0  0  0
 10 11  1  0  0  0  0
 10 37  1  0  0  0  0
 10 38  1  0  0  0  0
 11 12  1  0  0  0  0
 11 13  1  0  0  0  0
 12 39  1  0  0  0  0
 12 40  1  0  0  0  0
 13 14  2  0  0  0  0
 13 23  1  0  0  0  0
 14 15  1  0  0  0  0
 14 20  1  0  0  0  0
 15 16  1  0  0  0  0
 15 17  2  0  0  0  0
 16 41  1  0  0  0  0
 16 42  1  0  0  0  0
 16 43  1  0  0  0  0
 17 18  1  0  0  0  0
 17 19  1  0  0  0  0
 18 44  1  0  0  0  0
 18 45  1  0  0  0  0
 18 46  1  0  0  0  0
 19 20  1  0  0  0  0
 19 47  1  0  0  0  0
 20 21  2  0  0  0  0
 21 22  1  0  0  0  0
 21 25  1  0  0  0  0
 22 23  2  0  0  0  0
 22 48  1  0  0  0  0
 23 24  1  0  0  0  0
 25 26  1  0  0  0  0
 25 27  2  0  0  0  0
 26 49  1  0  0  0  0
 26 50  1  0  0  0  0
M  END
>  <DRUGBANK_ID>
DB15347

>  <COMMON_NAME>
Branebrutinib

>  <CAS_NUMBER>
1912445-55-6

>  <UNII>
7LBRZUYSHU

>  <SYNONYMS>
BMS-986195; Branebrutinib

$$$$
