
 OpenBabel10282417133D

 48 51  0  0  1  0  0  0  0  0999 V2000
    0.9464   -0.1853   -0.0957 C   0  0  0  0  0  0  0  0  0  0  0  0
    0.5770    0.3532   -1.4163 N   0  0  0  0  0  0  0  0  0  0  0  0
    1.7341    0.5153   -2.3135 C   0  0  0  0  0  0  0  0  0  0  0  0
    2.7255    1.6459   -1.9528 C   0  0  0  0  0  0  0  0  0  0  0  0
    1.9987    3.0114   -1.7873 C   0  0  1  0  0  0  0  0  0  0  0  0
    0.7791    2.7583   -0.8980 C   0  0  2  0  0  0  0  0  0  0  0  0
    1.2443    2.4129    0.4058 O   0  0  0  0  0  0  0  0  0  0  0  0
   -0.1387    1.6344   -1.3235 C   0  0  0  0  0  0  0  0  0  0  0  0
    2.8981    4.1378   -1.2147 C   0  0  0  0  0  0  0  0  0  0  0  0
    4.0757    4.4919   -1.8893 C   0  0  0  0  0  0  0  0  0  0  0  0
    4.3452    3.9285   -3.1069 O   0  0  0  0  0  0  0  0  0  0  0  0
    4.9563    5.4329   -1.3530 C   0  0  0  0  0  0  0  0  0  0  0  0
    4.6745    6.0354   -0.1183 C   0  0  0  0  0  0  0  0  0  0  0  0
    5.5579    6.9405    0.3941 O   0  0  0  0  0  0  0  0  0  0  0  0
    3.4923    5.7537    0.5694 C   0  0  0  0  0  0  0  0  0  0  0  0
    2.5973    4.8566   -0.0063 C   0  0  0  0  0  0  0  0  0  0  0  0
    1.3474    4.7138    0.5594 O   0  0  0  0  0  0  0  0  0  0  0  0
    1.0789    5.0808    1.8546 C   0  0  0  0  0  0  0  0  0  0  0  0
    1.8464    5.9575    2.5006 C   0  0  0  0  0  0  0  0  0  0  0  0
    3.1134    6.3753    1.8685 C   0  0  0  0  0  0  0  0  0  0  0  0
    3.8094    7.1993    2.4624 O   0  0  0  0  0  0  0  0  0  0  0  0
   -0.2074    4.5707    2.4067 C   0  0  0  0  0  0  0  0  0  0  0  0
   -1.2675    5.4855    2.5370 C   0  0  0  0  0  0  0  0  0  0  0  0
   -2.5007    5.1051    3.0844 C   0  0  0  0  0  0  0  0  0  0  0  0
   -2.7322    3.7832    3.4486 C   0  0  0  0  0  0  0  0  0  0  0  0
   -1.7126    2.8495    3.3083 C   0  0  0  0  0  0  0  0  0  0  0  0
   -0.4435    3.2492    2.8549 C   0  0  0  0  0  0  0  0  0  0  0  0
    0.8115    2.0796    3.1059 Cl  0  0  0  0  0  0  0  0  0  0  0  0
    0.6043   -1.2136    0.0210 H   0  0  0  0  0  0  0  0  0  0  0  0
    0.4766    0.3501    0.7381 H   0  0  0  0  0  0  0  0  0  0  0  0
    2.0302   -0.1782    0.0766 H   0  0  0  0  0  0  0  0  0  0  0  0
    2.2678   -0.4375   -2.3833 H   0  0  0  0  0  0  0  0  0  0  0  0
    1.3458    0.7199   -3.3199 H   0  0  0  0  0  0  0  0  0  0  0  0
    3.2766    1.3856   -1.0404 H   0  0  0  0  0  0  0  0  0  0  0  0
    3.4936    1.6917   -2.7309 H   0  0  0  0  0  0  0  0  0  0  0  0
    1.6410    3.3369   -2.7746 H   0  0  0  0  0  0  0  0  0  0  0  0
    0.1510    3.6542   -0.8532 H   0  0  0  0  0  0  0  0  0  0  0  0
    2.0433    1.8692    0.3506 H   0  0  0  0  0  0  0  0  0  0  0  0
   -0.5978    1.8999   -2.2827 H   0  0  0  0  0  0  0  0  0  0  0  0
   -0.9603    1.5684   -0.5958 H   0  0  0  0  0  0  0  0  0  0  0  0
    5.1820    4.2740   -3.4608 H   0  0  0  0  0  0  0  0  0  0  0  0
    5.8581    5.7007   -1.8947 H   0  0  0  0  0  0  0  0  0  0  0  0
    6.3080    7.0715   -0.2032 H   0  0  0  0  0  0  0  0  0  0  0  0
    1.5814    6.3789    3.4583 H   0  0  0  0  0  0  0  0  0  0  0  0
   -1.1284    6.5239    2.2442 H   0  0  0  0  0  0  0  0  0  0  0  0
   -3.2793    5.8489    3.2350 H   0  0  0  0  0  0  0  0  0  0  0  0
   -3.6862    3.4860    3.8778 H   0  0  0  0  0  0  0  0  0  0  0  0
   -1.8894    1.8189    3.6120 H   0  0  0  0  0  0  0  0  0  0  0  0
  1  2  1  0  0  0  0
  1 29  1  0  0  0  0
  1 30  1  0  0  0  0
  1 31  1  0  0  0  0
  2  3  1  0  0  0  0
  2  8  1  0  0  0  0
  3  4  1  0  0  0  0
  3 32  1  0  0  0  0
  3 33  1  0  0  0  0
  4  5  1  0  0  0  0
  4 34  1  0  0  0  0
  4 35  1  0  0  0  0
  5  6  1  0  0  0  0
  5  9  1  0  0  0  0
  5 36  1  6  0  0  0
  6  7  1  0  0  0  0
  6  8  1  0  0  0  0
  6 37  1  1  0  0  0
  7 38  1  0  0  0  0
  8 39  1  0  0  0  0
  8 40  1  0  0  0  0
  9 10  2  0  0  0  0
  9 16  1  0  0  0  0
 10 11  1  0  0  0  0
 10 12  1  0  0  0  0
 11 41  1  0  0  0  0
 12 13  2  0  0  0  0
 12 42  1  0  0  0  0
 13 14  1  0  0  0  0
 13 15  1  0  0  0  0
 14 43  1  0  0  0  0
 15 16  2  0  0  0  0
 15 20  1  0  0  0  0
 16 17  1  0  0  0  0
 17 18  1  0  0  0  0
 18 19  2  0  0  0  0
 18 22  1  0  0  0  0
 19 20  1  0  0  0  0
 19 44  1  0  0  0  0
 20 21  2  0  0  0  0
 22 23  2  0  0  0  0
 22 27  1  0  0  0  0
 23 24  1  0  0  0  0
 23 45  1  0  0  0  0
 24 25  2  0  0  0  0
 24 46  1  0  0  0  0
 25 26  1  0  0  0  0
 25 47  1  0  0  0  0
 26 27  2  0  0  0  0
 26 48  1  0  0  0  0
 27 28  1  0  0  0  0
M  END
>  <DRUGBANK_ID>
DB03496

>  <SECONDARY_ACCESSION_NUMBERS>
EXPT00998

>  <COMMON_NAME>
Alvocidib

>  <CAS_NUMBER>
146426-40-6

>  <UNII>
45AD6X575G

>  <SYNONYMS>
Alvocidib; Alvocidib freebase; Flavopiridol

$$$$
