2NI
 OpenBabel10282417163D

 40 41  0  0  0  0  0  0  0  0999 V2000
    1.3333   -0.0639    0.6587 C   0  0  0  0  0  0  0  0  0  0  0  0
    0.4535   -1.1521    0.8042 C   0  0  0  0  0  0  0  0  0  0  0  0
   -0.9034   -1.0299    0.5082 C   0  0  0  0  0  0  0  0  0  0  0  0
   -1.4047    0.2468    0.2717 C   0  0  0  0  0  0  0  0  0  0  0  0
   -0.5315    1.3518    0.2123 C   0  0  0  0  0  0  0  0  0  0  0  0
    0.8675    1.1914    0.2652 C   0  0  0  0  0  0  0  0  0  0  0  0
    1.7836    2.2824   -0.1656 C   0  0  0  0  0  0  0  0  0  0  0  0
    2.5334    2.3190   -1.3716 C   0  0  0  0  0  0  0  0  0  0  0  0
    3.3164    3.4223   -1.7471 C   0  0  0  0  0  0  0  0  0  0  0  0
    3.3535    4.5354   -0.9238 C   0  0  0  0  0  0  0  0  0  0  0  0
    2.5841    4.5431    0.2407 C   0  0  0  0  0  0  0  0  0  0  0  0
    1.8639    3.4122    0.6404 C   0  0  0  0  0  0  0  0  0  0  0  0
    4.2270    5.6410   -1.2214 C   0  0  0  0  0  0  0  0  0  0  0  0
    4.9554    6.5081   -1.4189 N   0  0  0  0  0  0  0  0  0  0  0  0
   -1.7412   -2.0833    0.2324 O   0  0  0  0  0  0  0  0  0  0  0  0
   -1.1454   -3.3834    0.0992 C   0  0  0  0  0  0  0  0  0  0  0  0
   -0.3828   -3.6727   -1.2276 C   0  0  0  0  0  0  0  0  0  0  0  0
    0.7954   -2.8502   -1.5663 N   0  0  0  0  0  0  0  0  0  0  0  0
    2.1003   -3.4254   -1.3085 C   0  0  0  0  0  0  0  0  0  0  0  0
    0.5787   -1.5766   -2.0527 C   0  0  0  0  0  0  0  0  0  0  0  0
   -0.5476   -1.1551   -2.3330 O   0  0  0  0  0  0  0  0  0  0  0  0
    1.5795   -0.6813   -2.1418 N   0  0  0  0  0  0  0  0  0  0  0  0
    2.9394   -0.7612   -1.8203 O   0  0  0  0  0  0  0  0  0  0  0  0
    2.4011   -0.2688    0.6617 H   0  0  0  0  0  0  0  0  0  0  0  0
    0.9057   -2.1320    0.8871 H   0  0  0  0  0  0  0  0  0  0  0  0
   -2.4468    0.3742   -0.0187 H   0  0  0  0  0  0  0  0  0  0  0  0
   -0.9589    2.3336    0.0263 H   0  0  0  0  0  0  0  0  0  0  0  0
    2.5672    1.5150   -2.0942 H   0  0  0  0  0  0  0  0  0  0  0  0
    3.8782    3.3913   -2.6825 H   0  0  0  0  0  0  0  0  0  0  0  0
    2.5331    5.4335    0.8586 H   0  0  0  0  0  0  0  0  0  0  0  0
    1.3509    3.4066    1.5981 H   0  0  0  0  0  0  0  0  0  0  0  0
   -0.5547   -3.6245    0.9897 H   0  0  0  0  0  0  0  0  0  0  0  0
   -1.9816   -4.0992    0.1319 H   0  0  0  0  0  0  0  0  0  0  0  0
   -0.0432   -4.7146   -1.1817 H   0  0  0  0  0  0  0  0  0  0  0  0
   -1.0805   -3.6019   -2.0676 H   0  0  0  0  0  0  0  0  0  0  0  0
    2.7530   -3.1719   -2.1473 H   0  0  0  0  0  0  0  0  0  0  0  0
    2.5014   -3.0344   -0.3660 H   0  0  0  0  0  0  0  0  0  0  0  0
    2.0615   -4.5084   -1.2179 H   0  0  0  0  0  0  0  0  0  0  0  0
    1.1736    0.2398   -1.9844 H   0  0  0  0  0  0  0  0  0  0  0  0
    3.0233   -1.4747   -1.1808 H   0  0  0  0  0  0  0  0  0  0  0  0
  1  2  2  0  0  0  0
  1  6  1  0  0  0  0
  1 24  1  0  0  0  0
  2  3  1  0  0  0  0
  2 25  1  0  0  0  0
  3  4  2  0  0  0  0
  3 15  1  0  0  0  0
  4  5  1  0  0  0  0
  4 26  1  0  0  0  0
  5  6  2  0  0  0  0
  5 27  1  0  0  0  0
  6  7  1  0  0  0  0
  7  8  2  0  0  0  0
  7 12  1  0  0  0  0
  8  9  1  0  0  0  0
  8 28  1  0  0  0  0
  9 10  2  0  0  0  0
  9 29  1  0  0  0  0
 10 11  1  0  0  0  0
 10 13  1  0  0  0  0
 11 12  2  0  0  0  0
 11 30  1  0  0  0  0
 12 31  1  0  0  0  0
 13 14  3  0  0  0  0
 15 16  1  0  0  0  0
 16 17  1  0  0  0  0
 16 32  1  0  0  0  0
 16 33  1  0  0  0  0
 17 18  1  0  0  0  0
 17 34  1  0  0  0  0
 17 35  1  0  0  0  0
 18 19  1  0  0  0  0
 18 20  1  0  0  0  0
 19 36  1  0  0  0  0
 19 37  1  0  0  0  0
 19 38  1  0  0  0  0
 20 21  2  0  0  0  0
 20 22  1  0  0  0  0
 22 23  1  0  0  0  0
 22 39  1  0  0  0  0
 23 40  1  0  0  0  0
M  END
>  <DRUGBANK_ID>
DB06971

>  <COMMON_NAME>
N-{2-[(4'-CYANO-1,1'-BIPHENYL-4-YL)OXY]ETHYL}-N'-HYDROXY-N-METHYLUREA

$$$$
