541
 OpenBabel10282417163D

 59 62  0  0  0  0  0  0  0  0999 V2000
    1.2633   -1.4846   -0.0315 C   0  0  0  0  0  0  0  0  0  0  0  0
    2.5970   -1.0684   -0.0075 C   0  0  0  0  0  0  0  0  0  0  0  0
    2.8959    0.2858   -0.0023 C   0  0  0  0  0  0  0  0  0  0  0  0
    1.8612    1.2141   -0.0552 C   0  0  0  0  0  0  0  0  0  0  0  0
    0.5120    0.8009   -0.1286 C   0  0  0  0  0  0  0  0  0  0  0  0
    0.2120   -0.5792   -0.0826 C   0  0  0  0  0  0  0  0  0  0  0  0
   -1.0476   -1.0535   -0.0585 N   0  0  0  0  0  0  0  0  0  0  0  0
   -3.4611   -0.7496    0.0098 C   0  0  0  0  0  0  0  0  0  0  0  0
   -2.0786   -0.1787   -0.0903 C   0  0  0  0  0  0  0  0  0  0  0  0
   -1.8879    1.1916   -0.1754 C   0  0  0  0  0  0  0  0  0  0  0  0
   -0.5791    1.7023   -0.1767 C   0  0  0  0  0  0  0  0  0  0  0  0
   -0.4048    3.1988   -0.0176 C   0  0  0  0  0  0  0  0  0  0  0  0
   -0.1945    3.3149    2.3802 C   0  0  0  0  0  0  0  0  0  0  0  0
    0.2993    3.6488    1.1517 O   0  0  0  0  0  0  0  0  0  0  0  0
   -0.7164    2.0731    2.7263 C   0  0  0  0  0  0  0  0  0  0  0  0
   -1.1242    1.7636    4.0103 C   0  0  0  0  0  0  0  0  0  0  0  0
   -0.9640    2.6919    5.0289 C   0  0  0  0  0  0  0  0  0  0  0  0
   -0.3530    3.9185    4.7034 C   0  0  0  0  0  0  0  0  0  0  0  0
   -0.0210    4.2491    3.3876 C   0  0  0  0  0  0  0  0  0  0  0  0
   -0.8327    1.0766    6.9898 C   0  0  0  0  0  0  0  0  0  0  0  0
   -1.4980    2.3550    6.4172 C   0  0  1  0  0  0  0  0  0  0  0  0
   -1.3028    3.5334    7.3727 C   0  0  0  0  0  0  0  0  0  0  0  0
   -2.9920    1.9295    6.3387 C   0  0  0  0  0  0  0  0  0  0  0  0
   -3.9124    2.5863    5.8595 O   0  0  0  0  0  0  0  0  0  0  0  0
   -1.9633    0.3558    7.6975 C   0  0  0  0  0  0  0  0  0  0  0  0
   -4.2263   -0.2904    6.6575 C   0  0  1  0  0  0  0  0  0  0  0  0
   -3.7263   -1.5770    5.9218 C   0  0  0  0  0  0  0  0  0  0  0  0
   -3.9533   -2.7813    6.5516 N   0  0  0  0  0  0  0  0  0  0  0  0
   -3.4720   -3.9574    5.9378 O   0  0  0  0  0  0  0  0  0  0  0  0
   -3.1144   -1.5393    4.8514 O   0  0  0  0  0  0  0  0  0  0  0  0
   -4.9896   -0.5976    7.9411 C   0  0  0  0  0  0  0  0  0  0  0  0
   -3.1118    0.6544    6.8874 N   0  0  0  0  0  0  0  0  0  0  0  0
   -4.9295    0.1851    5.9594 H   0  0  0  0  0  0  0  0  0  0  0  0
    1.0361   -2.5479   -0.0073 H   0  0  0  0  0  0  0  0  0  0  0  0
    3.3955   -1.8041    0.0155 H   0  0  0  0  0  0  0  0  0  0  0  0
    3.9266    0.6261    0.0423 H   0  0  0  0  0  0  0  0  0  0  0  0
    2.1195    2.2698   -0.0203 H   0  0  0  0  0  0  0  0  0  0  0  0
   -3.6506   -1.3907   -0.8550 H   0  0  0  0  0  0  0  0  0  0  0  0
   -3.5692   -1.3396    0.9261 H   0  0  0  0  0  0  0  0  0  0  0  0
   -4.2215    0.0383    0.0260 H   0  0  0  0  0  0  0  0  0  0  0  0
   -2.7405    1.8631   -0.1179 H   0  0  0  0  0  0  0  0  0  0  0  0
    0.1703    3.5525   -0.8822 H   0  0  0  0  0  0  0  0  0  0  0  0
   -1.3652    3.7259   -0.0600 H   0  0  0  0  0  0  0  0  0  0  0  0
   -0.8089    1.2474    2.0506 H   0  0  0  0  0  0  0  0  0  0  0  0
   -1.5500    0.7745    4.1784 H   0  0  0  0  0  0  0  0  0  0  0  0
   -0.1209    4.6574    5.4631 H   0  0  0  0  0  0  0  0  0  0  0  0
    0.3747    5.2371    3.1694 H   0  0  0  0  0  0  0  0  0  0  0  0
   -0.4410    0.4198    6.2029 H   0  0  0  0  0  0  0  0  0  0  0  0
    0.0038    1.2945    7.6608 H   0  0  0  0  0  0  0  0  0  0  0  0
   -0.2318    3.7567    7.4827 H   0  0  0  0  0  0  0  0  0  0  0  0
   -1.7925    4.4360    6.9855 H   0  0  0  0  0  0  0  0  0  0  0  0
   -1.7038    3.3424    8.3681 H   0  0  0  0  0  0  0  0  0  0  0  0
   -1.7945   -0.7177    7.7950 H   0  0  0  0  0  0  0  0  0  0  0  0
   -2.1383    0.7930    8.6876 H   0  0  0  0  0  0  0  0  0  0  0  0
   -4.4360   -2.9164    7.4314 H   0  0  0  0  0  0  0  0  0  0  0  0
   -3.0493   -3.6221    5.1184 H   0  0  0  0  0  0  0  0  0  0  0  0
   -5.3868    0.3103    8.4004 H   0  0  0  0  0  0  0  0  0  0  0  0
   -5.8344   -1.2685    7.7396 H   0  0  0  0  0  0  0  0  0  0  0  0
   -4.3396   -1.0903    8.6725 H   0  0  0  0  0  0  0  0  0  0  0  0
  1  2  1  0  0  0  0
  1  6  2  0  0  0  0
  1 34  1  0  0  0  0
  2  3  2  0  0  0  0
  2 35  1  0  0  0  0
  3  4  1  0  0  0  0
  3 36  1  0  0  0  0
  4  5  2  0  0  0  0
  4 37  1  0  0  0  0
  5  6  1  0  0  0  0
  5 11  1  0  0  0  0
  6  7  1  0  0  0  0
  7  9  2  0  0  0  0
  8  9  1  0  0  0  0
  8 38  1  0  0  0  0
  8 39  1  0  0  0  0
  8 40  1  0  0  0  0
  9 10  1  0  0  0  0
 10 11  2  0  0  0  0
 10 41  1  0  0  0  0
 11 12  1  0  0  0  0
 12 14  1  0  0  0  0
 12 42  1  0  0  0  0
 12 43  1  0  0  0  0
 13 14  1  0  0  0  0
 13 15  1  0  0  0  0
 13 19  2  0  0  0  0
 15 16  2  0  0  0  0
 15 44  1  0  0  0  0
 16 17  1  0  0  0  0
 16 45  1  0  0  0  0
 17 18  2  0  0  0  0
 18 19  1  0  0  0  0
 18 46  1  0  0  0  0
 19 47  1  0  0  0  0
 20 21  1  0  0  0  0
 20 25  1  0  0  0  0
 20 48  1  0  0  0  0
 20 49  1  0  0  0  0
 21 17  1  0  0  0  0
 21 22  1  1  0  0  0
 21 23  1  0  0  0  0
 22 50  1  0  0  0  0
 22 51  1  0  0  0  0
 22 52  1  0  0  0  0
 23 24  2  0  0  0  0
 23 32  1  0  0  0  0
 25 32  1  0  0  0  0
 25 53  1  0  0  0  0
 25 54  1  0  0  0  0
 26 27  1  0  0  0  0
 26 31  1  0  0  0  0
 26 32  1  0  0  0  0
 26 33  1  6  0  0  0
 27 28  1  0  0  0  0
 27 30  2  0  0  0  0
 28 29  1  0  0  0  0
 28 55  1  0  0  0  0
 29 56  1  0  0  0  0
 31 57  1  0  0  0  0
 31 58  1  0  0  0  0
 31 59  1  0  0  0  0
M  END
>  <DRUGBANK_ID>
DB07145

>  <COMMON_NAME>
(2R)-N-HYDROXY-2-[(3S)-3-METHYL-3-{4-[(2-METHYLQUINOLIN-4-YL)METHOXY]PHENYL}-2-OXOPYRROLIDIN-1-YL]PROPANAMIDE

$$$$
