
 OpenBabel10282417113D

 50 50  0  0  0  0  0  0  0  0999 V2000
   -1.1701   -0.2916   -0.0137 C   0  0  0  0  0  0  0  0  0  0  0  0
   -0.9260    1.1512   -0.5461 C   0  0  0  0  0  0  0  0  0  0  0  0
    0.1561   -1.0841    0.1381 C   0  0  0  0  0  0  0  0  0  0  0  0
    1.3633   -0.4596    0.0235 C   0  0  0  0  0  0  0  0  0  0  0  0
    1.5073    1.0465   -0.1356 C   0  0  0  0  0  0  0  0  0  0  0  0
    0.2385    1.8350    0.1366 C   0  0  0  0  0  0  0  0  0  0  0  0
   -4.8075   -9.4675    1.5384 C   0  0  0  0  0  0  0  0  0  0  0  0
   -3.5939   -8.8838    1.4494 C   0  0  0  0  0  0  0  0  0  0  0  0
   -3.4271   -7.4597    1.2033 C   0  0  0  0  0  0  0  0  0  0  0  0
   -2.2675   -6.8156    1.1046 C   0  0  0  0  0  0  0  0  0  0  0  0
   -2.1748   -5.3952    0.8798 C   0  0  0  0  0  0  0  0  0  0  0  0
   -0.9995   -4.7448    0.8017 C   0  0  0  0  0  0  0  0  0  0  0  0
    0.0863   -2.5329    0.3945 C   0  0  0  0  0  0  0  0  0  0  0  0
   -2.3300   -9.7127    1.6093 C   0  0  0  0  0  0  0  0  0  0  0  0
    0.3324   -5.4295    0.9062 C   0  0  0  0  0  0  0  0  0  0  0  0
   -2.1278   -0.9052   -1.0724 C   0  0  0  0  0  0  0  0  0  0  0  0
   -1.8575   -0.1808    1.3675 C   0  0  0  0  0  0  0  0  0  0  0  0
   -0.9934   -3.3026    0.6145 C   0  0  0  0  0  0  0  0  0  0  0  0
    2.7252   -1.1231    0.0175 C   0  0  0  0  0  0  0  0  0  0  0  0
   -6.1546   -8.8654    1.4190 C   0  0  0  0  0  0  0  0  0  0  0  0
   -7.1930   -9.5043    1.5178 O   0  0  0  0  0  0  0  0  0  0  0  0
   -6.1773   -7.5483    1.1913 O   0  0  0  0  0  0  0  0  0  0  0  0
   -0.7177    1.1211   -1.6255 H   0  0  0  0  0  0  0  0  0  0  0  0
   -1.8322    1.7579   -0.4272 H   0  0  0  0  0  0  0  0  0  0  0  0
    2.2859    1.4220    0.5405 H   0  0  0  0  0  0  0  0  0  0  0  0
    1.8490    1.2546   -1.1580 H   0  0  0  0  0  0  0  0  0  0  0  0
    0.3473    2.8573   -0.2436 H   0  0  0  0  0  0  0  0  0  0  0  0
    0.0663    1.9203    1.2149 H   0  0  0  0  0  0  0  0  0  0  0  0
   -4.8612  -10.5385    1.7244 H   0  0  0  0  0  0  0  0  0  0  0  0
   -4.2930   -6.8275    1.0888 H   0  0  0  0  0  0  0  0  0  0  0  0
   -1.3636   -7.3888    1.2139 H   0  0  0  0  0  0  0  0  0  0  0  0
   -3.1168   -4.8495    0.7782 H   0  0  0  0  0  0  0  0  0  0  0  0
    1.0364   -3.0481    0.4209 H   0  0  0  0  0  0  0  0  0  0  0  0
   -1.7094   -9.6582    0.7057 H   0  0  0  0  0  0  0  0  0  0  0  0
   -1.7307   -9.3543    2.4562 H   0  0  0  0  0  0  0  0  0  0  0  0
   -2.5332  -10.7731    1.7910 H   0  0  0  0  0  0  0  0  0  0  0  0
    0.8886   -5.3109   -0.0272 H   0  0  0  0  0  0  0  0  0  0  0  0
    0.8915   -5.0149    1.7482 H   0  0  0  0  0  0  0  0  0  0  0  0
    0.2815   -6.5014    1.0847 H   0  0  0  0  0  0  0  0  0  0  0  0
   -2.4838   -1.9117   -0.8686 H   0  0  0  0  0  0  0  0  0  0  0  0
   -3.0356   -0.3005   -1.1674 H   0  0  0  0  0  0  0  0  0  0  0  0
   -1.6398   -0.9571   -2.0529 H   0  0  0  0  0  0  0  0  0  0  0  0
   -2.7935    0.3819    1.2973 H   0  0  0  0  0  0  0  0  0  0  0  0
   -2.1057   -1.1491    1.8068 H   0  0  0  0  0  0  0  0  0  0  0  0
   -1.2149    0.3240    2.0979 H   0  0  0  0  0  0  0  0  0  0  0  0
   -1.9816   -2.8693    0.6705 H   0  0  0  0  0  0  0  0  0  0  0  0
    3.2206   -0.9247   -0.9396 H   0  0  0  0  0  0  0  0  0  0  0  0
    3.3492   -0.7205    0.8220 H   0  0  0  0  0  0  0  0  0  0  0  0
    2.7197   -2.2048    0.1378 H   0  0  0  0  0  0  0  0  0  0  0  0
   -7.1029   -7.2500    1.1287 H   0  0  0  0  0  0  0  0  0  0  0  0
  1 16  1  0  0  0  0
  1 17  1  0  0  0  0
  1  2  1  0  0  0  0
  1  3  1  0  0  0  0
  2  6  1  0  0  0  0
  2 23  1  0  0  0  0
  2 24  1  0  0  0  0
  3 13  1  0  0  0  0
  4  3  2  0  0  0  0
  5  4  1  0  0  0  0
  5 25  1  0  0  0  0
  5 26  1  0  0  0  0
  6  5  1  0  0  0  0
  6 27  1  0  0  0  0
  6 28  1  0  0  0  0
  7 20  1  0  0  0  0
  7 29  1  0  0  0  0
  8  7  2  0  0  0  0
  9  8  1  0  0  0  0
  9 30  1  0  0  0  0
 10  9  2  0  0  0  0
 10 31  1  0  0  0  0
 11 10  1  0  0  0  0
 11 32  1  0  0  0  0
 12 11  2  0  0  0  0
 13 18  2  0  0  0  0
 13 33  1  0  0  0  0
 14  8  1  0  0  0  0
 14 34  1  0  0  0  0
 14 35  1  0  0  0  0
 14 36  1  0  0  0  0
 15 12  1  0  0  0  0
 15 37  1  0  0  0  0
 15 38  1  0  0  0  0
 15 39  1  0  0  0  0
 16 40  1  0  0  0  0
 16 41  1  0  0  0  0
 16 42  1  0  0  0  0
 17 43  1  0  0  0  0
 17 44  1  0  0  0  0
 17 45  1  0  0  0  0
 18 12  1  0  0  0  0
 18 46  1  0  0  0  0
 19  4  1  0  0  0  0
 19 47  1  0  0  0  0
 19 48  1  0  0  0  0
 19 49  1  0  0  0  0
 20 21  2  0  0  0  0
 20 22  1  0  0  0  0
 22 50  1  0  0  0  0
M  END
>  <DRUGBANK_ID>
DB00982

>  <SECONDARY_ACCESSION_NUMBERS>
APRD00140

>  <COMMON_NAME>
Isotretinoin

>  <CAS_NUMBER>
4759-48-2

>  <UNII>
EH28UP18IF

>  <SYNONYMS>
(7E,9E,11E,13Z)-retinoic acid; 13-cis-retinoic acid; 13-cis-Vitamin A acid; 13-RA; cis-RA; Isotretinoin; Isotretinoína; Isotrétinoine; Isotretinoino; Isotretinoinum; Neovitamin A acid

$$$$
