
 OpenBabel10282417203D

 60 62  0  0  1  0  0  0  0  0999 V2000
    1.1440    2.4077    1.3949 C   0  0  0  0  0  0  0  0  0  0  0  0
    0.5690    0.9864    1.3641 C   0  0  2  0  0  0  0  0  0  0  0  0
    1.2102    0.4357    0.1162 C   0  0  1  0  0  0  0  0  0  0  0  0
    0.6673    1.0279   -1.2469 C   0  0  0  0  0  0  0  0  0  0  0  0
   -0.4385    1.8952   -1.2316 C   0  0  0  0  0  0  0  0  0  0  0  0
   -1.3106    2.0146   -2.3031 C   0  0  0  0  0  0  0  0  0  0  0  0
   -0.9415    1.4541   -3.4965 C   0  0  0  0  0  0  0  0  0  0  0  0
    0.2345    0.7123   -3.5230 C   0  0  0  0  0  0  0  0  0  0  0  0
    1.0188    0.4394   -2.4207 N   0  0  0  0  0  0  0  0  0  0  0  0
   -1.7395    1.5753   -4.5907 O   0  0  0  0  0  0  0  0  0  0  0  0
    2.6338    0.3381    0.1993 O   0  0  0  0  0  0  0  0  0  0  0  0
   -0.9835    0.6786    1.3987 C   0  0  1  0  0  0  0  0  0  0  0  0
   -1.4759   -0.8390    1.5108 C   0  0  0  0  0  0  0  0  0  0  0  0
   -2.2118   -1.1621    2.4529 O   0  0  0  0  0  0  0  0  0  0  0  0
   -1.2392   -1.7972    0.5345 N   0  0  0  0  0  0  0  0  0  0  0  0
   -0.5927   -1.7392   -0.8046 C   0  0  1  0  0  0  0  0  0  0  0  0
    0.8926   -2.2931   -0.9400 C   0  0  2  0  0  0  0  0  0  0  0  0
    1.3989   -2.8499   -2.2563 C   0  0  2  0  0  0  0  0  0  0  0  0
    1.3367   -4.3265   -1.9793 C   0  0  2  0  0  0  0  0  0  0  0  0
    1.6362   -4.4265   -0.4649 C   0  0  1  0  0  0  0  0  0  0  0  0
    1.1831   -3.2186    0.1107 O   0  0  0  0  0  0  0  0  0  0  0  0
    0.9813   -5.5756    0.1586 N   0  0  0  0  0  0  0  0  0  0  0  0
    1.2522   -6.8104   -0.4018 C   0  0  0  0  0  0  0  0  0  0  0  0
    0.4874   -7.8727   -0.1618 C   0  0  0  0  0  0  0  0  0  0  0  0
   -0.5734   -7.7571    0.8456 C   0  0  0  0  0  0  0  0  0  0  0  0
   -1.3835   -8.6571    1.0169 O   0  0  0  0  0  0  0  0  0  0  0  0
   -0.5752   -6.5998    1.5621 N   0  0  0  0  0  0  0  0  0  0  0  0
    0.0109   -5.4327    1.1501 C   0  0  0  0  0  0  0  0  0  0  0  0
   -0.3958   -4.3866    1.6491 O   0  0  0  0  0  0  0  0  0  0  0  0
    2.2782   -5.0467   -2.7715 O   0  0  0  0  0  0  0  0  0  0  0  0
    2.7878   -2.5088   -2.5106 O   0  0  0  0  0  0  0  0  0  0  0  0
   -1.4432   -1.9423   -2.0467 C   0  0  0  0  0  0  0  0  0  0  0  0
   -1.9519   -1.0814   -2.7216 O   0  0  0  0  0  0  0  0  0  0  0  0
   -1.6042   -3.2149   -2.4221 O   0  0  0  0  0  0  0  0  0  0  0  0
   -1.5243    1.5281    2.4883 N   0  0  0  0  0  0  0  0  0  0  0  0
    2.0327    2.4792    0.7445 H   0  0  0  0  0  0  0  0  0  0  0  0
    1.5039    2.6517    2.3885 H   0  0  0  0  0  0  0  0  0  0  0  0
    0.4713    3.1746    1.0201 H   0  0  0  0  0  0  0  0  0  0  0  0
    0.9924    0.4546    2.2312 H   0  0  0  0  0  0  0  0  0  0  0  0
    0.9146   -0.5649    0.3577 H   0  0  0  0  0  0  0  0  0  0  0  0
   -0.7623    2.4108   -0.3414 H   0  0  0  0  0  0  0  0  0  0  0  0
   -2.2708    2.4970   -2.1430 H   0  0  0  0  0  0  0  0  0  0  0  0
    0.5316    0.2258   -4.4484 H   0  0  0  0  0  0  0  0  0  0  0  0
   -2.5683    2.0090   -4.3157 H   0  0  0  0  0  0  0  0  0  0  0  0
    2.9945    0.8812   -0.5186 H   0  0  0  0  0  0  0  0  0  0  0  0
   -1.5728    0.9855    0.5390 H   0  0  0  0  0  0  0  0  0  0  0  0
   -1.5807   -2.7186    0.7994 H   0  0  0  0  0  0  0  0  0  0  0  0
   -0.5726   -0.6782   -0.8937 H   0  0  0  0  0  0  0  0  0  0  0  0
    1.6619   -1.5573   -0.7731 H   0  0  0  0  0  0  0  0  0  0  0  0
    0.8460   -2.4894   -3.1236 H   0  0  0  0  0  0  0  0  0  0  0  0
    0.3302   -4.6927   -2.1908 H   0  0  0  0  0  0  0  0  0  0  0  0
    2.7150   -4.5037   -0.2722 H   0  0  0  0  0  0  0  0  0  0  0  0
    2.0687   -6.8665   -1.1183 H   0  0  0  0  0  0  0  0  0  0  0  0
    0.6029   -8.8113   -0.6825 H   0  0  0  0  0  0  0  0  0  0  0  0
   -1.2986   -6.4911    2.2554 H   0  0  0  0  0  0  0  0  0  0  0  0
    3.1034   -4.5197   -2.7550 H   0  0  0  0  0  0  0  0  0  0  0  0
    3.2981   -2.5102   -1.6800 H   0  0  0  0  0  0  0  0  0  0  0  0
   -2.0938   -3.0603   -3.2625 H   0  0  0  0  0  0  0  0  0  0  0  0
   -2.5426    1.4586    2.4919 H   0  0  0  0  0  0  0  0  0  0  0  0
   -1.2305    1.1266    3.3793 H   0  0  0  0  0  0  0  0  0  0  0  0
  1 36  1  0  0  0  0
  1 37  1  0  0  0  0
  1 38  1  0  0  0  0
  2 12  1  0  0  0  0
  2 39  1  1  0  0  0
  2  3  1  0  0  0  0
  2  1  1  0  0  0  0
  3  4  1  0  0  0  0
  3 11  1  0  0  0  0
  3 40  1  6  0  0  0
  4  5  2  0  0  0  0
  4  9  1  0  0  0  0
  5  6  1  0  0  0  0
  5 41  1  0  0  0  0
  6  7  2  0  0  0  0
  6 42  1  0  0  0  0
  7  8  1  0  0  0  0
  7 10  1  0  0  0  0
  8  9  2  0  0  0  0
  8 43  1  0  0  0  0
 10 44  1  0  0  0  0
 11 45  1  0  0  0  0
 12 13  1  0  0  0  0
 12 35  1  0  0  0  0
 12 46  1  6  0  0  0
 13 14  2  0  0  0  0
 13 15  1  0  0  0  0
 15 47  1  0  0  0  0
 16 15  1  0  0  0  0
 16 32  1  0  0  0  0
 16 48  1  6  0  0  0
 17 16  1  0  0  0  0
 17 18  1  0  0  0  0
 17 21  1  0  0  0  0
 17 49  1  1  0  0  0
 18 19  1  0  0  0  0
 18 31  1  0  0  0  0
 18 50  1  6  0  0  0
 19 20  1  0  0  0  0
 19 30  1  0  0  0  0
 19 51  1  6  0  0  0
 20 21  1  0  0  0  0
 20 52  1  1  0  0  0
 20 22  1  0  0  0  0
 22 23  1  0  0  0  0
 22 28  1  0  0  0  0
 23 24  2  0  0  0  0
 23 53  1  0  0  0  0
 24 25  1  0  0  0  0
 24 54  1  0  0  0  0
 25 26  2  0  0  0  0
 25 27  1  0  0  0  0
 27 28  1  0  0  0  0
 27 55  1  0  0  0  0
 28 29  2  0  0  0  0
 30 56  1  0  0  0  0
 31 57  1  0  0  0  0
 32 33  2  0  0  0  0
 32 34  1  0  0  0  0
 34 58  1  0  0  0  0
 35 59  1  0  0  0  0
 35 60  1  0  0  0  0
M  END
>  <DRUGBANK_ID>
DB12939

>  <COMMON_NAME>
Nikkomycin Z

>  <CAS_NUMBER>
59456-70-1

>  <UNII>
9Z22C3QQCJ

$$$$
