
 OpenBabel10282417133D

 30 30  0  0  0  0  0  0  0  0999 V2000
    0.7051    1.2169   -0.2432 O   0  0  0  0  0  0  0  0  0  0  0  0
   -0.7841   -1.2430    1.7027 O   0  0  0  0  0  0  0  0  0  0  0  0
    1.3752   -2.3985    0.2320 O   0  0  0  0  0  0  0  0  0  0  0  0
   -1.2346    2.4941   -0.1717 O   0  0  0  0  0  0  0  0  0  0  0  0
    3.5527    1.2084    0.1172 O   0  0  0  0  0  0  0  0  0  0  0  0
   -5.0483   -0.0133   -0.3010 O   0  0  0  0  0  0  0  0  0  0  0  0
   -2.8345    0.0483    0.1125 N   0  0  0  0  0  0  0  0  0  0  0  0
   -0.7378   -1.2354    0.2663 C   0  0  1  0  0  0  0  0  0  0  0  0
   -1.4228    0.0323   -0.2521 C   0  0  2  0  0  0  0  0  0  0  0  0
    0.7047   -1.2359   -0.2452 C   0  0  1  0  0  0  0  0  0  0  0  0
    1.4139    0.0474    0.2216 C   0  0  1  0  0  0  0  0  0  0  0  0
   -0.6427    1.2703    0.2544 C   0  0  1  0  0  0  0  0  0  0  0  0
    2.8468    0.0550   -0.3260 C   0  0  0  0  0  0  0  0  0  0  0  0
   -3.8985    0.0100   -0.7376 C   0  0  0  0  0  0  0  0  0  0  0  0
   -3.5982    0.0025   -2.2119 C   0  0  0  0  0  0  0  0  0  0  0  0
   -3.0635   -0.0022    1.1024 H   0  0  0  0  0  0  0  0  0  0  0  0
    0.0910   -1.5249    2.0341 H   0  0  0  0  0  0  0  0  0  0  0  0
    1.1786   -3.1268   -0.3876 H   0  0  0  0  0  0  0  0  0  0  0  0
   -1.7445    2.3382   -0.9807 H   0  0  0  0  0  0  0  0  0  0  0  0
    3.0143    1.9754   -0.1530 H   0  0  0  0  0  0  0  0  0  0  0  0
   -1.2585   -2.1395   -0.0696 H   0  0  0  0  0  0  0  0  0  0  0  0
   -1.3382    0.0199   -1.3427 H   0  0  0  0  0  0  0  0  0  0  0  0
    0.6968   -1.2673   -1.3435 H   0  0  0  0  0  0  0  0  0  0  0  0
    1.4762    0.1000    1.3160 H   0  0  0  0  0  0  0  0  0  0  0  0
   -0.6324    1.3047    1.3493 H   0  0  0  0  0  0  0  0  0  0  0  0
    3.3986   -0.8257    0.0189 H   0  0  0  0  0  0  0  0  0  0  0  0
    2.8513    0.0589   -1.4207 H   0  0  0  0  0  0  0  0  0  0  0  0
   -3.0292    0.8979   -2.4801 H   0  0  0  0  0  0  0  0  0  0  0  0
   -3.0289   -0.8961   -2.4707 H   0  0  0  0  0  0  0  0  0  0  0  0
   -4.5279    0.0002   -2.7834 H   0  0  0  0  0  0  0  0  0  0  0  0
  1 11  1  0  0  0  0
  1 12  1  0  0  0  0
  2 17  1  0  0  0  0
  3 18  1  0  0  0  0
  4 19  1  0  0  0  0
  5 13  1  0  0  0  0
  5 20  1  0  0  0  0
  6 14  2  0  0  0  0
  7 14  1  0  0  0  0
  7 16  1  0  0  0  0
  8  9  1  0  0  0  0
  8 10  1  0  0  0  0
  8 21  1  6  0  0  0
  8  2  1  0  0  0  0
  9 12  1  0  0  0  0
  9 22  1  6  0  0  0
  9  7  1  0  0  0  0
 10 11  1  0  0  0  0
 10 23  1  6  0  0  0
 10  3  1  0  0  0  0
 11 13  1  0  0  0  0
 11 24  1  1  0  0  0
 12 25  1  1  0  0  0
 12  4  1  0  0  0  0
 13 26  1  0  0  0  0
 13 27  1  0  0  0  0
 14 15  1  0  0  0  0
 15 28  1  0  0  0  0
 15 29  1  0  0  0  0
 15 30  1  0  0  0  0
M  END
>  <DRUGBANK_ID>
DB03109

>  <SECONDARY_ACCESSION_NUMBERS>
EXPT02281

>  <COMMON_NAME>
2-acetylamino-2-deoxy-b-D-allopyranose

>  <SYNONYMS>
N-acetyl-D-allosamine

$$$$
