372
 OpenBabel10282417103D

 56 59  0  0  0  0  0  0  0  0999 V2000
    0.0603    1.8072    0.4482 S   0  0  0  0  0  0  0  0  0  0  0  0
    4.8311   -2.2408   -0.8227 S   0  0  0  0  0  0  0  0  0  0  0  0
   -2.8711   -2.4236    2.2538 N   0  0  0  0  0  0  0  0  0  0  0  0
   -4.5631   -4.6187    1.2463 N   0  0  0  0  0  0  0  0  0  0  0  0
    0.0406   -1.2262    0.7187 N   0  0  0  0  0  0  0  0  0  0  0  0
   -2.7560   -3.7634    2.8200 C   0  0  0  0  0  0  0  0  0  0  0  0
   -4.2357   -2.1496    1.7981 C   0  0  0  0  0  0  0  0  0  0  0  0
   -2.2332   -1.3411    2.9851 C   0  0  0  0  0  0  0  0  0  0  0  0
   -3.1962   -4.8161    1.7758 C   0  0  0  0  0  0  0  0  0  0  0  0
   -4.6891   -3.2313    0.7684 C   0  0  0  0  0  0  0  0  0  0  0  0
   -0.7232   -1.5744    3.1340 C   0  0  0  0  0  0  0  0  0  0  0  0
   -0.0116   -2.1382    1.8811 C   0  0  0  0  0  0  0  0  0  0  0  0
   -5.5731   -4.8539    2.2656 C   0  0  0  0  0  0  0  0  0  0  0  0
    1.2946   -0.6961    0.3858 C   0  0  0  0  0  0  0  0  0  0  0  0
   -1.1168   -0.6856    0.1354 C   0  0  0  0  0  0  0  0  0  0  0  0
    1.4186    0.6856    0.1336 C   0  0  0  0  0  0  0  0  0  0  0  0
   -1.2741    0.7102   -0.0018 C   0  0  0  0  0  0  0  0  0  0  0  0
    2.3767   -1.5472    0.1115 C   0  0  0  0  0  0  0  0  0  0  0  0
   -2.1006   -1.4929   -0.4261 C   0  0  0  0  0  0  0  0  0  0  0  0
    2.5970    1.1885   -0.3780 C   0  0  0  0  0  0  0  0  0  0  0  0
    3.5677   -1.0470   -0.4092 C   0  0  0  0  0  0  0  0  0  0  0  0
   -2.4603    1.2628   -0.4992 C   0  0  0  0  0  0  0  0  0  0  0  0
    3.6713    0.3346   -0.6189 C   0  0  0  0  0  0  0  0  0  0  0  0
   -3.2691   -0.9342   -0.9689 C   0  0  0  0  0  0  0  0  0  0  0  0
   -3.4815    0.4362   -0.9397 C   0  0  0  0  0  0  0  0  0  0  0  0
    6.1663   -1.2431   -1.5597 C   0  0  0  0  0  0  0  0  0  0  0  0
    5.8042   -0.6478   -2.9126 C   0  0  0  0  0  0  0  0  0  0  0  0
   -1.7253   -4.0028    3.0973 H   0  0  0  0  0  0  0  0  0  0  0  0
   -3.3508   -3.8374    3.7342 H   0  0  0  0  0  0  0  0  0  0  0  0
   -4.9208   -2.1173    2.6497 H   0  0  0  0  0  0  0  0  0  0  0  0
   -4.3102   -1.1576    1.3429 H   0  0  0  0  0  0  0  0  0  0  0  0
   -2.3661   -0.3885    2.4584 H   0  0  0  0  0  0  0  0  0  0  0  0
   -2.7004   -1.1956    3.9656 H   0  0  0  0  0  0  0  0  0  0  0  0
   -2.4877   -4.7926    0.9315 H   0  0  0  0  0  0  0  0  0  0  0  0
   -3.0983   -5.8187    2.2043 H   0  0  0  0  0  0  0  0  0  0  0  0
   -4.0866   -3.2144   -0.1406 H   0  0  0  0  0  0  0  0  0  0  0  0
   -5.7076   -3.0132    0.4257 H   0  0  0  0  0  0  0  0  0  0  0  0
   -0.5745   -2.2832    3.9622 H   0  0  0  0  0  0  0  0  0  0  0  0
   -0.2382   -0.6450    3.4581 H   0  0  0  0  0  0  0  0  0  0  0  0
   -0.4205   -3.1040    1.5704 H   0  0  0  0  0  0  0  0  0  0  0  0
    1.0051   -2.3818    2.2255 H   0  0  0  0  0  0  0  0  0  0  0  0
   -5.4989   -4.1619    3.1089 H   0  0  0  0  0  0  0  0  0  0  0  0
   -6.5671   -4.7349    1.8232 H   0  0  0  0  0  0  0  0  0  0  0  0
   -5.4946   -5.8725    2.6480 H   0  0  0  0  0  0  0  0  0  0  0  0
    2.2492   -2.6239    0.2377 H   0  0  0  0  0  0  0  0  0  0  0  0
   -1.9855   -2.5744   -0.3775 H   0  0  0  0  0  0  0  0  0  0  0  0
    2.6825    2.2452   -0.6208 H   0  0  0  0  0  0  0  0  0  0  0  0
   -2.5887    2.3394   -0.5529 H   0  0  0  0  0  0  0  0  0  0  0  0
    4.5730    0.7917   -0.9938 H   0  0  0  0  0  0  0  0  0  0  0  0
   -4.0692   -1.5704   -1.3353 H   0  0  0  0  0  0  0  0  0  0  0  0
   -4.4334    0.8451   -1.2631 H   0  0  0  0  0  0  0  0  0  0  0  0
    6.4880   -0.4763   -0.8478 H   0  0  0  0  0  0  0  0  0  0  0  0
    7.0170   -1.9181   -1.6997 H   0  0  0  0  0  0  0  0  0  0  0  0
    4.9737    0.0599   -2.8745 H   0  0  0  0  0  0  0  0  0  0  0  0
    6.6619   -0.0954   -3.3084 H   0  0  0  0  0  0  0  0  0  0  0  0
    5.5321   -1.4244   -3.6324 H   0  0  0  0  0  0  0  0  0  0  0  0
  1 16  1  0  0  0  0
  1 17  1  0  0  0  0
  2 21  1  0  0  0  0
  2 26  1  0  0  0  0
  3  6  1  0  0  0  0
  3  7  1  0  0  0  0
  3  8  1  0  0  0  0
  4  9  1  0  0  0  0
  4 10  1  0  0  0  0
  4 13  1  0  0  0  0
  5 12  1  0  0  0  0
  5 14  1  0  0  0  0
  5 15  1  0  0  0  0
  6  9  1  0  0  0  0
  6 28  1  0  0  0  0
  6 29  1  0  0  0  0
  7 10  1  0  0  0  0
  7 30  1  0  0  0  0
  7 31  1  0  0  0  0
  8 11  1  0  0  0  0
  8 32  1  0  0  0  0
  8 33  1  0  0  0  0
  9 34  1  0  0  0  0
  9 35  1  0  0  0  0
 10 36  1  0  0  0  0
 10 37  1  0  0  0  0
 11 12  1  0  0  0  0
 11 38  1  0  0  0  0
 11 39  1  0  0  0  0
 12 40  1  0  0  0  0
 12 41  1  0  0  0  0
 13 42  1  0  0  0  0
 13 43  1  0  0  0  0
 13 44  1  0  0  0  0
 14 16  2  0  0  0  0
 14 18  1  0  0  0  0
 15 17  1  0  0  0  0
 15 19  2  0  0  0  0
 16 20  1  0  0  0  0
 17 22  2  0  0  0  0
 18 21  2  0  0  0  0
 18 45  1  0  0  0  0
 19 24  1  0  0  0  0
 19 46  1  0  0  0  0
 20 23  2  0  0  0  0
 20 47  1  0  0  0  0
 21 23  1  0  0  0  0
 22 25  1  0  0  0  0
 22 48  1  0  0  0  0
 23 49  1  0  0  0  0
 24 25  2  0  0  0  0
 24 50  1  0  0  0  0
 25 51  1  0  0  0  0
 26 27  1  0  0  0  0
 26 52  1  0  0  0  0
 26 53  1  0  0  0  0
 27 54  1  0  0  0  0
 27 55  1  0  0  0  0
 27 56  1  0  0  0  0
M  END
>  <DRUGBANK_ID>
DB00372

>  <SECONDARY_ACCESSION_NUMBERS>
APRD00323

>  <COMMON_NAME>
Thiethylperazine

>  <CAS_NUMBER>
1420-55-9

>  <UNII>
8ETK1WAF6R

>  <SYNONYMS>
2-(ethylthio)-10-[3-(4-methylpiperazin-1-yl)propyl]-10H-phenothiazine; Norzine; Thiethylperazin; Thiéthylpérazine; Thiethylperazine; Thiethylperazinum; Tietilperazina

$$$$
