BHB
 OpenBabel10282417133D

 39 40  0  0  0  0  0  0  0  0999 V2000
    0.9921   -0.0353    0.2152 N   0  0  0  0  0  0  0  0  0  0  0  0
    0.2985   -1.1531    0.6933 C   0  0  0  0  0  0  0  0  0  0  0  0
    0.6388   -1.7328    1.9270 C   0  0  0  0  0  0  0  0  0  0  0  0
   -0.0504   -2.8680    2.4499 C   0  0  0  0  0  0  0  0  0  0  0  0
   -1.0892   -3.4058    1.7177 C   0  0  0  0  0  0  0  0  0  0  0  0
   -1.7562   -4.4945    2.2813 N   0  0  0  0  0  0  0  0  0  0  0  0
   -2.7152   -5.0508    1.6358 C   0  0  0  0  0  0  0  0  0  0  0  0
   -3.3586   -6.0916    2.1952 N   0  0  0  0  0  0  0  0  0  0  0  0
   -3.0729   -4.6120    0.4043 N   0  0  0  0  0  0  0  0  0  0  0  0
   -2.4688   -3.5527   -0.2540 C   0  0  0  0  0  0  0  0  0  0  0  0
   -2.7834   -3.2119   -1.3737 O   0  0  0  0  0  0  0  0  0  0  0  0
   -1.3967   -2.8660    0.4812 C   0  0  0  0  0  0  0  0  0  0  0  0
   -0.7083   -1.7610   -0.0489 C   0  0  0  0  0  0  0  0  0  0  0  0
    0.2083   -3.6064    3.7555 C   0  0  0  0  0  0  0  0  0  0  0  0
   -1.1739   -3.2321    5.1439 S   0  0  0  0  0  0  0  0  0  0  0  0
   -1.5234   -1.3336    5.1151 C   0  0  0  0  0  0  0  0  0  0  0  0
   -0.4786   -0.3130    5.7436 C   0  0  0  0  0  0  0  0  0  0  0  0
    0.7969   -0.1709    5.0088 N   0  0  0  0  0  0  0  0  0  0  0  0
    1.8075    0.7187    5.5054 C   0  0  0  0  0  0  0  0  0  0  0  0
    1.4567   -1.4376    5.0466 C   0  0  0  0  0  0  0  0  0  0  0  0
    0.5633    0.4723   -0.5533 H   0  0  0  0  0  0  0  0  0  0  0  0
    1.9934   -0.1589    0.0869 H   0  0  0  0  0  0  0  0  0  0  0  0
    1.4278   -1.2279    2.4778 H   0  0  0  0  0  0  0  0  0  0  0  0
   -4.1283   -6.5764    1.7687 H   0  0  0  0  0  0  0  0  0  0  0  0
   -3.1007   -6.3362    3.1471 H   0  0  0  0  0  0  0  0  0  0  0  0
   -3.7970   -5.0878   -0.1000 H   0  0  0  0  0  0  0  0  0  0  0  0
   -0.9640   -1.3938   -1.0374 H   0  0  0  0  0  0  0  0  0  0  0  0
    0.2326   -4.6952    3.6291 H   0  0  0  0  0  0  0  0  0  0  0  0
    1.2483   -3.4834    4.0887 H   0  0  0  0  0  0  0  0  0  0  0  0
   -1.8278   -1.0321    4.1058 H   0  0  0  0  0  0  0  0  0  0  0  0
   -2.4367   -1.2309    5.7272 H   0  0  0  0  0  0  0  0  0  0  0  0
   -0.9600    0.6728    5.7804 H   0  0  0  0  0  0  0  0  0  0  0  0
   -0.2916   -0.6180    6.7803 H   0  0  0  0  0  0  0  0  0  0  0  0
    2.1455    0.3958    6.4938 H   0  0  0  0  0  0  0  0  0  0  0  0
    2.6674    0.6408    4.8185 H   0  0  0  0  0  0  0  0  0  0  0  0
    1.4767    1.7498    5.4982 H   0  0  0  0  0  0  0  0  0  0  0  0
    1.5772   -1.9401    6.0100 H   0  0  0  0  0  0  0  0  0  0  0  0
    0.6763   -1.8877    4.5350 H   0  0  0  0  0  0  0  0  0  0  0  0
    2.3208   -1.5707    4.3933 H   0  0  0  0  0  0  0  0  0  0  0  0
  1  2  1  0  0  0  0
  1 21  1  0  0  0  0
  1 22  1  0  0  0  0
  2  3  2  0  0  0  0
  2 13  1  0  0  0  0
  3  4  1  0  0  0  0
  3 23  1  0  0  0  0
  4  5  2  0  0  0  0
  4 14  1  0  0  0  0
  5  6  1  0  0  0  0
  5 12  1  0  0  0  0
  6  7  2  0  0  0  0
  7  8  1  0  0  0  0
  7  9  1  0  0  0  0
  8 24  1  0  0  0  0
  8 25  1  0  0  0  0
  9 10  1  0  0  0  0
  9 26  1  0  0  0  0
 10 11  2  0  0  0  0
 10 12  1  0  0  0  0
 12 13  2  0  0  0  0
 13 27  1  0  0  0  0
 14 15  1  0  0  0  0
 14 28  1  0  0  0  0
 14 29  1  0  0  0  0
 15 16  1  0  0  0  0
 16 17  1  0  0  0  0
 16 30  1  0  0  0  0
 16 31  1  0  0  0  0
 17 18  1  0  0  0  0
 17 32  1  0  0  0  0
 17 33  1  0  0  0  0
 18 19  1  0  0  0  0
 18 20  1  0  0  0  0
 19 34  1  0  0  0  0
 19 35  1  0  0  0  0
 19 36  1  0  0  0  0
 20 37  1  0  0  0  0
 20 38  1  0  0  0  0
 20 39  1  0  0  0  0
M  END
>  <DRUGBANK_ID>
DB04004

>  <SECONDARY_ACCESSION_NUMBERS>
EXPT00694

>  <COMMON_NAME>
2,6-Diamino-8-(2-Dimethylaminoethylsulfanylmethyl)-3h-Quinazolin-4-One

$$$$
