
 OpenBabel10282417183D

 74 78  0  0  1  0  0  0  0  0999 V2000
   -3.1733    1.8009    9.1005 C   0  0  0  0  0  0  0  0  0  0  0  0
   -1.1478    0.3540    4.7271 C   0  0  0  0  0  0  0  0  0  0  0  0
    0.1498   11.0584    6.9696 C   0  0  0  0  0  0  0  0  0  0  0  0
    4.6310    8.9166    7.5851 C   0  0  0  0  0  0  0  0  0  0  0  0
   -2.4157    3.1082    9.0477 C   0  0  0  0  0  0  0  0  0  0  0  0
   -0.7143    1.8087    4.6743 C   0  0  0  0  0  0  0  0  0  0  0  0
    3.6352   -1.5019    7.3071 C   0  0  0  0  0  0  0  0  0  0  0  0
    3.0898   -1.6727    5.9049 C   0  0  0  0  0  0  0  0  0  0  0  0
    4.6662   -0.3738    7.1907 C   0  0  0  0  0  0  0  0  0  0  0  0
    3.0441   -0.2529    5.3705 C   0  0  0  0  0  0  0  0  0  0  0  0
    2.4346    3.6487    8.0298 C   0  0  0  0  0  0  0  0  0  0  0  0
    3.2927    2.3670    7.8795 C   0  0  0  0  0  0  0  0  0  0  0  0
    2.4181    9.9661    7.2714 C   0  0  0  0  0  0  0  0  0  0  0  0
    0.0132    3.3499    8.6121 C   0  0  0  0  0  0  0  0  0  0  0  0
    0.6536    2.9834    6.4023 C   0  0  0  0  0  0  0  0  0  0  0  0
    3.2999    5.4762    3.5546 C   0  0  0  0  0  0  0  0  0  0  0  0
    4.9192    3.1642    6.2914 C   0  0  0  0  0  0  0  0  0  0  0  0
    1.1246    9.9951    6.5265 C   0  0  0  0  0  0  0  0  0  0  0  0
    3.3127    9.0431    6.8910 C   0  0  0  0  0  0  0  0  0  0  0  0
    1.0176    3.3324    7.6929 C   0  0  0  0  0  0  0  0  0  0  0  0
    4.1712    0.5824    6.1098 C   0  0  0  0  0  0  0  0  0  0  0  0
   -1.2327    2.9259    8.1704 C   0  0  0  0  0  0  0  0  0  0  0  0
   -0.5258    2.3870    6.0537 C   0  0  0  0  0  0  0  0  0  0  0  0
    3.6936    4.3019    4.4169 C   0  0  0  0  0  0  0  0  0  0  0  0
    4.6868    4.2710    5.3187 C   0  0  0  0  0  0  0  0  0  0  0  0
    2.8926    6.6816    4.3637 C   0  0  0  0  0  0  0  0  0  0  0  0
    2.9316    3.0820    4.2313 C   0  0  0  0  0  0  0  0  0  0  0  0
    1.7336    8.2507    5.1979 C   0  0  0  0  0  0  0  0  0  0  0  0
    3.8163    2.0872    6.4101 C   0  0  1  0  0  0  0  0  0  0  0  0
    0.7990    9.1874    5.5574 N   0  0  0  0  0  0  0  0  0  0  0  0
   -1.5054    2.3943    6.9419 N   0  0  0  0  0  0  0  0  0  0  0  0
    1.6694    7.2887    4.2943 N   0  0  0  0  0  0  0  0  0  0  0  0
    3.7454    7.2433    5.2340 N   0  0  0  0  0  0  0  0  0  0  0  0
    2.9862    8.1941    5.8281 N   0  0  0  0  0  0  0  0  0  0  0  0
    5.4988    5.3569    5.5792 O   0  0  0  0  0  0  0  0  0  0  0  0
    2.1807    2.9184    3.2628 O   0  0  0  0  0  0  0  0  0  0  0  0
    2.9101    2.2437    5.2807 O   0  0  0  0  0  0  0  0  0  0  0  0
   -3.4962    1.4831    8.1012 H   0  0  0  0  0  0  0  0  0  0  0  0
   -4.0564    1.9144    9.7252 H   0  0  0  0  0  0  0  0  0  0  0  0
   -2.5360    1.0049    9.5032 H   0  0  0  0  0  0  0  0  0  0  0  0
   -2.0732    0.2437    5.2969 H   0  0  0  0  0  0  0  0  0  0  0  0
   -1.3106   -0.0332    3.7160 H   0  0  0  0  0  0  0  0  0  0  0  0
   -0.3791   -0.2669    5.2019 H   0  0  0  0  0  0  0  0  0  0  0  0
   -0.0674   11.7285    6.1345 H   0  0  0  0  0  0  0  0  0  0  0  0
   -0.7716   10.5883    7.3207 H   0  0  0  0  0  0  0  0  0  0  0  0
    0.5656   11.6546    7.7890 H   0  0  0  0  0  0  0  0  0  0  0  0
    4.7321    7.9374    8.0640 H   0  0  0  0  0  0  0  0  0  0  0  0
    5.4604    9.0679    6.8891 H   0  0  0  0  0  0  0  0  0  0  0  0
    4.7287    9.6712    8.3762 H   0  0  0  0  0  0  0  0  0  0  0  0
   -3.0188    3.9124    8.6131 H   0  0  0  0  0  0  0  0  0  0  0  0
   -2.0993    3.4168   10.0482 H   0  0  0  0  0  0  0  0  0  0  0  0
   -1.4304    2.4211    4.1203 H   0  0  0  0  0  0  0  0  0  0  0  0
    0.2201    1.8287    4.1027 H   0  0  0  0  0  0  0  0  0  0  0  0
    2.8265   -1.2297    7.9950 H   0  0  0  0  0  0  0  0  0  0  0  0
    4.0856   -2.4333    7.6651 H   0  0  0  0  0  0  0  0  0  0  0  0
    3.7542   -2.2897    5.2903 H   0  0  0  0  0  0  0  0  0  0  0  0
    2.1012   -2.1504    5.8962 H   0  0  0  0  0  0  0  0  0  0  0  0
    4.8940    0.0868    8.1520 H   0  0  0  0  0  0  0  0  0  0  0  0
    5.5934   -0.8173    6.8071 H   0  0  0  0  0  0  0  0  0  0  0  0
    3.2295   -0.2568    4.2887 H   0  0  0  0  0  0  0  0  0  0  0  0
    2.0272    0.1312    5.5205 H   0  0  0  0  0  0  0  0  0  0  0  0
    2.7733    4.4798    7.4010 H   0  0  0  0  0  0  0  0  0  0  0  0
    2.5186    4.0277    9.0596 H   0  0  0  0  0  0  0  0  0  0  0  0
    4.1905    2.5290    8.5104 H   0  0  0  0  0  0  0  0  0  0  0  0
    2.8360    1.5075    8.3823 H   0  0  0  0  0  0  0  0  0  0  0  0
    2.5922   10.6736    8.0708 H   0  0  0  0  0  0  0  0  0  0  0  0
    0.1828    3.7260    9.6132 H   0  0  0  0  0  0  0  0  0  0  0  0
    1.2760    3.2406    5.5955 H   0  0  0  0  0  0  0  0  0  0  0  0
    4.1804    5.7171    2.9501 H   0  0  0  0  0  0  0  0  0  0  0  0
    2.5010    5.2311    2.8440 H   0  0  0  0  0  0  0  0  0  0  0  0
    4.9208    3.7647    7.2183 H   0  0  0  0  0  0  0  0  0  0  0  0
    5.9194    2.7425    6.2771 H   0  0  0  0  0  0  0  0  0  0  0  0
    4.9760    0.6688    5.3714 H   0  0  0  0  0  0  0  0  0  0  0  0
    5.0461    6.1798    5.2868 H   0  0  0  0  0  0  0  0  0  0  0  0
  1 38  1  0  0  0  0
  1 39  1  0  0  0  0
  1 40  1  0  0  0  0
  2 41  1  0  0  0  0
  2 42  1  0  0  0  0
  2 43  1  0  0  0  0
  3 44  1  0  0  0  0
  3 45  1  0  0  0  0
  3 46  1  0  0  0  0
  4 47  1  0  0  0  0
  4 48  1  0  0  0  0
  4 49  1  0  0  0  0
  5  1  1  0  0  0  0
  5 50  1  0  0  0  0
  5 51  1  0  0  0  0
  6  2  1  0  0  0  0
  6 52  1  0  0  0  0
  6 53  1  0  0  0  0
  7 54  1  0  0  0  0
  7 55  1  0  0  0  0
  8  7  1  0  0  0  0
  8 56  1  0  0  0  0
  8 57  1  0  0  0  0
  9  7  1  0  0  0  0
  9 58  1  0  0  0  0
  9 59  1  0  0  0  0
 10  8  1  0  0  0  0
 10 60  1  0  0  0  0
 10 61  1  0  0  0  0
 11 62  1  0  0  0  0
 11 63  1  0  0  0  0
 12 11  1  0  0  0  0
 12 64  1  0  0  0  0
 12 65  1  0  0  0  0
 13 66  1  0  0  0  0
 14 67  1  0  0  0  0
 15 68  1  0  0  0  0
 16 69  1  0  0  0  0
 16 70  1  0  0  0  0
 17 71  1  0  0  0  0
 17 72  1  0  0  0  0
 18  3  1  0  0  0  0
 18 13  1  0  0  0  0
 19  4  1  0  0  0  0
 19 13  2  0  0  0  0
 20 11  1  0  0  0  0
 20 14  2  0  0  0  0
 20 15  1  0  0  0  0
 21  9  1  0  0  0  0
 21 10  1  0  0  0  0
 21 73  1  0  0  0  0
 22  5  1  0  0  0  0
 22 14  1  0  0  0  0
 23  6  1  0  0  0  0
 23 15  2  0  0  0  0
 24 16  1  0  0  0  0
 25 17  1  0  0  0  0
 25 24  2  0  0  0  0
 26 16  1  0  0  0  0
 27 24  1  0  0  0  0
 29 17  1  0  0  0  0
 29 21  1  0  0  0  0
 29 12  1  1  0  0  0
 30 18  2  0  0  0  0
 30 28  1  0  0  0  0
 31 22  2  0  0  0  0
 31 23  1  0  0  0  0
 32 26  1  0  0  0  0
 32 28  2  0  0  0  0
 33 26  2  0  0  0  0
 34 19  1  0  0  0  0
 34 28  1  0  0  0  0
 34 33  1  0  0  0  0
 35 25  1  0  0  0  0
 35 74  1  0  0  0  0
 36 27  2  0  0  0  0
 37 27  1  0  0  0  0
 37 29  1  0  0  0  0
M  END
>  <DRUGBANK_ID>
DB11878

>  <COMMON_NAME>
Filibuvir

>  <CAS_NUMBER>
877130-28-4

>  <UNII>
198J479Y2L

>  <SYNONYMS>
Filibuvir

$$$$
