
 OpenBabel10282417123D

 52 51  0  0  0  0  0  0  0  0999 V2000
   -2.0273    3.0008    4.8740 O   0  0  0  0  0  0  0  0  0  0  0  0
   -4.2852   -0.3900   -0.5020 O   0  0  0  0  0  0  0  0  0  0  0  0
   -4.2975    1.7306    0.2847 O   0  0  0  0  0  0  0  0  0  0  0  0
   -2.2993    8.5387    3.9818 O   0  0  0  0  0  0  0  0  0  0  0  0
   -0.2183    2.6175   -1.2435 O   0  0  0  0  0  0  0  0  0  0  0  0
   -4.5497    3.5092    3.7212 O   0  0  0  0  0  0  0  0  0  0  0  0
   -5.0617    5.2953    4.9531 O   0  0  0  0  0  0  0  0  0  0  0  0
   -1.2430    1.1486    0.1040 N   0  0  0  0  0  0  0  0  0  0  0  0
   -1.8326    5.1518    4.4374 N   0  0  0  0  0  0  0  0  0  0  0  0
   -3.7341    7.0359    3.1114 N   0  0  0  0  0  0  0  0  0  0  0  0
   -2.3377    0.1764   -2.3239 N   0  0  0  0  0  0  0  0  0  0  0  0
   -1.1467    1.0658    2.9248 C   0  0  0  0  0  0  0  0  0  0  0  0
   -2.4381    0.6325    2.2199 C   0  0  0  0  0  0  0  0  0  0  0  0
   -0.5382    2.4283    2.5184 C   0  0  0  0  0  0  0  0  0  0  0  0
   -2.3204    0.3583    0.7023 C   0  0  1  0  0  0  0  0  0  0  0  0
   -1.5200    3.5543    2.5826 C   0  0  0  0  0  0  0  0  0  0  0  0
   -1.7560    3.8666    4.0480 C   0  0  0  0  0  0  0  0  0  0  0  0
   -1.4091    6.3112    3.6861 C   0  0  1  0  0  0  0  0  0  0  0  0
   -3.7346    0.6464    0.1710 C   0  0  0  0  0  0  0  0  0  0  0  0
   -2.5120    7.3736    3.6503 C   0  0  0  0  0  0  0  0  0  0  0  0
   -0.0773    6.7681    4.2407 C   0  0  0  0  0  0  0  0  0  0  0  0
   -1.1709    1.8618   -1.0564 C   0  0  0  0  0  0  0  0  0  0  0  0
   -4.2197    5.7064    2.7028 C   0  0  2  0  0  0  0  0  0  0  0  0
   -2.2464    1.6367   -2.0988 C   0  0  0  0  0  0  0  0  0  0  0  0
   -5.5084    5.7664    1.8865 C   0  0  0  0  0  0  0  0  0  0  0  0
   -4.6144    4.8469    3.9262 C   0  0  0  0  0  0  0  0  0  0  0  0
   -0.3251    1.0406    0.5150 H   0  0  0  0  0  0  0  0  0  0  0  0
   -2.0798    5.2641    5.4203 H   0  0  0  0  0  0  0  0  0  0  0  0
   -4.4090    7.7894    3.1757 H   0  0  0  0  0  0  0  0  0  0  0  0
   -3.0956    0.0063   -2.9817 H   0  0  0  0  0  0  0  0  0  0  0  0
   -1.4661   -0.1188   -2.7683 H   0  0  0  0  0  0  0  0  0  0  0  0
   -3.5872   -1.0074   -0.8124 H   0  0  0  0  0  0  0  0  0  0  0  0
   -3.8208    3.2143    3.1603 H   0  0  0  0  0  0  0  0  0  0  0  0
   -0.3927    0.2859    2.8141 H   0  0  0  0  0  0  0  0  0  0  0  0
   -1.3781    1.0795    3.9943 H   0  0  0  0  0  0  0  0  0  0  0  0
   -2.8283   -0.2757    2.7021 H   0  0  0  0  0  0  0  0  0  0  0  0
   -3.2301    1.3632    2.4275 H   0  0  0  0  0  0  0  0  0  0  0  0
   -0.1477    2.4880    1.5085 H   0  0  0  0  0  0  0  0  0  0  0  0
    0.3345    2.6525    3.1351 H   0  0  0  0  0  0  0  0  0  0  0  0
   -2.0377   -0.6907    0.5697 H   0  0  0  0  0  0  0  0  0  0  0  0
   -2.4328    3.2924    2.0414 H   0  0  0  0  0  0  0  0  0  0  0  0
   -1.1416    4.3844    1.9929 H   0  0  0  0  0  0  0  0  0  0  0  0
   -1.2378    6.0680    2.6415 H   0  0  0  0  0  0  0  0  0  0  0  0
    0.6416    5.9375    4.2443 H   0  0  0  0  0  0  0  0  0  0  0  0
    0.3311    7.5713    3.6245 H   0  0  0  0  0  0  0  0  0  0  0  0
   -0.1829    7.1224    5.2699 H   0  0  0  0  0  0  0  0  0  0  0  0
   -3.4323    5.2669    2.0869 H   0  0  0  0  0  0  0  0  0  0  0  0
   -3.1866    2.0737   -1.7604 H   0  0  0  0  0  0  0  0  0  0  0  0
   -1.9807    2.1548   -3.0223 H   0  0  0  0  0  0  0  0  0  0  0  0
   -6.1800    4.9411    2.1581 H   0  0  0  0  0  0  0  0  0  0  0  0
   -6.0529    6.6986    2.0541 H   0  0  0  0  0  0  0  0  0  0  0  0
   -5.3068    5.6573    0.8173 H   0  0  0  0  0  0  0  0  0  0  0  0
  1 17  2  0  0  0  0
  2 19  1  0  0  0  0
  2 32  1  0  0  0  0
  3 19  2  0  0  0  0
  4 20  2  0  0  0  0
  5 22  2  0  0  0  0
  6 26  1  0  0  0  0
  6 33  1  0  0  0  0
  7 26  2  0  0  0  0
  8 22  1  0  0  0  0
  8 27  1  0  0  0  0
  9 17  1  0  0  0  0
  9 28  1  0  0  0  0
 10 20  1  0  0  0  0
 10 29  1  0  0  0  0
 11 24  1  0  0  0  0
 11 30  1  0  0  0  0
 11 31  1  0  0  0  0
 12 13  1  0  0  0  0
 12 14  1  0  0  0  0
 12 34  1  0  0  0  0
 12 35  1  0  0  0  0
 13 36  1  0  0  0  0
 13 37  1  0  0  0  0
 14 16  1  0  0  0  0
 14 38  1  0  0  0  0
 14 39  1  0  0  0  0
 15 19  1  0  0  0  0
 15 40  1  6  0  0  0
 15 13  1  0  0  0  0
 15  8  1  0  0  0  0
 16 17  1  0  0  0  0
 16 41  1  0  0  0  0
 16 42  1  0  0  0  0
 18  9  1  0  0  0  0
 18 20  1  0  0  0  0
 18 21  1  0  0  0  0
 18 43  1  6  0  0  0
 21 44  1  0  0  0  0
 21 45  1  0  0  0  0
 21 46  1  0  0  0  0
 22 24  1  0  0  0  0
 23 26  1  0  0  0  0
 23 47  1  6  0  0  0
 23 25  1  0  0  0  0
 23 10  1  0  0  0  0
 24 48  1  0  0  0  0
 24 49  1  0  0  0  0
 25 50  1  0  0  0  0
 25 51  1  0  0  0  0
 25 52  1  0  0  0  0
M  END
>  <DRUGBANK_ID>
DB02578

>  <SECONDARY_ACCESSION_NUMBERS>
EXPT02773

>  <COMMON_NAME>
N-[(6S)-6-Carboxy-6-(glycylamino)hexanoyl]-D-alanyl-D-alanine

>  <SYNONYMS>
Glycyl-L-alpha-amino-epsilon-pimelyl-D-alanyl-D-alanine

$$$$
