
 OpenBabel10282417193D

 32 34  0  0  0  0  0  0  0  0999 V2000
    2.2768    0.0027    0.0032 C   0  0  0  0  0  0  0  0  0  0  0  0
    1.6163    1.1473    0.0410 N   0  0  0  0  0  0  0  0  0  0  0  0
    0.2986    0.7864   -0.0174 C   0  0  0  0  0  0  0  0  0  0  0  0
   -0.9245    1.5723   -0.0051 C   0  0  0  0  0  0  0  0  0  0  0  0
   -0.9818    2.8036    0.0393 O   0  0  0  0  0  0  0  0  0  0  0  0
   -2.0808    0.8062   -0.0595 N   0  0  0  0  0  0  0  0  0  0  0  0
   -2.0851   -0.5474   -0.2380 C   0  0  0  0  0  0  0  0  0  0  0  0
   -0.9869   -1.2512   -0.2687 N   0  0  0  0  0  0  0  0  0  0  0  0
    0.1708   -0.5744   -0.1223 C   0  0  0  0  0  0  0  0  0  0  0  0
    1.4466   -1.1161   -0.0292 N   0  0  0  0  0  0  0  0  0  0  0  0
    1.8380   -2.4682    0.0406 C   0  0  0  0  0  0  0  0  0  0  0  0
    1.0353   -3.5253    0.0524 C   0  0  0  0  0  0  0  0  0  0  0  0
    0.9708   -4.9349    0.0698 C   0  0  0  0  0  0  0  0  0  0  0  0
   -0.3083   -4.0107   -0.0537 C   0  0  0  0  0  0  0  0  0  0  0  0
   -1.2781   -4.1018    1.1070 C   0  0  0  0  0  0  0  0  0  0  0  0
   -2.0703   -2.9361    1.2544 O   0  0  0  0  0  0  0  0  0  0  0  0
   -1.0173   -3.9412   -1.3949 C   0  0  0  0  0  0  0  0  0  0  0  0
   -0.1606   -3.4925   -2.4392 O   0  0  0  0  0  0  0  0  0  0  0  0
   -3.2887   -1.1805   -0.3220 N   0  0  0  0  0  0  0  0  0  0  0  0
    3.3576   -0.0811    0.0151 H   0  0  0  0  0  0  0  0  0  0  0  0
   -2.9552    1.3006   -0.0383 H   0  0  0  0  0  0  0  0  0  0  0  0
    2.9169   -2.6240    0.0746 H   0  0  0  0  0  0  0  0  0  0  0  0
    1.2442   -5.5118   -0.8062 H   0  0  0  0  0  0  0  0  0  0  0  0
    1.1547   -5.4367    1.0132 H   0  0  0  0  0  0  0  0  0  0  0  0
   -1.9892   -4.9052    0.9069 H   0  0  0  0  0  0  0  0  0  0  0  0
   -0.7996   -4.2537    2.0743 H   0  0  0  0  0  0  0  0  0  0  0  0
   -1.4275   -2.2078    1.1136 H   0  0  0  0  0  0  0  0  0  0  0  0
   -1.4220   -4.9205   -1.6579 H   0  0  0  0  0  0  0  0  0  0  0  0
   -1.8683   -3.2589   -1.3588 H   0  0  0  0  0  0  0  0  0  0  0  0
    0.0779   -2.5794   -2.1915 H   0  0  0  0  0  0  0  0  0  0  0  0
   -3.2242   -2.1513    0.0105 H   0  0  0  0  0  0  0  0  0  0  0  0
   -4.1131   -0.7410    0.0625 H   0  0  0  0  0  0  0  0  0  0  0  0
  1  2  2  0  0  0  0
  1 10  1  0  0  0  0
  1 20  1  0  0  0  0
  2  3  1  0  0  0  0
  3  4  1  0  0  0  0
  3  9  2  0  0  0  0
  4  5  2  0  0  0  0
  4  6  1  0  0  0  0
  6  7  1  0  0  0  0
  6 21  1  0  0  0  0
  7  8  2  0  0  0  0
  7 19  1  0  0  0  0
  8  9  1  0  0  0  0
  9 10  1  0  0  0  0
 10 11  1  0  0  0  0
 11 12  2  0  0  0  0
 11 22  1  0  0  0  0
 12 13  1  0  0  0  0
 12 14  1  0  0  0  0
 13 14  1  0  0  0  0
 13 23  1  0  0  0  0
 13 24  1  0  0  0  0
 14 15  1  0  0  0  0
 14 17  1  0  0  0  0
 15 16  1  0  0  0  0
 15 25  1  0  0  0  0
 15 26  1  0  0  0  0
 16 27  1  0  0  0  0
 17 18  1  0  0  0  0
 17 28  1  0  0  0  0
 17 29  1  0  0  0  0
 18 30  1  0  0  0  0
 19 31  1  0  0  0  0
 19 32  1  0  0  0  0
M  END
>  <DRUGBANK_ID>
DB12438

>  <COMMON_NAME>
Filociclovir

>  <CAS_NUMBER>
632325-71-4

>  <UNII>
EAO0TD9B13

>  <SYNONYMS>
Filociclovir

$$$$
