39Z
 OpenBabel10282417163D

 30 32  0  0  0  0  0  0  0  0999 V2000
    2.3386    0.0935    0.0132 C   0  0  0  0  0  0  0  0  0  0  0  0
    1.5167   -1.1299    0.0327 C   0  0  0  0  0  0  0  0  0  0  0  0
    0.3040    0.7183    0.0064 C   0  0  0  0  0  0  0  0  0  0  0  0
    0.2482   -0.7354    0.0157 C   0  0  0  0  0  0  0  0  0  0  0  0
   -0.9791   -1.4517   -0.0073 C   0  0  0  0  0  0  0  0  0  0  0  0
   -2.1292   -0.7793   -0.0021 C   0  0  0  0  0  0  0  0  0  0  0  0
   -2.1441    0.6740    0.0018 C   0  0  0  0  0  0  0  0  0  0  0  0
   -1.0102    1.4098    0.0007 C   0  0  0  0  0  0  0  0  0  0  0  0
    2.0276   -2.5318   -0.0083 C   0  0  1  0  0  0  0  0  0  0  0  0
    1.5788   -3.2569    1.2697 C   0  0  0  0  0  0  0  0  0  0  0  0
    1.5670   -3.2101   -1.2839 C   0  0  0  0  0  0  0  0  0  0  0  0
    3.5609    0.0897    0.0090 O   0  0  0  0  0  0  0  0  0  0  0  0
    1.5034    1.1972    0.0081 N   0  0  0  0  0  0  0  0  0  0  0  0
   -3.3120   -1.4783    0.0016 O   0  0  0  0  0  0  0  0  0  0  0  0
    1.8677   -2.8564   -2.5886 C   0  0  0  0  0  0  0  0  0  0  0  0
    1.0509   -3.6244   -3.4461 C   0  0  0  0  0  0  0  0  0  0  0  0
    0.2904   -4.4507   -2.6528 C   0  0  0  0  0  0  0  0  0  0  0  0
    0.6309   -4.2187   -1.3457 N   0  0  0  0  0  0  0  0  0  0  0  0
    3.1251   -2.5347   -0.0170 H   0  0  0  0  0  0  0  0  0  0  0  0
   -0.9917   -2.5301   -0.0266 H   0  0  0  0  0  0  0  0  0  0  0  0
   -3.1074    1.1713   -0.0023 H   0  0  0  0  0  0  0  0  0  0  0  0
   -1.0112    2.4916   -0.0037 H   0  0  0  0  0  0  0  0  0  0  0  0
    0.4890   -3.2882    1.3769 H   0  0  0  0  0  0  0  0  0  0  0  0
    1.9237   -4.2940    1.2858 H   0  0  0  0  0  0  0  0  0  0  0  0
    1.9632   -2.7466    2.1602 H   0  0  0  0  0  0  0  0  0  0  0  0
   -4.0644   -0.8686   -0.0067 H   0  0  0  0  0  0  0  0  0  0  0  0
    2.5555   -2.0709   -2.8792 H   0  0  0  0  0  0  0  0  0  0  0  0
    1.0054   -3.5602   -4.5251 H   0  0  0  0  0  0  0  0  0  0  0  0
   -0.4713   -5.1759   -2.9059 H   0  0  0  0  0  0  0  0  0  0  0  0
    0.1850   -4.6628   -0.5529 H   0  0  0  0  0  0  0  0  0  0  0  0
  1 13  1  0  0  0  0
  1  2  1  0  0  0  0
  1 12  2  0  0  0  0
  2  4  2  0  0  0  0
  2  9  1  0  0  0  0
  3  8  1  0  0  0  0
  3 13  2  0  0  0  0
  3  4  1  0  0  0  0
  4  5  1  0  0  0  0
  5  6  2  0  0  0  0
  5 20  1  0  0  0  0
  6  7  1  0  0  0  0
  6 14  1  0  0  0  0
  7  8  2  0  0  0  0
  7 21  1  0  0  0  0
  8 22  1  0  0  0  0
  9 10  1  0  0  0  0
  9 11  1  0  0  0  0
  9 19  1  6  0  0  0
 10 23  1  0  0  0  0
 10 24  1  0  0  0  0
 10 25  1  0  0  0  0
 11 18  1  0  0  0  0
 11 15  2  0  0  0  0
 14 26  1  0  0  0  0
 15 16  1  0  0  0  0
 15 27  1  0  0  0  0
 16 17  2  0  0  0  0
 16 28  1  0  0  0  0
 17 18  1  0  0  0  0
 17 29  1  0  0  0  0
 18 30  1  0  0  0  0
M  END
>  <DRUGBANK_ID>
DB07033

>  <COMMON_NAME>
5-HYDROXY-3-[(1R)-1-(1H-PYRROL-2-YL)ETHYL]-2H-INDOL-2-ONE

$$$$
