
 OpenBabel10282417203D

 28 28  0  0  0  0  0  0  0  0999 V2000
    2.4944    0.0094   -0.0118 C   0  0  0  0  0  0  0  0  0  0  0  0
   -4.9737   -1.3456    1.2241 C   0  0  0  0  0  0  0  0  0  0  0  0
   -5.6605   -2.6417   -1.3608 C   0  0  0  0  0  0  0  0  0  0  0  0
    0.2737    1.2123    0.0061 C   0  0  0  0  0  0  0  0  0  0  0  0
    0.3024   -1.1954    0.0077 C   0  0  0  0  0  0  0  0  0  0  0  0
   -1.1258    1.1960   -0.0035 C   0  0  0  0  0  0  0  0  0  0  0  0
   -1.0929   -1.2127   -0.0031 C   0  0  0  0  0  0  0  0  0  0  0  0
    0.9962    0.0153    0.0057 C   0  0  0  0  0  0  0  0  0  0  0  0
   -4.1216   -1.3070   -0.0423 C   0  0  3  0  0  0  0  0  0  0  0  0
   -1.8251   -0.0201   -0.0180 C   0  0  0  0  0  0  0  0  0  0  0  0
   -3.3236    0.0106   -0.0550 C   0  0  0  0  0  0  0  0  0  0  0  0
   -4.9215   -1.3889   -1.2798 N   0  0  0  0  0  0  0  0  0  0  0  0
   -3.9000    1.1052   -0.0734 O   0  0  0  0  0  0  0  0  0  0  0  0
    2.8798   -0.5191    0.8659 H   0  0  0  0  0  0  0  0  0  0  0  0
    2.8554   -0.4871   -0.9186 H   0  0  0  0  0  0  0  0  0  0  0  0
    2.8972    1.0265    0.0004 H   0  0  0  0  0  0  0  0  0  0  0  0
   -5.7126   -0.5376    1.2322 H   0  0  0  0  0  0  0  0  0  0  0  0
   -5.5049   -2.2973    1.3204 H   0  0  0  0  0  0  0  0  0  0  0  0
   -4.3452   -1.2428    2.1139 H   0  0  0  0  0  0  0  0  0  0  0  0
   -6.3868   -2.7466   -0.5501 H   0  0  0  0  0  0  0  0  0  0  0  0
   -6.2204   -2.6895   -2.2977 H   0  0  0  0  0  0  0  0  0  0  0  0
   -4.9764   -3.4971   -1.3346 H   0  0  0  0  0  0  0  0  0  0  0  0
    0.7943    2.1677    0.0057 H   0  0  0  0  0  0  0  0  0  0  0  0
    0.8407   -2.1412    0.0073 H   0  0  0  0  0  0  0  0  0  0  0  0
   -1.6640    2.1431   -0.0076 H   0  0  0  0  0  0  0  0  0  0  0  0
   -1.5582   -2.1895   -0.0111 H   0  0  0  0  0  0  0  0  0  0  0  0
   -3.4630   -2.1711   -0.0274 H   0  0  0  0  0  0  0  0  0  0  0  0
   -5.5641   -0.5935   -1.3035 H   0  0  0  0  0  0  0  0  0  0  0  0
  1 14  1  0  0  0  0
  1 15  1  0  0  0  0
  1 16  1  0  0  0  0
  2 17  1  0  0  0  0
  2 18  1  0  0  0  0
  2 19  1  0  0  0  0
  3 20  1  0  0  0  0
  3 21  1  0  0  0  0
  3 22  1  0  0  0  0
  4 23  1  0  0  0  0
  5 24  1  0  0  0  0
  6  4  1  0  0  0  0
  6 25  1  0  0  0  0
  7  5  2  0  0  0  0
  7 26  1  0  0  0  0
  8  1  1  0  0  0  0
  8  4  2  0  0  0  0
  8  5  1  0  0  0  0
  9  2  1  0  0  0  0
  9 27  1  0  0  0  0
 10  6  2  0  0  0  0
 10  7  1  0  0  0  0
 11  9  1  0  0  0  0
 11 10  1  0  0  0  0
 12  3  1  0  0  0  0
 12  9  1  0  0  0  0
 12 28  1  0  0  0  0
 13 11  2  0  0  0  0
M  END
>  <DRUGBANK_ID>
DB13108

>  <COMMON_NAME>
Mephedrone

>  <CAS_NUMBER>
1189805-46-6

>  <UNII>
8BA8T27317

$$$$
