
 OpenBabel10282417193D

 40 39  0  0  0  0  0  0  0  0999 V2000
    0.8528    0.1603    0.1219 C   0  0  0  0  0  0  0  0  0  0  0  0
    0.8228    0.5007   -1.3646 C   0  0  0  0  0  0  0  0  0  0  0  0
    1.5319   -0.6330   -2.4742 C   0  0  0  0  0  0  0  0  0  0  0  0
    1.6022   -2.2641   -2.4009 N   0  0  0  0  0  0  0  0  0  0  0  0
    1.3867   -3.3857   -3.3315 C   0  0  0  0  0  0  0  0  0  0  0  0
    2.8420   -3.6575   -3.5886 C   0  0  0  0  0  0  0  0  0  0  0  0
    3.4906   -4.6276   -3.1134 O   0  0  0  0  0  0  0  0  0  0  0  0
    3.4563   -2.4722   -3.8755 O   0  0  0  0  0  0  0  0  0  0  0  0
    1.9576   -2.8734   -1.1649 C   0  0  0  0  0  0  0  0  0  0  0  0
    3.2413   -2.6708   -0.5023 C   0  0  0  0  0  0  0  0  0  0  0  0
    3.6230   -1.6280   -0.0527 O   0  0  0  0  0  0  0  0  0  0  0  0
    3.9845   -3.7599   -0.6730 O   0  0  0  0  0  0  0  0  0  0  0  0
   -0.5303    0.9308   -1.5116 O   0  0  0  0  0  0  0  0  0  0  0  0
   -0.1780   -0.8785    0.5252 N   0  0  0  0  0  0  0  0  0  0  0  0
   -1.6342   -0.9128    0.5761 C   0  0  0  0  0  0  0  0  0  0  0  0
   -2.5579   -1.0356   -0.7235 C   0  0  0  0  0  0  0  0  0  0  0  0
   -3.3524   -1.9764   -0.7871 O   0  0  0  0  0  0  0  0  0  0  0  0
   -2.4350   -0.2922   -1.8597 O   0  0  0  0  0  0  0  0  0  0  0  0
    0.0018   -2.1949   -0.0031 C   0  0  0  0  0  0  0  0  0  0  0  0
   -0.6063   -2.1943   -1.7336 C   0  0  0  0  0  0  0  0  0  0  0  0
   -0.5019   -1.3663   -2.6786 O   0  0  0  0  0  0  0  0  0  0  0  0
   -1.5421   -2.9720   -2.2303 O   0  0  0  0  0  0  0  0  0  0  0  0
    0.6686    1.0500    0.7432 H   0  0  0  0  0  0  0  0  0  0  0  0
    1.9254   -0.0384    0.3176 H   0  0  0  0  0  0  0  0  0  0  0  0
    1.2846    1.4434   -1.6417 H   0  0  0  0  0  0  0  0  0  0  0  0
    1.0642   -0.2768   -3.4068 H   0  0  0  0  0  0  0  0  0  0  0  0
    2.5760   -0.3611   -2.4433 H   0  0  0  0  0  0  0  0  0  0  0  0
    0.8919   -4.2852   -2.8347 H   0  0  0  0  0  0  0  0  0  0  0  0
    0.7442   -3.2421   -4.2014 H   0  0  0  0  0  0  0  0  0  0  0  0
    4.2173   -2.2820   -3.2942 H   0  0  0  0  0  0  0  0  0  0  0  0
    1.6934   -1.9160   -0.8357 H   0  0  0  0  0  0  0  0  0  0  0  0
    1.3035   -3.7155   -0.8152 H   0  0  0  0  0  0  0  0  0  0  0  0
    4.5673   -3.4689   -1.3934 H   0  0  0  0  0  0  0  0  0  0  0  0
   -0.9508    0.1967   -1.0403 H   0  0  0  0  0  0  0  0  0  0  0  0
   -1.7989   -1.9262    1.0416 H   0  0  0  0  0  0  0  0  0  0  0  0
   -1.9591   -0.2152    1.3149 H   0  0  0  0  0  0  0  0  0  0  0  0
   -1.7651    0.3140   -2.3136 H   0  0  0  0  0  0  0  0  0  0  0  0
    1.0079   -2.1928    0.5056 H   0  0  0  0  0  0  0  0  0  0  0  0
   -0.1827   -3.1357    0.5401 H   0  0  0  0  0  0  0  0  0  0  0  0
   -1.6223   -2.3511   -3.0436 H   0  0  0  0  0  0  0  0  0  0  0  0
  1  2  1  0  0  0  0
  1 14  1  0  0  0  0
  1 23  1  0  0  0  0
  1 24  1  0  0  0  0
  2  3  1  0  0  0  0
  2 13  1  0  0  0  0
  2 25  1  0  0  0  0
  3  4  1  0  0  0  0
  3 26  1  0  0  0  0
  3 27  1  0  0  0  0
  4  5  1  0  0  0  0
  4  9  1  0  0  0  0
  5  6  1  0  0  0  0
  5 28  1  0  0  0  0
  5 29  1  0  0  0  0
  6  7  2  0  0  0  0
  6  8  1  0  0  0  0
  8 30  1  0  0  0  0
  9 10  1  0  0  0  0
  9 31  1  0  0  0  0
  9 32  1  0  0  0  0
 10 11  2  0  0  0  0
 10 12  1  0  0  0  0
 12 33  1  0  0  0  0
 13 34  1  0  0  0  0
 14 15  1  0  0  0  0
 14 19  1  0  0  0  0
 15 16  1  0  0  0  0
 15 35  1  0  0  0  0
 15 36  1  0  0  0  0
 16 17  2  0  0  0  0
 16 18  1  0  0  0  0
 18 37  1  0  0  0  0
 19 20  1  0  0  0  0
 19 38  1  0  0  0  0
 19 39  1  0  0  0  0
 20 21  2  0  0  0  0
 20 22  1  0  0  0  0
 22 40  1  0  0  0  0
M  END
>  <DRUGBANK_ID>
DB12362

>  <COMMON_NAME>
Diaminopropanol tetraacetic acid

>  <CAS_NUMBER>
3148-72-9

>  <UNII>
949B9ZMO7M

>  <SYNONYMS>
DAPT; Diaminohydroxypropanetetraacetic acid

$$$$
