
 OpenBabel10282417183D

 99103  0  0  0  0  0  0  0  0999 V2000
  -10.4725  -15.0576    9.9938 O   0  0  0  0  0  0  0  0  0  0  0  0
  -13.0880  -13.6204    8.2016 O   0  0  0  0  0  0  0  0  0  0  0  0
  -12.4512  -10.2062    3.4401 O   0  0  0  0  0  0  0  0  0  0  0  0
  -12.5930  -17.4292   11.2816 O   0  0  0  0  0  0  0  0  0  0  0  0
  -12.7009  -13.4778    4.4360 O   0  0  0  0  0  0  0  0  0  0  0  0
  -13.8177   -8.2366    0.4355 O   0  0  0  0  0  0  0  0  0  0  0  0
  -15.4085   -6.6995    0.1541 O   0  0  0  0  0  0  0  0  0  0  0  0
  -13.7685   -7.4551    4.8167 O   0  0  0  0  0  0  0  0  0  0  0  0
  -14.3396   -6.4040    4.1053 N   0  0  0  0  0  0  0  0  0  0  0  0
  -12.1858  -14.5823    7.9238 C   0  0  1  0  0  0  0  0  0  0  0  0
  -11.9317  -15.1940    9.8071 C   0  0  1  0  0  0  0  0  0  0  0  0
  -13.2508  -13.6944    6.3517 C   0  0  2  0  0  0  0  0  0  0  0  0
  -11.1103  -13.7213    8.2179 C   0  0  0  0  0  0  0  0  0  0  0  0
  -12.9195  -16.0905   10.6087 C   0  0  1  0  0  0  0  0  0  0  0  0
  -12.6121  -12.0729    4.5899 C   0  0  0  0  0  0  0  0  0  0  0  0
  -13.8798  -15.3641    7.6755 C   0  0  0  0  0  0  0  0  0  0  0  0
  -13.7938  -16.2567    9.2412 C   0  0  0  0  0  0  0  0  0  0  0  0
  -10.0288  -14.2065    8.9979 C   0  0  0  0  0  0  0  0  0  0  0  0
  -12.0239   -8.4998    1.8464 C   0  0  2  0  0  0  0  0  0  0  0  0
  -11.0974  -12.8755    7.2200 C   0  0  0  0  0  0  0  0  0  0  0  0
  -14.1530   -6.9045    0.6871 C   0  0  2  0  0  0  0  0  0  0  0  0
  -12.7921   -6.8968    0.3309 C   0  0  0  0  0  0  0  0  0  0  0  0
  -12.5787   -8.5018    1.1833 C   0  0  1  0  0  0  0  0  0  0  0  0
  -11.4401   -7.8510    0.0409 C   0  0  0  0  0  0  0  0  0  0  0  0
  -14.3881  -17.9438    9.8737 C   0  0  0  0  0  0  0  0  0  0  0  0
  -13.8791   -6.1396    1.8971 C   0  0  0  0  0  0  0  0  0  0  0  0
  -12.2582  -12.0466    6.9016 C   0  0  0  0  0  0  0  0  0  0  0  0
  -16.3027   -7.3986    1.0835 C   0  0  1  0  0  0  0  0  0  0  0  0
  -14.7087   -6.7502    2.9120 C   0  0  0  0  0  0  0  0  0  0  0  0
  -16.1383   -6.9078    2.5315 C   0  0  2  0  0  0  0  0  0  0  0  0
  -12.0907  -10.0110    0.5473 C   0  0  0  0  0  0  0  0  0  0  0  0
  -17.6610   -7.3662    0.4319 C   0  0  0  0  0  0  0  0  0  0  0  0
  -12.6145  -11.0624    6.1067 C   0  0  0  0  0  0  0  0  0  0  0  0
  -13.0435  -10.7819    1.3104 C   0  0  0  0  0  0  0  0  0  0  0  0
  -16.7603   -7.8256    3.5195 C   0  0  0  0  0  0  0  0  0  0  0  0
  -14.2576  -11.4913    4.9677 C   0  0  1  0  0  0  0  0  0  0  0  0
  -12.7327  -11.6875    2.2626 C   0  0  0  0  0  0  0  0  0  0  0  0
  -18.5537   -6.3679    0.5473 C   0  0  0  0  0  0  0  0  0  0  0  0
  -13.9451  -12.1126    3.1167 C   0  0  0  0  0  0  0  0  0  0  0  0
  -17.9453   -8.5507   -0.4499 C   0  0  0  0  0  0  0  0  0  0  0  0
  -19.8673   -6.3721   -0.1933 C   0  0  0  0  0  0  0  0  0  0  0  0
  -15.2359  -12.6324    5.1304 C   0  0  0  0  0  0  0  0  0  0  0  0
  -11.1471  -11.5886    2.9748 C   0  0  0  0  0  0  0  0  0  0  0  0
  -13.4457   -7.0334    6.1440 C   0  0  0  0  0  0  0  0  0  0  0  0
  -21.0218   -6.3624    0.7731 C   0  0  0  0  0  0  0  0  0  0  0  0
  -19.9613   -5.2058   -1.1435 C   0  0  0  0  0  0  0  0  0  0  0  0
  -11.5678  -15.9247   10.5660 H   0  0  0  0  0  0  0  0  0  0  0  0
  -14.4480  -13.5639    7.3709 H   0  0  0  0  0  0  0  0  0  0  0  0
  -11.5839   -6.9830    1.6469 H   0  0  0  0  0  0  0  0  0  0  0  0
  -12.9089   -7.6812    2.5481 H   0  0  0  0  0  0  0  0  0  0  0  0
  -13.3032  -13.2273    8.9538 H   0  0  0  0  0  0  0  0  0  0  0  0
  -11.7363  -17.6964   10.9636 H   0  0  0  0  0  0  0  0  0  0  0  0
  -12.8611  -15.8418   11.7420 H   0  0  0  0  0  0  0  0  0  0  0  0
  -14.8960  -16.1911    7.8497 H   0  0  0  0  0  0  0  0  0  0  0  0
   -9.2911  -13.5229    9.3569 H   0  0  0  0  0  0  0  0  0  0  0  0
   -9.5302  -14.6156    8.1480 H   0  0  0  0  0  0  0  0  0  0  0  0
  -10.2207  -12.5106    6.8530 H   0  0  0  0  0  0  0  0  0  0  0  0
  -12.9724   -5.5413   -0.5038 H   0  0  0  0  0  0  0  0  0  0  0  0
  -13.4572   -6.6513   -1.0264 H   0  0  0  0  0  0  0  0  0  0  0  0
  -10.5262   -7.2072   -0.5598 H   0  0  0  0  0  0  0  0  0  0  0  0
  -10.8184   -8.5600   -0.3257 H   0  0  0  0  0  0  0  0  0  0  0  0
  -15.4203  -18.0802    9.6299 H   0  0  0  0  0  0  0  0  0  0  0  0
  -13.7725  -18.7618    9.4383 H   0  0  0  0  0  0  0  0  0  0  0  0
  -14.3650  -18.2433   11.0029 H   0  0  0  0  0  0  0  0  0  0  0  0
  -13.6049   -5.1097    1.8578 H   0  0  0  0  0  0  0  0  0  0  0  0
  -12.9294   -6.2119    2.3923 H   0  0  0  0  0  0  0  0  0  0  0  0
  -13.4516  -12.1305    6.8035 H   0  0  0  0  0  0  0  0  0  0  0  0
  -16.0596   -8.4755    1.2148 H   0  0  0  0  0  0  0  0  0  0  0  0
  -16.6323   -5.9837    2.7902 H   0  0  0  0  0  0  0  0  0  0  0  0
  -10.9795   -9.8321    0.4168 H   0  0  0  0  0  0  0  0  0  0  0  0
  -11.4908  -10.8494    0.8092 H   0  0  0  0  0  0  0  0  0  0  0  0
  -11.4879  -11.1721    5.5232 H   0  0  0  0  0  0  0  0  0  0  0  0
  -14.0474  -10.5372    1.0644 H   0  0  0  0  0  0  0  0  0  0  0  0
  -17.8289   -7.6379    3.5944 H   0  0  0  0  0  0  0  0  0  0  0  0
  -16.5742   -8.8483    3.2256 H   0  0  0  0  0  0  0  0  0  0  0  0
  -16.3106   -7.6309    4.4889 H   0  0  0  0  0  0  0  0  0  0  0  0
  -14.6798  -10.5702    5.0284 H   0  0  0  0  0  0  0  0  0  0  0  0
  -18.3340   -5.5038    1.1710 H   0  0  0  0  0  0  0  0  0  0  0  0
  -14.7629  -11.9478    2.4815 H   0  0  0  0  0  0  0  0  0  0  0  0
  -13.7903  -13.2193    3.1746 H   0  0  0  0  0  0  0  0  0  0  0  0
  -17.2101   -8.6358   -1.2457 H   0  0  0  0  0  0  0  0  0  0  0  0
  -17.9739   -9.4687    0.1331 H   0  0  0  0  0  0  0  0  0  0  0  0
  -18.9033   -8.4976   -0.9458 H   0  0  0  0  0  0  0  0  0  0  0  0
  -19.9888   -7.2596   -0.7980 H   0  0  0  0  0  0  0  0  0  0  0  0
  -15.2829  -13.4103    4.3449 H   0  0  0  0  0  0  0  0  0  0  0  0
  -15.0708  -13.1076    6.0375 H   0  0  0  0  0  0  0  0  0  0  0  0
  -16.1145  -12.0547    5.1575 H   0  0  0  0  0  0  0  0  0  0  0  0
  -10.9462  -12.5539    3.3453 H   0  0  0  0  0  0  0  0  0  0  0  0
  -10.4814  -11.1176    2.3071 H   0  0  0  0  0  0  0  0  0  0  0  0
  -10.9919  -10.8832    3.8911 H   0  0  0  0  0  0  0  0  0  0  0  0
  -12.6922   -6.2413    6.1502 H   0  0  0  0  0  0  0  0  0  0  0  0
  -14.3302   -6.7013    6.6936 H   0  0  0  0  0  0  0  0  0  0  0  0
  -13.0298   -7.9020    6.6617 H   0  0  0  0  0  0  0  0  0  0  0  0
  -20.9937   -5.4470    1.3626 H   0  0  0  0  0  0  0  0  0  0  0  0
  -21.9720   -6.4039    0.2345 H   0  0  0  0  0  0  0  0  0  0  0  0
  -20.9672   -7.2203    1.4451 H   0  0  0  0  0  0  0  0  0  0  0  0
  -19.1393   -5.2252   -1.8609 H   0  0  0  0  0  0  0  0  0  0  0  0
  -20.9040   -5.2383   -1.6969 H   0  0  0  0  0  0  0  0  0  0  0  0
  -19.9194   -4.2744   -0.5806 H   0  0  0  0  0  0  0  0  0  0  0  0
  1 11  1  0  0  0  0
  1 18  1  0  0  0  0
  2 51  1  0  0  0  0
  3 15  1  0  0  0  0
  3 19  1  0  0  0  0
  4 52  1  0  0  0  0
  5 15  2  0  0  0  0
  6 23  1  0  0  0  0
  7 21  1  0  0  0  0
  7 28  1  0  0  0  0
  8  9  1  0  0  0  0
  8 44  1  0  0  0  0
  9 29  2  0  0  0  0
 10 11  1  0  0  0  0
 10 12  1  0  0  0  0
 10 13  1  0  0  0  0
 10  2  1  1  0  0  0
 11 14  1  0  0  0  0
 11 47  1  1  0  0  0
 12 15  1  0  0  0  0
 12 16  1  0  0  0  0
 12 48  1  6  0  0  0
 13 18  1  0  0  0  0
 13 20  2  0  0  0  0
 14 17  1  0  0  0  0
 14 53  1  1  0  0  0
 14  4  1  0  0  0  0
 16 17  2  0  0  0  0
 16 54  1  0  0  0  0
 17 25  1  0  0  0  0
 18 55  1  0  0  0  0
 18 56  1  0  0  0  0
 19 22  1  0  0  0  0
 19 24  1  0  0  0  0
 19 49  1  1  0  0  0
 20 27  1  0  0  0  0
 20 57  1  0  0  0  0
 21  6  1  1  0  0  0
 21 22  1  0  0  0  0
 21 26  1  0  0  0  0
 22 58  1  0  0  0  0
 22 59  1  0  0  0  0
 23 24  1  0  0  0  0
 23 31  1  0  0  0  0
 23 50  1  6  0  0  0
 24 60  1  0  0  0  0
 24 61  1  0  0  0  0
 25 62  1  0  0  0  0
 25 63  1  0  0  0  0
 25 64  1  0  0  0  0
 26 29  1  0  0  0  0
 26 65  1  0  0  0  0
 26 66  1  0  0  0  0
 27 33  2  0  0  0  0
 27 67  1  0  0  0  0
 28 30  1  0  0  0  0
 28 32  1  0  0  0  0
 28 68  1  6  0  0  0
 29 30  1  0  0  0  0
 30 69  1  1  0  0  0
 30 35  1  0  0  0  0
 31 34  1  0  0  0  0
 31 70  1  0  0  0  0
 31 71  1  0  0  0  0
 32 38  2  0  0  0  0
 32 40  1  0  0  0  0
 33 36  1  0  0  0  0
 33 72  1  0  0  0  0
 34 37  2  0  0  0  0
 34 73  1  0  0  0  0
 35 74  1  0  0  0  0
 35 75  1  0  0  0  0
 35 76  1  0  0  0  0
 36 39  1  0  0  0  0
 36 77  1  6  0  0  0
 36 42  1  0  0  0  0
 37 39  1  0  0  0  0
 37 43  1  0  0  0  0
 38 41  1  0  0  0  0
 38 78  1  0  0  0  0
 39 79  1  0  0  0  0
 39 80  1  0  0  0  0
 40 81  1  0  0  0  0
 40 82  1  0  0  0  0
 40 83  1  0  0  0  0
 41 45  1  0  0  0  0
 41 46  1  0  0  0  0
 41 84  1  0  0  0  0
 42 85  1  0  0  0  0
 42 86  1  0  0  0  0
 42 87  1  0  0  0  0
 43 88  1  0  0  0  0
 43 89  1  0  0  0  0
 43 90  1  0  0  0  0
 44 91  1  0  0  0  0
 44 92  1  0  0  0  0
 44 93  1  0  0  0  0
 45 94  1  0  0  0  0
 45 95  1  0  0  0  0
 45 96  1  0  0  0  0
 46 97  1  0  0  0  0
 46 98  1  0  0  0  0
 46 99  1  0  0  0  0
M  END
>  <DRUGBANK_ID>
DB11431

>  <COMMON_NAME>
Moxidectin

>  <CAS_NUMBER>
113507-06-5

>  <UNII>
NGU5H31YO9

>  <SYNONYMS>
Moxidectin; Moxidectina; Moxidectinum

$$$$
