
 OpenBabel10282417133D

 29 31  0  0  0  0  0  0  0  0999 V2000
    3.8003    0.4290   -0.9212 Br  0  0  0  0  0  0  0  0  0  0  0  0
    6.2236   -4.6138   -1.6126 O   0  0  0  0  0  0  0  0  0  0  0  0
    3.8486    1.1672   -5.5267 O   0  0  0  0  0  0  0  0  0  0  0  0
    4.9813   -4.2961   -3.4793 N   0  0  0  0  0  0  0  0  0  0  0  0
    5.6574   -1.7564   -0.8614 N   0  0  0  0  0  0  0  0  0  0  0  0
    7.0559    0.0329   -5.2076 N   0  0  0  0  0  0  0  0  0  0  0  0
    6.0151    2.0153   -5.7329 N   0  0  0  0  0  0  0  0  0  0  0  0
    8.3107    2.0280   -5.6270 N   0  0  0  0  0  0  0  0  0  0  0  0
    5.0000   -1.3289   -4.5669 C   0  0  2  0  0  0  0  0  0  0  0  0
    5.2137   -1.3861   -3.0910 C   0  0  1  0  0  0  0  0  0  0  0  0
    4.7648   -2.6263   -5.3009 C   0  0  0  0  0  0  0  0  0  0  0  0
    5.5902   -2.3560   -2.0339 C   0  0  0  0  0  0  0  0  0  0  0  0
    4.0560   -3.6194   -4.3744 C   0  0  0  0  0  0  0  0  0  0  0  0
    5.7774   -0.2021   -5.1619 C   0  0  0  0  0  0  0  0  0  0  0  0
    5.9517   -0.2251   -2.4426 C   0  0  0  0  0  0  0  0  0  0  0  0
    5.6192   -3.8406   -2.3382 C   0  0  0  0  0  0  0  0  0  0  0  0
    5.5576   -0.3839   -1.1701 C   0  0  0  0  0  0  0  0  0  0  0  0
    5.0797    1.0690   -5.5110 C   0  0  0  0  0  0  0  0  0  0  0  0
    7.1385    1.3812   -5.5361 C   0  0  0  0  0  0  0  0  0  0  0  0
    3.9759   -0.9181   -4.5974 H   0  0  0  0  0  0  0  0  0  0  0  0
    4.1508   -1.4116   -2.7892 H   0  0  0  0  0  0  0  0  0  0  0  0
    5.1005   -5.2919   -3.6259 H   0  0  0  0  0  0  0  0  0  0  0  0
    9.1887    1.5831   -5.4116 H   0  0  0  0  0  0  0  0  0  0  0  0
    8.3052    2.9837   -5.9589 H   0  0  0  0  0  0  0  0  0  0  0  0
    5.6772   -3.0304   -5.7457 H   0  0  0  0  0  0  0  0  0  0  0  0
    4.0818   -2.4068   -6.1358 H   0  0  0  0  0  0  0  0  0  0  0  0
    3.5390   -4.3808   -4.9685 H   0  0  0  0  0  0  0  0  0  0  0  0
    3.2779   -3.1333   -3.7712 H   0  0  0  0  0  0  0  0  0  0  0  0
    7.0326   -0.3317   -2.6342 H   0  0  0  0  0  0  0  0  0  0  0  0
  1 17  1  0  0  0  0
  2 16  2  0  0  0  0
  3 18  2  0  0  0  0
  4 13  1  0  0  0  0
  4 16  1  0  0  0  0
  4 22  1  0  0  0  0
  5 12  2  0  0  0  0
  5 17  1  0  0  0  0
  6 14  2  0  0  0  0
  6 19  1  0  0  0  0
  7 18  1  0  0  0  0
  7 19  2  0  0  0  0
  8 19  1  0  0  0  0
  8 23  1  0  0  0  0
  8 24  1  0  0  0  0
  9 10  1  0  0  0  0
  9 11  1  0  0  0  0
  9 14  1  0  0  0  0
  9 20  1  6  0  0  0
 10 12  1  0  0  0  0
 10 15  1  0  0  0  0
 10 21  1  1  0  0  0
 11 13  1  0  0  0  0
 11 25  1  0  0  0  0
 11 26  1  0  0  0  0
 12 16  1  0  0  0  0
 13 27  1  0  0  0  0
 13 28  1  0  0  0  0
 14 18  1  0  0  0  0
 15 17  2  0  0  0  0
 15 29  1  0  0  0  0
M  END
>  <DRUGBANK_ID>
DB02950

>  <SECONDARY_ACCESSION_NUMBERS>
EXPT01757

>  <COMMON_NAME>
Hymenialdisine

>  <UNII>
5WMS4GA67M

$$$$
