D3E
 OpenBabel10282417163D

 58 61  0  0  0  0  0  0  0  0999 V2000
    0.7946    0.0450    0.0258 F   0  0  0  0  0  0  0  0  0  0  0  0
    2.1493    0.1024    0.0063 C   0  0  0  0  0  0  0  0  0  0  0  0
    2.4735    1.3765   -0.3049 F   0  0  0  0  0  0  0  0  0  0  0  0
    2.5856   -0.1446    1.2628 F   0  0  0  0  0  0  0  0  0  0  0  0
    2.7087   -0.9289   -0.9982 C   0  0  1  0  0  0  0  0  0  0  0  0
    2.1539   -2.3235   -0.6229 C   0  0  0  0  0  0  0  0  0  0  0  0
    2.2820   -0.6787   -2.3570 O   0  0  0  0  0  0  0  0  0  0  0  0
    4.2252   -0.9170   -1.0589 C   0  0  0  0  0  0  0  0  0  0  0  0
    4.8742   -2.0983   -1.3700 C   0  0  0  0  0  0  0  0  0  0  0  0
    6.2230   -2.1109   -1.6205 C   0  0  0  0  0  0  0  0  0  0  0  0
    7.0416   -1.0089   -1.4251 C   0  0  0  0  0  0  0  0  0  0  0  0
    6.4021    0.1966   -1.1193 C   0  0  0  0  0  0  0  0  0  0  0  0
    5.0142    0.2402   -0.9329 C   0  0  0  0  0  0  0  0  0  0  0  0
    8.5417   -1.0497   -1.4725 C   0  0  0  0  0  0  0  0  0  0  0  0
    9.0646    0.0707   -1.3890 O   0  0  0  0  0  0  0  0  0  0  0  0
    9.2807   -2.2837   -1.5032 N   0  0  0  0  0  0  0  0  0  0  0  0
    8.5634   -3.5312   -1.3809 C   0  0  0  0  0  0  0  0  0  0  0  0
    8.6388   -5.0145   -1.2949 C   0  0  0  0  0  0  0  0  0  0  0  0
    8.4825   -4.4353   -2.6419 C   0  0  0  0  0  0  0  0  0  0  0  0
   10.7644   -2.2635   -1.4162 C   0  0  2  0  0  0  0  0  0  0  0  0
   11.3024   -3.5354   -0.7449 C   0  0  0  0  0  0  0  0  0  0  0  0
   12.8053   -3.5638   -0.6076 C   0  0  0  0  0  0  0  0  0  0  0  0
   13.3194   -2.3425    0.1444 C   0  0  2  0  0  0  0  0  0  0  0  0
   12.8350   -1.0554   -0.5084 C   0  0  0  0  0  0  0  0  0  0  0  0
   11.3313   -1.0395   -0.6614 C   0  0  0  0  0  0  0  0  0  0  0  0
   14.8201   -2.3556    0.1789 C   0  0  0  0  0  0  0  0  0  0  0  0
   15.5756   -2.3164   -0.9989 C   0  0  0  0  0  0  0  0  0  0  0  0
   16.9570   -2.3094   -0.9289 C   0  0  0  0  0  0  0  0  0  0  0  0
   17.5393   -2.3412    0.3249 C   0  0  0  0  0  0  0  0  0  0  0  0
   16.8467   -2.3869    1.4849 N   0  0  0  0  0  0  0  0  0  0  0  0
   15.5020   -2.3927    1.3869 C   0  0  0  0  0  0  0  0  0  0  0  0
   11.1337   -2.2280   -2.4512 H   0  0  0  0  0  0  0  0  0  0  0  0
   12.9193   -2.3766    1.1681 H   0  0  0  0  0  0  0  0  0  0  0  0
    1.0614   -2.3233   -0.5987 H   0  0  0  0  0  0  0  0  0  0  0  0
    2.4014   -3.0867   -1.3724 H   0  0  0  0  0  0  0  0  0  0  0  0
    2.5364   -2.6573    0.3484 H   0  0  0  0  0  0  0  0  0  0  0  0
    1.3118   -0.6090   -2.3537 H   0  0  0  0  0  0  0  0  0  0  0  0
    4.3754   -3.0550   -1.4721 H   0  0  0  0  0  0  0  0  0  0  0  0
    6.5479   -3.0672   -1.9729 H   0  0  0  0  0  0  0  0  0  0  0  0
    6.9691    1.1246   -1.0416 H   0  0  0  0  0  0  0  0  0  0  0  0
    4.5859    1.2089   -0.6917 H   0  0  0  0  0  0  0  0  0  0  0  0
    7.8655   -3.3621   -0.5682 H   0  0  0  0  0  0  0  0  0  0  0  0
    9.5158   -5.5406   -0.9734 H   0  0  0  0  0  0  0  0  0  0  0  0
    7.7418   -5.4628   -0.8553 H   0  0  0  0  0  0  0  0  0  0  0  0
    7.5418   -4.5714   -3.1671 H   0  0  0  0  0  0  0  0  0  0  0  0
    9.3335   -4.5718   -3.3059 H   0  0  0  0  0  0  0  0  0  0  0  0
   10.8358   -3.6552    0.2426 H   0  0  0  0  0  0  0  0  0  0  0  0
   11.0597   -4.4058   -1.3516 H   0  0  0  0  0  0  0  0  0  0  0  0
   13.1036   -4.4844   -0.0912 H   0  0  0  0  0  0  0  0  0  0  0  0
   13.2296   -3.6203   -1.6174 H   0  0  0  0  0  0  0  0  0  0  0  0
   13.1465   -0.1849    0.0832 H   0  0  0  0  0  0  0  0  0  0  0  0
   13.2729   -0.9223   -1.5058 H   0  0  0  0  0  0  0  0  0  0  0  0
   11.1388   -0.1146   -1.2086 H   0  0  0  0  0  0  0  0  0  0  0  0
   10.8570   -0.9619    0.3253 H   0  0  0  0  0  0  0  0  0  0  0  0
   15.0912   -2.2833   -1.9723 H   0  0  0  0  0  0  0  0  0  0  0  0
   17.5563   -2.2754   -1.8301 H   0  0  0  0  0  0  0  0  0  0  0  0
   18.6181   -2.3284    0.4332 H   0  0  0  0  0  0  0  0  0  0  0  0
   14.9704   -2.4257    2.3346 H   0  0  0  0  0  0  0  0  0  0  0  0
  1  2  1  0  0  0  0
  2  3  1  0  0  0  0
  2  4  1  0  0  0  0
  2  5  1  0  0  0  0
  5  6  1  0  0  0  0
  5  7  1  6  0  0  0
  5  8  1  0  0  0  0
  6 34  1  0  0  0  0
  6 35  1  0  0  0  0
  6 36  1  0  0  0  0
  7 37  1  0  0  0  0
  8  9  2  0  0  0  0
  8 13  1  0  0  0  0
  9 10  1  0  0  0  0
  9 38  1  0  0  0  0
 10 11  2  0  0  0  0
 10 39  1  0  0  0  0
 11 12  1  0  0  0  0
 11 14  1  0  0  0  0
 12 13  2  0  0  0  0
 12 40  1  0  0  0  0
 13 41  1  0  0  0  0
 14 15  2  0  0  0  0
 14 16  1  0  0  0  0
 16 17  1  0  0  0  0
 17 18  1  0  0  0  0
 17 19  1  0  0  0  0
 17 42  1  0  0  0  0
 18 19  1  0  0  0  0
 18 43  1  0  0  0  0
 18 44  1  0  0  0  0
 19 45  1  0  0  0  0
 19 46  1  0  0  0  0
 20 16  1  0  0  0  0
 20 21  1  0  0  0  0
 20 25  1  0  0  0  0
 20 32  1  6  0  0  0
 21 22  1  0  0  0  0
 21 47  1  0  0  0  0
 21 48  1  0  0  0  0
 22 23  1  0  0  0  0
 22 49  1  0  0  0  0
 22 50  1  0  0  0  0
 23 24  1  0  0  0  0
 23 33  1  1  0  0  0
 23 26  1  0  0  0  0
 24 25  1  0  0  0  0
 24 51  1  0  0  0  0
 24 52  1  0  0  0  0
 25 53  1  0  0  0  0
 25 54  1  0  0  0  0
 26 27  2  0  0  0  0
 26 31  1  0  0  0  0
 27 28  1  0  0  0  0
 27 55  1  0  0  0  0
 28 29  2  0  0  0  0
 28 56  1  0  0  0  0
 29 30  1  0  0  0  0
 29 57  1  0  0  0  0
 30 31  2  0  0  0  0
 31 58  1  0  0  0  0
M  END
>  <DRUGBANK_ID>
DB07619

>  <COMMON_NAME>
N-cyclopropyl-N-(trans-4-pyridin-3-ylcyclohexyl)-4-[(1S)-2,2,2-trifluoro-1-hydroxy-1-methylethyl]benzamide

$$$$
