
 OpenBabel10282417243D

 63 68  0  0  1  0  0  0  0  0999 V2000
    2.0879   -0.0153    0.0008 F   0  0  0  0  0  0  0  0  0  0  0  0
    0.7458   -0.0037   -0.0020 C   0  0  0  0  0  0  0  0  0  0  0  0
    0.0621    1.2054   -0.0249 C   0  0  0  0  0  0  0  0  0  0  0  0
   -1.3478    1.2241   -0.0468 C   0  0  0  0  0  0  0  0  0  0  0  0
   -2.0777    0.0249   -0.0136 C   0  0  0  0  0  0  0  0  0  0  0  0
   -1.3669   -1.1918    0.0252 C   0  0  0  0  0  0  0  0  0  0  0  0
    0.0427   -1.2008    0.0168 C   0  0  0  0  0  0  0  0  0  0  0  0
   -3.5168    0.0468   -0.0006 N   0  0  0  0  0  0  0  0  0  0  0  0
   -4.2346    0.7090   -0.9659 N   0  0  0  0  0  0  0  0  0  0  0  0
   -5.5132    0.3967   -0.7330 C   0  0  0  0  0  0  0  0  0  0  0  0
   -5.6748   -0.4107    0.3933 C   0  0  0  0  0  0  0  0  0  0  0  0
   -6.9593   -0.7108    1.0515 C   0  0  0  0  0  0  0  0  0  0  0  0
   -6.7766   -1.4787    2.2773 C   0  0  2  0  0  0  0  0  0  0  0  0
   -8.0099   -1.4182    3.3853 C   0  0  0  0  0  0  0  0  0  0  0  0
   -7.9443   -2.5891    4.5222 N   0  0  0  0  0  0  0  0  0  0  0  0
   -6.4382   -2.5604    5.4732 C   0  0  0  0  0  0  0  0  0  0  0  0
   -4.8619   -2.7845    4.5337 C   0  0  0  0  0  0  0  0  0  0  0  0
   -4.9065   -1.7797    2.7936 C   0  0  0  0  0  0  0  0  0  0  0  0
   -3.9186   -1.2193    2.0763 C   0  0  0  0  0  0  0  0  0  0  0  0
   -4.3746   -0.5839    0.8895 C   0  0  0  0  0  0  0  0  0  0  0  0
   -8.1367   -4.1095    3.7360 S   0  0  0  0  0  0  0  0  0  0  0  0
   -8.7574   -4.0112    2.4504 O   0  0  0  0  0  0  0  0  0  0  0  0
   -6.7752   -4.5463    3.8684 O   0  0  0  0  0  0  0  0  0  0  0  0
   -8.6184   -5.4956    4.6290 C   0  0  0  0  0  0  0  0  0  0  0  0
   -9.9360   -5.5175    4.9032 C   0  0  0  0  0  0  0  0  0  0  0  0
  -10.4159   -6.6773    5.4366 C   0  0  0  0  0  0  0  0  0  0  0  0
   -9.5942   -7.8076    5.6558 C   0  0  0  0  0  0  0  0  0  0  0  0
   -8.2503   -7.8083    5.2997 C   0  0  0  0  0  0  0  0  0  0  0  0
   -7.7374   -6.6113    4.8666 C   0  0  0  0  0  0  0  0  0  0  0  0
  -10.1693   -8.9795    6.3804 C   0  0  0  0  0  0  0  0  0  0  0  0
  -10.1298  -10.1213    5.6504 F   0  0  0  0  0  0  0  0  0  0  0  0
   -9.5034   -9.2312    7.5393 F   0  0  0  0  0  0  0  0  0  0  0  0
  -11.4686   -8.7801    6.7268 F   0  0  0  0  0  0  0  0  0  0  0  0
   -6.0326   -2.1289    3.1377 C   0  0  0  0  0  0  0  0  0  0  0  0
   -5.9904   -1.0871    4.0962 O   0  0  0  0  0  0  0  0  0  0  0  0
   -5.3620   -3.7744    2.3142 C   0  0  0  0  0  0  0  0  0  0  0  0
   -5.1664   -3.8627    0.9537 C   0  0  0  0  0  0  0  0  0  0  0  0
   -4.8926   -5.1138    0.4108 C   0  0  0  0  0  0  0  0  0  0  0  0
   -5.0340   -6.2544    1.1826 C   0  0  0  0  0  0  0  0  0  0  0  0
   -5.0753   -6.0704    2.5272 C   0  0  0  0  0  0  0  0  0  0  0  0
   -4.8900   -4.8431    3.0603 N   0  0  0  0  0  0  0  0  0  0  0  0
    0.6380    2.1272   -0.0219 H   0  0  0  0  0  0  0  0  0  0  0  0
   -1.8550    2.1851   -0.0334 H   0  0  0  0  0  0  0  0  0  0  0  0
   -1.8821   -2.1492    0.0137 H   0  0  0  0  0  0  0  0  0  0  0  0
    0.6042   -2.1319    0.0178 H   0  0  0  0  0  0  0  0  0  0  0  0
   -6.3300    0.7963   -1.3294 H   0  0  0  0  0  0  0  0  0  0  0  0
   -7.9299   -1.0769    0.6567 H   0  0  0  0  0  0  0  0  0  0  0  0
   -7.3375    0.3109    1.1191 H   0  0  0  0  0  0  0  0  0  0  0  0
   -9.0321   -1.5238    3.0072 H   0  0  0  0  0  0  0  0  0  0  0  0
   -8.0364   -0.4036    3.8124 H   0  0  0  0  0  0  0  0  0  0  0  0
   -6.7154   -3.1539    6.3419 H   0  0  0  0  0  0  0  0  0  0  0  0
   -6.2835   -1.5820    5.9365 H   0  0  0  0  0  0  0  0  0  0  0  0
   -4.4330   -3.6263    5.1144 H   0  0  0  0  0  0  0  0  0  0  0  0
   -3.8723   -2.3892    4.6394 H   0  0  0  0  0  0  0  0  0  0  0  0
   -2.9155   -1.3931    2.4303 H   0  0  0  0  0  0  0  0  0  0  0  0
  -10.5237   -4.6371    4.6959 H   0  0  0  0  0  0  0  0  0  0  0  0
  -11.4662   -6.6868    5.6833 H   0  0  0  0  0  0  0  0  0  0  0  0
   -7.6253   -8.6978    5.3954 H   0  0  0  0  0  0  0  0  0  0  0  0
   -6.6511   -6.5596    4.7430 H   0  0  0  0  0  0  0  0  0  0  0  0
   -5.1004   -2.9840    0.3373 H   0  0  0  0  0  0  0  0  0  0  0  0
   -4.6158   -5.1895   -0.6282 H   0  0  0  0  0  0  0  0  0  0  0  0
   -5.0555   -7.2538    0.7766 H   0  0  0  0  0  0  0  0  0  0  0  0
   -5.3586   -6.8927    3.1855 H   0  0  0  0  0  0  0  0  0  0  0  0
  1  2  1  0  0  0  0
  2  3  2  0  0  0  0
  2  7  1  0  0  0  0
  3  4  1  0  0  0  0
  3 42  1  0  0  0  0
  4  5  2  0  0  0  0
  4 43  1  0  0  0  0
  5  6  1  0  0  0  0
  5  8  1  0  0  0  0
  6  7  2  0  0  0  0
  6 44  1  0  0  0  0
  7 45  1  0  0  0  0
  8  9  1  0  0  0  0
  8 20  1  0  0  0  0
  9 10  2  0  0  0  0
 10 11  1  0  0  0  0
 10 46  1  0  0  0  0
 11 12  1  0  0  0  0
 11 20  2  0  0  0  0
 12 47  1  0  0  0  0
 12 48  1  0  0  0  0
 13 12  1  0  0  0  0
 13 14  1  0  0  0  0
 13 18  1  0  0  0  0
 13 34  1  6  0  0  0
 14 15  1  0  0  0  0
 14 49  1  0  0  0  0
 14 50  1  0  0  0  0
 15 16  1  0  0  0  0
 15 21  1  0  0  0  0
 16 17  1  0  0  0  0
 16 51  1  0  0  0  0
 16 52  1  0  0  0  0
 17 18  1  0  0  0  0
 17 53  1  0  0  0  0
 17 54  1  0  0  0  0
 18 19  2  0  0  0  0
 19 20  1  0  0  0  0
 19 55  1  0  0  0  0
 21 22  2  0  0  0  0
 21 23  2  0  0  0  0
 21 24  1  0  0  0  0
 24 25  2  0  0  0  0
 24 29  1  0  0  0  0
 25 26  1  0  0  0  0
 25 56  1  0  0  0  0
 26 27  2  0  0  0  0
 26 57  1  0  0  0  0
 27 28  1  0  0  0  0
 27 30  1  0  0  0  0
 28 29  2  0  0  0  0
 28 58  1  0  0  0  0
 29 59  1  0  0  0  0
 30 31  1  0  0  0  0
 30 32  1  0  0  0  0
 30 33  1  0  0  0  0
 34 35  2  0  0  0  0
 34 36  1  0  0  0  0
 36 37  2  0  0  0  0
 36 41  1  0  0  0  0
 37 38  1  0  0  0  0
 37 60  1  0  0  0  0
 38 39  2  0  0  0  0
 38 61  1  0  0  0  0
 39 40  1  0  0  0  0
 39 62  1  0  0  0  0
 40 41  2  0  0  0  0
 40 63  1  0  0  0  0
M  END
>  <DRUGBANK_ID>
DB18025

>  <COMMON_NAME>
Dazucorilant

>  <CAS_NUMBER>
1496508-34-9

>  <UNII>
HR4RD5RBJ6

>  <SYNONYMS>
Methanone, ((4ar)-1-(4-fluorophenyl)-1,4,5,6,7,8-hexahydro-6-((4-(trifluoromethyl)phenyl)sulfonyl)-4ah-pyrazolo(3,4-g)isoquinolin-4a-yl)-2-pyridinyl-

$$$$
