DUX
 OpenBabel10282417143D

 60 64  0  0  0  0  0  0  0  0999 V2000
    4.0504    0.4165   -0.5685 F   0  0  0  0  0  0  0  0  0  0  0  0
    3.2859    0.2387    0.5158 C   0  0  1  0  0  0  0  0  0  0  0  0
    3.5467   -1.0879    1.1113 C   0  0  0  0  0  0  0  0  0  0  0  0
    4.6849   -0.6796    1.9446 C   0  0  2  0  0  0  0  0  0  0  0  0
    4.4523   -1.1203    3.2890 N   0  0  0  0  0  0  0  0  0  0  0  0
    4.1044   -2.4472    3.5376 C   0  0  0  0  0  0  0  0  0  0  0  0
    3.8270   -2.7236    4.8412 N   0  0  0  0  0  0  0  0  0  0  0  0
    3.6008   -1.7881    5.8230 C   0  0  0  0  0  0  0  0  0  0  0  0
    3.8506   -0.3889    5.4476 C   0  0  0  0  0  0  0  0  0  0  0  0
    4.3155   -0.1450    4.2486 C   0  0  0  0  0  0  0  0  0  0  0  0
    3.2377   -2.0613    6.9349 O   0  0  0  0  0  0  0  0  0  0  0  0
    4.0017   -3.3366    2.6836 O   0  0  0  0  0  0  0  0  0  0  0  0
    4.7444    0.7913    1.9397 O   0  0  0  0  0  0  0  0  0  0  0  0
    3.4998    1.3046    1.4657 C   0  0  2  0  0  0  0  0  0  0  0  0
    2.1740    1.3523    2.3353 C   0  0  0  0  0  0  0  0  0  0  0  0
    1.5140    0.0551    2.4687 O   0  0  0  0  0  0  0  0  0  0  0  0
    0.5993   -0.5999    1.4198 C   0  0  0  0  0  0  0  0  0  0  0  0
   -0.6328    0.2772    1.3319 C   0  0  0  0  0  0  0  0  0  0  0  0
   -1.2228    0.9179    2.4206 C   0  0  0  0  0  0  0  0  0  0  0  0
   -2.4454    1.5461    2.2155 C   0  0  0  0  0  0  0  0  0  0  0  0
   -2.9604    1.7018    0.9212 C   0  0  0  0  0  0  0  0  0  0  0  0
   -2.2724    1.2423   -0.1728 C   0  0  0  0  0  0  0  0  0  0  0  0
   -1.2181    0.4222    0.0698 C   0  0  0  0  0  0  0  0  0  0  0  0
    1.1110   -0.9095   -0.2817 C   0  0  0  0  0  0  0  0  0  0  0  0
    1.3260    0.2065   -1.2432 C   0  0  0  0  0  0  0  0  0  0  0  0
    2.2517    0.1020   -2.2983 C   0  0  0  0  0  0  0  0  0  0  0  0
    2.8389   -1.1278   -2.5667 C   0  0  0  0  0  0  0  0  0  0  0  0
    2.5404   -2.2348   -1.7749 C   0  0  0  0  0  0  0  0  0  0  0  0
    1.7077   -2.1317   -0.6524 C   0  0  0  0  0  0  0  0  0  0  0  0
    0.2050   -1.9596    2.1490 C   0  0  0  0  0  0  0  0  0  0  0  0
   -0.1390   -3.0898    1.3933 C   0  0  0  0  0  0  0  0  0  0  0  0
   -0.4791   -4.3169    1.9405 C   0  0  0  0  0  0  0  0  0  0  0  0
   -0.6029   -4.4333    3.3080 C   0  0  0  0  0  0  0  0  0  0  0  0
   -0.2656   -3.3515    4.1215 C   0  0  0  0  0  0  0  0  0  0  0  0
    0.1341   -2.1228    3.5549 C   0  0  0  0  0  0  0  0  0  0  0  0
    2.2923    0.5445    0.3953 H   0  0  0  0  0  0  0  0  0  0  0  0
    5.5714   -1.1335    1.4924 H   0  0  0  0  0  0  0  0  0  0  0  0
    3.5954    2.2445    0.9038 H   0  0  0  0  0  0  0  0  0  0  0  0
    2.7464   -1.5633    1.6946 H   0  0  0  0  0  0  0  0  0  0  0  0
    3.8447   -1.8550    0.4005 H   0  0  0  0  0  0  0  0  0  0  0  0
    3.6281   -3.6837    5.0606 H   0  0  0  0  0  0  0  0  0  0  0  0
    3.6878    0.4094    6.1549 H   0  0  0  0  0  0  0  0  0  0  0  0
    4.5385    0.8824    3.9676 H   0  0  0  0  0  0  0  0  0  0  0  0
    2.4404    1.7663    3.3205 H   0  0  0  0  0  0  0  0  0  0  0  0
    1.4361    2.0570    1.9244 H   0  0  0  0  0  0  0  0  0  0  0  0
   -0.7787    0.8908    3.4160 H   0  0  0  0  0  0  0  0  0  0  0  0
   -3.0127    1.9090    3.0643 H   0  0  0  0  0  0  0  0  0  0  0  0
   -3.9254    2.1528    0.7495 H   0  0  0  0  0  0  0  0  0  0  0  0
   -2.5517    1.3985   -1.2066 H   0  0  0  0  0  0  0  0  0  0  0  0
   -0.8696   -0.1043   -0.8066 H   0  0  0  0  0  0  0  0  0  0  0  0
    1.1364    1.2499   -0.9275 H   0  0  0  0  0  0  0  0  0  0  0  0
    2.7609    1.0071   -2.6578 H   0  0  0  0  0  0  0  0  0  0  0  0
    3.6787   -1.1868   -3.2539 H   0  0  0  0  0  0  0  0  0  0  0  0
    3.1534   -3.1307   -1.8563 H   0  0  0  0  0  0  0  0  0  0  0  0
    1.8204   -2.9572    0.0502 H   0  0  0  0  0  0  0  0  0  0  0  0
   -0.1574   -3.0678    0.3146 H   0  0  0  0  0  0  0  0  0  0  0  0
   -0.6790   -5.1430    1.2652 H   0  0  0  0  0  0  0  0  0  0  0  0
   -0.9927   -5.3579    3.7205 H   0  0  0  0  0  0  0  0  0  0  0  0
   -0.3319   -3.4688    5.2016 H   0  0  0  0  0  0  0  0  0  0  0  0
    0.3506   -1.3013    4.2382 H   0  0  0  0  0  0  0  0  0  0  0  0
  2  3  1  0  0  0  0
  2 14  1  0  0  0  0
  2 36  1  6  0  0  0
  2  1  1  0  0  0  0
  3  4  1  0  0  0  0
  3 39  1  0  0  0  0
  3 40  1  0  0  0  0
  4  5  1  0  0  0  0
  4 13  1  0  0  0  0
  4 37  1  6  0  0  0
  5  6  1  0  0  0  0
  5 10  1  0  0  0  0
  6  7  1  0  0  0  0
  6 12  2  0  0  0  0
  7  8  1  0  0  0  0
  7 41  1  0  0  0  0
  8  9  1  0  0  0  0
  8 11  2  0  0  0  0
  9 10  2  0  0  0  0
  9 42  1  0  0  0  0
 10 43  1  0  0  0  0
 13 14  1  0  0  0  0
 14 38  1  6  0  0  0
 14 15  1  0  0  0  0
 15 16  1  0  0  0  0
 15 44  1  0  0  0  0
 15 45  1  0  0  0  0
 16 17  1  0  0  0  0
 17 18  1  0  0  0  0
 17 24  1  0  0  0  0
 17 30  1  0  0  0  0
 18 19  2  0  0  0  0
 18 23  1  0  0  0  0
 19 20  1  0  0  0  0
 19 46  1  0  0  0  0
 20 21  2  0  0  0  0
 20 47  1  0  0  0  0
 21 22  1  0  0  0  0
 21 48  1  0  0  0  0
 22 23  2  0  0  0  0
 22 49  1  0  0  0  0
 23 50  1  0  0  0  0
 24 25  2  0  0  0  0
 24 29  1  0  0  0  0
 25 26  1  0  0  0  0
 25 51  1  0  0  0  0
 26 27  2  0  0  0  0
 26 52  1  0  0  0  0
 27 28  1  0  0  0  0
 27 53  1  0  0  0  0
 28 29  2  0  0  0  0
 28 54  1  0  0  0  0
 29 55  1  0  0  0  0
 30 31  2  0  0  0  0
 30 35  1  0  0  0  0
 31 32  1  0  0  0  0
 31 56  1  0  0  0  0
 32 33  2  0  0  0  0
 32 57  1  0  0  0  0
 33 34  1  0  0  0  0
 33 58  1  0  0  0  0
 34 35  2  0  0  0  0
 34 59  1  0  0  0  0
 35 60  1  0  0  0  0
M  END
>  <DRUGBANK_ID>
DB04685

>  <COMMON_NAME>
1-{(2S,5S)-4-FLUORO-5-[(TRITYLOXY)METHYL]TETRAHYDROFURAN-2-YL}PYRIMIDINE-2,4(1H,3H)-DIONE

$$$$
