TQ6
 OpenBabel10282417123D

 44 47  0  0  0  0  0  0  0  0999 V2000
    1.3103   -1.3617   -0.0058 C   0  0  0  0  0  0  0  0  0  0  0  0
    2.4474   -0.6573   -0.0391 N   0  0  0  0  0  0  0  0  0  0  0  0
    2.3418    0.6719    0.0005 C   0  0  0  0  0  0  0  0  0  0  0  0
    1.1883    1.3374    0.0825 N   0  0  0  0  0  0  0  0  0  0  0  0
   -2.4113   -0.7092   -0.0334 C   0  0  0  0  0  0  0  0  0  0  0  0
   -1.2405   -1.4586    0.1159 C   0  0  0  0  0  0  0  0  0  0  0  0
    0.0269   -0.7804    0.0691 C   0  0  0  0  0  0  0  0  0  0  0  0
    0.0590    0.6281    0.0851 C   0  0  0  0  0  0  0  0  0  0  0  0
   -1.1407    1.3233    0.0406 C   0  0  0  0  0  0  0  0  0  0  0  0
   -2.3560    0.6741   -0.1352 C   0  0  0  0  0  0  0  0  0  0  0  0
    3.4940    1.3895   -0.0796 N   0  0  0  0  0  0  0  0  0  0  0  0
    1.4696   -2.7227   -0.2673 N   0  0  0  0  0  0  0  0  0  0  0  0
   -1.2919   -3.2444    0.4158 S   0  0  0  0  0  0  0  0  0  0  0  0
   -2.9749   -3.7532    0.4223 C   0  0  0  0  0  0  0  0  0  0  0  0
   -3.7897   -3.5870   -0.6941 C   0  0  0  0  0  0  0  0  0  0  0  0
   -5.1535   -3.8532   -0.5994 C   0  0  0  0  0  0  0  0  0  0  0  0
   -5.7055   -4.3893    0.5675 C   0  0  0  0  0  0  0  0  0  0  0  0
   -4.8384   -4.7185    1.6144 C   0  0  0  0  0  0  0  0  0  0  0  0
   -3.4892   -4.3708    1.5610 C   0  0  0  0  0  0  0  0  0  0  0  0
   -8.5675   -5.1276    2.5198 C   0  0  0  0  0  0  0  0  0  0  0  0
   -7.8181   -3.9959    1.8069 C   0  0  0  0  0  0  0  0  0  0  0  0
   -7.0611   -4.5450    0.6813 N   0  0  0  0  0  0  0  0  0  0  0  0
   -7.8332   -5.3649   -0.2489 C   0  0  0  0  0  0  0  0  0  0  0  0
   -8.5639   -6.4528    0.5580 C   0  0  0  0  0  0  0  0  0  0  0  0
   -9.3804   -5.8822    1.6003 O   0  0  0  0  0  0  0  0  0  0  0  0
   -3.3921   -1.1658   -0.0642 H   0  0  0  0  0  0  0  0  0  0  0  0
   -1.1313    2.4114    0.1037 H   0  0  0  0  0  0  0  0  0  0  0  0
   -3.2626    1.2403   -0.3330 H   0  0  0  0  0  0  0  0  0  0  0  0
    3.4395    2.3937   -0.0948 H   0  0  0  0  0  0  0  0  0  0  0  0
    4.3524    0.8773   -0.1907 H   0  0  0  0  0  0  0  0  0  0  0  0
    0.7206   -3.3145    0.0754 H   0  0  0  0  0  0  0  0  0  0  0  0
    2.4082   -3.0684   -0.1298 H   0  0  0  0  0  0  0  0  0  0  0  0
   -3.3853   -3.1821   -1.6184 H   0  0  0  0  0  0  0  0  0  0  0  0
   -5.8004   -3.5775   -1.4274 H   0  0  0  0  0  0  0  0  0  0  0  0
   -5.2077   -5.2531    2.4853 H   0  0  0  0  0  0  0  0  0  0  0  0
   -2.8503   -4.5762    2.4174 H   0  0  0  0  0  0  0  0  0  0  0  0
   -7.8663   -5.8097    3.0141 H   0  0  0  0  0  0  0  0  0  0  0  0
   -9.2293   -4.7107    3.2853 H   0  0  0  0  0  0  0  0  0  0  0  0
   -8.5479   -3.2871    1.3952 H   0  0  0  0  0  0  0  0  0  0  0  0
   -7.1894   -3.4393    2.5110 H   0  0  0  0  0  0  0  0  0  0  0  0
   -8.5668   -4.7200   -0.7464 H   0  0  0  0  0  0  0  0  0  0  0  0
   -7.2068   -5.8282   -1.0192 H   0  0  0  0  0  0  0  0  0  0  0  0
   -9.2194   -7.0306   -0.0998 H   0  0  0  0  0  0  0  0  0  0  0  0
   -7.8476   -7.1458    1.0162 H   0  0  0  0  0  0  0  0  0  0  0  0
  1  2  2  0  0  0  0
  1  7  1  0  0  0  0
  1 12  1  0  0  0  0
  2  3  1  0  0  0  0
  3  4  2  0  0  0  0
  3 11  1  0  0  0  0
  4  8  1  0  0  0  0
  5  6  2  0  0  0  0
  5 10  1  0  0  0  0
  5 26  1  0  0  0  0
  6  7  1  0  0  0  0
  6 13  1  0  0  0  0
  7  8  2  0  0  0  0
  8  9  1  0  0  0  0
  9 10  2  0  0  0  0
  9 27  1  0  0  0  0
 10 28  1  0  0  0  0
 11 29  1  0  0  0  0
 11 30  1  0  0  0  0
 12 31  1  0  0  0  0
 12 32  1  0  0  0  0
 13 14  1  0  0  0  0
 14 15  2  0  0  0  0
 14 19  1  0  0  0  0
 15 16  1  0  0  0  0
 15 33  1  0  0  0  0
 16 17  2  0  0  0  0
 16 34  1  0  0  0  0
 17 18  1  0  0  0  0
 17 22  1  0  0  0  0
 18 19  2  0  0  0  0
 18 35  1  0  0  0  0
 19 36  1  0  0  0  0
 20 21  1  0  0  0  0
 20 25  1  0  0  0  0
 20 37  1  0  0  0  0
 20 38  1  0  0  0  0
 21 22  1  0  0  0  0
 21 39  1  0  0  0  0
 21 40  1  0  0  0  0
 22 23  1  0  0  0  0
 23 24  1  0  0  0  0
 23 41  1  0  0  0  0
 23 42  1  0  0  0  0
 24 25  1  0  0  0  0
 24 43  1  0  0  0  0
 24 44  1  0  0  0  0
M  END
>  <DRUGBANK_ID>
DB02001

>  <SECONDARY_ACCESSION_NUMBERS>
EXPT03102

>  <COMMON_NAME>
5-(4-Morpholin-4-Yl-Phenylsulfanyl)-2,4-Quinazolinediamine

$$$$
