
 OpenBabel10282417133D

117117  0  0  0  0  0  0  0  0999 V2000
    0.9549    0.0293   -0.0291 C   0  0  0  0  0  0  0  0  0  0  0  0
    0.3793   -0.2929    1.3055 C   0  0  0  0  0  0  0  0  0  0  0  0
   -0.4779    0.7475    1.9578 C   0  0  0  0  0  0  0  0  0  0  0  0
    0.6297   -1.4599    1.9229 C   0  0  0  0  0  0  0  0  0  0  0  0
    1.5845   -2.5450    1.4751 C   0  0  0  0  0  0  0  0  0  0  0  0
    2.8152   -2.8322    2.3695 C   0  0  0  0  0  0  0  0  0  0  0  0
    2.5343   -3.3208    3.7716 C   0  0  0  0  0  0  0  0  0  0  0  0
    3.1364   -4.6010    4.2186 C   0  0  0  0  0  0  0  0  0  0  0  0
    1.7800   -2.5943    4.6077 C   0  0  0  0  0  0  0  0  0  0  0  0
    1.3428   -2.8399    6.0130 C   0  0  0  0  0  0  0  0  0  0  0  0
    1.7243   -1.7260    7.0064 C   0  0  0  0  0  0  0  0  0  0  0  0
    1.1054   -0.3577    6.8063 C   0  0  0  0  0  0  0  0  0  0  0  0
    0.3440    0.2508    7.9206 C   0  0  0  0  0  0  0  0  0  0  0  0
    1.2741    0.3532    5.6757 C   0  0  0  0  0  0  0  0  0  0  0  0
    0.7930    1.7117    5.3019 C   0  0  0  0  0  0  0  0  0  0  0  0
    1.8797    2.6454    4.7214 C   0  0  0  0  0  0  0  0  0  0  0  0
    2.6607    2.2473    3.4786 C   0  0  0  0  0  0  0  0  0  0  0  0
    2.7078    3.1918    2.3357 C   0  0  0  0  0  0  0  0  0  0  0  0
    3.3839    1.1163    3.3944 C   0  0  0  0  0  0  0  0  0  0  0  0
    4.2578    0.5907    2.3057 C   0  0  0  0  0  0  0  0  0  0  0  0
    5.6569    0.1219    2.7683 C   0  0  0  0  0  0  0  0  0  0  0  0
    5.8028   -0.9626    3.8259 C   0  0  0  0  0  0  0  0  0  0  0  0
    6.6484   -2.1433    3.5233 C   0  0  0  0  0  0  0  0  0  0  0  0
    5.2716   -0.8664    5.0577 C   0  0  0  0  0  0  0  0  0  0  0  0
    5.3549   -1.7773    6.2359 C   0  0  0  0  0  0  0  0  0  0  0  0
    5.7286   -1.0838    7.5674 C   0  0  0  0  0  0  0  0  0  0  0  0
    4.8735    0.0446    8.1176 C   0  0  0  0  0  0  0  0  0  0  0  0
    4.3703   -0.0491    9.5089 C   0  0  0  0  0  0  0  0  0  0  0  0
    4.6182    1.1765    7.4326 C   0  0  0  0  0  0  0  0  0  0  0  0
    3.8858    2.4109    7.8327 C   0  0  0  0  0  0  0  0  0  0  0  0
    4.7023    3.7034    7.6061 C   0  0  0  0  0  0  0  0  0  0  0  0
    5.1042    4.0769    6.1802 C   0  0  0  0  0  0  0  0  0  0  0  0
    4.6603    5.3642    5.5841 C   0  0  0  0  0  0  0  0  0  0  0  0
    5.8923    3.2987    5.4229 C   0  0  0  0  0  0  0  0  0  0  0  0
    6.4611    3.5138    4.0613 C   0  0  0  0  0  0  0  0  0  0  0  0
    7.9875    3.3238    4.0530 C   0  0  0  0  0  0  0  0  0  0  0  0
    8.5038    1.9399    4.4231 C   0  0  0  0  0  0  0  0  0  0  0  0
    9.3697    1.2116    3.4460 C   0  0  0  0  0  0  0  0  0  0  0  0
    8.3332    1.3950    5.6416 C   0  0  0  0  0  0  0  0  0  0  0  0
    8.9573    0.1421    6.1567 C   0  0  0  0  0  0  0  0  0  0  0  0
    9.7183    0.3841    7.4381 C   0  0  0  0  0  0  0  0  0  0  0  0
    9.9052   -0.6974    8.3090 C   0  0  0  0  0  0  0  0  0  0  0  0
   10.6575   -0.5367    9.4697 C   0  0  0  0  0  0  0  0  0  0  0  0
   11.1966    0.7101    9.7894 C   0  0  0  0  0  0  0  0  0  0  0  0
   11.0008    1.8000    8.9484 C   0  0  0  0  0  0  0  0  0  0  0  0
   10.2964    1.6267    7.7682 C   0  0  0  0  0  0  0  0  0  0  0  0
   10.2023    2.6883    6.9117 O   0  0  0  0  0  0  0  0  0  0  0  0
    0.6058    0.9956   -0.3991 H   0  0  0  0  0  0  0  0  0  0  0  0
    0.6270   -0.7351   -0.7408 H   0  0  0  0  0  0  0  0  0  0  0  0
    2.0468    0.0500    0.0107 H   0  0  0  0  0  0  0  0  0  0  0  0
   -1.4110    0.3359    2.3540 H   0  0  0  0  0  0  0  0  0  0  0  0
    0.0970    1.1715    2.7714 H   0  0  0  0  0  0  0  0  0  0  0  0
   -0.7164    1.5870    1.3005 H   0  0  0  0  0  0  0  0  0  0  0  0
    0.0726   -1.6498    2.8373 H   0  0  0  0  0  0  0  0  0  0  0  0
    1.0088   -3.4694    1.3753 H   0  0  0  0  0  0  0  0  0  0  0  0
    1.9676   -2.3067    0.4769 H   0  0  0  0  0  0  0  0  0  0  0  0
    3.4538   -3.5482    1.8362 H   0  0  0  0  0  0  0  0  0  0  0  0
    3.4445   -1.9534    2.4652 H   0  0  0  0  0  0  0  0  0  0  0  0
    3.7641   -4.4311    5.0989 H   0  0  0  0  0  0  0  0  0  0  0  0
    2.3290   -5.2932    4.4718 H   0  0  0  0  0  0  0  0  0  0  0  0
    3.7540   -5.0568    3.4431 H   0  0  0  0  0  0  0  0  0  0  0  0
    1.3882   -1.6881    4.1991 H   0  0  0  0  0  0  0  0  0  0  0  0
    0.2523   -2.9431    6.0020 H   0  0  0  0  0  0  0  0  0  0  0  0
    1.7538   -3.7899    6.3667 H   0  0  0  0  0  0  0  0  0  0  0  0
    1.4992   -2.0979    8.0124 H   0  0  0  0  0  0  0  0  0  0  0  0
    2.7988   -1.5791    7.0146 H   0  0  0  0  0  0  0  0  0  0  0  0
    0.8041    1.2035    8.2018 H   0  0  0  0  0  0  0  0  0  0  0  0
   -0.6824    0.4234    7.5842 H   0  0  0  0  0  0  0  0  0  0  0  0
    0.3241   -0.3922    8.8000 H   0  0  0  0  0  0  0  0  0  0  0  0
    1.8238   -0.1176    4.8993 H   0  0  0  0  0  0  0  0  0  0  0  0
   -0.0159    1.5881    4.5857 H   0  0  0  0  0  0  0  0  0  0  0  0
    0.3219    2.2012    6.1576 H   0  0  0  0  0  0  0  0  0  0  0  0
    1.4041    3.6198    4.5636 H   0  0  0  0  0  0  0  0  0  0  0  0
    2.6267    2.8400    5.4835 H   0  0  0  0  0  0  0  0  0  0  0  0
    3.7460    3.4792    2.1386 H   0  0  0  0  0  0  0  0  0  0  0  0
    2.2947    2.6929    1.4541 H   0  0  0  0  0  0  0  0  0  0  0  0
    2.1339    4.0973    2.5287 H   0  0  0  0  0  0  0  0  0  0  0  0
    3.3349    0.4560    4.2228 H   0  0  0  0  0  0  0  0  0  0  0  0
    3.7353   -0.2330    1.8276 H   0  0  0  0  0  0  0  0  0  0  0  0
    4.3732    1.3321    1.5117 H   0  0  0  0  0  0  0  0  0  0  0  0
    6.2060   -0.1676    1.8651 H   0  0  0  0  0  0  0  0  0  0  0  0
    6.2088    0.9755    3.1466 H   0  0  0  0  0  0  0  0  0  0  0  0
    7.4705   -2.2004    4.2447 H   0  0  0  0  0  0  0  0  0  0  0  0
    6.0320   -3.0438    3.6025 H   0  0  0  0  0  0  0  0  0  0  0  0
    7.0755   -2.0961    2.5224 H   0  0  0  0  0  0  0  0  0  0  0  0
    4.6684   -0.0159    5.2515 H   0  0  0  0  0  0  0  0  0  0  0  0
    4.3936   -2.2736    6.3391 H   0  0  0  0  0  0  0  0  0  0  0  0
    6.0578   -2.5916    6.0459 H   0  0  0  0  0  0  0  0  0  0  0  0
    5.8183   -1.8767    8.3186 H   0  0  0  0  0  0  0  0  0  0  0  0
    6.7324   -0.6755    7.4967 H   0  0  0  0  0  0  0  0  0  0  0  0
    4.7566    0.7909   10.0965 H   0  0  0  0  0  0  0  0  0  0  0  0
    3.2770   -0.0059    9.4885 H   0  0  0  0  0  0  0  0  0  0  0  0
    4.6764   -0.9755    9.9931 H   0  0  0  0  0  0  0  0  0  0  0  0
    4.9814    1.2309    6.4376 H   0  0  0  0  0  0  0  0  0  0  0  0
    2.9531    2.4487    7.2775 H   0  0  0  0  0  0  0  0  0  0  0  0
    3.5749    2.3605    8.8781 H   0  0  0  0  0  0  0  0  0  0  0  0
    4.1122    4.5251    8.0269 H   0  0  0  0  0  0  0  0  0  0  0  0
    5.6115    3.6444    8.2216 H   0  0  0  0  0  0  0  0  0  0  0  0
    5.5369    5.9667    5.3194 H   0  0  0  0  0  0  0  0  0  0  0  0
    4.0913    5.1538    4.6708 H   0  0  0  0  0  0  0  0  0  0  0  0
    4.0320    5.9411    6.2590 H   0  0  0  0  0  0  0  0  0  0  0  0
    6.1887    2.3638    5.8346 H   0  0  0  0  0  0  0  0  0  0  0  0
    5.9864    2.8213    3.3716 H   0  0  0  0  0  0  0  0  0  0  0  0
    6.2141    4.5018    3.6690 H   0  0  0  0  0  0  0  0  0  0  0  0
    8.3396    3.5799    3.0475 H   0  0  0  0  0  0  0  0  0  0  0  0
    8.4406    4.0657    4.7252 H   0  0  0  0  0  0  0  0  0  0  0  0
   10.3692    1.0689    3.8760 H   0  0  0  0  0  0  0  0  0  0  0  0
    8.9350    0.2299    3.2304 H   0  0  0  0  0  0  0  0  0  0  0  0
    9.4895    1.7513    2.5082 H   0  0  0  0  0  0  0  0  0  0  0  0
    7.8574    1.9614    6.4390 H   0  0  0  0  0  0  0  0  0  0  0  0
    8.1619   -0.5850    6.3084 H   0  0  0  0  0  0  0  0  0  0  0  0
    9.6244   -0.3365    5.4395 H   0  0  0  0  0  0  0  0  0  0  0  0
    9.4793   -1.6713    8.0743 H   0  0  0  0  0  0  0  0  0  0  0  0
   10.8312   -1.3877   10.1213 H   0  0  0  0  0  0  0  0  0  0  0  0
   11.7877    0.8320   10.6905 H   0  0  0  0  0  0  0  0  0  0  0  0
   11.4228    2.7667    9.1987 H   0  0  0  0  0  0  0  0  0  0  0  0
   10.4656    3.5144    7.3401 H   0  0  0  0  0  0  0  0  0  0  0  0
  1  2  1  0  0  0  0
  1 48  1  0  0  0  0
  1 49  1  0  0  0  0
  1 50  1  0  0  0  0
  2  3  1  0  0  0  0
  2  4  2  0  0  0  0
  3 51  1  0  0  0  0
  3 52  1  0  0  0  0
  3 53  1  0  0  0  0
  4  5  1  0  0  0  0
  4 54  1  0  0  0  0
  5  6  1  0  0  0  0
  5 55  1  0  0  0  0
  5 56  1  0  0  0  0
  6  7  1  0  0  0  0
  6 57  1  0  0  0  0
  6 58  1  0  0  0  0
  7  8  1  0  0  0  0
  7  9  2  0  0  0  0
  8 59  1  0  0  0  0
  8 60  1  0  0  0  0
  8 61  1  0  0  0  0
  9 10  1  0  0  0  0
  9 62  1  0  0  0  0
 10 11  1  0  0  0  0
 10 63  1  0  0  0  0
 10 64  1  0  0  0  0
 11 12  1  0  0  0  0
 11 65  1  0  0  0  0
 11 66  1  0  0  0  0
 12 13  1  0  0  0  0
 12 14  2  0  0  0  0
 13 67  1  0  0  0  0
 13 68  1  0  0  0  0
 13 69  1  0  0  0  0
 14 15  1  0  0  0  0
 14 70  1  0  0  0  0
 15 16  1  0  0  0  0
 15 71  1  0  0  0  0
 15 72  1  0  0  0  0
 16 17  1  0  0  0  0
 16 73  1  0  0  0  0
 16 74  1  0  0  0  0
 17 18  1  0  0  0  0
 17 19  2  0  0  0  0
 18 75  1  0  0  0  0
 18 76  1  0  0  0  0
 18 77  1  0  0  0  0
 19 20  1  0  0  0  0
 19 78  1  0  0  0  0
 20 21  1  0  0  0  0
 20 79  1  0  0  0  0
 20 80  1  0  0  0  0
 21 22  1  0  0  0  0
 21 81  1  0  0  0  0
 21 82  1  0  0  0  0
 22 23  1  0  0  0  0
 22 24  2  0  0  0  0
 23 83  1  0  0  0  0
 23 84  1  0  0  0  0
 23 85  1  0  0  0  0
 24 25  1  0  0  0  0
 24 86  1  0  0  0  0
 25 26  1  0  0  0  0
 25 87  1  0  0  0  0
 25 88  1  0  0  0  0
 26 27  1  0  0  0  0
 26 89  1  0  0  0  0
 26 90  1  0  0  0  0
 27 28  1  0  0  0  0
 27 29  2  0  0  0  0
 28 91  1  0  0  0  0
 28 92  1  0  0  0  0
 28 93  1  0  0  0  0
 29 30  1  0  0  0  0
 29 94  1  0  0  0  0
 30 31  1  0  0  0  0
 30 95  1  0  0  0  0
 30 96  1  0  0  0  0
 31 32  1  0  0  0  0
 31 97  1  0  0  0  0
 31 98  1  0  0  0  0
 32 33  1  0  0  0  0
 32 34  2  0  0  0  0
 33 99  1  0  0  0  0
 33100  1  0  0  0  0
 33101  1  0  0  0  0
 34 35  1  0  0  0  0
 34102  1  0  0  0  0
 35 36  1  0  0  0  0
 35103  1  0  0  0  0
 35104  1  0  0  0  0
 36 37  1  0  0  0  0
 36105  1  0  0  0  0
 36106  1  0  0  0  0
 37 38  1  0  0  0  0
 37 39  2  0  0  0  0
 38107  1  0  0  0  0
 38108  1  0  0  0  0
 38109  1  0  0  0  0
 39 40  1  0  0  0  0
 39110  1  0  0  0  0
 40 41  1  0  0  0  0
 40111  1  0  0  0  0
 40112  1  0  0  0  0
 41 42  2  0  0  0  0
 41 46  1  0  0  0  0
 42 43  1  0  0  0  0
 42113  1  0  0  0  0
 43 44  2  0  0  0  0
 43114  1  0  0  0  0
 44 45  1  0  0  0  0
 44115  1  0  0  0  0
 45 46  2  0  0  0  0
 45116  1  0  0  0  0
 46 47  1  0  0  0  0
 47117  1  0  0  0  0
M  END
>  <DRUGBANK_ID>
DB03232

>  <SECONDARY_ACCESSION_NUMBERS>
EXPT00337

>  <COMMON_NAME>
2-[(2e,6e,10e,14e,18e,22e,26e)-3,7,11,15,19,23,27,31-Octamethyldotriaconta-2,6,10,14,18,22,26,30-Octaenyl]Phenol

$$$$
