1564
 OpenBabel10282417113D

 55 58  0  0  1  0  0  0  0  0999 V2000
    1.5477   -1.3366    2.8513 O   0  0  0  0  0  0  0  0  0  0  0  0
   -5.9825   -7.9574   -1.6679 O   0  0  0  0  0  0  0  0  0  0  0  0
   -0.8159   -3.8560    2.2480 C   0  0  2  0  0  0  0  0  0  0  0  0
    0.6524   -3.6146    1.9338 C   0  0  1  0  0  0  0  0  0  0  0  0
   -1.4953   -4.2037    0.9481 C   0  0  1  0  0  0  0  0  0  0  0  0
   -1.2103   -5.6916    0.6851 C   0  0  1  0  0  0  0  0  0  0  0  0
    1.0924   -2.6621    3.2098 C   0  0  2  0  0  0  0  0  0  0  0  0
   -2.4888   -6.4333   -0.1305 C   0  0  2  0  0  0  0  0  0  0  0  0
    1.1728   -5.1116    1.6135 C   0  0  0  0  0  0  0  0  0  0  0  0
    0.3969   -5.6909    0.3527 C   0  0  0  0  0  0  0  0  0  0  0  0
   -1.2422   -2.6328    2.9995 C   0  0  0  0  0  0  0  0  0  0  0  0
   -2.9556   -4.0212    0.9004 C   0  0  2  0  0  0  0  0  0  0  0  0
   -0.1720   -2.4318    4.0427 C   0  0  0  0  0  0  0  0  0  0  0  0
   -3.4032   -4.2911   -0.6312 C   0  0  0  0  0  0  0  0  0  0  0  0
   -3.1832   -5.7136   -1.2333 C   0  0  0  0  0  0  0  0  0  0  0  0
    1.0823   -2.7764    0.7161 C   0  0  0  0  0  0  0  0  0  0  0  0
   -4.2519   -6.3962    0.6249 C   0  0  0  0  0  0  0  0  0  0  0  0
    2.2698   -3.4284    3.6947 C   0  0  0  0  0  0  0  0  0  0  0  0
   -1.5765   -7.3931   -1.0778 C   0  0  0  0  0  0  0  0  0  0  0  0
   -3.5958   -2.7223    1.2986 C   0  0  0  0  0  0  0  0  0  0  0  0
   -5.6327   -6.0697   -0.3270 C   0  0  0  0  0  0  0  0  0  0  0  0
   -3.9582   -6.6577   -1.9233 C   0  0  0  0  0  0  0  0  0  0  0  0
   -5.3486   -6.9795   -1.4240 C   0  0  0  0  0  0  0  0  0  0  0  0
   -0.9360   -4.6957    2.9641 H   0  0  0  0  0  0  0  0  0  0  0  0
   -1.1157   -3.5797    0.1404 H   0  0  0  0  0  0  0  0  0  0  0  0
   -1.1938   -6.3078    1.5942 H   0  0  0  0  0  0  0  0  0  0  0  0
    0.8496   -0.6686    2.9971 H   0  0  0  0  0  0  0  0  0  0  0  0
    2.2598   -5.1463    1.4428 H   0  0  0  0  0  0  0  0  0  0  0  0
    0.9913   -5.8315    2.4301 H   0  0  0  0  0  0  0  0  0  0  0  0
    0.6521   -5.0738   -0.5230 H   0  0  0  0  0  0  0  0  0  0  0  0
    0.8302   -6.6752    0.1209 H   0  0  0  0  0  0  0  0  0  0  0  0
   -2.1724   -2.7810    3.5432 H   0  0  0  0  0  0  0  0  0  0  0  0
   -1.2881   -1.7925    2.2969 H   0  0  0  0  0  0  0  0  0  0  0  0
   -3.1994   -4.6964    1.7308 H   0  0  0  0  0  0  0  0  0  0  0  0
   -0.3154   -3.1360    4.8659 H   0  0  0  0  0  0  0  0  0  0  0  0
   -0.3340   -1.4152    4.4339 H   0  0  0  0  0  0  0  0  0  0  0  0
   -2.8712   -3.5915   -1.2773 H   0  0  0  0  0  0  0  0  0  0  0  0
   -4.4331   -3.9661   -0.6603 H   0  0  0  0  0  0  0  0  0  0  0  0
    0.7441   -3.1166   -0.2568 H   0  0  0  0  0  0  0  0  0  0  0  0
    0.7288   -1.7525    0.8132 H   0  0  0  0  0  0  0  0  0  0  0  0
    2.1792   -2.7805    0.6693 H   0  0  0  0  0  0  0  0  0  0  0  0
   -4.4977   -5.5194    1.2393 H   0  0  0  0  0  0  0  0  0  0  0  0
   -4.4675   -7.1863    1.3420 H   0  0  0  0  0  0  0  0  0  0  0  0
    2.6568   -3.3852    2.6710 H   0  0  0  0  0  0  0  0  0  0  0  0
    3.3506   -3.4383    3.8545 H   0  0  0  0  0  0  0  0  0  0  0  0
    1.8893   -4.3975    4.0057 H   0  0  0  0  0  0  0  0  0  0  0  0
   -1.3923   -8.3936   -0.7007 H   0  0  0  0  0  0  0  0  0  0  0  0
   -1.7812   -7.4124   -2.1651 H   0  0  0  0  0  0  0  0  0  0  0  0
   -0.5797   -6.9498   -1.2398 H   0  0  0  0  0  0  0  0  0  0  0  0
   -4.6779   -2.8574    1.2890 H   0  0  0  0  0  0  0  0  0  0  0  0
   -3.4197   -2.4009    2.3131 H   0  0  0  0  0  0  0  0  0  0  0  0
   -3.2627   -1.9453    0.6183 H   0  0  0  0  0  0  0  0  0  0  0  0
   -5.7491   -5.1033   -0.8577 H   0  0  0  0  0  0  0  0  0  0  0  0
   -6.6185   -6.1872    0.1292 H   0  0  0  0  0  0  0  0  0  0  0  0
   -3.6202   -7.7161   -1.9820 H   0  0  0  0  0  0  0  0  0  0  0  0
  1 27  1  0  0  0  0
  2 23  2  0  0  0  0
  3  4  1  0  0  0  0
  3  5  1  0  0  0  0
  3 11  1  0  0  0  0
  3 24  1  1  0  0  0
  4  7  1  0  0  0  0
  4  9  1  0  0  0  0
  4 16  1  6  0  0  0
  5  6  1  0  0  0  0
  5 12  1  0  0  0  0
  5 25  1  6  0  0  0
  6  8  1  0  0  0  0
  6 10  1  0  0  0  0
  6 26  1  1  0  0  0
  7  1  1  6  0  0  0
  7 13  1  0  0  0  0
  7 18  1  0  0  0  0
  8 15  1  0  0  0  0
  8 17  1  0  0  0  0
  8 19  1  6  0  0  0
  9 10  1  0  0  0  0
  9 28  1  0  0  0  0
  9 29  1  0  0  0  0
 10 30  1  0  0  0  0
 10 31  1  0  0  0  0
 11 13  1  0  0  0  0
 11 32  1  0  0  0  0
 11 33  1  0  0  0  0
 12 14  1  0  0  0  0
 12 20  1  0  0  0  0
 12 34  1  1  0  0  0
 13 35  1  0  0  0  0
 13 36  1  0  0  0  0
 14 15  1  0  0  0  0
 14 37  1  0  0  0  0
 14 38  1  0  0  0  0
 15 22  2  0  0  0  0
 16 39  1  0  0  0  0
 16 40  1  0  0  0  0
 16 41  1  0  0  0  0
 17 21  1  0  0  0  0
 17 42  1  0  0  0  0
 17 43  1  0  0  0  0
 18 44  1  0  0  0  0
 18 45  1  0  0  0  0
 18 46  1  0  0  0  0
 19 47  1  0  0  0  0
 19 48  1  0  0  0  0
 19 49  1  0  0  0  0
 20 50  1  0  0  0  0
 20 51  1  0  0  0  0
 20 52  1  0  0  0  0
 21 23  1  0  0  0  0
 21 53  1  0  0  0  0
 21 54  1  0  0  0  0
 22 23  1  0  0  0  0
 22 55  1  0  0  0  0
M  END
>  <DRUGBANK_ID>
DB01564

>  <COMMON_NAME>
Calusterone

>  <CAS_NUMBER>
17021-26-0

>  <UNII>
0678G6Q58A

>  <SYNONYMS>
17-beta-Hydroxy-7-beta,17-alpha-dimethylandrost-4-ene-3-one; 17beta-Hydroxy-7beta,17-dimethylandrost-4-en-3-one; 17beta-Hydroxy-7beta,17alpha-dimethylandrost-4-ene-3-one; 7-beta,17-alpha-Dimethyl testosterone; 7-beta,17-Dimethyltestosterone; 7beta,17-Dimethyltestosterone; 7beta,17alpha-Dimethyltestosterone; Calusterona; Calusterone; Calusteronum; CLS

$$$$
