Resveratrol
 OpenBabel10282417123D

 29 30  0  0  0  0  0  0  0  0999 V2000
    2.2776   -0.0207    0.0112 O   0  0  0  0  0  0  0  0  0  0  0  0
    0.9154   -0.0345    0.0123 C   0  0  0  0  0  0  0  0  0  0  0  0
    0.1806   -1.2150    0.0097 C   0  0  0  0  0  0  0  0  0  0  0  0
   -1.2221   -1.1570   -0.0024 C   0  0  0  0  0  0  0  0  0  0  0  0
   -1.8930    0.0783   -0.0111 C   0  0  0  0  0  0  0  0  0  0  0  0
   -3.3691    0.1169   -0.0373 C   0  0  0  0  0  0  0  0  0  0  0  0
   -4.1000    1.2483   -0.0572 C   0  0  0  0  0  0  0  0  0  0  0  0
   -5.5646    1.2854   -0.0967 C   0  0  0  0  0  0  0  0  0  0  0  0
   -6.3390    0.4840    0.7519 C   0  0  0  0  0  0  0  0  0  0  0  0
   -7.7273    0.5689    0.6988 C   0  0  0  0  0  0  0  0  0  0  0  0
   -8.5185   -0.1951    1.5059 O   0  0  0  0  0  0  0  0  0  0  0  0
   -8.3554    1.4411   -0.1817 C   0  0  0  0  0  0  0  0  0  0  0  0
   -7.5857    2.2535   -1.0041 C   0  0  0  0  0  0  0  0  0  0  0  0
   -8.2411    3.1021   -1.8479 O   0  0  0  0  0  0  0  0  0  0  0  0
   -6.1954    2.1938   -0.9621 C   0  0  0  0  0  0  0  0  0  0  0  0
   -1.1178    1.2466    0.0030 C   0  0  0  0  0  0  0  0  0  0  0  0
    0.2744    1.1926    0.0145 C   0  0  0  0  0  0  0  0  0  0  0  0
    2.6049   -0.9331   -0.0202 H   0  0  0  0  0  0  0  0  0  0  0  0
    0.6740   -2.1821    0.0168 H   0  0  0  0  0  0  0  0  0  0  0  0
   -1.7815   -2.0908   -0.0071 H   0  0  0  0  0  0  0  0  0  0  0  0
   -3.8707   -0.8481   -0.0599 H   0  0  0  0  0  0  0  0  0  0  0  0
   -3.6395    2.2296   -0.0644 H   0  0  0  0  0  0  0  0  0  0  0  0
   -5.8527   -0.1896    1.4510 H   0  0  0  0  0  0  0  0  0  0  0  0
   -7.9538   -0.7305    2.0865 H   0  0  0  0  0  0  0  0  0  0  0  0
   -9.4384    1.4901   -0.2230 H   0  0  0  0  0  0  0  0  0  0  0  0
   -7.5908    3.6002   -2.3689 H   0  0  0  0  0  0  0  0  0  0  0  0
   -5.5972    2.8364   -1.6024 H   0  0  0  0  0  0  0  0  0  0  0  0
   -1.5724    2.2309    0.0036 H   0  0  0  0  0  0  0  0  0  0  0  0
    0.8502    2.1127    0.0231 H   0  0  0  0  0  0  0  0  0  0  0  0
  1  2  1  0  0  0  0
  1 18  1  0  0  0  0
  2  3  2  0  0  0  0
  2 17  1  0  0  0  0
  3  4  1  0  0  0  0
  3 19  1  0  0  0  0
  4  5  2  0  0  0  0
  4 20  1  0  0  0  0
  5  6  1  0  0  0  0
  5 16  1  0  0  0  0
  6  7  2  0  0  0  0
  6 21  1  0  0  0  0
  7  8  1  0  0  0  0
  7 22  1  0  0  0  0
  8  9  2  0  0  0  0
  8 15  1  0  0  0  0
  9 10  1  0  0  0  0
  9 23  1  0  0  0  0
 10 11  1  0  0  0  0
 10 12  2  0  0  0  0
 11 24  1  0  0  0  0
 12 13  1  0  0  0  0
 12 25  1  0  0  0  0
 13 14  1  0  0  0  0
 13 15  2  0  0  0  0
 14 26  1  0  0  0  0
 15 27  1  0  0  0  0
 16 17  2  0  0  0  0
 16 28  1  0  0  0  0
 17 29  1  0  0  0  0
M  END
>  <DRUGBANK_ID>
DB02709

>  <SECONDARY_ACCESSION_NUMBERS>
EXPT02968; DB05073

>  <COMMON_NAME>
Resveratrol

>  <CAS_NUMBER>
501-36-0

>  <UNII>
Q369O8926L

>  <SYNONYMS>
(E)-5-(2-(4-hydroxyphenyl)ethenyl)-1,3-benzenediol(E)-5-(2-(4-hydroxyphenyl)ethenyl)-1,3-benzenediol; (E)-resveratrol; 3,4',5-trihydroxy-trans-stilbene; 3,4',5-trihydroxystilbene; 3,5,4'-trihydroxystilbene; 5-[(1E)-2-(4-hydroxyphenyl)ethenyl]benzene-1,3-diol; 5-[(E)-2-(4-Hydroxyphenyl)-Ethenyl] Benzene-1,3 Diol; 5-[(E)-2-(4-hydroxyphenyl)ethenyl]benzene-1,3-diol; 5-[(E)-2-(4-hydroxyphenyl)vinyl]benzene-1,3-diol; trans-resveratrol

$$$$
