
 OpenBabel10282417133D

 29 28  0  0  0  0  0  0  0  0999 V2000
    1.1246    0.0744    0.0593 N   0  0  0  0  0  0  0  0  0  0  0  0
    0.6784   -0.3972   -1.2438 C   0  0  0  0  0  0  0  0  0  0  0  0
    1.1430   -1.8267   -1.5404 C   0  0  0  0  0  0  0  0  0  0  0  0
    0.6084   -2.8885   -0.5654 C   0  0  0  0  0  0  0  0  0  0  0  0
   -0.9181   -2.9545   -0.4917 C   0  0  0  0  0  0  0  0  0  0  0  0
   -1.4911   -3.3445   -1.7795 N   0  0  0  0  0  0  0  0  0  0  0  0
   -2.9535   -3.2578   -1.7862 C   0  0  0  0  0  0  0  0  0  0  0  0
   -3.5084   -1.8366   -1.6095 C   0  0  0  0  0  0  0  0  0  0  0  0
   -3.0241   -0.8315   -2.6575 C   0  0  0  0  0  0  0  0  0  0  0  0
   -3.4641   -1.1885   -4.0000 N   0  0  0  0  0  0  0  0  0  0  0  0
    0.7482   -0.5248    0.7933 H   0  0  0  0  0  0  0  0  0  0  0  0
    2.1375   -0.0130    0.1208 H   0  0  0  0  0  0  0  0  0  0  0  0
   -0.4089   -0.3166   -1.2802 H   0  0  0  0  0  0  0  0  0  0  0  0
    1.0592    0.2771   -2.0182 H   0  0  0  0  0  0  0  0  0  0  0  0
    0.8519   -2.0846   -2.5659 H   0  0  0  0  0  0  0  0  0  0  0  0
    2.2390   -1.8613   -1.5284 H   0  0  0  0  0  0  0  0  0  0  0  0
    1.0048   -3.8709   -0.8487 H   0  0  0  0  0  0  0  0  0  0  0  0
    0.9934   -2.6866    0.4414 H   0  0  0  0  0  0  0  0  0  0  0  0
   -1.2144   -3.6792    0.2733 H   0  0  0  0  0  0  0  0  0  0  0  0
   -1.2841   -1.9799   -0.1598 H   0  0  0  0  0  0  0  0  0  0  0  0
   -1.1190   -2.7708   -2.5290 H   0  0  0  0  0  0  0  0  0  0  0  0
   -3.3041   -3.6679   -2.7410 H   0  0  0  0  0  0  0  0  0  0  0  0
   -3.3629   -3.9192   -1.0154 H   0  0  0  0  0  0  0  0  0  0  0  0
   -4.6036   -1.8827   -1.6259 H   0  0  0  0  0  0  0  0  0  0  0  0
   -3.2523   -1.4565   -0.6128 H   0  0  0  0  0  0  0  0  0  0  0  0
   -3.3987    0.1645   -2.4031 H   0  0  0  0  0  0  0  0  0  0  0  0
   -1.9343   -0.7638   -2.6613 H   0  0  0  0  0  0  0  0  0  0  0  0
   -3.0636   -0.5278   -4.6698 H   0  0  0  0  0  0  0  0  0  0  0  0
   -3.0940   -2.0997   -4.2555 H   0  0  0  0  0  0  0  0  0  0  0  0
  1  2  1  0  0  0  0
  1 11  1  0  0  0  0
  1 12  1  0  0  0  0
  2  3  1  0  0  0  0
  2 13  1  0  0  0  0
  2 14  1  0  0  0  0
  3  4  1  0  0  0  0
  3 15  1  0  0  0  0
  3 16  1  0  0  0  0
  4  5  1  0  0  0  0
  4 17  1  0  0  0  0
  4 18  1  0  0  0  0
  5  6  1  0  0  0  0
  5 19  1  0  0  0  0
  5 20  1  0  0  0  0
  6  7  1  0  0  0  0
  6 21  1  0  0  0  0
  7  8  1  0  0  0  0
  7 22  1  0  0  0  0
  7 23  1  0  0  0  0
  8  9  1  0  0  0  0
  8 24  1  0  0  0  0
  8 25  1  0  0  0  0
  9 10  1  0  0  0  0
  9 26  1  0  0  0  0
  9 27  1  0  0  0  0
 10 28  1  0  0  0  0
 10 29  1  0  0  0  0
M  END
>  <DRUGBANK_ID>
DB03566

>  <SECONDARY_ACCESSION_NUMBERS>
EXPT02942

>  <COMMON_NAME>
Spermidine

>  <CAS_NUMBER>
124-20-9

>  <UNII>
U87FK77H25

>  <SYNONYMS>
1,5,10-triazadecane; 4-azaoctamethylenediamine; 4-azaoctane-1,8-diamine; N-(3-Aminopropyl)-1,4-butane-diamine; N-(3-aminopropyl)butane-1,4-diamine; Spermidin; Spermidine

$$$$
