LN1
 OpenBabel10282417173D

 56 58  0  0  0  0  0  0  0  0999 V2000
    3.9361   -3.5513    2.4140 O   0  0  0  0  0  0  0  0  0  0  0  0
    4.5158   -4.2098    1.5506 C   0  0  0  0  0  0  0  0  0  0  0  0
    4.0777   -4.2793    0.1806 C   0  0  0  0  0  0  0  0  0  0  0  0
    3.9445   -5.4531   -0.6507 C   0  0  0  0  0  0  0  0  0  0  0  0
    3.4574   -5.1345   -1.8928 C   0  0  0  0  0  0  0  0  0  0  0  0
    3.1594   -5.8536   -3.1511 C   0  0  0  0  0  0  0  0  0  0  0  0
    2.5240   -5.2768   -4.1951 C   0  0  0  0  0  0  0  0  0  0  0  0
    1.9726   -3.9947   -4.0083 C   0  0  0  0  0  0  0  0  0  0  0  0
    2.3890   -3.3804   -2.8977 C   0  0  0  0  0  0  0  0  0  0  0  0
    3.1563   -3.7823   -1.8098 N   0  0  0  0  0  0  0  0  0  0  0  0
    3.8544   -3.1397   -0.5723 C   0  0  0  0  0  0  0  0  0  0  0  0
    4.2937   -1.7826   -0.2189 N   0  0  0  0  0  0  0  0  0  0  0  0
    4.6783   -1.0275    1.0339 C   0  0  1  0  0  0  0  0  0  0  0  0
    5.9692   -0.1321    0.7872 C   0  0  0  0  0  0  0  0  0  0  0  0
    6.6809   -0.4544   -0.3167 O   0  0  0  0  0  0  0  0  0  0  0  0
    6.3795    0.7420    1.5474 O   0  0  0  0  0  0  0  0  0  0  0  0
    3.5034   -0.1448    1.6181 C   0  0  2  0  0  0  0  0  0  0  0  0
    3.4697    1.6253    0.9743 S   0  0  2  0  0  0  0  0  0  0  0  0
    1.9244    1.8779    1.3582 O   0  0  0  0  0  0  0  0  0  0  0  0
    3.6466    1.5840   -0.5077 O   0  0  0  0  0  0  0  0  0  0  0  0
    3.8655    0.1771    3.1015 C   0  0  0  0  0  0  0  0  0  0  0  0
    2.0997   -0.8692    1.5233 C   0  0  0  0  0  0  0  0  0  0  0  0
    1.5302   -1.2537    0.1749 O   0  0  0  0  0  0  0  0  0  0  0  0
    1.1861   -0.3035   -0.7651 C   0  0  0  0  0  0  0  0  0  0  0  0
    1.1335    0.8548   -0.5415 O   0  0  0  0  0  0  0  0  0  0  0  0
    0.9149   -0.6795   -2.2266 C   0  0  0  0  0  0  0  0  0  0  0  0
    2.2030   -0.5067   -3.1917 C   0  0  0  0  0  0  0  0  0  0  0  0
    3.4687   -0.7599   -2.6089 C   0  0  0  0  0  0  0  0  0  0  0  0
    2.2200   -0.7844   -4.5602 C   0  0  0  0  0  0  0  0  0  0  0  0
    3.3957   -1.4188   -5.1996 C   0  0  0  0  0  0  0  0  0  0  0  0
    4.5586   -1.8137   -4.5004 C   0  0  0  0  0  0  0  0  0  0  0  0
    5.3587   -2.8771   -4.8742 O   0  0  0  0  0  0  0  0  0  0  0  0
    4.6552   -1.4173   -3.1932 C   0  0  0  0  0  0  0  0  0  0  0  0
    5.6005   -2.0937   -2.4086 O   0  0  0  0  0  0  0  0  0  0  0  0
    5.0425   -1.7288    1.7752 H   0  0  0  0  0  0  0  0  0  0  0  0
    5.4381   -4.7537    1.7801 H   0  0  0  0  0  0  0  0  0  0  0  0
    4.1547   -6.4642   -0.3581 H   0  0  0  0  0  0  0  0  0  0  0  0
    3.4565   -6.8785   -3.2962 H   0  0  0  0  0  0  0  0  0  0  0  0
    2.4114   -5.6632   -5.2102 H   0  0  0  0  0  0  0  0  0  0  0  0
    1.6563   -3.4253   -4.8930 H   0  0  0  0  0  0  0  0  0  0  0  0
    2.5880   -2.4459   -3.1962 H   0  0  0  0  0  0  0  0  0  0  0  0
    4.4790   -1.0384   -0.8901 H   0  0  0  0  0  0  0  0  0  0  0  0
    6.2853   -1.1766   -0.8541 H   0  0  0  0  0  0  0  0  0  0  0  0
    1.3557    1.4876    0.6343 H   0  0  0  0  0  0  0  0  0  0  0  0
    4.7553    0.8218    3.1646 H   0  0  0  0  0  0  0  0  0  0  0  0
    3.0765    0.7513    3.6007 H   0  0  0  0  0  0  0  0  0  0  0  0
    4.0848   -0.7223    3.6728 H   0  0  0  0  0  0  0  0  0  0  0  0
    2.2193   -1.8216    2.0630 H   0  0  0  0  0  0  0  0  0  0  0  0
    1.3288   -0.3528    2.1129 H   0  0  0  0  0  0  0  0  0  0  0  0
    0.2848   -1.5900   -2.2553 H   0  0  0  0  0  0  0  0  0  0  0  0
    0.2259    0.1122   -2.5452 H   0  0  0  0  0  0  0  0  0  0  0  0
    3.1418   -1.0832   -1.6334 H   0  0  0  0  0  0  0  0  0  0  0  0
    1.2543   -0.8907   -5.0532 H   0  0  0  0  0  0  0  0  0  0  0  0
    3.2439   -1.8660   -6.1755 H   0  0  0  0  0  0  0  0  0  0  0  0
    4.9916   -3.3336   -5.6508 H   0  0  0  0  0  0  0  0  0  0  0  0
    5.8103   -2.9620   -2.8424 H   0  0  0  0  0  0  0  0  0  0  0  0
  1  2  2  0  0  0  0
  2 36  1  0  0  0  0
  3  2  1  0  0  0  0
  3  4  1  0  0  0  0
  4 37  1  0  0  0  0
  5  4  2  0  0  0  0
  5  6  1  0  0  0  0
  6 38  1  0  0  0  0
  7  6  2  0  0  0  0
  7 39  1  0  0  0  0
  8  7  1  0  0  0  0
  8 40  1  0  0  0  0
  9  8  2  0  0  0  0
  9 10  1  0  0  0  0
  9 41  1  0  0  0  0
 10  5  1  0  0  0  0
 11  3  2  0  0  0  0
 11 10  1  0  0  0  0
 12 11  1  0  0  0  0
 12 42  1  0  0  0  0
 13 35  1  1  0  0  0
 13 14  1  0  0  0  0
 13 12  1  0  0  0  0
 14 15  1  0  0  0  0
 15 43  1  0  0  0  0
 16 14  2  0  0  0  0
 17 13  1  0  0  0  0
 17 21  1  1  0  0  0
 17 22  1  0  0  0  0
 18 20  2  6  0  0  0
 18 19  1  0  0  0  0
 18 17  1  0  0  0  0
 19 44  1  0  0  0  0
 21 45  1  0  0  0  0
 21 46  1  0  0  0  0
 21 47  1  0  0  0  0
 22 23  1  0  0  0  0
 22 48  1  0  0  0  0
 22 49  1  0  0  0  0
 24 23  1  0  0  0  0
 25 24  2  0  0  0  0
 26 24  1  0  0  0  0
 26 50  1  0  0  0  0
 26 51  1  0  0  0  0
 27 26  1  0  0  0  0
 27 29  1  0  0  0  0
 28 27  2  0  0  0  0
 28 52  1  0  0  0  0
 29 53  1  0  0  0  0
 30 29  2  0  0  0  0
 30 54  1  0  0  0  0
 31 30  1  0  0  0  0
 32 31  1  0  0  0  0
 32 55  1  0  0  0  0
 33 28  1  0  0  0  0
 33 31  2  0  0  0  0
 34 33  1  0  0  0  0
 34 56  1  0  0  0  0
M  END
>  <DRUGBANK_ID>
DB08116

>  <COMMON_NAME>
(3R)-4-{[(3,4-dihydroxyphenyl)acetyl]oxy}-N-(2-formylindolizin-3-yl)-3-sulfino-D-valine

$$$$
