
 OpenBabel10282417193D

 52 55  0  0  0  0  0  0  0  0999 V2000
    1.1867   -0.2000   -0.1452 C   0  0  0  0  0  0  0  0  0  0  0  0
    0.4110   -1.4184   -0.6009 C   0  0  0  0  0  0  0  0  0  0  0  0
    0.9151   -2.6343    0.1697 C   0  0  0  0  0  0  0  0  0  0  0  0
   -1.0214   -1.2173   -0.5555 O   0  0  0  0  0  0  0  0  0  0  0  0
   -1.6470   -1.1317    0.6627 C   0  0  0  0  0  0  0  0  0  0  0  0
   -1.4308   -0.1369    1.6216 C   0  0  0  0  0  0  0  0  0  0  0  0
   -2.0497   -0.2476    2.8576 C   0  0  0  0  0  0  0  0  0  0  0  0
   -3.0713   -1.1608    3.0448 C   0  0  0  0  0  0  0  0  0  0  0  0
   -3.3490   -2.0220    1.9957 C   0  0  0  0  0  0  0  0  0  0  0  0
   -2.6259   -2.0643    0.8377 N   0  0  0  0  0  0  0  0  0  0  0  0
   -3.8754   -1.0359    4.2339 C   0  0  0  0  0  0  0  0  0  0  0  0
   -4.4689    0.0340    4.7146 N   0  0  0  0  0  0  0  0  0  0  0  0
   -4.9735   -0.4223    5.9068 C   0  0  0  0  0  0  0  0  0  0  0  0
   -4.6737   -1.7080    6.1701 N   0  0  0  0  0  0  0  0  0  0  0  0
   -3.9425   -2.1161    5.0549 O   0  0  0  0  0  0  0  0  0  0  0  0
   -5.7370    0.4207    6.8060 C   0  0  0  0  0  0  0  0  0  0  0  0
   -6.9042    1.0853    6.4196 C   0  0  0  0  0  0  0  0  0  0  0  0
   -7.6347    1.8284    7.3497 C   0  0  0  0  0  0  0  0  0  0  0  0
   -7.2153    1.9509    8.6805 C   0  0  0  0  0  0  0  0  0  0  0  0
   -6.0133    1.3264    9.0470 C   0  0  0  0  0  0  0  0  0  0  0  0
   -5.2725    0.5689    8.1250 C   0  0  0  0  0  0  0  0  0  0  0  0
   -4.1153    0.1034    8.7852 C   0  0  0  0  0  0  0  0  0  0  0  0
   -4.1286    0.6386   10.0382 C   0  0  0  0  0  0  0  0  0  0  0  0
   -5.3228    1.2810   10.2451 N   0  0  0  0  0  0  0  0  0  0  0  0
   -5.7567    1.8481   11.5167 C   0  0  0  0  0  0  0  0  0  0  0  0
   -5.8760    0.8215   12.6565 C   0  0  0  0  0  0  0  0  0  0  0  0
   -4.5816    0.0866   13.0157 C   0  0  0  0  0  0  0  0  0  0  0  0
   -3.4637    1.0058   13.4802 C   0  0  0  0  0  0  0  0  0  0  0  0
   -2.8678    0.9151   14.5290 O   0  0  0  0  0  0  0  0  0  0  0  0
   -3.1415    1.9757   12.5996 O   0  0  0  0  0  0  0  0  0  0  0  0
   -0.7153    1.4223    1.4011 Cl  0  0  0  0  0  0  0  0  0  0  0  0
    1.1469   -0.1706    0.9466 H   0  0  0  0  0  0  0  0  0  0  0  0
    0.7564    0.7014   -0.5905 H   0  0  0  0  0  0  0  0  0  0  0  0
    2.2516   -0.2225   -0.3758 H   0  0  0  0  0  0  0  0  0  0  0  0
    0.6570   -1.5653   -1.6630 H   0  0  0  0  0  0  0  0  0  0  0  0
    0.5970   -2.5942    1.2152 H   0  0  0  0  0  0  0  0  0  0  0  0
    0.5383   -3.5647   -0.2603 H   0  0  0  0  0  0  0  0  0  0  0  0
    2.0124   -2.6639    0.1584 H   0  0  0  0  0  0  0  0  0  0  0  0
   -1.8102    0.4695    3.6395 H   0  0  0  0  0  0  0  0  0  0  0  0
   -4.2065   -2.6920    2.0328 H   0  0  0  0  0  0  0  0  0  0  0  0
   -7.2569    1.0060    5.3952 H   0  0  0  0  0  0  0  0  0  0  0  0
   -8.5554    2.3171    7.0385 H   0  0  0  0  0  0  0  0  0  0  0  0
   -7.8020    2.5286    9.3886 H   0  0  0  0  0  0  0  0  0  0  0  0
   -3.3234   -0.5092    8.3768 H   0  0  0  0  0  0  0  0  0  0  0  0
   -3.3617    0.5462   10.7854 H   0  0  0  0  0  0  0  0  0  0  0  0
   -5.0765    2.6659   11.7649 H   0  0  0  0  0  0  0  0  0  0  0  0
   -6.7286    2.3337   11.3786 H   0  0  0  0  0  0  0  0  0  0  0  0
   -6.2452    1.3275   13.5581 H   0  0  0  0  0  0  0  0  0  0  0  0
   -6.6398    0.0805   12.3834 H   0  0  0  0  0  0  0  0  0  0  0  0
   -4.7821   -0.6211   13.8266 H   0  0  0  0  0  0  0  0  0  0  0  0
   -4.2450   -0.5608   12.2029 H   0  0  0  0  0  0  0  0  0  0  0  0
   -2.4484    2.5335   13.0076 H   0  0  0  0  0  0  0  0  0  0  0  0
  1  2  1  0  0  0  0
  1 32  1  0  0  0  0
  1 33  1  0  0  0  0
  1 34  1  0  0  0  0
  2  3  1  0  0  0  0
  2  4  1  0  0  0  0
  2 35  1  0  0  0  0
  3 36  1  0  0  0  0
  3 37  1  0  0  0  0
  3 38  1  0  0  0  0
  4  5  1  0  0  0  0
  5  6  2  0  0  0  0
  5 10  1  0  0  0  0
  6  7  1  0  0  0  0
  6 31  1  0  0  0  0
  7  8  2  0  0  0  0
  7 39  1  0  0  0  0
  8  9  1  0  0  0  0
  8 11  1  0  0  0  0
  9 10  2  0  0  0  0
  9 40  1  0  0  0  0
 11 12  2  0  0  0  0
 11 15  1  0  0  0  0
 12 13  1  0  0  0  0
 13 14  2  0  0  0  0
 13 16  1  0  0  0  0
 14 15  1  0  0  0  0
 16 17  1  0  0  0  0
 16 21  2  0  0  0  0
 17 18  2  0  0  0  0
 17 41  1  0  0  0  0
 18 19  1  0  0  0  0
 18 42  1  0  0  0  0
 19 20  2  0  0  0  0
 19 43  1  0  0  0  0
 20 21  1  0  0  0  0
 20 24  1  0  0  0  0
 21 22  1  0  0  0  0
 22 23  2  0  0  0  0
 22 44  1  0  0  0  0
 23 24  1  0  0  0  0
 23 45  1  0  0  0  0
 24 25  1  0  0  0  0
 25 26  1  0  0  0  0
 25 46  1  0  0  0  0
 25 47  1  0  0  0  0
 26 27  1  0  0  0  0
 26 48  1  0  0  0  0
 26 49  1  0  0  0  0
 27 28  1  0  0  0  0
 27 50  1  0  0  0  0
 27 51  1  0  0  0  0
 28 29  2  0  0  0  0
 28 30  1  0  0  0  0
 30 52  1  0  0  0  0
M  END
>  <DRUGBANK_ID>
DB11987

>  <COMMON_NAME>
GSK-2018682

>  <CAS_NUMBER>
1034688-30-6

>  <UNII>
NJL503AIJA

$$$$
