DEM
 OpenBabel10282417133D

 37 36  0  0  0  0  0  0  0  0999 V2000
    0.8467    0.3500    0.3323 C   0  0  0  0  0  0  0  0  0  0  0  0
    0.8357   -1.8321    1.3400 C   0  0  0  0  0  0  0  0  0  0  0  0
    0.3200   -2.6300    0.1332 C   0  0  0  0  0  0  0  0  0  0  0  0
    0.9001   -2.2227   -1.2240 C   0  0  0  0  0  0  0  0  0  0  0  0
    2.4296   -2.1565   -1.1768 C   0  0  0  0  0  0  0  0  0  0  0  0
    2.9837   -3.5738   -1.1060 C   0  0  0  0  0  0  0  0  0  0  0  0
    2.5240   -4.3674   -2.3321 C   0  0  0  0  0  0  0  0  0  0  0  0
    2.9898   -3.6776   -3.6221 C   0  0  0  0  0  0  0  0  0  0  0  0
    4.5192   -3.6475   -3.6905 C   0  0  0  0  0  0  0  0  0  0  0  0
    5.1024   -5.0588   -3.6073 C   0  0  0  0  0  0  0  0  0  0  0  0
    4.5878   -5.9160   -4.7531 C   0  0  0  0  0  0  0  0  0  0  0  0
    0.4009   -0.4717    1.3942 O   0  0  0  0  0  0  0  0  0  0  0  0
    0.3906    1.6729    0.4759 O   0  0  0  0  0  0  0  0  0  0  0  0
    0.3607    0.0512   -0.5811 H   0  0  0  0  0  0  0  0  0  0  0  0
    1.9362    0.3297    0.2189 H   0  0  0  0  0  0  0  0  0  0  0  0
    1.9256   -1.8859    1.4477 H   0  0  0  0  0  0  0  0  0  0  0  0
    0.4503   -2.3201    2.2431 H   0  0  0  0  0  0  0  0  0  0  0  0
    0.5618   -3.6898    0.2982 H   0  0  0  0  0  0  0  0  0  0  0  0
   -0.7710   -2.5751    0.0834 H   0  0  0  0  0  0  0  0  0  0  0  0
    0.5240   -2.9199   -1.9739 H   0  0  0  0  0  0  0  0  0  0  0  0
    0.4912   -1.3100   -1.6453 H   0  0  0  0  0  0  0  0  0  0  0  0
    2.8098   -1.6016   -2.0408 H   0  0  0  0  0  0  0  0  0  0  0  0
    2.8196   -1.5817   -0.3348 H   0  0  0  0  0  0  0  0  0  0  0  0
    4.0753   -3.5395   -1.0286 H   0  0  0  0  0  0  0  0  0  0  0  0
    2.6561   -4.0739   -0.1890 H   0  0  0  0  0  0  0  0  0  0  0  0
    2.8745   -5.3978   -2.2539 H   0  0  0  0  0  0  0  0  0  0  0  0
    1.4394   -4.4960   -2.3598 H   0  0  0  0  0  0  0  0  0  0  0  0
    2.5565   -4.1843   -4.4879 H   0  0  0  0  0  0  0  0  0  0  0  0
    2.6011   -2.6570   -3.7111 H   0  0  0  0  0  0  0  0  0  0  0  0
    4.8360   -3.1563   -4.6157 H   0  0  0  0  0  0  0  0  0  0  0  0
    4.9319   -3.0335   -2.8800 H   0  0  0  0  0  0  0  0  0  0  0  0
    6.1937   -5.0078   -3.6278 H   0  0  0  0  0  0  0  0  0  0  0  0
    4.8536   -5.5341   -2.6510 H   0  0  0  0  0  0  0  0  0  0  0  0
    4.8707   -5.4649   -5.7084 H   0  0  0  0  0  0  0  0  0  0  0  0
    4.9953   -6.9256   -4.6938 H   0  0  0  0  0  0  0  0  0  0  0  0
    3.4972   -6.0155   -4.7392 H   0  0  0  0  0  0  0  0  0  0  0  0
    0.9639    2.0729    1.1588 H   0  0  0  0  0  0  0  0  0  0  0  0
  1 12  1  0  0  0  0
  1 13  1  0  0  0  0
  1 14  1  0  0  0  0
  1 15  1  0  0  0  0
  2  3  1  0  0  0  0
  2 12  1  0  0  0  0
  2 16  1  0  0  0  0
  2 17  1  0  0  0  0
  3  4  1  0  0  0  0
  3 18  1  0  0  0  0
  3 19  1  0  0  0  0
  4  5  1  0  0  0  0
  4 20  1  0  0  0  0
  4 21  1  0  0  0  0
  5  6  1  0  0  0  0
  5 22  1  0  0  0  0
  5 23  1  0  0  0  0
  6  7  1  0  0  0  0
  6 24  1  0  0  0  0
  6 25  1  0  0  0  0
  7  8  1  0  0  0  0
  7 26  1  0  0  0  0
  7 27  1  0  0  0  0
  8  9  1  0  0  0  0
  8 28  1  0  0  0  0
  8 29  1  0  0  0  0
  9 10  1  0  0  0  0
  9 30  1  0  0  0  0
  9 31  1  0  0  0  0
 10 11  1  0  0  0  0
 10 32  1  0  0  0  0
 10 33  1  0  0  0  0
 11 34  1  0  0  0  0
 11 35  1  0  0  0  0
 11 36  1  0  0  0  0
 13 37  1  0  0  0  0
M  END
>  <DRUGBANK_ID>
DB04082

>  <SECONDARY_ACCESSION_NUMBERS>
EXPT01158

>  <COMMON_NAME>
Decyloxy-Methanol

$$$$
