SC9
 OpenBabel10282417173D

 38 41  0  0  0  0  0  0  0  0999 V2000
   -1.5985   -1.2254    0.0025 C   0  0  0  0  0  0  0  0  0  0  0  0
   -0.3043   -0.7806   -0.0018 N   0  0  0  0  0  0  0  0  0  0  0  0
   -0.3548    0.5840   -0.0085 C   0  0  0  0  0  0  0  0  0  0  0  0
   -1.5917    1.0286   -0.0086 N   0  0  0  0  0  0  0  0  0  0  0  0
   -2.3744   -0.0884   -0.0040 C   0  0  0  0  0  0  0  0  0  0  0  0
    0.9054   -1.4337   -0.0074 C   0  0  0  0  0  0  0  0  0  0  0  0
    2.0305   -0.6938   -0.0214 C   0  0  0  0  0  0  0  0  0  0  0  0
    2.0324    0.7023   -0.0232 N   0  0  0  0  0  0  0  0  0  0  0  0
    0.8846    1.3483   -0.0180 C   0  0  0  0  0  0  0  0  0  0  0  0
    0.9264    2.7247   -0.0234 N   0  0  0  0  0  0  0  0  0  0  0  0
   -0.2159    3.6091    0.0051 C   0  0  0  0  0  0  0  0  0  0  0  0
   -0.2347    4.4347    1.2549 C   0  0  0  0  0  0  0  0  0  0  0  0
   -0.0915    3.8715    2.5273 C   0  0  0  0  0  0  0  0  0  0  0  0
   -0.1225    4.6924    3.6483 C   0  0  0  0  0  0  0  0  0  0  0  0
   -0.3256    6.0490    3.4582 C   0  0  0  0  0  0  0  0  0  0  0  0
   -0.5282    6.6204    2.2514 N   0  0  0  0  0  0  0  0  0  0  0  0
   -0.4890    5.7987    1.1813 C   0  0  0  0  0  0  0  0  0  0  0  0
    3.3239   -1.4058   -0.0316 C   0  0  0  0  0  0  0  0  0  0  0  0
    4.2440   -1.2454    1.0095 C   0  0  0  0  0  0  0  0  0  0  0  0
    5.4576   -1.9331    1.0135 C   0  0  0  0  0  0  0  0  0  0  0  0
    5.7729   -2.7954   -0.0356 C   0  0  0  0  0  0  0  0  0  0  0  0
    4.8679   -2.9742   -1.0808 C   0  0  0  0  0  0  0  0  0  0  0  0
    3.6504   -2.2853   -1.0794 C   0  0  0  0  0  0  0  0  0  0  0  0
    3.9639   -0.4493    2.0528 F   0  0  0  0  0  0  0  0  0  0  0  0
   -1.8556   -2.2729    0.0060 H   0  0  0  0  0  0  0  0  0  0  0  0
   -3.4528   -0.0031   -0.0073 H   0  0  0  0  0  0  0  0  0  0  0  0
    0.8841   -2.5163    0.0012 H   0  0  0  0  0  0  0  0  0  0  0  0
    1.8461    3.1442    0.0290 H   0  0  0  0  0  0  0  0  0  0  0  0
   -0.1771    4.2439   -0.8865 H   0  0  0  0  0  0  0  0  0  0  0  0
   -1.1839    3.1181   -0.0472 H   0  0  0  0  0  0  0  0  0  0  0  0
    0.0450    2.7985    2.6457 H   0  0  0  0  0  0  0  0  0  0  0  0
    0.0132    4.2844    4.6433 H   0  0  0  0  0  0  0  0  0  0  0  0
   -0.3328    6.7356    4.2988 H   0  0  0  0  0  0  0  0  0  0  0  0
   -0.6789    6.2841    0.2273 H   0  0  0  0  0  0  0  0  0  0  0  0
    6.1471   -1.7913    1.8399 H   0  0  0  0  0  0  0  0  0  0  0  0
    6.7220   -3.3258   -0.0386 H   0  0  0  0  0  0  0  0  0  0  0  0
    5.1107   -3.6469   -1.9005 H   0  0  0  0  0  0  0  0  0  0  0  0
    2.9600   -2.4356   -1.9068 H   0  0  0  0  0  0  0  0  0  0  0  0
  1  5  2  0  0  0  0
  1  2  1  0  0  0  0
  1 25  1  0  0  0  0
  2  6  1  0  0  0  0
  2  3  1  0  0  0  0
  3  9  1  0  0  0  0
  4  3  2  0  0  0  0
  5  4  1  0  0  0  0
  5 26  1  0  0  0  0
  6  7  2  0  0  0  0
  6 27  1  0  0  0  0
  7 18  1  0  0  0  0
  7  8  1  0  0  0  0
  9  8  2  0  0  0  0
  9 10  1  0  0  0  0
 10 11  1  0  0  0  0
 10 28  1  0  0  0  0
 11 29  1  0  0  0  0
 11 30  1  0  0  0  0
 12 11  1  0  0  0  0
 13 12  2  0  0  0  0
 13 31  1  0  0  0  0
 14 13  1  0  0  0  0
 14 32  1  0  0  0  0
 15 14  2  0  0  0  0
 15 16  1  0  0  0  0
 15 33  1  0  0  0  0
 16 17  2  0  0  0  0
 17 12  1  0  0  0  0
 17 34  1  0  0  0  0
 18 23  2  0  0  0  0
 19 20  2  0  0  0  0
 19 18  1  0  0  0  0
 20 21  1  0  0  0  0
 20 35  1  0  0  0  0
 21 22  2  0  0  0  0
 21 36  1  0  0  0  0
 22 37  1  0  0  0  0
 23 22  1  0  0  0  0
 23 38  1  0  0  0  0
 24 19  1  0  0  0  0
M  END
>  <DRUGBANK_ID>
DB08532

>  <COMMON_NAME>
6-(2-fluorophenyl)-N-(pyridin-3-ylmethyl)imidazo[1,2-a]pyrazin-8-amine

$$$$
