937
 OpenBabel10282417113D

 34 34  0  0  1  0  0  0  0  0999 V2000
    1.1114   -0.0056    0.0132 O   0  0  0  0  0  0  0  0  0  0  0  0
    3.8831   -1.9481   -0.4718 N   0  0  0  0  0  0  0  0  0  0  0  0
    3.1227   -1.2240    0.5770 C   0  0  3  0  0  0  0  0  0  0  0  0
    4.6963   -3.0602    0.0478 C   0  0  0  0  0  0  0  0  0  0  0  0
    3.0536   -2.3182   -1.6377 C   0  0  0  0  0  0  0  0  0  0  0  0
    2.3366   -0.0351   -0.0032 C   0  0  0  0  0  0  0  0  0  0  0  0
    3.9755   -0.7462    1.7597 C   0  0  0  0  0  0  0  0  0  0  0  0
    3.9336   -4.1843    0.7437 C   0  0  0  0  0  0  0  0  0  0  0  0
    1.8857   -3.2610   -1.3805 C   0  0  0  0  0  0  0  0  0  0  0  0
    3.0729    1.1463   -0.5269 C   0  0  0  0  0  0  0  0  0  0  0  0
    2.6174    2.4016   -0.1190 C   0  0  0  0  0  0  0  0  0  0  0  0
    4.2000    1.0425   -1.3485 C   0  0  0  0  0  0  0  0  0  0  0  0
    3.3093    3.5471   -0.5046 C   0  0  0  0  0  0  0  0  0  0  0  0
    4.9113    2.1876   -1.7008 C   0  0  0  0  0  0  0  0  0  0  0  0
    4.4550    3.4392   -1.2934 C   0  0  0  0  0  0  0  0  0  0  0  0
    2.3623   -1.8868    1.0026 H   0  0  0  0  0  0  0  0  0  0  0  0
    5.3025   -3.4759   -0.7662 H   0  0  0  0  0  0  0  0  0  0  0  0
    5.4432   -2.6679    0.7487 H   0  0  0  0  0  0  0  0  0  0  0  0
    2.6436   -1.4098   -2.0967 H   0  0  0  0  0  0  0  0  0  0  0  0
    3.7032   -2.7344   -2.4176 H   0  0  0  0  0  0  0  0  0  0  0  0
    3.3405   -0.2745    2.5176 H   0  0  0  0  0  0  0  0  0  0  0  0
    4.4811   -1.5764    2.2618 H   0  0  0  0  0  0  0  0  0  0  0  0
    4.7358   -0.0198    1.4567 H   0  0  0  0  0  0  0  0  0  0  0  0
    3.4449   -4.8378    0.0261 H   0  0  0  0  0  0  0  0  0  0  0  0
    4.6094   -4.8382    1.2961 H   0  0  0  0  0  0  0  0  0  0  0  0
    3.1811   -3.8092    1.4433 H   0  0  0  0  0  0  0  0  0  0  0  0
    1.2988   -2.9663   -0.5065 H   0  0  0  0  0  0  0  0  0  0  0  0
    1.2153   -3.2941   -2.2405 H   0  0  0  0  0  0  0  0  0  0  0  0
    2.2199   -4.2861   -1.2509 H   0  0  0  0  0  0  0  0  0  0  0  0
    1.7353    2.4815    0.5124 H   0  0  0  0  0  0  0  0  0  0  0  0
    4.5441    0.0873   -1.7319 H   0  0  0  0  0  0  0  0  0  0  0  0
    2.9617    4.5216   -0.1748 H   0  0  0  0  0  0  0  0  0  0  0  0
    5.8243    2.0990   -2.2845 H   0  0  0  0  0  0  0  0  0  0  0  0
    4.9920    4.3337   -1.5963 H   0  0  0  0  0  0  0  0  0  0  0  0
  1  6  2  0  0  0  0
  2  3  1  0  0  0  0
  2  4  1  0  0  0  0
  2  5  1  0  0  0  0
  3  6  1  0  0  0  0
  3  7  1  0  0  0  0
  3 16  1  0  0  0  0
  4  8  1  0  0  0  0
  4 17  1  0  0  0  0
  4 18  1  0  0  0  0
  5  9  1  0  0  0  0
  5 19  1  0  0  0  0
  5 20  1  0  0  0  0
  6 10  1  0  0  0  0
  7 21  1  0  0  0  0
  7 22  1  0  0  0  0
  7 23  1  0  0  0  0
  8 24  1  0  0  0  0
  8 25  1  0  0  0  0
  8 26  1  0  0  0  0
  9 27  1  0  0  0  0
  9 28  1  0  0  0  0
  9 29  1  0  0  0  0
 10 11  2  0  0  0  0
 10 12  1  0  0  0  0
 11 13  1  0  0  0  0
 11 30  1  0  0  0  0
 12 14  2  0  0  0  0
 12 31  1  0  0  0  0
 13 15  2  0  0  0  0
 13 32  1  0  0  0  0
 14 15  1  0  0  0  0
 14 33  1  0  0  0  0
 15 34  1  0  0  0  0
M  END
>  <DRUGBANK_ID>
DB00937

>  <SECONDARY_ACCESSION_NUMBERS>
APRD00919

>  <COMMON_NAME>
Diethylpropion

>  <CAS_NUMBER>
90-84-6

>  <UNII>
Q94YYU22B8

>  <SYNONYMS>
(±)-diethylpropion; 1-phenyl-2-diethylamino-1-propanone; 2-(diethylamino)-1-phenyl-1-propanone; 2-(diethylamino)propiophenone; alpha-Benzoyltriethylamine; alpha-Diethylaminopropiophenone; Amfepramone; Amfépramone; Amfepramonum; Anfepramona; Diethylcathinone

$$$$
