XE4
 OpenBabel10282417173D

 63 65  0  0  0  0  0  0  0  0999 V2000
    1.4199    0.5332   -0.8639 C   0  0  0  0  0  0  0  0  0  0  0  0
    1.4667   -0.9485   -0.5011 C   0  0  2  0  0  0  0  0  0  0  0  0
    0.0786   -1.5831   -0.5262 C   0  0  0  0  0  0  0  0  0  0  0  0
   -0.9314   -0.8169    0.3312 C   0  0  1  0  0  0  0  0  0  0  0  0
   -0.9680    0.6513   -0.0448 C   0  0  0  0  0  0  0  0  0  0  0  0
    0.3639    1.2744   -0.0663 C   0  0  0  0  0  0  0  0  0  0  0  0
    0.7116    2.4001    0.5902 C   0  0  0  0  0  0  0  0  0  0  0  0
   -0.2570    3.2599    1.2289 C   0  0  0  0  0  0  0  0  0  0  0  0
   -0.3549    4.6036    1.3106 C   0  0  0  0  0  0  0  0  0  0  0  0
   -2.1097    1.3221   -0.2920 C   0  0  0  0  0  0  0  0  0  0  0  0
    2.0747   -1.1248    0.7793 O   0  0  0  0  0  0  0  0  0  0  0  0
   -2.2117   -1.4241    0.1727 O   0  0  0  0  0  0  0  0  0  0  0  0
    0.6900    5.6973    1.4718 C   0  0  1  0  0  0  0  0  0  0  0  0
    0.4160    7.0676    0.6906 C   0  0  2  0  0  0  0  0  0  0  0  0
   -0.5454    6.8062   -0.5049 C   0  0  0  0  0  0  0  0  0  0  0  0
   -1.9084    6.1994    0.0557 C   0  0  0  0  0  0  0  0  0  0  0  0
   -1.7634    5.1143    1.1494 C   0  0  0  0  0  0  0  0  0  0  0  0
    2.1090    5.2109    1.1059 C   0  0  0  0  0  0  0  0  0  0  0  0
    2.8155    6.2763    0.3219 C   0  0  0  0  0  0  0  0  0  0  0  0
    1.8790    7.5005    0.2709 C   0  0  2  0  0  0  0  0  0  0  0  0
    2.5989    8.6284    0.8967 C   0  0  0  0  0  0  0  0  0  0  0  0
    3.4638    9.4907    0.9883 C   0  0  0  0  0  0  0  0  0  0  0  0
    4.6742   10.4543    0.8577 C   0  0  0  0  0  0  0  0  0  0  0  0
    5.7190   11.2311    0.9283 C   0  0  0  0  0  0  0  0  0  0  0  0
    6.9369   12.1368    1.0105 C   0  0  0  0  0  0  0  0  0  0  0  0
    7.2762   12.6609   -0.3830 C   0  0  0  0  0  0  0  0  0  0  0  0
    6.6578   13.2321    1.8724 O   0  0  0  0  0  0  0  0  0  0  0  0
    8.1164   11.3523    1.5761 C   0  0  0  0  0  0  0  0  0  0  0  0
   -0.4850    8.2366    1.2658 C   0  0  0  0  0  0  0  0  0  0  0  0
    2.1116   -1.4638   -1.2208 H   0  0  0  0  0  0  0  0  0  0  0  0
   -0.6664   -0.9045    1.3920 H   0  0  0  0  0  0  0  0  0  0  0  0
    0.7015    5.8795    2.5569 H   0  0  0  0  0  0  0  0  0  0  0  0
    1.8233    7.8139   -0.7720 H   0  0  0  0  0  0  0  0  0  0  0  0
    2.4138    0.9709   -0.6980 H   0  0  0  0  0  0  0  0  0  0  0  0
    1.1996    0.6563   -1.9330 H   0  0  0  0  0  0  0  0  0  0  0  0
   -0.2847   -1.6272   -1.5615 H   0  0  0  0  0  0  0  0  0  0  0  0
    0.1322   -2.6161   -0.1663 H   0  0  0  0  0  0  0  0  0  0  0  0
    1.7493    2.6792    0.4949 H   0  0  0  0  0  0  0  0  0  0  0  0
   -1.1690    2.7234    1.4810 H   0  0  0  0  0  0  0  0  0  0  0  0
   -2.1217    2.3763   -0.5510 H   0  0  0  0  0  0  0  0  0  0  0  0
   -3.0838    0.8604   -0.1635 H   0  0  0  0  0  0  0  0  0  0  0  0
    1.5738   -0.6076    1.4350 H   0  0  0  0  0  0  0  0  0  0  0  0
   -2.4883   -1.2596   -0.7448 H   0  0  0  0  0  0  0  0  0  0  0  0
   -0.6809    7.7924   -1.0080 H   0  0  0  0  0  0  0  0  0  0  0  0
   -0.1404    6.2126   -1.3228 H   0  0  0  0  0  0  0  0  0  0  0  0
   -2.6116    6.9394    0.4837 H   0  0  0  0  0  0  0  0  0  0  0  0
   -2.4759    5.7918   -0.7844 H   0  0  0  0  0  0  0  0  0  0  0  0
   -2.1565    5.4107    2.1289 H   0  0  0  0  0  0  0  0  0  0  0  0
   -2.4185    4.2988    0.8143 H   0  0  0  0  0  0  0  0  0  0  0  0
    2.7083    4.8062    1.9390 H   0  0  0  0  0  0  0  0  0  0  0  0
    2.0555    4.4139    0.3819 H   0  0  0  0  0  0  0  0  0  0  0  0
    3.8287    6.4735    0.7059 H   0  0  0  0  0  0  0  0  0  0  0  0
    2.9881    5.8511   -0.6773 H   0  0  0  0  0  0  0  0  0  0  0  0
    6.4444   13.2401   -0.7999 H   0  0  0  0  0  0  0  0  0  0  0  0
    8.1427   13.3303   -0.3470 H   0  0  0  0  0  0  0  0  0  0  0  0
    7.4986   11.8410   -1.0756 H   0  0  0  0  0  0  0  0  0  0  0  0
    5.8880   13.6971    1.5032 H   0  0  0  0  0  0  0  0  0  0  0  0
    7.8961   10.9801    2.5829 H   0  0  0  0  0  0  0  0  0  0  0  0
    8.3649   10.4926    0.9428 H   0  0  0  0  0  0  0  0  0  0  0  0
    9.0042   11.9889    1.6593 H   0  0  0  0  0  0  0  0  0  0  0  0
   -1.3839    8.4732    0.6424 H   0  0  0  0  0  0  0  0  0  0  0  0
   -0.9754    8.0410    2.2184 H   0  0  0  0  0  0  0  0  0  0  0  0
    0.0129    9.1942    1.1395 H   0  0  0  0  0  0  0  0  0  0  0  0
  1  2  1  0  0  0  0
  1  6  1  0  0  0  0
  1 34  1  0  0  0  0
  1 35  1  0  0  0  0
  2  3  1  0  0  0  0
  2 11  1  0  0  0  0
  2 30  1  6  0  0  0
  3  4  1  0  0  0  0
  3 36  1  0  0  0  0
  3 37  1  0  0  0  0
  4  5  1  0  0  0  0
  4 12  1  0  0  0  0
  4 31  1  1  0  0  0
  5  6  1  0  0  0  0
  5 10  2  0  0  0  0
  6  7  2  0  0  0  0
  7  8  1  0  0  0  0
  7 38  1  0  0  0  0
  8 39  1  0  0  0  0
  8  9  2  0  0  0  0
  9 13  1  0  0  0  0
  9 17  1  0  0  0  0
 10 40  1  0  0  0  0
 10 41  1  0  0  0  0
 11 42  1  0  0  0  0
 12 43  1  0  0  0  0
 13 14  1  0  0  0  0
 13 18  1  0  0  0  0
 13 32  1  6  0  0  0
 14 15  1  0  0  0  0
 14 20  1  0  0  0  0
 14 29  1  1  0  0  0
 15 16  1  0  0  0  0
 15 44  1  0  0  0  0
 15 45  1  0  0  0  0
 16 17  1  0  0  0  0
 16 46  1  0  0  0  0
 16 47  1  0  0  0  0
 17 48  1  0  0  0  0
 17 49  1  0  0  0  0
 18 19  1  0  0  0  0
 18 50  1  0  0  0  0
 18 51  1  0  0  0  0
 19 20  1  0  0  0  0
 19 52  1  0  0  0  0
 19 53  1  0  0  0  0
 20 21  1  0  0  0  0
 20 33  1  6  0  0  0
 21 22  3  0  0  0  0
 22 23  1  0  0  0  0
 23 24  3  0  0  0  0
 24 25  1  0  0  0  0
 25 26  1  0  0  0  0
 25 27  1  0  0  0  0
 25 28  1  0  0  0  0
 26 54  1  0  0  0  0
 26 55  1  0  0  0  0
 26 56  1  0  0  0  0
 27 57  1  0  0  0  0
 28 58  1  0  0  0  0
 28 59  1  0  0  0  0
 28 60  1  0  0  0  0
 29 61  1  0  0  0  0
 29 62  1  0  0  0  0
 29 63  1  0  0  0  0
M  END
>  <DRUGBANK_ID>
DB08742

>  <COMMON_NAME>
1,3-CYCLOHEXANEDIOL, 4-METHYLENE-5-[(2E)-[(1S,3AS,7AS)-OCTAHYDRO-1-(5-HYDROXY-5-METHYL-1,3-HEXADIYNYL)-7A-METHYL-4H-INDEN-4-YLIDENE]ETHYLIDENE]-, (1R,3S,5Z)

$$$$
