
 OpenBabel10282417163D

198203  0  0  0  0  0  0  0  0999 V2000
    4.3807   16.8807  -12.6822 C   0  0  0  0  0  0  0  0  0  0  0  0
    2.4517    7.2769   -8.2999 C   0  0  0  0  0  0  0  0  0  0  0  0
    0.1312    4.7860   -7.0358 C   0  0  0  0  0  0  0  0  0  0  0  0
    6.4863   13.4286   -7.0538 C   0  0  0  0  0  0  0  0  0  0  0  0
    4.4280   10.6373   -7.6526 C   0  0  0  0  0  0  0  0  0  0  0  0
    6.2219   15.6959   -9.7678 C   0  0  0  0  0  0  0  0  0  0  0  0
    1.0752    5.7460   -6.9306 N   0  0  0  0  0  0  0  0  0  0  0  0
    2.2067    5.8253   -7.7599 C   0  0  1  0  0  0  0  0  0  0  0  0
    3.8414    8.0683   -8.5104 N   0  0  0  0  0  0  0  0  0  0  0  0
    5.7136   11.1669   -7.6923 N   0  0  0  0  0  0  0  0  0  0  0  0
    5.6787   14.2573   -7.8573 N   0  0  0  0  0  0  0  0  0  0  0  0
    5.6130   16.7517  -10.4574 N   0  0  0  0  0  0  0  0  0  0  0  0
    6.0867   12.0874   -6.5527 C   0  0  2  0  0  0  0  0  0  0  0  0
    4.0708    9.5328   -9.1465 C   0  0  1  0  0  0  0  0  0  0  0  0
    6.0761   15.6170   -8.2486 C   0  0  1  0  0  0  0  0  0  0  0  0
    5.7257   16.9500  -11.9269 C   0  0  1  0  0  0  0  0  0  0  0  0
    9.9184   17.5995  -14.5279 C   0  0  0  0  0  0  0  0  0  0  0  0
    5.0093   12.3944   -5.2218 C   0  0  0  0  0  0  0  0  0  0  0  0
   11.0824   17.7242  -13.9974 N   0  0  0  0  0  0  0  0  0  0  0  0
    3.8483   15.7791  -12.7330 O   0  0  0  0  0  0  0  0  0  0  0  0
    1.4153    7.4936   -8.9829 O   0  0  0  0  0  0  0  0  0  0  0  0
    6.9375   14.8357  -10.2845 O   0  0  0  0  0  0  0  0  0  0  0  0
   -0.8245    4.9881   -6.2904 O   0  0  0  0  0  0  0  0  0  0  0  0
    3.3865   11.1723   -6.6926 O   0  0  0  0  0  0  0  0  0  0  0  0
    7.5630   13.7320   -6.5359 O   0  0  0  0  0  0  0  0  0  0  0  0
    2.9024    9.7645  -10.5514 C   0  0  0  0  0  0  0  0  0  0  0  0
    7.4502   15.8751   -7.6520 C   0  0  0  0  0  0  0  0  0  0  0  0
    8.7844   17.4017  -13.8267 N   0  0  0  0  0  0  0  0  0  0  0  0
    9.8034   17.6812  -15.8626 N   0  0  0  0  0  0  0  0  0  0  0  0
    2.8101   11.1254  -11.0845 C   0  0  0  0  0  0  0  0  0  0  0  0
    2.3642   13.7581  -11.4907 C   0  0  0  0  0  0  0  0  0  0  0  0
    2.0053    4.7554   -9.2262 C   0  0  0  0  0  0  0  0  0  0  0  0
    1.7430   11.5147  -11.8683 C   0  0  0  0  0  0  0  0  0  0  0  0
    3.7375   12.0419  -10.6732 C   0  0  0  0  0  0  0  0  0  0  0  0
    1.5421   12.8480  -12.1258 C   0  0  0  0  0  0  0  0  0  0  0  0
    3.4966   13.3860  -10.8197 C   0  0  0  0  0  0  0  0  0  0  0  0
    1.9983   15.0572  -11.4515 O   0  0  0  0  0  0  0  0  0  0  0  0
    2.9025    4.9930  -10.9732 O   0  0  0  0  0  0  0  0  0  0  0  0
    6.6146   15.8426  -12.5378 C   0  0  0  0  0  0  0  0  0  0  0  0
    8.0646   17.1938   -7.9749 C   0  0  0  0  0  0  0  0  0  0  0  0
    7.4654   17.2373  -14.3831 C   0  0  0  0  0  0  0  0  0  0  0  0
    6.8235   15.9245  -14.0231 C   0  0  0  0  0  0  0  0  0  0  0  0
    7.1453   18.2816   -7.4667 C   0  0  0  0  0  0  0  0  0  0  0  0
    9.4232   17.2674   -7.2989 C   0  0  0  0  0  0  0  0  0  0  0  0
    4.3683   11.0996   -5.3678 C   0  0  0  0  0  0  0  0  0  0  0  0
    4.1035   12.5831   -6.7710 N   0  0  0  0  0  0  0  0  0  0  0  0
    2.3909   10.4733   -7.5690 N   0  0  0  0  0  0  0  0  0  0  0  0
    3.0558   12.1887   -7.9389 C   0  0  0  0  0  0  0  0  0  0  0  0
    3.3114    9.6966   -6.0879 C   0  0  0  0  0  0  0  0  0  0  0  0
    1.5994    9.6404   -8.3496 C   0  0  0  0  0  0  0  0  0  0  0  0
    0.6007   10.5232   -8.9017 C   0  0  0  0  0  0  0  0  0  0  0  0
    0.6425   11.9355   -8.7899 C   0  0  0  0  0  0  0  0  0  0  0  0
   -0.2203    9.9305   -9.8395 C   0  0  0  0  0  0  0  0  0  0  0  0
   -0.0798   12.7547   -9.5748 C   0  0  0  0  0  0  0  0  0  0  0  0
   -0.9230   10.7556  -10.6695 C   0  0  0  0  0  0  0  0  0  0  0  0
   -0.9223   12.1399  -10.4636 C   0  0  0  0  0  0  0  0  0  0  0  0
    0.1798    3.5562   -8.1418 C   0  0  2  0  0  0  0  0  0  0  0  0
   -1.1415    2.7178   -8.2496 C   0  0  0  0  0  0  0  0  0  0  0  0
    1.4200    2.5116   -8.2577 N   0  0  0  0  0  0  0  0  0  0  0  0
   -1.5766    1.5933   -6.8043 C   0  0  0  0  0  0  0  0  0  0  0  0
   -1.0104    0.4949   -5.4324 C   0  0  0  0  0  0  0  0  0  0  0  0
   -1.1903    2.5296   -5.8877 C   0  0  0  0  0  0  0  0  0  0  0  0
    0.3295    1.0315   -5.4813 C   0  0  0  0  0  0  0  0  0  0  0  0
    0.0178    1.9897   -6.3011 N   0  0  0  0  0  0  0  0  0  0  0  0
    1.6839    0.8403   -5.0521 C   0  0  0  0  0  0  0  0  0  0  0  0
    2.0194   -0.0221   -4.0717 C   0  0  0  0  0  0  0  0  0  0  0  0
    0.9200   -0.5992   -3.5519 C   0  0  0  0  0  0  0  0  0  0  0  0
   -0.4218   -0.3905   -4.2511 C   0  0  0  0  0  0  0  0  0  0  0  0
    2.6327    2.2839   -8.9606 C   0  0  0  0  0  0  0  0  0  0  0  0
    3.3616    1.4105   -8.4773 O   0  0  0  0  0  0  0  0  0  0  0  0
    3.2614    3.3769  -10.0513 C   0  0  1  0  0  0  0  0  0  0  0  0
    1.7423    3.3863  -11.1344 N   0  0  0  0  0  0  0  0  0  0  0  0
    3.8537    5.2778   -9.4893 C   0  0  0  0  0  0  0  0  0  0  0  0
    4.7379    5.3062   -8.4411 C   0  0  0  0  0  0  0  0  0  0  0  0
    5.4498    4.2096   -8.3335 N   0  0  0  0  0  0  0  0  0  0  0  0
    4.7631    6.0580   -7.3103 C   0  0  0  0  0  0  0  0  0  0  0  0
    6.1819    4.5035   -7.3037 C   0  0  0  0  0  0  0  0  0  0  0  0
    5.8002    5.6141   -6.6471 N   0  0  0  0  0  0  0  0  0  0  0  0
    0.9953    4.6516  -11.6410 C   0  0  0  0  0  0  0  0  0  0  0  0
   -0.1562    4.5261  -12.5191 C   0  0  1  0  0  0  0  0  0  0  0  0
    1.0746    5.8548  -11.2904 O   0  0  0  0  0  0  0  0  0  0  0  0
    0.0056    3.3848  -13.3119 N   0  0  0  0  0  0  0  0  0  0  0  0
   -1.4445    4.3533  -11.7495 C   0  0  0  0  0  0  0  0  0  0  0  0
   -1.1750    2.7063  -13.4016 C   0  0  0  0  0  0  0  0  0  0  0  0
   -2.2532    3.5215  -12.7200 C   0  0  0  0  0  0  0  0  0  0  0  0
   -1.3039    1.6356  -13.9589 O   0  0  0  0  0  0  0  0  0  0  0  0
    3.8714   17.9335  -13.4162 N   0  0  0  0  0  0  0  0  0  0  0  0
    2.5903   17.8554  -14.1540 C   0  0  1  0  0  0  0  0  0  0  0  0
    4.4998   19.2292  -13.6795 C   0  0  0  0  0  0  0  0  0  0  0  0
    2.9396   18.7434  -15.3233 C   0  0  0  0  0  0  0  0  0  0  0  0
    3.7763   19.8699  -14.8423 C   0  0  0  0  0  0  0  0  0  0  0  0
    1.9197   16.5149  -14.5863 C   0  0  0  0  0  0  0  0  0  0  0  0
    1.5062   15.7067  -13.7507 O   0  0  0  0  0  0  0  0  0  0  0  0
    1.6333   16.1791  -15.8697 N   0  0  0  0  0  0  0  0  0  0  0  0
    1.8330   16.8818  -17.1063 C   0  0  0  0  0  0  0  0  0  0  0  0
    2.8032   16.1920  -18.0099 C   0  0  0  0  0  0  0  0  0  0  0  0
    1.7364   -0.6335    0.3926 C   0  0  0  0  0  0  0  0  0  0  0  0
    0.8741    0.3902    1.7994 C   0  0  0  0  0  0  0  0  0  0  0  0
   -0.4150    1.2750    1.6792 O   0  0  0  0  0  0  0  0  0  0  0  0
    1.1438    0.2128    2.9824 O   0  0  0  0  0  0  0  0  0  0  0  0
   -0.0728    0.5666   -0.3928 C   0  0  0  0  0  0  0  0  0  0  0  0
    0.4927    2.0976   -0.3155 C   0  0  0  0  0  0  0  0  0  0  0  0
   -0.2968    2.6579   -1.2060 O   0  0  0  0  0  0  0  0  0  0  0  0
    1.2030    2.6662    0.5149 O   0  0  0  0  0  0  0  0  0  0  0  0
    1.0559    6.3754   -6.1283 H   0  0  0  0  0  0  0  0  0  0  0  0
    2.8575    5.3706   -7.0083 H   0  0  0  0  0  0  0  0  0  0  0  0
    4.6645    7.9702   -7.9083 H   0  0  0  0  0  0  0  0  0  0  0  0
    5.9786   11.4245   -8.6403 H   0  0  0  0  0  0  0  0  0  0  0  0
    4.7278   13.9971   -8.1117 H   0  0  0  0  0  0  0  0  0  0  0  0
    4.9865   17.3879   -9.9775 H   0  0  0  0  0  0  0  0  0  0  0  0
    6.8532   11.4544   -6.1241 H   0  0  0  0  0  0  0  0  0  0  0  0
    5.0346    9.5564   -9.6888 H   0  0  0  0  0  0  0  0  0  0  0  0
    5.3234   16.3300   -7.9032 H   0  0  0  0  0  0  0  0  0  0  0  0
    6.1636   17.9363  -12.0794 H   0  0  0  0  0  0  0  0  0  0  0  0
    5.4304   12.7222   -4.3032 H   0  0  0  0  0  0  0  0  0  0  0  0
    4.0521   13.1444   -5.1768 H   0  0  0  0  0  0  0  0  0  0  0  0
   11.0440   17.6470  -12.9800 H   0  0  0  0  0  0  0  0  0  0  0  0
    2.7400    8.9349  -11.2415 H   0  0  0  0  0  0  0  0  0  0  0  0
    1.8441    9.4948  -10.3880 H   0  0  0  0  0  0  0  0  0  0  0  0
    7.3571   15.8056   -6.5570 H   0  0  0  0  0  0  0  0  0  0  0  0
    8.1490   15.0984   -8.0123 H   0  0  0  0  0  0  0  0  0  0  0  0
    8.8560   17.3598  -12.8132 H   0  0  0  0  0  0  0  0  0  0  0  0
    8.9527   17.5771  -16.3823 H   0  0  0  0  0  0  0  0  0  0  0  0
   10.6430   17.8010  -16.4065 H   0  0  0  0  0  0  0  0  0  0  0  0
    2.5503    4.0931   -8.4441 H   0  0  0  0  0  0  0  0  0  0  0  0
    1.0841    4.9331   -9.6083 H   0  0  0  0  0  0  0  0  0  0  0  0
    0.9800   10.7846  -12.1022 H   0  0  0  0  0  0  0  0  0  0  0  0
    4.4857   11.7201   -9.9727 H   0  0  0  0  0  0  0  0  0  0  0  0
    0.6471   13.1545  -12.6478 H   0  0  0  0  0  0  0  0  0  0  0  0
    4.0953   14.1067  -10.2817 H   0  0  0  0  0  0  0  0  0  0  0  0
    1.8099   15.2198  -12.4078 H   0  0  0  0  0  0  0  0  0  0  0  0
    3.7947    5.4589  -11.1750 H   0  0  0  0  0  0  0  0  0  0  0  0
    7.6006   15.8882  -12.0635 H   0  0  0  0  0  0  0  0  0  0  0  0
    6.1830   14.8501  -12.3354 H   0  0  0  0  0  0  0  0  0  0  0  0
    8.1980   17.2596   -9.0571 H   0  0  0  0  0  0  0  0  0  0  0  0
    7.4219   17.3387  -15.4604 H   0  0  0  0  0  0  0  0  0  0  0  0
    6.8830   18.0515  -14.0040 H   0  0  0  0  0  0  0  0  0  0  0  0
    7.4497   15.0893  -14.3488 H   0  0  0  0  0  0  0  0  0  0  0  0
    5.8546   15.8164  -14.5238 H   0  0  0  0  0  0  0  0  0  0  0  0
    7.0019   18.1885   -6.3833 H   0  0  0  0  0  0  0  0  0  0  0  0
    7.5670   19.2543   -7.7009 H   0  0  0  0  0  0  0  0  0  0  0  0
    6.1609   18.2240   -7.9372 H   0  0  0  0  0  0  0  0  0  0  0  0
   10.0819   16.4630   -7.6467 H   0  0  0  0  0  0  0  0  0  0  0  0
    9.8857   18.2258   -7.5326 H   0  0  0  0  0  0  0  0  0  0  0  0
    9.3272   17.1756   -6.2104 H   0  0  0  0  0  0  0  0  0  0  0  0
    3.1345   12.7331   -8.8321 H   0  0  0  0  0  0  0  0  0  0  0  0
    2.7618    8.8298   -5.7619 H   0  0  0  0  0  0  0  0  0  0  0  0
    2.2588    9.0817   -8.9695 H   0  0  0  0  0  0  0  0  0  0  0  0
    1.4657    8.9438   -7.5670 H   0  0  0  0  0  0  0  0  0  0  0  0
    1.2906   12.5732   -8.2222 H   0  0  0  0  0  0  0  0  0  0  0  0
   -0.0568    8.8991  -10.1665 H   0  0  0  0  0  0  0  0  0  0  0  0
    0.1869   13.8138   -9.5718 H   0  0  0  0  0  0  0  0  0  0  0  0
   -1.2238   10.3380  -11.6270 H   0  0  0  0  0  0  0  0  0  0  0  0
   -1.4642   12.7700  -11.1336 H   0  0  0  0  0  0  0  0  0  0  0  0
    0.0110    4.0547   -9.0720 H   0  0  0  0  0  0  0  0  0  0  0  0
   -1.8220    3.5380   -8.6513 H   0  0  0  0  0  0  0  0  0  0  0  0
   -0.9796    2.0855   -9.1232 H   0  0  0  0  0  0  0  0  0  0  0  0
    1.7254    2.2720   -7.3238 H   0  0  0  0  0  0  0  0  0  0  0  0
   -1.6462    2.7035   -4.9229 H   0  0  0  0  0  0  0  0  0  0  0  0
    0.2457    1.6120   -7.2464 H   0  0  0  0  0  0  0  0  0  0  0  0
    2.4624    1.4338   -5.5187 H   0  0  0  0  0  0  0  0  0  0  0  0
    3.0515   -0.1770   -3.7675 H   0  0  0  0  0  0  0  0  0  0  0  0
    1.1121   -1.2413   -2.6818 H   0  0  0  0  0  0  0  0  0  0  0  0
   -1.1210   -1.0767   -3.7265 H   0  0  0  0  0  0  0  0  0  0  0  0
    4.0429    2.9365  -10.6626 H   0  0  0  0  0  0  0  0  0  0  0  0
    1.5165    2.5192  -11.5856 H   0  0  0  0  0  0  0  0  0  0  0  0
    3.4258    6.3882  -10.1061 H   0  0  0  0  0  0  0  0  0  0  0  0
    2.8276    6.0628   -9.5366 H   0  0  0  0  0  0  0  0  0  0  0  0
    4.1152    6.7818   -6.8355 H   0  0  0  0  0  0  0  0  0  0  0  0
    7.0309    3.9476   -7.0276 H   0  0  0  0  0  0  0  0  0  0  0  0
    6.0909    6.1147   -5.8325 H   0  0  0  0  0  0  0  0  0  0  0  0
   -0.1609    5.4488  -13.1157 H   0  0  0  0  0  0  0  0  0  0  0  0
    0.8908    3.0949  -13.7048 H   0  0  0  0  0  0  0  0  0  0  0  0
   -1.9261    5.2946  -11.4485 H   0  0  0  0  0  0  0  0  0  0  0  0
   -1.2851    3.7749  -10.8396 H   0  0  0  0  0  0  0  0  0  0  0  0
   -2.7608    4.1545  -13.4532 H   0  0  0  0  0  0  0  0  0  0  0  0
   -2.9620    2.8806  -12.1991 H   0  0  0  0  0  0  0  0  0  0  0  0
    1.8214   18.3687  -13.5575 H   0  0  0  0  0  0  0  0  0  0  0  0
    5.5295   19.1202  -13.9630 H   0  0  0  0  0  0  0  0  0  0  0  0
    4.4375   19.8555  -12.7969 H   0  0  0  0  0  0  0  0  0  0  0  0
    3.6337   18.1723  -15.9624 H   0  0  0  0  0  0  0  0  0  0  0  0
    2.0444   19.1346  -15.8212 H   0  0  0  0  0  0  0  0  0  0  0  0
    4.4403   20.2004  -15.6550 H   0  0  0  0  0  0  0  0  0  0  0  0
    3.1398   20.7021  -14.5516 H   0  0  0  0  0  0  0  0  0  0  0  0
    1.1446   15.2898  -15.9249 H   0  0  0  0  0  0  0  0  0  0  0  0
    0.8754   17.1856  -17.5218 H   0  0  0  0  0  0  0  0  0  0  0  0
    2.2900   17.8273  -17.0086 H   0  0  0  0  0  0  0  0  0  0  0  0
    2.3211   15.3111  -18.4175 H   0  0  0  0  0  0  0  0  0  0  0  0
    3.0832   16.8862  -18.8092 H   0  0  0  0  0  0  0  0  0  0  0  0
    3.7246   15.9123  -17.4801 H   0  0  0  0  0  0  0  0  0  0  0  0
    1.8047   -0.2718   -0.7702 H   0  0  0  0  0  0  0  0  0  0  0  0
    1.1869   -1.5642    0.1355 H   0  0  0  0  0  0  0  0  0  0  0  0
    2.8211   -0.5878    0.3336 H   0  0  0  0  0  0  0  0  0  0  0  0
   -0.8314    1.9100    0.9866 H   0  0  0  0  0  0  0  0  0  0  0  0
   -0.0520   -0.1131   -1.2347 H   0  0  0  0  0  0  0  0  0  0  0  0
   -0.3868   -0.2397    0.4080 H   0  0  0  0  0  0  0  0  0  0  0  0
    0.9686    0.8048   -0.1889 H   0  0  0  0  0  0  0  0  0  0  0  0
   -0.6445    1.8797   -1.6927 H   0  0  0  0  0  0  0  0  0  0  0  0
  1 87  1  0  0  0  0
  7  3  1  0  0  0  0
  7105  1  0  0  0  0
  8  2  1  0  0  0  0
  8  7  1  0  0  0  0
  8 32  1  0  0  0  0
  8106  1  1  0  0  0
  9  2  1  0  0  0  0
  9107  1  0  0  0  0
 10  5  1  0  0  0  0
 10108  1  0  0  0  0
 11  4  1  0  0  0  0
 11109  1  0  0  0  0
 12  6  1  0  0  0  0
 12110  1  0  0  0  0
 13 18  1  0  0  0  0
 13111  1  1  0  0  0
 13 10  1  0  0  0  0
 13  4  1  0  0  0  0
 14  5  1  0  0  0  0
 14  9  1  0  0  0  0
 14 26  1  0  0  0  0
 14112  1  6  0  0  0
 15  6  1  0  0  0  0
 15 11  1  0  0  0  0
 15 27  1  0  0  0  0
 15113  1  1  0  0  0
 16  1  1  0  0  0  0
 16 12  1  0  0  0  0
 16 39  1  0  0  0  0
 16114  1  6  0  0  0
 18 45  1  0  0  0  0
 18115  1  0  0  0  0
 18116  1  0  0  0  0
 19 17  2  0  0  0  0
 19117  1  0  0  0  0
 20  1  2  0  0  0  0
 21  2  2  0  0  0  0
 22  6  2  0  0  0  0
 23  3  2  0  0  0  0
 24  5  2  0  0  0  0
 25  4  2  0  0  0  0
 26118  1  0  0  0  0
 26119  1  0  0  0  0
 27120  1  0  0  0  0
 27121  1  0  0  0  0
 28 17  1  0  0  0  0
 28122  1  0  0  0  0
 29 17  1  0  0  0  0
 29123  1  0  0  0  0
 29124  1  0  0  0  0
 30 26  1  0  0  0  0
 32125  1  0  0  0  0
 32126  1  0  0  0  0
 33 30  1  0  0  0  0
 33127  1  0  0  0  0
 34 30  2  0  0  0  0
 34128  1  0  0  0  0
 35 31  1  0  0  0  0
 35 33  2  0  0  0  0
 35129  1  0  0  0  0
 36 31  2  0  0  0  0
 36 34  1  0  0  0  0
 36130  1  0  0  0  0
 37 31  1  0  0  0  0
 37131  1  0  0  0  0
 38 32  1  0  0  0  0
 38132  1  0  0  0  0
 39133  1  0  0  0  0
 39134  1  0  0  0  0
 40 27  1  0  0  0  0
 40135  1  0  0  0  0
 41 28  1  0  0  0  0
 41136  1  0  0  0  0
 41137  1  0  0  0  0
 42 39  1  0  0  0  0
 42 41  1  0  0  0  0
 42138  1  0  0  0  0
 42139  1  0  0  0  0
 43 40  1  0  0  0  0
 43140  1  0  0  0  0
 43141  1  0  0  0  0
 43142  1  0  0  0  0
 44 40  1  0  0  0  0
 44143  1  0  0  0  0
 44144  1  0  0  0  0
 44145  1  0  0  0  0
 45 46  1  0  0  0  0
 48 46  2  0  0  0  0
 48 47  1  0  0  0  0
 48146  1  0  0  0  0
 49 47  1  0  0  0  0
 49 45  2  0  0  0  0
 49147  1  0  0  0  0
 50 47  1  0  0  0  0
 50148  1  0  0  0  0
 50149  1  0  0  0  0
 51 50  1  0  0  0  0
 52 51  1  0  0  0  0
 52150  1  0  0  0  0
 53 51  2  0  0  0  0
 53151  1  0  0  0  0
 54 52  2  0  0  0  0
 54152  1  0  0  0  0
 55 53  1  0  0  0  0
 55153  1  0  0  0  0
 56 54  1  0  0  0  0
 56 55  2  0  0  0  0
 56154  1  0  0  0  0
 57 59  1  0  0  0  0
 57155  1  6  0  0  0
 57 58  1  0  0  0  0
 57  3  1  0  0  0  0
 58 60  1  0  0  0  0
 58156  1  0  0  0  0
 58157  1  0  0  0  0
 59 69  1  0  0  0  0
 59158  1  0  0  0  0
 61 60  1  0  0  0  0
 61 63  2  0  0  0  0
 62 60  2  0  0  0  0
 62159  1  0  0  0  0
 63 65  1  0  0  0  0
 64 62  1  0  0  0  0
 64 63  1  0  0  0  0
 64160  1  0  0  0  0
 65161  1  0  0  0  0
 66 65  2  0  0  0  0
 66162  1  0  0  0  0
 67 66  1  0  0  0  0
 67163  1  0  0  0  0
 68 61  1  0  0  0  0
 68 67  2  0  0  0  0
 68164  1  0  0  0  0
 69 70  2  0  0  0  0
 69 71  1  0  0  0  0
 71 72  1  0  0  0  0
 71 73  1  0  0  0  0
 71165  1  6  0  0  0
 72 79  1  0  0  0  0
 72166  1  0  0  0  0
 73 74  1  0  0  0  0
 73167  1  0  0  0  0
 73168  1  0  0  0  0
 75 74  1  0  0  0  0
 76 74  2  0  0  0  0
 76169  1  0  0  0  0
 77 75  2  0  0  0  0
 77170  1  0  0  0  0
 78 76  1  0  0  0  0
 78 77  1  0  0  0  0
 78171  1  0  0  0  0
 79 80  1  0  0  0  0
 79 81  2  0  0  0  0
 80 83  1  0  0  0  0
 80172  1  6  0  0  0
 82 80  1  0  0  0  0
 82173  1  0  0  0  0
 83174  1  0  0  0  0
 83175  1  0  0  0  0
 84 82  1  0  0  0  0
 84 86  2  0  0  0  0
 85 83  1  0  0  0  0
 85 84  1  0  0  0  0
 85176  1  0  0  0  0
 85177  1  0  0  0  0
 88 87  1  0  0  0  0
 88178  1  1  0  0  0
 88 92  1  0  0  0  0
 89 87  1  0  0  0  0
 89179  1  0  0  0  0
 89180  1  0  0  0  0
 90 88  1  0  0  0  0
 90181  1  0  0  0  0
 90182  1  0  0  0  0
 91 89  1  0  0  0  0
 91 90  1  0  0  0  0
 91183  1  0  0  0  0
 91184  1  0  0  0  0
 93 92  2  0  0  0  0
 94 92  1  0  0  0  0
 94 95  1  0  0  0  0
 94185  1  0  0  0  0
 95 96  1  0  0  0  0
 95186  1  0  0  0  0
 95187  1  0  0  0  0
 96188  1  0  0  0  0
 96189  1  0  0  0  0
 96190  1  0  0  0  0
 97 98  1  0  0  0  0
 97191  1  0  0  0  0
 97192  1  0  0  0  0
 97193  1  0  0  0  0
 98 99  1  0  0  0  0
 98100  2  0  0  0  0
 99194  1  0  0  0  0
101102  1  0  0  0  0
101195  1  0  0  0  0
101196  1  0  0  0  0
101197  1  0  0  0  0
102103  1  0  0  0  0
102104  2  0  0  0  0
103198  1  0  0  0  0
M  END
>  <DRUGBANK_ID>
DB06788

>  <COMMON_NAME>
Histrelin

>  <CAS_NUMBER>
76712-82-8

>  <UNII>
H50H3S3W74

>  <SYNONYMS>
[(im-Bzl)-D-His6,Pro9-NEt]-gonadotropin releasing hormone; 5-oxo-L-prolyl-L-histidyl-L-tryptophyl-L-seryl-L-tyrosyl-1-benzyl-D-histidyl-L-leucyl-L-arginyl-N-ethyl-L-prolinamide; 5-oxo-L-prolyl-L-histidyl-L-tryptophyl-L-seryl-L-tyrosyl-Nτ-benzyl-D-histidyl-L-leucyl-L-arginyl-N-ethyl-L-prolinamide	; Histrelin; histrelina; histreline; histrelinum; L-pyroglutamyl-L-histidyl-L-tryptophyl-L-seryl-L-tyrosyl-D-Nim-benzyl-histidyl-L-leucyl-L-arginyl-L-proline ethylamide

$$$$
