
 OpenBabel10282417163D

 37 38  0  0  0  0  0  0  0  0999 V2000
    0.8700   -0.0635   -0.0574 C   0  0  1  0  0  0  0  0  0  0  0  0
    0.2829    1.3603   -0.3226 C   0  0  0  0  0  0  0  0  0  0  0  0
    1.9609    2.3196   -2.0764 C   0  0  0  0  0  0  0  0  0  0  0  0
    1.3379    0.4665   -4.4503 C   0  0  0  0  0  0  0  0  0  0  0  0
    2.2341   -0.4527   -4.9573 C   0  0  0  0  0  0  0  0  0  0  0  0
    2.2826   -1.7208   -4.3919 C   0  0  0  0  0  0  0  0  0  0  0  0
    1.6188   -1.9820   -3.1929 C   0  0  0  0  0  0  0  0  0  0  0  0
   -2.2445   -2.2563    3.0923 C   0  0  0  0  0  0  0  0  0  0  0  0
   -4.0737   -3.8751    3.0874 C   0  0  0  0  0  0  0  0  0  0  0  0
   -4.1440   -2.8465    3.9909 N   0  0  0  0  0  0  0  0  0  0  0  0
   -3.0977   -1.9430    4.0212 N   0  0  0  0  0  0  0  0  0  0  0  0
   -2.5847   -3.7303    2.2069 S   0  0  0  0  0  0  0  0  0  0  0  0
   -5.2221   -5.0577    2.9124 S   0  0  0  0  0  0  0  0  0  0  0  0
   -1.0818   -1.5482    2.8393 N   0  0  0  0  0  0  0  0  0  0  0  0
   -0.7672   -1.2115    1.5366 C   0  0  0  0  0  0  0  0  0  0  0  0
   -1.4867   -1.5436    0.6161 O   0  0  0  0  0  0  0  0  0  0  0  0
    0.4364   -0.5393    1.3390 N   0  0  0  0  0  0  0  0  0  0  0  0
   -0.7669    1.7130    0.2312 O   0  0  0  0  0  0  0  0  0  0  0  0
    0.8196    2.2892   -1.1745 N   0  0  0  0  0  0  0  0  0  0  0  0
    0.4382   -1.1077   -1.1415 C   0  0  0  0  0  0  0  0  0  0  0  0
    0.9097   -0.9682   -2.5596 C   0  0  0  0  0  0  0  0  0  0  0  0
    0.5944    0.1555   -3.3117 C   0  0  0  0  0  0  0  0  0  0  0  0
    1.9653    0.0187   -0.0114 H   0  0  0  0  0  0  0  0  0  0  0  0
    1.5271    2.4523   -3.0687 H   0  0  0  0  0  0  0  0  0  0  0  0
    2.5588    3.2269   -1.9741 H   0  0  0  0  0  0  0  0  0  0  0  0
    2.5784    1.4236   -2.0079 H   0  0  0  0  0  0  0  0  0  0  0  0
    1.2801    1.4580   -4.8934 H   0  0  0  0  0  0  0  0  0  0  0  0
    2.8474   -0.1853   -5.8105 H   0  0  0  0  0  0  0  0  0  0  0  0
    2.8606   -2.5013   -4.8717 H   0  0  0  0  0  0  0  0  0  0  0  0
    1.6534   -2.9763   -2.7555 H   0  0  0  0  0  0  0  0  0  0  0  0
   -4.9469   -2.7248    4.6021 H   0  0  0  0  0  0  0  0  0  0  0  0
   -0.8398   -0.8750    3.5452 H   0  0  0  0  0  0  0  0  0  0  0  0
    0.8231   -0.0202    2.1142 H   0  0  0  0  0  0  0  0  0  0  0  0
    0.1045    2.9701   -1.4083 H   0  0  0  0  0  0  0  0  0  0  0  0
    0.7496   -2.0936   -0.7649 H   0  0  0  0  0  0  0  0  0  0  0  0
   -0.6464   -1.1155   -1.2442 H   0  0  0  0  0  0  0  0  0  0  0  0
   -0.1374    0.8670   -2.9362 H   0  0  0  0  0  0  0  0  0  0  0  0
  1 20  1  0  0  0  0
  1 23  1  6  0  0  0
  1 17  1  0  0  0  0
  1  2  1  0  0  0  0
  2 18  2  0  0  0  0
  2 19  1  0  0  0  0
  3 19  1  0  0  0  0
  3 24  1  0  0  0  0
  3 25  1  0  0  0  0
  3 26  1  0  0  0  0
  4  5  2  0  0  0  0
  4 27  1  0  0  0  0
  5  6  1  0  0  0  0
  5 28  1  0  0  0  0
  6 29  1  0  0  0  0
  7  6  2  0  0  0  0
  7 21  1  0  0  0  0
  7 30  1  0  0  0  0
  8 11  2  0  0  0  0
  8 12  1  0  0  0  0
  8 14  1  0  0  0  0
  9 10  1  0  0  0  0
  9 12  1  0  0  0  0
  9 13  2  0  0  0  0
 10 11  1  0  0  0  0
 10 31  1  0  0  0  0
 14 32  1  0  0  0  0
 15 14  1  0  0  0  0
 15 16  2  0  0  0  0
 15 17  1  0  0  0  0
 17 33  1  0  0  0  0
 19 34  1  0  0  0  0
 20 21  1  0  0  0  0
 20 35  1  0  0  0  0
 20 36  1  0  0  0  0
 21 22  2  0  0  0  0
 22  4  1  0  0  0  0
 22 37  1  0  0  0  0
M  END
>  <DRUGBANK_ID>
DB07390

>  <COMMON_NAME>
2-[3-(5-Mercapto-[1,3,4]thiadiazol-2-yl)-ureido]-N-methyl-3-phenyl-propionamide

$$$$
