
 OpenBabel10282417203D

 80 83  0  0  0  0  0  0  0  0999 V2000
   -2.0574    6.4746   -7.2586 C   0  0  1  0  0  0  0  0  0  0  0  0
   -2.4452    5.2749   -6.2849 C   0  0  0  0  0  0  0  0  0  0  0  0
    1.0049    4.6869   -9.5809 C   0  0  0  0  0  0  0  0  0  0  0  0
   -0.0855    5.2270   -8.8703 C   0  0  0  0  0  0  0  0  0  0  0  0
   -0.8125    5.7442   -4.1694 C   0  0  0  0  0  0  0  0  0  0  0  0
    0.4886    5.7726  -10.2900 C   0  0  3  0  0  0  0  0  0  0  0  0
   -0.1228    9.9714  -10.2505 O   0  0  0  0  0  0  0  0  0  0  0  0
   -0.7479    9.1491   -9.5938 C   0  0  0  0  0  0  0  0  0  0  0  0
   -2.9942    6.2932   -5.4322 O   0  0  0  0  0  0  0  0  0  0  0  0
   -3.3032    5.2629   -3.9961 C   0  0  0  0  0  0  0  0  0  0  0  0
   -0.3653    4.9670   -6.4580 C   0  0  2  0  0  0  0  0  0  0  0  0
   -0.3289    3.5873   -6.0775 O   0  0  0  0  0  0  0  0  0  0  0  0
   -0.4865    1.2472   -2.0225 C   0  0  2  0  0  0  0  0  0  0  0  0
   -0.5564   -0.0592   -2.5841 O   0  0  0  0  0  0  0  0  0  0  0  0
   -3.6579    3.6726   -4.0803 C   0  0  0  0  0  0  0  0  0  0  0  0
   -2.2466    2.3997   -4.0429 S   0  0  0  0  0  0  0  0  0  0  0  0
   -0.0079    2.3057    1.5837 N   0  0  0  0  0  0  0  0  0  0  0  0
   -0.1960    2.4607    0.1562 C   0  0  1  0  0  0  0  0  0  0  0  0
   -0.4225    6.9736   -8.8003 C   0  0  2  0  0  0  0  0  0  0  0  0
    0.2647    5.0791   -3.8223 C   0  0  0  0  0  0  0  0  0  0  0  0
   -1.5447    6.4163   -9.0443 C   0  0  2  0  0  0  0  0  0  0  0  0
   -1.1314    5.8672   -5.5857 C   0  0  1  0  0  0  0  0  0  0  0  0
    2.0319    5.2262  -11.1291 C   0  0  0  0  0  0  0  0  0  0  0  0
   -1.1456    4.7906   -7.9178 C   0  0  1  0  0  0  0  0  0  0  0  0
   -0.2617    1.0999   -0.5058 C   0  0  0  0  0  0  0  0  0  0  0  0
   -1.7275    3.3336   -1.5249 C   0  0  0  0  0  0  0  0  0  0  0  0
   -1.8030    2.0255   -2.2586 C   0  0  2  0  0  0  0  0  0  0  0  0
   -1.2114    7.6053   -9.8901 C   0  0  1  0  0  0  0  0  0  0  0  0
   -1.4851    3.2030   -0.0515 C   0  0  0  0  0  0  0  0  0  0  0  0
   -1.8176    8.1866   -8.1804 C   0  0  0  0  0  0  0  0  0  0  0  0
   -1.0861    9.4644   -8.2578 C   0  0  0  0  0  0  0  0  0  0  0  0
   -1.5791    7.3359  -10.8672 H   0  0  0  0  0  0  0  0  0  0  0  0
   -1.1086    7.5362   -5.4103 C   0  0  0  0  0  0  0  0  0  0  0  0
   -0.6174    3.2922   -8.5270 C   0  0  0  0  0  0  0  0  0  0  0  0
    0.5976    7.5181  -10.5461 C   0  0  0  0  0  0  0  0  0  0  0  0
   -3.2622    5.6446   -2.7912 O   0  0  0  0  0  0  0  0  0  0  0  0
   -2.9904    7.2168   -6.9926 H   0  0  0  0  0  0  0  0  0  0  0  0
   -2.6002    4.2054   -6.0917 H   0  0  0  0  0  0  0  0  0  0  0  0
   -3.4077    5.2873   -6.9557 H   0  0  0  0  0  0  0  0  0  0  0  0
    0.8412    3.7558  -10.0916 H   0  0  0  0  0  0  0  0  0  0  0  0
    1.9295    4.4914   -9.0109 H   0  0  0  0  0  0  0  0  0  0  0  0
   -1.2066    5.0305   -9.6042 H   0  0  0  0  0  0  0  0  0  0  0  0
    0.5795    5.7346   -8.0274 H   0  0  0  0  0  0  0  0  0  0  0  0
   -1.3947    6.3536   -3.4745 H   0  0  0  0  0  0  0  0  0  0  0  0
   -0.2389    5.4382  -11.1283 H   0  0  0  0  0  0  0  0  0  0  0  0
    0.6316    5.4053   -6.3605 H   0  0  0  0  0  0  0  0  0  0  0  0
   -1.0610    3.3587   -5.4814 H   0  0  0  0  0  0  0  0  0  0  0  0
    0.3655    1.7819   -2.4609 H   0  0  0  0  0  0  0  0  0  0  0  0
   -1.3186   -0.5130   -2.1840 H   0  0  0  0  0  0  0  0  0  0  0  0
   -4.4697    3.2491   -3.4263 H   0  0  0  0  0  0  0  0  0  0  0  0
   -4.1433    3.6712   -5.0320 H   0  0  0  0  0  0  0  0  0  0  0  0
   -0.3463    3.1353    2.0696 H   0  0  0  0  0  0  0  0  0  0  0  0
    0.9866    2.2233    1.7749 H   0  0  0  0  0  0  0  0  0  0  0  0
    0.6097    3.0403   -0.3096 H   0  0  0  0  0  0  0  0  0  0  0  0
    0.5246    5.0573   -2.8028 H   0  0  0  0  0  0  0  0  0  0  0  0
    0.8439    4.5552   -4.5665 H   0  0  0  0  0  0  0  0  0  0  0  0
    2.0151    4.1031  -11.3684 H   0  0  0  0  0  0  0  0  0  0  0  0
    2.2610    5.6211  -12.1120 H   0  0  0  0  0  0  0  0  0  0  0  0
    2.9165    5.3170  -10.4706 H   0  0  0  0  0  0  0  0  0  0  0  0
   -2.1850    4.4674   -7.9846 H   0  0  0  0  0  0  0  0  0  0  0  0
   -1.0835    0.5161   -0.0616 H   0  0  0  0  0  0  0  0  0  0  0  0
    0.6676    0.5633   -0.3028 H   0  0  0  0  0  0  0  0  0  0  0  0
   -0.9630    3.9802   -1.9536 H   0  0  0  0  0  0  0  0  0  0  0  0
   -2.7096    3.7564   -1.5912 H   0  0  0  0  0  0  0  0  0  0  0  0
   -2.5763    1.3811   -1.8259 H   0  0  0  0  0  0  0  0  0  0  0  0
   -1.4285    4.1980    0.4046 H   0  0  0  0  0  0  0  0  0  0  0  0
   -2.3331    2.6678    0.3908 H   0  0  0  0  0  0  0  0  0  0  0  0
   -1.0016    7.9958   -7.4712 H   0  0  0  0  0  0  0  0  0  0  0  0
   -2.8973    8.2158   -8.1059 H   0  0  0  0  0  0  0  0  0  0  0  0
   -0.2283    9.5282   -7.5425 H   0  0  0  0  0  0  0  0  0  0  0  0
   -1.8867   10.1519   -8.1643 H   0  0  0  0  0  0  0  0  0  0  0  0
   -1.6312    8.0412   -6.1621 H   0  0  0  0  0  0  0  0  0  0  0  0
   -2.0257    8.0943   -5.0521 H   0  0  0  0  0  0  0  0  0  0  0  0
   -0.1566    7.8777   -5.7731 H   0  0  0  0  0  0  0  0  0  0  0  0
    0.2003    2.5750   -8.4985 H   0  0  0  0  0  0  0  0  0  0  0  0
   -0.7857    3.4806   -9.6812 H   0  0  0  0  0  0  0  0  0  0  0  0
    0.4120    3.6367   -8.0319 H   0  0  0  0  0  0  0  0  0  0  0  0
    0.0959    7.3242  -11.6540 H   0  0  0  0  0  0  0  0  0  0  0  0
    0.9512    8.5356  -10.8350 H   0  0  0  0  0  0  0  0  0  0  0  0
    1.6477    7.2097  -11.0037 H   0  0  0  0  0  0  0  0  0  0  0  0
  1 19  1  0  0  0  0
  1  2  1  0  0  0  0
  1  9  1  0  0  0  0
  1 37  1  6  0  0  0
  2 22  1  0  0  0  0
  2 38  1  0  0  0  0
  2 39  1  0  0  0  0
  3  4  1  0  0  0  0
  3  6  1  0  0  0  0
  3 40  1  0  0  0  0
  3 41  1  0  0  0  0
  4 42  1  0  0  0  0
  4 43  1  0  0  0  0
  5 20  2  0  0  0  0
  5 44  1  0  0  0  0
  6 23  1  0  0  0  0
  6 45  1  0  0  0  0
  7  8  2  0  0  0  0
  8 28  1  0  0  0  0
  8 31  1  0  0  0  0
  9 10  1  0  0  0  0
 10 15  1  0  0  0  0
 10 36  2  0  0  0  0
 11 24  1  0  0  0  0
 11 22  1  0  0  0  0
 11 46  1  6  0  0  0
 11 12  1  0  0  0  0
 12 47  1  0  0  0  0
 13 27  1  0  0  0  0
 13 25  1  0  0  0  0
 13 14  1  0  0  0  0
 13 48  1  6  0  0  0
 14 49  1  0  0  0  0
 15 16  1  0  0  0  0
 15 50  1  0  0  0  0
 15 51  1  0  0  0  0
 17 52  1  0  0  0  0
 17 53  1  0  0  0  0
 18 29  1  0  0  0  0
 18 25  1  0  0  0  0
 18 54  1  6  0  0  0
 18 17  1  0  0  0  0
 19  6  1  0  0  0  0
 19 28  1  0  0  0  0
 19 35  1  6  0  0  0
 20 55  1  0  0  0  0
 20 56  1  0  0  0  0
 21 30  1  1  0  0  0
 21  4  1  0  0  0  0
 21 24  1  0  0  0  0
 21 28  1  0  0  0  0
 22  5  1  1  0  0  0
 22 33  1  0  0  0  0
 23 57  1  0  0  0  0
 23 58  1  0  0  0  0
 23 59  1  0  0  0  0
 24 34  1  0  0  0  0
 24 60  1  1  0  0  0
 25 61  1  0  0  0  0
 25 62  1  0  0  0  0
 26 29  1  0  0  0  0
 26 27  1  0  0  0  0
 26 63  1  0  0  0  0
 26 64  1  0  0  0  0
 27 65  1  1  0  0  0
 27 16  1  0  0  0  0
 28 32  1  6  0  0  0
 29 66  1  0  0  0  0
 29 67  1  0  0  0  0
 30 31  1  0  0  0  0
 30 68  1  0  0  0  0
 30 69  1  0  0  0  0
 31 70  1  0  0  0  0
 31 71  1  0  0  0  0
 33 72  1  0  0  0  0
 33 73  1  0  0  0  0
 33 74  1  0  0  0  0
 34 75  1  0  0  0  0
 34 76  1  0  0  0  0
 34 77  1  0  0  0  0
 35 78  1  0  0  0  0
 35 79  1  0  0  0  0
 35 80  1  0  0  0  0
M  END
>  <DRUGBANK_ID>
DB12825

>  <SECONDARY_ACCESSION_NUMBERS>
DB12430

>  <COMMON_NAME>
Lefamulin

>  <CAS_NUMBER>
1061337-51-6

>  <UNII>
21904A5386

>  <SYNONYMS>
Lefamulin

$$$$
