
 OpenBabel10282417133D

 78 82  0  0  1  0  0  0  0  0999 V2000
    1.0635   -0.0214   -0.1228 S   0  0  0  0  0  0  0  0  0  0  0  0
   -6.0464   -3.3016    2.5600 S   0  0  0  0  0  0  0  0  0  0  0  0
    0.6554    0.6718    1.0704 O   0  0  0  0  0  0  0  0  0  0  0  0
    0.6307    0.4399   -1.4277 O   0  0  0  0  0  0  0  0  0  0  0  0
   -5.2652   -1.8576    2.6442 O   0  0  0  0  0  0  0  0  0  0  0  0
    1.4589   -4.8680    1.0774 O   0  0  0  0  0  0  0  0  0  0  0  0
   -0.6019   -4.2519    0.4909 O   0  0  0  0  0  0  0  0  0  0  0  0
   -5.7605   -3.9006    1.2685 O   0  0  0  0  0  0  0  0  0  0  0  0
   -5.7913   -4.0173    3.7990 O   0  0  0  0  0  0  0  0  0  0  0  0
    0.5742   -1.6355    0.0020 N   0  0  0  0  0  0  0  0  0  0  0  0
    7.1894    2.3769    0.0472 N   0  0  0  0  0  0  0  0  0  0  0  0
  -12.5057   -4.6158    2.6247 N   0  0  0  0  0  0  0  0  0  0  0  0
    0.9345   -2.4594    1.1967 C   0  0  1  0  0  0  0  0  0  0  0  0
    2.8382   -0.0518   -0.1324 C   0  0  0  0  0  0  0  0  0  0  0  0
    0.4104   -1.8465    2.4984 C   0  0  0  0  0  0  0  0  0  0  0  0
    3.5708    1.1661   -0.0236 C   0  0  0  0  0  0  0  0  0  0  0  0
    4.9985    1.1086    0.0411 C   0  0  0  0  0  0  0  0  0  0  0  0
   -1.0853   -1.7600    2.5713 C   0  0  0  0  0  0  0  0  0  0  0  0
    5.7874    2.3300    0.0457 C   0  0  0  0  0  0  0  0  0  0  0  0
    3.4737   -1.2945   -0.2103 C   0  0  0  0  0  0  0  0  0  0  0  0
    2.9399    2.4286   -0.0173 C   0  0  0  0  0  0  0  0  0  0  0  0
    5.5367   -0.2073    0.0873 C   0  0  0  0  0  0  0  0  0  0  0  0
   -8.7236   -4.0421    2.5805 C   0  0  0  0  0  0  0  0  0  0  0  0
  -10.1196   -3.7409    2.6160 C   0  0  0  0  0  0  0  0  0  0  0  0
    0.5047   -3.9221    0.8979 C   0  0  0  0  0  0  0  0  0  0  0  0
   -7.7810   -2.9592    2.5511 C   0  0  0  0  0  0  0  0  0  0  0  0
    4.8227   -1.3807   -0.0391 C   0  0  0  0  0  0  0  0  0  0  0  0
    5.0551    3.5413    0.0220 C   0  0  0  0  0  0  0  0  0  0  0  0
  -11.1151   -4.8110    2.6203 C   0  0  0  0  0  0  0  0  0  0  0  0
    3.6679    3.5997   -0.0016 C   0  0  0  0  0  0  0  0  0  0  0  0
   -1.7652   -2.9612    2.7066 C   0  0  0  0  0  0  0  0  0  0  0  0
   -1.8258   -0.5737    2.5092 C   0  0  0  0  0  0  0  0  0  0  0  0
   -3.8894   -1.8409    2.6410 C   0  0  0  0  0  0  0  0  0  0  0  0
   -3.1385   -3.0089    2.6667 C   0  0  0  0  0  0  0  0  0  0  0  0
   -3.2252   -0.6122    2.6169 C   0  0  0  0  0  0  0  0  0  0  0  0
   -8.3297   -5.4006    2.5677 C   0  0  0  0  0  0  0  0  0  0  0  0
  -10.4087   -2.3480    2.6415 C   0  0  0  0  0  0  0  0  0  0  0  0
   -8.1543   -1.6166    2.5219 C   0  0  0  0  0  0  0  0  0  0  0  0
  -10.6082   -6.1322    2.6036 C   0  0  0  0  0  0  0  0  0  0  0  0
   -9.4850   -1.3139    2.5703 C   0  0  0  0  0  0  0  0  0  0  0  0
   -9.2523   -6.4291    2.5770 C   0  0  0  0  0  0  0  0  0  0  0  0
    7.9662    3.6117    0.0201 C   0  0  0  0  0  0  0  0  0  0  0  0
    8.0473    1.2004    0.0460 C   0  0  0  0  0  0  0  0  0  0  0  0
  -13.4888   -5.6965    2.6110 C   0  0  0  0  0  0  0  0  0  0  0  0
  -13.1433   -3.3071    2.6266 C   0  0  0  0  0  0  0  0  0  0  0  0
   -0.4309   -1.7008   -0.2109 H   0  0  0  0  0  0  0  0  0  0  0  0
    2.3786   -4.5742    1.1985 H   0  0  0  0  0  0  0  0  0  0  0  0
    2.0150   -2.5108    1.3153 H   0  0  0  0  0  0  0  0  0  0  0  0
    0.7680   -2.4402    3.3470 H   0  0  0  0  0  0  0  0  0  0  0  0
    0.8615   -0.8659    2.6681 H   0  0  0  0  0  0  0  0  0  0  0  0
    2.9470   -2.2178   -0.4000 H   0  0  0  0  0  0  0  0  0  0  0  0
    1.8578    2.5425   -0.0491 H   0  0  0  0  0  0  0  0  0  0  0  0
    6.5790   -0.4218    0.1960 H   0  0  0  0  0  0  0  0  0  0  0  0
    5.3520   -2.3284   -0.0360 H   0  0  0  0  0  0  0  0  0  0  0  0
    5.5351    4.5112    0.0157 H   0  0  0  0  0  0  0  0  0  0  0  0
    3.1575    4.5598   -0.0271 H   0  0  0  0  0  0  0  0  0  0  0  0
   -1.2392   -3.9070    2.7884 H   0  0  0  0  0  0  0  0  0  0  0  0
   -1.3365    0.3921    2.3911 H   0  0  0  0  0  0  0  0  0  0  0  0
   -3.5655   -4.0047    2.6680 H   0  0  0  0  0  0  0  0  0  0  0  0
   -3.7744    0.3234    2.6848 H   0  0  0  0  0  0  0  0  0  0  0  0
   -7.2840   -5.7031    2.5431 H   0  0  0  0  0  0  0  0  0  0  0  0
  -11.4019   -1.9568    2.7232 H   0  0  0  0  0  0  0  0  0  0  0  0
   -7.4388   -0.8047    2.4709 H   0  0  0  0  0  0  0  0  0  0  0  0
  -11.2512   -7.0032    2.6067 H   0  0  0  0  0  0  0  0  0  0  0  0
   -9.8459   -0.2900    2.5613 H   0  0  0  0  0  0  0  0  0  0  0  0
   -8.9191   -7.4646    2.5570 H   0  0  0  0  0  0  0  0  0  0  0  0
    8.6094    3.6448    0.9061 H   0  0  0  0  0  0  0  0  0  0  0  0
    8.6053    3.6154   -0.8701 H   0  0  0  0  0  0  0  0  0  0  0  0
    7.4061    4.5421    0.0050 H   0  0  0  0  0  0  0  0  0  0  0  0
    7.9198    0.6452    0.9829 H   0  0  0  0  0  0  0  0  0  0  0  0
    7.8702    0.5946   -0.8513 H   0  0  0  0  0  0  0  0  0  0  0  0
    9.1138    1.4410    0.0155 H   0  0  0  0  0  0  0  0  0  0  0  0
  -14.1258   -5.6118    3.4988 H   0  0  0  0  0  0  0  0  0  0  0  0
  -14.1242   -5.5943    1.7237 H   0  0  0  0  0  0  0  0  0  0  0  0
  -13.1022   -6.7117    2.6006 H   0  0  0  0  0  0  0  0  0  0  0  0
  -12.9126   -2.7784    3.5588 H   0  0  0  0  0  0  0  0  0  0  0  0
  -12.8700   -2.7460    1.7250 H   0  0  0  0  0  0  0  0  0  0  0  0
  -14.2362   -3.3588    2.6022 H   0  0  0  0  0  0  0  0  0  0  0  0
  1  3  2  0  0  0  0
  1  4  2  0  0  0  0
  1 10  1  0  0  0  0
  1 14  1  0  0  0  0
  2  5  1  0  0  0  0
  2  8  2  0  0  0  0
  2  9  2  0  0  0  0
  2 26  1  0  0  0  0
  5 33  1  0  0  0  0
  6 25  1  0  0  0  0
  6 47  1  0  0  0  0
  7 25  2  0  0  0  0
 10 46  1  0  0  0  0
 11 19  1  0  0  0  0
 11 42  1  0  0  0  0
 11 43  1  0  0  0  0
 12 29  1  0  0  0  0
 12 44  1  0  0  0  0
 12 45  1  0  0  0  0
 13 10  1  0  0  0  0
 13 15  1  0  0  0  0
 13 25  1  0  0  0  0
 13 48  1  1  0  0  0
 14 16  1  0  0  0  0
 14 20  2  0  0  0  0
 15 18  1  0  0  0  0
 15 49  1  0  0  0  0
 15 50  1  0  0  0  0
 16 17  2  0  0  0  0
 16 21  1  0  0  0  0
 17 19  1  0  0  0  0
 17 22  1  0  0  0  0
 18 31  2  0  0  0  0
 18 32  1  0  0  0  0
 19 28  2  0  0  0  0
 20 27  1  0  0  0  0
 20 51  1  0  0  0  0
 21 30  2  0  0  0  0
 21 52  1  0  0  0  0
 22 27  2  0  0  0  0
 22 53  1  0  0  0  0
 23 24  2  0  0  0  0
 23 26  1  0  0  0  0
 23 36  1  0  0  0  0
 24 29  1  0  0  0  0
 24 37  1  0  0  0  0
 26 38  2  0  0  0  0
 27 54  1  0  0  0  0
 28 30  1  0  0  0  0
 28 55  1  0  0  0  0
 29 39  2  0  0  0  0
 30 56  1  0  0  0  0
 31 34  1  0  0  0  0
 31 57  1  0  0  0  0
 32 35  2  0  0  0  0
 32 58  1  0  0  0  0
 33 34  2  0  0  0  0
 33 35  1  0  0  0  0
 34 59  1  0  0  0  0
 35 60  1  0  0  0  0
 36 41  2  0  0  0  0
 36 61  1  0  0  0  0
 37 40  2  0  0  0  0
 37 62  1  0  0  0  0
 38 40  1  0  0  0  0
 38 63  1  0  0  0  0
 39 41  1  0  0  0  0
 39 64  1  0  0  0  0
 40 65  1  0  0  0  0
 41 66  1  0  0  0  0
 42 67  1  0  0  0  0
 42 68  1  0  0  0  0
 42 69  1  0  0  0  0
 43 70  1  0  0  0  0
 43 71  1  0  0  0  0
 43 72  1  0  0  0  0
 44 73  1  0  0  0  0
 44 74  1  0  0  0  0
 44 75  1  0  0  0  0
 45 76  1  0  0  0  0
 45 77  1  0  0  0  0
 45 78  1  0  0  0  0
M  END
>  <DRUGBANK_ID>
DB03157

>  <SECONDARY_ACCESSION_NUMBERS>
EXPT01150

>  <COMMON_NAME>
N,O-didansyl-L-tyrosine

$$$$
