
 OpenBabel10282417143D

 82 82  0  0  1  0  0  0  0  0999 V2000
   -0.6919    0.8279    0.9423 C   0  0  0  0  0  0  0  0  0  0  0  0
   -1.8508    1.7694    1.2266 C   0  0  1  0  0  0  0  0  0  0  0  0
   -1.4206    2.8020    2.1803 N   0  0  0  0  0  0  0  0  0  0  0  0
   -1.4699    4.2209    1.7991 C   0  0  0  0  0  0  0  0  0  0  0  0
   -1.0979    5.1136    2.6237 O   0  0  0  0  0  0  0  0  0  0  0  0
   -1.9576    4.7328    0.4536 C   0  0  2  0  0  0  0  0  0  0  0  0
   -1.7865    6.2419    0.3934 C   0  0  0  0  0  0  0  0  0  0  0  0
   -2.7392    6.8200   -0.6404 C   0  0  0  0  0  0  0  0  0  0  0  0
   -4.1702    6.4811   -0.2561 C   0  0  0  0  0  0  0  0  0  0  0  0
   -4.4825    7.0740    1.1082 C   0  0  0  0  0  0  0  0  0  0  0  0
   -4.3219    8.5342    1.0563 N   0  0  0  0  0  0  0  0  0  0  0  0
   -5.4636    9.4104    1.3557 C   0  0  0  0  0  0  0  0  0  0  0  0
   -5.3247   10.6729    1.3109 O   0  0  0  0  0  0  0  0  0  0  0  0
   -6.7217    8.8461    1.6952 O   0  0  0  0  0  0  0  0  0  0  0  0
   -7.8246    9.6924    1.9845 C   0  0  0  0  0  0  0  0  0  0  0  0
   -7.4862   10.5772    3.1732 C   0  0  0  0  0  0  0  0  0  0  0  0
   -7.6256   11.8927    3.0581 C   0  0  0  0  0  0  0  0  0  0  0  0
   -7.4685   12.7109    4.1507 C   0  0  0  0  0  0  0  0  0  0  0  0
   -7.0768   12.2038    5.3585 C   0  0  0  0  0  0  0  0  0  0  0  0
   -7.0209   10.8877    5.4527 C   0  0  0  0  0  0  0  0  0  0  0  0
   -7.0303   10.0030    4.3484 C   0  0  0  0  0  0  0  0  0  0  0  0
   -3.3781    4.3937    0.2860 N   0  0  0  0  0  0  0  0  0  0  0  0
   -3.8038    3.5459   -0.8369 C   0  0  0  0  0  0  0  0  0  0  0  0
   -5.0319    3.2527   -0.9819 O   0  0  0  0  0  0  0  0  0  0  0  0
   -2.7752    3.0200   -1.8247 C   0  0  0  0  0  0  0  0  0  0  0  0
   -2.0711    4.1892   -2.4937 C   0  0  0  0  0  0  0  0  0  0  0  0
   -1.3018    5.0075   -1.4694 C   0  0  2  0  0  0  0  0  0  0  0  0
   -2.2206    5.9340   -0.7924 N   0  0  0  0  0  0  0  0  0  0  0  0
   -3.6401    5.5535   -0.8252 C   0  0  0  0  0  0  0  0  0  0  0  0
   -4.5111    6.3007   -0.2792 O   0  0  0  0  0  0  0  0  0  0  0  0
   -4.0381    4.3509   -1.4670 O   0  0  0  0  0  0  0  0  0  0  0  0
   -5.4094    3.9833   -1.4987 C   0  0  0  0  0  0  0  0  0  0  0  0
   -5.9256    3.8293   -0.0773 C   0  0  0  0  0  0  0  0  0  0  0  0
   -6.2068    5.0622   -2.2132 C   0  0  0  0  0  0  0  0  0  0  0  0
   -5.5635    2.6650   -2.2394 C   0  0  0  0  0  0  0  0  0  0  0  0
   -0.2095    5.7988   -2.1702 C   0  0  0  0  0  0  0  0  0  0  0  0
    1.1512    5.5958   -1.8184 O   0  0  0  0  0  0  0  0  0  0  0  0
   -0.5140    6.6422   -3.0708 O   0  0  0  0  0  0  0  0  0  0  0  0
   -2.3201    2.4643   -0.1361 B   0  0  0  0  0  0  0  0  0  0  0  0
   -3.7244    2.2767   -0.6288 O   0  0  0  0  0  0  0  0  0  0  0  0
   -1.3557    3.3033   -0.9210 O   0  0  0  0  0  0  0  0  0  0  0  0
    0.1232    1.3814    0.5250 H   0  0  0  0  0  0  0  0  0  0  0  0
   -1.0050    0.0763    0.2481 H   0  0  0  0  0  0  0  0  0  0  0  0
   -0.3780    0.3632    1.8536 H   0  0  0  0  0  0  0  0  0  0  0  0
   -2.6659    1.2159    1.6438 H   0  0  0  0  0  0  0  0  0  0  0  0
   -1.0880    2.5340    3.1065 H   0  0  0  0  0  0  0  0  0  0  0  0
   -1.3875    4.2777   -0.3291 H   0  0  0  0  0  0  0  0  0  0  0  0
   -2.0063    6.6593    1.3538 H   0  0  0  0  0  0  0  0  0  0  0  0
   -0.7791    6.4806    0.1229 H   0  0  0  0  0  0  0  0  0  0  0  0
   -2.6222    7.8830   -0.6782 H   0  0  0  0  0  0  0  0  0  0  0  0
   -2.5193    6.4027   -1.6008 H   0  0  0  0  0  0  0  0  0  0  0  0
   -4.8408    6.8880   -0.9839 H   0  0  0  0  0  0  0  0  0  0  0  0
   -4.2871    5.4181   -0.2184 H   0  0  0  0  0  0  0  0  0  0  0  0
   -5.4899    6.8353    1.3787 H   0  0  0  0  0  0  0  0  0  0  0  0
   -3.8119    6.6670    1.8359 H   0  0  0  0  0  0  0  0  0  0  0  0
   -3.4182    8.9396    0.8124 H   0  0  0  0  0  0  0  0  0  0  0  0
   -8.0372   10.3048    1.1332 H   0  0  0  0  0  0  0  0  0  0  0  0
   -8.6813    9.0950    2.2169 H   0  0  0  0  0  0  0  0  0  0  0  0
   -7.8624   12.3194    2.1059 H   0  0  0  0  0  0  0  0  0  0  0  0
   -7.6555   13.7601    4.0549 H   0  0  0  0  0  0  0  0  0  0  0  0
   -6.8288   12.8391    6.1830 H   0  0  0  0  0  0  0  0  0  0  0  0
   -6.9647   10.4607    6.4322 H   0  0  0  0  0  0  0  0  0  0  0  0
   -6.7138    8.9831    4.4152 H   0  0  0  0  0  0  0  0  0  0  0  0
   -4.0684    4.7466    0.9489 H   0  0  0  0  0  0  0  0  0  0  0  0
   -2.0566    2.4204   -1.3061 H   0  0  0  0  0  0  0  0  0  0  0  0
   -3.2653    2.4263   -2.5679 H   0  0  0  0  0  0  0  0  0  0  0  0
   -1.3470    3.8190   -3.1890 H   0  0  0  0  0  0  0  0  0  0  0  0
   -2.7896    4.7888   -3.0124 H   0  0  0  0  0  0  0  0  0  0  0  0
   -0.8605    4.3520   -0.7480 H   0  0  0  0  0  0  0  0  0  0  0  0
   -1.9346    6.7978   -0.3314 H   0  0  0  0  0  0  0  0  0  0  0  0
   -5.8171    4.7573    0.4441 H   0  0  0  0  0  0  0  0  0  0  0  0
   -6.9588    3.5523   -0.1012 H   0  0  0  0  0  0  0  0  0  0  0  0
   -5.3642    3.0698    0.4256 H   0  0  0  0  0  0  0  0  0  0  0  0
   -5.8434    5.1707   -3.2137 H   0  0  0  0  0  0  0  0  0  0  0  0
   -7.2400    4.7852   -2.2370 H   0  0  0  0  0  0  0  0  0  0  0  0
   -6.0982    5.9902   -1.6917 H   0  0  0  0  0  0  0  0  0  0  0  0
   -5.2001    2.7735   -3.2399 H   0  0  0  0  0  0  0  0  0  0  0  0
   -5.0022    1.9055   -1.7364 H   0  0  0  0  0  0  0  0  0  0  0  0
   -6.5968    2.3880   -2.2633 H   0  0  0  0  0  0  0  0  0  0  0  0
    1.3908    4.9322   -1.1097 H   0  0  0  0  0  0  0  0  0  0  0  0
   -4.2268    1.6941    0.0102 H   0  0  0  0  0  0  0  0  0  0  0  0
   -1.8107    3.6581   -1.7378 H   0  0  0  0  0  0  0  0  0  0  0  0
  1 42  1  0  0  0  0
  1 43  1  0  0  0  0
  1 44  1  0  0  0  0
  2  1  1  0  0  0  0
  2  3  1  0  0  0  0
  2 39  1  0  0  0  0
  2 45  1  1  0  0  0
  3  4  1  0  0  0  0
  3 46  1  0  0  0  0
  4  5  2  0  0  0  0
  6 22  1  0  0  0  0
  6 47  1  6  0  0  0
  6  7  1  0  0  0  0
  6  4  1  0  0  0  0
  7  8  1  0  0  0  0
  7 48  1  0  0  0  0
  7 49  1  0  0  0  0
  8  9  1  0  0  0  0
  8 50  1  0  0  0  0
  8 51  1  0  0  0  0
  9 10  1  0  0  0  0
  9 52  1  0  0  0  0
  9 53  1  0  0  0  0
 10 11  1  0  0  0  0
 10 54  1  0  0  0  0
 10 55  1  0  0  0  0
 11 12  1  0  0  0  0
 11 56  1  0  0  0  0
 12 13  2  0  0  0  0
 12 14  1  0  0  0  0
 14 15  1  0  0  0  0
 15 16  1  0  0  0  0
 15 57  1  0  0  0  0
 15 58  1  0  0  0  0
 16 17  2  0  0  0  0
 16 21  1  0  0  0  0
 17 18  1  0  0  0  0
 17 59  1  0  0  0  0
 18 19  2  0  0  0  0
 18 60  1  0  0  0  0
 19 20  1  0  0  0  0
 19 61  1  0  0  0  0
 20 21  2  0  0  0  0
 20 62  1  0  0  0  0
 21 63  1  0  0  0  0
 22 23  1  0  0  0  0
 22 64  1  0  0  0  0
 23 24  2  0  0  0  0
 23 25  1  0  0  0  0
 25 26  1  0  0  0  0
 25 65  1  0  0  0  0
 25 66  1  0  0  0  0
 26 67  1  0  0  0  0
 26 68  1  0  0  0  0
 27 36  1  0  0  0  0
 27 69  1  1  0  0  0
 27 28  1  0  0  0  0
 27 26  1  0  0  0  0
 28 29  1  0  0  0  0
 28 70  1  0  0  0  0
 29 30  2  0  0  0  0
 29 31  1  0  0  0  0
 31 32  1  0  0  0  0
 32 33  1  0  0  0  0
 32 34  1  0  0  0  0
 32 35  1  0  0  0  0
 33 71  1  0  0  0  0
 33 72  1  0  0  0  0
 33 73  1  0  0  0  0
 34 74  1  0  0  0  0
 34 75  1  0  0  0  0
 34 76  1  0  0  0  0
 35 77  1  0  0  0  0
 35 78  1  0  0  0  0
 35 79  1  0  0  0  0
 36 37  1  0  0  0  0
 36 38  2  0  0  0  0
 37 80  1  0  0  0  0
 39 40  1  0  0  0  0
 39 41  1  0  0  0  0
 40 81  1  0  0  0  0
 41 82  1  0  0  0  0
M  END
>  <DRUGBANK_ID>
DB04647

>  <COMMON_NAME>
BOC-GAMMA-D-GLU-L-LYS(CBZ)-D-BOROALA

$$$$
