
 OpenBabel10282417203D

110115  0  0  1  0  0  0  0  0999 V2000
    0.9728   -0.0239    0.0116 C   0  0  0  0  0  0  0  0  0  0  0  0
    0.4410   -1.3643   -0.4735 C   0  0  0  0  0  0  0  0  0  0  0  0
   -0.3712   -1.9928    0.2033 O   0  0  0  0  0  0  0  0  0  0  0  0
    0.8110   -1.7447   -1.7528 N   0  0  0  0  0  0  0  0  0  0  0  0
    2.1806   -1.6592   -2.2670 C   0  0  0  0  0  0  0  0  0  0  0  0
    2.2014   -0.9935   -3.6509 C   0  0  0  0  0  0  0  0  0  0  0  0
    1.2762   -1.6872   -4.5511 N   0  0  0  0  0  0  0  0  0  0  0  0
   -0.1077   -1.7928   -4.0627 C   0  0  0  0  0  0  0  0  0  0  0  0
   -0.0991   -2.4749   -2.6591 C   0  0  0  0  0  0  0  0  0  0  0  0
    1.6723   -2.1408   -5.7864 C   0  0  0  0  0  0  0  0  0  0  0  0
    2.6558   -3.1326   -5.9061 C   0  0  0  0  0  0  0  0  0  0  0  0
    3.0826   -3.5900   -7.1542 C   0  0  0  0  0  0  0  0  0  0  0  0
    2.5661   -3.0235   -8.3206 C   0  0  0  0  0  0  0  0  0  0  0  0
    1.4838   -2.1496   -8.2148 C   0  0  0  0  0  0  0  0  0  0  0  0
    1.0980   -1.6579   -6.9664 C   0  0  0  0  0  0  0  0  0  0  0  0
    3.1647   -3.3699   -9.6603 C   0  0  0  0  0  0  0  0  0  0  0  0
    2.2157   -3.9872  -10.4991 N   0  0  0  0  0  0  0  0  0  0  0  0
    1.6811   -3.5079  -11.7566 C   0  0  1  0  0  0  0  0  0  0  0  0
    1.9764   -4.9258  -13.0431 C   0  0  0  0  0  0  0  0  0  0  0  0
    1.2777   -6.6991  -13.0048 C   0  0  0  0  0  0  0  0  0  0  0  0
    1.8808   -7.8191  -13.3125 C   0  0  0  0  0  0  0  0  0  0  0  0
    1.1772   -9.0931  -12.8904 C   0  0  0  0  0  0  0  0  0  0  0  0
   -0.1111   -9.3680  -12.2252 C   0  0  0  0  0  0  0  0  0  0  0  0
   -0.7973   -8.3604  -11.8356 C   0  0  0  0  0  0  0  0  0  0  0  0
   -0.0413   -7.2870  -12.2622 C   0  0  0  0  0  0  0  0  0  0  0  0
    0.0206   -2.8046  -11.3895 C   0  0  0  0  0  0  0  0  0  0  0  0
   -0.2912   -1.7408  -11.9550 O   0  0  0  0  0  0  0  0  0  0  0  0
   -1.0817   -3.6601  -10.8988 N   0  0  0  0  0  0  0  0  0  0  0  0
   -1.0570   -4.6711   -9.7502 C   0  0  0  0  0  0  0  0  0  0  0  0
   -1.6575   -6.1048   -9.9063 C   0  0  0  0  0  0  0  0  0  0  0  0
   -2.9402   -6.0871  -10.7173 N   0  0  0  0  0  0  0  0  0  0  0  0
   -3.2438   -4.9560  -11.8767 C   0  0  0  0  0  0  0  0  0  0  0  0
   -2.2666   -3.7830  -11.7965 C   0  0  0  0  0  0  0  0  0  0  0  0
   -4.0668   -6.3196   -9.8758 C   0  0  0  0  0  0  0  0  0  0  0  0
   -4.1978   -4.9911   -9.1968 C   0  0  0  0  0  0  0  0  0  0  0  0
   -4.5152   -3.8031   -9.9387 C   0  0  0  0  0  0  0  0  0  0  0  0
   -3.9121   -2.5795   -9.6383 C   0  0  0  0  0  0  0  0  0  0  0  0
   -3.3805   -2.4594   -8.3799 C   0  0  0  0  0  0  0  0  0  0  0  0
   -3.2969   -3.5887   -7.5356 C   0  0  0  0  0  0  0  0  0  0  0  0
   -3.5282   -4.8721   -7.9945 C   0  0  0  0  0  0  0  0  0  0  0  0
   -3.1142   -1.1878   -7.9160 C   0  0  0  0  0  0  0  0  0  0  0  0
   -3.0168   -0.0515   -7.4735 N   0  0  0  0  0  0  0  0  0  0  0  0
    1.7340   -5.1459  -10.0926 C   0  0  0  0  0  0  0  0  0  0  0  0
    1.9631   -5.7671   -9.0611 O   0  0  0  0  0  0  0  0  0  0  0  0
    0.7052   -5.4911  -11.1288 C   0  0  0  0  0  0  0  0  0  0  0  0
   -0.1418   -5.0180  -12.4585 C   0  0  0  0  0  0  0  0  0  0  0  0
   -1.2294   -5.7675  -13.6559 C   0  0  0  0  0  0  0  0  0  0  0  0
   -2.2675   -6.5953  -13.1547 C   0  0  0  0  0  0  0  0  0  0  0  0
   -3.3917   -7.3137  -13.3845 C   0  0  0  0  0  0  0  0  0  0  0  0
   -3.5334   -7.2978  -14.6716 C   0  0  0  0  0  0  0  0  0  0  0  0
   -2.3990   -6.7803  -15.4682 C   0  0  0  0  0  0  0  0  0  0  0  0
   -1.1855   -6.1399  -14.9425 C   0  0  0  0  0  0  0  0  0  0  0  0
   -4.8144   -7.9365  -15.0816 C   0  0  0  0  0  0  0  0  0  0  0  0
   -5.4193   -6.9208  -16.0143 C   0  0  0  0  0  0  0  0  0  0  0  0
   -4.2762   -9.2166  -15.6789 C   0  0  0  0  0  0  0  0  0  0  0  0
   -5.8820   -8.3028  -13.9740 C   0  0  0  0  0  0  0  0  0  0  0  0
    0.5933    0.1846    1.0196 H   0  0  0  0  0  0  0  0  0  0  0  0
    0.5994    0.7737   -0.6411 H   0  0  0  0  0  0  0  0  0  0  0  0
    2.0611    0.0120    0.0558 H   0  0  0  0  0  0  0  0  0  0  0  0
    2.8370   -1.1453   -1.5652 H   0  0  0  0  0  0  0  0  0  0  0  0
    2.5429   -2.6936   -2.3567 H   0  0  0  0  0  0  0  0  0  0  0  0
    1.8417    0.0363   -3.5362 H   0  0  0  0  0  0  0  0  0  0  0  0
    3.2212   -0.9557   -4.0438 H   0  0  0  0  0  0  0  0  0  0  0  0
   -0.5115   -0.7776   -3.9599 H   0  0  0  0  0  0  0  0  0  0  0  0
   -0.7513   -2.3470   -4.7545 H   0  0  0  0  0  0  0  0  0  0  0  0
    0.2812   -3.4996   -2.7617 H   0  0  0  0  0  0  0  0  0  0  0  0
   -1.1113   -2.5156   -2.2467 H   0  0  0  0  0  0  0  0  0  0  0  0
    3.1054   -3.5693   -5.0202 H   0  0  0  0  0  0  0  0  0  0  0  0
    3.7970   -4.4102   -7.2180 H   0  0  0  0  0  0  0  0  0  0  0  0
    0.9408   -1.8353   -9.1005 H   0  0  0  0  0  0  0  0  0  0  0  0
    0.3889   -0.8350   -6.9384 H   0  0  0  0  0  0  0  0  0  0  0  0
    3.5461   -2.5031  -10.1863 H   0  0  0  0  0  0  0  0  0  0  0  0
    3.9590   -4.1222   -9.5446 H   0  0  0  0  0  0  0  0  0  0  0  0
    2.2596   -2.6287  -12.0570 H   0  0  0  0  0  0  0  0  0  0  0  0
    1.6431   -4.4241  -13.9881 H   0  0  0  0  0  0  0  0  0  0  0  0
    3.0578   -5.0346  -13.0665 H   0  0  0  0  0  0  0  0  0  0  0  0
    2.8552   -7.6959  -13.7246 H   0  0  0  0  0  0  0  0  0  0  0  0
    1.7233   -9.9914  -12.9855 H   0  0  0  0  0  0  0  0  0  0  0  0
   -0.6346  -10.2340  -11.8627 H   0  0  0  0  0  0  0  0  0  0  0  0
   -1.7364   -8.3357  -11.2512 H   0  0  0  0  0  0  0  0  0  0  0  0
   -0.6909   -6.5895  -11.7779 H   0  0  0  0  0  0  0  0  0  0  0  0
   -0.1137   -4.5975   -9.2467 H   0  0  0  0  0  0  0  0  0  0  0  0
   -1.6375   -4.2874   -8.9766 H   0  0  0  0  0  0  0  0  0  0  0  0
   -0.8916   -6.8216  -10.1818 H   0  0  0  0  0  0  0  0  0  0  0  0
   -1.6593   -6.8029   -9.0279 H   0  0  0  0  0  0  0  0  0  0  0  0
   -3.1914   -4.9226  -13.0087 H   0  0  0  0  0  0  0  0  0  0  0  0
   -4.3270   -5.0818  -12.1982 H   0  0  0  0  0  0  0  0  0  0  0  0
   -2.7932   -3.5213  -10.9870 H   0  0  0  0  0  0  0  0  0  0  0  0
   -2.4029   -3.0506  -12.6082 H   0  0  0  0  0  0  0  0  0  0  0  0
   -4.9405   -6.6189  -10.4525 H   0  0  0  0  0  0  0  0  0  0  0  0
   -3.7993   -7.1864   -9.2357 H   0  0  0  0  0  0  0  0  0  0  0  0
   -4.8596   -3.8386  -10.9746 H   0  0  0  0  0  0  0  0  0  0  0  0
   -3.7364   -1.8244  -10.4296 H   0  0  0  0  0  0  0  0  0  0  0  0
   -3.0387   -3.4846   -6.4995 H   0  0  0  0  0  0  0  0  0  0  0  0
   -3.0058   -5.7301   -7.5477 H   0  0  0  0  0  0  0  0  0  0  0  0
    0.7814   -6.5157  -10.6512 H   0  0  0  0  0  0  0  0  0  0  0  0
   -0.0386   -4.0604  -12.9757 H   0  0  0  0  0  0  0  0  0  0  0  0
   -2.2176   -6.7285  -12.1544 H   0  0  0  0  0  0  0  0  0  0  0  0
   -4.0878   -7.5582  -12.5707 H   0  0  0  0  0  0  0  0  0  0  0  0
   -2.5005   -6.8200  -16.5349 H   0  0  0  0  0  0  0  0  0  0  0  0
   -0.2254   -6.1736  -15.4453 H   0  0  0  0  0  0  0  0  0  0  0  0
   -4.6812   -6.5822  -16.7441 H   0  0  0  0  0  0  0  0  0  0  0  0
   -6.2612   -7.3586  -16.5371 H   0  0  0  0  0  0  0  0  0  0  0  0
   -5.7448   -6.0272  -15.4576 H   0  0  0  0  0  0  0  0  0  0  0  0
   -3.8268   -9.8480  -14.8925 H   0  0  0  0  0  0  0  0  0  0  0  0
   -5.0623   -9.7617  -16.1835 H   0  0  0  0  0  0  0  0  0  0  0  0
   -3.4717   -8.9923  -16.3867 H   0  0  0  0  0  0  0  0  0  0  0  0
   -5.4946   -8.9922  -13.2059 H   0  0  0  0  0  0  0  0  0  0  0  0
   -6.2580   -7.4193  -13.4330 H   0  0  0  0  0  0  0  0  0  0  0  0
   -6.7451   -8.8040  -14.4223 H   0  0  0  0  0  0  0  0  0  0  0  0
  1  2  1  0  0  0  0
  1 57  1  0  0  0  0
  1 58  1  0  0  0  0
  1 59  1  0  0  0  0
  2  3  2  0  0  0  0
  2  4  1  0  0  0  0
  4  5  1  0  0  0  0
  4  9  1  0  0  0  0
  5  6  1  0  0  0  0
  5 60  1  0  0  0  0
  5 61  1  0  0  0  0
  6  7  1  0  0  0  0
  6 62  1  0  0  0  0
  6 63  1  0  0  0  0
  7  8  1  0  0  0  0
  7 10  1  0  0  0  0
  8  9  1  0  0  0  0
  8 64  1  0  0  0  0
  8 65  1  0  0  0  0
  9 66  1  0  0  0  0
  9 67  1  0  0  0  0
 10 11  2  0  0  0  0
 10 15  1  0  0  0  0
 11 12  1  0  0  0  0
 11 68  1  0  0  0  0
 12 13  2  0  0  0  0
 12 69  1  0  0  0  0
 13 14  1  0  0  0  0
 13 16  1  0  0  0  0
 14 15  2  0  0  0  0
 14 70  1  0  0  0  0
 15 71  1  0  0  0  0
 16 17  1  0  0  0  0
 16 72  1  0  0  0  0
 16 73  1  0  0  0  0
 17 43  1  0  0  0  0
 18 17  1  0  0  0  0
 18 19  1  0  0  0  0
 18 26  1  0  0  0  0
 18 74  1  6  0  0  0
 19 20  1  0  0  0  0
 19 75  1  0  0  0  0
 19 76  1  0  0  0  0
 20 21  2  0  0  0  0
 20 25  1  0  0  0  0
 21 22  1  0  0  0  0
 21 77  1  0  0  0  0
 22 23  2  0  0  0  0
 22 78  1  0  0  0  0
 23 24  1  0  0  0  0
 23 79  1  0  0  0  0
 24 25  2  0  0  0  0
 24 80  1  0  0  0  0
 25 81  1  0  0  0  0
 26 27  2  0  0  0  0
 26 28  1  0  0  0  0
 28 29  1  0  0  0  0
 28 33  1  0  0  0  0
 29 30  1  0  0  0  0
 29 82  1  0  0  0  0
 29 83  1  0  0  0  0
 30 31  1  0  0  0  0
 30 84  1  0  0  0  0
 30 85  1  0  0  0  0
 31 32  1  0  0  0  0
 31 34  1  0  0  0  0
 32 33  1  0  0  0  0
 32 86  1  0  0  0  0
 32 87  1  0  0  0  0
 33 88  1  0  0  0  0
 33 89  1  0  0  0  0
 34 35  1  0  0  0  0
 34 90  1  0  0  0  0
 34 91  1  0  0  0  0
 35 36  2  0  0  0  0
 35 40  1  0  0  0  0
 36 37  1  0  0  0  0
 36 92  1  0  0  0  0
 37 38  2  0  0  0  0
 37 93  1  0  0  0  0
 38 39  1  0  0  0  0
 38 41  1  0  0  0  0
 39 40  2  0  0  0  0
 39 94  1  0  0  0  0
 40 95  1  0  0  0  0
 41 42  3  0  0  0  0
 43 44  2  0  0  0  0
 43 45  1  0  0  0  0
 45 46  2  0  0  0  0
 45 96  1  0  0  0  0
 46 47  1  0  0  0  0
 46 97  1  0  0  0  0
 47 48  2  0  0  0  0
 47 52  1  0  0  0  0
 48 49  1  0  0  0  0
 48 98  1  0  0  0  0
 49 50  2  0  0  0  0
 49 99  1  0  0  0  0
 50 51  1  0  0  0  0
 50 53  1  0  0  0  0
 51 52  2  0  0  0  0
 51100  1  0  0  0  0
 52101  1  0  0  0  0
 53 54  1  0  0  0  0
 53 55  1  0  0  0  0
 53 56  1  0  0  0  0
 54102  1  0  0  0  0
 54103  1  0  0  0  0
 54104  1  0  0  0  0
 55105  1  0  0  0  0
 55106  1  0  0  0  0
 55107  1  0  0  0  0
 56108  1  0  0  0  0
 56109  1  0  0  0  0
 56110  1  0  0  0  0
M  END
>  <DRUGBANK_ID>
DB13054

>  <COMMON_NAME>
ACT-451840

>  <CAS_NUMBER>
1839508-99-4

>  <UNII>
FO890BDO84

$$$$
