
 OpenBabel10282417243D

 52 54  0  0  0  0  0  0  0  0999 V2000
    0.8588   -0.0116   -0.0100 N   0  0  0  0  0  0  0  0  0  0  0  0
    0.1756    0.9441    0.6505 C   0  0  0  0  0  0  0  0  0  0  0  0
   -1.1034    0.9825    0.7387 N   0  0  0  0  0  0  0  0  0  0  0  0
    0.8749    1.9146    1.2523 N   0  0  0  0  0  0  0  0  0  0  0  0
    2.2473    2.0511    1.1626 C   0  0  0  0  0  0  0  0  0  0  0  0
    2.8523    2.0668    2.3567 C   0  0  0  0  0  0  0  0  0  0  0  0
    4.1854    1.8747    2.2052 C   0  0  0  0  0  0  0  0  0  0  0  0
    5.0103    1.5680    1.0255 C   0  0  0  0  0  0  0  0  0  0  0  0
    6.5055    1.1303    0.7452 C   0  0  0  0  0  0  0  0  0  0  0  0
    6.7003    1.4050   -0.6105 N   0  0  0  0  0  0  0  0  0  0  0  0
    8.0939    1.6343   -1.0647 C   0  0  0  0  0  0  0  0  0  0  0  0
    8.7612    2.9735   -0.6009 C   0  0  0  0  0  0  0  0  0  0  0  0
    9.1752    3.1996    0.8940 C   0  0  0  0  0  0  0  0  0  0  0  0
   10.3685    3.1112    1.2074 O   0  0  0  0  0  0  0  0  0  0  0  0
    8.3081    3.5248    1.9205 N   0  0  0  0  0  0  0  0  0  0  0  0
    6.8465    3.3780    2.0646 C   0  0  3  0  0  0  0  0  0  0  0  0
    6.5798    1.9310    3.1079 C   0  0  0  0  0  0  0  0  0  0  0  0
    6.5568    2.2395    4.5310 C   0  0  0  0  0  0  0  0  0  0  0  0
    5.4052    2.2742    5.2269 O   0  0  0  0  0  0  0  0  0  0  0  0
    7.6493    2.4012    5.0477 O   0  0  0  0  0  0  0  0  0  0  0  0
    6.1046    4.6879    2.2056 C   0  0  0  0  0  0  0  0  0  0  0  0
    4.8340    4.7978    2.7536 C   0  0  0  0  0  0  0  0  0  0  0  0
    4.2050    6.0059    2.9341 C   0  0  0  0  0  0  0  0  0  0  0  0
    4.8808    7.1181    2.5138 C   0  0  0  0  0  0  0  0  0  0  0  0
    6.0226    7.0712    1.7946 N   0  0  0  0  0  0  0  0  0  0  0  0
    6.5868    5.8553    1.6154 C   0  0  0  0  0  0  0  0  0  0  0  0
    5.4500    1.5329   -1.2496 C   0  0  0  0  0  0  0  0  0  0  0  0
    5.2347    1.4937   -2.4036 O   0  0  0  0  0  0  0  0  0  0  0  0
    4.3969    1.7070   -0.1588 C   0  0  0  0  0  0  0  0  0  0  0  0
    3.0138    1.9200   -0.0855 C   0  0  0  0  0  0  0  0  0  0  0  0
    0.4164   -0.6567   -0.6380 H   0  0  0  0  0  0  0  0  0  0  0  0
    1.8696   -0.0598    0.0226 H   0  0  0  0  0  0  0  0  0  0  0  0
   -1.4688    0.2188    0.1773 H   0  0  0  0  0  0  0  0  0  0  0  0
    0.3867    2.3967    2.0020 H   0  0  0  0  0  0  0  0  0  0  0  0
    2.3804    2.1238    3.3497 H   0  0  0  0  0  0  0  0  0  0  0  0
    4.5119    2.0747    3.1975 H   0  0  0  0  0  0  0  0  0  0  0  0
    6.8804    0.1537    1.0603 H   0  0  0  0  0  0  0  0  0  0  0  0
    7.3619    1.6684    1.1207 H   0  0  0  0  0  0  0  0  0  0  0  0
    8.7101    0.8025   -0.6870 H   0  0  0  0  0  0  0  0  0  0  0  0
    8.0790    1.5818   -2.1554 H   0  0  0  0  0  0  0  0  0  0  0  0
    9.7220    3.0156   -1.1544 H   0  0  0  0  0  0  0  0  0  0  0  0
    8.1943    3.8382   -0.9537 H   0  0  0  0  0  0  0  0  0  0  0  0
    8.7695    3.5632    2.8223 H   0  0  0  0  0  0  0  0  0  0  0  0
    6.5705    3.2899    0.9955 H   0  0  0  0  0  0  0  0  0  0  0  0
    5.8376    1.1081    2.9726 H   0  0  0  0  0  0  0  0  0  0  0  0
    7.3168    1.1190    2.9622 H   0  0  0  0  0  0  0  0  0  0  0  0
    4.4876    2.1060    4.9305 H   0  0  0  0  0  0  0  0  0  0  0  0
    4.2564    3.9816    3.1151 H   0  0  0  0  0  0  0  0  0  0  0  0
    3.2539    6.0274    3.4515 H   0  0  0  0  0  0  0  0  0  0  0  0
    4.5110    8.0996    2.7740 H   0  0  0  0  0  0  0  0  0  0  0  0
    7.4682    5.8562    0.9726 H   0  0  0  0  0  0  0  0  0  0  0  0
    2.4404    1.8890   -0.9976 H   0  0  0  0  0  0  0  0  0  0  0  0
  1  2  1  0  0  0  0
  1 31  1  0  0  0  0
  1 32  1  0  0  0  0
  2  3  2  0  0  0  0
  2  4  1  0  0  0  0
  3 33  1  0  0  0  0
  4  5  1  0  0  0  0
  4 34  1  0  0  0  0
  5  6  2  0  0  0  0
  5 30  1  0  0  0  0
  6  7  1  0  0  0  0
  6 35  1  0  0  0  0
  7  8  2  0  0  0  0
  7 36  1  0  0  0  0
  8  9  1  0  0  0  0
  8 29  1  0  0  0  0
  9 10  1  0  0  0  0
  9 37  1  0  0  0  0
  9 38  1  0  0  0  0
 10 11  1  0  0  0  0
 10 27  1  0  0  0  0
 11 12  1  0  0  0  0
 11 39  1  0  0  0  0
 11 40  1  0  0  0  0
 12 13  1  0  0  0  0
 12 41  1  0  0  0  0
 12 42  1  0  0  0  0
 13 14  2  0  0  0  0
 13 15  1  0  0  0  0
 15 16  1  0  0  0  0
 15 43  1  0  0  0  0
 16 17  1  0  0  0  0
 16 21  1  0  0  0  0
 16 44  1  0  0  0  0
 17 18  1  0  0  0  0
 17 45  1  0  0  0  0
 17 46  1  0  0  0  0
 18 19  1  0  0  0  0
 18 20  2  0  0  0  0
 19 47  1  0  0  0  0
 21 22  2  0  0  0  0
 21 26  1  0  0  0  0
 22 23  1  0  0  0  0
 22 48  1  0  0  0  0
 23 24  2  0  0  0  0
 23 49  1  0  0  0  0
 24 25  1  0  0  0  0
 24 50  1  0  0  0  0
 25 26  2  0  0  0  0
 26 51  1  0  0  0  0
 27 28  2  0  0  0  0
 27 29  1  0  0  0  0
 29 30  2  0  0  0  0
 30 52  1  0  0  0  0
M  END
>  <DRUGBANK_ID>
DB18036

>  <COMMON_NAME>
3-(3-(6-Guanidino-1-oxoisoindolin-2yl)propanamido)-3-(pyridine-3yl)propanoic acid

>  <CAS_NUMBER>
1445836-51-0

>  <UNII>
HP3E8MOW01

$$$$
