
 OpenBabel10282417183D

 51 54  0  0  0  0  0  0  0  0999 V2000
   -1.3372    1.4541   -0.5348 C   0  0  2  0  0  0  0  0  0  0  0  0
   -1.7980    0.0945    0.0754 C   0  0  0  0  0  0  0  0  0  0  0  0
   -2.6997   -0.3096    0.7510 O   0  0  0  0  0  0  0  0  0  0  0  0
   -0.6635   -0.4961   -0.3969 N   0  0  0  0  0  0  0  0  0  0  0  0
   -0.0839   -1.7103   -0.1069 C   0  0  0  0  0  0  0  0  0  0  0  0
    1.2817   -1.7898   -0.1014 C   0  0  0  0  0  0  0  0  0  0  0  0
    2.1818   -0.5443   -0.0277 C   0  0  0  0  0  0  0  0  0  0  0  0
    1.3273    0.9823    0.4957 S   0  0  0  0  0  0  0  0  0  0  0  0
    0.0271    0.7405   -0.7322 C   0  0  2  0  0  0  0  0  0  0  0  0
    0.3837    0.8087   -1.7669 H   0  0  0  0  0  0  0  0  0  0  0  0
   -1.0966   -2.8527    0.0249 C   0  0  0  0  0  0  0  0  0  0  0  0
   -2.1373   -2.9284   -0.6119 O   0  0  0  0  0  0  0  0  0  0  0  0
   -0.7300   -3.8915    0.8058 O   0  0  0  0  0  0  0  0  0  0  0  0
   -2.0999    3.8038   -0.2234 C   0  0  0  0  0  0  0  0  0  0  0  0
   -2.1355    5.0653    0.6242 C   0  0  0  0  0  0  0  0  0  0  0  0
   -2.6633    3.7517   -1.3176 O   0  0  0  0  0  0  0  0  0  0  0  0
   -1.4162    2.7091    0.2872 N   0  0  0  0  0  0  0  0  0  0  0  0
   -1.6025    6.2843   -0.0925 C   0  0  0  0  0  0  0  0  0  0  0  0
   -1.9622    7.5970    0.1593 C   0  0  0  0  0  0  0  0  0  0  0  0
   -1.3376    8.5229   -0.7234 C   0  0  0  0  0  0  0  0  0  0  0  0
   -0.4980    7.8952   -1.6140 C   0  0  0  0  0  0  0  0  0  0  0  0
   -0.4306    6.2072   -1.3455 S   0  0  0  0  0  0  0  0  0  0  0  0
    2.1130   -2.9997   -0.0181 C   0  0  0  0  0  0  0  0  0  0  0  0
    1.6620   -4.2481   -0.1608 C   0  0  0  0  0  0  0  0  0  0  0  0
    2.1838   -5.4937    0.4145 C   0  0  0  0  0  0  0  0  0  0  0  0
    2.9879   -5.6677    1.5629 C   0  0  0  0  0  0  0  0  0  0  0  0
    3.4339   -6.9592    1.9049 C   0  0  0  0  0  0  0  0  0  0  0  0
    3.0106   -8.0723    1.1681 C   0  0  0  0  0  0  0  0  0  0  0  0
    2.0673   -7.9360    0.1532 C   0  0  0  0  0  0  0  0  0  0  0  0
    1.6840   -6.6534   -0.2329 C   0  0  0  0  0  0  0  0  0  0  0  0
    3.6324   -9.3791    1.4074 N   0  3  0  0  0  0  0  0  0  0  0  0
    3.2601  -10.3292    0.7062 O   0  0  0  0  0  0  0  0  0  0  0  0
    4.5224   -9.4387    2.2654 O   0  5  0  0  0  0  0  0  0  0  0  0
    3.4220   -4.5760    2.4701 N   0  3  0  0  0  0  0  0  0  0  0  0
    4.3926   -4.8103    3.2036 O   0  0  0  0  0  0  0  0  0  0  0  0
    2.8023   -3.5090    2.4980 O   0  5  0  0  0  0  0  0  0  0  0  0
   -1.8333    1.6056   -1.5023 H   0  0  0  0  0  0  0  0  0  0  0  0
    2.6493   -0.3819   -1.0048 H   0  0  0  0  0  0  0  0  0  0  0  0
    2.9885   -0.6813    0.7045 H   0  0  0  0  0  0  0  0  0  0  0  0
   -1.1919   -4.6803    0.4409 H   0  0  0  0  0  0  0  0  0  0  0  0
   -3.1963    5.2477    0.8495 H   0  0  0  0  0  0  0  0  0  0  0  0
   -1.6245    4.9313    1.5820 H   0  0  0  0  0  0  0  0  0  0  0  0
   -1.0023    2.7508    1.2140 H   0  0  0  0  0  0  0  0  0  0  0  0
   -2.6696    7.8776    0.9300 H   0  0  0  0  0  0  0  0  0  0  0  0
   -1.5070    9.5925   -0.7131 H   0  0  0  0  0  0  0  0  0  0  0  0
    0.0861    8.3511   -2.4026 H   0  0  0  0  0  0  0  0  0  0  0  0
    3.1434   -2.8509    0.3054 H   0  0  0  0  0  0  0  0  0  0  0  0
    0.7177   -4.3821   -0.6685 H   0  0  0  0  0  0  0  0  0  0  0  0
    4.1268   -7.0941    2.7346 H   0  0  0  0  0  0  0  0  0  0  0  0
    1.6591   -8.8001   -0.3701 H   0  0  0  0  0  0  0  0  0  0  0  0
    0.9985   -6.5667   -1.0798 H   0  0  0  0  0  0  0  0  0  0  0  0
  1  2  1  0  0  0  0
  1  9  1  0  0  0  0
  1 17  1  0  0  0  0
  1 37  1  6  0  0  0
  2  3  2  0  0  0  0
  2  4  1  0  0  0  0
  4  5  1  0  0  0  0
  4  9  1  0  0  0  0
  5  6  2  0  0  0  0
  5 11  1  0  0  0  0
  6  7  1  0  0  0  0
  6 23  1  0  0  0  0
  7  8  1  0  0  0  0
  7 38  1  0  0  0  0
  7 39  1  0  0  0  0
  8  9  1  0  0  0  0
  9 10  1  6  0  0  0
 11 12  2  0  0  0  0
 11 13  1  0  0  0  0
 13 40  1  0  0  0  0
 14 15  1  0  0  0  0
 14 16  2  0  0  0  0
 14 17  1  0  0  0  0
 15 18  1  0  0  0  0
 15 41  1  0  0  0  0
 15 42  1  0  0  0  0
 17 43  1  0  0  0  0
 18 19  2  0  0  0  0
 18 22  1  0  0  0  0
 19 20  1  0  0  0  0
 19 44  1  0  0  0  0
 20 21  2  0  0  0  0
 20 45  1  0  0  0  0
 21 22  1  0  0  0  0
 21 46  1  0  0  0  0
 23 24  2  0  0  0  0
 23 47  1  0  0  0  0
 24 25  1  0  0  0  0
 24 48  1  0  0  0  0
 25 26  1  0  0  0  0
 25 30  2  0  0  0  0
 26 27  2  0  0  0  0
 26 34  1  0  0  0  0
 27 28  1  0  0  0  0
 27 49  1  0  0  0  0
 28 29  2  0  0  0  0
 28 31  1  0  0  0  0
 29 30  1  0  0  0  0
 29 50  1  0  0  0  0
 30 51  1  0  0  0  0
 31 32  2  0  0  0  0
 31 33  1  0  0  0  0
 34 35  2  0  0  0  0
 34 36  1  0  0  0  0
M  CHG  4  31   1  33  -1  34   1  36  -1
M  END
>  <DRUGBANK_ID>
DB11592

>  <COMMON_NAME>
Nitrocefin

>  <CAS_NUMBER>
41906-86-9

>  <UNII>
EWP54G0J8F

$$$$
