BAT
 OpenBabel10282417133D

 63 64  0  0  0  0  0  0  0  0999 V2000
    0.8468    0.0726   -0.0519 C   0  0  1  0  0  0  0  0  0  0  0  0
    0.3860    0.7549   -1.3442 C   0  0  0  0  0  0  0  0  0  0  0  0
    0.2665    0.8463    1.1549 C   0  0  0  0  0  0  0  0  0  0  0  0
   -2.4164    0.0199    0.6911 C   0  0  0  0  0  0  0  0  0  0  0  0
   -2.9464    1.0807    0.0019 C   0  0  0  0  0  0  0  0  0  0  0  0
   -3.9139    0.6823   -0.9591 C   0  0  0  0  0  0  0  0  0  0  0  0
   -4.0654   -0.6855   -1.0121 C   0  0  0  0  0  0  0  0  0  0  0  0
    0.5209   -1.4369    0.0068 C   0  0  1  0  0  0  0  0  0  0  0  0
    1.0480   -2.2134   -1.2150 C   0  0  0  0  0  0  0  0  0  0  0  0
    2.5706   -2.2143   -1.3678 C   0  0  0  0  0  0  0  0  0  0  0  0
    3.2492   -2.9258   -0.2125 C   0  0  0  0  0  0  0  0  0  0  0  0
    2.9926   -2.9028   -2.6534 C   0  0  0  0  0  0  0  0  0  0  0  0
    0.9131   -1.9609    1.4141 C   0  0  0  0  0  0  0  0  0  0  0  0
    0.3999   -3.3924    3.3667 C   0  0  2  0  0  0  0  0  0  0  0  0
   -0.1778   -4.8342    3.3858 C   0  0  0  0  0  0  0  0  0  0  0  0
   -1.7834   -6.0941    4.7015 C   0  0  0  0  0  0  0  0  0  0  0  0
   -0.0691   -2.5037    4.5468 C   0  0  0  0  0  0  0  0  0  0  0  0
   -1.5641   -2.5068    4.8391 C   0  0  0  0  0  0  0  0  0  0  0  0
   -2.5067   -3.1074    3.9846 C   0  0  0  0  0  0  0  0  0  0  0  0
   -3.8351   -3.2771    4.3504 C   0  0  0  0  0  0  0  0  0  0  0  0
   -4.2683   -2.7910    5.5697 C   0  0  0  0  0  0  0  0  0  0  0  0
   -3.3641   -2.1601    6.4252 C   0  0  0  0  0  0  0  0  0  0  0  0
   -2.0243   -1.9961    6.0568 C   0  0  0  0  0  0  0  0  0  0  0  0
    1.1082    1.8685   -1.7142 N   0  0  0  0  0  0  0  0  0  0  0  0
    0.0562   -2.8045    2.0477 N   0  0  0  0  0  0  0  0  0  0  0  0
   -0.5400   -5.3534    4.6200 N   0  0  0  0  0  0  0  0  0  0  0  0
   -0.5817    0.3950   -2.0061 O   0  0  0  0  0  0  0  0  0  0  0  0
    0.7053    2.5045   -2.9129 O   0  0  0  0  0  0  0  0  0  0  0  0
    1.9187   -1.5586    2.0202 O   0  0  0  0  0  0  0  0  0  0  0  0
   -0.3958   -5.4510    2.3407 O   0  0  0  0  0  0  0  0  0  0  0  0
   -1.2521    0.1935    1.9954 S   0  0  0  0  0  0  0  0  0  0  0  0
   -3.1259   -1.4656    0.1906 S   0  0  0  0  0  0  0  0  0  0  0  0
    1.9412    0.1898   -0.0220 H   0  0  0  0  0  0  0  0  0  0  0  0
   -0.5481   -1.5661   -0.0987 H   0  0  0  0  0  0  0  0  0  0  0  0
    1.4922   -3.4855    3.4149 H   0  0  0  0  0  0  0  0  0  0  0  0
    1.0442    0.8474    1.9322 H   0  0  0  0  0  0  0  0  0  0  0  0
    0.0966    1.8967    0.9090 H   0  0  0  0  0  0  0  0  0  0  0  0
   -2.6546    2.1005    0.2040 H   0  0  0  0  0  0  0  0  0  0  0  0
   -4.4636    1.3720   -1.5835 H   0  0  0  0  0  0  0  0  0  0  0  0
   -4.7131   -1.2504   -1.6714 H   0  0  0  0  0  0  0  0  0  0  0  0
    0.6504   -3.2367   -1.2022 H   0  0  0  0  0  0  0  0  0  0  0  0
    0.6174   -1.7691   -2.1263 H   0  0  0  0  0  0  0  0  0  0  0  0
    2.9297   -1.1801   -1.4148 H   0  0  0  0  0  0  0  0  0  0  0  0
    2.7385   -3.8644    0.0312 H   0  0  0  0  0  0  0  0  0  0  0  0
    4.3058   -3.1177   -0.3936 H   0  0  0  0  0  0  0  0  0  0  0  0
    3.2630   -2.2771    0.6489 H   0  0  0  0  0  0  0  0  0  0  0  0
    2.6049   -2.3782   -3.5304 H   0  0  0  0  0  0  0  0  0  0  0  0
    4.0858   -2.9098   -2.7148 H   0  0  0  0  0  0  0  0  0  0  0  0
    2.6390   -3.9380   -2.6696 H   0  0  0  0  0  0  0  0  0  0  0  0
   -1.6343   -6.9987    5.2846 H   0  0  0  0  0  0  0  0  0  0  0  0
   -2.5136   -5.4770    5.2347 H   0  0  0  0  0  0  0  0  0  0  0  0
   -2.1905   -6.3120    3.7102 H   0  0  0  0  0  0  0  0  0  0  0  0
    0.4470   -2.8692    5.4507 H   0  0  0  0  0  0  0  0  0  0  0  0
    0.2665   -1.4673    4.4190 H   0  0  0  0  0  0  0  0  0  0  0  0
   -2.2332   -3.5796    3.0480 H   0  0  0  0  0  0  0  0  0  0  0  0
   -4.4939   -3.8430    3.6964 H   0  0  0  0  0  0  0  0  0  0  0  0
   -5.3092   -2.9113    5.8498 H   0  0  0  0  0  0  0  0  0  0  0  0
   -3.7047   -1.8120    7.3957 H   0  0  0  0  0  0  0  0  0  0  0  0
   -1.3426   -1.4902    6.7379 H   0  0  0  0  0  0  0  0  0  0  0  0
    1.9978    2.1618   -1.3257 H   0  0  0  0  0  0  0  0  0  0  0  0
   -0.9286   -2.6560    1.8463 H   0  0  0  0  0  0  0  0  0  0  0  0
   -0.3116   -4.8302    5.4543 H   0  0  0  0  0  0  0  0  0  0  0  0
   -0.0804    1.9789   -3.1837 H   0  0  0  0  0  0  0  0  0  0  0  0
  1  8  1  0  0  0  0
  1 33  1  1  0  0  0
  1  3  1  0  0  0  0
  1  2  1  0  0  0  0
  2 24  1  0  0  0  0
  2 27  2  0  0  0  0
  3 31  1  0  0  0  0
  3 36  1  0  0  0  0
  3 37  1  0  0  0  0
  4  5  2  0  0  0  0
  4 31  1  0  0  0  0
  4 32  1  0  0  0  0
  5  6  1  0  0  0  0
  5 38  1  0  0  0  0
  6  7  2  0  0  0  0
  6 39  1  0  0  0  0
  7 32  1  0  0  0  0
  7 40  1  0  0  0  0
  8  9  1  0  0  0  0
  8 13  1  0  0  0  0
  8 34  1  6  0  0  0
  9 10  1  0  0  0  0
  9 41  1  0  0  0  0
  9 42  1  0  0  0  0
 10 11  1  0  0  0  0
 10 12  1  0  0  0  0
 10 43  1  0  0  0  0
 11 44  1  0  0  0  0
 11 45  1  0  0  0  0
 11 46  1  0  0  0  0
 12 47  1  0  0  0  0
 12 48  1  0  0  0  0
 12 49  1  0  0  0  0
 13 25  1  0  0  0  0
 13 29  2  0  0  0  0
 14 25  1  0  0  0  0
 14 35  1  1  0  0  0
 14 17  1  0  0  0  0
 14 15  1  0  0  0  0
 15 26  1  0  0  0  0
 15 30  2  0  0  0  0
 16 26  1  0  0  0  0
 16 50  1  0  0  0  0
 16 51  1  0  0  0  0
 16 52  1  0  0  0  0
 17 18  1  0  0  0  0
 17 53  1  0  0  0  0
 17 54  1  0  0  0  0
 18 19  2  0  0  0  0
 18 23  1  0  0  0  0
 19 20  1  0  0  0  0
 19 55  1  0  0  0  0
 20 21  2  0  0  0  0
 20 56  1  0  0  0  0
 21 22  1  0  0  0  0
 21 57  1  0  0  0  0
 22 23  2  0  0  0  0
 22 58  1  0  0  0  0
 23 59  1  0  0  0  0
 24 28  1  0  0  0  0
 24 60  1  0  0  0  0
 25 61  1  0  0  0  0
 26 62  1  0  0  0  0
 28 63  1  0  0  0  0
M  END
>  <DRUGBANK_ID>
DB03880

>  <SECONDARY_ACCESSION_NUMBERS>
EXPT00627

>  <COMMON_NAME>
Batimastat

>  <CAS_NUMBER>
130370-60-4

>  <UNII>
BK349F52C9

>  <SYNONYMS>
Batimastat

$$$$
