
 OpenBabel10282417133D

 52 54  0  0  1  0  0  0  0  0999 V2000
   -3.4804    1.8704    5.4818 C   0  0  0  0  0  0  0  0  0  0  0  0
   -4.0368    2.7367    4.5516 C   0  0  0  0  0  0  0  0  0  0  0  0
   -3.2294    3.1651    3.5112 C   0  0  0  0  0  0  0  0  0  0  0  0
   -1.8903    2.7702    3.3530 C   0  0  0  0  0  0  0  0  0  0  0  0
   -1.3171    1.9470    4.3405 C   0  0  0  0  0  0  0  0  0  0  0  0
   -2.1279    1.4915    5.3728 C   0  0  0  0  0  0  0  0  0  0  0  0
   -1.1437    3.1072    2.1958 N   0  0  0  0  0  0  0  0  0  0  0  0
    0.1357    2.3397    2.0614 C   0  0  0  0  0  0  0  0  0  0  0  0
    0.7626    1.7534    3.3255 C   0  0  0  0  0  0  0  0  0  0  0  0
    0.0387    1.5653    4.3815 N   0  0  0  0  0  0  0  0  0  0  0  0
    0.8237    2.0844    0.9718 N   0  0  0  0  0  0  0  0  0  0  0  0
    2.2251    1.7848    1.0068 C   0  0  0  0  0  0  0  0  0  0  0  0
    2.8816    1.6762    2.1932 N   0  0  0  0  0  0  0  0  0  0  0  0
    2.2331    1.3410    3.3175 C   0  0  0  0  0  0  0  0  0  0  0  0
   -4.2653    1.3195    6.6216 C   0  0  0  0  0  0  0  0  0  0  0  0
   -5.4511    3.2435    4.5402 C   0  0  0  0  0  0  0  0  0  0  0  0
    2.9666    1.9180    0.0274 O   0  0  0  0  0  0  0  0  0  0  0  0
    2.7818    0.7071    4.2249 O   0  0  0  0  0  0  0  0  0  0  0  0
   -1.8608    4.2446    1.3380 C   0  0  0  0  0  0  0  0  0  0  0  0
   -1.2064    5.6986    1.4264 C   0  0  2  0  0  0  0  0  0  0  0  0
   -1.5046    6.5110    0.2517 O   0  0  0  0  0  0  0  0  0  0  0  0
    0.2581    5.5275    1.2404 C   0  0  2  0  0  0  0  0  0  0  0  0
    0.1620    4.4822    0.2167 O   0  0  0  0  0  0  0  0  0  0  0  0
    1.2799    5.6454    2.5605 C   0  0  1  0  0  0  0  0  0  0  0  0
    2.8316    5.1714    2.6042 C   0  0  0  0  0  0  0  0  0  0  0  0
    3.5283    5.3708    1.3203 O   0  0  0  0  0  0  0  0  0  0  0  0
    1.4269    7.0772    2.7149 O   0  0  0  0  0  0  0  0  0  0  0  0
    2.7132    4.7934   -0.0922 P   0  0  0  0  0  0  0  0  0  0  0  0
    1.9850    4.0063    1.0156 O   0  0  0  0  0  0  0  0  0  0  0  0
    2.5708    6.3908   -0.2819 O   0  0  0  0  0  0  0  0  0  0  0  0
    1.9836    4.2766   -1.3563 O   0  0  0  0  0  0  0  0  0  0  0  0
   -3.7603    3.8004    2.8207 H   0  0  0  0  0  0  0  0  0  0  0  0
   -1.6890    0.8194    6.1070 H   0  0  0  0  0  0  0  0  0  0  0  0
    3.8914    1.5987    2.1245 H   0  0  0  0  0  0  0  0  0  0  0  0
   -4.2919    0.2310    6.5437 H   0  0  0  0  0  0  0  0  0  0  0  0
   -3.8025    1.6416    7.5558 H   0  0  0  0  0  0  0  0  0  0  0  0
   -5.2968    1.6641    6.6374 H   0  0  0  0  0  0  0  0  0  0  0  0
   -5.4529    4.3380    4.5984 H   0  0  0  0  0  0  0  0  0  0  0  0
   -5.9512    2.9350    3.6146 H   0  0  0  0  0  0  0  0  0  0  0  0
   -6.0556    2.8802    5.3651 H   0  0  0  0  0  0  0  0  0  0  0  0
   -1.9596    3.8790    0.2978 H   0  0  0  0  0  0  0  0  0  0  0  0
   -2.9212    4.4311    1.4861 H   0  0  0  0  0  0  0  0  0  0  0  0
   -1.4520    6.2839    2.3106 H   0  0  0  0  0  0  0  0  0  0  0  0
   -2.4235    6.5031   -0.0265 H   0  0  0  0  0  0  0  0  0  0  0  0
    0.6262    6.3378    0.6206 H   0  0  0  0  0  0  0  0  0  0  0  0
   -0.2323    3.6381    0.5257 H   0  0  0  0  0  0  0  0  0  0  0  0
    0.7928    5.2594    3.4679 H   0  0  0  0  0  0  0  0  0  0  0  0
    3.4244    5.6578    3.3927 H   0  0  0  0  0  0  0  0  0  0  0  0
    2.9221    4.1092    2.8787 H   0  0  0  0  0  0  0  0  0  0  0  0
    1.8840    7.3395    1.8842 H   0  0  0  0  0  0  0  0  0  0  0  0
    1.2709    3.6975    0.4303 H   0  0  0  0  0  0  0  0  0  0  0  0
    3.4986    6.7108   -0.3797 H   0  0  0  0  0  0  0  0  0  0  0  0
  1  2  1  0  0  0  0
  1 15  1  0  0  0  0
  2  3  2  0  0  0  0
  2 16  1  0  0  0  0
  3  4  1  0  0  0  0
  3 32  1  0  0  0  0
  4  5  2  0  0  0  0
  4  7  1  0  0  0  0
  5  6  1  0  0  0  0
  6  1  2  0  0  0  0
  6 33  1  0  0  0  0
  7  8  1  0  0  0  0
  7 19  1  0  0  0  0
  8  9  1  0  0  0  0
  8 11  2  0  0  0  0
  9 10  2  0  0  0  0
 10  5  1  0  0  0  0
 11 12  1  0  0  0  0
 12 13  1  0  0  0  0
 12 17  2  0  0  0  0
 13 14  1  0  0  0  0
 13 34  1  0  0  0  0
 14  9  1  0  0  0  0
 14 18  2  0  0  0  0
 15 35  1  0  0  0  0
 15 36  1  0  0  0  0
 15 37  1  0  0  0  0
 16 38  1  0  0  0  0
 16 39  1  0  0  0  0
 16 40  1  0  0  0  0
 19 41  1  0  0  0  0
 19 42  1  0  0  0  0
 20 43  1  1  0  0  0
 20 21  1  0  0  0  0
 20 19  1  0  0  0  0
 21 44  1  0  0  0  0
 22 24  1  0  0  0  0
 22 45  1  6  0  0  0
 22 23  1  0  0  0  0
 22 20  1  0  0  0  0
 23 46  1  0  0  0  0
 24 25  1  0  0  0  0
 24 27  1  0  0  0  0
 24 47  1  1  0  0  0
 25 26  1  0  0  0  0
 25 48  1  0  0  0  0
 25 49  1  0  0  0  0
 26 28  1  0  0  0  0
 27 50  1  0  0  0  0
 28 29  1  0  0  0  0
 28 30  1  0  0  0  0
 28 31  2  0  0  0  0
 29 51  1  0  0  0  0
 30 52  1  0  0  0  0
M  END
>  <DRUGBANK_ID>
DB03247

>  <SECONDARY_ACCESSION_NUMBERS>
EXPT01458

>  <COMMON_NAME>
Flavin mononucleotide

>  <CAS_NUMBER>
146-17-8

>  <UNII>
7N464URE7E

>  <SYNONYMS>
FMN; riboflavin 5'-(dihydrogen phosphate); riboflavin 5'-monophosphate; riboflavin 5'-phosphate; Riboflavin monophosphate; Riboflavin phosphate; Riboflavin-5-phosphate; riboflavine dihydrogen phosphate; Vitamin B2 (riboflavin-5-phosphate); Vitamin B2 phosphate

$$$$
