
 OpenBabel10282417123D

 30 29  0  0  0  0  0  0  0  0999 V2000
   -0.9447   -3.5861   -0.3618 F   0  0  0  0  0  0  0  0  0  0  0  0
   -2.1135    0.0348   -2.3442 O   0  0  0  0  0  0  0  0  0  0  0  0
   -2.2423   -1.1130   -0.3937 O   0  0  0  0  0  0  0  0  0  0  0  0
    0.3825    0.2205   -0.1757 N   0  0  0  0  0  0  0  0  0  0  0  0
    3.4028   -3.9487   -0.0492 N   0  0  0  0  0  0  0  0  0  0  0  0
    4.1479   -2.7420    1.7934 N   0  0  0  0  0  0  0  0  0  0  0  0
    0.3635   -3.2691   -0.5099 C   0  0  2  0  0  0  0  0  0  0  0  0
    0.5293   -2.0637   -1.5127 C   0  0  0  0  0  0  0  0  0  0  0  0
    1.1399   -4.4967   -1.0079 C   0  0  0  0  0  0  0  0  0  0  0  0
   -0.0467   -0.6332   -1.2999 C   0  0  1  0  0  0  0  0  0  0  0  0
    2.6277   -4.2059   -1.2759 C   0  0  0  0  0  0  0  0  0  0  0  0
   -1.5626   -0.6289   -1.3088 C   0  0  0  0  0  0  0  0  0  0  0  0
    3.4300   -2.8664    0.6456 C   0  0  0  0  0  0  0  0  0  0  0  0
    2.7120   -1.5921    0.3715 C   0  0  0  0  0  0  0  0  0  0  0  0
    1.3869    0.2467   -0.0499 H   0  0  0  0  0  0  0  0  0  0  0  0
   -0.0424   -0.1171    0.6914 H   0  0  0  0  0  0  0  0  0  0  0  0
    4.1466   -1.8384    2.2552 H   0  0  0  0  0  0  0  0  0  0  0  0
    4.9689   -3.3110    1.9188 H   0  0  0  0  0  0  0  0  0  0  0  0
   -1.4637    0.4924   -2.9135 H   0  0  0  0  0  0  0  0  0  0  0  0
    0.7134   -3.1583    0.5173 H   0  0  0  0  0  0  0  0  0  0  0  0
    1.5847   -1.8738   -1.6939 H   0  0  0  0  0  0  0  0  0  0  0  0
    0.2225   -2.4236   -2.5029 H   0  0  0  0  0  0  0  0  0  0  0  0
    1.0575   -5.3127   -0.2758 H   0  0  0  0  0  0  0  0  0  0  0  0
    0.6406   -4.8665   -1.9131 H   0  0  0  0  0  0  0  0  0  0  0  0
    0.3034   -0.0634   -2.1745 H   0  0  0  0  0  0  0  0  0  0  0  0
    3.0412   -5.1106   -1.7480 H   0  0  0  0  0  0  0  0  0  0  0  0
    2.7738   -3.4328   -2.0363 H   0  0  0  0  0  0  0  0  0  0  0  0
    3.0029   -1.1958   -0.5973 H   0  0  0  0  0  0  0  0  0  0  0  0
    1.6585   -1.7222    0.5097 H   0  0  0  0  0  0  0  0  0  0  0  0
    2.8778   -0.8303    1.1321 H   0  0  0  0  0  0  0  0  0  0  0  0
  2 12  1  0  0  0  0
  2 19  1  0  0  0  0
  3 12  2  0  0  0  0
  4 15  1  0  0  0  0
  4 16  1  0  0  0  0
  5 11  1  0  0  0  0
  5 13  2  0  0  0  0
  6 13  1  0  0  0  0
  6 17  1  0  0  0  0
  6 18  1  0  0  0  0
  7  9  1  0  0  0  0
  7 20  1  1  0  0  0
  7  8  1  0  0  0  0
  7  1  1  0  0  0  0
  8 21  1  0  0  0  0
  8 22  1  0  0  0  0
  9 11  1  0  0  0  0
  9 23  1  0  0  0  0
  9 24  1  0  0  0  0
 10 12  1  0  0  0  0
 10 25  1  6  0  0  0
 10  8  1  0  0  0  0
 10  4  1  0  0  0  0
 11 26  1  0  0  0  0
 11 27  1  0  0  0  0
 13 14  1  0  0  0  0
 14 28  1  0  0  0  0
 14 29  1  0  0  0  0
 14 30  1  0  0  0  0
M  END
>  <DRUGBANK_ID>
DB01835

>  <SECONDARY_ACCESSION_NUMBERS>
EXPT01816

>  <COMMON_NAME>
4R-Fluoro-N6-ethanimidoyl-L-lysine

$$$$
