
 OpenBabel10282417183D

 31 32  0  0  0  0  0  0  0  0999 V2000
    1.3657   -0.3962    0.3446 C   0  0  0  0  0  0  0  0  0  0  0  0
    0.7581   -1.6006   -0.0749 O   0  0  0  0  0  0  0  0  0  0  0  0
    0.9815   -1.8932   -1.4606 C   0  0  0  0  0  0  0  0  0  0  0  0
    0.3430   -0.9303   -2.5416 C   0  0  3  0  0  0  0  0  0  0  0  0
    1.1306    0.3990   -2.6275 C   0  0  0  0  0  0  0  0  0  0  0  0
    2.3246    0.4566   -2.8841 O   0  0  0  0  0  0  0  0  0  0  0  0
    0.2727    1.6564   -2.4084 C   0  0  3  0  0  0  0  0  0  0  0  0
   -0.5590    1.5781   -1.1149 C   0  0  0  0  0  0  0  0  0  0  0  0
   -1.3327    0.2374   -1.0937 C   0  0  0  0  0  0  0  0  0  0  0  0
   -1.1179   -0.5435   -2.3446 N   0  0  3  0  0  0  0  0  0  0  0  0
   -1.5781    0.3430   -3.4510 C   0  0  0  0  0  0  0  0  0  0  0  0
   -0.7415    1.6376   -3.5458 C   0  0  0  0  0  0  0  0  0  0  0  0
    0.5633   -1.6568   -3.9174 C   0  0  0  0  0  0  0  0  0  0  0  0
    1.9227   -2.0349   -4.1552 O   0  0  0  0  0  0  0  0  0  0  0  0
    0.8319    0.0034    1.2115 H   0  0  0  0  0  0  0  0  0  0  0  0
    1.2712    0.3318   -0.4302 H   0  0  0  0  0  0  0  0  0  0  0  0
    2.4383   -0.4687    0.4935 H   0  0  0  0  0  0  0  0  0  0  0  0
    2.0680   -1.9677   -1.5963 H   0  0  0  0  0  0  0  0  0  0  0  0
    0.5791   -2.9044   -1.6108 H   0  0  0  0  0  0  0  0  0  0  0  0
    0.9147    2.5427   -2.4230 H   0  0  0  0  0  0  0  0  0  0  0  0
    0.0533    1.7400   -0.2218 H   0  0  0  0  0  0  0  0  0  0  0  0
   -1.2707    2.4113   -1.0744 H   0  0  0  0  0  0  0  0  0  0  0  0
   -1.1276   -0.3595   -0.2042 H   0  0  0  0  0  0  0  0  0  0  0  0
   -2.4025    0.4547   -0.9827 H   0  0  0  0  0  0  0  0  0  0  0  0
   -1.5722   -0.1824   -4.4091 H   0  0  0  0  0  0  0  0  0  0  0  0
   -2.6320    0.5980   -3.2871 H   0  0  0  0  0  0  0  0  0  0  0  0
   -1.3980    2.5104   -3.4504 H   0  0  0  0  0  0  0  0  0  0  0  0
   -0.2317    1.6990   -4.5119 H   0  0  0  0  0  0  0  0  0  0  0  0
   -0.0311   -2.5780   -3.9510 H   0  0  0  0  0  0  0  0  0  0  0  0
    0.2724   -1.0442   -4.7740 H   0  0  0  0  0  0  0  0  0  0  0  0
    2.4637   -1.2179   -4.1258 H   0  0  0  0  0  0  0  0  0  0  0  0
  1  2  1  0  0  0  0
  1 15  1  0  0  0  0
  1 16  1  0  0  0  0
  1 17  1  0  0  0  0
  2  3  1  0  0  0  0
  3  4  1  0  0  0  0
  3 18  1  0  0  0  0
  3 19  1  0  0  0  0
  4  5  1  0  0  0  0
  4 10  1  0  0  0  0
  4 13  1  0  0  0  0
  5  6  2  0  0  0  0
  5  7  1  0  0  0  0
  7  8  1  0  0  0  0
  7 12  1  0  0  0  0
  7 20  1  0  0  0  0
  8  9  1  0  0  0  0
  8 21  1  0  0  0  0
  8 22  1  0  0  0  0
  9 10  1  0  0  0  0
  9 23  1  0  0  0  0
  9 24  1  0  0  0  0
 10 11  1  0  0  0  0
 11 12  1  0  0  0  0
 11 25  1  0  0  0  0
 11 26  1  0  0  0  0
 12 27  1  0  0  0  0
 12 28  1  0  0  0  0
 13 14  1  0  0  0  0
 13 29  1  0  0  0  0
 13 30  1  0  0  0  0
 14 31  1  0  0  0  0
M  END
>  <DRUGBANK_ID>
DB11684

>  <COMMON_NAME>
Eprenetapopt

>  <CAS_NUMBER>
5291-32-7

>  <UNII>
Z41TGB4080

>  <SYNONYMS>
1-Azabicyclo(2.2.2)octan-3-one, 2-(hydroxymethyl)-2-(methoxymethyl)-; 2-(hydroxymethyl)-2-(methoxymethyl)-1-azabicyclo[2.2.2]octan-3-one; 2-hydroxymethyl-2-methoxymethyl-1-azabicyclo[2,2,2]octan-3-one; 3-QUINUCLIDINONE, 2-(HYDROXYMETHYL)-2-(METHOXYMETHYL)-

$$$$
