
 OpenBabel10282417113D

 42 44  0  0  0  0  0  0  0  0999 V2000
   -0.0480   -1.0330   -0.9195 C   0  0  0  0  0  0  0  0  0  0  0  0
   -1.3178   -0.6291   -0.3316 C   0  0  0  0  0  0  0  0  0  0  0  0
    1.2494   -0.5313   -0.4007 C   0  0  0  0  0  0  0  0  0  0  0  0
   -1.6316    0.7275   -0.2926 C   0  0  0  0  0  0  0  0  0  0  0  0
   -2.1614   -1.6037    0.2091 C   0  0  0  0  0  0  0  0  0  0  0  0
    1.4325    0.7956    0.0355 C   0  0  0  0  0  0  0  0  0  0  0  0
    2.3115   -1.4489   -0.2641 C   0  0  0  0  0  0  0  0  0  0  0  0
   -1.2332   -2.2795   -2.8548 C   0  0  0  0  0  0  0  0  0  0  0  0
   -0.6293    1.7051   -0.8491 C   0  0  0  0  0  0  0  0  0  0  0  0
   -2.8447    1.1046    0.2814 C   0  0  0  0  0  0  0  0  0  0  0  0
   -3.3664   -1.2226    0.7702 C   0  0  0  0  0  0  0  0  0  0  0  0
    0.5224    1.8282   -0.0047 O   0  0  0  0  0  0  0  0  0  0  0  0
    2.6535    1.1533    0.6263 C   0  0  0  0  0  0  0  0  0  0  0  0
    3.5237   -1.0743    0.3052 C   0  0  0  0  0  0  0  0  0  0  0  0
   -1.2664   -1.7021   -4.2913 C   0  0  0  0  0  0  0  0  0  0  0  0
   -3.7063    0.1298    0.8042 C   0  0  0  0  0  0  0  0  0  0  0  0
    3.6905    0.2256    0.7616 C   0  0  0  0  0  0  0  0  0  0  0  0
   -0.1852   -2.1412   -5.2025 N   0  0  0  0  0  0  0  0  0  0  0  0
   -0.4036   -1.6024   -6.5453 C   0  0  0  0  0  0  0  0  0  0  0  0
    1.1408   -1.7073   -4.7692 C   0  0  0  0  0  0  0  0  0  0  0  0
   -0.0736   -1.8156   -2.0030 C   0  0  0  0  0  0  0  0  0  0  0  0
    0.8881   -2.1841   -2.3161 H   0  0  0  0  0  0  0  0  0  0  0  0
   -1.8740   -2.6526    0.1726 H   0  0  0  0  0  0  0  0  0  0  0  0
    2.1915   -2.4837   -0.5770 H   0  0  0  0  0  0  0  0  0  0  0  0
   -1.2169   -3.3733   -2.8967 H   0  0  0  0  0  0  0  0  0  0  0  0
   -2.1894   -2.0082   -2.3957 H   0  0  0  0  0  0  0  0  0  0  0  0
   -0.3337    1.4533   -1.8780 H   0  0  0  0  0  0  0  0  0  0  0  0
   -1.0900    2.6975   -0.9192 H   0  0  0  0  0  0  0  0  0  0  0  0
   -3.1243    2.1525    0.3344 H   0  0  0  0  0  0  0  0  0  0  0  0
   -4.0268   -1.9803    1.1791 H   0  0  0  0  0  0  0  0  0  0  0  0
    2.7954    2.1658    0.9962 H   0  0  0  0  0  0  0  0  0  0  0  0
    4.3176   -1.8085    0.4104 H   0  0  0  0  0  0  0  0  0  0  0  0
   -2.2230   -2.0353   -4.7231 H   0  0  0  0  0  0  0  0  0  0  0  0
   -1.3258   -0.6051   -4.2466 H   0  0  0  0  0  0  0  0  0  0  0  0
   -4.6487    0.4274    1.2535 H   0  0  0  0  0  0  0  0  0  0  0  0
    4.6245    0.5153    1.2343 H   0  0  0  0  0  0  0  0  0  0  0  0
   -0.4063   -0.5064   -6.5474 H   0  0  0  0  0  0  0  0  0  0  0  0
    0.3979   -1.9431   -7.2115 H   0  0  0  0  0  0  0  0  0  0  0  0
   -1.3426   -1.9655   -6.9715 H   0  0  0  0  0  0  0  0  0  0  0  0
    1.1554   -0.6522   -4.4702 H   0  0  0  0  0  0  0  0  0  0  0  0
    1.5037   -2.3478   -3.9728 H   0  0  0  0  0  0  0  0  0  0  0  0
    1.9004   -1.8649   -5.5389 H   0  0  0  0  0  0  0  0  0  0  0  0
  1  2  1  0  0  0  0
  1  3  1  0  0  0  0
  1 21  2  3  0  0  0
  2  4  1  0  0  0  0
  2  5  2  0  0  0  0
  3  6  1  0  0  0  0
  3  7  2  0  0  0  0
  4  9  1  0  0  0  0
  4 10  2  0  0  0  0
  5 11  1  0  0  0  0
  5 23  1  0  0  0  0
  6 12  1  0  0  0  0
  6 13  2  0  0  0  0
  7 14  1  0  0  0  0
  7 24  1  0  0  0  0
  8 15  1  0  0  0  0
  8 25  1  0  0  0  0
  8 26  1  0  0  0  0
  9 12  1  0  0  0  0
  9 27  1  0  0  0  0
  9 28  1  0  0  0  0
 10 16  1  0  0  0  0
 10 29  1  0  0  0  0
 11 16  2  0  0  0  0
 11 30  1  0  0  0  0
 13 17  1  0  0  0  0
 13 31  1  0  0  0  0
 14 17  2  0  0  0  0
 14 32  1  0  0  0  0
 15 18  1  0  0  0  0
 15 33  1  0  0  0  0
 15 34  1  0  0  0  0
 16 35  1  0  0  0  0
 17 36  1  0  0  0  0
 18 19  1  0  0  0  0
 18 20  1  0  0  0  0
 19 37  1  0  0  0  0
 19 38  1  0  0  0  0
 19 39  1  0  0  0  0
 20 40  1  0  0  0  0
 20 41  1  0  0  0  0
 20 42  1  0  0  0  0
 21  8  1  0  0  0  0
 21 22  1  0  0  0  0
M  END
>  <DRUGBANK_ID>
DB01142

>  <SECONDARY_ACCESSION_NUMBERS>
APRD00398

>  <COMMON_NAME>
Doxepin

>  <CAS_NUMBER>
1668-19-5

>  <UNII>
5ASJ6HUZ7D

>  <SYNONYMS>
Doxepin; Doxepina; Doxepinum

$$$$
