
 OpenBabel10282417183D

 49 52  0  0  0  0  0  0  0  0999 V2000
    0.7152   -0.4975   -0.4462 O   0  0  0  0  0  0  0  0  0  0  0  0
   -0.5638   -0.0285  -10.5208 O   0  0  0  0  0  0  0  0  0  0  0  0
   -0.4513   -0.2409   -3.0645 C   0  0  2  0  0  0  0  0  0  0  0  0
   -0.6877    1.1947   -2.1964 C   0  0  1  0  0  0  0  0  0  0  0  0
   -1.2679   -0.3405   -4.3482 C   0  0  1  0  0  0  0  0  0  0  0  0
    0.1800    0.5975   -1.1291 C   0  0  2  0  0  0  0  0  0  0  0  0
   -0.9995    0.8566   -5.2209 C   0  0  0  0  0  0  0  0  0  0  0  0
    1.0274   -0.4510   -3.1456 C   0  0  0  0  0  0  0  0  0  0  0  0
   -0.9476    2.2866   -3.2044 C   0  0  0  0  0  0  0  0  0  0  0  0
    1.3424    0.7238   -2.3034 C   0  0  0  0  0  0  0  0  0  0  0  0
   -0.9413    0.6436   -6.5462 C   0  0  0  0  0  0  0  0  0  0  0  0
   -1.1529   -1.7388   -5.0106 C   0  0  0  0  0  0  0  0  0  0  0  0
   -1.0418    2.1396   -4.5389 C   0  0  0  0  0  0  0  0  0  0  0  0
   -0.0712    2.3400   -0.8353 C   0  0  0  0  0  0  0  0  0  0  0  0
   -0.4380   -0.6532   -7.0486 C   0  0  0  0  0  0  0  0  0  0  0  0
   -1.5868    0.5903   -0.5882 C   0  0  0  0  0  0  0  0  0  0  0  0
   -0.0557   -1.7165   -6.0428 C   0  0  0  0  0  0  0  0  0  0  0  0
   -1.5134    1.5879   -7.5853 C   0  0  0  0  0  0  0  0  0  0  0  0
   -0.3125   -0.8932   -8.3592 C   0  0  0  0  0  0  0  0  0  0  0  0
   -2.4246   -0.5493   -1.0463 C   0  0  0  0  0  0  0  0  0  0  0  0
   -0.5067    0.2172   -9.3202 C   0  0  0  0  0  0  0  0  0  0  0  0
   -0.5722    1.6246   -8.7622 C   0  0  0  0  0  0  0  0  0  0  0  0
   -2.7159   -1.5205   -0.2516 C   0  0  0  0  0  0  0  0  0  0  0  0
   -0.7775   -1.1506   -2.5314 H   0  0  0  0  0  0  0  0  0  0  0  0
   -2.3429   -0.2621   -4.1143 H   0  0  0  0  0  0  0  0  0  0  0  0
    1.5997   -0.1694   -0.1574 H   0  0  0  0  0  0  0  0  0  0  0  0
    1.4940   -0.4241   -4.1195 H   0  0  0  0  0  0  0  0  0  0  0  0
    1.3084   -1.3726   -2.6200 H   0  0  0  0  0  0  0  0  0  0  0  0
   -1.0937    3.2804   -2.7913 H   0  0  0  0  0  0  0  0  0  0  0  0
    1.3240    1.6413   -2.9325 H   0  0  0  0  0  0  0  0  0  0  0  0
    2.3745    0.7251   -1.9503 H   0  0  0  0  0  0  0  0  0  0  0  0
   -2.0931   -2.0075   -5.5186 H   0  0  0  0  0  0  0  0  0  0  0  0
   -0.9920   -2.5275   -4.2666 H   0  0  0  0  0  0  0  0  0  0  0  0
   -1.0465    3.0469   -5.1346 H   0  0  0  0  0  0  0  0  0  0  0  0
    0.7987    2.9109   -1.1483 H   0  0  0  0  0  0  0  0  0  0  0  0
   -0.8759    2.9754   -0.4497 H   0  0  0  0  0  0  0  0  0  0  0  0
    0.2007    1.8870    0.2099 H   0  0  0  0  0  0  0  0  0  0  0  0
   -1.6573    0.7744    0.4929 H   0  0  0  0  0  0  0  0  0  0  0  0
   -2.1973    1.4868   -0.9297 H   0  0  0  0  0  0  0  0  0  0  0  0
    0.0780   -2.7101   -6.4832 H   0  0  0  0  0  0  0  0  0  0  0  0
    0.9113   -1.4975   -5.5848 H   0  0  0  0  0  0  0  0  0  0  0  0
   -1.7308    2.5930   -7.2108 H   0  0  0  0  0  0  0  0  0  0  0  0
   -2.4883    1.1879   -7.9172 H   0  0  0  0  0  0  0  0  0  0  0  0
   -0.0353   -1.8628   -8.7508 H   0  0  0  0  0  0  0  0  0  0  0  0
   -2.6248   -0.6313   -2.1173 H   0  0  0  0  0  0  0  0  0  0  0  0
    0.4201    1.9519   -8.4343 H   0  0  0  0  0  0  0  0  0  0  0  0
   -0.9313    2.3086   -9.5358 H   0  0  0  0  0  0  0  0  0  0  0  0
   -2.9767   -2.4686   -0.7127 H   0  0  0  0  0  0  0  0  0  0  0  0
   -2.5798   -1.3897    0.8219 H   0  0  0  0  0  0  0  0  0  0  0  0
  1 26  1  0  0  0  0
  2 21  2  0  0  0  0
  3  4  1  0  0  0  0
  3  5  1  0  0  0  0
  3  8  1  0  0  0  0
  3 24  1  6  0  0  0
  4  6  1  0  0  0  0
  4  9  1  0  0  0  0
  4 14  1  1  0  0  0
  5  7  1  0  0  0  0
  5 12  1  0  0  0  0
  5 25  1  1  0  0  0
  6  1  1  6  0  0  0
  6 10  1  0  0  0  0
  6 16  1  0  0  0  0
  7 11  2  0  0  0  0
  7 13  1  0  0  0  0
  8 10  1  0  0  0  0
  8 27  1  0  0  0  0
  8 28  1  0  0  0  0
  9 13  2  0  0  0  0
  9 29  1  0  0  0  0
 10 30  1  0  0  0  0
 10 31  1  0  0  0  0
 11 15  1  0  0  0  0
 11 18  1  0  0  0  0
 12 17  1  0  0  0  0
 12 32  1  0  0  0  0
 12 33  1  0  0  0  0
 13 34  1  0  0  0  0
 14 35  1  0  0  0  0
 14 36  1  0  0  0  0
 14 37  1  0  0  0  0
 15 17  1  0  0  0  0
 15 19  2  0  0  0  0
 16 20  1  0  0  0  0
 16 38  1  0  0  0  0
 16 39  1  0  0  0  0
 17 40  1  0  0  0  0
 17 41  1  0  0  0  0
 18 22  1  0  0  0  0
 18 42  1  0  0  0  0
 18 43  1  0  0  0  0
 19 21  1  0  0  0  0
 19 44  1  0  0  0  0
 20 23  2  0  0  0  0
 20 45  1  0  0  0  0
 21 22  1  0  0  0  0
 22 46  1  0  0  0  0
 22 47  1  0  0  0  0
 23 48  1  0  0  0  0
 23 49  1  0  0  0  0
M  END
>  <DRUGBANK_ID>
DB11372

>  <COMMON_NAME>
Altrenogest

>  <CAS_NUMBER>
850-52-2

>  <UNII>
2U0X0JA2NB

>  <SYNONYMS>
17-alpha-Allyl-estratriene-4,9,11,17-beta-ol-3-one; Allyl trenbolone; Allyltrenbolone; Altrenogest; Altrenogestum

$$$$
