662
 OpenBabel10282417103D

 56 57  0  0  0  0  0  0  0  0999 V2000
    1.1482    0.0152    0.4937 O   0  0  0  0  0  0  0  0  0  0  0  0
    9.5462    5.5691    1.4844 O   0  0  0  0  0  0  0  0  0  0  0  0
    9.9634    1.0149    3.1271 O   0  0  0  0  0  0  0  0  0  0  0  0
   10.1093    3.7940    3.6443 O   0  0  0  0  0  0  0  0  0  0  0  0
    8.3728    2.4365   -2.3234 O   0  0  0  0  0  0  0  0  0  0  0  0
    2.1439   -2.2010   -1.6057 N   0  0  0  0  0  0  0  0  0  0  0  0
    7.2275    0.7672   -1.3053 N   0  0  0  0  0  0  0  0  0  0  0  0
    0.7405   -1.9181   -1.2738 C   0  0  0  0  0  0  0  0  0  0  0  0
    5.2349    0.0477    0.0379 C   0  0  0  0  0  0  0  0  0  0  0  0
    6.7088    0.0156   -0.1828 C   0  0  0  0  0  0  0  0  0  0  0  0
    0.4871   -1.2267    0.1348 C   0  0  0  0  0  0  0  0  0  0  0  0
    2.5144    0.0160    0.7412 C   0  0  0  0  0  0  0  0  0  0  0  0
    8.5351    2.4097    0.0260 C   0  0  0  0  0  0  0  0  0  0  0  0
    4.6125   -1.1415    0.4347 C   0  0  0  0  0  0  0  0  0  0  0  0
    4.5076    1.2437    0.0557 C   0  0  0  0  0  0  0  0  0  0  0  0
    3.2743   -1.1538    0.8379 C   0  0  0  0  0  0  0  0  0  0  0  0
    3.1585    1.2359    0.4405 C   0  0  0  0  0  0  0  0  0  0  0  0
    8.0263    1.8852   -1.2673 C   0  0  0  0  0  0  0  0  0  0  0  0
    9.0416    1.5037    0.9584 C   0  0  0  0  0  0  0  0  0  0  0  0
    8.6541    3.7749    0.2789 C   0  0  0  0  0  0  0  0  0  0  0  0
    9.2927    4.2123    1.4567 C   0  0  0  0  0  0  0  0  0  0  0  0
    9.5372    1.9097    2.1893 C   0  0  0  0  0  0  0  0  0  0  0  0
    9.6564    3.2783    2.4597 C   0  0  0  0  0  0  0  0  0  0  0  0
    2.4127   -3.1592   -2.6624 C   0  0  0  0  0  0  0  0  0  0  0  0
    2.8021   -0.9724   -2.0437 C   0  0  0  0  0  0  0  0  0  0  0  0
   10.4367    6.0365    2.5001 C   0  0  0  0  0  0  0  0  0  0  0  0
    9.8255   -0.3707    2.8733 C   0  0  0  0  0  0  0  0  0  0  0  0
   10.4674    2.9437    4.7173 C   0  0  0  0  0  0  0  0  0  0  0  0
    7.0284    0.4266   -2.2403 H   0  0  0  0  0  0  0  0  0  0  0  0
    0.1735   -2.8625   -1.2489 H   0  0  0  0  0  0  0  0  0  0  0  0
    0.2924   -1.3197   -2.0762 H   0  0  0  0  0  0  0  0  0  0  0  0
    7.0440    0.4229    0.7623 H   0  0  0  0  0  0  0  0  0  0  0  0
    7.1084   -1.0025   -0.2615 H   0  0  0  0  0  0  0  0  0  0  0  0
    0.6094   -1.9415    0.9543 H   0  0  0  0  0  0  0  0  0  0  0  0
   -0.5834   -0.9731    0.1325 H   0  0  0  0  0  0  0  0  0  0  0  0
    5.1155   -2.0919    0.2518 H   0  0  0  0  0  0  0  0  0  0  0  0
    4.9690    2.1656   -0.2981 H   0  0  0  0  0  0  0  0  0  0  0  0
    2.8057   -2.1290    0.9239 H   0  0  0  0  0  0  0  0  0  0  0  0
    2.5783    2.1483    0.3215 H   0  0  0  0  0  0  0  0  0  0  0  0
    9.0305    0.4512    0.7114 H   0  0  0  0  0  0  0  0  0  0  0  0
    8.2893    4.4964   -0.4507 H   0  0  0  0  0  0  0  0  0  0  0  0
    2.1914   -2.7240   -3.6419 H   0  0  0  0  0  0  0  0  0  0  0  0
    3.4891   -3.3876   -2.6360 H   0  0  0  0  0  0  0  0  0  0  0  0
    1.8846   -4.1062   -2.5506 H   0  0  0  0  0  0  0  0  0  0  0  0
    2.5137   -0.5935   -3.0188 H   0  0  0  0  0  0  0  0  0  0  0  0
    2.5162   -0.1514   -1.4229 H   0  0  0  0  0  0  0  0  0  0  0  0
    3.8843   -1.1129   -2.0034 H   0  0  0  0  0  0  0  0  0  0  0  0
    9.9263    6.0307    3.4687 H   0  0  0  0  0  0  0  0  0  0  0  0
   11.3772    5.4679    2.5255 H   0  0  0  0  0  0  0  0  0  0  0  0
   10.7033    7.0768    2.3007 H   0  0  0  0  0  0  0  0  0  0  0  0
    8.7681   -0.6446    2.8070 H   0  0  0  0  0  0  0  0  0  0  0  0
   10.3776   -0.6625    1.9749 H   0  0  0  0  0  0  0  0  0  0  0  0
   10.2662   -0.9013    3.7202 H   0  0  0  0  0  0  0  0  0  0  0  0
    9.6041    2.3632    5.0572 H   0  0  0  0  0  0  0  0  0  0  0  0
   11.3250    2.3182    4.4505 H   0  0  0  0  0  0  0  0  0  0  0  0
   10.7854    3.5740    5.5509 H   0  0  0  0  0  0  0  0  0  0  0  0
  1 11  1  0  0  0  0
  1 12  1  0  0  0  0
  2 21  1  0  0  0  0
  2 26  1  0  0  0  0
  3 22  1  0  0  0  0
  3 27  1  0  0  0  0
  4 23  1  0  0  0  0
  4 28  1  0  0  0  0
  5 18  2  0  0  0  0
  6  8  1  0  0  0  0
  6 24  1  0  0  0  0
  6 25  1  0  0  0  0
  7 10  1  0  0  0  0
  7 18  1  0  0  0  0
  7 29  1  0  0  0  0
  8 11  1  0  0  0  0
  8 30  1  0  0  0  0
  8 31  1  0  0  0  0
  9 10  1  0  0  0  0
  9 14  2  0  0  0  0
  9 15  1  0  0  0  0
 10 32  1  0  0  0  0
 10 33  1  0  0  0  0
 11 34  1  0  0  0  0
 11 35  1  0  0  0  0
 12 16  2  0  0  0  0
 12 17  1  0  0  0  0
 13 18  1  0  0  0  0
 13 19  2  0  0  0  0
 13 20  1  0  0  0  0
 14 16  1  0  0  0  0
 14 36  1  0  0  0  0
 15 17  2  0  0  0  0
 15 37  1  0  0  0  0
 16 38  1  0  0  0  0
 17 39  1  0  0  0  0
 19 22  1  0  0  0  0
 19 40  1  0  0  0  0
 20 21  2  0  0  0  0
 20 41  1  0  0  0  0
 21 23  1  0  0  0  0
 22 23  2  0  0  0  0
 24 42  1  0  0  0  0
 24 43  1  0  0  0  0
 24 44  1  0  0  0  0
 25 45  1  0  0  0  0
 25 46  1  0  0  0  0
 25 47  1  0  0  0  0
 26 48  1  0  0  0  0
 26 49  1  0  0  0  0
 26 50  1  0  0  0  0
 27 51  1  0  0  0  0
 27 52  1  0  0  0  0
 27 53  1  0  0  0  0
 28 54  1  0  0  0  0
 28 55  1  0  0  0  0
 28 56  1  0  0  0  0
M  END
>  <DRUGBANK_ID>
DB00662

>  <SECONDARY_ACCESSION_NUMBERS>
APRD01277

>  <COMMON_NAME>
Trimethobenzamide

>  <CAS_NUMBER>
138-56-7

>  <UNII>
W2X096QY97

>  <SYNONYMS>
N-[[4-(2-dimethylaminoethoxy)phenyl]methyl]-3,4,5-trimethoxybenzamide; Trimethobenzamide; Trimethobenzamidum; Trimetobenzamida

$$$$
