1348
 OpenBabel10282417113D

 61 63  0  0  1  0  0  0  0  0999 V2000
   -0.9252   -0.1204    1.5080 S   0  0  0  0  0  0  0  0  0  0  0  0
   -1.0264    0.0765   -1.5033 S   0  0  0  0  0  0  0  0  0  0  0  0
    2.9923    2.7844   -0.9069 O   0  0  0  0  0  0  0  0  0  0  0  0
    3.6344   -2.4392    0.4265 O   0  0  0  0  0  0  0  0  0  0  0  0
    2.8722   -2.1556   -1.6932 O   0  0  0  0  0  0  0  0  0  0  0  0
    7.1222   -1.9702    1.8750 O   0  0  0  0  0  0  0  0  0  0  0  0
    5.8005   -0.3619    2.7058 O   0  0  0  0  0  0  0  0  0  0  0  0
    2.2200    0.7054   -0.4027 N   0  0  0  0  0  0  0  0  0  0  0  0
    5.0925    0.5254    0.3556 N   0  0  0  0  0  0  0  0  0  0  0  0
    0.0019    0.0348   -0.0225 C   0  0  0  0  0  0  0  0  0  0  0  0
    0.8535   -1.1993   -0.0756 C   0  0  0  0  0  0  0  0  0  0  0  0
    2.2585   -0.6443    0.1256 C   0  0  1  0  0  0  0  0  0  0  0  0
    0.9232    1.2525   -0.0830 C   0  0  0  0  0  0  0  0  0  0  0  0
    3.2296    1.5819   -0.7397 C   0  0  0  0  0  0  0  0  0  0  0  0
   -2.4736    0.3846    0.7890 C   0  0  0  0  0  0  0  0  0  0  0  0
   -2.5771   -0.0890   -0.6490 C   0  0  0  0  0  0  0  0  0  0  0  0
    2.9723   -1.7751   -0.5161 C   0  0  0  0  0  0  0  0  0  0  0  0
    4.6772    1.0935   -0.9176 C   0  0  2  0  0  0  0  0  0  0  0  0
    6.4475   -0.0518    0.3738 C   0  0  1  0  0  0  0  0  0  0  0  0
    4.8621    0.0834   -2.0348 C   0  0  0  0  0  0  0  0  0  0  0  0
    7.5339    0.9708   -0.0414 C   0  0  0  0  0  0  0  0  0  0  0  0
    7.7132    2.1497    0.9021 C   0  0  0  0  0  0  0  0  0  0  0  0
    6.4393   -0.8018    1.7446 C   0  0  0  0  0  0  0  0  0  0  0  0
    8.3110    1.7492    2.2282 C   0  0  0  0  0  0  0  0  0  0  0  0
    8.3259    2.6713    3.2642 C   0  0  0  0  0  0  0  0  0  0  0  0
    8.6818    0.4361    2.5269 C   0  0  0  0  0  0  0  0  0  0  0  0
    7.3278   -2.9163    0.8056 C   0  0  0  0  0  0  0  0  0  0  0  0
    8.4904    2.2334    4.5790 C   0  0  0  0  0  0  0  0  0  0  0  0
    8.5651   -0.0317    3.8323 C   0  0  0  0  0  0  0  0  0  0  0  0
    8.5120    0.8728    4.8704 C   0  0  0  0  0  0  0  0  0  0  0  0
    5.9955   -3.2653    0.2343 C   0  0  0  0  0  0  0  0  0  0  0  0
    3.9437   -1.8226    1.1328 H   0  0  0  0  0  0  0  0  0  0  0  0
    5.0313    1.2259    1.1069 H   0  0  0  0  0  0  0  0  0  0  0  0
    0.7475   -1.7056   -1.0486 H   0  0  0  0  0  0  0  0  0  0  0  0
    0.6463   -2.0074    0.6446 H   0  0  0  0  0  0  0  0  0  0  0  0
    2.4626   -0.5866    1.2078 H   0  0  0  0  0  0  0  0  0  0  0  0
    0.9853    1.7744    0.8819 H   0  0  0  0  0  0  0  0  0  0  0  0
    0.6554    1.9961   -0.8389 H   0  0  0  0  0  0  0  0  0  0  0  0
   -3.2763   -0.0453    1.3865 H   0  0  0  0  0  0  0  0  0  0  0  0
   -2.5062    1.4732    0.8611 H   0  0  0  0  0  0  0  0  0  0  0  0
   -2.8655   -1.1401   -0.7112 H   0  0  0  0  0  0  0  0  0  0  0  0
   -3.2925    0.5225   -1.1962 H   0  0  0  0  0  0  0  0  0  0  0  0
    5.2671    1.9891   -1.1463 H   0  0  0  0  0  0  0  0  0  0  0  0
    6.5476   -0.8041   -0.3970 H   0  0  0  0  0  0  0  0  0  0  0  0
    4.2902    0.3133   -2.9306 H   0  0  0  0  0  0  0  0  0  0  0  0
    5.9031   -0.1322   -2.2928 H   0  0  0  0  0  0  0  0  0  0  0  0
    4.5494   -0.8761   -1.6793 H   0  0  0  0  0  0  0  0  0  0  0  0
    8.4923    0.4696   -0.2170 H   0  0  0  0  0  0  0  0  0  0  0  0
    7.2843    1.3715   -1.0357 H   0  0  0  0  0  0  0  0  0  0  0  0
    8.3223    2.9248    0.4259 H   0  0  0  0  0  0  0  0  0  0  0  0
    6.7241    2.6052    1.0706 H   0  0  0  0  0  0  0  0  0  0  0  0
    8.1651    3.7232    3.0508 H   0  0  0  0  0  0  0  0  0  0  0  0
    8.8304   -0.3032    1.7461 H   0  0  0  0  0  0  0  0  0  0  0  0
    8.0201   -2.5146    0.0653 H   0  0  0  0  0  0  0  0  0  0  0  0
    7.7466   -3.8224    1.2514 H   0  0  0  0  0  0  0  0  0  0  0  0
    8.5163    2.9542    5.3856 H   0  0  0  0  0  0  0  0  0  0  0  0
    8.3964   -1.0927    4.0199 H   0  0  0  0  0  0  0  0  0  0  0  0
    8.4804    0.5076    5.8906 H   0  0  0  0  0  0  0  0  0  0  0  0
    5.6116   -2.3678   -0.2331 H   0  0  0  0  0  0  0  0  0  0  0  0
    5.9532   -4.0137   -0.5502 H   0  0  0  0  0  0  0  0  0  0  0  0
    5.3483   -3.5557    1.0702 H   0  0  0  0  0  0  0  0  0  0  0  0
  1 10  1  0  0  0  0
  1 15  1  0  0  0  0
  2 10  1  0  0  0  0
  2 16  1  0  0  0  0
  3 14  2  0  0  0  0
  4 17  1  0  0  0  0
  4 32  1  0  0  0  0
  5 17  2  0  0  0  0
  6 23  1  0  0  0  0
  6 27  1  0  0  0  0
  7 23  2  0  0  0  0
  8 12  1  0  0  0  0
  8 13  1  0  0  0  0
  8 14  1  0  0  0  0
  9 33  1  0  0  0  0
 10 11  1  0  0  0  0
 10 13  1  0  0  0  0
 11 12  1  0  0  0  0
 11 34  1  0  0  0  0
 11 35  1  0  0  0  0
 12 17  1  0  0  0  0
 12 36  1  1  0  0  0
 13 37  1  0  0  0  0
 13 38  1  0  0  0  0
 14 18  1  0  0  0  0
 15 16  1  0  0  0  0
 15 39  1  0  0  0  0
 15 40  1  0  0  0  0
 16 41  1  0  0  0  0
 16 42  1  0  0  0  0
 18  9  1  0  0  0  0
 18 20  1  0  0  0  0
 18 43  1  6  0  0  0
 19  9  1  0  0  0  0
 19 21  1  0  0  0  0
 19 23  1  0  0  0  0
 19 44  1  6  0  0  0
 20 45  1  0  0  0  0
 20 46  1  0  0  0  0
 20 47  1  0  0  0  0
 21 22  1  0  0  0  0
 21 48  1  0  0  0  0
 21 49  1  0  0  0  0
 22 24  1  0  0  0  0
 22 50  1  0  0  0  0
 22 51  1  0  0  0  0
 24 25  2  0  0  0  0
 24 26  1  0  0  0  0
 25 28  1  0  0  0  0
 25 52  1  0  0  0  0
 26 29  2  0  0  0  0
 26 53  1  0  0  0  0
 27 31  1  0  0  0  0
 27 54  1  0  0  0  0
 27 55  1  0  0  0  0
 28 30  2  0  0  0  0
 28 56  1  0  0  0  0
 29 30  1  0  0  0  0
 29 57  1  0  0  0  0
 30 58  1  0  0  0  0
 31 59  1  0  0  0  0
 31 60  1  0  0  0  0
 31 61  1  0  0  0  0
M  END
>  <DRUGBANK_ID>
DB01348

>  <COMMON_NAME>
Spirapril

>  <CAS_NUMBER>
83647-97-6

>  <UNII>
96U2K78I3V

>  <SYNONYMS>
Espirapril; Spirapril; Spiraprilum

$$$$
