547
 OpenBabel10282417103D

 56 59  0  0  1  0  0  0  0  0999 V2000
    6.2897   -1.7304    7.3626 F   0  0  0  0  0  0  0  0  0  0  0  0
    4.1852   -2.1688    5.4993 O   0  0  0  0  0  0  0  0  0  0  0  0
    4.0258    1.8298   10.6812 O   0  0  0  0  0  0  0  0  0  0  0  0
    6.7021    3.2911    9.1604 O   0  0  0  0  0  0  0  0  0  0  0  0
    5.3994   -2.6360    0.9805 O   0  0  0  0  0  0  0  0  0  0  0  0
    4.8544    0.7751    6.8641 C   0  0  1  0  0  0  0  0  0  0  0  0
    6.1000    1.3716    7.1658 C   0  0  2  0  0  0  0  0  0  0  0  0
    7.1456   -0.0066    6.2596 C   0  0  1  0  0  0  0  0  0  0  0  0
    6.3367   -1.3102    6.0008 C   0  0  1  0  0  0  0  0  0  0  0  0
    4.2224    1.1982    8.3798 C   0  0  2  0  0  0  0  0  0  0  0  0
    4.4075    2.4621    6.9727 C   0  0  0  0  0  0  0  0  0  0  0  0
    4.3168   -0.5860    6.8439 C   0  0  0  0  0  0  0  0  0  0  0  0
    3.1117    1.8732    7.7650 C   0  0  1  0  0  0  0  0  0  0  0  0
    4.9367   -1.0294    5.6789 C   0  0  2  0  0  0  0  0  0  0  0  0
    6.8021   -2.7191    5.1058 C   0  0  1  0  0  0  0  0  0  0  0  0
    8.4815   -0.8883    6.6055 C   0  0  0  0  0  0  0  0  0  0  0  0
    5.3536    1.6041    5.2097 C   0  0  0  0  0  0  0  0  0  0  0  0
    9.0472   -1.7150    5.1307 C   0  0  0  0  0  0  0  0  0  0  0  0
    7.9291   -2.3313    4.0547 C   0  0  0  0  0  0  0  0  0  0  0  0
    4.5641    2.1229    9.5993 C   0  0  0  0  0  0  0  0  0  0  0  0
    2.0339    0.9203    7.1546 C   0  0  0  0  0  0  0  0  0  0  0  0
    6.7004   -3.7759    6.2988 C   0  0  0  0  0  0  0  0  0  0  0  0
    5.8898   -3.3977    4.0330 C   0  0  0  0  0  0  0  0  0  0  0  0
    7.6856   -2.4840    2.5745 C   0  0  0  0  0  0  0  0  0  0  0  0
    5.3498    3.4337    9.5289 C   0  0  0  0  0  0  0  0  0  0  0  0
    5.3346   -2.5071    3.1631 C   0  0  0  0  0  0  0  0  0  0  0  0
    6.0558   -2.5116    1.9438 C   0  0  0  0  0  0  0  0  0  0  0  0
    6.3774    1.1923    8.2078 H   0  0  0  0  0  0  0  0  0  0  0  0
    7.6095    0.4940    5.4094 H   0  0  0  0  0  0  0  0  0  0  0  0
    4.7377   -2.2918    4.7711 H   0  0  0  0  0  0  0  0  0  0  0  0
    7.0855    2.6535    9.7903 H   0  0  0  0  0  0  0  0  0  0  0  0
    4.2328    0.2649    8.9463 H   0  0  0  0  0  0  0  0  0  0  0  0
    4.5124    3.5429    7.1017 H   0  0  0  0  0  0  0  0  0  0  0  0
    3.8349    2.4913    5.9902 H   0  0  0  0  0  0  0  0  0  0  0  0
    4.3991   -1.1832    7.7636 H   0  0  0  0  0  0  0  0  0  0  0  0
    3.3089   -0.8263    6.5332 H   0  0  0  0  0  0  0  0  0  0  0  0
    2.5714    2.6428    8.3115 H   0  0  0  0  0  0  0  0  0  0  0  0
    4.7312   -0.3889    4.8270 H   0  0  0  0  0  0  0  0  0  0  0  0
    9.2526   -0.3089    7.1246 H   0  0  0  0  0  0  0  0  0  0  0  0
    8.3173   -1.7174    7.3236 H   0  0  0  0  0  0  0  0  0  0  0  0
    6.3794    1.4771    4.8712 H   0  0  0  0  0  0  0  0  0  0  0  0
    4.6880    1.4099    4.3768 H   0  0  0  0  0  0  0  0  0  0  0  0
    5.4830    2.7184    5.2706 H   0  0  0  0  0  0  0  0  0  0  0  0
   10.0086   -1.2319    4.9026 H   0  0  0  0  0  0  0  0  0  0  0  0
    9.4912   -2.6862    5.4053 H   0  0  0  0  0  0  0  0  0  0  0  0
    1.0985    0.9768    7.7127 H   0  0  0  0  0  0  0  0  0  0  0  0
    1.8516    1.0603    6.0825 H   0  0  0  0  0  0  0  0  0  0  0  0
    2.1503   -0.1407    7.3656 H   0  0  0  0  0  0  0  0  0  0  0  0
    7.3156   -3.5656    7.1858 H   0  0  0  0  0  0  0  0  0  0  0  0
    5.6666   -3.6872    6.7003 H   0  0  0  0  0  0  0  0  0  0  0  0
    6.7883   -4.8373    6.0712 H   0  0  0  0  0  0  0  0  0  0  0  0
    6.2125   -4.4032    3.7254 H   0  0  0  0  0  0  0  0  0  0  0  0
    7.5705   -3.5364    2.1230 H   0  0  0  0  0  0  0  0  0  0  0  0
    4.8628    4.1795    8.8951 H   0  0  0  0  0  0  0  0  0  0  0  0
    5.3296    3.8671   10.5348 H   0  0  0  0  0  0  0  0  0  0  0  0
    5.2506   -1.4196    3.2928 H   0  0  0  0  0  0  0  0  0  0  0  0
  2 30  1  0  0  0  0
  3 20  2  0  0  0  0
  4 25  1  0  0  0  0
  4 31  1  0  0  0  0
  5 27  2  0  0  0  0
  6  7  1  0  0  0  0
  6 10  1  0  0  0  0
  6 12  1  0  0  0  0
  6 17  1  1  0  0  0
  7  8  1  0  0  0  0
  7 11  1  0  0  0  0
  7 28  1  6  0  0  0
  8  9  1  0  0  0  0
  8 16  1  0  0  0  0
  8 29  1  1  0  0  0
  9 14  1  0  0  0  0
  9 15  1  0  0  0  0
  9  1  1  6  0  0  0
 10 13  1  0  0  0  0
 10 20  1  0  0  0  0
 10 32  1  1  0  0  0
 11 13  1  0  0  0  0
 11 33  1  0  0  0  0
 11 34  1  0  0  0  0
 12 14  1  0  0  0  0
 12 35  1  0  0  0  0
 12 36  1  0  0  0  0
 13 37  1  1  0  0  0
 13 21  1  0  0  0  0
 14 38  1  6  0  0  0
 14  2  1  0  0  0  0
 15 19  1  0  0  0  0
 15 23  1  0  0  0  0
 15 22  1  1  0  0  0
 16 18  1  0  0  0  0
 16 39  1  0  0  0  0
 16 40  1  0  0  0  0
 17 41  1  0  0  0  0
 17 42  1  0  0  0  0
 17 43  1  0  0  0  0
 18 19  1  0  0  0  0
 18 44  1  0  0  0  0
 18 45  1  0  0  0  0
 19 24  2  0  0  0  0
 20 25  1  0  0  0  0
 21 46  1  0  0  0  0
 21 47  1  0  0  0  0
 21 48  1  0  0  0  0
 22 49  1  0  0  0  0
 22 50  1  0  0  0  0
 22 51  1  0  0  0  0
 23 26  2  0  0  0  0
 23 52  1  0  0  0  0
 24 27  1  0  0  0  0
 24 53  1  0  0  0  0
 25 54  1  0  0  0  0
 25 55  1  0  0  0  0
 26 27  1  0  0  0  0
 26 56  1  0  0  0  0
M  END
>  <DRUGBANK_ID>
DB00547

>  <SECONDARY_ACCESSION_NUMBERS>
APRD00910

>  <COMMON_NAME>
Desoximetasone

>  <CAS_NUMBER>
382-67-2

>  <UNII>
4E07GXB7AU

>  <SYNONYMS>
(11β,16α)-9-fluoro-11,21-dihydroxy-16-methylpregna-1,4-diene-3,20-dione; 9alpha-fluoro-16alpha-methyl-delta(1)-corticosterone; Deoxymethasone; Desoximetason; Desoximetasona; Désoximétasone; Desoximetasone; Desoximetasonum; Desoxymethasone

$$$$
