
 OpenBabel10282417183D

 41 42  0  0  0  0  0  0  0  0999 V2000
    1.0737   -0.0333   -0.1141 C   0  0  3  0  0  0  0  0  0  0  0  0
    0.5917   -1.4293   -0.4508 C   0  0  0  0  0  0  0  0  0  0  0  0
    0.5627    0.3796    1.1619 O   0  0  0  0  0  0  0  0  0  0  0  0
    0.6052    1.0115   -1.1410 C   0  0  0  0  0  0  0  0  0  0  0  0
    1.4722   -2.5009   -0.2737 C   0  0  0  0  0  0  0  0  0  0  0  0
   -0.7380   -1.6909   -0.8150 C   0  0  0  0  0  0  0  0  0  0  0  0
    0.9530   -0.2639    2.3039 C   0  0  0  0  0  0  0  0  0  0  0  0
    1.1157    2.4176   -0.8250 C   0  0  0  0  0  0  0  0  0  0  0  0
    1.0282   -3.8129   -0.4075 C   0  0  0  0  0  0  0  0  0  0  0  0
   -1.1920   -3.0052   -0.9054 C   0  0  0  0  0  0  0  0  0  0  0  0
    2.2750   -0.6758    2.5156 C   0  0  0  0  0  0  0  0  0  0  0  0
    0.0155   -0.3923    3.3457 C   0  0  0  0  0  0  0  0  0  0  0  0
    2.5789    2.4580   -0.8299 N   0  0  0  0  0  0  0  0  0  0  0  0
   -0.3096   -4.0594   -0.7115 C   0  0  0  0  0  0  0  0  0  0  0  0
    2.6742   -1.1930    3.7495 C   0  0  0  0  0  0  0  0  0  0  0  0
    0.4458   -0.8532    4.5978 C   0  0  0  0  0  0  0  0  0  0  0  0
    3.0513    3.7997   -0.5262 C   0  0  0  0  0  0  0  0  0  0  0  0
    1.7641   -1.2614    4.7991 C   0  0  0  0  0  0  0  0  0  0  0  0
   -1.3281   -0.1031    3.3038 O   0  0  0  0  0  0  0  0  0  0  0  0
   -1.9164    0.0581    2.0196 C   0  0  0  0  0  0  0  0  0  0  0  0
    2.1676   -0.0292   -0.1090 H   0  0  0  0  0  0  0  0  0  0  0  0
    0.9164    0.7138   -2.1498 H   0  0  0  0  0  0  0  0  0  0  0  0
   -0.4906    1.0766   -1.1484 H   0  0  0  0  0  0  0  0  0  0  0  0
    2.5075   -2.3226    0.0103 H   0  0  0  0  0  0  0  0  0  0  0  0
   -1.4481   -0.8846   -0.9641 H   0  0  0  0  0  0  0  0  0  0  0  0
    0.7203    3.1018   -1.5855 H   0  0  0  0  0  0  0  0  0  0  0  0
    0.7221    2.7463    0.1450 H   0  0  0  0  0  0  0  0  0  0  0  0
    1.7177   -4.6315   -0.2421 H   0  0  0  0  0  0  0  0  0  0  0  0
   -2.2454   -3.1955   -1.0967 H   0  0  0  0  0  0  0  0  0  0  0  0
    3.0286   -0.5836    1.7416 H   0  0  0  0  0  0  0  0  0  0  0  0
    2.9367    1.8435   -0.0998 H   0  0  0  0  0  0  0  0  0  0  0  0
   -0.6633   -5.0839   -0.7875 H   0  0  0  0  0  0  0  0  0  0  0  0
    3.7022   -1.5126    3.8986 H   0  0  0  0  0  0  0  0  0  0  0  0
   -0.2578   -0.8900    5.4269 H   0  0  0  0  0  0  0  0  0  0  0  0
    2.7112    4.1204    0.4637 H   0  0  0  0  0  0  0  0  0  0  0  0
    4.1448    3.7980   -0.5249 H   0  0  0  0  0  0  0  0  0  0  0  0
    2.7128    4.5151   -1.2803 H   0  0  0  0  0  0  0  0  0  0  0  0
    2.0795   -1.6287    5.7719 H   0  0  0  0  0  0  0  0  0  0  0  0
   -1.6244    1.0155    1.5778 H   0  0  0  0  0  0  0  0  0  0  0  0
   -1.6832   -0.7863    1.3716 H   0  0  0  0  0  0  0  0  0  0  0  0
   -3.0048    0.0744    2.1204 H   0  0  0  0  0  0  0  0  0  0  0  0
  1  2  1  0  0  0  0
  1  3  1  0  0  0  0
  1  4  1  0  0  0  0
  1 21  1  0  0  0  0
  2  5  1  0  0  0  0
  2  6  2  0  0  0  0
  3  7  1  0  0  0  0
  4  8  1  0  0  0  0
  4 22  1  0  0  0  0
  4 23  1  0  0  0  0
  5  9  2  0  0  0  0
  5 24  1  0  0  0  0
  6 10  1  0  0  0  0
  6 25  1  0  0  0  0
  7 11  2  0  0  0  0
  7 12  1  0  0  0  0
  8 13  1  0  0  0  0
  8 26  1  0  0  0  0
  8 27  1  0  0  0  0
  9 14  1  0  0  0  0
  9 28  1  0  0  0  0
 10 14  2  0  0  0  0
 10 29  1  0  0  0  0
 11 15  1  0  0  0  0
 11 30  1  0  0  0  0
 12 16  2  0  0  0  0
 12 19  1  0  0  0  0
 13 17  1  0  0  0  0
 13 31  1  0  0  0  0
 14 32  1  0  0  0  0
 15 18  2  0  0  0  0
 15 33  1  0  0  0  0
 16 18  1  0  0  0  0
 16 34  1  0  0  0  0
 17 35  1  0  0  0  0
 17 36  1  0  0  0  0
 17 37  1  0  0  0  0
 18 38  1  0  0  0  0
 19 20  1  0  0  0  0
 20 39  1  0  0  0  0
 20 40  1  0  0  0  0
 20 41  1  0  0  0  0
M  END
>  <DRUGBANK_ID>
DB09186

>  <COMMON_NAME>
Nisoxetine

>  <CAS_NUMBER>
53179-07-0

>  <UNII>
17NV064B2D

>  <SYNONYMS>
nisoxetina; Nisoxetine

$$$$
