
 OpenBabel10282417123D

 63 65  0  0  1  0  0  0  0  0999 V2000
    1.3370    0.6261    0.8540 C   0  0  0  0  0  0  0  0  0  0  0  0
   -0.7241    1.7037    0.0752 C   0  0  0  0  0  0  0  0  0  0  0  0
    0.4744   -0.0846    0.1692 C   0  0  0  0  0  0  0  0  0  0  0  0
   -1.7403    0.7467   -0.0048 C   0  0  0  0  0  0  0  0  0  0  0  0
   -1.5967   -2.1553   -1.8664 C   0  0  0  0  0  0  0  0  0  0  0  0
    1.7055   -1.0243   -1.1438 C   0  0  0  0  0  0  0  0  0  0  0  0
    0.7860    1.5571    0.1677 C   0  0  0  0  0  0  0  0  0  0  0  0
   -1.1735   -0.3847   -0.1097 C   0  0  0  0  0  0  0  0  0  0  0  0
   -0.5158   -3.2811   -1.4084 C   0  0  2  0  0  0  0  0  0  0  0  0
    0.9999   -1.8942    0.7536 C   0  0  2  0  0  0  0  0  0  0  0  0
    1.8238    2.4351   -0.3385 C   0  0  1  0  0  0  0  0  0  0  0  0
    0.3602   -2.7156   -0.3830 C   0  0  2  0  0  0  0  0  0  0  0  0
    1.6092   -2.6440    1.7730 C   0  0  2  0  0  0  0  0  0  0  0  0
    2.0129   -3.7766    0.1465 C   0  0  1  0  0  0  0  0  0  0  0  0
    0.5296   -4.1300    2.1643 C   0  0  1  0  0  0  0  0  0  0  0  0
    2.5079   -4.5523   -0.8502 C   0  0  1  0  0  0  0  0  0  0  0  0
   -0.5234   -4.6353    1.0983 C   0  0  1  0  0  0  0  0  0  0  0  0
    1.4235    3.0520   -1.6621 C   0  0  0  0  0  0  0  0  0  0  0  0
    1.0848   -4.9213   -1.2456 C   0  0  2  0  0  0  0  0  0  0  0  0
   -1.8538   -3.3820    0.8419 C   0  0  1  0  0  0  0  0  0  0  0  0
    1.7840    3.3157    0.8218 N   0  0  0  0  0  0  0  0  0  0  0  0
   -2.6556   -2.8557   -2.3965 O   0  0  0  0  0  0  0  0  0  0  0  0
    0.8585   -0.0570   -2.0906 O   0  0  0  0  0  0  0  0  0  0  0  0
   -0.3536   -1.4329    1.2335 O   0  0  0  0  0  0  0  0  0  0  0  0
    2.3919   -2.1489    2.7231 O   0  0  0  0  0  0  0  0  0  0  0  0
    3.5271   -2.8891    0.6246 O   0  0  0  0  0  0  0  0  0  0  0  0
    1.3284   -5.2478    2.5238 O   0  0  0  0  0  0  0  0  0  0  0  0
    3.2218   -3.5633   -1.5597 O   0  0  0  0  0  0  0  0  0  0  0  0
    1.0438    4.2129   -1.7141 O   0  0  0  0  0  0  0  0  0  0  0  0
    1.5231    2.2867   -2.7736 O   0  0  0  0  0  0  0  0  0  0  0  0
   -2.2704   -1.6958    0.5631 O   0  0  0  0  0  0  0  0  0  0  0  0
    0.3944   -3.9977   -2.1760 O   0  0  0  0  0  0  0  0  0  0  0  0
   -0.9759   -2.4754    0.3465 O   0  0  0  0  0  0  0  0  0  0  0  0
    0.1925   -5.5036   -0.1509 O   0  0  0  0  0  0  0  0  0  0  0  0
   -0.5295   -3.8688   -0.5730 H   0  0  0  0  0  0  0  0  0  0  0  0
    0.3248   -2.7523    1.2724 H   0  0  0  0  0  0  0  0  0  0  0  0
    2.8255    1.9612   -0.4251 H   0  0  0  0  0  0  0  0  0  0  0  0
    0.6592   -2.1925   -1.1900 H   0  0  0  0  0  0  0  0  0  0  0  0
    2.0076   -2.2481    0.5819 H   0  0  0  0  0  0  0  0  0  0  0  0
    2.0730   -4.2403    1.1142 H   0  0  0  0  0  0  0  0  0  0  0  0
   -0.0279   -3.5362    2.8971 H   0  0  0  0  0  0  0  0  0  0  0  0
    3.1042   -5.0746   -0.0885 H   0  0  0  0  0  0  0  0  0  0  0  0
   -1.1256   -5.4478    1.4891 H   0  0  0  0  0  0  0  0  0  0  0  0
    1.4397   -5.6319   -1.9390 H   0  0  0  0  0  0  0  0  0  0  0  0
   -2.2777   -4.0491    0.0041 H   0  0  0  0  0  0  0  0  0  0  0  0
    2.4844    0.2933    0.9732 H   0  0  0  0  0  0  0  0  0  0  0  0
   -1.0393    2.6660    0.2696 H   0  0  0  0  0  0  0  0  0  0  0  0
    1.6841   -0.6111    0.3201 H   0  0  0  0  0  0  0  0  0  0  0  0
   -2.7777    0.6526   -0.0871 H   0  0  0  0  0  0  0  0  0  0  0  0
   -2.2515   -1.4319   -1.3398 H   0  0  0  0  0  0  0  0  0  0  0  0
   -1.0355   -1.4774   -2.4912 H   0  0  0  0  0  0  0  0  0  0  0  0
    2.5770   -0.2809   -0.9495 H   0  0  0  0  0  0  0  0  0  0  0  0
    2.1765   -1.5321   -1.9181 H   0  0  0  0  0  0  0  0  0  0  0  0
    2.3474    4.1050    0.6087 H   0  0  0  0  0  0  0  0  0  0  0  0
    0.8042    3.6138    0.8801 H   0  0  0  0  0  0  0  0  0  0  0  0
   -2.0942   -3.4462   -2.8915 H   0  0  0  0  0  0  0  0  0  0  0  0
   -0.0873   -0.2096   -1.9625 H   0  0  0  0  0  0  0  0  0  0  0  0
   -0.8080   -1.6771    2.0952 H   0  0  0  0  0  0  0  0  0  0  0  0
    2.0362   -1.2599    2.7414 H   0  0  0  0  0  0  0  0  0  0  0  0
    3.4455   -1.8920    0.5464 H   0  0  0  0  0  0  0  0  0  0  0  0
    1.8219   -5.6072    1.7388 H   0  0  0  0  0  0  0  0  0  0  0  0
    2.6061   -2.9257   -1.9146 H   0  0  0  0  0  0  0  0  0  0  0  0
    1.1827    2.7199   -3.5866 H   0  0  0  0  0  0  0  0  0  0  0  0
  1 46  1  0  0  0  0
  2 47  1  0  0  0  0
  3  1  1  0  0  0  0
  3 48  1  0  0  0  0
  4  2  2  0  0  0  0
  4 49  1  0  0  0  0
  5 50  1  0  0  0  0
  5 51  1  0  0  0  0
  6 52  1  0  0  0  0
  6 53  1  0  0  0  0
  7  1  2  0  0  0  0
  7  2  1  0  0  0  0
  8  3  2  0  0  0  0
  8  4  1  0  0  0  0
  9  5  1  0  0  0  0
  9 35  1  1  0  0  0
 10  6  1  0  0  0  0
 10 36  1  1  0  0  0
 11  7  1  0  0  0  0
 11 21  1  0  0  0  0
 11 37  1  6  0  0  0
 12  9  1  0  0  0  0
 12 24  1  0  0  0  0
 12 38  1  6  0  0  0
 13 10  1  0  0  0  0
 13 25  1  0  0  0  0
 13 39  1  6  0  0  0
 14 12  1  0  0  0  0
 14 26  1  0  0  0  0
 14 40  1  1  0  0  0
 15 13  1  0  0  0  0
 15 27  1  0  0  0  0
 15 41  1  1  0  0  0
 16 14  1  0  0  0  0
 16 28  1  0  0  0  0
 16 42  1  1  0  0  0
 17 15  1  0  0  0  0
 17 34  1  0  0  0  0
 17 43  1  1  0  0  0
 18 11  1  0  0  0  0
 19 16  1  0  0  0  0
 19 34  1  0  0  0  0
 19 44  1  6  0  0  0
 20 17  1  0  0  0  0
 20 31  1  0  0  0  0
 20 45  1  6  0  0  0
 21 54  1  0  0  0  0
 21 55  1  0  0  0  0
 22  5  1  0  0  0  0
 22 56  1  0  0  0  0
 23  6  1  0  0  0  0
 23 57  1  0  0  0  0
 24 58  1  0  0  0  0
 25 59  1  0  0  0  0
 26 60  1  0  0  0  0
 27 61  1  0  0  0  0
 28 62  1  0  0  0  0
 29 18  2  0  0  0  0
 30 18  1  0  0  0  0
 30 63  1  0  0  0  0
 31  8  1  0  0  0  0
 32  9  1  0  0  0  0
 32 19  1  0  0  0  0
 33 10  1  0  0  0  0
 33 20  1  0  0  0  0
M  END
>  <DRUGBANK_ID>
DB02675

>  <SECONDARY_ACCESSION_NUMBERS>
EXPT02905

>  <COMMON_NAME>
(4-Hydroxymaltosephenyl)Glycine

$$$$
