
 OpenBabel10282417213D

 71 74  0  0  0  0  0  0  0  0999 V2000
    0.9505    0.0631   -0.0101 C   0  0  0  0  0  0  0  0  0  0  0  0
    0.2596    1.2740   -0.0245 C   0  0  0  0  0  0  0  0  0  0  0  0
   -1.1290    1.2864   -0.0062 C   0  0  0  0  0  0  0  0  0  0  0  0
   -1.8142    0.0786    0.0805 C   0  0  0  0  0  0  0  0  0  0  0  0
   -1.0884   -1.1229    0.1566 C   0  0  0  0  0  0  0  0  0  0  0  0
    0.2866   -1.1440    0.0575 C   0  0  0  0  0  0  0  0  0  0  0  0
    2.2868    0.0623   -0.0300 F   0  0  0  0  0  0  0  0  0  0  0  0
   -3.3223    0.0857    0.1348 C   0  0  0  0  0  0  0  0  0  0  0  0
   -3.8094   -0.2300    1.5636 C   0  0  0  0  0  0  0  0  0  0  0  0
   -3.2824    0.1500    2.7890 C   0  0  0  0  0  0  0  0  0  0  0  0
   -3.7614   -0.3554    4.0463 C   0  0  0  0  0  0  0  0  0  0  0  0
   -4.7704   -1.2966    4.0745 C   0  0  0  0  0  0  0  0  0  0  0  0
   -5.4013   -1.5157    2.9386 C   0  0  0  0  0  0  0  0  0  0  0  0
   -4.9855   -0.9175    1.7035 C   0  0  0  0  0  0  0  0  0  0  0  0
   -5.2157   -1.8865    5.2026 F   0  0  0  0  0  0  0  0  0  0  0  0
   -3.8313   -0.6962   -1.1644 C   0  0  0  0  0  0  0  0  0  0  0  0
   -3.4540   -2.1838   -1.4037 C   0  0  0  0  0  0  0  0  0  0  0  0
   -3.8032   -3.1397   -0.2661 C   0  0  0  0  0  0  0  0  0  0  0  0
   -5.5175   -4.6490    1.8383 C   0  0  0  0  0  0  0  0  0  0  0  0
   -5.8183   -3.4453    1.0159 C   0  0  0  0  0  0  0  0  0  0  0  0
   -5.7073   -4.4209   -1.0940 C   0  0  0  0  0  0  0  0  0  0  0  0
   -5.5725   -5.7298   -0.3186 C   0  0  0  0  0  0  0  0  0  0  0  0
   -5.2337   -3.3143   -0.2907 N   0  0  0  0  0  0  0  0  0  0  0  0
   -6.1809   -5.7229    1.0488 N   0  0  0  0  0  0  0  0  0  0  0  0
   -7.7276   -5.6099    1.0640 C   0  0  0  0  0  0  0  0  0  0  0  0
   -8.5791   -4.3034    0.6001 C   0  0  0  0  0  0  0  0  0  0  0  0
   -8.9041   -3.4414    1.4234 O   0  0  0  0  0  0  0  0  0  0  0  0
   -8.8720   -4.1578   -0.7593 N   0  0  0  0  0  0  0  0  0  0  0  0
   -9.4331   -2.9211   -1.2583 C   0  0  0  0  0  0  0  0  0  0  0  0
   -8.6702   -1.7518   -1.4932 C   0  0  0  0  0  0  0  0  0  0  0  0
  -10.7985   -2.8400   -1.5289 C   0  0  0  0  0  0  0  0  0  0  0  0
  -11.3578   -1.6053   -1.9336 C   0  0  0  0  0  0  0  0  0  0  0  0
  -10.5880   -0.4592   -2.1050 C   0  0  0  0  0  0  0  0  0  0  0  0
   -9.2402   -0.5374   -1.8929 C   0  0  0  0  0  0  0  0  0  0  0  0
   -7.2132   -1.6461   -1.3387 C   0  0  0  0  0  0  0  0  0  0  0  0
  -11.6982   -4.0137   -1.3066 C   0  0  0  0  0  0  0  0  0  0  0  0
    0.8085    2.2059   -0.0404 H   0  0  0  0  0  0  0  0  0  0  0  0
   -1.6761    2.2264   -0.0249 H   0  0  0  0  0  0  0  0  0  0  0  0
   -1.5742   -2.0786    0.2918 H   0  0  0  0  0  0  0  0  0  0  0  0
    0.8157   -2.0898    0.0631 H   0  0  0  0  0  0  0  0  0  0  0  0
   -3.6954    1.1075   -0.0446 H   0  0  0  0  0  0  0  0  0  0  0  0
   -2.4878    0.8894    2.8191 H   0  0  0  0  0  0  0  0  0  0  0  0
   -3.3980   -0.0080    4.9899 H   0  0  0  0  0  0  0  0  0  0  0  0
   -6.2417   -2.2209    3.0347 H   0  0  0  0  0  0  0  0  0  0  0  0
   -5.4929   -1.0485    0.7670 H   0  0  0  0  0  0  0  0  0  0  0  0
   -4.9086   -0.5902   -1.2389 H   0  0  0  0  0  0  0  0  0  0  0  0
   -3.4721   -0.1593   -2.0595 H   0  0  0  0  0  0  0  0  0  0  0  0
   -3.9351   -2.5317   -2.3294 H   0  0  0  0  0  0  0  0  0  0  0  0
   -2.3918   -2.2718   -1.6416 H   0  0  0  0  0  0  0  0  0  0  0  0
   -3.2683   -4.0882   -0.3555 H   0  0  0  0  0  0  0  0  0  0  0  0
   -3.4679   -2.7345    0.6910 H   0  0  0  0  0  0  0  0  0  0  0  0
   -4.4267   -4.7499    1.9569 H   0  0  0  0  0  0  0  0  0  0  0  0
   -5.9140   -4.5862    2.8595 H   0  0  0  0  0  0  0  0  0  0  0  0
   -6.2171   -2.5236    1.3263 H   0  0  0  0  0  0  0  0  0  0  0  0
   -6.8513   -3.5735    0.9569 H   0  0  0  0  0  0  0  0  0  0  0  0
   -6.7588   -4.2658   -1.2841 H   0  0  0  0  0  0  0  0  0  0  0  0
   -5.2753   -4.4022   -2.0949 H   0  0  0  0  0  0  0  0  0  0  0  0
   -4.4935   -5.9148   -0.2142 H   0  0  0  0  0  0  0  0  0  0  0  0
   -5.9797   -6.5438   -0.9119 H   0  0  0  0  0  0  0  0  0  0  0  0
   -8.1087   -6.4721    0.5259 H   0  0  0  0  0  0  0  0  0  0  0  0
   -7.9887   -5.7185    2.1259 H   0  0  0  0  0  0  0  0  0  0  0  0
   -9.2646   -5.0107   -1.1343 H   0  0  0  0  0  0  0  0  0  0  0  0
  -12.4263   -1.5178   -2.0941 H   0  0  0  0  0  0  0  0  0  0  0  0
  -11.0166    0.4927   -2.3944 H   0  0  0  0  0  0  0  0  0  0  0  0
   -8.6124    0.3456   -2.0158 H   0  0  0  0  0  0  0  0  0  0  0  0
   -7.0575   -1.8237   -0.2932 H   0  0  0  0  0  0  0  0  0  0  0  0
   -6.6976   -2.2965   -2.0421 H   0  0  0  0  0  0  0  0  0  0  0  0
   -6.8359   -0.6372   -1.5140 H   0  0  0  0  0  0  0  0  0  0  0  0
  -11.3865   -4.8486   -1.9415 H   0  0  0  0  0  0  0  0  0  0  0  0
  -11.6631   -4.3172   -0.2553 H   0  0  0  0  0  0  0  0  0  0  0  0
  -12.7319   -3.7646   -1.5555 H   0  0  0  0  0  0  0  0  0  0  0  0
  1  2  2  0  0  0  0
  1  6  1  0  0  0  0
  1  7  1  0  0  0  0
  2  3  1  0  0  0  0
  2 37  1  0  0  0  0
  3  4  2  0  0  0  0
  3 38  1  0  0  0  0
  4  5  1  0  0  0  0
  4  8  1  0  0  0  0
  5  6  2  0  0  0  0
  5 39  1  0  0  0  0
  6 40  1  0  0  0  0
  8 16  1  0  0  0  0
  8  9  1  0  0  0  0
  8 41  1  0  0  0  0
  9 14  2  0  0  0  0
  9 10  1  0  0  0  0
 10 11  2  0  0  0  0
 10 42  1  0  0  0  0
 11 12  1  0  0  0  0
 11 43  1  0  0  0  0
 12 13  2  0  0  0  0
 12 15  1  0  0  0  0
 13 14  1  0  0  0  0
 13 44  1  0  0  0  0
 14 45  1  0  0  0  0
 16 17  1  0  0  0  0
 16 46  1  0  0  0  0
 16 47  1  0  0  0  0
 17 18  1  0  0  0  0
 17 48  1  0  0  0  0
 17 49  1  0  0  0  0
 18 23  1  0  0  0  0
 18 50  1  0  0  0  0
 18 51  1  0  0  0  0
 19 20  1  0  0  0  0
 19 24  1  0  0  0  0
 19 52  1  0  0  0  0
 19 53  1  0  0  0  0
 20 23  1  0  0  0  0
 20 54  1  0  0  0  0
 20 55  1  0  0  0  0
 21 23  1  0  0  0  0
 21 22  1  0  0  0  0
 21 56  1  0  0  0  0
 21 57  1  0  0  0  0
 22 24  1  0  0  0  0
 22 58  1  0  0  0  0
 22 59  1  0  0  0  0
 24 25  1  0  0  0  0
 25 26  1  0  0  0  0
 25 60  1  0  0  0  0
 25 61  1  0  0  0  0
 26 28  1  0  0  0  0
 26 27  2  0  0  0  0
 28 29  1  0  0  0  0
 28 62  1  0  0  0  0
 29 30  2  0  0  0  0
 29 31  1  0  0  0  0
 30 34  1  0  0  0  0
 30 35  1  0  0  0  0
 31 32  2  0  0  0  0
 31 36  1  0  0  0  0
 32 33  1  0  0  0  0
 32 63  1  0  0  0  0
 33 34  2  0  0  0  0
 33 64  1  0  0  0  0
 34 65  1  0  0  0  0
 35 66  1  0  0  0  0
 35 67  1  0  0  0  0
 35 68  1  0  0  0  0
 36 69  1  0  0  0  0
 36 70  1  0  0  0  0
 36 71  1  0  0  0  0
M  END
>  <DRUGBANK_ID>
DB13766

>  <COMMON_NAME>
Lidoflazine

>  <CAS_NUMBER>
3416-26-0

>  <UNII>
J4ZHN3HBTE

>  <SYNONYMS>
Lidoflazina; Lidoflazine; Lidoflazinum

$$$$
