
 OpenBabel10282417153D

106106  0  0  0  0  0  0  0  0999 V2000
    1.1031   -0.2440    0.2390 O   0  0  0  0  0  0  0  0  0  0  0  0
    0.2701   -2.2158    0.3919 O   0  0  0  0  0  0  0  0  0  0  0  0
    1.6887    0.5302   -4.4155 O   0  0  0  0  0  0  0  0  0  0  0  0
    0.0404    3.4806    0.5975 O   0  0  0  0  0  0  0  0  0  0  0  0
    5.6525    2.5342   -1.9108 O   0  0  0  0  0  0  0  0  0  0  0  0
    5.0793    3.3934    1.9457 O   0  0  0  0  0  0  0  0  0  0  0  0
    2.0137    6.6420   -4.2688 O   0  0  0  0  0  0  0  0  0  0  0  0
    0.6448   -6.3921    3.7951 O   0  0  0  0  0  0  0  0  0  0  0  0
    0.7337   -4.1950    4.2343 O   0  0  0  0  0  0  0  0  0  0  0  0
    5.1009    6.6279    1.1469 O   0  0  0  0  0  0  0  0  0  0  0  0
    3.0790   -0.9883    1.0494 N   0  0  0  0  0  0  0  0  0  0  0  0
    2.4225    0.2054   -2.3151 N   0  0  0  0  0  0  0  0  0  0  0  0
    0.5765    2.8191   -1.6155 N   0  0  0  0  0  0  0  0  0  0  0  0
    0.7880   -3.9517    1.4463 N   0  0  0  0  0  0  0  0  0  0  0  0
    4.0460    3.6285   -0.7715 N   0  0  0  0  0  0  0  0  0  0  0  0
    3.9837    5.4710   -3.9817 N   0  0  0  0  0  0  0  0  0  0  0  0
    5.3642    1.4950    0.8126 N   0  0  0  0  0  0  0  0  0  0  0  0
    3.9331    7.2154   -0.5380 N   0  0  0  0  0  0  0  0  0  0  0  0
    7.3692    7.4320   -1.6962 N   0  0  0  0  0  0  0  0  0  0  0  0
    2.5683   -2.2279    1.4976 C   0  0  2  0  0  0  0  0  0  0  0  0
    2.3193   -0.3850    0.0974 C   0  0  0  0  0  0  0  0  0  0  0  0
    2.9893    0.4311   -0.9395 C   0  0  2  0  0  0  0  0  0  0  0  0
    1.1385   -2.7148    1.0954 C   0  0  0  0  0  0  0  0  0  0  0  0
    4.0540   -0.4812    2.0201 C   0  0  0  0  0  0  0  0  0  0  0  0
    2.8008   -2.1454    3.0097 C   0  0  0  0  0  0  0  0  0  0  0  0
    1.7228    0.9226   -3.2436 C   0  0  0  0  0  0  0  0  0  0  0  0
    1.3665    2.3389   -2.9954 C   0  0  2  0  0  0  0  0  0  0  0  0
    4.0821   -1.3841    3.1953 C   0  0  0  0  0  0  0  0  0  0  0  0
    2.5687    1.6426   -0.1763 C   0  0  0  0  0  0  0  0  0  0  0  0
    0.8491    3.4091   -0.2318 C   0  0  0  0  0  0  0  0  0  0  0  0
    2.4926    4.2165   -0.0329 C   0  0  2  0  0  0  0  0  0  0  0  0
    2.7302    2.9383   -3.2500 C   0  0  0  0  0  0  0  0  0  0  0  0
    4.9021    3.5321   -1.8868 C   0  0  0  0  0  0  0  0  0  0  0  0
    5.0750    4.6887   -3.0077 C   0  0  2  0  0  0  0  0  0  0  0  0
    3.0395    2.1007    1.2940 C   0  0  0  0  0  0  0  0  0  0  0  0
    2.0317    5.4108   -0.7212 C   0  0  0  0  0  0  0  0  0  0  0  0
    1.5807   -4.9274    2.1116 C   0  0  0  0  0  0  0  0  0  0  0  0
    5.5020    5.6801   -2.0505 C   0  0  0  0  0  0  0  0  0  0  0  0
    4.5790    2.3855    1.4864 C   0  0  0  0  0  0  0  0  0  0  0  0
    1.0072    6.5697   -0.7125 C   0  0  0  0  0  0  0  0  0  0  0  0
    3.8090    2.6317   -4.3833 C   0  0  0  0  0  0  0  0  0  0  0  0
    2.2994    4.3201   -3.1599 C   0  0  0  0  0  0  0  0  0  0  0  0
    3.0043    6.5263   -3.5206 C   0  0  0  0  0  0  0  0  0  0  0  0
    0.9284   -5.2568    3.4264 C   0  0  0  0  0  0  0  0  0  0  0  0
    6.6688    5.0726   -0.9177 C   0  0  0  0  0  0  0  0  0  0  0  0
    5.5074    7.0051   -3.1359 C   0  0  0  0  0  0  0  0  0  0  0  0
    3.3955    7.4456   -1.9339 C   0  0  0  0  0  0  0  0  0  0  0  0
    1.2049    7.1576    0.6835 C   0  0  0  0  0  0  0  0  0  0  0  0
    0.7686    7.7529   -1.9997 C   0  0  0  0  0  0  0  0  0  0  0  0
    5.1268    7.1917    0.0521 C   0  0  0  0  0  0  0  0  0  0  0  0
    6.3039    7.9108   -0.6401 C   0  0  0  0  0  0  0  0  0  0  0  0
    0.3147   -4.5466    5.0484 H   0  0  0  0  0  0  0  0  0  0  0  0
    2.7613   -0.6265   -2.7751 H   0  0  0  0  0  0  0  0  0  0  0  0
   -0.3714    2.4477   -1.6414 H   0  0  0  0  0  0  0  0  0  0  0  0
   -0.1544   -4.1381    1.1228 H   0  0  0  0  0  0  0  0  0  0  0  0
    4.3790    2.7487   -0.3934 H   0  0  0  0  0  0  0  0  0  0  0  0
    3.5215    4.9388   -4.7357 H   0  0  0  0  0  0  0  0  0  0  0  0
    4.9682    0.7101    0.3414 H   0  0  0  0  0  0  0  0  0  0  0  0
    6.3743    1.5182    0.8248 H   0  0  0  0  0  0  0  0  0  0  0  0
    3.3898    6.7005    0.1606 H   0  0  0  0  0  0  0  0  0  0  0  0
    7.2691    7.9330   -2.5879 H   0  0  0  0  0  0  0  0  0  0  0  0
    7.2567    6.5027   -2.1212 H   0  0  0  0  0  0  0  0  0  0  0  0
    3.2831   -2.9029    1.0098 H   0  0  0  0  0  0  0  0  0  0  0  0
    4.0598    0.3645   -1.0805 H   0  0  0  0  0  0  0  0  0  0  0  0
    3.8356    0.4745    2.4665 H   0  0  0  0  0  0  0  0  0  0  0  0
    5.0474   -0.5433    1.5928 H   0  0  0  0  0  0  0  0  0  0  0  0
    1.9713   -1.6067    3.4797 H   0  0  0  0  0  0  0  0  0  0  0  0
    2.9382   -3.1014    3.4924 H   0  0  0  0  0  0  0  0  0  0  0  0
    0.7739    2.7439   -3.8436 H   0  0  0  0  0  0  0  0  0  0  0  0
    4.1396   -0.8194    4.1350 H   0  0  0  0  0  0  0  0  0  0  0  0
    4.9808   -1.9973    3.1117 H   0  0  0  0  0  0  0  0  0  0  0  0
    2.6352    2.3583   -0.9340 H   0  0  0  0  0  0  0  0  0  0  0  0
    1.4921    1.5700   -0.1367 H   0  0  0  0  0  0  0  0  0  0  0  0
    2.7823    4.5595    0.9778 H   0  0  0  0  0  0  0  0  0  0  0  0
    3.3083    2.4900   -2.4788 H   0  0  0  0  0  0  0  0  0  0  0  0
    5.9666    4.4999   -3.6207 H   0  0  0  0  0  0  0  0  0  0  0  0
    2.5937    3.0023    1.7228 H   0  0  0  0  0  0  0  0  0  0  0  0
    2.4896    1.4913    2.0060 H   0  0  0  0  0  0  0  0  0  0  0  0
    2.9863    5.6006   -1.0568 H   0  0  0  0  0  0  0  0  0  0  0  0
    1.5215    4.7819   -1.3456 H   0  0  0  0  0  0  0  0  0  0  0  0
    1.6269   -5.7867    1.4496 H   0  0  0  0  0  0  0  0  0  0  0  0
    2.6054   -4.5940    2.2661 H   0  0  0  0  0  0  0  0  0  0  0  0
    4.6992    5.6213   -1.3578 H   0  0  0  0  0  0  0  0  0  0  0  0
    0.0533    6.0382   -0.7989 H   0  0  0  0  0  0  0  0  0  0  0  0
    3.6184    3.0932   -5.3470 H   0  0  0  0  0  0  0  0  0  0  0  0
    4.8440    2.9695   -4.1942 H   0  0  0  0  0  0  0  0  0  0  0  0
    4.0572    1.5752   -4.4167 H   0  0  0  0  0  0  0  0  0  0  0  0
    1.2290    4.2816   -3.0593 H   0  0  0  0  0  0  0  0  0  0  0  0
    3.0477    4.5953   -2.4330 H   0  0  0  0  0  0  0  0  0  0  0  0
    1.8217    5.2205   -2.7915 H   0  0  0  0  0  0  0  0  0  0  0  0
    7.6074    4.8257   -1.4013 H   0  0  0  0  0  0  0  0  0  0  0  0
    6.8754    5.7313   -0.0670 H   0  0  0  0  0  0  0  0  0  0  0  0
    6.3738    4.1930   -0.3231 H   0  0  0  0  0  0  0  0  0  0  0  0
    4.6604    7.3296   -3.7423 H   0  0  0  0  0  0  0  0  0  0  0  0
    5.5403    8.0120   -2.7447 H   0  0  0  0  0  0  0  0  0  0  0  0
    6.1138    6.7810   -3.9968 H   0  0  0  0  0  0  0  0  0  0  0  0
    3.8019    8.3648   -2.2869 H   0  0  0  0  0  0  0  0  0  0  0  0
    2.5935    7.8902   -1.4219 H   0  0  0  0  0  0  0  0  0  0  0  0
    2.1450    7.6815    0.8811 H   0  0  0  0  0  0  0  0  0  0  0  0
    0.4535    7.9013    0.8801 H   0  0  0  0  0  0  0  0  0  0  0  0
    1.2198    6.3422    1.4232 H   0  0  0  0  0  0  0  0  0  0  0  0
    0.4719    7.3293   -2.9619 H   0  0  0  0  0  0  0  0  0  0  0  0
    0.0787    8.5130   -1.6590 H   0  0  0  0  0  0  0  0  0  0  0  0
    1.5326    8.4770   -2.4035 H   0  0  0  0  0  0  0  0  0  0  0  0
    5.8021    8.8039   -1.0114 H   0  0  0  0  0  0  0  0  0  0  0  0
    6.9359    8.0675    0.2076 H   0  0  0  0  0  0  0  0  0  0  0  0
  1 21  2  0  0  0  0
  2 23  2  0  0  0  0
  3 26  2  0  0  0  0
  4 30  2  0  0  0  0
  5 33  2  0  0  0  0
  6 39  2  0  0  0  0
  7 43  2  0  0  0  0
  8 44  2  0  0  0  0
  9 44  1  0  0  0  0
  9 52  1  0  0  0  0
 10 50  2  0  0  0  0
 11 20  1  0  0  0  0
 11 21  1  0  0  0  0
 11 24  1  0  0  0  0
 12 22  1  0  0  0  0
 12 26  1  0  0  0  0
 12 53  1  0  0  0  0
 13 27  1  0  0  0  0
 13 30  1  0  0  0  0
 13 54  1  0  0  0  0
 14 23  1  0  0  0  0
 14 37  1  0  0  0  0
 14 55  1  0  0  0  0
 15 31  1  0  0  0  0
 15 33  1  0  0  0  0
 15 56  1  0  0  0  0
 16 34  1  0  0  0  0
 16 43  1  0  0  0  0
 16 57  1  0  0  0  0
 17 39  1  0  0  0  0
 17 58  1  0  0  0  0
 17 59  1  0  0  0  0
 18 47  1  0  0  0  0
 18 50  1  0  0  0  0
 18 60  1  0  0  0  0
 19 51  1  0  0  0  0
 19 61  1  0  0  0  0
 19 62  1  0  0  0  0
 20 25  1  0  0  0  0
 20 63  1  6  0  0  0
 20 23  1  0  0  0  0
 21 22  1  0  0  0  0
 22 29  1  0  0  0  0
 22 64  1  1  0  0  0
 24 28  1  0  0  0  0
 24 65  1  0  0  0  0
 24 66  1  0  0  0  0
 25 28  1  0  0  0  0
 25 67  1  0  0  0  0
 25 68  1  0  0  0  0
 26 27  1  0  0  0  0
 27 32  1  0  0  0  0
 27 69  1  6  0  0  0
 28 70  1  0  0  0  0
 28 71  1  0  0  0  0
 29 35  1  0  0  0  0
 29 72  1  0  0  0  0
 29 73  1  0  0  0  0
 30 31  1  0  0  0  0
 31 36  1  0  0  0  0
 31 74  1  1  0  0  0
 32 41  1  0  0  0  0
 32 42  1  0  0  0  0
 32 75  1  0  0  0  0
 33 34  1  0  0  0  0
 34 38  1  0  0  0  0
 34 76  1  6  0  0  0
 35 39  1  0  0  0  0
 35 77  1  0  0  0  0
 35 78  1  0  0  0  0
 36 40  1  0  0  0  0
 36 79  1  0  0  0  0
 36 80  1  0  0  0  0
 37 44  1  0  0  0  0
 37 81  1  0  0  0  0
 37 82  1  0  0  0  0
 38 45  1  0  0  0  0
 38 46  1  0  0  0  0
 38 83  1  0  0  0  0
 40 48  1  0  0  0  0
 40 49  1  0  0  0  0
 40 84  1  0  0  0  0
 41 85  1  0  0  0  0
 41 86  1  0  0  0  0
 41 87  1  0  0  0  0
 42 88  1  0  0  0  0
 42 89  1  0  0  0  0
 42 90  1  0  0  0  0
 43 47  1  0  0  0  0
 45 91  1  0  0  0  0
 45 92  1  0  0  0  0
 45 93  1  0  0  0  0
 46 94  1  0  0  0  0
 46 95  1  0  0  0  0
 46 96  1  0  0  0  0
 47 97  1  0  0  0  0
 47 98  1  0  0  0  0
 48 99  1  0  0  0  0
 48100  1  0  0  0  0
 48101  1  0  0  0  0
 49102  1  0  0  0  0
 49103  1  0  0  0  0
 49104  1  0  0  0  0
 50 51  1  0  0  0  0
 51105  1  0  0  0  0
 51106  1  0  0  0  0
M  END
>  <DRUGBANK_ID>
DB05645

>  <COMMON_NAME>
Larazotide

>  <CAS_NUMBER>
258818-34-7

>  <UNII>
ZN3R5560ZV

>  <SYNONYMS>
Larazotide

$$$$
