
 OpenBabel10282417223D

 17 16  0  0  0  0  0  0  0  0999 V2000
    0.9278   -0.0498    0.0480 O   0  0  0  0  0  0  0  0  0  0  0  0
   -0.0072   -1.1591   -1.1318 Al  0  0  0  0  0  0  0  0  0  0  0  0
    2.3478   -0.0498    0.0480 C   0  0  0  0  0  0  0  0  0  0  0  0
    0.9278   -2.2685   -2.3117 O   0  0  0  0  0  0  0  0  0  0  0  0
   -1.8772   -1.1591   -1.1318 O   0  0  0  0  0  0  0  0  0  0  0  0
    3.1078   -0.9515   -0.9110 C   0  0  0  0  0  0  0  0  0  0  0  0
    2.9833    0.7041    0.8499 O   0  0  0  0  0  0  0  0  0  0  0  0
    2.3478   -2.2685   -2.3117 C   0  0  0  0  0  0  0  0  0  0  0  0
    3.1078   -1.3668   -1.3527 C   0  0  0  0  0  0  0  0  0  0  0  0
    2.9833   -3.0224   -3.1136 O   0  0  0  0  0  0  0  0  0  0  0  0
   -2.2105   -1.8050   -1.8187 H   0  0  0  0  0  0  0  0  0  0  0  0
    3.7230   -0.3538   -1.5507 H   0  0  0  0  0  0  0  0  0  0  0  0
    3.7230   -1.6269   -0.3539 H   0  0  0  0  0  0  0  0  0  0  0  0
    2.4125   -1.5086   -1.5035 H   0  0  0  0  0  0  0  0  0  0  0  0
    3.7230   -1.9644   -0.7129 H   0  0  0  0  0  0  0  0  0  0  0  0
    3.7230   -0.6914   -1.9098 H   0  0  0  0  0  0  0  0  0  0  0  0
    2.4125   -0.8097   -0.7601 H   0  0  0  0  0  0  0  0  0  0  0  0
  1  2  1  0  0  0  0
  1  3  1  0  0  0  0
  2  4  1  0  0  0  0
  2  5  1  0  0  0  0
  3  6  1  0  0  0  0
  3  7  2  0  0  0  0
  4  8  1  0  0  0  0
  5 11  1  0  0  0  0
  6 12  1  0  0  0  0
  6 13  1  0  0  0  0
  6 14  1  0  0  0  0
  8  9  1  0  0  0  0
  8 10  2  0  0  0  0
  9 15  1  0  0  0  0
  9 16  1  0  0  0  0
  9 17  1  0  0  0  0
M  END
>  <DRUGBANK_ID>
DB15679

>  <COMMON_NAME>
Aluminum subacetate

>  <CAS_NUMBER>
142-03-0

>  <UNII>
FGL8577C9S

>  <SYNONYMS>
Aluminum diaceate; Aluminum diacetate; Aluminum hydroxyacetate; Aluminum subacetate

$$$$
