
 OpenBabel10282417243D

 56 61  0  0  0  0  0  0  0  0999 V2000
    2.4405    0.0022    0.0604 C   0  0  0  0  0  0  0  0  0  0  0  0
    1.0272   -0.0032   -0.2975 N   0  0  0  0  0  0  0  0  0  0  0  0
    0.3443   -1.2011    0.2446 C   0  0  0  0  0  0  0  0  0  0  0  0
   -1.1384   -1.2557   -0.1900 C   0  0  0  0  0  0  0  0  0  0  0  0
   -1.8244   -0.0142    0.1811 N   0  0  0  0  0  0  0  0  0  0  0  0
   -1.1605    1.2376   -0.1985 C   0  0  0  0  0  0  0  0  0  0  0  0
    0.3323    1.1963    0.2263 C   0  0  0  0  0  0  0  0  0  0  0  0
   -3.0655   -0.0138    0.7724 C   0  0  0  0  0  0  0  0  0  0  0  0
   -3.2595   -0.6415    2.0077 C   0  0  0  0  0  0  0  0  0  0  0  0
   -4.4890   -0.5775    2.6783 C   0  0  0  0  0  0  0  0  0  0  0  0
   -5.5736    0.1027    2.1142 C   0  0  0  0  0  0  0  0  0  0  0  0
   -5.3858    0.7445    0.8844 C   0  0  0  0  0  0  0  0  0  0  0  0
   -4.1560    0.6606    0.2129 C   0  0  0  0  0  0  0  0  0  0  0  0
   -6.8919    0.1149    2.7949 C   0  0  0  0  0  0  0  0  0  0  0  0
   -7.0698    0.6464    4.1493 C   0  0  0  0  0  0  0  0  0  0  0  0
   -8.2781    0.5879    4.7455 C   0  0  0  0  0  0  0  0  0  0  0  0
   -9.3592    0.0317    4.0603 N   0  0  0  0  0  0  0  0  0  0  0  0
  -10.6842   -0.1492    4.4443 C   0  0  0  0  0  0  0  0  0  0  0  0
  -11.2709   -0.7622    3.3484 C   0  0  0  0  0  0  0  0  0  0  0  0
  -10.3850   -0.9352    2.3165 N   0  0  0  0  0  0  0  0  0  0  0  0
   -9.2402   -0.4726    2.7650 C   0  0  0  0  0  0  0  0  0  0  0  0
   -7.9526   -0.4224    2.1476 C   0  0  0  0  0  0  0  0  0  0  0  0
  -11.2762    0.1906    5.7508 C   0  0  0  0  0  0  0  0  0  0  0  0
  -11.3140    1.5306    6.1546 C   0  0  0  0  0  0  0  0  0  0  0  0
  -11.8848    1.8387    7.3740 C   0  0  0  0  0  0  0  0  0  0  0  0
  -12.4063    0.9178    8.2049 N   0  0  0  0  0  0  0  0  0  0  0  0
  -12.3805   -0.3676    7.8050 C   0  0  0  0  0  0  0  0  0  0  0  0
  -12.9132   -1.3333    8.6469 C   0  0  0  0  0  0  0  0  0  0  0  0
  -12.9215   -2.6762    8.2852 C   0  0  0  0  0  0  0  0  0  0  0  0
  -12.3859   -3.0130    7.0614 C   0  0  0  0  0  0  0  0  0  0  0  0
  -11.8478   -2.1137    6.2126 N   0  0  0  0  0  0  0  0  0  0  0  0
  -11.8368   -0.8047    6.5735 C   0  0  0  0  0  0  0  0  0  0  0  0
    2.9386    0.8809   -0.3641 H   0  0  0  0  0  0  0  0  0  0  0  0
    2.5983    0.0021    1.1439 H   0  0  0  0  0  0  0  0  0  0  0  0
    2.9425   -0.8751   -0.3635 H   0  0  0  0  0  0  0  0  0  0  0  0
    0.8455   -2.1102   -0.1067 H   0  0  0  0  0  0  0  0  0  0  0  0
    0.3966   -1.1999    1.3424 H   0  0  0  0  0  0  0  0  0  0  0  0
   -1.1887   -1.3745   -1.2803 H   0  0  0  0  0  0  0  0  0  0  0  0
   -1.6139   -2.1384    0.2519 H   0  0  0  0  0  0  0  0  0  0  0  0
   -1.2330    1.3819   -1.2827 H   0  0  0  0  0  0  0  0  0  0  0  0
   -1.6308    2.1007    0.2886 H   0  0  0  0  0  0  0  0  0  0  0  0
    0.3922    1.2102    1.3243 H   0  0  0  0  0  0  0  0  0  0  0  0
    0.8252    2.1055   -0.1366 H   0  0  0  0  0  0  0  0  0  0  0  0
   -2.4276   -1.1586    2.4792 H   0  0  0  0  0  0  0  0  0  0  0  0
   -4.5818   -1.0635    3.6464 H   0  0  0  0  0  0  0  0  0  0  0  0
   -6.1933    1.3196    0.4369 H   0  0  0  0  0  0  0  0  0  0  0  0
   -4.0653    1.1075   -0.7744 H   0  0  0  0  0  0  0  0  0  0  0  0
   -6.2123    1.0794    4.6513 H   0  0  0  0  0  0  0  0  0  0  0  0
   -8.4476    0.9588    5.7453 H   0  0  0  0  0  0  0  0  0  0  0  0
  -12.2998   -1.0875    3.2560 H   0  0  0  0  0  0  0  0  0  0  0  0
   -7.8670   -0.8493    1.1526 H   0  0  0  0  0  0  0  0  0  0  0  0
  -10.9220    2.3234    5.5266 H   0  0  0  0  0  0  0  0  0  0  0  0
  -11.9422    2.8648    7.7275 H   0  0  0  0  0  0  0  0  0  0  0  0
  -13.3287   -1.0328    9.6061 H   0  0  0  0  0  0  0  0  0  0  0  0
  -13.3349   -3.4330    8.9423 H   0  0  0  0  0  0  0  0  0  0  0  0
  -12.3685   -4.0428    6.7166 H   0  0  0  0  0  0  0  0  0  0  0  0
  1  2  1  0  0  0  0
  1 33  1  0  0  0  0
  1 34  1  0  0  0  0
  1 35  1  0  0  0  0
  2  3  1  0  0  0  0
  2  7  1  0  0  0  0
  3  4  1  0  0  0  0
  3 36  1  0  0  0  0
  3 37  1  0  0  0  0
  4  5  1  0  0  0  0
  4 38  1  0  0  0  0
  4 39  1  0  0  0  0
  5  6  1  0  0  0  0
  5  8  1  0  0  0  0
  6  7  1  0  0  0  0
  6 40  1  0  0  0  0
  6 41  1  0  0  0  0
  7 42  1  0  0  0  0
  7 43  1  0  0  0  0
  8  9  2  0  0  0  0
  8 13  1  0  0  0  0
  9 10  1  0  0  0  0
  9 44  1  0  0  0  0
 10 11  2  0  0  0  0
 10 45  1  0  0  0  0
 11 12  1  0  0  0  0
 11 14  1  0  0  0  0
 12 13  2  0  0  0  0
 12 46  1  0  0  0  0
 13 47  1  0  0  0  0
 14 15  1  0  0  0  0
 14 22  2  0  0  0  0
 15 16  2  0  0  0  0
 15 48  1  0  0  0  0
 16 17  1  0  0  0  0
 16 49  1  0  0  0  0
 17 18  1  0  0  0  0
 17 21  1  0  0  0  0
 18 19  2  0  0  0  0
 18 23  1  0  0  0  0
 19 20  1  0  0  0  0
 19 50  1  0  0  0  0
 20 21  2  0  0  0  0
 21 22  1  0  0  0  0
 22 51  1  0  0  0  0
 23 24  2  0  0  0  0
 23 32  1  0  0  0  0
 24 25  1  0  0  0  0
 24 52  1  0  0  0  0
 25 26  2  0  0  0  0
 25 53  1  0  0  0  0
 26 27  1  0  0  0  0
 27 28  2  0  0  0  0
 27 32  1  0  0  0  0
 28 29  1  0  0  0  0
 28 54  1  0  0  0  0
 29 30  2  0  0  0  0
 29 55  1  0  0  0  0
 30 31  1  0  0  0  0
 30 56  1  0  0  0  0
 31 32  2  0  0  0  0
M  END
>  <DRUGBANK_ID>
DB18033

>  <COMMON_NAME>
3-(4-(1,5-Naphthyridine)imidazole(1,2-a) pyridine-7-(1-phenyl-4-(1-(4-methyl piperazine)))

>  <CAS_NUMBER>
1589086-38-3

>  <UNII>
1G7DB33DC7

>  <SYNONYMS>
1,5-naphthyridine, 4-(7-(4-(4-methyl-1-piperazinyl)phenyl)imidazo(1,2-a)pyridin-3-yl)-; 3-(4-(1,5-napthrydine)imidazole(1,2-a)pyridine-7-(1-phenyl-4-(1-(4-methyl piperazine)))

$$$$
