
 OpenBabel10282417153D

 50 54  0  0  0  0  0  0  0  0999 V2000
    1.1841   -6.6289   -2.5361 C   0  0  0  0  0  0  0  0  0  0  0  0
    2.3413   -6.9842   -1.8720 C   0  0  0  0  0  0  0  0  0  0  0  0
    2.7191   -6.3216   -0.6739 C   0  0  0  0  0  0  0  0  0  0  0  0
    1.8835   -5.3709   -0.1311 C   0  0  0  0  0  0  0  0  0  0  0  0
    0.8280   -5.1085   -0.9479 C   0  0  0  0  0  0  0  0  0  0  0  0
    0.4743   -5.6006   -2.1380 N   0  0  0  0  0  0  0  0  0  0  0  0
    1.9236   -4.6714    1.2119 C   0  0  0  0  0  0  0  0  0  0  0  0
    1.1221   -3.2783    1.2808 C   0  0  2  0  0  0  0  0  0  0  0  0
    1.5215   -2.4864    2.4941 N   0  0  3  0  0  0  0  0  0  0  0  0
    0.7985   -1.1880    2.4864 C   0  0  0  0  0  0  0  0  0  0  0  0
   -0.7274   -1.3696    2.5124 C   0  0  0  0  0  0  0  0  0  0  0  0
   -1.0662   -2.8602    2.5383 C   0  0  3  0  0  0  0  0  0  0  0  0
   -0.4815   -3.5079    1.2888 C   0  0  1  0  0  0  0  0  0  0  0  0
    1.4286   -2.6905    0.4012 H   0  0  0  0  0  0  0  0  0  0  0  0
   -1.2438   -3.0430    0.0832 N   0  0  0  0  0  0  0  0  0  0  0  0
   -0.6431   -4.5774    1.4002 H   0  0  0  0  0  0  0  0  0  0  0  0
    1.1338   -3.2156    3.7201 C   0  0  0  0  0  0  0  0  0  0  0  0
   -0.3734   -3.5110    3.7460 C   0  0  0  0  0  0  0  0  0  0  0  0
   -1.9654   -3.7867   -0.8737 C   0  0  0  0  0  0  0  0  0  0  0  0
   -2.2473   -3.1762   -1.9216 O   0  0  0  0  0  0  0  0  0  0  0  0
   -2.1842   -5.2398   -0.7283 C   0  0  0  0  0  0  0  0  0  0  0  0
   -2.1124   -6.2555   -1.6844 C   0  0  0  0  0  0  0  0  0  0  0  0
   -2.2972   -5.8273    0.5096 O   0  0  0  0  0  0  0  0  0  0  0  0
   -2.2054   -7.1817    0.3386 C   0  0  0  0  0  0  0  0  0  0  0  0
   -2.0050   -7.4982   -0.9969 C   0  0  0  0  0  0  0  0  0  0  0  0
   -2.2855   -8.1388    1.3482 C   0  0  0  0  0  0  0  0  0  0  0  0
   -2.1520   -9.4807    0.9645 C   0  0  0  0  0  0  0  0  0  0  0  0
   -1.8625   -9.8302   -0.3560 C   0  0  0  0  0  0  0  0  0  0  0  0
   -1.7483   -8.8434   -1.3467 C   0  0  0  0  0  0  0  0  0  0  0  0
    0.7511   -7.1488   -3.3810 H   0  0  0  0  0  0  0  0  0  0  0  0
    2.9350   -7.7757   -2.3002 H   0  0  0  0  0  0  0  0  0  0  0  0
    3.6499   -6.5812   -0.1884 H   0  0  0  0  0  0  0  0  0  0  0  0
    0.0879   -4.4893   -0.5637 H   0  0  0  0  0  0  0  0  0  0  0  0
    1.4737   -5.3427    1.9582 H   0  0  0  0  0  0  0  0  0  0  0  0
    2.9708   -4.5264    1.5058 H   0  0  0  0  0  0  0  0  0  0  0  0
    1.0918   -0.6025    1.6059 H   0  0  0  0  0  0  0  0  0  0  0  0
    1.1037   -0.5842    3.3512 H   0  0  0  0  0  0  0  0  0  0  0  0
   -1.1722   -0.8887    1.6330 H   0  0  0  0  0  0  0  0  0  0  0  0
   -1.1605   -0.8851    3.3935 H   0  0  0  0  0  0  0  0  0  0  0  0
   -2.1472   -3.0284    2.5682 H   0  0  0  0  0  0  0  0  0  0  0  0
   -1.0186   -2.1175   -0.2711 H   0  0  0  0  0  0  0  0  0  0  0  0
    1.7068   -4.1465    3.8074 H   0  0  0  0  0  0  0  0  0  0  0  0
    1.4186   -2.6389    4.6086 H   0  0  0  0  0  0  0  0  0  0  0  0
   -0.8135   -3.1295    4.6715 H   0  0  0  0  0  0  0  0  0  0  0  0
   -0.5345   -4.5966    3.7271 H   0  0  0  0  0  0  0  0  0  0  0  0
   -1.9226   -6.1053   -2.7409 H   0  0  0  0  0  0  0  0  0  0  0  0
   -2.4822   -7.8550    2.3733 H   0  0  0  0  0  0  0  0  0  0  0  0
   -2.2792  -10.2649    1.7084 H   0  0  0  0  0  0  0  0  0  0  0  0
   -1.7513  -10.8807   -0.6236 H   0  0  0  0  0  0  0  0  0  0  0  0
   -1.4974   -9.1289   -2.3656 H   0  0  0  0  0  0  0  0  0  0  0  0
  1  2  2  0  0  0  0
  1  6  1  0  0  0  0
  1 30  1  0  0  0  0
  2  3  1  0  0  0  0
  2 31  1  0  0  0  0
  3  4  2  0  0  0  0
  3 32  1  0  0  0  0
  4  5  1  0  0  0  0
  4  7  1  0  0  0  0
  5  6  2  0  0  0  0
  5 33  1  0  0  0  0
  7 34  1  0  0  0  0
  7 35  1  0  0  0  0
  8 14  1  6  0  0  0
  8  7  1  0  0  0  0
  9  8  1  0  0  0  0
  9 10  1  0  0  0  0
  9 17  1  0  0  0  0
 10 11  1  0  0  0  0
 10 36  1  0  0  0  0
 10 37  1  0  0  0  0
 11 12  1  0  0  0  0
 11 38  1  0  0  0  0
 11 39  1  0  0  0  0
 12 13  1  0  0  0  0
 12 40  1  0  0  0  0
 13  8  1  0  0  0  0
 13 15  1  0  0  0  0
 13 16  1  1  0  0  0
 15 19  1  0  0  0  0
 15 41  1  0  0  0  0
 17 18  1  0  0  0  0
 17 42  1  0  0  0  0
 17 43  1  0  0  0  0
 18 12  1  0  0  0  0
 18 44  1  0  0  0  0
 18 45  1  0  0  0  0
 19 20  2  0  0  0  0
 19 21  1  0  0  0  0
 21 23  1  0  0  0  0
 22 21  2  0  0  0  0
 22 25  1  0  0  0  0
 22 46  1  0  0  0  0
 23 24  1  0  0  0  0
 24 26  1  0  0  0  0
 25 29  1  0  0  0  0
 25 24  2  0  0  0  0
 26 27  2  0  0  0  0
 26 47  1  0  0  0  0
 27 28  1  0  0  0  0
 27 48  1  0  0  0  0
 28 29  2  0  0  0  0
 28 49  1  0  0  0  0
 29 50  1  0  0  0  0
M  END
>  <DRUGBANK_ID>
DB06090

>  <COMMON_NAME>
Bradanicline

>  <CAS_NUMBER>
639489-84-2

>  <UNII>
UM3821998K

>  <SYNONYMS>
Bradanicline

$$$$
