
 OpenBabel10282417123D

 16 15  0  0  1  0  0  0  0  0999 V2000
    1.0530    0.0832   -0.0164 C   0  0  0  0  0  0  0  0  0  0  0  0
    0.5463   -0.4802   -1.3341 C   0  0  1  0  0  0  0  0  0  0  0  0
    1.0529   -1.9030   -1.5050 C   0  0  0  0  0  0  0  0  0  0  0  0
   -0.9237   -0.4802   -1.3341 N   0  0  0  0  0  0  0  0  0  0  0  0
    0.2271   -2.8621   -1.6202 O   0  0  0  0  0  0  0  0  0  0  0  0
    2.4490   -2.1606   -1.5360 O   0  0  0  0  0  0  0  0  0  0  0  0
    0.9545   -0.4080    2.9054 O   0  0  0  0  0  0  0  0  0  0  0  0
   -1.2651   -1.0250    1.4623 O   0  0  0  0  0  0  0  0  0  0  0  0
    0.3996   -1.0250    1.4623 Se  0  0  0  0  0  0  0  0  0  0  0  0
    0.9030    0.1248   -2.1413 H   0  0  0  0  0  0  0  0  0  0  0  0
    0.6963    1.0848    0.1039 H   0  0  0  0  0  0  0  0  0  0  0  0
    2.1230    0.0832   -0.0164 H   0  0  0  0  0  0  0  0  0  0  0  0
   -1.2637   -0.8582   -2.2183 H   0  0  0  0  0  0  0  0  0  0  0  0
   -1.2637   -1.0569   -0.5645 H   0  0  0  0  0  0  0  0  0  0  0  0
    2.7824   -3.0967   -1.6484 H   0  0  0  0  0  0  0  0  0  0  0  0
    0.9029   -2.4385    1.2925 H   0  0  0  0  0  0  0  0  0  0  0  0
  1 11  1  0  0  0  0
  1 12  1  0  0  0  0
  2  1  1  0  0  0  0
  2  4  1  0  0  0  0
  2 10  1  6  0  0  0
  3  2  1  0  0  0  0
  4 13  1  0  0  0  0
  4 14  1  0  0  0  0
  5  3  2  0  0  0  0
  6  3  1  0  0  0  0
  6 15  1  0  0  0  0
  9  1  1  0  0  0  0
  9  7  2  0  0  0  0
  9  8  2  0  0  0  0
  9 16  1  0  0  0  0
M  END
>  <DRUGBANK_ID>
DB02442

>  <SECONDARY_ACCESSION_NUMBERS>
EXPT02935

>  <COMMON_NAME>
Dioxyselenocysteine

$$$$
