BC1
 OpenBabel10282417163D

 42 44  0  0  0  0  0  0  0  0999 V2000
    1.1509    0.0535    0.0364 O   0  0  0  0  0  0  0  0  0  0  0  0
    0.6132    1.2764    0.2265 C   0  0  0  0  0  0  0  0  0  0  0  0
    1.2773    2.2806    0.3037 O   0  0  0  0  0  0  0  0  0  0  0  0
   -0.8567    1.2098    0.2655 C   0  0  0  0  0  0  0  0  0  0  0  0
   -1.3142    0.6868   -1.0521 C   0  0  0  0  0  0  0  0  0  0  0  0
   -1.1405   -0.7039   -1.3851 N   0  0  0  0  0  0  0  0  0  0  0  0
   -2.0614   -1.6804   -1.6715 C   0  0  0  0  0  0  0  0  0  0  0  0
   -1.5375   -2.7629   -1.9767 O   0  0  0  0  0  0  0  0  0  0  0  0
   -3.6205   -1.5133   -1.5267 C   0  0  0  0  0  0  0  0  0  0  0  0
   -4.4421   -1.6309   -2.8001 C   0  0  0  0  0  0  0  0  0  0  0  0
   -5.1236   -1.7285   -3.8565 N   0  0  0  0  0  0  0  0  0  0  0  0
   -4.1564   -2.5588   -0.6004 C   0  0  0  0  0  0  0  0  0  0  0  0
   -3.9150   -3.9189   -0.9305 C   0  0  0  0  0  0  0  0  0  0  0  0
   -4.3503   -4.9309   -0.1122 C   0  0  0  0  0  0  0  0  0  0  0  0
   -5.0753   -4.5815    1.0112 C   0  0  0  0  0  0  0  0  0  0  0  0
   -5.3539   -3.2295    1.3124 C   0  0  0  0  0  0  0  0  0  0  0  0
   -4.8997   -2.1694    0.5161 C   0  0  0  0  0  0  0  0  0  0  0  0
   -5.1367   -0.7877    0.7368 N   0  0  0  0  0  0  0  0  0  0  0  0
   -4.7635    0.2515   -0.1561 C   0  0  0  0  0  0  0  0  0  0  0  0
   -4.0989   -0.0816   -1.3281 C   0  0  0  0  0  0  0  0  0  0  0  0
   -3.7638    0.8951   -2.3524 C   0  0  0  0  0  0  0  0  0  0  0  0
   -3.8730    2.2407   -2.0865 C   0  0  0  0  0  0  0  0  0  0  0  0
   -4.4653    2.6024   -0.8863 C   0  0  0  0  0  0  0  0  0  0  0  0
   -4.9450    1.6303    0.0334 C   0  0  0  0  0  0  0  0  0  0  0  0
   -5.9261   -0.3692    1.8920 C   0  0  0  0  0  0  0  0  0  0  0  0
    2.1138    0.1991   -0.0138 H   0  0  0  0  0  0  0  0  0  0  0  0
   -1.2403    0.6010    1.0893 H   0  0  0  0  0  0  0  0  0  0  0  0
   -1.2766    2.2207    0.3812 H   0  0  0  0  0  0  0  0  0  0  0  0
   -2.3245    0.8026   -0.8030 H   0  0  0  0  0  0  0  0  0  0  0  0
   -1.0598    1.3052   -1.9211 H   0  0  0  0  0  0  0  0  0  0  0  0
   -0.1816   -1.0309   -1.4639 H   0  0  0  0  0  0  0  0  0  0  0  0
   -3.3657   -4.1879   -1.8351 H   0  0  0  0  0  0  0  0  0  0  0  0
   -4.1194   -5.9620   -0.3618 H   0  0  0  0  0  0  0  0  0  0  0  0
   -5.4399   -5.3686    1.6632 H   0  0  0  0  0  0  0  0  0  0  0  0
   -5.9495   -3.0673    2.2004 H   0  0  0  0  0  0  0  0  0  0  0  0
   -3.1785    0.5849   -3.2277 H   0  0  0  0  0  0  0  0  0  0  0  0
   -3.3815    2.9611   -2.7375 H   0  0  0  0  0  0  0  0  0  0  0  0
   -4.5219    3.6581   -0.6380 H   0  0  0  0  0  0  0  0  0  0  0  0
   -5.4137    2.0086    0.9346 H   0  0  0  0  0  0  0  0  0  0  0  0
   -5.3266    0.2772    2.5422 H   0  0  0  0  0  0  0  0  0  0  0  0
   -6.8242    0.1686    1.5680 H   0  0  0  0  0  0  0  0  0  0  0  0
   -6.2797   -1.1820    2.5249 H   0  0  0  0  0  0  0  0  0  0  0  0
  1  2  1  0  0  0  0
  1 26  1  0  0  0  0
  2  3  2  0  0  0  0
  2  4  1  0  0  0  0
  4  5  1  0  0  0  0
  4 27  1  0  0  0  0
  4 28  1  0  0  0  0
  5  6  1  0  0  0  0
  5 29  1  0  0  0  0
  5 30  1  0  0  0  0
  6  7  1  0  0  0  0
  6 31  1  0  0  0  0
  7  8  2  0  0  0  0
  7  9  1  0  0  0  0
  9 10  1  0  0  0  0
  9 12  1  0  0  0  0
  9 20  1  0  0  0  0
 10 11  3  0  0  0  0
 12 13  2  0  0  0  0
 12 17  1  0  0  0  0
 13 14  1  0  0  0  0
 13 32  1  0  0  0  0
 14 15  2  0  0  0  0
 14 33  1  0  0  0  0
 15 16  1  0  0  0  0
 15 34  1  0  0  0  0
 16 17  2  0  0  0  0
 16 35  1  0  0  0  0
 17 18  1  0  0  0  0
 18 19  1  0  0  0  0
 18 25  1  0  0  0  0
 19 20  2  0  0  0  0
 19 24  1  0  0  0  0
 20 21  1  0  0  0  0
 21 22  2  0  0  0  0
 21 36  1  0  0  0  0
 22 23  1  0  0  0  0
 22 37  1  0  0  0  0
 23 24  2  0  0  0  0
 23 38  1  0  0  0  0
 24 39  1  0  0  0  0
 25 40  1  0  0  0  0
 25 41  1  0  0  0  0
 25 42  1  0  0  0  0
M  END
>  <DRUGBANK_ID>
DB07441

>  <COMMON_NAME>
3-{[(9-CYANO-9,10-DIHYDRO-10-METHYLACRIDIN-9-YL)CARBONYL]AMINO}PROPANOIC ACID

$$$$
