PU7
 OpenBabel10282417123D

 48 50  0  0  0  0  0  0  0  0999 V2000
    1.0652    0.0008    0.1926 C   0  0  0  0  0  0  0  0  0  0  0  0
    2.5284    1.9875   -1.6958 C   0  0  0  0  0  0  0  0  0  0  0  0
    0.8479    0.2556   -1.1855 O   0  0  0  0  0  0  0  0  0  0  0  0
    1.1511    1.5702   -1.5162 C   0  0  0  0  0  0  0  0  0  0  0  0
    2.9144    3.2540   -2.3673 C   0  0  0  0  0  0  0  0  0  0  0  0
    2.0218    4.1639   -2.7886 C   0  0  0  0  0  0  0  0  0  0  0  0
    2.2742    5.1449   -3.7936 O   0  0  0  0  0  0  0  0  0  0  0  0
    1.2409    5.9140   -4.5356 C   0  0  0  0  0  0  0  0  0  0  0  0
    0.7248    3.6510   -2.5695 C   0  0  0  0  0  0  0  0  0  0  0  0
    0.1682    2.3903   -1.8918 C   0  0  0  0  0  0  0  0  0  0  0  0
   -1.3921    1.7689   -1.9628 C   0  0  0  0  0  0  0  0  0  0  0  0
   -2.5584    2.7949   -1.8710 C   0  0  0  0  0  0  0  0  0  0  0  0
   -3.3605    2.7905   -0.8353 N   0  0  0  0  0  0  0  0  0  0  0  0
   -4.0001    4.0123   -0.8605 C   0  0  0  0  0  0  0  0  0  0  0  0
   -4.8355    4.6272    0.0543 C   0  0  0  0  0  0  0  0  0  0  0  0
   -5.2120    3.9775    1.2130 N   0  0  0  0  0  0  0  0  0  0  0  0
   -3.6938    4.7002   -2.0016 C   0  0  0  0  0  0  0  0  0  0  0  0
   -4.0815    5.9615   -2.3157 N   0  0  0  0  0  0  0  0  0  0  0  0
   -4.8523    6.4712   -1.3437 C   0  0  0  0  0  0  0  0  0  0  0  0
   -5.2678    5.8879   -0.1959 N   0  0  0  0  0  0  0  0  0  0  0  0
   -2.9463    3.8372   -2.7659 N   0  0  0  0  0  0  0  0  0  0  0  0
   -2.6389    4.1868   -4.1575 C   0  0  0  0  0  0  0  0  0  0  0  0
   -1.1924    4.1047   -4.4923 C   0  0  0  0  0  0  0  0  0  0  0  0
   -0.7359    2.6427   -4.5717 C   0  0  0  0  0  0  0  0  0  0  0  0
   -0.9913    1.5000   -5.4446 C   0  0  0  0  0  0  0  0  0  0  0  0
    0.6102   -0.9613    0.4620 H   0  0  0  0  0  0  0  0  0  0  0  0
    0.6030    0.7723    0.8192 H   0  0  0  0  0  0  0  0  0  0  0  0
    2.1392   -0.0680    0.3735 H   0  0  0  0  0  0  0  0  0  0  0  0
    3.3043    1.3384   -1.3592 H   0  0  0  0  0  0  0  0  0  0  0  0
    3.9783    3.3695   -2.6424 H   0  0  0  0  0  0  0  0  0  0  0  0
    0.9329    5.4180   -5.4758 H   0  0  0  0  0  0  0  0  0  0  0  0
    0.3657    6.1899   -3.9331 H   0  0  0  0  0  0  0  0  0  0  0  0
    1.6219    6.8802   -4.9068 H   0  0  0  0  0  0  0  0  0  0  0  0
    0.6167    3.7400   -3.6318 H   0  0  0  0  0  0  0  0  0  0  0  0
   -1.6074    1.0821   -2.8196 H   0  0  0  0  0  0  0  0  0  0  0  0
   -1.5522    0.9819   -1.1940 H   0  0  0  0  0  0  0  0  0  0  0  0
   -4.8794    3.0220    1.3147 H   0  0  0  0  0  0  0  0  0  0  0  0
   -5.8747    4.3958    1.8253 H   0  0  0  0  0  0  0  0  0  0  0  0
   -5.2030    7.4899   -1.5127 H   0  0  0  0  0  0  0  0  0  0  0  0
   -3.1796    3.5550   -4.8532 H   0  0  0  0  0  0  0  0  0  0  0  0
   -2.9050    5.2412   -4.3178 H   0  0  0  0  0  0  0  0  0  0  0  0
   -0.8717    4.6561   -5.3589 H   0  0  0  0  0  0  0  0  0  0  0  0
   -0.8458    4.6807   -3.6075 H   0  0  0  0  0  0  0  0  0  0  0  0
    0.2665    2.3058   -4.2868 H   0  0  0  0  0  0  0  0  0  0  0  0
   -1.3377    2.4051   -3.7695 H   0  0  0  0  0  0  0  0  0  0  0  0
   -0.3012    1.6263   -6.2679 H   0  0  0  0  0  0  0  0  0  0  0  0
   -0.6584    0.6077   -4.8711 H   0  0  0  0  0  0  0  0  0  0  0  0
   -2.0432    1.3936   -5.6534 H   0  0  0  0  0  0  0  0  0  0  0  0
  1  3  1  0  0  0  0
  1 26  1  0  0  0  0
  1 27  1  0  0  0  0
  1 28  1  0  0  0  0
  2  4  2  0  0  0  0
  2  5  1  0  0  0  0
  2 29  1  0  0  0  0
  3  4  1  0  0  0  0
  4 10  1  0  0  0  0
  5  6  2  0  0  0  0
  5 30  1  0  0  0  0
  6  7  1  0  0  0  0
  6  9  1  0  0  0  0
  7  8  1  0  0  0  0
  8 31  1  0  0  0  0
  8 32  1  0  0  0  0
  8 33  1  0  0  0  0
  9 10  2  0  0  0  0
  9 34  1  0  0  0  0
 10 11  1  0  0  0  0
 11 12  1  0  0  0  0
 11 35  1  0  0  0  0
 11 36  1  0  0  0  0
 12 13  2  0  0  0  0
 12 21  1  0  0  0  0
 13 14  1  0  0  0  0
 14 15  2  0  0  0  0
 14 17  1  0  0  0  0
 15 16  1  0  0  0  0
 15 20  1  0  0  0  0
 16 37  1  0  0  0  0
 16 38  1  0  0  0  0
 17 18  2  0  0  0  0
 17 21  1  0  0  0  0
 18 19  1  0  0  0  0
 19 20  2  0  0  0  0
 19 39  1  0  0  0  0
 21 22  1  0  0  0  0
 22 23  1  0  0  0  0
 22 40  1  0  0  0  0
 22 41  1  0  0  0  0
 23 24  1  0  0  0  0
 23 42  1  0  0  0  0
 23 43  1  0  0  0  0
 24 25  1  0  0  0  0
 24 44  1  0  0  0  0
 24 45  1  0  0  0  0
 25 46  1  0  0  0  0
 25 47  1  0  0  0  0
 25 48  1  0  0  0  0
M  END
>  <DRUGBANK_ID>
DB02359

>  <SECONDARY_ACCESSION_NUMBERS>
EXPT02697

>  <COMMON_NAME>
9-Butyl-8-(2,5-Dimethoxy-Benzyl)-9h-Purin-6-Ylamine

$$$$
