
 OpenBabel10282417183D

 62 66  0  0  0  0  0  0  0  0999 V2000
   -2.5381   -0.7792   -0.0121 C   0  0  0  0  0  0  0  0  0  0  0  0
   -1.2199   -0.0573   -0.0161 C   0  0  0  0  0  0  0  0  0  0  0  0
   -1.2316    1.3446   -0.0507 C   0  0  0  0  0  0  0  0  0  0  0  0
   -0.0531    2.0883   -0.0084 C   0  0  0  0  0  0  0  0  0  0  0  0
    1.1653    1.4014    0.0112 C   0  0  0  0  0  0  0  0  0  0  0  0
    1.2035   -0.0117    0.0050 C   0  0  0  0  0  0  0  0  0  0  0  0
    0.0018   -0.7496   -0.0035 C   0  0  0  0  0  0  0  0  0  0  0  0
    0.0163   -2.1372    0.0510 N   0  0  0  0  0  0  0  0  0  0  0  0
    2.5299   -0.7258   -0.0103 C   0  0  0  0  0  0  0  0  0  0  0  0
    0.0024    3.4737   -0.0174 O   0  0  0  0  0  0  0  0  0  0  0  0
   -1.1809    4.1899    0.0383 C   0  0  0  0  0  0  0  0  0  0  0  0
   -1.4460    5.0946   -0.9934 C   0  0  0  0  0  0  0  0  0  0  0  0
   -2.6542    5.8125   -1.0251 C   0  0  0  0  0  0  0  0  0  0  0  0
   -3.6113    5.5725   -0.0255 C   0  0  0  0  0  0  0  0  0  0  0  0
   -3.3061    4.6991    1.0112 C   0  0  0  0  0  0  0  0  0  0  0  0
   -2.0758    4.0366    1.1082 C   0  0  0  0  0  0  0  0  0  0  0  0
   -4.4284    4.7061    1.8144 N   0  0  0  0  0  0  0  0  0  0  0  0
   -5.3459    5.5886    1.2688 C   0  0  0  0  0  0  0  0  0  0  0  0
   -4.8711    6.0955    0.1393 N   0  0  0  0  0  0  0  0  0  0  0  0
   -6.5927    6.0399    1.9737 C   0  0  0  0  0  0  0  0  0  0  0  0
   -6.5968    7.4519    2.2702 O   0  0  0  0  0  0  0  0  0  0  0  0
   -5.6451    7.9445    3.1164 C   0  0  0  0  0  0  0  0  0  0  0  0
   -4.2831    7.6894    2.9907 C   0  0  0  0  0  0  0  0  0  0  0  0
   -3.3190    8.3160    3.7614 C   0  0  0  0  0  0  0  0  0  0  0  0
   -3.7049    9.2846    4.6703 C   0  0  0  0  0  0  0  0  0  0  0  0
   -5.0760    9.5571    4.8045 C   0  0  0  0  0  0  0  0  0  0  0  0
   -6.0417    8.8920    4.0440 C   0  0  0  0  0  0  0  0  0  0  0  0
   -2.6442    9.9720    5.4891 C   0  0  0  0  0  0  0  0  0  0  0  0
   -2.4869   11.4876    5.3145 C   0  0  3  0  0  0  0  0  0  0  0  0
   -2.2594   11.9234    3.8786 C   0  0  0  0  0  0  0  0  0  0  0  0
   -1.2419   11.7000    3.2348 O   0  0  0  0  0  0  0  0  0  0  0  0
   -3.3216   12.6226    3.3855 N   0  0  0  0  0  0  0  0  0  0  0  0
   -4.3779   12.8494    4.2035 C   0  0  0  0  0  0  0  0  0  0  0  0
   -5.4700   13.2610    3.8711 O   0  0  0  0  0  0  0  0  0  0  0  0
   -3.9325   12.4702    5.8543 S   0  0  0  0  0  0  0  0  0  0  0  0
   -4.4926    4.0278    3.0884 C   0  0  0  0  0  0  0  0  0  0  0  0
   -2.6224   -1.4080   -0.9031 H   0  0  0  0  0  0  0  0  0  0  0  0
   -2.6273   -1.3941    0.8889 H   0  0  0  0  0  0  0  0  0  0  0  0
   -3.3819   -0.0810   -0.0170 H   0  0  0  0  0  0  0  0  0  0  0  0
   -2.1956    1.8374   -0.1119 H   0  0  0  0  0  0  0  0  0  0  0  0
    2.0956    1.9660    0.0180 H   0  0  0  0  0  0  0  0  0  0  0  0
    0.8826   -2.6510   -0.0083 H   0  0  0  0  0  0  0  0  0  0  0  0
   -0.8434   -2.6637    0.0002 H   0  0  0  0  0  0  0  0  0  0  0  0
    2.6286   -1.3600    0.8775 H   0  0  0  0  0  0  0  0  0  0  0  0
    2.6072   -1.3522   -0.9068 H   0  0  0  0  0  0  0  0  0  0  0  0
    3.3735   -0.0300   -0.0203 H   0  0  0  0  0  0  0  0  0  0  0  0
   -0.7254    5.2315   -1.7958 H   0  0  0  0  0  0  0  0  0  0  0  0
   -2.8651    6.5221   -1.8187 H   0  0  0  0  0  0  0  0  0  0  0  0
   -1.8589    3.3620    1.9286 H   0  0  0  0  0  0  0  0  0  0  0  0
   -7.4377    5.8646    1.2985 H   0  0  0  0  0  0  0  0  0  0  0  0
   -6.8138    5.4943    2.8927 H   0  0  0  0  0  0  0  0  0  0  0  0
   -3.8775    7.0531    2.2322 H   0  0  0  0  0  0  0  0  0  0  0  0
   -2.2777    8.0515    3.5868 H   0  0  0  0  0  0  0  0  0  0  0  0
   -5.4377   10.3125    5.4913 H   0  0  0  0  0  0  0  0  0  0  0  0
   -7.0896    9.1481    4.1782 H   0  0  0  0  0  0  0  0  0  0  0  0
   -2.8362    9.7228    6.5398 H   0  0  0  0  0  0  0  0  0  0  0  0
   -1.6728    9.5018    5.2650 H   0  0  0  0  0  0  0  0  0  0  0  0
   -1.6340   11.8255    5.9083 H   0  0  0  0  0  0  0  0  0  0  0  0
   -3.3480   12.9314    2.4275 H   0  0  0  0  0  0  0  0  0  0  0  0
   -4.3988    2.9558    2.9032 H   0  0  0  0  0  0  0  0  0  0  0  0
   -3.6681    4.3811    3.7156 H   0  0  0  0  0  0  0  0  0  0  0  0
   -5.4323    4.2232    3.6006 H   0  0  0  0  0  0  0  0  0  0  0  0
  1  2  1  0  0  0  0
  1 37  1  0  0  0  0
  1 38  1  0  0  0  0
  1 39  1  0  0  0  0
  2  3  2  0  0  0  0
  2  7  1  0  0  0  0
  3  4  1  0  0  0  0
  3 40  1  0  0  0  0
  4  5  2  0  0  0  0
  4 10  1  0  0  0  0
  5  6  1  0  0  0  0
  5 41  1  0  0  0  0
  6  7  2  0  0  0  0
  6  9  1  0  0  0  0
  7  8  1  0  0  0  0
  8 42  1  0  0  0  0
  8 43  1  0  0  0  0
  9 44  1  0  0  0  0
  9 45  1  0  0  0  0
  9 46  1  0  0  0  0
 10 11  1  0  0  0  0
 11 12  2  0  0  0  0
 11 16  1  0  0  0  0
 12 13  1  0  0  0  0
 12 47  1  0  0  0  0
 13 14  2  0  0  0  0
 13 48  1  0  0  0  0
 14 15  1  0  0  0  0
 14 19  1  0  0  0  0
 15 16  2  0  0  0  0
 15 17  1  0  0  0  0
 16 49  1  0  0  0  0
 17 18  1  0  0  0  0
 17 36  1  0  0  0  0
 18 19  2  0  0  0  0
 18 20  1  0  0  0  0
 20 21  1  0  0  0  0
 20 50  1  0  0  0  0
 20 51  1  0  0  0  0
 21 22  1  0  0  0  0
 22 23  2  0  0  0  0
 22 27  1  0  0  0  0
 23 24  1  0  0  0  0
 23 52  1  0  0  0  0
 24 25  2  0  0  0  0
 24 53  1  0  0  0  0
 25 26  1  0  0  0  0
 25 28  1  0  0  0  0
 26 27  2  0  0  0  0
 26 54  1  0  0  0  0
 27 55  1  0  0  0  0
 28 29  1  0  0  0  0
 28 56  1  0  0  0  0
 28 57  1  0  0  0  0
 29 30  1  0  0  0  0
 29 35  1  0  0  0  0
 29 58  1  0  0  0  0
 30 31  2  0  0  0  0
 30 32  1  0  0  0  0
 32 33  1  0  0  0  0
 32 59  1  0  0  0  0
 33 34  2  0  0  0  0
 33 35  1  0  0  0  0
 36 60  1  0  0  0  0
 36 61  1  0  0  0  0
 36 62  1  0  0  0  0
M  END
>  <DRUGBANK_ID>
DB11894

>  <COMMON_NAME>
Efatutazone

>  <CAS_NUMBER>
223132-37-4

>  <UNII>
M17ILL71MC

>  <SYNONYMS>
Efatutazone

$$$$
