
 OpenBabel10282417143D

 18 18  0  0  0  0  0  0  0  0999 V2000
    1.0256   -0.0550    0.0745 N   0  0  0  0  0  0  0  0  0  0  0  0
    0.2857   -0.4698    1.1503 C   0  0  0  0  0  0  0  0  0  0  0  0
   -0.9380   -0.4445    1.1108 O   0  0  0  0  0  0  0  0  0  0  0  0
    1.0474   -0.9210    2.3410 C   0  0  0  0  0  0  0  0  0  0  0  0
    2.1387   -0.1635    2.7949 C   0  0  0  0  0  0  0  0  0  0  0  0
    2.8737   -0.5821    3.9099 C   0  0  0  0  0  0  0  0  0  0  0  0
    2.5294   -1.7603    4.5778 C   0  0  0  0  0  0  0  0  0  0  0  0
    1.4344   -2.4999    4.1355 C   0  0  0  0  0  0  0  0  0  0  0  0
    1.0602   -3.6626    4.7561 O   0  0  0  0  0  0  0  0  0  0  0  0
    0.6877   -2.0818    3.0289 C   0  0  0  0  0  0  0  0  0  0  0  0
   -0.3697   -2.8471    2.6177 O   0  0  0  0  0  0  0  0  0  0  0  0
    0.5094    0.1661   -0.7675 H   0  0  0  0  0  0  0  0  0  0  0  0
    2.0285   -0.1514    0.0147 H   0  0  0  0  0  0  0  0  0  0  0  0
    2.4049    0.7669    2.2989 H   0  0  0  0  0  0  0  0  0  0  0  0
    3.7134    0.0162    4.2582 H   0  0  0  0  0  0  0  0  0  0  0  0
    3.1210   -2.0759    5.4324 H   0  0  0  0  0  0  0  0  0  0  0  0
    1.6748   -3.8391    5.4899 H   0  0  0  0  0  0  0  0  0  0  0  0
   -0.4662   -3.5615    3.2744 H   0  0  0  0  0  0  0  0  0  0  0  0
  1  2  1  0  0  0  0
  1 12  1  0  0  0  0
  1 13  1  0  0  0  0
  2  3  2  0  0  0  0
  2  4  1  0  0  0  0
  4  5  2  0  0  0  0
  4 10  1  0  0  0  0
  5  6  1  0  0  0  0
  5 14  1  0  0  0  0
  6  7  2  0  0  0  0
  6 15  1  0  0  0  0
  7  8  1  0  0  0  0
  7 16  1  0  0  0  0
  8  9  1  0  0  0  0
  8 10  2  0  0  0  0
  9 17  1  0  0  0  0
 10 11  1  0  0  0  0
 11 18  1  0  0  0  0
M  END
>  <DRUGBANK_ID>
DB04476

>  <SECONDARY_ACCESSION_NUMBERS>
EXPT01118

>  <COMMON_NAME>
Trencam-3,2-Hopo

>  <UNII>
Z33JA2LC96

$$$$
