CM4
 OpenBabel10282417163D

 64 68  0  0  0  0  0  0  0  0999 V2000
   -2.4612    0.7368   -0.3445 C   0  0  2  0  0  0  0  0  0  0  0  0
   -2.3827   -0.6475    0.4029 C   0  0  1  0  0  0  0  0  0  0  0  0
   -1.2001   -1.3659   -0.1059 O   0  0  0  0  0  0  0  0  0  0  0  0
   -0.0141   -0.6536   -0.1264 C   0  0  0  0  0  0  0  0  0  0  0  0
    1.1839   -1.3864   -0.1426 C   0  0  0  0  0  0  0  0  0  0  0  0
    2.4272   -0.7345   -0.0698 C   0  0  0  0  0  0  0  0  0  0  0  0
    2.4657    0.6476    0.0302 C   0  0  0  0  0  0  0  0  0  0  0  0
    3.6251    1.3598    0.0956 O   0  0  0  0  0  0  0  0  0  0  0  0
    1.2891    1.3729    0.0694 C   0  0  0  0  0  0  0  0  0  0  0  0
    0.0394    0.7393   -0.0403 C   0  0  0  0  0  0  0  0  0  0  0  0
   -1.2132    1.5739    0.0165 C   0  0  1  0  0  0  0  0  0  0  0  0
   -1.1027    2.7961   -0.9045 C   0  0  0  0  0  0  0  0  0  0  0  0
   -3.7070    1.6119   -0.1833 C   0  0  0  0  0  0  0  0  0  0  0  0
   -4.0592    2.1638    1.0501 C   0  0  0  0  0  0  0  0  0  0  0  0
   -5.2496    2.8309    1.2711 C   0  0  0  0  0  0  0  0  0  0  0  0
   -5.9130    3.3157    0.1720 C   0  0  0  0  0  0  0  0  0  0  0  0
   -6.9730    4.1303    0.4122 O   0  0  0  0  0  0  0  0  0  0  0  0
   -5.4378    3.0385   -1.1061 C   0  0  0  0  0  0  0  0  0  0  0  0
   -4.4043    2.1059   -1.2882 C   0  0  0  0  0  0  0  0  0  0  0  0
   -2.3601   -0.5666    1.9361 C   0  0  0  0  0  0  0  0  0  0  0  0
   -3.4222   -0.0272    2.6818 C   0  0  0  0  0  0  0  0  0  0  0  0
   -3.1650    0.6055    3.9114 C   0  0  0  0  0  0  0  0  0  0  0  0
   -1.9318    0.4768    4.5157 C   0  0  0  0  0  0  0  0  0  0  0  0
   -0.9268   -0.2255    3.8433 C   0  0  0  0  0  0  0  0  0  0  0  0
   -1.1850   -0.8134    2.6145 C   0  0  0  0  0  0  0  0  0  0  0  0
   -1.8551    0.8835    5.8220 O   0  0  0  0  0  0  0  0  0  0  0  0
   -0.8405    0.2539    6.6213 C   0  0  0  0  0  0  0  0  0  0  0  0
   -1.0830   -1.2474    6.9550 C   0  0  0  0  0  0  0  0  0  0  0  0
   -1.1700   -2.0826    5.7617 N   0  0  0  0  0  0  0  0  0  0  0  0
   -2.5318   -2.4290    5.3513 C   0  0  0  0  0  0  0  0  0  0  0  0
   -2.6925   -3.8009    5.9345 C   0  0  0  0  0  0  0  0  0  0  0  0
   -1.3371   -4.4285    5.6437 C   0  0  0  0  0  0  0  0  0  0  0  0
   -0.3471   -3.2719    5.6696 C   0  0  0  0  0  0  0  0  0  0  0  0
   -2.3891    0.4724   -1.4123 H   0  0  0  0  0  0  0  0  0  0  0  0
   -3.2442   -1.2670    0.1193 H   0  0  0  0  0  0  0  0  0  0  0  0
   -1.2960    1.9294    1.0525 H   0  0  0  0  0  0  0  0  0  0  0  0
    1.1567   -2.4728   -0.1696 H   0  0  0  0  0  0  0  0  0  0  0  0
    3.3440   -1.3148   -0.0731 H   0  0  0  0  0  0  0  0  0  0  0  0
    4.3793    0.7553    0.0231 H   0  0  0  0  0  0  0  0  0  0  0  0
    1.3591    2.4497    0.1930 H   0  0  0  0  0  0  0  0  0  0  0  0
   -2.0025    3.4133   -0.8779 H   0  0  0  0  0  0  0  0  0  0  0  0
   -0.2899    3.4593   -0.6018 H   0  0  0  0  0  0  0  0  0  0  0  0
   -0.9253    2.4806   -1.9379 H   0  0  0  0  0  0  0  0  0  0  0  0
   -3.3790    2.1095    1.8896 H   0  0  0  0  0  0  0  0  0  0  0  0
   -5.5827    3.0428    2.2810 H   0  0  0  0  0  0  0  0  0  0  0  0
   -7.2931    4.4718   -0.4363 H   0  0  0  0  0  0  0  0  0  0  0  0
   -5.8352    3.5612   -1.9692 H   0  0  0  0  0  0  0  0  0  0  0  0
   -4.0746    1.8616   -2.2949 H   0  0  0  0  0  0  0  0  0  0  0  0
   -4.4136    0.0629    2.2521 H   0  0  0  0  0  0  0  0  0  0  0  0
   -3.9377    1.2171    4.3823 H   0  0  0  0  0  0  0  0  0  0  0  0
    0.0153   -0.4780    4.3016 H   0  0  0  0  0  0  0  0  0  0  0  0
   -0.4181   -1.4663    2.2037 H   0  0  0  0  0  0  0  0  0  0  0  0
    0.1513    0.4250    6.1855 H   0  0  0  0  0  0  0  0  0  0  0  0
   -0.8321    0.7987    7.5721 H   0  0  0  0  0  0  0  0  0  0  0  0
   -0.2509   -1.5709    7.5909 H   0  0  0  0  0  0  0  0  0  0  0  0
   -1.9927   -1.3427    7.5588 H   0  0  0  0  0  0  0  0  0  0  0  0
   -2.5932   -2.5029    4.2580 H   0  0  0  0  0  0  0  0  0  0  0  0
   -3.2994   -1.7188    5.6740 H   0  0  0  0  0  0  0  0  0  0  0  0
   -2.8633   -3.7181    7.0128 H   0  0  0  0  0  0  0  0  0  0  0  0
   -3.5244   -4.3422    5.4790 H   0  0  0  0  0  0  0  0  0  0  0  0
   -1.0846   -5.1972    6.3745 H   0  0  0  0  0  0  0  0  0  0  0  0
   -1.3454   -4.8776    4.6424 H   0  0  0  0  0  0  0  0  0  0  0  0
    0.3943   -3.3628    6.4678 H   0  0  0  0  0  0  0  0  0  0  0  0
    0.2144   -3.2423    4.7244 H   0  0  0  0  0  0  0  0  0  0  0  0
  1  2  1  0  0  0  0
  1 11  1  0  0  0  0
  1 34  1  6  0  0  0
  1 13  1  0  0  0  0
  2  3  1  0  0  0  0
  2 20  1  0  0  0  0
  2 35  1  6  0  0  0
  3  4  1  0  0  0  0
  4  5  2  0  0  0  0
  4 10  1  0  0  0  0
  5  6  1  0  0  0  0
  5 37  1  0  0  0  0
  6  7  2  0  0  0  0
  6 38  1  0  0  0  0
  7  8  1  0  0  0  0
  7  9  1  0  0  0  0
  8 39  1  0  0  0  0
  9 10  2  0  0  0  0
  9 40  1  0  0  0  0
 10 11  1  0  0  0  0
 11 12  1  0  0  0  0
 11 36  1  1  0  0  0
 12 41  1  0  0  0  0
 12 42  1  0  0  0  0
 12 43  1  0  0  0  0
 13 14  2  0  0  0  0
 13 19  1  0  0  0  0
 14 15  1  0  0  0  0
 14 44  1  0  0  0  0
 15 16  2  0  0  0  0
 15 45  1  0  0  0  0
 16 17  1  0  0  0  0
 16 18  1  0  0  0  0
 17 46  1  0  0  0  0
 18 19  2  0  0  0  0
 18 47  1  0  0  0  0
 19 48  1  0  0  0  0
 20 21  2  0  0  0  0
 20 25  1  0  0  0  0
 21 22  1  0  0  0  0
 21 49  1  0  0  0  0
 22 23  2  0  0  0  0
 22 50  1  0  0  0  0
 23 24  1  0  0  0  0
 23 26  1  0  0  0  0
 24 25  2  0  0  0  0
 24 51  1  0  0  0  0
 25 52  1  0  0  0  0
 26 27  1  0  0  0  0
 27 28  1  0  0  0  0
 27 53  1  0  0  0  0
 27 54  1  0  0  0  0
 28 29  1  0  0  0  0
 28 55  1  0  0  0  0
 28 56  1  0  0  0  0
 29 30  1  0  0  0  0
 29 33  1  0  0  0  0
 30 31  1  0  0  0  0
 30 57  1  0  0  0  0
 30 58  1  0  0  0  0
 31 32  1  0  0  0  0
 31 59  1  0  0  0  0
 31 60  1  0  0  0  0
 32 33  1  0  0  0  0
 32 61  1  0  0  0  0
 32 62  1  0  0  0  0
 33 63  1  0  0  0  0
 33 64  1  0  0  0  0
M  END
>  <DRUGBANK_ID>
DB07567

>  <COMMON_NAME>
(2R,3R,4S)-3-(4-HYDROXYPHENYL)-4-METHYL-2-[4-(2-PYRROLIDIN-1-YLETHOXY)PHENYL]CHROMAN-6-OL

$$$$
