1010
 OpenBabel10282417113D

 28 28  0  0  0  0  0  0  0  0999 V2000
    2.3776   -0.0969    0.1337 O   0  0  0  0  0  0  0  0  0  0  0  0
   -2.2814   -2.2653    0.0971 N   0  3  0  0  0  0  0  0  0  0  0  0
   -3.2755   -1.2376    0.6671 C   0  0  0  0  0  0  0  0  0  0  0  0
   -1.1858   -1.0683   -0.4494 C   0  0  0  0  0  0  0  0  0  0  0  0
   -3.5635   -3.1566   -0.2496 C   0  0  0  0  0  0  0  0  0  0  0  0
   -1.3788   -3.5120    0.2689 C   0  0  0  0  0  0  0  0  0  0  0  0
   -4.0654   -0.7421   -0.7982 C   0  0  0  0  0  0  0  0  0  0  0  0
    0.1977   -1.1816   -0.2010 C   0  0  0  0  0  0  0  0  0  0  0  0
   -1.5872    0.3290   -0.5036 C   0  0  0  0  0  0  0  0  0  0  0  0
    1.0355   -0.0269   -0.0597 C   0  0  0  0  0  0  0  0  0  0  0  0
   -0.7867    1.4486   -0.2376 C   0  0  0  0  0  0  0  0  0  0  0  0
    0.5230    1.2730   -0.0413 C   0  0  0  0  0  0  0  0  0  0  0  0
    2.7158   -0.9885   -0.0437 H   0  0  0  0  0  0  0  0  0  0  0  0
   -3.9332   -1.6631    1.4325 H   0  0  0  0  0  0  0  0  0  0  0  0
   -2.7377   -0.4581    1.2246 H   0  0  0  0  0  0  0  0  0  0  0  0
   -3.5167   -3.6403   -1.2130 H   0  0  0  0  0  0  0  0  0  0  0  0
   -3.6546   -3.8512    0.6158 H   0  0  0  0  0  0  0  0  0  0  0  0
   -4.5687   -2.7231   -0.0592 H   0  0  0  0  0  0  0  0  0  0  0  0
   -0.7924   -3.6052   -0.6647 H   0  0  0  0  0  0  0  0  0  0  0  0
   -0.7621   -3.4806    1.1591 H   0  0  0  0  0  0  0  0  0  0  0  0
   -1.9329   -4.4681    0.2489 H   0  0  0  0  0  0  0  0  0  0  0  0
   -4.6940   -1.4818   -1.3134 H   0  0  0  0  0  0  0  0  0  0  0  0
   -4.6577    0.1580   -0.6732 H   0  0  0  0  0  0  0  0  0  0  0  0
   -3.3539   -0.6068   -1.6436 H   0  0  0  0  0  0  0  0  0  0  0  0
    0.6945   -2.1317   -0.0163 H   0  0  0  0  0  0  0  0  0  0  0  0
   -2.5882    0.7072   -0.5456 H   0  0  0  0  0  0  0  0  0  0  0  0
   -1.2803    2.4257   -0.1344 H   0  0  0  0  0  0  0  0  0  0  0  0
    1.1642    2.1389    0.1489 H   0  0  0  0  0  0  0  0  0  0  0  0
  1 10  1  0  0  0  0
  1 13  1  0  0  0  0
  2  3  1  0  0  0  0
  2  4  1  0  0  0  0
  2  5  1  0  0  0  0
  2  6  1  0  0  0  0
  3  7  1  0  0  0  0
  3 14  1  0  0  0  0
  3 15  1  0  0  0  0
  4  8  2  0  0  0  0
  4  9  1  0  0  0  0
  5 16  1  0  0  0  0
  5 17  1  0  0  0  0
  5 18  1  0  0  0  0
  6 19  1  0  0  0  0
  6 20  1  0  0  0  0
  6 21  1  0  0  0  0
  7 22  1  0  0  0  0
  7 23  1  0  0  0  0
  7 24  1  0  0  0  0
  8 10  1  0  0  0  0
  8 25  1  0  0  0  0
  9 11  2  0  0  0  0
  9 26  1  0  0  0  0
 10 12  2  0  0  0  0
 11 12  1  0  0  0  0
 11 27  1  0  0  0  0
 12 28  1  0  0  0  0
M  CHG  1   2   1
M  END
>  <DRUGBANK_ID>
DB01010

>  <SECONDARY_ACCESSION_NUMBERS>
APRD00944

>  <COMMON_NAME>
Edrophonium

>  <CAS_NUMBER>
312-48-1

>  <UNII>
70FP3JLY7N

>  <SYNONYMS>
(3-hydroxyphenyl)dimethylethylammonium; 3-hydroxy-N,N-dimethyl-N-ethylanilinium; Edrophonium cation; Edrophonium ion; Ethyl-(3-hydroxy-phenyl)-dimethyl-ammonium; N-ethyl-3-hydroxy-N,N-dimethylanilinium; N-ethyl-3-hydroxy-N,N-dimethylbenzenaminium

$$$$
