
 OpenBabel10282417193D

 49 51  0  0  1  0  0  0  0  0999 V2000
    2.4875   -0.0062   -0.0091 C   0  0  0  0  0  0  0  0  0  0  0  0
    0.9882   -0.0045    0.0189 C   0  0  0  0  0  0  0  0  0  0  0  0
    0.2789    1.1992    0.0242 C   0  0  0  0  0  0  0  0  0  0  0  0
   -1.1179    1.1954    0.0022 C   0  0  0  0  0  0  0  0  0  0  0  0
   -1.8341   -0.0114   -0.0513 C   0  0  0  0  0  0  0  0  0  0  0  0
   -1.1224   -1.2157   -0.0096 C   0  0  0  0  0  0  0  0  0  0  0  0
    0.2772   -1.2115    0.0184 C   0  0  0  0  0  0  0  0  0  0  0  0
   -3.3445    0.0057   -0.1973 C   0  0  0  0  0  0  0  0  0  0  0  0
   -3.8788   -0.6240   -1.3936 O   0  0  0  0  0  0  0  0  0  0  0  0
   -3.4231   -0.1585   -2.5921 C   0  0  0  0  0  0  0  0  0  0  0  0
   -2.6292    0.7721   -2.7145 O   0  0  0  0  0  0  0  0  0  0  0  0
   -3.8724   -0.8858   -3.6810 N   0  0  0  0  0  0  0  0  0  0  0  0
   -5.2331   -1.3656   -3.8646 C   0  0  0  0  0  0  0  0  0  0  0  0
   -5.2584   -2.8685   -4.1388 C   0  0  0  0  0  0  0  0  0  0  0  0
   -4.3130   -3.2570   -5.2982 C   0  0  1  0  0  0  0  0  0  0  0  0
   -2.9094   -2.6985   -5.0094 C   0  0  1  0  0  0  0  0  0  0  0  0
   -2.9519   -1.1827   -4.7748 C   0  0  0  0  0  0  0  0  0  0  0  0
   -2.4408   -3.2988   -3.8737 F   0  0  0  0  0  0  0  0  0  0  0  0
   -4.2220   -4.7827   -5.4884 C   0  0  0  0  0  0  0  0  0  0  0  0
   -5.5116   -5.3580   -5.8031 N   0  0  0  0  0  0  0  0  0  0  0  0
   -5.7192   -6.0084   -6.9900 C   0  0  0  0  0  0  0  0  0  0  0  0
   -6.8930   -5.7991   -7.6039 N   0  0  0  0  0  0  0  0  0  0  0  0
   -7.1254   -6.5030   -8.7308 C   0  0  0  0  0  0  0  0  0  0  0  0
   -6.2651   -7.4514   -9.2236 C   0  0  0  0  0  0  0  0  0  0  0  0
   -5.1055   -7.6084   -8.5091 C   0  0  0  0  0  0  0  0  0  0  0  0
   -4.7961   -6.8769   -7.4233 N   0  0  0  0  0  0  0  0  0  0  0  0
    2.8823   -0.5293    0.8669 H   0  0  0  0  0  0  0  0  0  0  0  0
    2.8483   -0.4968   -0.9192 H   0  0  0  0  0  0  0  0  0  0  0  0
    2.8882    1.0134    0.0002 H   0  0  0  0  0  0  0  0  0  0  0  0
    0.8067    2.1503    0.0148 H   0  0  0  0  0  0  0  0  0  0  0  0
   -1.6422    2.1483   -0.0223 H   0  0  0  0  0  0  0  0  0  0  0  0
   -1.6527   -2.1647   -0.0291 H   0  0  0  0  0  0  0  0  0  0  0  0
    0.8113   -2.1592    0.0131 H   0  0  0  0  0  0  0  0  0  0  0  0
   -3.7601   -0.5273    0.6693 H   0  0  0  0  0  0  0  0  0  0  0  0
   -3.7385    1.0270   -0.1370 H   0  0  0  0  0  0  0  0  0  0  0  0
   -5.8689   -1.0964   -3.0172 H   0  0  0  0  0  0  0  0  0  0  0  0
   -5.6324   -0.8419   -4.7461 H   0  0  0  0  0  0  0  0  0  0  0  0
   -4.9531   -3.3991   -3.2299 H   0  0  0  0  0  0  0  0  0  0  0  0
   -6.2863   -3.1694   -4.3673 H   0  0  0  0  0  0  0  0  0  0  0  0
   -4.6863   -2.8021   -6.2277 H   0  0  0  0  0  0  0  0  0  0  0  0
   -2.2111   -2.9454   -5.8144 H   0  0  0  0  0  0  0  0  0  0  0  0
   -3.3025   -0.6685   -5.6774 H   0  0  0  0  0  0  0  0  0  0  0  0
   -1.9472   -0.8219   -4.5335 H   0  0  0  0  0  0  0  0  0  0  0  0
   -3.4823   -4.9919   -6.2732 H   0  0  0  0  0  0  0  0  0  0  0  0
   -3.8510   -5.2512   -4.5711 H   0  0  0  0  0  0  0  0  0  0  0  0
   -6.3539   -5.0315   -5.3597 H   0  0  0  0  0  0  0  0  0  0  0  0
   -8.0619   -6.2825   -9.2355 H   0  0  0  0  0  0  0  0  0  0  0  0
   -6.4853   -8.0364  -10.1047 H   0  0  0  0  0  0  0  0  0  0  0  0
   -4.3686   -8.3559   -8.7857 H   0  0  0  0  0  0  0  0  0  0  0  0
  1  2  1  0  0  0  0
  1 27  1  0  0  0  0
  1 28  1  0  0  0  0
  1 29  1  0  0  0  0
  2  3  2  0  0  0  0
  2  7  1  0  0  0  0
  3  4  1  0  0  0  0
  3 30  1  0  0  0  0
  4  5  2  0  0  0  0
  4 31  1  0  0  0  0
  5  6  1  0  0  0  0
  5  8  1  0  0  0  0
  6  7  2  0  0  0  0
  6 32  1  0  0  0  0
  7 33  1  0  0  0  0
  8  9  1  0  0  0  0
  8 34  1  0  0  0  0
  8 35  1  0  0  0  0
  9 10  1  0  0  0  0
 10 11  2  0  0  0  0
 10 12  1  0  0  0  0
 12 13  1  0  0  0  0
 12 17  1  0  0  0  0
 13 14  1  0  0  0  0
 13 36  1  0  0  0  0
 13 37  1  0  0  0  0
 14 15  1  0  0  0  0
 14 38  1  0  0  0  0
 14 39  1  0  0  0  0
 15 16  1  0  0  0  0
 15 19  1  0  0  0  0
 15 40  1  6  0  0  0
 16 17  1  0  0  0  0
 16 18  1  0  0  0  0
 16 41  1  6  0  0  0
 17 42  1  0  0  0  0
 17 43  1  0  0  0  0
 19 20  1  0  0  0  0
 19 44  1  0  0  0  0
 19 45  1  0  0  0  0
 20 21  1  0  0  0  0
 20 46  1  0  0  0  0
 21 22  2  0  0  0  0
 21 26  1  0  0  0  0
 22 23  1  0  0  0  0
 23 24  2  0  0  0  0
 23 47  1  0  0  0  0
 24 25  1  0  0  0  0
 24 48  1  0  0  0  0
 25 26  2  0  0  0  0
 25 49  1  0  0  0  0
M  END
>  <DRUGBANK_ID>
DB12063

>  <COMMON_NAME>
CERC-301

>  <CAS_NUMBER>
808732-98-1

>  <UNII>
5HAM167S5T

$$$$
