
 OpenBabel10282417143D

 17 17  0  0  1  0  0  0  0  0999 V2000
   -1.0802    1.0227    0.0159 C   0  0  0  0  0  0  0  0  0  0  0  0
    0.3603    1.4561    0.0261 C   0  0  0  0  0  0  0  0  0  0  0  0
   -1.3391   -0.4409   -0.0051 C   0  0  0  0  0  0  0  0  0  0  0  0
    0.9608   -1.0997   -0.0217 C   0  0  0  0  0  0  0  0  0  0  0  0
    1.4229    0.3650    0.0355 C   0  0  2  0  0  0  0  0  0  0  0  0
    2.2800    0.5871    1.2139 N   0  0  0  0  0  0  0  0  0  0  0  0
   -0.4672   -1.3779   -0.0291 N   0  0  0  0  0  0  0  0  0  0  0  0
    2.0614    0.5311   -0.8445 H   0  0  0  0  0  0  0  0  0  0  0  0
   -1.5826    1.4157    0.9073 H   0  0  0  0  0  0  0  0  0  0  0  0
   -1.5949    1.4612   -0.8465 H   0  0  0  0  0  0  0  0  0  0  0  0
    0.4819    2.1260    0.8888 H   0  0  0  0  0  0  0  0  0  0  0  0
    0.5446    2.1149   -0.8340 H   0  0  0  0  0  0  0  0  0  0  0  0
   -2.4026   -0.7328   -0.0014 H   0  0  0  0  0  0  0  0  0  0  0  0
    1.3880   -1.5607   -0.9215 H   0  0  0  0  0  0  0  0  0  0  0  0
    1.3969   -1.6616    0.8144 H   0  0  0  0  0  0  0  0  0  0  0  0
    2.4764    1.5797    1.3290 H   0  0  0  0  0  0  0  0  0  0  0  0
    3.1771    0.1235    1.0824 H   0  0  0  0  0  0  0  0  0  0  0  0
  1  9  1  0  0  0  0
  1 10  1  0  0  0  0
  2  1  1  0  0  0  0
  2 11  1  0  0  0  0
  2 12  1  0  0  0  0
  3  1  1  0  0  0  0
  3 13  1  0  0  0  0
  4 14  1  0  0  0  0
  4 15  1  0  0  0  0
  5  2  1  0  0  0  0
  5  4  1  0  0  0  0
  5  8  1  6  0  0  0
  5  6  1  0  0  0  0
  6 16  1  0  0  0  0
  6 17  1  0  0  0  0
  7  3  2  0  0  0  0
  7  4  1  0  0  0  0
M  END
>  <DRUGBANK_ID>
DB04504

>  <SECONDARY_ACCESSION_NUMBERS>
EXPT03253

>  <COMMON_NAME>
(3s)-2,3,4,5-Tetrahydropyridin-3-Amine

$$$$
