
 OpenBabel10282417193D

 92 99  0  0  0  0  0  0  0  0999 V2000
   -0.9589    0.4009    0.2097 C   0  0  0  0  0  0  0  0  0  0  0  0
   -0.2601    1.3206    5.8480 C   0  0  0  0  0  0  0  0  0  0  0  0
   -1.5398    1.9212    5.8485 C   0  0  0  0  0  0  0  0  0  0  0  0
   -0.0480    1.6336    7.7277 C   0  0  0  0  0  0  0  0  0  0  0  0
   -2.1961    1.4916    7.0139 C   0  0  0  0  0  0  0  0  0  0  0  0
   -0.8069    1.6704    8.8270 C   0  0  0  0  0  0  0  0  0  0  0  0
   -1.6940    2.2608    8.1231 C   0  0  0  0  0  0  0  0  0  0  0  0
   -1.0478    1.2620    4.3309 N   0  0  0  0  0  0  0  0  0  0  0  0
   -0.9320    2.6272    3.8831 C   0  0  0  0  0  0  0  0  0  0  0  0
   -0.8293    2.9813    5.1800 C   0  0  0  0  0  0  0  0  0  0  0  0
   -0.9229    3.4146    2.6033 C   0  0  0  0  0  0  0  0  0  0  0  0
   -0.6482    3.0576    1.2397 C   0  0  0  0  0  0  0  0  0  0  0  0
   -1.1348    4.7749    2.8797 C   0  0  0  0  0  0  0  0  0  0  0  0
   -0.3884    4.1524    0.3386 C   0  0  0  0  0  0  0  0  0  0  0  0
   -0.9380    5.7948    1.9858 C   0  0  0  0  0  0  0  0  0  0  0  0
   -0.5285    5.4972    0.7084 C   0  0  0  0  0  0  0  0  0  0  0  0
   -0.0748    4.1035    5.6985 C   0  0  0  0  0  0  0  0  0  0  0  0
    1.3154    3.6862    6.2585 C   0  0  0  0  0  0  0  0  0  0  0  0
   -1.1647    4.7740    6.5268 C   0  0  0  0  0  0  0  0  0  0  0  0
    1.8286    4.7741    7.1429 C   0  0  0  0  0  0  0  0  0  0  0  0
   -0.5472    5.7352    7.4638 C   0  0  0  0  0  0  0  0  0  0  0  0
    0.7723    5.3007    8.1205 C   0  0  0  0  0  0  0  0  0  0  0  0
   -0.9054    0.4848    9.7271 C   0  0  0  0  0  0  0  0  0  0  0  0
   -1.5009    0.4938   10.7843 O   0  0  0  0  0  0  0  0  0  0  0  0
   -0.2248   -0.6534    9.2107 N   0  0  0  0  0  0  0  0  0  0  0  0
    0.6765   -0.8036    7.7795 S   0  0  0  0  0  0  0  0  0  0  0  0
    2.0569   -1.6215    8.1517 N   0  0  0  0  0  0  0  0  0  0  0  0
   -0.1262   -1.4773    6.7949 O   0  0  0  0  0  0  0  0  0  0  0  0
    2.8918   -1.4912    6.8591 C   0  0  0  0  0  0  0  0  0  0  0  0
    2.7790   -0.8381    9.2232 C   0  0  0  0  0  0  0  0  0  0  0  0
   -1.5115    0.5699    2.9068 C   0  0  0  0  0  0  0  0  0  0  0  0
   -0.2495    1.6706    0.7312 C   0  0  1  0  0  0  0  0  0  0  0  0
   -0.4849    0.5703    1.7379 C   0  0  2  0  0  0  0  0  0  0  0  0
    0.7254   -0.1359    2.2096 C   0  0  0  0  0  0  0  0  0  0  0  0
    0.5694   -1.3023    2.5398 O   0  0  0  0  0  0  0  0  0  0  0  0
    1.9017    0.5739    2.2992 N   0  0  0  0  0  0  0  0  0  0  0  0
    3.1899    0.0863    1.8798 C   0  0  1  0  0  0  0  0  0  0  0  0
    3.6379    0.9152    0.6390 C   0  0  0  0  0  0  0  0  0  0  0  0
    2.1745    1.9011    2.8466 C   0  0  2  0  0  0  0  0  0  0  0  0
    3.3695    2.3703    0.6262 N   0  0  0  0  0  0  0  0  0  0  0  0
    2.6231    2.9043    1.7714 C   0  0  0  0  0  0  0  0  0  0  0  0
    4.6034    3.1247    0.5064 C   0  0  0  0  0  0  0  0  0  0  0  0
    3.4056    1.6460    3.7254 C   0  0  0  0  0  0  0  0  0  0  0  0
    4.0940    0.4537    3.0610 C   0  0  0  0  0  0  0  0  0  0  0  0
    1.4970    0.3508    7.4373 O   0  0  0  0  0  0  0  0  0  0  0  0
   -0.2998    6.4663   -0.2299 O   0  0  0  0  0  0  0  0  0  0  0  0
    0.0348    7.7278    0.3524 C   0  0  0  0  0  0  0  0  0  0  0  0
   -1.9959    0.1615   -0.0617 H   0  0  0  0  0  0  0  0  0  0  0  0
   -0.5120   -0.3896   -0.4494 H   0  0  0  0  0  0  0  0  0  0  0  0
    0.5500    2.6060    8.3028 H   0  0  0  0  0  0  0  0  0  0  0  0
   -2.0508    0.3606    7.1273 H   0  0  0  0  0  0  0  0  0  0  0  0
   -1.0296    3.1712    7.8064 H   0  0  0  0  0  0  0  0  0  0  0  0
   -1.4379    5.0982    3.8653 H   0  0  0  0  0  0  0  0  0  0  0  0
    0.0570    3.9427   -0.6386 H   0  0  0  0  0  0  0  0  0  0  0  0
   -1.1235    6.7922    2.3614 H   0  0  0  0  0  0  0  0  0  0  0  0
    0.2438    4.8068    4.9219 H   0  0  0  0  0  0  0  0  0  0  0  0
    1.3957    2.7941    6.8444 H   0  0  0  0  0  0  0  0  0  0  0  0
    2.0230    3.3609    5.4790 H   0  0  0  0  0  0  0  0  0  0  0  0
   -2.0164    5.0771    5.9100 H   0  0  0  0  0  0  0  0  0  0  0  0
   -1.8779    4.1778    7.0874 H   0  0  0  0  0  0  0  0  0  0  0  0
    2.7001    4.3972    7.6919 H   0  0  0  0  0  0  0  0  0  0  0  0
    2.1332    5.5716    6.4701 H   0  0  0  0  0  0  0  0  0  0  0  0
   -1.2870    5.9538    8.2363 H   0  0  0  0  0  0  0  0  0  0  0  0
   -0.3645    6.5939    6.8303 H   0  0  0  0  0  0  0  0  0  0  0  0
    0.5904    4.5796    8.9245 H   0  0  0  0  0  0  0  0  0  0  0  0
    1.1890    6.1621    8.6427 H   0  0  0  0  0  0  0  0  0  0  0  0
   -0.6894   -1.5091    9.5109 H   0  0  0  0  0  0  0  0  0  0  0  0
    3.1608   -0.4480    6.5819 H   0  0  0  0  0  0  0  0  0  0  0  0
    3.8243   -2.0026    7.0157 H   0  0  0  0  0  0  0  0  0  0  0  0
    2.3378   -1.9014    6.0077 H   0  0  0  0  0  0  0  0  0  0  0  0
    3.0264    0.2080    8.9565 H   0  0  0  0  0  0  0  0  0  0  0  0
    2.1672   -0.8045   10.1279 H   0  0  0  0  0  0  0  0  0  0  0  0
    3.7128   -1.3468    9.4108 H   0  0  0  0  0  0  0  0  0  0  0  0
   -2.5099    1.0896    2.7394 H   0  0  0  0  0  0  0  0  0  0  0  0
   -1.9670   -0.4143    2.7275 H   0  0  0  0  0  0  0  0  0  0  0  0
    0.7966    1.7324    0.4139 H   0  0  0  0  0  0  0  0  0  0  0  0
    3.1991   -0.9776    1.6281 H   0  0  0  0  0  0  0  0  0  0  0  0
    3.1429    0.5085   -0.2492 H   0  0  0  0  0  0  0  0  0  0  0  0
    4.7134    0.7520    0.5094 H   0  0  0  0  0  0  0  0  0  0  0  0
    1.3758    2.3210    3.4335 H   0  0  0  0  0  0  0  0  0  0  0  0
    3.1946    3.6942    2.2742 H   0  0  0  0  0  0  0  0  0  0  0  0
    1.7919    3.4566    1.3576 H   0  0  0  0  0  0  0  0  0  0  0  0
    5.2489    2.9127    1.3658 H   0  0  0  0  0  0  0  0  0  0  0  0
    5.1166    2.8646   -0.4193 H   0  0  0  0  0  0  0  0  0  0  0  0
    4.3843    4.1975    0.4864 H   0  0  0  0  0  0  0  0  0  0  0  0
    4.0655    2.5195    3.7939 H   0  0  0  0  0  0  0  0  0  0  0  0
    3.1099    1.3945    4.7471 H   0  0  0  0  0  0  0  0  0  0  0  0
    5.1136    0.7040    2.7515 H   0  0  0  0  0  0  0  0  0  0  0  0
    4.1499   -0.3741    3.7711 H   0  0  0  0  0  0  0  0  0  0  0  0
   -0.7531    8.1110    1.0106 H   0  0  0  0  0  0  0  0  0  0  0  0
    0.9800    7.6304    0.8979 H   0  0  0  0  0  0  0  0  0  0  0  0
    0.1433    8.4712   -0.4361 H   0  0  0  0  0  0  0  0  0  0  0  0
  1 48  1  0  0  0  0
  1 49  1  0  0  0  0
  2  4  2  0  0  0  0
  2  8  1  0  0  0  0
  2  3  1  0  0  0  0
  3  5  2  0  0  0  0
  3 10  1  0  0  0  0
  4  6  1  0  0  0  0
  4 50  1  0  0  0  0
  5  7  1  0  0  0  0
  5 51  1  0  0  0  0
  6  7  2  0  0  0  0
  6 23  1  0  0  0  0
  7 52  1  0  0  0  0
  8  9  1  0  0  0  0
  8 31  1  0  0  0  0
  9 10  2  0  0  0  0
  9 11  1  0  0  0  0
 10 17  1  0  0  0  0
 11 12  1  0  0  0  0
 11 13  2  0  0  0  0
 12 14  2  0  0  0  0
 12 32  1  0  0  0  0
 13 15  1  0  0  0  0
 13 53  1  0  0  0  0
 14 16  1  0  0  0  0
 14 54  1  0  0  0  0
 15 16  2  0  0  0  0
 15 55  1  0  0  0  0
 16 46  1  0  0  0  0
 17 18  1  0  0  0  0
 17 19  1  0  0  0  0
 17 56  1  0  0  0  0
 18 20  1  0  0  0  0
 18 57  1  0  0  0  0
 18 58  1  0  0  0  0
 19 21  1  0  0  0  0
 19 59  1  0  0  0  0
 19 60  1  0  0  0  0
 20 22  1  0  0  0  0
 20 61  1  0  0  0  0
 20 62  1  0  0  0  0
 21 22  1  0  0  0  0
 21 63  1  0  0  0  0
 21 64  1  0  0  0  0
 22 65  1  0  0  0  0
 22 66  1  0  0  0  0
 23 24  2  0  0  0  0
 23 25  1  0  0  0  0
 25 26  1  0  0  0  0
 25 67  1  0  0  0  0
 26 27  1  0  0  0  0
 26 28  2  0  0  0  0
 26 45  2  0  0  0  0
 27 29  1  0  0  0  0
 27 30  1  0  0  0  0
 29 68  1  0  0  0  0
 29 69  1  0  0  0  0
 29 70  1  0  0  0  0
 30 71  1  0  0  0  0
 30 72  1  0  0  0  0
 30 73  1  0  0  0  0
 31 33  1  0  0  0  0
 31 74  1  0  0  0  0
 31 75  1  0  0  0  0
 32  1  1  0  0  0  0
 32 33  1  0  0  0  0
 32 76  1  6  0  0  0
 33  1  1  0  0  0  0
 33 34  1  1  0  0  0
 34 35  2  0  0  0  0
 34 36  1  0  0  0  0
 36 37  1  0  0  0  0
 36 39  1  0  0  0  0
 37 38  1  0  0  0  0
 37 44  1  0  0  0  0
 37 77  1  6  0  0  0
 38 40  1  0  0  0  0
 38 78  1  0  0  0  0
 38 79  1  0  0  0  0
 39 41  1  0  0  0  0
 39 43  1  0  0  0  0
 39 80  1  1  0  0  0
 40 41  1  0  0  0  0
 40 42  1  0  0  0  0
 41 81  1  0  0  0  0
 41 82  1  0  0  0  0
 42 83  1  0  0  0  0
 42 84  1  0  0  0  0
 42 85  1  0  0  0  0
 43 44  1  0  0  0  0
 43 86  1  0  0  0  0
 43 87  1  0  0  0  0
 44 88  1  0  0  0  0
 44 89  1  0  0  0  0
 46 47  1  0  0  0  0
 47 90  1  0  0  0  0
 47 91  1  0  0  0  0
 47 92  1  0  0  0  0
M  END
>  <DRUGBANK_ID>
DB12225

>  <COMMON_NAME>
Beclabuvir

>  <CAS_NUMBER>
958002-33-0

>  <UNII>
MYW1X5CO9S

>  <SYNONYMS>
Beclabuvir

$$$$
