
 OpenBabel10282417133D

 18 18  0  0  0  0  0  0  0  0999 V2000
    0.9777   -0.0944   -0.0398 S   0  0  3  0  0  0  0  0  0  0  0  0
    6.9222   -0.0281   -0.3651 O   0  0  0  0  0  0  0  0  0  0  0  0
    0.5193    0.7994   -1.1713 O   0  5  0  0  0  0  0  0  0  0  0  0
    0.4873   -1.5201   -0.0951 O   0  0  0  0  0  0  0  0  0  0  0  0
    5.5570   -0.1219   -0.2683 C   0  0  0  0  0  0  0  0  0  0  0  0
    2.7538   -0.0996   -0.0642 C   0  0  0  0  0  0  0  0  0  0  0  0
    4.8415   -1.3188   -0.2046 C   0  0  0  0  0  0  0  0  0  0  0  0
    4.8610    1.0904   -0.2279 C   0  0  0  0  0  0  0  0  0  0  0  0
    3.4501   -1.3070   -0.0926 C   0  0  0  0  0  0  0  0  0  0  0  0
    3.4657    1.1018   -0.1023 C   0  0  0  0  0  0  0  0  0  0  0  0
    7.6285   -1.2627   -0.2795 C   0  0  0  0  0  0  0  0  0  0  0  0
    5.3243   -2.2863   -0.2608 H   0  0  0  0  0  0  0  0  0  0  0  0
    5.3952    2.0327   -0.3067 H   0  0  0  0  0  0  0  0  0  0  0  0
    2.9023   -2.2454   -0.0672 H   0  0  0  0  0  0  0  0  0  0  0  0
    2.9283    2.0453   -0.0414 H   0  0  0  0  0  0  0  0  0  0  0  0
    7.3996   -1.7903    0.6539 H   0  0  0  0  0  0  0  0  0  0  0  0
    7.4166   -1.8937   -1.1496 H   0  0  0  0  0  0  0  0  0  0  0  0
    8.7008   -1.0474   -0.2785 H   0  0  0  0  0  0  0  0  0  0  0  0
  1  3  1  0  0  0  0
  1  4  2  0  0  0  0
  1  6  1  0  0  0  0
  2  5  1  0  0  0  0
  2 11  1  0  0  0  0
  5  7  2  0  0  0  0
  5  8  1  0  0  0  0
  6  9  2  0  0  0  0
  6 10  1  0  0  0  0
  7  9  1  0  0  0  0
  7 12  1  0  0  0  0
  8 10  2  0  0  0  0
  8 13  1  0  0  0  0
  9 14  1  0  0  0  0
 10 15  1  0  0  0  0
 11 16  1  0  0  0  0
 11 17  1  0  0  0  0
 11 18  1  0  0  0  0
M  CHG  1   3  -1
M  END
>  <DRUGBANK_ID>
DB03033

>  <SECONDARY_ACCESSION_NUMBERS>
EXPT02236

>  <COMMON_NAME>
4-methoxybenzenesulfinate

>  <SYNONYMS>
1-methyloxy-4-sulfone-benzene

$$$$
