
 OpenBabel10282417133D

 30 30  0  0  1  0  0  0  0  0999 V2000
    0.6786    1.3154   -0.3458 C   0  0  1  0  0  0  0  0  0  0  0  0
    1.4207   -0.0004    0.0001 C   0  0  2  0  0  0  0  0  0  0  0  0
    0.6589   -1.2031   -0.2324 O   0  0  0  0  0  0  0  0  0  0  0  0
   -0.7472    1.2857    0.2217 C   0  0  2  0  0  0  0  0  0  0  0  0
   -0.6993   -1.2006    0.2556 C   0  0  1  0  0  0  0  0  0  0  0  0
   -1.4596    0.0246   -0.2421 C   0  0  1  0  0  0  0  0  0  0  0  0
    1.3879    2.5149    0.1606 N   0  0  0  0  0  0  0  0  0  0  0  0
   -1.5001    2.4263   -0.2221 O   0  0  0  0  0  0  0  0  0  0  0  0
   -2.8103    0.0275    0.2181 O   0  0  0  0  0  0  0  0  0  0  0  0
   -1.4398   -2.4503   -0.2614 C   0  0  0  0  0  0  0  0  0  0  0  0
   -0.8106   -3.6425    0.1946 O   0  0  0  0  0  0  0  0  0  0  0  0
    1.8282    0.0999    1.3484 O   0  0  0  0  0  0  0  0  0  0  0  0
    3.7243    0.1842    3.1251 O   0  0  0  0  0  0  0  0  0  0  0  0
    3.2734   -1.8604    1.5683 O   0  0  0  0  0  0  0  0  0  0  0  0
    3.3188   -0.2820    1.7675 P   0  0  0  0  0  0  0  0  0  0  0  0
    4.3031    0.1767    0.6019 O   0  0  0  0  0  0  0  0  0  0  0  0
    0.6159    1.4057   -1.4364 H   0  0  0  0  0  0  0  0  0  0  0  0
    2.2931   -0.0767   -0.6566 H   0  0  0  0  0  0  0  0  0  0  0  0
   -0.7449    1.3274    1.3190 H   0  0  0  0  0  0  0  0  0  0  0  0
   -0.6736   -1.2465    1.3522 H   0  0  0  0  0  0  0  0  0  0  0  0
   -1.4905    0.0199   -1.3399 H   0  0  0  0  0  0  0  0  0  0  0  0
    0.8089    3.3355   -0.0304 H   0  0  0  0  0  0  0  0  0  0  0  0
    1.4136    2.4561    1.1848 H   0  0  0  0  0  0  0  0  0  0  0  0
   -1.7841    2.2593   -1.1401 H   0  0  0  0  0  0  0  0  0  0  0  0
   -3.0173    0.9302    0.5306 H   0  0  0  0  0  0  0  0  0  0  0  0
   -2.4791   -2.4690    0.0855 H   0  0  0  0  0  0  0  0  0  0  0  0
   -1.4494   -2.4728   -1.3575 H   0  0  0  0  0  0  0  0  0  0  0  0
    0.0916   -3.6271   -0.1670 H   0  0  0  0  0  0  0  0  0  0  0  0
    2.3896   -2.1189    1.2402 H   0  0  0  0  0  0  0  0  0  0  0  0
    5.2230    0.0907    0.9266 H   0  0  0  0  0  0  0  0  0  0  0  0
  1  7  1  0  0  0  0
  1  4  1  0  0  0  0
  1 17  1  6  0  0  0
  2  1  1  0  0  0  0
  2  3  1  0  0  0  0
  2 18  1  6  0  0  0
  2 12  1  0  0  0  0
  3  5  1  0  0  0  0
  4  6  1  0  0  0  0
  4 19  1  1  0  0  0
  4  8  1  0  0  0  0
  5 10  1  0  0  0  0
  5  6  1  0  0  0  0
  5 20  1  1  0  0  0
  6 21  1  6  0  0  0
  6  9  1  0  0  0  0
  7 22  1  0  0  0  0
  7 23  1  0  0  0  0
  8 24  1  0  0  0  0
  9 25  1  0  0  0  0
 10 11  1  0  0  0  0
 10 26  1  0  0  0  0
 10 27  1  0  0  0  0
 11 28  1  0  0  0  0
 12 15  1  0  0  0  0
 14 29  1  0  0  0  0
 15 13  2  0  0  0  0
 15 14  1  0  0  0  0
 15 16  1  0  0  0  0
 16 30  1  0  0  0  0
M  END
>  <DRUGBANK_ID>
DB03111

>  <SECONDARY_ACCESSION_NUMBERS>
EXPT01631

>  <COMMON_NAME>
Glucosamine 1-Phosphate

>  <UNII>
BSG3MU7VAE

$$$$
