
 OpenBabel10282417183D

 56 59  0  0  1  0  0  0  0  0999 V2000
   -9.1087   11.6791   -0.4809 C   0  0  0  0  0  0  0  0  0  0  0  0
   -9.4331   10.9605   -1.7531 C   0  0  0  0  0  0  0  0  0  0  0  0
   -8.6112   10.5948   -2.8063 C   0  0  0  0  0  0  0  0  0  0  0  0
   -9.4377   10.3570   -3.9460 C   0  0  0  0  0  0  0  0  0  0  0  0
  -10.7537   10.3390   -3.4817 C   0  0  0  0  0  0  0  0  0  0  0  0
  -10.7051   10.5667   -2.1171 N   0  0  0  0  0  0  0  0  0  0  0  0
  -11.8420   10.1265   -4.3400 C   0  0  0  0  0  0  0  0  0  0  0  0
  -11.5903    9.9854   -5.7094 C   0  0  0  0  0  0  0  0  0  0  0  0
  -10.2945   10.0401   -6.2119 C   0  0  0  0  0  0  0  0  0  0  0  0
   -9.2060   10.1890   -5.3331 C   0  0  0  0  0  0  0  0  0  0  0  0
   -7.9482   10.2076   -5.8042 F   0  0  0  0  0  0  0  0  0  0  0  0
  -10.0300    9.8703   -7.5979 O   0  0  0  0  0  0  0  0  0  0  0  0
  -11.0875    9.7177   -8.4902 C   0  0  0  0  0  0  0  0  0  0  0  0
  -11.1335    8.4632   -9.1477 C   0  0  0  0  0  0  0  0  0  0  0  0
  -10.4644    7.2703   -8.9988 C   0  0  0  0  0  0  0  0  0  0  0  0
  -10.8056    6.4900  -10.1439 C   0  0  0  0  0  0  0  0  0  0  0  0
  -11.9061    7.0933  -10.7228 C   0  0  0  0  0  0  0  0  0  0  0  0
  -12.0854    8.3072  -10.1042 N   0  0  0  0  0  0  0  0  0  0  0  0
  -13.0457    9.2220  -10.3471 N   0  0  0  0  0  0  0  0  0  0  0  0
  -12.9479   10.3068   -9.6351 C   0  0  0  0  0  0  0  0  0  0  0  0
  -11.9644   10.6303   -8.7296 N   0  0  0  0  0  0  0  0  0  0  0  0
  -10.2289    5.3859  -10.6859 O   0  0  0  0  0  0  0  0  0  0  0  0
   -8.9878    4.9620  -10.1003 C   0  0  0  0  0  0  0  0  0  0  0  0
   -7.6928    5.8380  -10.3794 C   0  0  1  0  0  0  0  0  0  0  0  0
   -7.6773    7.3896  -10.2309 C   0  0  0  0  0  0  0  0  0  0  0  0
   -6.5137    5.3017   -9.6665 O   0  0  0  0  0  0  0  0  0  0  0  0
   -6.5253    5.0612   -8.3106 C   0  0  0  0  0  0  0  0  0  0  0  0
   -7.4694    5.1475   -7.5566 O   0  0  0  0  0  0  0  0  0  0  0  0
   -5.1711    4.6490   -7.7463 C   0  0  2  0  0  0  0  0  0  0  0  0
   -4.4866    5.8515   -7.1128 C   0  0  0  0  0  0  0  0  0  0  0  0
   -4.3206    4.0030   -8.7549 N   0  0  0  0  0  0  0  0  0  0  0  0
   -9.4951    6.9847   -7.9355 C   0  0  0  0  0  0  0  0  0  0  0  0
   -8.0609   11.5307   -0.1956 H   0  0  0  0  0  0  0  0  0  0  0  0
   -9.7359   11.3823    0.3650 H   0  0  0  0  0  0  0  0  0  0  0  0
   -9.2398   12.7611   -0.6221 H   0  0  0  0  0  0  0  0  0  0  0  0
   -7.5308   10.6502   -2.8128 H   0  0  0  0  0  0  0  0  0  0  0  0
  -11.5143   10.5437   -1.5103 H   0  0  0  0  0  0  0  0  0  0  0  0
  -12.8654   10.0989   -3.9812 H   0  0  0  0  0  0  0  0  0  0  0  0
  -12.4381    9.8362   -6.3695 H   0  0  0  0  0  0  0  0  0  0  0  0
  -12.5486    6.7894  -11.5386 H   0  0  0  0  0  0  0  0  0  0  0  0
  -13.7356   11.0708   -9.7489 H   0  0  0  0  0  0  0  0  0  0  0  0
   -9.1579    4.6897   -9.0539 H   0  0  0  0  0  0  0  0  0  0  0  0
   -8.7744    3.9688  -10.5278 H   0  0  0  0  0  0  0  0  0  0  0  0
   -7.4973    5.6901  -11.4501 H   0  0  0  0  0  0  0  0  0  0  0  0
   -7.4601    7.7199   -9.2075 H   0  0  0  0  0  0  0  0  0  0  0  0
   -6.8623    7.8723  -10.7768 H   0  0  0  0  0  0  0  0  0  0  0  0
   -8.5949    7.8566  -10.5931 H   0  0  0  0  0  0  0  0  0  0  0  0
   -5.3908    3.9107   -6.9644 H   0  0  0  0  0  0  0  0  0  0  0  0
   -3.5884    5.5402   -6.5696 H   0  0  0  0  0  0  0  0  0  0  0  0
   -4.2001    6.5937   -7.8652 H   0  0  0  0  0  0  0  0  0  0  0  0
   -5.1483    6.3562   -6.3973 H   0  0  0  0  0  0  0  0  0  0  0  0
   -4.8555    3.2365   -9.1669 H   0  0  0  0  0  0  0  0  0  0  0  0
   -4.1792    4.6685   -9.5159 H   0  0  0  0  0  0  0  0  0  0  0  0
   -9.8378    6.2476   -7.2171 H   0  0  0  0  0  0  0  0  0  0  0  0
   -8.6548    6.5373   -8.3948 H   0  0  0  0  0  0  0  0  0  0  0  0
   -9.0439    7.8567   -7.4745 H   0  0  0  0  0  0  0  0  0  0  0  0
  1  2  1  0  0  0  0
  1 33  1  0  0  0  0
  1 34  1  0  0  0  0
  1 35  1  0  0  0  0
  2  3  2  0  0  0  0
  2  6  1  0  0  0  0
  3  4  1  0  0  0  0
  3 36  1  0  0  0  0
  4  5  1  0  0  0  0
  4 10  2  0  0  0  0
  5  6  1  0  0  0  0
  5  7  2  0  0  0  0
  6 37  1  0  0  0  0
  7  8  1  0  0  0  0
  7 38  1  0  0  0  0
  8  9  2  0  0  0  0
  8 39  1  0  0  0  0
  9 10  1  0  0  0  0
  9 12  1  0  0  0  0
 10 11  1  0  0  0  0
 12 13  1  0  0  0  0
 13 14  1  0  0  0  0
 13 21  2  0  0  0  0
 14 15  2  0  0  0  0
 14 18  1  0  0  0  0
 15 16  1  0  0  0  0
 15 32  1  0  0  0  0
 16 17  2  0  0  0  0
 16 22  1  0  0  0  0
 17 18  1  0  0  0  0
 17 40  1  0  0  0  0
 18 19  1  0  0  0  0
 19 20  2  0  0  0  0
 20 21  1  0  0  0  0
 20 41  1  0  0  0  0
 22 23  1  0  0  0  0
 23 24  1  0  0  0  0
 23 42  1  0  0  0  0
 23 43  1  0  0  0  0
 24 25  1  0  0  0  0
 24 26  1  0  0  0  0
 24 44  1  6  0  0  0
 25 45  1  0  0  0  0
 25 46  1  0  0  0  0
 25 47  1  0  0  0  0
 26 27  1  0  0  0  0
 27 28  2  0  0  0  0
 29 31  1  0  0  0  0
 29 48  1  1  0  0  0
 29 30  1  0  0  0  0
 29 27  1  0  0  0  0
 30 49  1  0  0  0  0
 30 50  1  0  0  0  0
 30 51  1  0  0  0  0
 31 52  1  0  0  0  0
 31 53  1  0  0  0  0
 32 54  1  0  0  0  0
 32 55  1  0  0  0  0
 32 56  1  0  0  0  0
M  END
>  <DRUGBANK_ID>
DB11865

>  <COMMON_NAME>
Brivanib alaninate

>  <CAS_NUMBER>
649735-63-7

>  <UNII>
U2Y5OFN795

>  <SYNONYMS>
Brivanib alaninate

$$$$
