1506
 OpenBabel10282417113D

 30 31  0  0  0  0  0  0  0  0999 V2000
   -2.3751   -0.0927    0.1481 N   0  0  0  0  0  0  0  0  0  0  0  0
   -0.9886   -0.0749   -0.3529 C   0  0  0  0  0  0  0  0  0  0  0  0
   -0.2981    1.2266    0.1577 C   0  0  0  0  0  0  0  0  0  0  0  0
   -0.2192   -1.2786    0.2629 C   0  0  0  0  0  0  0  0  0  0  0  0
    1.1956    1.2689   -0.1795 C   0  0  0  0  0  0  0  0  0  0  0  0
    1.2893   -1.2471   -0.0593 C   0  0  0  0  0  0  0  0  0  0  0  0
    1.9333    0.0566    0.3823 C   0  0  0  0  0  0  0  0  0  0  0  0
   -1.0216   -0.1163   -1.8921 C   0  0  0  0  0  0  0  0  0  0  0  0
   -1.5482    0.9543   -2.6255 C   0  0  0  0  0  0  0  0  0  0  0  0
   -0.4562   -1.1804   -2.6221 C   0  0  0  0  0  0  0  0  0  0  0  0
   -1.4238    1.0021   -4.0176 C   0  0  0  0  0  0  0  0  0  0  0  0
   -0.2318   -1.0842   -3.9929 C   0  0  0  0  0  0  0  0  0  0  0  0
   -0.7313   -0.0035   -4.6911 C   0  0  0  0  0  0  0  0  0  0  0  0
   -2.3822   -0.0348    1.1646 H   0  0  0  0  0  0  0  0  0  0  0  0
   -2.8571    0.7445   -0.1770 H   0  0  0  0  0  0  0  0  0  0  0  0
   -0.7772    2.1277   -0.2443 H   0  0  0  0  0  0  0  0  0  0  0  0
   -0.4008    1.2984    1.2504 H   0  0  0  0  0  0  0  0  0  0  0  0
   -0.3290   -1.2750    1.3560 H   0  0  0  0  0  0  0  0  0  0  0  0
   -0.6559   -2.2303   -0.0684 H   0  0  0  0  0  0  0  0  0  0  0  0
    1.3298    1.3162   -1.2673 H   0  0  0  0  0  0  0  0  0  0  0  0
    1.6403    2.1837    0.2273 H   0  0  0  0  0  0  0  0  0  0  0  0
    1.4935   -1.3471   -1.1285 H   0  0  0  0  0  0  0  0  0  0  0  0
    1.7845   -2.1066    0.4027 H   0  0  0  0  0  0  0  0  0  0  0  0
    2.9760    0.0773    0.0454 H   0  0  0  0  0  0  0  0  0  0  0  0
    1.9417    0.0983    1.4762 H   0  0  0  0  0  0  0  0  0  0  0  0
   -2.0498    1.7779   -2.1222 H   0  0  0  0  0  0  0  0  0  0  0  0
   -0.1197   -2.0911   -2.1427 H   0  0  0  0  0  0  0  0  0  0  0  0
   -1.8410    1.8365   -4.5669 H   0  0  0  0  0  0  0  0  0  0  0  0
    0.3449   -1.8612   -4.4900 H   0  0  0  0  0  0  0  0  0  0  0  0
   -0.5951    0.0509   -5.7675 H   0  0  0  0  0  0  0  0  0  0  0  0
  1  2  1  0  0  0  0
  1 14  1  0  0  0  0
  1 15  1  0  0  0  0
  2  3  1  0  0  0  0
  2  4  1  0  0  0  0
  2  8  1  0  0  0  0
  3  5  1  0  0  0  0
  3 16  1  0  0  0  0
  3 17  1  0  0  0  0
  4  6  1  0  0  0  0
  4 18  1  0  0  0  0
  4 19  1  0  0  0  0
  5  7  1  0  0  0  0
  5 20  1  0  0  0  0
  5 21  1  0  0  0  0
  6  7  1  0  0  0  0
  6 22  1  0  0  0  0
  6 23  1  0  0  0  0
  7 24  1  0  0  0  0
  7 25  1  0  0  0  0
  8  9  2  0  0  0  0
  8 10  1  0  0  0  0
  9 11  1  0  0  0  0
  9 26  1  0  0  0  0
 10 12  2  0  0  0  0
 10 27  1  0  0  0  0
 11 13  2  0  0  0  0
 11 28  1  0  0  0  0
 12 13  1  0  0  0  0
 12 29  1  0  0  0  0
 13 30  1  0  0  0  0
M  END
>  <DRUGBANK_ID>
DB01506

>  <COMMON_NAME>
1-Phenylcyclohexylamine

>  <CAS_NUMBER>
2201-24-3

>  <UNII>
HBO2D49I2S

$$$$
