
 OpenBabel10282417213D

 34 36  0  0  0  0  0  0  0  0999 V2000
   -2.2421    0.6075    0.5623 Cl  0  0  0  0  0  0  0  0  0  0  0  0
   -0.5650    0.1944    0.5472 C   0  0  0  0  0  0  0  0  0  0  0  0
    0.2741    1.2410    0.1124 C   0  0  0  0  0  0  0  0  0  0  0  0
    1.6483    1.0927    0.0314 C   0  0  0  0  0  0  0  0  0  0  0  0
    2.1687   -0.1836    0.1821 C   0  0  0  0  0  0  0  0  0  0  0  0
    1.3154   -1.2725    0.5709 C   0  0  0  0  0  0  0  0  0  0  0  0
   -0.0682   -1.0667    0.9168 C   0  0  0  0  0  0  0  0  0  0  0  0
   -1.1217   -2.1501    1.5103 C   0  0  0  0  0  0  0  0  0  0  0  0
   -1.1166   -2.5593    2.8125 N   0  0  0  0  0  0  0  0  0  0  0  0
   -1.8948   -3.8182    3.8577 C   0  0  3  0  0  0  0  0  0  0  0  0
   -1.8243   -5.5754    3.9872 O   0  0  0  0  0  0  0  0  0  0  0  0
   -2.7345   -4.4977    2.8766 C   0  0  0  0  0  0  0  0  0  0  0  0
   -3.9345   -4.8250    3.1368 O   0  0  0  0  0  0  0  0  0  0  0  0
   -2.0585   -4.6204    1.6750 N   0  0  0  0  0  0  0  0  0  0  0  0
   -2.7510   -3.7323    0.7944 C   0  0  0  0  0  0  0  0  0  0  0  0
   -2.0102   -2.7218    0.3111 C   0  0  0  0  0  0  0  0  0  0  0  0
   -2.5148   -2.0646   -0.8431 C   0  0  0  0  0  0  0  0  0  0  0  0
   -3.9032   -2.0401   -1.0849 C   0  0  0  0  0  0  0  0  0  0  0  0
   -4.6055   -1.1431   -2.3766 Cl  0  0  0  0  0  0  0  0  0  0  0  0
   -4.7402   -2.6532   -0.1838 C   0  0  0  0  0  0  0  0  0  0  0  0
   -4.1545   -3.5040    0.7476 C   0  0  0  0  0  0  0  0  0  0  0  0
   -0.4095   -4.6618    1.7037 C   0  0  0  0  0  0  0  0  0  0  0  0
   -0.1654    2.2052   -0.1281 H   0  0  0  0  0  0  0  0  0  0  0  0
    2.2754    1.9631   -0.1664 H   0  0  0  0  0  0  0  0  0  0  0  0
    3.2430   -0.3066    0.0016 H   0  0  0  0  0  0  0  0  0  0  0  0
    1.8014   -2.2504    0.5396 H   0  0  0  0  0  0  0  0  0  0  0  0
   -0.9134   -4.0511    4.2882 H   0  0  0  0  0  0  0  0  0  0  0  0
   -2.7325   -5.9011    4.2720 H   0  0  0  0  0  0  0  0  0  0  0  0
   -1.8878   -1.5008   -1.5255 H   0  0  0  0  0  0  0  0  0  0  0  0
   -5.8192   -2.5096   -0.1932 H   0  0  0  0  0  0  0  0  0  0  0  0
   -4.8506   -3.8999    1.4828 H   0  0  0  0  0  0  0  0  0  0  0  0
    0.0053   -4.9758    0.7530 H   0  0  0  0  0  0  0  0  0  0  0  0
    0.1889   -3.7441    1.8809 H   0  0  0  0  0  0  0  0  0  0  0  0
   -0.0357   -5.2106    2.5791 H   0  0  0  0  0  0  0  0  0  0  0  0
  1  2  1  0  0  0  0
  2  3  2  0  0  0  0
  2  7  1  0  0  0  0
  3  4  1  0  0  0  0
  3 23  1  0  0  0  0
  4  5  2  0  0  0  0
  4 24  1  0  0  0  0
  5  6  1  0  0  0  0
  5 25  1  0  0  0  0
  6  7  2  0  0  0  0
  6 26  1  0  0  0  0
  7  8  1  0  0  0  0
  8  9  2  0  0  0  0
  8 16  1  0  0  0  0
  9 10  1  0  0  0  0
 10 11  1  0  0  0  0
 10 12  1  0  0  0  0
 10 27  1  0  0  0  0
 11 28  1  0  0  0  0
 12 13  2  0  0  0  0
 12 14  1  0  0  0  0
 14 15  1  0  0  0  0
 14 22  1  0  0  0  0
 15 16  2  0  0  0  0
 15 21  1  0  0  0  0
 16 17  1  0  0  0  0
 17 18  2  0  0  0  0
 17 29  1  0  0  0  0
 18 19  1  0  0  0  0
 18 20  1  0  0  0  0
 20 21  2  0  0  0  0
 20 30  1  0  0  0  0
 21 31  1  0  0  0  0
 22 32  1  0  0  0  0
 22 33  1  0  0  0  0
 22 34  1  0  0  0  0
M  END
>  <DRUGBANK_ID>
DB13872

>  <COMMON_NAME>
Lormetazepam

>  <CAS_NUMBER>
848-75-9

>  <UNII>
GU56C842ZA

>  <SYNONYMS>
(Â±)-Lormetazepam; (RS)-Lormetazepam; 7-Chloro-1,3-dihydro-5-(o-chlorophenyl)-3-hydroxy-1-methyl-2H-1,4-benzodiazepin-2-one; 7-Chloro-5-(2-chlorophenyl)-1,3-dihydro-3-hydroxy-1-methyl-2H-1,4-benzodiazepin-2-one; Lormetazepam; Methyllorazepam; N-Methyllorazepam

$$$$
