
 OpenBabel10282417143D

 28 29  0  0  1  0  0  0  0  0999 V2000
    2.2162   -0.6674   -0.0036 C   0  0  0  0  0  0  0  0  0  0  0  0
    2.1848    0.7249   -0.0179 C   0  0  0  0  0  0  0  0  0  0  0  0
    1.0314   -1.4064    0.0260 C   0  0  0  0  0  0  0  0  0  0  0  0
    0.9741    1.4225    0.0027 C   0  0  0  0  0  0  0  0  0  0  0  0
   -2.0384   -2.5864   -0.0194 C   0  0  0  0  0  0  0  0  0  0  0  0
   -2.3253   -0.0150   -0.1895 C   0  0  0  0  0  0  0  0  0  0  0  0
   -4.2500   -2.0556    1.1958 C   0  0  0  0  0  0  0  0  0  0  0  0
   -1.5638   -1.1608   -0.0527 C   0  0  0  0  0  0  0  0  0  0  0  0
   -2.9567   -2.8977    1.1847 C   0  0  1  0  0  0  0  0  0  0  0  0
   -0.2022   -0.7287   -0.0037 C   0  0  0  0  0  0  0  0  0  0  0  0
   -0.1997    0.6647   -0.0105 C   0  0  0  0  0  0  0  0  0  0  0  0
   -3.3293   -4.3292    1.1597 N   0  0  0  0  0  0  0  0  0  0  0  0
   -1.5097    1.0739   -0.0428 N   0  0  0  0  0  0  0  0  0  0  0  0
   -4.9991   -2.2306   -0.0074 O   0  0  0  0  0  0  0  0  0  0  0  0
   -2.4049   -2.7079    2.1139 H   0  0  0  0  0  0  0  0  0  0  0  0
    3.1681   -1.1909   -0.0265 H   0  0  0  0  0  0  0  0  0  0  0  0
    3.1179    1.2807   -0.0527 H   0  0  0  0  0  0  0  0  0  0  0  0
    1.0655   -2.4916    0.0323 H   0  0  0  0  0  0  0  0  0  0  0  0
    0.9507    2.5063   -0.0035 H   0  0  0  0  0  0  0  0  0  0  0  0
   -2.5312   -2.8208   -0.9710 H   0  0  0  0  0  0  0  0  0  0  0  0
   -1.1708   -3.2592    0.0261 H   0  0  0  0  0  0  0  0  0  0  0  0
   -3.3876    0.1405   -0.3238 H   0  0  0  0  0  0  0  0  0  0  0  0
   -4.8948   -2.3428    2.0310 H   0  0  0  0  0  0  0  0  0  0  0  0
   -4.0457   -0.9944    1.3480 H   0  0  0  0  0  0  0  0  0  0  0  0
   -3.9498   -4.5102    1.9514 H   0  0  0  0  0  0  0  0  0  0  0  0
   -3.9295   -4.4771    0.3434 H   0  0  0  0  0  0  0  0  0  0  0  0
   -1.8190    2.0329   -0.0231 H   0  0  0  0  0  0  0  0  0  0  0  0
   -4.4245   -1.9886   -0.7553 H   0  0  0  0  0  0  0  0  0  0  0  0
  1 16  1  0  0  0  0
  2  1  2  0  0  0  0
  2 17  1  0  0  0  0
  3  1  1  0  0  0  0
  3 18  1  0  0  0  0
  4  2  1  0  0  0  0
  4 19  1  0  0  0  0
  5 20  1  0  0  0  0
  5 21  1  0  0  0  0
  6 22  1  0  0  0  0
  7 23  1  0  0  0  0
  7 24  1  0  0  0  0
  8  5  1  0  0  0  0
  8  6  2  0  0  0  0
  9  5  1  0  0  0  0
  9  7  1  0  0  0  0
  9 12  1  0  0  0  0
  9 15  1  1  0  0  0
 10  3  2  0  0  0  0
 10  8  1  0  0  0  0
 11  4  2  0  0  0  0
 11 10  1  0  0  0  0
 12 25  1  0  0  0  0
 12 26  1  0  0  0  0
 13  6  1  0  0  0  0
 13 11  1  0  0  0  0
 13 27  1  0  0  0  0
 14  7  1  0  0  0  0
 14 28  1  0  0  0  0
M  END
>  <DRUGBANK_ID>
DB04236

>  <SECONDARY_ACCESSION_NUMBERS>
EXPT03091

>  <COMMON_NAME>
2-Amino-3-(1h-Indol-3-Yl)-Propan-1-Ol

$$$$
