1227
 OpenBabel10282417113D

 57 58  0  0  1  0  0  0  0  0999 V2000
    0.2205   -1.5451    1.9939 O   0  0  0  0  0  0  0  0  0  0  0  0
    0.8374   -3.6968    2.2964 O   0  0  0  0  0  0  0  0  0  0  0  0
    3.9572    1.8447    0.8146 N   0  0  0  0  0  0  0  0  0  0  0  0
    1.0674   -0.2164   -0.1172 C   0  0  0  0  0  0  0  0  0  0  0  0
    1.6703    1.3284   -0.4529 C   0  0  0  0  0  0  0  0  0  0  0  0
    0.1651   -0.2588    1.2264 C   0  0  2  0  0  0  0  0  0  0  0  0
    2.5630    2.2494    0.5632 C   0  0  2  0  0  0  0  0  0  0  0  0
    2.2359   -1.4232   -0.1041 C   0  0  0  0  0  0  0  0  0  0  0  0
    0.0943   -0.4587   -1.3675 C   0  0  0  0  0  0  0  0  0  0  0  0
    0.3455    0.9187    2.2369 C   0  0  0  0  0  0  0  0  0  0  0  0
    2.6020    3.7132    0.1523 C   0  0  0  0  0  0  0  0  0  0  0  0
    2.9903   -1.6718   -1.2658 C   0  0  0  0  0  0  0  0  0  0  0  0
    0.5135   -0.1902   -2.6799 C   0  0  0  0  0  0  0  0  0  0  0  0
    2.8450   -1.8965    1.1179 C   0  0  0  0  0  0  0  0  0  0  0  0
   -1.1525   -1.0848   -1.2506 C   0  0  0  0  0  0  0  0  0  0  0  0
   -0.1567    2.3057    1.7517 C   0  0  0  0  0  0  0  0  0  0  0  0
    4.5975    2.3586    2.0150 C   0  0  0  0  0  0  0  0  0  0  0  0
    3.8788    0.4866    1.1872 C   0  0  0  0  0  0  0  0  0  0  0  0
    4.3169   -2.1463   -1.1942 C   0  0  0  0  0  0  0  0  0  0  0  0
   -0.1510   -0.7249   -3.7806 C   0  0  0  0  0  0  0  0  0  0  0  0
    4.1946   -2.3081    1.1882 C   0  0  0  0  0  0  0  0  0  0  0  0
   -1.6727   -1.8229   -2.3095 C   0  0  0  0  0  0  0  0  0  0  0  0
    0.3089   -2.8630    1.5967 C   0  0  0  0  0  0  0  0  0  0  0  0
    4.9382   -2.4050    0.0262 C   0  0  0  0  0  0  0  0  0  0  0  0
   -1.1979   -1.6110   -3.5878 C   0  0  0  0  0  0  0  0  0  0  0  0
   -0.2731   -3.2629    0.2803 C   0  0  0  0  0  0  0  0  0  0  0  0
    2.2556    1.3006   -1.3779 H   0  0  0  0  0  0  0  0  0  0  0  0
    0.7814    1.9023   -0.7712 H   0  0  0  0  0  0  0  0  0  0  0  0
   -0.8931   -0.1355    1.0117 H   0  0  0  0  0  0  0  0  0  0  0  0
    2.1118    2.2685    1.5374 H   0  0  0  0  0  0  0  0  0  0  0  0
   -0.2100    0.7124    3.1570 H   0  0  0  0  0  0  0  0  0  0  0  0
    1.3731    0.9321    2.6087 H   0  0  0  0  0  0  0  0  0  0  0  0
    1.6038    4.1480    0.0663 H   0  0  0  0  0  0  0  0  0  0  0  0
    3.1032    4.2799    0.9454 H   0  0  0  0  0  0  0  0  0  0  0  0
    3.1473    3.8469   -0.7822 H   0  0  0  0  0  0  0  0  0  0  0  0
    2.6497   -1.3550   -2.2406 H   0  0  0  0  0  0  0  0  0  0  0  0
    1.4132    0.3773   -2.8910 H   0  0  0  0  0  0  0  0  0  0  0  0
    2.4362   -1.6512    2.1011 H   0  0  0  0  0  0  0  0  0  0  0  0
   -1.6627   -1.2077   -0.3040 H   0  0  0  0  0  0  0  0  0  0  0  0
   -1.2318    2.3204    1.5896 H   0  0  0  0  0  0  0  0  0  0  0  0
    0.1531    3.1004    2.4412 H   0  0  0  0  0  0  0  0  0  0  0  0
    0.2147    2.6578    0.7993 H   0  0  0  0  0  0  0  0  0  0  0  0
    3.9705    2.2016    2.9042 H   0  0  0  0  0  0  0  0  0  0  0  0
    5.5195    1.7748    2.1751 H   0  0  0  0  0  0  0  0  0  0  0  0
    4.8804    3.3926    1.9009 H   0  0  0  0  0  0  0  0  0  0  0  0
    3.2900    0.3061    2.1037 H   0  0  0  0  0  0  0  0  0  0  0  0
    3.4094    0.1349    0.3190 H   0  0  0  0  0  0  0  0  0  0  0  0
    4.8422    0.0010    1.2344 H   0  0  0  0  0  0  0  0  0  0  0  0
    4.9103   -2.1845   -2.1033 H   0  0  0  0  0  0  0  0  0  0  0  0
    0.2184   -0.5111   -4.7773 H   0  0  0  0  0  0  0  0  0  0  0  0
    4.7155   -2.2378    2.1509 H   0  0  0  0  0  0  0  0  0  0  0  0
   -2.3951   -2.6110   -2.1061 H   0  0  0  0  0  0  0  0  0  0  0  0
    6.0133   -2.5600    0.0820 H   0  0  0  0  0  0  0  0  0  0  0  0
   -1.6486   -2.1314   -4.4235 H   0  0  0  0  0  0  0  0  0  0  0  0
   -1.3368   -3.0441    0.3159 H   0  0  0  0  0  0  0  0  0  0  0  0
    0.2750   -2.8302   -0.5483 H   0  0  0  0  0  0  0  0  0  0  0  0
   -0.1867   -4.3322    0.0898 H   0  0  0  0  0  0  0  0  0  0  0  0
  1 23  1  0  0  0  0
  2 23  2  0  0  0  0
  3 17  1  0  0  0  0
  3 18  1  0  0  0  0
  4  5  1  0  0  0  0
  4  8  1  0  0  0  0
  4  9  1  0  0  0  0
  5  7  1  0  0  0  0
  5 27  1  0  0  0  0
  5 28  1  0  0  0  0
  6 10  1  0  0  0  0
  6 29  1  6  0  0  0
  6  4  1  0  0  0  0
  6  1  1  0  0  0  0
  7  3  1  0  0  0  0
  7 11  1  0  0  0  0
  7 30  1  1  0  0  0
  8 12  2  0  0  0  0
  8 14  1  0  0  0  0
  9 13  2  0  0  0  0
  9 15  1  0  0  0  0
 10 16  1  0  0  0  0
 10 31  1  0  0  0  0
 10 32  1  0  0  0  0
 11 33  1  0  0  0  0
 11 34  1  0  0  0  0
 11 35  1  0  0  0  0
 12 19  1  0  0  0  0
 12 36  1  0  0  0  0
 13 20  1  0  0  0  0
 13 37  1  0  0  0  0
 14 21  2  0  0  0  0
 14 38  1  0  0  0  0
 15 22  2  0  0  0  0
 15 39  1  0  0  0  0
 16 40  1  0  0  0  0
 16 41  1  0  0  0  0
 16 42  1  0  0  0  0
 17 43  1  0  0  0  0
 17 44  1  0  0  0  0
 17 45  1  0  0  0  0
 18 46  1  0  0  0  0
 18 47  1  0  0  0  0
 18 48  1  0  0  0  0
 19 24  2  0  0  0  0
 19 49  1  0  0  0  0
 20 25  2  0  0  0  0
 20 50  1  0  0  0  0
 21 24  1  0  0  0  0
 21 51  1  0  0  0  0
 22 25  1  0  0  0  0
 22 52  1  0  0  0  0
 23 26  1  0  0  0  0
 24 53  1  0  0  0  0
 25 54  1  0  0  0  0
 26 55  1  0  0  0  0
 26 56  1  0  0  0  0
 26 57  1  0  0  0  0
M  END
>  <DRUGBANK_ID>
DB01227

>  <SECONDARY_ACCESSION_NUMBERS>
APRD00745

>  <COMMON_NAME>
Levacetylmethadol

>  <CAS_NUMBER>
1477-40-3

>  <UNII>
R3B637Y991

>  <SYNONYMS>
(-)-alpha-Acetylmethadol; (1S,4S)-4-(dimethylamino)-1-ethyl-2,2-diphenylpentyl acetate; 1-alpha-Acetylmethadol; LAAM; Levacetilmetadol; Levacetylmethadol; Levacetylmethadolum; Levo-alpha-acetylmethadol; Levo-methadyl acetate; Levo-Î±-acetylmethadol; Levomethadyl; Levomethadyl acetate

$$$$
