
 OpenBabel10282417153D

 47 50  0  0  1  0  0  0  0  0999 V2000
    2.4926   -0.6515    0.0363 C   0  0  0  0  0  0  0  0  0  0  0  0
    2.4278    0.7379   -0.0661 C   0  0  0  0  0  0  0  0  0  0  0  0
    1.1901    1.3802   -0.0805 C   0  0  0  0  0  0  0  0  0  0  0  0
    0.0186    0.6309   -0.0034 C   0  0  0  0  0  0  0  0  0  0  0  0
    0.0756   -0.7690    0.0371 C   0  0  0  0  0  0  0  0  0  0  0  0
    1.3206   -1.4038    0.0913 C   0  0  0  0  0  0  0  0  0  0  0  0
   -1.1768   -1.5935    0.0209 C   0  0  0  0  0  0  0  0  0  0  0  0
   -2.3576   -0.7344   -0.3893 C   0  0  0  0  0  0  0  0  0  0  0  0
   -2.2936    0.5625    0.4209 C   0  0  1  0  0  0  0  0  0  0  0  0
   -1.1573    1.3377   -0.0049 O   0  0  0  0  0  0  0  0  0  0  0  0
   -3.5531    1.4172    0.2208 C   0  0  0  0  0  0  0  0  0  0  0  0
   -4.7686    0.7197    0.6758 N   0  0  0  0  0  0  0  0  0  0  0  0
   -5.9813    1.5016    0.4358 C   0  0  0  0  0  0  0  0  0  0  0  0
   -6.1787    1.8172   -1.0195 C   0  0  0  0  0  0  0  0  0  0  0  0
   -6.3653    0.8081   -1.9716 C   0  0  0  0  0  0  0  0  0  0  0  0
   -6.4154    1.1200   -3.3343 C   0  0  0  0  0  0  0  0  0  0  0  0
   -6.2892    2.4647   -3.6735 C   0  0  0  0  0  0  0  0  0  0  0  0
   -6.1164    3.4708   -2.7827 N   0  0  0  0  0  0  0  0  0  0  0  0
   -6.0595    3.1221   -1.4808 C   0  0  0  0  0  0  0  0  0  0  0  0
   -6.5779    0.0664   -4.3382 C   0  0  0  0  0  0  0  0  0  0  0  0
   -7.7241   -0.7468   -4.3272 C   0  0  0  0  0  0  0  0  0  0  0  0
   -7.8622   -1.7983   -5.2352 C   0  0  0  0  0  0  0  0  0  0  0  0
   -6.8569   -2.0343   -6.1617 C   0  0  0  0  0  0  0  0  0  0  0  0
   -5.7215   -1.2362   -6.2076 C   0  0  0  0  0  0  0  0  0  0  0  0
   -5.5816   -0.1845   -5.2968 C   0  0  0  0  0  0  0  0  0  0  0  0
   -6.9821   -3.0543   -7.0226 F   0  0  0  0  0  0  0  0  0  0  0  0
    3.4568   -1.1516    0.0607 H   0  0  0  0  0  0  0  0  0  0  0  0
    3.3417    1.3215   -0.1305 H   0  0  0  0  0  0  0  0  0  0  0  0
    1.1377    2.4631   -0.1498 H   0  0  0  0  0  0  0  0  0  0  0  0
    1.3791   -2.4873    0.1615 H   0  0  0  0  0  0  0  0  0  0  0  0
   -1.3511   -2.0077    1.0212 H   0  0  0  0  0  0  0  0  0  0  0  0
   -1.0801   -2.4274   -0.6830 H   0  0  0  0  0  0  0  0  0  0  0  0
   -3.2762   -1.3033   -0.2279 H   0  0  0  0  0  0  0  0  0  0  0  0
   -2.2934   -0.5027   -1.4618 H   0  0  0  0  0  0  0  0  0  0  0  0
   -2.1880    0.3583    1.4955 H   0  0  0  0  0  0  0  0  0  0  0  0
   -3.4403    2.3621    0.7669 H   0  0  0  0  0  0  0  0  0  0  0  0
   -3.6059    1.6813   -0.8428 H   0  0  0  0  0  0  0  0  0  0  0  0
   -4.8632   -0.1604    0.1739 H   0  0  0  0  0  0  0  0  0  0  0  0
   -6.8437    0.9248    0.7922 H   0  0  0  0  0  0  0  0  0  0  0  0
   -5.9565    2.4132    1.0434 H   0  0  0  0  0  0  0  0  0  0  0  0
   -6.4248   -0.2317   -1.6548 H   0  0  0  0  0  0  0  0  0  0  0  0
   -6.3293    2.7878   -4.7104 H   0  0  0  0  0  0  0  0  0  0  0  0
   -5.8702    3.9442   -0.7947 H   0  0  0  0  0  0  0  0  0  0  0  0
   -8.5169   -0.5637   -3.6045 H   0  0  0  0  0  0  0  0  0  0  0  0
   -8.7424   -2.4318   -5.2167 H   0  0  0  0  0  0  0  0  0  0  0  0
   -4.9481   -1.4414   -6.9404 H   0  0  0  0  0  0  0  0  0  0  0  0
   -4.6775    0.4211   -5.3255 H   0  0  0  0  0  0  0  0  0  0  0  0
  1  2  2  0  0  0  0
  1  6  1  0  0  0  0
  1 27  1  0  0  0  0
  2  3  1  0  0  0  0
  2 28  1  0  0  0  0
  3  4  2  0  0  0  0
  3 29  1  0  0  0  0
  4  5  1  0  0  0  0
  4 10  1  0  0  0  0
  5  6  2  0  0  0  0
  5  7  1  0  0  0  0
  6 30  1  0  0  0  0
  7  8  1  0  0  0  0
  7 31  1  0  0  0  0
  7 32  1  0  0  0  0
  8  9  1  0  0  0  0
  8 33  1  0  0  0  0
  8 34  1  0  0  0  0
  9 10  1  0  0  0  0
  9 11  1  0  0  0  0
  9 35  1  1  0  0  0
 11 12  1  0  0  0  0
 11 36  1  0  0  0  0
 11 37  1  0  0  0  0
 12 13  1  0  0  0  0
 12 38  1  0  0  0  0
 13 14  1  0  0  0  0
 13 39  1  0  0  0  0
 13 40  1  0  0  0  0
 14 15  2  0  0  0  0
 14 19  1  0  0  0  0
 15 16  1  0  0  0  0
 15 41  1  0  0  0  0
 16 17  2  0  0  0  0
 16 20  1  0  0  0  0
 17 18  1  0  0  0  0
 17 42  1  0  0  0  0
 18 19  2  0  0  0  0
 19 43  1  0  0  0  0
 20 21  2  0  0  0  0
 20 25  1  0  0  0  0
 21 22  1  0  0  0  0
 21 44  1  0  0  0  0
 22 23  2  0  0  0  0
 22 45  1  0  0  0  0
 23 24  1  0  0  0  0
 23 26  1  0  0  0  0
 24 25  2  0  0  0  0
 24 46  1  0  0  0  0
 25 47  1  0  0  0  0
M  END
>  <DRUGBANK_ID>
DB06454

>  <COMMON_NAME>
Sarizotan

>  <CAS_NUMBER>
351862-32-3

>  <UNII>
467LU0UCUW

>  <SYNONYMS>
Sarizotan

$$$$
