NNN
 OpenBabel10282417173D

 52 54  0  0  0  0  0  0  0  0999 V2000
    2.8976   -3.0927   -2.5134 O   0  0  0  0  0  0  0  0  0  0  0  0
    2.5595   -2.1052   -1.5426 C   0  0  0  0  0  0  0  0  0  0  0  0
    1.0258   -1.9277   -1.4081 C   0  0  1  0  0  0  0  0  0  0  0  0
    0.6237   -1.4662    0.0110 C   0  0  0  0  0  0  0  0  0  0  0  0
    1.6864   -0.5847    0.6652 C   0  0  0  0  0  0  0  0  0  0  0  0
    0.5419   -1.0336   -2.4777 N   0  0  0  0  0  0  0  0  0  0  0  0
   -0.2683    0.0657   -2.2982 C   0  0  0  0  0  0  0  0  0  0  0  0
    0.1293    0.9666   -1.3349 N   0  0  0  0  0  0  0  0  0  0  0  0
   -0.6141    2.0005   -1.0345 C   0  0  0  0  0  0  0  0  0  0  0  0
   -1.7920    2.1717   -1.7608 N   0  0  0  0  0  0  0  0  0  0  0  0
   -2.6701    3.1823   -1.5876 N   0  0  0  0  0  0  0  0  0  0  0  0
   -3.5984    2.9540   -2.5059 C   0  0  0  0  0  0  0  0  0  0  0  0
   -3.3292    1.7897   -3.2541 C   0  0  0  0  0  0  0  0  0  0  0  0
   -4.1648    1.2433   -4.3523 C   0  0  0  0  0  0  0  0  0  0  0  0
   -3.3652    1.2119   -5.6506 C   0  0  0  0  0  0  0  0  0  0  0  0
   -4.6982   -0.1356   -3.9767 C   0  0  0  0  0  0  0  0  0  0  0  0
   -2.1375    1.2982   -2.7512 C   0  0  0  0  0  0  0  0  0  0  0  0
   -1.3398    0.2187   -3.0293 N   0  0  0  0  0  0  0  0  0  0  0  0
   -0.2011    2.8428   -0.0324 N   0  0  0  0  0  0  0  0  0  0  0  0
   -0.8600    4.0176    0.4881 C   0  0  0  0  0  0  0  0  0  0  0  0
   -1.2810    3.8589    1.9278 C   0  0  0  0  0  0  0  0  0  0  0  0
   -1.4604    2.6052    2.5288 C   0  0  0  0  0  0  0  0  0  0  0  0
   -1.8777    2.5091    3.8550 C   0  0  0  0  0  0  0  0  0  0  0  0
   -2.1470    3.6634    4.5869 C   0  0  0  0  0  0  0  0  0  0  0  0
   -2.0189    4.9151    3.9892 C   0  0  0  0  0  0  0  0  0  0  0  0
   -1.5955    5.0126    2.6647 C   0  0  0  0  0  0  0  0  0  0  0  0
    0.5553   -2.9081   -1.5757 H   0  0  0  0  0  0  0  0  0  0  0  0
    2.7434   -3.9564   -2.0915 H   0  0  0  0  0  0  0  0  0  0  0  0
    3.0145   -2.4419   -0.6059 H   0  0  0  0  0  0  0  0  0  0  0  0
    3.0347   -1.1610   -1.8321 H   0  0  0  0  0  0  0  0  0  0  0  0
   -0.3476   -0.9579    0.0063 H   0  0  0  0  0  0  0  0  0  0  0  0
    0.4541   -2.3421    0.6489 H   0  0  0  0  0  0  0  0  0  0  0  0
    2.0537    0.1843   -0.0219 H   0  0  0  0  0  0  0  0  0  0  0  0
    1.3018   -0.0951    1.5603 H   0  0  0  0  0  0  0  0  0  0  0  0
    2.5503   -1.1825    0.9693 H   0  0  0  0  0  0  0  0  0  0  0  0
    0.4675   -1.4785   -3.3858 H   0  0  0  0  0  0  0  0  0  0  0  0
   -4.4276    3.6459   -2.5900 H   0  0  0  0  0  0  0  0  0  0  0  0
   -5.0270    1.9087   -4.5023 H   0  0  0  0  0  0  0  0  0  0  0  0
   -2.4798    0.5743   -5.5560 H   0  0  0  0  0  0  0  0  0  0  0  0
   -3.9728    0.8330   -6.4751 H   0  0  0  0  0  0  0  0  0  0  0  0
   -3.0152    2.2184   -5.9111 H   0  0  0  0  0  0  0  0  0  0  0  0
   -5.2951   -0.0823   -3.0578 H   0  0  0  0  0  0  0  0  0  0  0  0
   -5.3282   -0.5400   -4.7726 H   0  0  0  0  0  0  0  0  0  0  0  0
   -3.8811   -0.8415   -3.7935 H   0  0  0  0  0  0  0  0  0  0  0  0
    0.6322    2.5484    0.4620 H   0  0  0  0  0  0  0  0  0  0  0  0
   -0.1592    4.8537    0.3955 H   0  0  0  0  0  0  0  0  0  0  0  0
   -1.7480    4.3286   -0.0506 H   0  0  0  0  0  0  0  0  0  0  0  0
   -1.2866    1.6906    1.9667 H   0  0  0  0  0  0  0  0  0  0  0  0
   -1.9977    1.5307    4.3115 H   0  0  0  0  0  0  0  0  0  0  0  0
   -2.4691    3.5854    5.6211 H   0  0  0  0  0  0  0  0  0  0  0  0
   -2.2527    5.8148    4.5517 H   0  0  0  0  0  0  0  0  0  0  0  0
   -1.5252    5.9952    2.2009 H   0  0  0  0  0  0  0  0  0  0  0  0
  1  2  1  0  0  0  0
  1 28  1  0  0  0  0
  2 29  1  0  0  0  0
  2 30  1  0  0  0  0
  3 27  1  6  0  0  0
  3  6  1  0  0  0  0
  3  4  1  0  0  0  0
  3  2  1  0  0  0  0
  4  5  1  0  0  0  0
  4 31  1  0  0  0  0
  4 32  1  0  0  0  0
  5 33  1  0  0  0  0
  5 34  1  0  0  0  0
  5 35  1  0  0  0  0
  6 36  1  0  0  0  0
  7  6  1  0  0  0  0
  7 18  2  0  0  0  0
  8  7  1  0  0  0  0
  9  8  2  0  0  0  0
  9 10  1  0  0  0  0
 10 17  1  0  0  0  0
 11 10  1  0  0  0  0
 11 12  2  0  0  0  0
 12 13  1  0  0  0  0
 12 37  1  0  0  0  0
 13 17  2  0  0  0  0
 13 14  1  0  0  0  0
 14 15  1  0  0  0  0
 14 38  1  0  0  0  0
 15 39  1  0  0  0  0
 15 40  1  0  0  0  0
 15 41  1  0  0  0  0
 16 14  1  0  0  0  0
 16 42  1  0  0  0  0
 16 43  1  0  0  0  0
 16 44  1  0  0  0  0
 17 18  1  0  0  0  0
 19  9  1  0  0  0  0
 19 20  1  0  0  0  0
 19 45  1  0  0  0  0
 20 46  1  0  0  0  0
 20 47  1  0  0  0  0
 21 20  1  0  0  0  0
 21 26  1  0  0  0  0
 22 21  2  0  0  0  0
 22 48  1  0  0  0  0
 23 22  1  0  0  0  0
 23 24  2  0  0  0  0
 23 49  1  0  0  0  0
 24 25  1  0  0  0  0
 24 50  1  0  0  0  0
 25 26  2  0  0  0  0
 25 51  1  0  0  0  0
 26 52  1  0  0  0  0
M  END
>  <DRUGBANK_ID>
DB08285

>  <COMMON_NAME>
(2R)-2-{[4-(benzylamino)-8-(1-methylethyl)pyrazolo[1,5-a][1,3,5]triazin-2-yl]amino}butan-1-ol

$$$$
