
 OpenBabel10282417243D

 73 74  0  0  0  0  0  0  0  0999 V2000
    1.1633    0.0347   -0.0942 C   0  0  0  0  0  0  0  0  0  0  0  0
    0.5065   -0.3210   -1.4221 C   0  0  0  0  0  0  0  0  0  0  0  0
    0.9471   -1.7351   -1.8048 C   0  0  0  0  0  0  0  0  0  0  0  0
   -1.0265   -0.2586   -1.3628 C   0  0  0  0  0  0  0  0  0  0  0  0
   -1.5852    1.0580   -1.0388 N   0  0  0  0  0  0  0  0  0  0  0  0
   -2.4113    1.7497   -2.0421 C   0  0  0  0  0  0  0  0  0  0  0  0
   -3.8106    2.0848   -1.5144 C   0  0  0  0  0  0  0  0  0  0  0  0
   -4.2479    3.2402   -1.5657 O   0  0  0  0  0  0  0  0  0  0  0  0
   -4.5669    1.0772   -0.9469 N   0  0  0  0  0  0  0  0  0  0  0  0
   -4.3089   -0.3648   -1.0502 C   0  0  0  0  0  0  0  0  0  0  0  0
   -4.1783   -1.0891    0.2918 C   0  0  0  0  0  0  0  0  0  0  0  0
   -5.5198   -1.2724    1.0083 C   0  0  0  0  0  0  0  0  0  0  0  0
   -6.5192   -1.9198    0.1410 N   0  0  0  0  0  0  0  0  0  0  0  0
   -6.4526   -3.3440   -0.0193 C   0  0  0  0  0  0  0  0  0  0  0  0
   -7.2323   -3.6109   -1.2841 C   0  0  0  0  0  0  0  0  0  0  0  0
   -8.2436   -2.4919   -1.3422 C   0  0  0  0  0  0  0  0  0  0  0  0
   -7.5320   -1.3767   -0.6602 C   0  0  0  0  0  0  0  0  0  0  0  0
   -7.9008   -0.2204   -0.8459 O   0  0  0  0  0  0  0  0  0  0  0  0
   -5.8074    1.5439   -0.3575 C   0  0  0  0  0  0  0  0  0  0  0  0
   -5.6376    2.2827    0.9644 C   0  0  0  0  0  0  0  0  0  0  0  0
   -6.3835    3.4142    1.0882 N   0  0  0  0  0  0  0  0  0  0  0  0
   -4.9438    1.8821    1.8958 O   0  0  0  0  0  0  0  0  0  0  0  0
   -1.4841    1.5525    0.2624 C   0  0  0  0  0  0  0  0  0  0  0  0
   -1.1143    0.8428    1.2034 O   0  0  0  0  0  0  0  0  0  0  0  0
   -1.9071    2.9897    0.5473 C   0  0  0  0  0  0  0  0  0  0  0  0
   -1.3642    3.9538   -0.4355 N   0  0  0  0  0  0  0  0  0  0  0  0
   -1.7385    5.3170   -0.0535 C   0  0  0  0  0  0  0  0  0  0  0  0
   -1.1888    5.7516    1.3179 C   0  0  0  0  0  0  0  0  0  0  0  0
    0.3223    5.7404    1.3716 C   0  0  0  0  0  0  0  0  0  0  0  0
    1.0228    6.9460    1.3246 C   0  0  0  0  0  0  0  0  0  0  0  0
    2.4207    6.9439    1.3201 C   0  0  0  0  0  0  0  0  0  0  0  0
    3.1362    5.7446    1.3282 C   0  0  0  0  0  0  0  0  0  0  0  0
    2.4561    4.5419    1.3595 C   0  0  0  0  0  0  0  0  0  0  0  0
    1.0745    4.5543    1.4155 C   0  0  0  0  0  0  0  0  0  0  0  0
    0.4971    3.3542    1.4684 F   0  0  0  0  0  0  0  0  0  0  0  0
    0.7515   -0.5844    0.7121 H   0  0  0  0  0  0  0  0  0  0  0  0
    1.0130    1.0920    0.1354 H   0  0  0  0  0  0  0  0  0  0  0  0
    2.2428   -0.1207   -0.1128 H   0  0  0  0  0  0  0  0  0  0  0  0
    0.8554    0.3822   -2.1870 H   0  0  0  0  0  0  0  0  0  0  0  0
    0.5861   -2.4705   -1.0757 H   0  0  0  0  0  0  0  0  0  0  0  0
    0.5671   -2.0192   -2.7906 H   0  0  0  0  0  0  0  0  0  0  0  0
    2.0396   -1.7970   -1.8298 H   0  0  0  0  0  0  0  0  0  0  0  0
   -1.4114   -0.5691   -2.3428 H   0  0  0  0  0  0  0  0  0  0  0  0
   -1.4010   -0.9820   -0.6279 H   0  0  0  0  0  0  0  0  0  0  0  0
   -1.9121    2.6633   -2.3662 H   0  0  0  0  0  0  0  0  0  0  0  0
   -2.5432    1.1298   -2.9327 H   0  0  0  0  0  0  0  0  0  0  0  0
   -5.0692   -0.8224   -1.6905 H   0  0  0  0  0  0  0  0  0  0  0  0
   -3.4050   -0.5371   -1.6219 H   0  0  0  0  0  0  0  0  0  0  0  0
   -3.7419   -2.0821    0.1102 H   0  0  0  0  0  0  0  0  0  0  0  0
   -3.4650   -0.5700    0.9432 H   0  0  0  0  0  0  0  0  0  0  0  0
   -5.3793   -1.8881    1.9039 H   0  0  0  0  0  0  0  0  0  0  0  0
   -5.9028   -0.3364    1.4026 H   0  0  0  0  0  0  0  0  0  0  0  0
   -6.9000   -3.7962    0.8689 H   0  0  0  0  0  0  0  0  0  0  0  0
   -5.4129   -3.6683   -0.1185 H   0  0  0  0  0  0  0  0  0  0  0  0
   -7.7014   -4.5943   -1.2911 H   0  0  0  0  0  0  0  0  0  0  0  0
   -6.5631   -3.5355   -2.1508 H   0  0  0  0  0  0  0  0  0  0  0  0
   -9.1515   -2.6893   -0.7677 H   0  0  0  0  0  0  0  0  0  0  0  0
   -8.4915   -2.2104   -2.3702 H   0  0  0  0  0  0  0  0  0  0  0  0
   -6.4150    2.0830   -1.0895 H   0  0  0  0  0  0  0  0  0  0  0  0
   -6.3748    0.7018   -0.0568 H   0  0  0  0  0  0  0  0  0  0  0  0
   -6.2128    3.9812    1.9050 H   0  0  0  0  0  0  0  0  0  0  0  0
   -6.8221    3.8296    0.2778 H   0  0  0  0  0  0  0  0  0  0  0  0
   -2.9883    3.0488    0.6048 H   0  0  0  0  0  0  0  0  0  0  0  0
   -1.5626    3.1958    1.5615 H   0  0  0  0  0  0  0  0  0  0  0  0
   -0.3465    3.8698   -0.4520 H   0  0  0  0  0  0  0  0  0  0  0  0
   -1.3811    6.0078   -0.8284 H   0  0  0  0  0  0  0  0  0  0  0  0
   -2.8329    5.3961   -0.0626 H   0  0  0  0  0  0  0  0  0  0  0  0
   -1.5726    6.7568    1.5352 H   0  0  0  0  0  0  0  0  0  0  0  0
   -1.5896    5.1332    2.1283 H   0  0  0  0  0  0  0  0  0  0  0  0
    0.4865    7.8916    1.2882 H   0  0  0  0  0  0  0  0  0  0  0  0
    2.9570    7.8873    1.3022 H   0  0  0  0  0  0  0  0  0  0  0  0
    4.2204    5.7417    1.3149 H   0  0  0  0  0  0  0  0  0  0  0  0
    2.9660    3.5837    1.3421 H   0  0  0  0  0  0  0  0  0  0  0  0
  1  2  1  0  0  0  0
  1 36  1  0  0  0  0
  1 37  1  0  0  0  0
  1 38  1  0  0  0  0
  2  3  1  0  0  0  0
  2  4  1  0  0  0  0
  2 39  1  0  0  0  0
  3 40  1  0  0  0  0
  3 41  1  0  0  0  0
  3 42  1  0  0  0  0
  4  5  1  0  0  0  0
  4 43  1  0  0  0  0
  4 44  1  0  0  0  0
  5  6  1  0  0  0  0
  5 23  1  0  0  0  0
  6  7  1  0  0  0  0
  6 45  1  0  0  0  0
  6 46  1  0  0  0  0
  7  8  2  0  0  0  0
  7  9  1  0  0  0  0
  9 10  1  0  0  0  0
  9 19  1  0  0  0  0
 10 11  1  0  0  0  0
 10 47  1  0  0  0  0
 10 48  1  0  0  0  0
 11 12  1  0  0  0  0
 11 49  1  0  0  0  0
 11 50  1  0  0  0  0
 12 13  1  0  0  0  0
 12 51  1  0  0  0  0
 12 52  1  0  0  0  0
 13 14  1  0  0  0  0
 13 17  1  0  0  0  0
 14 15  1  0  0  0  0
 14 53  1  0  0  0  0
 14 54  1  0  0  0  0
 15 16  1  0  0  0  0
 15 55  1  0  0  0  0
 15 56  1  0  0  0  0
 16 17  1  0  0  0  0
 16 57  1  0  0  0  0
 16 58  1  0  0  0  0
 17 18  2  0  0  0  0
 19 20  1  0  0  0  0
 19 59  1  0  0  0  0
 19 60  1  0  0  0  0
 20 21  1  0  0  0  0
 20 22  2  0  0  0  0
 21 61  1  0  0  0  0
 21 62  1  0  0  0  0
 23 24  2  0  0  0  0
 23 25  1  0  0  0  0
 25 26  1  0  0  0  0
 25 63  1  0  0  0  0
 25 64  1  0  0  0  0
 26 27  1  0  0  0  0
 26 65  1  0  0  0  0
 27 28  1  0  0  0  0
 27 66  1  0  0  0  0
 27 67  1  0  0  0  0
 28 29  1  0  0  0  0
 28 68  1  0  0  0  0
 28 69  1  0  0  0  0
 29 30  2  0  0  0  0
 29 34  1  0  0  0  0
 30 31  1  0  0  0  0
 30 70  1  0  0  0  0
 31 32  2  0  0  0  0
 31 71  1  0  0  0  0
 32 33  1  0  0  0  0
 32 72  1  0  0  0  0
 33 34  2  0  0  0  0
 33 73  1  0  0  0  0
 34 35  1  0  0  0  0
M  END
>  <DRUGBANK_ID>
DB18295

>  <COMMON_NAME>
BN-201

>  <CAS_NUMBER>
1361200-34-1

>  <UNII>
KCN37L7EIH

>  <SYNONYMS>
Glycinamide, n-(2-(2-fluorophenyl)ethyl)glycyl-n-(2-methylpropyl)glycyl-n2-(3-(2-oxo-1-pyrrolidinyl)propyl)-; N-(2-amino-2-oxoethyl)-2-(2-((4-fluorophenethyl)amino)-N-isobutylacetamido)-N-(3-(2-oxopyrrolidin-1-yl)propyl)acetamide N-({Carbamoylmethyl-[3-(2-oxo-pyrrolidin-1-yl)propyl}-carbamoyl}-methyl)-2-[2-(2-fluorophenyl)-ethylamino]-N-isobutyl-acetamide

$$$$
