
 OpenBabel10282417103D

 53 54  0  0  1  0  0  0  0  0999 V2000
    0.1074    5.8699    3.7498 C   0  0  0  0  0  0  0  0  0  0  0  0
    0.5254    5.2033    4.8278 N   0  0  0  0  0  0  0  0  0  0  0  0
   -0.0989    7.2301    3.7605 C   0  0  0  0  0  0  0  0  0  0  0  0
    0.7246    5.9180    5.9510 C   0  0  0  0  0  0  0  0  0  0  0  0
    0.0859    7.9589    4.8519 N   0  0  0  0  0  0  0  0  0  0  0  0
    0.4901    7.2858    5.9290 C   0  0  0  0  0  0  0  0  0  0  0  0
   -0.1500    5.0993    2.4651 C   0  0  0  0  0  0  0  0  0  0  0  0
   -0.6110    5.8080    1.2626 N   0  0  0  0  0  0  0  0  0  0  0  0
    0.0335    3.8421    2.4306 O   0  0  0  0  0  0  0  0  0  0  0  0
   -1.0375    5.0844    0.0563 C   0  0  2  0  0  0  0  0  0  0  0  0
   -0.3909    3.7089    0.0354 C   0  0  0  0  0  0  0  0  0  0  0  0
   -0.6126    5.8628   -1.1782 C   0  0  0  0  0  0  0  0  0  0  0  0
   -1.0536    5.1145   -2.4256 C   0  0  0  0  0  0  0  0  0  0  0  0
   -0.6703    3.8462   -2.5140 C   0  0  0  0  0  0  0  0  0  0  0  0
   -1.6873    5.7488   -3.4814 C   0  0  0  0  0  0  0  0  0  0  0  0
   -1.0283    3.0813   -3.5978 C   0  0  0  0  0  0  0  0  0  0  0  0
   -2.1344    4.8680   -4.4944 C   0  0  0  0  0  0  0  0  0  0  0  0
   -1.7071    3.6283   -4.6511 C   0  0  0  0  0  0  0  0  0  0  0  0
   -0.3533    2.5517   -0.4887 O   0  0  0  0  0  0  0  0  0  0  0  0
    0.8232    4.2862    0.6300 N   0  0  0  0  0  0  0  0  0  0  0  0
    0.7798    5.6247    1.2362 C   0  0  1  0  0  0  0  0  0  0  0  0
    1.1647    5.5291    2.7036 C   0  0  0  0  0  0  0  0  0  0  0  0
    2.5708    4.9643    2.8228 C   0  0  0  0  0  0  0  0  0  0  0  0
    3.5471    5.8791    2.1015 C   0  0  0  0  0  0  0  0  0  0  0  0
    2.9556    4.8686    4.2902 C   0  0  0  0  0  0  0  0  0  0  0  0
    1.8075    6.5877    0.4770 B   0  0  0  0  0  0  0  0  0  0  0  0
    1.3097    7.8275   -0.2050 O   0  0  0  0  0  0  0  0  0  0  0  0
    3.2689    6.2506    0.4471 O   0  0  0  0  0  0  0  0  0  0  0  0
   -0.4180    7.7140    2.8611 H   0  0  0  0  0  0  0  0  0  0  0  0
    1.0587    5.4387    6.8474 H   0  0  0  0  0  0  0  0  0  0  0  0
    0.6436    7.8349    6.8344 H   0  0  0  0  0  0  0  0  0  0  0  0
   -0.7582    6.8170    1.2903 H   0  0  0  0  0  0  0  0  0  0  0  0
   -2.1021    4.9780    0.0619 H   0  0  0  0  0  0  0  0  0  0  0  0
   -1.0678    6.8310   -1.1635 H   0  0  0  0  0  0  0  0  0  0  0  0
    0.4521    5.9692   -1.1839 H   0  0  0  0  0  0  0  0  0  0  0  0
   -0.0772    3.4161   -1.7342 H   0  0  0  0  0  0  0  0  0  0  0  0
   -1.8261    6.8088   -3.5268 H   0  0  0  0  0  0  0  0  0  0  0  0
   -0.7723    2.0425   -3.6177 H   0  0  0  0  0  0  0  0  0  0  0  0
   -2.8698    5.2316   -5.1813 H   0  0  0  0  0  0  0  0  0  0  0  0
   -1.8827    3.0813   -5.5538 H   0  0  0  0  0  0  0  0  0  0  0  0
    1.6958    3.7581    0.6220 H   0  0  0  0  0  0  0  0  0  0  0  0
   -0.2100    6.0223    1.1523 H   0  0  0  0  0  0  0  0  0  0  0  0
    1.1330    6.5034    3.1448 H   0  0  0  0  0  0  0  0  0  0  0  0
    0.4774    4.8851    3.2113 H   0  0  0  0  0  0  0  0  0  0  0  0
    2.6024    3.9900    2.3816 H   0  0  0  0  0  0  0  0  0  0  0  0
    3.5155    6.8533    2.5428 H   0  0  0  0  0  0  0  0  0  0  0  0
    4.5369    5.4814    2.1855 H   0  0  0  0  0  0  0  0  0  0  0  0
    3.2762    5.9464    1.0686 H   0  0  0  0  0  0  0  0  0  0  0  0
    2.2683    4.2247    4.7979 H   0  0  0  0  0  0  0  0  0  0  0  0
    3.9455    4.4710    4.3741 H   0  0  0  0  0  0  0  0  0  0  0  0
    2.9240    5.8429    4.7314 H   0  0  0  0  0  0  0  0  0  0  0  0
    0.3191    7.8977   -0.0874 H   0  0  0  0  0  0  0  0  0  0  0  0
    3.7626    6.9532   -0.0653 H   0  0  0  0  0  0  0  0  0  0  0  0
  1  7  1  0  0  0  0
  2  1  1  0  0  0  0
  3  1  2  0  0  0  0
  3 29  1  0  0  0  0
  4  2  2  0  0  0  0
  4 30  1  0  0  0  0
  5  3  1  0  0  0  0
  6  4  1  0  0  0  0
  6  5  2  0  0  0  0
  6 31  1  0  0  0  0
  7  8  1  0  0  0  0
  7  9  2  0  0  0  0
  8 32  1  0  0  0  0
 10 12  1  0  0  0  0
 10 33  1  1  0  0  0
 10 11  1  0  0  0  0
 10  8  1  0  0  0  0
 11 19  2  0  0  0  0
 11 20  1  0  0  0  0
 12 13  1  0  0  0  0
 12 34  1  0  0  0  0
 12 35  1  0  0  0  0
 14 13  1  0  0  0  0
 14 36  1  0  0  0  0
 15 13  2  0  0  0  0
 15 37  1  0  0  0  0
 16 14  2  0  0  0  0
 16 38  1  0  0  0  0
 17 15  1  0  0  0  0
 17 39  1  0  0  0  0
 18 16  1  0  0  0  0
 18 17  2  0  0  0  0
 18 40  1  0  0  0  0
 20 21  1  0  0  0  0
 20 41  1  0  0  0  0
 21 22  1  0  0  0  0
 21 26  1  0  0  0  0
 21 42  1  6  0  0  0
 22 23  1  0  0  0  0
 22 43  1  0  0  0  0
 22 44  1  0  0  0  0
 23 24  1  0  0  0  0
 23 25  1  0  0  0  0
 23 45  1  0  0  0  0
 24 46  1  0  0  0  0
 24 47  1  0  0  0  0
 24 48  1  0  0  0  0
 25 49  1  0  0  0  0
 25 50  1  0  0  0  0
 25 51  1  0  0  0  0
 26 27  1  0  0  0  0
 26 28  1  0  0  0  0
 27 52  1  0  0  0  0
 28 53  1  0  0  0  0
M  END
>  <DRUGBANK_ID>
DB00188

>  <SECONDARY_ACCESSION_NUMBERS>
APRD00828; DB07475

>  <COMMON_NAME>
Bortezomib

>  <CAS_NUMBER>
179324-69-7

>  <UNII>
69G8BD63PP

>  <SYNONYMS>
[(1R)-3-methyl-1-({(2S)-3-phenyl-2-[(pyrazin-2-ylcarbonyl)amino]propanoyl}amino)butyl]boronic acid; Bortezomib; N-[(1R)-1-(DIHYDROXYBORYL)-3-methylbutyl]-N-(pyrazin-2-ylcarbonyl)-L-phenylalaninamide

$$$$
