1205
 OpenBabel10282417113D

 36 38  0  0  0  0  0  0  0  0999 V2000
    0.9561   -0.0479   -0.0556 F   0  0  0  0  0  0  0  0  0  0  0  0
    4.9477   -2.8041    1.9508 O   0  0  0  0  0  0  0  0  0  0  0  0
   10.8387   -1.5911   -0.9122 O   0  0  0  0  0  0  0  0  0  0  0  0
    9.3020   -3.0690   -1.5942 O   0  0  0  0  0  0  0  0  0  0  0  0
    6.4502   -0.2334   -0.2190 N   0  0  0  0  0  0  0  0  0  0  0  0
    5.7018   -3.1708   -0.2095 N   0  0  0  0  0  0  0  0  0  0  0  0
    8.5955    0.0615    0.1585 N   0  0  0  0  0  0  0  0  0  0  0  0
    7.0889   -1.3450   -0.7415 C   0  0  0  0  0  0  0  0  0  0  0  0
    6.3188   -2.4796   -1.3299 C   0  0  0  0  0  0  0  0  0  0  0  0
    5.0602   -0.0998   -0.0819 C   0  0  0  0  0  0  0  0  0  0  0  0
    4.3446   -1.2326    0.3284 C   0  0  0  0  0  0  0  0  0  0  0  0
    8.4428   -1.1312   -0.5422 C   0  0  0  0  0  0  0  0  0  0  0  0
    5.0318   -2.4674    0.7769 C   0  0  0  0  0  0  0  0  0  0  0  0
    7.4112    0.6216    0.2280 C   0  0  0  0  0  0  0  0  0  0  0  0
    4.3967    1.0879   -0.4066 C   0  0  0  0  0  0  0  0  0  0  0  0
    5.7370   -4.6208   -0.1642 C   0  0  0  0  0  0  0  0  0  0  0  0
    2.9542   -1.2182    0.3503 C   0  0  0  0  0  0  0  0  0  0  0  0
    2.9974    1.0920   -0.3944 C   0  0  0  0  0  0  0  0  0  0  0  0
    9.5371   -1.9992   -1.0251 C   0  0  0  0  0  0  0  0  0  0  0  0
    2.2945   -0.0591   -0.0308 C   0  0  0  0  0  0  0  0  0  0  0  0
   11.2348   -0.3362   -0.3331 C   0  0  0  0  0  0  0  0  0  0  0  0
   10.8549    0.8401   -1.2228 C   0  0  0  0  0  0  0  0  0  0  0  0
    6.9515   -3.1690   -1.8917 H   0  0  0  0  0  0  0  0  0  0  0  0
    5.5357   -2.1255   -2.0102 H   0  0  0  0  0  0  0  0  0  0  0  0
    7.2027    1.5891    0.6671 H   0  0  0  0  0  0  0  0  0  0  0  0
    4.9258    1.9786   -0.7377 H   0  0  0  0  0  0  0  0  0  0  0  0
    5.2055   -5.0023   -1.0433 H   0  0  0  0  0  0  0  0  0  0  0  0
    6.7692   -4.9770   -0.1795 H   0  0  0  0  0  0  0  0  0  0  0  0
    5.2280   -4.9992    0.7276 H   0  0  0  0  0  0  0  0  0  0  0  0
    2.3940   -2.1000    0.6433 H   0  0  0  0  0  0  0  0  0  0  0  0
    2.4387    1.9778   -0.6864 H   0  0  0  0  0  0  0  0  0  0  0  0
   10.8695   -0.2732    0.6975 H   0  0  0  0  0  0  0  0  0  0  0  0
   12.3277   -0.3622   -0.2553 H   0  0  0  0  0  0  0  0  0  0  0  0
    9.8015    0.8671   -1.5053 H   0  0  0  0  0  0  0  0  0  0  0  0
   11.0878    1.7838   -0.7249 H   0  0  0  0  0  0  0  0  0  0  0  0
   11.3731    0.7770   -2.1811 H   0  0  0  0  0  0  0  0  0  0  0  0
  1 20  1  0  0  0  0
  2 13  2  0  0  0  0
  3 19  1  0  0  0  0
  3 21  1  0  0  0  0
  4 19  2  0  0  0  0
  5  8  1  0  0  0  0
  5 10  1  0  0  0  0
  5 14  1  0  0  0  0
  6  9  1  0  0  0  0
  6 13  1  0  0  0  0
  6 16  1  0  0  0  0
  7 12  1  0  0  0  0
  7 14  2  0  0  0  0
  8  9  1  0  0  0  0
  8 12  2  0  0  0  0
  9 23  1  0  0  0  0
  9 24  1  0  0  0  0
 10 11  2  0  0  0  0
 10 15  1  0  0  0  0
 11 13  1  0  0  0  0
 11 17  1  0  0  0  0
 12 19  1  0  0  0  0
 14 25  1  0  0  0  0
 15 18  2  0  0  0  0
 15 26  1  0  0  0  0
 16 27  1  0  0  0  0
 16 28  1  0  0  0  0
 16 29  1  0  0  0  0
 17 20  2  0  0  0  0
 17 30  1  0  0  0  0
 18 20  1  0  0  0  0
 18 31  1  0  0  0  0
 21 22  1  0  0  0  0
 21 32  1  0  0  0  0
 21 33  1  0  0  0  0
 22 34  1  0  0  0  0
 22 35  1  0  0  0  0
 22 36  1  0  0  0  0
M  END
>  <DRUGBANK_ID>
DB01205

>  <SECONDARY_ACCESSION_NUMBERS>
APRD00974

>  <COMMON_NAME>
Flumazenil

>  <CAS_NUMBER>
78755-81-4

>  <UNII>
40P7XK9392

>  <SYNONYMS>
Flumazenil; Flumazenilo; Flumazenilum; Flumazepil

$$$$
