GB5
 OpenBabel10282417163D

 21 21  0  0  0  0  0  0  0  0999 V2000
    1.1026    0.0344    0.0725 O   0  0  0  0  0  0  0  0  0  0  0  0
    2.3327    0.0590    0.0572 C   0  0  0  0  0  0  0  0  0  0  0  0
    3.0439    0.9216   -0.7224 N   0  0  0  0  0  0  0  0  0  0  0  0
    2.3262    1.8221   -1.5372 O   0  0  0  0  0  0  0  0  0  0  0  0
    3.1136   -0.8782    0.9057 C   0  0  0  0  0  0  0  0  0  0  0  0
    4.4536   -0.9585    0.9838 C   0  0  0  0  0  0  0  0  0  0  0  0
    5.1174   -1.9375    1.8552 C   0  0  0  0  0  0  0  0  0  0  0  0
    4.7152   -3.2796    1.8499 C   0  0  0  0  0  0  0  0  0  0  0  0
    5.2922   -4.1984    2.7276 C   0  0  0  0  0  0  0  0  0  0  0  0
    6.2954   -3.7852    3.5990 C   0  0  0  0  0  0  0  0  0  0  0  0
    6.9658   -4.9079    4.7162 Cl  0  0  0  0  0  0  0  0  0  0  0  0
    6.7499   -2.4678    3.5748 C   0  0  0  0  0  0  0  0  0  0  0  0
    6.1676   -1.5452    2.6967 C   0  0  0  0  0  0  0  0  0  0  0  0
    4.0510    0.9748   -0.7749 H   0  0  0  0  0  0  0  0  0  0  0  0
    1.3924    1.5989   -1.3343 H   0  0  0  0  0  0  0  0  0  0  0  0
    2.4796   -1.5330    1.5009 H   0  0  0  0  0  0  0  0  0  0  0  0
    5.1170   -0.3083    0.4264 H   0  0  0  0  0  0  0  0  0  0  0  0
    3.9386   -3.6204    1.1686 H   0  0  0  0  0  0  0  0  0  0  0  0
    4.9439   -5.2273    2.7311 H   0  0  0  0  0  0  0  0  0  0  0  0
    7.5441   -2.1513    4.2465 H   0  0  0  0  0  0  0  0  0  0  0  0
    6.5266   -0.5179    2.7015 H   0  0  0  0  0  0  0  0  0  0  0  0
  1  2  2  0  0  0  0
  2  5  1  0  0  0  0
  2  3  1  0  0  0  0
  3  4  1  0  0  0  0
  3 14  1  0  0  0  0
  4 15  1  0  0  0  0
  5  6  2  0  0  0  0
  5 16  1  0  0  0  0
  6  7  1  0  0  0  0
  6 17  1  0  0  0  0
  7 13  1  0  0  0  0
  7  8  2  0  0  0  0
  8  9  1  0  0  0  0
  8 18  1  0  0  0  0
  9 10  2  0  0  0  0
  9 19  1  0  0  0  0
 10 12  1  0  0  0  0
 10 11  1  0  0  0  0
 12 13  2  0  0  0  0
 12 20  1  0  0  0  0
 13 21  1  0  0  0  0
M  END
>  <DRUGBANK_ID>
DB07819

>  <COMMON_NAME>
(2E)-3-(4-CHLOROPHENYL)-N-HYDROXYACRYLAMIDE

$$$$
