
 OpenBabel10282417133D

 50 49  0  0  0  0  0  0  0  0999 V2000
    1.1196    0.0097    0.0000 C   0  0  0  0  0  0  0  0  0  0  0  0
   -1.4909   -0.1862    3.9005 C   0  0  0  0  0  0  0  0  0  0  0  0
    0.6474   -0.9559    1.0845 C   0  0  0  0  0  0  0  0  0  0  0  0
   -0.9300    0.7964    2.8857 C   0  0  0  0  0  0  0  0  0  0  0  0
    1.1536   -0.5683    2.4752 C   0  0  0  0  0  0  0  0  0  0  0  0
    0.5981    0.7517    3.0082 C   0  0  0  0  0  0  0  0  0  0  0  0
    1.1470    2.4214   -0.8615 C   0  0  0  0  0  0  0  0  0  0  0  0
   -1.4764    1.6449    5.6151 C   0  0  0  0  0  0  0  0  0  0  0  0
    0.6609    1.4551    0.1789 C   0  0  0  0  0  0  0  0  0  0  0  0
   -1.0072    0.2193    5.2946 C   0  0  0  0  0  0  0  0  0  0  0  0
   -1.0062    2.1168   -2.1464 C   0  0  0  0  0  0  0  0  0  0  0  0
   -3.5653    0.7005    6.6517 C   0  0  0  0  0  0  0  0  0  0  0  0
    0.5244    2.1074   -2.1970 C   0  0  0  0  0  0  0  0  0  0  0  0
   -3.0060    1.6956    5.6346 C   0  0  0  0  0  0  0  0  0  0  0  0
   -1.5588    3.4635   -1.7044 C   0  0  0  0  0  0  0  0  0  0  0  0
   -3.0513    1.0298    8.0439 C   0  0  0  0  0  0  0  0  0  0  0  0
   -2.3011    4.0790   -2.6509 O   0  0  0  0  0  0  0  0  0  0  0  0
   -1.3803    3.9629   -0.6140 O   0  0  0  0  0  0  0  0  0  0  0  0
    0.7598   -0.3839   -0.9547 H   0  0  0  0  0  0  0  0  0  0  0  0
    2.2133   -0.0075   -0.0267 H   0  0  0  0  0  0  0  0  0  0  0  0
   -2.5815   -0.2199    3.8262 H   0  0  0  0  0  0  0  0  0  0  0  0
   -1.1729   -1.2073    3.6691 H   0  0  0  0  0  0  0  0  0  0  0  0
   -0.4451   -1.0551    1.0549 H   0  0  0  0  0  0  0  0  0  0  0  0
    1.0133   -1.9622    0.8473 H   0  0  0  0  0  0  0  0  0  0  0  0
   -1.2977    1.8193    3.0221 H   0  0  0  0  0  0  0  0  0  0  0  0
   -1.3255    0.5365    1.9009 H   0  0  0  0  0  0  0  0  0  0  0  0
    0.8852   -1.3704    3.1738 H   0  0  0  0  0  0  0  0  0  0  0  0
    2.2460   -0.5305    2.4759 H   0  0  0  0  0  0  0  0  0  0  0  0
    0.9638    0.9043    4.0204 H   0  0  0  0  0  0  0  0  0  0  0  0
    1.0624    1.6431    2.6191 H   0  0  0  0  0  0  0  0  0  0  0  0
    0.8994    3.4375   -0.5282 H   0  0  0  0  0  0  0  0  0  0  0  0
    2.2412    2.3927   -0.8864 H   0  0  0  0  0  0  0  0  0  0  0  0
   -1.0430    1.9702    6.5633 H   0  0  0  0  0  0  0  0  0  0  0  0
   -1.0940    2.3860    4.9037 H   0  0  0  0  0  0  0  0  0  0  0  0
   -0.4202    1.5145    0.3307 H   0  0  0  0  0  0  0  0  0  0  0  0
    1.1339    1.9152    1.0190 H   0  0  0  0  0  0  0  0  0  0  0  0
   -1.3338   -0.5190    6.0259 H   0  0  0  0  0  0  0  0  0  0  0  0
    0.0779    0.1614    5.4020 H   0  0  0  0  0  0  0  0  0  0  0  0
   -1.3887    1.8317   -3.1284 H   0  0  0  0  0  0  0  0  0  0  0  0
   -1.4096    1.3598   -1.4621 H   0  0  0  0  0  0  0  0  0  0  0  0
   -4.6569    0.7223    6.6278 H   0  0  0  0  0  0  0  0  0  0  0  0
   -3.2934   -0.3301    6.3933 H   0  0  0  0  0  0  0  0  0  0  0  0
    0.9014    2.8271   -2.9253 H   0  0  0  0  0  0  0  0  0  0  0  0
    0.8730    1.1174   -2.5131 H   0  0  0  0  0  0  0  0  0  0  0  0
   -3.3394    2.7116    5.8634 H   0  0  0  0  0  0  0  0  0  0  0  0
   -3.4179    1.4753    4.6416 H   0  0  0  0  0  0  0  0  0  0  0  0
   -3.3546    2.0444    8.3168 H   0  0  0  0  0  0  0  0  0  0  0  0
   -3.4383    0.3224    8.7768 H   0  0  0  0  0  0  0  0  0  0  0  0
   -1.9589    0.9789    8.1067 H   0  0  0  0  0  0  0  0  0  0  0  0
   -2.4167    3.5698   -3.4708 H   0  0  0  0  0  0  0  0  0  0  0  0
  1  9  1  0  0  0  0
  1 19  1  0  0  0  0
  1 20  1  0  0  0  0
  2 10  1  0  0  0  0
  2 21  1  0  0  0  0
  2 22  1  0  0  0  0
  3  1  1  0  0  0  0
  3 23  1  0  0  0  0
  3 24  1  0  0  0  0
  4  2  1  0  0  0  0
  4 25  1  0  0  0  0
  4 26  1  0  0  0  0
  5  3  1  0  0  0  0
  5 27  1  0  0  0  0
  5 28  1  0  0  0  0
  6  4  1  0  0  0  0
  6  5  1  0  0  0  0
  6 29  1  0  0  0  0
  6 30  1  0  0  0  0
  7 13  1  0  0  0  0
  7 31  1  0  0  0  0
  7 32  1  0  0  0  0
  8 14  1  0  0  0  0
  8 33  1  0  0  0  0
  8 34  1  0  0  0  0
  9  7  1  0  0  0  0
  9 35  1  0  0  0  0
  9 36  1  0  0  0  0
 10  8  1  0  0  0  0
 10 37  1  0  0  0  0
 10 38  1  0  0  0  0
 11 15  1  0  0  0  0
 11 39  1  0  0  0  0
 11 40  1  0  0  0  0
 12 16  1  0  0  0  0
 12 41  1  0  0  0  0
 12 42  1  0  0  0  0
 13 11  1  0  0  0  0
 13 43  1  0  0  0  0
 13 44  1  0  0  0  0
 14 12  1  0  0  0  0
 14 45  1  0  0  0  0
 14 46  1  0  0  0  0
 15 17  1  0  0  0  0
 15 18  2  0  0  0  0
 16 47  1  0  0  0  0
 16 48  1  0  0  0  0
 16 49  1  0  0  0  0
 17 50  1  0  0  0  0
M  END
>  <DRUGBANK_ID>
DB03796

>  <SECONDARY_ACCESSION_NUMBERS>
EXPT01393; EXPT02607

>  <COMMON_NAME>
Palmitic Acid

>  <CAS_NUMBER>
57-10-3

>  <UNII>
2V16EO95H1

>  <SYNONYMS>
1-hexyldecanoic acid; 1-Pentadecanecarboxylic acid; Hexadecanoate; Hexadecanoic acid; Hexadecoic acid; Hexadecylic acid; Hexaectylic acid; Palmitate; Palmitic Acid; Palmitinic acid; Palmitins√§ure

$$$$
