
 OpenBabel10282417193D

126131  0  0  1  0  0  0  0  0999 V2000
    0.0288    1.2209   -3.4046 C   0  0  0  0  0  0  0  0  0  0  0  0
   -0.5690    0.5720   -2.1529 C   0  0  0  0  0  0  0  0  0  0  0  0
   -2.0184    0.6863   -1.9307 C   0  0  0  0  0  0  0  0  0  0  0  0
    0.2443   -0.2899   -1.1936 C   0  0  0  0  0  0  0  0  0  0  0  0
    1.3993    0.5448   -0.9897 C   0  0  1  0  0  0  0  0  0  0  0  0
    0.8074    1.7146   -0.1178 C   0  0  0  0  0  0  0  0  0  0  0  0
    1.3321    1.7496    0.9813 O   0  0  0  0  0  0  0  0  0  0  0  0
   -0.1600    2.7416   -0.5906 N   0  0  0  0  0  0  0  0  0  0  0  0
   -0.5547    3.9594    0.1976 C   0  0  2  0  0  0  0  0  0  0  0  0
   -1.5863    5.4466   -0.8779 C   0  0  0  0  0  0  0  0  0  0  0  0
   -2.7729    5.2961   -1.1099 O   0  0  0  0  0  0  0  0  0  0  0  0
   -0.7793    7.0778   -0.7942 N   0  0  0  0  0  0  0  0  0  0  0  0
    0.7262    7.4466   -1.3183 C   0  0  1  0  0  0  0  0  0  0  0  0
    0.5814    7.0802   -2.7338 C   0  0  0  0  0  0  0  0  0  0  0  0
    0.7442    5.4363   -3.0787 C   0  0  0  0  0  0  0  0  0  0  0  0
    0.7797    5.0120   -4.2296 O   0  0  0  0  0  0  0  0  0  0  0  0
    1.2143    4.2335   -2.1989 N   0  0  0  0  0  0  0  0  0  0  0  0
    2.5435    3.7624   -0.7551 C   0  0  0  0  0  0  0  0  0  0  0  0
    4.4354    2.6355   -1.1335 C   0  0  1  0  0  0  0  0  0  0  0  0
    4.2717    0.7087   -1.2801 C   0  0  0  0  0  0  0  0  0  0  0  0
    4.8040    0.0921   -2.1994 O   0  0  0  0  0  0  0  0  0  0  0  0
    2.8946    0.0934   -0.6064 N   0  0  0  0  0  0  0  0  0  0  0  0
    5.7922    3.0025   -1.7501 N   0  0  0  0  0  0  0  0  0  0  0  0
    6.6077    4.0555   -1.3371 C   0  0  0  0  0  0  0  0  0  0  0  0
    7.7193    3.9938   -0.8372 O   0  0  0  0  0  0  0  0  0  0  0  0
    6.0770    5.3239   -1.9220 C   0  0  1  0  0  0  0  0  0  0  0  0
    5.9535    6.5742   -1.2250 N   0  0  0  0  0  0  0  0  0  0  0  0
    5.0034    7.4847   -1.7797 C   0  0  0  0  0  0  0  0  0  0  0  0
    4.6305    7.6400   -2.9496 O   0  0  0  0  0  0  0  0  0  0  0  0
    3.9004    7.7197   -0.8552 C   0  0  1  0  0  0  0  0  0  0  0  0
    2.8613    8.7350   -1.2239 N   0  0  0  0  0  0  0  0  0  0  0  0
    1.4983    8.6509   -0.9553 C   0  0  0  0  0  0  0  0  0  0  0  0
    0.7904    9.5890   -0.6354 O   0  0  0  0  0  0  0  0  0  0  0  0
    3.2577    6.4244   -1.0818 C   0  0  0  0  0  0  0  0  0  0  0  0
    3.7158    5.0884   -1.1605 C   0  0  0  0  0  0  0  0  0  0  0  0
    3.2907    3.6998   -2.3547 C   0  0  0  0  0  0  0  0  0  0  0  0
    2.7645    2.2378   -1.2412 N   0  0  0  0  0  0  0  0  0  0  0  0
    3.4653    2.5680    0.5253 C   0  0  0  0  0  0  0  0  0  0  0  0
    4.0064    4.2602    0.5713 C   0  0  0  0  0  0  0  0  0  0  0  0
    4.7120    4.7225    1.6468 C   0  0  0  0  0  0  0  0  0  0  0  0
    5.0501    3.7711    2.6024 C   0  0  0  0  0  0  0  0  0  0  0  0
    4.8497    2.3718    2.5089 C   0  0  0  0  0  0  0  0  0  0  0  0
    4.1364    1.7396    1.4952 C   0  0  0  0  0  0  0  0  0  0  0  0
    6.4360    5.6489   -3.2992 C   0  0  0  0  0  0  0  0  0  0  0  0
    5.9971    4.7232   -4.3484 C   0  0  0  0  0  0  0  0  0  0  0  0
    4.6810    4.3272   -4.5479 C   0  0  0  0  0  0  0  0  0  0  0  0
    4.2570    3.5896   -5.6187 C   0  0  0  0  0  0  0  0  0  0  0  0
    5.1825    3.3963   -6.6068 C   0  0  0  0  0  0  0  0  0  0  0  0
    6.4615    3.9432   -6.4907 C   0  0  0  0  0  0  0  0  0  0  0  0
    6.9085    4.4908   -5.3154 C   0  0  0  0  0  0  0  0  0  0  0  0
    0.6123    5.0313    1.5122 C   0  0  0  0  0  0  0  0  0  0  0  0
    1.6681    4.5877    2.2858 C   0  0  0  0  0  0  0  0  0  0  0  0
    2.5514    5.4213    2.4208 O   0  0  0  0  0  0  0  0  0  0  0  0
    1.3242    3.4397    2.8744 N   0  0  0  0  0  0  0  0  0  0  0  0
    0.0047    2.7134    2.8890 C   0  0  1  0  0  0  0  0  0  0  0  0
   -1.1596    3.0359    1.9599 C   0  0  1  0  0  0  0  0  0  0  0  0
   -2.2675    2.1801    1.4901 C   0  0  2  0  0  0  0  0  0  0  0  0
   -1.8355    0.7333    1.5212 C   0  0  1  0  0  0  0  0  0  0  0  0
   -0.8419    0.4335    2.6335 C   0  0  2  0  0  0  0  0  0  0  0  0
    0.2814    1.3224    2.8349 O   0  0  0  0  0  0  0  0  0  0  0  0
   -0.2251   -0.9710    2.4853 C   0  0  0  0  0  0  0  0  0  0  0  0
   -0.3145   -1.7212    1.2807 O   0  0  0  0  0  0  0  0  0  0  0  0
   -3.0285    0.0068    1.6913 O   0  0  0  0  0  0  0  0  0  0  0  0
   -2.8309    2.5697    0.2155 O   0  0  0  0  0  0  0  0  0  0  0  0
   -1.6384    4.5639    1.7869 N   0  0  0  0  0  0  0  0  0  0  0  0
   -1.1737    5.7176    0.9922 C   0  0  0  0  0  0  0  0  0  0  0  0
   -1.6691    6.8035    1.2593 O   0  0  0  0  0  0  0  0  0  0  0  0
    0.2875    5.3904   -0.4447 C   0  0  0  0  0  0  0  0  0  0  0  0
   -0.0240    0.3868   -4.0564 H   0  0  0  0  0  0  0  0  0  0  0  0
    1.0764    1.5865   -3.4140 H   0  0  0  0  0  0  0  0  0  0  0  0
   -0.4914    2.1480   -3.6781 H   0  0  0  0  0  0  0  0  0  0  0  0
   -0.3952    1.4236   -1.6854 H   0  0  0  0  0  0  0  0  0  0  0  0
   -2.3435   -0.1913   -2.4195 H   0  0  0  0  0  0  0  0  0  0  0  0
   -2.3116    0.6202   -0.8918 H   0  0  0  0  0  0  0  0  0  0  0  0
   -2.4119    1.6438   -2.3039 H   0  0  0  0  0  0  0  0  0  0  0  0
   -0.0457   -0.3496   -0.1637 H   0  0  0  0  0  0  0  0  0  0  0  0
    0.3772   -1.2259   -1.6581 H   0  0  0  0  0  0  0  0  0  0  0  0
    1.5018    0.9402   -1.9619 H   0  0  0  0  0  0  0  0  0  0  0  0
   -0.5122    2.8650   -1.5319 H   0  0  0  0  0  0  0  0  0  0  0  0
    0.4533    3.6436    0.3891 H   0  0  0  0  0  0  0  0  0  0  0  0
   -0.5376    7.3609    0.1998 H   0  0  0  0  0  0  0  0  0  0  0  0
    1.4071    6.8669   -0.7329 H   0  0  0  0  0  0  0  0  0  0  0  0
    0.0617    8.0439   -2.9369 H   0  0  0  0  0  0  0  0  0  0  0  0
    1.0829    7.3255   -3.6390 H   0  0  0  0  0  0  0  0  0  0  0  0
    0.1824    3.9043   -2.5335 H   0  0  0  0  0  0  0  0  0  0  0  0
    3.9697    3.5878   -0.8705 H   0  0  0  0  0  0  0  0  0  0  0  0
    2.0362    3.5996    0.2140 H   0  0  0  0  0  0  0  0  0  0  0  0
    5.1282    2.2673   -0.2950 H   0  0  0  0  0  0  0  0  0  0  0  0
    2.8536    0.3187    0.3907 H   0  0  0  0  0  0  0  0  0  0  0  0
    6.1310    2.3883   -2.4715 H   0  0  0  0  0  0  0  0  0  0  0  0
    5.1490    4.9263   -2.1868 H   0  0  0  0  0  0  0  0  0  0  0  0
    6.6123    6.7509   -0.4729 H   0  0  0  0  0  0  0  0  0  0  0  0
    4.2451    7.8335    0.1652 H   0  0  0  0  0  0  0  0  0  0  0  0
    2.9827    9.0540   -2.1833 H   0  0  0  0  0  0  0  0  0  0  0  0
    2.8229    6.3944   -0.0822 H   0  0  0  0  0  0  0  0  0  0  0  0
    2.7050    6.3976   -2.0207 H   0  0  0  0  0  0  0  0  0  0  0  0
    2.5585    3.5438   -3.1478 H   0  0  0  0  0  0  0  0  0  0  0  0
    2.8538    1.3864   -1.7369 H   0  0  0  0  0  0  0  0  0  0  0  0
    4.8267    5.7916    1.7118 H   0  0  0  0  0  0  0  0  0  0  0  0
    5.5332    4.1641    3.4831 H   0  0  0  0  0  0  0  0  0  0  0  0
    5.2785    1.7222    3.2683 H   0  0  0  0  0  0  0  0  0  0  0  0
    4.2673    0.6621    1.3808 H   0  0  0  0  0  0  0  0  0  0  0  0
    5.9149    6.5108   -3.6606 H   0  0  0  0  0  0  0  0  0  0  0  0
    7.4371    6.0265   -3.2748 H   0  0  0  0  0  0  0  0  0  0  0  0
    3.9396    4.6693   -3.8735 H   0  0  0  0  0  0  0  0  0  0  0  0
    3.2241    3.2696   -5.6964 H   0  0  0  0  0  0  0  0  0  0  0  0
    4.9167    2.8349   -7.4860 H   0  0  0  0  0  0  0  0  0  0  0  0
    7.1201    3.9569   -7.3382 H   0  0  0  0  0  0  0  0  0  0  0  0
    7.9214    4.8181   -5.1372 H   0  0  0  0  0  0  0  0  0  0  0  0
    1.0503    6.0152    1.0794 H   0  0  0  0  0  0  0  0  0  0  0  0
    0.1098    5.5520    2.3316 H   0  0  0  0  0  0  0  0  0  0  0  0
    2.1292    3.0436    3.3187 H   0  0  0  0  0  0  0  0  0  0  0  0
   -0.4632    2.9349    3.8053 H   0  0  0  0  0  0  0  0  0  0  0  0
   -0.6594    2.4792    1.2030 H   0  0  0  0  0  0  0  0  0  0  0  0
   -2.9644    2.4595    2.2377 H   0  0  0  0  0  0  0  0  0  0  0  0
   -1.3883    0.4268    0.5978 H   0  0  0  0  0  0  0  0  0  0  0  0
   -1.3566    0.5665    3.5718 H   0  0  0  0  0  0  0  0  0  0  0  0
    0.8201   -0.7030    2.4916 H   0  0  0  0  0  0  0  0  0  0  0  0
   -0.3651   -1.6244    3.3430 H   0  0  0  0  0  0  0  0  0  0  0  0
   -1.0579   -2.3442    1.2672 H   0  0  0  0  0  0  0  0  0  0  0  0
   -3.4527    0.4532    2.4453 H   0  0  0  0  0  0  0  0  0  0  0  0
   -2.1924    2.4831   -0.5171 H   0  0  0  0  0  0  0  0  0  0  0  0
   -1.9594    4.9880    2.6168 H   0  0  0  0  0  0  0  0  0  0  0  0
    1.2235    4.9747   -0.2269 H   0  0  0  0  0  0  0  0  0  0  0  0
   -0.2076    4.6523   -1.2665 H   0  0  0  0  0  0  0  0  0  0  0  0
    0.6480    5.7177   -1.3053 H   0  0  0  0  0  0  0  0  0  0  0  0
  1  2  1  0  0  0  0
  1 69  1  0  0  0  0
  1 70  1  0  0  0  0
  1 71  1  0  0  0  0
  2  3  1  0  0  0  0
  2  4  1  0  0  0  0
  2 72  1  0  0  0  0
  3 73  1  0  0  0  0
  3 74  1  0  0  0  0
  3 75  1  0  0  0  0
  4 76  1  0  0  0  0
  4 77  1  0  0  0  0
  5  6  1  0  0  0  0
  5 22  1  0  0  0  0
  5 78  1  6  0  0  0
  5  4  1  0  0  0  0
  6  8  1  0  0  0  0
  6  7  2  0  0  0  0
  8  9  1  0  0  0  0
  8 79  1  0  0  0  0
  9 10  1  0  0  0  0
  9 51  1  0  0  0  0
  9 80  1  1  0  0  0
 10 12  1  0  0  0  0
 10 11  2  0  0  0  0
 12 81  1  0  0  0  0
 13 12  1  0  0  0  0
 13 14  1  0  0  0  0
 13 32  1  0  0  0  0
 13 82  1  1  0  0  0
 14 15  1  0  0  0  0
 14 83  1  0  0  0  0
 14 84  1  0  0  0  0
 15 17  1  0  0  0  0
 15 16  2  0  0  0  0
 17 18  1  0  0  0  0
 17 85  1  0  0  0  0
 18 19  1  0  0  0  0
 18 86  1  0  0  0  0
 18 87  1  0  0  0  0
 19 20  1  0  0  0  0
 19 23  1  0  0  0  0
 19 88  1  1  0  0  0
 20 22  1  0  0  0  0
 20 21  2  0  0  0  0
 22 89  1  0  0  0  0
 23 24  1  0  0  0  0
 23 90  1  0  0  0  0
 24 26  1  0  0  0  0
 24 25  2  0  0  0  0
 26 27  1  0  0  0  0
 26 44  1  0  0  0  0
 26 91  1  6  0  0  0
 27 28  1  0  0  0  0
 27 92  1  0  0  0  0
 28 30  1  0  0  0  0
 28 29  2  0  0  0  0
 30 31  1  0  0  0  0
 30 93  1  1  0  0  0
 30 34  1  0  0  0  0
 31 32  1  0  0  0  0
 31 94  1  0  0  0  0
 32 33  2  0  0  0  0
 34 35  1  0  0  0  0
 34 95  1  0  0  0  0
 34 96  1  0  0  0  0
 35 36  2  0  0  0  0
 35 39  1  0  0  0  0
 36 37  1  0  0  0  0
 36 97  1  0  0  0  0
 37 38  1  0  0  0  0
 37 98  1  0  0  0  0
 38 39  1  0  0  0  0
 38 43  2  0  0  0  0
 39 40  2  0  0  0  0
 40 41  1  0  0  0  0
 40 99  1  0  0  0  0
 41 42  2  0  0  0  0
 41100  1  0  0  0  0
 42 43  1  0  0  0  0
 42101  1  0  0  0  0
 43102  1  0  0  0  0
 44 45  1  0  0  0  0
 44103  1  0  0  0  0
 44104  1  0  0  0  0
 45 46  2  0  0  0  0
 45 50  1  0  0  0  0
 46 47  1  0  0  0  0
 46105  1  0  0  0  0
 47 48  2  0  0  0  0
 47106  1  0  0  0  0
 48 49  1  0  0  0  0
 48107  1  0  0  0  0
 49 50  2  0  0  0  0
 49108  1  0  0  0  0
 50109  1  0  0  0  0
 51 52  1  0  0  0  0
 51110  1  0  0  0  0
 51111  1  0  0  0  0
 52 53  2  0  0  0  0
 52 54  1  0  0  0  0
 54112  1  0  0  0  0
 55 54  1  0  0  0  0
 55 56  1  0  0  0  0
 55 60  1  0  0  0  0
 55113  1  1  0  0  0
 56 57  1  0  0  0  0
 56 65  1  0  0  0  0
 56114  1  6  0  0  0
 57 58  1  0  0  0  0
 57 64  1  0  0  0  0
 57115  1  1  0  0  0
 58 59  1  0  0  0  0
 58 63  1  0  0  0  0
 58116  1  6  0  0  0
 59 60  1  0  0  0  0
 59117  1  1  0  0  0
 59 61  1  0  0  0  0
 61 62  1  0  0  0  0
 61118  1  0  0  0  0
 61119  1  0  0  0  0
 62120  1  0  0  0  0
 63121  1  0  0  0  0
 64122  1  0  0  0  0
 65 66  1  0  0  0  0
 65123  1  0  0  0  0
 66 67  2  0  0  0  0
 66 68  1  0  0  0  0
 68124  1  0  0  0  0
 68125  1  0  0  0  0
 68126  1  0  0  0  0
M  END
>  <DRUGBANK_ID>
DB12538

>  <COMMON_NAME>
Nepadutant

>  <CAS_NUMBER>
183747-35-5

>  <UNII>
XW59TYL1XH

>  <SYNONYMS>
Nepadutant

$$$$
