
 OpenBabel10282417213D

 22 21  0  0  0  0  0  0  0  0999 V2000
    0.9598    0.0100   -0.0864 C   0  0  0  0  0  0  0  0  0  0  0  0
    0.5125   -0.8065    1.1177 C   0  0  0  0  0  0  0  0  0  0  0  0
    0.9706   -0.1903    2.4429 C   0  0  0  0  0  0  0  0  0  0  0  0
    0.4340    1.2278    2.6774 C   0  0  0  0  0  0  0  0  0  0  0  0
   -1.1005    1.3101    2.6597 C   0  0  3  0  0  0  0  0  0  0  0  0
   -1.6297    0.5528    3.7455 O   0  0  0  0  0  0  0  0  0  0  0  0
   -1.6009    2.7539    2.7677 C   0  0  0  0  0  0  0  0  0  0  0  0
   -1.1927    3.5396    1.6542 O   0  0  0  0  0  0  0  0  0  0  0  0
    0.5508    1.0250   -0.0672 H   0  0  0  0  0  0  0  0  0  0  0  0
    0.6182   -0.4582   -1.0133 H   0  0  0  0  0  0  0  0  0  0  0  0
    2.0514    0.0824   -0.1156 H   0  0  0  0  0  0  0  0  0  0  0  0
   -0.5773   -0.9168    1.1010 H   0  0  0  0  0  0  0  0  0  0  0  0
    0.9175   -1.8210    1.0365 H   0  0  0  0  0  0  0  0  0  0  0  0
    0.6701   -0.8436    3.2702 H   0  0  0  0  0  0  0  0  0  0  0  0
    2.0670   -0.1586    2.4654 H   0  0  0  0  0  0  0  0  0  0  0  0
    0.8064    1.5785    3.6479 H   0  0  0  0  0  0  0  0  0  0  0  0
    0.8673    1.8935    1.9246 H   0  0  0  0  0  0  0  0  0  0  0  0
   -1.4973    0.9000    1.7255 H   0  0  0  0  0  0  0  0  0  0  0  0
   -1.3921   -0.3817    3.5984 H   0  0  0  0  0  0  0  0  0  0  0  0
   -2.6965    2.7586    2.7947 H   0  0  0  0  0  0  0  0  0  0  0  0
   -1.2586    3.2253    3.6946 H   0  0  0  0  0  0  0  0  0  0  0  0
   -0.2237    3.6390    1.6989 H   0  0  0  0  0  0  0  0  0  0  0  0
  1  2  1  0  0  0  0
  1  9  1  0  0  0  0
  1 10  1  0  0  0  0
  1 11  1  0  0  0  0
  2  3  1  0  0  0  0
  2 12  1  0  0  0  0
  2 13  1  0  0  0  0
  3  4  1  0  0  0  0
  3 14  1  0  0  0  0
  3 15  1  0  0  0  0
  4  5  1  0  0  0  0
  4 16  1  0  0  0  0
  4 17  1  0  0  0  0
  5  6  1  0  0  0  0
  5  7  1  0  0  0  0
  5 18  1  0  0  0  0
  6 19  1  0  0  0  0
  7  8  1  0  0  0  0
  7 20  1  0  0  0  0
  7 21  1  0  0  0  0
  8 22  1  0  0  0  0
M  END
>  <DRUGBANK_ID>
DB14108

>  <COMMON_NAME>
1,2-Hexanediol

>  <CAS_NUMBER>
6920-22-5

>  <UNII>
TR046Y3K1G

>  <SYNONYMS>
1,2-Dihydroxyhexane; 5,6-Dihydroxyhexane; DL-1,2-Hexanediol; DL-Hexane-1,2-diol

$$$$
