
 OpenBabel10282417203D

 46 48  0  0  1  0  0  0  0  0999 V2000
    2.0235    0.4446    0.4684 C   0  0  0  0  0  0  0  0  0  0  0  0
    0.9541    0.2027   -0.6069 C   0  0  2  0  0  0  0  0  0  0  0  0
    0.0023    1.3860   -0.7230 C   0  0  0  0  0  0  0  0  0  0  0  0
   -1.1416    1.0425    0.2055 C   0  0  0  0  0  0  0  0  0  0  0  0
   -1.3030   -0.4374   -0.0691 C   0  0  0  0  0  0  0  0  0  0  0  0
    0.0635   -0.9116   -0.3074 N   0  0  0  0  0  0  0  0  0  0  0  0
    0.6503   -1.8510    0.6244 C   0  0  0  0  0  0  0  0  0  0  0  0
    0.5744   -1.5939    2.1677 C   0  0  0  0  0  0  0  0  0  0  0  0
   -0.7599   -1.1709    2.8060 C   0  0  0  0  0  0  0  0  0  0  0  0
   -1.8043   -2.1656    2.9866 O   0  0  0  0  0  0  0  0  0  0  0  0
   -2.1240   -2.9921    1.9397 C   0  0  0  0  0  0  0  0  0  0  0  0
   -1.1881   -3.8281    1.3568 C   0  0  0  0  0  0  0  0  0  0  0  0
   -1.3771   -4.3450    0.0608 C   0  0  0  0  0  0  0  0  0  0  0  0
   -2.6461   -4.3831   -0.4745 C   0  0  0  0  0  0  0  0  0  0  0  0
   -3.6849   -3.8417    0.2861 C   0  0  0  0  0  0  0  0  0  0  0  0
   -3.4174   -3.0655    1.4368 C   0  0  0  0  0  0  0  0  0  0  0  0
   -2.9180   -5.0246   -1.7898 C   0  0  0  0  0  0  0  0  0  0  0  0
   -2.2200   -6.3090   -2.0617 C   0  0  0  0  0  0  0  0  0  0  0  0
   -2.5643   -6.9690   -3.1684 C   0  0  0  0  0  0  0  0  0  0  0  0
   -3.5539   -6.3968   -4.1077 C   0  0  0  0  0  0  0  0  0  0  0  0
   -3.8818   -6.9940   -5.1097 O   0  0  0  0  0  0  0  0  0  0  0  0
   -4.0531   -5.1634   -3.7535 N   0  0  0  0  0  0  0  0  0  0  0  0
   -3.7785   -4.4833   -2.6002 N   0  0  0  0  0  0  0  0  0  0  0  0
    1.5491    0.8065    1.3855 H   0  0  0  0  0  0  0  0  0  0  0  0
    2.6085   -0.4540    0.7048 H   0  0  0  0  0  0  0  0  0  0  0  0
    2.7644    1.1767    0.1666 H   0  0  0  0  0  0  0  0  0  0  0  0
    1.4581   -0.0145   -1.5547 H   0  0  0  0  0  0  0  0  0  0  0  0
    0.4819    2.3215   -0.4383 H   0  0  0  0  0  0  0  0  0  0  0  0
   -0.3942    1.4537   -1.7402 H   0  0  0  0  0  0  0  0  0  0  0  0
   -0.8292    1.2672    1.2322 H   0  0  0  0  0  0  0  0  0  0  0  0
   -2.0653    1.5972    0.0279 H   0  0  0  0  0  0  0  0  0  0  0  0
   -1.8616   -0.9310    0.7117 H   0  0  0  0  0  0  0  0  0  0  0  0
   -1.9487   -0.6045   -0.9399 H   0  0  0  0  0  0  0  0  0  0  0  0
    0.2725   -2.7765    0.2576 H   0  0  0  0  0  0  0  0  0  0  0  0
    1.6903   -2.1029    0.3673 H   0  0  0  0  0  0  0  0  0  0  0  0
    0.9589   -2.4646    2.7084 H   0  0  0  0  0  0  0  0  0  0  0  0
    1.3048   -0.8275    2.4387 H   0  0  0  0  0  0  0  0  0  0  0  0
   -0.5254   -0.7528    3.7978 H   0  0  0  0  0  0  0  0  0  0  0  0
   -1.1825   -0.2765    2.3561 H   0  0  0  0  0  0  0  0  0  0  0  0
   -0.2056   -3.9115    1.8056 H   0  0  0  0  0  0  0  0  0  0  0  0
   -0.5085   -4.6190   -0.5403 H   0  0  0  0  0  0  0  0  0  0  0  0
   -4.7081   -4.0270   -0.0236 H   0  0  0  0  0  0  0  0  0  0  0  0
   -4.2282   -2.5239    1.9131 H   0  0  0  0  0  0  0  0  0  0  0  0
   -1.5108   -6.7159   -1.3537 H   0  0  0  0  0  0  0  0  0  0  0  0
   -2.1615   -7.9395   -3.4272 H   0  0  0  0  0  0  0  0  0  0  0  0
   -4.7505   -4.7559   -4.3663 H   0  0  0  0  0  0  0  0  0  0  0  0
  1 24  1  0  0  0  0
  1 25  1  0  0  0  0
  1 26  1  0  0  0  0
  2  1  1  0  0  0  0
  2  3  1  0  0  0  0
  2  6  1  0  0  0  0
  2 27  1  6  0  0  0
  3  4  1  0  0  0  0
  3 28  1  0  0  0  0
  3 29  1  0  0  0  0
  4  5  1  0  0  0  0
  4 30  1  0  0  0  0
  4 31  1  0  0  0  0
  5  6  1  0  0  0  0
  5 32  1  0  0  0  0
  5 33  1  0  0  0  0
  6  7  1  0  0  0  0
  7  8  1  0  0  0  0
  7 34  1  0  0  0  0
  7 35  1  0  0  0  0
  8  9  1  0  0  0  0
  8 36  1  0  0  0  0
  8 37  1  0  0  0  0
  9 10  1  0  0  0  0
  9 38  1  0  0  0  0
  9 39  1  0  0  0  0
 10 11  1  0  0  0  0
 11 12  2  0  0  0  0
 11 16  1  0  0  0  0
 12 13  1  0  0  0  0
 12 40  1  0  0  0  0
 13 14  2  0  0  0  0
 13 41  1  0  0  0  0
 14 15  1  0  0  0  0
 14 17  1  0  0  0  0
 15 16  2  0  0  0  0
 15 42  1  0  0  0  0
 16 43  1  0  0  0  0
 17 18  1  0  0  0  0
 17 23  2  0  0  0  0
 18 19  2  0  0  0  0
 18 44  1  0  0  0  0
 19 20  1  0  0  0  0
 19 45  1  0  0  0  0
 20 21  2  0  0  0  0
 20 22  1  0  0  0  0
 22 23  1  0  0  0  0
 22 46  1  0  0  0  0
M  END
>  <DRUGBANK_ID>
DB12900

>  <COMMON_NAME>
Irdabisant

>  <CAS_NUMBER>
1005402-19-6

>  <UNII>
WH7ISP34KA

>  <SYNONYMS>
CEP-26401; Irdabisant

$$$$
