
 OpenBabel10282417213D

 54 57  0  0  0  0  0  0  0  0999 V2000
   -0.7380   -1.4985    1.6897 O   0  0  0  0  0  0  0  0  0  0  0  0
   -7.1905   -3.8668    1.1448 O   0  0  0  0  0  0  0  0  0  0  0  0
   -1.5139   -2.0091   -0.4932 O   0  0  0  0  0  0  0  0  0  0  0  0
   -2.2289   -1.4537    4.5479 C   0  0  1  0  0  0  0  0  0  0  0  0
   -0.7763   -1.2098    4.5781 C   0  0  1  0  0  0  0  0  0  0  0  0
   -2.3681   -3.0383    4.4633 C   0  0  1  0  0  0  0  0  0  0  0  0
    0.4867   -1.8968    4.8203 C   0  0  1  0  0  0  0  0  0  0  0  0
   -3.5605   -3.4612    3.4414 C   0  0  2  0  0  0  0  0  0  0  0  0
   -2.9807   -1.0264    3.3120 C   0  0  1  0  0  0  0  0  0  0  0  0
   -1.9173   -3.3442    5.9042 C   0  0  0  0  0  0  0  0  0  0  0  0
   -4.8541   -2.7511    3.4979 C   0  0  0  0  0  0  0  0  0  0  0  0
    0.2911   -0.9676    2.9480 C   0  0  2  0  0  0  0  0  0  0  0  0
   -0.3223   -3.1705    5.7942 C   0  0  0  0  0  0  0  0  0  0  0  0
    0.0759    0.1916    4.6079 C   0  0  0  0  0  0  0  0  0  0  0  0
   -4.4844   -1.2754    3.3949 C   0  0  0  0  0  0  0  0  0  0  0  0
   -0.3726    0.5850    3.3653 C   0  0  0  0  0  0  0  0  0  0  0  0
   -3.7119   -2.9627    1.6066 C   0  0  0  0  0  0  0  0  0  0  0  0
    0.9184   -1.1426    6.4119 C   0  0  0  0  0  0  0  0  0  0  0  0
   -5.7769   -3.6631    3.0379 C   0  0  0  0  0  0  0  0  0  0  0  0
   -2.7708    0.1687    2.4250 C   0  0  0  0  0  0  0  0  0  0  0  0
   -5.2082   -2.5204    0.9714 C   0  0  0  0  0  0  0  0  0  0  0  0
   -6.1690   -3.4202    1.6326 C   0  0  0  0  0  0  0  0  0  0  0  0
   -0.7400   -2.1104    0.4231 C   0  0  0  0  0  0  0  0  0  0  0  0
    0.3348   -3.1058    0.4606 C   0  0  0  0  0  0  0  0  0  0  0  0
   -2.6346   -0.9593    5.4275 H   0  0  0  0  0  0  0  0  0  0  0  0
   -0.7214   -2.0991    3.8209 H   0  0  0  0  0  0  0  0  0  0  0  0
   -1.6017   -3.6927    4.0015 H   0  0  0  0  0  0  0  0  0  0  0  0
   -4.0692   -3.8523    4.3442 H   0  0  0  0  0  0  0  0  0  0  0  0
   -2.4384   -1.7580    2.7319 H   0  0  0  0  0  0  0  0  0  0  0  0
   -2.1167   -4.2943    6.4194 H   0  0  0  0  0  0  0  0  0  0  0  0
   -2.3541   -2.6150    6.6330 H   0  0  0  0  0  0  0  0  0  0  0  0
    1.0731   -0.5925    2.3333 H   0  0  0  0  0  0  0  0  0  0  0  0
    0.3178   -4.0515    5.7085 H   0  0  0  0  0  0  0  0  0  0  0  0
   -0.1917   -3.0751    6.8963 H   0  0  0  0  0  0  0  0  0  0  0  0
    1.1922    0.1943    4.4611 H   0  0  0  0  0  0  0  0  0  0  0  0
   -0.1596    0.7866    5.4732 H   0  0  0  0  0  0  0  0  0  0  0  0
   -4.8075   -0.7690    2.4988 H   0  0  0  0  0  0  0  0  0  0  0  0
   -4.8818   -0.7291    4.2315 H   0  0  0  0  0  0  0  0  0  0  0  0
   -0.2088    1.3795    2.6246 H   0  0  0  0  0  0  0  0  0  0  0  0
   -1.3429    0.8767    3.8286 H   0  0  0  0  0  0  0  0  0  0  0  0
   -3.1943   -3.5953    0.8785 H   0  0  0  0  0  0  0  0  0  0  0  0
   -3.2225   -2.0136    1.3223 H   0  0  0  0  0  0  0  0  0  0  0  0
    1.9689   -0.9146    6.5468 H   0  0  0  0  0  0  0  0  0  0  0  0
    0.2184   -0.3913    6.8499 H   0  0  0  0  0  0  0  0  0  0  0  0
    0.8065   -1.8294    7.2723 H   0  0  0  0  0  0  0  0  0  0  0  0
   -5.6114   -4.7503    3.1951 H   0  0  0  0  0  0  0  0  0  0  0  0
   -1.7521    0.0485    2.2575 H   0  0  0  0  0  0  0  0  0  0  0  0
   -2.8864    0.1643    1.3361 H   0  0  0  0  0  0  0  0  0  0  0  0
   -2.9763    1.1199    2.8951 H   0  0  0  0  0  0  0  0  0  0  0  0
   -5.2399   -2.3732   -0.1122 H   0  0  0  0  0  0  0  0  0  0  0  0
   -5.6489   -1.5564    1.2799 H   0  0  0  0  0  0  0  0  0  0  0  0
    1.2293   -2.4934    0.4691 H   0  0  0  0  0  0  0  0  0  0  0  0
    0.1048   -3.6322    1.3866 H   0  0  0  0  0  0  0  0  0  0  0  0
    0.3091   -3.8119   -0.3703 H   0  0  0  0  0  0  0  0  0  0  0  0
  1 23  1  0  0  0  0
  2 22  2  0  0  0  0
  3 23  2  0  0  0  0
  4  5  1  0  0  0  0
  4  6  1  0  0  0  0
  4  9  1  0  0  0  0
  4 25  1  6  0  0  0
  5  7  1  0  0  0  0
  5 14  1  0  0  0  0
  5 26  1  1  0  0  0
  6  8  1  0  0  0  0
  6 10  1  0  0  0  0
  6 27  1  1  0  0  0
  7 12  1  0  0  0  0
  7 13  1  0  0  0  0
  7 18  1  6  0  0  0
  8 11  1  0  0  0  0
  8 17  1  0  0  0  0
  8 28  1  6  0  0  0
  9 15  1  0  0  0  0
  9 29  1  6  0  0  0
  9 20  1  0  0  0  0
 10 13  1  0  0  0  0
 10 30  1  0  0  0  0
 10 31  1  0  0  0  0
 11 15  1  0  0  0  0
 11 19  2  0  0  0  0
 12 16  1  0  0  0  0
 12 32  1  6  0  0  0
 12  1  1  0  0  0  0
 13 33  1  0  0  0  0
 13 34  1  0  0  0  0
 14 16  1  0  0  0  0
 14 35  1  0  0  0  0
 14 36  1  0  0  0  0
 15 37  1  0  0  0  0
 15 38  1  0  0  0  0
 16 39  1  0  0  0  0
 16 40  1  0  0  0  0
 17 21  1  0  0  0  0
 17 41  1  0  0  0  0
 17 42  1  0  0  0  0
 18 43  1  0  0  0  0
 18 44  1  0  0  0  0
 18 45  1  0  0  0  0
 19 22  1  0  0  0  0
 19 46  1  0  0  0  0
 20 47  1  0  0  0  0
 20 48  1  0  0  0  0
 20 49  1  0  0  0  0
 21 22  1  0  0  0  0
 21 50  1  0  0  0  0
 21 51  1  0  0  0  0
 23 24  1  0  0  0  0
 24 52  1  0  0  0  0
 24 53  1  0  0  0  0
 24 54  1  0  0  0  0
M  END
>  <DRUGBANK_ID>
DB13958

>  <COMMON_NAME>
Trestolone acetate

>  <CAS_NUMBER>
6157-87-5

>  <UNII>
52XDF4N1XL

>  <SYNONYMS>
17beta-Hydroxy-7alpha-methylestr-4-en-3-one acetate; 17β-Hydroxy-7α-methylestr-4-en-3-one acetate; 7α-methyl-19-nortestosterone 17β-acetate; 7α-Methyl-19-nortestosterone acetate; Orgasteron acetate; Trestolone acetate

$$$$
