C0R
 OpenBabel10282417143D

 55 58  0  0  0  0  0  0  0  0999 V2000
    0.1006    0.2890   -0.7285 C   0  0  0  0  0  0  0  0  0  0  0  0
    1.7087    0.4714   -1.3940 C   0  0  0  0  0  0  0  0  0  0  0  0
    2.2519   -0.9202   -1.1513 C   0  0  0  0  0  0  0  0  0  0  0  0
    2.1242   -1.2560    0.2628 C   0  0  0  0  0  0  0  0  0  0  0  0
    0.8243   -1.5150    0.4761 C   0  0  0  0  0  0  0  0  0  0  0  0
    0.2588   -1.6053    1.8925 C   0  0  0  0  0  0  0  0  0  0  0  0
   -0.4220   -3.0229    1.9846 C   0  0  0  0  0  0  0  0  0  0  0  0
   -1.8069   -3.0680    1.1800 C   0  0  2  0  0  0  0  0  0  0  0  0
   -1.2865   -2.5507   -0.3723 C   0  0  1  0  0  0  0  0  0  0  0  0
   -0.2562   -1.3101   -0.6515 C   0  0  1  0  0  0  0  0  0  0  0  0
   -2.5104   -2.6979   -1.3149 C   0  0  2  0  0  0  0  0  0  0  0  0
   -2.7173   -4.1671   -1.2524 C   0  0  0  0  0  0  0  0  0  0  0  0
   -3.3523   -4.4703    0.0360 C   0  0  1  0  0  0  0  0  0  0  0  0
   -3.1156   -4.4562    1.4286 C   0  0  1  0  0  0  0  0  0  0  0  0
   -4.8929   -5.1375    0.8184 C   0  0  0  0  0  0  0  0  0  0  0  0
   -4.7811   -6.0876   -0.4969 C   0  0  0  0  0  0  0  0  0  0  0  0
   -3.4702   -6.2261    0.0461 C   0  0  2  0  0  0  0  0  0  0  0  0
   -4.3917   -2.9980    0.5166 C   0  0  0  0  0  0  0  0  0  0  0  0
   -0.4084   -1.3424   -2.2264 C   0  0  0  0  0  0  0  0  0  0  0  0
   -3.6860   -7.4601    1.0841 C   0  0  0  0  0  0  0  0  0  0  0  0
   -5.0986   -8.1271    1.3197 C   0  0  0  0  0  0  0  0  0  0  0  0
    2.3981   -1.7532   -1.9827 O   0  0  0  0  0  0  0  0  0  0  0  0
   -2.7732   -2.4526   -2.6827 O   0  0  0  0  0  0  0  0  0  0  0  0
   -2.6912   -8.0668    1.5019 O   0  0  0  0  0  0  0  0  0  0  0  0
   -5.2931   -9.2847    0.5152 O   0  0  0  0  0  0  0  0  0  0  0  0
   -2.3080   -2.1997    1.6099 H   0  0  0  0  0  0  0  0  0  0  0  0
   -0.5911   -3.3877   -0.6344 H   0  0  0  0  0  0  0  0  0  0  0  0
   -3.1261   -1.9168   -0.9076 H   0  0  0  0  0  0  0  0  0  0  0  0
   -2.5233   -5.2874    1.8229 H   0  0  0  0  0  0  0  0  0  0  0  0
   -2.4722   -6.4892   -0.3059 H   0  0  0  0  0  0  0  0  0  0  0  0
   -0.6907    0.8620   -1.2234 H   0  0  0  0  0  0  0  0  0  0  0  0
    0.1414    0.7675    0.2702 H   0  0  0  0  0  0  0  0  0  0  0  0
    2.1319    0.4779   -2.4238 H   0  0  0  0  0  0  0  0  0  0  0  0
    2.2590    1.3066   -0.9371 H   0  0  0  0  0  0  0  0  0  0  0  0
    2.8155   -0.8356    0.9712 H   0  0  0  0  0  0  0  0  0  0  0  0
    1.0238   -1.5067    2.6822 H   0  0  0  0  0  0  0  0  0  0  0  0
   -0.3710   -0.7106    2.0510 H   0  0  0  0  0  0  0  0  0  0  0  0
   -0.4932   -3.3849    3.0121 H   0  0  0  0  0  0  0  0  0  0  0  0
    0.3374   -3.6728    1.5192 H   0  0  0  0  0  0  0  0  0  0  0  0
   -3.3698   -4.5541   -2.0367 H   0  0  0  0  0  0  0  0  0  0  0  0
   -1.7977   -4.7118   -1.5242 H   0  0  0  0  0  0  0  0  0  0  0  0
   -5.5666   -5.5344    1.5829 H   0  0  0  0  0  0  0  0  0  0  0  0
   -5.6613   -4.4733    0.3602 H   0  0  0  0  0  0  0  0  0  0  0  0
   -5.4900   -6.9062   -0.5982 H   0  0  0  0  0  0  0  0  0  0  0  0
   -4.7406   -5.6905   -1.5158 H   0  0  0  0  0  0  0  0  0  0  0  0
   -3.8737   -2.0479    0.6150 H   0  0  0  0  0  0  0  0  0  0  0  0
   -5.2506   -2.8047   -0.1269 H   0  0  0  0  0  0  0  0  0  0  0  0
   -4.7392   -3.0756    1.5836 H   0  0  0  0  0  0  0  0  0  0  0  0
   -1.2706   -0.6820   -2.4714 H   0  0  0  0  0  0  0  0  0  0  0  0
    0.3935   -0.9875   -2.8561 H   0  0  0  0  0  0  0  0  0  0  0  0
   -0.6274   -2.3278   -2.6326 H   0  0  0  0  0  0  0  0  0  0  0  0
   -5.1745   -8.4203    2.3708 H   0  0  0  0  0  0  0  0  0  0  0  0
   -5.9685   -7.4842    1.1632 H   0  0  0  0  0  0  0  0  0  0  0  0
   -3.5682   -2.9846   -2.9091 H   0  0  0  0  0  0  0  0  0  0  0  0
   -5.1379   -9.0440   -0.4144 H   0  0  0  0  0  0  0  0  0  0  0  0
  1  2  1  0  0  0  0
  1 10  1  0  0  0  0
  1 31  1  0  0  0  0
  1 32  1  0  0  0  0
  2  3  1  0  0  0  0
  2 33  1  0  0  0  0
  2 34  1  0  0  0  0
  3  4  1  0  0  0  0
  3 22  2  0  0  0  0
  4  5  2  0  0  0  0
  4 35  1  0  0  0  0
  5  6  1  0  0  0  0
  5 10  1  0  0  0  0
  6  7  1  0  0  0  0
  6 36  1  0  0  0  0
  6 37  1  0  0  0  0
  7  8  1  0  0  0  0
  7 38  1  0  0  0  0
  7 39  1  0  0  0  0
  8  9  1  0  0  0  0
  8 14  1  0  0  0  0
  8 26  1  6  0  0  0
  9 10  1  0  0  0  0
  9 11  1  0  0  0  0
  9 27  1  1  0  0  0
 10 19  1  6  0  0  0
 11 12  1  0  0  0  0
 11 23  1  0  0  0  0
 11 28  1  1  0  0  0
 12 13  1  0  0  0  0
 12 40  1  0  0  0  0
 12 41  1  0  0  0  0
 13 14  1  0  0  0  0
 13 17  1  0  0  0  0
 13 18  1  1  0  0  0
 14 15  1  0  0  0  0
 14 29  1  6  0  0  0
 15 16  1  0  0  0  0
 15 42  1  0  0  0  0
 15 43  1  0  0  0  0
 16 17  1  0  0  0  0
 16 44  1  0  0  0  0
 16 45  1  0  0  0  0
 17 20  1  0  0  0  0
 17 30  1  6  0  0  0
 18 46  1  0  0  0  0
 18 47  1  0  0  0  0
 18 48  1  0  0  0  0
 19 49  1  0  0  0  0
 19 50  1  0  0  0  0
 19 51  1  0  0  0  0
 20 21  1  0  0  0  0
 20 24  2  0  0  0  0
 21 25  1  0  0  0  0
 21 52  1  0  0  0  0
 21 53  1  0  0  0  0
 23 54  1  0  0  0  0
 25 55  1  0  0  0  0
M  END
>  <DRUGBANK_ID>
DB04652

>  <COMMON_NAME>
Corticosterone

>  <CAS_NUMBER>
50-22-6

>  <UNII>
W980KJ009P

>  <SYNONYMS>
(11β)-11,21-dihydroxypregn-4-ene-3,20-dione; 11beta,21-Dihydroxy-4-pregnene-3,20-dione; 11β,21-dihydroxyprogesterone; 17-deoxycortisol; Kendall's compound B; Reichstein's substance H

$$$$
