
 OpenBabel10282417133D

 45 45  0  0  0  0  0  0  0  0999 V2000
   -3.2442    1.4394   -0.4196 O   0  0  0  0  0  0  0  0  0  0  0  0
   -5.0932   -0.7140    0.1231 O   0  0  0  0  0  0  0  0  0  0  0  0
   -2.3573   -2.1158   -1.4645 O   0  0  0  0  0  0  0  0  0  0  0  0
   -3.2863    3.8703    2.0104 O   0  0  0  0  0  0  0  0  0  0  0  0
   -3.6749   -4.7249    0.0726 O   0  0  0  0  0  0  0  0  0  0  0  0
   -2.2046    1.9508    2.4154 O   0  0  0  0  0  0  0  0  0  0  0  0
    0.6836   -3.0413    1.2787 O   0  0  0  0  0  0  0  0  0  0  0  0
   -0.4352   -1.2894    0.4679 N   0  0  0  0  0  0  0  0  0  0  0  0
    0.9374    1.1984   -0.4039 N   0  0  0  0  0  0  0  0  0  0  0  0
    1.8970    1.2579    1.7606 N   0  0  0  0  0  0  0  0  0  0  0  0
    3.1758    1.0998   -0.0634 N   0  0  0  0  0  0  0  0  0  0  0  0
   -1.1928   -0.0590   -0.2330 C   0  0  1  0  0  0  0  0  0  0  0  0
   -2.7616    0.1665    0.0715 C   0  0  2  0  0  0  0  0  0  0  0  0
   -0.4298    1.2592    0.1292 C   0  0  2  0  0  0  0  0  0  0  0  0
   -1.1141    2.5119   -0.4284 C   0  0  0  0  0  0  0  0  0  0  0  0
   -3.8254   -0.8447   -0.5039 C   0  0  1  0  0  0  0  0  0  0  0  0
   -2.5565    2.5798    0.0594 C   0  0  2  0  0  0  0  0  0  0  0  0
   -3.2593   -2.2177   -0.3347 C   0  0  1  0  0  0  0  0  0  0  0  0
   -2.6565    2.7663    1.5867 C   0  0  0  0  0  0  0  0  0  0  0  0
   -4.0933   -3.5013   -0.5830 C   0  0  0  0  0  0  0  0  0  0  0  0
   -0.2073   -2.6522    0.5099 C   0  0  0  0  0  0  0  0  0  0  0  0
    1.9258    1.2020    0.4150 C   0  0  0  0  0  0  0  0  0  0  0  0
   -0.9974   -3.7769   -0.1283 C   0  0  0  0  0  0  0  0  0  0  0  0
   -2.8912    0.1511    1.1567 H   0  0  0  0  0  0  0  0  0  0  0  0
   -4.9336   -0.5145    1.0585 H   0  0  0  0  0  0  0  0  0  0  0  0
   -1.4602   -1.8802   -1.1735 H   0  0  0  0  0  0  0  0  0  0  0  0
   -3.6743    4.4256    1.3072 H   0  0  0  0  0  0  0  0  0  0  0  0
   -2.9396   -5.1577   -0.4033 H   0  0  0  0  0  0  0  0  0  0  0  0
    0.3039   -0.9101    1.0602 H   0  0  0  0  0  0  0  0  0  0  0  0
    2.7340    1.3865    2.3050 H   0  0  0  0  0  0  0  0  0  0  0  0
    1.0408    1.4509    2.2607 H   0  0  0  0  0  0  0  0  0  0  0  0
    3.2905    0.9747   -1.0608 H   0  0  0  0  0  0  0  0  0  0  0  0
    4.0000    1.0972    0.5135 H   0  0  0  0  0  0  0  0  0  0  0  0
   -1.0293   -0.1457   -1.3130 H   0  0  0  0  0  0  0  0  0  0  0  0
   -0.4261    1.3454    1.2090 H   0  0  0  0  0  0  0  0  0  0  0  0
   -0.5705    3.4171   -0.1318 H   0  0  0  0  0  0  0  0  0  0  0  0
   -1.0941    2.4724   -1.5277 H   0  0  0  0  0  0  0  0  0  0  0  0
   -3.9794   -0.6439   -1.5747 H   0  0  0  0  0  0  0  0  0  0  0  0
   -3.0386    3.4422   -0.4189 H   0  0  0  0  0  0  0  0  0  0  0  0
   -2.8379   -2.2323    0.6913 H   0  0  0  0  0  0  0  0  0  0  0  0
   -5.1037   -3.3678   -0.2199 H   0  0  0  0  0  0  0  0  0  0  0  0
   -4.0611   -3.7138   -1.6519 H   0  0  0  0  0  0  0  0  0  0  0  0
   -1.7906   -3.9267    0.5984 H   0  0  0  0  0  0  0  0  0  0  0  0
   -1.3385   -3.7110   -1.1590 H   0  0  0  0  0  0  0  0  0  0  0  0
   -0.4906   -4.7346   -0.1958 H   0  0  0  0  0  0  0  0  0  0  0  0
  1 13  1  0  0  0  0
  1 17  1  0  0  0  0
  2 25  1  0  0  0  0
  3 26  1  0  0  0  0
  4 19  1  0  0  0  0
  4 27  1  0  0  0  0
  5 20  1  0  0  0  0
  5 28  1  0  0  0  0
  6 19  2  0  0  0  0
  7 21  2  0  0  0  0
  8 21  1  0  0  0  0
  8 29  1  0  0  0  0
  9 22  2  0  0  0  0
 10 22  1  0  0  0  0
 10 30  1  0  0  0  0
 10 31  1  0  0  0  0
 11 22  1  0  0  0  0
 11 32  1  0  0  0  0
 11 33  1  0  0  0  0
 12 13  1  0  0  0  0
 12 14  1  0  0  0  0
 12 34  1  6  0  0  0
 12  8  1  0  0  0  0
 13 24  1  1  0  0  0
 14 15  1  0  0  0  0
 14 35  1  1  0  0  0
 14  9  1  0  0  0  0
 15 17  1  0  0  0  0
 15 36  1  0  0  0  0
 15 37  1  0  0  0  0
 16 38  1  6  0  0  0
 16 13  1  0  0  0  0
 16  2  1  0  0  0  0
 17 19  1  0  0  0  0
 17 39  1  6  0  0  0
 18 20  1  0  0  0  0
 18 40  1  1  0  0  0
 18 16  1  0  0  0  0
 18  3  1  0  0  0  0
 20 41  1  0  0  0  0
 20 42  1  0  0  0  0
 21 23  1  0  0  0  0
 23 43  1  0  0  0  0
 23 44  1  0  0  0  0
 23 45  1  0  0  0  0
M  END
>  <DRUGBANK_ID>
DB03420

>  <SECONDARY_ACCESSION_NUMBERS>
EXPT01624

>  <COMMON_NAME>
2,4-deoxy-4-guanidino-5-N-acetyl-neuraminic acid

>  <SYNONYMS>
(2R,4S,5R,6R)-5-Acetamido-4-(diaminomethylideneamino)-6-[(1R,2R)-1,2,3-trihydroxypropyl]oxane-2-carboxylic acid

$$$$
