LII
 OpenBabel10282417133D

 44 46  0  0  0  0  0  0  0  0999 V2000
    0.0986    0.8514   -0.1357 C   0  0  0  0  0  0  0  0  0  0  0  0
    1.3737    1.4368   -0.0106 C   0  0  0  0  0  0  0  0  0  0  0  0
    2.4036   -0.5975    0.0695 C   0  0  0  0  0  0  0  0  0  0  0  0
    0.1535   -0.5416   -0.1295 C   0  0  0  0  0  0  0  0  0  0  0  0
   -1.2015    1.4930   -0.3225 C   0  0  0  0  0  0  0  0  0  0  0  0
   -2.3352    0.6946   -0.6019 C   0  0  0  0  0  0  0  0  0  0  0  0
   -2.0840   -0.6686   -0.6606 C   0  0  0  0  0  0  0  0  0  0  0  0
   -1.4464    2.9669   -0.1161 C   0  0  0  0  0  0  0  0  0  0  0  0
   -3.7212    1.2969   -0.5798 C   0  0  0  0  0  0  0  0  0  0  0  0
   -5.0558   -0.6642    0.1349 C   0  0  0  0  0  0  0  0  0  0  0  0
   -4.3317   -1.3323    1.1339 C   0  0  0  0  0  0  0  0  0  0  0  0
   -4.3637   -2.7315    1.1057 C   0  0  0  0  0  0  0  0  0  0  0  0
   -5.2736   -3.4278    0.2947 C   0  0  0  0  0  0  0  0  0  0  0  0
   -6.0152   -2.7549   -0.6725 C   0  0  0  0  0  0  0  0  0  0  0  0
   -5.8597   -1.3791   -0.7786 C   0  0  0  0  0  0  0  0  0  0  0  0
   -4.8855    0.7394   -0.2015 C   0  0  0  0  0  0  0  0  0  0  0  0
   -3.3911    0.5771    2.3427 C   0  0  0  0  0  0  0  0  0  0  0  0
   -7.4500   -2.8451   -2.5629 C   0  0  0  0  0  0  0  0  0  0  0  0
    2.5106    0.7199    0.0824 N   0  0  0  0  0  0  0  0  0  0  0  0
    1.2681   -1.2581    0.0128 N   0  0  0  0  0  0  0  0  0  0  0  0
   -0.9135   -1.2821   -0.3625 N   0  0  0  0  0  0  0  0  0  0  0  0
    1.6166    2.7969   -0.1738 N   0  0  0  0  0  0  0  0  0  0  0  0
    3.5678   -1.3297    0.0694 N   0  0  0  0  0  0  0  0  0  0  0  0
   -3.4400   -0.8137    2.0417 O   0  0  0  0  0  0  0  0  0  0  0  0
   -6.7992   -3.5240   -1.4890 O   0  0  0  0  0  0  0  0  0  0  0  0
   -2.8575   -1.3951   -0.8783 H   0  0  0  0  0  0  0  0  0  0  0  0
   -2.0446    3.3559   -0.9437 H   0  0  0  0  0  0  0  0  0  0  0  0
   -1.9639    3.1357    0.8374 H   0  0  0  0  0  0  0  0  0  0  0  0
   -0.5888    3.6152   -0.1191 H   0  0  0  0  0  0  0  0  0  0  0  0
   -3.7886    2.3807   -0.6214 H   0  0  0  0  0  0  0  0  0  0  0  0
   -3.6134   -3.2930    1.6607 H   0  0  0  0  0  0  0  0  0  0  0  0
   -5.3664   -4.5052    0.4026 H   0  0  0  0  0  0  0  0  0  0  0  0
   -6.3135   -0.8338   -1.6019 H   0  0  0  0  0  0  0  0  0  0  0  0
   -5.7819    1.3464   -0.0730 H   0  0  0  0  0  0  0  0  0  0  0  0
   -2.9101    1.1671    1.5806 H   0  0  0  0  0  0  0  0  0  0  0  0
   -4.3713    1.0094    2.5473 H   0  0  0  0  0  0  0  0  0  0  0  0
   -2.7042    0.7413    3.1761 H   0  0  0  0  0  0  0  0  0  0  0  0
   -8.1287   -2.0701   -2.1892 H   0  0  0  0  0  0  0  0  0  0  0  0
   -6.7189   -2.4200   -3.2608 H   0  0  0  0  0  0  0  0  0  0  0  0
   -8.0524   -3.5706   -3.1172 H   0  0  0  0  0  0  0  0  0  0  0  0
    1.0476    3.4172    0.3765 H   0  0  0  0  0  0  0  0  0  0  0  0
    2.6012    2.9760   -0.0064 H   0  0  0  0  0  0  0  0  0  0  0  0
    3.5021   -2.3283   -0.0069 H   0  0  0  0  0  0  0  0  0  0  0  0
    4.4325   -0.8262    0.0008 H   0  0  0  0  0  0  0  0  0  0  0  0
  1  2  2  0  0  0  0
  1  4  1  0  0  0  0
  1  5  1  0  0  0  0
  2 19  1  0  0  0  0
  2 22  1  0  0  0  0
  3 19  2  0  0  0  0
  3 20  1  0  0  0  0
  3 23  1  0  0  0  0
  4 20  2  0  0  0  0
  4 21  1  0  0  0  0
  5  6  2  0  0  0  0
  5  8  1  0  0  0  0
  6  7  1  0  0  0  0
  6  9  1  0  0  0  0
  7 21  2  0  0  0  0
  7 26  1  0  0  0  0
  8 27  1  0  0  0  0
  8 28  1  0  0  0  0
  8 29  1  0  0  0  0
  9 16  2  0  0  0  0
  9 30  1  0  0  0  0
 10 11  2  0  0  0  0
 10 15  1  0  0  0  0
 10 16  1  0  0  0  0
 11 12  1  0  0  0  0
 11 24  1  0  0  0  0
 12 13  2  0  0  0  0
 12 31  1  0  0  0  0
 13 14  1  0  0  0  0
 13 32  1  0  0  0  0
 14 15  2  0  0  0  0
 14 25  1  0  0  0  0
 15 33  1  0  0  0  0
 16 34  1  0  0  0  0
 17 24  1  0  0  0  0
 17 35  1  0  0  0  0
 17 36  1  0  0  0  0
 17 37  1  0  0  0  0
 18 25  1  0  0  0  0
 18 38  1  0  0  0  0
 18 39  1  0  0  0  0
 18 40  1  0  0  0  0
 22 41  1  0  0  0  0
 22 42  1  0  0  0  0
 23 43  1  0  0  0  0
 23 44  1  0  0  0  0
M  END
>  <DRUGBANK_ID>
DB03060

>  <SECONDARY_ACCESSION_NUMBERS>
EXPT02032

>  <COMMON_NAME>
Sri-9662

$$$$
