
 OpenBabel10282417143D

 53 56  0  0  1  0  0  0  0  0999 V2000
    1.6988    0.4944    0.3153 O   0  0  0  0  0  0  0  0  0  0  0  0
   -1.8838    0.8893    0.1424 O   0  0  0  0  0  0  0  0  0  0  0  0
   -0.7494   -1.4481    0.7306 O   0  0  0  0  0  0  0  0  0  0  0  0
    1.5727   -1.9159   -2.4456 O   0  0  0  0  0  0  0  0  0  0  0  0
    0.9202    2.6909    0.0004 N   0  0  0  0  0  0  0  0  0  0  0  0
    1.7344    4.7529    0.2892 N   0  0  0  0  0  0  0  0  0  0  0  0
    1.1104    2.5412   -2.3900 N   0  0  0  0  0  0  0  0  0  0  0  0
    0.7342    1.3828   -5.0462 N   0  0  0  0  0  0  0  0  0  0  0  0
    1.3511    2.5814   -4.7290 N   0  0  0  0  0  0  0  0  0  0  0  0
    2.1178    4.4124   -3.4164 N   0  0  0  0  0  0  0  0  0  0  0  0
    2.8901    6.2757   -2.1765 N   0  0  0  0  0  0  0  0  0  0  0  0
   -0.5927    0.6714   -0.4291 C   0  0  1  0  0  0  0  0  0  0  0  0
    0.5285    1.3435    0.3692 C   0  0  1  0  0  0  0  0  0  0  0  0
   -0.1747   -0.7957   -0.4173 C   0  0  1  0  0  0  0  0  0  0  0  0
    1.3556   -0.7538   -0.3159 C   0  0  1  0  0  0  0  0  0  0  0  0
   -0.4279   -0.6715   -4.2611 C   0  0  0  0  0  0  0  0  0  0  0  0
    0.4240   -1.5834   -5.1201 C   0  0  0  0  0  0  0  0  0  0  0  0
   -1.8733   -0.5298   -4.6946 C   0  0  0  0  0  0  0  0  0  0  0  0
   -0.2234   -2.9509   -5.2262 C   0  0  0  0  0  0  0  0  0  0  0  0
   -2.5030   -1.9075   -4.8776 C   0  0  0  0  0  0  0  0  0  0  0  0
   -1.6405   -2.8012   -5.7694 C   0  0  0  0  0  0  0  0  0  0  0  0
    2.1215   -0.8949   -1.6350 C   0  0  0  0  0  0  0  0  0  0  0  0
    1.2466    3.1708   -1.2297 C   0  0  0  0  0  0  0  0  0  0  0  0
    1.1926    3.7061    0.8828 C   0  0  0  0  0  0  0  0  0  0  0  0
    0.2380    0.6531   -4.1027 C   0  0  0  0  0  0  0  0  0  0  0  0
    1.7827    4.4145   -1.0513 C   0  0  0  0  0  0  0  0  0  0  0  0
    2.2670    5.0480   -2.2120 C   0  0  0  0  0  0  0  0  0  0  0  0
    1.5266    3.1979   -3.4671 C   0  0  0  0  0  0  0  0  0  0  0  0
   -2.0106    0.2389    0.8575 H   0  0  0  0  0  0  0  0  0  0  0  0
   -0.3548   -1.0877    1.5414 H   0  0  0  0  0  0  0  0  0  0  0  0
    1.4795   -2.7410   -1.9435 H   0  0  0  0  0  0  0  0  0  0  0  0
    1.7373    3.1343   -5.4849 H   0  0  0  0  0  0  0  0  0  0  0  0
    3.0366    6.7182   -1.2788 H   0  0  0  0  0  0  0  0  0  0  0  0
    3.2555    6.6668   -3.0290 H   0  0  0  0  0  0  0  0  0  0  0  0
   -0.6617    1.0453   -1.4414 H   0  0  0  0  0  0  0  0  0  0  0  0
    0.2267    1.3829    1.4214 H   0  0  0  0  0  0  0  0  0  0  0  0
   -0.5469   -1.3601   -1.2712 H   0  0  0  0  0  0  0  0  0  0  0  0
    1.7051   -1.5597    0.3395 H   0  0  0  0  0  0  0  0  0  0  0  0
   -0.4836   -1.1001   -3.2570 H   0  0  0  0  0  0  0  0  0  0  0  0
    0.5510   -1.1388   -6.1105 H   0  0  0  0  0  0  0  0  0  0  0  0
    1.4374   -1.6796   -4.7164 H   0  0  0  0  0  0  0  0  0  0  0  0
   -2.4401    0.0345   -3.9400 H   0  0  0  0  0  0  0  0  0  0  0  0
   -1.9238    0.0465   -5.6227 H   0  0  0  0  0  0  0  0  0  0  0  0
    0.3799   -3.5794   -5.8874 H   0  0  0  0  0  0  0  0  0  0  0  0
   -0.2467   -3.4433   -4.2440 H   0  0  0  0  0  0  0  0  0  0  0  0
   -3.5008   -1.7931   -5.3116 H   0  0  0  0  0  0  0  0  0  0  0  0
   -2.6317   -2.3878   -3.8978 H   0  0  0  0  0  0  0  0  0  0  0  0
   -1.5872   -2.3567   -6.7703 H   0  0  0  0  0  0  0  0  0  0  0  0
   -2.1020   -3.7872   -5.8677 H   0  0  0  0  0  0  0  0  0  0  0  0
    2.1460    0.0430   -2.1955 H   0  0  0  0  0  0  0  0  0  0  0  0
    3.1710   -1.1497   -1.4548 H   0  0  0  0  0  0  0  0  0  0  0  0
    0.9995    3.6104    1.9440 H   0  0  0  0  0  0  0  0  0  0  0  0
    0.2567    0.9286   -3.0647 H   0  0  0  0  0  0  0  0  0  0  0  0
  1 13  1  0  0  0  0
  1 15  1  0  0  0  0
  2 29  1  0  0  0  0
  3 30  1  0  0  0  0
  4 22  1  0  0  0  0
  4 31  1  0  0  0  0
  5 23  1  0  0  0  0
  5 24  1  0  0  0  0
  6 24  2  0  0  0  0
  6 26  1  0  0  0  0
  7 23  2  0  0  0  0
  7 28  1  0  0  0  0
  8  9  1  0  0  0  0
  8 25  2  0  0  0  0
  9 28  1  0  0  0  0
  9 32  1  0  0  0  0
 10 27  1  0  0  0  0
 10 28  2  0  0  0  0
 11 27  1  0  0  0  0
 11 33  1  0  0  0  0
 11 34  1  0  0  0  0
 12  2  1  0  0  0  0
 12 13  1  0  0  0  0
 12 14  1  0  0  0  0
 12 35  1  6  0  0  0
 13 36  1  1  0  0  0
 13  5  1  0  0  0  0
 14  3  1  0  0  0  0
 14 15  1  0  0  0  0
 14 37  1  6  0  0  0
 15 38  1  1  0  0  0
 15 22  1  0  0  0  0
 16 17  1  0  0  0  0
 16 18  1  0  0  0  0
 16 25  1  0  0  0  0
 16 39  1  0  0  0  0
 17 19  1  0  0  0  0
 17 40  1  0  0  0  0
 17 41  1  0  0  0  0
 18 20  1  0  0  0  0
 18 42  1  0  0  0  0
 18 43  1  0  0  0  0
 19 21  1  0  0  0  0
 19 44  1  0  0  0  0
 19 45  1  0  0  0  0
 20 21  1  0  0  0  0
 20 46  1  0  0  0  0
 20 47  1  0  0  0  0
 21 48  1  0  0  0  0
 21 49  1  0  0  0  0
 22 50  1  0  0  0  0
 22 51  1  0  0  0  0
 23 26  1  0  0  0  0
 24 52  1  0  0  0  0
 25 53  1  0  0  0  0
 26 27  2  0  0  0  0
M  END
>  <DRUGBANK_ID>
DB04853

>  <COMMON_NAME>
Binodenoson

>  <CAS_NUMBER>
144348-08-3

>  <UNII>
LJA4M1L5LG

>  <SYNONYMS>
2-((Cyclohexylmethylene)hydrazino)adenosine; Binodenoson

$$$$
