
 OpenBabel10282417133D

 29 28  0  0  1  0  0  0  0  0999 V2000
    0.5990    1.7068   -1.8947 C   0  0  0  0  0  0  0  0  0  0  0  0
    4.1862    0.2736   -2.4378 C   0  0  0  0  0  0  0  0  0  0  0  0
    0.9973   -0.0003    0.1000 C   0  0  0  0  0  0  0  0  0  0  0  0
    0.1436    1.2016   -0.4971 C   0  0  2  0  0  0  0  0  0  0  0  0
    3.0979   -0.3666   -1.5812 C   0  0  2  0  0  0  0  0  0  0  0  0
    5.2377   -0.7352   -2.7917 C   0  0  0  0  0  0  0  0  0  0  0  0
   -1.3396    1.1460   -0.4749 C   0  0  0  0  0  0  0  0  0  0  0  0
    1.9475   -0.8251   -2.3838 N   0  0  0  0  0  0  0  0  0  0  0  0
    5.5483   -1.0484   -3.9174 O   0  0  0  0  0  0  0  0  0  0  0  0
    5.8437   -1.2877   -1.7200 O   0  0  0  0  0  0  0  0  0  0  0  0
   -2.0486    1.9941    0.0154 O   0  0  0  0  0  0  0  0  0  0  0  0
   -1.8483    0.1413   -1.1974 O   0  0  0  0  0  0  0  0  0  0  0  0
    2.2413    2.1613    0.1452 O   0  0  0  0  0  0  0  0  0  0  0  0
    4.1823    1.1256    0.0604 O   0  0  0  0  0  0  0  0  0  0  0  0
    2.7226    0.6096    0.0786 P   0  0  3  0  0  0  0  0  0  0  0  0
    0.2699    2.0177    0.2297 H   0  0  0  0  0  0  0  0  0  0  0  0
    3.4671   -1.2928   -1.1105 H   0  0  0  0  0  0  0  0  0  0  0  0
    0.0978    1.1691   -2.7008 H   0  0  0  0  0  0  0  0  0  0  0  0
    1.6773    1.6220   -2.0623 H   0  0  0  0  0  0  0  0  0  0  0  0
    0.4261    2.7761   -2.0429 H   0  0  0  0  0  0  0  0  0  0  0  0
    3.7505    0.6844   -3.3516 H   0  0  0  0  0  0  0  0  0  0  0  0
    4.7032    1.1195   -1.9844 H   0  0  0  0  0  0  0  0  0  0  0  0
    0.7029   -0.1455    1.1462 H   0  0  0  0  0  0  0  0  0  0  0  0
    0.7815   -0.9479   -0.3937 H   0  0  0  0  0  0  0  0  0  0  0  0
    2.2767   -1.4845   -3.0947 H   0  0  0  0  0  0  0  0  0  0  0  0
    1.5955   -0.0673   -2.9579 H   0  0  0  0  0  0  0  0  0  0  0  0
    6.5205   -1.8921   -2.0886 H   0  0  0  0  0  0  0  0  0  0  0  0
   -2.8057    0.3444   -1.1748 H   0  0  0  0  0  0  0  0  0  0  0  0
    2.1801    2.7913   -0.5901 H   0  0  0  0  0  0  0  0  0  0  0  0
  1 18  1  0  0  0  0
  1 19  1  0  0  0  0
  1 20  1  0  0  0  0
  2 21  1  0  0  0  0
  2 22  1  0  0  0  0
  3 23  1  0  0  0  0
  3 24  1  0  0  0  0
  4 16  1  1  0  0  0
  4  3  1  0  0  0  0
  4  1  1  0  0  0  0
  5 17  1  1  0  0  0
  5  8  1  0  0  0  0
  5  2  1  0  0  0  0
  6  2  1  0  0  0  0
  7  4  1  0  0  0  0
  8 25  1  0  0  0  0
  8 26  1  0  0  0  0
  9  6  2  0  0  0  0
 10  6  1  0  0  0  0
 10 27  1  0  0  0  0
 11  7  2  0  0  0  0
 12  7  1  0  0  0  0
 12 28  1  0  0  0  0
 13 29  1  0  0  0  0
 15  3  1  0  0  0  0
 15  5  1  0  0  0  0
 15 13  1  0  0  0  0
 15 14  2  0  0  0  0
M  END
>  <DRUGBANK_ID>
DB03340

>  <SECONDARY_ACCESSION_NUMBERS>
EXPT00448

>  <COMMON_NAME>
3-[(1-Amino-2-Carboxy-Ethyl)-Hydroxy-Phosphinoyl]-2-Methyl-Propionic Acid

$$$$
