
 OpenBabel10282417193D

 47 49  0  0  0  0  0  0  0  0999 V2000
   -3.7435    5.5547   -3.0027 C   0  0  0  0  0  0  0  0  0  0  0  0
   -3.8398    4.0527   -2.9865 C   0  0  0  0  0  0  0  0  0  0  0  0
   -2.9795    3.4121   -3.9345 N   0  0  0  0  0  0  0  0  0  0  0  0
   -1.9155    2.5682   -3.7216 C   0  0  0  0  0  0  0  0  0  0  0  0
   -1.4141    2.0777   -4.7346 O   0  0  0  0  0  0  0  0  0  0  0  0
   -1.3542    2.2691   -2.3081 C   0  0  1  0  0  0  0  0  0  0  0  0
   -1.7250    2.9800   -0.9938 C   0  0  0  0  0  0  0  0  0  0  0  0
   -2.5731    1.7396   -0.5562 C   0  0  1  0  0  0  0  0  0  0  0  0
   -1.7791    0.9419   -1.6389 C   0  0  0  0  0  0  0  0  0  0  0  0
   -2.2911    1.3657    0.7192 F   0  0  0  0  0  0  0  0  0  0  0  0
   -4.1651    1.6958   -0.6380 C   0  0  0  0  0  0  0  0  0  0  0  0
   -4.9881    2.5979    0.0671 C   0  0  0  0  0  0  0  0  0  0  0  0
   -6.3821    2.5540   -0.0259 C   0  0  0  0  0  0  0  0  0  0  0  0
   -7.0224    1.5653   -0.7637 C   0  0  0  0  0  0  0  0  0  0  0  0
   -6.2296    0.5493   -1.2975 C   0  0  0  0  0  0  0  0  0  0  0  0
   -4.8436    0.6850   -1.3374 C   0  0  0  0  0  0  0  0  0  0  0  0
   -8.4973    1.6500   -1.0866 C   0  0  0  0  0  0  0  0  0  0  0  0
   -8.8542    1.9669   -2.4930 N   0  0  0  0  0  0  0  0  0  0  0  0
   -8.3598    1.0012   -3.4810 C   0  0  0  0  0  0  0  0  0  0  0  0
   -7.0533    1.5826   -4.0019 C   0  0  0  0  0  0  0  0  0  0  0  0
   -7.3457    3.0611   -4.0223 C   0  0  0  0  0  0  0  0  0  0  0  0
   -8.4042    3.2888   -2.9495 C   0  0  0  0  0  0  0  0  0  0  0  0
   -7.0995    3.5026    0.5919 F   0  0  0  0  0  0  0  0  0  0  0  0
   -2.7027    5.8803   -2.9138 H   0  0  0  0  0  0  0  0  0  0  0  0
   -4.3046    5.9674   -2.1579 H   0  0  0  0  0  0  0  0  0  0  0  0
   -4.1600    5.9597   -3.9279 H   0  0  0  0  0  0  0  0  0  0  0  0
   -3.6603    3.7024   -1.9954 H   0  0  0  0  0  0  0  0  0  0  0  0
   -4.8368    3.7052   -3.1743 H   0  0  0  0  0  0  0  0  0  0  0  0
   -3.2149    3.5031   -4.9183 H   0  0  0  0  0  0  0  0  0  0  0  0
   -0.2574    2.2860   -2.4163 H   0  0  0  0  0  0  0  0  0  0  0  0
   -2.1566    3.9811   -1.0235 H   0  0  0  0  0  0  0  0  0  0  0  0
   -0.8568    3.1184   -0.3354 H   0  0  0  0  0  0  0  0  0  0  0  0
   -0.9619    0.3622   -1.1973 H   0  0  0  0  0  0  0  0  0  0  0  0
   -2.3268    0.2637   -2.2973 H   0  0  0  0  0  0  0  0  0  0  0  0
   -4.5354    3.3725    0.6798 H   0  0  0  0  0  0  0  0  0  0  0  0
   -6.6641   -0.2674   -1.8681 H   0  0  0  0  0  0  0  0  0  0  0  0
   -4.3107   -0.0059   -1.9875 H   0  0  0  0  0  0  0  0  0  0  0  0
   -8.9654    0.6967   -0.8091 H   0  0  0  0  0  0  0  0  0  0  0  0
   -8.9766    2.3934   -0.4357 H   0  0  0  0  0  0  0  0  0  0  0  0
   -9.0678    0.9575   -4.3166 H   0  0  0  0  0  0  0  0  0  0  0  0
   -8.3080   -0.0201   -3.0931 H   0  0  0  0  0  0  0  0  0  0  0  0
   -6.1897    1.4556   -3.3607 H   0  0  0  0  0  0  0  0  0  0  0  0
   -6.7371    1.1468   -4.9510 H   0  0  0  0  0  0  0  0  0  0  0  0
   -6.4816    3.6635   -3.7896 H   0  0  0  0  0  0  0  0  0  0  0  0
   -7.6684    3.3591   -5.0201 H   0  0  0  0  0  0  0  0  0  0  0  0
   -8.0231    3.9145   -2.1332 H   0  0  0  0  0  0  0  0  0  0  0  0
   -9.2315    3.8427   -3.4043 H   0  0  0  0  0  0  0  0  0  0  0  0
  1  2  1  0  0  0  0
  1 24  1  0  0  0  0
  1 25  1  0  0  0  0
  1 26  1  0  0  0  0
  2  3  1  0  0  0  0
  2 27  1  0  0  0  0
  2 28  1  0  0  0  0
  3  4  1  0  0  0  0
  3 29  1  0  0  0  0
  4  5  2  0  0  0  0
  6  7  1  0  0  0  0
  6  9  1  0  0  0  0
  6 30  1  6  0  0  0
  6  4  1  0  0  0  0
  7  8  1  0  0  0  0
  7 31  1  0  0  0  0
  7 32  1  0  0  0  0
  8  9  1  0  0  0  0
  8 10  1  1  0  0  0
  8 11  1  0  0  0  0
  9 33  1  0  0  0  0
  9 34  1  0  0  0  0
 11 12  2  0  0  0  0
 11 16  1  0  0  0  0
 12 13  1  0  0  0  0
 12 35  1  0  0  0  0
 13 14  2  0  0  0  0
 13 23  1  0  0  0  0
 14 15  1  0  0  0  0
 14 17  1  0  0  0  0
 15 16  2  0  0  0  0
 15 36  1  0  0  0  0
 16 37  1  0  0  0  0
 17 18  1  0  0  0  0
 17 38  1  0  0  0  0
 17 39  1  0  0  0  0
 18 19  1  0  0  0  0
 18 22  1  0  0  0  0
 19 20  1  0  0  0  0
 19 40  1  0  0  0  0
 19 41  1  0  0  0  0
 20 21  1  0  0  0  0
 20 42  1  0  0  0  0
 20 43  1  0  0  0  0
 21 22  1  0  0  0  0
 21 44  1  0  0  0  0
 21 45  1  0  0  0  0
 22 46  1  0  0  0  0
 22 47  1  0  0  0  0
M  END
>  <DRUGBANK_ID>
DB12201

>  <COMMON_NAME>
PF-03654746

>  <CAS_NUMBER>
935840-31-6

>  <UNII>
G3QE979K1X

$$$$
