CZA
 OpenBabel10282417163D

 45 49  0  0  0  0  0  0  0  0999 V2000
    2.8394    0.4317    1.3570 O   0  0  0  0  0  0  0  0  0  0  0  0
    3.1299    0.3169    0.1570 C   0  0  0  0  0  0  0  0  0  0  0  0
    2.7386    1.4248   -0.8023 C   0  0  0  0  0  0  0  0  0  0  0  0
    1.2061    1.0763   -0.8182 C   0  0  0  0  0  0  0  0  0  0  0  0
    0.3601    1.9377   -0.8394 O   0  0  0  0  0  0  0  0  0  0  0  0
    0.8548   -0.4220   -0.6306 C   0  0  0  0  0  0  0  0  0  0  0  0
    3.6591   -0.9591   -0.5874 C   0  0  2  0  0  0  0  0  0  0  0  0
    3.1665   -1.9852   -1.6446 C   0  0  1  0  0  0  0  0  0  0  0  0
    2.4065   -3.2670   -1.3740 C   0  0  0  0  0  0  0  0  0  0  0  0
    1.2037   -3.6996   -0.8386 C   0  0  0  0  0  0  0  0  0  0  0  0
    1.2350   -5.0941   -0.8305 N   0  0  0  0  0  0  0  0  0  0  0  0
    2.3086   -5.5356   -1.5669 C   0  0  0  0  0  0  0  0  0  0  0  0
    2.8873   -4.3984   -2.0690 C   0  0  0  0  0  0  0  0  0  0  0  0
    2.8624   -6.7799   -1.8579 C   0  0  0  0  0  0  0  0  0  0  0  0
    4.0202   -6.7873   -2.6721 C   0  0  0  0  0  0  0  0  0  0  0  0
    4.5306   -5.6343   -3.2687 C   0  0  0  0  0  0  0  0  0  0  0  0
    3.9103   -4.4310   -3.0233 C   0  0  0  0  0  0  0  0  0  0  0  0
    4.3336   -3.1148   -3.5866 C   0  0  0  0  0  0  0  0  0  0  0  0
    4.6157   -2.2684   -2.3313 C   0  0  1  0  0  0  0  0  0  0  0  0
    5.1736   -0.8240   -2.4746 C   0  0  0  0  0  0  0  0  0  0  0  0
    5.0325   -0.4157   -3.9454 C   0  0  0  0  0  0  0  0  0  0  0  0
    6.4972   -0.5196   -1.7239 C   0  0  0  0  0  0  0  0  0  0  0  0
    4.2649   -0.1184   -1.6024 N   0  0  0  0  0  0  0  0  0  0  0  0
    3.7077    1.1269   -1.7198 C   0  0  0  0  0  0  0  0  0  0  0  0
    4.5893    1.9922   -2.3305 O   0  0  0  0  0  0  0  0  0  0  0  0
    4.3171   -1.4660    0.1241 H   0  0  0  0  0  0  0  0  0  0  0  0
    2.6072   -1.5259   -2.4848 H   0  0  0  0  0  0  0  0  0  0  0  0
    5.3058   -2.8371   -1.6901 H   0  0  0  0  0  0  0  0  0  0  0  0
    1.2331   -0.9156    0.2836 H   0  0  0  0  0  0  0  0  0  0  0  0
   -0.1119   -0.8434   -0.8665 H   0  0  0  0  0  0  0  0  0  0  0  0
    1.3866   -0.7908   -1.4742 H   0  0  0  0  0  0  0  0  0  0  0  0
    0.3279   -3.2100   -0.4265 H   0  0  0  0  0  0  0  0  0  0  0  0
    0.5653   -5.6901   -0.3600 H   0  0  0  0  0  0  0  0  0  0  0  0
    2.4651   -7.6941   -1.4392 H   0  0  0  0  0  0  0  0  0  0  0  0
    4.5375   -7.7226   -2.8580 H   0  0  0  0  0  0  0  0  0  0  0  0
    5.4244   -5.6501   -3.8838 H   0  0  0  0  0  0  0  0  0  0  0  0
    5.1555   -3.1955   -4.2997 H   0  0  0  0  0  0  0  0  0  0  0  0
    3.4620   -2.7260   -4.1396 H   0  0  0  0  0  0  0  0  0  0  0  0
    4.9733    0.6494   -4.1536 H   0  0  0  0  0  0  0  0  0  0  0  0
    5.8289   -0.8529   -4.5533 H   0  0  0  0  0  0  0  0  0  0  0  0
    4.0779   -0.7854   -4.3448 H   0  0  0  0  0  0  0  0  0  0  0  0
    6.5355   -1.0718   -0.7698 H   0  0  0  0  0  0  0  0  0  0  0  0
    7.4107   -0.7064   -2.2790 H   0  0  0  0  0  0  0  0  0  0  0  0
    6.5252    0.5350   -1.3944 H   0  0  0  0  0  0  0  0  0  0  0  0
    4.2007    2.8131   -2.6550 H   0  0  0  0  0  0  0  0  0  0  0  0
  1  2  2  0  0  0  0
  2  3  1  0  0  0  0
  2  7  1  0  0  0  0
  3 24  2  0  0  0  0
  3  4  1  0  0  0  0
  4  6  1  0  0  0  0
  4  5  2  0  0  0  0
  6 29  1  0  0  0  0
  6 30  1  0  0  0  0
  6 31  1  0  0  0  0
  7 23  1  0  0  0  0
  7  8  1  0  0  0  0
  7 26  1  6  0  0  0
  8 19  1  0  0  0  0
  8  9  1  0  0  0  0
  8 27  1  1  0  0  0
  9 13  1  0  0  0  0
  9 10  2  0  0  0  0
 10 11  1  0  0  0  0
 10 32  1  0  0  0  0
 11 12  1  0  0  0  0
 11 33  1  0  0  0  0
 12 13  1  0  0  0  0
 12 14  2  0  0  0  0
 13 17  2  0  0  0  0
 14 15  1  0  0  0  0
 14 34  1  0  0  0  0
 15 16  2  0  0  0  0
 15 35  1  0  0  0  0
 16 17  1  0  0  0  0
 16 36  1  0  0  0  0
 17 18  1  0  0  0  0
 18 19  1  0  0  0  0
 18 37  1  0  0  0  0
 18 38  1  0  0  0  0
 19 20  1  0  0  0  0
 19 28  1  1  0  0  0
 20 21  1  0  0  0  0
 20 22  1  0  0  0  0
 20 23  1  0  0  0  0
 21 39  1  0  0  0  0
 21 40  1  0  0  0  0
 21 41  1  0  0  0  0
 22 42  1  0  0  0  0
 22 43  1  0  0  0  0
 22 44  1  0  0  0  0
 23 24  1  0  0  0  0
 24 25  1  0  0  0  0
 25 45  1  0  0  0  0
M  END
>  <DRUGBANK_ID>
DB07604

>  <COMMON_NAME>
(6AR,11AS,11BR)-10-ACETYL-9-HYDROXY-7,7-DIMETHYL-2,6,6A,7,11A,11B-HEXAHYDRO-11H-PYRROLO[1',2':2,3]ISOINDOLO[4,5,6-CD]INDOL-11-ONE

$$$$
