
 OpenBabel10282417143D

 78 83  0  0  1  0  0  0  0  0999 V2000
    0.7939   -0.0916    0.3995 C   0  0  0  0  0  0  0  0  0  0  0  0
    4.5759    0.8872   -0.9526 C   0  0  0  0  0  0  0  0  0  0  0  0
   -1.7342    3.6376    1.9741 C   0  0  0  0  0  0  0  0  0  0  0  0
    6.1576   -2.3124   -3.5183 C   0  0  0  0  0  0  0  0  0  0  0  0
   -4.0856    0.1324    0.9672 C   0  0  0  0  0  0  0  0  0  0  0  0
    6.8113    1.7533   -5.3272 C   0  0  0  0  0  0  0  0  0  0  0  0
    2.8599    2.1729    0.7330 C   0  0  0  0  0  0  0  0  0  0  0  0
    0.4143   -0.9837    1.5134 C   0  0  2  0  0  0  0  0  0  0  0  0
    5.2110    2.4437   -0.8882 C   0  0  2  0  0  0  0  0  0  0  0  0
   -3.7503    2.2338    1.0261 C   0  0  0  0  0  0  0  0  0  0  0  0
    6.9668   -0.4860   -5.4236 C   0  0  0  0  0  0  0  0  0  0  0  0
   -0.1480   -2.2473    0.9128 C   0  0  2  0  0  0  0  0  0  0  0  0
    4.7612    3.9019   -1.6556 C   0  0  2  0  0  0  0  0  0  0  0  0
   -1.6161   -1.8654    0.6879 C   0  0  2  0  0  0  0  0  0  0  0  0
    5.1987    3.7600   -3.1038 C   0  0  2  0  0  0  0  0  0  0  0  0
   -3.8030    3.6530    0.9803 C   0  0  0  0  0  0  0  0  0  0  0  0
    6.2607   -1.8395   -5.8548 C   0  0  0  0  0  0  0  0  0  0  0  0
   -2.6321    1.6482    1.4807 C   0  0  0  0  0  0  0  0  0  0  0  0
    7.1531   -0.1594   -3.9764 C   0  0  0  0  0  0  0  0  0  0  0  0
   -1.9028   -0.8073    1.7705 C   0  0  2  0  0  0  0  0  0  0  0  0
    6.3939    2.5356   -2.9465 C   0  0  2  0  0  0  0  0  0  0  0  0
   -4.8423    4.4215    0.5361 N   0  0  0  0  0  0  0  0  0  0  0  0
    5.5129   -2.0012   -7.0652 N   0  0  0  0  0  0  0  0  0  0  0  0
   -2.7244    4.3397    1.4446 N   0  0  0  0  0  0  0  0  0  0  0  0
    5.9350   -2.7324   -4.8296 N   0  0  0  0  0  0  0  0  0  0  0  0
   -1.5574    2.3223    2.0230 N   0  0  0  0  0  0  0  0  0  0  0  0
    6.8398   -1.1425   -2.9682 N   0  0  0  0  0  0  0  0  0  0  0  0
   -4.6963    1.2594    0.7083 N   0  0  0  0  0  0  0  0  0  0  0  0
    6.8896    0.7341   -6.1677 N   0  0  0  0  0  0  0  0  0  0  0  0
   -2.7720    0.2934    1.3695 N   0  0  0  0  0  0  0  0  0  0  0  0
    6.8982    1.4232   -3.9565 N   0  0  0  0  0  0  0  0  0  0  0  0
   -0.0269   -3.2934    1.8717 O   0  0  0  0  0  0  0  0  0  0  0  0
    5.3673    5.0452   -1.0587 O   0  0  0  0  0  0  0  0  0  0  0  0
   -2.4486   -3.0084    0.8591 O   0  0  0  0  0  0  0  0  0  0  0  0
    5.6463    4.9938   -3.6790 O   0  0  0  0  0  0  0  0  0  0  0  0
    0.6275    3.6325    0.9147 O   0  0  0  0  0  0  0  0  0  0  0  0
    1.2386    2.1714    2.9819 O   0  0  0  0  0  0  0  0  0  0  0  0
    1.5600    1.2610   -1.3517 O   0  0  0  0  0  0  0  0  0  0  0  0
    2.0362    3.6136   -1.0064 O   0  0  0  0  0  0  0  0  0  0  0  0
    4.2980    2.1260   -4.5359 O   0  0  0  0  0  0  0  0  0  0  0  0
    0.3733    1.2235    0.6702 O   0  0  0  0  0  0  0  0  0  0  0  0
    4.6016    0.7314   -2.3064 O   0  0  0  0  0  0  0  0  0  0  0  0
   -0.6296   -0.3859    2.2833 O   0  0  0  0  0  0  0  0  0  0  0  0
    6.4623    2.1543   -1.5338 O   0  0  0  0  0  0  0  0  0  0  0  0
    2.6979    2.3951   -2.8164 O   0  0  0  0  0  0  0  0  0  0  0  0
    1.2501    2.2777    1.4612 P   0  0  3  0  0  0  0  0  0  0  0  0
    2.7766    2.2871   -1.0915 P   0  0  3  0  0  0  0  0  0  0  0  0
    3.6154    1.1067   -3.5172 P   0  0  1  0  0  0  0  0  0  0  0  0
    4.6217   -0.3063   -4.2859 S   0  0  0  0  0  0  0  0  0  0  0  0
    1.2896   -1.1280    2.1543 H   0  0  0  0  0  0  0  0  0  0  0  0
    5.3238    2.6930    0.1681 H   0  0  0  0  0  0  0  0  0  0  0  0
    0.3547   -2.5686   -0.0129 H   0  0  0  0  0  0  0  0  0  0  0  0
    3.7401    4.3008   -1.6871 H   0  0  0  0  0  0  0  0  0  0  0  0
   -1.7683   -1.4688   -0.3251 H   0  0  0  0  0  0  0  0  0  0  0  0
    4.2184    3.7121   -3.6043 H   0  0  0  0  0  0  0  0  0  0  0  0
   -2.3981   -1.2616    2.6295 H   0  0  0  0  0  0  0  0  0  0  0  0
    7.2411    3.2094   -2.9911 H   0  0  0  0  0  0  0  0  0  0  0  0
    0.3249   -0.3985   -0.5483 H   0  0  0  0  0  0  0  0  0  0  0  0
    1.8724   -0.1991    0.2490 H   0  0  0  0  0  0  0  0  0  0  0  0
    3.5667    0.4690   -0.7458 H   0  0  0  0  0  0  0  0  0  0  0  0
    4.9796    0.1865   -0.1986 H   0  0  0  0  0  0  0  0  0  0  0  0
   -0.8975    4.2350    2.3751 H   0  0  0  0  0  0  0  0  0  0  0  0
    5.3072   -2.6899   -2.8589 H   0  0  0  0  0  0  0  0  0  0  0  0
   -4.5484   -0.8573    0.8962 H   0  0  0  0  0  0  0  0  0  0  0  0
    6.4825    2.7592   -5.6012 H   0  0  0  0  0  0  0  0  0  0  0  0
    3.3952    3.0486    1.1187 H   0  0  0  0  0  0  0  0  0  0  0  0
    3.3506    1.2956    1.1616 H   0  0  0  0  0  0  0  0  0  0  0  0
   -5.7588    3.9787    0.5823 H   0  0  0  0  0  0  0  0  0  0  0  0
   -4.7501    5.3926    0.8092 H   0  0  0  0  0  0  0  0  0  0  0  0
    5.4588   -1.2396   -7.7304 H   0  0  0  0  0  0  0  0  0  0  0  0
    4.8226   -2.7459   -7.1595 H   0  0  0  0  0  0  0  0  0  0  0  0
   -0.1274   -2.8893    2.7541 H   0  0  0  0  0  0  0  0  0  0  0  0
    6.1597    4.7434   -0.6035 H   0  0  0  0  0  0  0  0  0  0  0  0
   -2.0824   -3.4922    1.6290 H   0  0  0  0  0  0  0  0  0  0  0  0
    5.8016    5.6035   -2.9326 H   0  0  0  0  0  0  0  0  0  0  0  0
    0.0031    3.4270    0.1710 H   0  0  0  0  0  0  0  0  0  0  0  0
    1.5701    0.5388   -1.9987 H   0  0  0  0  0  0  0  0  0  0  0  0
    3.8511    2.2696   -5.3895 H   0  0  0  0  0  0  0  0  0  0  0  0
  1 58  1  0  0  0  0
  1 59  1  0  0  0  0
  2 60  1  0  0  0  0
  2 61  1  0  0  0  0
  3 62  1  0  0  0  0
  4 63  1  0  0  0  0
  5 64  1  0  0  0  0
  6 65  1  0  0  0  0
  7 66  1  0  0  0  0
  7 67  1  0  0  0  0
  8  1  1  0  0  0  0
  8 50  1  1  0  0  0
  9  2  1  0  0  0  0
  9 51  1  1  0  0  0
 12  8  1  0  0  0  0
 12 32  1  0  0  0  0
 12 52  1  6  0  0  0
 13  9  1  0  0  0  0
 13 33  1  0  0  0  0
 13 53  1  1  0  0  0
 14 12  1  0  0  0  0
 14 34  1  0  0  0  0
 14 54  1  6  0  0  0
 15 13  1  0  0  0  0
 15 35  1  0  0  0  0
 15 55  1  6  0  0  0
 16 10  2  0  0  0  0
 17 11  2  0  0  0  0
 18 10  1  0  0  0  0
 19 11  1  0  0  0  0
 20 14  1  0  0  0  0
 20 56  1  1  0  0  0
 20 30  1  0  0  0  0
 21 15  1  0  0  0  0
 21 57  1  6  0  0  0
 21 31  1  0  0  0  0
 22 16  1  0  0  0  0
 22 68  1  0  0  0  0
 22 69  1  0  0  0  0
 23 17  1  0  0  0  0
 23 70  1  0  0  0  0
 23 71  1  0  0  0  0
 24  3  2  0  0  0  0
 24 16  1  0  0  0  0
 25  4  2  0  0  0  0
 25 17  1  0  0  0  0
 26  3  1  0  0  0  0
 26 18  2  0  0  0  0
 27  4  1  0  0  0  0
 27 19  2  0  0  0  0
 28  5  2  0  0  0  0
 28 10  1  0  0  0  0
 29  6  2  0  0  0  0
 29 11  1  0  0  0  0
 30  5  1  0  0  0  0
 30 18  1  0  0  0  0
 31  6  1  0  0  0  0
 31 19  1  0  0  0  0
 32 72  1  0  0  0  0
 33 73  1  0  0  0  0
 34 74  1  0  0  0  0
 35 75  1  0  0  0  0
 36 76  1  0  0  0  0
 38 77  1  0  0  0  0
 40 78  1  0  0  0  0
 41  1  1  0  0  0  0
 42  2  1  0  0  0  0
 43  8  1  0  0  0  0
 43 20  1  0  0  0  0
 44  9  1  0  0  0  0
 44 21  1  0  0  0  0
 46  7  1  0  0  0  0
 46 36  1  0  0  0  0
 46 37  2  0  0  0  0
 46 41  1  0  0  0  0
 47  7  1  0  0  0  0
 47 38  1  0  0  0  0
 47 39  2  0  0  0  0
 47 45  1  0  0  0  0
 48 40  1  0  0  0  0
 48 42  1  0  0  0  0
 48 45  1  0  0  0  0
 48 49  2  6  0  0  0
M  END
>  <DRUGBANK_ID>
DB04389

>  <SECONDARY_ACCESSION_NUMBERS>
EXPT01824

>  <COMMON_NAME>
Ado-P-Ch2-P-Ps-Ado

$$$$
