
 OpenBabel10282417153D

 69 73  0  0  0  0  0  0  0  0999 V2000
    1.7057    0.9641   -0.1295 N   0  0  0  0  0  0  0  0  0  0  0  0
    2.4883   -0.1992   -0.0797 C   0  0  0  0  0  0  0  0  0  0  0  0
    1.6168   -1.2633   -0.0307 C   0  0  0  0  0  0  0  0  0  0  0  0
    0.2839   -0.7736   -0.0315 C   0  0  0  0  0  0  0  0  0  0  0  0
    0.3362    0.6271   -0.0664 C   0  0  0  0  0  0  0  0  0  0  0  0
    2.2735    2.3305   -0.1678 C   0  0  0  0  0  0  0  0  0  0  0  0
    3.9635   -0.3210   -0.0943 C   0  0  0  0  0  0  0  0  0  0  0  0
   -0.8775    1.3711   -0.0332 C   0  0  0  0  0  0  0  0  0  0  0  0
   -0.9629   -1.4368   -0.0016 C   0  0  0  0  0  0  0  0  0  0  0  0
    3.7398    5.8321    4.3269 N   0  0  0  0  0  0  0  0  0  0  0  0
    4.7341   -0.2029    1.0532 C   0  0  0  0  0  0  0  0  0  0  0  0
    4.6548   -0.6756   -1.2515 C   0  0  0  0  0  0  0  0  0  0  0  0
    3.1767    2.5527    1.0432 C   0  0  0  0  0  0  0  0  0  0  0  0
   -2.1441   -0.7082    0.0027 C   0  0  0  0  0  0  0  0  0  0  0  0
    2.0477   -2.6765    0.0098 C   0  0  0  0  0  0  0  0  0  0  0  0
   -2.1134    0.6781   -0.0037 C   0  0  0  0  0  0  0  0  0  0  0  0
    6.7556   -0.0431   -0.2915 C   0  0  0  0  0  0  0  0  0  0  0  0
    4.4972    2.5190    3.7681 C   0  0  0  0  0  0  0  0  0  0  0  0
    6.0602   -0.6100   -1.3245 C   0  0  0  0  0  0  0  0  0  0  0  0
    6.1139    0.0795    0.9052 C   0  0  0  0  0  0  0  0  0  0  0  0
    4.5423    2.4538    1.2217 C   0  0  0  0  0  0  0  0  0  0  0  0
    2.5495    2.5982    2.2549 C   0  0  0  0  0  0  0  0  0  0  0  0
    3.3561    2.9660    3.4205 C   0  0  0  0  0  0  0  0  0  0  0  0
    5.1636    2.2212    2.6009 C   0  0  0  0  0  0  0  0  0  0  0  0
    5.2496    2.8793    4.8830 O   0  0  0  0  0  0  0  0  0  0  0  0
    4.7660    5.3888    5.3084 C   0  0  0  0  0  0  0  0  0  0  0  0
   -3.3100   -1.4200    0.0130 O   0  0  0  0  0  0  0  0  0  0  0  0
    8.0224    0.4397   -0.3460 O   0  0  0  0  0  0  0  0  0  0  0  0
    4.7197    3.8846    5.7951 C   0  0  0  0  0  0  0  0  0  0  0  0
    3.7392    7.2377    3.9394 C   0  0  0  0  0  0  0  0  0  0  0  0
    2.3774    5.3316    4.4923 C   0  0  0  0  0  0  0  0  0  0  0  0
    1.7511    5.0580    3.1071 C   0  0  0  0  0  0  0  0  0  0  0  0
    2.5055    7.6938    3.0949 C   0  0  0  0  0  0  0  0  0  0  0  0
    2.2757    6.9990    1.7480 C   0  0  0  0  0  0  0  0  0  0  0  0
    1.2910    5.8640    1.9439 C   0  0  0  0  0  0  0  0  0  0  0  0
    2.7414    2.4782   -1.1492 H   0  0  0  0  0  0  0  0  0  0  0  0
    1.4164    3.0271   -0.1462 H   0  0  0  0  0  0  0  0  0  0  0  0
   -0.8930    2.4577   -0.0316 H   0  0  0  0  0  0  0  0  0  0  0  0
   -0.9977   -2.5218    0.0141 H   0  0  0  0  0  0  0  0  0  0  0  0
    4.2289   -0.0482    2.0099 H   0  0  0  0  0  0  0  0  0  0  0  0
    4.0888   -1.0265   -2.1048 H   0  0  0  0  0  0  0  0  0  0  0  0
    1.6695   -3.1634    0.9093 H   0  0  0  0  0  0  0  0  0  0  0  0
    1.6977   -3.1870   -0.8885 H   0  0  0  0  0  0  0  0  0  0  0  0
    3.1386   -2.7579    0.0304 H   0  0  0  0  0  0  0  0  0  0  0  0
   -3.0460    1.2397    0.0093 H   0  0  0  0  0  0  0  0  0  0  0  0
    6.5851   -0.9680   -2.1945 H   0  0  0  0  0  0  0  0  0  0  0  0
    6.7144    0.6103    1.6312 H   0  0  0  0  0  0  0  0  0  0  0  0
    5.1358    2.2744    0.3203 H   0  0  0  0  0  0  0  0  0  0  0  0
    1.4827    2.7190    2.2250 H   0  0  0  0  0  0  0  0  0  0  0  0
    3.8643    3.9596    3.0999 H   0  0  0  0  0  0  0  0  0  0  0  0
    6.0589    1.6921    2.8172 H   0  0  0  0  0  0  0  0  0  0  0  0
    4.7001    6.0318    6.1984 H   0  0  0  0  0  0  0  0  0  0  0  0
    5.7723    5.5492    4.8896 H   0  0  0  0  0  0  0  0  0  0  0  0
   -4.0631   -0.8086    0.0125 H   0  0  0  0  0  0  0  0  0  0  0  0
    8.4372    0.1772   -1.1785 H   0  0  0  0  0  0  0  0  0  0  0  0
    3.7432    3.6051    6.2048 H   0  0  0  0  0  0  0  0  0  0  0  0
    5.3779    3.8306    6.6799 H   0  0  0  0  0  0  0  0  0  0  0  0
    4.6599    7.4715    3.3940 H   0  0  0  0  0  0  0  0  0  0  0  0
    3.7228    7.8356    4.8558 H   0  0  0  0  0  0  0  0  0  0  0  0
    1.7392    5.9039    5.1562 H   0  0  0  0  0  0  0  0  0  0  0  0
    2.4120    4.3553    4.9841 H   0  0  0  0  0  0  0  0  0  0  0  0
    1.0572    4.2371    3.2579 H   0  0  0  0  0  0  0  0  0  0  0  0
    2.6199    4.8197    2.5069 H   0  0  0  0  0  0  0  0  0  0  0  0
    2.5725    8.7634    2.9195 H   0  0  0  0  0  0  0  0  0  0  0  0
    1.5995    7.5542    3.7024 H   0  0  0  0  0  0  0  0  0  0  0  0
    3.2264    6.6329    1.3260 H   0  0  0  0  0  0  0  0  0  0  0  0
    1.8364    7.6629    1.0011 H   0  0  0  0  0  0  0  0  0  0  0  0
    1.3208    5.2237    1.0360 H   0  0  0  0  0  0  0  0  0  0  0  0
    0.2482    6.1213    2.0979 H   0  0  0  0  0  0  0  0  0  0  0  0
  2  1  1  0  0  0  0
  3  2  2  0  0  0  0
  3  4  1  0  0  0  0
  4  5  2  0  0  0  0
  5  1  1  0  0  0  0
  6  1  1  0  0  0  0
  6 36  1  0  0  0  0
  6 37  1  0  0  0  0
  7  2  1  0  0  0  0
  8  5  1  0  0  0  0
  8 38  1  0  0  0  0
  9  4  1  0  0  0  0
  9 14  2  0  0  0  0
  9 39  1  0  0  0  0
 10 26  1  0  0  0  0
 11  7  1  0  0  0  0
 11 40  1  0  0  0  0
 12  7  2  0  0  0  0
 12 41  1  0  0  0  0
 13  6  1  0  0  0  0
 14 16  1  0  0  0  0
 15  3  1  0  0  0  0
 15 42  1  0  0  0  0
 15 43  1  0  0  0  0
 15 44  1  0  0  0  0
 16  8  2  0  0  0  0
 16 45  1  0  0  0  0
 17 19  2  0  0  0  0
 18 24  2  0  0  0  0
 19 12  1  0  0  0  0
 19 46  1  0  0  0  0
 20 11  2  0  0  0  0
 20 17  1  0  0  0  0
 20 47  1  0  0  0  0
 21 13  2  0  0  0  0
 21 48  1  0  0  0  0
 22 13  1  0  0  0  0
 22 49  1  0  0  0  0
 23 22  2  0  0  0  0
 23 18  1  0  0  0  0
 23 50  1  0  0  0  0
 24 21  1  0  0  0  0
 24 51  1  0  0  0  0
 25 18  1  0  0  0  0
 26 29  1  0  0  0  0
 26 52  1  0  0  0  0
 26 53  1  0  0  0  0
 27 14  1  0  0  0  0
 27 54  1  0  0  0  0
 28 17  1  0  0  0  0
 28 55  1  0  0  0  0
 29 25  1  0  0  0  0
 29 56  1  0  0  0  0
 29 57  1  0  0  0  0
 30 10  1  0  0  0  0
 30 58  1  0  0  0  0
 30 59  1  0  0  0  0
 31 10  1  0  0  0  0
 31 60  1  0  0  0  0
 31 61  1  0  0  0  0
 32 31  1  0  0  0  0
 32 62  1  0  0  0  0
 32 63  1  0  0  0  0
 33 30  1  0  0  0  0
 33 64  1  0  0  0  0
 33 65  1  0  0  0  0
 34 33  1  0  0  0  0
 34 66  1  0  0  0  0
 34 67  1  0  0  0  0
 35 32  1  0  0  0  0
 35 34  1  0  0  0  0
 35 68  1  0  0  0  0
 35 69  1  0  0  0  0
M  END
>  <DRUGBANK_ID>
DB06401

>  <COMMON_NAME>
Bazedoxifene

>  <CAS_NUMBER>
198481-32-2

>  <UNII>
Q16TT9C5BK

>  <SYNONYMS>
Bazedoxifene; Bazedoxifeno

$$$$
