
 OpenBabel10282417133D

 12 11  0  0  0  0  0  0  0  0999 V2000
    1.0200    0.0384    0.0785 C   0  0  0  0  0  0  0  0  0  0  0  0
    0.5288    1.4530    0.3172 C   0  0  0  0  0  0  0  0  0  0  0  0
    1.1541    2.6100   -0.8938 S   0  0  0  0  0  0  0  0  0  0  0  0
    0.4638    1.9588   -2.2037 O   0  0  0  0  0  0  0  0  0  0  0  0
    0.5512    3.9044   -0.6631 O   0  0  0  0  0  0  0  0  0  0  0  0
    2.5792    2.4313   -1.0341 O   0  0  0  0  0  0  0  0  0  0  0  0
    0.6733   -0.3482   -0.8848 H   0  0  0  0  0  0  0  0  0  0  0  0
    0.6520   -0.6303    0.8623 H   0  0  0  0  0  0  0  0  0  0  0  0
    2.1138   -0.0049    0.0820 H   0  0  0  0  0  0  0  0  0  0  0  0
   -0.5640    1.5017    0.2928 H   0  0  0  0  0  0  0  0  0  0  0  0
    0.8700    1.8100    1.2933 H   0  0  0  0  0  0  0  0  0  0  0  0
    1.0332    1.2470   -2.5633 H   0  0  0  0  0  0  0  0  0  0  0  0
  1  2  1  0  0  0  0
  1  7  1  0  0  0  0
  1  8  1  0  0  0  0
  1  9  1  0  0  0  0
  2  3  1  0  0  0  0
  2 10  1  0  0  0  0
  2 11  1  0  0  0  0
  3  4  1  0  0  0  0
  4 12  1  0  0  0  0
  5  3  2  0  0  0  0
  6  3  2  0  0  0  0
M  END
>  <DRUGBANK_ID>
DB03635

>  <SECONDARY_ACCESSION_NUMBERS>
EXPT01359

>  <COMMON_NAME>
Ethanesulfonic acid

>  <CAS_NUMBER>
594-45-6

>  <UNII>
599310E3U2

>  <SYNONYMS>
1-ethanesulfonic acid; 2-ethanesulfonic acid; Ethane sulphonic acid; Ethanesulphonic acid; Ethylsulfonic acid; Ethylsulphonic acid

$$$$
