
 OpenBabel10282417213D

 51 52  0  0  0  0  0  0  0  0999 V2000
    1.1652   -0.6212    0.1006 C   0  0  0  0  0  0  0  0  0  0  0  0
    0.7688    2.4611   -3.8834 C   0  0  0  0  0  0  0  0  0  0  0  0
    0.7053   -0.3621   -1.3687 C   0  0  0  0  0  0  0  0  0  0  0  0
    0.5917    0.8695   -3.7635 C   0  0  0  0  0  0  0  0  0  0  0  0
    5.5296    7.2509   -0.2792 C   0  0  0  0  0  0  0  0  0  0  0  0
    5.1476    5.9492    0.0263 C   0  0  0  0  0  0  0  0  0  0  0  0
    4.7108    8.3210    0.0814 C   0  0  0  0  0  0  0  0  0  0  0  0
   -1.9579    2.8548    0.3024 C   0  0  0  0  0  0  0  0  0  0  0  0
   -1.6649    1.8729   -0.5674 C   0  0  0  0  0  0  0  0  0  0  0  0
    3.9520    5.7222    0.7044 C   0  0  0  0  0  0  0  0  0  0  0  0
    3.5084    8.0949    0.7476 C   0  0  0  0  0  0  0  0  0  0  0  0
   -0.9740    3.8236    0.5199 C   0  0  0  0  0  0  0  0  0  0  0  0
   -0.4428    1.9854   -1.1994 C   0  0  0  0  0  0  0  0  0  0  0  0
    1.6732    6.5494    1.4651 C   0  0  0  0  0  0  0  0  0  0  0  0
    0.7659    6.2314    0.2910 C   0  0  0  0  0  0  0  0  0  0  0  0
    2.6518    0.2675   -2.5407 C   0  0  0  0  0  0  0  0  0  0  0  0
    2.8840    1.7356   -2.0654 C   0  0  0  0  0  0  0  0  0  0  0  0
    3.0947    6.7907    1.0211 C   0  0  0  0  0  0  0  0  0  0  0  0
    0.3484    3.7418   -0.0440 C   0  0  0  0  0  0  0  0  0  0  0  0
    1.1510    4.9413   -0.3187 C   0  0  0  0  0  0  0  0  0  0  0  0
    0.7137    2.6643   -0.7961 C   0  0  0  0  0  0  0  0  0  0  0  0
    1.2676   -0.1290   -2.7546 N   0  0  0  0  0  0  0  0  0  0  0  0
    2.0792    4.9126   -1.1700 O   0  0  0  0  0  0  0  0  0  0  0  0
    2.0593    2.4102   -1.0418 O   0  0  0  0  0  0  0  0  0  0  0  0
    0.8696   -1.6036    0.4447 H   0  0  0  0  0  0  0  0  0  0  0  0
    0.6540    0.1085    0.7760 H   0  0  0  0  0  0  0  0  0  0  0  0
    2.2272   -0.4162    0.2795 H   0  0  0  0  0  0  0  0  0  0  0  0
    1.7711    2.7678   -4.1746 H   0  0  0  0  0  0  0  0  0  0  0  0
    0.1216    2.8887   -4.6560 H   0  0  0  0  0  0  0  0  0  0  0  0
    0.5019    3.0781   -3.0271 H   0  0  0  0  0  0  0  0  0  0  0  0
   -0.3770   -0.5071   -1.3894 H   0  0  0  0  0  0  0  0  0  0  0  0
    0.9859    0.6080   -1.1114 H   0  0  0  0  0  0  0  0  0  0  0  0
    0.9115    0.5288   -4.7507 H   0  0  0  0  0  0  0  0  0  0  0  0
   -0.4949    0.6835   -3.7850 H   0  0  0  0  0  0  0  0  0  0  0  0
    6.4597    7.4297   -0.8092 H   0  0  0  0  0  0  0  0  0  0  0  0
    5.7443    5.1055   -0.3108 H   0  0  0  0  0  0  0  0  0  0  0  0
    4.9891    9.3340   -0.1902 H   0  0  0  0  0  0  0  0  0  0  0  0
   -2.9797    2.9274    0.6509 H   0  0  0  0  0  0  0  0  0  0  0  0
   -2.3372    1.0688   -0.8601 H   0  0  0  0  0  0  0  0  0  0  0  0
    3.6438    4.6901    0.8682 H   0  0  0  0  0  0  0  0  0  0  0  0
    2.8735    8.9345    1.0161 H   0  0  0  0  0  0  0  0  0  0  0  0
   -1.3145    4.6824    1.0736 H   0  0  0  0  0  0  0  0  0  0  0  0
   -0.4876    1.3751   -2.0597 H   0  0  0  0  0  0  0  0  0  0  0  0
    1.2686    7.4468    1.9441 H   0  0  0  0  0  0  0  0  0  0  0  0
    1.6449    5.7468    2.2112 H   0  0  0  0  0  0  0  0  0  0  0  0
    0.7850    6.9724   -0.5156 H   0  0  0  0  0  0  0  0  0  0  0  0
   -0.2691    6.2094    0.6225 H   0  0  0  0  0  0  0  0  0  0  0  0
    3.0896   -0.4227   -1.8070 H   0  0  0  0  0  0  0  0  0  0  0  0
    3.1932    0.0380   -3.4674 H   0  0  0  0  0  0  0  0  0  0  0  0
    3.9174    1.7211   -1.6794 H   0  0  0  0  0  0  0  0  0  0  0  0
    3.0269    2.3931   -2.9208 H   0  0  0  0  0  0  0  0  0  0  0  0
  1 25  1  0  0  0  0
  1 26  1  0  0  0  0
  1 27  1  0  0  0  0
  2 28  1  0  0  0  0
  2 29  1  0  0  0  0
  2 30  1  0  0  0  0
  3  1  1  0  0  0  0
  3 31  1  0  0  0  0
  3 32  1  0  0  0  0
  4  2  1  0  0  0  0
  4 33  1  0  0  0  0
  4 34  1  0  0  0  0
  5 35  1  0  0  0  0
  6  5  2  0  0  0  0
  6 36  1  0  0  0  0
  7  5  1  0  0  0  0
  7 37  1  0  0  0  0
  8 38  1  0  0  0  0
  9  8  2  0  0  0  0
  9 39  1  0  0  0  0
 10  6  1  0  0  0  0
 10 40  1  0  0  0  0
 11  7  2  0  0  0  0
 11 41  1  0  0  0  0
 12  8  1  0  0  0  0
 12 42  1  0  0  0  0
 13  9  1  0  0  0  0
 13 43  1  0  0  0  0
 14 44  1  0  0  0  0
 14 45  1  0  0  0  0
 15 14  1  0  0  0  0
 15 46  1  0  0  0  0
 15 47  1  0  0  0  0
 16 48  1  0  0  0  0
 16 49  1  0  0  0  0
 17 16  1  0  0  0  0
 17 50  1  0  0  0  0
 17 51  1  0  0  0  0
 18 10  2  0  0  0  0
 18 11  1  0  0  0  0
 18 14  1  0  0  0  0
 19 12  2  0  0  0  0
 20 15  1  0  0  0  0
 20 19  1  0  0  0  0
 21 13  2  0  0  0  0
 21 19  1  0  0  0  0
 22  3  1  0  0  0  0
 22  4  1  0  0  0  0
 22 16  1  0  0  0  0
 23 20  2  0  0  0  0
 24 17  1  0  0  0  0
 24 21  1  0  0  0  0
M  END
>  <DRUGBANK_ID>
DB13845

>  <COMMON_NAME>
Etafenone

>  <CAS_NUMBER>
90-54-0

>  <UNII>
0I14K589E7

>  <SYNONYMS>
Etafenone

$$$$
