
 OpenBabel10282417173D

 36 38  0  0  0  0  0  0  0  0999 V2000
    0.9606   -0.1146    0.0637 C   0  0  0  0  0  0  0  0  0  0  0  0
    1.5842    4.2115  -10.1089 C   0  0  0  0  0  0  0  0  0  0  0  0
    2.7353    4.8845   -9.6559 C   0  0  0  0  0  0  0  0  0  0  0  0
    0.8119    3.4287   -9.2404 C   0  0  0  0  0  0  0  0  0  0  0  0
    3.1410    4.7778   -8.3279 C   0  0  0  0  0  0  0  0  0  0  0  0
    1.0083    3.0593   -2.0550 C   0  0  0  0  0  0  0  0  0  0  0  0
    1.2301    0.7504   -2.7217 C   0  0  0  0  0  0  0  0  0  0  0  0
    1.2033    3.4410   -3.3817 C   0  0  0  0  0  0  0  0  0  0  0  0
    1.3363    1.1243   -4.0546 C   0  0  0  0  0  0  0  0  0  0  0  0
    0.6215    2.5587   -6.7858 C   0  0  0  0  0  0  0  0  0  0  0  0
    0.4655    1.2712   -0.3492 C   0  0  3  0  0  0  0  0  0  0  0  0
    0.9607    1.6997   -1.7218 C   0  0  0  0  0  0  0  0  0  0  0  0
    1.2245    3.3174   -7.9256 C   0  0  0  0  0  0  0  0  0  0  0  0
    1.3244    2.4720   -4.3826 C   0  0  0  0  0  0  0  0  0  0  0  0
    2.3756    3.9826   -7.4989 C   0  0  0  0  0  0  0  0  0  0  0  0
    2.5889    3.6783   -6.0863 C   0  0  0  0  0  0  0  0  0  0  0  0
   -1.0603    1.2974   -0.3037 C   0  0  0  0  0  0  0  0  0  0  0  0
    1.5428    2.8581   -5.7049 N   0  0  0  0  0  0  0  0  0  0  0  0
    3.5466    4.0700   -5.4374 O   0  0  0  0  0  0  0  0  0  0  0  0
   -1.7436    1.9882    0.4373 O   0  0  0  0  0  0  0  0  0  0  0  0
   -1.6501    0.4599   -1.1863 O   0  0  0  0  0  0  0  0  0  0  0  0
    0.5965   -0.8948   -0.6150 H   0  0  0  0  0  0  0  0  0  0  0  0
    0.6035   -0.3853    1.0605 H   0  0  0  0  0  0  0  0  0  0  0  0
    2.0555   -0.1466    0.0587 H   0  0  0  0  0  0  0  0  0  0  0  0
    1.2940    4.3020  -11.1537 H   0  0  0  0  0  0  0  0  0  0  0  0
    3.3162    5.4889  -10.3484 H   0  0  0  0  0  0  0  0  0  0  0  0
   -0.0783    2.9231   -9.6004 H   0  0  0  0  0  0  0  0  0  0  0  0
    4.0207    5.2893   -7.9517 H   0  0  0  0  0  0  0  0  0  0  0  0
    0.8801    3.8292   -1.2961 H   0  0  0  0  0  0  0  0  0  0  0  0
    1.3410   -0.3034   -2.4876 H   0  0  0  0  0  0  0  0  0  0  0  0
    1.2123    4.4970   -3.6397 H   0  0  0  0  0  0  0  0  0  0  0  0
    1.4846    0.3579   -4.8081 H   0  0  0  0  0  0  0  0  0  0  0  0
    0.5923    1.4835   -6.9844 H   0  0  0  0  0  0  0  0  0  0  0  0
   -0.3733    2.9454   -6.5376 H   0  0  0  0  0  0  0  0  0  0  0  0
    0.8255    1.9908    0.3987 H   0  0  0  0  0  0  0  0  0  0  0  0
   -2.6131    0.6020   -1.0771 H   0  0  0  0  0  0  0  0  0  0  0  0
  1 22  1  0  0  0  0
  1 23  1  0  0  0  0
  1 24  1  0  0  0  0
  2 25  1  0  0  0  0
  3  2  2  0  0  0  0
  3 26  1  0  0  0  0
  4  2  1  0  0  0  0
  4 27  1  0  0  0  0
  5  3  1  0  0  0  0
  5 28  1  0  0  0  0
  6 29  1  0  0  0  0
  7 30  1  0  0  0  0
  8  6  1  0  0  0  0
  8 31  1  0  0  0  0
  9  7  2  0  0  0  0
  9 32  1  0  0  0  0
 10 33  1  0  0  0  0
 10 34  1  0  0  0  0
 11  1  1  0  0  0  0
 11 35  1  0  0  0  0
 12  6  2  0  0  0  0
 12  7  1  0  0  0  0
 12 11  1  0  0  0  0
 13  4  2  0  0  0  0
 13 10  1  0  0  0  0
 14  8  2  0  0  0  0
 14  9  1  0  0  0  0
 15  5  2  0  0  0  0
 15 13  1  0  0  0  0
 16 15  1  0  0  0  0
 17 11  1  0  0  0  0
 18 10  1  0  0  0  0
 18 14  1  0  0  0  0
 18 16  1  0  0  0  0
 19 16  2  0  0  0  0
 20 17  2  0  0  0  0
 21 17  1  0  0  0  0
 21 36  1  0  0  0  0
M  END
>  <DRUGBANK_ID>
DB08951

>  <COMMON_NAME>
Indoprofen

>  <CAS_NUMBER>
31842-01-0

>  <UNII>
CPE46ZU14N

>  <SYNONYMS>
Indoprofen; indoprofeno

$$$$
