
 OpenBabel10282417203D

 52 54  0  0  1  0  0  0  0  0999 V2000
    0.9554    0.0702    0.0195 C   0  0  0  0  0  0  0  0  0  0  0  0
    1.9759    0.5753   -5.6924 C   0  0  0  0  0  0  0  0  0  0  0  0
   -4.3811   -8.3298   -3.6815 C   0  0  0  0  0  0  0  0  0  0  0  0
    0.8995   -7.2488   -4.5937 C   0  0  0  0  0  0  0  0  0  0  0  0
    1.6440   -4.3198   -3.0034 C   0  0  0  0  0  0  0  0  0  0  0  0
   -3.3153   -2.7416   -1.8409 C   0  0  0  0  0  0  0  0  0  0  0  0
    0.0224   -2.8502   -3.3511 C   0  0  0  0  0  0  0  0  0  0  0  0
   -2.3767   -1.1108   -1.5972 C   0  0  0  0  0  0  0  0  0  0  0  0
   -0.6545   -2.5049   -4.9739 C   0  0  0  0  0  0  0  0  0  0  0  0
   -3.3599   -5.5756   -2.8140 C   0  0  0  0  0  0  0  0  0  0  0  0
    1.2063   -1.5208   -4.2424 C   0  0  0  0  0  0  0  0  0  0  0  0
   -2.7477   -4.2441   -2.4650 C   0  0  0  0  0  0  0  0  0  0  0  0
   -1.0567   -2.6335   -2.6608 C   0  0  0  0  0  0  0  0  0  0  0  0
   -0.1782   -1.1972   -3.2420 C   0  0  0  0  0  0  0  0  0  0  0  0
   -0.6750   -0.9556   -1.5484 C   0  0  1  0  0  0  0  0  0  0  0  0
    0.8690   -2.1837   -5.9035 C   0  0  0  0  0  0  0  0  0  0  0  0
   -0.2158   -1.3112   -5.8005 C   0  0  0  0  0  0  0  0  0  0  0  0
   -2.5965   -6.6626   -3.4458 C   0  0  0  0  0  0  0  0  0  0  0  0
   -1.4157   -4.0962   -2.8139 C   0  0  0  0  0  0  0  0  0  0  0  0
   -1.2191   -6.4721   -3.6755 C   0  0  0  0  0  0  0  0  0  0  0  0
   -0.6402   -5.2500   -3.2686 C   0  0  0  0  0  0  0  0  0  0  0  0
    0.5143   -1.1386   -0.6147 N   0  0  0  0  0  0  0  0  0  0  0  0
    1.0488   -3.1153   -6.6633 O   0  0  0  0  0  0  0  0  0  0  0  0
    0.4520    0.1545   -5.3061 O   0  0  0  0  0  0  0  0  0  0  0  0
   -3.0371   -7.9136   -3.8596 O   0  0  0  0  0  0  0  0  0  0  0  0
   -0.4915   -7.4923   -4.3019 O   0  0  0  0  0  0  0  0  0  0  0  0
    0.7321   -5.2877   -3.3939 O   0  0  0  0  0  0  0  0  0  0  0  0
   -1.0142   -1.6466   -0.6887 H   0  0  0  0  0  0  0  0  0  0  0  0
    0.5828    0.1616    1.0435 H   0  0  0  0  0  0  0  0  0  0  0  0
    0.6611    0.9217   -0.5834 H   0  0  0  0  0  0  0  0  0  0  0  0
    2.0500    0.0530    0.0845 H   0  0  0  0  0  0  0  0  0  0  0  0
    2.8700   -0.1325   -5.7119 H   0  0  0  0  0  0  0  0  0  0  0  0
    1.7987    0.8316   -6.7085 H   0  0  0  0  0  0  0  0  0  0  0  0
    2.3957    1.4170   -5.0860 H   0  0  0  0  0  0  0  0  0  0  0  0
   -4.6363   -8.3563   -2.6211 H   0  0  0  0  0  0  0  0  0  0  0  0
   -5.0570   -7.6916   -4.2523 H   0  0  0  0  0  0  0  0  0  0  0  0
   -4.5095   -9.3573   -4.0665 H   0  0  0  0  0  0  0  0  0  0  0  0
    1.0196   -6.3933   -5.2809 H   0  0  0  0  0  0  0  0  0  0  0  0
    1.4728   -7.1267   -3.6606 H   0  0  0  0  0  0  0  0  0  0  0  0
    1.3756   -8.1003   -5.0742 H   0  0  0  0  0  0  0  0  0  0  0  0
    1.5593   -3.6972   -3.8810 H   0  0  0  0  0  0  0  0  0  0  0  0
    1.3932   -3.9135   -2.0049 H   0  0  0  0  0  0  0  0  0  0  0  0
    2.6995   -4.2903   -3.2225 H   0  0  0  0  0  0  0  0  0  0  0  0
   -3.8377   -2.4145   -2.7487 H   0  0  0  0  0  0  0  0  0  0  0  0
   -4.1706   -2.9920   -1.1864 H   0  0  0  0  0  0  0  0  0  0  0  0
    1.0401   -2.2093   -2.6097 H   0  0  0  0  0  0  0  0  0  0  0  0
   -3.2377   -0.4363   -1.6183 H   0  0  0  0  0  0  0  0  0  0  0  0
   -2.2281   -0.2679   -0.8737 H   0  0  0  0  0  0  0  0  0  0  0  0
   -0.5657   -3.6039   -5.2658 H   0  0  0  0  0  0  0  0  0  0  0  0
   -4.4139   -5.8184   -2.6475 H   0  0  0  0  0  0  0  0  0  0  0  0
    2.0066   -1.3011   -4.9389 H   0  0  0  0  0  0  0  0  0  0  0  0
    1.3226   -1.5639   -1.0508 H   0  0  0  0  0  0  0  0  0  0  0  0
  1 29  1  0  0  0  0
  1 30  1  0  0  0  0
  1 31  1  0  0  0  0
  2 32  1  0  0  0  0
  2 33  1  0  0  0  0
  2 34  1  0  0  0  0
  3 35  1  0  0  0  0
  3 36  1  0  0  0  0
  3 37  1  0  0  0  0
  4 38  1  0  0  0  0
  4 39  1  0  0  0  0
  4 40  1  0  0  0  0
  5 41  1  0  0  0  0
  5 42  1  0  0  0  0
  5 43  1  0  0  0  0
  6 44  1  0  0  0  0
  6 45  1  0  0  0  0
  7 46  1  0  0  0  0
  8  6  1  0  0  0  0
  8 47  1  0  0  0  0
  8 48  1  0  0  0  0
  9  7  1  0  0  0  0
  9 49  1  0  0  0  0
 10 50  1  0  0  0  0
 11 51  1  0  0  0  0
 12  6  1  0  0  0  0
 12 10  2  0  0  0  0
 13  7  2  0  0  0  0
 14 11  2  0  0  0  0
 14 13  1  0  0  0  0
 15  8  1  0  0  0  0
 15 14  1  0  0  0  0
 15 22  1  0  0  0  0
 15 28  1  1  0  0  0
 16 11  1  0  0  0  0
 17  9  2  0  0  0  0
 17 16  1  0  0  0  0
 18 10  1  0  0  0  0
 19 12  1  0  0  0  0
 19 13  1  0  0  0  0
 20 18  2  0  0  0  0
 21 19  2  0  0  0  0
 21 20  1  0  0  0  0
 22  1  1  0  0  0  0
 22 52  1  0  0  0  0
 23 16  2  0  0  0  0
 24  2  1  0  0  0  0
 24 17  1  0  0  0  0
 25  3  1  0  0  0  0
 25 18  1  0  0  0  0
 26  4  1  0  0  0  0
 26 20  1  0  0  0  0
 27  5  1  0  0  0  0
 27 21  1  0  0  0  0
M  END
>  <DRUGBANK_ID>
DB13318

>  <COMMON_NAME>
Demecolcine

>  <CAS_NUMBER>
477-30-5

>  <UNII>
Z01IVE25KI

>  <SYNONYMS>
demecolcina; Demecolcine

$$$$
