ECG
 OpenBabel10282417143D

 31 32  0  0  0  0  0  0  0  0999 V2000
    1.3448    0.7406   -0.7348 C   0  0  0  0  0  0  0  0  0  0  0  0
    0.4038    1.1628    0.3873 C   0  0  1  0  0  0  0  0  0  0  0  0
   -1.0239    1.3389   -0.1529 C   0  0  0  0  0  0  0  0  0  0  0  0
   -1.8236    0.0467   -0.3991 C   0  0  2  0  0  0  0  0  0  0  0  0
   -3.1059    0.2014    0.2256 O   0  0  0  0  0  0  0  0  0  0  0  0
    1.2749   -0.7847   -0.7185 C   0  0  0  0  0  0  0  0  0  0  0  0
    0.3179   -1.1375    0.4512 C   0  0  1  0  0  0  0  0  0  0  0  0
    0.5402    0.0356    1.3137 N   0  0  0  0  0  0  0  0  0  0  0  0
   -1.1492   -1.2941   -0.0279 C   0  0  1  0  0  0  0  0  0  0  0  0
   -2.0092   -2.0720    0.9879 C   0  0  0  0  0  0  0  0  0  0  0  0
   -2.5813   -3.2386    0.6345 O   0  0  0  0  0  0  0  0  0  0  0  0
   -2.5366   -3.7291   -0.6933 C   0  0  0  0  0  0  0  0  0  0  0  0
   -2.2747   -1.6425    2.0992 O   0  0  0  0  0  0  0  0  0  0  0  0
   -0.3297    0.1431    2.4774 C   0  0  0  0  0  0  0  0  0  0  0  0
    0.7466    2.0984    0.8427 H   0  0  0  0  0  0  0  0  0  0  0  0
   -2.0611    0.0091   -1.4693 H   0  0  0  0  0  0  0  0  0  0  0  0
    0.6653   -2.0685    0.9162 H   0  0  0  0  0  0  0  0  0  0  0  0
   -1.0815   -1.8601   -0.9620 H   0  0  0  0  0  0  0  0  0  0  0  0
    1.0574    1.1514   -1.7082 H   0  0  0  0  0  0  0  0  0  0  0  0
    2.3689    1.0780   -0.5288 H   0  0  0  0  0  0  0  0  0  0  0  0
   -0.9711    1.8849   -1.1043 H   0  0  0  0  0  0  0  0  0  0  0  0
   -1.5809    1.9951    0.5257 H   0  0  0  0  0  0  0  0  0  0  0  0
   -2.9990    0.0572    1.1909 H   0  0  0  0  0  0  0  0  0  0  0  0
    0.9483   -1.1744   -1.6883 H   0  0  0  0  0  0  0  0  0  0  0  0
    2.2837   -1.1788   -0.5345 H   0  0  0  0  0  0  0  0  0  0  0  0
   -2.9467   -2.9936   -1.3912 H   0  0  0  0  0  0  0  0  0  0  0  0
   -1.5067   -3.9987   -0.9316 H   0  0  0  0  0  0  0  0  0  0  0  0
   -3.1576   -4.6251   -0.7188 H   0  0  0  0  0  0  0  0  0  0  0  0
   -1.3539    0.3762    2.1982 H   0  0  0  0  0  0  0  0  0  0  0  0
   -0.3142   -0.7810    3.0653 H   0  0  0  0  0  0  0  0  0  0  0  0
   -0.0513    0.9593    3.1462 H   0  0  0  0  0  0  0  0  0  0  0  0
  1  2  1  0  0  0  0
  1  6  1  0  0  0  0
  1 19  1  0  0  0  0
  1 20  1  0  0  0  0
  2  3  1  0  0  0  0
  2  8  1  0  0  0  0
  2 15  1  1  0  0  0
  3  4  1  0  0  0  0
  3 21  1  0  0  0  0
  3 22  1  0  0  0  0
  4  5  1  0  0  0  0
  4  9  1  0  0  0  0
  4 16  1  6  0  0  0
  5 23  1  0  0  0  0
  6  7  1  0  0  0  0
  6 24  1  0  0  0  0
  6 25  1  0  0  0  0
  7  8  1  0  0  0  0
  7  9  1  0  0  0  0
  7 17  1  1  0  0  0
  8 14  1  0  0  0  0
  9 10  1  0  0  0  0
  9 18  1  6  0  0  0
 10 11  1  0  0  0  0
 10 13  2  0  0  0  0
 11 12  1  0  0  0  0
 12 26  1  0  0  0  0
 12 27  1  0  0  0  0
 12 28  1  0  0  0  0
 14 29  1  0  0  0  0
 14 30  1  0  0  0  0
 14 31  1  0  0  0  0
M  END
>  <DRUGBANK_ID>
DB04688

>  <COMMON_NAME>
Methylecgonine

>  <CAS_NUMBER>
7143-09-1

>  <UNII>
Y35FJB3QBJ

>  <SYNONYMS>
Ecgonine methyl ester

$$$$
