EMD
 OpenBabel10282417133D

 53 56  0  0  0  0  0  0  0  0999 V2000
    0.6029    1.6651   -0.2833 S   0  0  0  0  0  0  0  0  0  0  0  0
    1.5558    0.2512   -0.0359 C   0  0  0  0  0  0  0  0  0  0  0  0
    2.7816    0.3479    0.0371 O   0  0  0  0  0  0  0  0  0  0  0  0
    0.9388   -0.9683    0.0156 N   0  0  0  0  0  0  0  0  0  0  0  0
   -0.3807   -1.3144   -0.0347 N   0  0  0  0  0  0  0  0  0  0  0  0
   -1.2906   -0.3914   -0.0609 C   0  0  0  0  0  0  0  0  0  0  0  0
   -1.0535    1.0920    0.0238 C   0  0  1  0  0  0  0  0  0  0  0  0
   -1.4803    1.5599    1.4085 C   0  0  0  0  0  0  0  0  0  0  0  0
   -2.7375   -0.7790   -0.0669 C   0  0  0  0  0  0  0  0  0  0  0  0
   -3.5858   -0.2973   -1.0708 C   0  0  0  0  0  0  0  0  0  0  0  0
   -4.9752   -0.5260   -1.0175 C   0  0  0  0  0  0  0  0  0  0  0  0
   -5.5243   -1.2239    0.0766 C   0  0  0  0  0  0  0  0  0  0  0  0
   -4.6574   -1.6925    1.0769 C   0  0  0  0  0  0  0  0  0  0  0  0
   -3.2760   -1.4730    1.0142 C   0  0  0  0  0  0  0  0  0  0  0  0
   -6.9419   -1.4459    0.1424 N   0  0  0  0  0  0  0  0  0  0  0  0
   -7.6359   -1.3972   -1.1534 C   0  0  0  0  0  0  0  0  0  0  0  0
   -7.3204   -0.1139   -1.8893 C   0  0  0  0  0  0  0  0  0  0  0  0
   -5.8267   -0.0084   -2.1522 C   0  0  0  0  0  0  0  0  0  0  0  0
   -7.5984   -1.5849    1.3777 C   0  0  0  0  0  0  0  0  0  0  0  0
   -7.0789   -1.4975    2.4891 O   0  0  0  0  0  0  0  0  0  0  0  0
   -9.0498   -1.8505    1.4006 C   0  0  0  0  0  0  0  0  0  0  0  0
   -9.5352   -2.9950    0.7730 C   0  0  0  0  0  0  0  0  0  0  0  0
  -10.8854   -3.3340    0.8589 C   0  0  0  0  0  0  0  0  0  0  0  0
  -11.3910   -4.4473    0.2510 O   0  0  0  0  0  0  0  0  0  0  0  0
  -11.7560   -2.5266    1.6156 C   0  0  0  0  0  0  0  0  0  0  0  0
  -13.1125   -2.6927    1.7706 O   0  0  0  0  0  0  0  0  0  0  0  0
  -11.2385   -1.4152    2.3037 C   0  0  0  0  0  0  0  0  0  0  0  0
   -9.8969   -1.0507    2.1663 C   0  0  0  0  0  0  0  0  0  0  0  0
  -10.5103   -5.2780   -0.4831 C   0  0  0  0  0  0  0  0  0  0  0  0
  -13.7395   -3.7098    0.9927 C   0  0  0  0  0  0  0  0  0  0  0  0
   -1.6545    1.5725   -0.7535 H   0  0  0  0  0  0  0  0  0  0  0  0
    1.5903   -1.7467    0.0459 H   0  0  0  0  0  0  0  0  0  0  0  0
   -1.2861    2.6248    1.5569 H   0  0  0  0  0  0  0  0  0  0  0  0
   -2.5541    1.4037    1.5612 H   0  0  0  0  0  0  0  0  0  0  0  0
   -0.9623    0.9891    2.1891 H   0  0  0  0  0  0  0  0  0  0  0  0
   -3.1756    0.2790   -1.8970 H   0  0  0  0  0  0  0  0  0  0  0  0
   -5.0369   -2.2606    1.9228 H   0  0  0  0  0  0  0  0  0  0  0  0
   -2.6518   -1.8102    1.8383 H   0  0  0  0  0  0  0  0  0  0  0  0
   -8.7187   -1.4563   -1.0425 H   0  0  0  0  0  0  0  0  0  0  0  0
   -7.3226   -2.2783   -1.7302 H   0  0  0  0  0  0  0  0  0  0  0  0
   -7.8715   -0.0770   -2.8362 H   0  0  0  0  0  0  0  0  0  0  0  0
   -7.6566    0.7365   -1.2839 H   0  0  0  0  0  0  0  0  0  0  0  0
   -5.5775   -0.5866   -3.0503 H   0  0  0  0  0  0  0  0  0  0  0  0
   -5.5852    1.0419   -2.3575 H   0  0  0  0  0  0  0  0  0  0  0  0
   -8.8323   -3.6052    0.2187 H   0  0  0  0  0  0  0  0  0  0  0  0
  -11.8827   -0.8367    2.9637 H   0  0  0  0  0  0  0  0  0  0  0  0
   -9.5122   -0.1625    2.6634 H   0  0  0  0  0  0  0  0  0  0  0  0
  -10.0997   -4.7358   -1.3403 H   0  0  0  0  0  0  0  0  0  0  0  0
   -9.7204   -5.6766    0.1609 H   0  0  0  0  0  0  0  0  0  0  0  0
  -11.0941   -6.1202   -0.8613 H   0  0  0  0  0  0  0  0  0  0  0  0
  -13.5666   -3.5605   -0.0807 H   0  0  0  0  0  0  0  0  0  0  0  0
  -13.4187   -4.7019    1.3284 H   0  0  0  0  0  0  0  0  0  0  0  0
  -14.8200   -3.6612    1.1478 H   0  0  0  0  0  0  0  0  0  0  0  0
  1  2  1  0  0  0  0
  1  7  1  0  0  0  0
  2  3  2  0  0  0  0
  2  4  1  0  0  0  0
  4  5  1  0  0  0  0
  4 32  1  0  0  0  0
  5  6  2  0  0  0  0
  6  7  1  0  0  0  0
  6  9  1  0  0  0  0
  7  8  1  0  0  0  0
  7 31  1  6  0  0  0
  8 33  1  0  0  0  0
  8 34  1  0  0  0  0
  8 35  1  0  0  0  0
  9 10  2  0  0  0  0
  9 14  1  0  0  0  0
 10 11  1  0  0  0  0
 10 36  1  0  0  0  0
 11 12  2  0  0  0  0
 11 18  1  0  0  0  0
 12 13  1  0  0  0  0
 12 15  1  0  0  0  0
 13 14  2  0  0  0  0
 13 37  1  0  0  0  0
 14 38  1  0  0  0  0
 15 16  1  0  0  0  0
 15 19  1  0  0  0  0
 16 17  1  0  0  0  0
 16 39  1  0  0  0  0
 16 40  1  0  0  0  0
 17 18  1  0  0  0  0
 17 41  1  0  0  0  0
 17 42  1  0  0  0  0
 18 43  1  0  0  0  0
 18 44  1  0  0  0  0
 19 20  2  0  0  0  0
 19 21  1  0  0  0  0
 21 22  2  0  0  0  0
 21 28  1  0  0  0  0
 22 23  1  0  0  0  0
 22 45  1  0  0  0  0
 23 24  1  0  0  0  0
 23 25  2  0  0  0  0
 24 29  1  0  0  0  0
 25 26  1  0  0  0  0
 25 27  1  0  0  0  0
 26 30  1  0  0  0  0
 27 28  2  0  0  0  0
 27 46  1  0  0  0  0
 28 47  1  0  0  0  0
 29 48  1  0  0  0  0
 29 49  1  0  0  0  0
 29 50  1  0  0  0  0
 30 51  1  0  0  0  0
 30 52  1  0  0  0  0
 30 53  1  0  0  0  0
M  END
>  <DRUGBANK_ID>
DB03944

>  <SECONDARY_ACCESSION_NUMBERS>
EXPT01339

>  <COMMON_NAME>
5-[1-(3,4-Dimethoxy-Benzoyl)-1,2,3,4-Tetrahydro-Quinolin-6-Yl]-6-Methyl-3,6-Dihydro-[1,3,4]Thiadiazin-2-One

$$$$
