
 OpenBabel10282417153D

139144  0  0  1  0  0  0  0  0999 V2000
   -9.7877  -16.0141    6.4029 C   0  0  0  0  0  0  0  0  0  0  0  0
   -8.6365  -15.5826    5.5047 N   0  3  1  0  0  0  0  0  0  0  0  0
   -8.3016  -16.6990    4.5220 C   0  0  0  0  0  0  0  0  0  0  0  0
   -9.4732  -17.1159    3.6808 C   0  0  0  0  0  0  0  0  0  0  0  0
  -10.2214  -15.9480    3.1024 C   0  0  0  0  0  0  0  0  0  0  0  0
  -11.0520  -16.2021    2.0331 C   0  0  0  0  0  0  0  0  0  0  0  0
  -11.7690  -15.1796    1.4127 C   0  0  0  0  0  0  0  0  0  0  0  0
  -11.6041  -13.8492    1.8226 C   0  0  0  0  0  0  0  0  0  0  0  0
  -10.7590  -13.5861    2.8914 C   0  0  0  0  0  0  0  0  0  0  0  0
  -10.1577  -14.6433    3.6025 C   0  0  0  0  0  0  0  0  0  0  0  0
   -9.2035  -14.3266    4.7281 C   0  0  1  0  0  0  0  0  0  0  0  0
   -9.6711  -13.1210    5.7448 C   0  0  0  0  0  0  0  0  0  0  0  0
   -8.8416  -12.6800    7.0060 C   0  0  0  0  0  0  0  0  0  0  0  0
   -7.5957  -12.0312    6.8875 C   0  0  0  0  0  0  0  0  0  0  0  0
   -6.5153  -11.9911    7.7528 C   0  0  0  0  0  0  0  0  0  0  0  0
   -6.8094  -12.1861    9.0381 C   0  0  0  0  0  0  0  0  0  0  0  0
   -8.1006  -12.7267    9.3082 C   0  0  0  0  0  0  0  0  0  0  0  0
   -9.0877  -13.0249    8.3057 C   0  0  0  0  0  0  0  0  0  0  0  0
   -8.5178  -13.0781   10.5617 O   0  0  0  0  0  0  0  0  0  0  0  0
   -7.5751  -12.7144   11.5552 C   0  0  0  0  0  0  0  0  0  0  0  0
   -5.8525  -11.9133    9.9878 O   0  0  0  0  0  0  0  0  0  0  0  0
   -4.6015  -11.2668    9.6880 C   0  0  0  0  0  0  0  0  0  0  0  0
   -5.1793  -11.9666    7.5418 O   0  0  0  0  0  0  0  0  0  0  0  0
   -4.5437  -11.5977    6.3937 C   0  0  0  0  0  0  0  0  0  0  0  0
  -12.1992  -12.7245    1.3115 O   0  0  0  0  0  0  0  0  0  0  0  0
  -13.1659  -12.9442    0.2893 C   0  0  0  0  0  0  0  0  0  0  0  0
  -12.6392  -15.4443    0.4017 O   0  0  0  0  0  0  0  0  0  0  0  0
  -12.8143  -16.7935    0.0165 C   0  0  0  0  0  0  0  0  0  0  0  0
   -7.3692  -15.3259    6.4050 C   0  0  0  0  0  0  0  0  0  0  0  0
   -5.9804  -15.5992    5.7844 C   0  0  0  0  0  0  0  0  0  0  0  0
   -5.5428  -14.9362    4.3929 C   0  0  0  0  0  0  0  0  0  0  0  0
   -5.2897  -13.4752    4.1105 O   0  0  0  0  0  0  0  0  0  0  0  0
   -6.4037  -12.7159    4.2141 C   0  0  0  0  0  0  0  0  0  0  0  0
   -7.2456  -13.3024    4.8981 O   0  0  0  0  0  0  0  0  0  0  0  0
   -6.7122  -11.2683    3.9150 C   0  0  0  0  0  0  0  0  0  0  0  0
   -5.6105  -10.5591    4.0169 C   0  0  0  0  0  0  0  0  0  0  0  0
   -5.3903   -9.4542    4.9931 C   0  0  0  0  0  0  0  0  0  0  0  0
   -4.1826   -9.2989    5.0979 O   0  0  0  0  0  0  0  0  0  0  0  0
   -6.3636   -8.7989    5.6648 O   0  0  0  0  0  0  0  0  0  0  0  0
   -6.3257   -7.3832    6.0091 C   0  0  0  0  0  0  0  0  0  0  0  0
   -5.1490   -6.7715    6.7050 C   0  0  0  0  0  0  0  0  0  0  0  0
   -3.8071   -7.1330    6.1211 C   0  0  0  0  0  0  0  0  0  0  0  0
   -3.4553   -6.7379    4.5885 N   0  3  1  0  0  0  0  0  0  0  0  0
   -3.6410   -7.7488    3.3216 C   0  0  0  0  0  0  0  0  0  0  0  0
   -5.0532   -7.9193    2.7728 C   0  0  0  0  0  0  0  0  0  0  0  0
   -6.0276   -6.8152    2.9027 C   0  0  0  0  0  0  0  0  0  0  0  0
   -7.4009   -7.1956    2.8777 C   0  0  0  0  0  0  0  0  0  0  0  0
   -8.4111   -6.3205    3.2217 C   0  0  0  0  0  0  0  0  0  0  0  0
   -8.0366   -5.0373    3.6379 C   0  0  0  0  0  0  0  0  0  0  0  0
   -6.6783   -4.7344    3.8706 C   0  0  0  0  0  0  0  0  0  0  0  0
   -5.6479   -5.6424    3.5603 C   0  0  0  0  0  0  0  0  0  0  0  0
   -4.1946   -5.4353    4.0967 C   0  0  2  0  0  0  0  0  0  0  0  0
   -3.4738   -4.7154    2.9973 C   0  0  0  0  0  0  0  0  0  0  0  0
   -4.0105   -3.5177    2.5695 C   0  0  0  0  0  0  0  0  0  0  0  0
   -3.5201   -2.9104    1.4394 C   0  0  0  0  0  0  0  0  0  0  0  0
   -2.4206   -3.4747    0.7602 C   0  0  0  0  0  0  0  0  0  0  0  0
   -1.8474   -4.6523    1.2043 C   0  0  0  0  0  0  0  0  0  0  0  0
   -2.3888   -5.2373    2.3023 C   0  0  0  0  0  0  0  0  0  0  0  0
   -0.8031   -5.3950    0.7310 O   0  0  0  0  0  0  0  0  0  0  0  0
   -0.1290   -4.8499   -0.3836 C   0  0  0  0  0  0  0  0  0  0  0  0
   -1.8262   -2.9626   -0.3423 O   0  0  0  0  0  0  0  0  0  0  0  0
   -2.3150   -1.7552   -0.8560 C   0  0  0  0  0  0  0  0  0  0  0  0
   -4.0876   -1.7774    0.9521 O   0  0  0  0  0  0  0  0  0  0  0  0
   -5.2121   -1.2137    1.5995 C   0  0  0  0  0  0  0  0  0  0  0  0
   -8.8774   -3.9901    3.9096 O   0  0  0  0  0  0  0  0  0  0  0  0
  -10.2456   -4.1944    3.5684 C   0  0  0  0  0  0  0  0  0  0  0  0
   -9.7261   -6.6739    3.2171 O   0  0  0  0  0  0  0  0  0  0  0  0
  -10.1264   -7.9641    2.7892 C   0  0  0  0  0  0  0  0  0  0  0  0
   -1.8932   -6.5322    4.7671 C   0  0  0  0  0  0  0  0  0  0  0  0
   -8.2264  -10.4287    4.3407 Cl  0  0  0  0  0  0  0  0  0  0  0  0
  -10.1795  -15.1547    6.9357 H   0  0  0  0  0  0  0  0  0  0  0  0
   -9.4241  -16.7538    7.1080 H   0  0  0  0  0  0  0  0  0  0  0  0
  -10.5968  -16.4074    5.7901 H   0  0  0  0  0  0  0  0  0  0  0  0
   -7.5570  -16.3576    3.8123 H   0  0  0  0  0  0  0  0  0  0  0  0
   -7.8730  -17.5334    5.0841 H   0  0  0  0  0  0  0  0  0  0  0  0
   -9.0752  -17.7496    2.8769 H   0  0  0  0  0  0  0  0  0  0  0  0
  -10.1474  -17.7305    4.2762 H   0  0  0  0  0  0  0  0  0  0  0  0
  -11.1375  -17.2346    1.7149 H   0  0  0  0  0  0  0  0  0  0  0  0
  -10.5728  -12.5418    3.1466 H   0  0  0  0  0  0  0  0  0  0  0  0
   -8.4724  -14.0865    3.9506 H   0  0  0  0  0  0  0  0  0  0  0  0
   -9.8350  -12.2291    5.1342 H   0  0  0  0  0  0  0  0  0  0  0  0
  -10.6912  -13.3701    6.0551 H   0  0  0  0  0  0  0  0  0  0  0  0
   -7.3950  -11.6665    5.9494 H   0  0  0  0  0  0  0  0  0  0  0  0
  -10.0144  -13.5212    8.5755 H   0  0  0  0  0  0  0  0  0  0  0  0
   -6.6554  -13.3051   11.4313 H   0  0  0  0  0  0  0  0  0  0  0  0
   -7.3932  -11.6284   11.5344 H   0  0  0  0  0  0  0  0  0  0  0  0
   -7.9921  -12.9596   12.5186 H   0  0  0  0  0  0  0  0  0  0  0  0
   -3.9193  -11.9433    9.1493 H   0  0  0  0  0  0  0  0  0  0  0  0
   -4.7371  -10.3125    9.1525 H   0  0  0  0  0  0  0  0  0  0  0  0
   -4.0841  -11.0614   10.6195 H   0  0  0  0  0  0  0  0  0  0  0  0
   -4.3812  -12.4224    5.7286 H   0  0  0  0  0  0  0  0  0  0  0  0
   -5.3104  -10.9683    6.0872 H   0  0  0  0  0  0  0  0  0  0  0  0
   -3.6167  -11.0094    6.4573 H   0  0  0  0  0  0  0  0  0  0  0  0
  -12.6824  -13.3658   -0.5985 H   0  0  0  0  0  0  0  0  0  0  0  0
  -13.9865  -13.5707    0.6593 H   0  0  0  0  0  0  0  0  0  0  0  0
  -13.6012  -11.9884   -0.0051 H   0  0  0  0  0  0  0  0  0  0  0  0
  -11.8766  -17.1982   -0.3773 H   0  0  0  0  0  0  0  0  0  0  0  0
  -13.1941  -17.3915    0.8520 H   0  0  0  0  0  0  0  0  0  0  0  0
  -13.5568  -16.8026   -0.7800 H   0  0  0  0  0  0  0  0  0  0  0  0
   -7.3335  -14.3280    6.7703 H   0  0  0  0  0  0  0  0  0  0  0  0
   -7.5246  -15.8922    7.3360 H   0  0  0  0  0  0  0  0  0  0  0  0
   -5.2329  -15.3663    6.5556 H   0  0  0  0  0  0  0  0  0  0  0  0
   -5.9311  -16.6999    5.6986 H   0  0  0  0  0  0  0  0  0  0  0  0
   -4.6620  -15.4935    4.0652 H   0  0  0  0  0  0  0  0  0  0  0  0
   -6.2929  -15.1593    3.6442 H   0  0  0  0  0  0  0  0  0  0  0  0
   -4.6769  -11.0537    3.7673 H   0  0  0  0  0  0  0  0  0  0  0  0
   -6.3187   -6.8951    5.0877 H   0  0  0  0  0  0  0  0  0  0  0  0
   -7.2931   -7.0194    6.3863 H   0  0  0  0  0  0  0  0  0  0  0  0
   -5.2195   -5.6726    6.7400 H   0  0  0  0  0  0  0  0  0  0  0  0
   -5.1859   -7.1056    7.7455 H   0  0  0  0  0  0  0  0  0  0  0  0
   -3.0834   -6.6209    6.7627 H   0  0  0  0  0  0  0  0  0  0  0  0
   -3.5219   -8.1505    6.3737 H   0  0  0  0  0  0  0  0  0  0  0  0
   -3.1935   -7.3308    2.4342 H   0  0  0  0  0  0  0  0  0  0  0  0
   -3.0229   -8.6397    3.4781 H   0  0  0  0  0  0  0  0  0  0  0  0
   -5.1385   -8.6294    1.9405 H   0  0  0  0  0  0  0  0  0  0  0  0
   -5.6048   -8.4645    3.4589 H   0  0  0  0  0  0  0  0  0  0  0  0
   -7.6485   -8.2527    2.7843 H   0  0  0  0  0  0  0  0  0  0  0  0
   -6.4464   -3.7894    4.3583 H   0  0  0  0  0  0  0  0  0  0  0  0
   -4.2104   -4.7965    4.9865 H   0  0  0  0  0  0  0  0  0  0  0  0
   -4.8653   -3.0999    3.0843 H   0  0  0  0  0  0  0  0  0  0  0  0
   -1.8835   -6.1585    2.5309 H   0  0  0  0  0  0  0  0  0  0  0  0
   -0.8110   -4.8170   -1.2380 H   0  0  0  0  0  0  0  0  0  0  0  0
    0.2877   -3.8733   -0.1192 H   0  0  0  0  0  0  0  0  0  0  0  0
    0.7010   -5.5036   -0.6477 H   0  0  0  0  0  0  0  0  0  0  0  0
   -3.3364   -1.9021   -1.2173 H   0  0  0  0  0  0  0  0  0  0  0  0
   -2.2181   -0.9626   -0.1082 H   0  0  0  0  0  0  0  0  0  0  0  0
   -1.6835   -1.5052   -1.7025 H   0  0  0  0  0  0  0  0  0  0  0  0
   -6.0722   -1.8891    1.5454 H   0  0  0  0  0  0  0  0  0  0  0  0
   -4.9755   -0.9430    2.6334 H   0  0  0  0  0  0  0  0  0  0  0  0
   -5.4530   -0.3008    1.0544 H   0  0  0  0  0  0  0  0  0  0  0  0
  -10.3602   -4.5289    2.5286 H   0  0  0  0  0  0  0  0  0  0  0  0
  -10.6988   -4.8928    4.2803 H   0  0  0  0  0  0  0  0  0  0  0  0
  -10.7765   -3.2479    3.6606 H   0  0  0  0  0  0  0  0  0  0  0  0
   -9.6268   -8.2842    1.8697 H   0  0  0  0  0  0  0  0  0  0  0  0
   -9.9648   -8.6681    3.6018 H   0  0  0  0  0  0  0  0  0  0  0  0
  -11.2021   -7.9443    2.5988 H   0  0  0  0  0  0  0  0  0  0  0  0
   -1.6566   -5.4743    4.6482 H   0  0  0  0  0  0  0  0  0  0  0  0
   -1.5418   -6.8258    5.7590 H   0  0  0  0  0  0  0  0  0  0  0  0
   -1.3683   -7.1973    4.0775 H   0  0  0  0  0  0  0  0  0  0  0  0
  1 71  1  0  0  0  0
  1 72  1  0  0  0  0
  1 73  1  0  0  0  0
  2  3  1  0  0  0  0
  2 11  1  0  0  0  0
  2 29  1  1  0  0  0
  2  1  1  0  0  0  0
  3  4  1  0  0  0  0
  3 74  1  0  0  0  0
  3 75  1  0  0  0  0
  4  5  1  0  0  0  0
  4 76  1  0  0  0  0
  4 77  1  0  0  0  0
  5  6  2  0  0  0  0
  5 10  1  0  0  0  0
  6  7  1  0  0  0  0
  6 78  1  0  0  0  0
  7  8  2  0  0  0  0
  7 27  1  0  0  0  0
  8  9  1  0  0  0  0
  8 25  1  0  0  0  0
  9 10  2  0  0  0  0
  9 79  1  0  0  0  0
 10 11  1  0  0  0  0
 11 12  1  0  0  0  0
 11 80  1  6  0  0  0
 12 13  1  0  0  0  0
 12 81  1  0  0  0  0
 12 82  1  0  0  0  0
 13 14  2  0  0  0  0
 13 18  1  0  0  0  0
 14 15  1  0  0  0  0
 14 83  1  0  0  0  0
 15 16  2  0  0  0  0
 15 23  1  0  0  0  0
 16 17  1  0  0  0  0
 16 21  1  0  0  0  0
 17 18  2  0  0  0  0
 17 19  1  0  0  0  0
 18 84  1  0  0  0  0
 19 20  1  0  0  0  0
 20 85  1  0  0  0  0
 20 86  1  0  0  0  0
 20 87  1  0  0  0  0
 21 22  1  0  0  0  0
 22 88  1  0  0  0  0
 22 89  1  0  0  0  0
 22 90  1  0  0  0  0
 23 24  1  0  0  0  0
 24 91  1  0  0  0  0
 24 92  1  0  0  0  0
 24 93  1  0  0  0  0
 25 26  1  0  0  0  0
 26 94  1  0  0  0  0
 26 95  1  0  0  0  0
 26 96  1  0  0  0  0
 27 28  1  0  0  0  0
 28 97  1  0  0  0  0
 28 98  1  0  0  0  0
 28 99  1  0  0  0  0
 29 30  1  0  0  0  0
 29100  1  0  0  0  0
 29101  1  0  0  0  0
 30 31  1  0  0  0  0
 30102  1  0  0  0  0
 30103  1  0  0  0  0
 31 32  1  0  0  0  0
 31104  1  0  0  0  0
 31105  1  0  0  0  0
 32 33  1  0  0  0  0
 33 34  2  0  0  0  0
 33 35  1  0  0  0  0
 35 36  2  0  0  0  0
 35 70  1  0  0  0  0
 36 37  1  0  0  0  0
 36106  1  0  0  0  0
 37 38  2  0  0  0  0
 37 39  1  0  0  0  0
 39 40  1  0  0  0  0
 40 41  1  0  0  0  0
 40107  1  0  0  0  0
 40108  1  0  0  0  0
 41 42  1  0  0  0  0
 41109  1  0  0  0  0
 41110  1  0  0  0  0
 42111  1  0  0  0  0
 42112  1  0  0  0  0
 43 44  1  0  0  0  0
 43 52  1  0  0  0  0
 43 69  1  1  0  0  0
 43 42  1  0  0  0  0
 44 45  1  0  0  0  0
 44113  1  0  0  0  0
 44114  1  0  0  0  0
 45 46  1  0  0  0  0
 45115  1  0  0  0  0
 45116  1  0  0  0  0
 46 47  2  0  0  0  0
 46 51  1  0  0  0  0
 47 48  1  0  0  0  0
 47117  1  0  0  0  0
 48 49  2  0  0  0  0
 48 67  1  0  0  0  0
 49 50  1  0  0  0  0
 49 65  1  0  0  0  0
 50 51  2  0  0  0  0
 50118  1  0  0  0  0
 51 52  1  0  0  0  0
 52119  1  1  0  0  0
 52 53  1  0  0  0  0
 53 54  2  0  0  0  0
 53 58  1  0  0  0  0
 54 55  1  0  0  0  0
 54120  1  0  0  0  0
 55 56  2  0  0  0  0
 55 63  1  0  0  0  0
 56 57  1  0  0  0  0
 56 61  1  0  0  0  0
 57 58  2  0  0  0  0
 57 59  1  0  0  0  0
 58121  1  0  0  0  0
 59 60  1  0  0  0  0
 60122  1  0  0  0  0
 60123  1  0  0  0  0
 60124  1  0  0  0  0
 61 62  1  0  0  0  0
 62125  1  0  0  0  0
 62126  1  0  0  0  0
 62127  1  0  0  0  0
 63 64  1  0  0  0  0
 64128  1  0  0  0  0
 64129  1  0  0  0  0
 64130  1  0  0  0  0
 65 66  1  0  0  0  0
 66131  1  0  0  0  0
 66132  1  0  0  0  0
 66133  1  0  0  0  0
 67 68  1  0  0  0  0
 68134  1  0  0  0  0
 68135  1  0  0  0  0
 68136  1  0  0  0  0
 69137  1  0  0  0  0
 69138  1  0  0  0  0
 69139  1  0  0  0  0
M  CHG  2   2   1  43   1
M  END
>  <DRUGBANK_ID>
DB05710

>  <COMMON_NAME>
Gantacurium

>  <CAS_NUMBER>
758669-50-0

>  <UNII>
N9VK9ZO25E

$$$$
