
 OpenBabel10282417113D

 61 64  0  0  0  0  0  0  0  0999 V2000
    2.8082   12.0952    0.7283 C   0  0  1  0  0  0  0  0  0  0  0  0
    2.5722   10.7262    0.8804 C   0  0  2  0  0  0  0  0  0  0  0  0
    2.6191   13.0653    5.4411 C   0  0  2  0  0  0  0  0  0  0  0  0
    3.5034   11.0077   -0.0322 C   0  0  2  0  0  0  0  0  0  0  0  0
    2.1278   11.4053    2.7058 C   0  0  1  0  0  0  0  0  0  0  0  0
    3.0527   12.4879    3.6883 C   0  0  2  0  0  0  0  0  0  0  0  0
    1.1882   12.9757    5.7975 C   0  0  0  0  0  0  0  0  0  0  0  0
    3.9518   12.9140    1.4229 C   0  0  0  0  0  0  0  0  0  0  0  0
    3.4062   13.6191    2.5997 C   0  0  2  0  0  0  0  0  0  0  0  0
    3.8081   12.2261   -1.1849 C   0  0  1  0  0  0  0  0  0  0  0  0
    3.0644   12.4260    7.2513 C   0  0  0  0  0  0  0  0  0  0  0  0
    3.8130   10.8475   -0.9328 C   0  0  0  0  0  0  0  0  0  0  0  0
    1.1144   13.8113    6.9164 C   0  0  0  0  0  0  0  0  0  0  0  0
    1.5549   10.6696    4.1068 C   0  0  0  0  0  0  0  0  0  0  0  0
    2.5086   12.8529    8.4975 C   0  0  0  0  0  0  0  0  0  0  0  0
    2.9767    9.1317   -0.7157 C   0  0  0  0  0  0  0  0  0  0  0  0
    1.0617   13.0319    8.1538 C   0  0  0  0  0  0  0  0  0  0  0  0
    0.6859   11.6174    5.2970 C   0  0  0  0  0  0  0  0  0  0  0  0
    2.0752    8.9420   -1.5415 O   0  0  0  0  0  0  0  0  0  0  0  0
    0.1352   12.3130    8.4709 O   0  0  0  0  0  0  0  0  0  0  0  0
    1.5013   12.6279    0.1369 C   0  0  0  0  0  0  0  0  0  0  0  0
    4.4256   14.4324    3.1643 O   0  0  0  0  0  0  0  0  0  0  0  0
    2.0549   14.6093    4.7312 C   0  0  0  0  0  0  0  0  0  0  0  0
    4.7130   10.3540    1.2161 C   0  0  0  0  0  0  0  0  0  0  0  0
    3.3845   12.5509   -2.6208 C   0  0  0  0  0  0  0  0  0  0  0  0
    4.2293    8.1098   -0.6087 C   0  0  0  0  0  0  0  0  0  0  0  0
    5.6896    8.5400   -0.9505 C   0  0  0  0  0  0  0  0  0  0  0  0
    2.5632    9.7331    1.3552 H   0  0  0  0  0  0  0  0  0  0  0  0
    1.1989   11.9557    2.4562 H   0  0  0  0  0  0  0  0  0  0  0  0
    3.9931   11.9952    3.9482 H   0  0  0  0  0  0  0  0  0  0  0  0
    4.6208   13.3657    0.7063 H   0  0  0  0  0  0  0  0  0  0  0  0
    4.8386   12.5013    1.9177 H   0  0  0  0  0  0  0  0  0  0  0  0
    2.6132   14.2510    2.1518 H   0  0  0  0  0  0  0  0  0  0  0  0
    4.5801   12.9101   -0.9144 H   0  0  0  0  0  0  0  0  0  0  0  0
    2.5829   11.3746    7.6161 H   0  0  0  0  0  0  0  0  0  0  0  0
    3.4693   10.4508   -1.9762 H   0  0  0  0  0  0  0  0  0  0  0  0
    4.9253   10.5927   -1.1872 H   0  0  0  0  0  0  0  0  0  0  0  0
    2.0494   14.4853    7.0881 H   0  0  0  0  0  0  0  0  0  0  0  0
    0.9652    9.7842    3.8785 H   0  0  0  0  0  0  0  0  0  0  0  0
    2.4220   10.3321    4.7014 H   0  0  0  0  0  0  0  0  0  0  0  0
    2.8516   13.4942    9.3379 H   0  0  0  0  0  0  0  0  0  0  0  0
   -0.3818   11.5282    5.0788 H   0  0  0  0  0  0  0  0  0  0  0  0
    0.7313   11.0931    6.2505 H   0  0  0  0  0  0  0  0  0  0  0  0
    0.7612   11.8090    0.0277 H   0  0  0  0  0  0  0  0  0  0  0  0
    1.0597   13.3499    0.8146 H   0  0  0  0  0  0  0  0  0  0  0  0
    1.6017   13.0686   -0.8505 H   0  0  0  0  0  0  0  0  0  0  0  0
    4.2539   14.4194    4.1221 H   0  0  0  0  0  0  0  0  0  0  0  0
    2.5576   14.9812    3.8646 H   0  0  0  0  0  0  0  0  0  0  0  0
    1.1053   14.4394    4.1552 H   0  0  0  0  0  0  0  0  0  0  0  0
    2.1294   15.5544    5.2707 H   0  0  0  0  0  0  0  0  0  0  0  0
    4.4407    9.3059    1.3971 H   0  0  0  0  0  0  0  0  0  0  0  0
    5.7429   10.5187    0.9781 H   0  0  0  0  0  0  0  0  0  0  0  0
    4.4608   10.7427    2.1972 H   0  0  0  0  0  0  0  0  0  0  0  0
    2.3151   12.4691   -2.8304 H   0  0  0  0  0  0  0  0  0  0  0  0
    3.6090   13.6248   -2.6958 H   0  0  0  0  0  0  0  0  0  0  0  0
    3.9732   12.1199   -3.4470 H   0  0  0  0  0  0  0  0  0  0  0  0
    4.2031    7.7313    0.4113 H   0  0  0  0  0  0  0  0  0  0  0  0
    4.0055    7.2468   -1.2409 H   0  0  0  0  0  0  0  0  0  0  0  0
    6.0825    9.4212   -0.4445 H   0  0  0  0  0  0  0  0  0  0  0  0
    6.4085    7.7787   -0.6451 H   0  0  0  0  0  0  0  0  0  0  0  0
    5.8258    8.7692   -2.0127 H   0  0  0  0  0  0  0  0  0  0  0  0
  1 21  1  1  0  0  0
  2  1  1  0  0  0  0
  2 28  1  6  0  0  0
  3  6  1  0  0  0  0
  3 23  1  6  0  0  0
  4  1  1  0  0  0  0
  4 16  1  6  0  0  0
  4 24  1  0  0  0  0
  5  2  1  0  0  0  0
  5 29  1  1  0  0  0
  6  9  1  0  0  0  0
  6  5  1  0  0  0  0
  6 30  1  6  0  0  0
  7  3  1  0  0  0  0
  7 18  1  0  0  0  0
  8  1  1  0  0  0  0
  8 31  1  0  0  0  0
  8 32  1  0  0  0  0
  9  8  1  0  0  0  0
  9 33  1  6  0  0  0
  9 22  1  0  0  0  0
 10  4  1  0  0  0  0
 10 12  1  0  0  0  0
 10 25  1  0  0  0  0
 10 34  1  1  0  0  0
 11  3  1  0  0  0  0
 11 35  1  0  0  0  0
 12  2  1  0  0  0  0
 12 36  1  0  0  0  0
 12 37  1  0  0  0  0
 13  7  2  0  0  0  0
 13 38  1  0  0  0  0
 14  5  1  0  0  0  0
 14 39  1  0  0  0  0
 14 40  1  0  0  0  0
 15 11  2  0  0  0  0
 15 41  1  0  0  0  0
 17 15  1  0  0  0  0
 17 13  1  0  0  0  0
 18 14  1  0  0  0  0
 18 42  1  0  0  0  0
 18 43  1  0  0  0  0
 19 16  2  0  0  0  0
 20 17  2  0  0  0  0
 21 44  1  0  0  0  0
 21 45  1  0  0  0  0
 21 46  1  0  0  0  0
 22 47  1  0  0  0  0
 23 48  1  0  0  0  0
 23 49  1  0  0  0  0
 23 50  1  0  0  0  0
 24 51  1  0  0  0  0
 24 52  1  0  0  0  0
 24 53  1  0  0  0  0
 25 54  1  0  0  0  0
 25 55  1  0  0  0  0
 25 56  1  0  0  0  0
 26 16  1  0  0  0  0
 26 57  1  0  0  0  0
 26 58  1  0  0  0  0
 27 26  1  0  0  0  0
 27 59  1  0  0  0  0
 27 60  1  0  0  0  0
 27 61  1  0  0  0  0
M  END
>  <DRUGBANK_ID>
DB00896

>  <SECONDARY_ACCESSION_NUMBERS>
APRD01220

>  <COMMON_NAME>
Rimexolone

>  <CAS_NUMBER>
49697-38-3

>  <UNII>
O7M2E4264D

>  <SYNONYMS>
Rimexolon; Rimexolona; Rimexolone

$$$$
