
 OpenBabel10282417143D

 51 55  0  0  0  0  0  0  0  0999 V2000
    2.2062   -0.7439    0.2201 C   0  0  0  0  0  0  0  0  0  0  0  0
   -3.8739   -4.0528    4.1401 C   0  0  0  0  0  0  0  0  0  0  0  0
   -4.7480   -2.8577    4.3925 C   0  0  0  0  0  0  0  0  0  0  0  0
    1.0286   -1.4928    0.0481 C   0  0  0  0  0  0  0  0  0  0  0  0
    2.3664    3.2988   -1.3872 C   0  0  0  0  0  0  0  0  0  0  0  0
    3.4298    1.4470   -2.4729 C   0  0  0  0  0  0  0  0  0  0  0  0
    1.0329    2.7060   -1.8651 C   0  0  0  0  0  0  0  0  0  0  0  0
    2.0682    0.8353   -2.8099 C   0  0  0  0  0  0  0  0  0  0  0  0
    0.9394    1.2472    0.7448 C   0  0  0  0  0  0  0  0  0  0  0  0
   -5.7187   -0.4502    0.6500 C   0  0  0  0  0  0  0  0  0  0  0  0
    3.3959    1.5055    0.0514 C   0  0  0  0  0  0  0  0  0  0  0  0
    2.1746    0.6487    0.4185 C   0  0  0  0  0  0  0  0  0  0  0  0
   -3.2531   -2.7484    4.5144 C   0  0  0  0  0  0  0  0  0  0  0  0
   -0.1413   -0.7476   -0.1000 C   0  0  0  0  0  0  0  0  0  0  0  0
   -0.2196    0.5926    0.2567 C   0  0  0  0  0  0  0  0  0  0  0  0
   -4.3761   -0.6062    0.9219 C   0  0  0  0  0  0  0  0  0  0  0  0
   -3.7043    0.0110   -0.1650 C   0  0  0  0  0  0  0  0  0  0  0  0
   -2.2174    0.0689   -0.3573 C   0  0  0  0  0  0  0  0  0  0  0  0
   -2.7605   -1.4604    2.5769 C   0  0  0  0  0  0  0  0  0  0  0  0
   -5.7832    0.2548   -0.5127 N   0  0  0  0  0  0  0  0  0  0  0  0
   -2.3780   -2.1232    3.6138 N   0  0  0  0  0  0  0  0  0  0  0  0
   -1.4389   -1.0737   -0.4346 N   0  0  0  0  0  0  0  0  0  0  0  0
   -1.4733    1.1094   -0.0174 N   0  0  0  0  0  0  0  0  0  0  0  0
   -3.9774   -1.2326    2.0512 N   0  0  0  0  0  0  0  0  0  0  0  0
   -4.5797    0.5536   -1.0291 N   0  0  0  0  0  0  0  0  0  0  0  0
    3.4196    2.2680   -1.2386 N   0  0  0  0  0  0  0  0  0  0  0  0
   -1.7474   -0.8407    2.0292 O   0  0  0  0  0  0  0  0  0  0  0  0
    1.1229    1.9002   -3.0438 O   0  0  0  0  0  0  0  0  0  0  0  0
    3.1600   -1.2458    0.0691 H   0  0  0  0  0  0  0  0  0  0  0  0
   -3.9419   -4.8473    4.8669 H   0  0  0  0  0  0  0  0  0  0  0  0
   -3.7085   -4.3899    3.1212 H   0  0  0  0  0  0  0  0  0  0  0  0
   -5.4172   -2.6933    3.5618 H   0  0  0  0  0  0  0  0  0  0  0  0
   -5.2699   -2.6874    5.3253 H   0  0  0  0  0  0  0  0  0  0  0  0
    1.0541   -2.5624   -0.1188 H   0  0  0  0  0  0  0  0  0  0  0  0
    2.6825    4.0349   -2.1388 H   0  0  0  0  0  0  0  0  0  0  0  0
    2.2623    3.8566   -0.4480 H   0  0  0  0  0  0  0  0  0  0  0  0
    3.6753    2.1110   -3.3160 H   0  0  0  0  0  0  0  0  0  0  0  0
    4.2216    0.6945   -2.4340 H   0  0  0  0  0  0  0  0  0  0  0  0
    0.7263    1.9975   -1.1589 H   0  0  0  0  0  0  0  0  0  0  0  0
    0.1930    3.4058   -1.8488 H   0  0  0  0  0  0  0  0  0  0  0  0
    2.1040    0.1965   -3.6942 H   0  0  0  0  0  0  0  0  0  0  0  0
    1.7317    0.1721   -2.0191 H   0  0  0  0  0  0  0  0  0  0  0  0
    0.8572    2.3124    0.9487 H   0  0  0  0  0  0  0  0  0  0  0  0
   -6.6171   -0.7576    1.1713 H   0  0  0  0  0  0  0  0  0  0  0  0
    3.5814    2.2084    0.8722 H   0  0  0  0  0  0  0  0  0  0  0  0
    4.2783    0.8515    0.0380 H   0  0  0  0  0  0  0  0  0  0  0  0
   -2.8454   -2.6955    5.5200 H   0  0  0  0  0  0  0  0  0  0  0  0
   -6.6154    0.5563   -1.0110 H   0  0  0  0  0  0  0  0  0  0  0  0
   -1.8248   -2.0003   -0.3537 H   0  0  0  0  0  0  0  0  0  0  0  0
   -4.7015   -1.4065    2.7117 H   0  0  0  0  0  0  0  0  0  0  0  0
   -0.9077   -1.1451    2.4026 H   0  0  0  0  0  0  0  0  0  0  0  0
  1 29  1  0  0  0  0
  2 30  1  0  0  0  0
  2 31  1  0  0  0  0
  3  2  1  0  0  0  0
  3 32  1  0  0  0  0
  3 33  1  0  0  0  0
  4  1  2  0  0  0  0
  4 34  1  0  0  0  0
  5 35  1  0  0  0  0
  5 36  1  0  0  0  0
  6 37  1  0  0  0  0
  6 38  1  0  0  0  0
  7  5  1  0  0  0  0
  7 39  1  0  0  0  0
  7 40  1  0  0  0  0
  8  6  1  0  0  0  0
  8 41  1  0  0  0  0
  8 42  1  0  0  0  0
  9 43  1  0  0  0  0
 10 44  1  0  0  0  0
 11 45  1  0  0  0  0
 11 46  1  0  0  0  0
 12  1  1  0  0  0  0
 12  9  2  0  0  0  0
 12 11  1  0  0  0  0
 13  2  1  0  0  0  0
 13  3  1  0  0  0  0
 13 47  1  0  0  0  0
 14  4  1  0  0  0  0
 15  9  1  0  0  0  0
 15 14  2  0  0  0  0
 16 10  2  0  0  0  0
 17 16  1  0  0  0  0
 18 17  1  0  0  0  0
 20 10  1  0  0  0  0
 20 48  1  0  0  0  0
 21 13  1  0  0  0  0
 21 19  2  3  0  0  0
 22 14  1  0  0  0  0
 22 18  1  0  0  0  0
 22 49  1  0  0  0  0
 23 15  1  0  0  0  0
 23 18  2  0  0  0  0
 24 16  1  0  0  0  0
 24 19  1  0  0  0  0
 24 50  1  0  0  0  0
 25 17  2  0  0  0  0
 25 20  1  0  0  0  0
 26  5  1  0  0  0  0
 26  6  1  0  0  0  0
 26 11  1  0  0  0  0
 27 19  1  0  0  0  0
 27 51  1  0  0  0  0
 28  7  1  0  0  0  0
 28  8  1  0  0  0  0
M  END
>  <DRUGBANK_ID>
DB05169

>  <COMMON_NAME>
AT9283

>  <CAS_NUMBER>
896466-04-9

>  <UNII>
XAV9KYN9WL

>  <SYNONYMS>
1-Cyclopropyl-3-[3-(5-morpholin-4-ylmethyl-1H-benzoimidazol-2-yl)-1H-pyrazol-4-yl]-urea

$$$$
