
 OpenBabel10282417233D

 25 26  0  0  0  0  0  0  0  0999 V2000
    0.9681    0.0900   -0.0324 O   0  0  0  0  0  0  0  0  0  0  0  0
    2.1939    0.0096   -0.0482 C   0  0  0  0  0  0  0  0  0  0  0  0
    3.0268    1.2518   -0.0633 C   0  0  0  0  0  0  0  0  0  0  0  0
    4.3655    1.1016   -0.1555 C   0  0  0  0  0  0  0  0  0  0  0  0
    5.3189    2.2510   -0.1952 C   0  0  0  0  0  0  0  0  0  0  0  0
    4.9277   -0.3104   -0.1922 C   0  0  1  0  0  0  0  0  0  0  0  0
    4.2706   -1.1780    0.9455 C   0  0  0  0  0  0  0  0  0  0  0  0
    3.0719   -1.3010   -0.0677 C   0  0  2  0  0  0  0  0  0  0  0  0
    4.1844   -1.2932   -1.2093 C   0  0  0  0  0  0  0  0  0  0  0  0
    3.7920   -0.7407   -2.5856 C   0  0  0  0  0  0  0  0  0  0  0  0
    4.8548   -2.6522   -1.4665 C   0  0  0  0  0  0  0  0  0  0  0  0
    2.5150    2.2029   -0.0209 H   0  0  0  0  0  0  0  0  0  0  0  0
    6.0052    2.2110    0.6566 H   0  0  0  0  0  0  0  0  0  0  0  0
    5.9058    2.2286   -1.1185 H   0  0  0  0  0  0  0  0  0  0  0  0
    4.7908    3.2095   -0.1555 H   0  0  0  0  0  0  0  0  0  0  0  0
    6.0215   -0.3374   -0.2301 H   0  0  0  0  0  0  0  0  0  0  0  0
    4.7754   -2.1123    1.2094 H   0  0  0  0  0  0  0  0  0  0  0  0
    4.0546   -0.6567    1.8862 H   0  0  0  0  0  0  0  0  0  0  0  0
    2.4810   -2.2167    0.0216 H   0  0  0  0  0  0  0  0  0  0  0  0
    4.6843   -0.6257   -3.2126 H   0  0  0  0  0  0  0  0  0  0  0  0
    3.1179   -1.4390   -3.0950 H   0  0  0  0  0  0  0  0  0  0  0  0
    3.2936    0.2295   -2.5572 H   0  0  0  0  0  0  0  0  0  0  0  0
    5.3367   -3.0796   -0.5858 H   0  0  0  0  0  0  0  0  0  0  0  0
    4.1104   -3.3706   -1.8287 H   0  0  0  0  0  0  0  0  0  0  0  0
    5.6256   -2.5550   -2.2397 H   0  0  0  0  0  0  0  0  0  0  0  0
  2  1  2  0  0  0  0
  3  2  1  0  0  0  0
  3  4  2  0  0  0  0
  3 12  1  0  0  0  0
  4  6  1  0  0  0  0
  5  4  1  0  0  0  0
  5 13  1  0  0  0  0
  5 14  1  0  0  0  0
  5 15  1  0  0  0  0
  6  7  1  0  0  0  0
  6  9  1  0  0  0  0
  6 16  1  6  0  0  0
  7 17  1  0  0  0  0
  7 18  1  0  0  0  0
  8  7  1  0  0  0  0
  8  2  1  0  0  0  0
  8  9  1  0  0  0  0
  8 19  1  1  0  0  0
 10  9  1  0  0  0  0
 10 20  1  0  0  0  0
 10 21  1  0  0  0  0
 10 22  1  0  0  0  0
 11  9  1  0  0  0  0
 11 23  1  0  0  0  0
 11 24  1  0  0  0  0
 11 25  1  0  0  0  0
M  END
>  <DRUGBANK_ID>
DB15977

>  <COMMON_NAME>
Verbenone

>  <CAS_NUMBER>
80-57-9

>  <UNII>
IFV46DXC6U

$$$$
