
 OpenBabel10282417213D

 86 87  0  0  0  0  0  0  0  0999 V2000
    0.9454   -0.1971   -0.1287 C   0  0  0  0  0  0  0  0  0  0  0  0
    0.4994    0.8653   -1.1147 C   0  0  0  0  0  0  0  0  0  0  0  0
    2.1732    3.7105    0.3353 C   0  0  0  0  0  0  0  0  0  0  0  0
    1.5544    2.4028    0.4731 C   0  0  0  0  0  0  0  0  0  0  0  0
    0.8703    2.1887   -0.8273 C   0  0  0  0  0  0  0  0  0  0  0  0
   -0.2184    0.6752   -2.3012 C   0  0  0  0  0  0  0  0  0  0  0  0
   -0.7025   -0.7325   -2.4898 O   0  0  0  0  0  0  0  0  0  0  0  0
   -0.4561    1.7946   -3.1995 C   0  0  0  0  0  0  0  0  0  0  0  0
   -1.2173    1.8006   -4.4948 C   0  0  0  0  0  0  0  0  0  0  0  0
    0.0188    3.0803   -2.9121 C   0  0  0  0  0  0  0  0  0  0  0  0
   -0.2232    4.1948   -3.8953 C   0  0  0  0  0  0  0  0  0  0  0  0
    0.6339    3.2884   -1.7083 C   0  0  0  0  0  0  0  0  0  0  0  0
    0.9810    4.6066   -1.4727 O   0  0  0  0  0  0  0  0  0  0  0  0
   12.3177    5.5448   -3.7284 C   0  0  0  0  0  0  0  0  0  0  0  0
   11.3148    4.4037   -3.6746 C   0  0  0  0  0  0  0  0  0  0  0  0
   11.8298    3.1375   -4.3299 C   0  0  0  0  0  0  0  0  0  0  0  0
   10.9722    4.1803   -2.1962 C   0  0  0  0  0  0  0  0  0  0  0  0
   10.2135    5.3826   -1.6425 C   0  0  0  0  0  0  0  0  0  0  0  0
    9.0006    5.7508   -2.5096 C   0  0  0  0  0  0  0  0  0  0  0  0
    7.9417    4.6379   -2.5145 C   0  0  1  0  0  0  0  0  0  0  0  0
    8.2320    3.3360   -3.2548 C   0  0  0  0  0  0  0  0  0  0  0  0
    7.5914    4.4124   -1.0385 C   0  0  0  0  0  0  0  0  0  0  0  0
    6.9475    5.6882   -0.5021 C   0  0  0  0  0  0  0  0  0  0  0  0
    5.7173    6.0726   -1.3466 C   0  0  0  0  0  0  0  0  0  0  0  0
    4.6864    4.9512   -1.3185 C   0  0  1  0  0  0  0  0  0  0  0  0
    4.9305    3.6371   -2.0921 C   0  0  0  0  0  0  0  0  0  0  0  0
    4.4743    4.7687    0.1940 C   0  0  0  0  0  0  0  0  0  0  0  0
    3.5751    5.9188    0.7459 C   0  0  0  0  0  0  0  0  0  0  0  0
    2.2867    6.1680   -0.0867 C   0  0  0  0  0  0  0  0  0  0  0  0
    1.3872    4.8899   -0.1380 C   0  0  2  0  0  0  0  0  0  0  0  0
    0.1776    5.0603    0.7506 C   0  0  0  0  0  0  0  0  0  0  0  0
   -1.4661   -1.6149   -3.3815 C   0  0  0  0  0  0  0  0  0  0  0  0
   -1.9549   -0.8848   -4.5764 C   0  0  0  0  0  0  0  0  0  0  0  0
   -1.6731   -2.7793   -3.1885 O   0  0  0  0  0  0  0  0  0  0  0  0
    0.5946   -1.2008   -0.3500 H   0  0  0  0  0  0  0  0  0  0  0  0
    0.6114    0.0558    0.8900 H   0  0  0  0  0  0  0  0  0  0  0  0
    2.0468   -0.2380   -0.0968 H   0  0  0  0  0  0  0  0  0  0  0  0
    2.8385    3.5048   -0.5101 H   0  0  0  0  0  0  0  0  0  0  0  0
    2.6156    3.8798    1.3133 H   0  0  0  0  0  0  0  0  0  0  0  0
    2.4025    1.7187    0.6295 H   0  0  0  0  0  0  0  0  0  0  0  0
    0.8979    2.3744    1.3394 H   0  0  0  0  0  0  0  0  0  0  0  0
   -0.6384    1.1695   -5.1782 H   0  0  0  0  0  0  0  0  0  0  0  0
   -2.2562    1.5765   -4.2247 H   0  0  0  0  0  0  0  0  0  0  0  0
   -1.3588    2.6798   -5.1141 H   0  0  0  0  0  0  0  0  0  0  0  0
    0.2110    3.9096   -4.8645 H   0  0  0  0  0  0  0  0  0  0  0  0
   -1.3080    4.3372   -3.9923 H   0  0  0  0  0  0  0  0  0  0  0  0
    0.2071    5.1545   -3.6300 H   0  0  0  0  0  0  0  0  0  0  0  0
   13.1878    5.2913   -3.1169 H   0  0  0  0  0  0  0  0  0  0  0  0
   12.6271    5.7578   -4.7497 H   0  0  0  0  0  0  0  0  0  0  0  0
   11.8855    6.4684   -3.3272 H   0  0  0  0  0  0  0  0  0  0  0  0
   10.4476    4.6982   -4.2735 H   0  0  0  0  0  0  0  0  0  0  0  0
   11.0465    2.3703   -4.3627 H   0  0  0  0  0  0  0  0  0  0  0  0
   12.1290    3.3453   -5.3619 H   0  0  0  0  0  0  0  0  0  0  0  0
   12.6840    2.7400   -3.7808 H   0  0  0  0  0  0  0  0  0  0  0  0
   11.8763    4.0162   -1.6045 H   0  0  0  0  0  0  0  0  0  0  0  0
   10.4309    3.2516   -2.0293 H   0  0  0  0  0  0  0  0  0  0  0  0
   10.8620    6.2536   -1.5476 H   0  0  0  0  0  0  0  0  0  0  0  0
    9.9460    5.1859   -0.6007 H   0  0  0  0  0  0  0  0  0  0  0  0
    9.2519    6.0521   -3.5274 H   0  0  0  0  0  0  0  0  0  0  0  0
    8.5721    6.6809   -2.1137 H   0  0  0  0  0  0  0  0  0  0  0  0
    7.1060    5.0394   -3.0939 H   0  0  0  0  0  0  0  0  0  0  0  0
    7.3261    2.7426   -3.4064 H   0  0  0  0  0  0  0  0  0  0  0  0
    8.6481    3.5379   -4.2445 H   0  0  0  0  0  0  0  0  0  0  0  0
    8.8737    2.6614   -2.7011 H   0  0  0  0  0  0  0  0  0  0  0  0
    8.4441    4.1429   -0.4192 H   0  0  0  0  0  0  0  0  0  0  0  0
    7.0125    3.5162   -0.8626 H   0  0  0  0  0  0  0  0  0  0  0  0
    7.6224    6.5383   -0.4421 H   0  0  0  0  0  0  0  0  0  0  0  0
    6.7590    5.5537    0.5621 H   0  0  0  0  0  0  0  0  0  0  0  0
    5.9448    6.3724   -2.3709 H   0  0  0  0  0  0  0  0  0  0  0  0
    5.2783    6.9860   -0.9268 H   0  0  0  0  0  0  0  0  0  0  0  0
    3.7976    5.3155   -1.8431 H   0  0  0  0  0  0  0  0  0  0  0  0
    4.0123    3.0639   -2.2571 H   0  0  0  0  0  0  0  0  0  0  0  0
    5.3417    3.8331   -3.0850 H   0  0  0  0  0  0  0  0  0  0  0  0
    5.5400    2.9136   -1.5610 H   0  0  0  0  0  0  0  0  0  0  0  0
    5.3282    4.7051    0.8525 H   0  0  0  0  0  0  0  0  0  0  0  0
    4.2718    3.7168    0.3957 H   0  0  0  0  0  0  0  0  0  0  0  0
    4.1623    6.8413    0.8118 H   0  0  0  0  0  0  0  0  0  0  0  0
    3.2928    5.7137    1.7848 H   0  0  0  0  0  0  0  0  0  0  0  0
    2.5318    6.5532   -1.0875 H   0  0  0  0  0  0  0  0  0  0  0  0
    1.7458    7.0097    0.3650 H   0  0  0  0  0  0  0  0  0  0  0  0
   -0.4456    5.8886    0.4139 H   0  0  0  0  0  0  0  0  0  0  0  0
   -0.4445    4.1619    0.7214 H   0  0  0  0  0  0  0  0  0  0  0  0
    0.5114    5.2185    1.7788 H   0  0  0  0  0  0  0  0  0  0  0  0
   -1.4324   -0.9723   -5.5290 H   0  0  0  0  0  0  0  0  0  0  0  0
   -2.9857   -0.5302   -4.6123 H   0  0  0  0  0  0  0  0  0  0  0  0
   -1.4842   -0.0403   -4.2218 H   0  0  0  0  0  0  0  0  0  0  0  0
  1 35  1  0  0  0  0
  1 36  1  0  0  0  0
  1 37  1  0  0  0  0
  2  1  1  0  0  0  0
  2  6  1  0  0  0  0
  3  4  1  0  0  0  0
  3 38  1  0  0  0  0
  3 39  1  0  0  0  0
  4  5  1  0  0  0  0
  4 40  1  0  0  0  0
  4 41  1  0  0  0  0
  5  2  2  0  0  0  0
  6  7  1  0  0  0  0
  7 32  1  0  0  0  0
  8  6  2  0  0  0  0
  8  9  1  0  0  0  0
  9 42  1  0  0  0  0
  9 43  1  0  0  0  0
  9 44  1  0  0  0  0
 10  8  1  0  0  0  0
 10 11  1  0  0  0  0
 11 45  1  0  0  0  0
 11 46  1  0  0  0  0
 11 47  1  0  0  0  0
 12 10  2  0  0  0  0
 12  5  1  0  0  0  0
 12 13  1  0  0  0  0
 14 15  1  0  0  0  0
 14 48  1  0  0  0  0
 14 49  1  0  0  0  0
 14 50  1  0  0  0  0
 15 16  1  0  0  0  0
 15 17  1  0  0  0  0
 15 51  1  0  0  0  0
 16 52  1  0  0  0  0
 16 53  1  0  0  0  0
 16 54  1  0  0  0  0
 17 18  1  0  0  0  0
 17 55  1  0  0  0  0
 17 56  1  0  0  0  0
 18 19  1  0  0  0  0
 18 57  1  0  0  0  0
 18 58  1  0  0  0  0
 19 20  1  0  0  0  0
 19 59  1  0  0  0  0
 19 60  1  0  0  0  0
 20 21  1  0  0  0  0
 20 22  1  0  0  0  0
 20 61  1  6  0  0  0
 21 62  1  0  0  0  0
 21 63  1  0  0  0  0
 21 64  1  0  0  0  0
 22 23  1  0  0  0  0
 22 65  1  0  0  0  0
 22 66  1  0  0  0  0
 23 24  1  0  0  0  0
 23 67  1  0  0  0  0
 23 68  1  0  0  0  0
 24 25  1  0  0  0  0
 24 69  1  0  0  0  0
 24 70  1  0  0  0  0
 25 26  1  0  0  0  0
 25 27  1  0  0  0  0
 25 71  1  6  0  0  0
 26 72  1  0  0  0  0
 26 73  1  0  0  0  0
 26 74  1  0  0  0  0
 27 28  1  0  0  0  0
 27 75  1  0  0  0  0
 27 76  1  0  0  0  0
 28 29  1  0  0  0  0
 28 77  1  0  0  0  0
 28 78  1  0  0  0  0
 29 79  1  0  0  0  0
 29 80  1  0  0  0  0
 30  3  1  0  0  0  0
 30 13  1  0  0  0  0
 30 31  1  1  0  0  0
 30 29  1  0  0  0  0
 31 81  1  0  0  0  0
 31 82  1  0  0  0  0
 31 83  1  0  0  0  0
 32 33  1  0  0  0  0
 32 34  2  0  0  0  0
 33 84  1  0  0  0  0
 33 85  1  0  0  0  0
 33 86  1  0  0  0  0
M  END
>  <DRUGBANK_ID>
DB14002

>  <SECONDARY_ACCESSION_NUMBERS>
DBSALT001457

>  <COMMON_NAME>
D-alpha-Tocopherol acetate

>  <CAS_NUMBER>
58-95-7

>  <UNII>
A7E6112E4N

>  <SYNONYMS>
(+)-alfa-tocopherol acetate; alpha-tocopheryl acetate, D-; D-alpha tocoferil acetate; D-alpha tocopheryl acetate; D-alpha-Tocopheryl acetate; RRR-alpha-tocopheryl acetate; Vitamin E acetate, D-

$$$$
