
 OpenBabel10282417133D

 19 20  0  0  0  0  0  0  0  0999 V2000
    1.3665   -0.2128    0.0037 C   0  0  0  0  0  0  0  0  0  0  0  0
    0.4871   -1.2941    0.0055 C   0  0  0  0  0  0  0  0  0  0  0  0
    0.8683    1.0889   -0.0118 C   0  0  0  0  0  0  0  0  0  0  0  0
   -0.8920   -1.0737   -0.0313 C   0  0  0  0  0  0  0  0  0  0  0  0
   -0.5110    1.3100   -0.0216 C   0  0  0  0  0  0  0  0  0  0  0  0
   -3.8838    0.0421    0.6394 C   0  0  0  0  0  0  0  0  0  0  0  0
   -4.7870    1.1441   -0.9455 C   0  0  0  0  0  0  0  0  0  0  0  0
   -1.4004    0.2303   -0.0637 C   0  0  0  0  0  0  0  0  0  0  0  0
   -2.8335    0.4559   -0.1530 C   0  0  0  0  0  0  0  0  0  0  0  0
   -5.0867    0.4802    0.1445 N   0  0  0  0  0  0  0  0  0  0  0  0
   -3.4394    1.1559   -1.1726 N   0  0  0  0  0  0  0  0  0  0  0  0
    2.4398   -0.3848    0.0244 H   0  0  0  0  0  0  0  0  0  0  0  0
    0.8740   -2.3097    0.0281 H   0  0  0  0  0  0  0  0  0  0  0  0
    1.5535    1.9326   -0.0128 H   0  0  0  0  0  0  0  0  0  0  0  0
   -1.5655   -1.9277   -0.0456 H   0  0  0  0  0  0  0  0  0  0  0  0
   -0.8848    2.3301    0.0252 H   0  0  0  0  0  0  0  0  0  0  0  0
   -3.8307   -0.5444    1.5475 H   0  0  0  0  0  0  0  0  0  0  0  0
   -5.4936    1.6294   -1.6073 H   0  0  0  0  0  0  0  0  0  0  0  0
   -2.9752    1.5772   -1.9626 H   0  0  0  0  0  0  0  0  0  0  0  0
  1 12  1  0  0  0  0
  2  1  2  0  0  0  0
  2 13  1  0  0  0  0
  3  1  1  0  0  0  0
  3 14  1  0  0  0  0
  4  2  1  0  0  0  0
  4 15  1  0  0  0  0
  5  3  2  0  0  0  0
  5 16  1  0  0  0  0
  6 17  1  0  0  0  0
  7 18  1  0  0  0  0
  8  4  2  0  0  0  0
  8  5  1  0  0  0  0
  9  6  2  0  0  0  0
  9  8  1  0  0  0  0
 10  6  1  0  0  0  0
 10  7  2  0  0  0  0
 11  7  1  0  0  0  0
 11  9  1  0  0  0  0
 11 19  1  0  0  0  0
M  END
>  <DRUGBANK_ID>
DB03254

>  <SECONDARY_ACCESSION_NUMBERS>
EXPT02601

>  <COMMON_NAME>
4-Phenyl-1h-Imidazole

>  <UNII>
8VQ67XR7XY

$$$$
