
 OpenBabel10282417113D

 71 75  0  0  0  0  0  0  0  0999 V2000
   -6.9042   -0.7978   -6.3070 C   0  0  0  0  0  0  0  0  0  0  0  0
   -7.7968   -1.3821   -5.4069 C   0  0  0  0  0  0  0  0  0  0  0  0
   -5.5888    2.7953   -1.2293 C   0  0  1  0  0  0  0  0  0  0  0  0
   -5.8703    1.2638   -1.3961 C   0  0  2  0  0  0  0  0  0  0  0  0
   -5.2391    2.2646   -3.1190 C   0  0  0  0  0  0  0  0  0  0  0  0
   -6.5754    0.1692   -2.2066 C   0  0  0  0  0  0  0  0  0  0  0  0
   -6.3419    1.2332   -4.3302 C   0  0  1  0  0  0  0  0  0  0  0  0
   -6.8933    0.1581   -3.5000 C   0  0  0  0  0  0  0  0  0  0  0  0
   -7.8661   -0.8607   -4.0127 C   0  0  0  0  0  0  0  0  0  0  0  0
   -5.8775    0.3023   -5.7876 C   0  0  2  0  0  0  0  0  0  0  0  0
   -5.3525    3.2386    0.9151 C   0  0  1  0  0  0  0  0  0  0  0  0
   -6.9025    1.2952   -0.4108 C   0  0  0  0  0  0  0  0  0  0  0  0
   -4.6184    0.7943   -1.4536 O   0  0  0  0  0  0  0  0  0  0  0  0
   -6.6229    2.5367    1.1697 C   0  0  0  0  0  0  0  0  0  0  0  0
   -4.8428    2.9969    2.7291 N   0  0  0  0  0  0  0  0  0  0  0  0
   -6.9978   -0.8897   -1.4150 O   0  0  0  0  0  0  0  0  0  0  0  0
   -6.2448    1.2881    0.8955 C   0  0  0  0  0  0  0  0  0  0  0  0
   -8.0459    1.6410   -0.7351 O   0  0  0  0  0  0  0  0  0  0  0  0
   -7.8106    3.2904    1.0450 O   0  0  0  0  0  0  0  0  0  0  0  0
   -4.7582    4.1161    3.8945 C   0  0  0  0  0  0  0  0  0  0  0  0
   -4.4904    1.7933    3.7515 C   0  0  0  0  0  0  0  0  0  0  0  0
   -4.5557    1.0157    1.1512 C   0  0  0  0  0  0  0  0  0  0  0  0
   -8.8485   -1.0846   -3.3054 O   0  0  0  0  0  0  0  0  0  0  0  0
   -3.3994    1.5696    0.3630 N   0  0  0  0  0  0  0  0  0  0  0  0
   -4.2971    0.1508    1.9839 O   0  0  0  0  0  0  0  0  0  0  0  0
   -7.1374   -1.1105   -7.7145 C   0  0  0  0  0  0  0  0  0  0  0  0
   -8.7918   -2.2854   -5.8866 C   0  0  0  0  0  0  0  0  0  0  0  0
   -8.2015   -1.9023   -8.1797 C   0  0  0  0  0  0  0  0  0  0  0  0
   -9.0092   -2.5263   -7.2520 C   0  0  0  0  0  0  0  0  0  0  0  0
   -9.5978   -2.9631   -5.0101 O   0  0  0  0  0  0  0  0  0  0  0  0
   -5.0636    3.6818   -1.6278 H   0  0  0  0  0  0  0  0  0  0  0  0
   -7.1140    1.8862   -4.7438 H   0  0  0  0  0  0  0  0  0  0  0  0
   -5.6126    1.0591   -6.9743 O   0  0  0  0  0  0  0  0  0  0  0  0
   -4.5182   -0.1355   -5.3246 C   0  0  0  0  0  0  0  0  0  0  0  0
   -2.0610    0.9429    0.5148 C   0  0  0  0  0  0  0  0  0  0  0  0
   -1.7318   -0.0650   -0.5093 N   0  0  0  0  0  0  0  0  0  0  0  0
   -0.9958    0.2879   -1.7339 C   0  0  0  0  0  0  0  0  0  0  0  0
   -2.8393   -0.9269   -0.9183 C   0  0  0  0  0  0  0  0  0  0  0  0
   -2.0661    0.4943   -2.7674 C   0  0  0  0  0  0  0  0  0  0  0  0
   -2.9969   -0.6724   -2.4278 C   0  0  0  0  0  0  0  0  0  0  0  0
   -4.9486    2.9914   -3.9029 H   0  0  0  0  0  0  0  0  0  0  0  0
   -4.2920    1.6819   -3.2016 H   0  0  0  0  0  0  0  0  0  0  0  0
   -5.9366    3.9995    1.4306 H   0  0  0  0  0  0  0  0  0  0  0  0
   -4.2275    0.7756   -0.6006 H   0  0  0  0  0  0  0  0  0  0  0  0
   -7.9770   -0.8077   -1.4970 H   0  0  0  0  0  0  0  0  0  0  0  0
   -8.1015    3.4526    0.1206 H   0  0  0  0  0  0  0  0  0  0  0  0
   -4.5583    3.7665    4.9837 H   0  0  0  0  0  0  0  0  0  0  0  0
   -3.7985    4.5932    3.7477 H   0  0  0  0  0  0  0  0  0  0  0  0
   -5.5894    4.8062    4.1312 H   0  0  0  0  0  0  0  0  0  0  0  0
   -4.3669    1.9864    4.8774 H   0  0  0  0  0  0  0  0  0  0  0  0
   -5.1348    0.8964    3.8624 H   0  0  0  0  0  0  0  0  0  0  0  0
   -3.4335    1.6090    3.5767 H   0  0  0  0  0  0  0  0  0  0  0  0
   -3.3927    2.1706   -0.4719 H   0  0  0  0  0  0  0  0  0  0  0  0
   -6.5521   -0.6920   -8.5372 H   0  0  0  0  0  0  0  0  0  0  0  0
   -8.3739   -2.0246   -9.2533 H   0  0  0  0  0  0  0  0  0  0  0  0
   -9.7940   -3.1962   -7.5962 H   0  0  0  0  0  0  0  0  0  0  0  0
  -10.5129   -2.9141   -5.3321 H   0  0  0  0  0  0  0  0  0  0  0  0
   -6.3575    0.9335   -7.5911 H   0  0  0  0  0  0  0  0  0  0  0  0
   -4.6371   -0.7772   -4.4599 H   0  0  0  0  0  0  0  0  0  0  0  0
   -3.7896   -0.5284   -6.0267 H   0  0  0  0  0  0  0  0  0  0  0  0
   -4.0565    0.8100   -5.0304 H   0  0  0  0  0  0  0  0  0  0  0  0
   -1.2809    1.7160    0.5843 H   0  0  0  0  0  0  0  0  0  0  0  0
   -2.0812    0.4227    1.4697 H   0  0  0  0  0  0  0  0  0  0  0  0
   -0.4115   -0.5816   -2.0726 H   0  0  0  0  0  0  0  0  0  0  0  0
   -0.2999    1.1264   -1.6587 H   0  0  0  0  0  0  0  0  0  0  0  0
   -3.7208   -0.7733   -0.2978 H   0  0  0  0  0  0  0  0  0  0  0  0
   -2.7073   -1.9825   -0.7145 H   0  0  0  0  0  0  0  0  0  0  0  0
   -2.4610    1.5066   -2.6074 H   0  0  0  0  0  0  0  0  0  0  0  0
   -1.7445    0.4497   -3.8127 H   0  0  0  0  0  0  0  0  0  0  0  0
   -4.0083   -0.4757   -2.7492 H   0  0  0  0  0  0  0  0  0  0  0  0
   -2.7786   -1.5730   -2.9934 H   0  0  0  0  0  0  0  0  0  0  0  0
  1 26  2  0  0  0  0
  1  2  1  0  0  0  0
  2 27  2  0  0  0  0
  3 11  1  0  0  0  0
  3  4  1  0  0  0  0
  3  5  1  0  0  0  0
  3 31  1  1  0  0  0
  4 12  1  0  0  0  0
  4  6  1  0  0  0  0
  4 13  1  1  0  0  0
  5  7  1  0  0  0  0
  5 41  1  0  0  0  0
  5 42  1  0  0  0  0
  6  8  2  0  0  0  0
  6 16  1  0  0  0  0
  7  8  1  0  0  0  0
  7 10  1  0  0  0  0
  7 32  1  1  0  0  0
  8  9  1  0  0  0  0
  9  2  1  0  0  0  0
  9 23  2  0  0  0  0
 10  1  1  0  0  0  0
 10 33  1  6  0  0  0
 10 34  1  0  0  0  0
 11 14  1  0  0  0  0
 11 43  1  1  0  0  0
 11 15  1  0  0  0  0
 12 17  1  0  0  0  0
 12 18  2  0  0  0  0
 13 44  1  0  0  0  0
 14 17  2  0  0  0  0
 14 19  1  0  0  0  0
 15 20  1  0  0  0  0
 15 21  1  0  0  0  0
 16 45  1  0  0  0  0
 17 22  1  0  0  0  0
 19 46  1  0  0  0  0
 20 47  1  0  0  0  0
 20 48  1  0  0  0  0
 20 49  1  0  0  0  0
 21 50  1  0  0  0  0
 21 51  1  0  0  0  0
 21 52  1  0  0  0  0
 22 24  1  0  0  0  0
 22 25  2  0  0  0  0
 24 35  1  0  0  0  0
 24 53  1  0  0  0  0
 26 28  1  0  0  0  0
 26 54  1  0  0  0  0
 27 29  1  0  0  0  0
 27 30  1  0  0  0  0
 28 29  2  0  0  0  0
 28 55  1  0  0  0  0
 29 56  1  0  0  0  0
 30 57  1  0  0  0  0
 33 58  1  0  0  0  0
 34 59  1  0  0  0  0
 34 60  1  0  0  0  0
 34 61  1  0  0  0  0
 35 36  1  0  0  0  0
 35 62  1  0  0  0  0
 35 63  1  0  0  0  0
 37 36  1  0  0  0  0
 37 64  1  0  0  0  0
 37 65  1  0  0  0  0
 38 36  1  0  0  0  0
 38 66  1  0  0  0  0
 38 67  1  0  0  0  0
 39 37  1  0  0  0  0
 39 68  1  0  0  0  0
 39 69  1  0  0  0  0
 40 38  1  0  0  0  0
 40 39  1  0  0  0  0
 40 70  1  0  0  0  0
 40 71  1  0  0  0  0
M  END
>  <DRUGBANK_ID>
DB01301

>  <COMMON_NAME>
Rolitetracycline

>  <CAS_NUMBER>
751-97-3

>  <UNII>
GH9IW85221

>  <SYNONYMS>
N-(1-Pyrrolidinylmethyl)-tetracycline; N-(Pyrrolidinomethyl)tetracycline; Pyrrolidino-methyl-tetracycline; Rolitetraciclina; Rolitetracycline; Rolitetracyclinum

$$$$
