
 OpenBabel10282417133D

 22 21  0  0  1  0  0  0  0  0999 V2000
    1.0528    0.0610    0.1742 N   0  0  0  0  0  0  0  0  0  0  0  0
    0.5372    1.4307   -0.0193 C   0  0  1  0  0  0  0  0  0  0  0  0
    1.0495    2.0592   -1.3184 C   0  0  0  0  0  0  0  0  0  0  0  0
    0.5443    1.3916   -2.5838 C   0  0  0  0  0  0  0  0  0  0  0  0
   -0.0597    1.9766   -3.4756 O   0  0  0  0  0  0  0  0  0  0  0  0
    0.9254    0.0855   -2.6547 O   0  0  0  0  0  0  0  0  0  0  0  0
    0.3934   -0.6157   -3.7796 C   0  0  0  0  0  0  0  0  0  0  0  0
   -1.1275   -0.7630   -3.7892 C   0  0  0  0  0  0  0  0  0  0  0  0
   -1.7407   -0.2671   -4.8881 O   0  0  0  0  0  0  0  0  0  0  0  0
   -1.7457   -1.3414   -2.9045 O   0  0  0  0  0  0  0  0  0  0  0  0
   -0.9999    1.4331   -0.0153 C   0  0  0  0  0  0  0  0  0  0  0  0
   -1.5814    2.1101    0.9975 O   0  0  0  0  0  0  0  0  0  0  0  0
   -1.6700    0.8948   -0.8884 O   0  0  0  0  0  0  0  0  0  0  0  0
    0.7031   -0.5108   -0.6082 H   0  0  0  0  0  0  0  0  0  0  0  0
    2.0667    0.0487    0.0598 H   0  0  0  0  0  0  0  0  0  0  0  0
    0.8954    2.0259    0.8293 H   0  0  0  0  0  0  0  0  0  0  0  0
    0.7206    3.1056   -1.3546 H   0  0  0  0  0  0  0  0  0  0  0  0
    2.1460    2.0762   -1.3451 H   0  0  0  0  0  0  0  0  0  0  0  0
    0.7713   -0.1843   -4.7137 H   0  0  0  0  0  0  0  0  0  0  0  0
    0.7907   -1.6385   -3.7452 H   0  0  0  0  0  0  0  0  0  0  0  0
   -1.1723    0.2681   -5.4736 H   0  0  0  0  0  0  0  0  0  0  0  0
   -0.9840    2.4590    1.6829 H   0  0  0  0  0  0  0  0  0  0  0  0
  1 14  1  0  0  0  0
  1 15  1  0  0  0  0
  2  1  1  0  0  0  0
  2  3  1  0  0  0  0
  2 11  1  0  0  0  0
  2 16  1  1  0  0  0
  3  4  1  0  0  0  0
  3 17  1  0  0  0  0
  3 18  1  0  0  0  0
  4  5  2  0  0  0  0
  4  6  1  0  0  0  0
  6  7  1  0  0  0  0
  7  8  1  0  0  0  0
  7 19  1  0  0  0  0
  7 20  1  0  0  0  0
  8  9  1  0  0  0  0
  8 10  2  0  0  0  0
  9 21  1  0  0  0  0
 11 12  1  0  0  0  0
 11 13  2  0  0  0  0
 12 22  1  0  0  0  0
M  END
>  <DRUGBANK_ID>
DB03522

>  <SECONDARY_ACCESSION_NUMBERS>
EXPT00567

>  <COMMON_NAME>
Aspartic Acid-4-Carboxymethyl Ester

$$$$
