
 OpenBabel10282417123D

 73 76  0  0  0  0  0  0  0  0999 V2000
    1.1219    0.1908    0.1435 O   0  0  0  0  0  0  0  0  0  0  0  0
   10.6762   -2.8056   -1.8656 O   0  0  0  0  0  0  0  0  0  0  0  0
    8.6911   -3.8756   -1.7734 O   0  0  0  0  0  0  0  0  0  0  0  0
    3.1146    1.0650   -0.6168 N   0  0  0  0  0  0  0  0  0  0  0  0
   -2.9724   -3.1041   -8.2489 N   0  0  0  0  0  0  0  0  0  0  0  0
    4.5321    1.0523   -0.7588 C   0  0  0  0  0  0  0  0  0  0  0  0
    2.3580    0.1389    0.1160 C   0  0  0  0  0  0  0  0  0  0  0  0
    2.3716    2.0140   -1.4933 C   0  0  0  0  0  0  0  0  0  0  0  0
    1.5654    1.3187   -2.5825 C   0  0  0  0  0  0  0  0  0  0  0  0
    3.0532   -0.9544    0.9289 C   0  0  0  0  0  0  0  0  0  0  0  0
   -0.0501   -0.0886   -4.4079 C   0  0  0  0  0  0  0  0  0  0  0  0
   -0.8277   -0.8336   -5.3832 C   0  0  0  0  0  0  0  0  0  0  0  0
    5.2471   -0.1312   -1.0084 C   0  0  0  0  0  0  0  0  0  0  0  0
    5.2333    2.2595   -0.6963 C   0  0  0  0  0  0  0  0  0  0  0  0
    6.6439   -0.1423   -1.0982 C   0  0  0  0  0  0  0  0  0  0  0  0
    1.7442   -0.0522   -2.8185 C   0  0  0  0  0  0  0  0  0  0  0  0
    0.5889    1.9985   -3.3236 C   0  0  0  0  0  0  0  0  0  0  0  0
    0.9302   -0.7549   -3.6827 C   0  0  0  0  0  0  0  0  0  0  0  0
   -0.2352    1.2877   -4.2042 C   0  0  0  0  0  0  0  0  0  0  0  0
   -1.6161   -1.9134   -4.9919 C   0  0  0  0  0  0  0  0  0  0  0  0
   -0.7664   -0.5099   -6.7352 C   0  0  0  0  0  0  0  0  0  0  0  0
    2.5507   -2.3442    0.4981 C   0  0  0  0  0  0  0  0  0  0  0  0
    2.8092   -0.6875    2.4081 C   0  0  0  0  0  0  0  0  0  0  0  0
    6.6117    2.2789   -0.8703 C   0  0  0  0  0  0  0  0  0  0  0  0
    7.3115    1.0846   -1.0191 C   0  0  0  0  0  0  0  0  0  0  0  0
   -2.2947   -2.3398   -7.3103 C   0  0  0  0  0  0  0  0  0  0  0  0
   -2.3310   -2.6490   -5.9393 C   0  0  0  0  0  0  0  0  0  0  0  0
   -1.5322   -1.2157   -7.6634 C   0  0  0  0  0  0  0  0  0  0  0  0
    7.3406   -1.4270   -1.3024 C   0  0  0  0  0  0  0  0  0  0  0  0
    3.1464   -3.4449    1.3723 C   0  0  0  0  0  0  0  0  0  0  0  0
    3.4059   -1.7973    3.2646 C   0  0  0  0  0  0  0  0  0  0  0  0
    2.8811   -3.1687    2.8491 C   0  0  0  0  0  0  0  0  0  0  0  0
    8.6699   -1.5307   -1.4640 C   0  0  0  0  0  0  0  0  0  0  0  0
    9.3297   -2.8243   -1.7083 C   0  0  0  0  0  0  0  0  0  0  0  0
   -2.8717   -2.8741   -9.6844 C   0  0  0  0  0  0  0  0  0  0  0  0
   -3.6542   -4.3297   -7.8420 C   0  0  0  0  0  0  0  0  0  0  0  0
   11.4711   -1.6080   -1.8016 C   0  0  0  0  0  0  0  0  0  0  0  0
    1.7019    2.6042   -0.8556 H   0  0  0  0  0  0  0  0  0  0  0  0
    3.0591    2.7041   -1.9974 H   0  0  0  0  0  0  0  0  0  0  0  0
    4.1329   -0.9495    0.8293 H   0  0  0  0  0  0  0  0  0  0  0  0
    4.7126   -1.0678   -1.1480 H   0  0  0  0  0  0  0  0  0  0  0  0
    4.7225    3.1947   -0.4817 H   0  0  0  0  0  0  0  0  0  0  0  0
    2.4931   -0.6251   -2.2885 H   0  0  0  0  0  0  0  0  0  0  0  0
    0.4396    3.0707   -3.2171 H   0  0  0  0  0  0  0  0  0  0  0  0
    1.0676   -1.8289   -3.7737 H   0  0  0  0  0  0  0  0  0  0  0  0
   -1.0494    1.7989   -4.7157 H   0  0  0  0  0  0  0  0  0  0  0  0
   -1.6694   -2.1955   -3.9426 H   0  0  0  0  0  0  0  0  0  0  0  0
   -0.1098    0.2833   -7.0869 H   0  0  0  0  0  0  0  0  0  0  0  0
    1.4563   -2.3909    0.5615 H   0  0  0  0  0  0  0  0  0  0  0  0
    2.8047   -2.5385   -0.5518 H   0  0  0  0  0  0  0  0  0  0  0  0
    3.2660    0.2731    2.6762 H   0  0  0  0  0  0  0  0  0  0  0  0
    1.7351   -0.5979    2.6043 H   0  0  0  0  0  0  0  0  0  0  0  0
    7.1511    3.2214   -0.8850 H   0  0  0  0  0  0  0  0  0  0  0  0
    8.3914    1.1523   -1.0816 H   0  0  0  0  0  0  0  0  0  0  0  0
   -2.9251   -3.4746   -5.5608 H   0  0  0  0  0  0  0  0  0  0  0  0
   -1.5008   -0.8365   -8.6764 H   0  0  0  0  0  0  0  0  0  0  0  0
    6.7222   -2.3246   -1.3373 H   0  0  0  0  0  0  0  0  0  0  0  0
    2.7191   -4.4147    1.0925 H   0  0  0  0  0  0  0  0  0  0  0  0
    4.2278   -3.5104    1.1968 H   0  0  0  0  0  0  0  0  0  0  0  0
    3.1681   -1.6071    4.3152 H   0  0  0  0  0  0  0  0  0  0  0  0
    4.4996   -1.7848    3.1713 H   0  0  0  0  0  0  0  0  0  0  0  0
    1.8016   -3.2164    3.0374 H   0  0  0  0  0  0  0  0  0  0  0  0
    3.3519   -3.9451    3.4609 H   0  0  0  0  0  0  0  0  0  0  0  0
    9.2916   -0.6550   -1.4346 H   0  0  0  0  0  0  0  0  0  0  0  0
   -2.3950   -3.7282  -10.1769 H   0  0  0  0  0  0  0  0  0  0  0  0
   -3.8757   -2.7428  -10.0989 H   0  0  0  0  0  0  0  0  0  0  0  0
   -2.3018   -1.9928   -9.9798 H   0  0  0  0  0  0  0  0  0  0  0  0
   -2.9685   -5.0248   -7.3418 H   0  0  0  0  0  0  0  0  0  0  0  0
   -4.4890   -4.0995   -7.1713 H   0  0  0  0  0  0  0  0  0  0  0  0
   -4.0719   -4.8598   -8.7048 H   0  0  0  0  0  0  0  0  0  0  0  0
   11.1804   -0.9140   -2.5965 H   0  0  0  0  0  0  0  0  0  0  0  0
   11.3844   -1.1450   -0.8137 H   0  0  0  0  0  0  0  0  0  0  0  0
   12.5168   -1.8852   -1.9573 H   0  0  0  0  0  0  0  0  0  0  0  0
  1  7  2  0  0  0  0
  2 34  1  0  0  0  0
  2 37  1  0  0  0  0
  3 34  2  0  0  0  0
  4  6  1  0  0  0  0
  4  7  1  0  0  0  0
  4  8  1  0  0  0  0
  5 26  1  0  0  0  0
  5 35  1  0  0  0  0
  5 36  1  0  0  0  0
  6 13  1  0  0  0  0
  6 14  2  0  0  0  0
  7 10  1  0  0  0  0
  8  9  1  0  0  0  0
  8 38  1  0  0  0  0
  8 39  1  0  0  0  0
  9 16  2  0  0  0  0
  9 17  1  0  0  0  0
 10 22  1  0  0  0  0
 10 23  1  0  0  0  0
 10 40  1  0  0  0  0
 11 12  1  0  0  0  0
 11 18  2  0  0  0  0
 11 19  1  0  0  0  0
 12 20  2  0  0  0  0
 12 21  1  0  0  0  0
 13 15  2  0  0  0  0
 13 41  1  0  0  0  0
 14 24  1  0  0  0  0
 14 42  1  0  0  0  0
 15 25  1  0  0  0  0
 15 29  1  0  0  0  0
 16 18  1  0  0  0  0
 16 43  1  0  0  0  0
 17 19  2  0  0  0  0
 17 44  1  0  0  0  0
 18 45  1  0  0  0  0
 19 46  1  0  0  0  0
 20 27  1  0  0  0  0
 20 47  1  0  0  0  0
 21 28  2  0  0  0  0
 21 48  1  0  0  0  0
 22 30  1  0  0  0  0
 22 49  1  0  0  0  0
 22 50  1  0  0  0  0
 23 31  1  0  0  0  0
 23 51  1  0  0  0  0
 23 52  1  0  0  0  0
 24 25  2  0  0  0  0
 24 53  1  0  0  0  0
 25 54  1  0  0  0  0
 26 27  2  0  0  0  0
 26 28  1  0  0  0  0
 27 55  1  0  0  0  0
 28 56  1  0  0  0  0
 29 33  2  0  0  0  0
 29 57  1  0  0  0  0
 30 32  1  0  0  0  0
 30 58  1  0  0  0  0
 30 59  1  0  0  0  0
 31 32  1  0  0  0  0
 31 60  1  0  0  0  0
 31 61  1  0  0  0  0
 32 62  1  0  0  0  0
 32 63  1  0  0  0  0
 33 34  1  0  0  0  0
 33 64  1  0  0  0  0
 35 65  1  0  0  0  0
 35 66  1  0  0  0  0
 35 67  1  0  0  0  0
 36 68  1  0  0  0  0
 36 69  1  0  0  0  0
 36 70  1  0  0  0  0
 37 71  1  0  0  0  0
 37 72  1  0  0  0  0
 37 73  1  0  0  0  0
M  END
>  <DRUGBANK_ID>
DB02545

>  <SECONDARY_ACCESSION_NUMBERS>
EXPT01424

>  <COMMON_NAME>
Fexaramine

>  <CAS_NUMBER>
574013-66-4

>  <UNII>
WTG9GFA65U

$$$$
