
 OpenBabel10282417143D

 52 54  0  0  1  0  0  0  0  0999 V2000
   -2.0661   -0.5685    0.4625 Cl  0  0  0  0  0  0  0  0  0  0  0  0
    4.4584   -0.6964    1.3831 O   0  0  0  0  0  0  0  0  0  0  0  0
   -0.8618   -0.2304   -2.9416 O   0  0  0  0  0  0  0  0  0  0  0  0
   -1.3435    1.7595   -1.9560 O   0  0  0  0  0  0  0  0  0  0  0  0
    2.1149    2.3989    1.6230 N   0  0  0  0  0  0  0  0  0  0  0  0
    5.3192   -2.0937   -1.0365 N   0  0  0  0  0  0  0  0  0  0  0  0
    4.0092    0.1128    2.5131 C   0  0  0  0  0  0  0  0  0  0  0  0
    2.5576   -0.0151    2.9697 C   0  0  0  0  0  0  0  0  0  0  0  0
    4.3642    1.6001    2.5015 C   0  0  0  0  0  0  0  0  0  0  0  0
    1.6332    1.1163    2.3870 C   0  0  0  0  0  0  0  0  0  0  0  0
    3.5784    2.5024    1.5438 C   0  0  0  0  0  0  0  0  0  0  0  0
    1.4474    3.0733    0.2309 C   0  0  0  0  0  0  0  0  0  0  0  0
    1.5695    2.5765   -1.5484 C   0  0  0  0  0  0  0  0  0  0  0  0
    4.0445   -0.3362    0.0587 C   0  0  3  0  0  0  0  0  0  0  0  0
    0.9940    1.1863   -2.3757 C   0  0  0  0  0  0  0  0  0  0  0  0
    2.5632   -0.6216   -0.0571 C   0  0  0  0  0  0  0  0  0  0  0  0
    4.6941   -0.9176   -1.1804 C   0  0  0  0  0  0  0  0  0  0  0  0
    1.7688    0.4637   -0.1007 C   0  0  0  0  0  0  0  0  0  0  0  0
    1.8232   -1.7738   -0.0310 C   0  0  0  0  0  0  0  0  0  0  0  0
   -0.5029    0.9853   -2.4649 C   0  0  0  0  0  0  0  0  0  0  0  0
    4.3917   -0.3416   -2.4384 C   0  0  0  0  0  0  0  0  0  0  0  0
    0.3164    0.5423    0.0958 C   0  0  0  0  0  0  0  0  0  0  0  0
    0.3836   -1.7585    0.0733 C   0  0  0  0  0  0  0  0  0  0  0  0
    4.6468   -1.0769   -3.5823 C   0  0  0  0  0  0  0  0  0  0  0  0
   -0.3754   -0.6077    0.2159 C   0  0  0  0  0  0  0  0  0  0  0  0
    5.5908   -2.7599   -2.1628 C   0  0  0  0  0  0  0  0  0  0  0  0
    5.2582   -2.3139   -3.4348 C   0  0  0  0  0  0  0  0  0  0  0  0
   -0.1049   -0.7983   -3.1970 H   0  0  0  0  0  0  0  0  0  0  0  0
    4.5692   -0.3545    3.3323 H   0  0  0  0  0  0  0  0  0  0  0  0
    2.2314   -1.0412    2.6751 H   0  0  0  0  0  0  0  0  0  0  0  0
    2.4217   -0.0067    4.0530 H   0  0  0  0  0  0  0  0  0  0  0  0
    4.1717    1.9819    3.5125 H   0  0  0  0  0  0  0  0  0  0  0  0
    5.4288    1.6997    2.2878 H   0  0  0  0  0  0  0  0  0  0  0  0
    1.3257    0.3290    1.7687 H   0  0  0  0  0  0  0  0  0  0  0  0
    0.6158    1.1976    2.7982 H   0  0  0  0  0  0  0  0  0  0  0  0
    3.8603    3.5466    1.7064 H   0  0  0  0  0  0  0  0  0  0  0  0
    3.9292    2.3442    0.5260 H   0  0  0  0  0  0  0  0  0  0  0  0
    0.4049    3.3356    0.4508 H   0  0  0  0  0  0  0  0  0  0  0  0
    1.9444    4.0601    0.2059 H   0  0  0  0  0  0  0  0  0  0  0  0
    1.1760    3.4082   -2.1398 H   0  0  0  0  0  0  0  0  0  0  0  0
    2.6586    2.5775   -1.7398 H   0  0  0  0  0  0  0  0  0  0  0  0
    4.4064    0.6902   -0.0620 H   0  0  0  0  0  0  0  0  0  0  0  0
    1.5717    0.9723   -3.2825 H   0  0  0  0  0  0  0  0  0  0  0  0
    1.2446    0.2047   -1.9730 H   0  0  0  0  0  0  0  0  0  0  0  0
    2.4188    1.3090   -0.1993 H   0  0  0  0  0  0  0  0  0  0  0  0
    2.3594   -2.7081   -0.0500 H   0  0  0  0  0  0  0  0  0  0  0  0
    3.8881    0.6192   -2.5269 H   0  0  0  0  0  0  0  0  0  0  0  0
   -0.2177    1.4894    0.2158 H   0  0  0  0  0  0  0  0  0  0  0  0
   -0.1596   -2.6860    0.0573 H   0  0  0  0  0  0  0  0  0  0  0  0
    4.3489   -0.7104   -4.5620 H   0  0  0  0  0  0  0  0  0  0  0  0
    6.0753   -3.7115   -1.9904 H   0  0  0  0  0  0  0  0  0  0  0  0
    5.4795   -2.9314   -4.2938 H   0  0  0  0  0  0  0  0  0  0  0  0
  1 25  1  0  0  0  0
  2  7  1  0  0  0  0
  2 14  1  0  0  0  0
  3 20  1  0  0  0  0
  3 28  1  0  0  0  0
  4 20  2  0  0  0  0
  5 10  1  0  0  0  0
  5 11  1  0  0  0  0
  5 12  1  0  0  0  0
  6 17  1  0  0  0  0
  6 26  2  0  0  0  0
  7  8  1  0  0  0  0
  7  9  1  0  0  0  0
  7 29  1  0  0  0  0
  8 10  1  0  0  0  0
  8 30  1  0  0  0  0
  8 31  1  0  0  0  0
  9 11  1  0  0  0  0
  9 32  1  0  0  0  0
  9 33  1  0  0  0  0
 10 34  1  0  0  0  0
 10 35  1  0  0  0  0
 11 36  1  0  0  0  0
 11 37  1  0  0  0  0
 12 13  1  0  0  0  0
 12 38  1  0  0  0  0
 12 39  1  0  0  0  0
 13 15  1  0  0  0  0
 13 40  1  0  0  0  0
 13 41  1  0  0  0  0
 14 16  1  0  0  0  0
 14 17  1  0  0  0  0
 14 42  1  0  0  0  0
 15 20  1  0  0  0  0
 15 43  1  0  0  0  0
 15 44  1  0  0  0  0
 16 18  2  0  0  0  0
 16 19  1  0  0  0  0
 17 21  2  0  0  0  0
 18 22  1  0  0  0  0
 18 45  1  0  0  0  0
 19 23  2  0  0  0  0
 19 46  1  0  0  0  0
 21 24  1  0  0  0  0
 21 47  1  0  0  0  0
 22 25  2  0  0  0  0
 22 48  1  0  0  0  0
 23 25  1  0  0  0  0
 23 49  1  0  0  0  0
 24 27  2  0  0  0  0
 24 50  1  0  0  0  0
 26 27  1  0  0  0  0
 26 51  1  0  0  0  0
 27 52  1  0  0  0  0
M  END
>  <DRUGBANK_ID>
DB04890

>  <COMMON_NAME>
Bepotastine

>  <CAS_NUMBER>
125602-71-3

>  <UNII>
HYD2U48IAS

>  <SYNONYMS>
bepotastina; Bepotastine

$$$$
