
 OpenBabel10282417223D

 40 43  0  0  0  0  0  0  0  0999 V2000
    0.5954    1.2870    1.0677 C   0  0  3  0  0  0  0  0  0  0  0  0
   -0.5994    0.3007    0.9248 C   0  0  0  0  0  0  0  0  0  0  0  0
    0.9888    1.4394   -0.2963 N   0  0  3  0  0  0  0  0  0  0  0  0
   -0.3841   -0.9666    0.3200 C   0  0  0  0  0  0  0  0  0  0  0  0
    0.8426   -1.4473   -0.1871 N   0  0  0  0  0  0  0  0  0  0  0  0
    0.2956    2.6805    1.2928 O   0  0  0  0  0  0  0  0  0  0  0  0
    1.7949   -0.7998   -0.9529 C   0  0  0  0  0  0  0  0  0  0  0  0
    2.1007    0.6811   -0.7596 C   0  0  0  0  0  0  0  0  0  0  0  0
   -0.1175    2.1106   -1.0444 C   0  0  0  0  0  0  0  0  0  0  0  0
   -1.9158    0.8109    0.9361 C   0  0  0  0  0  0  0  0  0  0  0  0
    1.5836    0.7616    2.1586 C   0  0  0  0  0  0  0  0  0  0  0  0
   -0.0184    3.2529   -0.0130 C   0  0  3  0  0  0  0  0  0  0  0  0
    2.5878   -1.4981   -1.6290 O   0  0  0  0  0  0  0  0  0  0  0  0
   -1.4622   -1.7298   -0.1363 C   0  0  0  0  0  0  0  0  0  0  0  0
   -2.9095    0.1587    0.2045 C   0  0  0  0  0  0  0  0  0  0  0  0
   -2.7071   -1.1287   -0.2804 C   0  0  0  0  0  0  0  0  0  0  0  0
   -4.3017    1.0429   -0.2974 Cl  0  0  0  0  0  0  0  0  0  0  0  0
    2.2438   -0.4919    2.1038 C   0  0  0  0  0  0  0  0  0  0  0  0
    1.7888    1.4497    3.3497 C   0  0  0  0  0  0  0  0  0  0  0  0
    0.9106    4.1131   -0.8871 C   0  0  0  0  0  0  0  0  0  0  0  0
    2.7660   -1.1769    3.1862 C   0  0  0  0  0  0  0  0  0  0  0  0
    2.5154    0.8579    4.3998 C   0  0  0  0  0  0  0  0  0  0  0  0
    2.9143   -0.4811    4.3539 C   0  0  0  0  0  0  0  0  0  0  0  0
    1.2048   -2.2538    0.3175 H   0  0  0  0  0  0  0  0  0  0  0  0
    2.8765    0.7302    0.0228 H   0  0  0  0  0  0  0  0  0  0  0  0
    2.6659    1.1171   -1.5861 H   0  0  0  0  0  0  0  0  0  0  0  0
   -1.2052    2.3842   -0.9571 H   0  0  0  0  0  0  0  0  0  0  0  0
   -0.6434    1.1841   -1.2988 H   0  0  0  0  0  0  0  0  0  0  0  0
   -2.0853    1.8388    1.2512 H   0  0  0  0  0  0  0  0  0  0  0  0
   -0.8856    3.9018    0.2060 H   0  0  0  0  0  0  0  0  0  0  0  0
   -1.2892   -2.7157   -0.5641 H   0  0  0  0  0  0  0  0  0  0  0  0
   -3.4823   -1.6393   -0.8436 H   0  0  0  0  0  0  0  0  0  0  0  0
    2.4883   -0.9937    1.1901 H   0  0  0  0  0  0  0  0  0  0  0  0
    1.4052    2.4596    3.4686 H   0  0  0  0  0  0  0  0  0  0  0  0
    1.4667    3.4979   -1.6197 H   0  0  0  0  0  0  0  0  0  0  0  0
    0.2526    4.6991   -1.5501 H   0  0  0  0  0  0  0  0  0  0  0  0
    1.6398    4.7176   -0.3713 H   0  0  0  0  0  0  0  0  0  0  0  0
    3.1098   -2.2011    3.0564 H   0  0  0  0  0  0  0  0  0  0  0  0
    2.7671    1.4501    5.2716 H   0  0  0  0  0  0  0  0  0  0  0  0
    3.4006   -0.9655    5.1916 H   0  0  0  0  0  0  0  0  0  0  0  0
  2  1  1  0  0  0  0
  3  1  1  0  0  0  0
  4  2  2  0  0  0  0
  5  4  1  0  0  0  0
  5  7  1  0  0  0  0
  5 24  1  0  0  0  0
  6  1  1  0  0  0  0
  7  8  1  0  0  0  0
  8  3  1  0  0  0  0
  8 25  1  0  0  0  0
  8 26  1  0  0  0  0
  9  3  1  0  0  0  0
  9 12  1  0  0  0  0
  9 27  1  0  0  0  0
  9 28  1  0  0  0  0
 10  2  1  0  0  0  0
 10 29  1  0  0  0  0
 11  1  1  0  0  0  0
 12  6  1  0  0  0  0
 12 30  1  0  0  0  0
 13  7  2  0  0  0  0
 14  4  1  0  0  0  0
 14 16  2  0  0  0  0
 14 31  1  0  0  0  0
 15 10  2  0  0  0  0
 16 15  1  0  0  0  0
 16 32  1  0  0  0  0
 17 15  1  0  0  0  0
 18 11  1  0  0  0  0
 18 33  1  0  0  0  0
 19 11  2  0  0  0  0
 19 34  1  0  0  0  0
 20 12  1  0  0  0  0
 20 35  1  0  0  0  0
 20 36  1  0  0  0  0
 20 37  1  0  0  0  0
 21 18  2  0  0  0  0
 21 23  1  0  0  0  0
 21 38  1  0  0  0  0
 22 19  1  0  0  0  0
 22 39  1  0  0  0  0
 23 22  2  0  0  0  0
 23 40  1  0  0  0  0
M  END
>  <DRUGBANK_ID>
DB15491

>  <COMMON_NAME>
Oxazolam

>  <CAS_NUMBER>
24143-17-7

>  <UNII>
1V2WI2NA1C

>  <SYNONYMS>
Oxazolam; Oxazolamum; Oxazolazepam

$$$$
