GK5
 OpenBabel10282417163D

 50 53  0  0  0  0  0  0  0  0999 V2000
    2.5237   -0.0037   -0.0539 C   0  0  0  0  0  0  0  0  0  0  0  0
   -3.5888    4.0574   -0.1696 C   0  0  0  0  0  0  0  0  0  0  0  0
   -2.8951    3.3073   -1.2323 C   0  0  0  0  0  0  0  0  0  0  0  0
   -3.4193    2.5959    0.0462 C   0  0  0  0  0  0  0  0  0  0  0  0
    3.8044   -7.9826    3.5750 C   0  0  0  0  0  0  0  0  0  0  0  0
    2.5703   -7.1149    3.6322 C   0  0  0  0  0  0  0  0  0  0  0  0
    3.9446   -6.5007    3.4876 C   0  0  0  0  0  0  0  0  0  0  0  0
    1.0191   -0.0400   -0.0536 C   0  0  0  0  0  0  0  0  0  0  0  0
    0.3800    1.1663    0.0067 C   0  0  0  0  0  0  0  0  0  0  0  0
   -0.9982    1.1883    0.0184 C   0  0  0  0  0  0  0  0  0  0  0  0
   -1.8339    0.0700   -0.0539 C   0  0  0  0  0  0  0  0  0  0  0  0
   -3.3512    0.1207   -0.1221 C   0  0  0  0  0  0  0  0  0  0  0  0
   -3.9949   -0.9198   -0.0783 O   0  0  0  0  0  0  0  0  0  0  0  0
   -4.0287    1.3469   -0.2395 N   0  0  0  0  0  0  0  0  0  0  0  0
   -1.1886   -1.1586   -0.0727 C   0  0  0  0  0  0  0  0  0  0  0  0
    0.2231   -1.2159   -0.1001 C   0  0  0  0  0  0  0  0  0  0  0  0
    0.8623   -2.5093   -0.0892 C   0  0  0  0  0  0  0  0  0  0  0  0
    1.6713   -2.7745    0.9852 C   0  0  0  0  0  0  0  0  0  0  0  0
    2.4555   -3.8944    0.9786 C   0  0  0  0  0  0  0  0  0  0  0  0
    2.3873   -4.8830    0.0045 C   0  0  0  0  0  0  0  0  0  0  0  0
    1.5040   -4.6433   -1.0597 C   0  0  0  0  0  0  0  0  0  0  0  0
    0.7595   -3.4529   -1.1130 C   0  0  0  0  0  0  0  0  0  0  0  0
    3.1873   -6.1564    0.0062 C   0  0  0  0  0  0  0  0  0  0  0  0
    3.0616   -6.9424   -0.9206 O   0  0  0  0  0  0  0  0  0  0  0  0
    4.0695   -6.4976    1.0120 N   0  0  0  0  0  0  0  0  0  0  0  0
    4.4534   -5.8665    2.2502 C   0  0  0  0  0  0  0  0  0  0  0  0
    2.9403   -0.4565    0.8491 H   0  0  0  0  0  0  0  0  0  0  0  0
    2.9106   -0.4970   -0.9471 H   0  0  0  0  0  0  0  0  0  0  0  0
    2.8946    1.0293   -0.0595 H   0  0  0  0  0  0  0  0  0  0  0  0
   -2.9297    4.6874    0.4355 H   0  0  0  0  0  0  0  0  0  0  0  0
   -4.5581    4.4868   -0.3340 H   0  0  0  0  0  0  0  0  0  0  0  0
   -3.4214    3.1967   -2.1756 H   0  0  0  0  0  0  0  0  0  0  0  0
   -1.8282    3.4282   -1.3919 H   0  0  0  0  0  0  0  0  0  0  0  0
   -2.9474    2.5093    1.0249 H   0  0  0  0  0  0  0  0  0  0  0  0
    4.1910   -8.4388    4.4746 H   0  0  0  0  0  0  0  0  0  0  0  0
    3.9801   -8.5530    2.6713 H   0  0  0  0  0  0  0  0  0  0  0  0
    1.8847   -7.1109    2.7920 H   0  0  0  0  0  0  0  0  0  0  0  0
    2.0683   -7.0165    4.5911 H   0  0  0  0  0  0  0  0  0  0  0  0
    4.2416   -5.9052    4.3470 H   0  0  0  0  0  0  0  0  0  0  0  0
    0.9156    2.1108    0.0377 H   0  0  0  0  0  0  0  0  0  0  0  0
   -1.3302    2.1934    0.1055 H   0  0  0  0  0  0  0  0  0  0  0  0
   -5.0362    1.2470   -0.1683 H   0  0  0  0  0  0  0  0  0  0  0  0
   -1.7599   -2.0874   -0.0498 H   0  0  0  0  0  0  0  0  0  0  0  0
    1.7864   -2.0766    1.8136 H   0  0  0  0  0  0  0  0  0  0  0  0
    3.1092   -3.8004    1.8052 H   0  0  0  0  0  0  0  0  0  0  0  0
    1.4035   -5.3593   -1.8736 H   0  0  0  0  0  0  0  0  0  0  0  0
    0.1149   -3.2508   -1.9641 H   0  0  0  0  0  0  0  0  0  0  0  0
    4.5147   -7.3874    0.8197 H   0  0  0  0  0  0  0  0  0  0  0  0
    5.5282   -5.6732    2.2404 H   0  0  0  0  0  0  0  0  0  0  0  0
    4.0554   -4.9013    2.3567 H   0  0  0  0  0  0  0  0  0  0  0  0
  1  8  1  0  0  0  0
  1 27  1  0  0  0  0
  1 28  1  0  0  0  0
  1 29  1  0  0  0  0
  2  3  1  0  0  0  0
  2  4  1  0  0  0  0
  2 30  1  0  0  0  0
  2 31  1  0  0  0  0
  3  4  1  0  0  0  0
  3 32  1  0  0  0  0
  3 33  1  0  0  0  0
  4 14  1  0  0  0  0
  4 34  1  0  0  0  0
  5  6  1  0  0  0  0
  5  7  1  0  0  0  0
  5 35  1  0  0  0  0
  5 36  1  0  0  0  0
  6  7  1  0  0  0  0
  6 37  1  0  0  0  0
  6 38  1  0  0  0  0
  7 26  1  0  0  0  0
  7 39  1  0  0  0  0
  8  9  2  0  0  0  0
  8 16  1  0  0  0  0
  9 10  1  0  0  0  0
  9 40  1  0  0  0  0
 10 11  2  0  0  0  0
 10 41  1  0  0  0  0
 11 12  1  0  0  0  0
 11 15  1  0  0  0  0
 12 13  2  0  0  0  0
 12 14  1  0  0  0  0
 14 42  1  0  0  0  0
 15 16  2  0  0  0  0
 15 43  1  0  0  0  0
 16 17  1  0  0  0  0
 17 18  2  0  0  0  0
 17 22  1  0  0  0  0
 18 19  1  0  0  0  0
 18 44  1  0  0  0  0
 19 20  2  0  0  0  0
 19 45  1  0  0  0  0
 20 21  1  0  0  0  0
 20 23  1  0  0  0  0
 21 22  2  0  0  0  0
 21 46  1  0  0  0  0
 22 47  1  0  0  0  0
 23 24  2  0  0  0  0
 23 25  1  0  0  0  0
 25 26  1  0  0  0  0
 25 48  1  0  0  0  0
 26 49  1  0  0  0  0
 26 50  1  0  0  0  0
M  END
>  <DRUGBANK_ID>
DB07835

>  <COMMON_NAME>
N~3~-cyclopropyl-N~4~'-(cyclopropylmethyl)-6-methylbiphenyl-3,4'-dicarboxamide

>  <UNII>
ATH2GHG7LR

$$$$
