MXT
 OpenBabel10282417173D

 40 41  0  0  0  0  0  0  0  0999 V2000
    0.0064    0.5391   -0.0345 N   0  0  0  0  0  0  0  0  0  0  0  0
   -2.8891    2.8451   -0.2290 N   0  0  0  0  0  0  0  0  0  0  0  0
   -2.8257    4.3155   -0.2737 O   0  0  0  0  0  0  0  0  0  0  0  0
   -2.1982   -0.5235   -0.1278 O   0  0  0  0  0  0  0  0  0  0  0  0
    2.3251    0.4889    0.0418 O   0  0  0  0  0  0  0  0  0  0  0  0
   -0.9657   -0.4916   -0.0543 C   0  0  0  0  0  0  0  0  0  0  0  0
   -0.0717    2.1255   -0.0819 C   0  0  0  0  0  0  0  0  0  0  0  0
   -0.7569    2.8256    1.1286 C   0  0  0  0  0  0  0  0  0  0  0  0
   -0.6494    2.7764   -1.3697 C   0  0  0  0  0  0  0  0  0  0  0  0
   -2.2801    2.5473    1.1504 C   0  0  0  0  0  0  0  0  0  0  0  0
   -3.0065    3.2517    2.3140 C   0  0  0  0  0  0  0  0  0  0  0  0
   -2.4669    1.1509    1.7158 C   0  0  0  0  0  0  0  0  0  0  0  0
   -2.1521    2.4701   -1.5271 C   0  0  0  0  0  0  0  0  0  0  0  0
   -2.2509    1.0428   -2.0545 C   0  0  0  0  0  0  0  0  0  0  0  0
   -2.7305    3.1297   -2.7977 C   0  0  0  0  0  0  0  0  0  0  0  0
    1.0444   -1.5552   -0.0307 C   0  0  0  0  0  0  0  0  0  0  0  0
   -0.4118   -1.8213    0.0395 C   0  0  0  0  0  0  0  0  0  0  0  0
    1.2124   -0.0693    0.0077 C   0  0  0  0  0  0  0  0  0  0  0  0
   -3.5660    4.5726    0.3054 H   0  0  0  0  0  0  0  0  0  0  0  0
    0.9751    2.4733   -0.0560 H   0  0  0  0  0  0  0  0  0  0  0  0
   -0.5941    3.9156    1.0760 H   0  0  0  0  0  0  0  0  0  0  0  0
   -0.2640    2.5039    2.0548 H   0  0  0  0  0  0  0  0  0  0  0  0
   -0.5160    3.8716   -1.3303 H   0  0  0  0  0  0  0  0  0  0  0  0
   -0.0713    2.4533   -2.2448 H   0  0  0  0  0  0  0  0  0  0  0  0
   -4.0582    2.9280    2.3262 H   0  0  0  0  0  0  0  0  0  0  0  0
   -2.5775    2.9272    3.2773 H   0  0  0  0  0  0  0  0  0  0  0  0
   -2.9524    4.3347    2.2931 H   0  0  0  0  0  0  0  0  0  0  0  0
   -1.6620    0.7030    1.2613 H   0  0  0  0  0  0  0  0  0  0  0  0
   -2.0983    0.8851    2.7176 H   0  0  0  0  0  0  0  0  0  0  0  0
   -3.4177    0.6647    1.4986 H   0  0  0  0  0  0  0  0  0  0  0  0
   -3.2083    0.5481   -1.8921 H   0  0  0  0  0  0  0  0  0  0  0  0
   -1.8556    0.7923   -3.0497 H   0  0  0  0  0  0  0  0  0  0  0  0
   -1.4398    0.5848   -1.5941 H   0  0  0  0  0  0  0  0  0  0  0  0
   -2.6836    4.2133   -2.8022 H   0  0  0  0  0  0  0  0  0  0  0  0
   -2.1650    2.7845   -3.6823 H   0  0  0  0  0  0  0  0  0  0  0  0
   -3.7643    2.7902   -2.9524 H   0  0  0  0  0  0  0  0  0  0  0  0
    1.5227   -2.0198    0.8273 H   0  0  0  0  0  0  0  0  0  0  0  0
    1.4145   -1.9321   -0.9836 H   0  0  0  0  0  0  0  0  0  0  0  0
   -0.7972   -2.2253    0.9829 H   0  0  0  0  0  0  0  0  0  0  0  0
   -0.8351   -2.3618   -0.8165 H   0  0  0  0  0  0  0  0  0  0  0  0
  1  6  1  0  0  0  0
  1  7  1  0  0  0  0
  1 18  1  0  0  0  0
  2  3  1  0  0  0  0
  2 10  1  0  0  0  0
  2 13  1  0  0  0  0
  3 19  1  0  0  0  0
  4  6  2  0  0  0  0
  5 18  2  0  0  0  0
  6 17  1  0  0  0  0
  7  8  1  0  0  0  0
  7  9  1  0  0  0  0
  7 20  1  0  0  0  0
  8 10  1  0  0  0  0
  8 21  1  0  0  0  0
  8 22  1  0  0  0  0
  9 13  1  0  0  0  0
  9 23  1  0  0  0  0
  9 24  1  0  0  0  0
 10 11  1  0  0  0  0
 10 12  1  0  0  0  0
 11 25  1  0  0  0  0
 11 26  1  0  0  0  0
 11 27  1  0  0  0  0
 12 28  1  0  0  0  0
 12 29  1  0  0  0  0
 12 30  1  0  0  0  0
 13 14  1  0  0  0  0
 13 15  1  0  0  0  0
 14 31  1  0  0  0  0
 14 32  1  0  0  0  0
 14 33  1  0  0  0  0
 15 34  1  0  0  0  0
 15 35  1  0  0  0  0
 15 36  1  0  0  0  0
 16 17  1  0  0  0  0
 16 18  1  0  0  0  0
 16 37  1  0  0  0  0
 16 38  1  0  0  0  0
 17 39  1  0  0  0  0
 17 40  1  0  0  0  0
M  END
>  <DRUGBANK_ID>
DB08227

>  <COMMON_NAME>
1-(1-HYDROXY-2,2,6,6-TETRAMETHYLPIPERIDIN-4-YL)PYRROLIDINE-2,5-DIONE

$$$$
