GZ2
 OpenBabel10282417163D

 22 23  0  0  0  0  0  0  0  0999 V2000
    2.2020    0.0515   -0.0623 O   0  0  0  0  0  0  0  0  0  0  0  0
    0.9812    0.0463    0.0373 C   0  0  0  0  0  0  0  0  0  0  0  0
    0.2541   -1.2327   -0.0525 C   0  0  0  0  0  0  0  0  0  0  0  0
   -1.0877   -1.3286    0.0096 C   0  0  0  0  0  0  0  0  0  0  0  0
   -1.9382   -0.0708    0.1267 C   0  0  0  0  0  0  0  0  0  0  0  0
   -1.1944    1.1949   -0.3226 C   0  0  0  0  0  0  0  0  0  0  0  0
    0.1859    1.2936    0.3100 C   0  0  0  0  0  0  0  0  0  0  0  0
   -1.7430   -2.5578   -0.1078 N   0  0  0  0  0  0  0  0  0  0  0  0
   -1.1168   -3.7623   -0.0304 C   0  0  0  0  0  0  0  0  0  0  0  0
   -0.1798   -4.1879    0.7915 N   0  0  0  0  0  0  0  0  0  0  0  0
    0.2786   -5.3781    0.2809 N   0  0  0  0  0  0  0  0  0  0  0  0
   -0.3461   -5.6811   -0.8477 N   0  0  0  0  0  0  0  0  0  0  0  0
   -1.2214   -4.6831   -1.0370 N   0  0  0  0  0  0  0  0  0  0  0  0
    0.8970   -2.0978   -0.1663 H   0  0  0  0  0  0  0  0  0  0  0  0
   -2.2605    0.0505    1.1687 H   0  0  0  0  0  0  0  0  0  0  0  0
   -2.8478   -0.1636   -0.4803 H   0  0  0  0  0  0  0  0  0  0  0  0
   -1.7776    2.0873   -0.0680 H   0  0  0  0  0  0  0  0  0  0  0  0
   -1.0927    1.1839   -1.4162 H   0  0  0  0  0  0  0  0  0  0  0  0
    0.1177    1.4267    1.3944 H   0  0  0  0  0  0  0  0  0  0  0  0
    0.7286    2.1442   -0.1157 H   0  0  0  0  0  0  0  0  0  0  0  0
   -2.7549   -2.5255   -0.0008 H   0  0  0  0  0  0  0  0  0  0  0  0
   -1.7516   -4.6393   -1.8947 H   0  0  0  0  0  0  0  0  0  0  0  0
  1  2  2  0  0  0  0
  2  3  1  0  0  0  0
  2  7  1  0  0  0  0
  3  4  2  0  0  0  0
  3 14  1  0  0  0  0
  4  5  1  0  0  0  0
  4  8  1  0  0  0  0
  5  6  1  0  0  0  0
  5 15  1  0  0  0  0
  5 16  1  0  0  0  0
  6  7  1  0  0  0  0
  6 17  1  0  0  0  0
  6 18  1  0  0  0  0
  7 19  1  0  0  0  0
  7 20  1  0  0  0  0
  8  9  1  0  0  0  0
  8 21  1  0  0  0  0
  9 10  2  0  0  0  0
  9 13  1  0  0  0  0
 10 11  1  0  0  0  0
 11 12  2  0  0  0  0
 12 13  1  0  0  0  0
 13 22  1  0  0  0  0
M  END
>  <DRUGBANK_ID>
DB07865

>  <COMMON_NAME>
3-(1H-tetrazol-5-ylamino)cyclohex-2-en-1-one

$$$$
