HOC
 OpenBabel10282417163D

 27 26  0  0  0  0  0  0  0  0999 V2000
    0.9517    0.1147   -0.1272 C   0  0  0  0  0  0  0  0  0  0  0  0
    0.5042   -1.3210   -0.3548 C   0  0  0  0  0  0  0  0  0  0  0  0
   -1.6569   -5.5034    2.8373 O   0  0  0  0  0  0  0  0  0  0  0  0
   -1.6228   -3.6920    4.4891 C   0  0  0  0  0  0  0  0  0  0  0  0
   -1.1859   -4.1722    3.0888 C   0  0  2  0  0  0  0  0  0  0  0  0
   -1.6611   -3.2117    1.9864 C   0  0  0  0  0  0  0  0  0  0  0  0
   -1.0972   -1.7933    2.1424 C   0  0  0  0  0  0  0  0  0  0  0  0
    0.4351   -1.7844    2.1366 C   0  0  0  0  0  0  0  0  0  0  0  0
    0.9879   -2.2283    0.7789 C   0  0  0  0  0  0  0  0  0  0  0  0
   -1.9755   -4.7090    5.3073 O   0  0  0  0  0  0  0  0  0  0  0  0
   -1.6306   -2.5318    4.8815 O   0  0  0  0  0  0  0  0  0  0  0  0
   -0.0952   -4.2553    3.0934 H   0  0  0  0  0  0  0  0  0  0  0  0
    0.5552    0.5276    0.8061 H   0  0  0  0  0  0  0  0  0  0  0  0
    0.5996    0.7621   -0.9316 H   0  0  0  0  0  0  0  0  0  0  0  0
    2.0435    0.1611   -0.0784 H   0  0  0  0  0  0  0  0  0  0  0  0
   -0.5872   -1.3559   -0.4488 H   0  0  0  0  0  0  0  0  0  0  0  0
    0.8896   -1.6892   -1.3099 H   0  0  0  0  0  0  0  0  0  0  0  0
   -2.3847   -5.4509    2.1909 H   0  0  0  0  0  0  0  0  0  0  0  0
   -2.7562   -3.1704    1.9621 H   0  0  0  0  0  0  0  0  0  0  0  0
   -1.3846   -3.6171    1.0027 H   0  0  0  0  0  0  0  0  0  0  0  0
   -1.4572   -1.3124    3.0527 H   0  0  0  0  0  0  0  0  0  0  0  0
   -1.5055   -1.1499    1.3567 H   0  0  0  0  0  0  0  0  0  0  0  0
    0.8426   -2.4219    2.9276 H   0  0  0  0  0  0  0  0  0  0  0  0
    0.7956   -0.7843    2.3974 H   0  0  0  0  0  0  0  0  0  0  0  0
    0.6956   -3.2640    0.5678 H   0  0  0  0  0  0  0  0  0  0  0  0
    2.0828   -2.2320    0.8138 H   0  0  0  0  0  0  0  0  0  0  0  0
   -1.8777   -5.5620    4.8333 H   0  0  0  0  0  0  0  0  0  0  0  0
  1  2  1  0  0  0  0
  1 13  1  0  0  0  0
  1 14  1  0  0  0  0
  1 15  1  0  0  0  0
  2  9  1  0  0  0  0
  2 16  1  0  0  0  0
  2 17  1  0  0  0  0
  3 18  1  0  0  0  0
  4 10  1  0  0  0  0
  4 11  2  0  0  0  0
  5  6  1  0  0  0  0
  5 12  1  6  0  0  0
  5  4  1  0  0  0  0
  5  3  1  0  0  0  0
  6  7  1  0  0  0  0
  6 19  1  0  0  0  0
  6 20  1  0  0  0  0
  7  8  1  0  0  0  0
  7 21  1  0  0  0  0
  7 22  1  0  0  0  0
  8  9  1  0  0  0  0
  8 23  1  0  0  0  0
  8 24  1  0  0  0  0
  9 25  1  0  0  0  0
  9 26  1  0  0  0  0
 10 27  1  0  0  0  0
M  END
>  <DRUGBANK_ID>
DB07907

>  <COMMON_NAME>
(2S)-2-HYDROXYOCTANOIC ACID

$$$$
