
 OpenBabel10282417193D

 52 55  0  0  1  0  0  0  0  0999 V2000
   -8.6032   -1.7636    1.3651 C   0  0  0  0  0  0  0  0  0  0  0  0
   -7.9752   -0.3668    1.1643 C   0  0  0  0  0  0  0  0  0  0  0  0
   -8.0797    0.3611    2.5249 C   0  0  0  0  0  0  0  0  0  0  0  0
   -6.4951   -0.4800    0.7038 C   0  0  1  0  0  0  0  0  0  0  0  0
   -5.7387    0.8511    0.8616 C   0  0  0  0  0  0  0  0  0  0  0  0
   -4.7764    0.4550    1.9668 C   0  0  0  0  0  0  0  0  0  0  0  0
   -5.1839   -0.5969    2.6078 N   0  0  0  0  0  0  0  0  0  0  0  0
   -5.9632   -1.3468    1.6966 O   0  0  0  0  0  0  0  0  0  0  0  0
   -3.4632    1.1977    2.3305 C   0  0  0  0  0  0  0  0  0  0  0  0
   -3.5667    2.2564    3.1386 C   0  0  0  0  0  0  0  0  0  0  0  0
   -4.8393    2.6382    3.5125 C   0  0  0  0  0  0  0  0  0  0  0  0
   -5.0007    3.7904    4.2065 C   0  0  0  0  0  0  0  0  0  0  0  0
   -3.8681    4.4946    4.5920 C   0  0  0  0  0  0  0  0  0  0  0  0
   -2.5673    4.0551    4.2896 C   0  0  0  0  0  0  0  0  0  0  0  0
   -2.3820    2.9129    3.5321 C   0  0  0  0  0  0  0  0  0  0  0  0
   -1.1097    2.4176    3.1813 C   0  0  0  0  0  0  0  0  0  0  0  0
   -1.0765    1.3126    2.3785 C   0  0  0  0  0  0  0  0  0  0  0  0
   -2.2210    0.7727    1.9004 N   0  0  0  0  0  0  0  0  0  0  0  0
   -6.3534   -1.0420   -0.7631 C   0  0  0  0  0  0  0  0  0  0  0  0
   -7.3418   -1.1382   -1.5061 O   0  0  0  0  0  0  0  0  0  0  0  0
   -5.1523   -1.3308   -1.3621 N   0  0  0  0  0  0  0  0  0  0  0  0
   -3.7451   -1.5537   -0.9202 C   0  0  1  0  0  0  0  0  0  0  0  0
   -3.2347   -0.6312    0.1104 C   0  0  0  0  0  0  0  0  0  0  0  0
   -3.2763   -1.5854    1.4159 C   0  0  0  0  0  0  0  0  0  0  0  0
   -2.7712   -1.4856    2.5484 O   0  0  0  0  0  0  0  0  0  0  0  0
   -3.8832   -2.7498    1.0746 O   0  0  0  0  0  0  0  0  0  0  0  0
   -3.3896   -2.8634   -0.2202 C   0  0  2  0  0  0  0  0  0  0  0  0
   -1.8304   -3.0209   -0.0177 C   0  0  0  0  0  0  0  0  0  0  0  0
   -1.1729   -2.2663   -0.9362 F   0  0  0  0  0  0  0  0  0  0  0  0
   -4.0023   -3.9371   -0.8863 O   0  0  0  0  0  0  0  0  0  0  0  0
   -8.0899   -2.3342    2.1512 H   0  0  0  0  0  0  0  0  0  0  0  0
   -8.5692   -2.3683    0.4547 H   0  0  0  0  0  0  0  0  0  0  0  0
   -9.6455   -1.6644    1.6783 H   0  0  0  0  0  0  0  0  0  0  0  0
   -8.5468    0.1868    0.4123 H   0  0  0  0  0  0  0  0  0  0  0  0
   -7.5117   -0.1578    3.3064 H   0  0  0  0  0  0  0  0  0  0  0  0
   -7.7085    1.3849    2.4872 H   0  0  0  0  0  0  0  0  0  0  0  0
   -9.1110    0.4393    2.8598 H   0  0  0  0  0  0  0  0  0  0  0  0
   -5.3533    1.2712   -0.0662 H   0  0  0  0  0  0  0  0  0  0  0  0
   -6.3565    1.6595    1.2340 H   0  0  0  0  0  0  0  0  0  0  0  0
   -5.7207    2.0567    3.2758 H   0  0  0  0  0  0  0  0  0  0  0  0
   -6.0146    4.0885    4.4338 H   0  0  0  0  0  0  0  0  0  0  0  0
   -4.0102    5.3989    5.1625 H   0  0  0  0  0  0  0  0  0  0  0  0
   -1.7088    4.6146    4.6405 H   0  0  0  0  0  0  0  0  0  0  0  0
   -0.1830    2.8723    3.5186 H   0  0  0  0  0  0  0  0  0  0  0  0
   -0.1352    0.8316    2.0965 H   0  0  0  0  0  0  0  0  0  0  0  0
   -5.3230   -1.6477   -2.3141 H   0  0  0  0  0  0  0  0  0  0  0  0
   -3.1678   -1.4055   -1.8374 H   0  0  0  0  0  0  0  0  0  0  0  0
   -2.2396   -0.2511   -0.1259 H   0  0  0  0  0  0  0  0  0  0  0  0
   -3.8321    0.2544    0.0060 H   0  0  0  0  0  0  0  0  0  0  0  0
   -1.4558   -2.6796    0.9629 H   0  0  0  0  0  0  0  0  0  0  0  0
   -1.5320   -4.0580   -0.0851 H   0  0  0  0  0  0  0  0  0  0  0  0
   -3.3102   -4.3625   -1.4058 H   0  0  0  0  0  0  0  0  0  0  0  0
  1  2  1  0  0  0  0
  1 31  1  0  0  0  0
  1 32  1  0  0  0  0
  1 33  1  0  0  0  0
  2  3  1  0  0  0  0
  2 34  1  0  0  0  0
  3 35  1  0  0  0  0
  3 36  1  0  0  0  0
  3 37  1  0  0  0  0
  4  2  1  0  0  0  0
  4  5  1  0  0  0  0
  4  8  1  0  0  0  0
  4 19  1  6  0  0  0
  5  6  1  0  0  0  0
  5 38  1  0  0  0  0
  5 39  1  0  0  0  0
  6  7  2  0  0  0  0
  6  9  1  0  0  0  0
  7  8  1  0  0  0  0
  9 10  1  0  0  0  0
  9 18  2  0  0  0  0
 10 11  2  0  0  0  0
 10 15  1  0  0  0  0
 11 12  1  0  0  0  0
 11 40  1  0  0  0  0
 12 13  2  0  0  0  0
 12 41  1  0  0  0  0
 13 14  1  0  0  0  0
 13 42  1  0  0  0  0
 14 15  2  0  0  0  0
 14 43  1  0  0  0  0
 15 16  1  0  0  0  0
 16 17  2  0  0  0  0
 16 44  1  0  0  0  0
 17 18  1  0  0  0  0
 17 45  1  0  0  0  0
 19 20  2  0  0  0  0
 19 21  1  0  0  0  0
 21 46  1  0  0  0  0
 22 23  1  0  0  0  0
 22 27  1  0  0  0  0
 22 47  1  6  0  0  0
 22 21  1  0  0  0  0
 23 24  1  0  0  0  0
 23 48  1  0  0  0  0
 23 49  1  0  0  0  0
 24 25  2  0  0  0  0
 24 26  1  0  0  0  0
 26 27  1  0  0  0  0
 27 30  1  6  0  0  0
 27 28  1  0  0  0  0
 28 29  1  0  0  0  0
 28 50  1  0  0  0  0
 28 51  1  0  0  0  0
 30 52  1  0  0  0  0
M  END
>  <DRUGBANK_ID>
DB12720

>  <COMMON_NAME>
Nivocasan

>  <CAS_NUMBER>
908253-63-4

>  <UNII>
9554OW6MVU

>  <SYNONYMS>
Nivocasan

$$$$
