
 OpenBabel10282417133D

 42 45  0  0  0  0  0  0  0  0999 V2000
    2.1992   -0.6619   -0.0202 C   0  0  0  0  0  0  0  0  0  0  0  0
   -7.1118    4.8481    0.6540 C   0  0  0  0  0  0  0  0  0  0  0  0
    1.0033   -1.4143    0.0103 C   0  0  0  0  0  0  0  0  0  0  0  0
   -6.7837    3.6171    1.2474 C   0  0  0  0  0  0  0  0  0  0  0  0
    0.9405    1.4077   -0.0234 C   0  0  0  0  0  0  0  0  0  0  0  0
   -5.5779    4.4380   -1.1868 C   0  0  0  0  0  0  0  0  0  0  0  0
    2.1962    0.7454   -0.0597 C   0  0  0  0  0  0  0  0  0  0  0  0
   -6.5193    5.2701   -0.5479 C   0  0  0  0  0  0  0  0  0  0  0  0
   -0.2029   -0.7115   -0.0031 C   0  0  0  0  0  0  0  0  0  0  0  0
   -5.8437    2.7922    0.6172 C   0  0  0  0  0  0  0  0  0  0  0  0
   -0.2621    0.6695   -0.0139 C   0  0  0  0  0  0  0  0  0  0  0  0
   -5.2682    3.2161   -0.5720 C   0  0  0  0  0  0  0  0  0  0  0  0
   -3.7777   -0.0488    0.0232 C   0  0  0  0  0  0  0  0  0  0  0  0
    3.4968    1.5476   -0.1379 C   0  0  0  0  0  0  0  0  0  0  0  0
   -6.8835    6.6128   -1.1262 C   0  0  0  0  0  0  0  0  0  0  0  0
   -2.3201    0.0264   -0.0120 C   0  0  0  0  0  0  0  0  0  0  0  0
   -4.4813    1.2176    0.0477 C   0  0  0  0  0  0  0  0  0  0  0  0
    3.4556    2.8388   -0.1643 N   0  3  0  0  0  0  0  0  0  0  0  0
    4.7940    0.9169   -0.0342 N   0  3  0  0  0  0  0  0  0  0  0  0
   -6.3820    7.0802   -2.2277 N   0  0  0  0  0  0  0  0  0  0  0  0
   -7.7627    7.4399   -0.5048 N   0  0  0  0  0  0  0  0  0  0  0  0
   -1.5203   -1.1026   -0.0122 N   0  0  0  0  0  0  0  0  0  0  0  0
   -5.3552    1.5603    0.9814 N   0  0  0  0  0  0  0  0  0  0  0  0
   -1.5604    1.1167   -0.0358 N   0  0  0  0  0  0  0  0  0  0  0  0
   -4.4198    2.1943   -0.9214 N   0  0  0  0  0  0  0  0  0  0  0  0
   -4.3439   -1.1509    0.0234 O   0  0  0  0  0  0  0  0  0  0  0  0
    3.1087   -1.2577   -0.0225 H   0  0  0  0  0  0  0  0  0  0  0  0
   -7.8472    5.4601    1.1666 H   0  0  0  0  0  0  0  0  0  0  0  0
    1.0198   -2.5035    0.0249 H   0  0  0  0  0  0  0  0  0  0  0  0
   -7.2535    3.3125    2.1774 H   0  0  0  0  0  0  0  0  0  0  0  0
    0.7946    2.4802   -0.0146 H   0  0  0  0  0  0  0  0  0  0  0  0
   -5.0965    4.7078   -2.1166 H   0  0  0  0  0  0  0  0  0  0  0  0
    4.2603    3.4687   -0.1709 H   0  0  0  0  0  0  0  0  0  0  0  0
    2.5789    3.3663   -0.1005 H   0  0  0  0  0  0  0  0  0  0  0  0
    5.3386    1.4405    0.6629 H   0  0  0  0  0  0  0  0  0  0  0  0
    4.7385   -0.0717    0.2435 H   0  0  0  0  0  0  0  0  0  0  0  0
    5.4562    0.9434   -0.8350 H   0  0  0  0  0  0  0  0  0  0  0  0
   -5.7268    6.4463   -2.6750 H   0  0  0  0  0  0  0  0  0  0  0  0
   -8.3047    7.2079    0.3114 H   0  0  0  0  0  0  0  0  0  0  0  0
   -8.0061    8.2966   -0.9885 H   0  0  0  0  0  0  0  0  0  0  0  0
   -1.8830   -2.0506   -0.0123 H   0  0  0  0  0  0  0  0  0  0  0  0
   -3.8779    2.1460   -1.7704 H   0  0  0  0  0  0  0  0  0  0  0  0
  1 27  1  0  0  0  0
  2 28  1  0  0  0  0
  3  1  2  0  0  0  0
  3 29  1  0  0  0  0
  4  2  2  0  0  0  0
  4 30  1  0  0  0  0
  5 31  1  0  0  0  0
  6 32  1  0  0  0  0
  7  1  1  0  0  0  0
  7  5  2  0  0  0  0
  8  2  1  0  0  0  0
  8  6  2  0  0  0  0
  9  3  1  0  0  0  0
 10  4  1  0  0  0  0
 11  5  1  0  0  0  0
 11  9  2  0  0  0  0
 12  6  1  0  0  0  0
 12 10  2  0  0  0  0
 14  7  1  0  0  0  0
 15  8  1  0  0  0  0
 16 13  1  0  0  0  0
 17 13  1  0  0  0  0
 18 14  2  0  0  0  0
 18 33  1  0  0  0  0
 18 34  1  0  0  0  0
 19 14  1  0  0  0  0
 19 35  1  0  0  0  0
 19 36  1  0  0  0  0
 19 37  1  0  0  0  0
 20 15  2  0  0  0  0
 20 38  1  0  0  0  0
 21 15  1  0  0  0  0
 21 39  1  0  0  0  0
 21 40  1  0  0  0  0
 22  9  1  0  0  0  0
 22 16  1  0  0  0  0
 22 41  1  0  0  0  0
 23 10  1  0  0  0  0
 23 17  2  0  0  0  0
 24 11  1  0  0  0  0
 24 16  2  0  0  0  0
 25 12  1  0  0  0  0
 25 17  1  0  0  0  0
 25 42  1  0  0  0  0
 26 13  2  0  0  0  0
M  CHG  2  18   1  19   1
M  END
>  <DRUGBANK_ID>
DB03213

>  <SECONDARY_ACCESSION_NUMBERS>
EXPT00623

>  <COMMON_NAME>
Bis(5-Amidino-2-Benzimidazolyl)Methane Ketone

$$$$
