
 OpenBabel10282417203D

 51 51  0  0  0  0  0  0  0  0999 V2000
    0.9383   -0.5313    0.2224 O   0  0  0  0  0  0  0  0  0  0  0  0
    0.1206    0.5895    0.5853 C   0  0  0  0  0  0  0  0  0  0  0  0
    2.2736   -0.3059    0.0744 C   0  0  0  0  0  0  0  0  0  0  0  0
    0.6087    1.9747    1.6444 C   0  0  0  0  0  0  0  0  0  0  0  0
    2.8846    0.9149   -0.0098 C   0  0  0  0  0  0  0  0  0  0  0  0
    3.0998   -1.3879    0.1481 C   0  0  0  0  0  0  0  0  0  0  0  0
    1.2493    3.3827    1.2883 N   0  0  0  0  0  0  0  0  0  0  0  0
    0.4592    1.6833    2.8534 O   0  0  0  0  0  0  0  0  0  0  0  0
    2.1184    1.9807   -0.2537 O   0  0  0  0  0  0  0  0  0  0  0  0
    4.2894    1.1251    0.2080 C   0  0  0  0  0  0  0  0  0  0  0  0
    4.4420   -1.1978    0.5163 C   0  0  0  0  0  0  0  0  0  0  0  0
    1.6947    4.0762    2.5029 C   0  0  0  0  0  0  0  0  0  0  0  0
    1.7729    4.3055   -0.0936 C   0  0  0  0  0  0  0  0  0  0  0  0
    0.9344    2.1335   -1.1044 C   0  0  0  0  0  0  0  0  0  0  0  0
    5.1226    0.0537    0.4660 C   0  0  0  0  0  0  0  0  0  0  0  0
    3.2065    4.2938    2.4858 C   0  0  0  0  0  0  0  0  0  0  0  0
    2.9399    3.8210   -1.2492 C   0  0  0  0  0  0  0  0  0  0  0  0
    6.6786    0.2299    0.5186 C   0  0  0  0  0  0  0  0  0  0  0  0
    7.3198   -0.6063    1.6171 C   0  0  0  0  0  0  0  0  0  0  0  0
    7.9628   -1.7732    1.2731 O   0  0  0  0  0  0  0  0  0  0  0  0
    7.1873   -0.2902    2.7654 O   0  0  0  0  0  0  0  0  0  0  0  0
    8.4313   -2.3252   -0.0073 C   0  0  0  0  0  0  0  0  0  0  0  0
    7.3581   -3.0119   -0.8847 C   0  0  0  0  0  0  0  0  0  0  0  0
    6.4195   -2.0071   -1.4625 C   0  0  0  0  0  0  0  0  0  0  0  0
   -0.3825    0.7661   -0.3761 H   0  0  0  0  0  0  0  0  0  0  0  0
   -0.8332    0.2222    1.0015 H   0  0  0  0  0  0  0  0  0  0  0  0
    2.6912   -2.3794   -0.0077 H   0  0  0  0  0  0  0  0  0  0  0  0
    4.7381    2.1171    0.2174 H   0  0  0  0  0  0  0  0  0  0  0  0
    4.9554   -2.1220    0.7762 H   0  0  0  0  0  0  0  0  0  0  0  0
    1.1760    5.0419    2.5433 H   0  0  0  0  0  0  0  0  0  0  0  0
    1.4335    3.5400    3.4175 H   0  0  0  0  0  0  0  0  0  0  0  0
    0.8657    4.6754   -0.5912 H   0  0  0  0  0  0  0  0  0  0  0  0
    2.1986    5.2417    0.2829 H   0  0  0  0  0  0  0  0  0  0  0  0
    0.9412    1.4297   -1.9096 H   0  0  0  0  0  0  0  0  0  0  0  0
    0.0462    2.3579   -0.4900 H   0  0  0  0  0  0  0  0  0  0  0  0
    0.7845    3.0980   -1.5841 H   0  0  0  0  0  0  0  0  0  0  0  0
    3.5426    4.8955    1.6373 H   0  0  0  0  0  0  0  0  0  0  0  0
    3.5298    4.8292    3.3796 H   0  0  0  0  0  0  0  0  0  0  0  0
    3.7347    3.3393    2.4174 H   0  0  0  0  0  0  0  0  0  0  0  0
    2.8607    2.8487   -1.7882 H   0  0  0  0  0  0  0  0  0  0  0  0
    2.9264    4.4325   -2.1525 H   0  0  0  0  0  0  0  0  0  0  0  0
    3.9238    3.7532   -0.7902 H   0  0  0  0  0  0  0  0  0  0  0  0
    7.2081    0.0333   -0.4233 H   0  0  0  0  0  0  0  0  0  0  0  0
    6.9707    1.2816    0.6465 H   0  0  0  0  0  0  0  0  0  0  0  0
    8.9984   -1.5622   -0.5486 H   0  0  0  0  0  0  0  0  0  0  0  0
    9.1368   -3.1157    0.2769 H   0  0  0  0  0  0  0  0  0  0  0  0
    7.7791   -3.5645   -1.7210 H   0  0  0  0  0  0  0  0  0  0  0  0
    6.7736   -3.6871   -0.2450 H   0  0  0  0  0  0  0  0  0  0  0  0
    6.8390   -1.1923   -2.0542 H   0  0  0  0  0  0  0  0  0  0  0  0
    5.4465   -2.3313   -1.8320 H   0  0  0  0  0  0  0  0  0  0  0  0
    6.1964   -1.5795   -0.5365 H   0  0  0  0  0  0  0  0  0  0  0  0
  1  2  1  0  0  0  0
  1  3  1  0  0  0  0
  2  4  1  0  0  0  0
  2 25  1  0  0  0  0
  2 26  1  0  0  0  0
  3  5  2  0  0  0  0
  3  6  1  0  0  0  0
  4  7  1  0  0  0  0
  4  8  2  0  0  0  0
  5  9  1  0  0  0  0
  5 10  1  0  0  0  0
  6 11  2  0  0  0  0
  6 27  1  0  0  0  0
  7 12  1  0  0  0  0
  7 13  1  0  0  0  0
  9 14  1  0  0  0  0
 10 15  2  0  0  0  0
 10 28  1  0  0  0  0
 11 15  1  0  0  0  0
 11 29  1  0  0  0  0
 12 16  1  0  0  0  0
 12 30  1  0  0  0  0
 12 31  1  0  0  0  0
 13 17  1  0  0  0  0
 13 32  1  0  0  0  0
 13 33  1  0  0  0  0
 14 34  1  0  0  0  0
 14 35  1  0  0  0  0
 14 36  1  0  0  0  0
 15 18  1  0  0  0  0
 16 37  1  0  0  0  0
 16 38  1  0  0  0  0
 16 39  1  0  0  0  0
 17 40  1  0  0  0  0
 17 41  1  0  0  0  0
 17 42  1  0  0  0  0
 18 19  1  0  0  0  0
 18 43  1  0  0  0  0
 18 44  1  0  0  0  0
 19 20  1  0  0  0  0
 19 21  2  0  0  0  0
 20 22  1  0  0  0  0
 22 23  1  0  0  0  0
 22 45  1  0  0  0  0
 22 46  1  0  0  0  0
 23 24  1  0  0  0  0
 23 47  1  0  0  0  0
 23 48  1  0  0  0  0
 24 49  1  0  0  0  0
 24 50  1  0  0  0  0
 24 51  1  0  0  0  0
M  END
>  <DRUGBANK_ID>
DB13234

>  <COMMON_NAME>
Propanidid

>  <CAS_NUMBER>
1421-14-3

>  <UNII>
AO82L471NS

>  <SYNONYMS>
Propanidid; Propanidido; Propanididum

$$$$
