
 OpenBabel10282417103D

 49 47  0  0  0  0  0  0  0  0999 V2000
    0.7564    0.1175    0.0447 C   0  0  3  0  0  0  0  0  0  0  0  0
    0.4367   -0.4973    1.3538 O   0  0  0  0  0  0  0  0  0  0  0  0
    0.2820    1.5538   -0.2031 C   0  0  0  0  0  0  0  0  0  0  0  0
    0.9079    2.1189   -1.4801 C   0  0  0  0  0  0  0  0  0  0  0  0
    0.5090    1.4730   -2.8151 C   0  0  3  0  0  0  0  0  0  0  0  0
   -1.0497    1.2098   -2.7990 C   0  0  0  0  0  0  0  0  0  0  0  0
   -1.7639    2.5073   -3.0413 C   0  0  0  0  0  0  0  0  0  0  0  0
   -1.4002    3.0221   -4.4144 C   0  0  0  0  0  0  0  0  0  0  0  0
   -1.7162    1.9931   -5.4988 C   0  0  0  0  0  0  0  0  0  0  0  0
    1.1269    1.4349   -4.2453 C   0  0  0  0  0  0  0  0  0  0  0  0
    2.6204    1.5389   -4.3073 C   0  0  0  0  0  0  0  0  0  0  0  0
    0.2750   -0.8592   -0.9965 C   0  0  0  0  0  0  0  0  0  0  0  0
    0.8121   -0.9552   -2.4051 C   0  0  0  0  0  0  0  0  0  0  0  0
    2.3691   -0.8445   -2.3419 C   0  0  0  0  0  0  0  0  0  0  0  0
    0.3903   -1.5783   -3.7253 C   0  0  0  0  0  0  0  0  0  0  0  0
    0.8810   -2.0888    1.8290 S   0  0  0  0  0  0  0  0  0  0  0  0
    0.4433   -2.9884    0.7951 O   0  0  0  0  0  0  0  0  0  0  0  0
    2.3341   -2.0041    1.8650 O   0  5  0  0  0  0  0  0  0  0  0  0
    0.2873   -2.3566    3.1600 O   0  0  0  0  0  0  0  0  0  0  0  0
    2.7116   -1.3722    0.0974 Na  0  3  0  0  0  0  0  0  0  0  0  0
    1.8232    0.3526   -0.0275 H   0  0  0  0  0  0  0  0  0  0  0  0
   -0.8049    1.6262   -0.1947 H   0  0  0  0  0  0  0  0  0  0  0  0
    0.6672    2.1971    0.5924 H   0  0  0  0  0  0  0  0  0  0  0  0
    0.6327    3.2013   -1.5534 H   0  0  0  0  0  0  0  0  0  0  0  0
    2.0011    2.0725   -1.4103 H   0  0  0  0  0  0  0  0  0  0  0  0
    0.9164    2.4485   -3.0252 H   0  0  0  0  0  0  0  0  0  0  0  0
   -1.3980    0.4267   -3.4833 H   0  0  0  0  0  0  0  0  0  0  0  0
   -1.4486    0.7880   -1.8660 H   0  0  0  0  0  0  0  0  0  0  0  0
   -2.8446    2.3891   -2.9536 H   0  0  0  0  0  0  0  0  0  0  0  0
   -1.4410    3.1951   -2.2562 H   0  0  0  0  0  0  0  0  0  0  0  0
   -1.8379    3.9917   -4.6099 H   0  0  0  0  0  0  0  0  0  0  0  0
   -0.3691    3.3319   -4.4189 H   0  0  0  0  0  0  0  0  0  0  0  0
   -2.7984    1.8882   -5.5525 H   0  0  0  0  0  0  0  0  0  0  0  0
   -1.2976    2.3001   -6.4565 H   0  0  0  0  0  0  0  0  0  0  0  0
   -1.3325    0.9766   -5.3367 H   0  0  0  0  0  0  0  0  0  0  0  0
    0.6503    0.7411   -4.9320 H   0  0  0  0  0  0  0  0  0  0  0  0
    0.9463    2.3889   -4.7411 H   0  0  0  0  0  0  0  0  0  0  0  0
    3.0754    0.5772   -4.3674 H   0  0  0  0  0  0  0  0  0  0  0  0
    2.8955    2.0147   -5.2456 H   0  0  0  0  0  0  0  0  0  0  0  0
    3.0158    2.1206   -3.4669 H   0  0  0  0  0  0  0  0  0  0  0  0
    0.6789   -1.8128   -0.6848 H   0  0  0  0  0  0  0  0  0  0  0  0
   -0.8215   -0.9254   -0.9380 H   0  0  0  0  0  0  0  0  0  0  0  0
    0.2033   -1.8572   -2.2237 H   0  0  0  0  0  0  0  0  0  0  0  0
    2.9078   -1.7377   -2.0429 H   0  0  0  0  0  0  0  0  0  0  0  0
    2.8052   -0.6886   -3.3066 H   0  0  0  0  0  0  0  0  0  0  0  0
    2.7627    0.0238   -1.7732 H   0  0  0  0  0  0  0  0  0  0  0  0
   -0.7040   -1.5116   -3.8232 H   0  0  0  0  0  0  0  0  0  0  0  0
    0.8364   -1.1244   -4.5961 H   0  0  0  0  0  0  0  0  0  0  0  0
    0.7181   -2.6341   -3.6902 H   0  0  0  0  0  0  0  0  0  0  0  0
  1  2  1  0  0  0  0
  1  3  1  0  0  0  0
  1 12  1  0  0  0  0
  1 21  1  0  0  0  0
  2 16  1  0  0  0  0
  3  4  1  0  0  0  0
  3 22  1  0  0  0  0
  3 23  1  0  0  0  0
  4  5  1  0  0  0  0
  4 24  1  0  0  0  0
  4 25  1  0  0  0  0
  5  6  1  0  0  0  0
  5 10  1  0  0  0  0
  5 26  1  0  0  0  0
  6  7  1  0  0  0  0
  6 27  1  0  0  0  0
  6 28  1  0  0  0  0
  7  8  1  0  0  0  0
  7 29  1  0  0  0  0
  7 30  1  0  0  0  0
  8  9  1  0  0  0  0
  8 31  1  0  0  0  0
  8 32  1  0  0  0  0
  9 33  1  0  0  0  0
  9 34  1  0  0  0  0
  9 35  1  0  0  0  0
 10 11  1  0  0  0  0
 10 36  1  0  0  0  0
 10 37  1  0  0  0  0
 11 38  1  0  0  0  0
 11 39  1  0  0  0  0
 11 40  1  0  0  0  0
 12 13  1  0  0  0  0
 12 41  1  0  0  0  0
 12 42  1  0  0  0  0
 13 14  1  0  0  0  0
 13 15  1  0  0  0  0
 13 43  1  0  0  0  0
 14 44  1  0  0  0  0
 14 45  1  0  0  0  0
 14 46  1  0  0  0  0
 15 47  1  0  0  0  0
 15 48  1  0  0  0  0
 15 49  1  0  0  0  0
 16 17  2  0  0  0  0
 16 18  1  0  0  0  0
 16 19  2  0  0  0  0
M  CHG  2  18  -1  20   1
M  END
>  <DRUGBANK_ID>
DB00464

>  <SECONDARY_ACCESSION_NUMBERS>
APRD00575

>  <COMMON_NAME>
Sodium tetradecyl sulfate

>  <CAS_NUMBER>
139-88-8

>  <UNII>
Q1SUG5KBD6

>  <SYNONYMS>
7-Ethyl-2-methyl-4-undecanol sulfate sodium salt; 7-ethyl-2-methyl-4-undecanolsulfate, sodium salt; Natrii tetradecylis sulfa; Sodium 2-methyl-7-ethylundecanol-4-sulfate; Sodium 7-ethyl-2-methyl-4-undecanol sulfate; Sodium tetradecyl sulfate; Sodium tetradecyl sulphate; Sodium tetradecylsulfate; STS; Tetradecilsulfato sodico; Tetradecyl sodium sulfate; Tetradecyl sulfate de sodium

$$$$
