
 OpenBabel10282417213D

 62 65  0  0  0  0  0  0  0  0999 V2000
  -15.7520   24.4129   10.8203 C   0  0  1  0  0  0  0  0  0  0  0  0
  -14.7446   21.5660   11.7178 C   0  0  2  0  0  0  0  0  0  0  0  0
  -14.2347   19.7504   12.0907 C   0  0  2  0  0  0  0  0  0  0  0  0
  -16.4098   23.7024   11.9623 C   0  0  2  0  0  0  0  0  0  0  0  0
  -14.6899   22.9370   12.3492 C   0  0  2  0  0  0  0  0  0  0  0  0
  -16.5184   25.9647   11.1383 C   0  0  2  0  0  0  0  0  0  0  0  0
  -13.4042   20.0767   13.2864 C   0  0  0  0  0  0  0  0  0  0  0  0
  -15.0519   21.9739    9.9179 C   0  0  2  0  0  0  0  0  0  0  0  0
  -16.3065   22.8336   10.0778 C   0  0  0  0  0  0  0  0  0  0  0  0
  -17.0385   25.3187    9.6114 C   0  0  1  0  0  0  0  0  0  0  0  0
  -13.6031   18.0507   11.5709 C   0  0  0  0  0  0  0  0  0  0  0  0
  -17.8066   24.4909   10.6154 C   0  0  0  0  0  0  0  0  0  0  0  0
  -13.1657   18.9587   14.0053 C   0  0  0  0  0  0  0  0  0  0  0  0
  -18.0263   26.7681   11.8942 C   0  0  0  0  0  0  0  0  0  0  0  0
  -14.2526   22.4853   13.8997 C   0  0  0  0  0  0  0  0  0  0  0  0
  -13.1364   17.2330   12.5732 C   0  0  0  0  0  0  0  0  0  0  0  0
  -13.9834   17.8115   13.5793 C   0  0  0  0  0  0  0  0  0  0  0  0
  -13.0265   21.4417   13.8726 C   0  0  0  0  0  0  0  0  0  0  0  0
  -16.0086   21.4825   12.5601 F   0  0  0  0  0  0  0  0  0  0  0  0
  -18.3488   27.8961   11.4880 O   0  0  0  0  0  0  0  0  0  0  0  0
  -15.2098   17.7407   13.5311 O   0  0  0  0  0  0  0  0  0  0  0  0
  -17.1305   25.5657   12.5688 O   0  0  0  0  0  0  0  0  0  0  0  0
  -14.4536   24.8453   10.2822 C   0  0  0  0  0  0  0  0  0  0  0  0
  -14.3119   21.1190    8.9141 O   0  0  0  0  0  0  0  0  0  0  0  0
  -15.1588   19.8600   11.0039 C   0  0  0  0  0  0  0  0  0  0  0  0
  -17.5337   25.8759    8.2362 C   0  0  0  0  0  0  0  0  0  0  0  0
  -19.1120   26.1032   13.1619 C   0  0  0  0  0  0  0  0  0  0  0  0
  -19.7098   24.7912   13.2196 O   0  0  0  0  0  0  0  0  0  0  0  0
  -16.5329   23.8839   12.9845 H   0  0  0  0  0  0  0  0  0  0  0  0
  -13.8074   23.5479   12.0459 H   0  0  0  0  0  0  0  0  0  0  0  0
  -20.6237   24.4930   12.2567 C   0  0  0  0  0  0  0  0  0  0  0  0
  -20.9720   25.2613   11.3693 O   0  0  0  0  0  0  0  0  0  0  0  0
  -21.1582   23.0867   12.3656 C   0  0  0  0  0  0  0  0  0  0  0  0
  -15.8122   21.5581    9.2495 H   0  0  0  0  0  0  0  0  0  0  0  0
  -17.0660   22.8796    9.2582 H   0  0  0  0  0  0  0  0  0  0  0  0
  -17.0064   22.1991   10.7521 H   0  0  0  0  0  0  0  0  0  0  0  0
  -16.4212   24.6152    9.0130 H   0  0  0  0  0  0  0  0  0  0  0  0
  -13.9579   17.2631   10.8509 H   0  0  0  0  0  0  0  0  0  0  0  0
  -18.1744   25.6114   10.3763 H   0  0  0  0  0  0  0  0  0  0  0  0
  -18.8283   24.6912   10.9176 H   0  0  0  0  0  0  0  0  0  0  0  0
  -12.3136   18.7574   14.6267 H   0  0  0  0  0  0  0  0  0  0  0  0
  -14.3483   23.3632   14.5631 H   0  0  0  0  0  0  0  0  0  0  0  0
  -14.8962   21.8473   14.5126 H   0  0  0  0  0  0  0  0  0  0  0  0
  -12.6881   16.2614   12.8085 H   0  0  0  0  0  0  0  0  0  0  0  0
  -12.0868   21.8929   13.5373 H   0  0  0  0  0  0  0  0  0  0  0  0
  -12.7922   21.1156   14.8989 H   0  0  0  0  0  0  0  0  0  0  0  0
  -16.5887   25.5961   13.3691 H   0  0  0  0  0  0  0  0  0  0  0  0
  -14.6398   25.5832    9.4795 H   0  0  0  0  0  0  0  0  0  0  0  0
  -14.0042   25.3872   11.1031 H   0  0  0  0  0  0  0  0  0  0  0  0
  -13.7973   24.0828    9.8562 H   0  0  0  0  0  0  0  0  0  0  0  0
  -14.5876   20.1543    8.9658 H   0  0  0  0  0  0  0  0  0  0  0  0
  -16.1143   20.2955   11.3459 H   0  0  0  0  0  0  0  0  0  0  0  0
  -14.1780   20.2799   10.5643 H   0  0  0  0  0  0  0  0  0  0  0  0
  -15.6830   19.4195   10.1834 H   0  0  0  0  0  0  0  0  0  0  0  0
  -18.4904   26.3860    8.1452 H   0  0  0  0  0  0  0  0  0  0  0  0
  -16.7314   26.4572    7.7528 H   0  0  0  0  0  0  0  0  0  0  0  0
  -17.6502   25.0022    7.5464 H   0  0  0  0  0  0  0  0  0  0  0  0
  -18.5418   26.1943   14.1126 H   0  0  0  0  0  0  0  0  0  0  0  0
  -19.9078   26.8522   13.3218 H   0  0  0  0  0  0  0  0  0  0  0  0
  -20.4024   22.3221   12.1580 H   0  0  0  0  0  0  0  0  0  0  0  0
  -21.6029   22.9332   13.3499 H   0  0  0  0  0  0  0  0  0  0  0  0
  -21.9571   22.9672   11.6225 H   0  0  0  0  0  0  0  0  0  0  0  0
  1 23  1  6  0  0  0
  2  8  1  0  0  0  0
  2  5  1  0  0  0  0
  2 19  1  6  0  0  0
  3  2  1  0  0  0  0
  3 25  1  1  0  0  0
  4  1  1  0  0  0  0
  4 29  1  1  0  0  0
  5  4  1  0  0  0  0
  5 30  1  1  0  0  0
  6  1  1  0  0  0  0
  6 14  1  6  0  0  0
  7  3  1  0  0  0  0
  8  9  1  0  0  0  0
  8 34  1  6  0  0  0
  8 24  1  0  0  0  0
  9  1  1  0  0  0  0
  9 35  1  0  0  0  0
  9 36  1  0  0  0  0
 10  6  1  0  0  0  0
 10 12  1  0  0  0  0
 10 26  1  0  0  0  0
 10 37  1  6  0  0  0
 11  3  1  0  0  0  0
 11 38  1  0  0  0  0
 12  4  1  0  0  0  0
 12 39  1  0  0  0  0
 12 40  1  0  0  0  0
 13  7  2  0  0  0  0
 13 41  1  0  0  0  0
 15  5  1  0  0  0  0
 15 42  1  0  0  0  0
 15 43  1  0  0  0  0
 16 11  2  0  0  0  0
 16 44  1  0  0  0  0
 17 16  1  0  0  0  0
 17 13  1  0  0  0  0
 18 15  1  0  0  0  0
 18  7  1  0  0  0  0
 18 45  1  0  0  0  0
 18 46  1  0  0  0  0
 20 14  2  0  0  0  0
 21 17  2  0  0  0  0
 22 47  1  0  0  0  0
 22  6  1  0  0  0  0
 23 48  1  0  0  0  0
 23 49  1  0  0  0  0
 23 50  1  0  0  0  0
 24 51  1  0  0  0  0
 25 52  1  0  0  0  0
 25 53  1  0  0  0  0
 25 54  1  0  0  0  0
 26 55  1  0  0  0  0
 26 56  1  0  0  0  0
 26 57  1  0  0  0  0
 27 14  1  0  0  0  0
 27 58  1  0  0  0  0
 27 59  1  0  0  0  0
 28 27  1  0  0  0  0
 28 31  1  0  0  0  0
 31 32  2  0  0  0  0
 31 33  1  0  0  0  0
 33 60  1  0  0  0  0
 33 61  1  0  0  0  0
 33 62  1  0  0  0  0
M  END
>  <DRUGBANK_ID>
DB14649

>  <SECONDARY_ACCESSION_NUMBERS>
DBSALT000383

>  <COMMON_NAME>
Dexamethasone acetate

>  <CAS_NUMBER>
1177-87-3

>  <UNII>
K7V8P532WP

>  <SYNONYMS>
16alpha-Methyl-9alpha-fluoroprednisolone 21-acetate; 9alpha-Fluoro-16alpha-methylprednisolone acetate; Dexamethasone 21-acetate; Dexamethasone acetate anhydrous; Dexamethasone acetate, anhydrous; Dexamethasoni acetas

$$$$
