
 OpenBabel10282417193D

 20 19  0  0  0  0  0  0  0  0999 V2000
    1.1483    0.0268    0.0539 C   0  0  0  0  0  0  0  0  0  0  0  0
    0.5893    1.3852    0.5379 C   0  0  0  0  0  0  0  0  0  0  0  0
    1.0381    2.4457   -0.5031 C   0  0  0  0  0  0  0  0  0  0  0  0
   -0.9606    1.3064    0.5499 C   0  0  0  0  0  0  0  0  0  0  0  0
   -1.6931    0.1609    1.7369 S   0  0  0  0  0  0  0  0  0  0  0  0
   -1.0877    0.2786    3.0382 O   0  0  0  0  0  0  0  0  0  0  0  0
   -3.1332    0.1724    1.5804 O   0  0  0  0  0  0  0  0  0  0  0  0
   -1.2119   -1.2558    1.1326 O   0  0  0  0  0  0  0  0  0  0  0  0
    1.1240    1.7413    1.8747 N   0  0  0  0  0  0  0  0  0  0  0  0
    2.8828    1.6984    2.0413 Cl  0  0  0  0  0  0  0  0  0  0  0  0
    0.5295    3.2741    2.5382 Cl  0  0  0  0  0  0  0  0  0  0  0  0
    0.7194   -0.2437   -0.9197 H   0  0  0  0  0  0  0  0  0  0  0  0
    0.9395   -0.7803    0.7568 H   0  0  0  0  0  0  0  0  0  0  0  0
    2.2346    0.0358   -0.0700 H   0  0  0  0  0  0  0  0  0  0  0  0
    0.6657    2.2090   -1.5058 H   0  0  0  0  0  0  0  0  0  0  0  0
    0.6816    3.4506   -0.2541 H   0  0  0  0  0  0  0  0  0  0  0  0
    2.1316    2.4954   -0.5751 H   0  0  0  0  0  0  0  0  0  0  0  0
   -1.4006    2.2820    0.7925 H   0  0  0  0  0  0  0  0  0  0  0  0
   -1.3575    1.0384   -0.4377 H   0  0  0  0  0  0  0  0  0  0  0  0
   -1.3507   -1.9464    1.8181 H   0  0  0  0  0  0  0  0  0  0  0  0
  1  2  1  0  0  0  0
  1 12  1  0  0  0  0
  1 13  1  0  0  0  0
  1 14  1  0  0  0  0
  2  3  1  0  0  0  0
  2  4  1  0  0  0  0
  2  9  1  0  0  0  0
  3 15  1  0  0  0  0
  3 16  1  0  0  0  0
  3 17  1  0  0  0  0
  4  5  1  0  0  0  0
  4 18  1  0  0  0  0
  4 19  1  0  0  0  0
  5  6  2  0  0  0  0
  5  7  2  0  0  0  0
  5  8  1  0  0  0  0
  8 20  1  0  0  0  0
  9 10  1  0  0  0  0
  9 11  1  0  0  0  0
M  END
>  <DRUGBANK_ID>
DB12197

>  <COMMON_NAME>
Auriclosene

>  <CAS_NUMBER>
846056-87-9

>  <UNII>
BKR7Y95229

>  <SYNONYMS>
Auriclosene

$$$$
