
 OpenBabel10282417153D

 58 62  0  0  1  0  0  0  0  0999 V2000
   -5.3084    9.3528   -1.0610 C   0  0  0  0  0  0  0  0  0  0  0  0
    3.5951    9.2993   11.9292 C   0  0  0  0  0  0  0  0  0  0  0  0
    1.2316    9.3714   12.7605 C   0  0  0  0  0  0  0  0  0  0  0  0
    2.6148    7.3304   13.0909 C   0  0  0  0  0  0  0  0  0  0  0  0
   -3.9489    9.1229   -0.2477 C   0  0  0  0  0  0  0  0  0  0  0  0
    1.4272   12.7669    9.2380 C   0  0  0  0  0  0  0  0  0  0  0  0
    1.0854   13.5849    8.1914 C   0  0  0  0  0  0  0  0  0  0  0  0
    1.3263   11.4012    9.0486 C   0  0  0  0  0  0  0  0  0  0  0  0
    0.6401   13.0202    6.9813 C   0  0  0  0  0  0  0  0  0  0  0  0
   -1.5906    9.4851    3.1023 C   0  0  0  0  0  0  0  0  0  0  0  0
    1.1329    8.3935    8.7470 C   0  0  0  0  0  0  0  0  0  0  0  0
    0.0369    7.5804    5.8135 C   0  0  0  0  0  0  0  0  0  0  0  0
   -1.6895    6.0913    1.3091 C   0  0  0  0  0  0  0  0  0  0  0  0
    0.8831   10.7850    7.8334 C   0  0  0  0  0  0  0  0  0  0  0  0
    0.7738    9.3758    7.6180 C   0  0  0  0  0  0  0  0  0  0  0  0
    0.2837    8.9537    6.3555 C   0  0  0  0  0  0  0  0  0  0  0  0
   -1.5525    7.2408    2.2817 C   0  0  0  0  0  0  0  0  0  0  0  0
   -2.2622    8.4184    2.1951 C   0  0  0  0  0  0  0  0  0  0  0  0
    0.5093   11.6434    6.7577 C   0  0  0  0  0  0  0  0  0  0  0  0
   -0.8395    9.1626    4.2193 C   0  0  0  0  0  0  0  0  0  0  0  0
   -0.1262    9.8863    5.3739 C   0  0  0  0  0  0  0  0  0  0  0  0
   -0.8368    6.8464    3.5595 C   0  0  0  0  0  0  0  0  0  0  0  0
   -3.7570    6.8149    1.1298 C   0  0  0  0  0  0  0  0  0  0  0  0
    2.3064    8.4765   12.1153 C   0  0  0  0  0  0  0  0  0  0  0  0
   -3.7408    8.3615    1.1729 C   0  0  2  0  0  0  0  0  0  0  0  0
    1.5518    8.8185    9.9055 N   0  0  0  0  0  0  0  0  0  0  0  0
    0.0089   11.2092    5.5540 N   0  0  0  0  0  0  0  0  0  0  0  0
   -0.5901    7.8185    4.4781 N   0  0  0  0  0  0  0  0  0  0  0  0
   -0.5391    5.6487    3.7689 O   0  0  0  0  0  0  0  0  0  0  0  0
   -4.3217    6.1240    1.9596 O   0  0  0  0  0  0  0  0  0  0  0  0
   -5.0291    8.5130    1.8530 O   0  0  0  0  0  0  0  0  0  0  0  0
   -2.7256    6.3598    0.3705 O   0  0  0  0  0  0  0  0  0  0  0  0
    1.8488    7.8460   10.8717 O   0  0  0  0  0  0  0  0  0  0  0  0
    1.0213    7.3144    8.5543 H   0  0  0  0  0  0  0  0  0  0  0  0
   -5.5838    8.5675   -1.7840 H   0  0  0  0  0  0  0  0  0  0  0  0
   -5.1636   10.2411   -1.7114 H   0  0  0  0  0  0  0  0  0  0  0  0
   -6.1969    9.6018   -0.4674 H   0  0  0  0  0  0  0  0  0  0  0  0
    3.4355   10.1645   11.2788 H   0  0  0  0  0  0  0  0  0  0  0  0
    3.9621    9.6852   12.8908 H   0  0  0  0  0  0  0  0  0  0  0  0
    4.3904    8.6977   11.4796 H   0  0  0  0  0  0  0  0  0  0  0  0
    0.2988    8.8224   12.9190 H   0  0  0  0  0  0  0  0  0  0  0  0
    1.5685    9.7582   13.7327 H   0  0  0  0  0  0  0  0  0  0  0  0
    0.9959   10.2386   12.1365 H   0  0  0  0  0  0  0  0  0  0  0  0
    1.7235    6.7180   13.2632 H   0  0  0  0  0  0  0  0  0  0  0  0
    3.3831    6.6676   12.6792 H   0  0  0  0  0  0  0  0  0  0  0  0
    2.9676    7.7013   14.0617 H   0  0  0  0  0  0  0  0  0  0  0  0
   -3.2373    8.7552   -0.9934 H   0  0  0  0  0  0  0  0  0  0  0  0
   -3.7008   10.1598   -0.0116 H   0  0  0  0  0  0  0  0  0  0  0  0
    1.7706   13.1495   10.1969 H   0  0  0  0  0  0  0  0  0  0  0  0
    1.1582   14.6605    8.3195 H   0  0  0  0  0  0  0  0  0  0  0  0
    1.6134   10.8419    9.9265 H   0  0  0  0  0  0  0  0  0  0  0  0
    0.3715   13.7031    6.1799 H   0  0  0  0  0  0  0  0  0  0  0  0
   -1.5661   10.5171    2.7527 H   0  0  0  0  0  0  0  0  0  0  0  0
   -0.6755    7.0363    6.4423 H   0  0  0  0  0  0  0  0  0  0  0  0
    0.9679    7.0066    5.7245 H   0  0  0  0  0  0  0  0  0  0  0  0
   -1.8904    5.1361    1.8066 H   0  0  0  0  0  0  0  0  0  0  0  0
   -0.7601    5.9828    0.7380 H   0  0  0  0  0  0  0  0  0  0  0  0
   -5.5984    7.7495    1.5626 H   0  0  0  0  0  0  0  0  0  0  0  0
  1 35  1  0  0  0  0
  1 36  1  0  0  0  0
  1 37  1  0  0  0  0
  2 38  1  0  0  0  0
  2 39  1  0  0  0  0
  2 40  1  0  0  0  0
  3 41  1  0  0  0  0
  3 42  1  0  0  0  0
  3 43  1  0  0  0  0
  4 44  1  0  0  0  0
  4 45  1  0  0  0  0
  4 46  1  0  0  0  0
  5  1  1  0  0  0  0
  5 47  1  0  0  0  0
  5 48  1  0  0  0  0
  6 49  1  0  0  0  0
  7  6  2  0  0  0  0
  7 50  1  0  0  0  0
  8  6  1  0  0  0  0
  8 51  1  0  0  0  0
  9  7  1  0  0  0  0
  9 52  1  0  0  0  0
 10 53  1  0  0  0  0
 12 54  1  0  0  0  0
 12 55  1  0  0  0  0
 13 56  1  0  0  0  0
 13 57  1  0  0  0  0
 14  8  2  0  0  0  0
 15 11  1  0  0  0  0
 15 14  1  0  0  0  0
 16 12  1  0  0  0  0
 16 15  2  0  0  0  0
 17 13  1  0  0  0  0
 18 10  1  0  0  0  0
 18 17  2  0  0  0  0
 19  9  2  0  0  0  0
 19 14  1  0  0  0  0
 20 10  2  0  0  0  0
 21 16  1  0  0  0  0
 21 20  1  0  0  0  0
 22 17  1  0  0  0  0
 24  2  1  0  0  0  0
 24  3  1  0  0  0  0
 24  4  1  0  0  0  0
 25  5  1  0  0  0  0
 25 18  1  0  0  0  0
 25 23  1  0  0  0  0
 25 31  1  1  0  0  0
 26 11  2  0  0  0  0
 27 19  1  0  0  0  0
 27 21  2  0  0  0  0
 28 12  1  0  0  0  0
 28 20  1  0  0  0  0
 28 22  1  0  0  0  0
 29 22  2  0  0  0  0
 30 23  2  0  0  0  0
 31 58  1  0  0  0  0
 32 13  1  0  0  0  0
 32 23  1  0  0  0  0
 33 24  1  0  0  0  0
 33 26  1  0  0  0  0
 34 11  1  0  0  0  0
M  END
>  <DRUGBANK_ID>
DB06721

>  <COMMON_NAME>
Gimatecan

>  <CAS_NUMBER>
292618-32-7

>  <UNII>
7KKS9R192F

>  <SYNONYMS>
(4S)-11-[(E)-(tert-butoxyimino)methyl]-4-ethyl-4-hydroxy-1H-pyrano[3',4':6,7]indolizino[1,2-b]quinoline-3,14(4H,12H)-dione; (4S)-4-ethyl-4-hydroxy-3,14-dioxo-3,4,12,14-tetrahydro-1-H-pyrano[3',4':6,7]-indolizino-[1,2-b]-quinoline-11-carbaldehyde O-(tert-butyl)-(E)-oxime; 1H-Pyrano[3',4':6,7]indolizino[1,2-b]quinoline-11-carboxaldehyde, 4-ethyl-3,4,12,14-tetrahydro-4-hydroxy-3,14-dioxo-, 11-[O-(1,1-dimethylethyl)oxime], (4S)-; Gimatecan

$$$$
