PP2
 OpenBabel10282417133D

 38 40  0  0  0  0  0  0  0  0999 V2000
    0.2063    0.6528   -0.0052 C   0  0  0  0  0  0  0  0  0  0  0  0
   -0.9662    1.3529   -0.0049 N   0  0  0  0  0  0  0  0  0  0  0  0
   -2.0642    0.5782   -0.0115 C   0  0  0  0  0  0  0  0  0  0  0  0
   -2.1240   -0.7758   -0.0198 N   0  0  0  0  0  0  0  0  0  0  0  0
   -0.9940   -1.5196   -0.0219 C   0  0  0  0  0  0  0  0  0  0  0  0
    0.2019   -0.7943   -0.0210 C   0  0  0  0  0  0  0  0  0  0  0  0
    1.6182   -1.1319   -0.0030 C   0  0  0  0  0  0  0  0  0  0  0  0
    2.3645    0.0749    0.0480 N   0  3  0  0  0  0  0  0  0  0  0  0
    1.5330    1.1381    0.0205 N   0  0  0  0  0  0  0  0  0  0  0  0
    2.1873   -2.4971   -0.0458 C   0  0  0  0  0  0  0  0  0  0  0  0
    2.9973   -2.9417    0.9981 C   0  0  0  0  0  0  0  0  0  0  0  0
    3.4369   -4.2669    0.9890 C   0  0  0  0  0  0  0  0  0  0  0  0
    3.0823   -5.1162   -0.0631 C   0  0  0  0  0  0  0  0  0  0  0  0
    2.2809   -4.6579   -1.1073 C   0  0  0  0  0  0  0  0  0  0  0  0
    1.8318   -3.3410   -1.1026 C   0  0  0  0  0  0  0  0  0  0  0  0
    2.0266    2.5355    0.0066 C   0  0  0  0  0  0  0  0  0  0  0  0
    2.8860    2.7680    1.2576 C   0  0  0  0  0  0  0  0  0  0  0  0
    2.8800    2.7570   -1.2524 C   0  0  0  0  0  0  0  0  0  0  0  0
    0.8753    3.5492    0.0024 C   0  0  0  0  0  0  0  0  0  0  0  0
   -1.0943   -2.8807   -0.0235 N   0  0  0  0  0  0  0  0  0  0  0  0
    3.6311   -6.7431   -0.0713 Cl  0  0  0  0  0  0  0  0  0  0  0  0
   -3.0202    1.0975   -0.0080 H   0  0  0  0  0  0  0  0  0  0  0  0
    3.3858    0.1287    0.0404 H   0  0  0  0  0  0  0  0  0  0  0  0
    3.2390   -2.3098    1.8504 H   0  0  0  0  0  0  0  0  0  0  0  0
    4.0413   -4.6439    1.8119 H   0  0  0  0  0  0  0  0  0  0  0  0
    1.9955   -5.3226   -1.9201 H   0  0  0  0  0  0  0  0  0  0  0  0
    1.1965   -2.9968   -1.9184 H   0  0  0  0  0  0  0  0  0  0  0  0
    3.7505    2.0953    1.2792 H   0  0  0  0  0  0  0  0  0  0  0  0
    3.2614    3.7959    1.2972 H   0  0  0  0  0  0  0  0  0  0  0  0
    2.3049    2.5781    2.1668 H   0  0  0  0  0  0  0  0  0  0  0  0
    2.2952    2.5662   -2.1592 H   0  0  0  0  0  0  0  0  0  0  0  0
    3.2573    3.7845   -1.2996 H   0  0  0  0  0  0  0  0  0  0  0  0
    3.7437    2.0834   -1.2758 H   0  0  0  0  0  0  0  0  0  0  0  0
    0.2466    3.4222   -0.8866 H   0  0  0  0  0  0  0  0  0  0  0  0
    0.2442    3.4253    0.8897 H   0  0  0  0  0  0  0  0  0  0  0  0
    1.2396    4.5803   -0.0000 H   0  0  0  0  0  0  0  0  0  0  0  0
   -0.3123   -3.4989    0.1364 H   0  0  0  0  0  0  0  0  0  0  0  0
   -2.0244   -3.2793    0.0346 H   0  0  0  0  0  0  0  0  0  0  0  0
  1  2  1  0  0  0  0
  1  6  2  0  0  0  0
  1  9  1  0  0  0  0
  2  3  2  0  0  0  0
  3  4  1  0  0  0  0
  3 22  1  0  0  0  0
  4  5  2  0  0  0  0
  5  6  1  0  0  0  0
  5 20  1  0  0  0  0
  6  7  1  0  0  0  0
  7  8  2  0  0  0  0
  7 10  1  0  0  0  0
  8  9  1  0  0  0  0
  8 23  1  0  0  0  0
  9 16  1  0  0  0  0
 10 11  1  0  0  0  0
 10 15  2  0  0  0  0
 11 12  2  0  0  0  0
 11 24  1  0  0  0  0
 12 13  1  0  0  0  0
 12 25  1  0  0  0  0
 13 14  2  0  0  0  0
 13 21  1  0  0  0  0
 14 15  1  0  0  0  0
 14 26  1  0  0  0  0
 15 27  1  0  0  0  0
 16 17  1  0  0  0  0
 16 18  1  0  0  0  0
 16 19  1  0  0  0  0
 17 28  1  0  0  0  0
 17 29  1  0  0  0  0
 17 30  1  0  0  0  0
 18 31  1  0  0  0  0
 18 32  1  0  0  0  0
 18 33  1  0  0  0  0
 19 34  1  0  0  0  0
 19 35  1  0  0  0  0
 19 36  1  0  0  0  0
 20 37  1  0  0  0  0
 20 38  1  0  0  0  0
M  CHG  1   8   1
M  END
>  <DRUGBANK_ID>
DB03023

>  <SECONDARY_ACCESSION_NUMBERS>
EXPT02634

>  <COMMON_NAME>
1-Tert-Butyl-3-(4-Chloro-Phenyl)-1h-Pyrazolo[3,4-D]Pyrimidin-4-Ylamine

$$$$
