DCX
 OpenBabel10282417163D

 41 40  0  0  0  0  0  0  0  0999 V2000
    1.0895   -0.0145    0.0421 C   0  0  0  0  0  0  0  0  0  0  0  0
    1.5382   -1.9828   -1.2127 O   0  0  0  0  0  0  0  0  0  0  0  0
    0.2797   -2.4695    2.6459 C   0  0  0  0  0  0  0  0  0  0  0  0
    0.1714   -9.1606    5.5604 C   0  0  0  0  0  0  0  0  0  0  0  0
    1.1542   -8.7385    4.4776 C   0  0  0  0  0  0  0  0  0  0  0  0
    0.4105   -8.3077    3.2151 C   0  0  0  0  0  0  0  0  0  0  0  0
   -0.5548   -7.1554    3.5002 C   0  0  0  0  0  0  0  0  0  0  0  0
    0.1907   -5.9792    4.1555 C   0  0  0  0  0  0  0  0  0  0  0  0
    1.2046   -5.4001    3.1826 C   0  0  0  0  0  0  0  0  0  0  0  0
    0.4789   -4.8969    1.9677 C   0  0  0  0  0  0  0  0  0  0  0  0
   -0.4884   -3.7522    2.3693 C   0  0  0  0  0  0  0  0  0  0  0  0
    1.2966   -2.1143    1.5636 C   0  0  0  0  0  0  0  0  0  0  0  0
    0.4795   -1.7318   -0.1236 P   0  0  0  0  0  0  0  0  0  0  0  0
   -0.1305   -3.4492   -0.2893 C   0  0  0  0  0  0  0  0  0  0  0  0
    0.6722    0.4497    0.9411 H   0  0  0  0  0  0  0  0  0  0  0  0
    0.7436    0.5654   -0.8195 H   0  0  0  0  0  0  0  0  0  0  0  0
    2.1824    0.0436    0.0809 H   0  0  0  0  0  0  0  0  0  0  0  0
    0.7849   -2.5647    3.6048 H   0  0  0  0  0  0  0  0  0  0  0  0
   -0.4507   -1.6545    2.7390 H   0  0  0  0  0  0  0  0  0  0  0  0
   -0.4331  -10.0000    5.2027 H   0  0  0  0  0  0  0  0  0  0  0  0
    0.6988   -9.4542    6.4677 H   0  0  0  0  0  0  0  0  0  0  0  0
   -0.5121   -8.3528    5.8410 H   0  0  0  0  0  0  0  0  0  0  0  0
    1.8399   -9.5536    4.2438 H   0  0  0  0  0  0  0  0  0  0  0  0
    1.7897   -7.9256    4.8551 H   0  0  0  0  0  0  0  0  0  0  0  0
   -0.1469   -9.1521    2.7929 H   0  0  0  0  0  0  0  0  0  0  0  0
    1.1358   -8.0221    2.4407 H   0  0  0  0  0  0  0  0  0  0  0  0
   -1.3727   -7.4696    4.1584 H   0  0  0  0  0  0  0  0  0  0  0  0
   -1.0694   -6.8770    2.5812 H   0  0  0  0  0  0  0  0  0  0  0  0
    0.6880   -6.2401    5.0790 H   0  0  0  0  0  0  0  0  0  0  0  0
   -0.5404   -5.2332    4.4783 H   0  0  0  0  0  0  0  0  0  0  0  0
    1.9673   -6.1280    2.8874 H   0  0  0  0  0  0  0  0  0  0  0  0
    1.7704   -4.5767    3.6456 H   0  0  0  0  0  0  0  0  0  0  0  0
   -0.0575   -5.6897    1.4174 H   0  0  0  0  0  0  0  0  0  0  0  0
    1.2671   -4.6289    1.2703 H   0  0  0  0  0  0  0  0  0  0  0  0
   -1.1137   -4.0179    3.2182 H   0  0  0  0  0  0  0  0  0  0  0  0
   -1.2901   -3.5305    1.6827 H   0  0  0  0  0  0  0  0  0  0  0  0
    2.0650   -2.8732    1.3899 H   0  0  0  0  0  0  0  0  0  0  0  0
    1.8549   -1.2410    1.9148 H   0  0  0  0  0  0  0  0  0  0  0  0
   -1.0460   -3.9230    0.0465 H   0  0  0  0  0  0  0  0  0  0  0  0
   -0.5039   -3.3212   -1.3250 H   0  0  0  0  0  0  0  0  0  0  0  0
    0.6782   -4.1608   -0.4827 H   0  0  0  0  0  0  0  0  0  0  0  0
  1 13  1  0  0  0  0
  1 15  1  0  0  0  0
  1 16  1  0  0  0  0
  1 17  1  0  0  0  0
  2 13  2  0  0  0  0
  3 11  1  0  0  0  0
  3 12  1  0  0  0  0
  3 18  1  0  0  0  0
  3 19  1  0  0  0  0
  4  5  1  0  0  0  0
  4 20  1  0  0  0  0
  4 21  1  0  0  0  0
  4 22  1  0  0  0  0
  5  6  1  0  0  0  0
  5 23  1  0  0  0  0
  5 24  1  0  0  0  0
  6  7  1  0  0  0  0
  6 25  1  0  0  0  0
  6 26  1  0  0  0  0
  7  8  1  0  0  0  0
  7 27  1  0  0  0  0
  7 28  1  0  0  0  0
  8  9  1  0  0  0  0
  8 29  1  0  0  0  0
  8 30  1  0  0  0  0
  9 10  1  0  0  0  0
  9 31  1  0  0  0  0
  9 32  1  0  0  0  0
 10 11  1  0  0  0  0
 10 33  1  0  0  0  0
 10 34  1  0  0  0  0
 11 35  1  0  0  0  0
 11 36  1  0  0  0  0
 12 13  1  0  0  0  0
 12 37  1  0  0  0  0
 12 38  1  0  0  0  0
 13 14  1  0  0  0  0
 14 39  1  0  0  0  0
 14 40  1  0  0  0  0
 14 41  1  0  0  0  0
M  END
>  <DRUGBANK_ID>
DB07641

>  <COMMON_NAME>
Decyl(dimethyl)phosphine oxide

>  <CAS_NUMBER>
2190-95-6

>  <UNII>
BQ0G8CN4H9

$$$$
