
 OpenBabel10282417133D

 77 84  0  0  0  0  0  0  0  0999 V2000
    1.5461   -5.9343  -12.7669 C   0  0  0  0  0  0  0  0  0  0  0  0
   -0.0236   -1.0086   -1.7269 C   0  0  0  0  0  0  0  0  0  0  0  0
    3.4488   -2.6054  -12.0706 C   0  0  0  0  0  0  0  0  0  0  0  0
    4.2446   -5.0399   -3.7748 C   0  0  0  0  0  0  0  0  0  0  0  0
    4.2792   -6.4354   -8.8428 C   0  0  0  0  0  0  0  0  0  0  0  0
   -0.4474   -3.6614   -1.9054 C   0  0  0  0  0  0  0  0  0  0  0  0
    2.2070   -7.4183   -9.9987 C   0  0  0  0  0  0  0  0  0  0  0  0
   -2.6030   -1.9413   -0.1943 C   0  0  0  0  0  0  0  0  0  0  0  0
    3.5592   -7.6288   -9.3372 C   0  0  0  0  0  0  0  0  0  0  0  0
   -3.8924   -1.1434   -0.0879 C   0  0  0  0  0  0  0  0  0  0  0  0
    3.1698   -0.1983  -10.0705 C   0  0  0  0  0  0  0  0  0  0  0  0
   -0.4340   -2.4799   -5.1175 C   0  0  0  0  0  0  0  0  0  0  0  0
    3.9572   -3.8534   -6.5770 C   0  0  0  0  0  0  0  0  0  0  0  0
   -4.5102   -3.5009   -1.7891 C   0  0  0  0  0  0  0  0  0  0  0  0
    1.7376   -5.3419  -11.3803 C   0  0  0  0  0  0  0  0  0  0  0  0
   -1.1700   -1.8353   -2.2861 C   0  0  0  0  0  0  0  0  0  0  0  0
    3.5447   -2.6612  -10.5547 C   0  0  0  0  0  0  0  0  0  0  0  0
    3.0740   -4.2916   -4.3913 C   0  0  0  0  0  0  0  0  0  0  0  0
    4.0717   -5.5307   -9.8373 C   0  0  0  0  0  0  0  0  0  0  0  0
    0.9478   -4.1388   -2.2741 C   0  0  0  0  0  0  0  0  0  0  0  0
    1.9376   -5.9288  -10.1382 C   0  0  0  0  0  0  0  0  0  0  0  0
   -2.3277   -2.2670   -1.6533 C   0  0  0  0  0  0  0  0  0  0  0  0
    1.4627   -3.6355  -10.9388 C   0  0  0  0  0  0  0  0  0  0  0  0
   -1.3785   -2.5038   -3.9268 C   0  0  0  0  0  0  0  0  0  0  0  0
    3.4248   -1.6311   -9.6317 C   0  0  0  0  0  0  0  0  0  0  0  0
    2.9500   -3.7592   -5.6674 C   0  0  0  0  0  0  0  0  0  0  0  0
    1.8815   -5.1053   -9.0420 C   0  0  0  0  0  0  0  0  0  0  0  0
   -3.2126   -3.0007   -2.4027 C   0  0  0  0  0  0  0  0  0  0  0  0
    0.7948   -3.0559   -5.0226 C   0  0  0  0  0  0  0  0  0  0  0  0
    3.7857   -3.2583   -7.9652 C   0  0  0  0  0  0  0  0  0  0  0  0
    3.5560   -6.9834   -7.9610 C   0  0  0  0  0  0  0  0  0  0  0  0
   -5.0429   -1.9624   -0.6501 C   0  0  0  0  0  0  0  0  0  0  0  0
    3.8409   -4.0673   -9.4976 C   0  0  0  0  0  0  0  0  0  0  0  0
    1.5011   -3.8686   -3.6638 C   0  0  0  0  0  0  0  0  0  0  0  0
    1.4735   -2.3271   -7.8105 Fe  0  0  3  0  0  0  0  0  0  0  0  0
    1.6262   -3.7809   -9.2190 N   0  0  0  0  0  0  0  0  0  0  0  0
   -2.9148   -3.2751   -3.7013 N   0  0  0  0  0  0  0  0  0  0  0  0
    3.5465   -1.9633   -8.3058 N   0  0  0  0  0  0  0  0  0  0  0  0
    1.7670   -3.1337   -5.9709 N   0  0  0  0  0  0  0  0  0  0  0  0
    4.0707   -5.9536  -11.1929 O   0  0  0  0  0  0  0  0  0  0  0  0
    1.6518   -4.7639   -1.4203 O   0  0  0  0  0  0  0  0  0  0  0  0
    3.7848   -7.7754   -6.8049 O   0  0  0  0  0  0  0  0  0  0  0  0
    3.3487   -5.7349   -7.8452 O   0  0  0  0  0  0  0  0  0  0  0  0
   -6.1457   -2.2996    0.1785 O   0  0  0  0  0  0  0  0  0  0  0  0
   -5.0179   -2.3452   -1.8616 O   0  0  0  0  0  0  0  0  0  0  0  0
    1.7772   -6.9788  -12.7435 H   0  0  0  0  0  0  0  0  0  0  0  0
    2.1963   -5.4406  -13.4587 H   0  0  0  0  0  0  0  0  0  0  0  0
    0.5301   -5.8006  -13.0747 H   0  0  0  0  0  0  0  0  0  0  0  0
    0.8862   -1.5676   -1.7961 H   0  0  0  0  0  0  0  0  0  0  0  0
    0.0706   -0.1031   -2.2891 H   0  0  0  0  0  0  0  0  0  0  0  0
   -0.2205   -0.7731   -0.7019 H   0  0  0  0  0  0  0  0  0  0  0  0
    4.3685   -2.9452  -12.4990 H   0  0  0  0  0  0  0  0  0  0  0  0
    2.6480   -3.2337  -12.4007 H   0  0  0  0  0  0  0  0  0  0  0  0
    3.2622   -1.5981  -12.3794 H   0  0  0  0  0  0  0  0  0  0  0  0
    4.5960   -4.5071   -2.9160 H   0  0  0  0  0  0  0  0  0  0  0  0
    3.9276   -6.0190   -3.4819 H   0  0  0  0  0  0  0  0  0  0  0  0
    5.0342   -5.1203   -4.4924 H   0  0  0  0  0  0  0  0  0  0  0  0
    4.4416   -7.4656   -9.0819 H   0  0  0  0  0  0  0  0  0  0  0  0
    4.2799   -6.1168   -7.8213 H   0  0  0  0  0  0  0  0  0  0  0  0
   -1.0526   -4.5019   -1.6369 H   0  0  0  0  0  0  0  0  0  0  0  0
   -0.3862   -2.9868   -1.0771 H   0  0  0  0  0  0  0  0  0  0  0  0
   -0.8854   -3.1594   -2.7427 H   0  0  0  0  0  0  0  0  0  0  0  0
    1.4424   -7.8642   -9.3973 H   0  0  0  0  0  0  0  0  0  0  0  0
    2.2092   -7.8726  -10.9674 H   0  0  0  0  0  0  0  0  0  0  0  0
   -2.6991   -2.8502    0.3621 H   0  0  0  0  0  0  0  0  0  0  0  0
   -1.7931   -1.3648    0.2014 H   0  0  0  0  0  0  0  0  0  0  0  0
    3.7488   -8.6773   -9.2390 H   0  0  0  0  0  0  0  0  0  0  0  0
    4.3237   -7.1829   -9.9385 H   0  0  0  0  0  0  0  0  0  0  0  0
   -4.0862   -0.9141    0.9391 H   0  0  0  0  0  0  0  0  0  0  0  0
   -3.7963   -0.2345   -0.6443 H   0  0  0  0  0  0  0  0  0  0  0  0
    3.0788    0.0344  -11.1109 H   0  0  0  0  0  0  0  0  0  0  0  0
   -0.7356   -2.0100   -6.0303 H   0  0  0  0  0  0  0  0  0  0  0  0
    4.8701   -4.3464   -6.3153 H   0  0  0  0  0  0  0  0  0  0  0  0
   -4.7381   -3.2814   -0.7669 H   0  0  0  0  0  0  0  0  0  0  0  0
    4.2225   -6.9164  -11.4164 H   0  0  0  0  0  0  0  0  0  0  0  0
    3.9480   -8.7578   -6.8960 H   0  0  0  0  0  0  0  0  0  0  0  0
   -6.1654   -1.9984    1.1319 H   0  0  0  0  0  0  0  0  0  0  0  0
  1 46  1  0  0  0  0
  1 47  1  0  0  0  0
  1 48  1  0  0  0  0
  2 49  1  0  0  0  0
  2 50  1  0  0  0  0
  2 51  1  0  0  0  0
  3 52  1  0  0  0  0
  3 53  1  0  0  0  0
  3 54  1  0  0  0  0
  4 55  1  0  0  0  0
  4 56  1  0  0  0  0
  4 57  1  0  0  0  0
  5 58  1  0  0  0  0
  5 59  1  0  0  0  0
  6 60  1  0  0  0  0
  6 61  1  0  0  0  0
  6 62  1  0  0  0  0
  7 63  1  0  0  0  0
  7 64  1  0  0  0  0
  8 65  1  0  0  0  0
  8 66  1  0  0  0  0
  9  7  1  0  0  0  0
  9 67  1  0  0  0  0
  9 68  1  0  0  0  0
 10  8  1  0  0  0  0
 10 69  1  0  0  0  0
 10 70  1  0  0  0  0
 11 71  1  0  0  0  0
 12 72  1  0  0  0  0
 13 73  1  0  0  0  0
 14 74  1  0  0  0  0
 15  1  1  0  0  0  0
 16  2  1  0  0  0  0
 17  3  1  0  0  0  0
 18  4  1  0  0  0  0
 19  5  2  0  0  0  0
 20  6  1  0  0  0  0
 21  7  1  0  0  0  0
 21 15  2  0  0  0  0
 22  8  1  0  0  0  0
 22 16  1  0  0  0  0
 23 11  2  0  0  0  0
 23 15  1  0  0  0  0
 24 12  1  0  0  0  0
 24 16  2  0  0  0  0
 25 11  1  0  0  0  0
 25 17  2  0  0  0  0
 26 13  2  0  0  0  0
 26 18  1  0  0  0  0
 27 14  2  0  0  0  0
 27 21  1  0  0  0  0
 28 14  1  0  0  0  0
 28 22  2  0  0  0  0
 29 12  2  0  0  0  0
 30 13  1  0  0  0  0
 31  9  1  0  0  0  0
 32 10  1  0  0  0  0
 33 17  1  0  0  0  0
 33 19  1  0  0  0  0
 33 30  2  0  0  0  0
 34 18  2  0  0  0  0
 34 20  1  0  0  0  0
 34 29  1  0  0  0  0
 36 23  1  0  0  0  0
 36 27  1  0  0  0  0
 36 35  1  0  0  0  0
 37 24  1  0  0  0  0
 37 28  1  0  0  0  0
 37 35  1  0  0  0  0
 38 25  1  0  0  0  0
 38 30  1  0  0  0  0
 38 35  1  0  0  0  0
 39 26  1  0  0  0  0
 39 29  1  0  0  0  0
 39 35  1  0  0  0  0
 40 19  1  0  0  0  0
 40 75  1  0  0  0  0
 41 20  2  0  0  0  0
 42 31  1  0  0  0  0
 42 76  1  0  0  0  0
 43 31  2  0  0  0  0
 44 32  1  0  0  0  0
 44 77  1  0  0  0  0
 45 32  2  0  0  0  0
M  END
>  <DRUGBANK_ID>
DB03418

>  <SECONDARY_ACCESSION_NUMBERS>
EXPT01144

>  <COMMON_NAME>
Diacetyldeuteroheme

$$$$
