
 OpenBabel10282417213D

 69 72  0  0  1  0  0  0  0  0999 V2000
    0.9535    0.0335    0.0766 C   0  0  0  0  0  0  0  0  0  0  0  0
    2.9786    6.0843   11.0297 C   0  0  0  0  0  0  0  0  0  0  0  0
    9.5420    1.6909   11.5127 C   0  0  0  0  0  0  0  0  0  0  0  0
    6.1622    1.3143    9.7491 C   0  0  0  0  0  0  0  0  0  0  0  0
    0.4842   -0.8898    1.1807 C   0  0  0  0  0  0  0  0  0  0  0  0
    4.2343    6.1758   10.2123 C   0  0  0  0  0  0  0  0  0  0  0  0
    8.0667    1.5699   11.5704 C   0  0  0  0  0  0  0  0  0  0  0  0
    5.0683    2.8233    5.1268 C   0  0  0  0  0  0  0  0  0  0  0  0
    2.2194   -0.4229    5.1341 C   0  0  0  0  0  0  0  0  0  0  0  0
    5.0550    3.6716    6.3861 C   0  0  0  0  0  0  0  0  0  0  0  0
    2.5718    0.1684    6.3377 C   0  0  0  0  0  0  0  0  0  0  0  0
    3.5154    1.1319    8.9619 C   0  0  0  0  0  0  0  0  0  0  0  0
    3.8784    1.9104   10.2370 C   0  0  0  0  0  0  0  0  0  0  0  0
    3.7006    1.0826    3.9541 C   0  0  0  0  0  0  0  0  0  0  0  0
    6.5564    4.3406    9.0870 C   0  0  0  0  0  0  0  0  0  0  0  0
    4.0574    1.6948    5.1636 C   0  0  0  0  0  0  0  0  0  0  0  0
    2.7297    0.0824    3.9433 C   0  0  0  0  0  0  0  0  0  0  0  0
    3.4740    1.2388    6.3711 C   0  0  0  0  0  0  0  0  0  0  0  0
    3.7261    1.9738    7.6682 C   0  0  2  0  0  0  0  0  0  0  0  0
    5.1034    2.7167    7.5717 C   0  0  2  0  0  0  0  0  0  0  0  0
    5.3035    3.4653    8.8622 C   0  0  1  0  0  0  0  0  0  0  0  0
    6.6836    4.4925   10.6275 C   0  0  2  0  0  0  0  0  0  0  0  0
    0.8806   -0.3945    2.5485 C   0  0  0  0  0  0  0  0  0  0  0  0
    5.4378    6.7105   10.9122 C   0  0  0  0  0  0  0  0  0  0  0  0
    7.1952    1.9176   12.7266 C   0  0  0  0  0  0  0  0  0  0  0  0
    5.7238    3.4308   11.2561 C   0  0  1  0  0  0  0  0  0  0  0  0
    5.2699    2.5149   10.0642 C   0  0  2  0  0  0  0  0  0  0  0  0
    0.0483   -0.0747    3.3909 O   0  0  0  0  0  0  0  0  0  0  0  0
    5.4755    7.8729   11.3025 O   0  0  0  0  0  0  0  0  0  0  0  0
    7.3217    1.3649   13.8259 O   0  0  0  0  0  0  0  0  0  0  0  0
    2.2698   -0.3844    2.6997 O   0  0  0  0  0  0  0  0  0  0  0  0
    6.4880    5.8692   11.0932 O   0  0  0  0  0  0  0  0  0  0  0  0
    6.1772    2.7834   12.4897 O   0  0  0  0  0  0  0  0  0  0  0  0
    2.9419    2.7449    7.7273 H   0  0  0  0  0  0  0  0  0  0  0  0
    5.9322    2.0206    7.3993 H   0  0  0  0  0  0  0  0  0  0  0  0
    4.4155    4.0896    8.8267 H   0  0  0  0  0  0  0  0  0  0  0  0
    7.7188    4.3007   10.9243 H   0  0  0  0  0  0  0  0  0  0  0  0
    4.8485    3.9701   11.6316 H   0  0  0  0  0  0  0  0  0  0  0  0
    0.5914    1.0539    0.2405 H   0  0  0  0  0  0  0  0  0  0  0  0
    0.5758   -0.3105   -0.8917 H   0  0  0  0  0  0  0  0  0  0  0  0
    2.0456    0.0664    0.0268 H   0  0  0  0  0  0  0  0  0  0  0  0
    2.6206    7.0705   11.3075 H   0  0  0  0  0  0  0  0  0  0  0  0
    2.2113    5.5483   10.4565 H   0  0  0  0  0  0  0  0  0  0  0  0
    3.1647    5.4972   11.9367 H   0  0  0  0  0  0  0  0  0  0  0  0
   10.0084    1.0404   12.2421 H   0  0  0  0  0  0  0  0  0  0  0  0
    9.8432    1.3873   10.4965 H   0  0  0  0  0  0  0  0  0  0  0  0
    9.8177    2.7371   11.6408 H   0  0  0  0  0  0  0  0  0  0  0  0
    6.1079    0.6612   10.6170 H   0  0  0  0  0  0  0  0  0  0  0  0
    5.9015    0.6458    8.9343 H   0  0  0  0  0  0  0  0  0  0  0  0
    7.1405    1.6338    9.3885 H   0  0  0  0  0  0  0  0  0  0  0  0
   -0.6123   -0.9323    1.1596 H   0  0  0  0  0  0  0  0  0  0  0  0
    0.8438   -1.9131    1.0377 H   0  0  0  0  0  0  0  0  0  0  0  0
    4.1121    6.6131    9.2174 H   0  0  0  0  0  0  0  0  0  0  0  0
    4.4286    5.1523   10.0815 H   0  0  0  0  0  0  0  0  0  0  0  0
    7.8311    0.5481   11.2540 H   0  0  0  0  0  0  0  0  0  0  0  0
    7.8257    2.3211   10.8441 H   0  0  0  0  0  0  0  0  0  0  0  0
    6.0705    2.3891    5.0122 H   0  0  0  0  0  0  0  0  0  0  0  0
    4.8822    3.4771    4.2698 H   0  0  0  0  0  0  0  0  0  0  0  0
    1.4913   -1.2270    5.1383 H   0  0  0  0  0  0  0  0  0  0  0  0
    4.1459    4.2869    6.4295 H   0  0  0  0  0  0  0  0  0  0  0  0
    5.9055    4.3624    6.3888 H   0  0  0  0  0  0  0  0  0  0  0  0
    2.0866   -0.1965    7.2381 H   0  0  0  0  0  0  0  0  0  0  0  0
    2.4832    0.7913    9.0683 H   0  0  0  0  0  0  0  0  0  0  0  0
    4.0887    0.1985    8.8957 H   0  0  0  0  0  0  0  0  0  0  0  0
    3.8690    1.2333   11.1018 H   0  0  0  0  0  0  0  0  0  0  0  0
    3.1239    2.6810   10.4320 H   0  0  0  0  0  0  0  0  0  0  0  0
    4.1494    1.4235    3.0260 H   0  0  0  0  0  0  0  0  0  0  0  0
    6.4872    5.3106    8.5839 H   0  0  0  0  0  0  0  0  0  0  0  0
    7.4479    3.8354    8.6969 H   0  0  0  0  0  0  0  0  0  0  0  0
  1 39  1  0  0  0  0
  1 40  1  0  0  0  0
  1 41  1  0  0  0  0
  2 42  1  0  0  0  0
  2 43  1  0  0  0  0
  2 44  1  0  0  0  0
  3 45  1  0  0  0  0
  3 46  1  0  0  0  0
  3 47  1  0  0  0  0
  4 48  1  0  0  0  0
  4 49  1  0  0  0  0
  4 50  1  0  0  0  0
  5  1  1  0  0  0  0
  5 51  1  0  0  0  0
  5 52  1  0  0  0  0
  6  2  1  0  0  0  0
  6 53  1  0  0  0  0
  6 54  1  0  0  0  0
  7  3  1  0  0  0  0
  7 55  1  0  0  0  0
  7 56  1  0  0  0  0
  8 57  1  0  0  0  0
  8 58  1  0  0  0  0
  9 59  1  0  0  0  0
 10  8  1  0  0  0  0
 10 60  1  0  0  0  0
 10 61  1  0  0  0  0
 11  9  1  0  0  0  0
 11 62  1  0  0  0  0
 12 63  1  0  0  0  0
 12 64  1  0  0  0  0
 13 12  1  0  0  0  0
 13 65  1  0  0  0  0
 13 66  1  0  0  0  0
 14 67  1  0  0  0  0
 15 68  1  0  0  0  0
 15 69  1  0  0  0  0
 16  8  1  0  0  0  0
 16 14  2  0  0  0  0
 17  9  2  0  0  0  0
 17 14  1  0  0  0  0
 18 11  2  0  0  0  0
 18 16  1  0  0  0  0
 19 12  1  0  0  0  0
 19 18  1  0  0  0  0
 19 34  1  1  0  0  0
 20 10  1  0  0  0  0
 20 19  1  0  0  0  0
 20 35  1  6  0  0  0
 21 15  1  0  0  0  0
 21 20  1  0  0  0  0
 21 36  1  1  0  0  0
 22 15  1  0  0  0  0
 22 32  1  0  0  0  0
 22 37  1  1  0  0  0
 23  5  1  0  0  0  0
 24  6  1  0  0  0  0
 25  7  1  0  0  0  0
 26 22  1  0  0  0  0
 26 38  1  1  0  0  0
 26 33  1  0  0  0  0
 27  4  1  6  0  0  0
 27 13  1  0  0  0  0
 27 21  1  0  0  0  0
 27 26  1  0  0  0  0
 28 23  2  0  0  0  0
 29 24  2  0  0  0  0
 30 25  2  0  0  0  0
 31 17  1  0  0  0  0
 31 23  1  0  0  0  0
 32 24  1  0  0  0  0
 33 25  1  0  0  0  0
M  END
>  <DRUGBANK_ID>
DB14641

>  <SECONDARY_ACCESSION_NUMBERS>
DBSALT000069

>  <COMMON_NAME>
Estriol tripropionate

>  <CAS_NUMBER>
2236-31-9

>  <UNII>
S2A0P1AFQ9

>  <SYNONYMS>
Estriol propionate; Estriol, tripropionate

$$$$
