
 OpenBabel10282417143D

 45 47  0  0  0  0  0  0  0  0999 V2000
    1.0517    0.0047   -0.1095 F   0  0  0  0  0  0  0  0  0  0  0  0
    2.8215   -1.1214    0.4760 F   0  0  0  0  0  0  0  0  0  0  0  0
    2.8441    0.0671   -1.3522 F   0  0  0  0  0  0  0  0  0  0  0  0
    5.8865    4.2941    7.0638 O   0  0  0  0  0  0  0  0  0  0  0  0
    9.5479    3.7980    4.6048 O   0  0  0  0  0  0  0  0  0  0  0  0
    2.4583    2.4477    0.2533 O   0  0  0  0  0  0  0  0  0  0  0  0
    9.5770    4.3055    3.2786 N   0  0  0  0  0  0  0  0  0  0  0  0
    3.5755    1.3093    1.8203 N   0  0  0  0  0  0  0  0  0  0  0  0
    2.8550    3.3868    1.2029 N   0  0  0  0  0  0  0  0  0  0  0  0
    8.0132    2.5778    7.1941 C   0  0  0  0  0  0  0  0  0  0  0  0
    8.2026    1.7837    5.7679 C   0  0  0  0  0  0  0  0  0  0  0  0
    7.3429    4.0816    7.3493 C   0  0  0  0  0  0  0  0  0  0  0  0
    5.2407    4.0178    5.8735 C   0  0  0  0  0  0  0  0  0  0  0  0
    5.8269    3.6699    4.7208 C   0  0  0  0  0  0  0  0  0  0  0  0
    3.8744    4.1595    5.6560 C   0  0  0  0  0  0  0  0  0  0  0  0
    3.9686    3.1540    3.3750 C   0  0  0  0  0  0  0  0  0  0  0  0
    5.3246    3.0946    3.5503 C   0  0  0  0  0  0  0  0  0  0  0  0
    3.2670    3.7501    4.4070 C   0  0  0  0  0  0  0  0  0  0  0  0
    9.2253    2.4197    4.5941 C   0  0  0  0  0  0  0  0  0  0  0  0
    7.1935    4.0835    4.5654 C   0  0  0  0  0  0  0  0  0  0  0  0
    3.0714    4.8168    6.7055 C   0  0  0  0  0  0  0  0  0  0  0  0
    9.5077    2.0239    3.2851 C   0  0  0  0  0  0  0  0  0  0  0  0
    3.4516    2.6380    2.1478 C   0  0  0  0  0  0  0  0  0  0  0  0
    9.7310    3.2206    2.5186 C   0  0  0  0  0  0  0  0  0  0  0  0
   10.2465    3.4096    1.1426 C   0  0  0  0  0  0  0  0  0  0  0  0
    2.8844    1.2291    0.7042 C   0  0  0  0  0  0  0  0  0  0  0  0
    2.4107    0.0574   -0.0648 C   0  0  0  0  0  0  0  0  0  0  0  0
    9.0254    2.6224    7.6110 H   0  0  0  0  0  0  0  0  0  0  0  0
    7.4068    1.9482    7.8679 H   0  0  0  0  0  0  0  0  0  0  0  0
    8.4431    0.7160    5.8765 H   0  0  0  0  0  0  0  0  0  0  0  0
    7.1739    1.6830    5.3664 H   0  0  0  0  0  0  0  0  0  0  0  0
    7.9531    4.8522    6.8392 H   0  0  0  0  0  0  0  0  0  0  0  0
    7.4893    4.4086    8.3958 H   0  0  0  0  0  0  0  0  0  0  0  0
    5.9726    2.7118    2.7693 H   0  0  0  0  0  0  0  0  0  0  0  0
    2.1972    3.8885    4.2533 H   0  0  0  0  0  0  0  0  0  0  0  0
    7.4435    5.1246    4.6079 H   0  0  0  0  0  0  0  0  0  0  0  0
    7.6390    3.7033    5.4239 H   0  0  0  0  0  0  0  0  0  0  0  0
    7.5024    3.4618    3.7518 H   0  0  0  0  0  0  0  0  0  0  0  0
    3.1683    4.2332    7.6223 H   0  0  0  0  0  0  0  0  0  0  0  0
    3.4472    5.8347    6.8592 H   0  0  0  0  0  0  0  0  0  0  0  0
    2.0288    4.8590    6.3922 H   0  0  0  0  0  0  0  0  0  0  0  0
    9.4881    1.0192    2.9066 H   0  0  0  0  0  0  0  0  0  0  0  0
    9.5371    3.8453    0.4275 H   0  0  0  0  0  0  0  0  0  0  0  0
   11.0999    4.0978    1.2134 H   0  0  0  0  0  0  0  0  0  0  0  0
   10.6155    2.4564    0.7610 H   0  0  0  0  0  0  0  0  0  0  0  0
  1 27  1  0  0  0  0
  2 27  1  0  0  0  0
  3 27  1  0  0  0  0
  4 12  1  0  0  0  0
  4 13  1  0  0  0  0
  5  7  1  0  0  0  0
  5 19  1  0  0  0  0
  6  9  1  0  0  0  0
  6 26  1  0  0  0  0
  7 24  2  0  0  0  0
  8 23  1  0  0  0  0
  8 26  2  0  0  0  0
  9 23  2  0  0  0  0
 10 11  1  0  0  0  0
 10 12  1  0  0  0  0
 10 28  1  0  0  0  0
 10 29  1  0  0  0  0
 11 19  1  0  0  0  0
 11 30  1  0  0  0  0
 11 31  1  0  0  0  0
 12 32  1  0  0  0  0
 12 33  1  0  0  0  0
 13 14  2  0  0  0  0
 13 15  1  0  0  0  0
 14 17  1  0  0  0  0
 14 20  1  0  0  0  0
 15 18  2  0  0  0  0
 15 21  1  0  0  0  0
 16 17  2  0  0  0  0
 16 18  1  0  0  0  0
 16 23  1  0  0  0  0
 17 34  1  0  0  0  0
 18 35  1  0  0  0  0
 19 22  2  0  0  0  0
 20 36  1  0  0  0  0
 20 37  1  0  0  0  0
 20 38  1  0  0  0  0
 21 39  1  0  0  0  0
 21 40  1  0  0  0  0
 21 41  1  0  0  0  0
 22 24  1  0  0  0  0
 22 42  1  0  0  0  0
 24 25  1  0  0  0  0
 25 43  1  0  0  0  0
 25 44  1  0  0  0  0
 25 45  1  0  0  0  0
 26 27  1  0  0  0  0
M  END
>  <DRUGBANK_ID>
DB05105

>  <SECONDARY_ACCESSION_NUMBERS>
DB08716

>  <COMMON_NAME>
Pleconaril

>  <CAS_NUMBER>
153168-05-9

>  <UNII>
9H4570Q89D

>  <SYNONYMS>
Pleconaril

$$$$
