
 OpenBabel10282417193D

 47 50  0  0  0  0  0  0  0  0999 V2000
    0.8906    0.0927   -0.1275 C   0  0  0  0  0  0  0  0  0  0  0  0
    1.3321   -0.1972    2.2681 C   0  0  0  0  0  0  0  0  0  0  0  0
    2.0826   -1.3052    2.9397 C   0  0  0  0  0  0  0  0  0  0  0  0
    3.2468   -3.5494    6.7633 C   0  0  0  0  0  0  0  0  0  0  0  0
    4.9654   -4.8454    5.4190 C   0  0  0  0  0  0  0  0  0  0  0  0
    2.9876   -2.6885    5.5382 C   0  0  0  0  0  0  0  0  0  0  0  0
    4.6578   -3.9637    4.2135 C   0  0  0  0  0  0  0  0  0  0  0  0
    1.0431   -5.3754    2.1001 C   0  0  0  0  0  0  0  0  0  0  0  0
   -0.9204   -2.3659   -0.0060 C   0  0  0  0  0  0  0  0  0  0  0  0
    0.3621   -0.5580    1.1553 C   0  0  3  0  0  0  0  0  0  0  0  0
    4.6532   -4.1406    6.7413 C   0  0  3  0  0  0  0  0  0  0  0  0
    1.6591   -2.7099    2.6649 C   0  0  0  0  0  0  0  0  0  0  0  0
    0.4021   -4.3417    1.4148 C   0  0  0  0  0  0  0  0  0  0  0  0
   -1.2872   -3.6158   -0.3381 C   0  0  0  0  0  0  0  0  0  0  0  0
    1.9996   -5.0720    3.0565 C   0  0  0  0  0  0  0  0  0  0  0  0
    0.7013   -2.9888    1.6707 C   0  0  0  0  0  0  0  0  0  0  0  0
    2.3306   -3.7462    3.3778 C   0  0  0  0  0  0  0  0  0  0  0  0
   -0.6057   -4.7096    0.3909 C   0  0  0  0  0  0  0  0  0  0  0  0
   -2.3088   -3.8255   -1.3831 C   0  0  0  0  0  0  0  0  0  0  0  0
    2.5897   -6.0927    3.6968 F   0  0  0  0  0  0  0  0  0  0  0  0
    3.3020   -3.4384    4.3242 N   0  0  0  0  0  0  0  0  0  0  0  0
    0.0528   -1.9863    0.9281 N   0  0  0  0  0  0  0  0  0  0  0  0
    5.6205   -3.1233    7.0102 O   0  0  0  0  0  0  0  0  0  0  0  0
   -0.8402   -5.8965    0.1914 O   0  0  0  0  0  0  0  0  0  0  0  0
   -2.8796   -2.9432   -2.0145 O   0  0  0  0  0  0  0  0  0  0  0  0
   -2.5832   -5.1174   -1.6115 O   0  0  0  0  0  0  0  0  0  0  0  0
    0.5971    1.1480   -0.1423 H   0  0  0  0  0  0  0  0  0  0  0  0
    0.5248   -0.3811   -1.0392 H   0  0  0  0  0  0  0  0  0  0  0  0
    1.9853    0.0517   -0.1704 H   0  0  0  0  0  0  0  0  0  0  0  0
    0.7898    0.3685    3.0372 H   0  0  0  0  0  0  0  0  0  0  0  0
    2.0878    0.5229    1.9232 H   0  0  0  0  0  0  0  0  0  0  0  0
    3.1500   -1.2202    2.6991 H   0  0  0  0  0  0  0  0  0  0  0  0
    1.9666   -1.0953    4.0023 H   0  0  0  0  0  0  0  0  0  0  0  0
    2.5077   -4.3591    6.7886 H   0  0  0  0  0  0  0  0  0  0  0  0
    3.1046   -2.9363    7.6608 H   0  0  0  0  0  0  0  0  0  0  0  0
    6.0213   -5.1341    5.3899 H   0  0  0  0  0  0  0  0  0  0  0  0
    4.3634   -5.7585    5.3549 H   0  0  0  0  0  0  0  0  0  0  0  0
    1.9463   -2.3528    5.5766 H   0  0  0  0  0  0  0  0  0  0  0  0
    3.6229   -1.7930    5.5688 H   0  0  0  0  0  0  0  0  0  0  0  0
    4.8285   -4.5047    3.2759 H   0  0  0  0  0  0  0  0  0  0  0  0
    5.3506   -3.1112    4.1976 H   0  0  0  0  0  0  0  0  0  0  0  0
    0.8023   -6.4145    1.8928 H   0  0  0  0  0  0  0  0  0  0  0  0
   -1.3896   -1.5146   -0.5007 H   0  0  0  0  0  0  0  0  0  0  0  0
   -0.5925   -0.0797    1.4190 H   0  0  0  0  0  0  0  0  0  0  0  0
    4.7410   -4.8634    7.5589 H   0  0  0  0  0  0  0  0  0  0  0  0
    5.5998   -2.4683    6.2933 H   0  0  0  0  0  0  0  0  0  0  0  0
   -3.2618   -5.1714   -2.3111 H   0  0  0  0  0  0  0  0  0  0  0  0
  1 27  1  0  0  0  0
  1 28  1  0  0  0  0
  1 29  1  0  0  0  0
  2 30  1  0  0  0  0
  2 31  1  0  0  0  0
  3  2  1  0  0  0  0
  3 32  1  0  0  0  0
  3 33  1  0  0  0  0
  4 34  1  0  0  0  0
  4 35  1  0  0  0  0
  5 36  1  0  0  0  0
  5 37  1  0  0  0  0
  6  4  1  0  0  0  0
  6 38  1  0  0  0  0
  6 39  1  0  0  0  0
  7  5  1  0  0  0  0
  7 40  1  0  0  0  0
  7 41  1  0  0  0  0
  8 42  1  0  0  0  0
  9 43  1  0  0  0  0
 10  1  1  0  0  0  0
 10  2  1  0  0  0  0
 10 44  1  0  0  0  0
 11  4  1  0  0  0  0
 11  5  1  0  0  0  0
 11 45  1  0  0  0  0
 12  3  1  0  0  0  0
 13  8  2  0  0  0  0
 14  9  2  0  0  0  0
 15  8  1  0  0  0  0
 16 12  2  0  0  0  0
 16 13  1  0  0  0  0
 17 12  1  0  0  0  0
 17 15  2  0  0  0  0
 18 13  1  0  0  0  0
 18 14  1  0  0  0  0
 19 14  1  0  0  0  0
 20 15  1  0  0  0  0
 21  6  1  0  0  0  0
 21  7  1  0  0  0  0
 21 17  1  0  0  0  0
 22  9  1  0  0  0  0
 22 10  1  0  0  0  0
 22 16  1  0  0  0  0
 23 11  1  0  0  0  0
 23 46  1  0  0  0  0
 24 18  2  0  0  0  0
 25 19  2  0  0  0  0
 26 19  1  0  0  0  0
 26 47  1  0  0  0  0
M  END
>  <DRUGBANK_ID>
DB12447

>  <COMMON_NAME>
Nadifloxacin

>  <CAS_NUMBER>
124858-35-1

>  <UNII>
6CL9Y5YZEQ

>  <SYNONYMS>
Nadifloxacin; Nadifloxacino

$$$$
