
 OpenBabel10282417173D

 40 41  0  0  0  0  0  0  0  0999 V2000
    0.4832   -2.8347    2.4674 C   0  0  0  0  0  0  0  0  0  0  0  0
   -0.0669   -3.6019    3.5007 C   0  0  0  0  0  0  0  0  0  0  0  0
    0.0670   -4.9849    3.4815 C   0  0  0  0  0  0  0  0  0  0  0  0
    0.6976   -5.6041    2.4030 C   0  0  0  0  0  0  0  0  0  0  0  0
    1.1895   -4.8495    1.3319 C   0  0  0  0  0  0  0  0  0  0  0  0
    1.0363   -3.4554    1.3136 C   0  0  0  0  0  0  0  0  0  0  0  0
    0.2503   -1.5102   -0.0719 O   0  0  0  0  0  0  0  0  0  0  0  0
   -1.0808   -1.8267    0.1499 C   0  0  0  0  0  0  0  0  0  0  0  0
   -1.4954   -3.1575    0.3309 C   0  0  0  0  0  0  0  0  0  0  0  0
   -1.9553   -0.8030    0.4055 C   0  0  0  0  0  0  0  0  0  0  0  0
   -3.1865   -1.1249    1.0003 C   0  0  0  0  0  0  0  0  0  0  0  0
   -2.6156   -3.4683    1.0505 C   0  0  0  0  0  0  0  0  0  0  0  0
    1.1368   -2.6719   -0.0379 C   0  0  2  0  0  0  0  0  0  0  0  0
    0.8361   -3.4151   -1.3971 C   0  0  0  0  0  0  0  0  0  0  0  0
    1.2083   -2.5792   -2.6061 C   0  0  0  0  0  0  0  0  0  0  0  0
    3.0637   -1.7385   -3.8158 C   0  0  0  0  0  0  0  0  0  0  0  0
    2.6560   -2.5035   -2.6577 N   0  0  0  0  0  0  0  0  0  0  0  0
   -3.4892   -2.4671    1.3403 C   0  0  0  0  0  0  0  0  0  0  0  0
   -5.1686   -2.2891    3.0247 F   0  0  0  0  0  0  0  0  0  0  0  0
   -5.7960   -2.7117    0.9731 F   0  0  0  0  0  0  0  0  0  0  0  0
   -4.8087   -2.9153    1.8815 C   0  0  0  0  0  0  0  0  0  0  0  0
   -4.8356   -4.2544    2.1584 F   0  0  0  0  0  0  0  0  0  0  0  0
    0.2702   -1.7645    2.4754 H   0  0  0  0  0  0  0  0  0  0  0  0
   -0.6835   -3.1269    4.2629 H   0  0  0  0  0  0  0  0  0  0  0  0
   -0.3519   -5.5823    4.2870 H   0  0  0  0  0  0  0  0  0  0  0  0
    0.7346   -6.6892    2.3546 H   0  0  0  0  0  0  0  0  0  0  0  0
    1.5664   -5.3770    0.4611 H   0  0  0  0  0  0  0  0  0  0  0  0
   -0.9116   -4.0309    0.1170 H   0  0  0  0  0  0  0  0  0  0  0  0
   -1.6891    0.2299    0.1809 H   0  0  0  0  0  0  0  0  0  0  0  0
   -3.8922   -0.3362    1.2160 H   0  0  0  0  0  0  0  0  0  0  0  0
   -2.7318   -4.5068    1.3576 H   0  0  0  0  0  0  0  0  0  0  0  0
    2.1681   -2.3022   -0.0414 H   0  0  0  0  0  0  0  0  0  0  0  0
    1.2646   -4.4175   -1.4477 H   0  0  0  0  0  0  0  0  0  0  0  0
   -0.2333   -3.5599   -1.5845 H   0  0  0  0  0  0  0  0  0  0  0  0
    0.8019   -3.0660   -3.5032 H   0  0  0  0  0  0  0  0  0  0  0  0
    0.7435   -1.5847   -2.5515 H   0  0  0  0  0  0  0  0  0  0  0  0
    2.6720   -0.7182   -3.7639 H   0  0  0  0  0  0  0  0  0  0  0  0
    4.1536   -1.6968   -3.8272 H   0  0  0  0  0  0  0  0  0  0  0  0
    2.7211   -2.2199   -4.7354 H   0  0  0  0  0  0  0  0  0  0  0  0
    2.9989   -2.0228   -1.8281 H   0  0  0  0  0  0  0  0  0  0  0  0
  1  2  1  0  0  0  0
  1 23  1  0  0  0  0
  2  3  2  0  0  0  0
  2 24  1  0  0  0  0
  3  4  1  0  0  0  0
  3 25  1  0  0  0  0
  4  5  2  0  0  0  0
  4 26  1  0  0  0  0
  5 27  1  0  0  0  0
  6  1  2  0  0  0  0
  6  5  1  0  0  0  0
  7  8  1  0  0  0  0
  8 10  1  0  0  0  0
  9  8  2  0  0  0  0
  9 12  1  0  0  0  0
  9 28  1  0  0  0  0
 10 11  2  0  0  0  0
 10 29  1  0  0  0  0
 11 18  1  0  0  0  0
 11 30  1  0  0  0  0
 12 31  1  0  0  0  0
 13 14  1  0  0  0  0
 13 32  1  6  0  0  0
 13  7  1  0  0  0  0
 13  6  1  0  0  0  0
 14 15  1  0  0  0  0
 14 33  1  0  0  0  0
 14 34  1  0  0  0  0
 15 17  1  0  0  0  0
 15 35  1  0  0  0  0
 15 36  1  0  0  0  0
 16 37  1  0  0  0  0
 16 38  1  0  0  0  0
 16 39  1  0  0  0  0
 17 16  1  0  0  0  0
 17 40  1  0  0  0  0
 18 12  2  0  0  0  0
 18 21  1  0  0  0  0
 21 19  1  0  0  0  0
 21 20  1  0  0  0  0
 21 22  1  0  0  0  0
M  END
>  <DRUGBANK_ID>
DB08472

>  <COMMON_NAME>
(R)-Fluoxetine

>  <CAS_NUMBER>
100568-03-4

>  <UNII>
F279341RUQ

>  <SYNONYMS>
(+)-fluoxetine; (R)-(+)-fluoxetine; (R)-N-methyl-3-(4-trifluoromethylphenoxy)-3-phenylpropylamine; (R)-N-methyl-3-(4-trifluoromethylphenyloxy)-3-(phenyl)propylamine; (R)-N-methyl-3-phenyl-3-[(α,α,α-trifluoro-p-tolyl)oxy]propylamine; (R)-N-methyl-γ-(4-trifluoromethylphenoxy)-3-phenylpropylamine; (R)-Prozac

$$$$
