
 OpenBabel10282417173D

 52 53  0  0  0  0  0  0  0  0999 V2000
    1.4141   -0.2123    0.0514 C   0  0  0  0  0  0  0  0  0  0  0  0
    0.5074   -1.2847    0.0230 C   0  0  0  0  0  0  0  0  0  0  0  0
   -0.8846   -1.0671   -0.0269 C   0  0  0  0  0  0  0  0  0  0  0  0
   -1.4021    0.2280   -0.0532 C   0  0  0  0  0  0  0  0  0  0  0  0
   -0.4947    1.2853    0.0350 C   0  0  0  0  0  0  0  0  0  0  0  0
    0.8749    1.0651   -0.0051 C   0  0  0  0  0  0  0  0  0  0  0  0
    2.7770   -0.4440    0.0593 N   0  0  0  0  0  0  0  0  0  0  0  0
   -2.8508    0.5087   -0.2090 C   0  0  0  0  0  0  0  0  0  0  0  0
   -3.3431    1.7371   -0.3073 C   0  0  0  0  0  0  0  0  0  0  0  0
   -4.7517    2.1582   -0.2876 C   0  0  0  0  0  0  0  0  0  0  0  0
   -5.5668    1.6563    0.7217 C   0  0  0  0  0  0  0  0  0  0  0  0
   -6.8637    2.1527    0.9175 C   0  0  0  0  0  0  0  0  0  0  0  0
   -7.4173    3.0504   -0.0069 C   0  0  0  0  0  0  0  0  0  0  0  0
   -6.5823    3.5966   -1.0120 C   0  0  0  0  0  0  0  0  0  0  0  0
   -5.2508    3.1414   -1.1491 C   0  0  0  0  0  0  0  0  0  0  0  0
   -8.7859    3.0013   -0.3088 O   0  0  0  0  0  0  0  0  0  0  0  0
   -9.6596    2.0104    0.3371 C   0  0  0  0  0  0  0  0  0  0  0  0
   -9.5312    0.3992    0.2086 C   0  0  0  0  0  0  0  0  0  0  0  0
   -8.2882   -0.2433   -0.0734 O   0  0  0  0  0  0  0  0  0  0  0  0
   -7.5118    0.3179   -1.1452 C   0  0  0  0  0  0  0  0  0  0  0  0
   -7.6443    0.5170   -2.6766 C   0  0  0  0  0  0  0  0  0  0  0  0
   -8.8579    1.0288   -3.2552 O   0  0  0  0  0  0  0  0  0  0  0  0
   -9.9919    0.4376   -2.6645 C   0  0  0  0  0  0  0  0  0  0  0  0
   -9.8960   -1.1113   -2.6302 C   0  0  0  0  0  0  0  0  0  0  0  0
   -8.7229   -1.6065   -2.1512 F   0  0  0  0  0  0  0  0  0  0  0  0
    3.7620    0.6082    0.2276 C   0  0  0  0  0  0  0  0  0  0  0  0
    0.8783   -2.3063    0.0222 H   0  0  0  0  0  0  0  0  0  0  0  0
   -1.5472   -1.9328   -0.0451 H   0  0  0  0  0  0  0  0  0  0  0  0
   -0.8075    2.3161    0.1238 H   0  0  0  0  0  0  0  0  0  0  0  0
    1.4867    1.9550   -0.0885 H   0  0  0  0  0  0  0  0  0  0  0  0
    3.0840   -1.3849    0.2796 H   0  0  0  0  0  0  0  0  0  0  0  0
   -3.5007   -0.3744   -0.2499 H   0  0  0  0  0  0  0  0  0  0  0  0
   -2.7053    2.6236   -0.2809 H   0  0  0  0  0  0  0  0  0  0  0  0
   -5.2815    0.7350    1.2302 H   0  0  0  0  0  0  0  0  0  0  0  0
   -7.5030    1.5485    1.5515 H   0  0  0  0  0  0  0  0  0  0  0  0
   -6.9880    4.2486   -1.7851 H   0  0  0  0  0  0  0  0  0  0  0  0
   -4.6390    3.4905   -1.9837 H   0  0  0  0  0  0  0  0  0  0  0  0
   -9.7102    2.2807    1.3914 H   0  0  0  0  0  0  0  0  0  0  0  0
  -10.6621    2.2491   -0.0614 H   0  0  0  0  0  0  0  0  0  0  0  0
  -10.1170   -0.0772    1.0121 H   0  0  0  0  0  0  0  0  0  0  0  0
  -10.1548   -0.0600   -0.5362 H   0  0  0  0  0  0  0  0  0  0  0  0
   -7.7020    1.3220   -0.9849 H   0  0  0  0  0  0  0  0  0  0  0  0
   -6.4731    0.0587   -0.9402 H   0  0  0  0  0  0  0  0  0  0  0  0
   -6.8911    1.2793   -2.9326 H   0  0  0  0  0  0  0  0  0  0  0  0
   -7.3484   -0.3789   -3.2069 H   0  0  0  0  0  0  0  0  0  0  0  0
  -10.0495    1.0409   -1.7787 H   0  0  0  0  0  0  0  0  0  0  0  0
  -10.9672    0.7382   -3.0629 H   0  0  0  0  0  0  0  0  0  0  0  0
  -10.6651   -1.5752   -2.0148 H   0  0  0  0  0  0  0  0  0  0  0  0
   -9.9471   -1.4654   -3.6551 H   0  0  0  0  0  0  0  0  0  0  0  0
    4.2620    0.5326    1.1980 H   0  0  0  0  0  0  0  0  0  0  0  0
    4.5064    0.5138   -0.5657 H   0  0  0  0  0  0  0  0  0  0  0  0
    3.3680    1.6237    0.1586 H   0  0  0  0  0  0  0  0  0  0  0  0
  1  2  2  0  0  0  0
  1  6  1  0  0  0  0
  1  7  1  0  0  0  0
  2  3  1  0  0  0  0
  2 27  1  0  0  0  0
  3  4  2  0  0  0  0
  3 28  1  0  0  0  0
  4  5  1  0  0  0  0
  4  8  1  0  0  0  0
  5  6  2  0  0  0  0
  5 29  1  0  0  0  0
  6 30  1  0  0  0  0
  7 26  1  0  0  0  0
  7 31  1  0  0  0  0
  8  9  2  0  0  0  0
  8 32  1  0  0  0  0
  9 10  1  0  0  0  0
  9 33  1  0  0  0  0
 10 11  2  0  0  0  0
 10 15  1  0  0  0  0
 11 12  1  0  0  0  0
 11 34  1  0  0  0  0
 12 13  2  0  0  0  0
 12 35  1  0  0  0  0
 13 14  1  0  0  0  0
 13 16  1  0  0  0  0
 14 15  2  0  0  0  0
 14 36  1  0  0  0  0
 15 37  1  0  0  0  0
 16 17  1  0  0  0  0
 17 18  1  0  0  0  0
 17 38  1  0  0  0  0
 17 39  1  0  0  0  0
 18 19  1  0  0  0  0
 18 40  1  0  0  0  0
 18 41  1  0  0  0  0
 19 20  1  0  0  0  0
 20 21  1  0  0  0  0
 20 42  1  0  0  0  0
 20 43  1  0  0  0  0
 21 22  1  0  0  0  0
 21 44  1  0  0  0  0
 21 45  1  0  0  0  0
 22 23  1  0  0  0  0
 23 24  1  0  0  0  0
 23 46  1  0  0  0  0
 23 47  1  0  0  0  0
 24 25  1  0  0  0  0
 24 48  1  0  0  0  0
 24 49  1  0  0  0  0
 26 50  1  0  0  0  0
 26 51  1  0  0  0  0
 26 52  1  0  0  0  0
M  ISO  1  25  18
M  END
>  <DRUGBANK_ID>
DB09148

>  <COMMON_NAME>
Florbetaben F-18

>  <CAS_NUMBER>
902143-01-5

>  <UNII>
TLA7312TOI

>  <SYNONYMS>
4-((1E)-2-(4-(2-(2-(2-((SUP 18(F))FLUOROETHOXY)ETHOXY)ETHOXY)PHENYL)ETH-1-EN-1-YL)-N-METHYLANILINE; Florbetaben (18F); florbetaben (¹⁸F); florbetaben F18; FLORBETABEN(18F)

$$$$
