
 OpenBabel10282417173D

 38 38  0  0  0  0  0  0  0  0999 V2000
    1.5851   -0.5112   -0.0967 C   0  0  0  0  0  0  0  0  0  0  0  0
    0.6019   -1.5100   -0.1606 C   0  0  0  0  0  0  0  0  0  0  0  0
   -0.7624   -1.2295   -0.4490 C   0  0  0  0  0  0  0  0  0  0  0  0
   -1.1759    0.0822   -0.6569 C   0  0  0  0  0  0  0  0  0  0  0  0
   -0.1380    1.0057   -0.4483 C   0  0  0  0  0  0  0  0  0  0  0  0
    1.2072    0.7825   -0.2541 C   0  0  0  0  0  0  0  0  0  0  0  0
   -2.6960    0.4219   -0.7854 C   0  0  0  0  0  0  0  0  0  0  0  0
   -3.2192    1.6920   -0.5309 O   0  0  0  0  0  0  0  0  0  0  0  0
   -2.4679    2.8977   -0.2139 C   0  0  3  0  0  0  0  0  0  0  0  0
   -1.8907    2.8331    1.3406 C   0  0  0  0  0  0  0  0  0  0  0  0
   -1.2987    1.5924    1.8686 N   0  0  0  0  0  0  0  0  0  0  0  0
   -0.2758    1.6324    2.8943 C   0  0  0  0  0  0  0  0  0  0  0  0
   -3.4836   -0.4882   -0.9410 O   0  0  0  0  0  0  0  0  0  0  0  0
   -1.5767    3.1668   -1.4900 C   0  0  0  0  0  0  0  0  0  0  0  0
   -3.3601    4.1676   -0.1834 C   0  0  0  0  0  0  0  0  0  0  0  0
   -2.1766    0.4581    2.0822 C   0  0  0  0  0  0  0  0  0  0  0  0
   -2.3095    3.1583   -2.8215 C   0  0  0  0  0  0  0  0  0  0  0  0
    2.6154   -0.7068    0.1705 H   0  0  0  0  0  0  0  0  0  0  0  0
    0.9003   -2.5230    0.0818 H   0  0  0  0  0  0  0  0  0  0  0  0
   -1.4987   -2.0260   -0.3549 H   0  0  0  0  0  0  0  0  0  0  0  0
   -0.3194    2.0280   -0.1846 H   0  0  0  0  0  0  0  0  0  0  0  0
    1.8464    1.6472   -0.0926 H   0  0  0  0  0  0  0  0  0  0  0  0
   -1.1533    3.6460    1.4102 H   0  0  0  0  0  0  0  0  0  0  0  0
   -2.6987    3.0995    2.0357 H   0  0  0  0  0  0  0  0  0  0  0  0
   -0.7133    1.6626    3.8945 H   0  0  0  0  0  0  0  0  0  0  0  0
    0.3224    0.7098    2.8243 H   0  0  0  0  0  0  0  0  0  0  0  0
    0.4372    2.4517    2.7684 H   0  0  0  0  0  0  0  0  0  0  0  0
   -0.8954    4.0074   -1.3366 H   0  0  0  0  0  0  0  0  0  0  0  0
   -0.9416    2.3497   -1.7880 H   0  0  0  0  0  0  0  0  0  0  0  0
   -3.9527    4.2886   -1.0924 H   0  0  0  0  0  0  0  0  0  0  0  0
   -4.0656    4.1794    0.6505 H   0  0  0  0  0  0  0  0  0  0  0  0
   -2.7125    5.0534   -0.0826 H   0  0  0  0  0  0  0  0  0  0  0  0
   -2.8020    0.4823    2.9672 H   0  0  0  0  0  0  0  0  0  0  0  0
   -2.9050    0.3876    1.3016 H   0  0  0  0  0  0  0  0  0  0  0  0
   -1.5939   -0.4729    2.0439 H   0  0  0  0  0  0  0  0  0  0  0  0
   -2.8904    4.0590   -2.9781 H   0  0  0  0  0  0  0  0  0  0  0  0
   -1.5629    3.0621   -3.6202 H   0  0  0  0  0  0  0  0  0  0  0  0
   -2.9490    2.2709   -2.9054 H   0  0  0  0  0  0  0  0  0  0  0  0
  1  2  2  0  0  0  0
  1  6  1  0  0  0  0
  1 18  1  0  0  0  0
  2  3  1  0  0  0  0
  2 19  1  0  0  0  0
  3  4  2  0  0  0  0
  3 20  1  0  0  0  0
  4  5  1  0  0  0  0
  4  7  1  0  0  0  0
  5  6  2  0  0  0  0
  5 21  1  0  0  0  0
  6 22  1  0  0  0  0
  7  8  1  0  0  0  0
  7 13  2  0  0  0  0
  8  9  1  0  0  0  0
  9 10  1  0  0  0  0
  9 14  1  0  0  0  0
  9 15  1  0  0  0  0
 10 11  1  0  0  0  0
 10 23  1  0  0  0  0
 10 24  1  0  0  0  0
 11 12  1  0  0  0  0
 11 16  1  0  0  0  0
 12 25  1  0  0  0  0
 12 26  1  0  0  0  0
 12 27  1  0  0  0  0
 14 17  1  0  0  0  0
 14 28  1  0  0  0  0
 14 29  1  0  0  0  0
 15 30  1  0  0  0  0
 15 31  1  0  0  0  0
 15 32  1  0  0  0  0
 16 33  1  0  0  0  0
 16 34  1  0  0  0  0
 16 35  1  0  0  0  0
 17 36  1  0  0  0  0
 17 37  1  0  0  0  0
 17 38  1  0  0  0  0
M  END
>  <DRUGBANK_ID>
DB09088

>  <COMMON_NAME>
Amylocaine

>  <CAS_NUMBER>
644-26-8

>  <UNII>
QRW683O56T

>  <SYNONYMS>
1-(Dimethylamino)-2-methyl-2-butanol benzoate; Amyl√©ine; Amylocaine; Stovaine

$$$$
