
 OpenBabel10282417103D

 54 56  0  0  0  0  0  0  0  0999 V2000
    1.1916    0.1632    0.2033 O   0  0  0  0  0  0  0  0  0  0  0  0
    3.0242   -1.0358   -0.0334 O   0  0  0  0  0  0  0  0  0  0  0  0
    3.1641    1.5501    2.3098 O   0  0  0  0  0  0  0  0  0  0  0  0
   -1.7443    3.2478   -0.4588 N   0  3  3  0  0  0  0  0  0  0  0  0
   -0.6460    3.5462    0.6389 C   0  0  1  0  0  0  0  0  0  0  0  0
   -0.8246    2.9114   -1.6125 C   0  0  2  0  0  0  0  0  0  0  0  0
   -2.6010    4.5136   -0.7842 C   0  0  0  0  0  0  0  0  0  0  0  0
    0.1484    1.1548    0.0573 C   0  0  1  0  0  0  0  0  0  0  0  0
   -0.1146    2.2040    1.1609 C   0  0  0  0  0  0  0  0  0  0  0  0
   -0.2489    1.5148   -1.3817 C   0  0  0  0  0  0  0  0  0  0  0  0
    0.3847    4.4061   -0.0980 C   0  0  0  0  0  0  0  0  0  0  0  0
    0.2218    4.0068   -1.5400 C   0  0  0  0  0  0  0  0  0  0  0  0
   -2.7093    2.1009   -0.1200 C   0  0  0  0  0  0  0  0  0  0  0  0
    2.5150    0.0651   -0.0345 C   0  0  0  0  0  0  0  0  0  0  0  0
    3.3509    1.3202   -0.1934 C   0  0  3  0  0  0  0  0  0  0  0  0
   -3.5200    4.2479   -1.9853 C   0  0  0  0  0  0  0  0  0  0  0  0
   -3.4031    4.8918    0.4560 C   0  0  0  0  0  0  0  0  0  0  0  0
    3.1801    2.0404   -1.5367 C   0  0  0  0  0  0  0  0  0  0  0  0
    3.1161    2.1938    1.0451 C   0  0  0  0  0  0  0  0  0  0  0  0
    2.6166    1.4001   -2.6593 C   0  0  0  0  0  0  0  0  0  0  0  0
    3.5078    3.4031   -1.6720 C   0  0  0  0  0  0  0  0  0  0  0  0
    2.1795    2.1401   -3.7753 C   0  0  0  0  0  0  0  0  0  0  0  0
    3.1314    4.1309   -2.8157 C   0  0  0  0  0  0  0  0  0  0  0  0
    2.4455    3.5040   -3.8598 C   0  0  0  0  0  0  0  0  0  0  0  0
   -1.3272    2.9343   -2.5820 H   0  0  0  0  0  0  0  0  0  0  0  0
   -1.0719    4.1098    1.4664 H   0  0  0  0  0  0  0  0  0  0  0  0
    2.6762    0.7062    2.3150 H   0  0  0  0  0  0  0  0  0  0  0  0
   -1.9188    5.3329   -1.0394 H   0  0  0  0  0  0  0  0  0  0  0  0
   -0.6273    0.4347    0.3241 H   0  0  0  0  0  0  0  0  0  0  0  0
   -0.9069    1.8035    1.8068 H   0  0  0  0  0  0  0  0  0  0  0  0
    0.6725    2.3313    1.9029 H   0  0  0  0  0  0  0  0  0  0  0  0
    0.5586    1.3786   -2.0549 H   0  0  0  0  0  0  0  0  0  0  0  0
   -0.9541    0.7652   -1.7655 H   0  0  0  0  0  0  0  0  0  0  0  0
    1.4158    4.2866    0.2406 H   0  0  0  0  0  0  0  0  0  0  0  0
    0.1936    5.4804    0.0120 H   0  0  0  0  0  0  0  0  0  0  0  0
    1.1283    3.5672   -1.8571 H   0  0  0  0  0  0  0  0  0  0  0  0
    0.0377    4.8668   -2.1959 H   0  0  0  0  0  0  0  0  0  0  0  0
   -2.2215    1.1474   -0.0165 H   0  0  0  0  0  0  0  0  0  0  0  0
   -3.1793    2.3107    0.8345 H   0  0  0  0  0  0  0  0  0  0  0  0
   -3.3866    1.9424   -0.9526 H   0  0  0  0  0  0  0  0  0  0  0  0
    4.3916    0.9862   -0.1458 H   0  0  0  0  0  0  0  0  0  0  0  0
   -4.2208    3.4297   -1.8079 H   0  0  0  0  0  0  0  0  0  0  0  0
   -4.1307    5.1250   -2.2009 H   0  0  0  0  0  0  0  0  0  0  0  0
   -2.9643    4.0131   -2.8975 H   0  0  0  0  0  0  0  0  0  0  0  0
   -2.7561    5.1309    1.3029 H   0  0  0  0  0  0  0  0  0  0  0  0
   -4.0216    5.7665    0.2616 H   0  0  0  0  0  0  0  0  0  0  0  0
   -4.0744    4.0887    0.7671 H   0  0  0  0  0  0  0  0  0  0  0  0
    3.7741    3.0610    1.1047 H   0  0  0  0  0  0  0  0  0  0  0  0
    2.1497    2.6399    0.9387 H   0  0  0  0  0  0  0  0  0  0  0  0
    2.3062    0.3523   -2.6074 H   0  0  0  0  0  0  0  0  0  0  0  0
    3.9528    3.9568   -0.8484 H   0  0  0  0  0  0  0  0  0  0  0  0
    1.5159    1.6728   -4.5050 H   0  0  0  0  0  0  0  0  0  0  0  0
    3.2252    5.2160   -2.8112 H   0  0  0  0  0  0  0  0  0  0  0  0
    2.0357    4.0923   -4.6785 H   0  0  0  0  0  0  0  0  0  0  0  0
  1 14  1  0  0  0  0
  2 14  2  0  0  0  0
  3 19  1  0  0  0  0
  3 27  1  0  0  0  0
  4  5  1  0  0  0  0
  4  6  1  0  0  0  0
  4  7  1  0  0  0  0
  4 13  1  0  0  0  0
  5  9  1  0  0  0  0
  5 11  1  0  0  0  0
  5 26  1  1  0  0  0
  6 10  1  0  0  0  0
  6 12  1  0  0  0  0
  6 25  1  6  0  0  0
  7 16  1  0  0  0  0
  7 17  1  0  0  0  0
  7 28  1  0  0  0  0
  8  1  1  0  0  0  0
  8  9  1  0  0  0  0
  8 10  1  0  0  0  0
  8 29  1  1  0  0  0
  9 30  1  0  0  0  0
  9 31  1  0  0  0  0
 10 32  1  0  0  0  0
 10 33  1  0  0  0  0
 11 12  1  0  0  0  0
 11 34  1  0  0  0  0
 11 35  1  0  0  0  0
 12 36  1  0  0  0  0
 12 37  1  0  0  0  0
 13 38  1  0  0  0  0
 13 39  1  0  0  0  0
 13 40  1  0  0  0  0
 14 15  1  0  0  0  0
 15 18  1  0  0  0  0
 15 19  1  0  0  0  0
 15 41  1  0  0  0  0
 16 42  1  0  0  0  0
 16 43  1  0  0  0  0
 16 44  1  0  0  0  0
 17 45  1  0  0  0  0
 17 46  1  0  0  0  0
 17 47  1  0  0  0  0
 18 20  2  0  0  0  0
 18 21  1  0  0  0  0
 19 48  1  0  0  0  0
 19 49  1  0  0  0  0
 20 22  1  0  0  0  0
 20 50  1  0  0  0  0
 21 23  2  0  0  0  0
 21 51  1  0  0  0  0
 22 24  2  0  0  0  0
 22 52  1  0  0  0  0
 23 24  1  0  0  0  0
 23 53  1  0  0  0  0
 24 54  1  0  0  0  0
M  CHG  1   4   1
M  END
>  <DRUGBANK_ID>
DB00332

>  <SECONDARY_ACCESSION_NUMBERS>
APRD00537

>  <COMMON_NAME>
Ipratropium

>  <CAS_NUMBER>
60205-81-4

>  <UNII>
GR88G0I6UL

>  <SYNONYMS>
bromuro de ipratropio; Ipratropium cation; Ipratropium ion

$$$$
