274
 OpenBabel10282417103D

 47 49  0  0  1  0  0  0  0  0999 V2000
    1.8067    0.7996   -1.2129 S   0  0  0  0  0  0  0  0  0  0  0  0
    1.5986   -4.1349    1.8114 S   0  0  0  0  0  0  0  0  0  0  0  0
    0.8891    1.3545    1.5322 S   0  0  0  0  0  0  0  0  0  0  0  0
   -2.1078    1.9887   -1.7306 O   0  0  0  0  0  0  0  0  0  0  0  0
   -2.5604   -0.3816    0.5739 O   0  0  0  0  0  0  0  0  0  0  0  0
   -2.2371   -2.8489   -0.3348 O   0  0  0  0  0  0  0  0  0  0  0  0
   -0.4627   -4.1457   -0.1526 O   0  0  0  0  0  0  0  0  0  0  0  0
   -0.6915    4.5555    1.6490 O   0  0  0  0  0  0  0  0  0  0  0  0
   -0.5690   -0.5183   -0.6024 N   0  0  0  0  0  0  0  0  0  0  0  0
   -1.2462    2.7380    0.4068 N   0  0  0  0  0  0  0  0  0  0  0  0
    1.7213   -1.9146    3.3711 N   0  0  0  0  0  0  0  0  0  0  0  0
    1.9066   -3.6286    4.5472 N   0  0  0  0  0  0  0  0  0  0  0  0
    1.8572   -1.3998    4.5851 N   0  0  0  0  0  0  0  0  0  0  0  0
    1.9418   -2.4741    5.3389 N   0  0  0  0  0  0  0  0  0  0  0  0
    2.5106    2.4313    4.6474 N   0  0  0  0  0  0  0  0  0  0  0  0
    0.0197    0.6564   -1.2330 C   0  0  1  0  0  0  0  0  0  0  0  0
   -1.2043    1.6002   -0.6464 C   0  0  2  0  0  0  0  0  0  0  0  0
   -1.6656    0.1028   -0.0503 C   0  0  0  0  0  0  0  0  0  0  0  0
   -0.0272   -1.7875   -0.4992 C   0  0  0  0  0  0  0  0  0  0  0  0
    1.3336   -1.9578   -0.4432 C   0  0  0  0  0  0  0  0  0  0  0  0
    2.3476   -0.8124   -0.6158 C   0  0  0  0  0  0  0  0  0  0  0  0
    2.0928   -3.2405    0.1916 C   0  0  0  0  0  0  0  0  0  0  0  0
   -0.9064   -3.0141   -0.2687 C   0  0  0  0  0  0  0  0  0  0  0  0
   -0.3315    3.5529    1.0385 C   0  0  0  0  0  0  0  0  0  0  0  0
   -3.4285    2.3773   -1.3696 C   0  0  0  0  0  0  0  0  0  0  0  0
    1.0654    3.0740    1.0627 C   0  0  0  0  0  0  0  0  0  0  0  0
    1.8339   -3.2344    3.2923 C   0  0  0  0  0  0  0  0  0  0  0  0
    0.6097    0.9704    3.2380 C   0  0  0  0  0  0  0  0  0  0  0  0
    1.3264   -1.1383    2.3109 C   0  0  0  0  0  0  0  0  0  0  0  0
    1.6487    1.7689    4.0083 C   0  0  0  0  0  0  0  0  0  0  0  0
   -0.1460    0.6452   -2.3071 H   0  0  0  0  0  0  0  0  0  0  0  0
   -2.5898   -1.9412   -0.3475 H   0  0  0  0  0  0  0  0  0  0  0  0
   -2.1620    3.0951    0.6548 H   0  0  0  0  0  0  0  0  0  0  0  0
    3.0913   -1.0983   -1.3534 H   0  0  0  0  0  0  0  0  0  0  0  0
    2.9442   -0.6864    0.3072 H   0  0  0  0  0  0  0  0  0  0  0  0
    2.0548   -4.0020   -0.5862 H   0  0  0  0  0  0  0  0  0  0  0  0
    3.1452   -2.9779    0.3455 H   0  0  0  0  0  0  0  0  0  0  0  0
   -3.9604    1.5549   -0.8841 H   0  0  0  0  0  0  0  0  0  0  0  0
   -3.4219    3.2484   -0.7100 H   0  0  0  0  0  0  0  0  0  0  0  0
   -3.9462    2.6805   -2.2774 H   0  0  0  0  0  0  0  0  0  0  0  0
    1.3864    3.1442    0.0141 H   0  0  0  0  0  0  0  0  0  0  0  0
    1.8035    3.6324    1.6341 H   0  0  0  0  0  0  0  0  0  0  0  0
   -0.3053    1.5607    3.4228 H   0  0  0  0  0  0  0  0  0  0  0  0
    0.2468    0.1091    3.8008 H   0  0  0  0  0  0  0  0  0  0  0  0
    0.2516   -0.9161    2.3459 H   0  0  0  0  0  0  0  0  0  0  0  0
    2.1427   -0.4341    2.1535 H   0  0  0  0  0  0  0  0  0  0  0  0
    1.2456   -1.7039    1.4676 H   0  0  0  0  0  0  0  0  0  0  0  0
  1 16  1  0  0  0  0
  1 21  1  0  0  0  0
  2 22  1  0  0  0  0
  2 27  1  0  0  0  0
  3 26  1  0  0  0  0
  3 28  1  0  0  0  0
  4 25  1  0  0  0  0
  5 18  2  0  0  0  0
  6 23  1  0  0  0  0
  6 32  1  0  0  0  0
  7 23  2  0  0  0  0
  8 24  2  0  0  0  0
  9 16  1  0  0  0  0
  9 18  1  0  0  0  0
  9 19  1  0  0  0  0
 10 24  1  0  0  0  0
 10 33  1  0  0  0  0
 11 13  1  0  0  0  0
 11 27  1  0  0  0  0
 11 29  1  0  0  0  0
 12 14  1  0  0  0  0
 12 27  2  0  0  0  0
 13 14  2  0  0  0  0
 15 30  3  0  0  0  0
 16 17  1  0  0  0  0
 16 31  1  6  0  0  0
 17 18  1  0  0  0  0
 17 10  1  0  0  0  0
 17  4  1  6  0  0  0
 19 20  2  0  0  0  0
 19 23  1  0  0  0  0
 20 21  1  0  0  0  0
 20 22  1  0  0  0  0
 21 34  1  0  0  0  0
 21 35  1  0  0  0  0
 22 36  1  0  0  0  0
 22 37  1  0  0  0  0
 24 26  1  0  0  0  0
 25 38  1  0  0  0  0
 25 39  1  0  0  0  0
 25 40  1  0  0  0  0
 26 41  1  0  0  0  0
 26 42  1  0  0  0  0
 28 30  1  0  0  0  0
 28 43  1  0  0  0  0
 28 44  1  0  0  0  0
 29 45  1  0  0  0  0
 29 46  1  0  0  0  0
 29 47  1  0  0  0  0
M  END
>  <DRUGBANK_ID>
DB00274

>  <SECONDARY_ACCESSION_NUMBERS>
APRD00852

>  <COMMON_NAME>
Cefmetazole

>  <CAS_NUMBER>
56796-20-4

>  <UNII>
3J962UJT8H

>  <SYNONYMS>
(6R,7S)-7-({[(cyanomethyl)sulfanyl]acetyl}amino)-7-methoxy-3-{[(1-methyl-1H-tetrazol-5-yl)sulfanyl]methyl}-8-oxo-5-thia-1-azabicyclo[4.2.0]oct-2-ene-2-carboxylic acid; Cefmetazole; Cefmetazolo; Cefmetazolum

$$$$
