NOX
 OpenBabel10282417173D

 50 51  0  0  0  0  0  0  0  0999 V2000
    1.4829    0.0461   -0.2657 N   0  3  0  0  0  0  0  0  0  0  0  0
    0.6653   -1.2421   -0.1860 C   0  0  0  0  0  0  0  0  0  0  0  0
   -0.7921   -1.1916   -0.5940 C   0  0  0  0  0  0  0  0  0  0  0  0
   -1.4747    0.0097    0.0591 C   0  0  0  0  0  0  0  0  0  0  0  0
   -0.7422    1.2595   -0.3982 C   0  0  0  0  0  0  0  0  0  0  0  0
    0.6675    1.2634    0.1730 C   0  0  0  0  0  0  0  0  0  0  0  0
    1.8309    0.1878   -1.5956 O   0  5  0  0  0  0  0  0  0  0  0  0
    2.8237   -0.0010    0.5150 C   0  0  0  0  0  0  0  0  0  0  0  0
    2.7651   -0.0794    2.0374 C   0  0  0  0  0  0  0  0  0  0  0  0
    2.1344   -1.3860    2.4465 C   0  0  0  0  0  0  0  0  0  0  0  0
    2.6108   -2.6743    2.2015 C   0  0  0  0  0  0  0  0  0  0  0  0
    1.8376   -3.8347    2.5482 C   0  0  0  0  0  0  0  0  0  0  0  0
    0.5540   -3.6991    3.0955 C   0  0  0  0  0  0  0  0  0  0  0  0
    0.0126   -2.4539    2.9777 C   0  0  0  0  0  0  0  0  0  0  0  0
    0.7984   -1.3262    2.7647 C   0  0  0  0  0  0  0  0  0  0  0  0
   -0.2106   -4.6860    3.7616 N   0  0  0  0  0  0  0  0  0  0  0  0
   -1.2918   -4.5578    4.6350 C   0  0  0  0  0  0  0  0  0  0  0  0
   -1.8941   -5.5926    4.9392 O   0  0  0  0  0  0  0  0  0  0  0  0
   -1.7892   -3.2231    5.2698 C   0  0  0  0  0  0  0  0  0  0  0  0
   -0.8673   -2.4791    6.2728 C   0  0  0  0  0  0  0  0  0  0  0  0
    0.3670   -1.7928    5.7126 C   0  0  0  0  0  0  0  0  0  0  0  0
   -0.1323   -0.4914    5.0584 C   0  0  0  0  0  0  0  0  0  0  0  0
    0.8477    0.4316    4.8634 O   0  0  0  0  0  0  0  0  0  0  0  0
   -1.2440   -0.3096    4.6205 O   0  0  0  0  0  0  0  0  0  0  0  0
    0.5119   -1.4378    0.8252 H   0  0  0  0  0  0  0  0  0  0  0  0
    1.2515   -2.0897   -0.5517 H   0  0  0  0  0  0  0  0  0  0  0  0
   -1.2984   -2.1022   -0.2408 H   0  0  0  0  0  0  0  0  0  0  0  0
   -0.8640   -1.1581   -1.6791 H   0  0  0  0  0  0  0  0  0  0  0  0
   -2.5317    0.0415   -0.2164 H   0  0  0  0  0  0  0  0  0  0  0  0
   -1.4498   -0.0558    1.1582 H   0  0  0  0  0  0  0  0  0  0  0  0
   -0.6976    1.2698   -1.4916 H   0  0  0  0  0  0  0  0  0  0  0  0
   -1.2864    2.1513   -0.0741 H   0  0  0  0  0  0  0  0  0  0  0  0
    1.2291    2.1429   -0.1603 H   0  0  0  0  0  0  0  0  0  0  0  0
    0.6110    1.2915    1.2637 H   0  0  0  0  0  0  0  0  0  0  0  0
    3.3813   -0.8568    0.1206 H   0  0  0  0  0  0  0  0  0  0  0  0
    3.3631    0.9096    0.2208 H   0  0  0  0  0  0  0  0  0  0  0  0
    3.7515    0.0293    2.5057 H   0  0  0  0  0  0  0  0  0  0  0  0
    2.2064    0.7853    2.4330 H   0  0  0  0  0  0  0  0  0  0  0  0
    3.5394   -2.7865    1.6425 H   0  0  0  0  0  0  0  0  0  0  0  0
    2.2791   -4.8089    2.3545 H   0  0  0  0  0  0  0  0  0  0  0  0
   -1.0314   -2.2843    3.1547 H   0  0  0  0  0  0  0  0  0  0  0  0
    0.2674   -0.3755    2.6768 H   0  0  0  0  0  0  0  0  0  0  0  0
    0.0349   -5.6592    3.6086 H   0  0  0  0  0  0  0  0  0  0  0  0
   -2.2486   -2.5818    4.5119 H   0  0  0  0  0  0  0  0  0  0  0  0
   -2.6859   -3.4778    5.8603 H   0  0  0  0  0  0  0  0  0  0  0  0
   -1.4561   -1.6799    6.7432 H   0  0  0  0  0  0  0  0  0  0  0  0
   -0.5659   -3.1645    7.0660 H   0  0  0  0  0  0  0  0  0  0  0  0
    1.1212   -1.5128    6.4491 H   0  0  0  0  0  0  0  0  0  0  0  0
    0.9159   -2.5220    5.1214 H   0  0  0  0  0  0  0  0  0  0  0  0
    1.7386    0.0410    4.9049 H   0  0  0  0  0  0  0  0  0  0  0  0
  1  2  1  0  0  0  0
  1  6  1  0  0  0  0
  1  7  1  0  0  0  0
  1  8  1  0  0  0  0
  2  3  1  0  0  0  0
  2 25  1  0  0  0  0
  2 26  1  0  0  0  0
  3  4  1  0  0  0  0
  3 27  1  0  0  0  0
  3 28  1  0  0  0  0
  4  5  1  0  0  0  0
  4 29  1  0  0  0  0
  4 30  1  0  0  0  0
  5  6  1  0  0  0  0
  5 31  1  0  0  0  0
  5 32  1  0  0  0  0
  6 33  1  0  0  0  0
  6 34  1  0  0  0  0
  8  9  1  0  0  0  0
  8 35  1  0  0  0  0
  8 36  1  0  0  0  0
  9 10  1  0  0  0  0
  9 37  1  0  0  0  0
  9 38  1  0  0  0  0
 10 11  2  0  0  0  0
 10 15  1  0  0  0  0
 11 12  1  0  0  0  0
 11 39  1  0  0  0  0
 12 13  2  0  0  0  0
 12 40  1  0  0  0  0
 13 14  1  0  0  0  0
 13 16  1  0  0  0  0
 14 15  2  0  0  0  0
 14 41  1  0  0  0  0
 15 42  1  0  0  0  0
 16 17  1  0  0  0  0
 16 43  1  0  0  0  0
 17 18  2  0  0  0  0
 17 19  1  0  0  0  0
 19 20  1  0  0  0  0
 19 44  1  0  0  0  0
 19 45  1  0  0  0  0
 20 21  1  0  0  0  0
 20 46  1  0  0  0  0
 20 47  1  0  0  0  0
 21 22  1  0  0  0  0
 21 48  1  0  0  0  0
 21 49  1  0  0  0  0
 22 23  1  0  0  0  0
 22 24  2  0  0  0  0
 23 50  1  0  0  0  0
M  CHG  2   1   1   7  -1
M  END
>  <DRUGBANK_ID>
DB08289

>  <COMMON_NAME>
N-(PARA-GLUTARAMIDOPHENYL-ETHYL)-PIPERIDINIUM-N-OXIDE

$$$$
