EES
 OpenBabel10282417163D

 27 29  0  0  0  0  0  0  0  0999 V2000
    1.0551   -0.0365   -0.0740 Cl  0  0  0  0  0  0  0  0  0  0  0  0
    2.7614    0.0302   -0.0989 C   0  0  0  0  0  0  0  0  0  0  0  0
    3.6116    1.0913   -0.0763 C   0  0  0  0  0  0  0  0  0  0  0  0
    3.2625    2.4445   -0.0907 C   0  0  0  0  0  0  0  0  0  0  0  0
    4.3998    3.2699   -0.0797 C   0  0  0  0  0  0  0  0  0  0  0  0
    4.1542    4.6210   -0.0749 O   0  0  0  0  0  0  0  0  0  0  0  0
    5.7410    2.7897   -0.0733 C   0  0  0  0  0  0  0  0  0  0  0  0
    6.0611    1.4066   -0.0475 C   0  0  0  0  0  0  0  0  0  0  0  0
    4.9428    0.5452   -0.0240 C   0  0  0  0  0  0  0  0  0  0  0  0
    4.8742   -0.7991    0.0762 N   0  0  0  0  0  0  0  0  0  0  0  0
    3.5398   -1.1076   -0.0122 N   0  0  0  0  0  0  0  0  0  0  0  0
    3.1273   -2.4705   -0.0505 C   0  0  0  0  0  0  0  0  0  0  0  0
    3.5890   -3.3675    0.9219 C   0  0  0  0  0  0  0  0  0  0  0  0
    3.2400   -4.7216    0.8414 C   0  0  0  0  0  0  0  0  0  0  0  0
    2.2731   -2.9265   -1.0667 C   0  0  0  0  0  0  0  0  0  0  0  0
    1.9006   -4.2761   -1.1209 C   0  0  0  0  0  0  0  0  0  0  0  0
    2.4172   -5.1693   -0.1876 C   0  0  0  0  0  0  0  0  0  0  0  0
    2.1482   -6.5053   -0.2511 O   0  0  0  0  0  0  0  0  0  0  0  0
    2.2558    2.8355   -0.0951 H   0  0  0  0  0  0  0  0  0  0  0  0
    4.9955    5.1064   -0.0588 H   0  0  0  0  0  0  0  0  0  0  0  0
    6.5643    3.5032   -0.0780 H   0  0  0  0  0  0  0  0  0  0  0  0
    7.0816    1.0471   -0.0364 H   0  0  0  0  0  0  0  0  0  0  0  0
    4.1811   -3.0222    1.7664 H   0  0  0  0  0  0  0  0  0  0  0  0
    3.6104   -5.4302    1.5780 H   0  0  0  0  0  0  0  0  0  0  0  0
    1.9289   -2.2587   -1.8526 H   0  0  0  0  0  0  0  0  0  0  0  0
    1.2196   -4.6104   -1.8980 H   0  0  0  0  0  0  0  0  0  0  0  0
    1.6735   -6.6954   -1.0773 H   0  0  0  0  0  0  0  0  0  0  0  0
  1  2  1  0  0  0  0
  2  3  2  0  0  0  0
  2 11  1  0  0  0  0
  3  9  1  0  0  0  0
  3  4  1  0  0  0  0
  4  5  2  0  0  0  0
  4 19  1  0  0  0  0
  5  7  1  0  0  0  0
  5  6  1  0  0  0  0
  6 20  1  0  0  0  0
  7  8  2  0  0  0  0
  7 21  1  0  0  0  0
  8  9  1  0  0  0  0
  8 22  1  0  0  0  0
  9 10  2  0  0  0  0
 10 11  1  0  0  0  0
 11 12  1  0  0  0  0
 12 15  1  0  0  0  0
 12 13  2  0  0  0  0
 13 14  1  0  0  0  0
 13 23  1  0  0  0  0
 14 17  2  0  0  0  0
 14 24  1  0  0  0  0
 15 16  2  0  0  0  0
 15 25  1  0  0  0  0
 16 17  1  0  0  0  0
 16 26  1  0  0  0  0
 17 18  1  0  0  0  0
 18 27  1  0  0  0  0
M  END
>  <DRUGBANK_ID>
DB07708

>  <COMMON_NAME>
3-CHLORO-2-(4-HYDROXYPHENYL)-2H-INDAZOL-5-OL

$$$$
