
 OpenBabel10282417123D

 14 13  0  0  0  0  0  0  0  0999 V2000
    0.9619    0.1779   -0.0860 N   0  0  0  0  0  0  0  0  0  0  0  0
    0.4826   -0.6512   -1.1897 C   0  0  0  0  0  0  0  0  0  0  0  0
    0.9630   -2.0945   -1.1383 C   0  0  0  0  0  0  0  0  0  0  0  0
    0.4235   -2.9555    0.3314 S   0  0  0  0  0  0  0  0  0  0  0  0
   -1.1716   -2.8579    0.0856 O   0  0  0  0  0  0  0  0  0  0  0  0
    0.8176   -4.3442    0.2361 O   0  0  0  0  0  0  0  0  0  0  0  0
    0.7196   -2.1509    1.4941 O   0  0  0  0  0  0  0  0  0  0  0  0
    0.7044   -0.2465    0.8167 H   0  0  0  0  0  0  0  0  0  0  0  0
    1.9839    0.1678   -0.0597 H   0  0  0  0  0  0  0  0  0  0  0  0
   -0.6117   -0.6081   -1.2147 H   0  0  0  0  0  0  0  0  0  0  0  0
    0.8292   -0.1927   -2.1232 H   0  0  0  0  0  0  0  0  0  0  0  0
    0.5887   -2.6566   -2.0009 H   0  0  0  0  0  0  0  0  0  0  0  0
    2.0563   -2.1384   -1.1536 H   0  0  0  0  0  0  0  0  0  0  0  0
   -1.5151   -2.0040    0.4264 H   0  0  0  0  0  0  0  0  0  0  0  0
  1  2  1  0  0  0  0
  1  8  1  0  0  0  0
  1  9  1  0  0  0  0
  2  3  1  0  0  0  0
  2 10  1  0  0  0  0
  2 11  1  0  0  0  0
  3  4  1  0  0  0  0
  3 12  1  0  0  0  0
  3 13  1  0  0  0  0
  4  5  1  0  0  0  0
  4  6  2  0  0  0  0
  4  7  2  0  0  0  0
  5 14  1  0  0  0  0
M  END
>  <DRUGBANK_ID>
DB01956

>  <SECONDARY_ACCESSION_NUMBERS>
EXPT03010; DB11103

>  <COMMON_NAME>
Taurine

>  <CAS_NUMBER>
107-35-7

>  <UNII>
1EQV5MLY3D

>  <SYNONYMS>
Aminoethylsulfonic acid; Taurine; Taurineold

$$$$
