
 OpenBabel10282417133D

 67 70  0  0  0  0  0  0  0  0999 V2000
   -1.2241    0.3789   -0.2642 C   0  0  0  0  0  0  0  0  0  0  0  0
   -0.1061    1.2582   -0.9108 C   0  0  2  0  0  0  0  0  0  0  0  0
    1.1932    1.2103   -0.1507 C   0  0  0  0  0  0  0  0  0  0  0  0
    2.0017   -0.0694   -0.2310 C   0  0  0  0  0  0  0  0  0  0  0  0
    1.1157   -1.2800   -0.3905 C   0  0  0  0  0  0  0  0  0  0  0  0
   -1.2398   -1.0627   -0.1772 C   0  0  0  0  0  0  0  0  0  0  0  0
   -2.2702    0.8434    0.1861 O   0  0  0  0  0  0  0  0  0  0  0  0
   -0.0176   -1.3067    0.5730 N   0  0  0  0  0  0  0  0  0  0  0  0
    0.3454    1.0651    2.7332 C   0  0  0  0  0  0  0  0  0  0  0  0
    1.9238    2.7822    2.5680 C   0  0  0  0  0  0  0  0  0  0  0  0
   -0.6378    1.9640    2.3339 C   0  0  0  0  0  0  0  0  0  0  0  0
   -0.2983    3.2793    1.9576 C   0  0  0  0  0  0  0  0  0  0  0  0
    1.0110    3.7038    2.0653 C   0  0  0  0  0  0  0  0  0  0  0  0
    1.6452    1.4677    2.8766 N   0  0  0  0  0  0  0  0  0  0  0  0
    0.0832   -0.8660    2.3094 S   0  0  0  0  0  0  0  0  0  0  0  0
    1.2862   -1.5304    2.7696 O   0  0  0  0  0  0  0  0  0  0  0  0
   -1.2086   -1.1791    2.8930 O   0  0  0  0  0  0  0  0  0  0  0  0
   -0.7594    2.5542   -1.0656 N   0  0  0  0  0  0  0  0  0  0  0  0
   -1.9420    2.3656   -1.7646 C   0  0  0  0  0  0  0  0  0  0  0  0
   -2.0007    1.4357   -2.5817 O   0  0  0  0  0  0  0  0  0  0  0  0
   -3.1874    3.1533   -1.3752 C   0  0  2  0  0  0  0  0  0  0  0  0
   -4.1978    2.3395   -0.4926 C   0  0  0  0  0  0  0  0  0  0  0  0
   -4.0738    2.2248    1.0389 C   0  0  0  0  0  0  0  0  0  0  0  0
   -3.8274    3.5334    1.7192 C   0  0  0  0  0  0  0  0  0  0  0  0
   -5.0540    1.2189    1.6227 C   0  0  0  0  0  0  0  0  0  0  0  0
   -3.6863    3.4247   -2.7375 N   0  0  0  0  0  0  0  0  0  0  0  0
   -4.7467    2.7275   -3.2895 C   0  0  0  0  0  0  0  0  0  0  0  0
   -5.5149    2.0098   -2.6611 O   0  0  0  0  0  0  0  0  0  0  0  0
   -5.0702    3.0394   -4.6438 C   0  0  0  0  0  0  0  0  0  0  0  0
   -6.3272    3.3724   -5.0917 C   0  0  0  0  0  0  0  0  0  0  0  0
   -4.1864    2.9441   -5.6763 O   0  0  0  0  0  0  0  0  0  0  0  0
   -4.9076    3.2361   -6.8047 C   0  0  0  0  0  0  0  0  0  0  0  0
   -6.2273    3.5372   -6.4772 C   0  0  0  0  0  0  0  0  0  0  0  0
   -7.1259    3.9133   -7.4822 C   0  0  0  0  0  0  0  0  0  0  0  0
   -6.6553    3.9891   -8.7935 C   0  0  0  0  0  0  0  0  0  0  0  0
   -5.3286    3.6703   -9.0991 C   0  0  0  0  0  0  0  0  0  0  0  0
   -4.4231    3.2640   -8.1085 C   0  0  0  0  0  0  0  0  0  0  0  0
    0.1082    0.9129   -1.9121 H   0  0  0  0  0  0  0  0  0  0  0  0
    1.7948    2.1193   -0.0966 H   0  0  0  0  0  0  0  0  0  0  0  0
    0.8411    1.0776    0.8157 H   0  0  0  0  0  0  0  0  0  0  0  0
    2.6939    0.0303   -1.0638 H   0  0  0  0  0  0  0  0  0  0  0  0
    2.5762   -0.2115    0.6912 H   0  0  0  0  0  0  0  0  0  0  0  0
    0.7139   -1.2105   -1.4199 H   0  0  0  0  0  0  0  0  0  0  0  0
    1.6411   -2.2306   -0.3786 H   0  0  0  0  0  0  0  0  0  0  0  0
   -2.1488   -1.4218    0.3273 H   0  0  0  0  0  0  0  0  0  0  0  0
   -1.3219   -1.3741   -1.2256 H   0  0  0  0  0  0  0  0  0  0  0  0
    2.9698    3.0679    2.6419 H   0  0  0  0  0  0  0  0  0  0  0  0
   -1.6030    1.5753    2.1140 H   0  0  0  0  0  0  0  0  0  0  0  0
   -1.0140    3.9262    1.4563 H   0  0  0  0  0  0  0  0  0  0  0  0
    1.3076    4.6887    1.7062 H   0  0  0  0  0  0  0  0  0  0  0  0
   -0.5763    3.3817   -0.5057 H   0  0  0  0  0  0  0  0  0  0  0  0
   -2.9225    4.1120   -0.9264 H   0  0  0  0  0  0  0  0  0  0  0  0
   -5.1809    2.7962   -0.6254 H   0  0  0  0  0  0  0  0  0  0  0  0
   -4.2510    1.3156   -0.9048 H   0  0  0  0  0  0  0  0  0  0  0  0
   -3.2038    1.7448    1.4022 H   0  0  0  0  0  0  0  0  0  0  0  0
   -4.7081    4.1588    1.7195 H   0  0  0  0  0  0  0  0  0  0  0  0
   -3.4622    3.3408    2.7345 H   0  0  0  0  0  0  0  0  0  0  0  0
   -3.0155    4.0500    1.2013 H   0  0  0  0  0  0  0  0  0  0  0  0
   -5.0101    0.2700    1.0620 H   0  0  0  0  0  0  0  0  0  0  0  0
   -4.7441    0.9634    2.6440 H   0  0  0  0  0  0  0  0  0  0  0  0
   -6.0702    1.5982    1.6200 H   0  0  0  0  0  0  0  0  0  0  0  0
   -3.0007    3.7687   -3.4048 H   0  0  0  0  0  0  0  0  0  0  0  0
   -7.1909    3.4855   -4.4517 H   0  0  0  0  0  0  0  0  0  0  0  0
   -8.1550    4.1590   -7.2393 H   0  0  0  0  0  0  0  0  0  0  0  0
   -7.3366    4.3015   -9.5808 H   0  0  0  0  0  0  0  0  0  0  0  0
   -4.9918    3.7474  -10.1302 H   0  0  0  0  0  0  0  0  0  0  0  0
   -3.3980    3.0040   -8.3389 H   0  0  0  0  0  0  0  0  0  0  0  0
  1  2  1  0  0  0  0
  1  6  1  0  0  0  0
  1  7  2  0  0  0  0
  2  3  1  0  0  0  0
  2 38  1  6  0  0  0
  2 18  1  0  0  0  0
  3  4  1  0  0  0  0
  3 39  1  0  0  0  0
  3 40  1  0  0  0  0
  4  5  1  0  0  0  0
  4 41  1  0  0  0  0
  4 42  1  0  0  0  0
  5  8  1  0  0  0  0
  5 43  1  0  0  0  0
  5 44  1  0  0  0  0
  6  8  1  0  0  0  0
  6 45  1  0  0  0  0
  6 46  1  0  0  0  0
  8 15  1  0  0  0  0
  9 15  1  0  0  0  0
  9 14  1  0  0  0  0
  9 11  2  0  0  0  0
 10 14  2  0  0  0  0
 10 13  1  0  0  0  0
 10 47  1  0  0  0  0
 11 12  1  0  0  0  0
 11 48  1  0  0  0  0
 12 13  2  0  0  0  0
 12 49  1  0  0  0  0
 13 50  1  0  0  0  0
 15 17  2  0  0  0  0
 15 16  2  0  0  0  0
 18 19  1  0  0  0  0
 18 51  1  0  0  0  0
 19 21  1  0  0  0  0
 19 20  2  0  0  0  0
 21 26  1  0  0  0  0
 21 22  1  0  0  0  0
 21 52  1  1  0  0  0
 22 23  1  0  0  0  0
 22 53  1  0  0  0  0
 22 54  1  0  0  0  0
 23 24  1  0  0  0  0
 23 25  1  0  0  0  0
 23 55  1  0  0  0  0
 24 56  1  0  0  0  0
 24 57  1  0  0  0  0
 24 58  1  0  0  0  0
 25 59  1  0  0  0  0
 25 60  1  0  0  0  0
 25 61  1  0  0  0  0
 26 27  1  0  0  0  0
 26 62  1  0  0  0  0
 27 29  1  0  0  0  0
 27 28  2  0  0  0  0
 29 31  1  0  0  0  0
 29 30  2  0  0  0  0
 30 33  1  0  0  0  0
 30 63  1  0  0  0  0
 31 32  1  0  0  0  0
 32 37  1  0  0  0  0
 32 33  2  0  0  0  0
 33 34  1  0  0  0  0
 34 35  2  0  0  0  0
 34 64  1  0  0  0  0
 35 36  1  0  0  0  0
 35 65  1  0  0  0  0
 36 37  2  0  0  0  0
 36 66  1  0  0  0  0
 37 67  1  0  0  0  0
M  END
>  <DRUGBANK_ID>
DB03642

>  <SECONDARY_ACCESSION_NUMBERS>
EXPT00107

>  <COMMON_NAME>
N-[(2S)-4-Methyl-1-oxo-1-{[(4S)-3-oxo-1-(2-pyridinylsulfonyl)-4-azepanyl]amino}-2-pentanyl]-1-benzofuran-2-carboxamide

$$$$
