
 OpenBabel10282417113D

 54 57  0  0  0  0  0  0  0  0999 V2000
   -3.6976   -0.6597   -0.2028 C   0  0  0  0  0  0  0  0  0  0  0  0
   -7.3108    1.9984    0.1192 C   0  0  0  0  0  0  0  0  0  0  0  0
   -3.9223   -1.4013    1.7218 C   0  0  2  0  0  0  0  0  0  0  0  0
   -3.1019    1.4906    0.8909 C   0  0  0  0  0  0  0  0  0  0  0  0
   -2.8966   -1.5135    0.6859 C   0  0  0  0  0  0  0  0  0  0  0  0
   -5.6177    2.0967   -2.2143 C   0  0  2  0  0  0  0  0  0  0  0  0
   -3.6266    1.8670   -0.6666 C   0  0  1  0  0  0  0  0  0  0  0  0
   -7.9369    2.3359   -1.4830 C   0  0  0  0  0  0  0  0  0  0  0  0
   -6.8866    2.7046   -2.6938 C   0  0  0  0  0  0  0  0  0  0  0  0
   -4.6326    3.1462   -2.6719 C   0  0  0  0  0  0  0  0  0  0  0  0
   -6.7670    3.1434   -4.0514 C   0  0  0  0  0  0  0  0  0  0  0  0
   -4.1508    2.9471   -3.8890 C   0  0  0  0  0  0  0  0  0  0  0  0
   -5.9660    1.1402   -0.0688 C   0  0  2  0  0  0  0  0  0  0  0  0
   -6.4532    0.3268   -0.5976 H   0  0  0  0  0  0  0  0  0  0  0  0
   -5.1406    2.1631   -0.7565 C   0  0  1  0  0  0  0  0  0  0  0  0
   -5.3052    3.1529   -0.2853 H   0  0  0  0  0  0  0  0  0  0  0  0
   -3.8551    0.2533    1.7628 C   0  0  2  0  0  0  0  0  0  0  0  0
   -3.6562    0.5057    3.2461 C   0  0  0  0  0  0  0  0  0  0  0  0
   -4.9925    0.2433    0.7654 C   0  0  1  0  0  0  0  0  0  0  0  0
   -5.2755    0.9108    1.5957 H   0  0  0  0  0  0  0  0  0  0  0  0
   -4.9568    4.7623   -5.1504 O   0  0  0  0  0  0  0  0  0  0  0  0
   -5.2390    3.7140   -4.4805 C   0  0  0  0  0  0  0  0  0  0  0  0
   -5.9530    0.5794   -2.7468 C   0  0  0  0  0  0  0  0  0  0  0  0
   -3.3997   -2.3782    2.6050 O   0  0  0  0  0  0  0  0  0  0  0  0
   -5.4360   -2.0513    1.5693 C   0  0  0  0  0  0  0  0  0  0  0  0
   -3.5202    0.9042   -1.7460 O   0  0  0  0  0  0  0  0  0  0  0  0
   -5.5597   -3.2350    1.2211 O   0  0  0  0  0  0  0  0  0  0  0  0
   -6.7442   -1.2523    1.9536 C   0  0  0  0  0  0  0  0  0  0  0  0
   -6.7120   -0.3300    3.0182 O   0  0  0  0  0  0  0  0  0  0  0  0
   -4.0219   -1.1941   -1.0957 H   0  0  0  0  0  0  0  0  0  0  0  0
   -2.7622   -0.1326   -0.4982 H   0  0  0  0  0  0  0  0  0  0  0  0
   -8.1087    1.4848    0.6809 H   0  0  0  0  0  0  0  0  0  0  0  0
   -7.1071    2.9007    0.7242 H   0  0  0  0  0  0  0  0  0  0  0  0
   -3.2591    2.4298    1.4486 H   0  0  0  0  0  0  0  0  0  0  0  0
   -2.0250    1.3167    0.8544 H   0  0  0  0  0  0  0  0  0  0  0  0
   -2.5051   -2.4548    0.3014 H   0  0  0  0  0  0  0  0  0  0  0  0
   -1.9670   -0.9965    1.0460 H   0  0  0  0  0  0  0  0  0  0  0  0
   -2.9226    2.6229   -1.0084 H   0  0  0  0  0  0  0  0  0  0  0  0
   -8.8676    2.9164   -1.4785 H   0  0  0  0  0  0  0  0  0  0  0  0
   -8.3132    1.3267   -1.6981 H   0  0  0  0  0  0  0  0  0  0  0  0
   -4.9060    4.1636   -2.3119 H   0  0  0  0  0  0  0  0  0  0  0  0
   -6.4961    2.3614   -4.8362 H   0  0  0  0  0  0  0  0  0  0  0  0
   -4.0709    1.9090   -4.2094 H   0  0  0  0  0  0  0  0  0  0  0  0
   -4.4637    0.1157    3.8636 H   0  0  0  0  0  0  0  0  0  0  0  0
   -2.7456   -0.0381    3.5475 H   0  0  0  0  0  0  0  0  0  0  0  0
   -3.4761    1.5499    3.4980 H   0  0  0  0  0  0  0  0  0  0  0  0
   -5.5019   -0.2242   -2.1652 H   0  0  0  0  0  0  0  0  0  0  0  0
   -7.0262    0.2986   -2.6552 H   0  0  0  0  0  0  0  0  0  0  0  0
   -5.7381    0.4074   -3.7955 H   0  0  0  0  0  0  0  0  0  0  0  0
   -3.5074   -3.1999    2.0450 H   0  0  0  0  0  0  0  0  0  0  0  0
   -3.1218    1.2389   -2.5492 H   0  0  0  0  0  0  0  0  0  0  0  0
   -7.1412   -0.7325    1.0757 H   0  0  0  0  0  0  0  0  0  0  0  0
   -7.5427   -1.9640    2.1717 H   0  0  0  0  0  0  0  0  0  0  0  0
   -6.4315   -0.8198    3.8094 H   0  0  0  0  0  0  0  0  0  0  0  0
  1 30  1  0  0  0  0
  1 31  1  0  0  0  0
  2  8  1  0  0  0  0
  2 32  1  0  0  0  0
  2 33  1  0  0  0  0
  3  5  1  0  0  0  0
  3 25  1  6  0  0  0
  3 24  1  0  0  0  0
  4  7  1  0  0  0  0
  4 34  1  0  0  0  0
  4 35  1  0  0  0  0
  5  1  1  0  0  0  0
  5 36  1  0  0  0  0
  5 37  1  0  0  0  0
  6  9  1  0  0  0  0
  6 10  1  0  0  0  0
  6 23  1  1  0  0  0
  7 26  1  0  0  0  0
  7 38  1  1  0  0  0
  8  9  1  0  0  0  0
  8 39  1  0  0  0  0
  8 40  1  0  0  0  0
  9 11  2  0  0  0  0
 10 12  2  0  0  0  0
 10 41  1  0  0  0  0
 11 22  1  0  0  0  0
 11 42  1  0  0  0  0
 12 22  1  0  0  0  0
 12 43  1  0  0  0  0
 13 15  1  0  0  0  0
 13  2  1  0  0  0  0
 13 14  1  1  0  0  0
 15  6  1  0  0  0  0
 15  7  1  0  0  0  0
 15 16  1  6  0  0  0
 17  3  1  0  0  0  0
 17  4  1  0  0  0  0
 17 18  1  1  0  0  0
 18 44  1  0  0  0  0
 18 45  1  0  0  0  0
 18 46  1  0  0  0  0
 19 13  1  0  0  0  0
 19 17  1  0  0  0  0
 19  1  1  0  0  0  0
 19 20  1  6  0  0  0
 22 21  2  0  0  0  0
 23 47  1  0  0  0  0
 23 48  1  0  0  0  0
 23 49  1  0  0  0  0
 24 50  1  0  0  0  0
 26 51  1  0  0  0  0
 27 25  2  0  0  0  0
 28 25  1  0  0  0  0
 28 52  1  0  0  0  0
 28 53  1  0  0  0  0
 29 28  1  0  0  0  0
 29 54  1  0  0  0  0
M  END
>  <DRUGBANK_ID>
DB00860

>  <SECONDARY_ACCESSION_NUMBERS>
APRD00197

>  <COMMON_NAME>
Prednisolone

>  <CAS_NUMBER>
50-24-8

>  <UNII>
9PHQ9Y1OLM

>  <SYNONYMS>
(11β)-11,17,21-trihydroxypregna-1,4-diene-3,20-dione; 1,4-pregnadiene-11β,17α,21-triol-3,20-dione; 1,4-pregnadiene-3,20-dione-11β,17α,21-triol; 3,20-dioxo-11β,17α,21-trihydroxy-1,4-pregnadiene; delta-dehydrocortisol; delta-dehydrohydrocortisone; delta-hydrocortisone; delta(1)-Dehydrocortisol; delta(1)-Dehydrohydrocortisone; delta(1)-Hydrocortisone; Hydroretrocortine; Metacortandralone; PRDL; Prednisolona; Prednisolone; Prednisolonum

$$$$
