
 OpenBabel10282417123D

 14 14  0  0  0  0  0  0  0  0999 V2000
   -1.5067    1.6516    0.1485 N   0  0  0  0  0  0  0  0  0  0  0  0
   -0.3926    0.8213   -0.0284 C   0  0  0  0  0  0  0  0  0  0  0  0
    0.9000    1.3567    0.0079 C   0  0  0  0  0  0  0  0  0  0  0  0
    2.0217    0.5184   -0.0066 C   0  0  0  0  0  0  0  0  0  0  0  0
    1.8676   -0.8673   -0.0221 C   0  0  0  0  0  0  0  0  0  0  0  0
    0.5866   -1.4178   -0.0206 C   0  0  0  0  0  0  0  0  0  0  0  0
   -0.5213   -0.5745   -0.0109 C   0  0  0  0  0  0  0  0  0  0  0  0
   -1.7488   -1.1240    0.0036 F   0  0  0  0  0  0  0  0  0  0  0  0
   -2.3901    1.2297   -0.1321 H   0  0  0  0  0  0  0  0  0  0  0  0
   -1.4015    2.6263   -0.1033 H   0  0  0  0  0  0  0  0  0  0  0  0
    1.0451    2.4323    0.0453 H   0  0  0  0  0  0  0  0  0  0  0  0
    3.0201    0.9519    0.0051 H   0  0  0  0  0  0  0  0  0  0  0  0
    2.7397   -1.5154   -0.0270 H   0  0  0  0  0  0  0  0  0  0  0  0
    0.4443   -2.4930   -0.0184 H   0  0  0  0  0  0  0  0  0  0  0  0
  1  2  1  0  0  0  0
  1  9  1  0  0  0  0
  1 10  1  0  0  0  0
  2  3  2  0  0  0  0
  2  7  1  0  0  0  0
  3  4  1  0  0  0  0
  3 11  1  0  0  0  0
  4  5  2  0  0  0  0
  4 12  1  0  0  0  0
  5  6  1  0  0  0  0
  5 13  1  0  0  0  0
  6  7  2  0  0  0  0
  6 14  1  0  0  0  0
  7  8  1  0  0  0  0
M  END
>  <DRUGBANK_ID>
DB02403

>  <SECONDARY_ACCESSION_NUMBERS>
EXPT00067

>  <COMMON_NAME>
2-Fluoroaniline

>  <CAS_NUMBER>
348-54-9

>  <UNII>
SE32ZK6617

$$$$
