
 OpenBabel10282417173D

 18 18  0  0  1  0  0  0  0  0999 V2000
   -0.1499   -1.2127    0.5613 C   0  0  0  0  0  0  0  0  0  0  0  0
    0.8002   -0.0319    0.5485 C   0  0  2  0  0  0  0  0  0  0  0  0
   -0.1443    1.1617    0.4794 C   0  0  0  0  0  0  0  0  0  0  0  0
   -1.3043    0.7163   -0.3157 N   0  0  0  0  0  0  0  0  0  0  0  0
   -1.2492   -0.7700   -0.3947 C   0  0  2  0  0  0  0  0  0  0  0  0
   -2.6029   -1.4094   -0.1102 C   0  0  0  0  0  0  0  0  0  0  0  0
   -3.2317   -2.1046   -0.8977 O   0  0  0  0  0  0  0  0  0  0  0  0
   -3.0972   -1.1630    1.1195 O   0  0  0  0  0  0  0  0  0  0  0  0
    1.6360   -0.0829   -0.6090 O   0  0  0  0  0  0  0  0  0  0  0  0
    0.3279   -2.1366    0.2203 H   0  0  0  0  0  0  0  0  0  0  0  0
   -0.5395   -1.3718    1.5735 H   0  0  0  0  0  0  0  0  0  0  0  0
    1.4487   -0.0079    1.4285 H   0  0  0  0  0  0  0  0  0  0  0  0
   -0.4922    1.4327    1.4825 H   0  0  0  0  0  0  0  0  0  0  0  0
    0.3246    2.0389    0.0221 H   0  0  0  0  0  0  0  0  0  0  0  0
   -1.2483    1.1015   -1.2580 H   0  0  0  0  0  0  0  0  0  0  0  0
   -0.9702   -1.0455   -1.4198 H   0  0  0  0  0  0  0  0  0  0  0  0
   -3.9708   -1.6066    1.1282 H   0  0  0  0  0  0  0  0  0  0  0  0
    1.0768    0.0528   -1.3930 H   0  0  0  0  0  0  0  0  0  0  0  0
  1  2  1  0  0  0  0
  1  5  1  0  0  0  0
  1 10  1  0  0  0  0
  1 11  1  0  0  0  0
  2  3  1  0  0  0  0
  2  9  1  0  0  0  0
  2 12  1  1  0  0  0
  3  4  1  0  0  0  0
  3 13  1  0  0  0  0
  3 14  1  0  0  0  0
  4  5  1  0  0  0  0
  4 15  1  0  0  0  0
  5  6  1  0  0  0  0
  5 16  1  6  0  0  0
  6  7  2  0  0  0  0
  6  8  1  0  0  0  0
  8 17  1  0  0  0  0
  9 18  1  0  0  0  0
M  END
>  <DRUGBANK_ID>
DB08847

>  <COMMON_NAME>
Hydroxyproline

>  <CAS_NUMBER>
51-35-4

>  <UNII>
RMB44WO89X

>  <SYNONYMS>
trans-4-Hydroxy-L-proline; trans-L-Hydroxyproline

$$$$
