
 OpenBabel10282417183D

 38 38  0  0  0  0  0  0  0  0999 V2000
   -1.3492   -0.0701    0.1682 C   0  0  0  0  0  0  0  0  0  0  0  0
   -0.7259    1.1870    0.2869 C   0  0  0  0  0  0  0  0  0  0  0  0
    0.6568    1.2846    0.3045 C   0  0  0  0  0  0  0  0  0  0  0  0
    1.4044    0.1248    0.3610 C   0  0  0  0  0  0  0  0  0  0  0  0
    0.7555   -1.1030    0.3854 C   0  0  0  0  0  0  0  0  0  0  0  0
   -0.5868   -1.2092    0.1930 N   0  3  0  0  0  0  0  0  0  0  0  0
    0.5006   -3.6500   -1.6066 C   0  0  0  0  0  0  0  0  0  0  0  0
   -0.7795   -3.1876   -1.4047 C   0  0  0  0  0  0  0  0  0  0  0  0
   -1.1845   -2.5634   -0.1042 C   0  0  0  0  0  0  0  0  0  0  0  0
    0.9442   -4.2288   -2.7238 N   0  0  0  0  0  0  0  0  0  0  0  0
    0.0974   -4.2322   -3.7650 C   0  0  0  0  0  0  0  0  0  0  0  0
   -1.2037   -3.9083   -3.6617 N   0  0  0  0  0  0  0  0  0  0  0  0
   -1.6352   -3.4068   -2.4828 C   0  0  0  0  0  0  0  0  0  0  0  0
   -2.8232   -0.1163   -0.1182 C   0  0  0  0  0  0  0  0  0  0  0  0
   -3.0190   -3.3432   -2.3469 N   0  0  0  0  0  0  0  0  0  0  0  0
    0.6791   -4.6803   -5.0841 C   0  0  0  0  0  0  0  0  0  0  0  0
    1.7635   -3.7399   -5.6418 C   0  0  0  0  0  0  0  0  0  0  0  0
    2.9952   -3.6076   -4.7496 C   0  0  0  0  0  0  0  0  0  0  0  0
    0.3152   -0.0945   -3.0608 Cl  0  5  0  0  0  0  0  0  0  0  0  0
   -1.3109    2.1014    0.2119 H   0  0  0  0  0  0  0  0  0  0  0  0
    1.1434    2.2450    0.1462 H   0  0  0  0  0  0  0  0  0  0  0  0
    2.4856    0.1660    0.2487 H   0  0  0  0  0  0  0  0  0  0  0  0
    1.3388   -2.0109    0.4635 H   0  0  0  0  0  0  0  0  0  0  0  0
    1.2771   -3.5852   -0.8521 H   0  0  0  0  0  0  0  0  0  0  0  0
   -0.9230   -3.2191    0.7354 H   0  0  0  0  0  0  0  0  0  0  0  0
   -2.2682   -2.4701   -0.0492 H   0  0  0  0  0  0  0  0  0  0  0  0
   -2.9889   -0.5501   -1.1078 H   0  0  0  0  0  0  0  0  0  0  0  0
   -3.3508   -0.7045    0.6388 H   0  0  0  0  0  0  0  0  0  0  0  0
   -3.2702    0.8827   -0.1268 H   0  0  0  0  0  0  0  0  0  0  0  0
   -3.4198   -3.3763   -3.2873 H   0  0  0  0  0  0  0  0  0  0  0  0
   -3.4253   -2.6067   -1.7955 H   0  0  0  0  0  0  0  0  0  0  0  0
    1.1065   -5.6825   -4.9527 H   0  0  0  0  0  0  0  0  0  0  0  0
   -0.1229   -4.7755   -5.8260 H   0  0  0  0  0  0  0  0  0  0  0  0
    2.0953   -4.1269   -6.6142 H   0  0  0  0  0  0  0  0  0  0  0  0
    1.3416   -2.7451   -5.8244 H   0  0  0  0  0  0  0  0  0  0  0  0
    3.4378   -4.5881   -4.5462 H   0  0  0  0  0  0  0  0  0  0  0  0
    3.7533   -2.9774   -5.2232 H   0  0  0  0  0  0  0  0  0  0  0  0
    2.7579   -3.1296   -3.7965 H   0  0  0  0  0  0  0  0  0  0  0  0
  1  2  2  0  0  0  0
  1  6  1  0  0  0  0
  1 14  1  0  0  0  0
  2  3  1  0  0  0  0
  2 20  1  0  0  0  0
  3  4  2  0  0  0  0
  3 21  1  0  0  0  0
  4  5  1  0  0  0  0
  4 22  1  0  0  0  0
  5  6  2  0  0  0  0
  5 23  1  0  0  0  0
  6  9  1  0  0  0  0
  7  8  2  0  0  0  0
  7 10  1  0  0  0  0
  7 24  1  0  0  0  0
  8  9  1  0  0  0  0
  8 13  1  0  0  0  0
  9 25  1  0  0  0  0
  9 26  1  0  0  0  0
 10 11  2  0  0  0  0
 11 12  1  0  0  0  0
 11 16  1  0  0  0  0
 12 13  2  0  0  0  0
 13 15  1  0  0  0  0
 14 27  1  0  0  0  0
 14 28  1  0  0  0  0
 14 29  1  0  0  0  0
 15 30  1  0  0  0  0
 15 31  1  0  0  0  0
 16 17  1  0  0  0  0
 16 32  1  0  0  0  0
 16 33  1  0  0  0  0
 17 18  1  0  0  0  0
 17 34  1  0  0  0  0
 17 35  1  0  0  0  0
 18 36  1  0  0  0  0
 18 37  1  0  0  0  0
 18 38  1  0  0  0  0
M  CHG  2   6   1  19  -1
M  END
>  <DRUGBANK_ID>
DB11374

>  <COMMON_NAME>
Amprolium

>  <CAS_NUMBER>
121-25-5

>  <UNII>
71M75T660B

>  <SYNONYMS>
1-((4-amino-2-Propyl-5-pyrimidinyl)methyl)-2-picolinium chloride; Amprolio; Amprolium

$$$$
