
 OpenBabel10282417233D

 42 42  0  0  0  0  0  0  0  0999 V2000
    1.0664   -0.2312   -0.0217 C   0  0  0  0  0  0  0  0  0  0  0  0
    0.5699    0.1664    1.3877 C   0  0  0  0  0  0  0  0  0  0  0  0
    1.2376    1.3019    2.2274 C   0  0  0  0  0  0  0  0  0  0  0  0
   -0.9362    0.2624    1.3241 C   0  0  0  0  0  0  0  0  0  0  0  0
   -1.6600   -0.9497    1.3747 C   0  0  0  0  0  0  0  0  0  0  0  0
   -3.0456   -0.9680    1.4585 C   0  0  0  0  0  0  0  0  0  0  0  0
   -3.7284    0.2344    1.5498 C   0  0  0  0  0  0  0  0  0  0  0  0
   -3.0319    1.4635    1.5282 C   0  0  0  0  0  0  0  0  0  0  0  0
   -3.8254    2.6805    1.9692 C   0  0  0  0  0  0  0  0  0  0  0  0
   -3.2182    3.2542    3.2524 C   0  0  0  0  0  0  0  0  0  0  0  0
   -3.8703    3.7311    0.8894 C   0  0  0  0  0  0  0  0  0  0  0  0
   -1.6368    1.4707    1.2586 C   0  0  0  0  0  0  0  0  0  0  0  0
   -0.9444    2.7263    1.0281 O   0  0  0  0  0  0  0  0  0  0  0  0
    0.1915    2.9579    0.2169 C   0  0  0  0  0  0  0  0  0  0  0  0
    0.7841    2.1906   -0.5301 O   0  0  0  0  0  0  0  0  0  0  0  0
    0.7876    4.3173    0.2984 C   0  0  0  0  0  0  0  0  0  0  0  0
    0.3315    4.9539   -0.9939 C   0  0  0  0  0  0  0  0  0  0  0  0
   -1.1541    5.0952   -0.9915 C   0  0  0  0  0  0  0  0  0  0  0  0
   -1.6140    6.3252   -0.7477 O   0  0  0  0  0  0  0  0  0  0  0  0
   -1.9049    4.1316   -1.1751 O   0  0  0  0  0  0  0  0  0  0  0  0
    0.5652    0.2702   -0.8581 H   0  0  0  0  0  0  0  0  0  0  0  0
    0.7883   -1.2650   -0.2525 H   0  0  0  0  0  0  0  0  0  0  0  0
    2.1461   -0.1160   -0.1218 H   0  0  0  0  0  0  0  0  0  0  0  0
    0.8113   -0.7082    2.0040 H   0  0  0  0  0  0  0  0  0  0  0  0
    1.0098    2.3431    2.0340 H   0  0  0  0  0  0  0  0  0  0  0  0
    0.8835    1.2525    3.2653 H   0  0  0  0  0  0  0  0  0  0  0  0
    2.3243    1.2720    2.1689 H   0  0  0  0  0  0  0  0  0  0  0  0
   -1.1271   -1.8981    1.3483 H   0  0  0  0  0  0  0  0  0  0  0  0
   -3.5808   -1.9123    1.5116 H   0  0  0  0  0  0  0  0  0  0  0  0
   -4.8114    0.2103    1.6670 H   0  0  0  0  0  0  0  0  0  0  0  0
   -4.8631    2.3919    2.1950 H   0  0  0  0  0  0  0  0  0  0  0  0
   -2.1667    3.5274    3.1147 H   0  0  0  0  0  0  0  0  0  0  0  0
   -3.7516    4.1563    3.5650 H   0  0  0  0  0  0  0  0  0  0  0  0
   -3.2604    2.5241    4.0681 H   0  0  0  0  0  0  0  0  0  0  0  0
   -4.1940    3.3079   -0.0677 H   0  0  0  0  0  0  0  0  0  0  0  0
   -4.5163    4.5724    1.1475 H   0  0  0  0  0  0  0  0  0  0  0  0
   -2.8729    4.1449    0.8005 H   0  0  0  0  0  0  0  0  0  0  0  0
    0.5942    4.8310    1.2408 H   0  0  0  0  0  0  0  0  0  0  0  0
    1.8830    4.1687    0.2548 H   0  0  0  0  0  0  0  0  0  0  0  0
    0.8505    5.8879   -1.1985 H   0  0  0  0  0  0  0  0  0  0  0  0
    0.5508    4.2854   -1.8411 H   0  0  0  0  0  0  0  0  0  0  0  0
   -0.9321    7.0161   -0.8363 H   0  0  0  0  0  0  0  0  0  0  0  0
  1  2  1  0  0  0  0
  1 21  1  0  0  0  0
  1 22  1  0  0  0  0
  1 23  1  0  0  0  0
  2  3  1  0  0  0  0
  2  4  1  0  0  0  0
  2 24  1  0  0  0  0
  3 25  1  0  0  0  0
  3 26  1  0  0  0  0
  3 27  1  0  0  0  0
  4  5  2  0  0  0  0
  4 12  1  0  0  0  0
  5  6  1  0  0  0  0
  5 28  1  0  0  0  0
  6  7  2  0  0  0  0
  6 29  1  0  0  0  0
  7  8  1  0  0  0  0
  7 30  1  0  0  0  0
  8  9  1  0  0  0  0
  8 12  2  0  0  0  0
  9 10  1  0  0  0  0
  9 11  1  0  0  0  0
  9 31  1  0  0  0  0
 10 32  1  0  0  0  0
 10 33  1  0  0  0  0
 10 34  1  0  0  0  0
 11 35  1  0  0  0  0
 11 36  1  0  0  0  0
 11 37  1  0  0  0  0
 12 13  1  0  0  0  0
 13 14  1  0  0  0  0
 14 15  2  0  0  0  0
 14 16  1  0  0  0  0
 16 17  1  0  0  0  0
 16 38  1  0  0  0  0
 16 39  1  0  0  0  0
 17 18  1  0  0  0  0
 17 40  1  0  0  0  0
 17 41  1  0  0  0  0
 18 19  1  0  0  0  0
 18 20  2  0  0  0  0
 19 42  1  0  0  0  0
M  END
>  <DRUGBANK_ID>
DB16947

>  <COMMON_NAME>
Propofol Hemisuccinate

>  <CAS_NUMBER>
184869-48-5

>  <UNII>
OIC0UYZ1W6

>  <SYNONYMS>
Butanedioic acid, 1-(2,6-bis(1-methylethyl)phenyl) ester; Succinic acid monopropofol ester

$$$$
