
 OpenBabel10282417123D

 83 86  0  0  1  0  0  0  0  0999 V2000
   -2.9241    3.3620    3.8226 C   0  0  0  0  0  0  0  0  0  0  0  0
   -2.9436    3.5692    2.3309 C   0  0  0  0  0  0  0  0  0  0  0  0
   -1.6091    6.7371   -5.0628 C   0  0  0  0  0  0  0  0  0  0  0  0
    1.6135    2.1862   -4.5591 C   0  0  0  0  0  0  0  0  0  0  0  0
   -2.3302    5.9699   -4.1601 C   0  0  0  0  0  0  0  0  0  0  0  0
   -0.2438    6.5361   -5.1597 C   0  0  0  0  0  0  0  0  0  0  0  0
    2.2797    3.0409   -3.6891 C   0  0  0  0  0  0  0  0  0  0  0  0
    1.0355    1.0256   -4.0539 C   0  0  0  0  0  0  0  0  0  0  0  0
   -1.9490    4.6423    1.9611 C   0  0  0  0  0  0  0  0  0  0  0  0
   -1.6771    5.1207   -3.2658 C   0  0  0  0  0  0  0  0  0  0  0  0
    0.4142    5.7091   -4.2379 C   0  0  0  0  0  0  0  0  0  0  0  0
    2.3597    2.7452   -2.3182 C   0  0  0  0  0  0  0  0  0  0  0  0
    0.9837    0.7996   -2.6675 C   0  0  0  0  0  0  0  0  0  0  0  0
    0.6912   10.0813   -1.8398 C   0  0  0  0  0  0  0  0  0  0  0  0
    1.7031    8.2328   -3.2231 C   0  0  0  0  0  0  0  0  0  0  0  0
    0.0537    2.9563    1.6081 C   0  0  0  0  0  0  0  0  0  0  0  0
    0.2395    9.1585   -0.7681 C   0  0  0  0  0  0  0  0  0  0  0  0
    1.3727    7.4661   -2.0118 C   0  0  0  0  0  0  0  0  0  0  0  0
    2.0624   11.8090   -3.8506 C   0  0  0  0  0  0  0  0  0  0  0  0
    0.8167   10.2245   -5.1064 C   0  0  0  0  0  0  0  0  0  0  0  0
    0.7390   12.4624   -3.4112 C   0  0  0  0  0  0  0  0  0  0  0  0
   -0.5273   10.7996   -4.6678 C   0  0  0  0  0  0  0  0  0  0  0  0
    1.1436    2.8494    0.8042 C   0  0  0  0  0  0  0  0  0  0  0  0
    0.3449    4.7301   -1.8091 C   0  0  0  0  0  0  0  0  0  0  0  0
   -0.2884    5.1332   -3.1650 C   0  0  0  0  0  0  0  0  0  0  0  0
   -0.4767    4.2373    2.2696 C   0  0  1  0  0  0  0  0  0  0  0  0
    1.8038    9.6593   -2.8365 C   0  0  3  0  0  0  0  0  0  0  0  0
    1.6385    1.6711   -1.7867 C   0  0  0  0  0  0  0  0  0  0  0  0
   -0.2896    5.2046   -0.4905 C   0  0  1  0  0  0  0  0  0  0  0  0
    0.5181    5.6946    0.7592 C   0  0  0  0  0  0  0  0  0  0  0  0
   -1.1212    7.2443   -1.1913 C   0  0  0  0  0  0  0  0  0  0  0  0
    0.4178    5.3299    1.9765 N   0  0  0  0  0  0  0  0  0  0  0  0
   -1.3801    6.1088   -0.7177 N   0  0  0  0  0  0  0  0  0  0  0  0
    1.9175   10.3843   -4.1160 N   0  0  0  0  0  0  0  0  0  0  0  0
    0.0775    7.8935   -1.4184 N   0  0  0  0  0  0  0  0  0  0  0  0
    1.4331    6.6338    0.5958 O   0  0  0  0  0  0  0  0  0  0  0  0
   -2.2423    7.9508   -1.4333 O   0  0  0  0  0  0  0  0  0  0  0  0
    2.9888    1.1164    0.3483 O   0  0  0  0  0  0  0  0  0  0  0  0
    0.5694    0.3894    0.2295 O   0  0  0  0  0  0  0  0  0  0  0  0
   -0.3932   12.1664   -4.2470 O   0  0  0  0  0  0  0  0  0  0  0  0
    1.5847    1.3706   -0.0013 S   0  0  0  0  0  0  0  0  0  0  0  0
   -0.3903    4.1210    3.3537 H   0  0  0  0  0  0  0  0  0  0  0  0
   -0.7553    4.2676   -0.2068 H   0  0  0  0  0  0  0  0  0  0  0  0
   -1.9338    3.0575    4.1712 H   0  0  0  0  0  0  0  0  0  0  0  0
   -3.6257    2.5790    4.1004 H   0  0  0  0  0  0  0  0  0  0  0  0
   -3.1871    4.2968    4.3271 H   0  0  0  0  0  0  0  0  0  0  0  0
   -2.7041    2.6458    1.7930 H   0  0  0  0  0  0  0  0  0  0  0  0
   -3.9407    3.8708    1.9901 H   0  0  0  0  0  0  0  0  0  0  0  0
   -2.1016    7.4882   -5.6725 H   0  0  0  0  0  0  0  0  0  0  0  0
    1.5442    2.4259   -5.6196 H   0  0  0  0  0  0  0  0  0  0  0  0
   -3.4037    6.0912   -4.0706 H   0  0  0  0  0  0  0  0  0  0  0  0
    0.3458    7.1511   -5.8374 H   0  0  0  0  0  0  0  0  0  0  0  0
    2.6873    3.9721   -4.0742 H   0  0  0  0  0  0  0  0  0  0  0  0
    0.6196    0.2973   -4.7467 H   0  0  0  0  0  0  0  0  0  0  0  0
   -2.1621    4.8014    0.9122 H   0  0  0  0  0  0  0  0  0  0  0  0
   -2.1965    5.6092    2.4244 H   0  0  0  0  0  0  0  0  0  0  0  0
   -2.2607    4.6158   -2.5001 H   0  0  0  0  0  0  0  0  0  0  0  0
    1.5022    5.7397   -4.2677 H   0  0  0  0  0  0  0  0  0  0  0  0
    2.8689    3.4455   -1.6614 H   0  0  0  0  0  0  0  0  0  0  0  0
    0.4419   -0.0659   -2.2965 H   0  0  0  0  0  0  0  0  0  0  0  0
    1.0019   10.9555   -1.2847 H   0  0  0  0  0  0  0  0  0  0  0  0
   -0.2368   10.2324   -2.3655 H   0  0  0  0  0  0  0  0  0  0  0  0
    0.8801    8.1147   -3.8996 H   0  0  0  0  0  0  0  0  0  0  0  0
    2.6154    7.8400   -3.6975 H   0  0  0  0  0  0  0  0  0  0  0  0
   -0.5567    2.0809    1.7982 H   0  0  0  0  0  0  0  0  0  0  0  0
    0.9746    9.1101    0.0358 H   0  0  0  0  0  0  0  0  0  0  0  0
   -0.7004    9.5119   -0.3258 H   0  0  0  0  0  0  0  0  0  0  0  0
    1.4388    6.4744   -2.3379 H   0  0  0  0  0  0  0  0  0  0  0  0
    2.2302    7.5612   -1.3372 H   0  0  0  0  0  0  0  0  0  0  0  0
    2.4113   12.2762   -4.7756 H   0  0  0  0  0  0  0  0  0  0  0  0
    2.8662   11.9485   -3.1155 H   0  0  0  0  0  0  0  0  0  0  0  0
    1.1131   10.7393   -6.0273 H   0  0  0  0  0  0  0  0  0  0  0  0
    0.6914    9.1961   -5.4449 H   0  0  0  0  0  0  0  0  0  0  0  0
    0.4478   12.2424   -2.3916 H   0  0  0  0  0  0  0  0  0  0  0  0
    0.8886   13.5389   -3.3580 H   0  0  0  0  0  0  0  0  0  0  0  0
   -1.2396   10.7799   -5.4974 H   0  0  0  0  0  0  0  0  0  0  0  0
   -1.0365   10.1635   -3.9347 H   0  0  0  0  0  0  0  0  0  0  0  0
    1.8202    3.6748    0.6405 H   0  0  0  0  0  0  0  0  0  0  0  0
    1.4179    4.9071   -1.6957 H   0  0  0  0  0  0  0  0  0  0  0  0
    0.2292    3.6571   -1.8050 H   0  0  0  0  0  0  0  0  0  0  0  0
    2.7565    9.7483   -2.2920 H   0  0  0  0  0  0  0  0  0  0  0  0
    1.0434    7.2307   -0.0381 H   0  0  0  0  0  0  0  0  0  0  0  0
   -2.1114    8.7026   -2.0148 H   0  0  0  0  0  0  0  0  0  0  0  0
  1 44  1  0  0  0  0
  1 45  1  0  0  0  0
  1 46  1  0  0  0  0
  2  1  1  0  0  0  0
  2 47  1  0  0  0  0
  2 48  1  0  0  0  0
  3 49  1  0  0  0  0
  4 50  1  0  0  0  0
  5  3  2  0  0  0  0
  5 51  1  0  0  0  0
  6  3  1  0  0  0  0
  6 52  1  0  0  0  0
  7  4  2  0  0  0  0
  7 53  1  0  0  0  0
  8  4  1  0  0  0  0
  8 54  1  0  0  0  0
  9  2  1  0  0  0  0
  9 55  1  0  0  0  0
  9 56  1  0  0  0  0
 10  5  1  0  0  0  0
 10 57  1  0  0  0  0
 11  6  2  0  0  0  0
 11 58  1  0  0  0  0
 12  7  1  0  0  0  0
 12 59  1  0  0  0  0
 13  8  2  0  0  0  0
 13 60  1  0  0  0  0
 14 61  1  0  0  0  0
 14 62  1  0  0  0  0
 15 63  1  0  0  0  0
 15 64  1  0  0  0  0
 16 65  1  0  0  0  0
 17 14  1  0  0  0  0
 17 66  1  0  0  0  0
 17 67  1  0  0  0  0
 18 15  1  0  0  0  0
 18 68  1  0  0  0  0
 18 69  1  0  0  0  0
 19 70  1  0  0  0  0
 19 71  1  0  0  0  0
 20 72  1  0  0  0  0
 20 73  1  0  0  0  0
 21 19  1  0  0  0  0
 21 74  1  0  0  0  0
 21 75  1  0  0  0  0
 22 20  1  0  0  0  0
 22 76  1  0  0  0  0
 22 77  1  0  0  0  0
 23 16  2  3  0  0  0
 23 41  1  0  0  0  0
 23 78  1  0  0  0  0
 24 79  1  0  0  0  0
 24 80  1  0  0  0  0
 25 10  2  0  0  0  0
 25 11  1  0  0  0  0
 25 24  1  0  0  0  0
 26  9  1  0  0  0  0
 26 16  1  0  0  0  0
 26 32  1  0  0  0  0
 26 42  1  1  0  0  0
 27 14  1  0  0  0  0
 27 15  1  0  0  0  0
 27 81  1  0  0  0  0
 28 12  2  0  0  0  0
 28 13  1  0  0  0  0
 29 33  1  0  0  0  0
 29 43  1  1  0  0  0
 29 30  1  0  0  0  0
 29 24  1  0  0  0  0
 30 36  1  0  0  0  0
 31 37  1  0  0  0  0
 32 30  2  3  0  0  0
 33 31  2  3  0  0  0
 34 19  1  0  0  0  0
 34 20  1  0  0  0  0
 34 27  1  0  0  0  0
 35 17  1  0  0  0  0
 35 18  1  0  0  0  0
 35 31  1  0  0  0  0
 36 82  1  0  0  0  0
 37 83  1  0  0  0  0
 40 21  1  0  0  0  0
 40 22  1  0  0  0  0
 41 28  1  0  0  0  0
 41 38  2  0  0  0  0
 41 39  2  0  0  0  0
M  END
>  <DRUGBANK_ID>
DB02243

>  <SECONDARY_ACCESSION_NUMBERS>
EXPT02269

>  <COMMON_NAME>
4-Morpholin-4-Yl-Piperidine-1-Carboxylic Acid [1-(3-Benzenesulfonyl-1-Propyl-Allylcarbamoyl)-2-Phenylethyl]-Amide

$$$$
