
 OpenBabel10282417123D

 44 44  0  0  0  0  0  0  0  0999 V2000
    0.5994    1.2686   -0.1881 O   0  0  0  0  0  0  0  0  0  0  0  0
    0.5703    0.2249    2.5449 O   0  0  0  0  0  0  0  0  0  0  0  0
   -1.4005    3.6722    0.0781 O   0  0  0  0  0  0  0  0  0  0  0  0
   -2.5941    2.2328   -1.1420 O   0  0  0  0  0  0  0  0  0  0  0  0
    1.2980   -2.3808   -3.6241 O   0  0  0  0  0  0  0  0  0  0  0  0
    0.8295   -1.3713   -1.6685 N   0  0  0  0  0  0  0  0  0  0  0  0
   -1.0642   -1.5244    1.5967 N   0  0  0  0  0  0  0  0  0  0  0  0
    2.8068    0.0015    2.3974 N   0  0  0  0  0  0  0  0  0  0  0  0
    0.7026   -1.2324   -0.1922 C   0  0  2  0  0  0  0  0  0  0  0  0
   -0.7940   -1.3034    0.2007 C   0  0  2  0  0  0  0  0  0  0  0  0
    1.3470    0.1060    0.2681 C   0  0  2  0  0  0  0  0  0  0  0  0
   -1.4681   -0.0154   -0.2483 C   0  0  0  0  0  0  0  0  0  0  0  0
   -0.7759    1.2808    0.2027 C   0  0  2  0  0  0  0  0  0  0  0  0
    1.5556    0.0996    1.8090 C   0  0  0  0  0  0  0  0  0  0  0  0
   -1.6583    2.4243   -0.3723 C   0  0  0  0  0  0  0  0  0  0  0  0
    1.3342   -2.4098   -2.3912 C   0  0  0  0  0  0  0  0  0  0  0  0
    4.0930    0.0015    1.6980 C   0  0  0  0  0  0  0  0  0  0  0  0
    2.8386    0.0074    3.8745 C   0  0  0  0  0  0  0  0  0  0  0  0
    1.9490   -3.5514   -1.6404 C   0  0  0  0  0  0  0  0  0  0  0  0
    4.8905    1.2612    1.9947 C   0  0  0  0  0  0  0  0  0  0  0  0
    2.2228    1.2649    4.4973 C   0  0  0  0  0  0  0  0  0  0  0  0
   -0.6532    3.7686    0.6941 H   0  0  0  0  0  0  0  0  0  0  0  0
    0.4239   -0.6444   -2.2527 H   0  0  0  0  0  0  0  0  0  0  0  0
   -0.9095   -2.4140    2.0432 H   0  0  0  0  0  0  0  0  0  0  0  0
   -1.4945   -0.7913    2.1502 H   0  0  0  0  0  0  0  0  0  0  0  0
    1.2289   -2.0753    0.2672 H   0  0  0  0  0  0  0  0  0  0  0  0
   -1.2724   -2.1375   -0.3240 H   0  0  0  0  0  0  0  0  0  0  0  0
    2.3065    0.1828   -0.2430 H   0  0  0  0  0  0  0  0  0  0  0  0
   -1.4819   -0.0235   -1.3459 H   0  0  0  0  0  0  0  0  0  0  0  0
   -2.5147   -0.0107    0.0753 H   0  0  0  0  0  0  0  0  0  0  0  0
   -0.8395    1.4050    1.2869 H   0  0  0  0  0  0  0  0  0  0  0  0
    4.6472   -0.8935    2.0035 H   0  0  0  0  0  0  0  0  0  0  0  0
    3.9642   -0.0740    0.6200 H   0  0  0  0  0  0  0  0  0  0  0  0
    2.3055   -0.8837    4.2277 H   0  0  0  0  0  0  0  0  0  0  0  0
    3.8742   -0.0885    4.2191 H   0  0  0  0  0  0  0  0  0  0  0  0
    2.7746   -3.1812   -1.0265 H   0  0  0  0  0  0  0  0  0  0  0  0
    1.1927   -4.0343   -1.0166 H   0  0  0  0  0  0  0  0  0  0  0  0
    2.3457   -4.2890   -2.3436 H   0  0  0  0  0  0  0  0  0  0  0  0
    5.1654    1.3202    3.0524 H   0  0  0  0  0  0  0  0  0  0  0  0
    5.8135    1.2746    1.4094 H   0  0  0  0  0  0  0  0  0  0  0  0
    4.3064    2.1548    1.7523 H   0  0  0  0  0  0  0  0  0  0  0  0
    1.1519    1.3648    4.2988 H   0  0  0  0  0  0  0  0  0  0  0  0
    2.3161    1.2421    5.5855 H   0  0  0  0  0  0  0  0  0  0  0  0
    2.7005    2.1686    4.1095 H   0  0  0  0  0  0  0  0  0  0  0  0
  1 11  1  0  0  0  0
  1 13  1  0  0  0  0
  2 14  2  0  0  0  0
  3 15  1  0  0  0  0
  3 22  1  0  0  0  0
  4 15  2  0  0  0  0
  5 16  2  0  0  0  0
  6 16  1  0  0  0  0
  6 23  1  0  0  0  0
  7 24  1  0  0  0  0
  7 25  1  0  0  0  0
  8 14  1  0  0  0  0
  8 17  1  0  0  0  0
  8 18  1  0  0  0  0
  9  6  1  0  0  0  0
  9 10  1  0  0  0  0
  9 11  1  0  0  0  0
  9 26  1  1  0  0  0
 10 12  1  0  0  0  0
 10 27  1  6  0  0  0
 10  7  1  0  0  0  0
 11 28  1  6  0  0  0
 11 14  1  0  0  0  0
 12 13  1  0  0  0  0
 12 29  1  0  0  0  0
 12 30  1  0  0  0  0
 13 31  1  1  0  0  0
 13 15  1  0  0  0  0
 16 19  1  0  0  0  0
 17 20  1  0  0  0  0
 17 32  1  0  0  0  0
 17 33  1  0  0  0  0
 18 21  1  0  0  0  0
 18 34  1  0  0  0  0
 18 35  1  0  0  0  0
 19 36  1  0  0  0  0
 19 37  1  0  0  0  0
 19 38  1  0  0  0  0
 20 39  1  0  0  0  0
 20 40  1  0  0  0  0
 20 41  1  0  0  0  0
 21 42  1  0  0  0  0
 21 43  1  0  0  0  0
 21 44  1  0  0  0  0
M  END
>  <DRUGBANK_ID>
DB02529

>  <SECONDARY_ACCESSION_NUMBERS>
EXPT01524

>  <COMMON_NAME>
(2R,4S,5R,6R)-5-Acetamido-4-amino-6-(diethylcarbamoyl)oxane-2-carboxylic acid

$$$$
