
 OpenBabel10282417133D

 83 87  0  0  0  0  0  0  0  0999 V2000
    5.2865    4.3880   -0.5391 P   0  0  1  0  0  0  0  0  0  0  0  0
   -1.1403    3.7180    0.6631 P   0  0  1  0  0  0  0  0  0  0  0  0
    4.1446    5.7343   -2.6554 P   0  0  1  0  0  0  0  0  0  0  0  0
    1.1055    5.9055    0.2647 P   0  0  1  0  0  0  0  0  0  0  0  0
    3.3405    4.2938   -0.3579 P   0  0  2  0  0  0  0  0  0  0  0  0
    1.3312    6.5061   -1.5966 O   0  0  0  0  0  0  0  0  0  0  0  0
   -1.7376    5.7316    4.3658 O   0  0  0  0  0  0  0  0  0  0  0  0
    2.1418    9.3988    0.4657 O   0  0  0  0  0  0  0  0  0  0  0  0
    3.5957    8.3240   -1.3870 O   0  0  0  0  0  0  0  0  0  0  0  0
    0.4893    7.7108    3.2663 O   0  0  0  0  0  0  0  0  0  0  0  0
    1.9503    5.4593    3.8888 O   0  0  0  0  0  0  0  0  0  0  0  0
    4.4166    3.8064    1.2200 O   0  0  0  0  0  0  0  0  0  0  0  0
   -2.7240    4.3760    0.8911 O   0  0  0  0  0  0  0  0  0  0  0  0
   -0.1215    2.0833    2.9980 O   0  0  0  0  0  0  0  0  0  0  0  0
    4.7670    4.1925   -2.1777 O   0  0  0  0  0  0  0  0  0  0  0  0
   -0.4818    5.3172    0.6214 O   0  0  0  0  0  0  0  0  0  0  0  0
    5.1176    6.1031   -0.6902 O   0  0  0  0  0  0  0  0  0  0  0  0
   -1.6692    2.4407    1.4022 O   0  0  0  0  0  0  0  0  0  0  0  0
    5.4376    2.8530   -0.4039 O   0  0  0  0  0  0  0  0  0  0  0  0
    0.2770    3.1291    0.4591 O   0  0  0  0  0  0  0  0  0  0  0  0
   -1.1747   -0.3588    6.3709 O   0  0  0  0  0  0  0  0  0  0  0  0
    3.7198    5.5357   -1.3594 O   0  0  0  0  0  0  0  0  0  0  0  0
    1.6594    4.2807    0.0500 O   0  0  0  0  0  0  0  0  0  0  0  0
    5.7406    6.2708   -2.7494 O   0  0  0  0  0  0  0  0  0  0  0  0
   -0.3302    6.0575   -1.2276 O   0  0  0  0  0  0  0  0  0  0  0  0
    3.5875    7.1142   -3.0830 O   0  0  0  0  0  0  0  0  0  0  0  0
    2.5261    6.4320   -0.0546 O   0  0  0  0  0  0  0  0  0  0  0  0
    3.4184    5.3779    1.5089 O   0  0  0  0  0  0  0  0  0  0  0  0
    4.8452    4.3055   -0.7230 O   0  0  0  0  0  0  0  0  0  0  0  0
   -0.8021    6.9881    1.1039 N   0  0  0  0  0  0  0  0  0  0  0  0
   -0.2475    3.3586    5.0861 N   0  0  0  0  0  0  0  0  0  0  0  0
   -3.2552    7.4743    1.8506 N   0  0  0  0  0  0  0  0  0  0  0  0
   -0.6079    0.9989    4.6786 N   0  0  0  0  0  0  0  0  0  0  0  0
   -1.2441    4.1349    2.8935 N   0  0  0  0  0  0  0  0  0  0  0  0
   -3.5095    3.3752    3.1965 N   0  0  0  0  0  0  0  0  0  0  0  0
   -4.9984    4.4420    1.7619 N   0  0  0  0  0  0  0  0  0  0  0  0
    2.1605    8.0585    0.6153 C   0  0  2  0  0  0  0  0  0  0  0  0
    3.5658    7.2277   -0.6365 C   0  0  1  0  0  0  0  0  0  0  0  0
    0.5543    7.6617   -0.2190 C   0  0  1  0  0  0  0  0  0  0  0  0
    2.2311    5.2913   -0.9703 C   0  0  1  0  0  0  0  0  0  0  0  0
    0.0734    6.4559    3.0271 C   0  0  1  0  0  0  0  0  0  0  0  0
    0.6294    5.1650    3.6023 C   0  0  2  0  0  0  0  0  0  0  0  0
   -1.7463    6.8811    2.8762 C   0  0  1  0  0  0  0  0  0  0  0  0
   -0.3242    4.9791    4.7198 C   0  0  1  0  0  0  0  0  0  0  0  0
    2.6285    3.8374    0.9718 C   0  0  0  0  0  0  0  0  0  0  0  0
   -2.6135    5.9907    0.9506 C   0  0  0  0  0  0  0  0  0  0  0  0
   -1.4557    5.3708    2.1672 C   0  0  0  0  0  0  0  0  0  0  0  0
   -2.0336    7.9660    1.0003 C   0  0  0  0  0  0  0  0  0  0  0  0
   -0.1910    2.1931    4.2088 C   0  0  0  0  0  0  0  0  0  0  0  0
   -0.2911    3.0916    6.4141 C   0  0  0  0  0  0  0  0  0  0  0  0
   -3.1935    5.7255    2.6559 C   0  0  0  0  0  0  0  0  0  0  0  0
   -0.6160    1.8790    6.8583 C   0  0  0  0  0  0  0  0  0  0  0  0
   -3.9907    4.5174    2.7077 C   0  0  0  0  0  0  0  0  0  0  0  0
   -0.8647    0.7463    5.9604 C   0  0  0  0  0  0  0  0  0  0  0  0
   -2.3323    3.5167    3.6857 C   0  0  0  0  0  0  0  0  0  0  0  0
   -0.7791    0.3165    3.9396 H   0  0  0  0  0  0  0  0  0  0  0  0
   -5.1730    3.5063    1.4451 H   0  0  0  0  0  0  0  0  0  0  0  0
   -4.8801    5.0823    0.9796 H   0  0  0  0  0  0  0  0  0  0  0  0
    2.3030    9.2907   -0.5011 H   0  0  0  0  0  0  0  0  0  0  0  0
    2.9690    7.8292   -1.9689 H   0  0  0  0  0  0  0  0  0  0  0  0
   -0.1206    7.7475    4.0182 H   0  0  0  0  0  0  0  0  0  0  0  0
    1.7813    6.3344    4.2772 H   0  0  0  0  0  0  0  0  0  0  0  0
    5.6078    6.6297   -1.3587 H   0  0  0  0  0  0  0  0  0  0  0  0
   -2.1638    2.7943    2.1224 H   0  0  0  0  0  0  0  0  0  0  0  0
    6.4140    5.6367   -2.4280 H   0  0  0  0  0  0  0  0  0  0  0  0
   -1.1073    6.6374   -1.0837 H   0  0  0  0  0  0  0  0  0  0  0  0
    3.1644    4.7772    2.3906 H   0  0  0  0  0  0  0  0  0  0  0  0
    2.0964    7.4843    1.6304 H   0  0  0  0  0  0  0  0  0  0  0  0
    4.1979    6.9184    0.5340 H   0  0  0  0  0  0  0  0  0  0  0  0
    0.2953    8.2769   -1.0803 H   0  0  0  0  0  0  0  0  0  0  0  0
    2.3302    4.6397   -2.0072 H   0  0  0  0  0  0  0  0  0  0  0  0
    0.5533    6.1139    2.1422 H   0  0  0  0  0  0  0  0  0  0  0  0
    0.7023    4.2819    2.8902 H   0  0  0  0  0  0  0  0  0  0  0  0
   -2.5672    7.2458    3.5750 H   0  0  0  0  0  0  0  0  0  0  0  0
   -0.1804    5.6151    5.5704 H   0  0  0  0  0  0  0  0  0  0  0  0
    2.5440    2.6368    0.2510 H   0  0  0  0  0  0  0  0  0  0  0  0
    1.9300    3.9852    1.7878 H   0  0  0  0  0  0  0  0  0  0  0  0
   -2.2377    6.0955   -0.0659 H   0  0  0  0  0  0  0  0  0  0  0  0
   -3.7171    6.1638    0.8024 H   0  0  0  0  0  0  0  0  0  0  0  0
   -2.0020    8.4238   -0.0010 H   0  0  0  0  0  0  0  0  0  0  0  0
    0.0047    3.9176    7.0356 H   0  0  0  0  0  0  0  0  0  0  0  0
   -0.6622    1.6440    7.8959 H   0  0  0  0  0  0  0  0  0  0  0  0
   -2.1894    2.6809    4.3934 H   0  0  0  0  0  0  0  0  0  0  0  0
  1 17  1  0  0  0  0
  1 19  2  1  0  0  0
  1 15  1  0  0  0  0
  1 12  1  0  0  0  0
  2 18  1  0  0  0  0
  2 20  2  6  0  0  0
  2 16  1  0  0  0  0
  2 13  1  0  0  0  0
  3 15  1  0  0  0  0
  3 22  1  0  0  0  0
  3 24  1  0  0  0  0
  3 26  2  6  0  0  0
  4 25  1  0  0  0  0
  4 27  2  1  0  0  0
  4 23  1  0  0  0  0
  4 16  1  0  0  0  0
  5 28  1  0  0  0  0
  5 29  2  6  0  0  0
  5 23  1  0  0  0  0
  5 22  1  0  0  0  0
  6 39  1  0  0  0  0
  6 40  1  0  0  0  0
  7 43  1  0  0  0  0
  7 44  1  0  0  0  0
  8 59  1  0  0  0  0
  9 60  1  0  0  0  0
 10 61  1  0  0  0  0
 11 62  1  0  0  0  0
 12 45  1  0  0  0  0
 13 46  1  0  0  0  0
 14 49  2  0  0  0  0
 17 63  1  0  0  0  0
 18 64  1  0  0  0  0
 21 54  2  0  0  0  0
 24 65  1  0  0  0  0
 25 66  1  0  0  0  0
 28 67  1  0  0  0  0
 30 47  1  0  0  0  0
 30 48  1  0  0  0  0
 31 49  1  0  0  0  0
 31 50  1  0  0  0  0
 32 48  2  0  0  0  0
 32 51  1  0  0  0  0
 33 49  1  0  0  0  0
 33 54  1  0  0  0  0
 33 56  1  0  0  0  0
 34 47  2  0  0  0  0
 34 55  1  0  0  0  0
 35 53  1  0  0  0  0
 35 55  2  0  0  0  0
 36 53  1  0  0  0  0
 36 57  1  0  0  0  0
 36 58  1  0  0  0  0
 37  8  1  0  0  0  0
 37 38  1  0  0  0  0
 37 39  1  0  0  0  0
 37 68  1  1  0  0  0
 38  9  1  0  0  0  0
 38 40  1  0  0  0  0
 38 69  1  1  0  0  0
 39 70  1  6  0  0  0
 39 30  1  0  0  0  0
 40 45  1  0  0  0  0
 40 71  1  6  0  0  0
 41 10  1  0  0  0  0
 41 42  1  0  0  0  0
 41 43  1  0  0  0  0
 41 72  1  6  0  0  0
 42 11  1  0  0  0  0
 42 44  1  0  0  0  0
 42 73  1  6  0  0  0
 43 46  1  0  0  0  0
 43 74  1  1  0  0  0
 44 75  1  1  0  0  0
 44 31  1  0  0  0  0
 45 76  1  0  0  0  0
 45 77  1  0  0  0  0
 46 78  1  0  0  0  0
 46 79  1  0  0  0  0
 47 51  1  0  0  0  0
 48 80  1  0  0  0  0
 50 52  2  0  0  0  0
 50 81  1  0  0  0  0
 51 53  2  0  0  0  0
 52 54  1  0  0  0  0
 52 82  1  0  0  0  0
 55 83  1  0  0  0  0
M  END
>  <DRUGBANK_ID>
DB03664

>  <SECONDARY_ACCESSION_NUMBERS>
EXPT03194

>  <COMMON_NAME>
P1-(adenosine-5'-P5-(uridine-5')pentaphosphate

$$$$
