617
 OpenBabel10282417103D

 22 22  0  0  1  0  0  0  0  0999 V2000
   -0.6971   -0.9176   -0.0201 O   0  0  0  0  0  0  0  0  0  0  0  0
    2.2997    0.8417    0.1417 O   0  0  0  0  0  0  0  0  0  0  0  0
   -2.1164    0.8013    0.4633 O   0  0  0  0  0  0  0  0  0  0  0  0
    0.0458    1.1488   -0.2383 N   0  0  0  0  0  0  0  0  0  0  0  0
    0.7311   -1.0340    0.0957 C   0  0  3  0  0  0  0  0  0  0  0  0
    1.0226   -1.7298    1.4258 C   0  0  0  0  0  0  0  0  0  0  0  0
    1.1603    0.4214    0.0158 C   0  0  0  0  0  0  0  0  0  0  0  0
    1.3720   -1.7887   -1.0713 C   0  0  0  0  0  0  0  0  0  0  0  0
   -1.0209    0.4033    0.0895 C   0  0  0  0  0  0  0  0  0  0  0  0
    0.4932   -3.1684    1.4434 C   0  0  0  0  0  0  0  0  0  0  0  0
    0.0044    2.5335   -0.6508 C   0  0  0  0  0  0  0  0  0  0  0  0
    2.0997   -1.7353    1.6210 H   0  0  0  0  0  0  0  0  0  0  0  0
    0.5431   -1.1824    2.2465 H   0  0  0  0  0  0  0  0  0  0  0  0
    1.1837   -1.3096   -2.0359 H   0  0  0  0  0  0  0  0  0  0  0  0
    2.4594   -1.8411   -0.9254 H   0  0  0  0  0  0  0  0  0  0  0  0
    0.9968   -2.8116   -1.1633 H   0  0  0  0  0  0  0  0  0  0  0  0
    0.9854   -3.7921    0.6902 H   0  0  0  0  0  0  0  0  0  0  0  0
    0.6813   -3.6380    2.4111 H   0  0  0  0  0  0  0  0  0  0  0  0
   -0.5846   -3.1991    1.2482 H   0  0  0  0  0  0  0  0  0  0  0  0
   -0.5934    2.5790   -1.5699 H   0  0  0  0  0  0  0  0  0  0  0  0
   -0.4821    3.1674    0.0944 H   0  0  0  0  0  0  0  0  0  0  0  0
    1.0089    2.9008   -0.8779 H   0  0  0  0  0  0  0  0  0  0  0  0
  1  5  1  0  0  0  0
  1  9  1  0  0  0  0
  2  7  2  0  0  0  0
  3  9  2  0  0  0  0
  4  7  1  0  0  0  0
  4  9  1  0  0  0  0
  4 11  1  0  0  0  0
  5  6  1  0  0  0  0
  5  7  1  0  0  0  0
  5  8  1  0  0  0  0
  6 10  1  0  0  0  0
  6 12  1  0  0  0  0
  6 13  1  0  0  0  0
  8 14  1  0  0  0  0
  8 15  1  0  0  0  0
  8 16  1  0  0  0  0
 10 17  1  0  0  0  0
 10 18  1  0  0  0  0
 10 19  1  0  0  0  0
 11 20  1  0  0  0  0
 11 21  1  0  0  0  0
 11 22  1  0  0  0  0
M  END
>  <DRUGBANK_ID>
DB00617

>  <SECONDARY_ACCESSION_NUMBERS>
APRD00236

>  <COMMON_NAME>
Paramethadione

>  <CAS_NUMBER>
115-67-3

>  <UNII>
Z615FRW64N

>  <SYNONYMS>
Parametadiona; Parametadione; Paramethadione; Paramethadionum

$$$$
