
 OpenBabel10282417123D

 36 35  0  0  0  0  0  0  0  0999 V2000
    0.9169    0.2951   -0.0298 C   0  0  0  0  0  0  0  0  0  0  0  0
   -2.0979   -4.0905    0.0803 C   0  0  0  0  0  0  0  0  0  0  0  0
    0.2753   -0.5652   -1.1053 C   0  0  1  0  0  0  0  0  0  0  0  0
   -2.1841   -2.7337    0.7186 C   0  0  2  0  0  0  0  0  0  0  0  0
    0.2634   -2.0556   -0.8171 C   0  0  1  0  0  0  0  0  0  0  0  0
   -0.7830   -2.3449    0.5560 C   0  0  2  0  0  0  0  0  0  0  0  0
   -1.1115   -0.2418   -1.2740 O   0  0  0  0  0  0  0  0  0  0  0  0
   -2.4963   -2.8555    2.1731 O   0  0  0  0  0  0  0  0  0  0  0  0
   -0.0164   -2.4875   -2.1525 O   0  0  0  0  0  0  0  0  0  0  0  0
   -0.3436   -3.1486    1.7058 O   0  0  0  0  0  0  0  0  0  0  0  0
    2.5206   -1.4520    1.0553 O   0  0  0  0  0  0  0  0  0  0  0  0
    1.5964   -0.7469    3.2160 O   0  0  0  0  0  0  0  0  0  0  0  0
    1.6542   -2.9676    2.4519 O   0  0  0  0  0  0  0  0  0  0  0  0
    0.4940   -6.4412    0.0049 O   0  0  0  0  0  0  0  0  0  0  0  0
    0.6443   -4.3564   -0.8297 O   0  0  0  0  0  0  0  0  0  0  0  0
    2.2530   -4.9391    0.6564 O   0  0  0  0  0  0  0  0  0  0  0  0
    0.5614   -0.0990    1.3011 O   0  0  0  0  0  0  0  0  0  0  0  0
   -1.0253   -4.9391    0.6564 O   0  0  0  0  0  0  0  0  0  0  0  0
    1.1380   -1.6128    1.9084 P   0  0  0  0  0  0  0  0  0  0  0  0
    0.7047   -4.9391    0.6564 P   0  0  0  0  0  0  0  0  0  0  0  0
    0.7703   -0.3590   -2.0654 H   0  0  0  0  0  0  0  0  0  0  0  0
   -2.8133   -1.9263    0.3628 H   0  0  0  0  0  0  0  0  0  0  0  0
    1.3259   -2.3284   -0.6331 H   0  0  0  0  0  0  0  0  0  0  0  0
   -0.8741   -1.3791    0.9906 H   0  0  0  0  0  0  0  0  0  0  0  0
    0.5594    1.3168   -0.1744 H   0  0  0  0  0  0  0  0  0  0  0  0
    2.0064    0.3354   -0.1345 H   0  0  0  0  0  0  0  0  0  0  0  0
   -3.0578   -4.5688    0.2744 H   0  0  0  0  0  0  0  0  0  0  0  0
   -1.9541   -3.9501   -0.9863 H   0  0  0  0  0  0  0  0  0  0  0  0
   -1.4946   -0.1572   -0.3847 H   0  0  0  0  0  0  0  0  0  0  0  0
   -1.6771   -2.8559    2.7301 H   0  0  0  0  0  0  0  0  0  0  0  0
   -0.5254   -3.3554   -2.1983 H   0  0  0  0  0  0  0  0  0  0  0  0
   -0.8534   -3.9731    1.8826 H   0  0  0  0  0  0  0  0  0  0  0  0
    2.8619   -2.3782    0.9812 H   0  0  0  0  0  0  0  0  0  0  0  0
    1.7793    0.1673    2.9487 H   0  0  0  0  0  0  0  0  0  0  0  0
    1.2987   -6.9363   -0.1449 H   0  0  0  0  0  0  0  0  0  0  0  0
   -0.0793   -4.8670   -1.2895 H   0  0  0  0  0  0  0  0  0  0  0  0
  1 25  1  0  0  0  0
  1 26  1  0  0  0  0
  2 27  1  0  0  0  0
  2 28  1  0  0  0  0
  3  1  1  0  0  0  0
  3  7  1  0  0  0  0
  3 21  1  6  0  0  0
  4  2  1  0  0  0  0
  4  8  1  0  0  0  0
  4 22  1  6  0  0  0
  5  3  1  0  0  0  0
  5  9  1  0  0  0  0
  5 23  1  1  0  0  0
  6  4  1  0  0  0  0
  6  5  1  0  0  0  0
  6 10  1  0  0  0  0
  6 24  1  1  0  0  0
  7 29  1  0  0  0  0
  8 30  1  0  0  0  0
  9 31  1  0  0  0  0
 10 32  1  0  0  0  0
 11 33  1  0  0  0  0
 12 34  1  0  0  0  0
 14 35  1  0  0  0  0
 15 36  1  0  0  0  0
 17  1  1  0  0  0  0
 18  2  1  0  0  0  0
 19 11  1  0  0  0  0
 19 12  1  0  0  0  0
 19 13  2  0  0  0  0
 19 17  1  0  0  0  0
 20 14  1  0  0  0  0
 20 15  1  0  0  0  0
 20 16  2  0  0  0  0
 20 18  1  0  0  0  0
M  END
>  <DRUGBANK_ID>
DB02760

>  <SECONDARY_ACCESSION_NUMBERS>
EXPT01379

>  <COMMON_NAME>
1,6-Di-O-Phosphono-D-Allitol

$$$$
