809
 OpenBabel10282417113D

 41 42  0  0  1  0  0  0  0  0999 V2000
    0.9746   -0.0211   -0.0968 O   0  0  0  0  0  0  0  0  0  0  0  0
    3.0569   -1.5627    2.2981 O   0  0  0  0  0  0  0  0  0  0  0  0
    2.9260   -0.7302   -1.0661 N   0  0  0  0  0  0  0  0  0  0  0  0
    5.9938   -4.8090   -1.2411 N   0  0  0  0  0  0  0  0  0  0  0  0
    2.9422    0.5780    1.1137 C   0  0  3  0  0  0  0  0  0  0  0  0
    2.2165   -0.0601   -0.0711 C   0  0  0  0  0  0  0  0  0  0  0  0
    4.4097   -0.7759   -1.1637 C   0  0  0  0  0  0  0  0  0  0  0  0
    2.5834    2.0495    1.2342 C   0  0  0  0  0  0  0  0  0  0  0  0
    2.1460   -1.2939   -2.1974 C   0  0  0  0  0  0  0  0  0  0  0  0
    2.6115   -0.2134    2.3910 C   0  0  0  0  0  0  0  0  0  0  0  0
    4.9972   -2.1690   -1.1299 C   0  0  0  0  0  0  0  0  0  0  0  0
    1.4840    2.4637    2.0009 C   0  0  0  0  0  0  0  0  0  0  0  0
    3.3600    3.0204    0.5857 C   0  0  0  0  0  0  0  0  0  0  0  0
    1.1171   -2.3807   -1.8248 C   0  0  0  0  0  0  0  0  0  0  0  0
    4.1936   -3.2860   -0.9344 C   0  0  0  0  0  0  0  0  0  0  0  0
    6.3626   -2.4059   -1.2574 C   0  0  0  0  0  0  0  0  0  0  0  0
    1.2106    3.8119    2.1869 C   0  0  0  0  0  0  0  0  0  0  0  0
    3.1004    4.3749    0.7960 C   0  0  0  0  0  0  0  0  0  0  0  0
    2.0241    4.7681    1.5914 C   0  0  0  0  0  0  0  0  0  0  0  0
    4.6899   -4.5627   -1.0732 C   0  0  0  0  0  0  0  0  0  0  0  0
    6.8044   -3.7267   -1.2752 C   0  0  0  0  0  0  0  0  0  0  0  0
    2.4473   -2.0115    1.6842 H   0  0  0  0  0  0  0  0  0  0  0  0
    4.0238    0.5285    1.0262 H   0  0  0  0  0  0  0  0  0  0  0  0
    4.6884   -0.2629   -2.0943 H   0  0  0  0  0  0  0  0  0  0  0  0
    4.8935   -0.2184   -0.3663 H   0  0  0  0  0  0  0  0  0  0  0  0
    1.6098   -0.4673   -2.6771 H   0  0  0  0  0  0  0  0  0  0  0  0
    2.8415   -1.6937   -2.9457 H   0  0  0  0  0  0  0  0  0  0  0  0
    3.1243    0.2435    3.2467 H   0  0  0  0  0  0  0  0  0  0  0  0
    1.5419   -0.2325    2.6232 H   0  0  0  0  0  0  0  0  0  0  0  0
    0.8191    1.7421    2.4673 H   0  0  0  0  0  0  0  0  0  0  0  0
    4.1778    2.7344   -0.0725 H   0  0  0  0  0  0  0  0  0  0  0  0
    0.3718   -2.0192   -1.1150 H   0  0  0  0  0  0  0  0  0  0  0  0
    0.5985   -2.7328   -2.7193 H   0  0  0  0  0  0  0  0  0  0  0  0
    1.5279   -3.2819   -1.3711 H   0  0  0  0  0  0  0  0  0  0  0  0
    3.1729   -3.1678   -0.6398 H   0  0  0  0  0  0  0  0  0  0  0  0
    7.0810   -1.5952   -1.3103 H   0  0  0  0  0  0  0  0  0  0  0  0
    0.3675    4.1029    2.8066 H   0  0  0  0  0  0  0  0  0  0  0  0
    3.7444    5.1278    0.3501 H   0  0  0  0  0  0  0  0  0  0  0  0
    1.8097    5.8215    1.7409 H   0  0  0  0  0  0  0  0  0  0  0  0
    4.0216   -5.4174   -1.0308 H   0  0  0  0  0  0  0  0  0  0  0  0
    7.8622   -3.9635   -1.3142 H   0  0  0  0  0  0  0  0  0  0  0  0
  1  6  2  0  0  0  0
  2 10  1  0  0  0  0
  2 22  1  0  0  0  0
  3  6  1  0  0  0  0
  3  7  1  0  0  0  0
  3  9  1  0  0  0  0
  4 20  2  0  0  0  0
  4 21  1  0  0  0  0
  5  6  1  0  0  0  0
  5  8  1  0  0  0  0
  5 10  1  0  0  0  0
  5 23  1  0  0  0  0
  7 11  1  0  0  0  0
  7 24  1  0  0  0  0
  7 25  1  0  0  0  0
  8 12  2  0  0  0  0
  8 13  1  0  0  0  0
  9 14  1  0  0  0  0
  9 26  1  0  0  0  0
  9 27  1  0  0  0  0
 10 28  1  0  0  0  0
 10 29  1  0  0  0  0
 11 15  2  0  0  0  0
 11 16  1  0  0  0  0
 12 17  1  0  0  0  0
 12 30  1  0  0  0  0
 13 18  2  0  0  0  0
 13 31  1  0  0  0  0
 14 32  1  0  0  0  0
 14 33  1  0  0  0  0
 14 34  1  0  0  0  0
 15 20  1  0  0  0  0
 15 35  1  0  0  0  0
 16 21  2  0  0  0  0
 16 36  1  0  0  0  0
 17 19  2  0  0  0  0
 17 37  1  0  0  0  0
 18 19  1  0  0  0  0
 18 38  1  0  0  0  0
 19 39  1  0  0  0  0
 20 40  1  0  0  0  0
 21 41  1  0  0  0  0
M  END
>  <DRUGBANK_ID>
DB00809

>  <SECONDARY_ACCESSION_NUMBERS>
APRD00287

>  <COMMON_NAME>
Tropicamide

>  <CAS_NUMBER>
1508-75-4

>  <UNII>
N0A3Z5XTC6

>  <SYNONYMS>
Tropicamid; Tropicamida; Tropicamide; Tropicamidum

$$$$
