
 OpenBabel10282417243D

 72 77  0  0  1  0  0  0  0  0999 V2000
   12.2487   -5.9274   11.2536 F   0  0  0  0  0  0  0  0  0  0  0  0
   12.0281   -5.6567   12.5491 C   0  0  0  0  0  0  0  0  0  0  0  0
   13.0327   -5.9752   13.4543 C   0  0  0  0  0  0  0  0  0  0  0  0
   12.8223   -5.7234   14.8094 C   0  0  0  0  0  0  0  0  0  0  0  0
   11.6238   -5.1720   15.2572 C   0  0  0  0  0  0  0  0  0  0  0  0
   10.6817   -4.7654   14.3381 C   0  0  0  0  0  0  0  0  0  0  0  0
   10.8419   -5.0450   12.9873 C   0  0  0  0  0  0  0  0  0  0  0  0
    9.7060   -4.8126   12.2649 N   0  0  0  0  0  0  0  0  0  0  0  0
    9.3387   -3.4563   11.8512 C   0  0  0  0  0  0  0  0  0  0  0  0
    7.8000   -3.3965   11.8058 C   0  0  0  0  0  0  0  0  0  0  0  0
    7.1778   -4.3894   10.8971 N   0  0  0  0  0  0  0  0  0  0  0  0
    7.3647   -4.0802    9.4485 C   0  0  0  0  0  0  0  0  0  0  0  0
    8.7606   -4.1473    8.8442 C   0  0  0  0  0  0  0  0  0  0  0  0
    9.3828   -5.3893    8.7292 C   0  0  0  0  0  0  0  0  0  0  0  0
   10.7834   -5.4711    8.7863 C   0  0  0  0  0  0  0  0  0  0  0  0
   11.5525   -4.3687    8.4173 C   0  0  0  0  0  0  0  0  0  0  0  0
   12.9887   -4.6281    8.0013 C   0  0  0  0  0  0  0  0  0  0  0  0
   13.2966   -4.6778    6.5599 O   0  0  0  0  0  0  0  0  0  0  0  0
   12.5533   -5.4585    5.6844 C   0  0  0  0  0  0  0  0  0  0  0  0
   11.1912   -5.6256    5.8498 C   0  0  0  0  0  0  0  0  0  0  0  0
   10.4367   -6.3400    4.9518 C   0  0  0  0  0  0  0  0  0  0  0  0
   10.9625   -6.5256    3.6891 C   0  0  0  0  0  0  0  0  0  0  0  0
   12.1060   -5.8280    3.3214 C   0  0  0  0  0  0  0  0  0  0  0  0
   12.9879   -5.8946    2.0492 C   0  0  0  0  0  0  0  0  0  0  0  0
   13.6766   -5.0490    1.4971 O   0  0  0  0  0  0  0  0  0  0  0  0
   13.5210   -7.1621    2.0814 N   0  0  0  0  0  0  0  0  0  0  0  0
   14.0540   -6.7422    3.7513 C   0  0  0  0  0  0  0  0  0  0  0  0
   12.9819   -5.7783    4.3681 C   0  0  0  0  0  0  0  0  0  0  0  0
   12.3091   -7.8977    0.9982 C   0  0  1  0  0  0  0  0  0  0  0  0
   12.3671   -8.1901   -0.7562 C   0  0  0  0  0  0  0  0  0  0  0  0
   11.5024   -9.4061   -1.3522 C   0  0  0  0  0  0  0  0  0  0  0  0
   11.7168  -10.6018   -0.4947 C   0  0  0  0  0  0  0  0  0  0  0  0
   11.7137  -11.7569   -0.9089 O   0  0  0  0  0  0  0  0  0  0  0  0
   11.8225  -10.3286    0.8455 N   0  0  0  0  0  0  0  0  0  0  0  0
   11.7999   -9.1780    1.5846 C   0  0  0  0  0  0  0  0  0  0  0  0
   11.4088   -9.2581    2.7453 O   0  0  0  0  0  0  0  0  0  0  0  0
   10.8827   -3.1585    8.1823 C   0  0  0  0  0  0  0  0  0  0  0  0
    9.5204   -3.0178    8.5112 C   0  0  0  0  0  0  0  0  0  0  0  0
    7.6028   -5.7486   11.3273 C   0  0  0  0  0  0  0  0  0  0  0  0
    9.1199   -5.9160   11.5460 C   0  0  0  0  0  0  0  0  0  0  0  0
   13.8979   -5.9225   15.7566 C   0  0  0  0  0  0  0  0  0  0  0  0
   14.7578   -6.0090   16.4890 N   0  0  0  0  0  0  0  0  0  0  0  0
   13.9645   -6.4037   13.0940 H   0  0  0  0  0  0  0  0  0  0  0  0
   11.4021   -5.0307   16.3090 H   0  0  0  0  0  0  0  0  0  0  0  0
    9.7621   -4.2746   14.6491 H   0  0  0  0  0  0  0  0  0  0  0  0
    9.7384   -2.6902   12.5222 H   0  0  0  0  0  0  0  0  0  0  0  0
    9.7639   -3.1978   10.8871 H   0  0  0  0  0  0  0  0  0  0  0  0
    7.4508   -3.6144   12.8276 H   0  0  0  0  0  0  0  0  0  0  0  0
    7.4417   -2.3903   11.5742 H   0  0  0  0  0  0  0  0  0  0  0  0
    6.7376   -4.7703    8.8712 H   0  0  0  0  0  0  0  0  0  0  0  0
    6.9427   -3.0847    9.2631 H   0  0  0  0  0  0  0  0  0  0  0  0
    8.8143   -6.3010    8.9139 H   0  0  0  0  0  0  0  0  0  0  0  0
   11.2529   -6.4263    9.0248 H   0  0  0  0  0  0  0  0  0  0  0  0
   13.5993   -3.8484    8.4902 H   0  0  0  0  0  0  0  0  0  0  0  0
   13.3476   -5.5720    8.4318 H   0  0  0  0  0  0  0  0  0  0  0  0
   10.5983   -5.1960    6.6184 H   0  0  0  0  0  0  0  0  0  0  0  0
    9.4293   -6.6421    5.2170 H   0  0  0  0  0  0  0  0  0  0  0  0
   10.4536   -7.2399    3.0666 H   0  0  0  0  0  0  0  0  0  0  0  0
   14.7521   -6.0048    3.2555 H   0  0  0  0  0  0  0  0  0  0  0  0
   14.9168   -6.4780    4.4495 H   0  0  0  0  0  0  0  0  0  0  0  0
   11.4759   -7.1490    0.9539 H   0  0  0  0  0  0  0  0  0  0  0  0
   13.3951   -8.3762   -1.0715 H   0  0  0  0  0  0  0  0  0  0  0  0
   11.9899   -7.3394   -1.3606 H   0  0  0  0  0  0  0  0  0  0  0  0
   11.8002   -9.6897   -2.3849 H   0  0  0  0  0  0  0  0  0  0  0  0
   10.4115   -9.2382   -1.4338 H   0  0  0  0  0  0  0  0  0  0  0  0
   11.7354  -11.1411    1.4269 H   0  0  0  0  0  0  0  0  0  0  0  0
   11.4036   -2.3423    7.6911 H   0  0  0  0  0  0  0  0  0  0  0  0
    9.0829   -2.0223    8.5450 H   0  0  0  0  0  0  0  0  0  0  0  0
    7.1174   -5.9839   12.2857 H   0  0  0  0  0  0  0  0  0  0  0  0
    7.2173   -6.4943   10.6214 H   0  0  0  0  0  0  0  0  0  0  0  0
    9.6294   -5.7999   10.6489 H   0  0  0  0  0  0  0  0  0  0  0  0
    9.4322   -6.9424   11.7760 H   0  0  0  0  0  0  0  0  0  0  0  0
  1  2  1  0  0  0  0
  2  3  2  0  0  0  0
  2  7  1  0  0  0  0
  3  4  1  0  0  0  0
  3 43  1  0  0  0  0
  4  5  2  0  0  0  0
  4 41  1  0  0  0  0
  5  6  1  0  0  0  0
  5 44  1  0  0  0  0
  6  7  2  0  0  0  0
  6 45  1  0  0  0  0
  7  8  1  0  0  0  0
  8  9  1  0  0  0  0
  8 40  1  0  0  0  0
  9 10  1  0  0  0  0
  9 46  1  0  0  0  0
  9 47  1  0  0  0  0
 10 11  1  0  0  0  0
 10 48  1  0  0  0  0
 10 49  1  0  0  0  0
 11 12  1  0  0  0  0
 11 39  1  0  0  0  0
 12 13  1  0  0  0  0
 12 50  1  0  0  0  0
 12 51  1  0  0  0  0
 13 14  2  0  0  0  0
 13 38  1  0  0  0  0
 14 15  1  0  0  0  0
 14 52  1  0  0  0  0
 15 16  2  0  0  0  0
 15 53  1  0  0  0  0
 16 17  1  0  0  0  0
 16 37  1  0  0  0  0
 17 18  1  0  0  0  0
 17 54  1  0  0  0  0
 17 55  1  0  0  0  0
 18 19  1  0  0  0  0
 19 20  2  0  0  0  0
 19 28  1  0  0  0  0
 20 21  1  0  0  0  0
 20 56  1  0  0  0  0
 21 22  2  0  0  0  0
 21 57  1  0  0  0  0
 22 23  1  0  0  0  0
 22 58  1  0  0  0  0
 23 24  1  0  0  0  0
 23 28  2  0  0  0  0
 24 25  2  0  0  0  0
 24 26  1  0  0  0  0
 26 27  1  0  0  0  0
 27 28  1  0  0  0  0
 27 59  1  0  0  0  0
 27 60  1  0  0  0  0
 29 30  1  0  0  0  0
 29 35  1  0  0  0  0
 29 61  1  1  0  0  0
 29 26  1  0  0  0  0
 30 31  1  0  0  0  0
 30 62  1  0  0  0  0
 30 63  1  0  0  0  0
 31 32  1  0  0  0  0
 31 64  1  0  0  0  0
 31 65  1  0  0  0  0
 32 33  2  0  0  0  0
 32 34  1  0  0  0  0
 34 35  1  0  0  0  0
 34 66  1  0  0  0  0
 35 36  2  0  0  0  0
 37 38  2  0  0  0  0
 37 67  1  0  0  0  0
 38 68  1  0  0  0  0
 39 40  1  0  0  0  0
 39 69  1  0  0  0  0
 39 70  1  0  0  0  0
 40 71  1  0  0  0  0
 40 72  1  0  0  0  0
 41 42  3  0  0  0  0
M  END
>  <DRUGBANK_ID>
DB17584

>  <COMMON_NAME>
Mezigdomide

>  <CAS_NUMBER>
2259648-80-9

>  <UNII>
LA88IH4O02

>  <SYNONYMS>
4-(4-((4-(((2-((3s)-2,6-dioxopiperidin-3-yl)-1-oxo-2,3-dihydro-1h-isoindol-4- yl)oxy)methyl)phenyl)methyl)piperazin-1-yl)-3-fluorobenzonitrile; Benzonitrile, 4-(4-((4-(((2-((3s)-2,6-dioxo-3-piperidinyl)-2,3-dihydro-1-oxo-1h-isoindol-4-yl)oxy)methyl)phenyl)methyl)-1-piperazinyl)-3-fluoro-

$$$$
