
 OpenBabel10282417143D

 81 84  0  0  1  0  0  0  0  0999 V2000
    1.6855    3.8527   -0.2783 C   0  0  0  0  0  0  0  0  0  0  0  0
    1.6482    3.4314   -1.6589 N   0  0  0  0  0  0  0  0  0  0  0  0
    2.3865    2.2230   -2.0375 C   0  0  1  0  0  0  0  0  0  0  0  0
    1.9212    1.0082   -1.2408 C   0  0  0  0  0  0  0  0  0  0  0  0
    2.2344    1.9690   -3.5731 C   0  0  0  0  0  0  0  0  0  0  0  0
    3.2079    1.9659   -4.3245 O   0  0  0  0  0  0  0  0  0  0  0  0
    1.0047    1.7121   -4.1194 N   0  0  0  0  0  0  0  0  0  0  0  0
   -0.3228    1.9500   -3.5621 C   0  0  2  0  0  0  0  0  0  0  0  0
   -1.2162    0.6727   -3.8483 C   0  0  0  0  0  0  0  0  0  0  0  0
   -0.7957   -0.2899   -4.4408 O   0  0  0  0  0  0  0  0  0  0  0  0
   -2.4332    0.6453   -3.1900 N   0  0  0  0  0  0  0  0  0  0  0  0
   -3.3201    1.7327   -2.9680 C   0  0  0  0  0  0  0  0  0  0  0  0
   -4.1361    1.4861   -1.8038 C   0  0  2  0  0  0  0  0  0  0  0  0
   -4.3010    0.0903   -2.1600 C   0  0  0  0  0  0  0  0  0  0  0  0
   -3.1212   -0.5698   -2.8086 C   0  0  1  0  0  0  0  0  0  0  0  0
   -3.8066   -1.5313   -3.7789 C   0  0  0  0  0  0  0  0  0  0  0  0
   -3.3469   -1.7401   -4.9265 O   0  0  0  0  0  0  0  0  0  0  0  0
   -5.0021   -2.1460   -3.4515 N   0  0  0  0  0  0  0  0  0  0  0  0
   -5.7733   -2.5459   -2.1623 C   0  0  2  0  0  0  0  0  0  0  0  0
   -7.2989   -2.6071   -2.4696 C   0  0  0  0  0  0  0  0  0  0  0  0
   -7.9728   -1.2544   -2.4282 C   0  0  0  0  0  0  0  0  0  0  0  0
   -7.7699   -0.5315   -1.0911 C   0  0  0  0  0  0  0  0  0  0  0  0
   -6.4276   -0.7361   -0.3930 C   0  0  0  0  0  0  0  0  0  0  0  0
   -5.9429    0.3026    0.4841 C   0  0  0  0  0  0  0  0  0  0  0  0
   -4.6065    0.3097    0.9679 C   0  0  0  0  0  0  0  0  0  0  0  0
   -3.7419   -0.7701    0.6475 C   0  0  0  0  0  0  0  0  0  0  0  0
   -4.2286   -1.8762   -0.1568 C   0  0  0  0  0  0  0  0  0  0  0  0
   -5.5408   -1.8124   -0.7793 C   0  0  0  0  0  0  0  0  0  0  0  0
   -5.2648    2.3389   -1.6756 O   0  0  0  0  0  0  0  0  0  0  0  0
   -6.2319    2.2109   -2.6333 C   0  0  0  0  0  0  0  0  0  0  0  0
   -6.0713    1.4819   -3.8211 C   0  0  0  0  0  0  0  0  0  0  0  0
   -7.1045    1.0539   -4.6036 C   0  0  0  0  0  0  0  0  0  0  0  0
   -8.3728    1.3913   -4.2094 C   0  0  0  0  0  0  0  0  0  0  0  0
   -8.5686    2.1879   -3.0695 C   0  0  0  0  0  0  0  0  0  0  0  0
   -7.4955    2.6532   -2.2982 C   0  0  0  0  0  0  0  0  0  0  0  0
   -0.8202    3.3829   -3.9776 C   0  0  0  0  0  0  0  0  0  0  0  0
   -1.9670    3.8403   -3.1518 C   0  0  0  0  0  0  0  0  0  0  0  0
    0.0023    4.6140   -3.6433 C   0  0  0  0  0  0  0  0  0  0  0  0
   -1.2814    3.3042   -5.4343 C   0  0  0  0  0  0  0  0  0  0  0  0
    2.6990    4.0728    0.0498 H   0  0  0  0  0  0  0  0  0  0  0  0
    1.2078    3.1136    0.3686 H   0  0  0  0  0  0  0  0  0  0  0  0
    1.0840    4.7663   -0.1866 H   0  0  0  0  0  0  0  0  0  0  0  0
    0.6759    3.2343   -1.8277 H   0  0  0  0  0  0  0  0  0  0  0  0
    3.4524    2.4055   -1.8626 H   0  0  0  0  0  0  0  0  0  0  0  0
    0.8741    0.7463   -1.4080 H   0  0  0  0  0  0  0  0  0  0  0  0
    2.5050    0.1276   -1.5114 H   0  0  0  0  0  0  0  0  0  0  0  0
    2.0245    1.1798   -0.1671 H   0  0  0  0  0  0  0  0  0  0  0  0
    1.0384    1.4814   -5.1081 H   0  0  0  0  0  0  0  0  0  0  0  0
   -0.2650    1.8786   -2.4794 H   0  0  0  0  0  0  0  0  0  0  0  0
   -3.7889    2.0093   -3.9047 H   0  0  0  0  0  0  0  0  0  0  0  0
   -3.0650    2.5713   -2.4028 H   0  0  0  0  0  0  0  0  0  0  0  0
   -3.4918    1.6276   -0.9020 H   0  0  0  0  0  0  0  0  0  0  0  0
   -4.2824   -0.1792   -1.1917 H   0  0  0  0  0  0  0  0  0  0  0  0
   -5.2712   -0.1558   -2.5369 H   0  0  0  0  0  0  0  0  0  0  0  0
   -2.4338   -1.1459   -2.1752 H   0  0  0  0  0  0  0  0  0  0  0  0
   -5.2874   -2.6718   -4.2727 H   0  0  0  0  0  0  0  0  0  0  0  0
   -5.4461   -3.5751   -2.0277 H   0  0  0  0  0  0  0  0  0  0  0  0
   -7.7962   -3.2228   -1.7196 H   0  0  0  0  0  0  0  0  0  0  0  0
   -7.4885   -3.0493   -3.4575 H   0  0  0  0  0  0  0  0  0  0  0  0
   -7.5451   -0.7349   -3.2694 H   0  0  0  0  0  0  0  0  0  0  0  0
   -9.0474   -1.3061   -2.6654 H   0  0  0  0  0  0  0  0  0  0  0  0
   -7.9746    0.5293   -1.2289 H   0  0  0  0  0  0  0  0  0  0  0  0
   -8.5560   -0.8468   -0.4033 H   0  0  0  0  0  0  0  0  0  0  0  0
   -6.4911    1.2541    0.5471 H   0  0  0  0  0  0  0  0  0  0  0  0
   -4.1758    1.2799    1.2686 H   0  0  0  0  0  0  0  0  0  0  0  0
   -2.6630   -0.5200    0.5760 H   0  0  0  0  0  0  0  0  0  0  0  0
   -3.4659   -2.4715   -0.6774 H   0  0  0  0  0  0  0  0  0  0  0  0
   -5.1795    0.9559   -4.1204 H   0  0  0  0  0  0  0  0  0  0  0  0
   -6.8733    0.2581   -5.3118 H   0  0  0  0  0  0  0  0  0  0  0  0
   -9.1925    0.8786   -4.6947 H   0  0  0  0  0  0  0  0  0  0  0  0
   -9.5761    2.2926   -2.6839 H   0  0  0  0  0  0  0  0  0  0  0  0
   -7.6714    3.1674   -1.3543 H   0  0  0  0  0  0  0  0  0  0  0  0
   -1.7695    3.5060   -2.1052 H   0  0  0  0  0  0  0  0  0  0  0  0
   -2.3992    4.8303   -3.0683 H   0  0  0  0  0  0  0  0  0  0  0  0
   -2.7592    3.4737   -3.7821 H   0  0  0  0  0  0  0  0  0  0  0  0
    1.0057    4.5835   -4.0359 H   0  0  0  0  0  0  0  0  0  0  0  0
   -0.5286    5.5076   -3.9926 H   0  0  0  0  0  0  0  0  0  0  0  0
    0.0107    4.7913   -2.5540 H   0  0  0  0  0  0  0  0  0  0  0  0
   -0.4349    3.2315   -6.1118 H   0  0  0  0  0  0  0  0  0  0  0  0
   -1.9282    2.4287   -5.6048 H   0  0  0  0  0  0  0  0  0  0  0  0
   -1.8937    4.1770   -5.6748 H   0  0  0  0  0  0  0  0  0  0  0  0
  1  2  1  0  0  0  0
  1 40  1  0  0  0  0
  1 41  1  0  0  0  0
  1 42  1  0  0  0  0
  2  3  1  0  0  0  0
  2 43  1  0  0  0  0
  3  4  1  0  0  0  0
  3  5  1  0  0  0  0
  3 44  1  1  0  0  0
  4 45  1  0  0  0  0
  4 46  1  0  0  0  0
  4 47  1  0  0  0  0
  5  6  2  0  0  0  0
  5  7  1  0  0  0  0
  7 48  1  0  0  0  0
  8 36  1  0  0  0  0
  8 49  1  1  0  0  0
  8  9  1  0  0  0  0
  8  7  1  0  0  0  0
  9 10  2  0  0  0  0
  9 11  1  0  0  0  0
 11 12  1  0  0  0  0
 11 15  1  0  0  0  0
 12 13  1  0  0  0  0
 12 50  1  0  0  0  0
 12 51  1  0  0  0  0
 13 14  1  0  0  0  0
 13 52  1  1  0  0  0
 13 29  1  0  0  0  0
 14 15  1  0  0  0  0
 14 53  1  0  0  0  0
 14 54  1  0  0  0  0
 15 55  1  1  0  0  0
 15 16  1  0  0  0  0
 16 17  2  0  0  0  0
 16 18  1  0  0  0  0
 18 56  1  0  0  0  0
 19 18  1  0  0  0  0
 19 20  1  0  0  0  0
 19 28  1  0  0  0  0
 19 57  1  1  0  0  0
 20 21  1  0  0  0  0
 20 58  1  0  0  0  0
 20 59  1  0  0  0  0
 21 22  1  0  0  0  0
 21 60  1  0  0  0  0
 21 61  1  0  0  0  0
 22 23  1  0  0  0  0
 22 62  1  0  0  0  0
 22 63  1  0  0  0  0
 23 24  2  0  0  0  0
 23 28  1  0  0  0  0
 24 25  1  0  0  0  0
 24 64  1  0  0  0  0
 25 26  2  0  0  0  0
 25 65  1  0  0  0  0
 26 27  1  0  0  0  0
 26 66  1  0  0  0  0
 27 28  2  0  0  0  0
 27 67  1  0  0  0  0
 29 30  1  0  0  0  0
 30 31  2  0  0  0  0
 30 35  1  0  0  0  0
 31 32  1  0  0  0  0
 31 68  1  0  0  0  0
 32 33  2  0  0  0  0
 32 69  1  0  0  0  0
 33 34  1  0  0  0  0
 33 70  1  0  0  0  0
 34 35  2  0  0  0  0
 34 71  1  0  0  0  0
 35 72  1  0  0  0  0
 36 37  1  0  0  0  0
 36 38  1  0  0  0  0
 36 39  1  0  0  0  0
 37 73  1  0  0  0  0
 37 74  1  0  0  0  0
 37 75  1  0  0  0  0
 38 76  1  0  0  0  0
 38 77  1  0  0  0  0
 38 78  1  0  0  0  0
 39 79  1  0  0  0  0
 39 80  1  0  0  0  0
 39 81  1  0  0  0  0
M  END
>  <DRUGBANK_ID>
DB04612

>  <COMMON_NAME>
N-METHYLALANYL-3-METHYLVALYL-4-PHENOXY-N-(1,2,3,4-TETRAHYDRONAPHTHALEN-1-YL)PROLINAMIDE

$$$$
