
 OpenBabel10282417143D

 33 33  0  0  1  0  0  0  0  0999 V2000
    1.5727    1.0470    6.1355 C   0  0  0  0  0  0  0  0  0  0  0  0
   -1.1548   -1.9556    3.6876 C   0  0  0  0  0  0  0  0  0  0  0  0
   -4.7873    1.6121    1.5466 C   0  0  0  0  0  0  0  0  0  0  0  0
    0.3210    1.0234    5.3235 C   0  0  0  0  0  0  0  0  0  0  0  0
   -3.5992    1.6698    2.5339 C   0  0  2  0  0  0  0  0  0  0  0  0
   -0.7645    1.5976    3.1397 C   0  0  2  0  0  0  0  0  0  0  0  0
   -2.7588    2.9377    2.3302 C   0  0  2  0  0  0  0  0  0  0  0  0
   -1.4938    2.9433    3.1952 C   0  0  2  0  0  0  0  0  0  0  0  0
   -1.7370    0.3945    3.3087 C   0  0  2  0  0  0  0  0  0  0  0  0
    0.3868    1.5745    4.0691 N   0  0  0  0  0  0  0  0  0  0  0  0
   -4.6106    2.4384    0.3947 O   0  0  0  0  0  0  0  0  0  0  0  0
   -0.6923    0.5124    5.8063 O   0  0  0  0  0  0  0  0  0  0  0  0
   -3.5674    4.0965    2.5841 O   0  0  0  0  0  0  0  0  0  0  0  0
   -0.6054    3.9917    2.7474 O   0  0  0  0  0  0  0  0  0  0  0  0
   -0.8984   -0.7323    3.0315 O   0  0  0  0  0  0  0  0  0  0  0  0
   -2.7996    0.4871    2.3563 O   0  0  0  0  0  0  0  0  0  0  0  0
   -4.0243    1.6569    3.5485 H   0  0  0  0  0  0  0  0  0  0  0  0
   -0.3094    1.5097    2.1406 H   0  0  0  0  0  0  0  0  0  0  0  0
   -2.4384    3.0081    1.2831 H   0  0  0  0  0  0  0  0  0  0  0  0
   -1.7498    3.1979    4.2280 H   0  0  0  0  0  0  0  0  0  0  0  0
   -2.1986    0.3675    4.3020 H   0  0  0  0  0  0  0  0  0  0  0  0
    2.3755    1.6094    5.6591 H   0  0  0  0  0  0  0  0  0  0  0  0
    1.8938    0.0144    6.3045 H   0  0  0  0  0  0  0  0  0  0  0  0
    1.3241    1.5072    7.0962 H   0  0  0  0  0  0  0  0  0  0  0  0
   -1.5594   -1.8713    4.7012 H   0  0  0  0  0  0  0  0  0  0  0  0
   -1.7975   -2.5752    3.0597 H   0  0  0  0  0  0  0  0  0  0  0  0
   -0.1890   -2.4716    3.7649 H   0  0  0  0  0  0  0  0  0  0  0  0
   -4.9403    0.5888    1.1916 H   0  0  0  0  0  0  0  0  0  0  0  0
   -5.7074    1.9452    2.0375 H   0  0  0  0  0  0  0  0  0  0  0  0
    1.2096    2.0946    3.7866 H   0  0  0  0  0  0  0  0  0  0  0  0
   -4.5416    3.3608    0.7159 H   0  0  0  0  0  0  0  0  0  0  0  0
   -3.6970    4.1719    3.5479 H   0  0  0  0  0  0  0  0  0  0  0  0
   -0.4547    3.8801    1.7897 H   0  0  0  0  0  0  0  0  0  0  0  0
  1 22  1  0  0  0  0
  1 23  1  0  0  0  0
  1 24  1  0  0  0  0
  2 25  1  0  0  0  0
  2 26  1  0  0  0  0
  2 27  1  0  0  0  0
  3 28  1  0  0  0  0
  3 29  1  0  0  0  0
  4  1  1  0  0  0  0
  5 17  1  1  0  0  0
  5  3  1  0  0  0  0
  6 18  1  6  0  0  0
  6 10  1  0  0  0  0
  7  5  1  0  0  0  0
  7 13  1  0  0  0  0
  7 19  1  6  0  0  0
  8  6  1  0  0  0  0
  8  7  1  0  0  0  0
  8 14  1  0  0  0  0
  8 20  1  1  0  0  0
  9  6  1  0  0  0  0
  9 21  1  1  0  0  0
  9 15  1  0  0  0  0
 10  4  1  0  0  0  0
 10 30  1  0  0  0  0
 11  3  1  0  0  0  0
 11 31  1  0  0  0  0
 12  4  2  0  0  0  0
 13 32  1  0  0  0  0
 14 33  1  0  0  0  0
 15  2  1  0  0  0  0
 16  5  1  0  0  0  0
 16  9  1  0  0  0  0
M  END
>  <DRUGBANK_ID>
DB04426

>  <SECONDARY_ACCESSION_NUMBERS>
EXPT02108; DB02612

>  <COMMON_NAME>
Alpha-Methyl-N-Acetyl-D-Glucosamine

$$$$
