
 OpenBabel10282417203D

 54 57  0  0  0  0  0  0  0  0999 V2000
   -3.7733   -0.3531   -0.1863 C   0  0  2  0  0  0  0  0  0  0  0  0
   -3.9000    1.1307   -0.3753 C   0  0  2  0  0  0  0  0  0  0  0  0
   -4.9927   -1.3588   -0.1397 C   0  0  1  0  0  0  0  0  0  0  0  0
   -2.1731   -1.0607   -0.7535 C   0  0  2  0  0  0  0  0  0  0  0  0
   -2.4154    1.6585   -0.4718 C   0  0  0  0  0  0  0  0  0  0  0  0
   -5.4178    1.1120   -0.8608 C   0  0  0  0  0  0  0  0  0  0  0  0
   -4.4345    2.0172    0.6945 O   0  0  0  0  0  0  0  0  0  0  0  0
   -6.1339   -0.7639    0.5937 C   0  0  0  0  0  0  0  0  0  0  0  0
   -4.1632   -2.5388   -0.0423 N   0  0  0  0  0  0  0  0  0  0  0  0
   -0.9899   -0.4380   -0.0829 C   0  0  1  0  0  0  0  0  0  0  0  0
   -1.8293   -1.5146   -2.0833 O   0  0  0  0  0  0  0  0  0  0  0  0
   -1.2084    1.0169   -0.2323 C   0  0  0  0  0  0  0  0  0  0  0  0
   -2.3990    3.0213   -0.6531 O   0  0  0  0  0  0  0  0  0  0  0  0
   -6.4348    0.4988    0.2069 C   0  0  0  0  0  0  0  0  0  0  0  0
   -5.7630    1.2641   -2.0223 O   0  0  0  0  0  0  0  0  0  0  0  0
   -6.9410   -1.5903    1.3490 O   0  0  0  0  0  0  0  0  0  0  0  0
   -3.0145   -2.2060    1.2397 C   0  0  0  0  0  0  0  0  0  0  0  0
   -3.9844   -2.3783   -1.7996 C   0  0  0  0  0  0  0  0  0  0  0  0
    0.2711   -1.0171   -0.6928 C   0  0  0  0  0  0  0  0  0  0  0  0
    0.1149    1.6936    0.1636 C   0  0  0  0  0  0  0  0  0  0  0  0
   -7.6196    1.1763    0.8175 C   0  0  0  0  0  0  0  0  0  0  0  0
    1.4432   -0.5045   -0.0386 C   0  0  0  0  0  0  0  0  0  0  0  0
    0.5652   -1.0346   -2.0128 C   0  0  0  0  0  0  0  0  0  0  0  0
    1.4305    0.8986    0.0985 C   0  0  0  0  0  0  0  0  0  0  0  0
    0.0957    2.7671    0.7073 O   0  0  0  0  0  0  0  0  0  0  0  0
   -8.3799    1.9423   -0.0288 N   0  0  0  0  0  0  0  0  0  0  0  0
   -7.9394    1.0515    1.9678 O   0  0  0  0  0  0  0  0  0  0  0  0
    2.5897   -1.3119    0.0565 C   0  0  0  0  0  0  0  0  0  0  0  0
    2.6741    1.4988    0.1588 C   0  0  0  0  0  0  0  0  0  0  0  0
    3.8069   -0.6830    0.1601 C   0  0  0  0  0  0  0  0  0  0  0  0
    2.5165   -3.0421   -0.0512 Cl  0  0  0  0  0  0  0  0  0  0  0  0
    3.8419    0.7171    0.1853 C   0  0  0  0  0  0  0  0  0  0  0  0
    2.8587    2.8473    0.1517 O   0  0  0  0  0  0  0  0  0  0  0  0
   -3.8196   -0.2148    0.9039 H   0  0  0  0  0  0  0  0  0  0  0  0
   -0.8827   -0.6527    0.9966 H   0  0  0  0  0  0  0  0  0  0  0  0
   -5.6797   -1.7440   -0.9211 H   0  0  0  0  0  0  0  0  0  0  0  0
   -2.1270   -2.0947   -0.4551 H   0  0  0  0  0  0  0  0  0  0  0  0
   -4.1164    1.8371    1.5883 H   0  0  0  0  0  0  0  0  0  0  0  0
   -1.2901   -2.3498   -1.8976 H   0  0  0  0  0  0  0  0  0  0  0  0
   -1.8989    3.1683   -1.4711 H   0  0  0  0  0  0  0  0  0  0  0  0
   -6.6792   -2.5187    1.1940 H   0  0  0  0  0  0  0  0  0  0  0  0
   -2.0298   -2.7098    1.1555 H   0  0  0  0  0  0  0  0  0  0  0  0
   -2.6317   -1.1597    1.3806 H   0  0  0  0  0  0  0  0  0  0  0  0
   -3.3917   -2.2651    2.2577 H   0  0  0  0  0  0  0  0  0  0  0  0
   -3.2279   -2.9587   -2.3261 H   0  0  0  0  0  0  0  0  0  0  0  0
   -4.9107   -2.6748   -2.3170 H   0  0  0  0  0  0  0  0  0  0  0  0
   -3.9520   -1.2892   -2.1811 H   0  0  0  0  0  0  0  0  0  0  0  0
   -0.0844   -0.3976   -2.6167 H   0  0  0  0  0  0  0  0  0  0  0  0
    0.5861   -2.0289   -2.4805 H   0  0  0  0  0  0  0  0  0  0  0  0
   -9.2299    2.3241    0.3692 H   0  0  0  0  0  0  0  0  0  0  0  0
   -8.2080    2.0363   -1.0137 H   0  0  0  0  0  0  0  0  0  0  0  0
    4.7194   -1.2699    0.1753 H   0  0  0  0  0  0  0  0  0  0  0  0
    4.8002    1.2203    0.2372 H   0  0  0  0  0  0  0  0  0  0  0  0
    2.4972    3.2007   -0.6815 H   0  0  0  0  0  0  0  0  0  0  0  0
  1  2  1  0  0  0  0
  1  3  1  0  0  0  0
  1  4  1  0  0  0  0
  1 34  1  6  0  0  0
  2  5  1  0  0  0  0
  2  6  1  0  0  0  0
  2  7  1  6  0  0  0
  3  8  1  0  0  0  0
  3 36  1  1  0  0  0
  3  9  1  0  0  0  0
  4 10  1  0  0  0  0
  4 37  1  1  0  0  0
  4 11  1  0  0  0  0
  5 12  2  0  0  0  0
  5 13  1  0  0  0  0
  6 14  1  0  0  0  0
  6 15  2  0  0  0  0
  7 38  1  0  0  0  0
  8 14  2  0  0  0  0
  8 16  1  0  0  0  0
  9 17  1  0  0  0  0
  9 18  1  0  0  0  0
 10 19  1  0  0  0  0
 10 12  1  0  0  0  0
 10 35  1  6  0  0  0
 11 39  1  0  0  0  0
 12 20  1  0  0  0  0
 13 40  1  0  0  0  0
 14 21  1  0  0  0  0
 16 41  1  0  0  0  0
 17 42  1  0  0  0  0
 17 43  1  0  0  0  0
 17 44  1  0  0  0  0
 18 45  1  0  0  0  0
 18 46  1  0  0  0  0
 18 47  1  0  0  0  0
 19 22  1  0  0  0  0
 19 23  2  0  0  0  0
 20 24  1  0  0  0  0
 20 25  2  0  0  0  0
 21 26  1  0  0  0  0
 21 27  2  0  0  0  0
 22 28  1  0  0  0  0
 22 24  2  0  0  0  0
 23 48  1  0  0  0  0
 23 49  1  0  0  0  0
 24 29  1  0  0  0  0
 26 50  1  0  0  0  0
 26 51  1  0  0  0  0
 28 30  2  0  0  0  0
 28 31  1  0  0  0  0
 29 32  2  0  0  0  0
 29 33  1  0  0  0  0
 30 32  1  0  0  0  0
 30 52  1  0  0  0  0
 32 53  1  0  0  0  0
 33 54  1  0  0  0  0
M  END
>  <DRUGBANK_ID>
DB13092

>  <SECONDARY_ACCESSION_NUMBERS>
DB06798; DB05709

>  <COMMON_NAME>
Meclocycline

>  <CAS_NUMBER>
2013-58-3

>  <UNII>
23Q8M2HE6S

>  <SYNONYMS>
Meclociclina; Meclocycline; Meclocyclinum

$$$$
