
 OpenBabel10282417113D

 56 59  0  0  1  0  0  0  0  0999 V2000
    2.5384   -1.4708    0.1587 C   0  0  2  0  0  0  0  0  0  0  0  0
    2.7957   -2.9799    1.1231 C   0  0  2  0  0  0  0  0  0  0  0  0
    2.4682   -2.2130    2.3816 C   0  0  0  0  0  0  0  0  0  0  0  0
    1.0529   -1.7103    1.9824 C   0  0  0  0  0  0  0  0  0  0  0  0
    1.0166   -1.6877    0.3742 C   0  0  1  0  0  0  0  0  0  0  0  0
   -0.0265   -0.7546   -0.2171 C   0  0  1  0  0  0  0  0  0  0  0  0
    0.1388    0.6592    0.2894 C   0  0  1  0  0  0  0  0  0  0  0  0
   -0.8990    1.6134   -0.3375 C   0  0  2  0  0  0  0  0  0  0  0  0
   -2.3564    1.5847   -0.5782 C   0  0  1  0  0  0  0  0  0  0  0  0
   -2.5316   -0.1008   -0.6560 C   0  0  0  0  0  0  0  0  0  0  0  0
   -1.4808   -1.1223    0.0631 C   0  0  0  0  0  0  0  0  0  0  0  0
   -2.0209    3.1698   -1.5835 C   0  0  0  0  0  0  0  0  0  0  0  0
   -0.3265    3.4919   -2.0246 C   0  0  2  0  0  0  0  0  0  0  0  0
    0.1567    2.2487   -2.7149 C   0  0  0  0  0  0  0  0  0  0  0  0
   -0.7814    1.3030   -2.0878 C   0  0  0  0  0  0  0  0  0  0  0  0
    0.6491    3.7877   -1.0383 O   0  0  0  0  0  0  0  0  0  0  0  0
   -3.1156    1.8819    0.1624 H   0  0  0  0  0  0  0  0  0  0  0  0
   -1.1082    2.8876    0.7608 C   0  0  0  0  0  0  0  0  0  0  0  0
    1.6347    1.0054    0.0365 C   0  0  0  0  0  0  0  0  0  0  0  0
    2.6582    0.0910    0.7623 C   0  0  0  0  0  0  0  0  0  0  0  0
   -0.0519    0.6936    1.3637 H   0  0  0  0  0  0  0  0  0  0  0  0
    0.1602   -0.8534   -1.2890 H   0  0  0  0  0  0  0  0  0  0  0  0
    0.8164   -2.6239   -0.1530 H   0  0  0  0  0  0  0  0  0  0  0  0
    4.0478   -3.6256    1.2727 O   0  0  0  0  0  0  0  0  0  0  0  0
    1.7001   -4.2712    1.2282 C   0  0  0  0  0  0  0  0  0  0  0  0
    3.2344   -1.1645   -1.2372 C   0  0  0  0  0  0  0  0  0  0  0  0
    2.6175   -2.7354    3.3264 H   0  0  0  0  0  0  0  0  0  0  0  0
    3.1933   -1.3950    2.4682 H   0  0  0  0  0  0  0  0  0  0  0  0
    0.2566   -2.2317    2.5113 H   0  0  0  0  0  0  0  0  0  0  0  0
    0.9468   -0.6921    2.3393 H   0  0  0  0  0  0  0  0  0  0  0  0
   -3.5000   -0.3752   -0.2114 H   0  0  0  0  0  0  0  0  0  0  0  0
   -2.5890   -0.4458   -1.6904 H   0  0  0  0  0  0  0  0  0  0  0  0
   -1.6928   -2.1475   -0.2868 H   0  0  0  0  0  0  0  0  0  0  0  0
   -1.5777   -1.2151    1.1580 H   0  0  0  0  0  0  0  0  0  0  0  0
   -2.3208    4.0767   -1.0334 H   0  0  0  0  0  0  0  0  0  0  0  0
   -2.5651    3.1998   -2.5332 H   0  0  0  0  0  0  0  0  0  0  0  0
   -0.2409    4.3932   -2.6367 H   0  0  0  0  0  0  0  0  0  0  0  0
    0.0823    2.3220   -3.7982 H   0  0  0  0  0  0  0  0  0  0  0  0
    1.1454    1.8554   -2.4954 H   0  0  0  0  0  0  0  0  0  0  0  0
   -1.7498    1.4004   -2.6522 H   0  0  0  0  0  0  0  0  0  0  0  0
   -0.6384    0.2680   -2.3786 H   0  0  0  0  0  0  0  0  0  0  0  0
    0.7351    2.9615   -0.4651 H   0  0  0  0  0  0  0  0  0  0  0  0
   -1.0926    2.5131    1.7879 H   0  0  0  0  0  0  0  0  0  0  0  0
   -0.4501    3.7489    0.7160 H   0  0  0  0  0  0  0  0  0  0  0  0
   -2.1046    3.3815    0.7526 H   0  0  0  0  0  0  0  0  0  0  0  0
    1.9187    2.0214    0.3032 H   0  0  0  0  0  0  0  0  0  0  0  0
    1.8077    0.8970   -1.0308 H   0  0  0  0  0  0  0  0  0  0  0  0
    3.6606    0.5179    0.6110 H   0  0  0  0  0  0  0  0  0  0  0  0
    2.4869    0.2811    1.8250 H   0  0  0  0  0  0  0  0  0  0  0  0
    3.8607   -4.4802    1.7360 H   0  0  0  0  0  0  0  0  0  0  0  0
    0.7741   -4.2322    0.6462 H   0  0  0  0  0  0  0  0  0  0  0  0
    2.1307   -5.2607    1.0094 H   0  0  0  0  0  0  0  0  0  0  0  0
    1.3677   -4.3935    2.2802 H   0  0  0  0  0  0  0  0  0  0  0  0
    3.5621   -0.0954   -1.2881 H   0  0  0  0  0  0  0  0  0  0  0  0
    4.2160   -1.6122   -1.4240 H   0  0  0  0  0  0  0  0  0  0  0  0
    2.5700   -1.1892   -2.1053 H   0  0  0  0  0  0  0  0  0  0  0  0
  1 26  1  1  0  0  0
  2  1  1  0  0  0  0
  2 24  1  6  0  0  0
  2 25  1  0  0  0  0
  3  2  1  0  0  0  0
  3  4  1  0  0  0  0
  3 27  1  0  0  0  0
  3 28  1  0  0  0  0
  4  5  1  0  0  0  0
  4 29  1  0  0  0  0
  4 30  1  0  0  0  0
  5  1  1  0  0  0  0
  5 23  1  6  0  0  0
  6  5  1  0  0  0  0
  6  7  1  0  0  0  0
  6 22  1  1  0  0  0
  7 19  1  0  0  0  0
  7 21  1  6  0  0  0
  8  7  1  0  0  0  0
  8 18  1  1  0  0  0
  9  8  1  0  0  0  0
  9 17  1  6  0  0  0
 10  9  1  0  0  0  0
 10 11  1  0  0  0  0
 10 31  1  0  0  0  0
 10 32  1  0  0  0  0
 11  6  1  0  0  0  0
 11 33  1  0  0  0  0
 11 34  1  0  0  0  0
 12  9  1  0  0  0  0
 12 35  1  0  0  0  0
 12 36  1  0  0  0  0
 13 12  1  0  0  0  0
 13 14  1  0  0  0  0
 13 37  1  6  0  0  0
 13 16  1  0  0  0  0
 14 15  1  0  0  0  0
 14 38  1  0  0  0  0
 14 39  1  0  0  0  0
 15  8  1  0  0  0  0
 15 40  1  0  0  0  0
 15 41  1  0  0  0  0
 16 42  1  0  0  0  0
 18 43  1  0  0  0  0
 18 44  1  0  0  0  0
 18 45  1  0  0  0  0
 19 20  1  0  0  0  0
 19 46  1  0  0  0  0
 19 47  1  0  0  0  0
 20  1  1  0  0  0  0
 20 48  1  0  0  0  0
 20 49  1  0  0  0  0
 24 50  1  0  0  0  0
 25 51  1  0  0  0  0
 25 52  1  0  0  0  0
 25 53  1  0  0  0  0
 26 54  1  0  0  0  0
 26 55  1  0  0  0  0
 26 56  1  0  0  0  0
M  END
>  <DRUGBANK_ID>
DB01513

>  <COMMON_NAME>
17Alpha-methyl-3beta,17beta-dihydroxy-5alpha-androstane

>  <CAS_NUMBER>
641-83-8

>  <UNII>
ZA9UE4Q47V

$$$$
