5280581
 OpenBabel10282417103D

 56 55  0  0  0  0  0  0  0  0999 V2000
    2.3636   -3.2291   -6.9251 O   0  0  0  0  0  0  0  0  0  0  0  0
    4.5495   -3.5370   -6.6059 O   0  0  0  0  0  0  0  0  0  0  0  0
    0.0554   -5.3508   -6.2381 C   0  0  0  0  0  0  0  0  0  0  0  0
    0.8735   -4.7505   -5.0851 C   0  0  0  0  0  0  0  0  0  0  0  0
   -0.2963   -6.8031   -5.9406 C   0  0  0  0  0  0  0  0  0  0  0  0
    2.2222   -5.4609   -4.9303 C   0  0  0  0  0  0  0  0  0  0  0  0
   -1.0385   -6.8979   -4.6192 C   0  0  0  0  0  0  0  0  0  0  0  0
    3.0494   -5.4092   -6.2144 C   0  0  0  0  0  0  0  0  0  0  0  0
   -9.0644  -11.8397   -5.7760 C   0  0  0  0  0  0  0  0  0  0  0  0
   -9.4450  -13.3136   -5.6669 C   0  0  0  0  0  0  0  0  0  0  0  0
   -8.5172  -11.3152   -4.4578 C   0  0  0  0  0  0  0  0  0  0  0  0
  -10.4404  -13.5628   -4.5302 C   0  0  0  0  0  0  0  0  0  0  0  0
   -2.3475   -6.1689   -4.7126 C   0  0  0  0  0  0  0  0  0  0  0  0
   -3.5235   -6.7779   -4.5832 C   0  0  0  0  0  0  0  0  0  0  0  0
   -7.2205  -11.9919   -4.1187 C   0  0  0  0  0  0  0  0  0  0  0  0
    3.4160   -3.9989   -6.5941 C   0  0  0  0  0  0  0  0  0  0  0  0
  -11.7293  -12.7860   -4.7512 C   0  0  0  0  0  0  0  0  0  0  0  0
   -3.6138   -8.2242   -4.2883 C   0  0  0  0  0  0  0  0  0  0  0  0
   -6.0644  -11.3382   -4.0138 C   0  0  0  0  0  0  0  0  0  0  0  0
   -5.9797   -9.8714   -4.1936 C   0  0  0  0  0  0  0  0  0  0  0  0
   -4.3512   -8.4498   -3.0204 C   0  0  0  0  0  0  0  0  0  0  0  0
   -5.4323   -9.2257   -2.9733 C   0  0  0  0  0  0  0  0  0  0  0  0
    2.6958   -2.3107   -6.9873 H   0  0  0  0  0  0  0  0  0  0  0  0
   -0.8476   -4.7541   -6.3975 H   0  0  0  0  0  0  0  0  0  0  0  0
    0.5804   -5.2999   -7.1952 H   0  0  0  0  0  0  0  0  0  0  0  0
    0.3327   -4.7828   -4.1346 H   0  0  0  0  0  0  0  0  0  0  0  0
    0.9981   -3.6784   -5.2359 H   0  0  0  0  0  0  0  0  0  0  0  0
   -0.8920   -7.2299   -6.7575 H   0  0  0  0  0  0  0  0  0  0  0  0
    0.6032   -7.4275   -5.8843 H   0  0  0  0  0  0  0  0  0  0  0  0
    2.0662   -6.5107   -4.6453 H   0  0  0  0  0  0  0  0  0  0  0  0
    2.7747   -5.0161   -4.0964 H   0  0  0  0  0  0  0  0  0  0  0  0
   -1.1011   -7.9580   -4.3918 H   0  0  0  0  0  0  0  0  0  0  0  0
   -0.4862   -6.5058   -3.7636 H   0  0  0  0  0  0  0  0  0  0  0  0
    2.5458   -5.8909   -7.0594 H   0  0  0  0  0  0  0  0  0  0  0  0
    3.9709   -5.9810   -6.0677 H   0  0  0  0  0  0  0  0  0  0  0  0
   -9.9321  -11.2338   -6.0605 H   0  0  0  0  0  0  0  0  0  0  0  0
   -8.3347  -11.6920   -6.5830 H   0  0  0  0  0  0  0  0  0  0  0  0
   -9.8651  -13.6483   -6.6200 H   0  0  0  0  0  0  0  0  0  0  0  0
   -8.5462  -13.9198   -5.5033 H   0  0  0  0  0  0  0  0  0  0  0  0
   -9.1997  -11.4334   -3.6141 H   0  0  0  0  0  0  0  0  0  0  0  0
   -8.4583  -10.2354   -4.5735 H   0  0  0  0  0  0  0  0  0  0  0  0
  -10.6502  -14.6331   -4.4605 H   0  0  0  0  0  0  0  0  0  0  0  0
  -10.0119  -13.2895   -3.5587 H   0  0  0  0  0  0  0  0  0  0  0  0
   -2.3521   -5.1042   -4.9335 H   0  0  0  0  0  0  0  0  0  0  0  0
   -4.4479   -6.2213   -4.7277 H   0  0  0  0  0  0  0  0  0  0  0  0
   -7.2077  -13.0700   -3.9801 H   0  0  0  0  0  0  0  0  0  0  0  0
  -12.1877  -13.0878   -5.6971 H   0  0  0  0  0  0  0  0  0  0  0  0
  -12.4328  -12.9680   -3.9371 H   0  0  0  0  0  0  0  0  0  0  0  0
  -11.5601  -11.7045   -4.7884 H   0  0  0  0  0  0  0  0  0  0  0  0
   -4.0192   -8.6600   -5.1975 H   0  0  0  0  0  0  0  0  0  0  0  0
   -2.6806   -8.7639   -4.1587 H   0  0  0  0  0  0  0  0  0  0  0  0
   -5.1406  -11.8841   -3.8270 H   0  0  0  0  0  0  0  0  0  0  0  0
   -6.9077   -9.3426   -4.3899 H   0  0  0  0  0  0  0  0  0  0  0  0
   -5.4286   -9.7448   -5.1221 H   0  0  0  0  0  0  0  0  0  0  0  0
   -3.9703   -7.9875   -2.1132 H   0  0  0  0  0  0  0  0  0  0  0  0
   -5.9551   -9.3740   -2.0322 H   0  0  0  0  0  0  0  0  0  0  0  0
  1 16  1  0  0  0  0
  1 23  1  0  0  0  0
  2 16  2  0  0  0  0
  3  4  1  0  0  0  0
  3  5  1  0  0  0  0
  3 24  1  0  0  0  0
  3 25  1  0  0  0  0
  4  6  1  0  0  0  0
  4 26  1  0  0  0  0
  4 27  1  0  0  0  0
  5  7  1  0  0  0  0
  5 28  1  0  0  0  0
  5 29  1  0  0  0  0
  6  8  1  0  0  0  0
  6 30  1  0  0  0  0
  6 31  1  0  0  0  0
  7 13  1  0  0  0  0
  7 32  1  0  0  0  0
  7 33  1  0  0  0  0
  8 16  1  0  0  0  0
  8 34  1  0  0  0  0
  8 35  1  0  0  0  0
  9 10  1  0  0  0  0
  9 11  1  0  0  0  0
  9 36  1  0  0  0  0
  9 37  1  0  0  0  0
 10 12  1  0  0  0  0
 10 38  1  0  0  0  0
 10 39  1  0  0  0  0
 11 15  1  0  0  0  0
 11 40  1  0  0  0  0
 11 41  1  0  0  0  0
 12 17  1  0  0  0  0
 12 42  1  0  0  0  0
 12 43  1  0  0  0  0
 13 14  2  0  0  0  0
 13 44  1  0  0  0  0
 14 18  1  0  0  0  0
 14 45  1  0  0  0  0
 15 19  2  0  0  0  0
 15 46  1  0  0  0  0
 17 47  1  0  0  0  0
 17 48  1  0  0  0  0
 17 49  1  0  0  0  0
 18 21  1  0  0  0  0
 18 50  1  0  0  0  0
 18 51  1  0  0  0  0
 19 20  1  0  0  0  0
 19 52  1  0  0  0  0
 20 22  1  0  0  0  0
 20 53  1  0  0  0  0
 20 54  1  0  0  0  0
 21 22  2  0  0  0  0
 21 55  1  0  0  0  0
 22 56  1  0  0  0  0
M  END
>  <DRUGBANK_ID>
DB00154

>  <SECONDARY_ACCESSION_NUMBERS>
NUTR00032

>  <COMMON_NAME>
Dihomo-gamma-linolenic acid

>  <CAS_NUMBER>
1783-84-2

>  <UNII>
FC398RK06S

>  <SYNONYMS>
(8Z,11Z,14Z)-Icosatrienoic acid; (Z,Z,Z)-8,11,14-Eicosatrienoic acid; (Z,Z,Z)-8,11,14-Icosatrienoate; (Z,Z,Z)-8,11,14-Icosatrienoic acid; 20:3, n-6,9,12 all-cis; 8,11,14-Eicosatrienoic Acid; 8c,11c,14c-eicosatrienoic acid; 8c,11c,14c-Eicosatriensäure; all-cis-8,11,14-eicosatrienoic acid; all-cis-8,11,14-icosatrienoic acid; all-cis-eicosa-8,11,14-trienoic acid; all-cis-Eicosa-8,11,14-triensäure; all-cis-icosa-8,11,14-trienoic acid; C20:3, n-6,9,12 all-cis; cis,cis,cis-8,11,14-eicosatrienoic acid; DGLA; dihomo-γ-linolenic acid; eicosa-8Z,11Z,14Z-trienoic acid; gamma-Homolinolenic acid; Homo-gamma-linolenic acid; Homo-gamma-linolensäure; Homo-γ-linolensäure

$$$$
