
 OpenBabel10282417133D

102107  0  0  1  0  0  0  0  0999 V2000
    1.0573    0.0429   -0.0698 O   0  0  0  0  0  0  0  0  0  0  0  0
    0.3473    1.0917    0.5722 C   0  0  0  0  0  0  0  0  0  0  0  0
    0.9828    2.0304    1.1468 O   0  0  0  0  0  0  0  0  0  0  0  0
   -1.1727    1.0917    0.5722 C   0  0  0  0  0  0  0  0  0  0  0  0
   -1.6793    1.1285   -0.8604 C   0  0  0  0  0  0  0  0  0  0  0  0
   -1.1727   -0.0937   -1.6086 C   0  0  0  0  0  0  0  0  0  0  0  0
   -1.6793   -1.3528   -0.9242 C   0  0  0  0  0  0  0  0  0  0  0  0
   -3.1993   -1.3528   -0.9242 C   0  0  0  0  0  0  0  0  0  0  0  0
   -3.7060   -1.3160   -2.3568 C   0  0  0  0  0  0  0  0  0  0  0  0
   -3.1994   -2.5382   -3.1049 C   0  0  0  0  0  0  0  0  0  0  0  0
   -4.0834   -3.4201   -3.6448 C   0  0  0  0  0  0  0  0  0  0  0  0
   -5.5778   -3.1832   -3.4998 C   0  0  2  0  0  0  0  0  0  0  0  0
   -5.7476   -1.7841   -3.2632 O   0  0  0  0  0  0  0  0  0  0  0  0
   -5.3741   -1.0049   -4.5254 Fe  0  0  2  0  0  0  0  0  0  0  0  0
   -7.2368   -4.6155   -2.8524 O   0  0  0  0  0  0  0  0  0  0  0  0
   -6.0731   -4.0153   -2.4494 N   0  0  3  0  0  0  0  0  0  0  0  0
   -5.0350   -5.0882   -2.1161 C   0  0  0  0  0  0  0  0  0  0  0  0
   -4.2469   -4.6584   -1.0036 C   0  0  0  0  0  0  0  0  0  0  0  0
   -3.2988   -5.6284   -0.5544 C   0  0  0  0  0  0  0  0  0  0  0  0
   -2.2098   -4.9349    0.2677 C   0  0  0  0  0  0  0  0  0  0  0  0
   -1.4065   -4.1253   -0.5930 C   0  0  1  0  0  0  0  0  0  0  0  0
   -0.5776   -3.1885    0.0981 N   0  0  0  0  0  0  0  0  0  0  0  0
    0.3953   -2.5415   -0.8907 C   0  0  0  0  0  0  0  0  0  0  0  0
    1.5156   -3.0278   -1.2422 O   0  0  0  0  0  0  0  0  0  0  0  0
   -0.1505   -1.3067   -1.3574 C   0  0  2  0  0  0  0  0  0  0  0  0
   -0.1258   -1.1594   -2.7777 C   0  0  0  0  0  0  0  0  0  0  0  0
   -0.5121    0.2741   -3.1487 O   0  0  0  0  0  0  0  0  0  0  0  0
   -1.9343    0.4080   -3.1200 C   0  0  2  0  0  0  0  0  0  0  0  0
    0.6238   -0.2063   -0.7653 N   0  0  0  0  0  0  0  0  0  0  0  0
   -2.5128    1.0665   -4.1599 C   0  0  0  0  0  0  0  0  0  0  0  0
   -2.0840    2.3392   -4.4982 C   0  0  0  0  0  0  0  0  0  0  0  0
   -2.6756    3.0092   -5.5609 C   0  0  0  0  0  0  0  0  0  0  0  0
   -3.6948    2.4037   -6.2827 C   0  0  0  0  0  0  0  0  0  0  0  0
   -4.1232    1.1335   -5.9445 C   0  0  0  0  0  0  0  0  0  0  0  0
   -3.5363    0.4629   -4.8840 C   0  0  0  0  0  0  0  0  0  0  0  0
   -3.9625   -0.7858   -4.5503 O   0  0  0  0  0  0  0  0  0  0  0  0
   -0.4772   -5.0665   -1.3420 C   0  0  0  0  0  0  0  0  0  0  0  0
   -0.5322   -5.1383   -2.6097 O   0  0  0  0  0  0  0  0  0  0  0  0
    0.4524   -5.8656   -0.6253 O   0  0  0  0  0  0  0  0  0  0  0  0
    1.3205   -6.7449   -1.3249 C   0  0  0  0  0  0  0  0  0  0  0  0
    0.4963   -7.7537   -2.1082 C   0  0  0  0  0  0  0  0  0  0  0  0
   -0.3909   -7.0211   -3.1014 C   0  0  0  0  0  0  0  0  0  0  0  0
   -0.2752   -7.2501   -4.3461 O   0  0  0  0  0  0  0  0  0  0  0  0
   -1.3827   -6.0476   -2.6223 N   0  0  0  0  0  0  0  0  0  0  0  0
   -1.5165   -5.7827   -1.1825 C   0  0  2  0  0  0  0  0  0  0  0  0
   -0.4837   -6.6698   -0.4572 C   0  0  0  0  0  0  0  0  0  0  0  0
   -0.2547   -6.1068    0.9202 C   0  0  0  0  0  0  0  0  0  0  0  0
   -1.1472   -6.7741    1.9838 C   0  0  0  0  0  0  0  0  0  0  0  0
   -2.5909   -7.0019    1.4950 C   0  0  0  0  0  0  0  0  0  0  0  0
   -3.1268   -5.8299    0.7178 N   0  0  0  0  0  0  0  0  0  0  0  0
   -5.9090   -2.0431   -6.1242 O   0  0  0  0  0  0  0  0  0  0  0  0
   -2.8832   -6.0849   -0.7829 C   0  0  0  0  0  0  0  0  0  0  0  0
   -3.7753   -6.5111   -1.5814 O   0  0  0  0  0  0  0  0  0  0  0  0
    2.0573    0.0429   -0.0698 H   0  0  0  0  0  0  0  0  0  0  0  0
   -1.5293    0.2054    1.0540 H   0  0  0  0  0  0  0  0  0  0  0  0
   -1.5293    1.9521    1.0989 H   0  0  0  0  0  0  0  0  0  0  0  0
   -2.7493    1.1285   -0.8604 H   0  0  0  0  0  0  0  0  0  0  0  0
   -1.3227    2.0149   -1.3422 H   0  0  0  0  0  0  0  0  0  0  0  0
   -1.5293   -0.0678   -2.6170 H   0  0  0  0  0  0  0  0  0  0  0  0
   -0.1027   -0.0937   -1.6086 H   0  0  0  0  0  0  0  0  0  0  0  0
   -1.3227   -2.2132   -1.4508 H   0  0  0  0  0  0  0  0  0  0  0  0
   -1.3227   -1.3787    0.0843 H   0  0  0  0  0  0  0  0  0  0  0  0
   -3.5560   -2.2391   -0.4424 H   0  0  0  0  0  0  0  0  0  0  0  0
   -3.5560   -0.4924   -0.3975 H   0  0  0  0  0  0  0  0  0  0  0  0
   -4.7760   -1.3160   -2.3568 H   0  0  0  0  0  0  0  0  0  0  0  0
   -3.3494   -0.4297   -2.8385 H   0  0  0  0  0  0  0  0  0  0  0  0
   -2.1474   -2.7050   -3.2070 H   0  0  0  0  0  0  0  0  0  0  0  0
   -3.7267   -4.2805   -4.1715 H   0  0  0  0  0  0  0  0  0  0  0  0
   -6.1388   -3.4442   -4.3727 H   0  0  0  0  0  0  0  0  0  0  0  0
   -5.5331   -6.0023   -1.8688 H   0  0  0  0  0  0  0  0  0  0  0  0
   -4.4005   -5.2460   -2.9631 H   0  0  0  0  0  0  0  0  0  0  0  0
   -4.9233   -4.4875   -0.1923 H   0  0  0  0  0  0  0  0  0  0  0  0
   -3.7149   -3.7750   -1.2892 H   0  0  0  0  0  0  0  0  0  0  0  0
   -2.8546   -6.1110   -1.3997 H   0  0  0  0  0  0  0  0  0  0  0  0
   -3.7943   -6.3570    0.0526 H   0  0  0  0  0  0  0  0  0  0  0  0
   -2.6648   -4.3188    1.0149 H   0  0  0  0  0  0  0  0  0  0  0  0
   -1.5951   -5.6726    0.7398 H   0  0  0  0  0  0  0  0  0  0  0  0
   -2.0561   -3.5817   -1.2468 H   0  0  0  0  0  0  0  0  0  0  0  0
   -0.6268   -2.9828    1.0959 H   0  0  0  0  0  0  0  0  0  0  0  0
   -1.1791   -1.2924   -1.0630 H   0  0  0  0  0  0  0  0  0  0  0  0
    0.8587   -1.3689   -3.1410 H   0  0  0  0  0  0  0  0  0  0  0  0
   -0.8216   -1.8420   -3.2192 H   0  0  0  0  0  0  0  0  0  0  0  0
   -2.1914    0.9316   -2.2230 H   0  0  0  0  0  0  0  0  0  0  0  0
    0.6177   -0.2946    0.2508 H   0  0  0  0  0  0  0  0  0  0  0  0
   -1.2981    2.8054   -3.9415 H   0  0  0  0  0  0  0  0  0  0  0  0
   -2.3455    3.9926   -5.8234 H   0  0  0  0  0  0  0  0  0  0  0  0
   -4.1496    2.9206   -7.1018 H   0  0  0  0  0  0  0  0  0  0  0  0
   -4.9086    0.6679   -6.5025 H   0  0  0  0  0  0  0  0  0  0  0  0
    1.9304   -6.1817   -2.0000 H   0  0  0  0  0  0  0  0  0  0  0  0
    1.9451   -7.2607   -0.6257 H   0  0  0  0  0  0  0  0  0  0  0  0
    1.1504   -8.4163   -2.6354 H   0  0  0  0  0  0  0  0  0  0  0  0
   -0.1136   -8.3170   -1.4331 H   0  0  0  0  0  0  0  0  0  0  0  0
   -1.9781   -5.5560   -3.2888 H   0  0  0  0  0  0  0  0  0  0  0  0
   -1.3270   -4.7595   -0.9332 H   0  0  0  0  0  0  0  0  0  0  0  0
   -0.8472   -7.6738   -0.3873 H   0  0  0  0  0  0  0  0  0  0  0  0
    0.4364   -6.6731   -1.0034 H   0  0  0  0  0  0  0  0  0  0  0  0
    0.7647   -6.2962    1.1845 H   0  0  0  0  0  0  0  0  0  0  0  0
   -0.4670   -5.0582    0.9023 H   0  0  0  0  0  0  0  0  0  0  0  0
   -0.7260   -7.7332    2.2019 H   0  0  0  0  0  0  0  0  0  0  0  0
   -1.1746   -6.1461    2.8498 H   0  0  0  0  0  0  0  0  0  0  0  0
   -2.5836   -7.8496    0.8422 H   0  0  0  0  0  0  0  0  0  0  0  0
   -3.2193   -7.1662    2.3453 H   0  0  0  0  0  0  0  0  0  0  0  0
  1  2  1  0  0  0  0
  1 54  1  0  0  0  0
  2  3  2  0  0  0  0
  2  4  1  0  0  0  0
  4  5  1  0  0  0  0
  4 55  1  0  0  0  0
  4 56  1  0  0  0  0
  5  6  1  0  0  0  0
  5 57  1  0  0  0  0
  5 58  1  0  0  0  0
  6  7  1  0  0  0  0
  6 59  1  0  0  0  0
  6 60  1  0  0  0  0
  7  8  1  0  0  0  0
  7 61  1  0  0  0  0
  7 62  1  0  0  0  0
  8  9  1  0  0  0  0
  8 63  1  0  0  0  0
  8 64  1  0  0  0  0
  9 10  1  0  0  0  0
  9 65  1  0  0  0  0
  9 66  1  0  0  0  0
 10 11  2  0  0  0  0
 10 67  1  0  0  0  0
 11 68  1  0  0  0  0
 12 11  1  0  0  0  0
 12 13  1  0  0  0  0
 12 16  1  0  0  0  0
 12 69  1  6  0  0  0
 14 13  1  1  0  0  0
 14 15  1  0  0  0  0
 14 36  1  0  0  0  0
 14 51  1  0  0  0  0
 15 16  1  0  0  0  0
 16 17  1  0  0  0  0
 17 18  1  0  0  0  0
 17 70  1  0  0  0  0
 17 71  1  0  0  0  0
 18 19  1  0  0  0  0
 18 72  1  0  0  0  0
 18 73  1  0  0  0  0
 19 20  1  0  0  0  0
 19 74  1  0  0  0  0
 19 75  1  0  0  0  0
 20 21  1  0  0  0  0
 20 76  1  0  0  0  0
 20 77  1  0  0  0  0
 21 22  1  0  0  0  0
 21 37  1  0  0  0  0
 21 78  1  6  0  0  0
 22 23  1  0  0  0  0
 22 79  1  0  0  0  0
 23 24  2  0  0  0  0
 23 25  1  0  0  0  0
 25 26  1  0  0  0  0
 25 29  1  0  0  0  0
 25 80  1  1  0  0  0
 26 27  1  0  0  0  0
 26 81  1  0  0  0  0
 26 82  1  0  0  0  0
 27 28  1  0  0  0  0
 28 29  1  0  0  0  0
 28 30  1  0  0  0  0
 28 83  1  1  0  0  0
 29 84  1  0  0  0  0
 30 31  2  0  0  0  0
 30 35  1  0  0  0  0
 31 32  1  0  0  0  0
 31 85  1  0  0  0  0
 32 33  2  0  0  0  0
 32 86  1  0  0  0  0
 33 34  1  0  0  0  0
 33 87  1  0  0  0  0
 34 35  2  0  0  0  0
 34 88  1  0  0  0  0
 35 36  1  0  0  0  0
 37 38  2  0  0  0  0
 37 39  1  0  0  0  0
 39 40  1  0  0  0  0
 40 41  1  0  0  0  0
 40 89  1  0  0  0  0
 40 90  1  0  0  0  0
 41 42  1  0  0  0  0
 41 91  1  0  0  0  0
 41 92  1  0  0  0  0
 42 43  2  0  0  0  0
 42 44  1  0  0  0  0
 44 93  1  0  0  0  0
 45 44  1  0  0  0  0
 45 46  1  0  0  0  0
 45 52  1  0  0  0  0
 45 94  1  1  0  0  0
 46 47  1  0  0  0  0
 46 95  1  0  0  0  0
 46 96  1  0  0  0  0
 47 48  1  0  0  0  0
 47 97  1  0  0  0  0
 47 98  1  0  0  0  0
 48 49  1  0  0  0  0
 48 99  1  0  0  0  0
 48100  1  0  0  0  0
 49 50  1  0  0  0  0
 49101  1  0  0  0  0
 49102  1  0  0  0  0
 50 51  1  0  0  0  0
 50 52  1  0  0  0  0
 52 53  2  0  0  0  0
M  END
>  <DRUGBANK_ID>
DB04043

>  <SECONDARY_ACCESSION_NUMBERS>
EXPT00952

>  <COMMON_NAME>
Carboxymycobactin T

$$$$
