1062
 OpenBabel10282417113D

 57 58  0  0  1  0  0  0  0  0999 V2000
    1.2282   -0.0075    0.3289 O   0  0  0  0  0  0  0  0  0  0  0  0
   -1.7616    0.1287    0.0902 O   0  0  0  0  0  0  0  0  0  0  0  0
   -1.8698    1.6774    1.6118 O   0  0  0  0  0  0  0  0  0  0  0  0
    1.9102    0.6859   -4.6076 N   0  0  0  0  0  0  0  0  0  0  0  0
    0.9379    0.7741    2.4249 C   0  0  0  0  0  0  0  0  0  0  0  0
    0.5338   -0.6729    2.8012 C   0  0  0  0  0  0  0  0  0  0  0  0
    0.4325    1.8019    3.4349 C   0  0  0  0  0  0  0  0  0  0  0  0
    0.4943    1.0503    0.9684 C   0  0  3  0  0  0  0  0  0  0  0  0
    0.8904   -1.0051    4.2319 C   0  0  0  0  0  0  0  0  0  0  0  0
    0.7691    1.4264    4.8598 C   0  0  0  0  0  0  0  0  0  0  0  0
    0.2876    0.0177    5.1809 C   0  0  0  0  0  0  0  0  0  0  0  0
    0.9862    2.4458    0.5014 C   0  0  0  0  0  0  0  0  0  0  0  0
   -1.1360    0.9887    0.9152 C   0  0  0  0  0  0  0  0  0  0  0  0
    0.1811    3.5821    0.7266 C   0  0  0  0  0  0  0  0  0  0  0  0
    2.2601    2.6773   -0.0473 C   0  0  0  0  0  0  0  0  0  0  0  0
    0.6185    4.8736    0.4591 C   0  0  0  0  0  0  0  0  0  0  0  0
    2.7154    3.9786   -0.2856 C   0  0  0  0  0  0  0  0  0  0  0  0
    1.8901    5.0726   -0.0472 C   0  0  0  0  0  0  0  0  0  0  0  0
   -1.0201   -0.7327   -0.7252 C   0  0  0  0  0  0  0  0  0  0  0  0
   -0.1463    0.0521   -1.6900 C   0  0  0  0  0  0  0  0  0  0  0  0
    1.4772    1.5101   -3.4824 C   0  0  0  0  0  0  0  0  0  0  0  0
    2.6649    1.4762   -5.5902 C   0  0  0  0  0  0  0  0  0  0  0  0
    2.5580   -0.5689   -4.1988 C   0  0  0  0  0  0  0  0  0  0  0  0
    0.6034    0.7253   -2.5176 C   0  0  0  0  0  0  0  0  0  0  0  0
    3.9698    2.1057   -5.1053 C   0  0  0  0  0  0  0  0  0  0  0  0
    3.8154   -0.4380   -3.3443 C   0  0  0  0  0  0  0  0  0  0  0  0
    2.1233    0.2618    0.0963 H   0  0  0  0  0  0  0  0  0  0  0  0
    2.0410    0.8034    2.4519 H   0  0  0  0  0  0  0  0  0  0  0  0
   -0.5440   -0.8105    2.6556 H   0  0  0  0  0  0  0  0  0  0  0  0
    1.0255   -1.4069    2.1485 H   0  0  0  0  0  0  0  0  0  0  0  0
    0.8484    2.7903    3.2174 H   0  0  0  0  0  0  0  0  0  0  0  0
   -0.6511    1.8930    3.3905 H   0  0  0  0  0  0  0  0  0  0  0  0
    0.5173   -2.0073    4.4653 H   0  0  0  0  0  0  0  0  0  0  0  0
    1.9811   -1.0253    4.3371 H   0  0  0  0  0  0  0  0  0  0  0  0
    0.2817    2.1461    5.5248 H   0  0  0  0  0  0  0  0  0  0  0  0
    1.8504    1.5076    5.0104 H   0  0  0  0  0  0  0  0  0  0  0  0
   -0.8070   -0.0214    5.1030 H   0  0  0  0  0  0  0  0  0  0  0  0
    0.5550   -0.2333    6.2092 H   0  0  0  0  0  0  0  0  0  0  0  0
   -0.8061    3.5118    1.1726 H   0  0  0  0  0  0  0  0  0  0  0  0
    2.9456    1.8750   -0.2990 H   0  0  0  0  0  0  0  0  0  0  0  0
   -0.0371    5.7097    0.6862 H   0  0  0  0  0  0  0  0  0  0  0  0
    3.7302    4.1386   -0.6393 H   0  0  0  0  0  0  0  0  0  0  0  0
    2.2360    6.0808   -0.2472 H   0  0  0  0  0  0  0  0  0  0  0  0
   -0.4706   -1.4725   -0.1347 H   0  0  0  0  0  0  0  0  0  0  0  0
   -1.7355   -1.3106   -1.3218 H   0  0  0  0  0  0  0  0  0  0  0  0
    0.8991    2.3758   -3.8278 H   0  0  0  0  0  0  0  0  0  0  0  0
    2.3190    1.9016   -2.9056 H   0  0  0  0  0  0  0  0  0  0  0  0
    2.8674    0.8543   -6.4706 H   0  0  0  0  0  0  0  0  0  0  0  0
    2.0175    2.2849   -5.9555 H   0  0  0  0  0  0  0  0  0  0  0  0
    1.8377   -1.1797   -3.6387 H   0  0  0  0  0  0  0  0  0  0  0  0
    2.7745   -1.1694   -5.0900 H   0  0  0  0  0  0  0  0  0  0  0  0
    4.7590    1.3661   -5.0011 H   0  0  0  0  0  0  0  0  0  0  0  0
    4.3579    2.8203   -5.8324 H   0  0  0  0  0  0  0  0  0  0  0  0
    3.8521    2.6279   -4.1516 H   0  0  0  0  0  0  0  0  0  0  0  0
    3.6969    0.2854   -2.5322 H   0  0  0  0  0  0  0  0  0  0  0  0
    4.0909   -1.3961   -2.9018 H   0  0  0  0  0  0  0  0  0  0  0  0
    4.6762   -0.1520   -3.9422 H   0  0  0  0  0  0  0  0  0  0  0  0
  1  8  1  0  0  0  0
  1 27  1  0  0  0  0
  2 13  1  0  0  0  0
  2 19  1  0  0  0  0
  3 13  2  0  0  0  0
  4 21  1  0  0  0  0
  4 22  1  0  0  0  0
  4 23  1  0  0  0  0
  5  6  1  0  0  0  0
  5  7  1  0  0  0  0
  5  8  1  0  0  0  0
  5 28  1  0  0  0  0
  6  9  1  0  0  0  0
  6 29  1  0  0  0  0
  6 30  1  0  0  0  0
  7 10  1  0  0  0  0
  7 31  1  0  0  0  0
  7 32  1  0  0  0  0
  8 12  1  0  0  0  0
  8 13  1  0  0  0  0
  9 11  1  0  0  0  0
  9 33  1  0  0  0  0
  9 34  1  0  0  0  0
 10 11  1  0  0  0  0
 10 35  1  0  0  0  0
 10 36  1  0  0  0  0
 11 37  1  0  0  0  0
 11 38  1  0  0  0  0
 12 14  2  0  0  0  0
 12 15  1  0  0  0  0
 14 16  1  0  0  0  0
 14 39  1  0  0  0  0
 15 17  2  0  0  0  0
 15 40  1  0  0  0  0
 16 18  2  0  0  0  0
 16 41  1  0  0  0  0
 17 18  1  0  0  0  0
 17 42  1  0  0  0  0
 18 43  1  0  0  0  0
 19 20  1  0  0  0  0
 19 44  1  0  0  0  0
 19 45  1  0  0  0  0
 20 24  3  0  0  0  0
 21 24  1  0  0  0  0
 21 46  1  0  0  0  0
 21 47  1  0  0  0  0
 22 25  1  0  0  0  0
 22 48  1  0  0  0  0
 22 49  1  0  0  0  0
 23 26  1  0  0  0  0
 23 50  1  0  0  0  0
 23 51  1  0  0  0  0
 25 52  1  0  0  0  0
 25 53  1  0  0  0  0
 25 54  1  0  0  0  0
 26 55  1  0  0  0  0
 26 56  1  0  0  0  0
 26 57  1  0  0  0  0
M  END
>  <DRUGBANK_ID>
DB01062

>  <SECONDARY_ACCESSION_NUMBERS>
APRD00427

>  <COMMON_NAME>
Oxybutynin

>  <CAS_NUMBER>
5633-20-5

>  <UNII>
K9P6MC7092

>  <SYNONYMS>
4-(Diethylamino)-2-butynyl alpha-phenylcyclohexaneglycolic acid ester; 4-Diethylamino-2-butinyl alpha-cyclohexylmandelat; 4-Diethylamino-2-butynyl alpha-phenylcyclohexaneglycolate; Oxibutinina; Oxybutynin; Oxybutynine; Oxybutyninum

$$$$
