D1L
 OpenBabel10282417133D

 33 34  0  0  0  0  0  0  0  0999 V2000
    1.1307    0.5163    0.5489 O   0  0  0  0  0  0  0  0  0  0  0  0
    0.4478   -0.2920    1.3991 C   0  0  0  0  0  0  0  0  0  0  0  0
    1.0571   -0.9556    2.2146 O   0  0  0  0  0  0  0  0  0  0  0  0
   -1.0808   -0.3568    1.1177 C   0  0  1  0  0  0  0  0  0  0  0  0
   -1.6461    1.0526    0.9545 C   0  0  0  0  0  0  0  0  0  0  0  0
   -1.6624   -1.2387    0.1367 O   0  0  0  0  0  0  0  0  0  0  0  0
   -1.2989   -1.0530   -1.1669 C   0  0  0  0  0  0  0  0  0  0  0  0
    0.0249   -0.9225   -1.5322 C   0  0  0  0  0  0  0  0  0  0  0  0
    0.3993   -0.5552   -2.8092 C   0  0  0  0  0  0  0  0  0  0  0  0
   -2.2514   -1.0909   -2.1823 C   0  0  0  0  0  0  0  0  0  0  0  0
   -1.8494   -0.9292   -3.5261 C   0  0  0  0  0  0  0  0  0  0  0  0
   -0.5264   -0.5830   -3.8364 C   0  0  0  0  0  0  0  0  0  0  0  0
   -0.2150   -0.2965   -5.1490 O   0  0  0  0  0  0  0  0  0  0  0  0
    1.0857    0.0541   -5.4693 C   0  0  0  0  0  0  0  0  0  0  0  0
    2.1459   -0.8448   -5.2705 C   0  0  0  0  0  0  0  0  0  0  0  0
    3.4505   -0.4888   -5.6191 C   0  0  0  0  0  0  0  0  0  0  0  0
    3.6856    0.7290   -6.2523 C   0  0  0  0  0  0  0  0  0  0  0  0
    5.2949    1.1737   -6.6687 Cl  0  0  0  0  0  0  0  0  0  0  0  0
    2.6333    1.6030   -6.5183 C   0  0  0  0  0  0  0  0  0  0  0  0
    1.3436    1.2899   -6.0753 C   0  0  0  0  0  0  0  0  0  0  0  0
    0.1175    2.4962   -6.2167 Cl  0  0  0  0  0  0  0  0  0  0  0  0
   -1.4817   -0.7260    2.0728 H   0  0  0  0  0  0  0  0  0  0  0  0
    2.0494    0.1706    0.5372 H   0  0  0  0  0  0  0  0  0  0  0  0
   -1.3360    1.4893   -0.0002 H   0  0  0  0  0  0  0  0  0  0  0  0
   -2.7402    1.0266    0.9567 H   0  0  0  0  0  0  0  0  0  0  0  0
   -1.3014    1.7140    1.7556 H   0  0  0  0  0  0  0  0  0  0  0  0
    0.8220   -1.1195   -0.8399 H   0  0  0  0  0  0  0  0  0  0  0  0
    1.4413   -0.3035   -2.9518 H   0  0  0  0  0  0  0  0  0  0  0  0
   -3.3002   -1.2574   -1.9467 H   0  0  0  0  0  0  0  0  0  0  0  0
   -2.5759   -1.0703   -4.3232 H   0  0  0  0  0  0  0  0  0  0  0  0
    1.9691   -1.8031   -4.7874 H   0  0  0  0  0  0  0  0  0  0  0  0
    4.2720   -1.1677   -5.4028 H   0  0  0  0  0  0  0  0  0  0  0  0
    2.8198    2.5285   -7.0567 H   0  0  0  0  0  0  0  0  0  0  0  0
  1  2  1  0  0  0  0
  1 23  1  0  0  0  0
  2  3  2  0  0  0  0
  2  4  1  0  0  0  0
  4  5  1  0  0  0  0
  4  6  1  0  0  0  0
  4 22  1  1  0  0  0
  5 24  1  0  0  0  0
  5 25  1  0  0  0  0
  5 26  1  0  0  0  0
  6  7  1  0  0  0  0
  7  8  2  0  0  0  0
  7 10  1  0  0  0  0
  8  9  1  0  0  0  0
  8 27  1  0  0  0  0
  9 12  2  0  0  0  0
  9 28  1  0  0  0  0
 10 11  2  0  0  0  0
 10 29  1  0  0  0  0
 11 12  1  0  0  0  0
 11 30  1  0  0  0  0
 12 13  1  0  0  0  0
 13 14  1  0  0  0  0
 14 15  2  0  0  0  0
 14 20  1  0  0  0  0
 15 16  1  0  0  0  0
 15 31  1  0  0  0  0
 16 17  2  0  0  0  0
 16 32  1  0  0  0  0
 17 18  1  0  0  0  0
 17 19  1  0  0  0  0
 19 20  2  0  0  0  0
 19 33  1  0  0  0  0
 20 21  1  0  0  0  0
M  END
>  <DRUGBANK_ID>
DB03781

>  <SECONDARY_ACCESSION_NUMBERS>
EXPT01094

>  <COMMON_NAME>
2-[4-(2,4-Dichlorophenoxy)Phenoxy]Propanoic Acid

>  <UNII>
AAN3U3U7X5

$$$$
