
 OpenBabel10282417173D

 47 49  0  0  0  0  0  0  0  0999 V2000
    1.3958   -0.4051   -0.1439 C   0  0  0  0  0  0  0  0  0  0  0  0
   -1.3515    0.0852    3.2587 C   0  0  0  0  0  0  0  0  0  0  0  0
    0.3797   -1.3618   -0.1983 C   0  0  0  0  0  0  0  0  0  0  0  0
    1.0292    0.8745   -0.4617 C   0  0  0  0  0  0  0  0  0  0  0  0
   -2.7597    0.0337    2.8025 C   0  0  0  0  0  0  0  0  0  0  0  0
   -0.9302    1.5760    3.2249 C   0  0  0  0  0  0  0  0  0  0  0  0
   -1.0315   -1.0592   -0.5301 C   0  0  0  0  0  0  0  0  0  0  0  0
   -0.3260    1.1597   -0.8118 C   0  0  0  0  0  0  0  0  0  0  0  0
   -4.0899    3.0778    1.4222 C   0  0  0  0  0  0  0  0  0  0  0  0
   -5.3227    1.0498    1.3946 C   0  0  0  0  0  0  0  0  0  0  0  0
   -4.2227    3.3490    2.8148 C   0  0  0  0  0  0  0  0  0  0  0  0
   -5.5958    1.4406    2.8230 C   0  0  0  0  0  0  0  0  0  0  0  0
   -2.5732    0.5986    1.4356 C   0  0  0  0  0  0  0  0  0  0  0  0
   -0.9103    2.3341    1.8633 C   0  0  0  0  0  0  0  0  0  0  0  0
   -2.3473    3.0829   -0.3905 C   0  0  0  0  0  0  0  0  0  0  0  0
   -2.4343    2.6624   -1.8907 C   0  0  0  0  0  0  0  0  0  0  0  0
   -1.5119    0.2784   -0.8399 C   0  0  0  0  0  0  0  0  0  0  0  0
   -4.4517    1.7853    0.5682 C   0  0  0  0  0  0  0  0  0  0  0  0
   -5.0385    2.5616    3.5009 C   0  0  0  0  0  0  0  0  0  0  0  0
   -3.3120    0.8966   -0.7967 C   0  0  3  0  0  0  0  0  0  0  0  0
   -5.2801    2.9122    5.1727 Cl  0  0  0  0  0  0  0  0  0  0  0  0
   -2.0286    2.0315    1.0139 N   0  0  0  0  0  0  0  0  0  0  0  0
   -3.3900    1.6206   -2.0128 O   0  0  0  0  0  0  0  0  0  0  0  0
    2.4155   -0.6068    0.1841 H   0  0  0  0  0  0  0  0  0  0  0  0
   -1.3105   -0.3936    4.2284 H   0  0  0  0  0  0  0  0  0  0  0  0
   -0.7276   -0.5216    2.5810 H   0  0  0  0  0  0  0  0  0  0  0  0
    0.6848   -2.3697    0.1046 H   0  0  0  0  0  0  0  0  0  0  0  0
    1.7234    1.7039   -0.2885 H   0  0  0  0  0  0  0  0  0  0  0  0
   -3.1693   -0.9901    2.6744 H   0  0  0  0  0  0  0  0  0  0  0  0
   -3.4453    0.5405    3.4660 H   0  0  0  0  0  0  0  0  0  0  0  0
   -1.5843    2.1237    3.9081 H   0  0  0  0  0  0  0  0  0  0  0  0
    0.0951    1.5829    3.5737 H   0  0  0  0  0  0  0  0  0  0  0  0
   -1.7121   -1.8735   -0.2965 H   0  0  0  0  0  0  0  0  0  0  0  0
   -0.3985    2.2416   -0.7882 H   0  0  0  0  0  0  0  0  0  0  0  0
   -3.3476    3.8468    1.2002 H   0  0  0  0  0  0  0  0  0  0  0  0
   -5.6432    0.0379    1.1457 H   0  0  0  0  0  0  0  0  0  0  0  0
   -3.5312    4.0756    3.2900 H   0  0  0  0  0  0  0  0  0  0  0  0
   -6.0764    0.7234    3.4757 H   0  0  0  0  0  0  0  0  0  0  0  0
   -1.7850   -0.0360    1.1419 H   0  0  0  0  0  0  0  0  0  0  0  0
   -3.3752    0.0338    0.9476 H   0  0  0  0  0  0  0  0  0  0  0  0
   -0.8003    3.4159    1.9638 H   0  0  0  0  0  0  0  0  0  0  0  0
   -0.0039    1.9847    1.3998 H   0  0  0  0  0  0  0  0  0  0  0  0
   -1.8351    4.0389   -0.2371 H   0  0  0  0  0  0  0  0  0  0  0  0
   -3.4003    3.4619   -0.4546 H   0  0  0  0  0  0  0  0  0  0  0  0
   -1.4702    2.4035   -2.3113 H   0  0  0  0  0  0  0  0  0  0  0  0
   -2.7710    3.4661   -2.5552 H   0  0  0  0  0  0  0  0  0  0  0  0
   -3.8419   -0.0592   -0.9470 H   0  0  0  0  0  0  0  0  0  0  0  0
  1 24  1  0  0  0  0
  2 25  1  0  0  0  0
  2 26  1  0  0  0  0
  3  1  2  0  0  0  0
  3 27  1  0  0  0  0
  4  1  1  0  0  0  0
  4 28  1  0  0  0  0
  5  2  1  0  0  0  0
  5 29  1  0  0  0  0
  5 30  1  0  0  0  0
  6  2  1  0  0  0  0
  6 31  1  0  0  0  0
  6 32  1  0  0  0  0
  7  3  1  0  0  0  0
  7 33  1  0  0  0  0
  8  4  2  0  0  0  0
  8 34  1  0  0  0  0
  9 35  1  0  0  0  0
 10 36  1  0  0  0  0
 11  9  1  0  0  0  0
 11 37  1  0  0  0  0
 12 10  2  0  0  0  0
 12 38  1  0  0  0  0
 13  5  1  0  0  0  0
 13 39  1  0  0  0  0
 13 40  1  0  0  0  0
 14  6  1  0  0  0  0
 14 41  1  0  0  0  0
 14 42  1  0  0  0  0
 15 43  1  0  0  0  0
 15 44  1  0  0  0  0
 16 15  1  0  0  0  0
 16 45  1  0  0  0  0
 16 46  1  0  0  0  0
 17  7  2  0  0  0  0
 17  8  1  0  0  0  0
 18  9  2  0  0  0  0
 18 10  1  0  0  0  0
 19 11  2  0  0  0  0
 19 12  1  0  0  0  0
 20 17  1  0  0  0  0
 20 18  1  0  0  0  0
 20 47  1  0  0  0  0
 21 19  1  0  0  0  0
 22 13  1  0  0  0  0
 22 14  1  0  0  0  0
 22 15  1  0  0  0  0
 23 16  1  0  0  0  0
 23 20  1  0  0  0  0
M  END
>  <DRUGBANK_ID>
DB09002

>  <COMMON_NAME>
Cloperastine

>  <CAS_NUMBER>
3703-76-2

>  <UNII>
69M5L7BXEK

>  <SYNONYMS>
Cloperastina; Cloperastine

$$$$
