TUN
 OpenBabel10282417173D

 27 26  0  0  0  0  0  0  0  0999 V2000
    1.2983    5.0054    2.5075 C   0  0  0  0  0  0  0  0  0  0  0  0
    1.7199    4.6286    1.1054 C   0  0  0  0  0  0  0  0  0  0  0  0
    2.8903    3.7761    1.1179 O   0  0  0  0  0  0  0  0  0  0  0  0
    2.7629    2.1099    1.2810 P   0  0  2  0  0  0  0  0  0  0  0  0
    1.2145    2.1099    1.2810 O   0  0  0  0  0  0  0  0  0  0  0  0
    2.7307    1.8386    3.0071 N   0  0  0  0  0  0  0  0  0  0  0  0
    3.6507    2.3581    4.0074 C   0  0  0  0  0  0  0  0  0  0  0  0
    3.5401    3.8474    4.2729 C   0  0  0  0  0  0  0  0  0  0  0  0
    1.4425    1.3179    3.6115 C   0  0  0  0  0  0  0  0  0  0  0  0
    0.2259    2.2611    3.8106 C   0  0  0  0  0  0  0  0  0  0  0  0
    4.4929    2.1099    1.2810 O   0  0  0  0  0  0  0  0  0  0  0  0
    1.4382    4.1246    3.1182 H   0  0  0  0  0  0  0  0  0  0  0  0
    0.2592    5.2981    2.6240 H   0  0  0  0  0  0  0  0  0  0  0  0
    1.9443    5.7722    2.9437 H   0  0  0  0  0  0  0  0  0  0  0  0
    0.8806    4.1735    0.5657 H   0  0  0  0  0  0  0  0  0  0  0  0
    1.9584    5.5509    0.5651 H   0  0  0  0  0  0  0  0  0  0  0  0
    3.5192    1.8368    4.9719 H   0  0  0  0  0  0  0  0  0  0  0  0
    4.6829    2.1307    3.7341 H   0  0  0  0  0  0  0  0  0  0  0  0
    2.5776    4.0882    4.7336 H   0  0  0  0  0  0  0  0  0  0  0  0
    4.3055    4.2167    4.9487 H   0  0  0  0  0  0  0  0  0  0  0  0
    3.6718    4.4039    3.3380 H   0  0  0  0  0  0  0  0  0  0  0  0
    1.1042    0.4731    3.0105 H   0  0  0  0  0  0  0  0  0  0  0  0
    1.6471    0.8728    4.6012 H   0  0  0  0  0  0  0  0  0  0  0  0
   -0.1262    2.7444    2.8870 H   0  0  0  0  0  0  0  0  0  0  0  0
   -0.6534    1.7047    4.1546 H   0  0  0  0  0  0  0  0  0  0  0  0
    0.4228    3.0410    4.5433 H   0  0  0  0  0  0  0  0  0  0  0  0
    4.7738    2.8139    1.8879 H   0  0  0  0  0  0  0  0  0  0  0  0
  1  2  1  0  0  0  0
  1 12  1  0  0  0  0
  1 13  1  0  0  0  0
  1 14  1  0  0  0  0
  2  3  1  0  0  0  0
  2 15  1  0  0  0  0
  2 16  1  0  0  0  0
  4  6  1  0  0  0  0
  4 11  1  0  0  0  0
  4  5  2  6  0  0  0
  4  3  1  0  0  0  0
  6  7  1  0  0  0  0
  6  9  1  0  0  0  0
  7  8  1  0  0  0  0
  7 17  1  0  0  0  0
  7 18  1  0  0  0  0
  8 19  1  0  0  0  0
  8 20  1  0  0  0  0
  8 21  1  0  0  0  0
  9 10  1  0  0  0  0
  9 22  1  0  0  0  0
  9 23  1  0  0  0  0
 10 24  1  0  0  0  0
 10 25  1  0  0  0  0
 10 26  1  0  0  0  0
 11 27  1  0  0  0  0
M  END
>  <DRUGBANK_ID>
DB08658

>  <COMMON_NAME>
Ethyl hydrogen diethylamidophosphate

$$$$
