
 OpenBabel10282417183D

 33 33  0  0  0  0  0  0  0  0999 V2000
    0.9705    0.0449   -0.0050 C   0  0  0  0  0  0  0  0  0  0  0  0
    2.4197   -3.5306   -3.6687 C   0  0  0  0  0  0  0  0  0  0  0  0
    0.5857    0.1536   -1.4785 C   0  0  0  0  0  0  0  0  0  0  0  0
   -0.0060   -3.0123   -5.1921 C   0  0  0  0  0  0  0  0  0  0  0  0
    0.3657   -3.0172   -6.5367 C   0  0  0  0  0  0  0  0  0  0  0  0
    0.3019   -0.6545   -5.1670 C   0  0  0  0  0  0  0  0  0  0  0  0
   -0.0149   -1.7720   -2.9260 C   0  0  0  0  0  0  0  0  0  0  0  0
    3.4132   -0.3456   -1.9751 C   0  0  0  0  0  0  0  0  0  0  0  0
    0.0516   -1.8159   -4.4478 C   0  0  0  0  0  0  0  0  0  0  0  0
    0.6160   -1.7986   -7.1343 C   0  0  0  0  0  0  0  0  0  0  0  0
    2.5091   -1.2527   -2.4470 C   0  0  0  0  0  0  0  0  0  0  0  0
    1.0246   -1.7073   -8.7964 Cl  0  0  0  0  0  0  0  0  0  0  0  0
    3.0106   -2.4122   -3.0205 N   0  0  0  0  0  0  0  0  0  0  0  0
    0.5577   -0.6134   -6.4960 N   0  0  0  0  0  0  0  0  0  0  0  0
    1.0975   -0.9791   -2.3028 N   0  0  0  0  0  0  0  0  0  0  0  0
    4.8526   -0.5355   -2.0013 N   0  0  0  0  0  0  0  0  0  0  0  0
    5.5113    0.3187   -1.3804 O   0  0  0  0  0  0  0  0  0  0  0  0
    5.3523   -1.4809   -2.6186 O   0  0  0  0  0  0  0  0  0  0  0  0
    3.2060    0.5890   -1.4886 H   0  0  0  0  0  0  0  0  0  0  0  0
    0.5817   -0.8758    0.4377 H   0  0  0  0  0  0  0  0  0  0  0  0
    0.5702    0.8999    0.5497 H   0  0  0  0  0  0  0  0  0  0  0  0
    2.0486    0.0473    0.1665 H   0  0  0  0  0  0  0  0  0  0  0  0
    2.5315   -3.4323   -4.7532 H   0  0  0  0  0  0  0  0  0  0  0  0
    2.8546   -4.4773   -3.3559 H   0  0  0  0  0  0  0  0  0  0  0  0
    1.3959   -3.6444   -3.3703 H   0  0  0  0  0  0  0  0  0  0  0  0
   -0.5099    0.2048   -1.5128 H   0  0  0  0  0  0  0  0  0  0  0  0
    0.9309    1.1017   -1.9073 H   0  0  0  0  0  0  0  0  0  0  0  0
   -0.1685   -3.9753   -4.7085 H   0  0  0  0  0  0  0  0  0  0  0  0
    0.5106   -3.9474   -7.0773 H   0  0  0  0  0  0  0  0  0  0  0  0
    0.3557    0.3060   -4.6632 H   0  0  0  0  0  0  0  0  0  0  0  0
   -0.0367   -2.7646   -2.4602 H   0  0  0  0  0  0  0  0  0  0  0  0
   -1.0027   -1.3667   -2.6679 H   0  0  0  0  0  0  0  0  0  0  0  0
    4.0238   -2.3937   -3.1847 H   0  0  0  0  0  0  0  0  0  0  0  0
  1 20  1  0  0  0  0
  1 21  1  0  0  0  0
  1 22  1  0  0  0  0
  2 23  1  0  0  0  0
  2 24  1  0  0  0  0
  2 25  1  0  0  0  0
  3  1  1  0  0  0  0
  3 26  1  0  0  0  0
  3 27  1  0  0  0  0
  4 28  1  0  0  0  0
  5  4  2  0  0  0  0
  5 29  1  0  0  0  0
  6 30  1  0  0  0  0
  7 31  1  0  0  0  0
  7 32  1  0  0  0  0
  9  4  1  0  0  0  0
  9  6  2  0  0  0  0
  9  7  1  0  0  0  0
 10  5  1  0  0  0  0
 11  8  2  0  0  0  0
 12 10  1  0  0  0  0
 13  2  1  0  0  0  0
 13 11  1  0  0  0  0
 13 33  1  0  0  0  0
 14  6  1  0  0  0  0
 14 10  2  0  0  0  0
 15  3  1  0  0  0  0
 15  7  1  0  0  0  0
 15 11  1  0  0  0  0
 16  8  1  0  0  0  0
 17 16  2  0  0  0  0
 18 16  2  0  0  0  0
 19  8  1  0  0  0  0
M  END
>  <DRUGBANK_ID>
DB11438

>  <COMMON_NAME>
Nitenpyram

>  <CAS_NUMBER>
150824-47-8

>  <UNII>
3A837VZ81Y

>  <SYNONYMS>
(1E)-N-((6-chloro-3-pyridinyl)methyl)-N-ethyl-N'-methyl-2-nitro-1,1-ethenediamine; (E)-nitenpyram

$$$$
