
 OpenBabel10282417113D

 43 45  0  0  0  0  0  0  0  0999 V2000
    0.8884    1.3635    0.7495 C   0  0  0  0  0  0  0  0  0  0  0  0
    0.9271    1.3779   -0.7905 C   0  0  0  0  0  0  0  0  0  0  0  0
    0.4253   -1.0430   -1.2821 C   0  0  0  0  0  0  0  0  0  0  0  0
   -1.0603    0.5814   -0.0684 N   0  0  0  0  0  0  0  0  0  0  0  0
   -2.3061   -0.1361   -0.2176 C   0  0  0  0  0  0  0  0  0  0  0  0
    1.0446   -1.5712    0.0375 C   0  0  1  0  0  0  0  0  0  0  0  0
    0.3235   -1.0868    1.3182 C   0  0  2  0  0  0  0  0  0  0  0  0
   -0.4235   -2.8744    2.8261 O   0  0  0  0  0  0  0  0  0  0  0  0
   -0.6802   -2.1072    1.9087 C   0  0  0  0  0  0  0  0  0  0  0  0
   -1.8310   -2.1207    1.2227 O   0  0  0  0  0  0  0  0  0  0  0  0
   -2.7907   -3.1895    1.1445 C   0  0  0  0  0  0  0  0  0  0  0  0
    1.3121   -2.9992    0.0728 O   0  0  0  0  0  0  0  0  0  0  0  0
   -0.7848   -3.4422   -0.7619 O   0  0  0  0  0  0  0  0  0  0  0  0
    0.2845   -3.8023   -0.2722 C   0  0  0  0  0  0  0  0  0  0  0  0
    0.4416   -5.2253   -0.0129 C   0  0  0  0  0  0  0  0  0  0  0  0
   -0.4235   -7.4237   -0.5347 C   0  0  0  0  0  0  0  0  0  0  0  0
    0.5027   -7.9652    0.3490 C   0  0  0  0  0  0  0  0  0  0  0  0
    1.3389   -7.1345    1.1080 C   0  0  0  0  0  0  0  0  0  0  0  0
    1.2945   -5.7495    0.9513 C   0  0  0  0  0  0  0  0  0  0  0  0
   -0.4294   -6.0575   -0.7376 C   0  0  0  0  0  0  0  0  0  0  0  0
   -0.2334    0.3526    1.1275 C   0  0  1  0  0  0  0  0  0  0  0  0
   -0.7246    0.6777    2.0520 H   0  0  0  0  0  0  0  0  0  0  0  0
   -0.1426    0.3819   -1.1904 C   0  0  1  0  0  0  0  0  0  0  0  0
   -0.6190    0.6460   -2.1402 H   0  0  0  0  0  0  0  0  0  0  0  0
    0.6261    2.3725    1.0963 H   0  0  0  0  0  0  0  0  0  0  0  0
    1.8692    1.1182    1.1680 H   0  0  0  0  0  0  0  0  0  0  0  0
    1.9109    1.1171   -1.1901 H   0  0  0  0  0  0  0  0  0  0  0  0
    0.6604    2.3732   -1.1682 H   0  0  0  0  0  0  0  0  0  0  0  0
   -0.3809   -1.6669   -1.6514 H   0  0  0  0  0  0  0  0  0  0  0  0
    1.1732   -1.1100   -2.0814 H   0  0  0  0  0  0  0  0  0  0  0  0
   -2.1395   -1.1510   -0.5726 H   0  0  0  0  0  0  0  0  0  0  0  0
   -2.8846   -0.1226    0.7151 H   0  0  0  0  0  0  0  0  0  0  0  0
   -2.9474    0.2867   -0.9919 H   0  0  0  0  0  0  0  0  0  0  0  0
    2.0520   -1.1221    0.0625 H   0  0  0  0  0  0  0  0  0  0  0  0
    1.0997   -1.0280    2.0999 H   0  0  0  0  0  0  0  0  0  0  0  0
   -2.3314   -4.1791    1.1563 H   0  0  0  0  0  0  0  0  0  0  0  0
   -3.5318   -3.0572    1.9280 H   0  0  0  0  0  0  0  0  0  0  0  0
   -3.3081   -3.0812    0.1763 H   0  0  0  0  0  0  0  0  0  0  0  0
   -1.1333   -8.0492   -1.0676 H   0  0  0  0  0  0  0  0  0  0  0  0
    0.5682   -9.0440    0.4488 H   0  0  0  0  0  0  0  0  0  0  0  0
    2.0198   -7.5742    1.8314 H   0  0  0  0  0  0  0  0  0  0  0  0
    1.8970   -5.1007    1.5814 H   0  0  0  0  0  0  0  0  0  0  0  0
   -1.1258   -5.6256   -1.4568 H   0  0  0  0  0  0  0  0  0  0  0  0
  1  2  1  0  0  0  0
  1 25  1  0  0  0  0
  1 26  1  0  0  0  0
  2 23  1  0  0  0  0
  2 27  1  0  0  0  0
  2 28  1  0  0  0  0
  3  6  1  0  0  0  0
  3 29  1  0  0  0  0
  3 30  1  0  0  0  0
  4  5  1  0  0  0  0
  5 31  1  0  0  0  0
  5 32  1  0  0  0  0
  5 33  1  0  0  0  0
  6  7  1  0  0  0  0
  6 12  1  0  0  0  0
  6 34  1  1  0  0  0
  7 21  1  0  0  0  0
  7  9  1  0  0  0  0
  7 35  1  1  0  0  0
  9  8  2  0  0  0  0
  9 10  1  0  0  0  0
 10 11  1  0  0  0  0
 11 36  1  0  0  0  0
 11 37  1  0  0  0  0
 11 38  1  0  0  0  0
 12 14  1  0  0  0  0
 14 13  2  0  0  0  0
 14 15  1  0  0  0  0
 15 20  1  0  0  0  0
 16 17  1  0  0  0  0
 16 39  1  0  0  0  0
 17 18  2  0  0  0  0
 17 40  1  0  0  0  0
 18 19  1  0  0  0  0
 18 41  1  0  0  0  0
 19 15  2  0  0  0  0
 19 42  1  0  0  0  0
 20 16  2  0  0  0  0
 20 43  1  0  0  0  0
 21  1  1  0  0  0  0
 21  4  1  0  0  0  0
 21 22  1  1  0  0  0
 23  3  1  0  0  0  0
 23  4  1  0  0  0  0
 23 24  1  6  0  0  0
M  END
>  <DRUGBANK_ID>
DB00907

>  <SECONDARY_ACCESSION_NUMBERS>
APRD00080

>  <COMMON_NAME>
Cocaine

>  <CAS_NUMBER>
50-36-2

>  <UNII>
I5Y540LHVR

>  <SYNONYMS>
(-)-Cocaine; (−)-cocaine; [1R-(exo,exo)]-3-(benzoyloxy)-8-methyl-8-azabicyclo[3.2.1]octane-2-carboxylic acid, methyl ester; 2-methyl-3β-hydroxy-1αH,5αH-tropane-2β-carboxylate benzoate (ester); Benzoylmethylecgonine; beta-Cocain; Cocain; Cocaina; Cocaine; Cocainum; Kokain; L-Cocain; L-Cocaine; methyl [1R-(exo,exo)]-3-(benzoyloxy)-8-methyl-8-azabicyclo[3.2.1]octane-2-carboxylate; Methyl benzoylecgonine; Neurocaine

$$$$
