
 OpenBabel10282417203D

 54 61  0  0  0  0  0  0  0  0999 V2000
   -1.8022    0.2965    0.0644 C   0  0  0  0  0  0  0  0  0  0  0  0
   -2.3931   -0.9966    0.1190 C   0  0  0  0  0  0  0  0  0  0  0  0
   -1.5249   -2.2463    0.2010 C   0  0  0  0  0  0  0  0  0  0  0  0
   -0.1121   -2.1075    0.4705 C   0  0  0  0  0  0  0  0  0  0  0  0
    0.4527   -0.7638    0.3118 C   0  0  0  0  0  0  0  0  0  0  0  0
   -0.3588    0.4908    0.1394 C   0  0  0  0  0  0  0  0  0  0  0  0
    0.1515    1.9290    0.1238 C   0  0  0  0  0  0  0  0  0  0  0  0
    1.8604   -0.6068    0.2485 C   0  0  0  0  0  0  0  0  0  0  0  0
    2.3278    0.9135    0.2043 C   0  0  0  0  0  0  0  0  0  0  0  0
    1.5589    2.3828    0.2915 C   0  0  0  0  0  0  0  0  0  0  0  0
   -1.9596   -3.6477   -0.0597 C   0  0  0  0  0  0  0  0  0  0  0  0
   -3.8869   -0.9663    0.1423 C   0  0  0  0  0  0  0  0  0  0  0  0
   -4.7191   -2.1525    0.4591 C   0  0  0  0  0  0  0  0  0  0  0  0
   -3.3346   -4.0744   -0.4367 C   0  0  0  0  0  0  0  0  0  0  0  0
    3.7253    0.9449    0.0561 C   0  0  0  0  0  0  0  0  0  0  0  0
    2.0057    4.0206    0.4264 C   0  0  0  0  0  0  0  0  0  0  0  0
    1.6155    5.6755    0.3523 O   0  0  0  0  0  0  0  0  0  0  0  0
    4.2633    2.2061   -0.0196 O   0  0  0  0  0  0  0  0  0  0  0  0
    4.1277   -1.6001    0.0845 C   0  0  0  0  0  0  0  0  0  0  0  0
    4.5523   -0.2317    0.0049 C   0  0  0  0  0  0  0  0  0  0  0  0
    2.7627   -1.8681    0.2484 C   0  0  0  0  0  0  0  0  0  0  0  0
    2.1646   -3.3982    0.4896 C   0  0  0  0  0  0  0  0  0  0  0  0
    0.6569   -3.3531    0.6244 C   0  0  0  0  0  0  0  0  0  0  0  0
    0.1930   -4.3932   -0.1678 C   0  0  0  0  0  0  0  0  0  0  0  0
   -1.1201   -4.7333   -0.1164 C   0  0  0  0  0  0  0  0  0  0  0  0
    0.9424    4.4848   -0.3106 C   0  0  0  0  0  0  0  0  0  0  0  0
   -0.4080    4.2896   -0.0482 C   0  0  0  0  0  0  0  0  0  0  0  0
   -0.7707    3.0000    0.0311 C   0  0  0  0  0  0  0  0  0  0  0  0
   -2.2212    2.7816    0.0061 C   0  0  0  0  0  0  0  0  0  0  0  0
   -2.7259    1.4251   -0.0074 C   0  0  0  0  0  0  0  0  0  0  0  0
   -4.1412    1.3395   -0.0354 C   0  0  0  0  0  0  0  0  0  0  0  0
   -4.7191    0.1307   -0.0001 C   0  0  0  0  0  0  0  0  0  0  0  0
    5.0999   -2.5697    0.0386 O   0  0  0  0  0  0  0  0  0  0  0  0
    0.4971   -3.7834   -1.5360 O   0  0  0  0  0  0  0  0  0  0  0  0
   -1.1952    5.4093    0.0045 O   0  0  0  0  0  0  0  0  0  0  0  0
   -4.9873    2.4117   -0.0297 O   0  0  0  0  0  0  0  0  0  0  0  0
   -2.9797    3.7386   -0.0031 O   0  0  0  0  0  0  0  0  0  0  0  0
    2.6663   -4.5237    0.3490 O   0  0  0  0  0  0  0  0  0  0  0  0
   -5.4963   -2.2473    1.2099 H   0  0  0  0  0  0  0  0  0  0  0  0
   -5.1470   -2.5475   -0.4787 H   0  0  0  0  0  0  0  0  0  0  0  0
   -3.9663   -2.6606    1.0326 H   0  0  0  0  0  0  0  0  0  0  0  0
   -3.6061   -4.8301   -1.1699 H   0  0  0  0  0  0  0  0  0  0  0  0
   -3.8624   -4.3583    0.4893 H   0  0  0  0  0  0  0  0  0  0  0  0
   -3.5897   -3.2150   -1.0386 H   0  0  0  0  0  0  0  0  0  0  0  0
    2.0629    6.5335    0.1374 H   0  0  0  0  0  0  0  0  0  0  0  0
    5.2332    2.2510   -0.0015 H   0  0  0  0  0  0  0  0  0  0  0  0
    5.6228   -0.0291   -0.0405 H   0  0  0  0  0  0  0  0  0  0  0  0
   -1.5136   -5.7457   -0.0710 H   0  0  0  0  0  0  0  0  0  0  0  0
    1.3456    4.0471   -1.2114 H   0  0  0  0  0  0  0  0  0  0  0  0
   -5.7985    0.0018    0.0140 H   0  0  0  0  0  0  0  0  0  0  0  0
    5.9825   -2.1512   -0.0085 H   0  0  0  0  0  0  0  0  0  0  0  0
    1.0632   -2.9960   -1.3504 H   0  0  0  0  0  0  0  0  0  0  0  0
   -0.6277    6.1934    0.0045 H   0  0  0  0  0  0  0  0  0  0  0  0
   -5.9173    2.1419   -0.0010 H   0  0  0  0  0  0  0  0  0  0  0  0
  1 30  2  0  0  0  0
  2  1  1  0  0  0  0
  2 12  2  0  0  0  0
  3  2  1  0  0  0  0
  3 11  2  0  0  0  0
  4  3  1  0  0  0  0
  5  4  1  0  0  0  0
  5  6  2  0  0  0  0
  6  1  1  0  0  0  0
  6  7  1  0  0  0  0
  8  5  1  0  0  0  0
  8 21  2  0  0  0  0
  9 10  1  0  0  0  0
  9  8  1  0  0  0  0
 10 16  2  0  0  0  0
 10  7  1  0  0  0  0
 11 14  1  0  0  0  0
 11 25  1  0  0  0  0
 12 13  1  0  0  0  0
 13 39  1  0  0  0  0
 13 40  1  0  0  0  0
 13 41  1  0  0  0  0
 14 42  1  0  0  0  0
 14 43  1  0  0  0  0
 14 44  1  0  0  0  0
 15  9  2  0  0  0  0
 15 18  1  0  0  0  0
 16 17  1  0  0  0  0
 16 26  1  0  0  0  0
 17 45  1  0  0  0  0
 18 46  1  0  0  0  0
 19 21  1  0  0  0  0
 19 20  2  0  0  0  0
 19 33  1  0  0  0  0
 20 15  1  0  0  0  0
 20 47  1  0  0  0  0
 22 21  1  0  0  0  0
 22 23  1  0  0  0  0
 22 38  2  0  0  0  0
 23  4  2  0  0  0  0
 24 23  1  0  0  0  0
 24 25  2  0  0  0  0
 24 34  1  0  0  0  0
 25 48  1  0  0  0  0
 26 27  2  0  0  0  0
 26 49  1  0  0  0  0
 27 28  1  0  0  0  0
 27 35  1  0  0  0  0
 28  7  2  0  0  0  0
 28 29  1  0  0  0  0
 29 30  1  0  0  0  0
 29 37  2  0  0  0  0
 30 31  1  0  0  0  0
 31 32  2  0  0  0  0
 31 36  1  0  0  0  0
 32 12  1  0  0  0  0
 32 50  1  0  0  0  0
 33 51  1  0  0  0  0
 34 52  1  0  0  0  0
 35 53  1  0  0  0  0
 36 54  1  0  0  0  0
M  END
>  <DRUGBANK_ID>
DB13014

>  <COMMON_NAME>
Hypericin

>  <CAS_NUMBER>
548-04-9

>  <UNII>
7V2F1075HD

>  <SYNONYMS>
Hipericina; Hypericin; Hyp√©ricine; Hypericum red; Hyperizin

$$$$
