
 OpenBabel10282417173D

 25 25  0  0  0  0  0  0  0  0999 V2000
    1.3781   -0.2116    0.0072 C   0  0  0  0  0  0  0  0  0  0  0  0
    0.5009   -1.2966    0.0292 C   0  0  0  0  0  0  0  0  0  0  0  0
   -0.8845   -1.0872    0.0424 C   0  0  0  0  0  0  0  0  0  0  0  0
   -1.3748    0.2268    0.0108 C   0  0  0  0  0  0  0  0  0  0  0  0
   -0.4968    1.3093    0.0247 C   0  0  0  0  0  0  0  0  0  0  0  0
    0.8787    1.0897   -0.0070 C   0  0  0  0  0  0  0  0  0  0  0  0
   -1.8387   -2.2508    0.0836 C   0  0  0  0  0  0  0  0  0  0  0  0
   -2.7143   -2.1692    1.2415 N   0  0  0  0  0  0  0  0  0  0  0  0
   -4.0757   -2.1060    1.0770 C   0  0  0  0  0  0  0  0  0  0  0  0
   -4.9095   -1.9707    2.3347 C   0  0  0  0  0  0  0  0  0  0  0  0
   -5.7433   -0.6946    2.3388 C   0  0  0  0  0  0  0  0  0  0  0  0
   -6.9450   -0.6081    1.0265 Cl  0  0  0  0  0  0  0  0  0  0  0  0
   -4.5930   -2.1747   -0.0377 O   0  0  0  0  0  0  0  0  0  0  0  0
    2.4516   -0.3817    0.0113 H   0  0  0  0  0  0  0  0  0  0  0  0
    0.9073   -2.3055    0.0311 H   0  0  0  0  0  0  0  0  0  0  0  0
   -2.4479    0.4078   -0.0238 H   0  0  0  0  0  0  0  0  0  0  0  0
   -0.8879    2.3223    0.0643 H   0  0  0  0  0  0  0  0  0  0  0  0
    1.5616    1.9339   -0.0490 H   0  0  0  0  0  0  0  0  0  0  0  0
   -2.4088   -2.2768   -0.8517 H   0  0  0  0  0  0  0  0  0  0  0  0
   -1.2946   -3.1982    0.1601 H   0  0  0  0  0  0  0  0  0  0  0  0
   -2.2851   -2.1148    2.1560 H   0  0  0  0  0  0  0  0  0  0  0  0
   -5.5547   -2.8541    2.4076 H   0  0  0  0  0  0  0  0  0  0  0  0
   -4.2661   -1.9781    3.2233 H   0  0  0  0  0  0  0  0  0  0  0  0
   -6.3193   -0.6295    3.2667 H   0  0  0  0  0  0  0  0  0  0  0  0
   -5.1071    0.1924    2.2670 H   0  0  0  0  0  0  0  0  0  0  0  0
  1  2  1  0  0  0  0
  1  6  2  0  0  0  0
  1 14  1  0  0  0  0
  2  3  2  0  0  0  0
  2 15  1  0  0  0  0
  3  4  1  0  0  0  0
  3  7  1  0  0  0  0
  4  5  2  0  0  0  0
  4 16  1  0  0  0  0
  5  6  1  0  0  0  0
  5 17  1  0  0  0  0
  6 18  1  0  0  0  0
  7  8  1  0  0  0  0
  7 19  1  0  0  0  0
  7 20  1  0  0  0  0
  8  9  1  0  0  0  0
  8 21  1  0  0  0  0
  9 10  1  0  0  0  0
  9 13  2  0  0  0  0
 10 11  1  0  0  0  0
 10 22  1  0  0  0  0
 10 23  1  0  0  0  0
 11 12  1  0  0  0  0
 11 24  1  0  0  0  0
 11 25  1  0  0  0  0
M  END
>  <DRUGBANK_ID>
DB09011

>  <COMMON_NAME>
Beclamide

>  <CAS_NUMBER>
501-68-8

>  <UNII>
F5N0ALI65V

>  <SYNONYMS>
Beclamida; Beclamide; Beclamidum; Benzchlorpropamide; Benzylamide

$$$$
