
 OpenBabel10282417203D

 84 89  0  0  0  0  0  0  0  0999 V2000
    1.9668   -0.5956    0.2127 C   0  0  0  0  0  0  0  0  0  0  0  0
    0.6129   -0.2430    0.1580 N   0  0  0  0  0  0  0  0  0  0  0  0
   -0.2386   -1.2978    0.0338 C   0  0  0  0  0  0  0  0  0  0  0  0
   -1.4895   -0.8027    0.1314 C   0  0  0  0  0  0  0  0  0  0  0  0
   -1.2417    0.5787    0.3846 C   0  0  0  0  0  0  0  0  0  0  0  0
    0.0527    0.9960    0.0985 C   0  0  0  0  0  0  0  0  0  0  0  0
    0.4786    2.4373    0.0162 C   0  0  0  0  0  0  0  0  0  0  0  0
   -0.3356    3.3293   -0.0202 O   0  0  0  0  0  0  0  0  0  0  0  0
    1.8164    2.8704    0.0660 N   0  0  0  0  0  0  0  0  0  0  0  0
    2.9734    2.1546   -0.0919 C   0  0  0  0  0  0  0  0  0  0  0  0
    3.3113    1.2387   -1.1306 C   0  0  0  0  0  0  0  0  0  0  0  0
    4.3155    0.3336   -0.6695 C   0  0  0  0  0  0  0  0  0  0  0  0
    4.8321    1.0555    0.4350 N   0  0  0  0  0  0  0  0  0  0  0  0
    4.0032    2.1052    0.8068 C   0  0  0  0  0  0  0  0  0  0  0  0
    6.0605    0.8525    1.1592 C   0  0  0  0  0  0  0  0  0  0  0  0
    4.4779   -1.1452   -1.1847 C   0  0  0  0  0  0  0  0  0  0  0  0
    3.7026   -1.6455   -2.0055 O   0  0  0  0  0  0  0  0  0  0  0  0
    5.3768   -2.0793   -0.6727 N   0  0  0  0  0  0  0  0  0  0  0  0
    6.1279   -1.8119    0.4610 C   0  0  0  0  0  0  0  0  0  0  0  0
    6.2592   -2.6175    1.6882 C   0  0  0  0  0  0  0  0  0  0  0  0
    7.2407   -3.6355    1.4215 N   0  0  0  0  0  0  0  0  0  0  0  0
    6.6601   -4.9463    1.0787 C   0  0  0  0  0  0  0  0  0  0  0  0
    5.9504   -5.6337    2.2539 C   0  0  0  0  0  0  0  0  0  0  0  0
    6.7787   -5.6525    3.4282 O   0  0  0  0  0  0  0  0  0  0  0  0
    7.1949   -4.3274    3.7724 C   0  0  0  0  0  0  0  0  0  0  0  0
    8.0423   -3.7296    2.6448 C   0  0  0  0  0  0  0  0  0  0  0  0
   -2.6023   -1.6328    0.0466 N   0  0  0  0  0  0  0  0  0  0  0  0
   -3.9531   -1.3344    0.0548 C   0  0  0  0  0  0  0  0  0  0  0  0
   -4.8265   -2.2011   -0.0364 O   0  0  0  0  0  0  0  0  0  0  0  0
   -4.3953    0.0493    0.1326 C   0  0  0  0  0  0  0  0  0  0  0  0
   -3.7370    0.9028   -0.6516 C   0  0  0  0  0  0  0  0  0  0  0  0
   -3.7091    2.1504   -0.0430 C   0  0  0  0  0  0  0  0  0  0  0  0
   -4.9188    2.8270    0.5920 C   0  0  0  0  0  0  0  0  0  0  0  0
   -5.7292    1.9056    1.1111 C   0  0  0  0  0  0  0  0  0  0  0  0
   -5.3665    0.5435    1.0380 C   0  0  0  0  0  0  0  0  0  0  0  0
   -5.8956    4.2440    0.0642 C   0  0  0  0  0  0  0  0  0  0  0  0
   -5.7360    5.6011    0.0742 C   0  0  0  0  0  0  0  0  0  0  0  0
   -5.0216    6.6472   -1.2231 C   0  0  0  0  0  0  0  0  0  0  0  0
   -3.8591    6.2402   -2.3367 C   0  0  0  0  0  0  0  0  0  0  0  0
   -2.7314    5.4762   -2.0781 C   0  0  0  0  0  0  0  0  0  0  0  0
   -2.5830    4.1054   -2.8166 C   0  0  0  0  0  0  0  0  0  0  0  0
   -3.6114    3.2954   -2.8041 C   0  0  0  0  0  0  0  0  0  0  0  0
   -4.1718    3.6923   -1.6704 C   0  0  0  0  0  0  0  0  0  0  0  0
   -3.3654    4.6594   -0.4744 C   0  0  0  0  0  0  0  0  0  0  0  0
   -2.7563    5.7676   -0.7541 C   0  0  0  0  0  0  0  0  0  0  0  0
   -3.2192    7.1173   -0.1480 N   0  0  0  0  0  0  0  0  0  0  0  0
   -4.4591    7.5548   -0.4837 C   0  0  0  0  0  0  0  0  0  0  0  0
    2.1366   -0.5736   -0.8564 H   0  0  0  0  0  0  0  0  0  0  0  0
    2.3999    0.0751    0.9418 H   0  0  0  0  0  0  0  0  0  0  0  0
    2.1987   -1.6074    0.5133 H   0  0  0  0  0  0  0  0  0  0  0  0
    0.1717   -2.2942   -0.0481 H   0  0  0  0  0  0  0  0  0  0  0  0
   -1.9053    1.3198    0.7374 H   0  0  0  0  0  0  0  0  0  0  0  0
    1.9020    3.8780    0.1942 H   0  0  0  0  0  0  0  0  0  0  0  0
    2.6101    1.0502   -1.9395 H   0  0  0  0  0  0  0  0  0  0  0  0
    4.1771    2.6352    1.7385 H   0  0  0  0  0  0  0  0  0  0  0  0
    6.6848    1.7304    1.1439 H   0  0  0  0  0  0  0  0  0  0  0  0
    5.8728    0.4292    2.1614 H   0  0  0  0  0  0  0  0  0  0  0  0
    6.6685    0.2206    0.5504 H   0  0  0  0  0  0  0  0  0  0  0  0
    5.5127   -2.9672   -1.1439 H   0  0  0  0  0  0  0  0  0  0  0  0
    7.1161   -1.4655    0.1325 H   0  0  0  0  0  0  0  0  0  0  0  0
    5.4381   -1.1417    0.9250 H   0  0  0  0  0  0  0  0  0  0  0  0
    6.6779   -1.8705    2.3963 H   0  0  0  0  0  0  0  0  0  0  0  0
    5.2972   -2.8838    2.1411 H   0  0  0  0  0  0  0  0  0  0  0  0
    7.4996   -5.5752    0.7631 H   0  0  0  0  0  0  0  0  0  0  0  0
    5.9876   -4.8928    0.2107 H   0  0  0  0  0  0  0  0  0  0  0  0
    5.0031   -5.1324    2.4854 H   0  0  0  0  0  0  0  0  0  0  0  0
    5.7196   -6.6710    1.9923 H   0  0  0  0  0  0  0  0  0  0  0  0
    7.7849   -4.3451    4.6876 H   0  0  0  0  0  0  0  0  0  0  0  0
    6.2957   -3.7304    3.9868 H   0  0  0  0  0  0  0  0  0  0  0  0
    8.9360   -4.3101    2.4160 H   0  0  0  0  0  0  0  0  0  0  0  0
    8.3997   -2.7281    2.9299 H   0  0  0  0  0  0  0  0  0  0  0  0
   -2.4071   -2.6215   -0.0698 H   0  0  0  0  0  0  0  0  0  0  0  0
   -3.0072    0.5844   -1.4212 H   0  0  0  0  0  0  0  0  0  0  0  0
   -2.7792    2.6238   -0.4408 H   0  0  0  0  0  0  0  0  0  0  0  0
   -6.6861    2.2587    1.4540 H   0  0  0  0  0  0  0  0  0  0  0  0
   -5.8804   -0.1363    1.6823 H   0  0  0  0  0  0  0  0  0  0  0  0
   -6.0616    4.2324   -1.0109 H   0  0  0  0  0  0  0  0  0  0  0  0
   -5.8967    5.9832    1.0985 H   0  0  0  0  0  0  0  0  0  0  0  0
   -3.0893    7.0476   -2.6833 H   0  0  0  0  0  0  0  0  0  0  0  0
   -1.6396    3.5699   -2.9624 H   0  0  0  0  0  0  0  0  0  0  0  0
   -3.8263    2.2324   -3.0540 H   0  0  0  0  0  0  0  0  0  0  0  0
   -5.0351    3.0249   -1.5240 H   0  0  0  0  0  0  0  0  0  0  0  0
   -3.7009    4.6978    0.5967 H   0  0  0  0  0  0  0  0  0  0  0  0
   -4.8949    8.5690   -0.3207 H   0  0  0  0  0  0  0  0  0  0  0  0
  1  2  1  0  0  0  0
  1 48  1  0  0  0  0
  1 49  1  0  0  0  0
  1 50  1  0  0  0  0
  2  3  1  0  0  0  0
  2  6  1  0  0  0  0
  3  4  2  0  0  0  0
  3 51  1  0  0  0  0
  4  5  1  0  0  0  0
  4 27  1  0  0  0  0
  5  6  2  0  0  0  0
  5 52  1  0  0  0  0
  6  7  1  0  0  0  0
  7  8  2  0  0  0  0
  7  9  1  0  0  0  0
  9 10  1  0  0  0  0
  9 53  1  0  0  0  0
 10 11  1  0  0  0  0
 10 14  2  0  0  0  0
 11 12  2  0  0  0  0
 11 54  1  0  0  0  0
 12 13  1  0  0  0  0
 12 16  1  0  0  0  0
 13 14  1  0  0  0  0
 13 15  1  0  0  0  0
 14 55  1  0  0  0  0
 15 56  1  0  0  0  0
 15 57  1  0  0  0  0
 15 58  1  0  0  0  0
 16 17  2  0  0  0  0
 16 18  1  0  0  0  0
 18 19  1  0  0  0  0
 18 59  1  0  0  0  0
 19 20  1  0  0  0  0
 19 60  1  0  0  0  0
 19 61  1  0  0  0  0
 20 21  1  0  0  0  0
 20 62  1  0  0  0  0
 20 63  1  0  0  0  0
 21 22  1  0  0  0  0
 21 26  1  0  0  0  0
 22 23  1  0  0  0  0
 22 64  1  0  0  0  0
 22 65  1  0  0  0  0
 23 24  1  0  0  0  0
 23 66  1  0  0  0  0
 23 67  1  0  0  0  0
 24 25  1  0  0  0  0
 25 26  1  0  0  0  0
 25 68  1  0  0  0  0
 25 69  1  0  0  0  0
 26 70  1  0  0  0  0
 26 71  1  0  0  0  0
 27 28  1  0  0  0  0
 27 72  1  0  0  0  0
 28 29  2  0  0  0  0
 28 30  1  0  0  0  0
 30 31  2  0  0  0  0
 30 35  1  0  0  0  0
 31 32  1  0  0  0  0
 31 73  1  0  0  0  0
 32 33  2  0  0  0  0
 32 74  1  0  0  0  0
 33 34  1  0  0  0  0
 33 36  1  0  0  0  0
 34 35  2  0  0  0  0
 34 75  1  0  0  0  0
 35 76  1  0  0  0  0
 36 37  2  0  0  0  0
 36 77  1  0  0  0  0
 37 38  1  0  0  0  0
 37 78  1  0  0  0  0
 38 39  1  0  0  0  0
 38 47  2  0  0  0  0
 39 40  2  0  0  0  0
 39 79  1  0  0  0  0
 40 41  1  0  0  0  0
 40 45  1  0  0  0  0
 41 42  2  0  0  0  0
 41 80  1  0  0  0  0
 42 43  1  0  0  0  0
 42 81  1  0  0  0  0
 43 44  2  0  0  0  0
 43 82  1  0  0  0  0
 44 45  1  0  0  0  0
 44 83  1  0  0  0  0
 45 46  2  0  0  0  0
 46 47  1  0  0  0  0
 47 84  1  0  0  0  0
M  END
>  <DRUGBANK_ID>
DB12892

>  <COMMON_NAME>
MGB-BP-3

>  <CAS_NUMBER>
1000277-08-6

>  <UNII>
532PWU9738

$$$$
