
 OpenBabel10282417233D

 52 55  0  0  0  0  0  0  0  0999 V2000
    1.6715   -0.1115    0.2233 C   0  0  0  0  0  0  0  0  0  0  0  0
    1.0624   -1.4857    0.2253 C   0  0  3  0  0  0  0  0  0  0  0  0
   -0.1674   -1.6150    1.4734 S   0  0  0  0  0  0  0  0  0  0  0  0
    1.0178   -2.1362    2.6853 C   0  0  0  0  0  0  0  0  0  0  0  0
    2.1456   -2.8148    1.8460 C   0  0  0  0  0  0  0  0  0  0  0  0
    1.8859   -2.6081    0.4201 N   0  0  0  0  0  0  0  0  0  0  0  0
    2.1033   -3.5762   -0.5643 C   0  0  0  0  0  0  0  0  0  0  0  0
    2.7971   -4.5455   -0.3307 O   0  0  0  0  0  0  0  0  0  0  0  0
    1.5356   -3.3702   -2.0168 C   0  0  0  0  0  0  0  0  0  0  0  0
    0.0169   -3.5465   -2.3317 C   0  0  0  0  0  0  0  0  0  0  0  0
   -0.9449   -2.4365   -1.9182 C   0  0  0  0  0  0  0  0  0  0  0  0
   -1.8913   -2.5523   -0.9123 C   0  0  0  0  0  0  0  0  0  0  0  0
   -2.2261   -1.2753   -0.4773 N   0  0  0  0  0  0  0  0  0  0  0  0
   -1.5079   -0.3171   -1.1861 C   0  0  0  0  0  0  0  0  0  0  0  0
   -0.8079   -1.0039   -2.1916 C   0  0  0  0  0  0  0  0  0  0  0  0
    0.1724   -0.2743   -2.9168 C   0  0  0  0  0  0  0  0  0  0  0  0
    0.3978    1.0892   -2.6592 C   0  0  0  0  0  0  0  0  0  0  0  0
   -0.2884    1.7333   -1.6308 C   0  0  0  0  0  0  0  0  0  0  0  0
   -1.2214    1.0306   -0.8514 C   0  0  0  0  0  0  0  0  0  0  0  0
    0.1865   -3.0851    3.5474 C   0  0  0  0  0  0  0  0  0  0  0  0
   -0.9296   -2.3236    4.3000 C   0  0  0  0  0  0  0  0  0  0  0  0
   -0.4202   -1.1385    5.0182 N   0  0  0  0  0  0  0  0  0  0  0  0
    0.5361   -1.5528    6.0416 C   0  0  0  0  0  0  0  0  0  0  0  0
    0.2229   -0.1780    4.1061 C   0  0  0  0  0  0  0  0  0  0  0  0
    1.4196   -0.8192    3.3741 C   0  0  0  0  0  0  0  0  0  0  0  0
    1.1742    0.6053    0.8897 H   0  0  0  0  0  0  0  0  0  0  0  0
    1.4857    0.2916   -0.7537 H   0  0  0  0  0  0  0  0  0  0  0  0
    2.7512   -0.0830    0.3059 H   0  0  0  0  0  0  0  0  0  0  0  0
    0.6488   -1.6372   -0.7171 H   0  0  0  0  0  0  0  0  0  0  0  0
    3.1040   -2.3213    2.0346 H   0  0  0  0  0  0  0  0  0  0  0  0
    2.2446   -3.8807    2.0643 H   0  0  0  0  0  0  0  0  0  0  0  0
    1.9348   -2.4336   -2.4163 H   0  0  0  0  0  0  0  0  0  0  0  0
    2.0429   -4.1464   -2.6136 H   0  0  0  0  0  0  0  0  0  0  0  0
   -0.0995   -3.6429   -3.4191 H   0  0  0  0  0  0  0  0  0  0  0  0
   -0.3094   -4.5007   -1.8976 H   0  0  0  0  0  0  0  0  0  0  0  0
   -2.1243   -3.3979   -0.2691 H   0  0  0  0  0  0  0  0  0  0  0  0
   -2.4900   -1.1183    0.4891 H   0  0  0  0  0  0  0  0  0  0  0  0
    0.9090   -0.8129   -3.5075 H   0  0  0  0  0  0  0  0  0  0  0  0
    1.2539    1.5805   -3.1217 H   0  0  0  0  0  0  0  0  0  0  0  0
    0.0254    2.7346   -1.3313 H   0  0  0  0  0  0  0  0  0  0  0  0
   -1.5653    1.4692    0.0868 H   0  0  0  0  0  0  0  0  0  0  0  0
    0.8421   -3.5982    4.2557 H   0  0  0  0  0  0  0  0  0  0  0  0
   -0.2626   -3.8883    2.9420 H   0  0  0  0  0  0  0  0  0  0  0  0
   -1.4311   -3.0089    4.9920 H   0  0  0  0  0  0  0  0  0  0  0  0
   -1.7380   -2.0126    3.6189 H   0  0  0  0  0  0  0  0  0  0  0  0
    1.4126   -2.0635    5.6297 H   0  0  0  0  0  0  0  0  0  0  0  0
    0.8990   -0.6808    6.5889 H   0  0  0  0  0  0  0  0  0  0  0  0
    0.0627   -2.2434    6.7397 H   0  0  0  0  0  0  0  0  0  0  0  0
   -0.5239    0.2259    3.4031 H   0  0  0  0  0  0  0  0  0  0  0  0
    0.5619    0.7127    4.6487 H   0  0  0  0  0  0  0  0  0  0  0  0
    2.2486   -1.0004    4.0616 H   0  0  0  0  0  0  0  0  0  0  0  0
    1.8369   -0.0801    2.6849 H   0  0  0  0  0  0  0  0  0  0  0  0
  1  2  1  0  0  0  0
  1 26  1  0  0  0  0
  1 27  1  0  0  0  0
  1 28  1  0  0  0  0
  2  3  1  0  0  0  0
  2  6  1  0  0  0  0
  2 29  1  0  0  0  0
  3  4  1  0  0  0  0
  4  5  1  0  0  0  0
  4 20  1  0  0  0  0
  4 25  1  0  0  0  0
  5  6  1  0  0  0  0
  5 30  1  0  0  0  0
  5 31  1  0  0  0  0
  6  7  1  0  0  0  0
  7  8  2  0  0  0  0
  7  9  1  0  0  0  0
  9 10  1  0  0  0  0
  9 32  1  0  0  0  0
  9 33  1  0  0  0  0
 10 11  1  0  0  0  0
 10 34  1  0  0  0  0
 10 35  1  0  0  0  0
 11 12  2  0  0  0  0
 11 15  1  0  0  0  0
 12 13  1  0  0  0  0
 12 36  1  0  0  0  0
 13 14  1  0  0  0  0
 13 37  1  0  0  0  0
 14 15  2  0  0  0  0
 14 19  1  0  0  0  0
 15 16  1  0  0  0  0
 16 17  2  0  0  0  0
 16 38  1  0  0  0  0
 17 18  1  0  0  0  0
 17 39  1  0  0  0  0
 18 19  2  0  0  0  0
 18 40  1  0  0  0  0
 19 41  1  0  0  0  0
 20 21  1  0  0  0  0
 20 42  1  0  0  0  0
 20 43  1  0  0  0  0
 21 22  1  0  0  0  0
 21 44  1  0  0  0  0
 21 45  1  0  0  0  0
 22 23  1  0  0  0  0
 22 24  1  0  0  0  0
 23 46  1  0  0  0  0
 23 47  1  0  0  0  0
 23 48  1  0  0  0  0
 24 25  1  0  0  0  0
 24 49  1  0  0  0  0
 24 50  1  0  0  0  0
 25 51  1  0  0  0  0
 25 52  1  0  0  0  0
M  END
>  <DRUGBANK_ID>
DB16911

>  <COMMON_NAME>
AF-710B

>  <CAS_NUMBER>
1235733-73-9

>  <UNII>
AAE07Z061B

>  <SYNONYMS>
1-(2,8-dimethyl-1-thia-3,8-diazaspiro(4.5)dec-3-yl)-3-(1h-indol-3-yl)propan-1-one; 1-(2,8-Dimethyl-1-Thia-3,8-Diazaspiro[4.5]Dec-3-yl)-3-(1H-Indol-3-yl)Propan-1-one; 1-propanone, 1-(2,8-dimethyl-1-thia-3,8-diazaspiro(4.5)dec-3-yl)-3-(1h-indol-3-yl)-; Anavex 3-71; ANAVEX3-71

$$$$
