
 OpenBabel10282417103D

 54 55  0  0  0  0  0  0  0  0999 V2000
    0.8890    0.0521   -0.0120 O   0  0  0  0  0  0  0  0  0  0  0  0
   -2.7467    2.6568    1.6366 O   0  0  0  0  0  0  0  0  0  0  0  0
    0.7214    1.6166   -1.7670 N   0  0  0  0  0  0  0  0  0  0  0  0
   -3.2284    4.4437    0.4508 N   0  0  0  0  0  0  0  0  0  0  0  0
   -5.5750    5.8260   -1.3347 N   0  0  0  0  0  0  0  0  0  0  0  0
   -1.0392    3.2259   -1.7410 C   0  0  0  0  0  0  0  0  0  0  0  0
   -1.4804    2.7373   -0.4208 C   0  0  0  0  0  0  0  0  0  0  0  0
    0.0786    2.6511   -2.3423 C   0  0  0  0  0  0  0  0  0  0  0  0
    0.2878    1.1568   -0.5702 C   0  0  0  0  0  0  0  0  0  0  0  0
   -0.7867    1.6557    0.1238 C   0  0  0  0  0  0  0  0  0  0  0  0
   -2.5283    3.2765    0.5636 C   0  0  0  0  0  0  0  0  0  0  0  0
   -1.5866    4.2298   -2.5845 C   0  0  0  0  0  0  0  0  0  0  0  0
    0.5164    3.1750   -3.5961 C   0  0  0  0  0  0  0  0  0  0  0  0
   -1.1000    4.8881   -3.6928 C   0  0  0  0  0  0  0  0  0  0  0  0
   -0.0298    4.2984   -4.2541 C   0  0  0  0  0  0  0  0  0  0  0  0
   -3.1871    5.4181   -0.6112 C   0  0  0  0  0  0  0  0  0  0  0  0
    2.3136    0.1160   -0.0431 C   0  0  0  0  0  0  0  0  0  0  0  0
   -4.3061    5.2478   -1.7396 C   0  0  0  0  0  0  0  0  0  0  0  0
    2.8390   -1.1770    0.5900 C   0  0  0  0  0  0  0  0  0  0  0  0
   -6.5988    5.8159   -2.3821 C   0  0  0  0  0  0  0  0  0  0  0  0
   -6.0058    5.2749   -0.0553 C   0  0  0  0  0  0  0  0  0  0  0  0
    2.3648   -2.4272   -0.1593 C   0  0  0  0  0  0  0  0  0  0  0  0
   -6.1310    3.7463    0.0077 C   0  0  0  0  0  0  0  0  0  0  0  0
   -7.0973    4.4508   -2.8388 C   0  0  0  0  0  0  0  0  0  0  0  0
    2.8576   -2.4395   -1.5981 C   0  0  0  0  0  0  0  0  0  0  0  0
   -3.7506    4.6674    1.2915 H   0  0  0  0  0  0  0  0  0  0  0  0
   -1.0399    1.2151    1.0888 H   0  0  0  0  0  0  0  0  0  0  0  0
   -2.5647    4.5506   -2.4496 H   0  0  0  0  0  0  0  0  0  0  0  0
    1.3367    2.6771   -4.0970 H   0  0  0  0  0  0  0  0  0  0  0  0
   -1.6434    5.7462   -4.0894 H   0  0  0  0  0  0  0  0  0  0  0  0
    0.3140    4.6789   -5.2078 H   0  0  0  0  0  0  0  0  0  0  0  0
   -3.0991    6.4619   -0.3169 H   0  0  0  0  0  0  0  0  0  0  0  0
   -2.1564    5.2809   -0.8698 H   0  0  0  0  0  0  0  0  0  0  0  0
    2.6917    0.2210   -1.0653 H   0  0  0  0  0  0  0  0  0  0  0  0
    2.6625    0.9752    0.5409 H   0  0  0  0  0  0  0  0  0  0  0  0
   -4.0049    5.7600   -2.6696 H   0  0  0  0  0  0  0  0  0  0  0  0
   -4.4215    4.1873   -2.0356 H   0  0  0  0  0  0  0  0  0  0  0  0
    3.9344   -1.1590    0.6264 H   0  0  0  0  0  0  0  0  0  0  0  0
    2.4808   -1.2440    1.6255 H   0  0  0  0  0  0  0  0  0  0  0  0
   -7.4459    6.4004   -2.0064 H   0  0  0  0  0  0  0  0  0  0  0  0
   -6.2376    6.3656   -3.2625 H   0  0  0  0  0  0  0  0  0  0  0  0
   -5.2918    5.6262    0.6935 H   0  0  0  0  0  0  0  0  0  0  0  0
   -6.9223    5.7660    0.2688 H   0  0  0  0  0  0  0  0  0  0  0  0
    2.7296   -3.3229    0.3572 H   0  0  0  0  0  0  0  0  0  0  0  0
    1.2697   -2.4837   -0.1453 H   0  0  0  0  0  0  0  0  0  0  0  0
   -5.3744    3.1973   -0.5672 H   0  0  0  0  0  0  0  0  0  0  0  0
   -6.0643    3.3887    1.0342 H   0  0  0  0  0  0  0  0  0  0  0  0
   -7.0984    3.4205   -0.3605 H   0  0  0  0  0  0  0  0  0  0  0  0
   -7.6577    3.9544   -2.0526 H   0  0  0  0  0  0  0  0  0  0  0  0
   -7.8104    4.5457   -3.6589 H   0  0  0  0  0  0  0  0  0  0  0  0
   -6.2812    3.7968   -3.1608 H   0  0  0  0  0  0  0  0  0  0  0  0
    3.9515   -2.4146   -1.6266 H   0  0  0  0  0  0  0  0  0  0  0  0
    2.5126   -3.3364   -2.1175 H   0  0  0  0  0  0  0  0  0  0  0  0
    2.4824   -1.5794   -2.1600 H   0  0  0  0  0  0  0  0  0  0  0  0
  1  9  1  0  0  0  0
  1 17  1  0  0  0  0
  2 11  2  0  0  0  0
  3  8  1  0  0  0  0
  3  9  2  0  0  0  0
  4 11  1  0  0  0  0
  4 16  1  0  0  0  0
  4 26  1  0  0  0  0
  5 18  1  0  0  0  0
  5 20  1  0  0  0  0
  5 21  1  0  0  0  0
  6  7  1  0  0  0  0
  6  8  1  0  0  0  0
  6 12  2  0  0  0  0
  7 10  2  0  0  0  0
  7 11  1  0  0  0  0
  8 13  2  0  0  0  0
  9 10  1  0  0  0  0
 10 27  1  0  0  0  0
 12 14  1  0  0  0  0
 12 28  1  0  0  0  0
 13 15  1  0  0  0  0
 13 29  1  0  0  0  0
 14 15  2  0  0  0  0
 14 30  1  0  0  0  0
 15 31  1  0  0  0  0
 16 18  1  0  0  0  0
 16 32  1  0  0  0  0
 16 33  1  0  0  0  0
 17 19  1  0  0  0  0
 17 34  1  0  0  0  0
 17 35  1  0  0  0  0
 18 36  1  0  0  0  0
 18 37  1  0  0  0  0
 19 22  1  0  0  0  0
 19 38  1  0  0  0  0
 19 39  1  0  0  0  0
 20 24  1  0  0  0  0
 20 40  1  0  0  0  0
 20 41  1  0  0  0  0
 21 23  1  0  0  0  0
 21 42  1  0  0  0  0
 21 43  1  0  0  0  0
 22 25  1  0  0  0  0
 22 44  1  0  0  0  0
 22 45  1  0  0  0  0
 23 46  1  0  0  0  0
 23 47  1  0  0  0  0
 23 48  1  0  0  0  0
 24 49  1  0  0  0  0
 24 50  1  0  0  0  0
 24 51  1  0  0  0  0
 25 52  1  0  0  0  0
 25 53  1  0  0  0  0
 25 54  1  0  0  0  0
M  END
>  <DRUGBANK_ID>
DB00527

>  <SECONDARY_ACCESSION_NUMBERS>
APRD00915

>  <COMMON_NAME>
Cinchocaine

>  <CAS_NUMBER>
85-79-0

>  <UNII>
L6JW2TJG99

>  <SYNONYMS>
2-butoxy-N-(2-(diethylamino)ethyl)cinchoninamide; 2-butoxy-N-(α-diethylaminoethyl)cinchoninamide; 2-butoxy-N-(β-diethylaminoethyl)cinchoninamide; 2-butoxy-N-[2-(diethylamino)ethyl]-4-quinolinecarboxamide; 2-Butoxy-quinoline-4-carboxylic acid (2-diethylamino-ethyl)-amide; 2-butoxyquinoline-4-carboxylic acid diethylaminoethylamide; 2-N-butoxy-N-(2-diethylaminoethyl)cinchoninamide; Cinchocaine; Cinchocainum; Cincocainio; Dibucaine; N-(2-(diethylamino)ethyl)-2-butoxycinchoninamide; α-butyloxycinchonic acid-γ-diethylethylenediamine; α-butyloxycinchoninic acid diethylethylenediamide

$$$$
