
 OpenBabel10282417193D

 67 71  0  0  0  0  0  0  0  0999 V2000
    1.3315   -0.8159   -0.4579 C   0  0  0  0  0  0  0  0  0  0  0  0
    0.4381   -1.8210   -0.0967 C   0  0  0  0  0  0  0  0  0  0  0  0
   -0.9899   -1.6036   -0.0263 C   0  0  0  0  0  0  0  0  0  0  0  0
   -1.5369   -0.3625   -0.3526 C   0  0  0  0  0  0  0  0  0  0  0  0
   -0.6097    0.4585   -0.9774 C   0  0  0  0  0  0  0  0  0  0  0  0
    0.7805    0.3356   -0.9400 C   0  0  0  0  0  0  0  0  0  0  0  0
   -2.9754    0.2915   -0.2483 C   0  0  0  0  0  0  0  0  0  0  0  0
   -3.3471    1.1459    1.0364 C   0  0  0  0  0  0  0  0  0  0  0  0
   -2.7399    2.5531    1.3677 C   0  0  0  0  0  0  0  0  0  0  0  0
   -3.3668    3.5595    1.4391 O   0  0  0  0  0  0  0  0  0  0  0  0
   -1.4509    2.4681    1.8419 N   0  0  0  0  0  0  0  0  0  0  0  0
   -0.4257    2.0690    0.9650 C   0  0  0  0  0  0  0  0  0  0  0  0
    0.5643    1.2129    1.7416 C   0  0  0  0  0  0  0  0  0  0  0  0
    1.3180    2.1310    2.5906 N   0  0  0  0  0  0  0  0  0  0  0  0
    0.3160    2.7715    3.4866 C   0  0  0  0  0  0  0  0  0  0  0  0
   -0.8953    3.4092    2.7686 C   0  0  0  0  0  0  0  0  0  0  0  0
    2.2990    2.9746    1.7672 C   0  0  0  0  0  0  0  0  0  0  0  0
    1.8407    3.9642    0.6132 C   0  0  0  0  0  0  0  0  0  0  0  0
    0.9648    5.0362    0.9299 C   0  0  0  0  0  0  0  0  0  0  0  0
    0.0545    5.5445    0.0161 C   0  0  0  0  0  0  0  0  0  0  0  0
    0.2100    5.2163   -1.3125 C   0  0  0  0  0  0  0  0  0  0  0  0
    1.2632    4.3794   -1.7006 C   0  0  0  0  0  0  0  0  0  0  0  0
    2.0540    3.7142   -0.7468 C   0  0  0  0  0  0  0  0  0  0  0  0
    3.2087    3.6830    2.7194 C   0  0  0  0  0  0  0  0  0  0  0  0
    3.9165    2.9594    3.6740 C   0  0  0  0  0  0  0  0  0  0  0  0
    4.7974    3.6469    4.4887 C   0  0  0  0  0  0  0  0  0  0  0  0
    4.9683    5.0305    4.3434 C   0  0  0  0  0  0  0  0  0  0  0  0
    4.2595    5.7456    3.4043 C   0  0  0  0  0  0  0  0  0  0  0  0
    3.3644    5.0705    2.6360 C   0  0  0  0  0  0  0  0  0  0  0  0
   -3.2993    1.1667   -1.5210 C   0  0  0  0  0  0  0  0  0  0  0  0
   -2.8842    0.7214   -2.7902 C   0  0  0  0  0  0  0  0  0  0  0  0
   -3.0029    1.5353   -3.9191 C   0  0  0  0  0  0  0  0  0  0  0  0
   -3.5827    2.7965   -3.8252 C   0  0  0  0  0  0  0  0  0  0  0  0
   -4.0175    3.2578   -2.5967 C   0  0  0  0  0  0  0  0  0  0  0  0
   -3.8519    2.4631   -1.4650 C   0  0  0  0  0  0  0  0  0  0  0  0
    2.4008   -0.8388   -0.2381 H   0  0  0  0  0  0  0  0  0  0  0  0
    0.8842   -2.7723    0.1763 H   0  0  0  0  0  0  0  0  0  0  0  0
   -1.6117   -2.4492    0.2495 H   0  0  0  0  0  0  0  0  0  0  0  0
   -1.0367    1.3941   -1.3062 H   0  0  0  0  0  0  0  0  0  0  0  0
    1.3792    1.2416   -0.9856 H   0  0  0  0  0  0  0  0  0  0  0  0
   -3.6919   -0.5442   -0.2734 H   0  0  0  0  0  0  0  0  0  0  0  0
   -4.4296    1.3606    0.9904 H   0  0  0  0  0  0  0  0  0  0  0  0
   -3.2209    0.5554    1.9502 H   0  0  0  0  0  0  0  0  0  0  0  0
   -0.6101    2.3671   -0.0640 H   0  0  0  0  0  0  0  0  0  0  0  0
    0.1628    2.9247    0.8253 H   0  0  0  0  0  0  0  0  0  0  0  0
   -0.0302    0.4785    2.3050 H   0  0  0  0  0  0  0  0  0  0  0  0
    1.3381    0.6079    1.2985 H   0  0  0  0  0  0  0  0  0  0  0  0
   -0.1004    1.9587    4.1073 H   0  0  0  0  0  0  0  0  0  0  0  0
    0.8063    3.4682    4.1572 H   0  0  0  0  0  0  0  0  0  0  0  0
   -0.5289    4.1597    2.1237 H   0  0  0  0  0  0  0  0  0  0  0  0
   -1.6060    3.9859    3.3458 H   0  0  0  0  0  0  0  0  0  0  0  0
    2.9358    2.2305    1.2518 H   0  0  0  0  0  0  0  0  0  0  0  0
    0.8233    5.3191    1.9747 H   0  0  0  0  0  0  0  0  0  0  0  0
   -0.8121    6.0940    0.3816 H   0  0  0  0  0  0  0  0  0  0  0  0
   -0.5028    5.5995   -2.0352 H   0  0  0  0  0  0  0  0  0  0  0  0
    1.4060    4.1785   -2.7578 H   0  0  0  0  0  0  0  0  0  0  0  0
    2.7324    2.9344   -1.0846 H   0  0  0  0  0  0  0  0  0  0  0  0
    3.7706    1.8828    3.7742 H   0  0  0  0  0  0  0  0  0  0  0  0
    5.3699    3.0998    5.2259 H   0  0  0  0  0  0  0  0  0  0  0  0
    5.6637    5.5717    4.9646 H   0  0  0  0  0  0  0  0  0  0  0  0
    4.3750    6.8045    3.2117 H   0  0  0  0  0  0  0  0  0  0  0  0
    2.8248    5.6976    1.9447 H   0  0  0  0  0  0  0  0  0  0  0  0
   -2.3499   -0.2235   -2.8907 H   0  0  0  0  0  0  0  0  0  0  0  0
   -2.6389    1.1754   -4.8755 H   0  0  0  0  0  0  0  0  0  0  0  0
   -3.7008    3.4205   -4.7041 H   0  0  0  0  0  0  0  0  0  0  0  0
   -4.4904    4.2318   -2.4935 H   0  0  0  0  0  0  0  0  0  0  0  0
   -4.1566    2.9492   -0.5488 H   0  0  0  0  0  0  0  0  0  0  0  0
  1  2  2  0  0  0  0
  1  6  1  0  0  0  0
  1 36  1  0  0  0  0
  2  3  1  0  0  0  0
  2 37  1  0  0  0  0
  3  4  2  0  0  0  0
  3 38  1  0  0  0  0
  4  5  1  0  0  0  0
  4  7  1  0  0  0  0
  5  6  2  0  0  0  0
  5 39  1  0  0  0  0
  6 40  1  0  0  0  0
  7  8  1  0  0  0  0
  7 30  1  0  0  0  0
  7 41  1  0  0  0  0
  8  9  1  0  0  0  0
  8 42  1  0  0  0  0
  8 43  1  0  0  0  0
  9 10  2  0  0  0  0
  9 11  1  0  0  0  0
 11 12  1  0  0  0  0
 11 16  1  0  0  0  0
 12 13  1  0  0  0  0
 12 44  1  0  0  0  0
 12 45  1  0  0  0  0
 13 14  1  0  0  0  0
 13 46  1  0  0  0  0
 13 47  1  0  0  0  0
 14 15  1  0  0  0  0
 14 17  1  0  0  0  0
 15 16  1  0  0  0  0
 15 48  1  0  0  0  0
 15 49  1  0  0  0  0
 16 50  1  0  0  0  0
 16 51  1  0  0  0  0
 17 18  1  0  0  0  0
 17 24  1  0  0  0  0
 17 52  1  0  0  0  0
 18 19  2  0  0  0  0
 18 23  1  0  0  0  0
 19 20  1  0  0  0  0
 19 53  1  0  0  0  0
 20 21  2  0  0  0  0
 20 54  1  0  0  0  0
 21 22  1  0  0  0  0
 21 55  1  0  0  0  0
 22 23  2  0  0  0  0
 22 56  1  0  0  0  0
 23 57  1  0  0  0  0
 24 25  2  0  0  0  0
 24 29  1  0  0  0  0
 25 26  1  0  0  0  0
 25 58  1  0  0  0  0
 26 27  2  0  0  0  0
 26 59  1  0  0  0  0
 27 28  1  0  0  0  0
 27 60  1  0  0  0  0
 28 29  2  0  0  0  0
 28 61  1  0  0  0  0
 29 62  1  0  0  0  0
 30 31  2  0  0  0  0
 30 35  1  0  0  0  0
 31 32  1  0  0  0  0
 31 63  1  0  0  0  0
 32 33  2  0  0  0  0
 32 64  1  0  0  0  0
 33 34  1  0  0  0  0
 33 65  1  0  0  0  0
 34 35  2  0  0  0  0
 34 66  1  0  0  0  0
 35 67  1  0  0  0  0
M  END
>  <DRUGBANK_ID>
DB12743

>  <COMMON_NAME>
Z-160

>  <CAS_NUMBER>
41332-24-5

>  <UNII>
TX3R141LEP

>  <SYNONYMS>
1-(4-Benzhydryl-piperazin-1-yl)-3,3-diphenylpropan-1-one; 1-(4-Benzhydrylpiperazin-1-yl)-3,3-Diphenylpropan-1-one

$$$$
