
 OpenBabel10282417153D

 13 13  0  0  0  0  0  0  0  0999 V2000
    0.2826    1.1947    0.0005 C   0  0  0  0  0  0  0  0  0  0  0  0
   -1.1016    1.1440    0.0024 C   0  0  0  0  0  0  0  0  0  0  0  0
   -1.0969   -1.1472    0.0026 C   0  0  0  0  0  0  0  0  0  0  0  0
    0.2884   -1.1952    0.0009 C   0  0  0  0  0  0  0  0  0  0  0  0
   -1.8124   -0.0044    0.0045 N   0  0  0  0  0  0  0  0  0  0  0  0
    1.0008    0.0032    0.0122 C   0  0  0  0  0  0  0  0  0  0  0  0
    2.3818    0.0060   -0.0539 N   0  0  0  0  0  0  0  0  0  0  0  0
    0.7870    2.1551   -0.0068 H   0  0  0  0  0  0  0  0  0  0  0  0
   -1.6942    2.0541    0.0002 H   0  0  0  0  0  0  0  0  0  0  0  0
   -1.6859   -2.0611    0.0005 H   0  0  0  0  0  0  0  0  0  0  0  0
    0.7960   -2.1515   -0.0063 H   0  0  0  0  0  0  0  0  0  0  0  0
    2.9016   -0.8569    0.0285 H   0  0  0  0  0  0  0  0  0  0  0  0
    2.8942    0.8762    0.0242 H   0  0  0  0  0  0  0  0  0  0  0  0
  1  2  2  0  0  0  0
  1  8  1  0  0  0  0
  2  5  1  0  0  0  0
  2  9  1  0  0  0  0
  3  4  1  0  0  0  0
  3 10  1  0  0  0  0
  4 11  1  0  0  0  0
  5  3  2  0  0  0  0
  6  1  1  0  0  0  0
  6  4  2  0  0  0  0
  6  7  1  0  0  0  0
  7 12  1  0  0  0  0
  7 13  1  0  0  0  0
M  END
>  <DRUGBANK_ID>
DB06637

>  <COMMON_NAME>
Dalfampridine

>  <CAS_NUMBER>
504-24-5

>  <UNII>
BH3B64OKL9

>  <SYNONYMS>
4-Aminopyridine; 4-AP; 4-Pyridinamine; 4-Pyridylamine; Dalfampridine; Fampridina; Fampridine; Fampridinum; p-Aminopyridine; Î³-Aminopyridine

$$$$
