419
 OpenBabel10282417103D

 36 36  0  0  1  0  0  0  0  0999 V2000
    2.3848    0.7508   -0.0837 O   0  0  0  0  0  0  0  0  0  0  0  0
   -0.0307    2.1743    0.2762 O   0  0  0  0  0  0  0  0  0  0  0  0
   -2.4747    0.6557   -0.2037 O   0  0  0  0  0  0  0  0  0  0  0  0
    2.6207   -3.2614    1.3931 O   0  0  0  0  0  0  0  0  0  0  0  0
   -0.0196   -2.1193    0.3586 N   0  0  0  0  0  0  0  0  0  0  0  0
    1.2641   -1.3990    0.1844 C   0  0  1  0  0  0  0  0  0  0  0  0
    1.2076    0.1285    0.4639 C   0  0  2  0  0  0  0  0  0  0  0  0
   -0.0238    0.8026   -0.1456 C   0  0  1  0  0  0  0  0  0  0  0  0
   -1.2810    0.0509    0.2978 C   0  0  2  0  0  0  0  0  0  0  0  0
   -1.1707   -1.3871   -0.2066 C   0  0  0  0  0  0  0  0  0  0  0  0
   -0.0553   -3.4946   -0.1725 C   0  0  0  0  0  0  0  0  0  0  0  0
    2.5412   -1.9215    0.9341 C   0  0  0  0  0  0  0  0  0  0  0  0
    0.1641   -3.7336   -1.6884 C   0  0  0  0  0  0  0  0  0  0  0  0
    1.4167   -3.2353   -2.4333 C   0  0  0  0  0  0  0  0  0  0  0  0
    2.7369   -3.7995   -1.9433 C   0  0  0  0  0  0  0  0  0  0  0  0
    2.2529    1.7150   -0.0006 H   0  0  0  0  0  0  0  0  0  0  0  0
   -0.1795    2.1815    1.2384 H   0  0  0  0  0  0  0  0  0  0  0  0
   -2.4548    0.6289   -1.1755 H   0  0  0  0  0  0  0  0  0  0  0  0
    2.2271   -3.8746    0.7467 H   0  0  0  0  0  0  0  0  0  0  0  0
    1.5036   -1.4001   -0.8674 H   0  0  0  0  0  0  0  0  0  0  0  0
    1.2296    0.3150    1.5433 H   0  0  0  0  0  0  0  0  0  0  0  0
    0.0408    0.8336   -1.2415 H   0  0  0  0  0  0  0  0  0  0  0  0
   -1.3648    0.0655    1.3900 H   0  0  0  0  0  0  0  0  0  0  0  0
   -2.1083   -1.9086    0.0297 H   0  0  0  0  0  0  0  0  0  0  0  0
   -1.1183   -1.3606   -1.3042 H   0  0  0  0  0  0  0  0  0  0  0  0
    0.5518   -4.1722    0.4239 H   0  0  0  0  0  0  0  0  0  0  0  0
   -1.0576   -3.8919    0.0599 H   0  0  0  0  0  0  0  0  0  0  0  0
    3.4118   -1.7288    0.2900 H   0  0  0  0  0  0  0  0  0  0  0  0
    2.6816   -1.3447    1.8480 H   0  0  0  0  0  0  0  0  0  0  0  0
    0.1053   -4.8171   -1.8435 H   0  0  0  0  0  0  0  0  0  0  0  0
   -0.7031   -3.3172   -2.2140 H   0  0  0  0  0  0  0  0  0  0  0  0
    1.3157   -3.5071   -3.4886 H   0  0  0  0  0  0  0  0  0  0  0  0
    1.4569   -2.1455   -2.4852 H   0  0  0  0  0  0  0  0  0  0  0  0
    2.8170   -4.8665   -2.1579 H   0  0  0  0  0  0  0  0  0  0  0  0
    3.5865   -3.2716   -2.3873 H   0  0  0  0  0  0  0  0  0  0  0  0
    2.8656   -3.6893   -0.8827 H   0  0  0  0  0  0  0  0  0  0  0  0
  1 16  1  0  0  0  0
  2 17  1  0  0  0  0
  3 18  1  0  0  0  0
  4 12  1  0  0  0  0
  4 19  1  0  0  0  0
  5  6  1  0  0  0  0
  5 10  1  0  0  0  0
  5 11  1  0  0  0  0
  6  7  1  0  0  0  0
  6 12  1  0  0  0  0
  6 20  1  6  0  0  0
  7  1  1  0  0  0  0
  7  8  1  0  0  0  0
  7 21  1  1  0  0  0
  8  2  1  0  0  0  0
  8  9  1  0  0  0  0
  8 22  1  6  0  0  0
  9  3  1  0  0  0  0
  9 10  1  0  0  0  0
  9 23  1  1  0  0  0
 10 24  1  0  0  0  0
 10 25  1  0  0  0  0
 11 13  1  0  0  0  0
 11 26  1  0  0  0  0
 11 27  1  0  0  0  0
 12 28  1  0  0  0  0
 12 29  1  0  0  0  0
 13 14  1  0  0  0  0
 13 30  1  0  0  0  0
 13 31  1  0  0  0  0
 14 15  1  0  0  0  0
 14 32  1  0  0  0  0
 14 33  1  0  0  0  0
 15 34  1  0  0  0  0
 15 35  1  0  0  0  0
 15 36  1  0  0  0  0
M  END
>  <DRUGBANK_ID>
DB00419

>  <SECONDARY_ACCESSION_NUMBERS>
APRD01118

>  <COMMON_NAME>
Miglustat

>  <CAS_NUMBER>
72599-27-0

>  <UNII>
ADN3S497AZ

>  <SYNONYMS>
1,5-(butylimino)-1,5-dideoxy, D-glucitol; AT2221; BuDNJ; Butyldeoxynojirimycin; Miglustat; Miglustatum; N-(n-Butyl)deoxynojirimycin; n-Butyl deoxynojirimycin; N-butyl-1-deoxynojirimycin; N-butyl-deoxynojirimycin; N-Butylmoranoline; NB-DNJ

$$$$
