
 OpenBabel10282417133D

 20 20  0  0  1  0  0  0  0  0999 V2000
    1.0932    0.9206    2.4814 C   0  0  0  0  0  0  0  0  0  0  0  0
   -0.3420    2.3273   -2.4872 C   0  0  0  0  0  0  0  0  0  0  0  0
   -1.1023    2.9497   -1.5206 C   0  0  0  0  0  0  0  0  0  0  0  0
    0.6073   -0.1654    1.5188 C   0  0  2  0  0  0  0  0  0  0  0  0
    1.0550    0.0378    0.0393 C   0  0  1  0  0  0  0  0  0  0  0  0
    0.3386    1.1472   -0.7351 C   0  0  0  0  0  0  0  0  0  0  0  0
    2.5261    0.1919   -0.0644 N   0  0  0  0  0  0  0  0  0  0  0  0
    0.4900    1.3198   -2.0361 N   0  0  0  0  0  0  0  0  0  0  0  0
   -0.8113   -0.3305    1.6474 O   0  0  0  0  0  0  0  0  0  0  0  0
   -0.7553    2.2674   -0.0037 S   0  0  0  0  0  0  0  0  0  0  0  0
    1.0321   -1.1169    1.8623 H   0  0  0  0  0  0  0  0  0  0  0  0
    0.8027   -0.8920   -0.4915 H   0  0  0  0  0  0  0  0  0  0  0  0
    2.1386    1.1890    2.3112 H   0  0  0  0  0  0  0  0  0  0  0  0
    1.0123    0.5695    3.5139 H   0  0  0  0  0  0  0  0  0  0  0  0
    0.4921    1.8305    2.4261 H   0  0  0  0  0  0  0  0  0  0  0  0
   -0.3629    2.5705   -3.5391 H   0  0  0  0  0  0  0  0  0  0  0  0
   -1.8187    3.7480   -1.6283 H   0  0  0  0  0  0  0  0  0  0  0  0
    2.7551    0.2817   -1.0567 H   0  0  0  0  0  0  0  0  0  0  0  0
    2.7952    1.0864    0.3429 H   0  0  0  0  0  0  0  0  0  0  0  0
   -1.2403    0.4698    1.2922 H   0  0  0  0  0  0  0  0  0  0  0  0
  1 13  1  0  0  0  0
  1 14  1  0  0  0  0
  1 15  1  0  0  0  0
  2 16  1  0  0  0  0
  3  2  2  0  0  0  0
  3 17  1  0  0  0  0
  4  9  1  0  0  0  0
  4 11  1  1  0  0  0
  4  5  1  0  0  0  0
  4  1  1  0  0  0  0
  5  7  1  0  0  0  0
  5 12  1  6  0  0  0
  6  5  1  0  0  0  0
  7 18  1  0  0  0  0
  7 19  1  0  0  0  0
  8  2  1  0  0  0  0
  8  6  2  0  0  0  0
  9 20  1  0  0  0  0
 10  3  1  0  0  0  0
 10  6  1  0  0  0  0
M  END
>  <DRUGBANK_ID>
DB03724

>  <SECONDARY_ACCESSION_NUMBERS>
EXPT03250

>  <COMMON_NAME>
(1s,2s)-1-Amino-1-(1,3-Thiazol-2-Yl)Propan-2-Ol

$$$$
