
 OpenBabel10282417143D

 36 37  0  0  0  0  0  0  0  0999 V2000
    0.8584    0.1148    0.0728 C   0  0  0  0  0  0  0  0  0  0  0  0
    0.2678   -1.1187    0.0641 C   0  0  0  0  0  0  0  0  0  0  0  0
    2.3735    0.0294    0.0836 C   0  0  0  0  0  0  0  0  0  0  0  0
    0.1123    1.4470    0.0617 C   0  0  0  0  0  0  0  0  0  0  0  0
   -1.9307    2.8569    0.0388 N   0  0  0  0  0  0  0  0  0  0  0  0
   -1.1844   -1.4997    0.0530 C   0  0  0  0  0  0  0  0  0  0  0  0
    3.1025   -0.5672   -0.9642 C   0  0  0  0  0  0  0  0  0  0  0  0
    3.1024    0.5984    1.1439 C   0  0  0  0  0  0  0  0  0  0  0  0
   -1.7198   -1.9939   -1.2238 N   0  0  0  0  0  0  0  0  0  0  0  0
    5.2009   -0.0050    0.1057 C   0  0  0  0  0  0  0  0  0  0  0  0
    4.5043    0.5981    1.1480 C   0  0  0  0  0  0  0  0  0  0  0  0
    4.5074   -0.5912   -0.9506 C   0  0  0  0  0  0  0  0  0  0  0  0
    7.0922   -0.0296    0.1303 Br  0  0  0  0  0  0  0  0  0  0  0  0
   -1.2698    1.6697    0.0641 C   0  0  0  0  0  0  0  0  0  0  0  0
   -1.1738    3.9541    0.0144 C   0  0  0  0  0  0  0  0  0  0  0  0
    0.8396    2.6495    0.0270 C   0  0  0  0  0  0  0  0  0  0  0  0
   -3.1933   -1.9196   -1.1717 C   0  0  0  0  0  0  0  0  0  0  0  0
   -1.2755   -1.2012   -2.3781 C   0  0  0  0  0  0  0  0  0  0  0  0
    0.1993    3.8976    0.0171 C   0  0  0  0  0  0  0  0  0  0  0  0
    0.9019   -2.0076    0.0746 H   0  0  0  0  0  0  0  0  0  0  0  0
   -1.3681   -2.2260    0.8553 H   0  0  0  0  0  0  0  0  0  0  0  0
   -1.7976   -0.6934    0.3922 H   0  0  0  0  0  0  0  0  0  0  0  0
    2.5856   -1.0169   -1.8102 H   0  0  0  0  0  0  0  0  0  0  0  0
    2.5793    1.0759    1.9688 H   0  0  0  0  0  0  0  0  0  0  0  0
    5.0387    1.0748    1.9666 H   0  0  0  0  0  0  0  0  0  0  0  0
    5.0500   -1.0609   -1.7683 H   0  0  0  0  0  0  0  0  0  0  0  0
   -2.0332    0.9174    0.0717 H   0  0  0  0  0  0  0  0  0  0  0  0
   -1.7289    4.8835   -0.0109 H   0  0  0  0  0  0  0  0  0  0  0  0
    1.9233    2.6540    0.0020 H   0  0  0  0  0  0  0  0  0  0  0  0
   -3.5474   -0.8792   -1.1397 H   0  0  0  0  0  0  0  0  0  0  0  0
   -3.6390   -2.3976   -2.0497 H   0  0  0  0  0  0  0  0  0  0  0  0
   -3.5868   -2.4296   -0.2855 H   0  0  0  0  0  0  0  0  0  0  0  0
   -1.6255   -0.1634   -2.3322 H   0  0  0  0  0  0  0  0  0  0  0  0
   -0.1851   -1.1935   -2.4728 H   0  0  0  0  0  0  0  0  0  0  0  0
   -1.6509   -1.6453   -3.3069 H   0  0  0  0  0  0  0  0  0  0  0  0
    0.7758    4.8157    0.0072 H   0  0  0  0  0  0  0  0  0  0  0  0
  2  1  2  0  0  0  0
  2 20  1  0  0  0  0
  3  1  1  0  0  0  0
  4  1  1  0  0  0  0
  5 14  2  0  0  0  0
  5 15  1  0  0  0  0
  6  2  1  0  0  0  0
  6 21  1  0  0  0  0
  6 22  1  0  0  0  0
  7  3  2  0  0  0  0
  7 23  1  0  0  0  0
  8  3  1  0  0  0  0
  8 24  1  0  0  0  0
  9  6  1  0  0  0  0
 10 11  1  0  0  0  0
 11  8  2  0  0  0  0
 11 25  1  0  0  0  0
 12  7  1  0  0  0  0
 12 10  2  0  0  0  0
 12 26  1  0  0  0  0
 13 10  1  0  0  0  0
 14  4  1  0  0  0  0
 14 27  1  0  0  0  0
 15 19  2  0  0  0  0
 15 28  1  0  0  0  0
 16  4  2  0  0  0  0
 16 29  1  0  0  0  0
 17  9  1  0  0  0  0
 17 30  1  0  0  0  0
 17 31  1  0  0  0  0
 17 32  1  0  0  0  0
 18  9  1  0  0  0  0
 18 33  1  0  0  0  0
 18 34  1  0  0  0  0
 18 35  1  0  0  0  0
 19 16  1  0  0  0  0
 19 36  1  0  0  0  0
M  END
>  <DRUGBANK_ID>
DB04832

>  <COMMON_NAME>
Zimelidine

>  <CAS_NUMBER>
56775-88-3

>  <UNII>
3J928617DW

>  <SYNONYMS>
(Z)-3-(4'-Bromophenyl)-3-(3''-pyridyl)dimethylallylamine; (Z)-zimelidine; cis-zimelidine; Zimeldina; Zimeldine; Zimeldinum

$$$$
