
 OpenBabel10282417193D

 42 43  0  0  0  0  0  0  0  0999 V2000
    0.9594   -0.1631    0.3480 C   0  0  0  0  0  0  0  0  0  0  0  0
    0.4306    1.2734    0.4225 C   0  0  0  0  0  0  0  0  0  0  0  0
    0.9475    2.2806   -0.6345 C   0  0  0  0  0  0  0  0  0  0  0  0
    0.5137    2.0089   -2.0122 N   0  0  0  0  0  0  0  0  0  0  0  0
    1.0013    3.0294   -2.9457 C   0  0  0  0  0  0  0  0  0  0  0  0
    0.5025    2.7265   -4.3625 C   0  0  0  0  0  0  0  0  0  0  0  0
    0.8907    1.3128   -4.8305 C   0  0  0  0  0  0  0  0  0  0  0  0
    0.5085    0.3006   -3.7886 C   0  0  0  0  0  0  0  0  0  0  0  0
    0.9935    0.7059   -2.4440 C   0  0  0  0  0  0  0  0  0  0  0  0
    0.2544    0.9432   -6.1490 C   0  0  0  0  0  0  0  0  0  0  0  0
    0.5684    1.7242   -7.2597 C   0  0  0  0  0  0  0  0  0  0  0  0
    0.0373    1.4153   -8.5023 C   0  0  0  0  0  0  0  0  0  0  0  0
   -0.7695    0.2904   -8.6640 C   0  0  0  0  0  0  0  0  0  0  0  0
   -1.0315   -0.5361   -7.5771 C   0  0  0  0  0  0  0  0  0  0  0  0
   -0.5818   -0.1792   -6.3136 C   0  0  0  0  0  0  0  0  0  0  0  0
   -1.7697   -2.1412   -7.7582 S   0  0  0  0  0  0  0  0  0  0  0  0
   -0.7368   -3.1057   -7.3932 O   0  0  0  0  0  0  0  0  0  0  0  0
   -3.0389   -2.1150   -7.0749 O   0  0  0  0  0  0  0  0  0  0  0  0
   -2.0740   -2.3410   -9.4909 C   0  0  0  0  0  0  0  0  0  0  0  0
    0.4422   -0.7953   -0.3749 H   0  0  0  0  0  0  0  0  0  0  0  0
    0.7611   -0.7066    1.2700 H   0  0  0  0  0  0  0  0  0  0  0  0
    2.0320   -0.1747    0.1281 H   0  0  0  0  0  0  0  0  0  0  0  0
   -0.6656    1.2629    0.4054 H   0  0  0  0  0  0  0  0  0  0  0  0
    0.7306    1.6610    1.4021 H   0  0  0  0  0  0  0  0  0  0  0  0
    0.5706    3.2726   -0.3463 H   0  0  0  0  0  0  0  0  0  0  0  0
    2.0421    2.3386   -0.5825 H   0  0  0  0  0  0  0  0  0  0  0  0
    2.0987    3.0644   -2.9402 H   0  0  0  0  0  0  0  0  0  0  0  0
    0.6391    4.0231   -2.6553 H   0  0  0  0  0  0  0  0  0  0  0  0
    0.9166    3.4777   -5.0434 H   0  0  0  0  0  0  0  0  0  0  0  0
   -0.5899    2.8333   -4.3934 H   0  0  0  0  0  0  0  0  0  0  0  0
    1.9839    1.2653   -4.9494 H   0  0  0  0  0  0  0  0  0  0  0  0
   -0.5844    0.2033   -3.7129 H   0  0  0  0  0  0  0  0  0  0  0  0
    0.9114   -0.6958   -4.0199 H   0  0  0  0  0  0  0  0  0  0  0  0
    0.4830   -0.0494   -1.8889 H   0  0  0  0  0  0  0  0  0  0  0  0
    2.0796    0.6013   -2.3459 H   0  0  0  0  0  0  0  0  0  0  0  0
    1.2294    2.5808   -7.1513 H   0  0  0  0  0  0  0  0  0  0  0  0
    0.2847    2.0420   -9.3520 H   0  0  0  0  0  0  0  0  0  0  0  0
   -1.1556    0.0779   -9.6506 H   0  0  0  0  0  0  0  0  0  0  0  0
   -0.8766   -0.8168   -5.4804 H   0  0  0  0  0  0  0  0  0  0  0  0
   -2.7757   -1.5703   -9.8152 H   0  0  0  0  0  0  0  0  0  0  0  0
   -1.1288   -2.2681  -10.0339 H   0  0  0  0  0  0  0  0  0  0  0  0
   -2.5105   -3.3272   -9.6531 H   0  0  0  0  0  0  0  0  0  0  0  0
  1  2  1  0  0  0  0
  1 20  1  0  0  0  0
  1 21  1  0  0  0  0
  1 22  1  0  0  0  0
  2  3  1  0  0  0  0
  2 23  1  0  0  0  0
  2 24  1  0  0  0  0
  3  4  1  0  0  0  0
  3 25  1  0  0  0  0
  3 26  1  0  0  0  0
  4  5  1  0  0  0  0
  4  9  1  0  0  0  0
  5  6  1  0  0  0  0
  5 27  1  0  0  0  0
  5 28  1  0  0  0  0
  6  7  1  0  0  0  0
  6 29  1  0  0  0  0
  6 30  1  0  0  0  0
  7  8  1  0  0  0  0
  7 10  1  0  0  0  0
  7 31  1  0  0  0  0
  8  9  1  0  0  0  0
  8 32  1  0  0  0  0
  8 33  1  0  0  0  0
  9 34  1  0  0  0  0
  9 35  1  0  0  0  0
 10 11  2  0  0  0  0
 10 15  1  0  0  0  0
 11 12  1  0  0  0  0
 11 36  1  0  0  0  0
 12 13  2  0  0  0  0
 12 37  1  0  0  0  0
 13 14  1  0  0  0  0
 13 38  1  0  0  0  0
 14 15  2  0  0  0  0
 14 16  1  0  0  0  0
 15 39  1  0  0  0  0
 16 17  2  0  0  0  0
 16 18  2  0  0  0  0
 16 19  1  0  0  0  0
 19 40  1  0  0  0  0
 19 41  1  0  0  0  0
 19 42  1  0  0  0  0
M  END
>  <DRUGBANK_ID>
DB11947

>  <COMMON_NAME>
Pridopidine

>  <CAS_NUMBER>
346688-38-8

>  <UNII>
HD4TW8S2VK

>  <SYNONYMS>
Pridopidine

$$$$
