B4N
 OpenBabel10282417163D

 32 33  0  0  0  0  0  0  0  0999 V2000
    1.3182   -0.3807    0.1580 C   0  0  0  0  0  0  0  0  0  0  0  0
    0.3853   -1.3943    0.0196 C   0  0  0  0  0  0  0  0  0  0  0  0
   -0.9556   -1.0775   -0.0352 C   0  0  0  0  0  0  0  0  0  0  0  0
   -1.8931   -2.2093    0.0150 N   0  3  0  0  0  0  0  0  0  0  0  0
   -3.1129   -1.9494    0.0357 O   0  0  0  0  0  0  0  0  0  0  0  0
   -1.4223   -3.3482    0.0687 O   0  5  0  0  0  0  0  0  0  0  0  0
   -1.3342    0.2745   -0.0148 C   0  0  0  0  0  0  0  0  0  0  0  0
   -0.3365    1.3136    0.0599 C   0  0  0  0  0  0  0  0  0  0  0  0
    1.0344    0.9824    0.1030 C   0  0  0  0  0  0  0  0  0  0  0  0
    2.1354    1.8659    0.1642 O   0  0  0  0  0  0  0  0  0  0  0  0
    3.3396    1.7224   -0.9740 P   0  0  0  0  0  0  0  0  0  0  0  0
    3.6674    0.1556   -0.8663 O   0  0  0  0  0  0  0  0  0  0  0  0
    2.9446    2.2080   -2.3310 O   0  0  0  0  0  0  0  0  0  0  0  0
    4.8761    2.1071   -0.5329 O   0  0  0  0  0  0  0  0  0  0  0  0
    5.7507    2.4157   -1.5814 C   0  0  0  0  0  0  0  0  0  0  0  0
    5.6142    3.7393   -1.9686 C   0  0  0  0  0  0  0  0  0  0  0  0
    6.2794    4.2527   -3.0749 C   0  0  0  0  0  0  0  0  0  0  0  0
    7.1649    3.4525   -3.7974 C   0  0  0  0  0  0  0  0  0  0  0  0
    7.7943    4.0265   -5.0015 N   0  3  0  0  0  0  0  0  0  0  0  0
    8.5912    3.3176   -5.6369 O   0  0  0  0  0  0  0  0  0  0  0  0
    7.4848    5.1838   -5.3154 O   0  5  0  0  0  0  0  0  0  0  0  0
    7.3905    2.1265   -3.3934 C   0  0  0  0  0  0  0  0  0  0  0  0
    6.6448    1.5848   -2.2998 C   0  0  0  0  0  0  0  0  0  0  0  0
    2.2990   -0.7657    0.3536 H   0  0  0  0  0  0  0  0  0  0  0  0
    0.7537   -2.4152    0.0168 H   0  0  0  0  0  0  0  0  0  0  0  0
   -2.3973    0.5267   -0.0400 H   0  0  0  0  0  0  0  0  0  0  0  0
   -0.6960    2.3422    0.1103 H   0  0  0  0  0  0  0  0  0  0  0  0
    3.9574    0.0452    0.0643 H   0  0  0  0  0  0  0  0  0  0  0  0
    4.9034    4.3567   -1.4332 H   0  0  0  0  0  0  0  0  0  0  0  0
    6.0623    5.2755   -3.3624 H   0  0  0  0  0  0  0  0  0  0  0  0
    8.1188    1.5159   -3.9361 H   0  0  0  0  0  0  0  0  0  0  0  0
    6.7776    0.5201   -2.0982 H   0  0  0  0  0  0  0  0  0  0  0  0
  1  2  2  0  0  0  0
  1  9  1  0  0  0  0
  1 24  1  0  0  0  0
  2  3  1  0  0  0  0
  2 25  1  0  0  0  0
  3  4  1  0  0  0  0
  3  7  2  0  0  0  0
  4  5  2  0  0  0  0
  4  6  1  0  0  0  0
  7  8  1  0  0  0  0
  7 26  1  0  0  0  0
  8  9  2  0  0  0  0
  8 27  1  0  0  0  0
  9 10  1  0  0  0  0
 10 11  1  0  0  0  0
 11 12  1  0  0  0  0
 11 13  2  0  0  0  0
 11 14  1  0  0  0  0
 12 28  1  0  0  0  0
 14 15  1  0  0  0  0
 15 16  2  0  0  0  0
 15 23  1  0  0  0  0
 16 17  1  0  0  0  0
 16 29  1  0  0  0  0
 17 18  2  0  0  0  0
 17 30  1  0  0  0  0
 18 19  1  0  0  0  0
 18 22  1  0  0  0  0
 19 20  2  0  0  0  0
 19 21  1  0  0  0  0
 22 23  2  0  0  0  0
 22 31  1  0  0  0  0
 23 32  1  0  0  0  0
M  CHG  4   4   1   6  -1  19   1  21  -1
M  END
>  <DRUGBANK_ID>
DB07418

>  <COMMON_NAME>
bis(4-nitrophenyl) hydrogen phosphate

>  <UNII>
1MF77LEI63

$$$$
