
 OpenBabel10282417233D

 83 90  0  0  0  0  0  0  0  0999 V2000
   -0.2015    1.3568   -2.6998 C   0  0  0  0  0  0  0  0  0  0  0  0
    0.3855   -1.2950    0.0171 C   0  0  0  0  0  0  0  0  0  0  0  0
   -0.8735    0.8500   -1.0540 C   0  0  0  0  0  0  0  0  0  0  0  0
   -0.7705   -0.5620   -0.0488 C   0  0  0  0  0  0  0  0  0  0  0  0
   -2.1124   -1.4422    0.2741 C   0  0  0  0  0  0  0  0  0  0  0  0
   -3.3114   -0.7212   -0.2924 C   0  0  0  0  0  0  0  0  0  0  0  0
   -3.3043    0.6062    0.3165 N   0  0  0  0  0  0  0  0  0  0  0  0
   -2.2078    1.4714   -0.2526 C   0  0  1  0  0  0  0  0  0  0  0  0
    1.3875   -0.5794   -0.5644 C   0  0  0  0  0  0  0  0  0  0  0  0
    1.1876    0.5719   -1.8307 C   0  0  0  0  0  0  0  0  0  0  0  0
    2.3838    1.3495   -0.7207 O   0  0  0  0  0  0  0  0  0  0  0  0
    3.3015    0.2214    0.1435 C   0  0  0  0  0  0  0  0  0  0  0  0
    2.6559   -0.9936   -0.1103 O   0  0  0  0  0  0  0  0  0  0  0  0
   -1.9042    2.1904    0.5440 H   0  0  0  0  0  0  0  0  0  0  0  0
   -2.4788    1.9713   -1.6005 C   0  0  0  0  0  0  0  0  0  0  0  0
   -2.5872    0.6400   -2.5577 C   0  0  0  0  0  0  0  0  0  0  0  0
   -1.5477   -0.5535   -2.6443 C   0  0  0  0  0  0  0  0  0  0  0  0
   -1.4974   -1.7133   -3.2557 C   0  0  0  0  0  0  0  0  0  0  0  0
   -2.5674   -1.7711   -4.0237 C   0  0  0  0  0  0  0  0  0  0  0  0
   -3.5847   -0.7384   -4.0724 C   0  0  0  0  0  0  0  0  0  0  0  0
   -3.6733    0.4049   -3.2757 C   0  0  0  0  0  0  0  0  0  0  0  0
   -2.5671   -2.9689   -4.6435 O   0  0  0  0  0  0  0  0  0  0  0  0
   -3.7232   -3.3129   -5.2270 C   0  0  0  0  0  0  0  0  0  0  0  0
   -4.9757   -3.3059   -4.5992 C   0  0  0  0  0  0  0  0  0  0  0  0
   -6.0376   -3.7115   -5.3233 C   0  0  0  0  0  0  0  0  0  0  0  0
   -5.7721   -4.0479   -6.6409 C   0  0  0  0  0  0  0  0  0  0  0  0
   -4.5828   -3.8818   -7.3408 C   0  0  0  0  0  0  0  0  0  0  0  0
   -3.5187   -3.6764   -6.5390 C   0  0  0  0  0  0  0  0  0  0  0  0
   -4.3469   -3.6621   -8.8137 C   0  0  0  0  0  0  0  0  0  0  0  0
   -4.9112   -2.3040   -9.2554 C   0  0  1  0  0  0  0  0  0  0  0  0
   -6.5307   -2.5401   -9.0900 N   0  0  0  0  0  0  0  0  0  0  0  0
   -6.8648   -1.9292   -7.7833 C   0  0  0  0  0  0  0  0  0  0  0  0
   -6.6806   -0.4375   -7.7034 C   0  0  0  0  0  0  0  0  0  0  0  0
   -4.2518   -0.8332   -8.3319 C   0  0  0  0  0  0  0  0  0  0  0  0
   -5.3178    0.0542   -8.3113 C   0  0  0  0  0  0  0  0  0  0  0  0
   -4.7909    1.3118   -7.8735 C   0  0  0  0  0  0  0  0  0  0  0  0
   -3.3512    1.8096   -7.0299 C   0  0  0  0  0  0  0  0  0  0  0  0
   -1.9853    0.9613   -6.2435 C   0  0  0  0  0  0  0  0  0  0  0  0
   -2.7543   -0.3616   -7.3589 C   0  0  0  0  0  0  0  0  0  0  0  0
   -4.8842   -2.2423  -10.4015 H   0  0  0  0  0  0  0  0  0  0  0  0
   -7.0221   -4.0205   -9.2637 C   0  0  0  0  0  0  0  0  0  0  0  0
   -3.0273    2.9788   -8.2666 O   0  0  0  0  0  0  0  0  0  0  0  0
   -3.7142    3.5347   -9.6592 C   0  0  0  0  0  0  0  0  0  0  0  0
   -1.2671    0.9246   -4.4462 O   0  0  0  0  0  0  0  0  0  0  0  0
   -5.2146   -2.9429   -3.3092 O   0  0  0  0  0  0  0  0  0  0  0  0
   -4.3518   -3.6946   -2.4709 C   0  0  0  0  0  0  0  0  0  0  0  0
   -3.2400    0.4484    1.7989 C   0  0  0  0  0  0  0  0  0  0  0  0
    0.4645   -2.3728    0.1967 H   0  0  0  0  0  0  0  0  0  0  0  0
   -2.6331   -2.3777    0.5848 H   0  0  0  0  0  0  0  0  0  0  0  0
   -1.5460   -2.3163   -0.0826 H   0  0  0  0  0  0  0  0  0  0  0  0
   -4.3496   -1.0839   -0.3799 H   0  0  0  0  0  0  0  0  0  0  0  0
   -3.1957   -0.8391   -1.3304 H   0  0  0  0  0  0  0  0  0  0  0  0
    4.4412    0.1873   -0.0102 H   0  0  0  0  0  0  0  0  0  0  0  0
    3.4693    0.3091    1.2857 H   0  0  0  0  0  0  0  0  0  0  0  0
   -3.1977    2.7382   -1.8217 H   0  0  0  0  0  0  0  0  0  0  0  0
   -1.6053    2.6686   -1.6361 H   0  0  0  0  0  0  0  0  0  0  0  0
   -0.5278   -0.5830   -2.2681 H   0  0  0  0  0  0  0  0  0  0  0  0
   -0.6544   -2.3617   -3.0804 H   0  0  0  0  0  0  0  0  0  0  0  0
   -4.3591   -0.8459   -4.7999 H   0  0  0  0  0  0  0  0  0  0  0  0
   -4.4943    1.0783   -3.2009 H   0  0  0  0  0  0  0  0  0  0  0  0
   -7.0718   -3.6758   -4.9915 H   0  0  0  0  0  0  0  0  0  0  0  0
   -6.6845   -4.0678   -7.1484 H   0  0  0  0  0  0  0  0  0  0  0  0
   -2.5300   -3.7800   -6.9534 H   0  0  0  0  0  0  0  0  0  0  0  0
   -4.5753   -4.3970   -9.6036 H   0  0  0  0  0  0  0  0  0  0  0  0
   -3.2945   -3.8618   -8.8772 H   0  0  0  0  0  0  0  0  0  0  0  0
   -7.7732   -2.3851   -7.3496 H   0  0  0  0  0  0  0  0  0  0  0  0
   -6.1346   -2.0568   -6.9875 H   0  0  0  0  0  0  0  0  0  0  0  0
   -7.6550   -0.0067   -7.9167 H   0  0  0  0  0  0  0  0  0  0  0  0
   -6.4950   -0.2229   -6.6278 H   0  0  0  0  0  0  0  0  0  0  0  0
   -5.6283    1.9295   -7.5403 H   0  0  0  0  0  0  0  0  0  0  0  0
   -2.4886   -0.1865   -8.6583 H   0  0  0  0  0  0  0  0  0  0  0  0
   -6.2495   -4.7274   -9.5617 H   0  0  0  0  0  0  0  0  0  0  0  0
   -7.4698   -4.5844   -8.4221 H   0  0  0  0  0  0  0  0  0  0  0  0
   -7.8368   -4.1653   -9.9708 H   0  0  0  0  0  0  0  0  0  0  0  0
   -3.1573    3.1901  -10.5664 H   0  0  0  0  0  0  0  0  0  0  0  0
   -4.8069    3.5324   -9.9330 H   0  0  0  0  0  0  0  0  0  0  0  0
   -3.4833    4.6282   -9.6825 H   0  0  0  0  0  0  0  0  0  0  0  0
   -4.5512   -4.7560   -2.6089 H   0  0  0  0  0  0  0  0  0  0  0  0
   -3.2948   -3.5434   -2.6585 H   0  0  0  0  0  0  0  0  0  0  0  0
   -4.4956   -3.3804   -1.4430 H   0  0  0  0  0  0  0  0  0  0  0  0
   -4.0424    1.0043    2.2935 H   0  0  0  0  0  0  0  0  0  0  0  0
   -3.3802   -0.6014    2.1094 H   0  0  0  0  0  0  0  0  0  0  0  0
   -2.2869    0.7657    2.2410 H   0  0  0  0  0  0  0  0  0  0  0  0
  1 44  1  0  0  0  0
  1 10  2  0  0  0  0
  2  4  1  0  0  0  0
  2 48  1  0  0  0  0
  3  4  2  0  0  0  0
  3  8  1  0  0  0  0
  3  1  1  0  0  0  0
  4  5  1  0  0  0  0
  5  6  1  0  0  0  0
  5 49  1  0  0  0  0
  5 50  1  0  0  0  0
  6  7  1  0  0  0  0
  6 51  1  0  0  0  0
  6 52  1  0  0  0  0
  7  8  1  0  0  0  0
  7 47  1  0  0  0  0
  8 15  1  0  0  0  0
  8 14  1  6  0  0  0
  9  2  2  0  0  0  0
  9 10  1  0  0  0  0
 10 11  1  0  0  0  0
 11 12  1  0  0  0  0
 12 13  1  0  0  0  0
 12 53  1  0  0  0  0
 12 54  1  0  0  0  0
 13  9  1  0  0  0  0
 15 16  1  0  0  0  0
 15 55  1  0  0  0  0
 15 56  1  0  0  0  0
 16 17  2  0  0  0  0
 17 18  1  0  0  0  0
 17 57  1  0  0  0  0
 18 19  2  0  0  0  0
 18 58  1  0  0  0  0
 19 22  1  0  0  0  0
 19 20  1  0  0  0  0
 20 21  2  0  0  0  0
 20 59  1  0  0  0  0
 21 16  1  0  0  0  0
 21 60  1  0  0  0  0
 22 23  1  0  0  0  0
 23 24  2  0  0  0  0
 24 25  1  0  0  0  0
 24 45  1  0  0  0  0
 25 26  2  0  0  0  0
 25 61  1  0  0  0  0
 26 27  1  0  0  0  0
 26 62  1  0  0  0  0
 27 28  2  0  0  0  0
 27 29  1  0  0  0  0
 28 23  1  0  0  0  0
 28 63  1  0  0  0  0
 29 30  1  0  0  0  0
 29 64  1  0  0  0  0
 29 65  1  0  0  0  0
 30 31  1  0  0  0  0
 30 34  1  0  0  0  0
 30 40  1  6  0  0  0
 31 32  1  0  0  0  0
 31 41  1  0  0  0  0
 32 33  1  0  0  0  0
 32 66  1  0  0  0  0
 32 67  1  0  0  0  0
 33 35  1  0  0  0  0
 33 68  1  0  0  0  0
 33 69  1  0  0  0  0
 34 35  2  0  0  0  0
 35 36  1  0  0  0  0
 36 37  2  0  0  0  0
 36 70  1  0  0  0  0
 37 38  1  0  0  0  0
 37 42  1  0  0  0  0
 38 39  2  0  0  0  0
 38 44  1  0  0  0  0
 39 34  1  0  0  0  0
 39 71  1  0  0  0  0
 41 72  1  0  0  0  0
 41 73  1  0  0  0  0
 41 74  1  0  0  0  0
 42 43  1  0  0  0  0
 43 75  1  0  0  0  0
 43 76  1  0  0  0  0
 43 77  1  0  0  0  0
 45 46  1  0  0  0  0
 46 78  1  0  0  0  0
 46 79  1  0  0  0  0
 46 80  1  0  0  0  0
 47 81  1  0  0  0  0
 47 82  1  0  0  0  0
 47 83  1  0  0  0  0
M  END
>  <DRUGBANK_ID>
DB16824

>  <COMMON_NAME>
Cepharanthine

>  <CAS_NUMBER>
481-49-2

>  <UNII>
7592YJ0J6T

>  <SYNONYMS>
Cepharanthin; Cepharanthine

$$$$
