
 OpenBabel10282417233D

107112  0  0  1  0  0  0  0  0999 V2000
    1.8582   -0.6724   -1.0578 C   0  0  0  0  0  0  0  0  0  0  0  0
    1.3307    0.0087   -2.0971 C   0  0  0  0  0  0  0  0  0  0  0  0
    2.0343   -0.2908   -3.3055 C   0  0  0  0  0  0  0  0  0  0  0  0
    1.9335   -1.5576   -4.0258 C   0  0  0  0  0  0  0  0  0  0  0  0
    0.6687   -2.1936   -4.2158 O   0  0  0  0  0  0  0  0  0  0  0  0
   -0.1071   -2.0796   -3.0653 C   0  0  3  0  0  0  0  0  0  0  0  0
    0.6610   -2.9263   -1.9528 C   0  0  0  0  0  0  0  0  0  0  0  0
   -0.6021   -0.2826   -3.4586 C   0  0  0  0  0  0  0  0  0  0  0  0
   -0.1601    1.1205   -3.6895 C   0  0  0  0  0  0  0  0  0  0  0  0
    0.0829    1.0591   -5.7962 C   0  0  0  0  0  0  0  0  0  0  0  0
   -0.7723    1.9263   -2.5380 C   0  0  0  0  0  0  0  0  0  0  0  0
   -0.6533    3.0438   -2.9707 C   0  0  0  0  0  0  0  0  0  0  0  0
   -0.0363    3.3247   -4.1835 C   0  0  0  0  0  0  0  0  0  0  0  0
   -0.4182    2.9391   -5.3007 N   0  0  0  0  0  0  0  0  0  0  0  0
    0.4024    3.4096   -6.4699 C   0  0  0  0  0  0  0  0  0  0  0  0
    0.8483    4.6249   -5.9340 C   0  0  1  0  0  0  0  0  0  0  0  0
   -0.1708    5.7158   -6.1164 C   0  0  0  0  0  0  0  0  0  0  0  0
   -1.1052    5.3681   -7.2503 C   0  0  0  0  0  0  0  0  0  0  0  0
   -1.9145    4.0991   -7.0073 C   0  0  0  0  0  0  0  0  0  0  0  0
   -3.0971    4.0084   -6.9113 O   0  0  0  0  0  0  0  0  0  0  0  0
   -1.4627    2.9238   -6.9548 O   0  0  0  0  0  0  0  0  0  0  0  0
   -1.9061    1.6919   -6.5016 C   0  0  0  0  0  0  0  0  0  0  0  0
    1.0320    4.2218   -4.4626 C   0  0  2  0  0  0  0  0  0  0  0  0
    2.4058    3.7029   -4.2002 C   0  0  0  0  0  0  0  0  0  0  0  0
    0.3329    2.9087   -7.8182 C   0  0  0  0  0  0  0  0  0  0  0  0
    0.6342    3.6561   -8.9178 C   0  0  0  0  0  0  0  0  0  0  0  0
    0.6158    3.0203  -10.1232 C   0  0  0  0  0  0  0  0  0  0  0  0
    1.0540    3.9273  -11.0247 C   0  0  0  0  0  0  0  0  0  0  0  0
    1.7002    3.4886  -12.4389 C   0  0  0  0  0  0  0  0  0  0  0  0
    1.5908    5.1595  -10.1322 C   0  0  0  0  0  0  0  0  0  0  0  0
    1.4459    4.7689   -8.8738 N   0  0  0  0  0  0  0  0  0  0  0  0
    2.5208    6.1371  -10.4569 C   0  0  0  0  0  0  0  0  0  0  0  0
    2.8046    5.1840  -11.2072 C   0  0  0  0  0  0  0  0  0  0  0  0
    2.8641    3.4767  -10.2428 N   0  0  0  0  0  0  0  0  0  0  0  0
    2.6558    2.9058   -8.5665 C   0  0  0  0  0  0  0  0  0  0  0  0
    1.5926    1.7514   -6.3319 C   0  0  0  0  0  0  0  0  0  0  0  0
    0.6571    1.0874   -4.4639 C   0  0  0  0  0  0  0  0  0  0  0  0
   -0.5248    0.7908   -2.6317 N   0  0  0  0  0  0  0  0  0  0  0  0
    3.6515    4.2060  -10.5867 C   0  0  2  0  0  0  0  0  0  0  0  0
    5.0197    4.9982  -12.4115 C   0  0  0  0  0  0  0  0  0  0  0  0
    3.7836    6.0404  -12.0212 C   0  0  1  0  0  0  0  0  0  0  0  0
    3.1566    7.8182  -13.1171 C   0  0  0  0  0  0  0  0  0  0  0  0
    3.7583    8.9050  -14.4418 C   0  0  0  0  0  0  0  0  0  0  0  0
    0.2512    1.7256  -10.3939 C   0  0  0  0  0  0  0  0  0  0  0  0
    0.4936    1.2818  -11.4816 O   0  0  0  0  0  0  0  0  0  0  0  0
   -0.4124    1.1251   -9.4708 N   0  0  0  0  0  0  0  0  0  0  0  0
   -1.1181   -0.1418   -9.6636 C   0  0  0  0  0  0  0  0  0  0  0  0
   -2.1890    0.0703  -10.6747 C   0  0  0  0  0  0  0  0  0  0  0  0
   -1.6013    0.5344  -11.9740 C   0  0  0  0  0  0  0  0  0  0  0  0
   -0.5611   -0.4675  -12.4712 C   0  0  0  0  0  0  0  0  0  0  0  0
   -0.3210    1.6269   -8.3062 C   0  0  0  0  0  0  0  0  0  0  0  0
   -0.8047    0.6485   -7.8392 O   0  0  0  0  0  0  0  0  0  0  0  0
    2.1290   -1.5679   -1.3915 H   0  0  0  0  0  0  0  0  0  0  0  0
    1.2309   -0.7788   -0.2292 H   0  0  0  0  0  0  0  0  0  0  0  0
    2.7789   -0.2464   -1.0543 H   0  0  0  0  0  0  0  0  0  0  0  0
    0.4453   -0.5185   -1.9602 H   0  0  0  0  0  0  0  0  0  0  0  0
    1.0139    0.9811   -1.7860 H   0  0  0  0  0  0  0  0  0  0  0  0
    1.8483    0.1482   -4.1197 H   0  0  0  0  0  0  0  0  0  0  0  0
    2.7387    0.4709   -3.4384 H   0  0  0  0  0  0  0  0  0  0  0  0
    2.4177   -1.4895   -4.9972 H   0  0  0  0  0  0  0  0  0  0  0  0
    2.5305   -2.0548   -3.3345 H   0  0  0  0  0  0  0  0  0  0  0  0
   -1.0312   -2.6640   -3.0877 H   0  0  0  0  0  0  0  0  0  0  0  0
    1.6889   -2.7428   -1.9508 H   0  0  0  0  0  0  0  0  0  0  0  0
    0.2577   -2.8797   -0.9562 H   0  0  0  0  0  0  0  0  0  0  0  0
    0.9210   -3.9280   -2.2486 H   0  0  0  0  0  0  0  0  0  0  0  0
   -0.8508    0.9041   -5.1810 H   0  0  0  0  0  0  0  0  0  0  0  0
    1.5817    1.7468   -4.9448 H   0  0  0  0  0  0  0  0  0  0  0  0
    0.7745   -0.4612   -5.6013 H   0  0  0  0  0  0  0  0  0  0  0  0
   -1.0881    3.5408   -2.2215 H   0  0  0  0  0  0  0  0  0  0  0  0
    1.7298    4.8662   -6.4515 H   0  0  0  0  0  0  0  0  0  0  0  0
   -0.7329    5.7953   -5.1929 H   0  0  0  0  0  0  0  0  0  0  0  0
    0.3089    6.6875   -6.2968 H   0  0  0  0  0  0  0  0  0  0  0  0
   -1.8507    6.1414   -7.3552 H   0  0  0  0  0  0  0  0  0  0  0  0
   -0.5491    5.3554   -8.1804 H   0  0  0  0  0  0  0  0  0  0  0  0
   -2.2382    1.6669   -5.5335 H   0  0  0  0  0  0  0  0  0  0  0  0
   -2.4066    1.4027   -7.3465 H   0  0  0  0  0  0  0  0  0  0  0  0
   -1.1886    0.7675   -6.4605 H   0  0  0  0  0  0  0  0  0  0  0  0
    0.8189    5.0359   -3.8288 H   0  0  0  0  0  0  0  0  0  0  0  0
    3.1117    4.4906   -4.4235 H   0  0  0  0  0  0  0  0  0  0  0  0
    2.5018    3.4085   -3.1625 H   0  0  0  0  0  0  0  0  0  0  0  0
    2.6691    2.8589   -4.8210 H   0  0  0  0  0  0  0  0  0  0  0  0
    2.3735    2.6233  -12.5294 H   0  0  0  0  0  0  0  0  0  0  0  0
    0.8371    3.5065  -13.0029 H   0  0  0  0  0  0  0  0  0  0  0  0
    2.2802    4.2588  -12.9108 H   0  0  0  0  0  0  0  0  0  0  0  0
    1.7784    5.3377   -8.1340 H   0  0  0  0  0  0  0  0  0  0  0  0
    3.1509    6.8545  -10.0502 H   0  0  0  0  0  0  0  0  0  0  0  0
    1.1816    0.6006   -5.1770 H   0  0  0  0  0  0  0  0  0  0  0  0
   -1.2189    1.1726   -1.2520 H   0  0  0  0  0  0  0  0  0  0  0  0
    3.7960    4.7413  -12.2802 H   0  0  0  0  0  0  0  0  0  0  0  0
    5.9188    4.4583  -13.2009 H   0  0  0  0  0  0  0  0  0  0  0  0
    5.7921    5.4523  -13.8967 H   0  0  0  0  0  0  0  0  0  0  0  0
    6.0949    6.1398  -12.7899 H   0  0  0  0  0  0  0  0  0  0  0  0
    4.7009    7.2821  -12.1382 H   0  0  0  0  0  0  0  0  0  0  0  0
    2.2052    7.6807  -13.6576 H   0  0  0  0  0  0  0  0  0  0  0  0
    2.9274    8.7958  -12.4926 H   0  0  0  0  0  0  0  0  0  0  0  0
    3.9633    8.2945  -15.3079 H   0  0  0  0  0  0  0  0  0  0  0  0
    3.0448    9.7099  -14.7952 H   0  0  0  0  0  0  0  0  0  0  0  0
    4.6606    9.4379  -14.1458 H   0  0  0  0  0  0  0  0  0  0  0  0
   -0.3883   -0.8739   -9.9527 H   0  0  0  0  0  0  0  0  0  0  0  0
   -1.5916   -0.5420   -8.7446 H   0  0  0  0  0  0  0  0  0  0  0  0
   -2.6972   -0.8650  -10.8536 H   0  0  0  0  0  0  0  0  0  0  0  0
   -2.9034    0.8072  -10.3135 H   0  0  0  0  0  0  0  0  0  0  0  0
   -2.3302    0.7202  -12.7216 H   0  0  0  0  0  0  0  0  0  0  0  0
   -1.2201    1.5416  -11.8312 H   0  0  0  0  0  0  0  0  0  0  0  0
   -1.0439   -1.4057  -12.6485 H   0  0  0  0  0  0  0  0  0  0  0  0
   -0.0785   -0.0992  -13.3712 H   0  0  0  0  0  0  0  0  0  0  0  0
    0.2300   -0.6415  -11.7272 H   0  0  0  0  0  0  0  0  0  0  0  0
  1  2  1  0  0  0  0
  1 53  1  0  0  0  0
  1 54  1  0  0  0  0
  1 55  1  0  0  0  0
  2  3  1  0  0  0  0
  2 56  1  0  0  0  0
  2 57  1  0  0  0  0
  3  4  1  0  0  0  0
  3 58  1  0  0  0  0
  3 59  1  0  0  0  0
  4  5  1  0  0  0  0
  4 60  1  0  0  0  0
  4 61  1  0  0  0  0
  5  6  1  0  0  0  0
  6  7  1  0  0  0  0
  6  8  1  0  0  0  0
  6 62  1  0  0  0  0
  7 63  1  0  0  0  0
  7 64  1  0  0  0  0
  7 65  1  0  0  0  0
  8  9  2  0  0  0  0
  8 37  1  0  0  0  0
  9 10  1  0  0  0  0
  9 11  1  0  0  0  0
 10 66  1  0  0  0  0
 10 67  1  0  0  0  0
 10 68  1  0  0  0  0
 11 12  2  0  0  0  0
 11 38  1  0  0  0  0
 12 13  1  0  0  0  0
 12 69  1  0  0  0  0
 13 14  2  0  0  0  0
 14 15  1  0  0  0  0
 15 25  2  0  0  0  0
 16 15  1  0  0  0  0
 16 23  1  0  0  0  0
 16 70  1  6  0  0  0
 16 17  1  0  0  0  0
 17 18  1  0  0  0  0
 17 71  1  0  0  0  0
 17 72  1  0  0  0  0
 18 19  1  0  0  0  0
 18 73  1  0  0  0  0
 18 74  1  0  0  0  0
 19 20  2  0  0  0  0
 19 21  1  0  0  0  0
 21 22  1  0  0  0  0
 22 75  1  0  0  0  0
 22 76  1  0  0  0  0
 22 77  1  0  0  0  0
 23 13  1  0  0  0  0
 23 24  1  0  0  0  0
 23 78  1  1  0  0  0
 24 79  1  0  0  0  0
 24 80  1  0  0  0  0
 24 81  1  0  0  0  0
 25 26  1  0  0  0  0
 25 51  1  0  0  0  0
 26 27  2  0  0  0  0
 26 31  1  0  0  0  0
 27 28  1  0  0  0  0
 27 44  1  0  0  0  0
 28 29  1  0  0  0  0
 28 30  2  0  0  0  0
 29 82  1  0  0  0  0
 29 83  1  0  0  0  0
 29 84  1  0  0  0  0
 30 31  1  0  0  0  0
 30 32  1  0  0  0  0
 31 85  1  0  0  0  0
 32 33  2  0  0  0  0
 32 86  1  0  0  0  0
 33 34  1  0  0  0  0
 34 35  2  0  0  0  0
 35 36  1  0  0  0  0
 36 37  2  0  0  0  0
 36 87  1  0  0  0  0
 37 38  1  0  0  0  0
 38 88  1  0  0  0  0
 39 35  1  0  0  0  0
 39 41  1  0  0  0  0
 39 89  1  6  0  0  0
 39 40  1  0  0  0  0
 40 90  1  0  0  0  0
 40 91  1  0  0  0  0
 40 92  1  0  0  0  0
 41 33  1  0  0  0  0
 41 93  1  1  0  0  0
 41 42  1  0  0  0  0
 42 43  1  0  0  0  0
 42 94  1  0  0  0  0
 42 95  1  0  0  0  0
 43 96  1  0  0  0  0
 43 97  1  0  0  0  0
 43 98  1  0  0  0  0
 44 45  2  0  0  0  0
 44 46  1  0  0  0  0
 46 47  1  0  0  0  0
 46 51  1  0  0  0  0
 47 48  1  0  0  0  0
 47 99  1  0  0  0  0
 47100  1  0  0  0  0
 48 49  1  0  0  0  0
 48101  1  0  0  0  0
 48102  1  0  0  0  0
 49 50  1  0  0  0  0
 49103  1  0  0  0  0
 49104  1  0  0  0  0
 50105  1  0  0  0  0
 50106  1  0  0  0  0
 50107  1  0  0  0  0
 51 52  2  0  0  0  0
M  END
>  <DRUGBANK_ID>
DB17134

>  <COMMON_NAME>
Methyl bacteriopurpurinimide

>  <CAS_NUMBER>
2044523-17-1

>  <UNII>
E7DBJ0SBC7

>  <SYNONYMS>
3-(1-butyloxy)ethyl-3-deacetyl-bacteriopurpurin-18-n-butylimide methyl ester; 9,12-imino-2,21-metheno-7,4:14,17-dinitrilo-4h-pyrido(4,3-b)azacyclononadecine-16-propanoic acid, 10-(1-butoxyethyl)-19-butyl-5-ethyl-1,5,6,15,16,18,19,20-octahydro-6,11,15,22-tetramethyl-18,20-dioxo-, (5r,6r,15s,16s)-; Bacteriopurpurinimide-methyl ester; Photobac

$$$$
