
 OpenBabel10282417123D

 21 21  0  0  0  0  0  0  0  0999 V2000
    1.4248   -0.2817    0.0086 C   0  0  0  0  0  0  0  0  0  0  0  0
    0.5211   -1.3458    0.0255 C   0  0  0  0  0  0  0  0  0  0  0  0
   -0.8581   -1.1095   -0.0203 C   0  0  0  0  0  0  0  0  0  0  0  0
   -1.3383    0.1985   -0.1358 C   0  0  0  0  0  0  0  0  0  0  0  0
   -0.4076    1.2395   -0.2503 C   0  0  0  0  0  0  0  0  0  0  0  0
    0.9578    1.0166   -0.1291 C   0  0  0  0  0  0  0  0  0  0  0  0
   -2.8138    0.5203   -0.1708 C   0  0  0  0  0  0  0  0  0  0  0  0
   -3.3404    1.2888    1.0497 C   0  0  0  0  0  0  0  0  0  0  0  0
   -2.7744    2.6789    1.2317 C   0  0  0  0  0  0  0  0  0  0  0  0
   -3.2841    3.7143    0.8510 O   0  0  0  0  0  0  0  0  0  0  0  0
   -1.5577    2.6866    1.8142 O   0  0  0  0  0  0  0  0  0  0  0  0
    2.4928   -0.4627    0.0815 H   0  0  0  0  0  0  0  0  0  0  0  0
    0.8969   -2.3643    0.0709 H   0  0  0  0  0  0  0  0  0  0  0  0
   -1.5417   -1.9550    0.0185 H   0  0  0  0  0  0  0  0  0  0  0  0
   -0.7474    2.2582   -0.4049 H   0  0  0  0  0  0  0  0  0  0  0  0
    1.6412    1.8599   -0.1575 H   0  0  0  0  0  0  0  0  0  0  0  0
   -3.0161    1.0776   -1.0942 H   0  0  0  0  0  0  0  0  0  0  0  0
   -3.3850   -0.4146   -0.2574 H   0  0  0  0  0  0  0  0  0  0  0  0
   -4.4238    1.4171    0.9316 H   0  0  0  0  0  0  0  0  0  0  0  0
   -3.1941    0.7197    1.9732 H   0  0  0  0  0  0  0  0  0  0  0  0
   -1.1478    3.5441    1.5748 H   0  0  0  0  0  0  0  0  0  0  0  0
  1  2  2  0  0  0  0
  1  6  1  0  0  0  0
  1 12  1  0  0  0  0
  2  3  1  0  0  0  0
  2 13  1  0  0  0  0
  3  4  2  0  0  0  0
  3 14  1  0  0  0  0
  4  5  1  0  0  0  0
  4  7  1  0  0  0  0
  5  6  2  0  0  0  0
  5 15  1  0  0  0  0
  6 16  1  0  0  0  0
  7  8  1  0  0  0  0
  7 17  1  0  0  0  0
  7 18  1  0  0  0  0
  8  9  1  0  0  0  0
  8 19  1  0  0  0  0
  8 20  1  0  0  0  0
  9 10  2  0  0  0  0
  9 11  1  0  0  0  0
 11 21  1  0  0  0  0
M  END
>  <DRUGBANK_ID>
DB02024

>  <SECONDARY_ACCESSION_NUMBERS>
EXPT01708

>  <COMMON_NAME>
3-phenylpropionic acid

>  <CAS_NUMBER>
501-52-0

>  <UNII>
5Q445IN5CU

>  <SYNONYMS>
3-phenyl-propionic acid; 3-phenylpropanoic acid; 3-phenylpropionic acid; 3-Phenylpropions√§ure; 3PP; beta-Phenylpropionic acid; Hydrocinnamic acid; Phenylpropanoate

$$$$
