
 OpenBabel10282417223D

 24 24  0  0  0  0  0  0  0  0999 V2000
    1.0429   -0.1476   -0.0353 O   0  0  0  0  0  0  0  0  0  0  0  0
    0.4165   -0.0590    1.1802 C   0  0  0  0  0  0  0  0  0  0  0  0
    0.8279    0.7901    2.2027 C   0  0  0  0  0  0  0  0  0  0  0  0
    0.0947    0.8846    3.3852 C   0  0  0  0  0  0  0  0  0  0  0  0
    0.4004    1.6978    4.4434 O   0  0  0  0  0  0  0  0  0  0  0  0
    1.5289    2.5474    4.2676 C   0  0  0  0  0  0  0  0  0  0  0  0
   -1.0736    0.1359    3.5329 C   0  0  0  0  0  0  0  0  0  0  0  0
   -1.5341   -0.6689    2.4926 C   0  0  0  0  0  0  0  0  0  0  0  0
   -2.7273   -1.3461    2.4969 O   0  0  0  0  0  0  0  0  0  0  0  0
   -3.6161   -1.0304    3.5679 C   0  0  0  0  0  0  0  0  0  0  0  0
   -0.7645   -0.7939    1.3296 C   0  0  0  0  0  0  0  0  0  0  0  0
    2.4628   -0.0140   -0.0163 C   0  0  0  0  0  0  0  0  0  0  0  0
    1.7022    1.4099    2.0644 H   0  0  0  0  0  0  0  0  0  0  0  0
    2.4443    1.9553    4.1626 H   0  0  0  0  0  0  0  0  0  0  0  0
    1.3906    3.2160    3.4101 H   0  0  0  0  0  0  0  0  0  0  0  0
    1.6309    3.1695    5.1601 H   0  0  0  0  0  0  0  0  0  0  0  0
   -1.6159    0.2248    4.4685 H   0  0  0  0  0  0  0  0  0  0  0  0
   -3.2317   -1.4336    4.5104 H   0  0  0  0  0  0  0  0  0  0  0  0
   -3.7950    0.0491    3.6478 H   0  0  0  0  0  0  0  0  0  0  0  0
   -4.5811   -1.5055    3.3686 H   0  0  0  0  0  0  0  0  0  0  0  0
   -1.0931   -1.4507    0.5296 H   0  0  0  0  0  0  0  0  0  0  0  0
    2.8102    0.0173   -1.0535 H   0  0  0  0  0  0  0  0  0  0  0  0
    2.8128    0.9110    0.4513 H   0  0  0  0  0  0  0  0  0  0  0  0
    2.9116   -0.8844    0.4714 H   0  0  0  0  0  0  0  0  0  0  0  0
  1  2  1  0  0  0  0
  1 12  1  0  0  0  0
  2  3  1  0  0  0  0
  3  4  2  0  0  0  0
  3 13  1  0  0  0  0
  4  5  1  0  0  0  0
  4  7  1  0  0  0  0
  5  6  1  0  0  0  0
  6 14  1  0  0  0  0
  6 15  1  0  0  0  0
  6 16  1  0  0  0  0
  7  8  2  0  0  0  0
  7 17  1  0  0  0  0
  8  9  1  0  0  0  0
  8 11  1  0  0  0  0
  9 10  1  0  0  0  0
 10 18  1  0  0  0  0
 10 19  1  0  0  0  0
 10 20  1  0  0  0  0
 11  2  2  0  0  0  0
 11 21  1  0  0  0  0
 12 22  1  0  0  0  0
 12 23  1  0  0  0  0
 12 24  1  0  0  0  0
M  END
>  <DRUGBANK_ID>
DB15875

>  <COMMON_NAME>
1,3,5-Trimethoxybenzene

>  <CAS_NUMBER>
621-23-8

>  <UNII>
00VJI3VG3D

>  <SYNONYMS>
1,3,5-Trimethoxybenzene; 1,3,5-Trimethyoxybenzene; Phloroglucinol trimethyl ether; sym-Trimethoxybenzene

$$$$
