PQB
 OpenBabel10282417173D

 45 47  0  0  0  0  0  0  0  0999 V2000
    1.0473   -0.1860   -0.2559 N   0  0  0  0  0  0  0  0  0  0  0  0
    0.3771   -0.8897    0.7022 C   0  0  0  0  0  0  0  0  0  0  0  0
    0.6764   -1.0643    2.0383 C   0  0  0  0  0  0  0  0  0  0  0  0
   -0.3829   -1.8625    2.5266 C   0  0  0  0  0  0  0  0  0  0  0  0
   -1.3324   -2.0876    1.6154 N   0  0  0  0  0  0  0  0  0  0  0  0
   -0.8353   -1.5285    0.4831 N   0  0  0  0  0  0  0  0  0  0  0  0
   -1.5204   -1.6235   -0.7455 C   0  0  0  0  0  0  0  0  0  0  0  0
   -0.8398   -2.0865   -1.8807 C   0  0  0  0  0  0  0  0  0  0  0  0
   -1.4993   -2.1215   -3.1074 C   0  0  0  0  0  0  0  0  0  0  0  0
   -2.8109   -1.6659   -3.1911 C   0  0  0  0  0  0  0  0  0  0  0  0
   -3.4351   -1.6790   -4.3761 F   0  0  0  0  0  0  0  0  0  0  0  0
   -3.4845   -1.1905   -2.0675 C   0  0  0  0  0  0  0  0  0  0  0  0
   -2.8462   -1.1860   -0.8265 C   0  0  0  0  0  0  0  0  0  0  0  0
    1.8087   -0.4771    2.7159 C   0  0  0  0  0  0  0  0  0  0  0  0
    2.6007    0.2928    2.1567 O   0  0  0  0  0  0  0  0  0  0  0  0
    2.0769   -0.8162    4.1170 C   0  0  0  0  0  0  0  0  0  0  0  0
    2.2556   -2.1619    4.4569 C   0  0  0  0  0  0  0  0  0  0  0  0
    2.7988   -2.4842    5.6831 C   0  0  0  0  0  0  0  0  0  0  0  0
    3.2359   -1.4631    6.5102 C   0  0  0  0  0  0  0  0  0  0  0  0
    2.9507   -0.1206    6.2368 C   0  0  0  0  0  0  0  0  0  0  0  0
    3.2016    0.9121    7.0965 O   0  0  0  0  0  0  0  0  0  0  0  0
    3.8489    0.5729    8.3300 C   0  0  0  0  0  0  0  0  0  0  0  0
    2.8673   -0.0004    9.3849 C   0  0  1  0  0  0  0  0  0  0  0  0
    2.1843   -1.1952    8.9947 O   0  0  0  0  0  0  0  0  0  0  0  0
    3.6146   -0.3514   10.6683 C   0  0  0  0  0  0  0  0  0  0  0  0
    4.1035    0.8051   11.3267 O   0  0  0  0  0  0  0  0  0  0  0  0
    2.3420    0.2086    5.0331 C   0  0  0  0  0  0  0  0  0  0  0  0
    2.0940    0.7499    9.5706 H   0  0  0  0  0  0  0  0  0  0  0  0
    0.5179    0.5335   -0.7517 H   0  0  0  0  0  0  0  0  0  0  0  0
    1.9543    0.2007    0.0257 H   0  0  0  0  0  0  0  0  0  0  0  0
   -0.5199   -2.2646    3.5237 H   0  0  0  0  0  0  0  0  0  0  0  0
    0.1856   -2.4442   -1.8091 H   0  0  0  0  0  0  0  0  0  0  0  0
   -0.9994   -2.4942   -3.9956 H   0  0  0  0  0  0  0  0  0  0  0  0
   -4.4983   -0.8177   -2.1708 H   0  0  0  0  0  0  0  0  0  0  0  0
   -3.3552   -0.7853    0.0471 H   0  0  0  0  0  0  0  0  0  0  0  0
    2.0427   -2.9606    3.7545 H   0  0  0  0  0  0  0  0  0  0  0  0
    2.9355   -3.5159    5.9913 H   0  0  0  0  0  0  0  0  0  0  0  0
    3.7454   -1.7736    7.4163 H   0  0  0  0  0  0  0  0  0  0  0  0
    4.7290   -0.0612    8.1525 H   0  0  0  0  0  0  0  0  0  0  0  0
    4.2598    1.5148    8.7140 H   0  0  0  0  0  0  0  0  0  0  0  0
    1.6324   -0.9748    8.2225 H   0  0  0  0  0  0  0  0  0  0  0  0
    2.9413   -0.8832   11.3496 H   0  0  0  0  0  0  0  0  0  0  0  0
    4.4471   -1.0378   10.4643 H   0  0  0  0  0  0  0  0  0  0  0  0
    4.7727    1.2223   10.7603 H   0  0  0  0  0  0  0  0  0  0  0  0
    2.1190    1.2466    4.7898 H   0  0  0  0  0  0  0  0  0  0  0  0
  1  2  1  0  0  0  0
  1 29  1  0  0  0  0
  1 30  1  0  0  0  0
  2  3  2  0  0  0  0
  2  6  1  0  0  0  0
  3  4  1  0  0  0  0
  3 14  1  0  0  0  0
  4  5  2  0  0  0  0
  4 31  1  0  0  0  0
  5  6  1  0  0  0  0
  6  7  1  0  0  0  0
  7  8  1  0  0  0  0
  7 13  2  0  0  0  0
  8  9  2  0  0  0  0
  8 32  1  0  0  0  0
  9 10  1  0  0  0  0
  9 33  1  0  0  0  0
 10 11  1  0  0  0  0
 10 12  2  0  0  0  0
 12 13  1  0  0  0  0
 12 34  1  0  0  0  0
 13 35  1  0  0  0  0
 14 15  2  0  0  0  0
 14 16  1  0  0  0  0
 16 17  2  0  0  0  0
 16 27  1  0  0  0  0
 17 18  1  0  0  0  0
 17 36  1  0  0  0  0
 18 19  2  0  0  0  0
 18 37  1  0  0  0  0
 19 20  1  0  0  0  0
 19 38  1  0  0  0  0
 20 21  1  0  0  0  0
 20 27  2  0  0  0  0
 21 22  1  0  0  0  0
 22 23  1  0  0  0  0
 22 39  1  0  0  0  0
 22 40  1  0  0  0  0
 23 24  1  0  0  0  0
 23 25  1  0  0  0  0
 23 28  1  1  0  0  0
 24 41  1  0  0  0  0
 25 26  1  0  0  0  0
 25 42  1  0  0  0  0
 25 43  1  0  0  0  0
 26 44  1  0  0  0  0
 27 45  1  0  0  0  0
M  END
>  <DRUGBANK_ID>
DB08424

>  <COMMON_NAME>
[5-AMINO-1-(4-FLUOROPHENYL)-1H-PYRAZOL-4-YL](3-{[(2R)-2,3-DIHYDROXYPROPYL]OXY}PHENYL)METHANONE

$$$$
