
 OpenBabel10282417173D

 35 36  0  0  0  0  0  0  0  0999 V2000
   -0.2075   -0.6592   -0.0047 C   0  0  0  0  0  0  0  0  0  0  0  0
   -0.1906    0.7112    0.0006 C   0  0  0  0  0  0  0  0  0  0  0  0
    0.9932    1.4156    0.0097 C   0  0  0  0  0  0  0  0  0  0  0  0
    2.1901    0.6856    0.0030 C   0  0  0  0  0  0  0  0  0  0  0  0
    2.1829   -0.7271   -0.0307 C   0  0  0  0  0  0  0  0  0  0  0  0
    0.9497   -1.3991   -0.0174 C   0  0  0  0  0  0  0  0  0  0  0  0
   -1.4642   -1.1753   -0.0018 O   0  0  0  0  0  0  0  0  0  0  0  0
   -2.2414    0.0339    0.0807 C   0  0  0  0  0  0  0  0  0  0  0  0
   -1.4444    1.2361   -0.0022 O   0  0  0  0  0  0  0  0  0  0  0  0
    3.4655   -1.4467   -0.0739 C   0  0  0  0  0  0  0  0  0  0  0  0
    3.5596   -2.7853   -0.1663 C   0  0  0  0  0  0  0  0  0  0  0  0
    4.8341   -3.5658   -0.1199 C   0  0  3  0  0  0  0  0  0  0  0  0
    4.9144   -4.4900    1.1327 C   0  0  0  0  0  0  0  0  0  0  0  0
    4.9113   -4.3226   -1.3250 O   0  0  0  0  0  0  0  0  0  0  0  0
    3.7664   -5.5232    1.1713 C   0  0  0  0  0  0  0  0  0  0  0  0
    6.2494   -5.2548    1.1043 C   0  0  0  0  0  0  0  0  0  0  0  0
    4.8605   -3.6408    2.4194 C   0  0  0  0  0  0  0  0  0  0  0  0
    0.9985    2.4993    0.0200 H   0  0  0  0  0  0  0  0  0  0  0  0
    3.1334    1.2289    0.0172 H   0  0  0  0  0  0  0  0  0  0  0  0
    0.8621   -2.4775   -0.0200 H   0  0  0  0  0  0  0  0  0  0  0  0
   -2.9760    0.0325   -0.7319 H   0  0  0  0  0  0  0  0  0  0  0  0
   -2.7729    0.0348    1.0393 H   0  0  0  0  0  0  0  0  0  0  0  0
    4.3717   -0.8491   -0.0173 H   0  0  0  0  0  0  0  0  0  0  0  0
    2.6664   -3.3918   -0.2279 H   0  0  0  0  0  0  0  0  0  0  0  0
    5.6936   -2.8847   -0.1266 H   0  0  0  0  0  0  0  0  0  0  0  0
    4.1471   -4.9201   -1.3572 H   0  0  0  0  0  0  0  0  0  0  0  0
    3.7746   -6.1711    0.2887 H   0  0  0  0  0  0  0  0  0  0  0  0
    3.8458   -6.1701    2.0512 H   0  0  0  0  0  0  0  0  0  0  0  0
    2.7844   -5.0410    1.2227 H   0  0  0  0  0  0  0  0  0  0  0  0
    7.0978   -4.5614    1.1039 H   0  0  0  0  0  0  0  0  0  0  0  0
    6.3495   -5.9048    1.9802 H   0  0  0  0  0  0  0  0  0  0  0  0
    6.3312   -5.8851    0.2122 H   0  0  0  0  0  0  0  0  0  0  0  0
    5.6760   -2.9091    2.4416 H   0  0  0  0  0  0  0  0  0  0  0  0
    3.9168   -3.0906    2.5056 H   0  0  0  0  0  0  0  0  0  0  0  0
    4.9480   -4.2690    3.3121 H   0  0  0  0  0  0  0  0  0  0  0  0
  1  2  2  0  0  0  0
  1  6  1  0  0  0  0
  1  7  1  0  0  0  0
  2  3  1  0  0  0  0
  2  9  1  0  0  0  0
  3  4  2  0  0  0  0
  3 18  1  0  0  0  0
  4  5  1  0  0  0  0
  4 19  1  0  0  0  0
  5  6  2  0  0  0  0
  5 10  1  0  0  0  0
  6 20  1  0  0  0  0
  7  8  1  0  0  0  0
  8  9  1  0  0  0  0
  8 21  1  0  0  0  0
  8 22  1  0  0  0  0
 10 11  2  0  0  0  0
 10 23  1  0  0  0  0
 11 12  1  0  0  0  0
 11 24  1  0  0  0  0
 12 13  1  0  0  0  0
 12 14  1  0  0  0  0
 12 25  1  0  0  0  0
 13 15  1  0  0  0  0
 13 16  1  0  0  0  0
 13 17  1  0  0  0  0
 14 26  1  0  0  0  0
 15 27  1  0  0  0  0
 15 28  1  0  0  0  0
 15 29  1  0  0  0  0
 16 30  1  0  0  0  0
 16 31  1  0  0  0  0
 16 32  1  0  0  0  0
 17 33  1  0  0  0  0
 17 34  1  0  0  0  0
 17 35  1  0  0  0  0
M  END
>  <DRUGBANK_ID>
DB09118

>  <COMMON_NAME>
Stiripentol

>  <CAS_NUMBER>
49763-96-4

>  <UNII>
R02XOT8V8I

>  <SYNONYMS>
1-(1,3-Benzodioxol-5-yl)-4,4-dimethyl-1-penten-3-ol; 4,4-Dimethyl-1-((3,4-methylenedioxy)phenyl)-1-penten-3-ol; Estiripentol; Stiripentol; Stiripentolum

$$$$
