ZYU
 OpenBabel10282417173D

 26 28  0  0  0  0  0  0  0  0999 V2000
   -0.7789    1.2490    0.1664 C   0  0  0  0  0  0  0  0  0  0  0  0
    0.6845    1.1653   -0.2912 C   0  0  0  0  0  0  0  0  0  0  0  0
    1.3242   -0.0309    0.1984 O   0  0  0  0  0  0  0  0  0  0  0  0
    0.6215   -1.2000   -0.2698 C   0  0  0  0  0  0  0  0  0  0  0  0
   -0.8436   -1.2158    0.2169 C   0  0  0  0  0  0  0  0  0  0  0  0
   -2.6430    0.0505   -0.9250 C   0  0  0  0  0  0  0  0  0  0  0  0
   -2.6663    0.6737   -2.1396 N   0  0  0  0  0  0  0  0  0  0  0  0
   -3.8182    0.6885   -2.8508 C   0  0  0  0  0  0  0  0  0  0  0  0
   -5.0253    0.2034   -2.5002 N   0  0  0  0  0  0  0  0  0  0  0  0
   -4.9640   -0.3682   -1.2911 C   0  0  0  0  0  0  0  0  0  0  0  0
   -3.8563   -0.5130   -0.4682 C   0  0  0  0  0  0  0  0  0  0  0  0
   -4.2146   -1.1669    0.6982 N   0  0  0  0  0  0  0  0  0  0  0  0
   -5.5116   -1.3705    0.5931 C   0  0  0  0  0  0  0  0  0  0  0  0
   -6.0037   -0.9109   -0.5960 N   0  0  0  0  0  0  0  0  0  0  0  0
   -1.4747    0.0263   -0.2084 N   0  0  0  0  0  0  0  0  0  0  0  0
   -0.7982    1.3161    1.2625 H   0  0  0  0  0  0  0  0  0  0  0  0
   -1.2582    2.1521   -0.2252 H   0  0  0  0  0  0  0  0  0  0  0  0
    0.7558    1.1819   -1.3845 H   0  0  0  0  0  0  0  0  0  0  0  0
    1.2468    2.0209    0.0968 H   0  0  0  0  0  0  0  0  0  0  0  0
    1.1557   -2.0786    0.1045 H   0  0  0  0  0  0  0  0  0  0  0  0
    0.6716   -1.2186   -1.3656 H   0  0  0  0  0  0  0  0  0  0  0  0
   -0.8585   -1.2603    1.3123 H   0  0  0  0  0  0  0  0  0  0  0  0
   -1.3521   -2.1045   -0.1720 H   0  0  0  0  0  0  0  0  0  0  0  0
   -3.7656    1.1515   -3.8324 H   0  0  0  0  0  0  0  0  0  0  0  0
   -6.1415   -1.8334    1.3404 H   0  0  0  0  0  0  0  0  0  0  0  0
   -6.9649   -0.9337   -0.9074 H   0  0  0  0  0  0  0  0  0  0  0  0
  1  2  1  0  0  0  0
  1 15  1  0  0  0  0
  1 16  1  0  0  0  0
  1 17  1  0  0  0  0
  2  3  1  0  0  0  0
  2 18  1  0  0  0  0
  2 19  1  0  0  0  0
  3  4  1  0  0  0  0
  4  5  1  0  0  0  0
  4 20  1  0  0  0  0
  4 21  1  0  0  0  0
  5 15  1  0  0  0  0
  5 22  1  0  0  0  0
  5 23  1  0  0  0  0
  6  7  1  0  0  0  0
  6 11  2  0  0  0  0
  6 15  1  0  0  0  0
  7  8  2  0  0  0  0
  8  9  1  0  0  0  0
  8 24  1  0  0  0  0
  9 10  2  0  0  0  0
 10 11  1  0  0  0  0
 10 14  1  0  0  0  0
 11 12  1  0  0  0  0
 12 13  2  0  0  0  0
 13 14  1  0  0  0  0
 13 25  1  0  0  0  0
 14 26  1  0  0  0  0
M  END
>  <DRUGBANK_ID>
DB08780

>  <COMMON_NAME>
6-MORPHOLIN-4-YL-9H-PURINE

>  <UNII>
89VN5RQ48X

$$$$
