1006
 OpenBabel10282417113D

 33 35  0  0  0  0  0  0  0  0999 V2000
   -0.2991   -1.0638    0.0305 N   0  0  0  0  0  0  0  0  0  0  0  0
    0.9952   -0.6714    0.0548 N   0  0  0  0  0  0  0  0  0  0  0  0
   -0.4060    1.1212   -0.0035 N   0  0  0  0  0  0  0  0  0  0  0  0
    1.4977   -5.5477   -5.8219 N   0  0  0  0  0  0  0  0  0  0  0  0
    0.9722   -6.1993    5.6312 N   0  0  0  0  0  0  0  0  0  0  0  0
   -0.6757   -2.4830    0.0061 C   0  0  0  0  0  0  0  0  0  0  0  0
   -0.2166   -3.1046   -1.3192 C   0  0  0  0  0  0  0  0  0  0  0  0
   -0.2104   -3.2279    1.2684 C   0  0  0  0  0  0  0  0  0  0  0  0
    1.1592   -3.2301   -1.6124 C   0  0  0  0  0  0  0  0  0  0  0  0
   -0.5339   -2.7587    2.5541 C   0  0  0  0  0  0  0  0  0  0  0  0
   -1.1458   -3.5953   -2.2456 C   0  0  0  0  0  0  0  0  0  0  0  0
    0.5074   -4.4367    1.1791 C   0  0  0  0  0  0  0  0  0  0  0  0
   -1.1248    0.0212    0.0021 C   0  0  0  0  0  0  0  0  0  0  0  0
    1.5981   -3.8378   -2.7828 C   0  0  0  0  0  0  0  0  0  0  0  0
   -0.1702   -3.4932    3.6914 C   0  0  0  0  0  0  0  0  0  0  0  0
   -0.7043   -4.1913   -3.4317 C   0  0  0  0  0  0  0  0  0  0  0  0
    0.8780   -5.1623    2.3049 C   0  0  0  0  0  0  0  0  0  0  0  0
    0.6650   -4.3251   -3.6944 C   0  0  0  0  0  0  0  0  0  0  0  0
    0.5123   -4.7071    3.5649 C   0  0  0  0  0  0  0  0  0  0  0  0
    0.8757    0.6543    0.0146 C   0  0  0  0  0  0  0  0  0  0  0  0
    1.1190   -4.9906   -4.8792 C   0  0  0  0  0  0  0  0  0  0  0  0
    0.7845   -5.5174    4.7139 C   0  0  0  0  0  0  0  0  0  0  0  0
   -1.7765   -2.5047    0.0294 H   0  0  0  0  0  0  0  0  0  0  0  0
    1.9068   -2.8948   -0.8906 H   0  0  0  0  0  0  0  0  0  0  0  0
   -1.0778   -1.8252    2.6946 H   0  0  0  0  0  0  0  0  0  0  0  0
   -2.2153   -3.5307   -2.0536 H   0  0  0  0  0  0  0  0  0  0  0  0
    0.7962   -4.8623    0.2230 H   0  0  0  0  0  0  0  0  0  0  0  0
   -2.2049   -0.0329   -0.0131 H   0  0  0  0  0  0  0  0  0  0  0  0
    2.6673   -3.9313   -2.9623 H   0  0  0  0  0  0  0  0  0  0  0  0
   -0.4381   -3.1213    4.6787 H   0  0  0  0  0  0  0  0  0  0  0  0
   -1.4375   -4.5580   -4.1478 H   0  0  0  0  0  0  0  0  0  0  0  0
    1.4281   -6.0914    2.1697 H   0  0  0  0  0  0  0  0  0  0  0  0
    1.7512    1.2896    0.0033 H   0  0  0  0  0  0  0  0  0  0  0  0
  1  2  1  0  0  0  0
  1  6  1  0  0  0  0
  1 13  1  0  0  0  0
  2 20  2  0  0  0  0
  3 13  2  0  0  0  0
  3 20  1  0  0  0  0
  4 21  3  0  0  0  0
  5 22  3  0  0  0  0
  6  7  1  0  0  0  0
  6  8  1  0  0  0  0
  6 23  1  0  0  0  0
  7  9  2  0  0  0  0
  7 11  1  0  0  0  0
  8 10  2  0  0  0  0
  8 12  1  0  0  0  0
  9 14  1  0  0  0  0
  9 24  1  0  0  0  0
 10 15  1  0  0  0  0
 10 25  1  0  0  0  0
 11 16  2  0  0  0  0
 11 26  1  0  0  0  0
 12 17  2  0  0  0  0
 12 27  1  0  0  0  0
 13 28  1  0  0  0  0
 14 18  2  0  0  0  0
 14 29  1  0  0  0  0
 15 19  2  0  0  0  0
 15 30  1  0  0  0  0
 16 18  1  0  0  0  0
 16 31  1  0  0  0  0
 17 19  1  0  0  0  0
 17 32  1  0  0  0  0
 18 21  1  0  0  0  0
 19 22  1  0  0  0  0
 20 33  1  0  0  0  0
M  END
>  <DRUGBANK_ID>
DB01006

>  <SECONDARY_ACCESSION_NUMBERS>
APRD01066

>  <COMMON_NAME>
Letrozole

>  <CAS_NUMBER>
112809-51-5

>  <UNII>
7LKK855W8I

>  <SYNONYMS>
Letrozol; Letrozole

$$$$
