
 OpenBabel10282417123D

 89 94  0  0  0  0  0  0  0  0999 V2000
    4.2539    0.6777   -1.9122 O   0  0  0  0  0  0  0  0  0  0  0  0
    5.3227   -0.1949   -2.1100 C   0  0  1  0  0  0  0  0  0  0  0  0
    5.7298   -0.6304   -0.8450 O   0  0  0  0  0  0  0  0  0  0  0  0
    6.8917   -1.4341   -0.8602 C   0  0  2  0  0  0  0  0  0  0  0  0
    6.6168   -2.8974   -1.3114 C   0  0  0  0  0  0  0  0  0  0  0  0
    7.7092   -3.5780   -0.6041 C   0  0  0  0  0  0  0  0  0  0  0  0
    8.2387   -4.7924   -0.9590 C   0  0  0  0  0  0  0  0  0  0  0  0
    9.4613   -5.1123   -0.3934 C   0  0  0  0  0  0  0  0  0  0  0  0
   10.0443   -4.2741    0.5857 C   0  0  0  0  0  0  0  0  0  0  0  0
    9.3850   -3.1449    1.0571 C   0  0  0  0  0  0  0  0  0  0  0  0
    8.2372   -2.7783    0.4134 C   0  0  0  0  0  0  0  0  0  0  0  0
    7.4976   -1.4916    0.5635 C   0  0  2  0  0  0  0  0  0  0  0  0
    6.4398   -1.3772    1.6432 C   0  0  1  0  0  0  0  0  0  0  0  0
    5.4412   -2.5028    1.5864 C   0  0  0  0  0  0  0  0  0  0  0  0
    4.8041   -2.8977    0.6149 O   0  0  0  0  0  0  0  0  0  0  0  0
    5.0760   -3.0159    2.9163 C   0  0  2  0  0  0  0  0  0  0  0  0
    5.9899   -2.2606    3.7677 N   0  0  0  0  0  0  0  0  0  0  0  0
    6.9558   -1.4533    3.0598 C   0  0  0  0  0  0  0  0  0  0  0  0
    5.2701   -4.5190    2.9380 C   0  0  0  0  0  0  0  0  0  0  0  0
    6.6456   -4.9891    2.6804 C   0  0  0  0  0  0  0  0  0  0  0  0
    7.7446   -4.6818    3.4891 C   0  0  0  0  0  0  0  0  0  0  0  0
    8.9577   -5.2718    3.2484 C   0  0  0  0  0  0  0  0  0  0  0  0
    9.0125   -6.2916    2.3069 C   0  0  0  0  0  0  0  0  0  0  0  0
    7.9104   -6.5845    1.4905 C   0  0  0  0  0  0  0  0  0  0  0  0
    6.7686   -5.8348    1.5958 C   0  0  0  0  0  0  0  0  0  0  0  0
    3.5259   -2.8458    3.0412 C   0  0  0  0  0  0  0  0  0  0  0  0
    2.8504   -1.5750    2.5154 C   0  0  2  0  0  0  0  0  0  0  0  0
    3.2535   -1.1400    1.2036 O   0  0  0  0  0  0  0  0  0  0  0  0
    3.0476   -0.3527    3.4450 C   0  0  1  0  0  0  0  0  0  0  0  0
    2.5272    0.8239    2.7091 N   0  0  0  0  0  0  0  0  0  0  0  0
    1.3988    1.5737    2.9375 C   0  0  0  0  0  0  0  0  0  0  0  0
    0.9918    2.4078    2.1809 O   0  0  0  0  0  0  0  0  0  0  0  0
    0.8486    1.2673    4.1380 O   0  0  0  0  0  0  0  0  0  0  0  0
   -0.2444    2.0145    4.6456 C   0  0  2  0  0  0  0  0  0  0  0  0
   -0.2870    1.9288    6.1697 C   0  0  0  0  0  0  0  0  0  0  0  0
   -1.6665    2.0133    6.5576 O   0  0  0  0  0  0  0  0  0  0  0  0
   -2.4710    1.8548    5.3803 C   0  0  0  0  0  0  0  0  0  0  0  0
   -1.5580    1.3761    4.2758 C   0  0  0  0  0  0  0  0  0  0  0  0
    2.4406   -0.5105    4.8716 C   0  0  0  0  0  0  0  0  0  0  0  0
    2.9377   -1.4805    5.9019 C   0  0  0  0  0  0  0  0  0  0  0  0
    2.1438   -1.9311    6.9309 C   0  0  0  0  0  0  0  0  0  0  0  0
    2.5084   -3.0909    7.6205 C   0  0  0  0  0  0  0  0  0  0  0  0
    3.5906   -3.8606    7.2027 C   0  0  0  0  0  0  0  0  0  0  0  0
    4.4077   -3.3531    6.2271 C   0  0  0  0  0  0  0  0  0  0  0  0
    4.1752   -2.0513    5.7906 C   0  0  0  0  0  0  0  0  0  0  0  0
    4.8522   -1.2807   -2.9103 N   0  0  0  0  0  0  0  0  0  0  0  0
    6.1419    0.3487   -2.5895 H   0  0  0  0  0  0  0  0  0  0  0  0
    7.6625   -1.0033   -1.5118 H   0  0  0  0  0  0  0  0  0  0  0  0
    8.2322   -0.6916    0.7162 H   0  0  0  0  0  0  0  0  0  0  0  0
    5.9006   -0.4220    1.5663 H   0  0  0  0  0  0  0  0  0  0  0  0
    6.3886   -2.7910    4.5346 H   0  0  0  0  0  0  0  0  0  0  0  0
    1.7887   -1.8133    2.4009 H   0  0  0  0  0  0  0  0  0  0  0  0
    4.1206   -0.1398    3.5139 H   0  0  0  0  0  0  0  0  0  0  0  0
    2.8875    0.9092    1.7610 H   0  0  0  0  0  0  0  0  0  0  0  0
   -0.1850    3.0610    4.3351 H   0  0  0  0  0  0  0  0  0  0  0  0
    5.6631   -1.8195   -3.1916 H   0  0  0  0  0  0  0  0  0  0  0  0
    4.3115   -1.8927   -2.3031 H   0  0  0  0  0  0  0  0  0  0  0  0
    3.5598    0.0926   -1.5725 H   0  0  0  0  0  0  0  0  0  0  0  0
    5.6227   -3.2997   -1.1281 H   0  0  0  0  0  0  0  0  0  0  0  0
    6.7782   -3.0615   -2.3732 H   0  0  0  0  0  0  0  0  0  0  0  0
    7.6615   -5.4932   -1.5580 H   0  0  0  0  0  0  0  0  0  0  0  0
    9.8325   -6.1283   -0.5181 H   0  0  0  0  0  0  0  0  0  0  0  0
   10.8886   -4.6292    1.1709 H   0  0  0  0  0  0  0  0  0  0  0  0
    9.7148   -2.6330    1.9537 H   0  0  0  0  0  0  0  0  0  0  0  0
    6.9861   -0.4648    3.5401 H   0  0  0  0  0  0  0  0  0  0  0  0
    7.9716   -1.8428    3.1456 H   0  0  0  0  0  0  0  0  0  0  0  0
    4.9574   -4.9907    3.8710 H   0  0  0  0  0  0  0  0  0  0  0  0
    4.6062   -4.9615    2.1753 H   0  0  0  0  0  0  0  0  0  0  0  0
    7.7449   -3.9237    4.2557 H   0  0  0  0  0  0  0  0  0  0  0  0
    9.8478   -4.8187    3.6817 H   0  0  0  0  0  0  0  0  0  0  0  0
    9.9864   -6.6588    2.0002 H   0  0  0  0  0  0  0  0  0  0  0  0
    8.0097   -7.2062    0.6079 H   0  0  0  0  0  0  0  0  0  0  0  0
    6.0157   -5.8335    0.8038 H   0  0  0  0  0  0  0  0  0  0  0  0
    3.0159   -3.7314    2.6294 H   0  0  0  0  0  0  0  0  0  0  0  0
    3.1906   -2.9979    4.0524 H   0  0  0  0  0  0  0  0  0  0  0  0
    3.5505   -1.9085    0.6704 H   0  0  0  0  0  0  0  0  0  0  0  0
    0.1179    0.9873    6.5623 H   0  0  0  0  0  0  0  0  0  0  0  0
    0.2712    2.7425    6.6434 H   0  0  0  0  0  0  0  0  0  0  0  0
   -2.9098    2.8278    5.1389 H   0  0  0  0  0  0  0  0  0  0  0  0
   -3.2796    1.1481    5.5867 H   0  0  0  0  0  0  0  0  0  0  0  0
   -1.8997    1.6613    3.2782 H   0  0  0  0  0  0  0  0  0  0  0  0
   -1.4804    0.2808    4.2930 H   0  0  0  0  0  0  0  0  0  0  0  0
    2.4976    0.4624    5.3624 H   0  0  0  0  0  0  0  0  0  0  0  0
    1.4000   -0.8160    4.6907 H   0  0  0  0  0  0  0  0  0  0  0  0
    1.2358   -1.3899    7.1664 H   0  0  0  0  0  0  0  0  0  0  0  0
    1.9019   -3.4296    8.4469 H   0  0  0  0  0  0  0  0  0  0  0  0
    3.8203   -4.8284    7.6330 H   0  0  0  0  0  0  0  0  0  0  0  0
    5.1541   -3.9973    5.7689 H   0  0  0  0  0  0  0  0  0  0  0  0
    4.8035   -1.5136    5.1184 H   0  0  0  0  0  0  0  0  0  0  0  0
  1 58  1  0  0  0  0
  2  1  1  0  0  0  0
  2  3  1  0  0  0  0
  2 46  1  0  0  0  0
  2 47  1  6  0  0  0
  4  3  1  0  0  0  0
  4  5  1  0  0  0  0
  4 48  1  6  0  0  0
  5  6  1  0  0  0  0
  5 59  1  0  0  0  0
  5 60  1  0  0  0  0
  6  7  2  0  0  0  0
  6 11  1  0  0  0  0
  7  8  1  0  0  0  0
  7 61  1  0  0  0  0
  8  9  2  0  0  0  0
  8 62  1  0  0  0  0
  9 10  1  0  0  0  0
  9 63  1  0  0  0  0
 10 11  2  0  0  0  0
 10 64  1  0  0  0  0
 12  4  1  0  0  0  0
 12 11  1  0  0  0  0
 12 49  1  1  0  0  0
 13 12  1  0  0  0  0
 13 50  1  6  0  0  0
 14 13  1  0  0  0  0
 14 15  2  0  0  0  0
 16 14  1  0  0  0  0
 16 17  1  0  0  0  0
 16 26  1  1  0  0  0
 16 19  1  0  0  0  0
 18 13  1  0  0  0  0
 18 17  1  0  0  0  0
 18 65  1  0  0  0  0
 18 66  1  0  0  0  0
 19 20  1  0  0  0  0
 19 67  1  0  0  0  0
 19 68  1  0  0  0  0
 20 21  2  0  0  0  0
 20 25  1  0  0  0  0
 21 22  1  0  0  0  0
 21 69  1  0  0  0  0
 22 23  2  0  0  0  0
 22 70  1  0  0  0  0
 23 24  1  0  0  0  0
 23 71  1  0  0  0  0
 24 25  2  0  0  0  0
 24 72  1  0  0  0  0
 25 73  1  0  0  0  0
 26 74  1  0  0  0  0
 26 75  1  0  0  0  0
 27 52  1  6  0  0  0
 27 28  1  0  0  0  0
 27 26  1  0  0  0  0
 28 76  1  0  0  0  0
 29 27  1  0  0  0  0
 29 30  1  0  0  0  0
 29 39  1  0  0  0  0
 29 53  1  1  0  0  0
 31 30  1  0  0  0  0
 31 32  2  0  0  0  0
 31 33  1  0  0  0  0
 34 33  1  0  0  0  0
 34 35  1  0  0  0  0
 34 38  1  0  0  0  0
 34 55  1  6  0  0  0
 35 36  1  0  0  0  0
 35 77  1  0  0  0  0
 35 78  1  0  0  0  0
 37 36  1  0  0  0  0
 37 38  1  0  0  0  0
 37 79  1  0  0  0  0
 37 80  1  0  0  0  0
 38 81  1  0  0  0  0
 38 82  1  0  0  0  0
 39 40  1  0  0  0  0
 39 83  1  0  0  0  0
 39 84  1  0  0  0  0
 40 41  2  0  0  0  0
 40 45  1  0  0  0  0
 41 42  1  0  0  0  0
 41 85  1  0  0  0  0
 42 43  2  0  0  0  0
 42 86  1  0  0  0  0
 43 44  1  0  0  0  0
 43 87  1  0  0  0  0
 44 45  2  0  0  0  0
 44 88  1  0  0  0  0
 45 89  1  0  0  0  0
 51 17  1  0  0  0  0
 54 30  1  0  0  0  0
 56 46  1  0  0  0  0
 57 46  1  0  0  0  0
M  END
>  <DRUGBANK_ID>
DB01824

>  <SECONDARY_ACCESSION_NUMBERS>
EXPT00182

>  <COMMON_NAME>
(3S)-Tetrahydro-3-furanyl {(2S,3S)-4-[(2S,4R)-4-{(1S,2R)-2-[(S)-amino(hydroxy)methoxy]-2,3-dihydro-1H-inden-1-yl}-2-benzyl-3-oxo-2-pyrrolidinyl]-3-hydroxy-1-phenyl-2-butanyl}carbamate

$$$$
