
 OpenBabel10282417133D

 45 46  0  0  0  0  0  0  0  0999 V2000
   -0.0447    1.6930   -0.0483 C   0  0  1  0  0  0  0  0  0  0  0  0
    0.9401    0.5427    0.2543 C   0  0  1  0  0  0  0  0  0  0  0  0
   -1.4130    1.2932   -0.1171 O   0  0  0  0  0  0  0  0  0  0  0  0
    0.6224   -0.6628   -0.6289 C   0  0  2  0  0  0  0  0  0  0  0  0
   -1.7106    0.1676   -0.9423 C   0  0  1  0  0  0  0  0  0  0  0  0
   -0.8608   -1.0352   -0.5202 C   0  0  2  0  0  0  0  0  0  0  0  0
    2.2972    0.9750    0.0967 O   0  0  0  0  0  0  0  0  0  0  0  0
    1.4337   -1.7756   -0.2440 O   0  0  0  0  0  0  0  0  0  0  0  0
   -1.1486   -1.4652    0.8181 O   0  0  0  0  0  0  0  0  0  0  0  0
   -3.2157   -0.1262   -0.8192 C   0  0  0  0  0  0  0  0  0  0  0  0
   -3.9897    1.0457   -1.0807 O   0  0  0  0  0  0  0  0  0  0  0  0
   -2.9220    0.1101    3.1088 C   0  0  3  0  0  0  0  0  0  0  0  0
   -3.8150    0.9815    4.0117 C   0  0  1  0  0  0  0  0  0  0  0  0
   -1.5936    0.6172    2.9993 O   0  0  0  0  0  0  0  0  0  0  0  0
   -3.7752    2.4347    3.5092 C   0  0  2  0  0  0  0  0  0  0  0  0
   -1.5656    1.9675    2.5261 C   0  0  1  0  0  0  0  0  0  0  0  0
   -2.3234    2.9290    3.4245 C   0  0  1  0  0  0  0  0  0  0  0  0
   -2.8383   -1.2337    3.5334 O   0  0  0  0  0  0  0  0  0  0  0  0
   -5.1561    0.4812    4.0326 O   0  0  0  0  0  0  0  0  0  0  0  0
   -4.5558    3.2903    4.3408 O   0  0  0  0  0  0  0  0  0  0  0  0
   -2.2937    4.2497    2.8775 O   0  0  0  0  0  0  0  0  0  0  0  0
   -0.1209    2.4189    2.2733 C   0  0  0  0  0  0  0  0  0  0  0  0
    0.0898    2.7678    0.8961 O   0  0  0  0  0  0  0  0  0  0  0  0
    0.2107    2.1371   -1.0173 H   0  0  0  0  0  0  0  0  0  0  0  0
    0.8682    0.2144    1.2939 H   0  0  0  0  0  0  0  0  0  0  0  0
    0.8754   -0.4311   -1.6686 H   0  0  0  0  0  0  0  0  0  0  0  0
   -1.4964    0.4624   -1.9753 H   0  0  0  0  0  0  0  0  0  0  0  0
   -1.0775   -1.8949   -1.1600 H   0  0  0  0  0  0  0  0  0  0  0  0
    2.4466    1.1991   -0.8377 H   0  0  0  0  0  0  0  0  0  0  0  0
    1.1849   -2.0036    0.6733 H   0  0  0  0  0  0  0  0  0  0  0  0
   -1.1383   -0.7157    1.4453 H   0  0  0  0  0  0  0  0  0  0  0  0
   -3.5191   -0.8997   -1.5290 H   0  0  0  0  0  0  0  0  0  0  0  0
   -3.4923   -0.4705    0.1774 H   0  0  0  0  0  0  0  0  0  0  0  0
   -3.6551    1.7409   -0.4855 H   0  0  0  0  0  0  0  0  0  0  0  0
   -3.3705    0.0709    2.1137 H   0  0  0  0  0  0  0  0  0  0  0  0
   -3.4513    0.9406    5.0438 H   0  0  0  0  0  0  0  0  0  0  0  0
   -4.2434    2.4922    2.5156 H   0  0  0  0  0  0  0  0  0  0  0  0
   -2.1398    2.0067    1.6066 H   0  0  0  0  0  0  0  0  0  0  0  0
   -1.8723    2.9710    4.4209 H   0  0  0  0  0  0  0  0  0  0  0  0
   -2.6616   -1.2245    4.4943 H   0  0  0  0  0  0  0  0  0  0  0  0
   -5.5448    0.5857    3.1458 H   0  0  0  0  0  0  0  0  0  0  0  0
   -3.9649    3.6973    4.9996 H   0  0  0  0  0  0  0  0  0  0  0  0
   -2.5420    4.2092    1.9337 H   0  0  0  0  0  0  0  0  0  0  0  0
    0.6125    1.6775    2.6052 H   0  0  0  0  0  0  0  0  0  0  0  0
    0.1118    3.3180    2.8532 H   0  0  0  0  0  0  0  0  0  0  0  0
  1  2  1  0  0  0  0
  1  3  1  0  0  0  0
  1 23  1  0  0  0  0
  1 24  1  6  0  0  0
  2  4  1  0  0  0  0
  2  7  1  0  0  0  0
  2 25  1  1  0  0  0
  3  5  1  0  0  0  0
  4  6  1  0  0  0  0
  4  8  1  0  0  0  0
  4 26  1  6  0  0  0
  5  6  1  0  0  0  0
  5 10  1  0  0  0  0
  5 27  1  6  0  0  0
  6  9  1  0  0  0  0
  6 28  1  6  0  0  0
  7 29  1  0  0  0  0
  8 30  1  0  0  0  0
  9 31  1  0  0  0  0
 10 11  1  0  0  0  0
 10 32  1  0  0  0  0
 10 33  1  0  0  0  0
 11 34  1  0  0  0  0
 12 13  1  0  0  0  0
 12 14  1  0  0  0  0
 12 18  1  0  0  0  0
 12 35  1  4  0  0  0
 13 15  1  0  0  0  0
 13 19  1  0  0  0  0
 13 36  1  1  0  0  0
 14 16  1  0  0  0  0
 15 17  1  0  0  0  0
 15 37  1  6  0  0  0
 15 20  1  0  0  0  0
 16 17  1  0  0  0  0
 16 22  1  0  0  0  0
 16 38  1  6  0  0  0
 17 21  1  0  0  0  0
 17 39  1  1  0  0  0
 18 40  1  0  0  0  0
 19 41  1  0  0  0  0
 20 42  1  0  0  0  0
 21 43  1  0  0  0  0
 22 23  1  0  0  0  0
 22 44  1  0  0  0  0
 22 45  1  0  0  0  0
M  END
>  <DRUGBANK_ID>
DB04116

>  <SECONDARY_ACCESSION_NUMBERS>
EXPT01999

>  <COMMON_NAME>
Allolactose

>  <CAS_NUMBER>
645-03-4

>  <SYNONYMS>
6-O-Î²-D-galactopyranosyl-D-glucopyranose

$$$$
