
 OpenBabel10282417193D

 25 25  0  0  0  0  0  0  0  0999 V2000
   -0.2873   -1.1362   -0.0135 N   0  0  0  0  0  0  0  0  0  0  0  0
   -1.1384   -0.0517    0.0010 C   0  0  0  0  0  0  0  0  0  0  0  0
    0.9899   -0.6269    0.0035 C   0  0  0  0  0  0  0  0  0  0  0  0
   -0.7116   -2.5308   -0.0365 C   0  0  0  0  0  0  0  0  0  0  0  0
   -0.3234    1.0580    0.0028 C   0  0  0  0  0  0  0  0  0  0  0  0
    0.9950    0.6920    0.0124 N   0  0  0  0  0  0  0  0  0  0  0  0
   -0.2620   -3.2280   -1.3135 C   0  0  0  0  0  0  0  0  0  0  0  0
    0.5201   -4.3531   -1.1515 N   0  0  0  0  0  0  0  0  0  0  0  0
    1.1603   -5.0190   -2.2846 C   0  0  0  0  0  0  0  0  0  0  0  0
   -0.5528   -2.7771   -2.4194 O   0  0  0  0  0  0  0  0  0  0  0  0
    2.6901   -4.9276   -2.2556 C   0  0  0  0  0  0  0  0  0  0  0  0
    3.2050   -5.5959   -1.1059 O   0  0  0  0  0  0  0  0  0  0  0  0
    2.2010   -1.4083    0.0561 N   0  3  0  0  0  0  0  0  0  0  0  0
    3.2772   -0.8054   -0.0541 O   0  5  0  0  0  0  0  0  0  0  0  0
    2.0956   -2.6282    0.2390 O   0  0  0  0  0  0  0  0  0  0  0  0
   -2.2172   -0.1435   -0.0087 H   0  0  0  0  0  0  0  0  0  0  0  0
   -0.3403   -3.0076    0.8760 H   0  0  0  0  0  0  0  0  0  0  0  0
   -1.8075   -2.5586    0.0000 H   0  0  0  0  0  0  0  0  0  0  0  0
   -0.6151    2.1020    0.0006 H   0  0  0  0  0  0  0  0  0  0  0  0
    0.8508   -4.6008   -0.2251 H   0  0  0  0  0  0  0  0  0  0  0  0
    0.8562   -6.0685   -2.2341 H   0  0  0  0  0  0  0  0  0  0  0  0
    0.7972   -4.5882   -3.2215 H   0  0  0  0  0  0  0  0  0  0  0  0
    3.1060   -5.4257   -3.1381 H   0  0  0  0  0  0  0  0  0  0  0  0
    3.0462   -3.8920   -2.2535 H   0  0  0  0  0  0  0  0  0  0  0  0
    2.9791   -5.0460   -0.3362 H   0  0  0  0  0  0  0  0  0  0  0  0
  1  2  1  0  0  0  0
  1  3  1  0  0  0  0
  1  4  1  0  0  0  0
  2  5  2  0  0  0  0
  2 16  1  0  0  0  0
  3  6  2  0  0  0  0
  3 13  1  0  0  0  0
  4  7  1  0  0  0  0
  4 17  1  0  0  0  0
  4 18  1  0  0  0  0
  5  6  1  0  0  0  0
  5 19  1  0  0  0  0
  7  8  1  0  0  0  0
  7 10  2  0  0  0  0
  8  9  1  0  0  0  0
  8 20  1  0  0  0  0
  9 11  1  0  0  0  0
  9 21  1  0  0  0  0
  9 22  1  0  0  0  0
 11 12  1  0  0  0  0
 11 23  1  0  0  0  0
 11 24  1  0  0  0  0
 12 25  1  0  0  0  0
 14 13  1  0  0  0  0
 15 13  2  0  0  0  0
M  CHG  2  13   1  14  -1
M  END
>  <DRUGBANK_ID>
DB12736

>  <COMMON_NAME>
Etanidazole

>  <CAS_NUMBER>
22668-01-5

>  <UNII>
30DKA3Q1HL

>  <SYNONYMS>
Etanidazol; Etanidazole; Etanidazolum

$$$$
