
 OpenBabel10282417143D

 48 49  0  0  0  0  0  0  0  0999 V2000
   -4.4649   -3.7836    0.1341 C   0  0  0  0  0  0  0  0  0  0  0  0
   -2.7868   -7.3759   -3.3606 C   0  0  0  0  0  0  0  0  0  0  0  0
   -5.0854   -2.5456    0.0715 C   0  0  0  0  0  0  0  0  0  0  0  0
   -2.3378   -8.6842   -3.4296 C   0  0  0  0  0  0  0  0  0  0  0  0
   -3.0929   -3.8028    0.1622 C   0  0  0  0  0  0  0  0  0  0  0  0
   -1.9728   -6.4277   -2.7569 C   0  0  0  0  0  0  0  0  0  0  0  0
   -4.3315   -1.3296    0.0231 C   0  0  0  0  0  0  0  0  0  0  0  0
   -1.0793   -9.0267   -2.9047 C   0  0  0  0  0  0  0  0  0  0  0  0
    3.2686   -2.5641    0.8656 C   0  0  0  0  0  0  0  0  0  0  0  0
    5.4210   -3.6361    0.0588 C   0  0  0  0  0  0  0  0  0  0  0  0
    1.8873   -2.6597    0.9766 C   0  0  0  0  0  0  0  0  0  0  0  0
    5.7963   -5.0717    0.4910 C   0  0  0  0  0  0  0  0  0  0  0  0
    3.1618   -4.0679   -1.0128 C   0  0  0  0  0  0  0  0  0  0  0  0
   -0.9399   -2.7127    0.1289 C   0  0  0  0  0  0  0  0  0  0  0  0
    0.0050   -5.7046   -1.5357 C   0  0  0  0  0  0  0  0  0  0  0  0
    3.9284   -3.3660   -0.0633 C   0  0  0  0  0  0  0  0  0  0  0  0
   -2.3783   -2.5946    0.1321 C   0  0  0  0  0  0  0  0  0  0  0  0
   -0.6879   -6.7812   -2.2799 C   0  0  0  0  0  0  0  0  0  0  0  0
    1.1567   -3.5605    0.1771 C   0  0  0  0  0  0  0  0  0  0  0  0
    1.7831   -4.2732   -0.8621 C   0  0  0  0  0  0  0  0  0  0  0  0
   -2.9146   -1.2741    0.0355 C   0  0  0  0  0  0  0  0  0  0  0  0
   -0.1907   -8.1027   -2.3083 C   0  0  0  0  0  0  0  0  0  0  0  0
    5.4580   -6.1585   -0.5038 C   0  0  0  0  0  0  0  0  0  0  0  0
   -0.2100   -3.7025    0.4628 N   0  0  0  0  0  0  0  0  0  0  0  0
    1.1920   -5.2184   -1.7361 N   0  0  0  0  0  0  0  0  0  0  0  0
   -2.2167   -0.1904   -0.0254 O   0  5  0  0  0  0  0  0  0  0  0  0
    0.9295   -8.4750   -1.8195 O   0  5  0  0  0  0  0  0  0  0  0  0
    6.2530   -6.6478   -1.3054 O   0  0  0  0  0  0  0  0  0  0  0  0
    4.1628   -6.4946   -0.4645 O   0  0  0  0  0  0  0  0  0  0  0  0
   -0.4354    0.2428   -0.2296 Fe  0  0  0  0  0  0  0  0  0  0  0  0
   -0.4030   -1.8391   -0.1852 H   0  0  0  0  0  0  0  0  0  0  0  0
   -0.6780   -5.3216   -0.7809 H   0  0  0  0  0  0  0  0  0  0  0  0
   -5.0205   -4.7211    0.1666 H   0  0  0  0  0  0  0  0  0  0  0  0
   -3.7562   -7.1056   -3.7652 H   0  0  0  0  0  0  0  0  0  0  0  0
   -6.1768   -2.5364    0.0583 H   0  0  0  0  0  0  0  0  0  0  0  0
   -2.9543   -9.4554   -3.8816 H   0  0  0  0  0  0  0  0  0  0  0  0
   -2.5757   -4.7595    0.1940 H   0  0  0  0  0  0  0  0  0  0  0  0
   -2.3374   -5.4122   -2.6518 H   0  0  0  0  0  0  0  0  0  0  0  0
   -4.9435   -0.4244   -0.0228 H   0  0  0  0  0  0  0  0  0  0  0  0
   -0.7739  -10.0733   -2.9522 H   0  0  0  0  0  0  0  0  0  0  0  0
    3.8319   -1.9719    1.5826 H   0  0  0  0  0  0  0  0  0  0  0  0
    5.9151   -3.3711   -0.8810 H   0  0  0  0  0  0  0  0  0  0  0  0
    5.8326   -2.9580    0.8219 H   0  0  0  0  0  0  0  0  0  0  0  0
    1.3836   -2.1640    1.7995 H   0  0  0  0  0  0  0  0  0  0  0  0
    6.8842   -5.1146    0.6389 H   0  0  0  0  0  0  0  0  0  0  0  0
    5.3545   -5.3314    1.4610 H   0  0  0  0  0  0  0  0  0  0  0  0
    3.6651   -4.6253   -1.8038 H   0  0  0  0  0  0  0  0  0  0  0  0
    3.8508   -6.9842   -1.2672 H   0  0  0  0  0  0  0  0  0  0  0  0
  1 33  1  0  0  0  0
  2 34  1  0  0  0  0
  3  1  2  0  0  0  0
  3 35  1  0  0  0  0
  4  2  2  0  0  0  0
  4 36  1  0  0  0  0
  5  1  1  0  0  0  0
  5 37  1  0  0  0  0
  6  2  1  0  0  0  0
  6 38  1  0  0  0  0
  7  3  1  0  0  0  0
  7 39  1  0  0  0  0
  8  4  1  0  0  0  0
  8 40  1  0  0  0  0
  9 41  1  0  0  0  0
 10 42  1  0  0  0  0
 10 43  1  0  0  0  0
 11  9  2  0  0  0  0
 11 44  1  0  0  0  0
 12 10  1  0  0  0  0
 12 45  1  0  0  0  0
 12 46  1  0  0  0  0
 13 47  1  0  0  0  0
 16  9  1  0  0  0  0
 16 10  1  0  0  0  0
 16 13  2  0  0  0  0
 17  5  2  0  0  0  0
 17 14  1  0  0  0  0
 18  6  2  0  0  0  0
 18 15  1  0  0  0  0
 19 11  1  0  0  0  0
 20 13  1  0  0  0  0
 20 19  2  0  0  0  0
 21  7  2  0  0  0  0
 21 17  1  0  0  0  0
 22  8  2  0  0  0  0
 22 18  1  0  0  0  0
 23 12  1  0  0  0  0
 24 14  2  0  0  0  0
 24 19  1  0  0  0  0
 25 15  2  0  0  0  0
 25 20  1  0  0  0  0
 26 21  1  0  0  0  0
 27 22  1  0  0  0  0
 28 23  2  0  0  0  0
 29 23  1  0  0  0  0
 29 48  1  0  0  0  0
 31 14  1  0  0  0  0
 32 15  1  0  0  0  0
M  CHG  3  26  -1  27  -1  30   4
M  END
>  <DRUGBANK_ID>
DB04809

>  <COMMON_NAME>
SALOPHEN-10-PROPIONATE IRON CHELATE

$$$$
