
 OpenBabel10282417223D

 40 40  0  0  0  0  0  0  0  0999 V2000
   -0.7597    1.0789    0.0514 C   0  0  0  0  0  0  0  0  0  0  0  0
   -1.4189   -0.1341    0.0195 N   0  0  0  0  0  0  0  0  0  0  0  0
   -0.8002   -1.3839   -0.0070 C   0  0  0  0  0  0  0  0  0  0  0  0
    0.5894    1.0115    0.0036 C   0  0  0  0  0  0  0  0  0  0  0  0
    0.6946   -1.3621   -0.0135 C   0  0  0  0  0  0  0  0  0  0  0  0
    1.3545   -0.2034   -0.0202 C   0  0  0  0  0  0  0  0  0  0  0  0
   -1.5383    2.3852    0.1842 C   0  0  0  0  0  0  0  0  0  0  0  0
   -1.3670   -2.4617   -0.0113 O   0  0  0  0  0  0  0  0  0  0  0  0
   -2.8288   -0.2009    0.0508 O   0  0  0  0  0  0  0  0  0  0  0  0
    0.9293    4.4654   -0.0643 C   0  0  0  0  0  0  0  0  0  0  0  0
    0.4157    3.7463    1.2441 C   0  0  0  0  0  0  0  0  0  0  0  0
   -1.0668    3.3194    1.3113 C   0  0  3  0  0  0  0  0  0  0  0  0
    2.8548   -0.0666   -0.0154 C   0  0  0  0  0  0  0  0  0  0  0  0
   -1.9944    4.5329    1.4221 C   0  0  0  0  0  0  0  0  0  0  0  0
    0.3343    5.8757   -0.1266 C   0  0  0  0  0  0  0  0  0  0  0  0
    2.4538    4.6187    0.0394 C   0  0  0  0  0  0  0  0  0  0  0  0
    0.6646    3.8295   -1.4557 C   0  0  0  0  0  0  0  0  0  0  0  0
    1.2495    1.8563    0.0046 H   0  0  0  0  0  0  0  0  0  0  0  0
    1.1972   -2.3166   -0.0063 H   0  0  0  0  0  0  0  0  0  0  0  0
   -1.6070    2.8819   -0.7805 H   0  0  0  0  0  0  0  0  0  0  0  0
   -2.5995    2.2361    0.3885 H   0  0  0  0  0  0  0  0  0  0  0  0
   -3.1630    0.6874   -0.1111 H   0  0  0  0  0  0  0  0  0  0  0  0
    0.6248    4.3852    2.1159 H   0  0  0  0  0  0  0  0  0  0  0  0
    1.0388    2.8854    1.5172 H   0  0  0  0  0  0  0  0  0  0  0  0
   -1.2040    2.7567    2.2480 H   0  0  0  0  0  0  0  0  0  0  0  0
    3.2052    0.4818   -0.8990 H   0  0  0  0  0  0  0  0  0  0  0  0
    3.2016    0.4808    0.8710 H   0  0  0  0  0  0  0  0  0  0  0  0
    3.3454   -1.0436   -0.0134 H   0  0  0  0  0  0  0  0  0  0  0  0
   -3.0207    4.2452    1.6599 H   0  0  0  0  0  0  0  0  0  0  0  0
   -1.6344    5.2248    2.1911 H   0  0  0  0  0  0  0  0  0  0  0  0
   -2.0846    5.0628    0.4783 H   0  0  0  0  0  0  0  0  0  0  0  0
    0.4246    6.3854    0.8372 H   0  0  0  0  0  0  0  0  0  0  0  0
    0.8185    6.4751   -0.8988 H   0  0  0  0  0  0  0  0  0  0  0  0
   -0.7096    5.8584   -0.4278 H   0  0  0  0  0  0  0  0  0  0  0  0
    2.9578    3.6463    0.0452 H   0  0  0  0  0  0  0  0  0  0  0  0
    2.8258    5.1790   -0.8259 H   0  0  0  0  0  0  0  0  0  0  0  0
    2.7370    5.1668    0.9420 H   0  0  0  0  0  0  0  0  0  0  0  0
    1.1060    2.8445   -1.6067 H   0  0  0  0  0  0  0  0  0  0  0  0
   -0.3866    3.7923   -1.7218 H   0  0  0  0  0  0  0  0  0  0  0  0
    1.1016    4.4365   -2.2529 H   0  0  0  0  0  0  0  0  0  0  0  0
  2  1  1  0  0  0  0
  3  2  1  0  0  0  0
  4  1  2  0  0  0  0
  4 18  1  0  0  0  0
  5  6  2  0  0  0  0
  5  3  1  0  0  0  0
  5 19  1  0  0  0  0
  6  4  1  0  0  0  0
  7  1  1  0  0  0  0
  7 20  1  0  0  0  0
  7 21  1  0  0  0  0
  8  3  2  0  0  0  0
  9  2  1  0  0  0  0
  9 22  1  0  0  0  0
 10 11  1  0  0  0  0
 10 15  1  0  0  0  0
 10 16  1  0  0  0  0
 10 17  1  0  0  0  0
 11 12  1  0  0  0  0
 11 23  1  0  0  0  0
 11 24  1  0  0  0  0
 12  7  1  0  0  0  0
 12 25  1  0  0  0  0
 13  6  1  0  0  0  0
 13 26  1  0  0  0  0
 13 27  1  0  0  0  0
 13 28  1  0  0  0  0
 14 12  1  0  0  0  0
 14 29  1  0  0  0  0
 14 30  1  0  0  0  0
 14 31  1  0  0  0  0
 15 32  1  0  0  0  0
 15 33  1  0  0  0  0
 15 34  1  0  0  0  0
 16 35  1  0  0  0  0
 16 36  1  0  0  0  0
 16 37  1  0  0  0  0
 17 38  1  0  0  0  0
 17 39  1  0  0  0  0
 17 40  1  0  0  0  0
M  END
>  <DRUGBANK_ID>
DB15946

>  <COMMON_NAME>
Piroctone

>  <CAS_NUMBER>
50650-76-5

>  <UNII>
R49EFA73Q7

>  <SYNONYMS>
Piroctona; Piroctone; Piroctonol; Piroctonum

$$$$
