
 OpenBabel10282417193D

 24 25  0  0  0  0  0  0  0  0999 V2000
   -2.3115    0.1413    0.0901 C   0  0  0  0  0  0  0  0  0  0  0  0
   -1.5701    1.3345    0.0454 C   0  0  0  0  0  0  0  0  0  0  0  0
   -0.2188    1.2722    0.0018 N   0  0  0  0  0  0  0  0  0  0  0  0
    0.3300    0.0369    0.0081 C   0  0  0  0  0  0  0  0  0  0  0  0
   -0.4176   -1.1285    0.0301 C   0  0  0  0  0  0  0  0  0  0  0  0
   -1.7677   -1.1054    0.0778 N   0  0  0  0  0  0  0  0  0  0  0  0
    2.0427   -0.0027   -0.0211 Cl  0  0  0  0  0  0  0  0  0  0  0  0
   -2.1957    2.5455   -0.1199 N   0  0  0  0  0  0  0  0  0  0  0  0
   -3.1282    3.1204    0.8534 C   0  0  0  0  0  0  0  0  0  0  0  0
   -4.2300    3.8933    0.0767 C   0  0  0  0  0  0  0  0  0  0  0  0
   -3.7010    4.8953   -0.8820 N   0  0  0  0  0  0  0  0  0  0  0  0
   -2.7141    4.2397   -1.7742 C   0  0  0  0  0  0  0  0  0  0  0  0
   -1.5738    3.5294   -1.0045 C   0  0  0  0  0  0  0  0  0  0  0  0
   -3.3959    0.1644    0.0558 H   0  0  0  0  0  0  0  0  0  0  0  0
    0.0447   -2.1075    0.0060 H   0  0  0  0  0  0  0  0  0  0  0  0
   -3.5867    2.3675    1.5034 H   0  0  0  0  0  0  0  0  0  0  0  0
   -2.5907    3.8278    1.5011 H   0  0  0  0  0  0  0  0  0  0  0  0
   -4.8466    3.1755   -0.4786 H   0  0  0  0  0  0  0  0  0  0  0  0
   -4.8958    4.4040    0.7811 H   0  0  0  0  0  0  0  0  0  0  0  0
   -3.2090    5.6146   -0.3519 H   0  0  0  0  0  0  0  0  0  0  0  0
   -3.2440    3.5057   -2.3965 H   0  0  0  0  0  0  0  0  0  0  0  0
   -2.2911    4.9861   -2.4531 H   0  0  0  0  0  0  0  0  0  0  0  0
   -0.9966    4.2567   -0.4200 H   0  0  0  0  0  0  0  0  0  0  0  0
   -0.9002    3.0628   -1.7320 H   0  0  0  0  0  0  0  0  0  0  0  0
  1  2  2  0  0  0  0
  1  6  1  0  0  0  0
  1 14  1  0  0  0  0
  2  3  1  0  0  0  0
  2  8  1  0  0  0  0
  3  4  2  0  0  0  0
  4  5  1  0  0  0  0
  4  7  1  0  0  0  0
  5  6  2  0  0  0  0
  5 15  1  0  0  0  0
  8  9  1  0  0  0  0
  8 13  1  0  0  0  0
  9 10  1  0  0  0  0
  9 16  1  0  0  0  0
  9 17  1  0  0  0  0
 10 11  1  0  0  0  0
 10 18  1  0  0  0  0
 10 19  1  0  0  0  0
 11 12  1  0  0  0  0
 11 20  1  0  0  0  0
 12 13  1  0  0  0  0
 12 21  1  0  0  0  0
 12 22  1  0  0  0  0
 13 23  1  0  0  0  0
 13 24  1  0  0  0  0
M  END
>  <DRUGBANK_ID>
DB12111

>  <COMMON_NAME>
MK-212

>  <CAS_NUMBER>
64022-27-1

>  <UNII>
62C3N7238U

>  <SYNONYMS>
CPP

$$$$
