
 OpenBabel10282417203D

156162  0  0  1  0  0  0  0  0999 V2000
    1.9140   -3.5804   -0.2671 C   0  0  0  0  0  0  0  0  0  0  0  0
    3.2885   -6.0012    1.7661 C   0  0  2  0  0  0  0  0  0  0  0  0
    4.5557   -8.8004    3.7478 C   0  0  1  0  0  0  0  0  0  0  0  0
    5.8985  -12.3223    5.6134 C   0  0  0  0  0  0  0  0  0  0  0  0
    6.5639  -13.9672    6.4253 O   0  0  0  0  0  0  0  0  0  0  0  0
    6.8320  -15.2565    7.1025 N   0  0  0  0  0  0  0  0  0  0  0  0
    7.6492  -18.4623    8.8318 C   0  0  2  0  0  0  0  0  0  0  0  0
    8.4939  -20.4470   10.7655 C   0  0  0  0  0  0  0  0  0  0  0  0
    8.9411  -20.8557   12.4562 O   0  0  0  0  0  0  0  0  0  0  0  0
    8.0823  -19.6359   10.5566 N   0  0  0  0  0  0  0  0  0  0  0  0
    8.0876  -18.4657   11.2881 C   0  0  0  0  0  0  0  0  0  0  0  0
    8.9979  -17.4545   10.6201 C   0  0  0  0  0  0  0  0  0  0  0  0
    8.6643  -17.1338    9.2831 C   0  0  0  0  0  0  0  0  0  0  0  0
    7.0610  -16.7106    9.2455 C   0  0  0  0  0  0  0  0  0  0  0  0
    6.1830  -17.4340    9.6844 O   0  0  0  0  0  0  0  0  0  0  0  0
    6.7349  -15.4055    8.7861 N   0  0  0  0  0  0  0  0  0  0  0  0
    5.3999  -15.0089    8.4680 C   0  0  0  0  0  0  0  0  0  0  0  0
    5.3177  -13.6820    9.1697 C   0  0  0  0  0  0  0  0  0  0  0  0
    6.2182  -12.6668    8.5058 C   0  0  0  0  0  0  0  0  0  0  0  0
    5.6393  -12.4240    7.2341 C   0  0  0  0  0  0  0  0  0  0  0  0
    5.0639  -13.4845    6.2543 O   0  0  0  0  0  0  0  0  0  0  0  0
    5.3494  -11.1189    6.6158 N   0  0  0  0  0  0  0  0  0  0  0  0
    4.9149  -10.9591    5.1620 C   0  0  2  0  0  0  0  0  0  0  0  0
    3.4835  -10.5045    5.1391 C   0  0  0  0  0  0  0  0  0  0  0  0
    2.6018  -11.2020    5.6457 O   0  0  0  0  0  0  0  0  0  0  0  0
    3.0155   -9.3547    4.6139 N   0  0  0  0  0  0  0  0  0  0  0  0
    1.7944   -8.7360    4.4608 C   0  0  2  0  0  0  0  0  0  0  0  0
    1.8163   -7.3956    5.1785 C   0  0  0  0  0  0  0  0  0  0  0  0
    2.0374   -7.3218    6.4049 O   0  0  0  0  0  0  0  0  0  0  0  0
    1.2854   -6.1925    4.4433 N   0  0  0  0  0  0  0  0  0  0  0  0
    1.1528   -4.9013    5.1582 C   0  0  1  0  0  0  0  0  0  0  0  0
    2.0587   -3.8900    4.5109 C   0  0  0  0  0  0  0  0  0  0  0  0
    3.2902   -4.0993    4.4639 O   0  0  0  0  0  0  0  0  0  0  0  0
    1.4862   -2.6738    3.9458 N   0  0  0  0  0  0  0  0  0  0  0  0
    2.3851   -1.7363    3.3586 C   0  0  2  0  0  0  0  0  0  0  0  0
    2.6674   -3.6900    2.4372 C   0  0  0  0  0  0  0  0  0  0  0  0
    1.7388   -2.4838    1.2348 O   0  0  0  0  0  0  0  0  0  0  0  0
    3.5965   -6.0088    3.1807 N   0  0  0  0  0  0  0  0  0  0  0  0
    3.8168   -2.1525    3.3178 C   0  0  0  0  0  0  0  0  0  0  0  0
    4.7013   -1.1613    2.6347 C   0  0  0  0  0  0  0  0  0  0  0  0
    4.6112    0.1636    3.3615 C   0  0  0  0  0  0  0  0  0  0  0  0
    5.0469   -0.0117    4.8030 C   0  0  0  0  0  0  0  0  0  0  0  0
    6.4288   -0.4885    4.8455 N   0  0  0  0  0  0  0  0  0  0  0  0
   -0.2858   -4.4342    5.1389 C   0  0  0  0  0  0  0  0  0  0  0  0
   -0.9123   -5.5908    5.8597 C   0  0  0  0  0  0  0  0  0  0  0  0
   -0.4491   -6.8493    5.9017 C   0  0  0  0  0  0  0  0  0  0  0  0
   -1.2107   -7.6181    6.7218 N   0  0  0  0  0  0  0  0  0  0  0  0
   -2.2852   -6.8718    7.1543 C   0  0  0  0  0  0  0  0  0  0  0  0
   -2.0864   -5.5965    6.6474 C   0  0  0  0  0  0  0  0  0  0  0  0
   -3.0187   -4.5983    6.9121 C   0  0  0  0  0  0  0  0  0  0  0  0
   -4.1391   -4.9060    7.6283 C   0  0  0  0  0  0  0  0  0  0  0  0
   -4.3467   -6.1826    8.1027 C   0  0  0  0  0  0  0  0  0  0  0  0
   -3.4180   -7.1709    7.9013 C   0  0  0  0  0  0  0  0  0  0  0  0
    0.8819   -9.7312    5.1315 C   0  0  0  0  0  0  0  0  0  0  0  0
   -0.5369   -9.2816    5.0828 C   0  0  0  0  0  0  0  0  0  0  0  0
   -1.1137   -8.5155    4.1090 C   0  0  0  0  0  0  0  0  0  0  0  0
   -2.4690   -8.2875    4.4045 N   0  0  0  0  0  0  0  0  0  0  0  0
   -2.7516   -8.9079    5.6273 C   0  0  0  0  0  0  0  0  0  0  0  0
   -1.5899   -9.5962    6.0088 C   0  0  0  0  0  0  0  0  0  0  0  0
   -1.5160  -10.1671    7.3156 C   0  0  0  0  0  0  0  0  0  0  0  0
   -2.6174  -10.1373    8.1068 C   0  0  0  0  0  0  0  0  0  0  0  0
   -3.7929   -9.5810    7.6597 C   0  0  0  0  0  0  0  0  0  0  0  0
   -3.8844   -8.9104    6.4260 C   0  0  0  0  0  0  0  0  0  0  0  0
    4.9769  -12.3093    4.3423 C   0  0  0  0  0  0  0  0  0  0  0  0
    4.6222  -12.1396    2.9979 C   0  0  0  0  0  0  0  0  0  0  0  0
    3.4368  -12.6213    2.5620 C   0  0  0  0  0  0  0  0  0  0  0  0
    2.9332  -12.2227    1.3490 C   0  0  0  0  0  0  0  0  0  0  0  0
    3.6422  -11.4043    0.5217 C   0  0  0  0  0  0  0  0  0  0  0  0
    4.7823  -10.8861    1.0208 C   0  0  0  0  0  0  0  0  0  0  0  0
    5.4033  -11.3623    2.1761 C   0  0  0  0  0  0  0  0  0  0  0  0
    7.2058  -20.0608    8.7122 C   0  0  0  0  0  0  0  0  0  0  0  0
    6.1677  -19.4104    8.9801 C   0  0  0  0  0  0  0  0  0  0  0  0
    6.0267  -18.4944    8.1946 O   0  0  0  0  0  0  0  0  0  0  0  0
    5.3266  -20.0849    9.6637 N   0  0  0  0  0  0  0  0  0  0  0  0
    7.8901  -21.3802   10.2995 C   0  0  0  0  0  0  0  0  0  0  0  0
    6.4193  -22.7790   11.1975 C   0  0  0  0  0  0  0  0  0  0  0  0
    5.9744  -22.2300   10.1245 C   0  0  0  0  0  0  0  0  0  0  0  0
    4.5758  -21.9203    9.9942 C   0  0  0  0  0  0  0  0  0  0  0  0
    3.7304  -22.1057   10.9895 C   0  0  0  0  0  0  0  0  0  0  0  0
    4.1888  -22.8595   12.0040 C   0  0  0  0  0  0  0  0  0  0  0  0
    5.5515  -23.0834   12.2588 C   0  0  0  0  0  0  0  0  0  0  0  0
    2.9828   -3.5713    0.2937 O   0  0  0  0  0  0  0  0  0  0  0  0
    1.5444   -1.8323   -1.7743 H   0  0  0  0  0  0  0  0  0  0  0  0
    0.7311   -1.8254   -1.3063 H   0  0  0  0  0  0  0  0  0  0  0  0
    0.7468   -2.5025   -1.9140 H   0  0  0  0  0  0  0  0  0  0  0  0
    2.0795   -4.2786    0.8831 H   0  0  0  0  0  0  0  0  0  0  0  0
    3.9082   -7.0346    3.2462 H   0  0  0  0  0  0  0  0  0  0  0  0
    7.7617  -17.1110    7.9423 H   0  0  0  0  0  0  0  0  0  0  0  0
    8.2778  -20.7435    9.4250 H   0  0  0  0  0  0  0  0  0  0  0  0
    8.3920  -18.5976   12.3050 H   0  0  0  0  0  0  0  0  0  0  0  0
    7.0722  -18.1247   11.2631 H   0  0  0  0  0  0  0  0  0  0  0  0
   10.0079  -17.8060   10.6333 H   0  0  0  0  0  0  0  0  0  0  0  0
    8.9239  -16.5152   11.1214 H   0  0  0  0  0  0  0  0  0  0  0  0
    9.1408  -17.8022    8.4199 H   0  0  0  0  0  0  0  0  0  0  0  0
    9.2099  -16.5315    8.6840 H   0  0  0  0  0  0  0  0  0  0  0  0
    7.5412  -14.9364    8.0894 H   0  0  0  0  0  0  0  0  0  0  0  0
    4.7722  -15.7314    8.9247 H   0  0  0  0  0  0  0  0  0  0  0  0
    5.0991  -14.8977    7.4324 H   0  0  0  0  0  0  0  0  0  0  0  0
    5.6242  -13.8083   10.1954 H   0  0  0  0  0  0  0  0  0  0  0  0
    4.3019  -13.3326    9.1451 H   0  0  0  0  0  0  0  0  0  0  0  0
    7.2395  -13.0130    8.5211 H   0  0  0  0  0  0  0  0  0  0  0  0
    6.1562  -11.7260    9.0104 H   0  0  0  0  0  0  0  0  0  0  0  0
    5.3608  -10.3633    7.2064 H   0  0  0  0  0  0  0  0  0  0  0  0
    5.5893  -10.2760    4.6945 H   0  0  0  0  0  0  0  0  0  0  0  0
    3.4636   -8.8251    4.2246 H   0  0  0  0  0  0  0  0  0  0  0  0
    1.5012   -8.6018    3.4332 H   0  0  0  0  0  0  0  0  0  0  0  0
    0.9929   -6.2623    3.4809 H   0  0  0  0  0  0  0  0  0  0  0  0
    1.4613   -5.0372    6.1911 H   0  0  0  0  0  0  0  0  0  0  0  0
    0.4855   -2.4914    3.9895 H   0  0  0  0  0  0  0  0  0  0  0  0
    2.2901   -0.7404    3.7806 H   0  0  0  0  0  0  0  0  0  0  0  0
    2.9443   -4.0463    2.7925 H   0  0  0  0  0  0  0  0  0  0  0  0
    4.1103   -2.3049    4.3323 H   0  0  0  0  0  0  0  0  0  0  0  0
    3.9506   -3.0932    2.8117 H   0  0  0  0  0  0  0  0  0  0  0  0
    5.7185   -1.5157    2.6567 H   0  0  0  0  0  0  0  0  0  0  0  0
    4.3983   -1.0371    1.6097 H   0  0  0  0  0  0  0  0  0  0  0  0
    5.2462    0.8855    2.8792 H   0  0  0  0  0  0  0  0  0  0  0  0
    3.5941    0.5214    3.3305 H   0  0  0  0  0  0  0  0  0  0  0  0
    4.9720    0.9285    5.3199 H   0  0  0  0  0  0  0  0  0  0  0  0
    4.4018   -0.7267    5.2887 H   0  0  0  0  0  0  0  0  0  0  0  0
    6.7209   -0.6138    5.8135 H   0  0  0  0  0  0  0  0  0  0  0  0
    6.4968   -1.3853    4.3599 H   0  0  0  0  0  0  0  0  0  0  0  0
   -0.4791   -3.5195    5.6866 H   0  0  0  0  0  0  0  0  0  0  0  0
   -0.7182   -4.3346    4.1505 H   0  0  0  0  0  0  0  0  0  0  0  0
    0.3371   -7.1990    5.3754 H   0  0  0  0  0  0  0  0  0  0  0  0
   -1.0384   -8.5880    6.9535 H   0  0  0  0  0  0  0  0  0  0  0  0
   -2.8645   -3.6001    6.5551 H   0  0  0  0  0  0  0  0  0  0  0  0
   -4.8626   -4.1406    7.8229 H   0  0  0  0  0  0  0  0  0  0  0  0
   -5.2424   -6.3967    8.6535 H   0  0  0  0  0  0  0  0  0  0  0  0
   -3.5763   -8.1272    8.3048 H   0  0  0  0  0  0  0  0  0  0  0  0
    0.9606  -10.6841    4.6186 H   0  0  0  0  0  0  0  0  0  0  0  0
    1.1994   -9.8677    6.1591 H   0  0  0  0  0  0  0  0  0  0  0  0
   -0.5899   -8.1380    3.2555 H   0  0  0  0  0  0  0  0  0  0  0  0
   -3.1386   -7.7731    3.8288 H   0  0  0  0  0  0  0  0  0  0  0  0
   -0.6111  -10.6246    7.6457 H   0  0  0  0  0  0  0  0  0  0  0  0
   -2.5834  -10.6095    9.0626 H   0  0  0  0  0  0  0  0  0  0  0  0
   -4.6365   -9.5197    8.3388 H   0  0  0  0  0  0  0  0  0  0  0  0
   -4.7854   -8.4162    6.1253 H   0  0  0  0  0  0  0  0  0  0  0  0
    6.0598  -12.6928    4.3547 H   0  0  0  0  0  0  0  0  0  0  0  0
    4.3788  -13.0356    4.8881 H   0  0  0  0  0  0  0  0  0  0  0  0
    2.8970  -13.3177    3.1679 H   0  0  0  0  0  0  0  0  0  0  0  0
    1.9618  -12.5592    1.0503 H   0  0  0  0  0  0  0  0  0  0  0  0
    3.3217  -11.1810   -0.4755 H   0  0  0  0  0  0  0  0  0  0  0  0
    5.2135  -10.0657    0.4942 H   0  0  0  0  0  0  0  0  0  0  0  0
    6.4324  -11.1297    2.4178 H   0  0  0  0  0  0  0  0  0  0  0  0
    8.3873  -19.4960    8.1094 H   0  0  0  0  0  0  0  0  0  0  0  0
    7.8240  -20.8461    8.6037 H   0  0  0  0  0  0  0  0  0  0  0  0
    5.5639  -20.8224   10.3030 H   0  0  0  0  0  0  0  0  0  0  0  0
    4.3258  -19.8943    9.5603 H   0  0  0  0  0  0  0  0  0  0  0  0
    7.9132  -23.6952   10.6542 H   0  0  0  0  0  0  0  0  0  0  0  0
    8.1079  -23.0604   11.9081 H   0  0  0  0  0  0  0  0  0  0  0  0
    6.6561  -21.8323    9.3913 H   0  0  0  0  0  0  0  0  0  0  0  0
    4.2897  -21.3455    9.1031 H   0  0  0  0  0  0  0  0  0  0  0  0
    2.7262  -21.7549   10.9527 H   0  0  0  0  0  0  0  0  0  0  0  0
    3.4545  -23.3045   12.6357 H   0  0  0  0  0  0  0  0  0  0  0  0
    5.8974  -23.4582   13.2104 H   0  0  0  0  0  0  0  0  0  0  0  0
    2.9886   -1.8953   -0.7963 H   0  0  0  0  0  0  0  0  0  0  0  0
  1 83  1  0  0  0  0
  1 84  1  0  0  0  0
  1 85  1  0  0  0  0
  2 82  1  0  0  0  0
  2 86  1  6  0  0  0
  2  1  1  0  0  0  0
  3  4  1  0  0  0  0
  3 38  1  0  0  0  0
  3  2  1  0  0  0  0
  3 87  1  1  0  0  0
  4  5  2  0  0  0  0
  4  6  1  0  0  0  0
  6  7  1  0  0  0  0
  6 88  1  0  0  0  0
  7  8  1  0  0  0  0
  7 75  1  0  0  0  0
  7 89  1  1  0  0  0
  8  9  2  0  0  0  0
  8 10  1  0  0  0  0
 10 11  1  0  0  0  0
 10 71  1  0  0  0  0
 11 12  1  0  0  0  0
 11 90  1  0  0  0  0
 11 91  1  0  0  0  0
 12 13  1  0  0  0  0
 12 92  1  0  0  0  0
 12 93  1  0  0  0  0
 13 14  1  0  0  0  0
 13 94  1  0  0  0  0
 13 95  1  0  0  0  0
 14 15  2  0  0  0  0
 14 16  1  0  0  0  0
 16 17  1  0  0  0  0
 16 96  1  0  0  0  0
 17 18  1  0  0  0  0
 17 97  1  0  0  0  0
 17 98  1  0  0  0  0
 18 19  1  0  0  0  0
 18 99  1  0  0  0  0
 18100  1  0  0  0  0
 19 20  1  0  0  0  0
 19101  1  0  0  0  0
 19102  1  0  0  0  0
 20 21  2  0  0  0  0
 20 22  1  0  0  0  0
 22 23  1  0  0  0  0
 22103  1  0  0  0  0
 23 24  1  0  0  0  0
 23 64  1  0  0  0  0
 23104  1  6  0  0  0
 24 25  2  0  0  0  0
 24 26  1  0  0  0  0
 26 27  1  0  0  0  0
 26105  1  0  0  0  0
 27 28  1  0  0  0  0
 27 54  1  0  0  0  0
 27106  1  6  0  0  0
 28 29  2  0  0  0  0
 28 30  1  0  0  0  0
 30 31  1  0  0  0  0
 30107  1  0  0  0  0
 31 32  1  0  0  0  0
 31108  1  1  0  0  0
 31 44  1  0  0  0  0
 32 33  2  0  0  0  0
 32 34  1  0  0  0  0
 34 35  1  0  0  0  0
 34109  1  0  0  0  0
 35 36  1  0  0  0  0
 35 39  1  0  0  0  0
 35110  1  6  0  0  0
 36 37  2  0  0  0  0
 36 38  1  0  0  0  0
 38111  1  0  0  0  0
 39 40  1  0  0  0  0
 39112  1  0  0  0  0
 39113  1  0  0  0  0
 40 41  1  0  0  0  0
 40114  1  0  0  0  0
 40115  1  0  0  0  0
 41 42  1  0  0  0  0
 41116  1  0  0  0  0
 41117  1  0  0  0  0
 42 43  1  0  0  0  0
 42118  1  0  0  0  0
 42119  1  0  0  0  0
 43120  1  0  0  0  0
 43121  1  0  0  0  0
 44 45  1  0  0  0  0
 44122  1  0  0  0  0
 44123  1  0  0  0  0
 45 46  2  0  0  0  0
 45 49  1  0  0  0  0
 46 47  1  0  0  0  0
 46124  1  0  0  0  0
 47 48  1  0  0  0  0
 47125  1  0  0  0  0
 48 49  1  0  0  0  0
 48 53  2  0  0  0  0
 49 50  2  0  0  0  0
 50 51  1  0  0  0  0
 50126  1  0  0  0  0
 51 52  2  0  0  0  0
 51127  1  0  0  0  0
 52 53  1  0  0  0  0
 52128  1  0  0  0  0
 53129  1  0  0  0  0
 54 55  1  0  0  0  0
 54130  1  0  0  0  0
 54131  1  0  0  0  0
 55 56  2  0  0  0  0
 55 59  1  0  0  0  0
 56 57  1  0  0  0  0
 56132  1  0  0  0  0
 57 58  1  0  0  0  0
 57133  1  0  0  0  0
 58 59  1  0  0  0  0
 58 63  2  0  0  0  0
 59 60  2  0  0  0  0
 60 61  1  0  0  0  0
 60134  1  0  0  0  0
 61 62  2  0  0  0  0
 61135  1  0  0  0  0
 62 63  1  0  0  0  0
 62136  1  0  0  0  0
 63137  1  0  0  0  0
 64 65  1  0  0  0  0
 64138  1  0  0  0  0
 64139  1  0  0  0  0
 65 66  2  0  0  0  0
 65 70  1  0  0  0  0
 66 67  1  0  0  0  0
 66140  1  0  0  0  0
 67 68  2  0  0  0  0
 67141  1  0  0  0  0
 68 69  1  0  0  0  0
 68142  1  0  0  0  0
 69 70  2  0  0  0  0
 69143  1  0  0  0  0
 70144  1  0  0  0  0
 71 72  1  0  0  0  0
 71145  1  0  0  0  0
 71146  1  0  0  0  0
 72 73  2  0  0  0  0
 72 74  1  0  0  0  0
 74147  1  0  0  0  0
 74148  1  0  0  0  0
 75 76  1  0  0  0  0
 75149  1  0  0  0  0
 75150  1  0  0  0  0
 76 77  2  0  0  0  0
 76 81  1  0  0  0  0
 77 78  1  0  0  0  0
 77151  1  0  0  0  0
 78 79  2  0  0  0  0
 78152  1  0  0  0  0
 79 80  1  0  0  0  0
 79153  1  0  0  0  0
 80 81  2  0  0  0  0
 80154  1  0  0  0  0
 81155  1  0  0  0  0
 82156  1  0  0  0  0
M  END
>  <DRUGBANK_ID>
DB12777

>  <COMMON_NAME>
Veldoreotide

>  <CAS_NUMBER>
252845-37-7

>  <UNII>
1Z83587HBN

$$$$
