
 OpenBabel10282417233D

 53 56  0  0  1  0  0  0  0  0999 V2000
    0.9906   -0.5222    0.2172 C   0  0  0  0  0  0  0  0  0  0  0  0
    1.5664    0.7596   -0.9736 O   0  0  0  0  0  0  0  0  0  0  0  0
    1.5087    1.9928   -1.8348 C   0  0  0  0  0  0  0  0  0  0  0  0
    0.3153    2.7912   -2.2900 C   0  0  0  0  0  0  0  0  0  0  0  0
    0.3887    4.1484   -2.4599 C   0  0  0  0  0  0  0  0  0  0  0  0
   -0.7100    4.8807   -2.7660 N   0  0  0  0  0  0  0  0  0  0  0  0
   -0.4908    6.1693   -3.0176 C   0  0  0  0  0  0  0  0  0  0  0  0
    0.6979    6.7643   -2.9227 N   0  0  0  0  0  0  0  0  0  0  0  0
    1.7490    6.0169   -2.4986 C   0  0  0  0  0  0  0  0  0  0  0  0
    3.0158    6.6179   -2.3630 N   0  0  0  0  0  0  0  0  0  0  0  0
    3.3201    7.9056   -2.7900 C   0  0  0  0  0  0  0  0  0  0  0  0
    4.1618    8.0995   -3.8866 C   0  0  0  0  0  0  0  0  0  0  0  0
    4.2075    9.3537   -4.4822 C   0  0  0  0  0  0  0  0  0  0  0  0
    3.6820   10.4576   -3.8096 C   0  0  0  0  0  0  0  0  0  0  0  0
    2.9612   10.2855   -2.6257 C   0  0  0  0  0  0  0  0  0  0  0  0
    2.5341   11.3955   -1.8696 C   0  0  0  0  0  0  0  0  0  0  0  0
    2.1996   12.3555   -1.1735 C   0  0  0  0  0  0  0  0  0  0  0  0
    2.6894    8.9974   -2.1932 C   0  0  0  0  0  0  0  0  0  0  0  0
    1.8591    8.7914   -1.1556 F   0  0  0  0  0  0  0  0  0  0  0  0
    1.6651    4.6583   -2.2416 C   0  0  0  0  0  0  0  0  0  0  0  0
    2.8105    3.8375   -1.8330 C   0  0  0  0  0  0  0  0  0  0  0  0
    2.7722    2.4765   -1.7023 C   0  0  0  0  0  0  0  0  0  0  0  0
    3.8012    1.7064   -1.1835 O   0  0  0  0  0  0  0  0  0  0  0  0
    3.3084    0.5533   -0.3486 C   0  0  2  0  0  0  0  0  0  0  0  0
    2.6353   -0.8019   -1.5616 C   0  0  0  0  0  0  0  0  0  0  0  0
    1.0149   -0.3731   -2.4275 C   0  0  0  0  0  0  0  0  0  0  0  0
   -0.3233    0.4931   -1.4292 N   0  0  0  0  0  0  0  0  0  0  0  0
   -1.2729   -0.5295   -1.0615 C   0  0  0  0  0  0  0  0  0  0  0  0
    0.2128    1.5968    0.0730 C   0  0  0  0  0  0  0  0  0  0  0  0
    2.0130    1.3833    0.8486 C   0  0  0  0  0  0  0  0  0  0  0  0
    1.9112    0.6309    2.0058 F   0  0  0  0  0  0  0  0  0  0  0  0
    2.5134    2.5616    1.3048 F   0  0  0  0  0  0  0  0  0  0  0  0
    0.7566   -1.5185   -0.1539 H   0  0  0  0  0  0  0  0  0  0  0  0
    0.2503   -0.1568    0.9661 H   0  0  0  0  0  0  0  0  0  0  0  0
    1.9021   -0.8099    0.7449 H   0  0  0  0  0  0  0  0  0  0  0  0
   -0.7285    2.4349   -2.2711 H   0  0  0  0  0  0  0  0  0  0  0  0
   -1.3239    6.7776   -3.3632 H   0  0  0  0  0  0  0  0  0  0  0  0
    3.8058    6.0039   -2.2781 H   0  0  0  0  0  0  0  0  0  0  0  0
    4.7238    7.2745   -4.3176 H   0  0  0  0  0  0  0  0  0  0  0  0
    4.6436    9.4676   -5.4704 H   0  0  0  0  0  0  0  0  0  0  0  0
    3.8436   11.4535   -4.2084 H   0  0  0  0  0  0  0  0  0  0  0  0
    1.9161   13.1653   -0.5744 H   0  0  0  0  0  0  0  0  0  0  0  0
    3.7241    4.3021   -1.4946 H   0  0  0  0  0  0  0  0  0  0  0  0
    4.1048    0.0649    0.2227 H   0  0  0  0  0  0  0  0  0  0  0  0
    3.4079   -1.1023   -2.2735 H   0  0  0  0  0  0  0  0  0  0  0  0
    2.3742   -1.7308   -1.0322 H   0  0  0  0  0  0  0  0  0  0  0  0
    1.4117    0.3243   -3.2154 H   0  0  0  0  0  0  0  0  0  0  0  0
    0.6049   -1.1714   -3.0537 H   0  0  0  0  0  0  0  0  0  0  0  0
   -0.9139   -1.3651   -0.4764 H   0  0  0  0  0  0  0  0  0  0  0  0
   -2.0142   -0.0436   -0.4457 H   0  0  0  0  0  0  0  0  0  0  0  0
   -1.6342   -1.0342   -1.9557 H   0  0  0  0  0  0  0  0  0  0  0  0
    0.4641    2.6436   -0.1936 H   0  0  0  0  0  0  0  0  0  0  0  0
   -0.6752    1.9160    0.6210 H   0  0  0  0  0  0  0  0  0  0  0  0
  1  2  1  0  0  0  0
  1 33  1  0  0  0  0
  1 34  1  0  0  0  0
  1 35  1  0  0  0  0
  2  3  1  0  0  0  0
  3  4  2  0  0  0  0
  3 22  1  0  0  0  0
  4  5  1  0  0  0  0
  4 36  1  0  0  0  0
  5  6  2  0  0  0  0
  5 20  1  0  0  0  0
  6  7  1  0  0  0  0
  7  8  2  0  0  0  0
  7 37  1  0  0  0  0
  8  9  1  0  0  0  0
  9 10  1  0  0  0  0
  9 20  2  0  0  0  0
 10 11  1  0  0  0  0
 10 38  1  0  0  0  0
 11 12  2  0  0  0  0
 11 18  1  0  0  0  0
 12 13  1  0  0  0  0
 12 39  1  0  0  0  0
 13 14  2  0  0  0  0
 13 40  1  0  0  0  0
 14 15  1  0  0  0  0
 14 41  1  0  0  0  0
 15 16  1  0  0  0  0
 15 18  2  0  0  0  0
 16 17  3  0  0  0  0
 17 42  1  0  0  0  0
 18 19  1  0  0  0  0
 20 21  1  0  0  0  0
 21 22  2  0  0  0  0
 21 43  1  0  0  0  0
 22 23  1  0  0  0  0
 24 23  1  0  0  0  0
 24 25  1  0  0  0  0
 24 30  1  0  0  0  0
 24 44  1  1  0  0  0
 25 26  1  0  0  0  0
 25 45  1  0  0  0  0
 25 46  1  0  0  0  0
 26 27  1  0  0  0  0
 26 47  1  0  0  0  0
 26 48  1  0  0  0  0
 27 28  1  0  0  0  0
 27 29  1  0  0  0  0
 28 49  1  0  0  0  0
 28 50  1  0  0  0  0
 28 51  1  0  0  0  0
 29 30  1  0  0  0  0
 29 52  1  0  0  0  0
 29 53  1  0  0  0  0
 30 31  1  0  0  0  0
 30 32  1  0  0  0  0
M  END
>  <DRUGBANK_ID>
DB17170

>  <COMMON_NAME>
WSD-0922

>  <CAS_NUMBER>
2226552-64-1

>  <UNII>
UF6QZ5E1AY

>  <SYNONYMS>
(r)-6-((3,3-difluoro-1-methylpiperidin-4-yl)oxy)-n-(3-ethynyl-2-fluorophenyl)-7-methoxyquinazolin-4-amine-

$$$$
