
 OpenBabel10282417143D

 57 60  0  0  1  0  0  0  0  0999 V2000
    1.1981   -0.0081    0.1074 O   0  0  0  0  0  0  0  0  0  0  0  0
   -2.0726   -1.4929    0.5612 O   0  0  0  0  0  0  0  0  0  0  0  0
   -3.8937   -2.7897    0.4475 O   0  0  0  0  0  0  0  0  0  0  0  0
   -3.2840   -4.6358   -5.2772 O   0  0  0  0  0  0  0  0  0  0  0  0
   -2.2421   -6.9369   -2.3127 O   0  0  0  0  0  0  0  0  0  0  0  0
    2.1282   -2.4926   -7.8289 O   0  0  0  0  0  0  0  0  0  0  0  0
   -3.3765   -1.7514   -1.4469 N   0  0  0  0  0  0  0  0  0  0  0  0
    0.6877   -2.0948   -6.1550 N   0  0  0  0  0  0  0  0  0  0  0  0
    1.1863   -4.3441   -6.9864 N   0  0  0  0  0  0  0  0  0  0  0  0
   -4.4461   -7.4660   -2.4133 N   0  0  0  0  0  0  0  0  0  0  0  0
   -1.0172   -0.7650   -0.0337 C   0  0  1  0  0  0  0  0  0  0  0  0
   -1.0631    0.7086    0.2758 C   0  0  0  0  0  0  0  0  0  0  0  0
    0.3870   -1.1786    0.3191 C   0  0  0  0  0  0  0  0  0  0  0  0
    0.3441    1.1365   -0.0676 C   0  0  0  0  0  0  0  0  0  0  0  0
   -3.1294   -2.0320   -0.1206 C   0  0  0  0  0  0  0  0  0  0  0  0
   -2.6912   -1.0433   -2.5328 C   0  0  0  0  0  0  0  0  0  0  0  0
   -1.7451   -1.9366   -3.2958 C   0  0  0  0  0  0  0  0  0  0  0  0
   -0.8545   -1.4330   -4.2934 C   0  0  0  0  0  0  0  0  0  0  0  0
    0.0431   -2.3098   -4.9096 C   0  0  0  0  0  0  0  0  0  0  0  0
   -1.6982   -3.2872   -2.9533 C   0  0  0  0  0  0  0  0  0  0  0  0
    0.3006   -3.4731   -4.2232 C   0  0  0  0  0  0  0  0  0  0  0  0
   -0.5707   -3.9851   -3.2786 C   0  0  0  0  0  0  0  0  0  0  0  0
    0.1725   -5.1898   -6.4505 C   0  0  0  0  0  0  0  0  0  0  0  0
   -1.7284   -6.3739   -4.6842 C   0  0  0  0  0  0  0  0  0  0  0  0
   -2.0879   -5.2854   -5.5379 C   0  0  0  0  0  0  0  0  0  0  0  0
   -1.1505   -4.7529   -6.4416 C   0  0  0  0  0  0  0  0  0  0  0  0
    0.5317   -6.2952   -5.6459 C   0  0  0  0  0  0  0  0  0  0  0  0
   -0.4184   -6.8916   -4.7782 C   0  0  0  0  0  0  0  0  0  0  0  0
    1.3328   -2.9707   -7.0104 C   0  0  0  0  0  0  0  0  0  0  0  0
   -2.6491   -6.8259   -3.6310 C   0  0  0  0  0  0  0  0  0  0  0  0
   -3.9889   -7.1259   -3.6554 C   0  0  0  0  0  0  0  0  0  0  0  0
   -3.5034   -3.3508   -5.8698 C   0  0  0  0  0  0  0  0  0  0  0  0
   -3.3827   -7.3289   -1.6525 C   0  0  0  0  0  0  0  0  0  0  0  0
   -4.0933   -2.3953   -1.7660 H   0  0  0  0  0  0  0  0  0  0  0  0
    0.8286   -1.1278   -6.4288 H   0  0  0  0  0  0  0  0  0  0  0  0
    1.9163   -4.8134   -7.5136 H   0  0  0  0  0  0  0  0  0  0  0  0
   -0.9717   -0.9633   -1.0828 H   0  0  0  0  0  0  0  0  0  0  0  0
   -1.8246    1.2574   -0.2902 H   0  0  0  0  0  0  0  0  0  0  0  0
   -1.2739    0.8890    1.3367 H   0  0  0  0  0  0  0  0  0  0  0  0
    0.5098   -1.5635    1.3315 H   0  0  0  0  0  0  0  0  0  0  0  0
    0.7203   -1.9545   -0.3842 H   0  0  0  0  0  0  0  0  0  0  0  0
    0.4110    1.4726   -1.1099 H   0  0  0  0  0  0  0  0  0  0  0  0
    0.6990    1.9462    0.5747 H   0  0  0  0  0  0  0  0  0  0  0  0
   -3.4463   -0.6031   -3.1810 H   0  0  0  0  0  0  0  0  0  0  0  0
   -2.1175   -0.1988   -2.1626 H   0  0  0  0  0  0  0  0  0  0  0  0
   -0.9171   -0.3875   -4.5817 H   0  0  0  0  0  0  0  0  0  0  0  0
   -2.4839   -3.8080   -2.4076 H   0  0  0  0  0  0  0  0  0  0  0  0
    1.1112   -4.1006   -4.5503 H   0  0  0  0  0  0  0  0  0  0  0  0
   -0.4459   -5.0041   -2.9374 H   0  0  0  0  0  0  0  0  0  0  0  0
   -1.3594   -3.8350   -6.9758 H   0  0  0  0  0  0  0  0  0  0  0  0
    1.5847   -6.5294   -5.4716 H   0  0  0  0  0  0  0  0  0  0  0  0
   -0.0869   -7.6473   -4.0619 H   0  0  0  0  0  0  0  0  0  0  0  0
   -4.6122   -7.1032   -4.5332 H   0  0  0  0  0  0  0  0  0  0  0  0
   -2.8197   -2.5794   -5.5140 H   0  0  0  0  0  0  0  0  0  0  0  0
   -3.4414   -3.3968   -6.9578 H   0  0  0  0  0  0  0  0  0  0  0  0
   -4.5043   -3.0087   -5.5931 H   0  0  0  0  0  0  0  0  0  0  0  0
   -3.3269   -7.5008   -0.5820 H   0  0  0  0  0  0  0  0  0  0  0  0
  1 13  1  0  0  0  0
  1 14  1  0  0  0  0
  2 15  1  0  0  0  0
  3 15  2  0  0  0  0
  4 25  1  0  0  0  0
  4 32  1  0  0  0  0
  5 30  1  0  0  0  0
  5 33  1  0  0  0  0
  6 29  2  0  0  0  0
  7 15  1  0  0  0  0
  7 16  1  0  0  0  0
  7 34  1  0  0  0  0
  8 19  1  0  0  0  0
  8 29  1  0  0  0  0
  8 35  1  0  0  0  0
  9 23  1  0  0  0  0
  9 29  1  0  0  0  0
  9 36  1  0  0  0  0
 10 31  1  0  0  0  0
 10 33  2  0  0  0  0
 11 12  1  0  0  0  0
 11 13  1  0  0  0  0
 11 37  1  6  0  0  0
 11  2  1  0  0  0  0
 12 14  1  0  0  0  0
 12 38  1  0  0  0  0
 12 39  1  0  0  0  0
 13 40  1  0  0  0  0
 13 41  1  0  0  0  0
 14 42  1  0  0  0  0
 14 43  1  0  0  0  0
 16 17  1  0  0  0  0
 16 44  1  0  0  0  0
 16 45  1  0  0  0  0
 17 18  2  0  0  0  0
 17 20  1  0  0  0  0
 18 19  1  0  0  0  0
 18 46  1  0  0  0  0
 19 21  2  0  0  0  0
 20 22  2  0  0  0  0
 20 47  1  0  0  0  0
 21 22  1  0  0  0  0
 21 48  1  0  0  0  0
 22 49  1  0  0  0  0
 23 26  2  0  0  0  0
 23 27  1  0  0  0  0
 24 25  2  0  0  0  0
 24 28  1  0  0  0  0
 24 30  1  0  0  0  0
 25 26  1  0  0  0  0
 26 50  1  0  0  0  0
 27 28  2  0  0  0  0
 27 51  1  0  0  0  0
 28 52  1  0  0  0  0
 30 31  2  0  0  0  0
 31 53  1  0  0  0  0
 32 54  1  0  0  0  0
 32 55  1  0  0  0  0
 32 56  1  0  0  0  0
 33 57  1  0  0  0  0
M  END
>  <DRUGBANK_ID>
DB04862

>  <COMMON_NAME>
Merimepodib

>  <CAS_NUMBER>
198821-22-6

>  <UNII>
2ZL2BA06FU

>  <SYNONYMS>
Merimepodib; MMPD

$$$$
