
 OpenBabel10282417193D

194197  0  0  1  0  0  0  0  0999 V2000
  -29.1703   40.7333   18.9353 C   0  0  0  0  0  0  0  0  0  0  0  0
  -28.5180   43.3732   19.4130 N   0  0  0  0  0  0  0  0  0  0  0  0
  -28.3248   45.1625   20.4546 C   0  0  0  0  0  0  0  0  0  0  0  0
  -27.5087   44.8651   21.7018 C   0  0  0  0  0  0  0  0  0  0  0  0
  -26.1247   44.5394   21.3302 N   0  0  0  0  0  0  0  0  0  0  0  0
  -25.3516   44.2396   22.5362 C   0  0  0  0  0  0  0  0  0  0  0  0
  -26.1083   43.3676   20.4610 C   0  0  0  0  0  0  0  0  0  0  0  0
  -30.1305   42.8444   19.3623 O   0  0  0  0  0  0  0  0  0  0  0  0
  -28.8271   37.1512   18.6054 C   0  0  1  0  0  0  0  0  0  0  0  0
  -28.1717   32.8812   18.7908 C   0  0  1  0  0  0  0  0  0  0  0  0
  -28.0896   36.1748   19.1000 O   0  0  0  0  0  0  0  0  0  0  0  0
  -28.3771   39.0325   19.8424 C   0  0  2  0  0  0  0  0  0  0  0  0
  -30.1038   40.6248   20.1709 C   0  0  0  0  0  0  0  0  0  0  0  0
  -30.0975   40.1152   18.7288 C   0  0  2  0  0  0  0  0  0  0  0  0
  -31.4912   40.1656   18.2654 O   0  0  0  0  0  0  0  0  0  0  0  0
  -28.4297   39.6741   21.4517 O   0  0  0  0  0  0  0  0  0  0  0  0
  -29.0081   38.7335   19.4614 C   0  0  0  0  0  0  0  0  0  0  0  0
  -29.4634   39.0345   17.4971 C   0  0  1  0  0  0  0  0  0  0  0  0
  -29.2252   39.7485   16.3833 O   0  0  0  0  0  0  0  0  0  0  0  0
  -29.1227   38.0810   16.8213 C   0  0  0  0  0  0  0  0  0  0  0  0
  -27.4949   37.7327   16.7346 C   0  0  1  0  0  0  0  0  0  0  0  0
  -26.4479   36.9039   17.2185 O   0  0  0  0  0  0  0  0  0  0  0  0
  -27.7074   36.2429   15.9728 C   0  0  0  0  0  0  0  0  0  0  0  0
  -28.7203   35.2373   16.4602 C   0  0  1  0  0  0  0  0  0  0  0  0
  -28.9954   36.3377   17.1304 O   0  0  0  0  0  0  0  0  0  0  0  0
  -28.7099   34.0270   15.5365 C   0  0  0  0  0  0  0  0  0  0  0  0
  -29.0783   34.4259   14.1260 C   0  0  1  0  0  0  0  0  0  0  0  0
  -29.2898   34.8888   12.7843 O   0  0  0  0  0  0  0  0  0  0  0  0
  -29.0710   33.2031   13.2538 C   0  0  0  0  0  0  0  0  0  0  0  0
  -27.6732   32.6290   13.2355 C   0  0  0  0  0  0  0  0  0  0  0  0
  -26.8740   33.4734   12.7655 O   0  0  0  0  0  0  0  0  0  0  0  0
  -27.0962   32.0717   14.5081 C   0  0  0  0  0  0  0  0  0  0  0  0
  -27.9810   30.9867   15.0956 C   0  0  1  0  0  0  0  0  0  0  0  0
  -28.6838   29.9541   14.4415 O   0  0  0  0  0  0  0  0  0  0  0  0
  -27.3781   30.4946   16.3990 C   0  0  0  0  0  0  0  0  0  0  0  0
  -26.0095   29.9209   16.1146 C   0  0  0  0  0  0  0  0  0  0  0  0
  -26.2891   29.1078   15.3541 O   0  0  0  0  0  0  0  0  0  0  0  0
  -24.9658   30.6137   15.5369 O   0  0  0  0  0  0  0  0  0  0  0  0
  -23.6850   30.2011   15.3444 C   0  0  1  0  0  0  0  0  0  0  0  0
  -23.7997   29.0729   14.3446 C   0  0  2  0  0  0  0  0  0  0  0  0
  -24.6531   27.9620   14.9095 C   0  0  0  0  0  0  0  0  0  0  0  0
  -24.2107   26.7196   15.1247 C   0  0  0  0  0  0  0  0  0  0  0  0
  -25.0854   25.6394   15.6862 C   0  0  0  0  0  0  0  0  0  0  0  0
  -24.6132   24.3861   15.8855 C   0  0  0  0  0  0  0  0  0  0  0  0
  -25.4886   23.2999   16.4539 C   0  0  0  0  0  0  0  0  0  0  0  0
  -25.0165   22.0463   16.6535 C   0  0  0  0  0  0  0  0  0  0  0  0
  -25.8907   20.9608   17.2200 C   0  0  0  0  0  0  0  0  0  0  0  0
  -25.4148   19.7079   17.4166 C   0  0  0  0  0  0  0  0  0  0  0  0
  -26.2541   18.6110   17.9161 C   0  0  0  0  0  0  0  0  0  0  0  0
  -25.7906   17.3738   18.1498 C   0  0  0  0  0  0  0  0  0  0  0  0
  -26.6464   16.3211   18.4378 C   0  0  0  0  0  0  0  0  0  0  0  0
  -26.0991   15.2518   18.5824 C   0  0  0  0  0  0  0  0  0  0  0  0
  -27.2563   17.2620   19.5832 C   0  0  0  0  0  0  0  0  0  0  0  0
  -27.2353   20.0397   19.4225 C   0  0  0  0  0  0  0  0  0  0  0  0
  -27.5048   23.5062   19.2008 C   0  0  1  0  0  0  0  0  0  0  0  0
  -27.8312   28.4561   18.9311 C   0  0  0  0  0  0  0  0  0  0  0  0
  -27.2451   19.5492   19.4375 O   0  0  0  0  0  0  0  0  0  0  0  0
  -26.9197   15.4361   19.7066 C   0  0  1  0  0  0  0  0  0  0  0  0
  -26.0320   12.0708   20.0807 C   0  0  1  0  0  0  0  0  0  0  0  0
  -25.3672    9.9277   21.5860 O   0  0  0  0  0  0  0  0  0  0  0  0
  -24.8208    9.2843   19.8734 C   0  0  1  0  0  0  0  0  0  0  0  0
  -23.0609    8.7090   20.2964 N   0  0  0  0  0  0  0  0  0  0  0  0
  -22.3907    7.5784   20.9493 C   0  0  0  0  0  0  0  0  0  0  0  0
  -20.9484    7.7453   21.4278 C   0  0  0  0  0  0  0  0  0  0  0  0
  -20.8794    7.5322   22.8817 N   0  0  0  0  0  0  0  0  0  0  0  0
  -19.4968    7.6865   23.3349 C   0  0  0  0  0  0  0  0  0  0  0  0
  -21.7293    8.5173   23.5551 C   0  0  0  0  0  0  0  0  0  0  0  0
  -22.9651    6.4900   21.1472 O   0  0  0  0  0  0  0  0  0  0  0  0
  -25.0108    7.2392   20.2765 C   0  0  1  0  0  0  0  0  0  0  0  0
  -26.6561    8.8613   19.9035 C   0  0  2  0  0  0  0  0  0  0  0  0
  -26.8869   12.0375   19.8363 O   0  0  0  0  0  0  0  0  0  0  0  0
  -26.8514    5.9740   20.2639 C   0  0  0  0  0  0  0  0  0  0  0  0
  -24.2375    6.1414   19.6795 O   0  0  0  0  0  0  0  0  0  0  0  0
  -26.9421   12.8355   19.4107 H   0  0  0  0  0  0  0  0  0  0  0  0
  -23.1014   28.3199   13.2256 C   0  0  0  0  0  0  0  0  0  0  0  0
  -23.5820   31.5695   16.0048 C   0  0  2  0  0  0  0  0  0  0  0  0
  -22.9284   31.3653   17.3414 C   0  0  0  0  0  0  0  0  0  0  0  0
  -23.3292   32.4866   17.9591 C   0  0  0  0  0  0  0  0  0  0  0  0
  -24.7183   32.7416   18.4482 C   0  0  3  0  0  0  0  0  0  0  0  0
  -25.2844   31.5054   19.0745 C   0  0  0  0  0  0  0  0  0  0  0  0
  -24.6472   31.3110   20.4391 C   0  0  0  0  0  0  0  0  0  0  0  0
  -25.3537   31.3044   21.4694 O   0  0  0  0  0  0  0  0  0  0  0  0
  -23.1650   31.0964   20.5751 C   0  0  0  0  0  0  0  0  0  0  0  0
  -22.2035   31.8258   20.1469 C   0  0  0  0  0  0  0  0  0  0  0  0
  -20.9786   32.0355   20.0395 C   0  0  0  0  0  0  0  0  0  0  0  0
  -20.3872   31.2133   20.9122 C   0  0  0  0  0  0  0  0  0  0  0  0
  -21.1992   30.4411   21.6766 C   0  0  0  0  0  0  0  0  0  0  0  0
  -22.5664   30.2263   21.4075 C   0  0  0  0  0  0  0  0  0  0  0  0
  -18.9544   31.1552   21.0310 N   0  0  0  0  0  0  0  0  0  0  0  0
  -18.3191   30.2489   21.9948 C   0  0  0  0  0  0  0  0  0  0  0  0
  -24.9907   33.8811   19.2232 O   0  0  0  0  0  0  0  0  0  0  0  0
  -24.9888   32.1655   16.2074 C   0  0  0  0  0  0  0  0  0  0  0  0
  -22.6823   29.8573   15.4910 H   0  0  0  0  0  0  0  0  0  0  0  0
  -27.9602   35.5048   18.5157 H   0  0  0  0  0  0  0  0  0  0  0  0
  -27.5525   43.6508   19.1390 H   0  0  0  0  0  0  0  0  0  0  0  0
  -27.8763   46.0120   19.9422 H   0  0  0  0  0  0  0  0  0  0  0  0
  -29.3259   45.4149   20.7281 H   0  0  0  0  0  0  0  0  0  0  0  0
  -27.5131   45.7215   22.3544 H   0  0  0  0  0  0  0  0  0  0  0  0
  -27.9504   44.0295   22.2156 H   0  0  0  0  0  0  0  0  0  0  0  0
  -25.7871   43.4020   23.0504 H   0  0  0  0  0  0  0  0  0  0  0  0
  -24.3381   44.0010   22.2665 H   0  0  0  0  0  0  0  0  0  0  0  0
  -25.3502   45.0940   23.1892 H   0  0  0  0  0  0  0  0  0  0  0  0
  -26.5627   42.5304   20.9500 H   0  0  0  0  0  0  0  0  0  0  0  0
  -26.5563   43.5783   19.6071 H   0  0  0  0  0  0  0  0  0  0  0  0
  -25.1124   43.1297   20.1672 H   0  0  0  0  0  0  0  0  0  0  0  0
  -29.0596   39.8045   17.9987 H   0  0  0  0  0  0  0  0  0  0  0  0
  -30.6357   40.0870   20.8356 H   0  0  0  0  0  0  0  0  0  0  0  0
  -30.2128   41.6713   20.4824 H   0  0  0  0  0  0  0  0  0  0  0  0
  -31.2388   41.6894   18.4067 H   0  0  0  0  0  0  0  0  0  0  0  0
  -31.4330   40.0570   17.2829 H   0  0  0  0  0  0  0  0  0  0  0  0
  -28.7827   40.1502   22.2516 H   0  0  0  0  0  0  0  0  0  0  0  0
  -28.7278   37.7959   19.6228 H   0  0  0  0  0  0  0  0  0  0  0  0
  -28.6894   38.3363   20.2196 H   0  0  0  0  0  0  0  0  0  0  0  0
  -29.4555   39.4277   18.6292 H   0  0  0  0  0  0  0  0  0  0  0  0
  -28.6938   39.7993   15.6173 H   0  0  0  0  0  0  0  0  0  0  0  0
  -29.6422   37.3808   16.2668 H   0  0  0  0  0  0  0  0  0  0  0  0
  -30.0272   38.6352   16.7236 H   0  0  0  0  0  0  0  0  0  0  0  0
  -27.6571   38.4480   17.3373 H   0  0  0  0  0  0  0  0  0  0  0  0
  -25.6814   37.2453   16.7071 H   0  0  0  0  0  0  0  0  0  0  0  0
  -27.2197   35.6907   15.1926 H   0  0  0  0  0  0  0  0  0  0  0  0
  -27.2376   37.0883   15.5015 H   0  0  0  0  0  0  0  0  0  0  0  0
  -29.3366   34.5325   17.0231 H   0  0  0  0  0  0  0  0  0  0  0  0
  -29.9317   36.3355   16.9458 H   0  0  0  0  0  0  0  0  0  0  0  0
  -28.5347   32.9757   15.5379 H   0  0  0  0  0  0  0  0  0  0  0  0
  -28.5105   33.6930   16.5474 H   0  0  0  0  0  0  0  0  0  0  0  0
  -29.1612   35.2981   14.7545 H   0  0  0  0  0  0  0  0  0  0  0  0
  -28.6951   35.5784   12.8743 H   0  0  0  0  0  0  0  0  0  0  0  0
  -29.5732   32.5082   12.6034 H   0  0  0  0  0  0  0  0  0  0  0  0
  -30.0083   33.7355   13.1743 H   0  0  0  0  0  0  0  0  0  0  0  0
  -26.1436   31.6364   14.5515 H   0  0  0  0  0  0  0  0  0  0  0  0
  -26.9944   33.0308   15.0264 H   0  0  0  0  0  0  0  0  0  0  0  0
  -28.8448   31.6230   15.0788 H   0  0  0  0  0  0  0  0  0  0  0  0
  -28.7584   29.0737   13.9954 H   0  0  0  0  0  0  0  0  0  0  0  0
  -27.6815   29.7147   17.0718 H   0  0  0  0  0  0  0  0  0  0  0  0
  -27.6599   31.4026   16.8727 H   0  0  0  0  0  0  0  0  0  0  0  0
  -23.6899   29.9614   13.7595 H   0  0  0  0  0  0  0  0  0  0  0  0
  -25.6111   28.0144   15.1350 H   0  0  0  0  0  0  0  0  0  0  0  0
  -23.1826   26.4987   14.8696 H   0  0  0  0  0  0  0  0  0  0  0  0
  -26.1123   25.8631   15.9407 H   0  0  0  0  0  0  0  0  0  0  0  0
  -23.5861   24.1630   15.6303 H   0  0  0  0  0  0  0  0  0  0  0  0
  -26.5154   23.5228   16.7081 H   0  0  0  0  0  0  0  0  0  0  0  0
  -23.9895   21.8228   16.3984 H   0  0  0  0  0  0  0  0  0  0  0  0
  -26.9186   21.1820   17.4754 H   0  0  0  0  0  0  0  0  0  0  0  0
  -24.3927   19.4831   17.1665 H   0  0  0  0  0  0  0  0  0  0  0  0
  -27.3326   18.8318   18.1104 H   0  0  0  0  0  0  0  0  0  0  0  0
  -24.7923   17.1442   17.9338 H   0  0  0  0  0  0  0  0  0  0  0  0
  -27.9477   16.5032   18.7217 H   0  0  0  0  0  0  0  0  0  0  0  0
  -25.1838   14.8056   18.7004 H   0  0  0  0  0  0  0  0  0  0  0  0
  -27.9981   14.8985   19.6905 H   0  0  0  0  0  0  0  0  0  0  0  0
  -26.8293   17.5865   19.6402 H   0  0  0  0  0  0  0  0  0  0  0  0
  -27.6848   21.3567   19.3850 H   0  0  0  0  0  0  0  0  0  0  0  0
  -27.9012   30.6216   18.3860 H   0  0  0  0  0  0  0  0  0  0  0  0
  -27.9227   30.6550   18.5634 H   0  0  0  0  0  0  0  0  0  0  0  0
  -24.9478   10.6578   20.0129 H   0  0  0  0  0  0  0  0  0  0  0  0
  -26.1749    9.3254   21.5899 H   0  0  0  0  0  0  0  0  0  0  0  0
  -24.4594    8.5952   18.7422 H   0  0  0  0  0  0  0  0  0  0  0  0
  -22.5774    9.5832   20.1515 H   0  0  0  0  0  0  0  0  0  0  0  0
  -20.3236    7.0207   20.9314 H   0  0  0  0  0  0  0  0  0  0  0  0
  -20.5996    8.7322   21.1916 H   0  0  0  0  0  0  0  0  0  0  0  0
  -19.1455    8.6760   23.1036 H   0  0  0  0  0  0  0  0  0  0  0  0
  -19.4442    7.5323   24.3980 H   0  0  0  0  0  0  0  0  0  0  0  0
  -18.8694    6.9646   22.8431 H   0  0  0  0  0  0  0  0  0  0  0  0
  -21.3881    9.5104   23.3240 H   0  0  0  0  0  0  0  0  0  0  0  0
  -22.7469    8.4075   23.2253 H   0  0  0  0  0  0  0  0  0  0  0  0
  -21.6862    8.3663   24.6184 H   0  0  0  0  0  0  0  0  0  0  0  0
  -24.9432    7.1260   21.3464 H   0  0  0  0  0  0  0  0  0  0  0  0
  -26.3737    7.2324   18.8032 H   0  0  0  0  0  0  0  0  0  0  0  0
  -27.0452    5.6800   21.3443 H   0  0  0  0  0  0  0  0  0  0  0  0
  -27.7437    6.0011   19.7682 H   0  0  0  0  0  0  0  0  0  0  0  0
  -26.5853    4.7061   19.9583 H   0  0  0  0  0  0  0  0  0  0  0  0
  -24.2657    6.1987   18.7109 H   0  0  0  0  0  0  0  0  0  0  0  0
  -22.0637   28.5503   13.0987 H   0  0  0  0  0  0  0  0  0  0  0  0
  -23.2007   27.2803   13.4613 H   0  0  0  0  0  0  0  0  0  0  0  0
  -23.6268   28.5096   12.3041 H   0  0  0  0  0  0  0  0  0  0  0  0
  -23.0238   32.2654   15.4238 H   0  0  0  0  0  0  0  0  0  0  0  0
  -23.3263   30.5015   17.8316 H   0  0  0  0  0  0  0  0  0  0  0  0
  -21.8686   31.2745   17.2463 H   0  0  0  0  0  0  0  0  0  0  0  0
  -22.7737   32.1848   19.1079 H   0  0  0  0  0  0  0  0  0  0  0  0
  -22.8202   33.4789   17.7431 H   0  0  0  0  0  0  0  0  0  0  0  0
  -25.2171   32.8636   17.6811 H   0  0  0  0  0  0  0  0  0  0  0  0
  -26.3471   31.6117   19.1894 H   0  0  0  0  0  0  0  0  0  0  0  0
  -25.0871   30.6456   18.4571 H   0  0  0  0  0  0  0  0  0  0  0  0
  -22.9260   33.1783   19.1125 H   0  0  0  0  0  0  0  0  0  0  0  0
  -20.4552   32.7636   19.4850 H   0  0  0  0  0  0  0  0  0  0  0  0
  -20.7660   29.9847   22.5286 H   0  0  0  0  0  0  0  0  0  0  0  0
  -23.1141   29.4154   21.8518 H   0  0  0  0  0  0  0  0  0  0  0  0
  -18.3660   31.7463   20.4386 H   0  0  0  0  0  0  0  0  0  0  0  0
  -17.6818   29.5514   21.4806 H   0  0  0  0  0  0  0  0  0  0  0  0
  -17.7304   30.8133   22.6962 H   0  0  0  0  0  0  0  0  0  0  0  0
  -19.0715   29.7027   22.5308 H   0  0  0  0  0  0  0  0  0  0  0  0
  -24.5724   33.7593   20.1123 H   0  0  0  0  0  0  0  0  0  0  0  0
  -25.3698   32.3072   15.2605 H   0  0  0  0  0  0  0  0  0  0  0  0
  -25.5121   31.3458   16.7365 H   0  0  0  0  0  0  0  0  0  0  0  0
  -25.1307   33.0624   16.5572 H   0  0  0  0  0  0  0  0  0  0  0  0
  1  2  1  0  0  0  0
  1  8  2  0  0  0  0
  2  3  1  0  0  0  0
  2 95  1  0  0  0  0
  3  4  1  0  0  0  0
  3 96  1  0  0  0  0
  3 97  1  0  0  0  0
  4  5  1  0  0  0  0
  4 98  1  0  0  0  0
  4 99  1  0  0  0  0
  5  6  1  0  0  0  0
  5  7  1  0  0  0  0
  6100  1  0  0  0  0
  6101  1  0  0  0  0
  6102  1  0  0  0  0
  7103  1  0  0  0  0
  7104  1  0  0  0  0
  7105  1  0  0  0  0
  9 10  1  0  0  0  0
  9 14  1  0  0  0  0
  9106  1  6  0  0  0
  9  1  1  0  0  0  0
 10 11  1  0  0  0  0
 10 56  1  0  0  0  0
 10 94  1  6  0  0  0
 11 12  1  0  0  0  0
 12 17  1  0  0  0  0
 12 16  1  1  0  0  0
 13 12  1  0  0  0  0
 13107  1  0  0  0  0
 13108  1  0  0  0  0
 14 13  1  0  0  0  0
 14 15  1  0  0  0  0
 14109  1  6  0  0  0
 15110  1  0  0  0  0
 16111  1  0  0  0  0
 17 18  1  0  0  0  0
 17112  1  0  0  0  0
 17113  1  0  0  0  0
 18 20  1  0  0  0  0
 18 19  1  0  0  0  0
 18114  1  6  0  0  0
 19115  1  0  0  0  0
 20 21  1  0  0  0  0
 20116  1  0  0  0  0
 20117  1  0  0  0  0
 21 23  1  0  0  0  0
 21 22  1  0  0  0  0
 21118  1  6  0  0  0
 22119  1  0  0  0  0
 23 24  1  0  0  0  0
 23120  1  0  0  0  0
 23121  1  0  0  0  0
 24 26  1  0  0  0  0
 24122  1  1  0  0  0
 24 25  1  0  0  0  0
 25123  1  0  0  0  0
 26 27  1  0  0  0  0
 26124  1  0  0  0  0
 26125  1  0  0  0  0
 27 29  1  0  0  0  0
 27 28  1  0  0  0  0
 27126  1  1  0  0  0
 28127  1  0  0  0  0
 29 30  1  0  0  0  0
 29128  1  0  0  0  0
 29129  1  0  0  0  0
 30 32  1  0  0  0  0
 30 31  2  0  0  0  0
 32 33  1  0  0  0  0
 32130  1  0  0  0  0
 32131  1  0  0  0  0
 33 35  1  0  0  0  0
 33 34  1  0  0  0  0
 33132  1  1  0  0  0
 34133  1  0  0  0  0
 35 36  1  0  0  0  0
 35134  1  0  0  0  0
 35135  1  0  0  0  0
 36 38  1  0  0  0  0
 36 37  2  0  0  0  0
 38 39  1  0  0  0  0
 39 93  1  1  0  0  0
 39 76  1  0  0  0  0
 40 39  1  0  0  0  0
 40 75  1  0  0  0  0
 40136  1  6  0  0  0
 41 40  1  0  0  0  0
 41137  1  0  0  0  0
 42 41  2  0  0  0  0
 42138  1  0  0  0  0
 43 42  1  0  0  0  0
 43139  1  0  0  0  0
 44 43  2  0  0  0  0
 44140  1  0  0  0  0
 45 44  1  0  0  0  0
 45141  1  0  0  0  0
 46 45  2  0  0  0  0
 46142  1  0  0  0  0
 47 46  1  0  0  0  0
 47143  1  0  0  0  0
 48 47  2  0  0  0  0
 48144  1  0  0  0  0
 49 48  1  0  0  0  0
 49145  1  0  0  0  0
 50 49  2  0  0  0  0
 50146  1  0  0  0  0
 51 50  1  0  0  0  0
 51147  1  0  0  0  0
 52 51  2  0  0  0  0
 52148  1  0  0  0  0
 53 52  1  0  0  0  0
 53149  1  0  0  0  0
 54 53  2  0  0  0  0
 54150  1  0  0  0  0
 55 54  1  0  0  0  0
 55 57  1  6  0  0  0
 55151  1  0  0  0  0
 56 55  1  0  0  0  0
 56152  1  0  0  0  0
 56153  1  0  0  0  0
 58 59  1  0  0  0  0
 58 71  1  0  0  0  0
 58 74  1  6  0  0  0
 58 57  1  0  0  0  0
 59 61  1  0  0  0  0
 59154  1  1  0  0  0
 59 60  1  0  0  0  0
 60155  1  0  0  0  0
 61 69  1  0  0  0  0
 61156  1  6  0  0  0
 61 62  1  0  0  0  0
 62 63  1  0  0  0  0
 62157  1  0  0  0  0
 63 64  1  0  0  0  0
 63 68  2  0  0  0  0
 64 65  1  0  0  0  0
 64158  1  0  0  0  0
 64159  1  0  0  0  0
 65 66  1  0  0  0  0
 65 67  1  0  0  0  0
 66160  1  0  0  0  0
 66161  1  0  0  0  0
 66162  1  0  0  0  0
 67163  1  0  0  0  0
 67164  1  0  0  0  0
 67165  1  0  0  0  0
 69 73  1  0  0  0  0
 69166  1  1  0  0  0
 70 69  1  0  0  0  0
 70167  1  6  0  0  0
 70 72  1  0  0  0  0
 71 70  1  0  0  0  0
 72168  1  0  0  0  0
 72169  1  0  0  0  0
 72170  1  0  0  0  0
 73171  1  0  0  0  0
 75172  1  0  0  0  0
 75173  1  0  0  0  0
 75174  1  0  0  0  0
 76175  1  6  0  0  0
 76 92  1  0  0  0  0
 76 77  1  0  0  0  0
 77 78  1  0  0  0  0
 77176  1  0  0  0  0
 77177  1  0  0  0  0
 78 79  1  0  0  0  0
 78178  1  0  0  0  0
 78179  1  0  0  0  0
 79 80  1  0  0  0  0
 79 91  1  0  0  0  0
 79180  1  0  0  0  0
 80 81  1  0  0  0  0
 80181  1  0  0  0  0
 80182  1  0  0  0  0
 81 82  2  0  0  0  0
 81 83  1  0  0  0  0
 83 84  2  0  0  0  0
 83 88  1  0  0  0  0
 84 85  1  0  0  0  0
 84183  1  0  0  0  0
 85 86  2  0  0  0  0
 85184  1  0  0  0  0
 86 89  1  0  0  0  0
 87 86  1  0  0  0  0
 87185  1  0  0  0  0
 88 87  2  0  0  0  0
 88186  1  0  0  0  0
 89 90  1  0  0  0  0
 89187  1  0  0  0  0
 90188  1  0  0  0  0
 90189  1  0  0  0  0
 90190  1  0  0  0  0
 91191  1  0  0  0  0
 92192  1  0  0  0  0
 92193  1  0  0  0  0
 92194  1  0  0  0  0
M  END
>  <DRUGBANK_ID>
DB12333

>  <COMMON_NAME>
Amcipatricin

>  <CAS_NUMBER>
143483-67-4

>  <UNII>
QO0X1DPX2D

>  <SYNONYMS>
Amcipatricin

$$$$
