
 OpenBabel10282417183D

125126  0  0  0  0  0  0  0  0999 V2000
    1.2866   -0.9234   -0.8127 C   0  0  0  0  0  0  0  0  0  0  0  0
    0.3158   -2.2992    0.1297 C   0  0  3  0  0  0  0  0  0  0  0  0
    0.8113   -2.4861    1.8329 C   0  0  0  0  0  0  0  0  0  0  0  0
   -0.2341   -1.9257    2.6842 O   0  0  0  0  0  0  0  0  0  0  0  0
    0.0065   -0.5900    2.6922 C   0  0  0  0  0  0  0  0  0  0  0  0
    2.2837   -0.1126    2.6186 C   0  0  3  0  0  0  0  0  0  0  0  0
    2.8828    1.7436    3.7985 C   0  0  3  0  0  0  0  0  0  0  0  0
    2.5664    3.0516    3.6558 C   0  0  3  0  0  0  0  0  0  0  0  0
    3.6770    4.3955    2.3901 C   0  0  3  0  0  0  0  0  0  0  0  0
    3.6759    3.1912    0.6373 C   0  0  3  0  0  0  0  0  0  0  0  0
    3.7590    1.3373    1.5025 O   0  0  0  0  0  0  0  0  0  0  0  0
    1.6794    3.4735    0.4115 O   0  0  0  0  0  0  0  0  0  0  0  0
    0.3786    2.5525    2.0754 C   0  0  3  0  0  0  0  0  0  0  0  0
    0.8972    0.3801    1.7729 C   0  0  3  0  0  0  0  0  0  0  0  0
    1.2107   -0.7851    3.6010 O   0  0  0  0  0  0  0  0  0  0  0  0
    1.0470    0.1850    5.3892 C   0  0  3  0  0  0  0  0  0  0  0  0
    0.6403    2.4864    5.4839 C   0  0  3  0  0  0  0  0  0  0  0  0
    0.9930    4.0001    3.8533 C   0  0  3  0  0  0  0  0  0  0  0  0
    2.7708    4.6921    4.1596 O   0  0  0  0  0  0  0  0  0  0  0  0
    4.2579    3.3855    4.1075 C   0  0  0  0  0  0  0  0  0  0  0  0
    3.8773    1.7728    5.1794 C   0  0  3  0  0  0  0  0  0  0  0  0
    1.8447    1.5446    6.0593 C   0  0  0  0  0  0  0  0  0  0  0  0
    4.9368    0.0864    4.8250 O   0  0  0  0  0  0  0  0  0  0  0  0
    1.8294    3.3757    6.5550 O   0  0  0  0  0  0  0  0  0  0  0  0
    3.6717    2.8719    6.6421 C   0  0  0  0  0  0  0  0  0  0  0  0
    4.1982    0.6571    6.4664 C   0  0  3  0  0  0  0  0  0  0  0  0
    3.4094   -0.9168    5.2719 C   0  0  0  0  0  0  0  0  0  0  0  0
    5.6974    1.6348    5.9221 O   0  0  0  0  0  0  0  0  0  0  0  0
    2.8922    0.2712    5.2313 O   0  0  0  0  0  0  0  0  0  0  0  0
    3.6669    0.4039    3.4110 C   0  0  0  0  0  0  0  0  0  0  0  0
    2.3660    1.3541    2.1983 C   0  0  3  0  0  0  0  0  0  0  0  0
    0.6437    1.0028    3.3012 C   0  0  0  0  0  0  0  0  0  0  0  0
    2.4080    1.0409    0.2992 O   0  0  0  0  0  0  0  0  0  0  0  0
   -0.0072   -0.3920    0.7092 C   0  0  0  0  0  0  0  0  0  0  0  0
   -0.5840    0.0832   -0.5011 O   0  0  0  0  0  0  0  0  0  0  0  0
   -0.9904    1.3689   -0.6528 C   0  0  0  0  0  0  0  0  0  0  0  0
   -2.1004    1.6721    0.2453 C   0  0  3  0  0  0  0  0  0  0  0  0
   -2.2921    1.0840    1.6706 C   0  0  0  0  0  0  0  0  0  0  0  0
   -2.3971    3.0113    0.1828 O   0  0  0  0  0  0  0  0  0  0  0  0
    2.6191    5.8331    2.2440 O   0  0  0  0  0  0  0  0  0  0  0  0
    0.8456    5.7839    2.1178 C   0  0  0  0  0  0  0  0  0  0  0  0
   -0.0823    4.4998    0.8018 C   0  0  3  0  0  0  0  0  0  0  0  0
    0.7224    2.2551    0.5600 C   0  0  0  0  0  0  0  0  0  0  0  0
   -1.2659    4.5159    1.6040 O   0  0  0  0  0  0  0  0  0  0  0  0
    1.3873    2.4719    3.8659 O   0  0  0  0  0  0  0  0  0  0  0  0
   -0.2660    3.0897    3.4895 C   0  0  0  0  0  0  0  0  0  0  0  0
    0.9006    3.9311    1.8327 C   0  0  3  0  0  0  0  0  0  0  0  0
    2.2963    3.6133    1.8595 C   0  0  0  0  0  0  0  0  0  0  0  0
   -0.0141    3.3553   -0.1363 O   0  0  0  0  0  0  0  0  0  0  0  0
    4.8917    1.6368    3.6744 O   0  0  0  0  0  0  0  0  0  0  0  0
    5.7107    1.7155    2.3372 C   0  0  0  0  0  0  0  0  0  0  0  0
    5.5357    0.7116    0.8722 C   0  0  3  0  0  0  0  0  0  0  0  0
    4.2154    0.3006   -0.0192 C   0  0  0  0  0  0  0  0  0  0  0  0
    5.6895    1.7721   -0.0713 O   0  0  0  0  0  0  0  0  0  0  0  0
   -1.2723   -2.0705    0.0727 O   0  0  0  0  0  0  0  0  0  0  0  0
    1.1669    0.1284   -0.4043 H   0  0  0  0  0  0  0  0  0  0  0  0
    0.9192   -0.4190   -1.6783 H   0  0  0  0  0  0  0  0  0  0  0  0
    2.2223   -0.8677   -0.3692 H   0  0  0  0  0  0  0  0  0  0  0  0
    0.9391   -2.8491   -0.5167 H   0  0  0  0  0  0  0  0  0  0  0  0
    0.5994   -3.3779    2.3087 H   0  0  0  0  0  0  0  0  0  0  0  0
    1.9050   -2.1490    1.9217 H   0  0  0  0  0  0  0  0  0  0  0  0
   -0.5672    0.5925    1.6974 H   0  0  0  0  0  0  0  0  0  0  0  0
   -0.8516   -0.0147    3.8176 H   0  0  0  0  0  0  0  0  0  0  0  0
    3.0146   -1.1238    2.5743 H   0  0  0  0  0  0  0  0  0  0  0  0
    2.3297    1.4259    4.4289 H   0  0  0  0  0  0  0  0  0  0  0  0
    2.6607    3.2024    4.7275 H   0  0  0  0  0  0  0  0  0  0  0  0
    4.7030    4.2987    2.1846 H   0  0  0  0  0  0  0  0  0  0  0  0
    3.4096    3.0835   -0.5477 H   0  0  0  0  0  0  0  0  0  0  0  0
   -0.7666    2.4324    1.7495 H   0  0  0  0  0  0  0  0  0  0  0  0
    1.7108    0.1090    1.2057 H   0  0  0  0  0  0  0  0  0  0  0  0
    1.2109   -0.6922    6.1822 H   0  0  0  0  0  0  0  0  0  0  0  0
   -0.5284    2.4706    5.5777 H   0  0  0  0  0  0  0  0  0  0  0  0
    0.2007    4.5214    4.4334 H   0  0  0  0  0  0  0  0  0  0  0  0
    4.1100    2.7734    3.0058 H   0  0  0  0  0  0  0  0  0  0  0  0
    5.2668    3.3689    3.7845 H   0  0  0  0  0  0  0  0  0  0  0  0
    2.8973    1.8490    5.9935 H   0  0  0  0  0  0  0  0  0  0  0  0
    0.3680    1.2461    5.3382 H   0  0  0  0  0  0  0  0  0  0  0  0
    1.4991    0.9891    6.9894 H   0  0  0  0  0  0  0  0  0  0  0  0
    1.1705    1.3920    4.8958 H   0  0  0  0  0  0  0  0  0  0  0  0
    4.8294   -0.9842    4.1484 H   0  0  0  0  0  0  0  0  0  0  0  0
    3.8924    3.8098    5.6641 H   0  0  0  0  0  0  0  0  0  0  0  0
    4.0460    3.7106    7.1016 H   0  0  0  0  0  0  0  0  0  0  0  0
    3.6491    0.8530    7.3365 H   0  0  0  0  0  0  0  0  0  0  0  0
    3.5010   -0.9527    4.1745 H   0  0  0  0  0  0  0  0  0  0  0  0
    2.6342   -1.7762    4.8128 H   0  0  0  0  0  0  0  0  0  0  0  0
    2.4298   -0.3498    4.3413 H   0  0  0  0  0  0  0  0  0  0  0  0
    5.6527    1.8584    4.8886 H   0  0  0  0  0  0  0  0  0  0  0  0
    2.8389    1.4828    2.5101 H   0  0  0  0  0  0  0  0  0  0  0  0
    4.6298    0.2236    2.9199 H   0  0  0  0  0  0  0  0  0  0  0  0
    3.4821    0.0910    1.9204 H   0  0  0  0  0  0  0  0  0  0  0  0
   -0.2221    1.4305    3.0869 H   0  0  0  0  0  0  0  0  0  0  0  0
   -0.4930    0.9595    2.9025 H   0  0  0  0  0  0  0  0  0  0  0  0
    0.5096    0.4395    4.0132 H   0  0  0  0  0  0  0  0  0  0  0  0
    2.6112    1.7435   -0.3436 H   0  0  0  0  0  0  0  0  0  0  0  0
    0.9378   -0.9574    0.9461 H   0  0  0  0  0  0  0  0  0  0  0  0
   -0.8054   -0.7456    1.2738 H   0  0  0  0  0  0  0  0  0  0  0  0
   -0.6462    1.6093    0.2579 H   0  0  0  0  0  0  0  0  0  0  0  0
   -0.4818    1.9556   -1.6707 H   0  0  0  0  0  0  0  0  0  0  0  0
   -2.4456    1.0032   -0.4713 H   0  0  0  0  0  0  0  0  0  0  0  0
   -1.9826    1.5238    2.6058 H   0  0  0  0  0  0  0  0  0  0  0  0
   -3.2521    1.0839    1.9899 H   0  0  0  0  0  0  0  0  0  0  0  0
   -1.9926    0.0835    1.8832 H   0  0  0  0  0  0  0  0  0  0  0  0
   -1.7308    3.5008    0.7030 H   0  0  0  0  0  0  0  0  0  0  0  0
    0.4447    5.4112    3.0484 H   0  0  0  0  0  0  0  0  0  0  0  0
    0.3480    6.6184    2.3525 H   0  0  0  0  0  0  0  0  0  0  0  0
    0.5116    5.0880    0.0174 H   0  0  0  0  0  0  0  0  0  0  0  0
    1.2188    1.7068    1.2068 H   0  0  0  0  0  0  0  0  0  0  0  0
    1.3977    2.0938   -0.1902 H   0  0  0  0  0  0  0  0  0  0  0  0
    1.4610    2.2263    1.2699 H   0  0  0  0  0  0  0  0  0  0  0  0
   -1.3627    3.7616    2.2048 H   0  0  0  0  0  0  0  0  0  0  0  0
    0.9093    2.4832    3.3348 H   0  0  0  0  0  0  0  0  0  0  0  0
   -1.1540    2.5127    3.5618 H   0  0  0  0  0  0  0  0  0  0  0  0
    1.6224    4.5848    1.5476 H   0  0  0  0  0  0  0  0  0  0  0  0
    2.6092    2.5768    1.2363 H   0  0  0  0  0  0  0  0  0  0  0  0
    2.8905    4.6394    0.8970 H   0  0  0  0  0  0  0  0  0  0  0  0
    3.0454    2.9534    2.0888 H   0  0  0  0  0  0  0  0  0  0  0  0
    0.4204    2.3813   -0.8411 H   0  0  0  0  0  0  0  0  0  0  0  0
    5.5650    2.7595    2.1305 H   0  0  0  0  0  0  0  0  0  0  0  0
    6.6817    1.6112    2.7708 H   0  0  0  0  0  0  0  0  0  0  0  0
    5.1325   -0.2737    1.2772 H   0  0  0  0  0  0  0  0  0  0  0  0
    3.9709    1.4260   -0.1454 H   0  0  0  0  0  0  0  0  0  0  0  0
    3.5923    0.2186   -0.8958 H   0  0  0  0  0  0  0  0  0  0  0  0
    3.3742   -0.3543    0.5791 H   0  0  0  0  0  0  0  0  0  0  0  0
    5.1960    2.5517    0.2243 H   0  0  0  0  0  0  0  0  0  0  0  0
   -1.7893   -1.3434    0.6022 H   0  0  0  0  0  0  0  0  0  0  0  0
  1  2  1  0  0  0  0
  1 56  1  0  0  0  0
  1 57  1  0  0  0  0
  1 58  1  0  0  0  0
  2  3  1  0  0  0  0
  2 55  1  0  0  0  0
  2 59  1  0  0  0  0
  3  4  1  0  0  0  0
  3 60  1  0  0  0  0
  3 61  1  0  0  0  0
  4  5  1  0  0  0  0
  5  6  1  0  0  0  0
  5 62  1  0  0  0  0
  5 63  1  0  0  0  0
  6  7  1  0  0  0  0
  6 11  1  0  0  0  0
  6 64  1  0  0  0  0
  7  8  1  0  0  0  0
  7 50  1  0  0  0  0
  7 65  1  0  0  0  0
  8  9  1  0  0  0  0
  8 45  1  0  0  0  0
  8 66  1  0  0  0  0
  9 10  1  0  0  0  0
  9 40  1  0  0  0  0
  9 67  1  0  0  0  0
 10 11  1  0  0  0  0
 10 12  1  0  0  0  0
 10 68  1  0  0  0  0
 12 13  1  0  0  0  0
 13 14  1  0  0  0  0
 13 18  1  0  0  0  0
 13 69  1  0  0  0  0
 14 15  1  0  0  0  0
 14 34  1  0  0  0  0
 14 70  1  0  0  0  0
 15 16  1  0  0  0  0
 16 17  1  0  0  0  0
 16 29  1  0  0  0  0
 16 71  1  0  0  0  0
 17 18  1  0  0  0  0
 17 24  1  0  0  0  0
 17 72  1  0  0  0  0
 18 19  1  0  0  0  0
 18 73  1  0  0  0  0
 19 20  1  0  0  0  0
 20 21  1  0  0  0  0
 20 74  1  0  0  0  0
 20 75  1  0  0  0  0
 21 22  1  0  0  0  0
 21 23  1  0  0  0  0
 21 76  1  0  0  0  0
 22 77  1  0  0  0  0
 22 78  1  0  0  0  0
 22 79  1  0  0  0  0
 23 80  1  0  0  0  0
 24 25  1  0  0  0  0
 25 26  1  0  0  0  0
 25 81  1  0  0  0  0
 25 82  1  0  0  0  0
 26 27  1  0  0  0  0
 26 28  1  0  0  0  0
 26 83  1  0  0  0  0
 27 84  1  0  0  0  0
 27 85  1  0  0  0  0
 27 86  1  0  0  0  0
 28 87  1  0  0  0  0
 29 30  1  0  0  0  0
 30 31  1  0  0  0  0
 30 88  1  0  0  0  0
 30 89  1  0  0  0  0
 31 32  1  0  0  0  0
 31 33  1  0  0  0  0
 31 90  1  0  0  0  0
 32 91  1  0  0  0  0
 32 92  1  0  0  0  0
 32 93  1  0  0  0  0
 33 94  1  0  0  0  0
 34 35  1  0  0  0  0
 34 95  1  0  0  0  0
 34 96  1  0  0  0  0
 35 36  1  0  0  0  0
 36 37  1  0  0  0  0
 36 97  1  0  0  0  0
 36 98  1  0  0  0  0
 37 38  1  0  0  0  0
 37 39  1  0  0  0  0
 37 99  1  0  0  0  0
 38100  1  0  0  0  0
 38101  1  0  0  0  0
 38102  1  0  0  0  0
 39103  1  0  0  0  0
 40 41  1  0  0  0  0
 41 42  1  0  0  0  0
 41104  1  0  0  0  0
 41105  1  0  0  0  0
 42 43  1  0  0  0  0
 42 44  1  0  0  0  0
 42106  1  0  0  0  0
 43107  1  0  0  0  0
 43108  1  0  0  0  0
 43109  1  0  0  0  0
 44110  1  0  0  0  0
 45 46  1  0  0  0  0
 46 47  1  0  0  0  0
 46111  1  0  0  0  0
 46112  1  0  0  0  0
 47 48  1  0  0  0  0
 47 49  1  0  0  0  0
 47113  1  0  0  0  0
 48114  1  0  0  0  0
 48115  1  0  0  0  0
 48116  1  0  0  0  0
 49117  1  0  0  0  0
 50 51  1  0  0  0  0
 51 52  1  0  0  0  0
 51118  1  0  0  0  0
 51119  1  0  0  0  0
 52 53  1  0  0  0  0
 52 54  1  0  0  0  0
 52120  1  0  0  0  0
 53121  1  0  0  0  0
 53122  1  0  0  0  0
 53123  1  0  0  0  0
 54124  1  0  0  0  0
 55125  1  0  0  0  0
M  END
>  <DRUGBANK_ID>
DB11602

>  <COMMON_NAME>
Hydroxyethyl cellulose

>  <CAS_NUMBER>
9004-62-0

>  <UNII>
T4V6TWG28D

>  <SYNONYMS>
2-Hydroxyethyl cellulose ether; Cellulose hydroxyethyl ether; Cellulose hydroxyethylate; hydroxyethylcellulose

$$$$
