ELI
 OpenBabel10282417163D

 39 40  0  0  0  0  0  0  0  0999 V2000
    3.1467    0.1350    0.0150 C   0  0  0  0  0  0  0  0  0  0  0  0
    2.2017   -0.8940    0.0012 C   0  0  0  0  0  0  0  0  0  0  0  0
    0.8496   -0.5734    0.0002 C   0  0  0  0  0  0  0  0  0  0  0  0
    0.4801    0.7682   -0.0144 C   0  0  0  0  0  0  0  0  0  0  0  0
    1.4114    1.7975   -0.0005 C   0  0  0  0  0  0  0  0  0  0  0  0
    2.7525    1.4755    0.0190 C   0  0  0  0  0  0  0  0  0  0  0  0
    0.1717   -2.8224    0.0099 O   0  0  0  0  0  0  0  0  0  0  0  0
   -0.1653   -1.6441    0.0259 C   0  0  0  0  0  0  0  0  0  0  0  0
   -0.9053    1.1600   -0.0710 C   0  0  0  0  0  0  0  0  0  0  0  0
   -1.8843    0.0811   -0.1465 C   0  0  0  0  0  0  0  0  0  0  0  0
   -1.6003   -1.2350    0.0318 C   0  0  0  0  0  0  0  0  0  0  0  0
   -1.2494    2.3359   -0.0372 O   0  0  0  0  0  0  0  0  0  0  0  0
   -3.2093    0.6909   -0.3796 C   0  0  0  0  0  0  0  0  0  0  0  0
   -2.6046   -2.3829    0.2144 C   0  0  0  0  0  0  0  0  0  0  0  0
   -3.4240   -2.3045    1.5247 C   0  0  0  0  0  0  0  0  0  0  0  0
   -4.3001   -1.0606    1.6084 C   0  0  0  0  0  0  0  0  0  0  0  0
   -5.3794   -0.9963    0.4754 C   0  0  0  0  0  0  0  0  0  0  0  0
   -6.4019   -2.0901    0.5495 C   0  0  0  0  0  0  0  0  0  0  0  0
   -7.2269   -1.8944    1.7762 C   0  0  0  0  0  0  0  0  0  0  0  0
   -8.3701   -1.5244    1.7995 O   0  0  0  0  0  0  0  0  0  0  0  0
   -6.5127   -2.0818    2.9067 O   0  0  0  0  0  0  0  0  0  0  0  0
    4.2035   -0.1088    0.0260 H   0  0  0  0  0  0  0  0  0  0  0  0
    2.5196   -1.9343   -0.0068 H   0  0  0  0  0  0  0  0  0  0  0  0
    1.0777    2.8340   -0.0092 H   0  0  0  0  0  0  0  0  0  0  0  0
    3.4823    2.2770    0.0318 H   0  0  0  0  0  0  0  0  0  0  0  0
   -3.5976    1.2514    0.4820 H   0  0  0  0  0  0  0  0  0  0  0  0
   -3.3979    1.2532   -1.2880 H   0  0  0  0  0  0  0  0  0  0  0  0
   -3.7452   -0.1827   -0.5972 H   0  0  0  0  0  0  0  0  0  0  0  0
   -3.2642   -2.4459   -0.6583 H   0  0  0  0  0  0  0  0  0  0  0  0
   -2.1036   -3.3605    0.2310 H   0  0  0  0  0  0  0  0  0  0  0  0
   -4.0512   -3.1957    1.6366 H   0  0  0  0  0  0  0  0  0  0  0  0
   -2.7394   -2.3123    2.3820 H   0  0  0  0  0  0  0  0  0  0  0  0
   -4.7605   -0.9218    2.5849 H   0  0  0  0  0  0  0  0  0  0  0  0
   -3.6096   -0.2228    1.6791 H   0  0  0  0  0  0  0  0  0  0  0  0
   -5.8250    0.0093    0.4351 H   0  0  0  0  0  0  0  0  0  0  0  0
   -5.0186   -1.1979   -0.5411 H   0  0  0  0  0  0  0  0  0  0  0  0
   -7.0378   -2.0264   -0.3416 H   0  0  0  0  0  0  0  0  0  0  0  0
   -5.9178   -3.0685    0.5141 H   0  0  0  0  0  0  0  0  0  0  0  0
   -7.0190   -1.6575    3.6258 H   0  0  0  0  0  0  0  0  0  0  0  0
  1  2  1  0  0  0  0
  1  6  2  0  0  0  0
  1 22  1  0  0  0  0
  2  3  2  0  0  0  0
  2 23  1  0  0  0  0
  3  4  1  0  0  0  0
  3  8  1  0  0  0  0
  4  5  2  0  0  0  0
  4  9  1  0  0  0  0
  5  6  1  0  0  0  0
  5 24  1  0  0  0  0
  6 25  1  0  0  0  0
  7  8  2  0  0  0  0
  8 11  1  0  0  0  0
  9 10  1  0  0  0  0
  9 12  2  0  0  0  0
 10 11  2  0  0  0  0
 10 13  1  0  0  0  0
 11 14  1  0  0  0  0
 13 26  1  0  0  0  0
 13 27  1  0  0  0  0
 13 28  1  0  0  0  0
 14 15  1  0  0  0  0
 14 29  1  0  0  0  0
 14 30  1  0  0  0  0
 15 16  1  0  0  0  0
 15 31  1  0  0  0  0
 15 32  1  0  0  0  0
 16 17  1  0  0  0  0
 16 33  1  0  0  0  0
 16 34  1  0  0  0  0
 17 18  1  0  0  0  0
 17 35  1  0  0  0  0
 17 36  1  0  0  0  0
 18 19  1  0  0  0  0
 18 37  1  0  0  0  0
 18 38  1  0  0  0  0
 19 20  2  0  0  0  0
 19 21  1  0  0  0  0
 21 39  1  0  0  0  0
M  END
>  <DRUGBANK_ID>
DB07714

>  <COMMON_NAME>
6-(3-METHYL-1,4-DIOXO-1,4-DIHYDRONAPHTHALEN-2-YL)HEXANOIC ACID

$$$$
