
 OpenBabel10282417203D

 36 38  0  0  1  0  0  0  0  0999 V2000
   -1.0658    1.4988    0.9618 C   0  0  0  0  0  0  0  0  0  0  0  0
    0.2785    1.4153    0.1779 C   0  0  1  0  0  0  0  0  0  0  0  0
    0.0870    1.7264   -1.3268 C   0  0  0  0  0  0  0  0  0  0  0  0
    0.0718    3.1510   -1.8198 C   0  0  0  0  0  0  0  0  0  0  0  0
   -0.0202    4.4255   -0.5851 S   0  0  0  0  0  0  0  0  0  0  0  0
    0.7973    3.6910    0.7574 C   0  0  0  0  0  0  0  0  0  0  0  0
    1.0960    2.4309    0.8929 N   0  0  0  0  0  0  0  0  0  0  0  0
    1.0213    4.6402    1.7090 N   0  0  0  0  0  0  0  0  0  0  0  0
    0.8682   -0.0484    0.1239 C   0  0  0  0  0  0  0  0  0  0  0  0
    2.1279   -0.2658   -0.4977 C   0  0  0  0  0  0  0  0  0  0  0  0
    2.5022   -1.5365   -1.0142 C   0  0  0  0  0  0  0  0  0  0  0  0
    1.6483   -2.6233   -0.8102 C   0  0  0  0  0  0  0  0  0  0  0  0
    0.4618   -2.4712   -0.1343 C   0  0  0  0  0  0  0  0  0  0  0  0
    0.0805   -1.2111    0.3089 C   0  0  0  0  0  0  0  0  0  0  0  0
   -1.1445   -1.1977    0.8383 F   0  0  0  0  0  0  0  0  0  0  0  0
    1.9544   -3.8380   -1.2895 F   0  0  0  0  0  0  0  0  0  0  0  0
    3.7201   -1.7121   -1.7980 C   0  0  0  0  0  0  0  0  0  0  0  0
    4.9721   -1.4569   -1.2750 C   0  0  0  0  0  0  0  0  0  0  0  0
    6.1252   -1.6004   -1.9581 N   0  0  0  0  0  0  0  0  0  0  0  0
    6.0002   -2.0261   -3.2241 C   0  0  0  0  0  0  0  0  0  0  0  0
    4.8509   -2.3227   -3.8486 N   0  0  0  0  0  0  0  0  0  0  0  0
    3.7319   -2.1654   -3.1098 C   0  0  0  0  0  0  0  0  0  0  0  0
   -1.8142    2.0661    0.4061 H   0  0  0  0  0  0  0  0  0  0  0  0
   -0.9254    1.9819    1.9382 H   0  0  0  0  0  0  0  0  0  0  0  0
   -1.5388    0.5707    1.2337 H   0  0  0  0  0  0  0  0  0  0  0  0
   -0.8295    1.2237   -1.6617 H   0  0  0  0  0  0  0  0  0  0  0  0
    0.8659    1.2511   -1.9393 H   0  0  0  0  0  0  0  0  0  0  0  0
    0.9430    3.3205   -2.4675 H   0  0  0  0  0  0  0  0  0  0  0  0
   -0.8051    3.2787   -2.4607 H   0  0  0  0  0  0  0  0  0  0  0  0
    0.8786    4.3277    2.6655 H   0  0  0  0  0  0  0  0  0  0  0  0
    0.5240    5.5122    1.5225 H   0  0  0  0  0  0  0  0  0  0  0  0
    2.7670    0.5934   -0.7160 H   0  0  0  0  0  0  0  0  0  0  0  0
   -0.2139   -3.3087    0.0004 H   0  0  0  0  0  0  0  0  0  0  0  0
    5.0852   -1.1269   -0.2457 H   0  0  0  0  0  0  0  0  0  0  0  0
    6.9147   -2.1378   -3.7950 H   0  0  0  0  0  0  0  0  0  0  0  0
    2.8121   -2.4220   -3.6324 H   0  0  0  0  0  0  0  0  0  0  0  0
  1 23  1  0  0  0  0
  1 24  1  0  0  0  0
  1 25  1  0  0  0  0
  2  3  1  0  0  0  0
  2  7  1  0  0  0  0
  2  9  1  0  0  0  0
  2  1  1  1  0  0  0
  3  4  1  0  0  0  0
  3 26  1  0  0  0  0
  3 27  1  0  0  0  0
  4  5  1  0  0  0  0
  4 28  1  0  0  0  0
  4 29  1  0  0  0  0
  5  6  1  0  0  0  0
  6  7  2  0  0  0  0
  6  8  1  0  0  0  0
  8 30  1  0  0  0  0
  8 31  1  0  0  0  0
  9 10  2  0  0  0  0
  9 14  1  0  0  0  0
 10 11  1  0  0  0  0
 10 32  1  0  0  0  0
 11 12  2  0  0  0  0
 11 17  1  0  0  0  0
 12 13  1  0  0  0  0
 12 16  1  0  0  0  0
 13 14  2  0  0  0  0
 13 33  1  0  0  0  0
 14 15  1  0  0  0  0
 17 18  2  0  0  0  0
 17 22  1  0  0  0  0
 18 19  1  0  0  0  0
 18 34  1  0  0  0  0
 19 20  2  0  0  0  0
 20 21  1  0  0  0  0
 20 35  1  0  0  0  0
 21 22  2  0  0  0  0
 22 36  1  0  0  0  0
M  END
>  <DRUGBANK_ID>
DB13065

>  <COMMON_NAME>
LY-2811376

>  <CAS_NUMBER>
1194044-20-6

>  <UNII>
UR18YJ97SJ

$$$$
