1147
 OpenBabel10282417113D

 47 50  0  0  1  0  0  0  0  0999 V2000
   -2.1082   -0.1624   -0.1590 Cl  0  0  0  0  0  0  0  0  0  0  0  0
   -3.3924    4.0578    5.9579 S   0  0  0  0  0  0  0  0  0  0  0  0
   -2.1182    6.2698    2.8564 O   0  0  0  0  0  0  0  0  0  0  0  0
   -5.7701    7.9226    5.0439 O   0  0  0  0  0  0  0  0  0  0  0  0
   -3.8474    9.0595    4.9789 O   0  0  0  0  0  0  0  0  0  0  0  0
   -1.1866    1.1845    2.5448 O   0  0  0  0  0  0  0  0  0  0  0  0
   -1.0967    4.2864   -0.8228 O   0  0  0  0  0  0  0  0  0  0  0  0
   -4.0298    5.7280    4.0487 N   0  0  0  0  0  0  0  0  0  0  0  0
   -2.4331    2.8441    3.2275 N   0  0  0  0  0  0  0  0  0  0  0  0
   -0.2236    3.2689   -1.0169 N   0  0  0  0  0  0  0  0  0  0  0  0
   -4.2082    4.2845    4.3504 C   0  0  1  0  0  0  0  0  0  0  0  0
   -3.7801    5.8200    6.4152 C   0  0  0  0  0  0  0  0  0  0  0  0
   -3.6712    6.6372    5.1255 C   0  0  2  0  0  0  0  0  0  0  0  0
   -3.3901    3.9353    3.1053 C   0  0  1  0  0  0  0  0  0  0  0  0
   -2.9589    5.4714    3.2362 C   0  0  0  0  0  0  0  0  0  0  0  0
   -2.7624    6.2547    7.4529 C   0  0  0  0  0  0  0  0  0  0  0  0
   -5.2012    5.7880    6.9563 C   0  0  0  0  0  0  0  0  0  0  0  0
   -4.4197    7.9783    5.0333 C   0  0  0  0  0  0  0  0  0  0  0  0
   -1.6486    2.2909    2.2490 C   0  0  0  0  0  0  0  0  0  0  0  0
   -1.3547    2.9521    0.9704 C   0  0  0  0  0  0  0  0  0  0  0  0
   -0.4098    2.4327    0.0069 C   0  0  0  0  0  0  0  0  0  0  0  0
   -1.8157    4.0898    0.3107 C   0  0  0  0  0  0  0  0  0  0  0  0
    0.3043    1.1732    0.0010 C   0  0  0  0  0  0  0  0  0  0  0  0
   -2.8047    5.1661    0.4189 C   0  0  0  0  0  0  0  0  0  0  0  0
   -0.3792   -0.0507   -0.0483 C   0  0  0  0  0  0  0  0  0  0  0  0
    1.7083    1.1934    0.0046 C   0  0  0  0  0  0  0  0  0  0  0  0
    0.3401   -1.2423   -0.0333 C   0  0  0  0  0  0  0  0  0  0  0  0
    2.4200   -0.0030    0.0110 C   0  0  0  0  0  0  0  0  0  0  0  0
    1.7351   -1.2176    0.0003 C   0  0  0  0  0  0  0  0  0  0  0  0
   -5.2470    3.9493    4.2866 H   0  0  0  0  0  0  0  0  0  0  0  0
   -6.1663    7.0357    5.0689 H   0  0  0  0  0  0  0  0  0  0  0  0
   -2.5972    2.1478    3.9543 H   0  0  0  0  0  0  0  0  0  0  0  0
   -2.6155    6.9312    5.0068 H   0  0  0  0  0  0  0  0  0  0  0  0
   -4.0700    3.6645    2.2873 H   0  0  0  0  0  0  0  0  0  0  0  0
   -2.9558    7.2840    7.7658 H   0  0  0  0  0  0  0  0  0  0  0  0
   -2.8116    5.6103    8.3355 H   0  0  0  0  0  0  0  0  0  0  0  0
   -1.7372    6.2139    7.0611 H   0  0  0  0  0  0  0  0  0  0  0  0
   -5.3029    5.1150    7.8084 H   0  0  0  0  0  0  0  0  0  0  0  0
   -5.5005    6.7880    7.2793 H   0  0  0  0  0  0  0  0  0  0  0  0
   -5.9117    5.4476    6.1915 H   0  0  0  0  0  0  0  0  0  0  0  0
   -2.2958    6.1324    0.4828 H   0  0  0  0  0  0  0  0  0  0  0  0
   -3.5400    5.1749   -0.3817 H   0  0  0  0  0  0  0  0  0  0  0  0
   -3.4655    5.0797    1.2438 H   0  0  0  0  0  0  0  0  0  0  0  0
    2.2465    2.1409    0.0020 H   0  0  0  0  0  0  0  0  0  0  0  0
   -0.1869   -2.1913   -0.0466 H   0  0  0  0  0  0  0  0  0  0  0  0
    3.5066    0.0130    0.0298 H   0  0  0  0  0  0  0  0  0  0  0  0
    2.2882   -2.1520    0.0122 H   0  0  0  0  0  0  0  0  0  0  0  0
  1 25  1  0  0  0  0
  2 11  1  0  0  0  0
  2 12  1  0  0  0  0
  3 15  2  0  0  0  0
  4 18  1  0  0  0  0
  4 31  1  0  0  0  0
  5 18  2  0  0  0  0
  6 19  2  0  0  0  0
  7 10  1  0  0  0  0
  7 22  1  0  0  0  0
  8 11  1  0  0  0  0
  8 13  1  0  0  0  0
  8 15  1  0  0  0  0
  9 19  1  0  0  0  0
  9 32  1  0  0  0  0
 10 21  2  0  0  0  0
 11 14  1  0  0  0  0
 11 30  1  6  0  0  0
 12 13  1  0  0  0  0
 12 16  1  0  0  0  0
 12 17  1  0  0  0  0
 13 33  1  6  0  0  0
 13 18  1  0  0  0  0
 14  9  1  0  0  0  0
 14 15  1  0  0  0  0
 14 34  1  6  0  0  0
 16 35  1  0  0  0  0
 16 36  1  0  0  0  0
 16 37  1  0  0  0  0
 17 38  1  0  0  0  0
 17 39  1  0  0  0  0
 17 40  1  0  0  0  0
 19 20  1  0  0  0  0
 20 21  1  0  0  0  0
 20 22  2  0  0  0  0
 21 23  1  0  0  0  0
 22 24  1  0  0  0  0
 23 25  1  0  0  0  0
 23 26  2  0  0  0  0
 24 41  1  0  0  0  0
 24 42  1  0  0  0  0
 24 43  1  0  0  0  0
 25 27  2  0  0  0  0
 26 28  1  0  0  0  0
 26 44  1  0  0  0  0
 27 29  1  0  0  0  0
 27 45  1  0  0  0  0
 28 29  2  0  0  0  0
 28 46  1  0  0  0  0
 29 47  1  0  0  0  0
M  END
>  <DRUGBANK_ID>
DB01147

>  <SECONDARY_ACCESSION_NUMBERS>
APRD00882; EXPT01068

>  <COMMON_NAME>
Cloxacillin

>  <CAS_NUMBER>
61-72-3

>  <UNII>
O6X5QGC2VB

>  <SYNONYMS>
(2S,5R,6R)-6-({[3-(2-chlorophenyl)-5-methylisoxazol-4-yl]carbonyl}amino)-3,3-dimethyl-7-oxo-4-thia-1-azabicyclo[3.2.0]heptane-2-carboxylic acid; (3-(o-chlorophenyl)-5-methyl-4-isoxazolyl)penicillin; 6-(3-(o-chlorophenyl)-5-methyl-4-isoxazolecarboxamido)penicillanic acid; Cloxacilina; Cloxacillin; Cloxacilline; Cloxacillinum

$$$$
