
 OpenBabel10282417153D

 32 33  0  0  0  0  0  0  0  0999 V2000
   -3.1618   -4.3911   -1.1960 N   0  0  0  0  0  0  0  0  0  0  0  0
   -1.8621   -3.9362   -1.1324 C   0  0  0  0  0  0  0  0  0  0  0  0
   -1.4275   -3.3174    0.0702 N   0  0  0  0  0  0  0  0  0  0  0  0
   -2.3960   -2.7347    0.8766 C   0  0  0  0  0  0  0  0  0  0  0  0
   -3.6902   -2.8032    0.5505 C   0  0  0  0  0  0  0  0  0  0  0  0
   -4.0458   -3.8421   -0.4334 C   0  0  0  0  0  0  0  0  0  0  0  0
   -1.1364   -4.0941   -2.1091 O   0  0  0  0  0  0  0  0  0  0  0  0
    0.0043   -2.9543    0.2698 C   0  0  2  0  0  0  0  0  0  0  0  0
    0.8662   -3.6446   -0.6389 O   0  0  0  0  0  0  0  0  0  0  0  0
    1.2450   -4.9050   -0.0329 C   0  0  1  0  0  0  0  0  0  0  0  0
    1.5091   -4.5645    1.4386 C   0  0  1  0  0  0  0  0  0  0  0  0
    0.6355   -3.2878    1.6556 C   0  0  1  0  0  0  0  0  0  0  0  0
    0.2119   -6.0132   -0.3129 C   0  0  0  0  0  0  0  0  0  0  0  0
   -0.9970   -5.9359    0.4389 O   0  0  0  0  0  0  0  0  0  0  0  0
   -5.3373   -4.2617   -0.5442 N   0  0  0  0  0  0  0  0  0  0  0  0
    1.4431   -2.1973    2.1503 O   0  0  0  0  0  0  0  0  0  0  0  0
    1.1606   -5.6424    2.3927 C   0  0  0  0  0  0  0  0  0  0  0  0
    2.9262   -4.3013    1.5060 O   0  0  0  0  0  0  0  0  0  0  0  0
    0.7167   -6.5518    3.0572 C   0  0  0  0  0  0  0  0  0  0  0  0
   -2.0690   -2.1433    1.7251 H   0  0  0  0  0  0  0  0  0  0  0  0
   -4.4749   -2.2286    1.0154 H   0  0  0  0  0  0  0  0  0  0  0  0
    0.0773   -1.8783    0.0559 H   0  0  0  0  0  0  0  0  0  0  0  0
    2.1717   -5.1959   -0.5436 H   0  0  0  0  0  0  0  0  0  0  0  0
   -0.1553   -3.4356    2.3961 H   0  0  0  0  0  0  0  0  0  0  0  0
   -0.0665   -5.9953   -1.3686 H   0  0  0  0  0  0  0  0  0  0  0  0
    0.6447   -6.9960   -0.1271 H   0  0  0  0  0  0  0  0  0  0  0  0
   -0.8221   -5.9127    1.3876 H   0  0  0  0  0  0  0  0  0  0  0  0
   -6.1009   -3.8578   -0.0246 H   0  0  0  0  0  0  0  0  0  0  0  0
   -5.5317   -5.0465   -1.1559 H   0  0  0  0  0  0  0  0  0  0  0  0
    2.1542   -2.0565    1.4928 H   0  0  0  0  0  0  0  0  0  0  0  0
    3.1708   -4.0266    2.4035 H   0  0  0  0  0  0  0  0  0  0  0  0
    0.2317   -7.3707    3.5402 H   0  0  0  0  0  0  0  0  0  0  0  0
  1  2  1  0  0  0  0
  1  6  2  0  0  0  0
  2  7  2  0  0  0  0
  2  3  1  0  0  0  0
  3  4  1  0  0  0  0
  4  5  2  0  0  0  0
  4 20  1  0  0  0  0
  5  6  1  0  0  0  0
  5 21  1  0  0  0  0
  6 15  1  0  0  0  0
  8  9  1  0  0  0  0
  8 22  1  6  0  0  0
  8  3  1  0  0  0  0
  9 10  1  0  0  0  0
 10 11  1  0  0  0  0
 10 23  1  6  0  0  0
 10 13  1  0  0  0  0
 11 12  1  0  0  0  0
 11 18  1  0  0  0  0
 11 17  1  1  0  0  0
 12  8  1  0  0  0  0
 12 16  1  0  0  0  0
 12 24  1  1  0  0  0
 13 14  1  0  0  0  0
 13 25  1  0  0  0  0
 13 26  1  0  0  0  0
 14 27  1  0  0  0  0
 15 28  1  0  0  0  0
 15 29  1  0  0  0  0
 16 30  1  0  0  0  0
 17 19  3  0  0  0  0
 18 31  1  0  0  0  0
 19 32  1  0  0  0  0
M  END
>  <DRUGBANK_ID>
DB06656

>  <COMMON_NAME>
TAS-106

>  <CAS_NUMBER>
180300-43-0

>  <UNII>
Y3O05I09ZK

>  <SYNONYMS>
3'-C-Ethynylcytidine; 4-Amino-1-((2R,3R,4R,5R)-4-ethynyl-3,4-dihydroxy-5-(hydroxymethyl)oxolan-2-yl)pyrimidin-2-one

$$$$
