
 OpenBabel10282417193D

 62 63  0  0  1  0  0  0  0  0999 V2000
    0.0443   -0.6466   -0.0903 C   0  0  0  0  0  0  0  0  0  0  0  0
   -1.7211   -0.4015    0.2318 C   0  0  2  0  0  0  0  0  0  0  0  0
   -3.3966   -1.5759    0.5976 C   0  0  0  0  0  0  0  0  0  0  0  0
   -3.7971   -2.2640   -0.2952 O   0  0  0  0  0  0  0  0  0  0  0  0
   -4.4572   -1.6621    1.9673 N   0  0  0  0  0  0  0  0  0  0  0  0
   -5.7118   -2.6656    2.9051 C   0  0  2  0  0  0  0  0  0  0  0  0
   -5.0355   -3.4881    4.0743 C   0  0  0  0  0  0  0  0  0  0  0  0
   -3.6298   -4.2823    3.3977 S   0  0  0  0  0  0  0  0  0  0  0  0
   -2.3603   -3.0328    4.3215 S   0  0  0  0  0  0  0  0  0  0  0  0
   -1.3117   -2.8081    2.9364 C   0  0  0  0  0  0  0  0  0  0  0  0
   -0.9685   -1.3535    2.9889 C   0  0  0  0  0  0  0  0  0  0  0  0
   -2.1406   -0.4188    2.8814 C   0  0  0  0  0  0  0  0  0  0  0  0
   -2.7250    0.6481    3.3980 C   0  0  0  0  0  0  0  0  0  0  0  0
   -3.7767    1.4191    2.5442 C   0  0  2  0  0  0  0  0  0  0  0  0
   -3.3778    2.1133    1.2276 C   0  0  0  0  0  0  0  0  0  0  0  0
   -1.9266    2.0079    0.9857 C   0  0  0  0  0  0  0  0  0  0  0  0
   -1.0862    2.4564    1.7540 O   0  0  0  0  0  0  0  0  0  0  0  0
   -1.7802    1.0732   -0.0612 N   0  0  0  0  0  0  0  0  0  0  0  0
   -4.3970    2.3335    3.4266 O   0  0  0  0  0  0  0  0  0  0  0  0
   -5.6107    2.7253    2.9688 C   0  0  0  0  0  0  0  0  0  0  0  0
   -5.7798    3.6152    2.1500 O   0  0  0  0  0  0  0  0  0  0  0  0
   -6.6963    1.9746    3.6611 C   0  0  0  0  0  0  0  0  0  0  0  0
   -7.2325    0.8219    2.8355 C   0  0  1  0  0  0  0  0  0  0  0  0
   -8.2842   -0.0055    3.6316 C   0  0  2  0  0  0  0  0  0  0  0  0
   -7.9953   -1.4227    3.3426 N   0  0  0  0  0  0  0  0  0  0  0  0
   -6.7971   -1.8828    3.8729 C   0  0  0  0  0  0  0  0  0  0  0  0
   -6.5426   -1.5452    5.0369 O   0  0  0  0  0  0  0  0  0  0  0  0
   -9.7312    0.4427    3.3501 C   0  0  0  0  0  0  0  0  0  0  0  0
  -10.7263   -0.3833    4.1368 C   0  0  0  0  0  0  0  0  0  0  0  0
   -9.9116    1.9305    3.6865 C   0  0  0  0  0  0  0  0  0  0  0  0
   -7.6956    1.2733    1.5691 O   0  0  0  0  0  0  0  0  0  0  0  0
    0.3121   -0.9518   -1.1003 H   0  0  0  0  0  0  0  0  0  0  0  0
    0.6139   -1.0946    0.7381 H   0  0  0  0  0  0  0  0  0  0  0  0
    0.7319    0.2654   -0.0224 H   0  0  0  0  0  0  0  0  0  0  0  0
   -1.2999   -0.1457    1.1591 H   0  0  0  0  0  0  0  0  0  0  0  0
   -4.4025   -0.9506    2.6631 H   0  0  0  0  0  0  0  0  0  0  0  0
   -6.3243   -3.4320    2.3837 H   0  0  0  0  0  0  0  0  0  0  0  0
   -5.5740   -4.3439    4.5138 H   0  0  0  0  0  0  0  0  0  0  0  0
   -4.8175   -2.8760    4.9746 H   0  0  0  0  0  0  0  0  0  0  0  0
   -1.6955   -3.1231    1.9415 H   0  0  0  0  0  0  0  0  0  0  0  0
   -0.4589   -3.4422    3.1508 H   0  0  0  0  0  0  0  0  0  0  0  0
   -0.2971   -1.3477    2.1452 H   0  0  0  0  0  0  0  0  0  0  0  0
   -0.3406   -1.0132    3.7911 H   0  0  0  0  0  0  0  0  0  0  0  0
   -2.6900   -0.5102    2.0086 H   0  0  0  0  0  0  0  0  0  0  0  0
   -2.3092    0.9794    4.3210 H   0  0  0  0  0  0  0  0  0  0  0  0
   -4.5532    0.7278    2.2039 H   0  0  0  0  0  0  0  0  0  0  0  0
   -3.6733    3.1562    1.1661 H   0  0  0  0  0  0  0  0  0  0  0  0
   -3.8551    1.5972    0.3749 H   0  0  0  0  0  0  0  0  0  0  0  0
   -1.8046    1.4120   -1.0131 H   0  0  0  0  0  0  0  0  0  0  0  0
   -7.4522    2.7233    3.8747 H   0  0  0  0  0  0  0  0  0  0  0  0
   -6.3122    1.6081    4.6183 H   0  0  0  0  0  0  0  0  0  0  0  0
   -6.4040    0.1606    2.5914 H   0  0  0  0  0  0  0  0  0  0  0  0
   -8.1018    0.1336    4.7091 H   0  0  0  0  0  0  0  0  0  0  0  0
   -8.4635   -1.8971    2.5808 H   0  0  0  0  0  0  0  0  0  0  0  0
   -9.9948    0.2776    2.3017 H   0  0  0  0  0  0  0  0  0  0  0  0
  -10.5630   -0.2698    5.2110 H   0  0  0  0  0  0  0  0  0  0  0  0
  -11.7405   -0.0587    3.8871 H   0  0  0  0  0  0  0  0  0  0  0  0
  -10.6326   -1.4386    3.8672 H   0  0  0  0  0  0  0  0  0  0  0  0
   -9.2632    2.5732    3.0858 H   0  0  0  0  0  0  0  0  0  0  0  0
  -10.9247    2.2708    3.4695 H   0  0  0  0  0  0  0  0  0  0  0  0
   -9.6904    2.1184    4.7447 H   0  0  0  0  0  0  0  0  0  0  0  0
   -8.5851    0.9368    1.3898 H   0  0  0  0  0  0  0  0  0  0  0  0
  1 32  1  0  0  0  0
  1 33  1  0  0  0  0
  1 34  1  0  0  0  0
  2  1  1  0  0  0  0
  2  3  1  0  0  0  0
  2 18  1  0  0  0  0
  2 35  1  1  0  0  0
  3  4  2  0  0  0  0
  3  5  1  0  0  0  0
  5 36  1  0  0  0  0
  6  5  1  0  0  0  0
  6  7  1  0  0  0  0
  6 26  1  0  0  0  0
  6 37  1  1  0  0  0
  7  8  1  0  0  0  0
  7 38  1  0  0  0  0
  7 39  1  0  0  0  0
  8  9  1  0  0  0  0
  9 10  1  0  0  0  0
 10 11  1  0  0  0  0
 10 40  1  0  0  0  0
 10 41  1  0  0  0  0
 11 12  1  0  0  0  0
 11 42  1  0  0  0  0
 11 43  1  0  0  0  0
 12 13  2  0  0  0  0
 12 44  1  0  0  0  0
 13 14  1  0  0  0  0
 13 45  1  0  0  0  0
 14 15  1  0  0  0  0
 14 19  1  0  0  0  0
 14 46  1  6  0  0  0
 15 16  1  0  0  0  0
 15 47  1  0  0  0  0
 15 48  1  0  0  0  0
 16 17  2  0  0  0  0
 16 18  1  0  0  0  0
 18 49  1  0  0  0  0
 19 20  1  0  0  0  0
 20 21  2  0  0  0  0
 20 22  1  0  0  0  0
 22 23  1  0  0  0  0
 22 50  1  0  0  0  0
 22 51  1  0  0  0  0
 23 24  1  0  0  0  0
 23 52  1  6  0  0  0
 23 31  1  0  0  0  0
 24 25  1  0  0  0  0
 24 28  1  0  0  0  0
 24 53  1  1  0  0  0
 25 26  1  0  0  0  0
 25 54  1  0  0  0  0
 26 27  2  0  0  0  0
 28 29  1  0  0  0  0
 28 30  1  0  0  0  0
 28 55  1  0  0  0  0
 29 56  1  0  0  0  0
 29 57  1  0  0  0  0
 29 58  1  0  0  0  0
 30 59  1  0  0  0  0
 30 60  1  0  0  0  0
 30 61  1  0  0  0  0
 31 62  1  0  0  0  0
M  END
>  <DRUGBANK_ID>
DB12279

>  <COMMON_NAME>
OBP-801

>  <CAS_NUMBER>
328548-11-4

>  <UNII>
30Q3VS5HZ4

$$$$
