
 OpenBabel10282417193D

 47 46  0  0  0  0  0  0  0  0999 V2000
    1.0971    0.1836    0.1960 C   0  0  0  0  0  0  0  0  0  0  0  0
    3.4170   -5.3762   -3.1563 C   0  0  0  0  0  0  0  0  0  0  0  0
    0.4730   -8.5526   -2.9892 C   0  0  0  0  0  0  0  0  0  0  0  0
    0.6215    0.6911   -1.1523 C   0  0  0  0  0  0  0  0  0  0  0  0
    2.5019   -4.5686   -2.3164 C   0  0  0  0  0  0  0  0  0  0  0  0
    0.6743   -7.0935   -2.8687 C   0  0  0  0  0  0  0  0  0  0  0  0
    1.2140   -0.1402   -2.2467 C   0  0  0  0  0  0  0  0  0  0  0  0
    1.5891   -3.7483   -3.2473 C   0  0  0  0  0  0  0  0  0  0  0  0
   -0.5893   -6.2981   -2.7190 C   0  0  0  0  0  0  0  0  0  0  0  0
    0.1151   -3.5318   -0.6120 C   0  0  0  0  0  0  0  0  0  0  0  0
   -1.7148   -3.3804   -2.3763 C   0  0  0  0  0  0  0  0  0  0  0  0
   -1.3074   -3.8772   -0.9802 C   0  0  0  0  0  0  0  0  0  0  0  0
    0.4850   -1.4102   -2.1865 C   0  0  0  0  0  0  0  0  0  0  0  0
    0.3631   -4.0900   -4.1204 C   0  0  0  0  0  0  0  0  0  0  0  0
   -1.4764   -6.4262   -1.5220 C   0  0  0  0  0  0  0  0  0  0  0  0
   -0.1149   -1.6624   -3.2243 O   0  0  0  0  0  0  0  0  0  0  0  0
    0.5297   -4.6583   -5.1978 O   0  0  0  0  0  0  0  0  0  0  0  0
   -2.0101   -7.4672   -1.2505 O   0  0  0  0  0  0  0  0  0  0  0  0
    0.6198   -2.1682   -1.0289 O   0  0  0  0  0  0  0  0  0  0  0  0
   -0.9460   -3.8448   -3.6470 O   0  0  0  0  0  0  0  0  0  0  0  0
   -1.6523   -5.3005   -0.7507 O   0  0  0  0  0  0  0  0  0  0  0  0
    0.6410   -0.7659    0.4858 H   0  0  0  0  0  0  0  0  0  0  0  0
    0.8042    0.8679    0.9828 H   0  0  0  0  0  0  0  0  0  0  0  0
    2.1807    0.0309    0.1757 H   0  0  0  0  0  0  0  0  0  0  0  0
    4.1440   -4.7099   -3.6070 H   0  0  0  0  0  0  0  0  0  0  0  0
    3.8811   -6.1646   -2.5615 H   0  0  0  0  0  0  0  0  0  0  0  0
    2.8425   -5.8312   -3.9574 H   0  0  0  0  0  0  0  0  0  0  0  0
   -0.0714   -8.7500   -3.9116 H   0  0  0  0  0  0  0  0  0  0  0  0
    1.4578   -9.0244   -3.0209 H   0  0  0  0  0  0  0  0  0  0  0  0
   -0.0731   -8.8993   -2.1156 H   0  0  0  0  0  0  0  0  0  0  0  0
   -0.4765    0.6369   -1.2111 H   0  0  0  0  0  0  0  0  0  0  0  0
    0.9164    1.7262   -1.3168 H   0  0  0  0  0  0  0  0  0  0  0  0
    3.0446   -3.9021   -1.6197 H   0  0  0  0  0  0  0  0  0  0  0  0
    2.0232   -5.2453   -1.6052 H   0  0  0  0  0  0  0  0  0  0  0  0
    1.1723   -6.7653   -3.7861 H   0  0  0  0  0  0  0  0  0  0  0  0
    1.3373   -6.9271   -2.0216 H   0  0  0  0  0  0  0  0  0  0  0  0
    0.9444    0.3047   -3.2222 H   0  0  0  0  0  0  0  0  0  0  0  0
    2.2939   -0.2967   -2.2729 H   0  0  0  0  0  0  0  0  0  0  0  0
    2.1464   -2.8951   -3.6402 H   0  0  0  0  0  0  0  0  0  0  0  0
    0.9955   -3.3618   -2.5060 H   0  0  0  0  0  0  0  0  0  0  0  0
   -1.1672   -6.2687   -3.6496 H   0  0  0  0  0  0  0  0  0  0  0  0
   -0.1518   -5.3559   -2.5210 H   0  0  0  0  0  0  0  0  0  0  0  0
    0.6410   -4.3361   -1.0722 H   0  0  0  0  0  0  0  0  0  0  0  0
    0.4640   -3.7539    0.4090 H   0  0  0  0  0  0  0  0  0  0  0  0
   -2.7560   -3.6648   -2.5472 H   0  0  0  0  0  0  0  0  0  0  0  0
   -1.7920   -2.2889   -2.3347 H   0  0  0  0  0  0  0  0  0  0  0  0
   -1.8999   -3.3429   -0.2243 H   0  0  0  0  0  0  0  0  0  0  0  0
  1 22  1  0  0  0  0
  1 23  1  0  0  0  0
  1 24  1  0  0  0  0
  2 25  1  0  0  0  0
  2 26  1  0  0  0  0
  2 27  1  0  0  0  0
  3 28  1  0  0  0  0
  3 29  1  0  0  0  0
  3 30  1  0  0  0  0
  4  1  1  0  0  0  0
  4 31  1  0  0  0  0
  4 32  1  0  0  0  0
  5  2  1  0  0  0  0
  5 33  1  0  0  0  0
  5 34  1  0  0  0  0
  6  3  1  0  0  0  0
  6 35  1  0  0  0  0
  6 36  1  0  0  0  0
  7  4  1  0  0  0  0
  7 37  1  0  0  0  0
  7 38  1  0  0  0  0
  8  5  1  0  0  0  0
  8 39  1  0  0  0  0
  8 40  1  0  0  0  0
  9  6  1  0  0  0  0
  9 41  1  0  0  0  0
  9 42  1  0  0  0  0
 10 43  1  0  0  0  0
 10 44  1  0  0  0  0
 11 45  1  0  0  0  0
 11 46  1  0  0  0  0
 12 10  1  0  0  0  0
 12 11  1  0  0  0  0
 12 47  1  0  0  0  0
 13  7  1  0  0  0  0
 14  8  1  0  0  0  0
 15  9  1  0  0  0  0
 16 13  2  0  0  0  0
 17 14  2  0  0  0  0
 18 15  2  0  0  0  0
 19 10  1  0  0  0  0
 19 13  1  0  0  0  0
 20 11  1  0  0  0  0
 20 14  1  0  0  0  0
 21 12  1  0  0  0  0
 21 15  1  0  0  0  0
M  END
>  <DRUGBANK_ID>
DB12709

>  <COMMON_NAME>
Tributyrin

>  <CAS_NUMBER>
60-01-5

>  <UNII>
S05LZ624MF

$$$$
