
 OpenBabel10282417193D

 73 76  0  0  1  0  0  0  0  0999 V2000
   -0.0405   -0.1742    6.9013 C   0  0  0  0  0  0  0  0  0  0  0  0
   -1.3050   -0.4396    6.1798 C   0  0  0  0  0  0  0  0  0  0  0  0
   -2.3758   -0.6636    6.7267 O   0  0  0  0  0  0  0  0  0  0  0  0
   -1.1845   -0.4393    4.8478 O   0  0  0  0  0  0  0  0  0  0  0  0
   -0.1315    0.2629    4.0852 C   0  0  2  0  0  0  0  0  0  0  0  0
    1.0744   -0.7224    4.1550 C   0  0  0  0  0  0  0  0  0  0  0  0
    2.1441   -0.2391    3.2479 C   0  0  1  0  0  0  0  0  0  0  0  0
    2.4002    1.2623    3.5667 C   0  0  1  0  0  0  0  0  0  0  0  0
    3.5388    1.5243    2.5466 C   0  0  0  0  0  0  0  0  0  0  0  0
    4.4979    0.2976    2.6578 C   0  0  0  0  0  0  0  0  0  0  0  0
    3.5817   -0.6697    3.4449 C   0  0  0  0  0  0  0  0  0  0  0  0
    3.9178   -1.5277    4.2505 O   0  0  0  0  0  0  0  0  0  0  0  0
    1.2572    2.3094    3.6940 C   0  0  0  0  0  0  0  0  0  0  0  0
   -0.0836    2.1805    3.9983 C   0  0  0  0  0  0  0  0  0  0  0  0
   -1.4388    3.6017    3.7161 C   0  0  1  0  0  0  0  0  0  0  0  0
   -2.9609    5.1539    3.9740 C   0  0  2  0  0  0  0  0  0  0  0  0
   -2.5145    6.5500    3.4475 O   0  0  0  0  0  0  0  0  0  0  0  0
   -1.2581    6.5972    3.2634 C   0  0  0  0  0  0  0  0  0  0  0  0
   -0.5167    7.0565    4.1180 O   0  0  0  0  0  0  0  0  0  0  0  0
   -1.1420    5.3612    2.3966 C   0  0  0  0  0  0  0  0  0  0  0  0
   -2.1982    4.7679    1.7339 C   0  0  0  0  0  0  0  0  0  0  0  0
   -2.8200    3.3690    1.9684 N   0  0  0  0  0  0  0  0  0  0  0  0
   -2.2247    2.5852    0.7648 C   0  0  0  0  0  0  0  0  0  0  0  0
   -0.7984    2.0012    0.7520 C   0  0  0  0  0  0  0  0  0  0  0  0
   -0.6522    0.7299    0.3512 C   0  0  0  0  0  0  0  0  0  0  0  0
   -3.5797    2.5911    3.5120 C   0  0  0  0  0  0  0  0  0  0  0  0
   -2.7550    2.7482    5.2112 C   0  0  0  0  0  0  0  0  0  0  0  0
   -2.9543    2.9836    6.4931 C   0  0  0  0  0  0  0  0  0  0  0  0
   -0.4181    4.4940    3.2005 C   0  0  0  0  0  0  0  0  0  0  0  0
    0.8818    4.7016    3.3531 C   0  0  0  0  0  0  0  0  0  0  0  0
    1.7461    3.6645    3.8595 C   0  0  0  0  0  0  0  0  0  0  0  0
    2.8351    3.8745    4.3690 O   0  0  0  0  0  0  0  0  0  0  0  0
    1.4338    5.9117    2.9966 O   0  0  0  0  0  0  0  0  0  0  0  0
   -4.4133    6.4998    3.9582 C   0  0  0  0  0  0  0  0  0  0  0  0
   -4.9530    7.1260    5.1800 O   0  0  0  0  0  0  0  0  0  0  0  0
   -5.5097    6.0412    5.8392 C   0  0  0  0  0  0  0  0  0  0  0  0
   -1.6138    1.7989    3.3692 C   0  0  0  0  0  0  0  0  0  0  0  0
    1.7584   -0.6620    1.8405 C   0  0  0  0  0  0  0  0  0  0  0  0
   -0.1969   -0.2425    7.9704 H   0  0  0  0  0  0  0  0  0  0  0  0
    0.3511    0.8034    6.6086 H   0  0  0  0  0  0  0  0  0  0  0  0
    0.6490   -0.9850    6.6911 H   0  0  0  0  0  0  0  0  0  0  0  0
   -0.4716   -0.0238    3.0699 H   0  0  0  0  0  0  0  0  0  0  0  0
    1.4772   -0.9267    5.1311 H   0  0  0  0  0  0  0  0  0  0  0  0
    0.6912   -1.7289    3.8754 H   0  0  0  0  0  0  0  0  0  0  0  0
    2.8601    1.2789    4.5722 H   0  0  0  0  0  0  0  0  0  0  0  0
    4.0727    2.4677    2.6275 H   0  0  0  0  0  0  0  0  0  0  0  0
    3.0698    1.5739    1.5588 H   0  0  0  0  0  0  0  0  0  0  0  0
    5.4321    0.4917    3.1951 H   0  0  0  0  0  0  0  0  0  0  0  0
    4.7822    0.0030    1.6392 H   0  0  0  0  0  0  0  0  0  0  0  0
   -3.7319    4.8448    3.1589 H   0  0  0  0  0  0  0  0  0  0  0  0
   -2.9041    5.3478    1.1583 H   0  0  0  0  0  0  0  0  0  0  0  0
   -2.9393    1.8697    0.3875 H   0  0  0  0  0  0  0  0  0  0  0  0
   -2.0472    3.3526    0.0015 H   0  0  0  0  0  0  0  0  0  0  0  0
    0.0823    2.5491    1.0975 H   0  0  0  0  0  0  0  0  0  0  0  0
    0.3128    0.2785    0.2313 H   0  0  0  0  0  0  0  0  0  0  0  0
   -1.5069    0.0828    0.1864 H   0  0  0  0  0  0  0  0  0  0  0  0
   -4.6281    2.7551    3.6959 H   0  0  0  0  0  0  0  0  0  0  0  0
   -3.6612    1.5178    3.1898 H   0  0  0  0  0  0  0  0  0  0  0  0
   -1.6186    2.5940    5.3908 H   0  0  0  0  0  0  0  0  0  0  0  0
   -2.0520    3.0781    7.1532 H   0  0  0  0  0  0  0  0  0  0  0  0
   -3.9786    3.0201    6.7115 H   0  0  0  0  0  0  0  0  0  0  0  0
    0.8753    6.5704    3.4766 H   0  0  0  0  0  0  0  0  0  0  0  0
   -4.2084    7.5412    3.4744 H   0  0  0  0  0  0  0  0  0  0  0  0
   -5.3148    6.3591    3.3121 H   0  0  0  0  0  0  0  0  0  0  0  0
   -6.3040    5.6106    5.2173 H   0  0  0  0  0  0  0  0  0  0  0  0
   -4.6393    5.4047    5.9007 H   0  0  0  0  0  0  0  0  0  0  0  0
   -5.8640    6.2902    6.8320 H   0  0  0  0  0  0  0  0  0  0  0  0
   -1.9013    1.3431    4.3405 H   0  0  0  0  0  0  0  0  0  0  0  0
   -1.7201    1.4613    2.3838 H   0  0  0  0  0  0  0  0  0  0  0  0
   -2.1716    0.8075    3.4238 H   0  0  0  0  0  0  0  0  0  0  0  0
    1.9746   -1.6994    1.5692 H   0  0  0  0  0  0  0  0  0  0  0  0
    0.6858   -0.6251    1.7849 H   0  0  0  0  0  0  0  0  0  0  0  0
    2.1656   -0.0213    1.0642 H   0  0  0  0  0  0  0  0  0  0  0  0
  1  2  1  0  0  0  0
  1 39  1  0  0  0  0
  1 40  1  0  0  0  0
  1 41  1  0  0  0  0
  2  3  2  0  0  0  0
  2  4  1  0  0  0  0
  5  6  1  0  0  0  0
  5 14  1  0  0  0  0
  5  4  1  0  0  0  0
  5 42  1  6  0  0  0
  6  7  1  0  0  0  0
  6 43  1  0  0  0  0
  6 44  1  0  0  0  0
  7  8  1  0  0  0  0
  7 11  1  0  0  0  0
  7 38  1  6  0  0  0
  8  9  1  0  0  0  0
  8 13  1  0  0  0  0
  8 45  1  1  0  0  0
  9 10  1  0  0  0  0
  9 46  1  0  0  0  0
  9 47  1  0  0  0  0
 10 11  1  0  0  0  0
 10 48  1  0  0  0  0
 10 49  1  0  0  0  0
 11 12  2  0  0  0  0
 13 14  2  0  0  0  0
 13 31  1  0  0  0  0
 14 15  1  0  0  0  0
 15 16  1  0  0  0  0
 15 29  1  0  0  0  0
 15 37  1  6  0  0  0
 16 17  1  0  0  0  0
 16 34  1  0  0  0  0
 16 50  1  6  0  0  0
 17 18  1  0  0  0  0
 18 20  1  0  0  0  0
 18 19  2  0  0  0  0
 20 29  1  0  0  0  0
 20 21  2  0  0  0  0
 21 22  1  0  0  0  0
 21 51  1  0  0  0  0
 22 23  1  0  0  0  0
 22 26  1  0  0  0  0
 23 24  1  0  0  0  0
 23 52  1  0  0  0  0
 23 53  1  0  0  0  0
 24 25  2  0  0  0  0
 24 54  1  0  0  0  0
 25 55  1  0  0  0  0
 25 56  1  0  0  0  0
 26 27  1  0  0  0  0
 26 57  1  0  0  0  0
 26 58  1  0  0  0  0
 27 28  2  0  0  0  0
 27 59  1  0  0  0  0
 28 60  1  0  0  0  0
 28 61  1  0  0  0  0
 29 30  2  0  0  0  0
 30 31  1  0  0  0  0
 30 33  1  0  0  0  0
 31 32  2  0  0  0  0
 33 62  1  0  0  0  0
 34 35  1  0  0  0  0
 34 63  1  0  0  0  0
 34 64  1  0  0  0  0
 35 36  1  0  0  0  0
 36 65  1  0  0  0  0
 36 66  1  0  0  0  0
 36 67  1  0  0  0  0
 37 68  1  0  0  0  0
 37 69  1  0  0  0  0
 37 70  1  0  0  0  0
 38 71  1  0  0  0  0
 38 72  1  0  0  0  0
 38 73  1  0  0  0  0
M  END
>  <DRUGBANK_ID>
DB12601

>  <COMMON_NAME>
Sonolisib

>  <CAS_NUMBER>
502632-66-8

>  <UNII>
987796874T

>  <SYNONYMS>
Sonolisib

$$$$
