
 OpenBabel10282417203D

 62 66  0  0  0  0  0  0  0  0999 V2000
    1.6165   -0.1897    0.1811 C   0  0  0  0  0  0  0  0  0  0  0  0
    1.1268    1.1180    0.1504 C   0  0  0  0  0  0  0  0  0  0  0  0
   -0.1594    1.3654    0.5647 C   0  0  0  0  0  0  0  0  0  0  0  0
   -0.9478    0.2884    0.9690 C   0  0  0  0  0  0  0  0  0  0  0  0
   -0.5731   -1.0559    0.7021 C   0  0  0  0  0  0  0  0  0  0  0  0
    0.7682   -1.2781    0.4151 C   0  0  0  0  0  0  0  0  0  0  0  0
   -1.5632   -2.2216    0.5141 C   0  0  0  0  0  0  0  0  0  0  0  0
   -2.6156   -2.1894    1.6045 C   0  0  0  0  0  0  0  0  0  0  0  0
   -2.2441   -2.4479   -0.7681 N   0  0  0  0  0  0  0  0  0  0  0  0
   -3.5261   -1.1141    1.7823 C   0  0  0  0  0  0  0  0  0  0  0  0
   -4.4710   -1.0820    2.7703 C   0  0  0  0  0  0  0  0  0  0  0  0
   -4.5210   -2.1620    3.6174 C   0  0  0  0  0  0  0  0  0  0  0  0
   -3.6729   -3.2654    3.4325 C   0  0  0  0  0  0  0  0  0  0  0  0
   -2.7042   -3.2786    2.4432 C   0  0  0  0  0  0  0  0  0  0  0  0
   -1.3817   -2.7201   -1.9490 C   0  0  0  0  0  0  0  0  0  0  0  0
   -0.5514   -1.5281   -2.3923 C   0  0  0  0  0  0  0  0  0  0  0  0
   -1.4490   -0.4419   -2.5555 N   0  0  0  0  0  0  0  0  0  0  0  0
   -2.3616   -0.0808   -1.4868 C   0  0  0  0  0  0  0  0  0  0  0  0
   -3.1077   -1.3238   -1.0458 C   0  0  0  0  0  0  0  0  0  0  0  0
   -2.1496   -0.7355   -3.7545 C   0  0  0  0  0  0  0  0  0  0  0  0
   -3.5864   -1.3001   -3.9780 C   0  0  0  0  0  0  0  0  0  0  0  0
   -4.7082   -0.4731   -3.3268 C   0  0  0  0  0  0  0  0  0  0  0  0
   -4.1509    0.8690   -3.4208 N   0  0  0  0  0  0  0  0  0  0  0  0
   -3.2999    1.2211   -4.8060 C   0  0  0  0  0  0  0  0  0  0  0  0
   -4.8564    2.0832   -3.1496 C   0  0  0  0  0  0  0  0  0  0  0  0
   -4.4125    2.8303   -4.2226 C   0  0  0  0  0  0  0  0  0  0  0  0
   -4.2585    1.9681   -5.3568 N   0  0  0  0  0  0  0  0  0  0  0  0
   -2.0732    1.4933   -5.0203 O   0  0  0  0  0  0  0  0  0  0  0  0
   -3.3816    3.7132   -3.8763 C   0  0  0  0  0  0  0  0  0  0  0  0
   -3.4864    4.4093   -2.6994 C   0  0  0  0  0  0  0  0  0  0  0  0
   -4.4845    4.0228   -1.8167 C   0  0  0  0  0  0  0  0  0  0  0  0
   -5.0022    2.7199   -1.9125 C   0  0  0  0  0  0  0  0  0  0  0  0
    2.6432   -0.3798   -0.0987 H   0  0  0  0  0  0  0  0  0  0  0  0
    1.7207    1.9364   -0.2384 H   0  0  0  0  0  0  0  0  0  0  0  0
   -0.6360    2.3356    0.4052 H   0  0  0  0  0  0  0  0  0  0  0  0
   -1.9728    0.5961    1.1230 H   0  0  0  0  0  0  0  0  0  0  0  0
    1.1037   -2.2835    0.1638 H   0  0  0  0  0  0  0  0  0  0  0  0
   -0.9942   -3.1579    0.5874 H   0  0  0  0  0  0  0  0  0  0  0  0
   -3.5663   -0.2449    1.1366 H   0  0  0  0  0  0  0  0  0  0  0  0
   -5.1274   -0.2204    2.8364 H   0  0  0  0  0  0  0  0  0  0  0  0
   -5.2284   -2.1397    4.4324 H   0  0  0  0  0  0  0  0  0  0  0  0
   -3.7656   -4.1316    4.0709 H   0  0  0  0  0  0  0  0  0  0  0  0
   -2.0175   -4.1118    2.3175 H   0  0  0  0  0  0  0  0  0  0  0  0
   -0.7680   -3.6090   -1.8648 H   0  0  0  0  0  0  0  0  0  0  0  0
   -2.0411   -2.9874   -2.7917 H   0  0  0  0  0  0  0  0  0  0  0  0
    0.2456   -1.2330   -1.7456 H   0  0  0  0  0  0  0  0  0  0  0  0
   -0.0370   -1.6676   -3.3502 H   0  0  0  0  0  0  0  0  0  0  0  0
   -1.6875    0.4630   -0.8902 H   0  0  0  0  0  0  0  0  0  0  0  0
   -3.0463    0.7800   -1.5164 H   0  0  0  0  0  0  0  0  0  0  0  0
   -3.6789   -1.7607   -1.8325 H   0  0  0  0  0  0  0  0  0  0  0  0
   -3.9804   -1.1186   -0.4230 H   0  0  0  0  0  0  0  0  0  0  0  0
   -2.1908    0.3008   -3.6255 H   0  0  0  0  0  0  0  0  0  0  0  0
   -1.5348   -0.8415   -4.6479 H   0  0  0  0  0  0  0  0  0  0  0  0
   -3.8450   -1.2226   -5.0404 H   0  0  0  0  0  0  0  0  0  0  0  0
   -3.6400   -2.3814   -3.8156 H   0  0  0  0  0  0  0  0  0  0  0  0
   -5.3270   -1.3123   -2.9012 H   0  0  0  0  0  0  0  0  0  0  0  0
   -4.8692   -0.2650   -2.2451 H   0  0  0  0  0  0  0  0  0  0  0  0
   -4.9394    1.2038   -5.3335 H   0  0  0  0  0  0  0  0  0  0  0  0
   -2.4155    3.7179   -4.3930 H   0  0  0  0  0  0  0  0  0  0  0  0
   -2.8136    5.2429   -2.5392 H   0  0  0  0  0  0  0  0  0  0  0  0
   -4.8098    4.7273   -1.0622 H   0  0  0  0  0  0  0  0  0  0  0  0
   -5.5582    2.3111   -1.0729 H   0  0  0  0  0  0  0  0  0  0  0  0
  1  2  2  0  0  0  0
  1 33  1  0  0  0  0
  2  3  1  0  0  0  0
  2 34  1  0  0  0  0
  3  4  2  0  0  0  0
  3 35  1  0  0  0  0
  4  5  1  0  0  0  0
  4 36  1  0  0  0  0
  5  6  2  0  0  0  0
  5  7  1  0  0  0  0
  6  1  1  0  0  0  0
  6 37  1  0  0  0  0
  7  8  1  0  0  0  0
  7  9  1  0  0  0  0
  7 38  1  0  0  0  0
  8 10  2  0  0  0  0
  9 15  1  0  0  0  0
 10 11  1  0  0  0  0
 10 39  1  0  0  0  0
 11 12  2  0  0  0  0
 11 40  1  0  0  0  0
 12 13  1  0  0  0  0
 12 41  1  0  0  0  0
 13 14  2  0  0  0  0
 13 42  1  0  0  0  0
 14  8  1  0  0  0  0
 14 43  1  0  0  0  0
 15 16  1  0  0  0  0
 15 44  1  0  0  0  0
 15 45  1  0  0  0  0
 16 17  1  0  0  0  0
 16 46  1  0  0  0  0
 16 47  1  0  0  0  0
 17 18  1  0  0  0  0
 17 20  1  0  0  0  0
 18 19  1  0  0  0  0
 18 48  1  0  0  0  0
 18 49  1  0  0  0  0
 19  9  1  0  0  0  0
 19 50  1  0  0  0  0
 19 51  1  0  0  0  0
 20 21  1  0  0  0  0
 20 52  1  0  0  0  0
 20 53  1  0  0  0  0
 21 22  1  0  0  0  0
 21 54  1  0  0  0  0
 21 55  1  0  0  0  0
 22 23  1  0  0  0  0
 22 56  1  0  0  0  0
 22 57  1  0  0  0  0
 23 24  1  0  0  0  0
 23 25  1  0  0  0  0
 24 27  1  0  0  0  0
 24 28  2  0  0  0  0
 25 26  2  0  0  0  0
 26 27  1  0  0  0  0
 26 29  1  0  0  0  0
 27 58  1  0  0  0  0
 29 30  2  0  0  0  0
 29 59  1  0  0  0  0
 30 31  1  0  0  0  0
 30 60  1  0  0  0  0
 31 32  2  0  0  0  0
 31 61  1  0  0  0  0
 32 25  1  0  0  0  0
 32 62  1  0  0  0  0
M  END
>  <DRUGBANK_ID>
DB12877

>  <COMMON_NAME>
Oxatomide

>  <CAS_NUMBER>
60607-34-3

>  <UNII>
J31IL9Z2EE

>  <SYNONYMS>
Oxatomida; Oxatomide; Oxatomidum

$$$$
