2D7
 OpenBabel10282417163D

 40 42  0  0  0  0  0  0  0  0999 V2000
    0.7932   -0.0075    0.0479 O   0  0  0  0  0  0  0  0  0  0  0  0
    2.0251   -0.1133    0.1476 C   0  0  0  0  0  0  0  0  0  0  0  0
    2.8828   -0.7408   -0.9644 C   0  0  0  0  0  0  0  0  0  0  0  0
    2.7425    0.4047    1.3545 C   0  0  0  0  0  0  0  0  0  0  0  0
    2.3462    0.5004    2.6797 C   0  0  0  0  0  0  0  0  0  0  0  0
    3.2336    1.0689    3.6647 C   0  0  0  0  0  0  0  0  0  0  0  0
    4.0154    0.8221    1.0856 C   0  0  0  0  0  0  0  0  0  0  0  0
    4.9229    1.2467    2.0545 C   0  0  0  0  0  0  0  0  0  0  0  0
    4.5194    1.5398    3.3297 C   0  0  0  0  0  0  0  0  0  0  0  0
    5.3526    2.2902    4.2142 N   0  0  0  0  0  0  0  0  0  0  0  0
    6.5479    3.0122    4.0216 C   0  0  0  0  0  0  0  0  0  0  0  0
    7.1221    3.4573    5.0247 O   0  0  0  0  0  0  0  0  0  0  0  0
    7.1335    3.2593    2.7016 C   0  0  0  0  0  0  0  0  0  0  0  0
    8.4533    2.9622    2.2679 C   0  0  0  0  0  0  0  0  0  0  0  0
    8.6036    3.0818    0.9444 N   0  0  0  0  0  0  0  0  0  0  0  0
    7.4413    3.6048    0.5439 N   0  0  0  0  0  0  0  0  0  0  0  0
    6.5422    3.8042    1.5626 C   0  0  0  0  0  0  0  0  0  0  0  0
    5.1709    4.2195    1.3028 C   0  0  0  0  0  0  0  0  0  0  0  0
    4.5388    5.1110    2.1669 C   0  0  0  0  0  0  0  0  0  0  0  0
    3.1837    5.3865    2.0095 C   0  0  0  0  0  0  0  0  0  0  0  0
    2.4884    6.6715    2.9198 Cl  0  0  0  0  0  0  0  0  0  0  0  0
    2.4222    4.6657    1.0886 C   0  0  0  0  0  0  0  0  0  0  0  0
    1.0659    4.8243    0.9980 O   0  0  0  0  0  0  0  0  0  0  0  0
    3.0413    3.7761    0.2123 C   0  0  0  0  0  0  0  0  0  0  0  0
    4.4319    3.6316    0.2634 C   0  0  0  0  0  0  0  0  0  0  0  0
    5.0601    2.8074   -0.6486 O   0  0  0  0  0  0  0  0  0  0  0  0
    3.4733   -0.0017   -1.5243 H   0  0  0  0  0  0  0  0  0  0  0  0
    3.5716   -1.4719   -0.5235 H   0  0  0  0  0  0  0  0  0  0  0  0
    2.2601   -1.2574   -1.6952 H   0  0  0  0  0  0  0  0  0  0  0  0
    1.3576    0.1444    2.9555 H   0  0  0  0  0  0  0  0  0  0  0  0
    2.8874    1.1111    4.6943 H   0  0  0  0  0  0  0  0  0  0  0  0
    4.2281    0.9507    0.0382 H   0  0  0  0  0  0  0  0  0  0  0  0
    5.9318    1.4378    1.7398 H   0  0  0  0  0  0  0  0  0  0  0  0
    5.0496    2.3538    5.1803 H   0  0  0  0  0  0  0  0  0  0  0  0
    9.2889    2.5804    2.8413 H   0  0  0  0  0  0  0  0  0  0  0  0
    7.2429    3.6736   -0.4525 H   0  0  0  0  0  0  0  0  0  0  0  0
    5.1085    5.6005    2.9508 H   0  0  0  0  0  0  0  0  0  0  0  0
    0.8011    5.5268    1.6230 H   0  0  0  0  0  0  0  0  0  0  0  0
    2.4291    3.1818   -0.4626 H   0  0  0  0  0  0  0  0  0  0  0  0
    5.6339    2.1746   -0.1673 H   0  0  0  0  0  0  0  0  0  0  0  0
  1  2  2  0  0  0  0
  2  3  1  0  0  0  0
  2  4  1  0  0  0  0
  3 27  1  0  0  0  0
  3 28  1  0  0  0  0
  3 29  1  0  0  0  0
  4  5  2  0  0  0  0
  4  7  1  0  0  0  0
  5  6  1  0  0  0  0
  5 30  1  0  0  0  0
  6  9  2  0  0  0  0
  6 31  1  0  0  0  0
  7  8  2  0  0  0  0
  7 32  1  0  0  0  0
  8  9  1  0  0  0  0
  8 33  1  0  0  0  0
  9 10  1  0  0  0  0
 10 11  1  0  0  0  0
 10 34  1  0  0  0  0
 11 12  2  0  0  0  0
 11 13  1  0  0  0  0
 13 14  1  0  0  0  0
 13 17  2  0  0  0  0
 14 15  2  0  0  0  0
 14 35  1  0  0  0  0
 15 16  1  0  0  0  0
 16 17  1  0  0  0  0
 16 36  1  0  0  0  0
 17 18  1  0  0  0  0
 18 19  2  0  0  0  0
 18 25  1  0  0  0  0
 19 20  1  0  0  0  0
 19 37  1  0  0  0  0
 20 21  1  0  0  0  0
 20 22  2  0  0  0  0
 22 23  1  0  0  0  0
 22 24  1  0  0  0  0
 23 38  1  0  0  0  0
 24 25  2  0  0  0  0
 24 39  1  0  0  0  0
 25 26  1  0  0  0  0
 26 40  1  0  0  0  0
M  END
>  <DRUGBANK_ID>
DB06956

>  <COMMON_NAME>
N-(4-ACETYLPHENYL)-5-(5-CHLORO-2,4-DIHYDROXYPHENYL)-1H-PYRAZOLE-4-CARBOXAMIDE

$$$$
