
 OpenBabel10282417153D

 31 30  0  0  1  0  0  0  0  0999 V2000
    1.8788    0.3838    1.3928 Cl  0  0  0  0  0  0  0  0  0  0  0  0
    3.3522    2.5119   -3.1318 S   0  0  0  0  0  0  0  0  0  0  0  0
    0.4971    0.2443   -1.5771 S   0  0  0  0  0  0  0  0  0  0  0  0
    3.0020    1.4782   -4.0997 O   0  0  0  0  0  0  0  0  0  0  0  0
    2.9944    3.8844   -3.3579 O   0  0  0  0  0  0  0  0  0  0  0  0
   -0.3204    0.1845   -0.3736 O   0  0  0  0  0  0  0  0  0  0  0  0
   -0.1263    0.0965   -2.8808 O   0  0  0  0  0  0  0  0  0  0  0  0
    1.1429    4.1182   -1.5757 O   0  0  0  0  0  0  0  0  0  0  0  0
    2.7674    1.9119   -1.5402 N   0  0  0  0  0  0  0  0  0  0  0  0
    1.2846    1.7643   -1.5604 N   0  0  0  0  0  0  0  0  0  0  0  0
   -0.8112    3.1762   -1.7402 N   0  0  0  0  0  0  0  0  0  0  0  0
    3.5057    0.7309   -1.0551 C   0  0  0  0  0  0  0  0  0  0  0  0
    5.1461    2.5076   -3.0055 C   0  0  0  0  0  0  0  0  0  0  0  0
    3.3811    0.3685    0.4465 C   0  0  0  0  0  0  0  0  0  0  0  0
    0.5511    3.0364   -1.6320 C   0  0  0  0  0  0  0  0  0  0  0  0
    1.4641   -1.2593   -1.4182 C   0  0  0  0  0  0  0  0  0  0  0  0
   -1.9001    2.2479   -1.6023 C   0  0  0  0  0  0  0  0  0  0  0  0
   -1.0736    4.1534   -1.8148 H   0  0  0  0  0  0  0  0  0  0  0  0
    4.5780    0.8741   -1.1767 H   0  0  0  0  0  0  0  0  0  0  0  0
    3.3203   -0.0599   -1.7778 H   0  0  0  0  0  0  0  0  0  0  0  0
    5.4745    3.1684   -2.2012 H   0  0  0  0  0  0  0  0  0  0  0  0
    5.5266    1.4939   -2.8884 H   0  0  0  0  0  0  0  0  0  0  0  0
    5.5375    2.8946   -3.9545 H   0  0  0  0  0  0  0  0  0  0  0  0
    3.9869    1.0634    1.0102 H   0  0  0  0  0  0  0  0  0  0  0  0
    3.7775   -0.6458    0.5614 H   0  0  0  0  0  0  0  0  0  0  0  0
    2.0548   -1.4477   -2.3095 H   0  0  0  0  0  0  0  0  0  0  0  0
    2.0422   -1.3481   -0.5087 H   0  0  0  0  0  0  0  0  0  0  0  0
    0.7329   -2.0684   -1.3140 H   0  0  0  0  0  0  0  0  0  0  0  0
   -2.4277    2.4335   -0.6656 H   0  0  0  0  0  0  0  0  0  0  0  0
   -2.5340    2.2752   -2.4851 H   0  0  0  0  0  0  0  0  0  0  0  0
   -1.5923    1.2371   -1.5591 H   0  0  0  0  0  0  0  0  0  0  0  0
  1 14  1  0  0  0  0
  2  4  2  0  0  0  0
  2  5  2  0  0  0  0
  2  9  1  0  0  0  0
  2 13  1  0  0  0  0
  3  6  2  0  0  0  0
  3  7  2  0  0  0  0
  3 10  1  0  0  0  0
  3 16  1  0  0  0  0
  8 15  2  0  0  0  0
  9 10  1  0  0  0  0
  9 12  1  0  0  0  0
 10 15  1  0  0  0  0
 11 15  1  0  0  0  0
 11 17  1  0  0  0  0
 11 18  1  0  0  0  0
 12 14  1  0  0  0  0
 12 19  1  0  0  0  0
 12 20  1  0  0  0  0
 13 21  1  0  0  0  0
 13 22  1  0  0  0  0
 13 23  1  0  0  0  0
 14 24  1  0  0  0  0
 14 25  1  0  0  0  0
 16 26  1  0  0  0  0
 16 27  1  0  0  0  0
 16 28  1  0  0  0  0
 17 29  1  0  0  0  0
 17 30  1  0  0  0  0
 17 31  1  0  0  0  0
M  END
>  <DRUGBANK_ID>
DB05817

>  <SECONDARY_ACCESSION_NUMBERS>
DB12324

>  <COMMON_NAME>
Laromustine

>  <CAS_NUMBER>
173424-77-6

>  <UNII>
14J2G0U3NQ

>  <SYNONYMS>
Cloretazine; Laromustine; Onrigin

$$$$
