
 OpenBabel10282417123D

 31 32  0  0  0  0  0  0  0  0999 V2000
    0.9127   -0.0956    0.0974 O   0  0  0  0  0  0  0  0  0  0  0  0
    1.0280    1.7332    1.3725 O   0  0  0  0  0  0  0  0  0  0  0  0
   -1.1784    0.9060    0.7322 C   0  0  2  0  0  0  0  0  0  0  0  0
   -1.8765   -0.3236    1.2974 C   0  0  0  0  0  0  0  0  0  0  0  0
   -3.4066   -2.5444    2.1225 C   0  0  0  0  0  0  0  0  0  0  0  0
   -3.1840   -0.5475    0.8442 C   0  0  0  0  0  0  0  0  0  0  0  0
   -1.3653   -1.2030    2.2637 C   0  0  0  0  0  0  0  0  0  0  0  0
   -3.9113   -1.6615    1.1847 C   0  0  0  0  0  0  0  0  0  0  0  0
   -2.1200   -2.3253    2.6459 C   0  0  0  0  0  0  0  0  0  0  0  0
   -1.5559    1.1697   -0.7510 C   0  0  0  0  0  0  0  0  0  0  0  0
   -4.2688   -3.6181    2.5865 C   0  0  0  0  0  0  0  0  0  0  0  0
    0.3330    0.8973    0.8008 C   0  0  0  0  0  0  0  0  0  0  0  0
   -4.7867   -4.5532    1.6807 C   0  0  0  0  0  0  0  0  0  0  0  0
   -4.6299   -3.6962    3.9371 C   0  0  0  0  0  0  0  0  0  0  0  0
   -5.5921   -5.5924    2.1301 C   0  0  0  0  0  0  0  0  0  0  0  0
   -5.3909   -4.7654    4.3947 C   0  0  0  0  0  0  0  0  0  0  0  0
   -5.8814   -5.7046    3.4888 C   0  0  0  0  0  0  0  0  0  0  0  0
    1.8770    0.0591    0.1678 H   0  0  0  0  0  0  0  0  0  0  0  0
   -1.5281    1.7531    1.3387 H   0  0  0  0  0  0  0  0  0  0  0  0
   -3.7014    0.1641    0.2160 H   0  0  0  0  0  0  0  0  0  0  0  0
   -0.4044   -1.0427    2.7520 H   0  0  0  0  0  0  0  0  0  0  0  0
   -4.8897   -1.7953    0.7336 H   0  0  0  0  0  0  0  0  0  0  0  0
   -1.7071   -3.0444    3.3534 H   0  0  0  0  0  0  0  0  0  0  0  0
   -2.5827    0.9335   -1.0374 H   0  0  0  0  0  0  0  0  0  0  0  0
   -1.4406    2.2291   -0.9890 H   0  0  0  0  0  0  0  0  0  0  0  0
   -0.9401    0.5783   -1.4357 H   0  0  0  0  0  0  0  0  0  0  0  0
   -4.5559   -4.4690    0.6202 H   0  0  0  0  0  0  0  0  0  0  0  0
   -4.3218   -2.9152    4.6306 H   0  0  0  0  0  0  0  0  0  0  0  0
   -5.9710   -6.3221    1.4213 H   0  0  0  0  0  0  0  0  0  0  0  0
   -5.5892   -4.8682    5.4571 H   0  0  0  0  0  0  0  0  0  0  0  0
   -6.4963   -6.5253    3.8434 H   0  0  0  0  0  0  0  0  0  0  0  0
  1 12  1  0  0  0  0
  1 18  1  0  0  0  0
  2 12  2  0  0  0  0
  3 12  1  0  0  0  0
  3 19  1  1  0  0  0
  3 10  1  0  0  0  0
  3  4  1  0  0  0  0
  4  6  2  0  0  0  0
  4  7  1  0  0  0  0
  5  8  2  0  0  0  0
  5  9  1  0  0  0  0
  5 11  1  0  0  0  0
  6  8  1  0  0  0  0
  6 20  1  0  0  0  0
  7  9  2  0  0  0  0
  7 21  1  0  0  0  0
  8 22  1  0  0  0  0
  9 23  1  0  0  0  0
 10 24  1  0  0  0  0
 10 25  1  0  0  0  0
 10 26  1  0  0  0  0
 11 13  2  0  0  0  0
 11 14  1  0  0  0  0
 13 15  1  0  0  0  0
 13 27  1  0  0  0  0
 14 16  2  0  0  0  0
 14 28  1  0  0  0  0
 15 17  2  0  0  0  0
 15 29  1  0  0  0  0
 16 17  1  0  0  0  0
 16 30  1  0  0  0  0
 17 31  1  0  0  0  0
M  END
>  <DRUGBANK_ID>
DB02047

>  <SECONDARY_ACCESSION_NUMBERS>
EXPT00679

>  <COMMON_NAME>
(+)-2-(4-biphenyl)propionic acid

>  <CAS_NUMBER>
10532-14-6

>  <UNII>
E4ZV1V9C3W

>  <SYNONYMS>
(2S)-2-(4-Biphenylyl)propanoic acid; 2-(1,1'-biphenyl-4-yl)propanoic acid

$$$$
