
 OpenBabel10282417223D

 37 38  0  0  1  0  0  0  0  0999 V2000
   -2.3810   -1.3816    1.1351 N   0  0  0  0  0  0  0  0  0  0  0  0
   -2.0437   -1.9086   -0.8986 C   0  0  0  0  0  0  0  0  0  0  0  0
   -1.3083   -1.2345   -2.1449 C   0  0  0  0  0  0  0  0  0  0  0  0
    0.1076   -1.2641   -1.9698 O   0  0  0  0  0  0  0  0  0  0  0  0
    0.6045   -0.6126   -0.7929 N   0  0  0  0  0  0  0  0  0  0  0  0
   -0.2012   -0.0103    0.1466 C   0  0  0  0  0  0  0  0  0  0  0  0
    0.0772    0.2129    1.3251 O   0  0  0  0  0  0  0  0  0  0  0  0
   -1.5767   -0.3475   -0.1690 C   0  0  2  0  0  0  0  0  0  0  0  0
   -0.8934   -2.3196    0.6178 C   0  0  0  0  0  0  0  0  0  0  0  0
   -1.4473   -3.6057   -0.0801 C   0  0  0  0  0  0  0  0  0  0  0  0
   -3.4426   -3.1328    0.1348 C   0  0  2  0  0  0  0  0  0  0  0  0
   -4.2387   -1.3022    0.4286 C   0  0  0  0  0  0  0  0  0  0  0  0
   -3.5257   -0.3998   -0.5469 N   0  0  0  0  0  0  0  0  0  0  0  0
   -4.3733   -1.3407   -1.7690 C   0  0  0  0  0  0  0  0  0  0  0  0
   -3.9640   -1.1744   -2.9327 O   0  0  0  0  0  0  0  0  0  0  0  0
   -4.3641   -2.9175   -1.1606 N   0  0  0  0  0  0  0  0  0  0  0  0
   -5.5132   -3.5905   -0.6890 O   0  0  0  0  0  0  0  0  0  0  0  0
   -5.3635   -5.2556   -0.9208 S   0  0  0  0  0  0  0  0  0  0  0  0
   -5.2797   -5.3100   -2.5294 O   0  0  0  0  0  0  0  0  0  0  0  0
   -4.1216   -5.8322   -0.4263 O   0  0  0  0  0  0  0  0  0  0  0  0
   -6.6146   -5.8333   -0.5025 O   0  0  0  0  0  0  0  0  0  0  0  0
   -1.3519   -1.0722    1.5634 H   0  0  0  0  0  0  0  0  0  0  0  0
   -2.4078   -0.3788    1.5069 H   0  0  0  0  0  0  0  0  0  0  0  0
   -2.2911   -2.8177   -1.5045 H   0  0  0  0  0  0  0  0  0  0  0  0
   -2.9600   -1.8592   -1.0148 H   0  0  0  0  0  0  0  0  0  0  0  0
   -1.6091   -1.8504   -3.0125 H   0  0  0  0  0  0  0  0  0  0  0  0
   -1.6876   -0.2241   -2.3036 H   0  0  0  0  0  0  0  0  0  0  0  0
    1.4170   -1.0756   -0.3967 H   0  0  0  0  0  0  0  0  0  0  0  0
   -1.9993    0.5609    0.2926 H   0  0  0  0  0  0  0  0  0  0  0  0
   -1.7579   -2.9726    1.4104 H   0  0  0  0  0  0  0  0  0  0  0  0
   -0.3662   -2.4129    1.5833 H   0  0  0  0  0  0  0  0  0  0  0  0
   -1.1254   -3.9355   -1.2025 H   0  0  0  0  0  0  0  0  0  0  0  0
   -0.4899   -3.0691   -0.5077 H   0  0  0  0  0  0  0  0  0  0  0  0
   -3.3304   -3.9871   -0.6141 H   0  0  0  0  0  0  0  0  0  0  0  0
   -5.3301   -1.0545    0.5185 H   0  0  0  0  0  0  0  0  0  0  0  0
   -4.0640   -0.4613    1.1732 H   0  0  0  0  0  0  0  0  0  0  0  0
   -6.0032   -4.7713   -2.9026 H   0  0  0  0  0  0  0  0  0  0  0  0
  1  2  1  0  0  0  0
  1 22  1  0  0  0  0
  1 23  1  0  0  0  0
  2  3  1  0  0  0  0
  2 24  1  0  0  0  0
  2 25  1  0  0  0  0
  3  4  1  0  0  0  0
  3 26  1  0  0  0  0
  3 27  1  0  0  0  0
  4  5  1  0  0  0  0
  5  6  1  0  0  0  0
  5 28  1  0  0  0  0
  6  7  2  0  0  0  0
  8  9  1  0  0  0  0
  8 13  1  0  0  0  0
  8 29  1  1  0  0  0
  8  6  1  0  0  0  0
  9 10  1  0  0  0  0
  9 30  1  0  0  0  0
  9 31  1  0  0  0  0
 10 32  1  0  0  0  0
 10 33  1  0  0  0  0
 11 10  1  0  0  0  0
 11 12  1  0  0  0  0
 11 16  1  0  0  0  0
 11 34  1  6  0  0  0
 12 35  1  0  0  0  0
 12 36  1  0  0  0  0
 13 12  1  0  0  0  0
 13 14  1  0  0  0  0
 14 16  1  0  0  0  0
 14 15  2  0  0  0  0
 16 17  1  0  0  0  0
 17 18  1  0  0  0  0
 18 19  1  0  0  0  0
 18 20  2  0  0  0  0
 18 21  2  0  0  0  0
 19 37  1  0  0  0  0
M  END
>  <DRUGBANK_ID>
DB15353

>  <COMMON_NAME>
Nacubactam

>  <CAS_NUMBER>
1452458-86-4

>  <UNII>
832O37V7MZ

>  <SYNONYMS>
Nacubactam

$$$$
