
 OpenBabel10282417223D

 25 27  0  0  0  0  0  0  0  0999 V2000
   -2.9030   -1.5251    0.0018 C   0  0  0  0  0  0  0  0  0  0  0  0
   -1.5089   -1.5671   -0.0004 C   0  0  0  0  0  0  0  0  0  0  0  0
   -0.7367   -0.3911   -0.0010 C   0  0  0  0  0  0  0  0  0  0  0  0
    0.7284   -0.4040   -0.0010 C   0  0  0  0  0  0  0  0  0  0  0  0
    1.5028   -1.5769   -0.0012 C   0  0  0  0  0  0  0  0  0  0  0  0
    2.9005   -1.5324   -0.0005 C   0  0  0  0  0  0  0  0  0  0  0  0
    3.5453   -0.3031    0.0001 C   0  0  0  0  0  0  0  0  0  0  0  0
    2.8143    0.8777    0.0006 C   0  0  0  0  0  0  0  0  0  0  0  0
    1.4181    0.8100   -0.0000 C   0  0  0  0  0  0  0  0  0  0  0  0
    0.7171    2.0362    0.0007 O   0  0  0  0  0  0  0  0  0  0  0  0
   -0.6715    2.1162    0.0007 C   0  0  0  0  0  0  0  0  0  0  0  0
   -1.2558    3.1957    0.0022 O   0  0  0  0  0  0  0  0  0  0  0  0
   -1.4213    0.8348   -0.0007 C   0  0  0  0  0  0  0  0  0  0  0  0
   -2.8301    0.8810   -0.0014 C   0  0  0  0  0  0  0  0  0  0  0  0
   -3.5549   -0.3038   -0.0003 C   0  0  0  0  0  0  0  0  0  0  0  0
   -4.9166   -0.3240   -0.0019 O   0  0  0  0  0  0  0  0  0  0  0  0
    4.9056   -0.2214    0.0001 O   0  0  0  0  0  0  0  0  0  0  0  0
   -3.4723   -2.4508    0.0047 H   0  0  0  0  0  0  0  0  0  0  0  0
   -1.0473   -2.5495   -0.0015 H   0  0  0  0  0  0  0  0  0  0  0  0
    1.0397   -2.5587   -0.0017 H   0  0  0  0  0  0  0  0  0  0  0  0
    3.4546   -2.4663   -0.0003 H   0  0  0  0  0  0  0  0  0  0  0  0
    3.3260    1.8352    0.0015 H   0  0  0  0  0  0  0  0  0  0  0  0
   -3.3403    1.8410   -0.0022 H   0  0  0  0  0  0  0  0  0  0  0  0
   -5.2533    0.5873   -0.0086 H   0  0  0  0  0  0  0  0  0  0  0  0
    5.2773   -1.1194   -0.0015 H   0  0  0  0  0  0  0  0  0  0  0  0
  1  2  2  0  0  0  0
  1 15  1  0  0  0  0
  1 18  1  0  0  0  0
  2  3  1  0  0  0  0
  2 19  1  0  0  0  0
  3  4  1  0  0  0  0
  3 13  2  0  0  0  0
  4  5  1  0  0  0  0
  4  9  2  0  0  0  0
  5  6  2  0  0  0  0
  5 20  1  0  0  0  0
  6  7  1  0  0  0  0
  6 21  1  0  0  0  0
  7  8  2  0  0  0  0
  7 17  1  0  0  0  0
  8  9  1  0  0  0  0
  8 22  1  0  0  0  0
  9 10  1  0  0  0  0
 10 11  1  0  0  0  0
 11 12  2  0  0  0  0
 11 13  1  0  0  0  0
 13 14  1  0  0  0  0
 14 15  2  0  0  0  0
 14 23  1  0  0  0  0
 15 16  1  0  0  0  0
 16 24  1  0  0  0  0
 17 25  1  0  0  0  0
M  END
>  <DRUGBANK_ID>
DB15464

>  <COMMON_NAME>
Urolithin A

>  <CAS_NUMBER>
1143-70-0

>  <UNII>
ILJ8NEF6DT

>  <SYNONYMS>
3,8-Dihydroxyurolithin; 3,8-Hydroxydibenzo-alpha-pyrone

$$$$
