
 OpenBabel10282417133D

 57 61  0  0  0  0  0  0  0  0999 V2000
    0.9484    0.0240   -0.1850 S   0  0  0  0  0  0  0  0  0  0  0  0
    0.7492   -3.3113    5.5057 O   0  0  0  0  0  0  0  0  0  0  0  0
    3.5558   -3.2900   -1.5403 O   0  0  0  0  0  0  0  0  0  0  0  0
    8.9838   -0.2157    3.5276 O   0  0  0  0  0  0  0  0  0  0  0  0
    6.1470   -3.3229    2.8256 N   0  0  0  0  0  0  0  0  0  0  0  0
    0.8986   -2.2801    3.5230 N   0  0  0  0  0  0  0  0  0  0  0  0
    6.9340   -3.9380    1.8841 N   0  0  0  0  0  0  0  0  0  0  0  0
    6.7989   -2.2061    3.3586 N   0  0  0  0  0  0  0  0  0  0  0  0
    8.8609   -3.0282    0.6641 N   0  0  0  0  0  0  0  0  0  0  0  0
    9.8948   -1.1044    1.6206 N   0  0  0  0  0  0  0  0  0  0  0  0
   10.7506   -2.0322   -0.2613 N   0  0  0  0  0  0  0  0  0  0  0  0
    0.4675   -2.4642    1.1157 C   0  0  0  0  0  0  0  0  0  0  0  0
    1.4191   -2.0723    2.2134 C   0  0  0  0  0  0  0  0  0  0  0  0
    5.0584   -3.9231    3.5201 C   0  0  0  0  0  0  0  0  0  0  0  0
    2.7186   -3.8129    4.2934 C   0  0  0  0  0  0  0  0  0  0  0  0
    3.8842   -3.1889    3.7891 C   0  0  0  0  0  0  0  0  0  0  0  0
    0.2062   -1.6064    0.0204 C   0  0  0  0  0  0  0  0  0  0  0  0
    1.4107   -3.1044    4.4923 C   0  0  0  0  0  0  0  0  0  0  0  0
    5.0626   -5.2843    3.8639 C   0  0  0  0  0  0  0  0  0  0  0  0
    7.9647   -3.0904    1.5829 C   0  0  0  0  0  0  0  0  0  0  0  0
    7.8721   -2.0540    2.6245 C   0  0  0  0  0  0  0  0  0  0  0  0
    2.7570   -5.1710    4.6217 C   0  0  0  0  0  0  0  0  0  0  0  0
    0.0982   -3.8324    1.0275 C   0  0  0  0  0  0  0  0  0  0  0  0
    3.9316   -5.8980    4.4258 C   0  0  0  0  0  0  0  0  0  0  0  0
    2.7668   -0.1116   -0.1643 C   0  0  0  0  0  0  0  0  0  0  0  0
   -0.5132   -2.1203   -1.0776 C   0  0  0  0  0  0  0  0  0  0  0  0
    3.5744   -1.2722   -0.2145 C   0  0  0  0  0  0  0  0  0  0  0  0
   -0.5889   -4.3254   -0.0794 C   0  0  0  0  0  0  0  0  0  0  0  0
   -0.9128   -3.4638   -1.1213 C   0  0  0  0  0  0  0  0  0  0  0  0
    8.9616   -1.0554    2.6274 C   0  0  0  0  0  0  0  0  0  0  0  0
    3.4407    1.1329   -0.1062 C   0  0  0  0  0  0  0  0  0  0  0  0
    4.9792   -1.1634   -0.1309 C   0  0  0  0  0  0  0  0  0  0  0  0
    3.0909   -2.6806   -0.3552 C   0  0  0  0  0  0  0  0  0  0  0  0
    4.8427    1.2191   -0.0848 C   0  0  0  0  0  0  0  0  0  0  0  0
    5.6126    0.0666   -0.0830 C   0  0  0  0  0  0  0  0  0  0  0  0
    9.8117   -2.0334    0.7132 C   0  0  0  0  0  0  0  0  0  0  0  0
   -0.0017   -1.8642    3.7259 H   0  0  0  0  0  0  0  0  0  0  0  0
    6.5136   -4.5359    1.1816 H   0  0  0  0  0  0  0  0  0  0  0  0
   10.7564   -2.7351   -0.9854 H   0  0  0  0  0  0  0  0  0  0  0  0
   11.4981   -1.3504   -0.2374 H   0  0  0  0  0  0  0  0  0  0  0  0
    3.0222   -2.8603   -2.2340 H   0  0  0  0  0  0  0  0  0  0  0  0
    2.2921   -2.6968    2.0789 H   0  0  0  0  0  0  0  0  0  0  0  0
    1.7528   -1.0373    2.1738 H   0  0  0  0  0  0  0  0  0  0  0  0
    3.8658   -2.1323    3.5332 H   0  0  0  0  0  0  0  0  0  0  0  0
    5.9644   -5.8774    3.7306 H   0  0  0  0  0  0  0  0  0  0  0  0
    1.8747   -5.6630    5.0314 H   0  0  0  0  0  0  0  0  0  0  0  0
    0.4381   -4.5429    1.7829 H   0  0  0  0  0  0  0  0  0  0  0  0
    3.9645   -6.9481    4.7102 H   0  0  0  0  0  0  0  0  0  0  0  0
   -0.7048   -1.4987   -1.9506 H   0  0  0  0  0  0  0  0  0  0  0  0
   -0.8407   -5.3829   -0.1409 H   0  0  0  0  0  0  0  0  0  0  0  0
   -1.4398   -3.8503   -1.9910 H   0  0  0  0  0  0  0  0  0  0  0  0
    2.8845    2.0711   -0.0892 H   0  0  0  0  0  0  0  0  0  0  0  0
    5.5764   -2.0737   -0.1366 H   0  0  0  0  0  0  0  0  0  0  0  0
    3.3657   -3.2894    0.5118 H   0  0  0  0  0  0  0  0  0  0  0  0
    2.0399   -2.7099   -0.4851 H   0  0  0  0  0  0  0  0  0  0  0  0
    5.3365    2.1883   -0.0713 H   0  0  0  0  0  0  0  0  0  0  0  0
    6.6975    0.1175   -0.0669 H   0  0  0  0  0  0  0  0  0  0  0  0
  1 17  1  0  0  0  0
  1 25  1  0  0  0  0
  2 18  2  0  0  0  0
  3 33  1  0  0  0  0
  3 41  1  0  0  0  0
  4 30  2  0  0  0  0
  5  7  1  0  0  0  0
  5  8  1  0  0  0  0
  5 14  1  0  0  0  0
  6 13  1  0  0  0  0
  6 18  1  0  0  0  0
  6 37  1  0  0  0  0
  7 20  1  0  0  0  0
  7 38  1  0  0  0  0
  8 21  2  0  0  0  0
  9 20  2  0  0  0  0
  9 36  1  0  0  0  0
 10 30  1  0  0  0  0
 10 36  2  0  0  0  0
 11 36  1  0  0  0  0
 11 39  1  0  0  0  0
 11 40  1  0  0  0  0
 12 13  1  0  0  0  0
 12 17  1  0  0  0  0
 12 23  2  0  0  0  0
 13 42  1  0  0  0  0
 13 43  1  0  0  0  0
 14 16  1  0  0  0  0
 14 19  2  0  0  0  0
 15 16  2  0  0  0  0
 15 18  1  0  0  0  0
 15 22  1  0  0  0  0
 16 44  1  0  0  0  0
 17 26  2  0  0  0  0
 19 24  1  0  0  0  0
 19 45  1  0  0  0  0
 20 21  1  0  0  0  0
 21 30  1  0  0  0  0
 22 24  2  0  0  0  0
 22 46  1  0  0  0  0
 23 28  1  0  0  0  0
 23 47  1  0  0  0  0
 24 48  1  0  0  0  0
 25 27  1  0  0  0  0
 25 31  2  0  0  0  0
 26 29  1  0  0  0  0
 26 49  1  0  0  0  0
 27 32  2  0  0  0  0
 27 33  1  0  0  0  0
 28 29  2  0  0  0  0
 28 50  1  0  0  0  0
 29 51  1  0  0  0  0
 31 34  1  0  0  0  0
 31 52  1  0  0  0  0
 32 35  1  0  0  0  0
 32 53  1  0  0  0  0
 33 54  1  0  0  0  0
 33 55  1  0  0  0  0
 34 35  2  0  0  0  0
 34 56  1  0  0  0  0
 35 57  1  0  0  0  0
M  END
>  <DRUGBANK_ID>
DB03231

>  <SECONDARY_ACCESSION_NUMBERS>
EXPT02670

>  <COMMON_NAME>
3-(5-Amino-7-oxo-3,7-dihydro-2H-[1,2,3]triazolo[4,5-d]pyrimidin-2-yl)-N-(2-{[2-(hydroxymethyl)phenyl]sulfanyl}benzyl)benzamide

$$$$
