192
 OpenBabel10282417103D

 47 49  0  0  0  0  0  0  0  0999 V2000
    0.9040    0.6010    0.3945 O   0  0  0  0  0  0  0  0  0  0  0  0
    3.0249   -2.6846   -0.4877 N   0  0  0  0  0  0  0  0  0  0  0  0
    2.2471   -0.3899   -1.1040 N   0  0  0  0  0  0  0  0  0  0  0  0
    3.2475    1.3162    0.1843 C   0  0  0  0  0  0  0  0  0  0  0  0
    4.5421    0.5175   -0.1980 C   0  0  0  0  0  0  0  0  0  0  0  0
    3.1088    2.5883   -0.6400 C   0  0  0  0  0  0  0  0  0  0  0  0
    3.3106    1.8471    1.6094 C   0  0  0  0  0  0  0  0  0  0  0  0
    3.1878    3.7071    0.2022 C   0  0  0  0  0  0  0  0  0  0  0  0
    3.3376    3.2572    1.5749 C   0  0  0  0  0  0  0  0  0  0  0  0
    4.7383   -0.8701    0.5705 C   0  0  0  0  0  0  0  0  0  0  0  0
    2.0223    0.5214   -0.1288 C   0  0  0  0  0  0  0  0  0  0  0  0
    3.5633   -1.9990    0.7275 C   0  0  0  0  0  0  0  0  0  0  0  0
    2.8491    2.6853   -2.0055 C   0  0  0  0  0  0  0  0  0  0  0  0
    3.3786    1.1479    2.8109 C   0  0  0  0  0  0  0  0  0  0  0  0
    3.1028    4.9665   -0.3531 C   0  0  0  0  0  0  0  0  0  0  0  0
    3.4998    3.9695    2.7488 C   0  0  0  0  0  0  0  0  0  0  0  0
    2.7502    3.9519   -2.5564 C   0  0  0  0  0  0  0  0  0  0  0  0
    3.5710    1.8676    3.9862 C   0  0  0  0  0  0  0  0  0  0  0  0
    2.8982    5.0822   -1.7382 C   0  0  0  0  0  0  0  0  0  0  0  0
    3.6410    3.2666    3.9528 C   0  0  0  0  0  0  0  0  0  0  0  0
    1.6472   -3.2856   -0.5204 C   0  0  0  0  0  0  0  0  0  0  0  0
    0.4558   -2.4353    0.0118 C   0  0  0  0  0  0  0  0  0  0  0  0
    1.2963   -3.5725   -2.0078 C   0  0  0  0  0  0  0  0  0  0  0  0
    3.2300   -2.2923   -1.4042 H   0  0  0  0  0  0  0  0  0  0  0  0
    3.2078   -0.6668   -1.2159 H   0  0  0  0  0  0  0  0  0  0  0  0
    1.8977   -1.2191   -0.6768 H   0  0  0  0  0  0  0  0  0  0  0  0
    4.5657    0.3390   -1.2878 H   0  0  0  0  0  0  0  0  0  0  0  0
    5.4288    1.1658   -0.1124 H   0  0  0  0  0  0  0  0  0  0  0  0
    5.6139   -1.3587    0.1304 H   0  0  0  0  0  0  0  0  0  0  0  0
    5.0573   -0.5859    1.5856 H   0  0  0  0  0  0  0  0  0  0  0  0
    3.9271   -2.7893    1.4003 H   0  0  0  0  0  0  0  0  0  0  0  0
    2.7558   -1.5315    1.2982 H   0  0  0  0  0  0  0  0  0  0  0  0
    2.7073    1.8022   -2.6240 H   0  0  0  0  0  0  0  0  0  0  0  0
    3.3055    0.0676    2.8621 H   0  0  0  0  0  0  0  0  0  0  0  0
    3.1978    5.8520    0.2626 H   0  0  0  0  0  0  0  0  0  0  0  0
    3.5357    5.0519    2.7412 H   0  0  0  0  0  0  0  0  0  0  0  0
    2.5669    4.0604   -3.6223 H   0  0  0  0  0  0  0  0  0  0  0  0
    3.6753    1.3387    4.9313 H   0  0  0  0  0  0  0  0  0  0  0  0
    2.8482    6.0677   -2.1911 H   0  0  0  0  0  0  0  0  0  0  0  0
    3.8026    3.8118    4.8787 H   0  0  0  0  0  0  0  0  0  0  0  0
    1.6943   -4.2193    0.0420 H   0  0  0  0  0  0  0  0  0  0  0  0
    0.1729   -1.6270   -0.6850 H   0  0  0  0  0  0  0  0  0  0  0  0
   -0.4617   -3.0153    0.1008 H   0  0  0  0  0  0  0  0  0  0  0  0
    0.6823   -1.9858    0.9809 H   0  0  0  0  0  0  0  0  0  0  0  0
    2.0870   -4.1204   -2.5286 H   0  0  0  0  0  0  0  0  0  0  0  0
    0.3702   -4.1541   -2.0769 H   0  0  0  0  0  0  0  0  0  0  0  0
    1.1238   -2.6467   -2.5809 H   0  0  0  0  0  0  0  0  0  0  0  0
  1 11  2  0  0  0  0
  2 12  1  0  0  0  0
  2 21  1  0  0  0  0
  2 24  1  0  0  0  0
  3 11  1  0  0  0  0
  3 25  1  0  0  0  0
  3 26  1  0  0  0  0
  4  5  1  0  0  0  0
  4  6  1  0  0  0  0
  4  7  1  0  0  0  0
  4 11  1  0  0  0  0
  5 10  1  0  0  0  0
  5 27  1  0  0  0  0
  5 28  1  0  0  0  0
  6  8  1  0  0  0  0
  6 13  2  0  0  0  0
  7  9  1  0  0  0  0
  7 14  2  0  0  0  0
  8  9  1  0  0  0  0
  8 15  2  0  0  0  0
  9 16  2  0  0  0  0
 10 12  1  0  0  0  0
 10 29  1  0  0  0  0
 10 30  1  0  0  0  0
 12 31  1  0  0  0  0
 12 32  1  0  0  0  0
 13 17  1  0  0  0  0
 13 33  1  0  0  0  0
 14 18  1  0  0  0  0
 14 34  1  0  0  0  0
 15 19  1  0  0  0  0
 15 35  1  0  0  0  0
 16 20  1  0  0  0  0
 16 36  1  0  0  0  0
 17 19  2  0  0  0  0
 17 37  1  0  0  0  0
 18 20  2  0  0  0  0
 18 38  1  0  0  0  0
 19 39  1  0  0  0  0
 20 40  1  0  0  0  0
 21 22  1  0  0  0  0
 21 23  1  0  0  0  0
 21 41  1  0  0  0  0
 22 42  1  0  0  0  0
 22 43  1  0  0  0  0
 22 44  1  0  0  0  0
 23 45  1  0  0  0  0
 23 46  1  0  0  0  0
 23 47  1  0  0  0  0
M  END
>  <DRUGBANK_ID>
DB00192

>  <SECONDARY_ACCESSION_NUMBERS>
APRD01032

>  <COMMON_NAME>
Indecainide

>  <CAS_NUMBER>
74517-78-5

>  <UNII>
3AZF20DM1T

>  <SYNONYMS>
Indecainida; Indecainide; Indecainidum

$$$$
