
 OpenBabel10282417153D

 62 65  0  0  0  0  0  0  0  0999 V2000
    7.0361   -4.5888    3.8059 C   0  0  2  0  0  0  0  0  0  0  0  0
    7.4390   -4.3309    1.9140 C   0  0  1  0  0  0  0  0  0  0  0  0
    6.6680   -9.3996    5.7187 C   0  0  2  0  0  0  0  0  0  0  0  0
    5.9990   -7.0922    4.3161 C   0  0  1  0  0  0  0  0  0  0  0  0
    6.4947   -5.9317    3.4174 C   0  0  2  0  0  0  0  0  0  0  0  0
    7.0846   -7.7320    5.1999 C   0  0  2  0  0  0  0  0  0  0  0  0
    5.2246   -9.7555    5.5703 C   0  0  0  0  0  0  0  0  0  0  0  0
    7.1823   -5.5043    0.5491 O   0  0  0  0  0  0  0  0  0  0  0  0
    8.1080   -5.1841    5.1629 C   0  0  0  0  0  0  0  0  0  0  0  0
    7.4424   -6.3628    6.1362 C   0  0  2  0  0  0  0  0  0  0  0  0
    7.1582  -11.1032    4.9345 C   0  0  0  0  0  0  0  0  0  0  0  0
    7.9827   -5.6920   -0.7257 C   0  0  0  0  0  0  0  0  0  0  0  0
    7.0540   -3.3961    0.4978 C   0  0  0  0  0  0  0  0  0  0  0  0
    5.1378  -10.9091    6.3290 C   0  0  0  0  0  0  0  0  0  0  0  0
    8.6631   -5.1845    2.0903 C   0  0  0  0  0  0  0  0  0  0  0  0
    7.8448   -6.3605    2.7349 C   0  0  0  0  0  0  0  0  0  0  0  0
    5.5139   -8.2319    3.4397 C   0  0  0  0  0  0  0  0  0  0  0  0
    6.5941  -12.3691    5.2256 C   0  0  0  0  0  0  0  0  0  0  0  0
    9.5099   -5.7840   -0.5905 C   0  0  0  0  0  0  0  0  0  0  0  0
    5.1102  -12.0813    5.4139 C   0  0  0  0  0  0  0  0  0  0  0  0
    4.6854   -9.3019    4.2169 C   0  0  0  0  0  0  0  0  0  0  0  0
    7.4435   -5.8378   -1.8327 O   0  0  0  0  0  0  0  0  0  0  0  0
    7.8539   -3.4024   -0.4479 O   0  0  0  0  0  0  0  0  0  0  0  0
    4.2307  -12.3580    4.7140 O   0  0  0  0  0  0  0  0  0  0  0  0
    6.3330   -3.5137    4.8590 C   0  0  0  0  0  0  0  0  0  0  0  0
    8.3621   -6.7264    7.1683 O   0  0  0  0  0  0  0  0  0  0  0  0
    9.9916   -7.4755   -0.8890 Cl  0  0  0  0  0  0  0  0  0  0  0  0
   10.4891   -4.6979   -1.6100 Cl  0  0  0  0  0  0  0  0  0  0  0  0
    5.8531   -2.7887    0.2379 O   0  0  0  0  0  0  0  0  0  0  0  0
    6.2991   -8.7855    7.2614 C   0  0  0  0  0  0  0  0  0  0  0  0
    5.5881   -2.3056   -1.1976 C   0  0  0  0  0  0  0  0  0  0  0  0
    6.7245   -1.6505   -2.0337 C   0  0  0  0  0  0  0  0  0  0  0  0
    8.0553   -7.9588    4.7747 H   0  0  0  0  0  0  0  0  0  0  0  0
    5.1638   -6.6931    4.9231 H   0  0  0  0  0  0  0  0  0  0  0  0
    5.6615   -5.6649    2.7523 H   0  0  0  0  0  0  0  0  0  0  0  0
    8.3912   -4.2910    5.7590 H   0  0  0  0  0  0  0  0  0  0  0  0
    9.1159   -5.5736    4.9933 H   0  0  0  0  0  0  0  0  0  0  0  0
    6.6009   -5.8913    6.6963 H   0  0  0  0  0  0  0  0  0  0  0  0
    6.7253  -11.2788    3.8450 H   0  0  0  0  0  0  0  0  0  0  0  0
    6.0363  -11.1055    7.0182 H   0  0  0  0  0  0  0  0  0  0  0  0
    9.2222   -4.2384    2.1297 H   0  0  0  0  0  0  0  0  0  0  0  0
    9.4468   -5.3348    2.8478 H   0  0  0  0  0  0  0  0  0  0  0  0
    7.6955   -7.1771    2.0332 H   0  0  0  0  0  0  0  0  0  0  0  0
    8.4969   -6.7974    3.4820 H   0  0  0  0  0  0  0  0  0  0  0  0
    4.9656   -7.8039    2.5916 H   0  0  0  0  0  0  0  0  0  0  0  0
    6.3993   -8.7074    2.9962 H   0  0  0  0  0  0  0  0  0  0  0  0
    6.9431  -13.2262    5.8279 H   0  0  0  0  0  0  0  0  0  0  0  0
    9.8227   -5.5356    0.3966 H   0  0  0  0  0  0  0  0  0  0  0  0
    3.6528   -8.9464    4.2311 H   0  0  0  0  0  0  0  0  0  0  0  0
    4.6759  -10.2009    3.6139 H   0  0  0  0  0  0  0  0  0  0  0  0
    5.2452   -3.4349    4.8896 H   0  0  0  0  0  0  0  0  0  0  0  0
    6.5026   -3.7943    5.9402 H   0  0  0  0  0  0  0  0  0  0  0  0
    6.8275   -2.5238    4.9032 H   0  0  0  0  0  0  0  0  0  0  0  0
    8.9215   -7.4331    6.8139 H   0  0  0  0  0  0  0  0  0  0  0  0
    5.3298   -9.0122    7.7516 H   0  0  0  0  0  0  0  0  0  0  0  0
    7.1074   -8.7100    7.9850 H   0  0  0  0  0  0  0  0  0  0  0  0
    5.9707   -7.7461    7.0922 H   0  0  0  0  0  0  0  0  0  0  0  0
    5.1477   -3.1265   -1.7874 H   0  0  0  0  0  0  0  0  0  0  0  0
    4.8021   -1.5411   -1.1152 H   0  0  0  0  0  0  0  0  0  0  0  0
    7.4774   -2.3623   -2.3961 H   0  0  0  0  0  0  0  0  0  0  0  0
    6.3437   -1.1876   -2.9584 H   0  0  0  0  0  0  0  0  0  0  0  0
    7.2446   -0.8889   -1.4494 H   0  0  0  0  0  0  0  0  0  0  0  0
  1 25  1  6  0  0  0
  2  1  1  0  0  0  0
  2 13  1  6  0  0  0
  2  8  1  0  0  0  0
  3  6  1  0  0  0  0
  3 30  1  6  0  0  0
  4  5  1  0  0  0  0
  4 34  1  6  0  0  0
  5  1  1  0  0  0  0
  5 35  1  6  0  0  0
  6 10  1  0  0  0  0
  6  4  1  0  0  0  0
  6 33  1  1  0  0  0
  7  3  1  0  0  0  0
  9  1  1  0  0  0  0
  9 36  1  0  0  0  0
  9 37  1  0  0  0  0
 10  9  1  0  0  0  0
 10 38  1  1  0  0  0
 10 26  1  0  0  0  0
 11  3  1  0  0  0  0
 11 39  1  0  0  0  0
 12  8  1  0  0  0  0
 14  7  2  0  0  0  0
 14 40  1  0  0  0  0
 15  2  1  0  0  0  0
 15 16  1  0  0  0  0
 15 41  1  0  0  0  0
 15 42  1  0  0  0  0
 16  5  1  0  0  0  0
 16 43  1  0  0  0  0
 16 44  1  0  0  0  0
 17  4  1  0  0  0  0
 17 45  1  0  0  0  0
 17 46  1  0  0  0  0
 18 11  2  0  0  0  0
 18 47  1  0  0  0  0
 19 12  1  0  0  0  0
 19 48  1  0  0  0  0
 20 18  1  0  0  0  0
 20 14  1  0  0  0  0
 21 17  1  0  0  0  0
 21  7  1  0  0  0  0
 21 49  1  0  0  0  0
 21 50  1  0  0  0  0
 22 12  2  0  0  0  0
 23 13  2  0  0  0  0
 24 20  2  0  0  0  0
 25 51  1  0  0  0  0
 25 52  1  0  0  0  0
 25 53  1  0  0  0  0
 26 54  1  0  0  0  0
 27 19  1  0  0  0  0
 28 19  1  0  0  0  0
 29 13  1  0  0  0  0
 30 55  1  0  0  0  0
 30 56  1  0  0  0  0
 30 57  1  0  0  0  0
 31 29  1  0  0  0  0
 31 58  1  0  0  0  0
 31 59  1  0  0  0  0
 32 31  1  0  0  0  0
 32 60  1  0  0  0  0
 32 61  1  0  0  0  0
 32 62  1  0  0  0  0
M  END
>  <DRUGBANK_ID>
DB05442

>  <COMMON_NAME>
Etiprednol dicloacetate

>  <CAS_NUMBER>
199331-40-3

>  <UNII>
332VLD554F

>  <SYNONYMS>
Etiprednol dicloacetate

$$$$
