
 OpenBabel10282417183D

 20 19  0  0  1  0  0  0  0  0999 V2000
    1.0499   -0.0865   -0.0061 C   0  0  0  0  0  0  0  0  0  0  0  0
    0.3965    0.4976    1.7470 Se  0  0  0  0  0  0  0  0  0  0  0  0
    1.0499   -0.7286    3.1295 C   0  0  0  0  0  0  0  0  0  0  0  0
    0.5432   -2.1326    2.8419 C   0  0  0  0  0  0  0  0  0  0  0  0
    1.0499   -2.5855    1.4823 C   0  0  1  0  0  0  0  0  0  0  0  0
    2.5699   -2.5855    1.4823 C   0  0  0  0  0  0  0  0  0  0  0  0
    3.2053   -3.6638    1.2615 O   0  0  0  0  0  0  0  0  0  0  0  0
    3.2799   -1.3808    1.7291 O   0  0  0  0  0  0  0  0  0  0  0  0
    0.5599   -3.9433    1.2043 N   0  0  0  0  0  0  0  0  0  0  0  0
    0.6932    0.5830   -0.7608 H   0  0  0  0  0  0  0  0  0  0  0  0
    0.6932   -1.0748   -0.2085 H   0  0  0  0  0  0  0  0  0  0  0  0
    2.1199   -0.0865   -0.0061 H   0  0  0  0  0  0  0  0  0  0  0  0
    2.1199   -0.7286    3.1295 H   0  0  0  0  0  0  0  0  0  0  0  0
    0.6932   -0.4098    4.0865 H   0  0  0  0  0  0  0  0  0  0  0  0
    0.8999   -2.8020    3.5966 H   0  0  0  0  0  0  0  0  0  0  0  0
   -0.5268   -2.1326    2.8419 H   0  0  0  0  0  0  0  0  0  0  0  0
    0.6932   -1.9161    0.7277 H   0  0  0  0  0  0  0  0  0  0  0  0
    4.2799   -1.3808    1.7291 H   0  0  0  0  0  0  0  0  0  0  0  0
    0.8999   -4.2472    0.2919 H   0  0  0  0  0  0  0  0  0  0  0  0
    0.8999   -4.5814    1.9237 H   0  0  0  0  0  0  0  0  0  0  0  0
  1  2  1  0  0  0  0
  1 10  1  0  0  0  0
  1 11  1  0  0  0  0
  1 12  1  0  0  0  0
  2  3  1  0  0  0  0
  3  4  1  0  0  0  0
  3 13  1  0  0  0  0
  3 14  1  0  0  0  0
  4  5  1  0  0  0  0
  4 15  1  0  0  0  0
  4 16  1  0  0  0  0
  5  6  1  0  0  0  0
  5  9  1  0  0  0  0
  5 17  1  6  0  0  0
  6  7  2  0  0  0  0
  6  8  1  0  0  0  0
  8 18  1  0  0  0  0
  9 19  1  0  0  0  0
  9 20  1  0  0  0  0
M  ISO  1   2  75
M  END
>  <DRUGBANK_ID>
DB09400

>  <COMMON_NAME>
Selenomethionine Se-75

>  <CAS_NUMBER>
1187-56-0

>  <UNII>
P6708E7555

>  <SYNONYMS>
Selenomethionine (75 Se); Selenomethionine (75Se); Selenomethionine Se 75; Selenometionina (75 Se)

$$$$
