
 OpenBabel10282417123D

 92 94  0  0  0  0  0  0  0  0999 V2000
   -2.8924   -2.0302   -3.7074 S   0  0  0  0  0  0  0  0  0  0  0  0
   -9.2300   -0.0641    4.3412 P   0  0  0  0  0  0  0  0  0  0  0  0
   -6.0178    2.9224    4.9143 P   0  0  1  0  0  0  0  0  0  0  0  0
   -5.8801    1.6030    2.2771 P   0  0  2  0  0  0  0  0  0  0  0  0
   -0.3399   -0.8540   -6.0486 F   0  0  0  0  0  0  0  0  0  0  0  0
   -1.1606   -2.8226   -5.6534 F   0  0  0  0  0  0  0  0  0  0  0  0
   -1.1674   -2.0524   -7.6777 F   0  0  0  0  0  0  0  0  0  0  0  0
   -8.5559    2.3526    7.6234 O   0  0  0  0  0  0  0  0  0  0  0  0
  -10.2878    1.2899    4.5434 O   0  0  0  0  0  0  0  0  0  0  0  0
   -9.4460   -0.3015    6.9602 O   0  0  0  0  0  0  0  0  0  0  0  0
   -7.3345    3.8234    4.7999 O   0  0  0  0  0  0  0  0  0  0  0  0
  -10.4094   -0.9887    5.0168 O   0  0  0  0  0  0  0  0  0  0  0  0
   -9.8696   -0.1775    2.8378 O   0  0  0  0  0  0  0  0  0  0  0  0
   -6.3911    1.8508    3.7958 O   0  0  0  0  0  0  0  0  0  0  0  0
   -4.6820    2.7579    2.7500 O   0  0  0  0  0  0  0  0  0  0  0  0
   -8.2833   -1.2758    4.1602 O   0  0  0  0  0  0  0  0  0  0  0  0
   -5.0580    4.1299    4.4735 O   0  0  0  0  0  0  0  0  0  0  0  0
   -5.0869   -0.5026    2.3272 O   0  0  0  0  0  0  0  0  0  0  0  0
   -5.6912    2.3734    6.2629 O   0  0  0  0  0  0  0  0  0  0  0  0
   -6.6482    2.8949    1.6030 O   0  0  0  0  0  0  0  0  0  0  0  0
   -6.9525    0.5693    1.8539 O   0  0  0  0  0  0  0  0  0  0  0  0
   -3.3426   -1.7058    0.5636 O   0  0  0  0  0  0  0  0  0  0  0  0
   -2.3672    3.2072   -2.7826 O   0  0  0  0  0  0  0  0  0  0  0  0
   -3.5314   -0.7450   -7.0405 O   0  0  0  0  0  0  0  0  0  0  0  0
  -10.5360    2.4930    8.9220 N   0  0  0  0  0  0  0  0  0  0  0  0
  -11.4946    4.3287    9.6968 N   0  0  0  0  0  0  0  0  0  0  0  0
  -12.0821    0.7978    9.7347 N   0  0  0  0  0  0  0  0  0  0  0  0
  -13.9253    1.8153   10.9447 N   0  0  0  0  0  0  0  0  0  0  0  0
  -14.1199    4.1423   11.2626 N   0  0  0  0  0  0  0  0  0  0  0  0
   -4.0745    0.4081    0.0273 N   0  0  0  0  0  0  0  0  0  0  0  0
   -2.0536    1.0325   -2.3525 N   0  0  0  0  0  0  0  0  0  0  0  0
  -10.1119    1.8652    5.8668 C   0  0  1  0  0  0  0  0  0  0  0  0
  -10.2769    0.8870    7.0577 C   0  0  2  0  0  0  0  0  0  0  0  0
   -8.7000    2.3629    6.1829 C   0  0  1  0  0  0  0  0  0  0  0  0
   -9.6442    1.6224    8.2173 C   0  0  1  0  0  0  0  0  0  0  0  0
   -8.3498    3.7738    5.7550 C   0  0  0  0  0  0  0  0  0  0  0  0
  -11.6438    2.0593    9.5922 C   0  0  0  0  0  0  0  0  0  0  0  0
  -10.4673    3.8486    9.0320 C   0  0  0  0  0  0  0  0  0  0  0  0
  -12.2340    3.2165   10.0564 C   0  0  0  0  0  0  0  0  0  0  0  0
   -2.9211    0.9422    2.8694 C   0  0  0  0  0  0  0  0  0  0  0  0
   -3.6997   -0.2945    2.3637 C   0  0  2  0  0  0  0  0  0  0  0  0
   -3.3177    2.4003    2.5796 C   0  0  0  0  0  0  0  0  0  0  0  0
  -13.4317    3.0629   10.7643 C   0  0  0  0  0  0  0  0  0  0  0  0
   -2.8810    0.9271    4.3948 C   0  0  0  0  0  0  0  0  0  0  0  0
   -1.4911    0.6574    2.3492 C   0  0  0  0  0  0  0  0  0  0  0  0
  -13.2382    0.7709   10.4309 C   0  0  0  0  0  0  0  0  0  0  0  0
   -3.5800   -0.5452    0.9136 C   0  0  0  0  0  0  0  0  0  0  0  0
   -4.0862    1.8548   -0.2173 C   0  0  0  0  0  0  0  0  0  0  0  0
   -2.7655    2.5246   -0.5532 C   0  0  0  0  0  0  0  0  0  0  0  0
   -2.3938    2.2717   -1.9528 C   0  0  0  0  0  0  0  0  0  0  0  0
   -1.9720   -0.2688   -1.6785 C   0  0  0  0  0  0  0  0  0  0  0  0
   -3.0756   -1.2840   -2.1117 C   0  0  0  0  0  0  0  0  0  0  0  0
   -2.9475   -0.5662   -4.7563 C   0  0  0  0  0  0  0  0  0  0  0  0
   -2.7163   -1.0206   -6.1580 C   0  0  0  0  0  0  0  0  0  0  0  0
   -1.3643   -1.6926   -6.3867 C   0  0  0  0  0  0  0  0  0  0  0  0
  -13.7149    5.0609   11.1462 H   0  0  0  0  0  0  0  0  0  0  0  0
  -14.9549    3.9815   11.7994 H   0  0  0  0  0  0  0  0  0  0  0  0
   -4.2541    0.0066   -0.8582 H   0  0  0  0  0  0  0  0  0  0  0  0
   -1.6476    1.0952   -3.2653 H   0  0  0  0  0  0  0  0  0  0  0  0
   -8.5002   -0.0423    6.9609 H   0  0  0  0  0  0  0  0  0  0  0  0
  -10.0152   -1.3095    5.8656 H   0  0  0  0  0  0  0  0  0  0  0  0
  -10.6070    0.4394    2.7200 H   0  0  0  0  0  0  0  0  0  0  0  0
   -5.6109    4.8336    4.0881 H   0  0  0  0  0  0  0  0  0  0  0  0
   -5.4858   -0.4367    1.4020 H   0  0  0  0  0  0  0  0  0  0  0  0
   -6.0333    3.6056    1.3563 H   0  0  0  0  0  0  0  0  0  0  0  0
  -10.8258    2.6945    5.9457 H   0  0  0  0  0  0  0  0  0  0  0  0
  -11.3189    0.5789    7.1801 H   0  0  0  0  0  0  0  0  0  0  0  0
   -7.9898    1.6409    5.7777 H   0  0  0  0  0  0  0  0  0  0  0  0
   -9.2022    0.9410    8.9532 H   0  0  0  0  0  0  0  0  0  0  0  0
   -7.9847    4.3647    6.5991 H   0  0  0  0  0  0  0  0  0  0  0  0
   -9.2023    4.2872    5.3113 H   0  0  0  0  0  0  0  0  0  0  0  0
   -9.6610    4.4312    8.6046 H   0  0  0  0  0  0  0  0  0  0  0  0
   -3.4412   -1.1393    3.0043 H   0  0  0  0  0  0  0  0  0  0  0  0
   -2.7180    3.1089    3.1675 H   0  0  0  0  0  0  0  0  0  0  0  0
   -2.9969    2.7343    1.6181 H   0  0  0  0  0  0  0  0  0  0  0  0
   -2.5476   -0.0326    4.7856 H   0  0  0  0  0  0  0  0  0  0  0  0
   -2.1902    1.7001    4.7563 H   0  0  0  0  0  0  0  0  0  0  0  0
   -3.8717    1.1447    4.7919 H   0  0  0  0  0  0  0  0  0  0  0  0
   -1.1715   -0.3419    2.6705 H   0  0  0  0  0  0  0  0  0  0  0  0
   -1.4568    0.6325    1.2592 H   0  0  0  0  0  0  0  0  0  0  0  0
   -0.7588    1.3980    2.6614 H   0  0  0  0  0  0  0  0  0  0  0  0
  -13.6748   -0.2115   10.5964 H   0  0  0  0  0  0  0  0  0  0  0  0
   -4.5270    2.3378    0.6148 H   0  0  0  0  0  0  0  0  0  0  0  0
   -4.8281    2.0511   -0.9981 H   0  0  0  0  0  0  0  0  0  0  0  0
   -1.9086    2.2351    0.0597 H   0  0  0  0  0  0  0  0  0  0  0  0
   -2.8746    3.6137   -0.4098 H   0  0  0  0  0  0  0  0  0  0  0  0
   -1.9598   -0.0535   -0.6179 H   0  0  0  0  0  0  0  0  0  0  0  0
   -0.9791   -0.6950   -1.8227 H   0  0  0  0  0  0  0  0  0  0  0  0
   -4.0963   -0.8966   -2.1812 H   0  0  0  0  0  0  0  0  0  0  0  0
   -3.1092   -2.1363   -1.4356 H   0  0  0  0  0  0  0  0  0  0  0  0
   -3.8890   -0.0141   -4.6467 H   0  0  0  0  0  0  0  0  0  0  0  0
   -2.1227    0.1159   -4.5857 H   0  0  0  0  0  0  0  0  0  0  0  0
  1 52  1  0  0  0  0
  1 53  1  0  0  0  0
  2  9  1  0  0  0  0
  2 12  1  0  0  0  0
  2 13  1  0  0  0  0
  2 16  2  0  0  0  0
  3 17  1  0  0  0  0
  3 19  2  1  0  0  0
  3 14  1  0  0  0  0
  3 11  1  0  0  0  0
  4 14  1  0  0  0  0
  4 15  1  0  0  0  0
  4 20  1  0  0  0  0
  4 21  2  6  0  0  0
  5 55  1  0  0  0  0
  6 55  1  0  0  0  0
  7 55  1  0  0  0  0
  8 34  1  0  0  0  0
  8 35  1  0  0  0  0
 10 60  1  0  0  0  0
 11 36  1  0  0  0  0
 12 61  1  0  0  0  0
 13 62  1  0  0  0  0
 15 42  1  0  0  0  0
 17 63  1  0  0  0  0
 18 64  1  0  0  0  0
 20 65  1  0  0  0  0
 22 47  2  0  0  0  0
 23 50  2  0  0  0  0
 24 54  2  0  0  0  0
 25 37  1  0  0  0  0
 25 38  1  0  0  0  0
 26 38  2  0  0  0  0
 26 39  1  0  0  0  0
 27 37  2  0  0  0  0
 27 46  1  0  0  0  0
 28 43  1  0  0  0  0
 28 46  2  0  0  0  0
 29 43  1  0  0  0  0
 29 56  1  0  0  0  0
 29 57  1  0  0  0  0
 30 47  1  0  0  0  0
 30 48  1  0  0  0  0
 30 58  1  0  0  0  0
 31 50  1  0  0  0  0
 31 51  1  0  0  0  0
 31 59  1  0  0  0  0
 32  9  1  0  0  0  0
 32 33  1  0  0  0  0
 32 34  1  0  0  0  0
 32 66  1  1  0  0  0
 33 10  1  0  0  0  0
 33 35  1  0  0  0  0
 33 67  1  1  0  0  0
 34 68  1  6  0  0  0
 34 36  1  0  0  0  0
 35 25  1  0  0  0  0
 35 69  1  1  0  0  0
 36 70  1  0  0  0  0
 36 71  1  0  0  0  0
 37 39  1  0  0  0  0
 38 72  1  0  0  0  0
 39 43  2  0  0  0  0
 40 42  1  0  0  0  0
 40 44  1  0  0  0  0
 40 45  1  0  0  0  0
 41 47  1  0  0  0  0
 41 73  1  1  0  0  0
 41 40  1  0  0  0  0
 41 18  1  0  0  0  0
 42 74  1  0  0  0  0
 42 75  1  0  0  0  0
 44 76  1  0  0  0  0
 44 77  1  0  0  0  0
 44 78  1  0  0  0  0
 45 79  1  0  0  0  0
 45 80  1  0  0  0  0
 45 81  1  0  0  0  0
 46 82  1  0  0  0  0
 48 49  1  0  0  0  0
 48 83  1  0  0  0  0
 48 84  1  0  0  0  0
 49 50  1  0  0  0  0
 49 85  1  0  0  0  0
 49 86  1  0  0  0  0
 51 52  1  0  0  0  0
 51 87  1  0  0  0  0
 51 88  1  0  0  0  0
 52 89  1  0  0  0  0
 52 90  1  0  0  0  0
 53 54  1  0  0  0  0
 53 91  1  0  0  0  0
 53 92  1  0  0  0  0
 54 55  1  0  0  0  0
M  END
>  <DRUGBANK_ID>
DB01969

>  <SECONDARY_ACCESSION_NUMBERS>
EXPT00982

>  <COMMON_NAME>
Trifluoroacetonyl coenzyme A

$$$$
