1FR
 OpenBabel10282417163D

 51 54  0  0  0  0  0  0  0  0999 V2000
    1.3784   -0.1932   -0.0334 C   0  0  0  0  0  0  0  0  0  0  0  0
    0.5097   -1.2890    0.0058 C   0  0  0  0  0  0  0  0  0  0  0  0
   -0.8709   -1.0928   -0.0040 C   0  0  0  0  0  0  0  0  0  0  0  0
   -0.5226    1.2926   -0.0134 C   0  0  0  0  0  0  0  0  0  0  0  0
    0.8712    1.1134   -0.0880 C   0  0  0  0  0  0  0  0  0  0  0  0
    1.7969    2.3160   -0.2666 C   0  0  1  0  0  0  0  0  0  0  0  0
   -4.1032    7.1460   -7.0113 C   0  0  0  0  0  0  0  0  0  0  0  0
   -2.7293    6.8363   -4.9336 C   0  0  0  0  0  0  0  0  0  0  0  0
   -4.6455    5.1656   -3.7791 C   0  0  0  0  0  0  0  0  0  0  0  0
   -4.8879    5.7984   -4.9922 C   0  0  0  0  0  0  0  0  0  0  0  0
   -3.9024    6.5673   -5.6331 C   0  0  0  0  0  0  0  0  0  0  0  0
   -3.4602    5.3967   -3.1107 C   0  0  0  0  0  0  0  0  0  0  0  0
   -2.5525    6.3143   -3.6498 C   0  0  0  0  0  0  0  0  0  0  0  0
   -1.4554    6.7883   -2.8417 C   0  0  0  0  0  0  0  0  0  0  0  0
   -0.4153    6.0118   -2.3054 C   0  0  0  0  0  0  0  0  0  0  0  0
    0.3232    6.9173   -1.5673 C   0  0  0  0  0  0  0  0  0  0  0  0
    1.4406    6.5476   -0.8671 C   0  0  0  0  0  0  0  0  0  0  0  0
   -0.0279    4.6740   -2.3381 C   0  0  0  0  0  0  0  0  0  0  0  0
    1.0960    4.3268   -1.6055 C   0  0  0  0  0  0  0  0  0  0  0  0
   -5.8488    4.1456   -3.0966 Cl  0  0  0  0  0  0  0  0  0  0  0  0
   -4.2802    6.0890   -8.1116 C   0  0  0  0  0  0  0  0  0  0  0  0
   -5.4936    5.1774   -7.9506 C   0  0  0  0  0  0  0  0  0  0  0  0
   -6.6981    5.9220   -7.8239 O   0  0  0  0  0  0  0  0  0  0  0  0
   -0.2352    8.1488   -1.6638 O   0  0  0  0  0  0  0  0  0  0  0  0
   -1.3524    8.0781   -2.4834 N   0  0  0  0  0  0  0  0  0  0  0  0
    1.8164    5.2417   -0.9155 N   0  0  0  0  0  0  0  0  0  0  0  0
    1.3958    2.9889   -1.4983 N   0  0  0  0  0  0  0  0  0  0  0  0
    1.7473    3.1909    0.9848 C   0  0  0  0  0  0  0  0  0  0  0  0
   -1.3875    0.1991    0.0014 C   0  0  0  0  0  0  0  0  0  0  0  0
    2.8253    1.9620   -0.4074 H   0  0  0  0  0  0  0  0  0  0  0  0
    2.4512   -0.3717   -0.0281 H   0  0  0  0  0  0  0  0  0  0  0  0
    0.9092   -2.2999    0.0289 H   0  0  0  0  0  0  0  0  0  0  0  0
   -1.5446   -1.9457   -0.0080 H   0  0  0  0  0  0  0  0  0  0  0  0
   -0.9402    2.2968    0.0137 H   0  0  0  0  0  0  0  0  0  0  0  0
   -4.9473    7.8435   -6.9835 H   0  0  0  0  0  0  0  0  0  0  0  0
   -3.2332    7.7617   -7.2821 H   0  0  0  0  0  0  0  0  0  0  0  0
   -1.9610    7.4779   -5.3643 H   0  0  0  0  0  0  0  0  0  0  0  0
   -5.8689    5.6570   -5.4288 H   0  0  0  0  0  0  0  0  0  0  0  0
   -3.2792    4.9182   -2.1529 H   0  0  0  0  0  0  0  0  0  0  0  0
    2.0318    7.2252   -0.2655 H   0  0  0  0  0  0  0  0  0  0  0  0
   -0.6166    3.9286   -2.8630 H   0  0  0  0  0  0  0  0  0  0  0  0
   -4.3784    6.6194   -9.0665 H   0  0  0  0  0  0  0  0  0  0  0  0
   -3.3762    5.4705   -8.1786 H   0  0  0  0  0  0  0  0  0  0  0  0
   -5.6011    4.5237   -8.8183 H   0  0  0  0  0  0  0  0  0  0  0  0
   -5.3804    4.5013   -7.0982 H   0  0  0  0  0  0  0  0  0  0  0  0
   -6.5950    6.5976   -7.1330 H   0  0  0  0  0  0  0  0  0  0  0  0
    1.3924    2.4379   -2.3461 H   0  0  0  0  0  0  0  0  0  0  0  0
    1.9703    2.6155    1.8863 H   0  0  0  0  0  0  0  0  0  0  0  0
    2.4925    3.9903    0.9351 H   0  0  0  0  0  0  0  0  0  0  0  0
    0.7608    3.6528    1.1158 H   0  0  0  0  0  0  0  0  0  0  0  0
   -2.4623    0.3596    0.0037 H   0  0  0  0  0  0  0  0  0  0  0  0
  1  2  2  0  0  0  0
  1  5  1  0  0  0  0
  1 31  1  0  0  0  0
  2  3  1  0  0  0  0
  2 32  1  0  0  0  0
  3 29  2  0  0  0  0
  3 33  1  0  0  0  0
  4  5  2  0  0  0  0
  4 29  1  0  0  0  0
  4 34  1  0  0  0  0
  5  6  1  0  0  0  0
  6 27  1  0  0  0  0
  6 28  1  0  0  0  0
  6 30  1  6  0  0  0
  7 11  1  0  0  0  0
  7 21  1  0  0  0  0
  7 35  1  0  0  0  0
  7 36  1  0  0  0  0
  8 11  2  0  0  0  0
  8 13  1  0  0  0  0
  8 37  1  0  0  0  0
  9 10  2  0  0  0  0
  9 12  1  0  0  0  0
  9 20  1  0  0  0  0
 10 11  1  0  0  0  0
 10 38  1  0  0  0  0
 12 13  2  0  0  0  0
 12 39  1  0  0  0  0
 13 14  1  0  0  0  0
 14 15  1  0  0  0  0
 14 25  2  0  0  0  0
 15 16  2  0  0  0  0
 15 18  1  0  0  0  0
 16 17  1  0  0  0  0
 16 24  1  0  0  0  0
 17 26  2  0  0  0  0
 17 40  1  0  0  0  0
 18 19  2  0  0  0  0
 18 41  1  0  0  0  0
 19 26  1  0  0  0  0
 19 27  1  0  0  0  0
 21 22  1  0  0  0  0
 21 42  1  0  0  0  0
 21 43  1  0  0  0  0
 22 23  1  0  0  0  0
 22 44  1  0  0  0  0
 22 45  1  0  0  0  0
 23 46  1  0  0  0  0
 24 25  1  0  0  0  0
 27 47  1  0  0  0  0
 28 48  1  0  0  0  0
 28 49  1  0  0  0  0
 28 50  1  0  0  0  0
 29 51  1  0  0  0  0
M  END
>  <DRUGBANK_ID>
DB06897

>  <COMMON_NAME>
3-[3-chloro-5-(5-{[(1S)-1-phenylethyl]amino}isoxazolo[5,4-c]pyridin-3-yl)phenyl]propan-1-ol

$$$$
