
 OpenBabel10282417233D

 51 53  0  0  0  0  0  0  0  0999 V2000
   -5.7026   -3.8053   -0.2817 C   0  0  0  0  0  0  0  0  0  0  0  0
   -4.5920   -4.4788    0.2365 C   0  0  0  0  0  0  0  0  0  0  0  0
   -4.4227   -5.8395   -0.1090 C   0  0  0  0  0  0  0  0  0  0  0  0
   -5.3270   -6.5020   -0.9519 C   0  0  0  0  0  0  0  0  0  0  0  0
   -6.4104   -5.7862   -1.4647 C   0  0  0  0  0  0  0  0  0  0  0  0
   -6.6022   -4.4521   -1.1351 C   0  0  0  0  0  0  0  0  0  0  0  0
   -1.3532    2.4948    0.6733 C   0  0  0  0  0  0  0  0  0  0  0  0
   -0.6420    1.5304   -0.0767 C   0  0  0  0  0  0  0  0  0  0  0  0
   -0.4978    0.2170    0.4387 C   0  0  0  0  0  0  0  0  0  0  0  0
   -0.9693   -0.1503    1.6934 C   0  0  0  0  0  0  0  0  0  0  0  0
   -1.5984    0.8324    2.4458 C   0  0  0  0  0  0  0  0  0  0  0  0
   -1.8413    2.0931    1.9251 C   0  0  0  0  0  0  0  0  0  0  0  0
   -3.0897   -1.6579    3.3918 C   0  0  0  0  0  0  0  0  0  0  0  0
   -2.1175   -2.3416    2.4495 C   0  0  1  0  0  0  0  0  0  0  0  0
   -2.9702   -2.5428    1.1787 C   0  0  2  0  0  0  0  0  0  0  0  0
   -3.8961   -1.3588    1.2751 C   0  0  0  0  0  0  0  0  0  0  0  0
   -3.9580   -0.8912    2.5570 O   0  0  0  0  0  0  0  0  0  0  0  0
   -0.8102   -1.5582    2.1997 C   0  0  0  0  0  0  0  0  0  0  0  0
   -3.7186   -3.8806    1.3189 C   0  0  0  0  0  0  0  0  0  0  0  0
   -5.2657   -7.8244   -1.3150 O   0  0  0  0  0  0  0  0  0  0  0  0
   -4.1852   -8.5784   -0.7739 C   0  0  0  0  0  0  0  0  0  0  0  0
    0.0197    1.5386   -1.2799 O   0  0  0  0  0  0  0  0  0  0  0  0
    0.1783    2.7657   -1.9198 C   0  0  0  0  0  0  0  0  0  0  0  0
   -1.7056    3.8092    0.5374 O   0  0  0  0  0  0  0  0  0  0  0  0
   -1.4932    4.5748   -0.6158 C   0  0  0  0  0  0  0  0  0  0  0  0
   -7.3257   -6.3743   -2.2958 O   0  0  0  0  0  0  0  0  0  0  0  0
   -4.5534   -0.8842    0.3496 O   0  0  0  0  0  0  0  0  0  0  0  0
   -5.9241   -2.7802   -0.0029 H   0  0  0  0  0  0  0  0  0  0  0  0
   -3.5883   -6.3793    0.3281 H   0  0  0  0  0  0  0  0  0  0  0  0
   -7.4648   -3.9176   -1.5222 H   0  0  0  0  0  0  0  0  0  0  0  0
    0.0227   -0.5215   -0.1741 H   0  0  0  0  0  0  0  0  0  0  0  0
   -1.9716    0.6550    3.4440 H   0  0  0  0  0  0  0  0  0  0  0  0
   -2.4305    2.7805    2.5333 H   0  0  0  0  0  0  0  0  0  0  0  0
   -3.7133   -2.3512    3.9595 H   0  0  0  0  0  0  0  0  0  0  0  0
   -2.5870   -1.0393    4.1401 H   0  0  0  0  0  0  0  0  0  0  0  0
   -1.8117   -3.2954    2.8972 H   0  0  0  0  0  0  0  0  0  0  0  0
   -2.3576   -2.4892    0.2709 H   0  0  0  0  0  0  0  0  0  0  0  0
   -0.2218   -1.5212    3.1259 H   0  0  0  0  0  0  0  0  0  0  0  0
   -0.2006   -2.1439    1.4954 H   0  0  0  0  0  0  0  0  0  0  0  0
   -4.3586   -3.8233    2.2068 H   0  0  0  0  0  0  0  0  0  0  0  0
   -2.9451   -4.6264    1.5468 H   0  0  0  0  0  0  0  0  0  0  0  0
   -3.2214   -8.1710   -1.0972 H   0  0  0  0  0  0  0  0  0  0  0  0
   -4.2460   -8.6287    0.3189 H   0  0  0  0  0  0  0  0  0  0  0  0
   -4.2583   -9.6005   -1.1573 H   0  0  0  0  0  0  0  0  0  0  0  0
   -0.8062    3.0593   -2.2623 H   0  0  0  0  0  0  0  0  0  0  0  0
    0.7318    3.4251   -1.2510 H   0  0  0  0  0  0  0  0  0  0  0  0
    0.7629    2.7194   -2.8382 H   0  0  0  0  0  0  0  0  0  0  0  0
   -0.4283    4.7411   -0.7443 H   0  0  0  0  0  0  0  0  0  0  0  0
   -2.0428    4.1421   -1.4515 H   0  0  0  0  0  0  0  0  0  0  0  0
   -1.8778    5.5918   -0.5173 H   0  0  0  0  0  0  0  0  0  0  0  0
   -7.0209   -7.2918   -2.4243 H   0  0  0  0  0  0  0  0  0  0  0  0
  1  2  2  0  0  0  0
  1 28  1  0  0  0  0
  2  3  1  0  0  0  0
  3  4  2  0  0  0  0
  3 29  1  0  0  0  0
  4  5  1  0  0  0  0
  4 20  1  0  0  0  0
  5  6  2  0  0  0  0
  5 26  1  0  0  0  0
  6  1  1  0  0  0  0
  6 30  1  0  0  0  0
  7  8  2  0  0  0  0
  7 24  1  0  0  0  0
  8  9  1  0  0  0  0
  8 22  1  0  0  0  0
  9 10  2  0  0  0  0
  9 31  1  0  0  0  0
 10 11  1  0  0  0  0
 11 12  2  0  0  0  0
 11 32  1  0  0  0  0
 12  7  1  0  0  0  0
 12 33  1  0  0  0  0
 13 14  1  0  0  0  0
 13 34  1  0  0  0  0
 13 35  1  0  0  0  0
 14 15  1  0  0  0  0
 14 36  1  1  0  0  0
 14 18  1  0  0  0  0
 15 16  1  0  0  0  0
 15 37  1  6  0  0  0
 15 19  1  0  0  0  0
 16 17  1  0  0  0  0
 16 27  2  0  0  0  0
 17 13  1  0  0  0  0
 18 10  1  0  0  0  0
 18 38  1  0  0  0  0
 18 39  1  0  0  0  0
 19  2  1  0  0  0  0
 19 40  1  0  0  0  0
 19 41  1  0  0  0  0
 20 21  1  0  0  0  0
 21 42  1  0  0  0  0
 21 43  1  0  0  0  0
 21 44  1  0  0  0  0
 22 23  1  0  0  0  0
 23 45  1  0  0  0  0
 23 46  1  0  0  0  0
 23 47  1  0  0  0  0
 24 25  1  0  0  0  0
 25 48  1  0  0  0  0
 25 49  1  0  0  0  0
 25 50  1  0  0  0  0
 26 51  1  0  0  0  0
M  END
>  <DRUGBANK_ID>
DB16880

>  <COMMON_NAME>
Arctigenin

>  <CAS_NUMBER>
7770-78-7

>  <UNII>
U76MR9VS6M

>  <SYNONYMS>
(-)-Arctigenin

$$$$
