M1S
 OpenBabel10282417173D

 45 46  0  0  0  0  0  0  0  0999 V2000
   -2.0230   -3.4210    1.1944 C   0  0  0  0  0  0  0  0  0  0  0  0
   -3.4467   -5.0370    2.0955 C   0  0  0  0  0  0  0  0  0  0  0  0
   -5.0379   -6.1180    2.3113 C   0  0  0  0  0  0  0  0  0  0  0  0
   -6.0446   -7.7667    2.7945 C   0  0  0  0  0  0  0  0  0  0  0  0
   -5.8036   -9.0642    3.3961 C   0  0  0  0  0  0  0  0  0  0  0  0
   -4.5937   -8.3992    3.5950 C   0  0  0  0  0  0  0  0  0  0  0  0
   -3.7880   -6.7041    3.0370 C   0  0  0  0  0  0  0  0  0  0  0  0
   -3.1283   -7.4553    4.6293 C   0  0  0  0  0  0  0  0  0  0  0  0
   -2.1607   -6.6608    4.0524 C   0  0  0  0  0  0  0  0  0  0  0  0
   -2.1139   -5.3354    4.7179 C   0  0  0  0  0  0  0  0  0  0  0  0
   -0.6561   -5.1390    4.5936 C   0  0  0  0  0  0  0  0  0  0  0  0
   -0.1874   -5.1761    3.1886 C   0  0  0  0  0  0  0  0  0  0  0  0
   -0.7835   -4.0425    2.6092 C   0  0  0  0  0  0  0  0  0  0  0  0
   -0.6283   -2.6234    3.1702 C   0  0  0  0  0  0  0  0  0  0  0  0
    0.7866   -2.3222    3.1117 C   0  0  0  0  0  0  0  0  0  0  0  0
    1.1639   -1.1897    2.5470 C   0  0  0  0  0  0  0  0  0  0  0  0
    2.4936   -1.1368    2.1135 C   0  0  0  0  0  0  0  0  0  0  0  0
    1.5936   -1.5956    0.6365 C   0  0  0  0  0  0  0  0  0  0  0  0
   -2.0752   -2.1314    0.8332 O   0  0  0  0  0  0  0  0  0  0  0  0
   -6.6634   -5.9568    2.7814 O   0  0  0  0  0  0  0  0  0  0  0  0
   -6.2930  -10.5619    3.4371 O   0  0  0  0  0  0  0  0  0  0  0  0
   -3.7408  -10.1703    4.3825 Cl  0  0  0  0  0  0  0  0  0  0  0  0
   -1.8228   -7.0388    2.9102 O   0  0  0  0  0  0  0  0  0  0  0  0
   -0.1375   -2.7541    0.9137 O   0  0  0  0  0  0  0  0  0  0  0  0
   -7.3025   -8.2606    2.7945 H   0  0  0  0  0  0  0  0  0  0  0  0
   -2.5698   -8.4430    4.7067 H   0  0  0  0  0  0  0  0  0  0  0  0
   -3.4012   -7.2912    5.7260 H   0  0  0  0  0  0  0  0  0  0  0  0
   -2.4607   -5.3839    5.7519 H   0  0  0  0  0  0  0  0  0  0  0  0
   -2.7633   -4.5664    4.2783 H   0  0  0  0  0  0  0  0  0  0  0  0
   -0.1393   -5.9432    5.0716 H   0  0  0  0  0  0  0  0  0  0  0  0
   -0.4229   -4.1951    5.0521 H   0  0  0  0  0  0  0  0  0  0  0  0
   -0.4558   -6.0102    2.5584 H   0  0  0  0  0  0  0  0  0  0  0  0
    0.8316   -4.9968    2.9906 H   0  0  0  0  0  0  0  0  0  0  0  0
   -1.8413   -4.1187    2.7990 H   0  0  0  0  0  0  0  0  0  0  0  0
   -0.5319   -4.3147    1.5082 H   0  0  0  0  0  0  0  0  0  0  0  0
   -1.0115   -2.6125    4.1632 H   0  0  0  0  0  0  0  0  0  0  0  0
   -1.2457   -1.8149    2.7187 H   0  0  0  0  0  0  0  0  0  0  0  0
    1.4912   -3.1084    3.3271 H   0  0  0  0  0  0  0  0  0  0  0  0
    0.4941   -0.5155    1.9966 H   0  0  0  0  0  0  0  0  0  0  0  0
    3.2165   -1.8865    2.4948 H   0  0  0  0  0  0  0  0  0  0  0  0
    2.9260   -0.1313    2.4080 H   0  0  0  0  0  0  0  0  0  0  0  0
    2.4310   -2.2369    0.0751 H   0  0  0  0  0  0  0  0  0  0  0  0
    3.0552   -1.1480    0.4405 H   0  0  0  0  0  0  0  0  0  0  0  0
   -7.2822   -5.3397    3.1912 H   0  0  0  0  0  0  0  0  0  0  0  0
   -7.1099  -11.1389    3.1143 H   0  0  0  0  0  0  0  0  0  0  0  0
  1  2  1  0  0  0  0
  1 19  2  0  0  0  0
  1 24  1  0  0  0  0
  2  3  2  0  0  0  0
  2  7  1  0  0  0  0
  3  4  1  0  0  0  0
  3 20  1  0  0  0  0
  4  5  2  0  0  0  0
  4 25  1  0  0  0  0
  5  6  1  0  0  0  0
  5 21  1  0  0  0  0
  6  7  2  0  0  0  0
  6 22  1  0  0  0  0
  7  8  1  0  0  0  0
  8  9  1  0  0  0  0
  8 26  1  0  0  0  0
  8 27  1  0  0  0  0
  9 10  1  0  0  0  0
  9 23  2  0  0  0  0
 10 11  1  0  0  0  0
 10 28  1  0  0  0  0
 10 29  1  0  0  0  0
 11 12  1  0  0  0  0
 11 30  1  0  0  0  0
 11 31  1  0  0  0  0
 12 13  1  0  0  0  0
 12 32  1  0  0  0  0
 12 33  1  0  0  0  0
 13 14  1  0  0  0  0
 13 34  1  0  0  0  0
 13 35  1  0  0  0  0
 14 15  1  0  0  0  0
 14 36  1  0  0  0  0
 14 37  1  0  0  0  0
 15 16  2  0  0  0  0
 15 38  1  0  0  0  0
 16 17  1  0  0  0  0
 16 39  1  0  0  0  0
 17 18  1  0  0  0  0
 17 40  1  0  0  0  0
 17 41  1  0  0  0  0
 18 24  1  0  0  0  0
 18 42  1  0  0  0  0
 18 43  1  0  0  0  0
 20 44  1  0  0  0  0
 21 45  1  0  0  0  0
M  END
>  <DRUGBANK_ID>
DB08153

>  <COMMON_NAME>
(5E)-14-CHLORO-15,17-DIHYDROXY-4,7,8,9,10,11-HEXAHYDRO-2-BENZOXACYCLOPENTADECINE-1,12(3H,13H)-DIONE

$$$$
