
 OpenBabel10282417143D

 50 53  0  0  0  0  0  0  0  0999 V2000
    1.4715    0.8134   -0.0866 O   0  0  0  0  0  0  0  0  0  0  0  0
   -1.2706   -1.0657    0.0903 O   0  0  0  0  0  0  0  0  0  0  0  0
    1.9342   -2.0892   -1.4721 O   0  0  0  0  0  0  0  0  0  0  0  0
   -0.8501    1.5972    1.7945 O   0  0  0  0  0  0  0  0  0  0  0  0
    5.3689    2.7867   -3.0421 N   0  0  0  0  0  0  0  0  0  0  0  0
    5.0256    1.9471   -0.9384 N   0  0  0  0  0  0  0  0  0  0  0  0
    1.5155   -2.2248    6.5633 N   0  0  0  0  0  0  0  0  0  0  0  0
    2.9564   -2.5685    4.8049 N   0  0  0  0  0  0  0  0  0  0  0  0
   -0.1503   -0.7796   -0.7843 C   0  0  1  0  0  0  0  0  0  0  0  0
    0.1426    0.7051   -0.5549 C   0  0  1  0  0  0  0  0  0  0  0  0
    1.1439   -1.5254   -0.4336 C   0  0  2  0  0  0  0  0  0  0  0  0
   -0.9789    1.2478    0.3775 C   0  0  1  0  0  0  0  0  0  0  0  0
    1.9250   -0.4970    0.2867 C   0  0  0  0  0  0  0  0  0  0  0  0
   -2.0268    0.1632    0.1895 C   0  0  0  0  0  0  0  0  0  0  0  0
    2.5701   -1.1929   -2.2827 C   0  0  0  0  0  0  0  0  0  0  0  0
   -0.2625    0.7758    2.7071 C   0  0  0  0  0  0  0  0  0  0  0  0
    3.5106   -0.2213   -1.9011 C   0  0  0  0  0  0  0  0  0  0  0  0
    1.0821    0.5380    2.6479 C   0  0  0  0  0  0  0  0  0  0  0  0
   -0.8190    0.4140    3.9148 C   0  0  0  0  0  0  0  0  0  0  0  0
    2.2540   -1.3347   -3.6107 C   0  0  0  0  0  0  0  0  0  0  0  0
    3.9728    0.7489   -2.7731 C   0  0  0  0  0  0  0  0  0  0  0  0
    1.7301   -0.4893    3.3585 C   0  0  0  0  0  0  0  0  0  0  0  0
   -0.0740   -0.3784    4.8389 C   0  0  0  0  0  0  0  0  0  0  0  0
    2.8423   -0.4789   -4.5289 C   0  0  0  0  0  0  0  0  0  0  0  0
    1.1462   -0.9733    4.4855 C   0  0  0  0  0  0  0  0  0  0  0  0
    3.6440    0.5968   -4.1116 C   0  0  0  0  0  0  0  0  0  0  0  0
    4.8194    1.8635   -2.2156 C   0  0  0  0  0  0  0  0  0  0  0  0
    1.9074   -1.9624    5.3071 C   0  0  0  0  0  0  0  0  0  0  0  0
   -0.4756   -1.0043   -1.8021 H   0  0  0  0  0  0  0  0  0  0  0  0
    0.0859    1.2125   -1.5305 H   0  0  0  0  0  0  0  0  0  0  0  0
    6.0291    3.4664   -2.6941 H   0  0  0  0  0  0  0  0  0  0  0  0
    5.3029    2.6908   -4.0431 H   0  0  0  0  0  0  0  0  0  0  0  0
    5.6102    2.7522   -0.7085 H   0  0  0  0  0  0  0  0  0  0  0  0
    1.9880   -2.8932    7.1530 H   0  0  0  0  0  0  0  0  0  0  0  0
    0.6932   -1.7749    6.9432 H   0  0  0  0  0  0  0  0  0  0  0  0
    3.3594   -3.2044    5.4912 H   0  0  0  0  0  0  0  0  0  0  0  0
    0.9082   -2.3427    0.2647 H   0  0  0  0  0  0  0  0  0  0  0  0
   -1.3597    2.1787   -0.0730 H   0  0  0  0  0  0  0  0  0  0  0  0
    1.6368   -0.8224    1.2438 H   0  0  0  0  0  0  0  0  0  0  0  0
    2.9988   -0.5222    0.4630 H   0  0  0  0  0  0  0  0  0  0  0  0
   -2.7459    0.1171    1.0111 H   0  0  0  0  0  0  0  0  0  0  0  0
   -2.5746    0.2896   -0.7550 H   0  0  0  0  0  0  0  0  0  0  0  0
    3.9298   -0.1254   -0.9131 H   0  0  0  0  0  0  0  0  0  0  0  0
    1.6449    1.1065    1.9290 H   0  0  0  0  0  0  0  0  0  0  0  0
   -1.7870    0.8076    4.2050 H   0  0  0  0  0  0  0  0  0  0  0  0
    1.5639   -2.1197   -3.9050 H   0  0  0  0  0  0  0  0  0  0  0  0
    2.6884   -0.8887    3.0138 H   0  0  0  0  0  0  0  0  0  0  0  0
   -0.4422   -0.4699    5.8486 H   0  0  0  0  0  0  0  0  0  0  0  0
    2.6740   -0.6578   -5.5823 H   0  0  0  0  0  0  0  0  0  0  0  0
    4.0203    1.2802   -4.8568 H   0  0  0  0  0  0  0  0  0  0  0  0
  1 10  1  0  0  0  0
  1 13  1  0  0  0  0
  2  9  1  0  0  0  0
  2 14  1  0  0  0  0
  3 15  1  0  0  0  0
  4 16  1  0  0  0  0
  5 27  1  0  0  0  0
  5 31  1  0  0  0  0
  5 32  1  0  0  0  0
  6 27  2  0  0  0  0
  6 33  1  0  0  0  0
  7 28  1  0  0  0  0
  7 34  1  0  0  0  0
  7 35  1  0  0  0  0
  8 28  2  0  0  0  0
  8 36  1  0  0  0  0
  9 10  1  0  0  0  0
  9 11  1  0  0  0  0
  9 29  1  6  0  0  0
 10 12  1  0  0  0  0
 10 30  1  6  0  0  0
 11  3  1  0  0  0  0
 11 13  1  0  0  0  0
 11 37  1  1  0  0  0
 12  4  1  0  0  0  0
 12 14  1  0  0  0  0
 12 38  1  6  0  0  0
 13 39  1  0  0  0  0
 13 40  1  0  0  0  0
 14 41  1  0  0  0  0
 14 42  1  0  0  0  0
 15 17  1  0  0  0  0
 15 20  2  0  0  0  0
 16 18  2  0  0  0  0
 16 19  1  0  0  0  0
 17 21  2  0  0  0  0
 17 43  1  0  0  0  0
 18 22  1  0  0  0  0
 18 44  1  0  0  0  0
 19 23  2  0  0  0  0
 19 45  1  0  0  0  0
 20 24  1  0  0  0  0
 20 46  1  0  0  0  0
 21 26  1  0  0  0  0
 21 27  1  0  0  0  0
 22 25  2  0  0  0  0
 22 47  1  0  0  0  0
 23 25  1  0  0  0  0
 23 48  1  0  0  0  0
 24 26  2  0  0  0  0
 24 49  1  0  0  0  0
 25 28  1  0  0  0  0
 26 50  1  0  0  0  0
M  END
>  <DRUGBANK_ID>
DB04793

>  <COMMON_NAME>
1,4:3,6-Dianhydro-2-O-(3-carbamimidoylphenyl)-5-O-(4-carbamimidoylphenyl)-D-glucitol

$$$$
