BRX
 OpenBabel10282417163D

 32 32  0  0  0  0  0  0  0  0999 V2000
    2.4782   -2.9229    5.2074 O   0  0  0  0  0  0  0  0  0  0  0  0
    2.6847   -2.6877    4.0187 C   0  0  0  0  0  0  0  0  0  0  0  0
    3.8132   -1.9679    3.6944 N   0  0  0  0  0  0  0  0  0  0  0  0
    4.2520   -1.6391    2.3385 C   0  0  2  0  0  0  0  0  0  0  0  0
    4.7455   -2.9192    1.5803 C   0  0  0  0  0  0  0  0  0  0  0  0
    5.4864   -3.8322    2.4015 O   0  0  0  0  0  0  0  0  0  0  0  0
    4.9932   -0.2449    2.2823 C   0  0  2  0  0  0  0  0  0  0  0  0
    4.5781    0.4607    1.1061 O   0  0  0  0  0  0  0  0  0  0  0  0
    6.4942   -0.1447    2.3799 C   0  0  0  0  0  0  0  0  0  0  0  0
    7.1703    1.0757    2.4695 C   0  0  0  0  0  0  0  0  0  0  0  0
    8.5720    1.0997    2.5846 C   0  0  0  0  0  0  0  0  0  0  0  0
    9.2932   -0.1014    2.6666 C   0  0  0  0  0  0  0  0  0  0  0  0
   10.7532   -0.1286    2.6569 N   0  3  0  0  0  0  0  0  0  0  0  0
   11.3117   -1.2299    2.6749 O   0  5  0  0  0  0  0  0  0  0  0  0
   11.3431    0.9644    2.5956 O   0  0  0  0  0  0  0  0  0  0  0  0
    8.6338   -1.3129    2.6234 C   0  0  0  0  0  0  0  0  0  0  0  0
    7.2778   -1.2847    2.3827 C   0  0  0  0  0  0  0  0  0  0  0  0
    1.7352   -3.1126    2.8973 C   0  0  0  0  0  0  0  0  0  0  0  0
    1.5954   -5.0383    2.8861 Br  0  0  0  0  0  0  0  0  0  0  0  0
    0.0716   -2.1529    3.0914 Br  0  0  0  0  0  0  0  0  0  0  0  0
    3.3287   -1.3868    1.8112 H   0  0  0  0  0  0  0  0  0  0  0  0
    4.6079    0.3405    3.1335 H   0  0  0  0  0  0  0  0  0  0  0  0
    4.4560   -1.8354    4.4723 H   0  0  0  0  0  0  0  0  0  0  0  0
    3.8748   -3.5232    1.3254 H   0  0  0  0  0  0  0  0  0  0  0  0
    5.2211   -2.7081    0.6164 H   0  0  0  0  0  0  0  0  0  0  0  0
    6.4301   -3.8658    2.1679 H   0  0  0  0  0  0  0  0  0  0  0  0
    3.6149    0.5978    1.1704 H   0  0  0  0  0  0  0  0  0  0  0  0
    6.6164    2.0111    2.3962 H   0  0  0  0  0  0  0  0  0  0  0  0
    9.0864    2.0571    2.5908 H   0  0  0  0  0  0  0  0  0  0  0  0
    9.1341   -2.2753    2.6891 H   0  0  0  0  0  0  0  0  0  0  0  0
    6.8530   -2.2032    2.0899 H   0  0  0  0  0  0  0  0  0  0  0  0
    2.0633   -2.8481    1.8965 H   0  0  0  0  0  0  0  0  0  0  0  0
  1  2  2  0  0  0  0
  2  3  1  0  0  0  0
  2 18  1  0  0  0  0
  3 23  1  0  0  0  0
  4 21  1  6  0  0  0
  4  5  1  0  0  0  0
  4  3  1  0  0  0  0
  5  6  1  0  0  0  0
  5 24  1  0  0  0  0
  5 25  1  0  0  0  0
  6 26  1  0  0  0  0
  7  9  1  0  0  0  0
  7 22  1  1  0  0  0
  7  8  1  0  0  0  0
  7  4  1  0  0  0  0
  8 27  1  0  0  0  0
  9 10  1  0  0  0  0
  9 17  2  0  0  0  0
 10 11  2  0  0  0  0
 10 28  1  0  0  0  0
 11 12  1  0  0  0  0
 11 29  1  0  0  0  0
 12 13  1  0  0  0  0
 12 16  2  0  0  0  0
 13 14  1  0  0  0  0
 13 15  2  0  0  0  0
 16 17  1  0  0  0  0
 16 30  1  0  0  0  0
 17 31  1  0  0  0  0
 18 19  1  0  0  0  0
 18 20  1  0  0  0  0
 18 32  1  0  0  0  0
M  CHG  2  13   1  14  -1
M  END
>  <DRUGBANK_ID>
DB07492

>  <COMMON_NAME>
Bromamphenicol

>  <CAS_NUMBER>
16803-75-1

$$$$
