S2D
 OpenBabel10282417173D

 25 25  0  0  0  0  0  0  0  0999 V2000
    4.8240   -0.4308   -2.9017 O   0  0  0  0  0  0  0  0  0  0  0  0
    3.8909   -0.4655   -3.7005 C   0  0  0  0  0  0  0  0  0  0  0  0
    4.1479   -0.0254   -5.0853 C   0  0  0  0  0  0  0  0  0  0  0  0
    5.3938   -0.3571   -5.6303 C   0  0  0  0  0  0  0  0  0  0  0  0
    5.6651   -0.0873   -6.9670 C   0  0  0  0  0  0  0  0  0  0  0  0
    4.6929    0.5223   -7.7576 C   0  0  0  0  0  0  0  0  0  0  0  0
    3.4625    0.8892   -7.2048 C   0  0  0  0  0  0  0  0  0  0  0  0
    3.2011    0.6575   -5.8526 C   0  0  0  0  0  0  0  0  0  0  0  0
    2.6270   -0.9412   -3.4160 N   0  0  0  0  0  0  0  0  0  0  0  0
    2.2806   -1.5340   -2.1152 C   0  0  2  0  0  0  0  0  0  0  0  0
    2.9345   -0.7926   -0.9521 C   0  0  0  0  0  0  0  0  0  0  0  0
    2.5809   -3.0383   -2.0353 C   0  0  0  0  0  0  0  0  0  0  0  0
    1.7670   -3.9095   -1.7509 O   0  0  0  0  0  0  0  0  0  0  0  0
    3.8697   -3.3634   -2.2529 O   0  0  0  0  0  0  0  0  0  0  0  0
    1.1915   -1.4261   -2.0301 H   0  0  0  0  0  0  0  0  0  0  0  0
    6.1436   -0.8442   -5.0093 H   0  0  0  0  0  0  0  0  0  0  0  0
    6.6227   -0.3763   -7.3911 H   0  0  0  0  0  0  0  0  0  0  0  0
    4.8993    0.7189   -8.8066 H   0  0  0  0  0  0  0  0  0  0  0  0
    2.7040    1.3441   -7.8370 H   0  0  0  0  0  0  0  0  0  0  0  0
    2.2776    1.0212   -5.4109 H   0  0  0  0  0  0  0  0  0  0  0  0
    1.9687   -1.0729   -4.1747 H   0  0  0  0  0  0  0  0  0  0  0  0
    2.3817   -0.9294   -0.0206 H   0  0  0  0  0  0  0  0  0  0  0  0
    3.9521   -1.1588   -0.7728 H   0  0  0  0  0  0  0  0  0  0  0  0
    2.9916    0.2819   -1.1607 H   0  0  0  0  0  0  0  0  0  0  0  0
    3.9409   -4.3271   -2.0995 H   0  0  0  0  0  0  0  0  0  0  0  0
  1  2  2  0  0  0  0
  2  3  1  0  0  0  0
  2  9  1  0  0  0  0
  3  4  1  0  0  0  0
  3  8  2  0  0  0  0
  4  5  2  0  0  0  0
  4 16  1  0  0  0  0
  5  6  1  0  0  0  0
  5 17  1  0  0  0  0
  6  7  2  0  0  0  0
  6 18  1  0  0  0  0
  7  8  1  0  0  0  0
  7 19  1  0  0  0  0
  8 20  1  0  0  0  0
  9 21  1  0  0  0  0
 10 12  1  0  0  0  0
 10 15  1  1  0  0  0
 10 11  1  0  0  0  0
 10  9  1  0  0  0  0
 11 22  1  0  0  0  0
 11 23  1  0  0  0  0
 11 24  1  0  0  0  0
 12 13  2  0  0  0  0
 12 14  1  0  0  0  0
 14 25  1  0  0  0  0
M  END
>  <DRUGBANK_ID>
DB08508

>  <COMMON_NAME>
N-BENZOYL-D-ALANINE

$$$$
