
 OpenBabel10282417223D

 59 63  0  0  0  0  0  0  0  0999 V2000
    1.6861    0.2725   -0.0485 C   0  0  0  0  0  0  0  0  0  0  0  0
    1.3378   -0.0090    1.2851 O   0  0  0  0  0  0  0  0  0  0  0  0
    1.4692   -1.3636    1.6591 C   0  0  0  0  0  0  0  0  0  0  0  0
    0.8413   -2.4032    0.7614 C   0  0  0  0  0  0  0  0  0  0  0  0
   -0.0370   -2.3667   -0.3329 C   0  0  0  0  0  0  0  0  0  0  0  0
   -0.8912   -1.2399   -0.8886 C   0  0  0  0  0  0  0  0  0  0  0  0
   -1.9067   -0.6396    0.0114 N   0  0  0  0  0  0  0  0  0  0  0  0
   -3.0348   -1.5414    0.2252 C   0  0  0  0  0  0  0  0  0  0  0  0
   -2.6454   -2.7368    1.0913 C   0  0  0  0  0  0  0  0  0  0  0  0
   -2.0159   -2.3223    2.3250 N   0  0  0  0  0  0  0  0  0  0  0  0
   -1.4449   -1.0864    2.4898 C   0  0  0  0  0  0  0  0  0  0  0  0
   -0.9560   -0.8017    3.5968 O   0  0  0  0  0  0  0  0  0  0  0  0
   -1.5254   -0.0673    1.3286 C   0  0  0  0  0  0  0  0  0  0  0  0
   -0.0633   -3.6731   -0.8539 N   0  0  0  0  0  0  0  0  0  0  0  0
   -0.7027   -4.1155   -1.9602 N   0  0  0  0  0  0  0  0  0  0  0  0
   -0.6557   -5.4071   -2.1215 C   0  0  0  0  0  0  0  0  0  0  0  0
   -0.0742   -6.3410   -1.2952 N   0  0  0  0  0  0  0  0  0  0  0  0
    0.5274   -5.9304   -0.2241 C   0  0  0  0  0  0  0  0  0  0  0  0
    1.1033   -6.8434    0.6084 N   0  0  0  0  0  0  0  0  0  0  0  0
    0.5605   -4.5258    0.0135 C   0  0  0  0  0  0  0  0  0  0  0  0
    1.0652   -3.7715    1.0278 C   0  0  0  0  0  0  0  0  0  0  0  0
    1.6725   -4.2581    2.2691 C   0  0  0  0  0  0  0  0  0  0  0  0
    2.9200   -4.8062    2.3647 C   0  0  0  0  0  0  0  0  0  0  0  0
    3.2778   -5.0320    3.7306 C   0  0  0  0  0  0  0  0  0  0  0  0
    2.2584   -4.6375    4.6027 C   0  0  0  0  0  0  0  0  0  0  0  0
    0.8798   -4.0905    3.7479 S   0  0  0  0  0  0  0  0  0  0  0  0
    2.3728   -4.7077    6.0004 C   0  0  0  0  0  0  0  0  0  0  0  0
    1.3104   -4.2637    6.7362 O   0  0  0  0  0  0  0  0  0  0  0  0
    1.4189   -4.3456    8.1453 C   0  0  0  0  0  0  0  0  0  0  0  0
    3.5573   -5.2325    6.5121 C   0  0  0  0  0  0  0  0  0  0  0  0
    4.5910   -5.6571    5.6735 C   0  0  0  0  0  0  0  0  0  0  0  0
    5.8453   -6.2236    6.2603 C   0  0  0  0  0  0  0  0  0  0  0  0
    4.4619   -5.5533    4.2837 C   0  0  0  0  0  0  0  0  0  0  0  0
    1.0170    1.0667   -0.3945 H   0  0  0  0  0  0  0  0  0  0  0  0
    1.5837   -0.5830   -0.7114 H   0  0  0  0  0  0  0  0  0  0  0  0
    2.7219    0.5773   -0.1080 H   0  0  0  0  0  0  0  0  0  0  0  0
    2.5370   -1.5757    1.7584 H   0  0  0  0  0  0  0  0  0  0  0  0
    1.0754   -1.4601    2.6742 H   0  0  0  0  0  0  0  0  0  0  0  0
   -0.2964   -0.4333   -1.3223 H   0  0  0  0  0  0  0  0  0  0  0  0
   -1.4171   -1.5968   -1.7866 H   0  0  0  0  0  0  0  0  0  0  0  0
   -3.8206   -0.9756    0.7400 H   0  0  0  0  0  0  0  0  0  0  0  0
   -3.4458   -1.8496   -0.7382 H   0  0  0  0  0  0  0  0  0  0  0  0
   -3.5071   -3.3583    1.3250 H   0  0  0  0  0  0  0  0  0  0  0  0
   -1.9686   -3.4109    0.5812 H   0  0  0  0  0  0  0  0  0  0  0  0
   -1.8047   -2.9999    3.0473 H   0  0  0  0  0  0  0  0  0  0  0  0
   -2.3036    0.6364    1.6503 H   0  0  0  0  0  0  0  0  0  0  0  0
   -0.6602    0.5839    1.2628 H   0  0  0  0  0  0  0  0  0  0  0  0
   -1.1417   -5.8337   -3.0165 H   0  0  0  0  0  0  0  0  0  0  0  0
    1.4448   -6.5847    1.5235 H   0  0  0  0  0  0  0  0  0  0  0  0
    1.0596   -7.8282    0.3961 H   0  0  0  0  0  0  0  0  0  0  0  0
    3.5592   -4.9937    1.5098 H   0  0  0  0  0  0  0  0  0  0  0  0
    1.5164   -5.3885    8.4610 H   0  0  0  0  0  0  0  0  0  0  0  0
    2.2514   -3.7359    8.5093 H   0  0  0  0  0  0  0  0  0  0  0  0
    0.4959   -3.9477    8.5760 H   0  0  0  0  0  0  0  0  0  0  0  0
    3.6922   -5.3250    7.5841 H   0  0  0  0  0  0  0  0  0  0  0  0
    5.9872   -7.2508    5.9122 H   0  0  0  0  0  0  0  0  0  0  0  0
    6.7025   -5.6100    5.9695 H   0  0  0  0  0  0  0  0  0  0  0  0
    5.7925   -6.2394    7.3531 H   0  0  0  0  0  0  0  0  0  0  0  0
    5.2681   -5.8732    3.6271 H   0  0  0  0  0  0  0  0  0  0  0  0
  1  2  1  0  0  0  0
  1 34  1  0  0  0  0
  1 35  1  0  0  0  0
  1 36  1  0  0  0  0
  2  3  1  0  0  0  0
  3  4  1  0  0  0  0
  3 37  1  0  0  0  0
  3 38  1  0  0  0  0
  4  5  2  0  0  0  0
  4 21  1  0  0  0  0
  5  6  1  0  0  0  0
  5 14  1  0  0  0  0
  6  7  1  0  0  0  0
  6 39  1  0  0  0  0
  6 40  1  0  0  0  0
  7  8  1  0  0  0  0
  7 13  1  0  0  0  0
  8  9  1  0  0  0  0
  8 41  1  0  0  0  0
  8 42  1  0  0  0  0
  9 10  1  0  0  0  0
  9 43  1  0  0  0  0
  9 44  1  0  0  0  0
 10 11  1  0  0  0  0
 10 45  1  0  0  0  0
 11 12  2  0  0  0  0
 11 13  1  0  0  0  0
 13 46  1  0  0  0  0
 13 47  1  0  0  0  0
 14 15  1  0  0  0  0
 14 20  1  0  0  0  0
 15 16  2  0  0  0  0
 16 17  1  0  0  0  0
 16 48  1  0  0  0  0
 17 18  2  0  0  0  0
 18 19  1  0  0  0  0
 18 20  1  0  0  0  0
 19 49  1  0  0  0  0
 19 50  1  0  0  0  0
 20 21  2  0  0  0  0
 21 22  1  0  0  0  0
 22 23  2  0  0  0  0
 22 26  1  0  0  0  0
 23 24  1  0  0  0  0
 23 51  1  0  0  0  0
 24 25  2  0  0  0  0
 24 33  1  0  0  0  0
 25 26  1  0  0  0  0
 25 27  1  0  0  0  0
 27 28  1  0  0  0  0
 27 30  2  0  0  0  0
 28 29  1  0  0  0  0
 29 52  1  0  0  0  0
 29 53  1  0  0  0  0
 29 54  1  0  0  0  0
 30 31  1  0  0  0  0
 30 55  1  0  0  0  0
 31 32  1  0  0  0  0
 31 33  2  0  0  0  0
 32 56  1  0  0  0  0
 32 57  1  0  0  0  0
 32 58  1  0  0  0  0
 33 59  1  0  0  0  0
M  END
>  <DRUGBANK_ID>
DB15078

>  <COMMON_NAME>
Rogaratinib

>  <CAS_NUMBER>
1443530-05-9

>  <UNII>
98BSN6N516

>  <SYNONYMS>
Rogaratinib

$$$$
