4167
 OpenBabel10282417103D

 45 48  0  0  1  0  0  0  0  0999 V2000
    0.0552   -1.9462   -0.1569 S   0  0  0  0  0  0  0  0  0  0  0  0
   -2.4082    4.8968   -0.6664 N   0  0  0  0  0  0  0  0  0  0  0  0
   -1.2164    2.9429   -1.6984 C   0  0  3  0  0  0  0  0  0  0  0  0
   -0.0897    1.9318   -1.4005 C   0  0  0  0  0  0  0  0  0  0  0  0
   -2.5476    2.2507   -1.9899 C   0  0  0  0  0  0  0  0  0  0  0  0
   -1.2315    4.0334   -0.6173 C   0  0  0  0  0  0  0  0  0  0  0  0
   -0.0170    1.2777    0.0361 C   0  0  0  0  0  0  0  0  0  0  0  0
   -3.7684    3.1292   -1.7633 C   0  0  0  0  0  0  0  0  0  0  0  0
   -3.6447    4.1112   -0.5940 C   0  0  0  0  0  0  0  0  0  0  0  0
    1.3166    0.5501    0.0904 C   0  0  0  0  0  0  0  0  0  0  0  0
   -1.2490    0.4467    0.4111 C   0  0  0  0  0  0  0  0  0  0  0  0
   -2.3385    5.8483    0.4482 C   0  0  0  0  0  0  0  0  0  0  0  0
    1.4240   -0.8382    0.0194 C   0  0  0  0  0  0  0  0  0  0  0  0
   -1.3435   -0.9137    0.1517 C   0  0  0  0  0  0  0  0  0  0  0  0
   -2.4223    1.1137    0.8307 C   0  0  0  0  0  0  0  0  0  0  0  0
    2.4951    1.3326    0.1031 C   0  0  0  0  0  0  0  0  0  0  0  0
    2.6923   -1.4294    0.0119 C   0  0  0  0  0  0  0  0  0  0  0  0
   -2.6061   -1.5376    0.0856 C   0  0  0  0  0  0  0  0  0  0  0  0
    3.7504    0.7334    0.0512 C   0  0  0  0  0  0  0  0  0  0  0  0
   -3.6828    0.5198    0.6436 C   0  0  0  0  0  0  0  0  0  0  0  0
    3.8461   -0.6486    0.0227 C   0  0  0  0  0  0  0  0  0  0  0  0
   -3.7742   -0.7916    0.2426 C   0  0  0  0  0  0  0  0  0  0  0  0
   -0.9598    3.4493   -2.6406 H   0  0  0  0  0  0  0  0  0  0  0  0
    0.8396    2.4956   -1.5757 H   0  0  0  0  0  0  0  0  0  0  0  0
   -0.0905    1.1472   -2.1692 H   0  0  0  0  0  0  0  0  0  0  0  0
   -2.5500    1.8242   -3.0006 H   0  0  0  0  0  0  0  0  0  0  0  0
   -2.6584    1.3496   -1.4151 H   0  0  0  0  0  0  0  0  0  0  0  0
   -0.3249    4.6401   -0.7511 H   0  0  0  0  0  0  0  0  0  0  0  0
   -1.1387    3.6198    0.3878 H   0  0  0  0  0  0  0  0  0  0  0  0
    0.0709    2.0603    0.7999 H   0  0  0  0  0  0  0  0  0  0  0  0
   -3.9628    3.6864   -2.6839 H   0  0  0  0  0  0  0  0  0  0  0  0
   -4.6421    2.4856   -1.5947 H   0  0  0  0  0  0  0  0  0  0  0  0
   -3.7281    3.5898    0.3661 H   0  0  0  0  0  0  0  0  0  0  0  0
   -4.5095    4.7833   -0.6320 H   0  0  0  0  0  0  0  0  0  0  0  0
   -3.1780    6.5475    0.4108 H   0  0  0  0  0  0  0  0  0  0  0  0
   -2.3456    5.3483    1.4259 H   0  0  0  0  0  0  0  0  0  0  0  0
   -1.4198    6.4427    0.3828 H   0  0  0  0  0  0  0  0  0  0  0  0
   -2.3893    2.1598    1.0821 H   0  0  0  0  0  0  0  0  0  0  0  0
    2.4361    2.4195    0.1054 H   0  0  0  0  0  0  0  0  0  0  0  0
    2.7819   -2.5109   -0.0274 H   0  0  0  0  0  0  0  0  0  0  0  0
   -2.6826   -2.5893   -0.1564 H   0  0  0  0  0  0  0  0  0  0  0  0
    4.6451    1.3493    0.0222 H   0  0  0  0  0  0  0  0  0  0  0  0
   -4.5777    1.1453    0.6733 H   0  0  0  0  0  0  0  0  0  0  0  0
    4.8177   -1.1327   -0.0090 H   0  0  0  0  0  0  0  0  0  0  0  0
   -4.7408   -1.2436    0.0226 H   0  0  0  0  0  0  0  0  0  0  0  0
  1 13  1  0  0  0  0
  1 14  1  0  0  0  0
  2  6  1  0  0  0  0
  2  9  1  0  0  0  0
  2 12  1  0  0  0  0
  3  4  1  0  0  0  0
  3  5  1  0  0  0  0
  3  6  1  0  0  0  0
  3 23  1  0  0  0  0
  4  7  1  0  0  0  0
  4 24  1  0  0  0  0
  4 25  1  0  0  0  0
  5  8  1  0  0  0  0
  5 26  1  0  0  0  0
  5 27  1  0  0  0  0
  6 28  1  0  0  0  0
  6 29  1  0  0  0  0
  7 10  1  0  0  0  0
  7 11  1  0  0  0  0
  7 30  1  0  0  0  0
  8  9  1  0  0  0  0
  8 31  1  0  0  0  0
  8 32  1  0  0  0  0
  9 33  1  0  0  0  0
  9 34  1  0  0  0  0
 10 13  1  0  0  0  0
 10 16  2  0  0  0  0
 11 14  1  0  0  0  0
 11 15  2  0  0  0  0
 12 35  1  0  0  0  0
 12 36  1  0  0  0  0
 12 37  1  0  0  0  0
 13 17  2  0  0  0  0
 14 18  2  0  0  0  0
 15 20  1  0  0  0  0
 15 38  1  0  0  0  0
 16 19  1  0  0  0  0
 16 39  1  0  0  0  0
 17 21  1  0  0  0  0
 17 40  1  0  0  0  0
 18 22  1  0  0  0  0
 18 41  1  0  0  0  0
 19 21  2  0  0  0  0
 19 42  1  0  0  0  0
 20 22  2  0  0  0  0
 20 43  1  0  0  0  0
 21 44  1  0  0  0  0
 22 45  1  0  0  0  0
M  END
>  <DRUGBANK_ID>
DB00340

>  <SECONDARY_ACCESSION_NUMBERS>
APRD01101

>  <COMMON_NAME>
Metixene

>  <CAS_NUMBER>
4969-02-2

>  <UNII>
32VY6L26ZW

>  <SYNONYMS>
Methixen; Methixene; Metisene; Metixene; Métixène; Metixeno; Metixenum

$$$$
