
 OpenBabel10282417223D

 57 60  0  0  1  0  0  0  0  0999 V2000
   -1.1386    0.0039   -1.5510 C   0  0  0  0  0  0  0  0  0  0  0  0
    0.4016    0.0330   -1.5658 C   0  0  2  0  0  0  0  0  0  0  0  0
    0.7500    1.4272   -2.1470 C   0  0  0  0  0  0  0  0  0  0  0  0
    0.9049    1.3712   -3.6107 C   0  0  0  0  0  0  0  0  0  0  0  0
    1.0036    0.1832   -4.2947 C   0  0  0  0  0  0  0  0  0  0  0  0
    0.8844    0.5043   -5.6242 N   0  0  0  0  0  0  0  0  0  0  0  0
    1.0756    1.8475   -5.8050 C   0  0  0  0  0  0  0  0  0  0  0  0
    0.9989    2.4258   -4.5442 C   0  0  0  0  0  0  0  0  0  0  0  0
    1.0518    3.8183   -4.4313 C   0  0  0  0  0  0  0  0  0  0  0  0
    1.2437    4.5716   -5.5908 C   0  0  0  0  0  0  0  0  0  0  0  0
    1.3781    3.9567   -6.8378 C   0  0  0  0  0  0  0  0  0  0  0  0
    1.2945    2.5716   -6.9749 C   0  0  0  0  0  0  0  0  0  0  0  0
    0.9728   -1.2094   -3.7078 C   0  0  2  0  0  0  0  0  0  0  0  0
    1.1330   -1.1094   -2.2231 N   0  0  0  0  0  0  0  0  0  0  0  0
    0.9241   -2.3649   -1.4684 C   0  0  0  0  0  0  0  0  0  0  0  0
   -0.5014   -3.0485   -1.5177 C   0  0  0  0  0  0  0  0  0  0  0  0
   -1.2743   -3.1135   -2.8577 C   0  0  0  0  0  0  0  0  0  0  0  0
   -0.5554   -4.3994   -0.8492 C   0  0  0  0  0  0  0  0  0  0  0  0
   -1.2958   -2.3663   -0.6365 F   0  0  0  0  0  0  0  0  0  0  0  0
    1.7735   -2.3017   -4.4408 C   0  0  0  0  0  0  0  0  0  0  0  0
    1.7587   -3.6794   -4.1143 C   0  0  0  0  0  0  0  0  0  0  0  0
    1.0952   -4.2054   -3.0900 F   0  0  0  0  0  0  0  0  0  0  0  0
    2.4037   -4.6743   -4.8314 C   0  0  0  0  0  0  0  0  0  0  0  0
    3.0514   -4.3463   -5.9947 C   0  0  0  0  0  0  0  0  0  0  0  0
    3.7465   -5.3669   -6.7517 C   0  0  0  0  0  0  0  0  0  0  0  0
    4.3996   -5.0802   -7.8866 C   0  0  0  0  0  0  0  0  0  0  0  0
    5.1009   -6.1436   -8.5895 C   0  0  0  0  0  0  0  0  0  0  0  0
    5.7005   -5.7096   -9.7075 O   0  0  0  0  0  0  0  0  0  0  0  0
    5.1350   -7.3112   -8.2012 O   0  0  0  0  0  0  0  0  0  0  0  0
    3.0370   -3.0239   -6.3925 C   0  0  0  0  0  0  0  0  0  0  0  0
    2.4639   -2.0403   -5.6185 C   0  0  0  0  0  0  0  0  0  0  0  0
    2.6265   -0.8285   -6.1466 F   0  0  0  0  0  0  0  0  0  0  0  0
   -1.5520    0.9655   -1.2464 H   0  0  0  0  0  0  0  0  0  0  0  0
   -1.5806   -0.6129   -0.7859 H   0  0  0  0  0  0  0  0  0  0  0  0
   -1.5495   -0.2436   -2.5294 H   0  0  0  0  0  0  0  0  0  0  0  0
    0.7359    0.0545   -0.5178 H   0  0  0  0  0  0  0  0  0  0  0  0
   -0.0697    2.1264   -1.9346 H   0  0  0  0  0  0  0  0  0  0  0  0
    1.6478    1.8333   -1.6803 H   0  0  0  0  0  0  0  0  0  0  0  0
    0.9340   -0.1628   -6.3803 H   0  0  0  0  0  0  0  0  0  0  0  0
    0.9738    4.2865   -3.4567 H   0  0  0  0  0  0  0  0  0  0  0  0
    1.3016    5.6516   -5.5104 H   0  0  0  0  0  0  0  0  0  0  0  0
    1.5418    4.5658   -7.7217 H   0  0  0  0  0  0  0  0  0  0  0  0
    1.3993    2.0838   -7.9382 H   0  0  0  0  0  0  0  0  0  0  0  0
   -0.0479   -1.4356   -3.9630 H   0  0  0  0  0  0  0  0  0  0  0  0
    1.7605   -3.0336   -1.7048 H   0  0  0  0  0  0  0  0  0  0  0  0
    1.1754   -2.1698   -0.4149 H   0  0  0  0  0  0  0  0  0  0  0  0
   -0.8069   -3.7216   -3.6349 H   0  0  0  0  0  0  0  0  0  0  0  0
   -2.2767   -3.5155   -2.7191 H   0  0  0  0  0  0  0  0  0  0  0  0
   -1.4976   -2.1419   -3.2880 H   0  0  0  0  0  0  0  0  0  0  0  0
   -0.2267   -4.2919    0.1887 H   0  0  0  0  0  0  0  0  0  0  0  0
   -1.6161   -4.6786   -0.7985 H   0  0  0  0  0  0  0  0  0  0  0  0
   -0.0001   -5.1829   -1.3556 H   0  0  0  0  0  0  0  0  0  0  0  0
    2.3515   -5.6883   -4.4398 H   0  0  0  0  0  0  0  0  0  0  0  0
    3.7320   -6.3739   -6.3386 H   0  0  0  0  0  0  0  0  0  0  0  0
    4.4385   -4.0883   -8.3094 H   0  0  0  0  0  0  0  0  0  0  0  0
    5.6098   -4.7595   -9.9137 H   0  0  0  0  0  0  0  0  0  0  0  0
    3.4860   -2.6674   -7.3080 H   0  0  0  0  0  0  0  0  0  0  0  0
  1 33  1  0  0  0  0
  1 34  1  0  0  0  0
  1 35  1  0  0  0  0
  2  3  1  0  0  0  0
  2 14  1  0  0  0  0
  2 36  1  1  0  0  0
  2  1  1  0  0  0  0
  3  4  1  0  0  0  0
  3 37  1  0  0  0  0
  3 38  1  0  0  0  0
  4  5  2  0  0  0  0
  4  8  1  0  0  0  0
  5  6  1  0  0  0  0
  6  7  1  0  0  0  0
  6 39  1  0  0  0  0
  7  8  2  0  0  0  0
  7 12  1  0  0  0  0
  8  9  1  0  0  0  0
  9 10  2  0  0  0  0
  9 40  1  0  0  0  0
 10 11  1  0  0  0  0
 10 41  1  0  0  0  0
 11 12  2  0  0  0  0
 11 42  1  0  0  0  0
 12 43  1  0  0  0  0
 13  5  1  0  0  0  0
 13 14  1  0  0  0  0
 13 20  1  0  0  0  0
 13 44  1  6  0  0  0
 14 15  1  0  0  0  0
 15 16  1  0  0  0  0
 15 45  1  0  0  0  0
 15 46  1  0  0  0  0
 16 17  1  0  0  0  0
 16 18  1  0  0  0  0
 16 19  1  0  0  0  0
 17 47  1  0  0  0  0
 17 48  1  0  0  0  0
 17 49  1  0  0  0  0
 18 50  1  0  0  0  0
 18 51  1  0  0  0  0
 18 52  1  0  0  0  0
 20 21  2  0  0  0  0
 20 31  1  0  0  0  0
 21 22  1  0  0  0  0
 21 23  1  0  0  0  0
 23 24  2  0  0  0  0
 23 53  1  0  0  0  0
 24 25  1  0  0  0  0
 24 30  1  0  0  0  0
 25 26  2  0  0  0  0
 25 54  1  0  0  0  0
 26 27  1  0  0  0  0
 26 55  1  0  0  0  0
 27 28  1  0  0  0  0
 27 29  2  0  0  0  0
 28 56  1  0  0  0  0
 30 31  2  0  0  0  0
 30 57  1  0  0  0  0
 31 32  1  0  0  0  0
M  END
>  <DRUGBANK_ID>
DB15138

>  <COMMON_NAME>
AZD-9496

>  <CAS_NUMBER>
1639042-08-2

>  <UNII>
DA9P7LN909

$$$$
