
 OpenBabel10282417163D

 13 13  0  0  0  0  0  0  0  0999 V2000
   -1.4211   -0.1018   -0.0266 N   0  3  0  0  0  0  0  0  0  0  0  0
   -0.6483   -1.2677   -0.0276 C   0  0  0  0  0  0  0  0  0  0  0  0
   -2.6966   -0.1333   -0.0771 O   0  5  0  0  0  0  0  0  0  0  0  0
   -1.4157   -2.8789   -0.1367 S   0  0  0  0  0  0  0  0  0  0  0  0
   -0.7717    1.1279    0.0213 C   0  0  0  0  0  0  0  0  0  0  0  0
    0.7520   -1.1805    0.0276 C   0  0  0  0  0  0  0  0  0  0  0  0
    0.6199    1.2229   -0.0111 C   0  0  0  0  0  0  0  0  0  0  0  0
    1.3792    0.0637   -0.0068 C   0  0  0  0  0  0  0  0  0  0  0  0
   -2.6604   -2.4015   -0.3214 H   0  0  0  0  0  0  0  0  0  0  0  0
   -1.4449    1.9686    0.0656 H   0  0  0  0  0  0  0  0  0  0  0  0
    1.3530   -2.0837    0.0793 H   0  0  0  0  0  0  0  0  0  0  0  0
    1.0996    2.1989   -0.0376 H   0  0  0  0  0  0  0  0  0  0  0  0
    2.4668    0.1201   -0.0323 H   0  0  0  0  0  0  0  0  0  0  0  0
  2  1  2  0  0  0  0
  3  1  1  0  0  0  0
  4  2  1  0  0  0  0
  4  9  1  0  0  0  0
  5  1  1  0  0  0  0
  5 10  1  0  0  0  0
  6  2  1  0  0  0  0
  6  8  2  0  0  0  0
  6 11  1  0  0  0  0
  7  5  2  0  0  0  0
  7 12  1  0  0  0  0
  8  7  1  0  0  0  0
  8 13  1  0  0  0  0
M  CHG  2   1   1   3  -1
M  END
>  <DRUGBANK_ID>
DB06815

>  <COMMON_NAME>
Pyrithione

>  <CAS_NUMBER>
1121-31-9

>  <UNII>
6GK82EC25D

>  <SYNONYMS>
2-pyridinethiol 1-oxide; Omadine; Pyridinethiol N-oxide

$$$$
