3G3
 OpenBabel10282417163D

 27 29  0  0  0  0  0  0  0  0999 V2000
    1.5298    2.2889    0.0482 O   0  0  0  0  0  0  0  0  0  0  0  0
    1.1448    1.1373    0.0047 C   0  0  0  0  0  0  0  0  0  0  0  0
   -0.2665    0.7295    0.0024 C   0  0  0  0  0  0  0  0  0  0  0  0
   -1.4372    1.4587    0.0014 C   0  0  0  0  0  0  0  0  0  0  0  0
   -2.6418    0.7387    0.0063 C   0  0  0  0  0  0  0  0  0  0  0  0
   -2.6517   -0.6723    0.0374 C   0  0  0  0  0  0  0  0  0  0  0  0
   -1.4573   -1.3876    0.0083 C   0  0  0  0  0  0  0  0  0  0  0  0
   -0.2926   -0.6497   -0.0494 C   0  0  0  0  0  0  0  0  0  0  0  0
    1.8816   -0.0157   -0.0714 N   0  0  0  0  0  0  0  0  0  0  0  0
    1.0659   -1.0896   -0.2934 C   0  0  0  0  0  0  0  0  0  0  0  0
    1.3285   -2.1843   -0.7650 O   0  0  0  0  0  0  0  0  0  0  0  0
    3.3362   -0.0782   -0.1284 C   0  0  0  0  0  0  0  0  0  0  0  0
    3.9725   -0.7792    1.0920 C   0  0  0  0  0  0  0  0  0  0  0  0
    3.5306   -2.1878    1.2761 C   0  0  0  0  0  0  0  0  0  0  0  0
    2.3514   -2.6155    1.6802 N   0  0  0  0  0  0  0  0  0  0  0  0
    2.3363   -3.9688    1.4426 N   0  0  0  0  0  0  0  0  0  0  0  0
    3.5343   -4.3935    1.0689 N   0  0  0  0  0  0  0  0  0  0  0  0
    4.2967   -3.2929    1.0389 N   0  0  0  0  0  0  0  0  0  0  0  0
   -1.4253    2.5427   -0.0310 H   0  0  0  0  0  0  0  0  0  0  0  0
   -3.5899    1.2723   -0.0171 H   0  0  0  0  0  0  0  0  0  0  0  0
   -3.5976   -1.2103    0.0539 H   0  0  0  0  0  0  0  0  0  0  0  0
   -1.4299   -2.4729    0.0119 H   0  0  0  0  0  0  0  0  0  0  0  0
    3.6207   -0.5888   -1.0563 H   0  0  0  0  0  0  0  0  0  0  0  0
    3.7297    0.9452   -0.1820 H   0  0  0  0  0  0  0  0  0  0  0  0
    5.0642   -0.7443    0.9864 H   0  0  0  0  0  0  0  0  0  0  0  0
    3.7180   -0.2199    1.9989 H   0  0  0  0  0  0  0  0  0  0  0  0
    5.2911   -3.3842    0.8802 H   0  0  0  0  0  0  0  0  0  0  0  0
  1  2  2  0  0  0  0
  2  3  1  0  0  0  0
  2  9  1  0  0  0  0
  3  4  2  0  0  0  0
  3  8  1  0  0  0  0
  4  5  1  0  0  0  0
  4 19  1  0  0  0  0
  5  6  2  0  0  0  0
  5 20  1  0  0  0  0
  6  7  1  0  0  0  0
  6 21  1  0  0  0  0
  7  8  2  0  0  0  0
  7 22  1  0  0  0  0
  8 10  1  0  0  0  0
  9 10  1  0  0  0  0
  9 12  1  0  0  0  0
 10 11  2  0  0  0  0
 12 13  1  0  0  0  0
 12 23  1  0  0  0  0
 12 24  1  0  0  0  0
 13 14  1  0  0  0  0
 13 25  1  0  0  0  0
 13 26  1  0  0  0  0
 14 15  2  0  0  0  0
 14 18  1  0  0  0  0
 15 16  1  0  0  0  0
 16 17  2  0  0  0  0
 17 18  1  0  0  0  0
 18 27  1  0  0  0  0
M  END
>  <DRUGBANK_ID>
DB07055

>  <COMMON_NAME>
2-[2-(1H-tetrazol-5-yl)ethyl]-1H-isoindole-1,3(2H)-dione

$$$$
