1498
 OpenBabel10282417113D

 52 53  0  0  1  0  0  0  0  0999 V2000
    2.4231    0.6706    5.3874 O   0  0  0  0  0  0  0  0  0  0  0  0
    2.5128   -2.3030    1.1941 N   0  0  0  0  0  0  0  0  0  0  0  0
    3.7117   -1.4649    4.9281 C   0  0  0  0  0  0  0  0  0  0  0  0
    2.7429   -1.8553    3.7156 C   0  0  0  0  0  0  0  0  0  0  0  0
    3.7350    0.1627    5.0602 C   0  0  1  0  0  0  0  0  0  0  0  0
    3.0638   -1.4392    2.2467 C   0  0  1  0  0  0  0  0  0  0  0  0
    5.1576   -2.1399    4.7429 C   0  0  0  0  0  0  0  0  0  0  0  0
    3.0357   -2.1216    6.2097 C   0  0  0  0  0  0  0  0  0  0  0  0
    4.1739    1.0251    3.8567 C   0  0  0  0  0  0  0  0  0  0  0  0
    4.5321   -1.3223    1.8952 C   0  0  0  0  0  0  0  0  0  0  0  0
    5.3455   -3.5336    4.7176 C   0  0  0  0  0  0  0  0  0  0  0  0
    2.6835   -3.4931    6.2256 C   0  0  0  0  0  0  0  0  0  0  0  0
    6.2947   -1.4040    4.3537 C   0  0  0  0  0  0  0  0  0  0  0  0
    2.8002   -1.4190    7.3995 C   0  0  0  0  0  0  0  0  0  0  0  0
    4.2424    2.5167    4.0559 C   0  0  0  0  0  0  0  0  0  0  0  0
    1.0723   -2.1685    1.0617 C   0  0  0  0  0  0  0  0  0  0  0  0
    2.9389   -3.6954    1.3138 C   0  0  0  0  0  0  0  0  0  0  0  0
    6.4451   -4.1594    4.1197 C   0  0  0  0  0  0  0  0  0  0  0  0
    2.3301   -4.1687    7.3881 C   0  0  0  0  0  0  0  0  0  0  0  0
    7.3052   -2.0122    3.5825 C   0  0  0  0  0  0  0  0  0  0  0  0
    2.3617   -2.0765    8.5543 C   0  0  0  0  0  0  0  0  0  0  0  0
    7.3875   -3.3820    3.4634 C   0  0  0  0  0  0  0  0  0  0  0  0
    2.1615   -3.4534    8.5603 C   0  0  0  0  0  0  0  0  0  0  0  0
    1.8081    0.4243    4.6765 H   0  0  0  0  0  0  0  0  0  0  0  0
    2.5961   -2.9325    3.7234 H   0  0  0  0  0  0  0  0  0  0  0  0
    1.7308   -1.4790    3.9454 H   0  0  0  0  0  0  0  0  0  0  0  0
    4.3883    0.4159    5.9036 H   0  0  0  0  0  0  0  0  0  0  0  0
    2.6025   -0.4576    2.0896 H   0  0  0  0  0  0  0  0  0  0  0  0
    5.1761    0.8046    3.5140 H   0  0  0  0  0  0  0  0  0  0  0  0
    3.4750    0.9100    3.0346 H   0  0  0  0  0  0  0  0  0  0  0  0
    4.7277   -0.8286    0.9441 H   0  0  0  0  0  0  0  0  0  0  0  0
    5.0229   -0.7058    2.6039 H   0  0  0  0  0  0  0  0  0  0  0  0
    5.0645   -2.2690    1.9344 H   0  0  0  0  0  0  0  0  0  0  0  0
    4.6350   -4.2352    5.1315 H   0  0  0  0  0  0  0  0  0  0  0  0
    2.7299   -4.1053    5.3284 H   0  0  0  0  0  0  0  0  0  0  0  0
    6.3528   -0.3347    4.4515 H   0  0  0  0  0  0  0  0  0  0  0  0
    2.9341   -0.3436    7.4666 H   0  0  0  0  0  0  0  0  0  0  0  0
    4.9675    2.7594    4.8330 H   0  0  0  0  0  0  0  0  0  0  0  0
    4.5912    2.9541    3.1105 H   0  0  0  0  0  0  0  0  0  0  0  0
    3.2613    2.9312    4.2827 H   0  0  0  0  0  0  0  0  0  0  0  0
    0.7303   -2.7137    0.1778 H   0  0  0  0  0  0  0  0  0  0  0  0
    0.5425   -2.5385    1.9435 H   0  0  0  0  0  0  0  0  0  0  0  0
    0.7921   -1.1189    0.9058 H   0  0  0  0  0  0  0  0  0  0  0  0
    2.6969   -4.2437    0.4035 H   0  0  0  0  0  0  0  0  0  0  0  0
    4.0225   -3.7983    1.4260 H   0  0  0  0  0  0  0  0  0  0  0  0
    2.4822   -4.2022    2.1664 H   0  0  0  0  0  0  0  0  0  0  0  0
    6.5078   -5.2388    4.1042 H   0  0  0  0  0  0  0  0  0  0  0  0
    2.2053   -5.2478    7.3666 H   0  0  0  0  0  0  0  0  0  0  0  0
    7.9728   -1.3799    2.9917 H   0  0  0  0  0  0  0  0  0  0  0  0
    2.2008   -1.5040    9.4639 H   0  0  0  0  0  0  0  0  0  0  0  0
    8.1660   -3.8536    2.8720 H   0  0  0  0  0  0  0  0  0  0  0  0
    1.8599   -3.9653    9.4662 H   0  0  0  0  0  0  0  0  0  0  0  0
  1 24  1  0  0  0  0
  2 16  1  0  0  0  0
  2 17  1  0  0  0  0
  3  4  1  0  0  0  0
  3  5  1  0  0  0  0
  3  7  1  0  0  0  0
  3  8  1  0  0  0  0
  4 25  1  0  0  0  0
  4 26  1  0  0  0  0
  5  1  1  0  0  0  0
  5  9  1  0  0  0  0
  5 27  1  1  0  0  0
  6 10  1  0  0  0  0
  6 28  1  6  0  0  0
  6  4  1  0  0  0  0
  6  2  1  0  0  0  0
  7 11  2  0  0  0  0
  7 13  1  0  0  0  0
  8 12  2  0  0  0  0
  8 14  1  0  0  0  0
  9 15  1  0  0  0  0
  9 29  1  0  0  0  0
  9 30  1  0  0  0  0
 10 31  1  0  0  0  0
 10 32  1  0  0  0  0
 10 33  1  0  0  0  0
 11 18  1  0  0  0  0
 11 34  1  0  0  0  0
 12 19  1  0  0  0  0
 12 35  1  0  0  0  0
 13 20  2  0  0  0  0
 13 36  1  0  0  0  0
 14 21  2  0  0  0  0
 14 37  1  0  0  0  0
 15 38  1  0  0  0  0
 15 39  1  0  0  0  0
 15 40  1  0  0  0  0
 16 41  1  0  0  0  0
 16 42  1  0  0  0  0
 16 43  1  0  0  0  0
 17 44  1  0  0  0  0
 17 45  1  0  0  0  0
 17 46  1  0  0  0  0
 18 22  2  0  0  0  0
 18 47  1  0  0  0  0
 19 23  2  0  0  0  0
 19 48  1  0  0  0  0
 20 22  1  0  0  0  0
 20 49  1  0  0  0  0
 21 23  1  0  0  0  0
 21 50  1  0  0  0  0
 22 51  1  0  0  0  0
 23 52  1  0  0  0  0
M  END
>  <DRUGBANK_ID>
DB01498

>  <COMMON_NAME>
Alphamethadol

>  <CAS_NUMBER>
17199-54-1

>  <UNII>
XBD99QNI42

>  <SYNONYMS>
Alphamethadol

$$$$
