
 OpenBabel10282417203D

 52 56  0  0  0  0  0  0  0  0999 V2000
    0.1595    0.6876   -0.6111 C   0  0  2  0  0  0  0  0  0  0  0  0
   -0.5915   -0.5479   -0.3758 N   0  0  0  0  0  0  0  0  0  0  0  0
   -0.0768   -1.7977   -0.0357 C   0  0  0  0  0  0  0  0  0  0  0  0
    1.2315   -1.9869    0.2856 C   0  0  0  0  0  0  0  0  0  0  0  0
    2.2027   -0.7556    0.1280 C   0  0  0  0  0  0  0  0  0  0  0  0
    1.4559    0.8673    0.6000 S   0  0  0  0  0  0  0  0  0  0  0  0
   -1.1470    1.4282   -0.4158 C   0  0  1  0  0  0  0  0  0  0  0  0
   -1.6863    0.0870    0.1032 C   0  0  0  0  0  0  0  0  0  0  0  0
   -1.3744    2.6931    0.2704 N   0  0  0  0  0  0  0  0  0  0  0  0
   -2.1129    3.7636   -0.2654 C   0  0  0  0  0  0  0  0  0  0  0  0
   -2.1699    4.7509    0.4711 O   0  0  0  0  0  0  0  0  0  0  0  0
   -2.6594   -0.2574    0.8040 O   0  0  0  0  0  0  0  0  0  0  0  0
   -2.7854    3.7389   -1.7964 C   0  0  0  0  0  0  0  0  0  0  0  0
    1.8140   -3.5022    0.4723 C   0  0  0  0  0  0  0  0  0  0  0  0
   -2.9215    2.4538   -2.6544 C   0  0  0  0  0  0  0  0  0  0  0  0
    0.4804    0.8218   -1.6605 H   0  0  0  0  0  0  0  0  0  0  0  0
    1.6732   -4.5064    1.8344 N   0  3  0  0  0  0  0  0  0  0  0  0
   -3.4688    1.3975   -2.0344 N   0  0  0  0  0  0  0  0  0  0  0  0
   -3.1645    0.0225   -2.9087 S   0  0  0  0  0  0  0  0  0  0  0  0
   -2.5619    0.8690   -4.2847 C   0  0  0  0  0  0  0  0  0  0  0  0
   -2.4347    2.1734   -4.0132 N   0  0  0  0  0  0  0  0  0  0  0  0
   -3.3650    4.8253   -2.2783 N   0  0  0  0  0  0  0  0  0  0  0  0
   -1.0155   -3.0806   -0.1260 C   0  0  0  0  0  0  0  0  0  0  0  0
   -2.2257   -2.8687   -0.3808 O   0  5  0  0  0  0  0  0  0  0  0  0
   -0.4192   -4.1985   -0.0812 O   0  0  0  0  0  0  0  0  0  0  0  0
   -2.2890    0.1182   -5.3846 N   0  0  0  0  0  0  0  0  0  0  0  0
    0.6666   -5.4492    2.5159 C   0  0  0  0  0  0  0  0  0  0  0  0
    0.0512   -4.3185    2.9942 N   0  0  0  0  0  0  0  0  0  0  0  0
    1.3201   -3.9939    3.8061 C   0  0  0  0  0  0  0  0  0  0  0  0
    2.2924   -3.9205    2.8816 C   0  0  0  0  0  0  0  0  0  0  0  0
    0.3354   -6.5263    3.9830 C   0  0  0  0  0  0  0  0  0  0  0  0
   -0.4010   -5.9000    4.9456 C   0  0  0  0  0  0  0  0  0  0  0  0
   -1.5551   -5.5041    4.1852 C   0  0  0  0  0  0  0  0  0  0  0  0
   -1.4371   -4.6128    3.2572 N   0  0  0  0  0  0  0  0  0  0  0  0
   -3.3862    5.8990   -1.3475 O   0  0  0  0  0  0  0  0  0  0  0  0
   -4.1041    7.0281   -1.8482 C   0  0  0  0  0  0  0  0  0  0  0  0
    2.5666   -0.6218   -0.9079 H   0  0  0  0  0  0  0  0  0  0  0  0
    3.0743   -0.8137    0.7764 H   0  0  0  0  0  0  0  0  0  0  0  0
   -1.3619    1.6624   -1.4317 H   0  0  0  0  0  0  0  0  0  0  0  0
   -1.0677    2.8366    1.2325 H   0  0  0  0  0  0  0  0  0  0  0  0
    1.8014   -4.0752   -0.4569 H   0  0  0  0  0  0  0  0  0  0  0  0
    2.8885   -3.2460    0.5623 H   0  0  0  0  0  0  0  0  0  0  0  0
   -2.2022    0.4630   -6.3330 H   0  0  0  0  0  0  0  0  0  0  0  0
   -2.5205   -0.8777   -5.3401 H   0  0  0  0  0  0  0  0  0  0  0  0
    1.6986   -4.5764    4.6670 H   0  0  0  0  0  0  0  0  0  0  0  0
    3.3548   -3.9345    2.7547 H   0  0  0  0  0  0  0  0  0  0  0  0
    0.7196   -7.1794    4.8146 H   0  0  0  0  0  0  0  0  0  0  0  0
    0.0323   -5.0042    5.4190 H   0  0  0  0  0  0  0  0  0  0  0  0
   -2.4629   -6.0860    4.4831 H   0  0  0  0  0  0  0  0  0  0  0  0
   -3.6336    7.4044   -2.7595 H   0  0  0  0  0  0  0  0  0  0  0  0
   -5.1565    6.7868   -2.0288 H   0  0  0  0  0  0  0  0  0  0  0  0
   -4.0769    7.8364   -1.1024 H   0  0  0  0  0  0  0  0  0  0  0  0
  1  2  1  0  0  0  0
  1  6  1  0  0  0  0
  1  7  1  0  0  0  0
  1 16  1  6  0  0  0
  2  3  1  0  0  0  0
  2  8  1  0  0  0  0
  3  4  2  0  0  0  0
  3 23  1  0  0  0  0
  4  5  1  0  0  0  0
  4 14  1  0  0  0  0
  5  6  1  0  0  0  0
  5 37  1  0  0  0  0
  5 38  1  0  0  0  0
  7  8  1  0  0  0  0
  7  9  1  0  0  0  0
  7 39  1  6  0  0  0
  8 12  2  0  0  0  0
  9 10  1  0  0  0  0
  9 40  1  0  0  0  0
 10 11  2  0  0  0  0
 10 13  1  0  0  0  0
 13 15  1  0  0  0  0
 13 22  2  0  0  0  0
 14 17  1  0  0  0  0
 14 41  1  0  0  0  0
 14 42  1  0  0  0  0
 15 18  2  0  0  0  0
 15 21  1  0  0  0  0
 17 27  2  0  0  0  0
 17 30  1  0  0  0  0
 18 19  1  0  0  0  0
 19 20  1  0  0  0  0
 20 21  2  0  0  0  0
 20 26  1  0  0  0  0
 22 35  1  0  0  0  0
 23 24  1  0  0  0  0
 23 25  2  0  0  0  0
 26 43  1  0  0  0  0
 26 44  1  0  0  0  0
 27 28  1  0  0  0  0
 27 31  1  0  0  0  0
 28 29  1  0  0  0  0
 29 30  2  0  0  0  0
 29 45  1  0  0  0  0
 30 46  1  0  0  0  0
 31 32  2  0  0  0  0
 31 47  1  0  0  0  0
 32 33  1  0  0  0  0
 32 48  1  0  0  0  0
 33 34  2  0  0  0  0
 33 49  1  0  0  0  0
 34 28  1  0  0  0  0
 35 36  1  0  0  0  0
 36 50  1  0  0  0  0
 36 51  1  0  0  0  0
 36 52  1  0  0  0  0
M  CHG  2  17   1  24  -1
M  END
>  <DRUGBANK_ID>
DB13667

>  <COMMON_NAME>
Cefozopran

>  <CAS_NUMBER>
113359-04-9

>  <UNII>
1LG87K28LW

>  <SYNONYMS>
céfozopran; cefozoprán; Cefozopran; cefozopranum

$$$$
