
 OpenBabel10282417243D

 90 94  0  0  1  0  0  0  0  0999 V2000
    1.1374   14.7871    2.1361 N   0  0  0  0  0  0  0  0  0  0  0  0
    0.2056   14.9775    3.0393 C   0  0  0  0  0  0  0  0  0  0  0  0
   -0.5937   15.9206    2.9518 O   0  0  0  0  0  0  0  0  0  0  0  0
    0.2184   13.9753    4.1551 C   0  0  0  0  0  0  0  0  0  0  0  0
   -0.0091   12.4701    3.8635 C   0  0  2  0  0  0  0  0  0  0  0  0
    0.1416   11.5528    4.9955 N   0  0  0  0  0  0  0  0  0  0  0  0
   -0.4308   11.4616    6.2167 C   0  0  0  0  0  0  0  0  0  0  0  0
   -0.0248   10.5185    6.9136 O   0  0  0  0  0  0  0  0  0  0  0  0
   -1.5077   12.4168    6.8027 C   0  0  2  0  0  0  0  0  0  0  0  0
   -1.7544   13.7914    6.2673 C   0  0  0  0  0  0  0  0  0  0  0  0
   -2.0428   14.7483    7.3922 C   0  0  0  0  0  0  0  0  0  0  0  0
   -1.1010   14.1392    8.4138 C   0  0  0  0  0  0  0  0  0  0  0  0
   -0.5061   14.7170    9.2612 O   0  0  0  0  0  0  0  0  0  0  0  0
   -1.0066   12.7713    8.1184 N   0  0  0  0  0  0  0  0  0  0  0  0
    1.0021   12.0805    2.7418 C   0  0  0  0  0  0  0  0  0  0  0  0
    0.5643   11.9538    1.5990 O   0  0  0  0  0  0  0  0  0  0  0  0
    2.3521   12.4099    3.0274 N   0  0  0  0  0  0  0  0  0  0  0  0
    3.0572   11.9398    4.2102 C   0  0  0  0  0  0  0  0  0  0  0  0
    3.9858   13.0734    4.5832 C   0  0  0  0  0  0  0  0  0  0  0  0
    4.3391   13.6486    3.2529 C   0  0  0  0  0  0  0  0  0  0  0  0
    3.3333   13.2393    2.2237 C   0  0  1  0  0  0  0  0  0  0  0  0
    3.7359   12.6274    0.9108 C   0  0  0  0  0  0  0  0  0  0  0  0
    2.8868   12.2183    0.1126 O   0  0  0  0  0  0  0  0  0  0  0  0
    5.0269   12.6785    0.4993 N   0  0  0  0  0  0  0  0  0  0  0  0
    6.3430   12.9827    1.1809 C   0  0  2  0  0  0  0  0  0  0  0  0
    7.6902   13.1081    0.3604 C   0  0  0  0  0  0  0  0  0  0  0  0
    8.8573   11.9426    0.3972 C   0  0  0  0  0  0  0  0  0  0  0  0
    9.1317   10.8093   -0.5163 C   0  0  0  0  0  0  0  0  0  0  0  0
    9.9101    9.6736   -0.2541 C   0  0  0  0  0  0  0  0  0  0  0  0
   10.5731    9.6678    0.9276 C   0  0  0  0  0  0  0  0  0  0  0  0
   11.1021    8.4805    1.3403 O   0  0  0  0  0  0  0  0  0  0  0  0
   10.4960   10.7917    1.7765 C   0  0  0  0  0  0  0  0  0  0  0  0
    9.6301   11.8965    1.5480 C   0  0  0  0  0  0  0  0  0  0  0  0
    6.6046   11.9431    2.2729 C   0  0  0  0  0  0  0  0  0  0  0  0
    7.0591   12.2304    3.3830 O   0  0  0  0  0  0  0  0  0  0  0  0
    6.2184   10.6695    2.0039 N   0  0  0  0  0  0  0  0  0  0  0  0
    6.2975   10.0094    0.6697 C   0  0  2  0  0  0  0  0  0  0  0  0
    7.4332    8.9960    0.8631 C   0  0  0  0  0  0  0  0  0  0  0  0
    7.6784    7.7928    1.7622 C   0  0  0  0  0  0  0  0  0  0  0  0
    7.4422    6.5017    1.3371 C   0  0  0  0  0  0  0  0  0  0  0  0
    8.0291    5.6196    2.2040 N   0  0  0  0  0  0  0  0  0  0  0  0
    8.7555    6.2837    3.1649 C   0  0  0  0  0  0  0  0  0  0  0  0
    9.5381    5.7865    4.2303 C   0  0  0  0  0  0  0  0  0  0  0  0
   10.2662    6.6870    5.0187 C   0  0  0  0  0  0  0  0  0  0  0  0
   10.2443    8.0379    4.7274 C   0  0  0  0  0  0  0  0  0  0  0  0
    9.3810    8.5140    3.7263 C   0  0  0  0  0  0  0  0  0  0  0  0
    8.5928    7.6492    2.9154 C   0  0  0  0  0  0  0  0  0  0  0  0
    6.3540   10.8712   -0.8670 C   0  0  0  0  0  0  0  0  0  0  0  0
    5.2872   11.2253   -1.5914 N   0  0  0  0  0  0  0  0  0  0  0  0
    7.1522   11.6028   -1.4572 O   0  0  0  0  0  0  0  0  0  0  0  0
    1.0080   15.0001    1.1602 H   0  0  0  0  0  0  0  0  0  0  0  0
    1.4866   13.8664    2.2550 H   0  0  0  0  0  0  0  0  0  0  0  0
    1.0274   14.1198    4.8888 H   0  0  0  0  0  0  0  0  0  0  0  0
   -0.6953   14.3832    4.5214 H   0  0  0  0  0  0  0  0  0  0  0  0
   -1.0368   12.3217    3.5108 H   0  0  0  0  0  0  0  0  0  0  0  0
    0.6940   10.7147    4.8116 H   0  0  0  0  0  0  0  0  0  0  0  0
   -2.4413   11.8553    6.8753 H   0  0  0  0  0  0  0  0  0  0  0  0
   -2.4225   13.8661    5.4007 H   0  0  0  0  0  0  0  0  0  0  0  0
   -0.7503   14.1418    6.0931 H   0  0  0  0  0  0  0  0  0  0  0  0
   -3.0749   14.7544    7.7258 H   0  0  0  0  0  0  0  0  0  0  0  0
   -1.7095   15.7550    7.1020 H   0  0  0  0  0  0  0  0  0  0  0  0
   -0.2708   12.2286    8.5583 H   0  0  0  0  0  0  0  0  0  0  0  0
    3.6205   11.0529    3.8867 H   0  0  0  0  0  0  0  0  0  0  0  0
    2.4467   11.6636    5.0566 H   0  0  0  0  0  0  0  0  0  0  0  0
    3.5190   13.8367    5.2025 H   0  0  0  0  0  0  0  0  0  0  0  0
    4.8876   12.7001    5.0825 H   0  0  0  0  0  0  0  0  0  0  0  0
    4.7055   14.6794    3.2155 H   0  0  0  0  0  0  0  0  0  0  0  0
    5.1514   13.0526    3.0255 H   0  0  0  0  0  0  0  0  0  0  0  0
    3.0596   14.2231    1.8353 H   0  0  0  0  0  0  0  0  0  0  0  0
    4.9989   12.3311   -0.4520 H   0  0  0  0  0  0  0  0  0  0  0  0
    6.1316   13.9795    1.5859 H   0  0  0  0  0  0  0  0  0  0  0  0
    7.3964   13.4826   -0.6273 H   0  0  0  0  0  0  0  0  0  0  0  0
    8.1707   14.0070    0.7769 H   0  0  0  0  0  0  0  0  0  0  0  0
    8.5978   10.5063   -1.4159 H   0  0  0  0  0  0  0  0  0  0  0  0
    9.7346    8.7495   -0.8261 H   0  0  0  0  0  0  0  0  0  0  0  0
   10.5000    7.7639    1.0423 H   0  0  0  0  0  0  0  0  0  0  0  0
   11.0012   10.7450    2.7327 H   0  0  0  0  0  0  0  0  0  0  0  0
    9.4993   12.6507    2.3253 H   0  0  0  0  0  0  0  0  0  0  0  0
    6.5171   10.0908    2.7926 H   0  0  0  0  0  0  0  0  0  0  0  0
    5.3520    9.4837    0.5771 H   0  0  0  0  0  0  0  0  0  0  0  0
    7.6309    8.6304   -0.1406 H   0  0  0  0  0  0  0  0  0  0  0  0
    8.1834    9.6176    1.3234 H   0  0  0  0  0  0  0  0  0  0  0  0
    6.9563    6.1555    0.4357 H   0  0  0  0  0  0  0  0  0  0  0  0
    7.9807    4.6145    2.1203 H   0  0  0  0  0  0  0  0  0  0  0  0
    9.5759    4.7259    4.4581 H   0  0  0  0  0  0  0  0  0  0  0  0
   10.8451    6.3348    5.8714 H   0  0  0  0  0  0  0  0  0  0  0  0
   10.8726    8.7334    5.2852 H   0  0  0  0  0  0  0  0  0  0  0  0
    9.3713    9.5807    3.5625 H   0  0  0  0  0  0  0  0  0  0  0  0
    5.7156   11.8552   -2.3007 H   0  0  0  0  0  0  0  0  0  0  0  0
    4.7955   10.4699   -2.0139 H   0  0  0  0  0  0  0  0  0  0  0  0
  1  2  1  0  0  0  0
  1 51  1  0  0  0  0
  1 52  1  0  0  0  0
  2  3  2  0  0  0  0
  2  4  1  0  0  0  0
  4 53  1  0  0  0  0
  4 54  1  0  0  0  0
  5 15  1  0  0  0  0
  5 55  1  6  0  0  0
  5  6  1  0  0  0  0
  5  4  1  0  0  0  0
  6  7  1  0  0  0  0
  6 56  1  0  0  0  0
  7  8  2  0  0  0  0
  9  7  1  0  0  0  0
  9 10  1  0  0  0  0
  9 14  1  0  0  0  0
  9 57  1  1  0  0  0
 10 11  1  0  0  0  0
 10 58  1  0  0  0  0
 10 59  1  0  0  0  0
 11 12  1  0  0  0  0
 11 60  1  0  0  0  0
 11 61  1  0  0  0  0
 12 13  2  0  0  0  0
 12 14  1  0  0  0  0
 14 62  1  0  0  0  0
 15 16  2  0  0  0  0
 15 17  1  0  0  0  0
 17 18  1  0  0  0  0
 18 19  1  0  0  0  0
 18 63  1  0  0  0  0
 18 64  1  0  0  0  0
 19 20  1  0  0  0  0
 19 65  1  0  0  0  0
 19 66  1  0  0  0  0
 20 67  1  0  0  0  0
 20 68  1  0  0  0  0
 21 20  1  0  0  0  0
 21 17  1  0  0  0  0
 21 69  1  6  0  0  0
 21 22  1  0  0  0  0
 22 23  2  0  0  0  0
 22 24  1  0  0  0  0
 24 70  1  0  0  0  0
 25 34  1  0  0  0  0
 25 71  1  1  0  0  0
 25 26  1  0  0  0  0
 25 24  1  0  0  0  0
 26 27  1  0  0  0  0
 26 72  1  0  0  0  0
 26 73  1  0  0  0  0
 27 28  2  0  0  0  0
 27 33  1  0  0  0  0
 28 29  1  0  0  0  0
 28 74  1  0  0  0  0
 29 30  2  0  0  0  0
 29 75  1  0  0  0  0
 30 31  1  0  0  0  0
 30 32  1  0  0  0  0
 31 76  1  0  0  0  0
 32 33  2  0  0  0  0
 32 77  1  0  0  0  0
 33 78  1  0  0  0  0
 34 35  2  0  0  0  0
 34 36  1  0  0  0  0
 36 79  1  0  0  0  0
 37 48  1  0  0  0  0
 37 80  1  6  0  0  0
 37 38  1  0  0  0  0
 37 36  1  0  0  0  0
 38 39  1  0  0  0  0
 38 81  1  0  0  0  0
 38 82  1  0  0  0  0
 39 40  2  0  0  0  0
 39 47  1  0  0  0  0
 40 41  1  0  0  0  0
 40 83  1  0  0  0  0
 41 42  1  0  0  0  0
 41 84  1  0  0  0  0
 42 43  2  0  0  0  0
 42 47  1  0  0  0  0
 43 44  1  0  0  0  0
 43 85  1  0  0  0  0
 44 45  2  0  0  0  0
 44 86  1  0  0  0  0
 45 46  1  0  0  0  0
 45 87  1  0  0  0  0
 46 47  2  0  0  0  0
 46 88  1  0  0  0  0
 48 49  1  0  0  0  0
 48 50  2  0  0  0  0
 49 89  1  0  0  0  0
 49 90  1  0  0  0  0
M  END
>  <DRUGBANK_ID>
DB18527

>  <COMMON_NAME>
JAK4D

>  <CAS_NUMBER>
882400-49-9

>  <UNII>
AVX7AUJ938

>  <SYNONYMS>
5-oxo-l-prolyl-l-asparaginyl-l-prolyl-d-tyrosyl-d-tryptophanamide; L-pyroglutamyl-l-asparaginyl-l-prolyl-d-tyrosyl-d-tryptophan amide

$$$$
