TZB
 OpenBabel10282417133D

 22 22  0  0  0  0  0  0  0  0999 V2000
    1.0486   -0.0640   -0.0249 C   0  0  0  0  0  0  0  0  0  0  0  0
    0.3647   -0.4862    1.2380 C   0  0  0  0  0  0  0  0  0  0  0  0
    0.3758    0.2969   -1.1321 C   0  0  0  0  0  0  0  0  0  0  0  0
   -0.9974    0.2765   -1.2109 N   0  0  0  0  0  0  0  0  0  0  0  0
    1.1272    0.8071   -2.3410 C   0  0  0  0  0  0  0  0  0  0  0  0
    2.5137   -0.0902   -2.9143 S   0  0  0  0  0  0  0  0  0  0  0  0
    2.9608    1.2584   -4.0266 C   0  0  0  0  0  0  0  0  0  0  0  0
    1.6671    2.0427   -4.1866 C   0  0  2  0  0  0  0  0  0  0  0  0
    1.6482    4.2115   -5.3200 O   0  0  0  0  0  0  0  0  0  0  0  0
    1.9594    3.5244   -4.3541 C   0  0  0  0  0  0  0  0  0  0  0  0
    0.7677    1.8504   -3.0159 N   0  0  0  0  0  0  0  0  0  0  0  0
    2.6335    4.0743   -3.3217 O   0  0  0  0  0  0  0  0  0  0  0  0
    1.1293    1.7072   -5.0825 H   0  0  0  0  0  0  0  0  0  0  0  0
    2.1347   -0.0310    0.0047 H   0  0  0  0  0  0  0  0  0  0  0  0
   -0.2535    0.3305    1.6280 H   0  0  0  0  0  0  0  0  0  0  0  0
   -0.2676   -1.3626    1.0640 H   0  0  0  0  0  0  0  0  0  0  0  0
    1.0958   -0.7444    2.0088 H   0  0  0  0  0  0  0  0  0  0  0  0
   -1.4378    0.7348   -2.0018 H   0  0  0  0  0  0  0  0  0  0  0  0
   -1.5398    0.1168   -0.3714 H   0  0  0  0  0  0  0  0  0  0  0  0
    3.3197    0.8807   -4.9905 H   0  0  0  0  0  0  0  0  0  0  0  0
    3.7720    1.8397   -3.5775 H   0  0  0  0  0  0  0  0  0  0  0  0
    2.7046    5.0262   -3.5433 H   0  0  0  0  0  0  0  0  0  0  0  0
  1  2  1  0  0  0  0
  1  3  2  0  0  0  0
  1 14  1  0  0  0  0
  2 15  1  0  0  0  0
  2 16  1  0  0  0  0
  2 17  1  0  0  0  0
  3  4  1  0  0  0  0
  3  5  1  0  0  0  0
  4 18  1  0  0  0  0
  4 19  1  0  0  0  0
  5  6  1  0  0  0  0
  5 11  2  0  0  0  0
  6  7  1  0  0  0  0
  7  8  1  0  0  0  0
  7 20  1  0  0  0  0
  7 21  1  0  0  0  0
  8 10  1  0  0  0  0
  8 11  1  0  0  0  0
  8 13  1  6  0  0  0
  9 10  2  0  0  0  0
 10 12  1  0  0  0  0
 12 22  1  0  0  0  0
M  END
>  <DRUGBANK_ID>
DB02940

>  <SECONDARY_ACCESSION_NUMBERS>
EXPT03149

>  <COMMON_NAME>
(4s)-2-[(1e)-1-Aminoprop-1-Enyl]-4,5-Dihydro-1,3-Thiazole-4-Carboxylic Acid

$$$$
