
 OpenBabel10282417203D

 37 39  0  0  0  0  0  0  0  0999 V2000
    1.0449    0.0474   -0.0328 C   0  0  0  0  0  0  0  0  0  0  0  0
    0.8881   -2.4162   -0.4978 C   0  0  0  0  0  0  0  0  0  0  0  0
   -5.8418   -5.0598    7.6175 C   0  0  0  0  0  0  0  0  0  0  0  0
   -5.4331   -5.9815    6.6518 C   0  0  0  0  0  0  0  0  0  0  0  0
   -5.7899   -3.6962    7.3503 C   0  0  0  0  0  0  0  0  0  0  0  0
   -4.9695   -5.5421    5.4117 C   0  0  0  0  0  0  0  0  0  0  0  0
   -5.3888   -3.2609    6.0932 C   0  0  0  0  0  0  0  0  0  0  0  0
   -1.4412   -0.6187    1.4713 C   0  0  0  0  0  0  0  0  0  0  0  0
   -1.9308   -1.0833    2.6716 C   0  0  0  0  0  0  0  0  0  0  0  0
   -2.8001   -2.1863    0.2494 C   0  0  0  0  0  0  0  0  0  0  0  0
   -4.7262   -4.1159    2.6570 C   0  0  0  0  0  0  0  0  0  0  0  0
    0.3518   -1.0318   -0.8674 C   0  0  0  0  0  0  0  0  0  0  0  0
   -4.9494   -4.1756    5.1226 C   0  0  0  0  0  0  0  0  0  0  0  0
   -1.7614   -1.2484    0.2720 C   0  0  0  0  0  0  0  0  0  0  0  0
   -2.8692   -2.0992    2.6555 C   0  0  0  0  0  0  0  0  0  0  0  0
   -4.3817   -3.6594    3.8733 C   0  0  0  0  0  0  0  0  0  0  0  0
   -3.3349   -2.6392    1.4597 C   0  0  0  0  0  0  0  0  0  0  0  0
   -3.3909   -2.5647    3.9275 C   0  0  0  0  0  0  0  0  0  0  0  0
   -2.9988   -2.0522    4.9775 O   0  0  0  0  0  0  0  0  0  0  0  0
   -4.2771   -3.6392    1.4402 O   0  0  0  0  0  0  0  0  0  0  0  0
   -1.1012   -0.9601   -0.8918 O   0  0  0  0  0  0  0  0  0  0  0  0
    0.9776   -0.1692    1.0362 H   0  0  0  0  0  0  0  0  0  0  0  0
    0.6040    1.0303   -0.2257 H   0  0  0  0  0  0  0  0  0  0  0  0
    2.1204    0.0848   -0.2203 H   0  0  0  0  0  0  0  0  0  0  0  0
    0.5793   -2.7103    0.5099 H   0  0  0  0  0  0  0  0  0  0  0  0
    0.5164   -3.1775   -1.1897 H   0  0  0  0  0  0  0  0  0  0  0  0
    1.9842   -2.4284   -0.5266 H   0  0  0  0  0  0  0  0  0  0  0  0
   -6.1991   -5.4042    8.5831 H   0  0  0  0  0  0  0  0  0  0  0  0
   -5.4554   -7.0442    6.8741 H   0  0  0  0  0  0  0  0  0  0  0  0
   -6.0446   -2.9674    8.1146 H   0  0  0  0  0  0  0  0  0  0  0  0
   -4.6050   -6.2689    4.6901 H   0  0  0  0  0  0  0  0  0  0  0  0
   -5.3826   -2.1913    5.8855 H   0  0  0  0  0  0  0  0  0  0  0  0
   -0.8135    0.2570    1.5175 H   0  0  0  0  0  0  0  0  0  0  0  0
   -1.5818   -0.6531    3.6065 H   0  0  0  0  0  0  0  0  0  0  0  0
   -3.1766   -2.5705   -0.6947 H   0  0  0  0  0  0  0  0  0  0  0  0
   -5.4336   -4.9202    2.4975 H   0  0  0  0  0  0  0  0  0  0  0  0
    0.6503   -0.8432   -1.9071 H   0  0  0  0  0  0  0  0  0  0  0  0
  1 22  1  0  0  0  0
  1 23  1  0  0  0  0
  1 24  1  0  0  0  0
  2 25  1  0  0  0  0
  2 26  1  0  0  0  0
  2 27  1  0  0  0  0
  3 28  1  0  0  0  0
  4  3  2  0  0  0  0
  4 29  1  0  0  0  0
  5  3  1  0  0  0  0
  5 30  1  0  0  0  0
  6  4  1  0  0  0  0
  6 31  1  0  0  0  0
  7  5  2  0  0  0  0
  7 32  1  0  0  0  0
  8 33  1  0  0  0  0
  9  8  2  0  0  0  0
  9 34  1  0  0  0  0
 10 35  1  0  0  0  0
 11 36  1  0  0  0  0
 12  1  1  0  0  0  0
 12  2  1  0  0  0  0
 12 37  1  0  0  0  0
 13  6  2  0  0  0  0
 13  7  1  0  0  0  0
 14  8  1  0  0  0  0
 14 10  2  0  0  0  0
 15  9  1  0  0  0  0
 16 11  2  0  0  0  0
 16 13  1  0  0  0  0
 17 10  1  0  0  0  0
 17 15  2  0  0  0  0
 18 15  1  0  0  0  0
 18 16  1  0  0  0  0
 19 18  2  0  0  0  0
 20 11  1  0  0  0  0
 20 17  1  0  0  0  0
 21 12  1  0  0  0  0
 21 14  1  0  0  0  0
M  END
>  <DRUGBANK_ID>
DB13618

>  <COMMON_NAME>
Ipriflavone

>  <CAS_NUMBER>
35212-22-7

>  <UNII>
80BJ7WN25Z

>  <SYNONYMS>
ipriflavona; Ipriflavone

$$$$
