
 OpenBabel10282417143D

 52 54  0  0  0  0  0  0  0  0999 V2000
    1.1208    0.0037    0.0693 C   0  0  0  0  0  0  0  0  0  0  0  0
    0.3881   -0.6499   -1.0826 C   0  0  0  0  0  0  0  0  0  0  0  0
   -0.5154   -1.7841   -0.5983 C   0  0  0  0  0  0  0  0  0  0  0  0
   -1.5761   -1.2981    0.3951 C   0  0  0  0  0  0  0  0  0  0  0  0
   -2.4704   -0.2179   -0.2260 C   0  0  0  0  0  0  0  0  0  0  0  0
   -3.2639   -0.7835   -1.4137 C   0  0  0  0  0  0  0  0  0  0  0  0
   -4.0607   -2.0351   -1.0325 C   0  0  0  0  0  0  0  0  0  0  0  0
    0.5718    0.5789    1.0045 O   0  0  0  0  0  0  0  0  0  0  0  0
    2.4610   -0.0841   -0.0006 O   0  0  0  0  0  0  0  0  0  0  0  0
   -4.8511   -1.6806    0.1120 N   0  0  0  0  0  0  0  0  0  0  0  0
   -7.7012   -1.2037   -0.8885 C   0  0  0  0  0  0  0  0  0  0  0  0
   -7.0094   -2.4053   -0.6112 C   0  0  0  0  0  0  0  0  0  0  0  0
   -5.9665   -2.5194    0.4796 C   0  0  0  0  0  0  0  0  0  0  0  0
   -6.4816   -2.0818    1.8465 C   0  0  0  0  0  0  0  0  0  0  0  0
   -6.7259   -0.7145    2.1134 C   0  0  0  0  0  0  0  0  0  0  0  0
   -6.5895    0.3179    1.0196 C   0  0  0  0  0  0  0  0  0  0  0  0
   -7.6145    0.0965   -0.0969 C   0  0  0  0  0  0  0  0  0  0  0  0
   -7.1502   -3.5100   -1.4818 C   0  0  0  0  0  0  0  0  0  0  0  0
   -7.9940   -3.4525   -2.5844 C   0  0  0  0  0  0  0  0  0  0  0  0
   -8.7081   -2.2897   -2.8373 C   0  0  0  0  0  0  0  0  0  0  0  0
   -8.5580   -1.1802   -2.0045 C   0  0  0  0  0  0  0  0  0  0  0  0
   -7.1480   -0.3219    3.3872 C   0  0  0  0  0  0  0  0  0  0  0  0
   -7.3740   -1.2736    4.3784 C   0  0  0  0  0  0  0  0  0  0  0  0
   -7.1577   -2.6245    4.1157 C   0  0  0  0  0  0  0  0  0  0  0  0
   -6.6999   -3.0286    2.8611 C   0  0  0  0  0  0  0  0  0  0  0  0
   -0.1791    0.1274   -1.6074 H   0  0  0  0  0  0  0  0  0  0  0  0
    1.0896   -1.0384   -1.8267 H   0  0  0  0  0  0  0  0  0  0  0  0
   -1.0014   -2.2523   -1.4651 H   0  0  0  0  0  0  0  0  0  0  0  0
    0.0787   -2.5780   -0.1350 H   0  0  0  0  0  0  0  0  0  0  0  0
   -2.1630   -2.1536    0.7462 H   0  0  0  0  0  0  0  0  0  0  0  0
   -1.1223   -0.9201    1.3131 H   0  0  0  0  0  0  0  0  0  0  0  0
   -3.1404    0.1876    0.5414 H   0  0  0  0  0  0  0  0  0  0  0  0
   -1.8958    0.6541   -0.5514 H   0  0  0  0  0  0  0  0  0  0  0  0
   -3.9319   -0.0048   -1.8038 H   0  0  0  0  0  0  0  0  0  0  0  0
   -2.5918   -1.0360   -2.2407 H   0  0  0  0  0  0  0  0  0  0  0  0
   -4.6492   -2.3418   -1.9000 H   0  0  0  0  0  0  0  0  0  0  0  0
   -3.4130   -2.8771   -0.7751 H   0  0  0  0  0  0  0  0  0  0  0  0
    2.8004   -0.5186   -0.8028 H   0  0  0  0  0  0  0  0  0  0  0  0
   -4.3208   -1.4057    0.9314 H   0  0  0  0  0  0  0  0  0  0  0  0
   -5.6000   -3.5507    0.5757 H   0  0  0  0  0  0  0  0  0  0  0  0
   -5.5745    0.3813    0.6202 H   0  0  0  0  0  0  0  0  0  0  0  0
   -6.7267    1.3214    1.4416 H   0  0  0  0  0  0  0  0  0  0  0  0
   -7.4397    0.9012   -0.8241 H   0  0  0  0  0  0  0  0  0  0  0  0
   -8.6075    0.2634    0.3389 H   0  0  0  0  0  0  0  0  0  0  0  0
   -6.5516   -4.4065   -1.3262 H   0  0  0  0  0  0  0  0  0  0  0  0
   -8.0797   -4.3066   -3.2495 H   0  0  0  0  0  0  0  0  0  0  0  0
   -9.3754   -2.2356   -3.6917 H   0  0  0  0  0  0  0  0  0  0  0  0
   -9.1070   -0.2704   -2.2383 H   0  0  0  0  0  0  0  0  0  0  0  0
   -7.3219    0.7290    3.6037 H   0  0  0  0  0  0  0  0  0  0  0  0
   -7.7313   -0.9577    5.3542 H   0  0  0  0  0  0  0  0  0  0  0  0
   -7.3464   -3.3627    4.8906 H   0  0  0  0  0  0  0  0  0  0  0  0
   -6.5182   -4.0860    2.6810 H   0  0  0  0  0  0  0  0  0  0  0  0
  1  2  1  0  0  0  0
  1  8  2  0  0  0  0
  1  9  1  0  0  0  0
  2  3  1  0  0  0  0
  2 26  1  0  0  0  0
  2 27  1  0  0  0  0
  3  4  1  0  0  0  0
  3 28  1  0  0  0  0
  3 29  1  0  0  0  0
  4  5  1  0  0  0  0
  4 30  1  0  0  0  0
  4 31  1  0  0  0  0
  5  6  1  0  0  0  0
  5 32  1  0  0  0  0
  5 33  1  0  0  0  0
  6  7  1  0  0  0  0
  6 34  1  0  0  0  0
  6 35  1  0  0  0  0
  7 10  1  0  0  0  0
  7 36  1  0  0  0  0
  7 37  1  0  0  0  0
  9 38  1  0  0  0  0
 10 13  1  0  0  0  0
 10 39  1  0  0  0  0
 11 12  1  0  0  0  0
 11 17  1  0  0  0  0
 11 21  2  0  0  0  0
 12 13  1  0  0  0  0
 12 18  2  0  0  0  0
 13 14  1  0  0  0  0
 13 40  1  0  0  0  0
 14 15  1  0  0  0  0
 14 25  2  0  0  0  0
 15 16  1  0  0  0  0
 15 22  2  0  0  0  0
 16 17  1  0  0  0  0
 16 41  1  0  0  0  0
 16 42  1  0  0  0  0
 17 43  1  0  0  0  0
 17 44  1  0  0  0  0
 18 19  1  0  0  0  0
 18 45  1  0  0  0  0
 19 20  2  0  0  0  0
 19 46  1  0  0  0  0
 20 21  1  0  0  0  0
 20 47  1  0  0  0  0
 21 48  1  0  0  0  0
 22 23  1  0  0  0  0
 22 49  1  0  0  0  0
 23 24  2  0  0  0  0
 23 50  1  0  0  0  0
 24 25  1  0  0  0  0
 24 51  1  0  0  0  0
 25 52  1  0  0  0  0
M  END
>  <DRUGBANK_ID>
DB04836

>  <COMMON_NAME>
Amineptine

>  <CAS_NUMBER>
57574-09-1

>  <UNII>
27T1I13L6G

>  <SYNONYMS>
Amineptine; Amineptino; Amineptinum

$$$$
