
 OpenBabel10282417143D

 74 77  0  0  1  0  0  0  0  0999 V2000
   -3.3607   -3.9760   11.8252 C   0  0  0  0  0  0  0  0  0  0  0  0
   -2.7452   -0.2568   12.8435 C   0  0  0  0  0  0  0  0  0  0  0  0
   -3.4305   -3.0610   18.2203 C   0  0  0  0  0  0  0  0  0  0  0  0
   -1.6539   -3.3203   11.9363 C   0  0  0  0  0  0  0  0  0  0  0  0
    1.3536   -1.5926   17.6989 C   0  0  0  0  0  0  0  0  0  0  0  0
   -4.1261   -3.9200   15.6966 C   0  0  0  0  0  0  0  0  0  0  0  0
   -3.8672   -2.6604   14.7773 C   0  0  0  0  0  0  0  0  0  0  0  0
   -2.8094   -4.4064   16.1766 C   0  0  0  0  0  0  0  0  0  0  0  0
   -5.1483   -0.9440   14.9494 C   0  0  0  0  0  0  0  0  0  0  0  0
   -3.7558   -0.2337   15.8435 C   0  0  0  0  0  0  0  0  0  0  0  0
    0.0153   -3.1687   16.9594 C   0  0  0  0  0  0  0  0  0  0  0  0
   -0.1371   -1.1331   16.2521 C   0  0  0  0  0  0  0  0  0  0  0  0
   -5.2404   -2.7793   11.0922 C   0  0  0  0  0  0  0  0  0  0  0  0
   -0.5737   -3.2894   14.5911 C   0  0  0  0  0  0  0  0  0  0  0  0
   -4.9351   -3.6805   12.9174 C   0  0  0  0  0  0  0  0  0  0  0  0
    0.5989   -2.6122   15.1576 C   0  0  0  0  0  0  0  0  0  0  0  0
   -5.1372   -1.1232   12.4092 C   0  0  0  0  0  0  0  0  0  0  0  0
   -2.9801   -2.0730   12.8613 C   0  0  0  0  0  0  0  0  0  0  0  0
   -2.3466   -3.6080   17.3630 C   0  0  2  0  0  0  0  0  0  0  0  0
   -4.7005   -1.9991   13.3562 C   0  0  0  0  0  0  0  0  0  0  0  0
   -4.4474   -1.5644   11.2268 C   0  0  0  0  0  0  0  0  0  0  0  0
   -2.3769   -1.1678   15.8629 C   0  0  1  0  0  0  0  0  0  0  0  0
   -1.0552   -3.1342   17.8340 C   0  0  2  0  0  0  0  0  0  0  0  0
   -1.3553   -0.9818   16.8910 C   0  0  1  0  0  0  0  0  0  0  0  0
   -1.8335   -2.3873   14.6753 C   0  0  1  0  0  0  0  0  0  0  0  0
   -3.1002   -3.4434   13.4936 C   0  0  2  0  0  0  0  0  0  0  0  0
   -0.2271   -2.0569   16.9577 C   0  0  1  0  0  0  0  0  0  0  0  0
   -3.4462   -1.3267   10.4275 N   0  0  0  0  0  0  0  0  0  0  0  0
   -2.0592   -0.9812   10.7327 O   0  0  0  0  0  0  0  0  0  0  0  0
   -2.1932   -2.7508   16.9066 H   0  0  0  0  0  0  0  0  0  0  0  0
   -3.0719   -1.8017   16.3507 H   0  0  0  0  0  0  0  0  0  0  0  0
   -0.9007   -3.3135   18.8876 H   0  0  0  0  0  0  0  0  0  0  0  0
   -1.6384   -0.7093   17.8954 H   0  0  0  0  0  0  0  0  0  0  0  0
   -1.3895   -1.4556   14.2119 H   0  0  0  0  0  0  0  0  0  0  0  0
   -4.1973   -4.1998   11.2371 H   0  0  0  0  0  0  0  0  0  0  0  0
   -3.1396   -5.0062   12.5261 H   0  0  0  0  0  0  0  0  0  0  0  0
   -2.6844   -4.6889   11.2223 H   0  0  0  0  0  0  0  0  0  0  0  0
   -3.6313    0.2188   12.4829 H   0  0  0  0  0  0  0  0  0  0  0  0
   -2.4560    0.1477   13.8045 H   0  0  0  0  0  0  0  0  0  0  0  0
   -1.9312    0.1934   12.2451 H   0  0  0  0  0  0  0  0  0  0  0  0
   -3.6177   -3.9660   18.7461 H   0  0  0  0  0  0  0  0  0  0  0  0
   -3.0778   -2.1947   18.7875 H   0  0  0  0  0  0  0  0  0  0  0  0
   -4.2876   -2.6547   17.6776 H   0  0  0  0  0  0  0  0  0  0  0  0
   -1.0495   -4.1945   12.0075 H   0  0  0  0  0  0  0  0  0  0  0  0
   -2.4465   -3.0407   10.9420 H   0  0  0  0  0  0  0  0  0  0  0  0
   -1.5209   -3.0347   10.8176 H   0  0  0  0  0  0  0  0  0  0  0  0
    1.7750   -2.5209   18.0779 H   0  0  0  0  0  0  0  0  0  0  0  0
    1.9581   -1.2668   16.8238 H   0  0  0  0  0  0  0  0  0  0  0  0
    1.0349   -0.8174   18.3674 H   0  0  0  0  0  0  0  0  0  0  0  0
   -4.9078   -3.7127   16.4382 H   0  0  0  0  0  0  0  0  0  0  0  0
   -4.7871   -4.6197   15.1638 H   0  0  0  0  0  0  0  0  0  0  0  0
   -3.6395   -1.7208   14.9065 H   0  0  0  0  0  0  0  0  0  0  0  0
   -5.1355   -2.8375   14.7970 H   0  0  0  0  0  0  0  0  0  0  0  0
   -2.7304   -5.4288   16.4224 H   0  0  0  0  0  0  0  0  0  0  0  0
   -2.2277   -4.4176   15.2807 H   0  0  0  0  0  0  0  0  0  0  0  0
   -6.2081   -0.7580   14.8409 H   0  0  0  0  0  0  0  0  0  0  0  0
   -5.3597   -1.5794   15.8737 H   0  0  0  0  0  0  0  0  0  0  0  0
   -3.6206    0.7213   15.4050 H   0  0  0  0  0  0  0  0  0  0  0  0
   -3.8764   -0.2801   16.9475 H   0  0  0  0  0  0  0  0  0  0  0  0
    0.3607   -4.1993   16.4897 H   0  0  0  0  0  0  0  0  0  0  0  0
    0.4591   -3.8116   17.8363 H   0  0  0  0  0  0  0  0  0  0  0  0
   -0.2828   -0.6478   15.1942 H   0  0  0  0  0  0  0  0  0  0  0  0
   -0.1101    0.0019   16.5511 H   0  0  0  0  0  0  0  0  0  0  0  0
   -4.9258   -2.9841   10.0124 H   0  0  0  0  0  0  0  0  0  0  0  0
   -5.9491   -1.9686   10.6394 H   0  0  0  0  0  0  0  0  0  0  0  0
   -0.4470   -3.7482   13.6427 H   0  0  0  0  0  0  0  0  0  0  0  0
   -0.6185   -4.2120   15.1327 H   0  0  0  0  0  0  0  0  0  0  0  0
   -5.0466   -4.8411   13.0699 H   0  0  0  0  0  0  0  0  0  0  0  0
   -4.1524   -4.3149   13.6372 H   0  0  0  0  0  0  0  0  0  0  0  0
    1.0470   -1.9163   14.4344 H   0  0  0  0  0  0  0  0  0  0  0  0
    1.4992   -3.1331   15.5106 H   0  0  0  0  0  0  0  0  0  0  0  0
   -6.0581   -0.5811   12.4904 H   0  0  0  0  0  0  0  0  0  0  0  0
   -1.8757   -2.0608   12.9687 H   0  0  0  0  0  0  0  0  0  0  0  0
   -1.6697   -1.3241   11.5810 H   0  0  0  0  0  0  0  0  0  0  0  0
  1 35  1  0  0  0  0
  1 36  1  0  0  0  0
  1 37  1  0  0  0  0
  2 38  1  0  0  0  0
  2 39  1  0  0  0  0
  2 40  1  0  0  0  0
  3 41  1  0  0  0  0
  3 42  1  0  0  0  0
  3 43  1  0  0  0  0
  4 44  1  0  0  0  0
  4 45  1  0  0  0  0
  4 46  1  0  0  0  0
  5 47  1  0  0  0  0
  5 48  1  0  0  0  0
  5 49  1  0  0  0  0
  6 50  1  0  0  0  0
  6 51  1  0  0  0  0
  7  6  1  0  0  0  0
  7 52  1  0  0  0  0
  7 53  1  0  0  0  0
  8  6  1  0  0  0  0
  8 54  1  0  0  0  0
  8 55  1  0  0  0  0
  9 56  1  0  0  0  0
  9 57  1  0  0  0  0
 10  9  1  0  0  0  0
 10 58  1  0  0  0  0
 10 59  1  0  0  0  0
 11 60  1  0  0  0  0
 11 61  1  0  0  0  0
 12 11  1  0  0  0  0
 12 62  1  0  0  0  0
 12 63  1  0  0  0  0
 13 64  1  0  0  0  0
 13 65  1  0  0  0  0
 14 66  1  0  0  0  0
 14 67  1  0  0  0  0
 15 13  1  0  0  0  0
 15 68  1  0  0  0  0
 15 69  1  0  0  0  0
 16 14  1  0  0  0  0
 16 70  1  0  0  0  0
 16 71  1  0  0  0  0
 17 72  1  0  0  0  0
 18  1  1  0  0  0  0
 18  2  1  0  0  0  0
 18  7  1  0  0  0  0
 18 73  1  0  0  0  0
 19  3  1  0  0  0  0
 19  8  1  0  0  0  0
 19 30  1  6  0  0  0
 20  9  1  0  0  0  0
 20 17  2  0  0  0  0
 21 13  1  0  0  0  0
 21 17  1  0  0  0  0
 22 10  1  0  0  0  0
 22 24  1  0  0  0  0
 22 25  1  0  0  0  0
 22 31  1  6  0  0  0
 23 11  1  0  0  0  0
 23 19  1  0  0  0  0
 23 32  1  1  0  0  0
 24 12  1  0  0  0  0
 24 27  1  0  0  0  0
 24 33  1  1  0  0  0
 25 14  1  0  0  0  0
 25 26  1  0  0  0  0
 25 34  1  1  0  0  0
 26 15  1  0  0  0  0
 26 20  1  0  0  0  0
 26  4  1  6  0  0  0
 27 16  1  0  0  0  0
 27 23  1  0  0  0  0
 27  5  1  1  0  0  0
 28 21  2  0  0  0  0
 29 28  1  0  0  0  0
 29 74  1  0  0  0  0
M  END
>  <DRUGBANK_ID>
DB05185

>  <COMMON_NAME>
Olesoxime

>  <CAS_NUMBER>
22033-87-0

>  <UNII>
8V8EF6094N

>  <SYNONYMS>
(EZ)-N-(CHOLEST-4-EN-3-YLIDENE)HYDROXYLAMINE; 4-Cholesten-3-one, oxime; cholest-4-en-3-one, oxime

$$$$
