
 OpenBabel10282417123D

 29 30  0  0  1  0  0  0  0  0999 V2000
    1.1596   -0.9283   -0.3560 C   0  0  2  0  0  0  0  0  0  0  0  0
    2.3942   -1.5572    0.1191 N   0  0  0  0  0  0  0  0  0  0  0  0
    1.3169    0.5106   -0.3142 O   0  0  0  0  0  0  0  0  0  0  0  0
   -0.0908   -1.2803    0.4486 C   0  0  0  0  0  0  0  0  0  0  0  0
    2.7717   -1.2934    1.4404 C   0  0  0  0  0  0  0  0  0  0  0  0
    3.2923   -2.1573   -0.7522 C   0  0  0  0  0  0  0  0  0  0  0  0
    0.2008    1.1070    0.3940 C   0  0  1  0  0  0  0  0  0  0  0  0
   -0.8641    0.0169    0.4970 C   0  0  1  0  0  0  0  0  0  0  0  0
    3.9546   -1.7778    1.9087 N   0  0  0  0  0  0  0  0  0  0  0  0
    2.0569   -0.6447    2.2068 O   0  0  0  0  0  0  0  0  0  0  0  0
    4.5545   -2.3808   -0.3708 C   0  0  0  0  0  0  0  0  0  0  0  0
    0.6118    1.6632    1.7746 C   0  0  0  0  0  0  0  0  0  0  0  0
   -1.7468    0.0572   -0.6287 O   0  0  0  0  0  0  0  0  0  0  0  0
    4.8194   -2.2534    1.0746 C   0  0  0  0  0  0  0  0  0  0  0  0
   -0.0043    2.9361    2.0016 O   0  0  0  0  0  0  0  0  0  0  0  0
    5.9938   -2.6674    1.6169 N   0  0  0  0  0  0  0  0  0  0  0  0
    0.9945   -1.1758   -1.4155 H   0  0  0  0  0  0  0  0  0  0  0  0
    0.1469   -1.6024    1.4644 H   0  0  0  0  0  0  0  0  0  0  0  0
   -0.6412   -2.1068   -0.0109 H   0  0  0  0  0  0  0  0  0  0  0  0
    2.9704   -2.3865   -1.7655 H   0  0  0  0  0  0  0  0  0  0  0  0
   -0.1541    1.9378   -0.2269 H   0  0  0  0  0  0  0  0  0  0  0  0
   -1.4840    0.1057    1.3945 H   0  0  0  0  0  0  0  0  0  0  0  0
    5.3531   -2.6977   -1.0258 H   0  0  0  0  0  0  0  0  0  0  0  0
    0.2712    1.0157    2.5895 H   0  0  0  0  0  0  0  0  0  0  0  0
    1.6938    1.7980    1.8700 H   0  0  0  0  0  0  0  0  0  0  0  0
   -1.2105    0.0896   -1.4385 H   0  0  0  0  0  0  0  0  0  0  0  0
    0.3847    3.5555    1.3605 H   0  0  0  0  0  0  0  0  0  0  0  0
    6.7139   -3.1430    1.0974 H   0  0  0  0  0  0  0  0  0  0  0  0
    6.0397   -2.6826    2.6305 H   0  0  0  0  0  0  0  0  0  0  0  0
  1  3  1  0  0  0  0
  1  4  1  0  0  0  0
  1 17  1  6  0  0  0
  1  2  1  0  0  0  0
  2  5  1  0  0  0  0
  2  6  1  0  0  0  0
  3  7  1  0  0  0  0
  4  8  1  0  0  0  0
  4 18  1  0  0  0  0
  4 19  1  0  0  0  0
  5  9  1  0  0  0  0
  5 10  2  0  0  0  0
  6 11  2  0  0  0  0
  6 20  1  0  0  0  0
  7  8  1  0  0  0  0
  7 21  1  6  0  0  0
  7 12  1  0  0  0  0
  8 13  1  0  0  0  0
  8 22  1  1  0  0  0
  9 14  2  0  0  0  0
 11 14  1  0  0  0  0
 11 23  1  0  0  0  0
 12 15  1  0  0  0  0
 12 24  1  0  0  0  0
 12 25  1  0  0  0  0
 13 26  1  0  0  0  0
 14 16  1  0  0  0  0
 15 27  1  0  0  0  0
 16 28  1  0  0  0  0
 16 29  1  0  0  0  0
M  END
>  <DRUGBANK_ID>
DB02594

>  <SECONDARY_ACCESSION_NUMBERS>
EXPT01140

>  <COMMON_NAME>
2'-Deoxycytidine

>  <CAS_NUMBER>
951-77-9

>  <UNII>
0W860991D6

>  <SYNONYMS>
1-(2-deoxy-.beta.-d-ribofuranosyl)cytosine; 4-amino-1-(2-deoxy-.beta.-d-erythro-pentofuranosyl)-2(1h)-pyrimidinone; dC; dCYD; Deoxyribose cytidine

$$$$
