
 OpenBabel10282417113D

 60 62  0  0  0  0  0  0  0  0999 V2000
   -1.4490   -1.4285    0.2640 C   0  0  0  0  0  0  0  0  0  0  0  0
   -0.0958   -0.8753    0.1810 C   0  0  0  0  0  0  0  0  0  0  0  0
   -2.1989   -0.1503    0.2298 C   0  0  0  0  0  0  0  0  0  0  0  0
   -1.7066   -3.1904    0.0474 C   0  0  0  0  0  0  0  0  0  0  0  0
   -0.1498    0.5200    0.1279 C   0  0  0  0  0  0  0  0  0  0  0  0
    1.1704   -1.4467    0.0627 C   0  0  0  0  0  0  0  0  0  0  0  0
   -1.4122    0.9426    0.1802 O   0  0  0  0  0  0  0  0  0  0  0  0
   -3.6194    0.3094   -0.1011 C   0  0  0  0  0  0  0  0  0  0  0  0
   -3.1458   -4.2511   -0.3849 C   0  0  0  0  0  0  0  0  0  0  0  0
   -0.7559   -3.8519    0.2833 O   0  0  0  0  0  0  0  0  0  0  0  0
    0.9361    1.3858    0.0156 C   0  0  0  0  0  0  0  0  0  0  0  0
    2.2951   -0.6185   -0.0073 C   0  0  0  0  0  0  0  0  0  0  0  0
   -3.9236   -0.2342   -1.4963 C   0  0  0  0  0  0  0  0  0  0  0  0
   -4.0834   -4.2386   -1.6045 C   0  0  0  0  0  0  0  0  0  0  0  0
   -3.8694   -4.7064    0.7693 C   0  0  0  0  0  0  0  0  0  0  0  0
    2.1827    0.7734   -0.0238 C   0  0  0  0  0  0  0  0  0  0  0  0
   -3.4434   -1.6000   -1.3825 C   0  0  0  0  0  0  0  0  0  0  0  0
   -5.5726   -4.3649   -1.6155 C   0  0  0  0  0  0  0  0  0  0  0  0
   -5.3851   -4.8509    0.7390 C   0  0  0  0  0  0  0  0  0  0  0  0
   -4.0396   -2.0943    0.0364 C   0  0  0  0  0  0  0  0  0  0  0  0
   -6.2818   -4.5675   -0.4159 C   0  0  0  0  0  0  0  0  0  0  0  0
   -6.3736   -3.2920   -3.6270 I   0  0  0  0  0  0  0  0  0  0  0  0
   -6.2773   -5.0411    2.7350 I   0  0  0  0  0  0  0  0  0  0  0  0
   -7.6146   -4.2025   -0.1353 O   0  0  0  0  0  0  0  0  0  0  0  0
   -8.4933   -3.5237   -1.1038 C   0  0  0  0  0  0  0  0  0  0  0  0
   -8.6533   -1.8988   -1.1764 C   0  0  0  0  0  0  0  0  0  0  0  0
   -7.4377   -1.1063   -1.2258 N   0  0  0  0  0  0  0  0  0  0  0  0
   -7.3974    0.3199   -1.5478 C   0  0  0  0  0  0  0  0  0  0  0  0
   -6.7403   -1.3505   -0.0123 C   0  0  0  0  0  0  0  0  0  0  0  0
   -7.8006    1.1381   -0.3452 C   0  0  0  0  0  0  0  0  0  0  0  0
   -7.0054   -1.2206    1.4736 C   0  0  0  0  0  0  0  0  0  0  0  0
    1.2680   -2.5239    0.0461 H   0  0  0  0  0  0  0  0  0  0  0  0
   -4.2301   -0.0490    0.7348 H   0  0  0  0  0  0  0  0  0  0  0  0
   -3.8564    1.3703   -0.0890 H   0  0  0  0  0  0  0  0  0  0  0  0
    0.8123    2.4650   -0.0164 H   0  0  0  0  0  0  0  0  0  0  0  0
    3.2730   -1.0854   -0.0366 H   0  0  0  0  0  0  0  0  0  0  0  0
   -4.9396   -0.4244   -1.7996 H   0  0  0  0  0  0  0  0  0  0  0  0
   -3.4512    0.2825   -2.3307 H   0  0  0  0  0  0  0  0  0  0  0  0
   -3.9041   -3.6406   -2.4899 H   0  0  0  0  0  0  0  0  0  0  0  0
   -3.3882   -4.5319    1.7461 H   0  0  0  0  0  0  0  0  0  0  0  0
    3.0785    1.3859   -0.0638 H   0  0  0  0  0  0  0  0  0  0  0  0
   -3.5029   -2.0589   -2.3589 H   0  0  0  0  0  0  0  0  0  0  0  0
   -2.3588   -1.6467   -1.5029 H   0  0  0  0  0  0  0  0  0  0  0  0
   -4.9144   -1.8386    0.5474 H   0  0  0  0  0  0  0  0  0  0  0  0
   -4.6188   -2.9207   -0.1647 H   0  0  0  0  0  0  0  0  0  0  0  0
   -3.5065   -2.0639    1.0042 H   0  0  0  0  0  0  0  0  0  0  0  0
   -8.3141   -3.9658   -2.0714 H   0  0  0  0  0  0  0  0  0  0  0  0
   -9.5151   -3.8654   -0.8934 H   0  0  0  0  0  0  0  0  0  0  0  0
   -9.2372   -1.6534   -2.0702 H   0  0  0  0  0  0  0  0  0  0  0  0
   -9.2278   -1.5722   -0.3052 H   0  0  0  0  0  0  0  0  0  0  0  0
   -6.3717    0.6558   -1.7673 H   0  0  0  0  0  0  0  0  0  0  0  0
   -7.9130    0.5459   -2.4798 H   0  0  0  0  0  0  0  0  0  0  0  0
   -6.5359   -2.3824   -0.1186 H   0  0  0  0  0  0  0  0  0  0  0  0
   -5.8741   -0.7492   -0.1724 H   0  0  0  0  0  0  0  0  0  0  0  0
   -7.0314    1.0726    0.4308 H   0  0  0  0  0  0  0  0  0  0  0  0
   -7.8568    2.1987   -0.5608 H   0  0  0  0  0  0  0  0  0  0  0  0
   -8.7377    0.7473    0.0507 H   0  0  0  0  0  0  0  0  0  0  0  0
   -8.0073   -1.5380    1.7239 H   0  0  0  0  0  0  0  0  0  0  0  0
   -6.2985   -1.8671    2.0175 H   0  0  0  0  0  0  0  0  0  0  0  0
   -6.7558   -0.2268    1.8446 H   0  0  0  0  0  0  0  0  0  0  0  0
  1  2  1  0  0  0  0
  1  3  2  0  0  0  0
  1  4  1  0  0  0  0
  2  5  2  0  0  0  0
  2  6  1  0  0  0  0
  3  7  1  0  0  0  0
  3  8  1  0  0  0  0
  4  9  1  0  0  0  0
  4 10  2  0  0  0  0
  5 11  1  0  0  0  0
  5  7  1  0  0  0  0
  6 12  2  0  0  0  0
  6 32  1  0  0  0  0
  8 13  1  0  0  0  0
  8 33  1  0  0  0  0
  8 34  1  0  0  0  0
  9 14  2  0  0  0  0
  9 15  1  0  0  0  0
 11 16  2  0  0  0  0
 11 35  1  0  0  0  0
 12 16  1  0  0  0  0
 12 36  1  0  0  0  0
 13 17  1  0  0  0  0
 13 37  1  0  0  0  0
 13 38  1  0  0  0  0
 14 18  1  0  0  0  0
 14 39  1  0  0  0  0
 15 19  2  0  0  0  0
 15 40  1  0  0  0  0
 16 41  1  0  0  0  0
 17 20  1  0  0  0  0
 17 42  1  0  0  0  0
 17 43  1  0  0  0  0
 18 21  2  0  0  0  0
 18 22  1  0  0  0  0
 19 23  1  0  0  0  0
 19 21  1  0  0  0  0
 20 44  1  0  0  0  0
 20 45  1  0  0  0  0
 20 46  1  0  0  0  0
 21 24  1  0  0  0  0
 24 25  1  0  0  0  0
 25 26  1  0  0  0  0
 25 47  1  0  0  0  0
 25 48  1  0  0  0  0
 26 27  1  0  0  0  0
 26 49  1  0  0  0  0
 26 50  1  0  0  0  0
 27 28  1  0  0  0  0
 27 29  1  0  0  0  0
 28 30  1  0  0  0  0
 28 51  1  0  0  0  0
 28 52  1  0  0  0  0
 29 31  1  0  0  0  0
 29 53  1  0  0  0  0
 29 54  1  0  0  0  0
 30 55  1  0  0  0  0
 30 56  1  0  0  0  0
 30 57  1  0  0  0  0
 31 58  1  0  0  0  0
 31 59  1  0  0  0  0
 31 60  1  0  0  0  0
M  END
>  <DRUGBANK_ID>
DB01118

>  <SECONDARY_ACCESSION_NUMBERS>
APRD00288

>  <COMMON_NAME>
Amiodarone

>  <CAS_NUMBER>
1951-25-3

>  <UNII>
N3RQ532IUT

>  <SYNONYMS>
2-Butyl-3-(3,5-diiodo-4-(2-diethylaminoethoxy)benzoyl)benzofuran; 2-Butyl-3-benzofuranyl 4-(2-(diethylamino)ethoxy)-3,5-diiodophenyl ketone; 2-n-Butyl-3',5'-diiodo-4'-N-diethylaminoethoxy-3-benzoylbenzofuran; Amiodarona; Amiodarone; Amiodaronum

$$$$
