
 OpenBabel10282417123D

 63 65  0  0  0  0  0  0  0  0999 V2000
    0.4266    1.6398    0.5193 C   0  0  2  0  0  0  0  0  0  0  0  0
    0.6933    2.9041    0.0487 N   0  0  0  0  0  0  0  0  0  0  0  0
    1.7225    1.1649    0.4531 O   0  0  0  0  0  0  0  0  0  0  0  0
   -0.7602    1.1705   -0.3687 C   0  0  1  0  0  0  0  0  0  0  0  0
    1.1374    3.0439   -1.2603 C   0  0  0  0  0  0  0  0  0  0  0  0
    0.0896    3.8433    0.7722 C   0  0  0  0  0  0  0  0  0  0  0  0
    1.3471    0.0722   -0.2085 C   0  0  1  0  0  0  0  0  0  0  0  0
   -0.4379   -0.1702   -0.3182 C   0  0  1  0  0  0  0  0  0  0  0  0
   -2.0643    1.1172    0.1546 O   0  0  0  0  0  0  0  0  0  0  0  0
    0.9347    4.2551   -1.7920 N   0  0  0  0  0  0  0  0  0  0  0  0
    1.6304    2.1847   -1.9765 O   0  0  0  0  0  0  0  0  0  0  0  0
   -0.3599    4.9009    0.1342 C   0  0  0  0  0  0  0  0  0  0  0  0
    2.1674   -0.2488   -1.9286 C   0  0  0  0  0  0  0  0  0  0  0  0
   -0.9590   -1.1008    0.7208 O   0  0  0  0  0  0  0  0  0  0  0  0
    0.0433    5.1211   -1.2587 C   0  0  0  0  0  0  0  0  0  0  0  0
    1.3373   -1.7441   -2.5724 O   0  0  0  0  0  0  0  0  0  0  0  0
   -0.3812    6.0935   -1.8615 O   0  0  0  0  0  0  0  0  0  0  0  0
    1.2796   -3.3125   -1.8445 P   0  0  3  0  0  0  0  0  0  0  0  0
    2.5204   -2.8428   -0.7342 O   0  0  0  0  0  0  0  0  0  0  0  0
   -0.4082   -3.3213   -1.4810 O   0  0  0  0  0  0  0  0  0  0  0  0
    1.2279   -4.7161   -1.1930 O   0  0  0  0  0  0  0  0  0  0  0  0
    4.0693   -3.2135   -1.4099 P   0  0  3  0  0  0  0  0  0  0  0  0
    4.6602   -3.3062    0.1123 O   0  0  0  0  0  0  0  0  0  0  0  0
    5.4555   -3.5452   -2.0147 O   0  0  0  0  0  0  0  0  0  0  0  0
    4.0360   -4.6806   -2.0933 O   0  0  0  0  0  0  0  0  0  0  0  0
    2.8038   -4.7490   -2.4027 C   0  0  2  0  0  0  0  0  0  0  0  0
    2.7037   -2.7215   -2.6973 C   0  0  2  0  0  0  0  0  0  0  0  0
    2.7311   -2.7598   -4.1347 O   0  0  0  0  0  0  0  0  0  0  0  0
    1.6878   -3.1562    0.7064 C   0  0  1  0  0  0  0  0  0  0  0  0
    2.5472   -2.6810    1.7879 O   0  0  0  0  0  0  0  0  0  0  0  0
    1.6750   -1.6893   -0.8744 C   0  0  2  0  0  0  0  0  0  0  0  0
    2.5795   -4.8598    0.3753 C   0  0  1  0  0  0  0  0  0  0  0  0
    2.3059   -5.7518    1.5688 C   0  0  0  0  0  0  0  0  0  0  0  0
    2.7649   -5.6636   -0.9886 O   0  0  0  0  0  0  0  0  0  0  0  0
    0.3620   -1.7123   -0.8776 O   0  0  0  0  0  0  0  0  0  0  0  0
    2.9435   -7.3858    1.1897 S   0  0  0  0  0  0  0  0  0  0  0  0
    4.3840   -7.2954    1.0671 O   0  0  0  0  0  0  0  0  0  0  0  0
    2.6360   -8.1234    2.6002 O   0  0  0  0  0  0  0  0  0  0  0  0
    2.1052   -8.0406    0.2113 O   0  0  0  0  0  0  0  0  0  0  0  0
    0.1368    1.4192    1.5504 H   0  0  0  0  0  0  0  0  0  0  0  0
   -0.6742    1.2877   -1.4729 H   0  0  0  0  0  0  0  0  0  0  0  0
   -0.0817    3.6058    1.8157 H   0  0  0  0  0  0  0  0  0  0  0  0
    1.6627   -0.6449    0.7063 H   0  0  0  0  0  0  0  0  0  0  0  0
   -0.9021   -0.5585   -1.3290 H   0  0  0  0  0  0  0  0  0  0  0  0
   -2.0362    0.4450    0.8799 H   0  0  0  0  0  0  0  0  0  0  0  0
    1.2853    4.3995   -2.7224 H   0  0  0  0  0  0  0  0  0  0  0  0
   -0.9838    5.6160    0.6160 H   0  0  0  0  0  0  0  0  0  0  0  0
    2.0552    0.4438   -2.6961 H   0  0  0  0  0  0  0  0  0  0  0  0
    3.2320   -0.6634   -1.8801 H   0  0  0  0  0  0  0  0  0  0  0  0
   -0.4870   -1.0047    1.5603 H   0  0  0  0  0  0  0  0  0  0  0  0
   -0.8126   -2.4886   -1.8162 H   0  0  0  0  0  0  0  0  0  0  0  0
    5.2399   -2.5989    0.4255 H   0  0  0  0  0  0  0  0  0  0  0  0
    1.9855   -5.2596   -3.0616 H   0  0  0  0  0  0  0  0  0  0  0  0
    1.5518   -3.0579   -3.5400 H   0  0  0  0  0  0  0  0  0  0  0  0
    2.9505   -1.8548   -4.2028 H   0  0  0  0  0  0  0  0  0  0  0  0
    0.6959   -3.4836    1.0427 H   0  0  0  0  0  0  0  0  0  0  0  0
    3.4742   -2.7543    1.4526 H   0  0  0  0  0  0  0  0  0  0  0  0
    2.7424   -1.2301   -0.2947 H   0  0  0  0  0  0  0  0  0  0  0  0
    3.6342   -4.7842    0.4278 H   0  0  0  0  0  0  0  0  0  0  0  0
    2.8420   -5.3030    2.4218 H   0  0  0  0  0  0  0  0  0  0  0  0
    1.2397   -5.7718    1.7888 H   0  0  0  0  0  0  0  0  0  0  0  0
    0.0887   -2.0160   -0.0031 H   0  0  0  0  0  0  0  0  0  0  0  0
    3.2228   -7.8288    3.3202 H   0  0  0  0  0  0  0  0  0  0  0  0
  1  3  1  0  0  0  0
  1  4  1  0  0  0  0
  1 40  1  1  0  0  0
  1  2  1  0  0  0  0
  2  5  1  0  0  0  0
  2  6  1  0  0  0  0
  3  7  1  0  0  0  0
  4  8  1  0  0  0  0
  4  9  1  0  0  0  0
  4 41  1  6  0  0  0
  5 10  1  0  0  0  0
  5 11  2  0  0  0  0
  6 12  2  0  0  0  0
  6 42  1  0  0  0  0
  7  8  1  0  0  0  0
  7 43  1  1  0  0  0
  7 13  1  0  0  0  0
  8 14  1  0  0  0  0
  8 44  1  6  0  0  0
  9 45  1  0  0  0  0
 10 15  1  0  0  0  0
 10 46  1  0  0  0  0
 12 15  1  0  0  0  0
 12 47  1  0  0  0  0
 13 16  1  0  0  0  0
 13 48  1  0  0  0  0
 13 49  1  0  0  0  0
 14 50  1  0  0  0  0
 15 17  2  0  0  0  0
 16 18  1  0  0  0  0
 18 19  1  0  0  0  0
 18 20  1  0  0  0  0
 18 21  2  0  0  0  0
 19 22  1  0  0  0  0
 20 51  1  0  0  0  0
 22 23  1  0  0  0  0
 22 25  1  0  0  0  0
 22 24  2  0  0  0  0
 23 52  1  0  0  0  0
 26 25  1  0  0  0  0
 26 53  1  6  0  0  0
 27 26  1  0  0  0  0
 27 28  1  0  0  0  0
 27 54  1  6  0  0  0
 28 55  1  0  0  0  0
 29 31  1  0  0  0  0
 29 30  1  0  0  0  0
 29 56  1  1  0  0  0
 30 57  1  0  0  0  0
 31 27  1  0  0  0  0
 31 35  1  0  0  0  0
 31 58  1  1  0  0  0
 32 29  1  0  0  0  0
 32 33  1  0  0  0  0
 32 59  1  1  0  0  0
 33 36  1  0  0  0  0
 33 60  1  0  0  0  0
 33 61  1  0  0  0  0
 34 26  1  0  0  0  0
 34 32  1  0  0  0  0
 35 62  1  0  0  0  0
 36 37  2  0  0  0  0
 36 38  1  0  0  0  0
 36 39  2  0  0  0  0
 38 63  1  0  0  0  0
M  END
>  <DRUGBANK_ID>
DB02554

>  <SECONDARY_ACCESSION_NUMBERS>
EXPT03209

>  <COMMON_NAME>
UDP-6-sulfoquinovose

$$$$
