
 OpenBabel10282417193D

 49 52  0  0  0  0  0  0  0  0999 V2000
    1.0450    0.0143   -0.0372 C   0  0  0  0  0  0  0  0  0  0  0  0
    0.5790   -1.2135   -0.7248 C   0  0  0  0  0  0  0  0  0  0  0  0
   -0.3136   -1.3344   -1.7750 C   0  0  0  0  0  0  0  0  0  0  0  0
   -0.3238   -2.6796   -2.0880 N   0  0  0  0  0  0  0  0  0  0  0  0
    0.4891   -3.3158   -1.1612 C   0  0  0  0  0  0  0  0  0  0  0  0
    1.0325   -2.4519   -0.3288 N   0  0  0  0  0  0  0  0  0  0  0  0
    0.6293   -4.7417   -1.2871 C   0  0  0  0  0  0  0  0  0  0  0  0
   -0.0062   -5.3403   -2.2932 C   0  0  0  0  0  0  0  0  0  0  0  0
   -0.8313   -4.5247   -3.2071 C   0  0  0  0  0  0  0  0  0  0  0  0
   -1.0059   -3.2444   -3.1313 N   0  0  0  0  0  0  0  0  0  0  0  0
    1.3805   -5.4784   -0.3699 N   0  0  0  0  0  0  0  0  0  0  0  0
    2.5285   -6.3158   -0.7373 C   0  0  0  0  0  0  0  0  0  0  0  0
    2.3162   -7.7291   -0.1784 C   0  0  0  0  0  0  0  0  0  0  0  0
    2.0960   -7.7067    1.2437 O   0  0  0  0  0  0  0  0  0  0  0  0
    0.9514   -6.8915    1.5637 C   0  0  0  0  0  0  0  0  0  0  0  0
    1.1347   -5.4414    1.0779 C   0  0  0  0  0  0  0  0  0  0  0  0
   -1.0449   -0.3373   -2.5297 C   0  0  0  0  0  0  0  0  0  0  0  0
   -0.3729    0.5404   -3.3494 C   0  0  0  0  0  0  0  0  0  0  0  0
   -1.1075    1.2250   -4.3096 C   0  0  0  0  0  0  0  0  0  0  0  0
   -2.4222    1.5454   -3.9929 C   0  0  0  0  0  0  0  0  0  0  0  0
   -3.1184    0.7516   -3.1502 N   0  0  0  0  0  0  0  0  0  0  0  0
   -2.4284   -0.2578   -2.5478 C   0  0  0  0  0  0  0  0  0  0  0  0
   -3.0527    2.8551   -4.4782 C   0  0  0  0  0  0  0  0  0  0  0  0
   -2.6483    4.2299   -3.8228 C   0  0  0  0  0  0  0  0  0  0  0  0
   -1.3286    4.7591   -4.0615 O   0  0  0  0  0  0  0  0  0  0  0  0
   -0.3427    4.0058   -3.3939 C   0  0  0  0  0  0  0  0  0  0  0  0
    0.6790    0.0365    0.9927 H   0  0  0  0  0  0  0  0  0  0  0  0
    0.6904    0.9203   -0.5390 H   0  0  0  0  0  0  0  0  0  0  0  0
    2.1389    0.0518   -0.0242 H   0  0  0  0  0  0  0  0  0  0  0  0
    0.0091   -6.4151   -2.4484 H   0  0  0  0  0  0  0  0  0  0  0  0
   -1.3389   -5.0865   -4.0077 H   0  0  0  0  0  0  0  0  0  0  0  0
    3.4317   -5.8764   -0.2953 H   0  0  0  0  0  0  0  0  0  0  0  0
    2.6757   -6.3535   -1.8219 H   0  0  0  0  0  0  0  0  0  0  0  0
    1.4572   -8.2112   -0.6601 H   0  0  0  0  0  0  0  0  0  0  0  0
    3.1997   -8.3449   -0.3716 H   0  0  0  0  0  0  0  0  0  0  0  0
    0.8155   -6.9150    2.6486 H   0  0  0  0  0  0  0  0  0  0  0  0
    0.0642   -7.3451    1.1035 H   0  0  0  0  0  0  0  0  0  0  0  0
    1.9936   -4.9808    1.5790 H   0  0  0  0  0  0  0  0  0  0  0  0
    0.2379   -4.8607    1.3225 H   0  0  0  0  0  0  0  0  0  0  0  0
    0.6984    0.7087   -3.2502 H   0  0  0  0  0  0  0  0  0  0  0  0
   -0.5731    1.7435   -5.1025 H   0  0  0  0  0  0  0  0  0  0  0  0
   -3.0325   -1.0043   -2.0436 H   0  0  0  0  0  0  0  0  0  0  0  0
   -2.9275    2.9194   -5.5638 H   0  0  0  0  0  0  0  0  0  0  0  0
   -4.1305    2.7602   -4.2876 H   0  0  0  0  0  0  0  0  0  0  0  0
   -3.3105    4.9949   -4.2522 H   0  0  0  0  0  0  0  0  0  0  0  0
   -2.8346    4.2332   -2.7435 H   0  0  0  0  0  0  0  0  0  0  0  0
   -0.4969    3.8856   -2.3190 H   0  0  0  0  0  0  0  0  0  0  0  0
   -0.4669    3.0579   -3.8057 H   0  0  0  0  0  0  0  0  0  0  0  0
    0.6885    4.2010   -3.6940 H   0  0  0  0  0  0  0  0  0  0  0  0
  1  2  1  0  0  0  0
  1 27  1  0  0  0  0
  1 28  1  0  0  0  0
  1 29  1  0  0  0  0
  2  3  2  0  0  0  0
  2  6  1  0  0  0  0
  3  4  1  0  0  0  0
  3 17  1  0  0  0  0
  4  5  1  0  0  0  0
  4 10  1  0  0  0  0
  5  6  2  0  0  0  0
  5  7  1  0  0  0  0
  7  8  2  0  0  0  0
  7 11  1  0  0  0  0
  8  9  1  0  0  0  0
  8 30  1  0  0  0  0
  9 10  2  0  0  0  0
  9 31  1  0  0  0  0
 11 12  1  0  0  0  0
 11 16  1  0  0  0  0
 12 13  1  0  0  0  0
 12 32  1  0  0  0  0
 12 33  1  0  0  0  0
 13 14  1  0  0  0  0
 13 34  1  0  0  0  0
 13 35  1  0  0  0  0
 14 15  1  0  0  0  0
 15 16  1  0  0  0  0
 15 36  1  0  0  0  0
 15 37  1  0  0  0  0
 16 38  1  0  0  0  0
 16 39  1  0  0  0  0
 17 18  2  0  0  0  0
 17 22  1  0  0  0  0
 18 19  1  0  0  0  0
 18 40  1  0  0  0  0
 19 20  2  0  0  0  0
 19 41  1  0  0  0  0
 20 21  1  0  0  0  0
 20 23  1  0  0  0  0
 21 22  2  0  0  0  0
 22 42  1  0  0  0  0
 23 24  1  0  0  0  0
 23 43  1  0  0  0  0
 23 44  1  0  0  0  0
 24 25  1  0  0  0  0
 24 45  1  0  0  0  0
 24 46  1  0  0  0  0
 25 26  1  0  0  0  0
 26 47  1  0  0  0  0
 26 48  1  0  0  0  0
 26 49  1  0  0  0  0
M  END
>  <DRUGBANK_ID>
DB12657

>  <COMMON_NAME>
JNJ-42396302

>  <CAS_NUMBER>
1298030-18-8

>  <UNII>
P5M4972608

$$$$
