
 OpenBabel10282417193D

210209  0  0  0  0  0  0  0  0999 V2000
   10.0866   -0.4734   -8.9689 N   0  0  0  0  0  0  0  0  0  0  0  0
    9.1773    0.1003   -9.7723 C   0  0  0  0  0  0  0  0  0  0  0  0
    8.8756   -0.5160  -10.9197 N   0  0  0  0  0  0  0  0  0  0  0  0
    8.6438    1.2136   -9.4164 N   0  0  0  0  0  0  0  0  0  0  0  0
   13.0301   -1.4144   -5.3849 N   0  0  0  0  0  0  0  0  0  0  0  0
   12.6071   -1.9530   -6.6817 C   0  0  2  0  0  0  0  0  0  0  0  0
   14.5253   -3.2528   -7.4805 O   0  0  0  0  0  0  0  0  0  0  0  0
   13.4068   -3.2560   -6.9836 C   0  0  0  0  0  0  0  0  0  0  0  0
   12.8545   -0.9338   -7.8032 C   0  0  0  0  0  0  0  0  0  0  0  0
   12.3177   -1.4326   -9.1501 C   0  0  0  0  0  0  0  0  0  0  0  0
   10.8158   -1.6973   -9.1374 C   0  0  0  0  0  0  0  0  0  0  0  0
   16.0791   -7.0767   -4.8164 N   0  0  0  0  0  0  0  0  0  0  0  0
   17.0287   -7.6476   -4.0589 C   0  0  0  0  0  0  0  0  0  0  0  0
   17.4449   -6.9138   -3.0197 N   0  0  0  0  0  0  0  0  0  0  0  0
   17.5152   -8.8019   -4.3399 N   0  0  0  0  0  0  0  0  0  0  0  0
   12.7370   -4.4283   -6.6778 N   0  0  0  0  0  0  0  0  0  0  0  0
   13.3695   -5.7797   -6.9071 C   0  0  2  0  0  0  0  0  0  0  0  0
   13.1507   -7.6527   -8.4471 O   0  0  0  0  0  0  0  0  0  0  0  0
   12.7895   -6.5264   -8.1191 C   0  0  0  0  0  0  0  0  0  0  0  0
   13.2970   -6.7369   -5.6665 C   0  0  0  0  0  0  0  0  0  0  0  0
   14.0650   -8.0384   -5.7368 C   0  0  0  0  0  0  0  0  0  0  0  0
   15.5249   -7.7676   -5.9646 C   0  0  0  0  0  0  0  0  0  0  0  0
   11.2708   -5.0264  -13.4641 N   0  0  0  0  0  0  0  0  0  0  0  0
   11.2197   -4.6052  -14.7455 C   0  0  0  0  0  0  0  0  0  0  0  0
   11.7454   -3.3914  -14.9705 N   0  0  0  0  0  0  0  0  0  0  0  0
   10.6881   -5.3048  -15.6817 N   0  0  0  0  0  0  0  0  0  0  0  0
   11.8071   -5.8846   -8.8170 N   0  0  0  0  0  0  0  0  0  0  0  0
   11.2661   -6.4791  -10.0248 C   0  0  2  0  0  0  0  0  0  0  0  0
    9.0622   -7.4318  -10.0150 O   0  0  0  0  0  0  0  0  0  0  0  0
   10.2531   -7.6301   -9.7350 C   0  0  0  0  0  0  0  0  0  0  0  0
   12.3300   -6.6864  -11.1138 C   0  0  0  0  0  0  0  0  0  0  0  0
   11.7510   -7.2124  -12.4229 C   0  0  0  0  0  0  0  0  0  0  0  0
   10.6974   -6.2971  -13.0457 C   0  0  0  0  0  0  0  0  0  0  0  0
    6.1062   -9.0373   -9.8119 N   0  0  0  0  0  0  0  0  0  0  0  0
    4.8272   -8.9573  -10.2179 C   0  0  0  0  0  0  0  0  0  0  0  0
    4.6069   -8.0641  -11.1870 N   0  0  0  0  0  0  0  0  0  0  0  0
    3.8979   -9.6849   -9.7074 N   0  0  0  0  0  0  0  0  0  0  0  0
   10.6272   -8.8320   -9.1690 N   0  0  0  0  0  0  0  0  0  0  0  0
    9.5493   -9.7281   -8.6741 C   0  0  2  0  0  0  0  0  0  0  0  0
   10.9096  -10.2351   -6.7947 O   0  0  0  0  0  0  0  0  0  0  0  0
   10.0328  -10.6580   -7.5459 C   0  0  0  0  0  0  0  0  0  0  0  0
    8.8474  -10.4502   -9.8321 C   0  0  0  0  0  0  0  0  0  0  0  0
    7.4519  -11.0188   -9.5099 C   0  0  0  0  0  0  0  0  0  0  0  0
    6.5159  -10.0227   -8.8525 C   0  0  0  0  0  0  0  0  0  0  0  0
   13.0653  -14.1937   -5.9245 N   0  0  0  0  0  0  0  0  0  0  0  0
   14.2966  -14.6702   -5.6536 C   0  0  0  0  0  0  0  0  0  0  0  0
   15.2837  -14.1858   -6.4241 N   0  0  0  0  0  0  0  0  0  0  0  0
   14.5042  -15.5550   -4.7462 N   0  0  0  0  0  0  0  0  0  0  0  0
    9.3516  -11.8525   -7.3558 N   0  0  0  0  0  0  0  0  0  0  0  0
    9.7030  -12.9136   -6.4166 C   0  0  2  0  0  0  0  0  0  0  0  0
    8.4928  -14.7343   -5.4320 O   0  0  0  0  0  0  0  0  0  0  0  0
    8.4468  -13.5626   -5.7960 C   0  0  0  0  0  0  0  0  0  0  0  0
   10.6816  -12.4553   -5.3566 C   0  0  0  0  0  0  0  0  0  0  0  0
   11.1956  -13.5438   -4.4433 C   0  0  0  0  0  0  0  0  0  0  0  0
   11.8838  -14.6680   -5.2142 C   0  0  0  0  0  0  0  0  0  0  0  0
    4.4236  -16.3607   -4.7733 N   0  0  0  0  0  0  0  0  0  0  0  0
    3.7646  -17.5310   -4.6608 C   0  0  0  0  0  0  0  0  0  0  0  0
    4.2763  -18.5455   -5.3728 N   0  0  0  0  0  0  0  0  0  0  0  0
    2.7056  -17.6587   -3.9453 N   0  0  0  0  0  0  0  0  0  0  0  0
    7.3730  -12.7263   -5.5803 N   0  0  0  0  0  0  0  0  0  0  0  0
    6.1436  -13.0980   -4.8595 C   0  0  2  0  0  0  0  0  0  0  0  0
    5.6576  -11.7146   -2.9092 O   0  0  0  0  0  0  0  0  0  0  0  0
    5.6329  -11.8334   -4.1321 C   0  0  0  0  0  0  0  0  0  0  0  0
    6.3334  -14.2189   -3.8161 C   0  0  0  0  0  0  0  0  0  0  0  0
    5.0577  -14.6632   -3.1016 C   0  0  0  0  0  0  0  0  0  0  0  0
    3.9915  -15.1660   -4.0678 C   0  0  0  0  0  0  0  0  0  0  0  0
    1.0772   -8.4412   -4.3804 N   0  0  0  0  0  0  0  0  0  0  0  0
   -0.1635   -7.9659   -4.1791 C   0  0  0  0  0  0  0  0  0  0  0  0
   -1.1367   -8.7613   -4.6299 N   0  0  0  0  0  0  0  0  0  0  0  0
   -0.3797   -6.8325   -3.6191 N   0  0  0  0  0  0  0  0  0  0  0  0
    5.1466  -10.8228   -4.9325 N   0  0  0  0  0  0  0  0  0  0  0  0
    4.6837   -9.5617   -4.3417 C   0  0  2  0  0  0  0  0  0  0  0  0
    6.9485   -8.6360   -4.5732 O   0  0  0  0  0  0  0  0  0  0  0  0
    5.9178   -8.6964   -3.9038 C   0  0  0  0  0  0  0  0  0  0  0  0
    3.5954   -9.8034   -3.2624 C   0  0  0  0  0  0  0  0  0  0  0  0
    2.8448   -8.5669   -2.7677 C   0  0  0  0  0  0  0  0  0  0  0  0
    2.2128   -7.7412   -3.8544 C   0  0  0  0  0  0  0  0  0  0  0  0
    9.7340   -6.0992   -3.5172 N   0  0  0  0  0  0  0  0  0  0  0  0
   10.7438   -5.4695   -4.1060 C   0  0  0  0  0  0  0  0  0  0  0  0
   10.6624   -5.5828   -5.4369 N   0  0  0  0  0  0  0  0  0  0  0  0
   11.6856   -4.8690   -3.4821 N   0  0  0  0  0  0  0  0  0  0  0  0
    5.7085   -7.9499   -2.7615 N   0  0  0  0  0  0  0  0  0  0  0  0
    6.6622   -7.0411   -2.1492 C   0  0  2  0  0  0  0  0  0  0  0  0
    7.0835   -6.1465    0.0744 O   0  0  0  0  0  0  0  0  0  0  0  0
    6.2591   -6.6651   -0.6774 C   0  0  0  0  0  0  0  0  0  0  0  0
    6.8485   -5.7722   -2.9986 C   0  0  0  0  0  0  0  0  0  0  0  0
    7.9542   -4.8552   -2.4631 C   0  0  0  0  0  0  0  0  0  0  0  0
    9.2655   -5.6020   -2.2524 C   0  0  0  0  0  0  0  0  0  0  0  0
    6.2969   -5.2732    3.9194 N   0  0  0  0  0  0  0  0  0  0  0  0
    6.9128   -4.8149    5.0274 C   0  0  0  0  0  0  0  0  0  0  0  0
    8.2513   -4.7874    4.9671 N   0  0  0  0  0  0  0  0  0  0  0  0
    6.2648   -4.4451    6.0730 N   0  0  0  0  0  0  0  0  0  0  0  0
    4.9435   -6.8483   -0.2896 N   0  0  0  0  0  0  0  0  0  0  0  0
    4.3746   -6.4066    0.9935 C   0  0  2  0  0  0  0  0  0  0  0  0
    2.0628   -5.5616    0.9901 O   0  0  0  0  0  0  0  0  0  0  0  0
    2.8150   -6.5050    0.9514 C   0  0  0  0  0  0  0  0  0  0  0  0
    4.7631   -4.9536    1.3233 C   0  0  0  0  0  0  0  0  0  0  0  0
    4.3065   -4.4873    2.7034 C   0  0  0  0  0  0  0  0  0  0  0  0
    4.8499   -5.3573    3.8317 C   0  0  0  0  0  0  0  0  0  0  0  0
    2.3296   -7.7701    0.8429 O   0  0  0  0  0  0  0  0  0  0  0  0
   10.2438    0.0668   -8.1224 H   0  0  0  0  0  0  0  0  0  0  0  0
    8.1726   -0.1499  -11.5411 H   0  0  0  0  0  0  0  0  0  0  0  0
    9.2585   -1.4115  -11.1652 H   0  0  0  0  0  0  0  0  0  0  0  0
    7.9837    1.5106  -10.1364 H   0  0  0  0  0  0  0  0  0  0  0  0
   12.3310   -0.7498   -5.0481 H   0  0  0  0  0  0  0  0  0  0  0  0
   13.8817   -0.8655   -5.5167 H   0  0  0  0  0  0  0  0  0  0  0  0
   11.5398   -2.1746   -6.5861 H   0  0  0  0  0  0  0  0  0  0  0  0
   13.9304   -0.7417   -7.9094 H   0  0  0  0  0  0  0  0  0  0  0  0
   12.3966    0.0321   -7.5569 H   0  0  0  0  0  0  0  0  0  0  0  0
   12.8275   -2.3633   -9.4277 H   0  0  0  0  0  0  0  0  0  0  0  0
   12.5667   -0.7051   -9.9322 H   0  0  0  0  0  0  0  0  0  0  0  0
   10.5300   -2.3959   -8.3465 H   0  0  0  0  0  0  0  0  0  0  0  0
   10.5662   -2.2149  -10.0647 H   0  0  0  0  0  0  0  0  0  0  0  0
   15.6824   -6.1882   -4.5443 H   0  0  0  0  0  0  0  0  0  0  0  0
   18.1659   -7.2693   -2.4116 H   0  0  0  0  0  0  0  0  0  0  0  0
   17.0352   -6.0255   -2.7744 H   0  0  0  0  0  0  0  0  0  0  0  0
   18.2306   -9.0499   -3.6658 H   0  0  0  0  0  0  0  0  0  0  0  0
   11.7285   -4.2660   -6.6049 H   0  0  0  0  0  0  0  0  0  0  0  0
   14.4127   -5.5738   -7.1461 H   0  0  0  0  0  0  0  0  0  0  0  0
   13.5879   -6.1821   -4.7681 H   0  0  0  0  0  0  0  0  0  0  0  0
   12.2988   -7.1354   -5.4921 H   0  0  0  0  0  0  0  0  0  0  0  0
   13.8944   -8.6009   -4.8081 H   0  0  0  0  0  0  0  0  0  0  0  0
   13.6537   -8.6809   -6.5210 H   0  0  0  0  0  0  0  0  0  0  0  0
   16.0062   -8.7272   -6.1622 H   0  0  0  0  0  0  0  0  0  0  0  0
   15.6813   -7.1632   -6.8596 H   0  0  0  0  0  0  0  0  0  0  0  0
   11.7008   -4.4427  -12.7646 H   0  0  0  0  0  0  0  0  0  0  0  0
   11.8109   -3.0438  -15.9174 H   0  0  0  0  0  0  0  0  0  0  0  0
   12.2550   -2.8726  -14.2728 H   0  0  0  0  0  0  0  0  0  0  0  0
   10.7502   -4.8107  -16.5686 H   0  0  0  0  0  0  0  0  0  0  0  0
   11.6119   -4.9134   -8.6202 H   0  0  0  0  0  0  0  0  0  0  0  0
   10.6197   -5.6734  -10.3938 H   0  0  0  0  0  0  0  0  0  0  0  0
   12.8292   -5.7241  -11.3044 H   0  0  0  0  0  0  0  0  0  0  0  0
   13.1314   -7.3598  -10.7937 H   0  0  0  0  0  0  0  0  0  0  0  0
   12.5682   -7.3766  -13.1363 H   0  0  0  0  0  0  0  0  0  0  0  0
   11.3038   -8.1953  -12.2330 H   0  0  0  0  0  0  0  0  0  0  0  0
   10.2512   -6.8365  -13.8870 H   0  0  0  0  0  0  0  0  0  0  0  0
    9.8721   -6.1073  -12.3540 H   0  0  0  0  0  0  0  0  0  0  0  0
    6.8318   -8.4632  -10.2306 H   0  0  0  0  0  0  0  0  0  0  0  0
    3.6745   -7.9018  -11.5342 H   0  0  0  0  0  0  0  0  0  0  0  0
    5.3474   -7.4935  -11.5661 H   0  0  0  0  0  0  0  0  0  0  0  0
    3.0118   -9.4652  -10.1562 H   0  0  0  0  0  0  0  0  0  0  0  0
   11.5820   -8.9740   -8.8236 H   0  0  0  0  0  0  0  0  0  0  0  0
    8.8601   -9.0463   -8.1651 H   0  0  0  0  0  0  0  0  0  0  0  0
    8.7182   -9.7526  -10.6667 H   0  0  0  0  0  0  0  0  0  0  0  0
    9.5029  -11.2405  -10.2164 H   0  0  0  0  0  0  0  0  0  0  0  0
    7.0293  -11.4387  -10.4291 H   0  0  0  0  0  0  0  0  0  0  0  0
    7.4538  -11.8717   -8.8372 H   0  0  0  0  0  0  0  0  0  0  0  0
    5.6707  -10.5933   -8.4507 H   0  0  0  0  0  0  0  0  0  0  0  0
    6.9479   -9.5399   -7.9727 H   0  0  0  0  0  0  0  0  0  0  0  0
   12.9522  -13.4794   -6.6284 H   0  0  0  0  0  0  0  0  0  0  0  0
   16.2413  -14.4179   -6.2000 H   0  0  0  0  0  0  0  0  0  0  0  0
   15.1589  -13.3847   -7.0244 H   0  0  0  0  0  0  0  0  0  0  0  0
   15.4917  -15.7886   -4.7073 H   0  0  0  0  0  0  0  0  0  0  0  0
    8.9203  -12.2820   -8.1524 H   0  0  0  0  0  0  0  0  0  0  0  0
   10.1315  -13.6970   -7.0548 H   0  0  0  0  0  0  0  0  0  0  0  0
   11.5670  -12.0570   -5.8576 H   0  0  0  0  0  0  0  0  0  0  0  0
   10.2341  -11.6457   -4.7694 H   0  0  0  0  0  0  0  0  0  0  0  0
   11.8950  -13.0810   -3.7381 H   0  0  0  0  0  0  0  0  0  0  0  0
   10.3677  -13.9448   -3.8501 H   0  0  0  0  0  0  0  0  0  0  0  0
   12.1284  -15.4513   -4.4929 H   0  0  0  0  0  0  0  0  0  0  0  0
   11.2071  -15.1359   -5.9352 H   0  0  0  0  0  0  0  0  0  0  0  0
    5.2799  -16.3175   -5.3080 H   0  0  0  0  0  0  0  0  0  0  0  0
    3.8671  -19.4658   -5.3039 H   0  0  0  0  0  0  0  0  0  0  0  0
    5.1504  -18.4778   -5.8710 H   0  0  0  0  0  0  0  0  0  0  0  0
    2.3610  -18.6129   -4.0027 H   0  0  0  0  0  0  0  0  0  0  0  0
    7.4435  -11.7853   -5.9508 H   0  0  0  0  0  0  0  0  0  0  0  0
    5.4119  -13.3862   -5.6226 H   0  0  0  0  0  0  0  0  0  0  0  0
    6.7210  -15.1208   -4.2891 H   0  0  0  0  0  0  0  0  0  0  0  0
    7.0836  -13.9099   -3.0767 H   0  0  0  0  0  0  0  0  0  0  0  0
    5.3193  -15.4495   -2.3822 H   0  0  0  0  0  0  0  0  0  0  0  0
    4.6381  -13.8442   -2.5091 H   0  0  0  0  0  0  0  0  0  0  0  0
    3.0792  -15.3406   -3.4896 H   0  0  0  0  0  0  0  0  0  0  0  0
    3.7283  -14.3963   -4.7987 H   0  0  0  0  0  0  0  0  0  0  0  0
    1.2165   -9.3756   -4.7330 H   0  0  0  0  0  0  0  0  0  0  0  0
   -2.0971   -8.4616   -4.5705 H   0  0  0  0  0  0  0  0  0  0  0  0
   -0.9518   -9.6484   -5.0694 H   0  0  0  0  0  0  0  0  0  0  0  0
   -1.3757   -6.6404   -3.5727 H   0  0  0  0  0  0  0  0  0  0  0  0
    5.2327  -10.8742   -5.9404 H   0  0  0  0  0  0  0  0  0  0  0  0
    4.2322   -9.0279   -5.1850 H   0  0  0  0  0  0  0  0  0  0  0  0
    2.8631  -10.5216   -3.6516 H   0  0  0  0  0  0  0  0  0  0  0  0
    4.0277  -10.2738   -2.3733 H   0  0  0  0  0  0  0  0  0  0  0  0
    2.1443   -8.8598   -1.9761 H   0  0  0  0  0  0  0  0  0  0  0  0
    3.4932   -7.8568   -2.2893 H   0  0  0  0  0  0  0  0  0  0  0  0
    1.9547   -6.7733   -3.4076 H   0  0  0  0  0  0  0  0  0  0  0  0
    2.9208   -7.5017   -4.6501 H   0  0  0  0  0  0  0  0  0  0  0  0
    9.0820   -6.5996   -4.1086 H   0  0  0  0  0  0  0  0  0  0  0  0
   11.6197   -5.4687   -5.6832 H   0  0  0  0  0  0  0  0  0  0  0  0
   10.3996   -6.5234   -5.7289 H   0  0  0  0  0  0  0  0  0  0  0  0
   12.3997   -4.4543   -4.0797 H   0  0  0  0  0  0  0  0  0  0  0  0
    5.1984   -8.4626   -2.0694 H   0  0  0  0  0  0  0  0  0  0  0  0
    7.5871   -7.6202   -2.0760 H   0  0  0  0  0  0  0  0  0  0  0  0
    7.0894   -6.0477   -4.0342 H   0  0  0  0  0  0  0  0  0  0  0  0
    5.9128   -5.2053   -3.0638 H   0  0  0  0  0  0  0  0  0  0  0  0
    8.0950   -4.0139   -3.1557 H   0  0  0  0  0  0  0  0  0  0  0  0
    7.6515   -4.4060   -1.5132 H   0  0  0  0  0  0  0  0  0  0  0  0
    9.9860   -4.9216   -1.7880 H   0  0  0  0  0  0  0  0  0  0  0  0
    9.1870   -6.4506   -1.5752 H   0  0  0  0  0  0  0  0  0  0  0  0
    6.8429   -5.5291    3.1068 H   0  0  0  0  0  0  0  0  0  0  0  0
    8.7857   -4.4320    5.7458 H   0  0  0  0  0  0  0  0  0  0  0  0
    8.7665   -5.0318    4.1354 H   0  0  0  0  0  0  0  0  0  0  0  0
    6.9118   -4.1385    6.7938 H   0  0  0  0  0  0  0  0  0  0  0  0
    4.3158   -7.3819   -0.8512 H   0  0  0  0  0  0  0  0  0  0  0  0
    4.7501   -7.1042    1.7486 H   0  0  0  0  0  0  0  0  0  0  0  0
    5.8444   -4.8116    1.2994 H   0  0  0  0  0  0  0  0  0  0  0  0
    4.3695   -4.2855    0.5471 H   0  0  0  0  0  0  0  0  0  0  0  0
    4.6188   -3.4453    2.8401 H   0  0  0  0  0  0  0  0  0  0  0  0
    3.2141   -4.4826    2.7645 H   0  0  0  0  0  0  0  0  0  0  0  0
    4.3627   -5.0373    4.7575 H   0  0  0  0  0  0  0  0  0  0  0  0
    4.5602   -6.4044    3.7049 H   0  0  0  0  0  0  0  0  0  0  0  0
    2.9531   -8.5109    0.9066 H   0  0  0  0  0  0  0  0  0  0  0  0
  1  2  1  0  0  0  0
  1101  1  0  0  0  0
  2  3  1  0  0  0  0
  2  4  2  0  0  0  0
  3102  1  0  0  0  0
  3103  1  0  0  0  0
  4104  1  0  0  0  0
  5105  1  0  0  0  0
  5106  1  0  0  0  0
  6  9  1  0  0  0  0
  6107  1  1  0  0  0
  6  8  1  0  0  0  0
  6  5  1  0  0  0  0
  8 16  1  0  0  0  0
  8  7  2  0  0  0  0
  9 10  1  0  0  0  0
  9108  1  0  0  0  0
  9109  1  0  0  0  0
 10 11  1  0  0  0  0
 10110  1  0  0  0  0
 10111  1  0  0  0  0
 11  1  1  0  0  0  0
 11112  1  0  0  0  0
 11113  1  0  0  0  0
 12 13  1  0  0  0  0
 12114  1  0  0  0  0
 13 14  1  0  0  0  0
 13 15  2  0  0  0  0
 14115  1  0  0  0  0
 14116  1  0  0  0  0
 15117  1  0  0  0  0
 16118  1  0  0  0  0
 17 20  1  0  0  0  0
 17119  1  6  0  0  0
 17 19  1  0  0  0  0
 17 16  1  0  0  0  0
 19 27  1  0  0  0  0
 19 18  2  0  0  0  0
 20 21  1  0  0  0  0
 20120  1  0  0  0  0
 20121  1  0  0  0  0
 21 22  1  0  0  0  0
 21122  1  0  0  0  0
 21123  1  0  0  0  0
 22 12  1  0  0  0  0
 22124  1  0  0  0  0
 22125  1  0  0  0  0
 23 24  1  0  0  0  0
 23126  1  0  0  0  0
 24 25  1  0  0  0  0
 24 26  2  0  0  0  0
 25127  1  0  0  0  0
 25128  1  0  0  0  0
 26129  1  0  0  0  0
 27130  1  0  0  0  0
 28 31  1  0  0  0  0
 28131  1  6  0  0  0
 28 30  1  0  0  0  0
 28 27  1  0  0  0  0
 30 38  1  0  0  0  0
 30 29  2  0  0  0  0
 31 32  1  0  0  0  0
 31132  1  0  0  0  0
 31133  1  0  0  0  0
 32 33  1  0  0  0  0
 32134  1  0  0  0  0
 32135  1  0  0  0  0
 33 23  1  0  0  0  0
 33136  1  0  0  0  0
 33137  1  0  0  0  0
 34 35  1  0  0  0  0
 34138  1  0  0  0  0
 35 36  1  0  0  0  0
 35 37  2  0  0  0  0
 36139  1  0  0  0  0
 36140  1  0  0  0  0
 37141  1  0  0  0  0
 38142  1  0  0  0  0
 39 42  1  0  0  0  0
 39143  1  1  0  0  0
 39 41  1  0  0  0  0
 39 38  1  0  0  0  0
 41 49  1  0  0  0  0
 41 40  2  0  0  0  0
 42 43  1  0  0  0  0
 42144  1  0  0  0  0
 42145  1  0  0  0  0
 43 44  1  0  0  0  0
 43146  1  0  0  0  0
 43147  1  0  0  0  0
 44 34  1  0  0  0  0
 44148  1  0  0  0  0
 44149  1  0  0  0  0
 45 46  1  0  0  0  0
 45150  1  0  0  0  0
 46 47  1  0  0  0  0
 46 48  2  0  0  0  0
 47151  1  0  0  0  0
 47152  1  0  0  0  0
 48153  1  0  0  0  0
 49154  1  0  0  0  0
 50 53  1  0  0  0  0
 50155  1  6  0  0  0
 50 52  1  0  0  0  0
 50 49  1  0  0  0  0
 52 60  1  0  0  0  0
 52 51  2  0  0  0  0
 53 54  1  0  0  0  0
 53156  1  0  0  0  0
 53157  1  0  0  0  0
 54 55  1  0  0  0  0
 54158  1  0  0  0  0
 54159  1  0  0  0  0
 55 45  1  0  0  0  0
 55160  1  0  0  0  0
 55161  1  0  0  0  0
 56 57  1  0  0  0  0
 56162  1  0  0  0  0
 57 58  1  0  0  0  0
 57 59  2  0  0  0  0
 58163  1  0  0  0  0
 58164  1  0  0  0  0
 59165  1  0  0  0  0
 60166  1  0  0  0  0
 61 64  1  0  0  0  0
 61167  1  6  0  0  0
 61 63  1  0  0  0  0
 61 60  1  0  0  0  0
 63 71  1  0  0  0  0
 63 62  2  0  0  0  0
 64 65  1  0  0  0  0
 64168  1  0  0  0  0
 64169  1  0  0  0  0
 65 66  1  0  0  0  0
 65170  1  0  0  0  0
 65171  1  0  0  0  0
 66 56  1  0  0  0  0
 66172  1  0  0  0  0
 66173  1  0  0  0  0
 67 68  1  0  0  0  0
 67174  1  0  0  0  0
 68 69  1  0  0  0  0
 68 70  2  0  0  0  0
 69175  1  0  0  0  0
 69176  1  0  0  0  0
 70177  1  0  0  0  0
 71178  1  0  0  0  0
 72 75  1  0  0  0  0
 72179  1  6  0  0  0
 72 74  1  0  0  0  0
 72 71  1  0  0  0  0
 74 82  1  0  0  0  0
 74 73  2  0  0  0  0
 75 76  1  0  0  0  0
 75180  1  0  0  0  0
 75181  1  0  0  0  0
 76 77  1  0  0  0  0
 76182  1  0  0  0  0
 76183  1  0  0  0  0
 77 67  1  0  0  0  0
 77184  1  0  0  0  0
 77185  1  0  0  0  0
 78 79  1  0  0  0  0
 78186  1  0  0  0  0
 79 80  1  0  0  0  0
 79 81  2  0  0  0  0
 80187  1  0  0  0  0
 80188  1  0  0  0  0
 81189  1  0  0  0  0
 82190  1  0  0  0  0
 83 86  1  0  0  0  0
 83191  1  1  0  0  0
 83 85  1  0  0  0  0
 83 82  1  0  0  0  0
 85 93  1  0  0  0  0
 85 84  2  0  0  0  0
 86 87  1  0  0  0  0
 86192  1  0  0  0  0
 86193  1  0  0  0  0
 87 88  1  0  0  0  0
 87194  1  0  0  0  0
 87195  1  0  0  0  0
 88 78  1  0  0  0  0
 88196  1  0  0  0  0
 88197  1  0  0  0  0
 89 90  1  0  0  0  0
 89198  1  0  0  0  0
 90 91  1  0  0  0  0
 90 92  2  0  0  0  0
 91199  1  0  0  0  0
 91200  1  0  0  0  0
 92201  1  0  0  0  0
 93202  1  0  0  0  0
 94 97  1  0  0  0  0
 94203  1  1  0  0  0
 94 96  1  0  0  0  0
 94 93  1  0  0  0  0
 96100  1  0  0  0  0
 96 95  2  0  0  0  0
 97 98  1  0  0  0  0
 97204  1  0  0  0  0
 97205  1  0  0  0  0
 98 99  1  0  0  0  0
 98206  1  0  0  0  0
 98207  1  0  0  0  0
 99 89  1  0  0  0  0
 99208  1  0  0  0  0
 99209  1  0  0  0  0
100210  1  0  0  0  0
M  END
>  <DRUGBANK_ID>
DB12648

>  <COMMON_NAME>
Nona-arginine

>  <CAS_NUMBER>
143413-47-2

>  <UNII>
PK7O6W0U44

>  <SYNONYMS>
Nona-L-arginine

$$$$
