
 OpenBabel10282417173D

 32 32  0  0  0  0  0  0  0  0999 V2000
    0.3350    1.4474    0.1268 C   0  0  0  0  0  0  0  0  0  0  0  0
   -1.0175    0.9328    0.1601 C   0  0  0  0  0  0  0  0  0  0  0  0
    1.4104    0.4863    0.1757 C   0  0  0  0  0  0  0  0  0  0  0  0
    0.6780    2.9263    0.0507 C   0  0  0  0  0  0  0  0  0  0  0  0
   -1.3245   -0.4726    0.1780 C   0  0  0  0  0  0  0  0  0  0  0  0
   -2.8027    2.2287    0.0133 I   0  0  0  0  0  0  0  0  0  0  0  0
    1.1711   -0.9161    0.2038 C   0  0  0  0  0  0  0  0  0  0  0  0
    3.5194    1.0741   -0.0108 I   0  0  0  0  0  0  0  0  0  0  0  0
    1.7964    3.4397   -0.0001 O   0  0  0  0  0  0  0  0  0  0  0  0
   -0.3362    3.7884    0.0554 O   0  0  0  0  0  0  0  0  0  0  0  0
   -0.1955   -1.3322    0.0639 C   0  0  0  0  0  0  0  0  0  0  0  0
   -2.7285   -0.8587    0.2929 N   0  0  0  0  0  0  0  0  0  0  0  0
    2.2914   -1.9904    0.2118 C   0  0  0  0  0  0  0  0  0  0  0  0
   -0.2814   -2.9418   -1.4257 I   0  0  0  0  0  0  0  0  0  0  0  0
   -3.4523   -2.0243    0.4747 C   0  0  0  0  0  0  0  0  0  0  0  0
    2.1359   -2.9495    1.2982 N   0  0  0  0  0  0  0  0  0  0  0  0
   -4.6826   -2.0114    0.5355 O   0  0  0  0  0  0  0  0  0  0  0  0
   -2.7305   -3.3086    0.4927 C   0  0  0  0  0  0  0  0  0  0  0  0
    1.9933   -4.3091    1.2812 C   0  0  0  0  0  0  0  0  0  0  0  0
    1.7875   -4.8744    2.3581 O   0  0  0  0  0  0  0  0  0  0  0  0
    2.0984   -5.1227    0.0041 C   0  0  0  0  0  0  0  0  0  0  0  0
    0.0863    4.6746    0.0072 H   0  0  0  0  0  0  0  0  0  0  0  0
   -3.3813   -0.0754    0.3020 H   0  0  0  0  0  0  0  0  0  0  0  0
    2.3523   -2.5106   -0.7442 H   0  0  0  0  0  0  0  0  0  0  0  0
    3.2948   -1.5873    0.3393 H   0  0  0  0  0  0  0  0  0  0  0  0
    2.1180   -2.5722    2.2404 H   0  0  0  0  0  0  0  0  0  0  0  0
   -2.5412   -3.3892   -0.5669 H   0  0  0  0  0  0  0  0  0  0  0  0
   -1.8996   -3.2217    1.1949 H   0  0  0  0  0  0  0  0  0  0  0  0
   -3.2444   -4.2518    0.6656 H   0  0  0  0  0  0  0  0  0  0  0  0
    1.3143   -4.9425   -0.7164 H   0  0  0  0  0  0  0  0  0  0  0  0
    3.0528   -4.9650   -0.4979 H   0  0  0  0  0  0  0  0  0  0  0  0
    1.9572   -6.1832    0.2433 H   0  0  0  0  0  0  0  0  0  0  0  0
  1  2  1  0  0  0  0
  1  3  2  0  0  0  0
  1  4  1  0  0  0  0
  2  5  2  0  0  0  0
  2  6  1  0  0  0  0
  3  7  1  0  0  0  0
  3  8  1  0  0  0  0
  4  9  2  0  0  0  0
  4 10  1  0  0  0  0
  5 11  1  0  0  0  0
  5 12  1  0  0  0  0
  7 11  2  0  0  0  0
  7 13  1  0  0  0  0
 10 22  1  0  0  0  0
 11 14  1  0  0  0  0
 12 15  1  0  0  0  0
 12 23  1  0  0  0  0
 13 16  1  0  0  0  0
 13 24  1  0  0  0  0
 13 25  1  0  0  0  0
 15 17  2  0  0  0  0
 15 18  1  0  0  0  0
 16 19  1  0  0  0  0
 16 26  1  0  0  0  0
 18 27  1  0  0  0  0
 18 28  1  0  0  0  0
 18 29  1  0  0  0  0
 19 20  2  0  0  0  0
 19 21  1  0  0  0  0
 21 30  1  0  0  0  0
 21 31  1  0  0  0  0
 21 32  1  0  0  0  0
M  END
>  <DRUGBANK_ID>
DB08948

>  <COMMON_NAME>
Iodamide

>  <CAS_NUMBER>
440-58-4

>  <UNII>
4RII332O0R

>  <SYNONYMS>
Ametriiodic acid; Ametriiodinic acid; Ametriodinic acid; Iodamida; Iodamide; Iodamidum; Urombrine

$$$$
