[NO NAME]
 OpenBabel10282417173D
Created with ChemWriter - http://chemwriter.com
 57 59  0  0  0  0  0  0  0  0999 V2000
    2.2371    0.1481    0.3978 O   0  0  0  0  0  0  0  0  0  0  0  0
   -1.7739    4.8151    0.0551 O   0  0  0  0  0  0  0  0  0  0  0  0
    0.6510    2.6121   -2.1448 O   0  0  0  0  0  0  0  0  0  0  0  0
   -1.6765    2.5665    0.0559 N   0  0  0  0  0  0  0  0  0  0  0  0
    2.4491    4.6417    0.8515 N   0  0  0  0  0  0  0  0  0  0  0  0
   -3.4355    0.0851   -0.0519 C   0  0  0  0  0  0  0  0  0  0  0  0
    0.9045   -2.6430    0.0393 C   0  0  0  0  0  0  0  0  0  0  0  0
   -1.8980    0.0785   -0.0038 C   0  0  0  0  0  0  0  0  0  0  0  0
    0.2398   -1.2633    0.0312 C   0  0  0  0  0  0  0  0  0  0  0  0
   -1.1759   -1.1588   -0.0328 C   0  0  0  0  0  0  0  0  0  0  0  0
   -1.1458    1.2532    0.1436 C   0  0  0  0  0  0  0  0  0  0  0  0
   -3.9881    0.7737    1.2202 C   0  0  0  0  0  0  0  0  0  0  0  0
   -3.9255    0.7812   -1.3382 C   0  0  0  0  0  0  0  0  0  0  0  0
   -4.0412   -1.3404   -0.0613 C   0  0  0  0  0  0  0  0  0  0  0  0
    0.9038   -0.0763    0.2464 C   0  0  0  0  0  0  0  0  0  0  0  0
    0.4746   -3.3884    1.3172 C   0  0  0  0  0  0  0  0  0  0  0  0
    0.4995   -3.4407   -1.2125 C   0  0  0  0  0  0  0  0  0  0  0  0
    2.4416   -2.6005    0.0536 C   0  0  0  0  0  0  0  0  0  0  0  0
    0.1922    1.0890    0.4331 C   0  0  0  0  0  0  0  0  0  0  0  0
   -1.0734    3.8006   -0.0290 C   0  0  0  0  0  0  0  0  0  0  0  0
    0.3927    3.9307   -0.1768 C   0  0  0  0  0  0  0  0  0  0  0  0
    1.1753    3.1607   -1.1948 C   0  0  0  0  0  0  0  0  0  0  0  0
    2.6323    2.9978   -0.9287 C   0  0  0  0  0  0  0  0  0  0  0  0
    1.0765    4.6184    0.7534 C   0  0  0  0  0  0  0  0  0  0  0  0
    3.2333    3.7753    0.0735 C   0  0  0  0  0  0  0  0  0  0  0  0
    3.3602    2.0397   -1.6437 C   0  0  0  0  0  0  0  0  0  0  0  0
    4.6134    3.6686    0.2533 C   0  0  0  0  0  0  0  0  0  0  0  0
    4.7304    1.9247   -1.4359 C   0  0  0  0  0  0  0  0  0  0  0  0
    5.3596    2.7636   -0.5151 C   0  0  0  0  0  0  0  0  0  0  0  0
    2.7764   -0.4242   -0.1598 H   0  0  0  0  0  0  0  0  0  0  0  0
   -2.6755    2.6749   -0.0131 H   0  0  0  0  0  0  0  0  0  0  0  0
    2.8775    5.1423    1.6219 H   0  0  0  0  0  0  0  0  0  0  0  0
   -1.7269   -2.0962   -0.0717 H   0  0  0  0  0  0  0  0  0  0  0  0
   -3.6719    1.8102    1.3456 H   0  0  0  0  0  0  0  0  0  0  0  0
   -5.0819    0.7900    1.2203 H   0  0  0  0  0  0  0  0  0  0  0  0
   -3.6499    0.2483    2.1222 H   0  0  0  0  0  0  0  0  0  0  0  0
   -3.5570    0.2559   -2.2274 H   0  0  0  0  0  0  0  0  0  0  0  0
   -5.0192    0.8039   -1.3814 H   0  0  0  0  0  0  0  0  0  0  0  0
   -3.5932    1.8153   -1.4409 H   0  0  0  0  0  0  0  0  0  0  0  0
   -3.7163   -1.9064   -0.9429 H   0  0  0  0  0  0  0  0  0  0  0  0
   -3.7473   -1.9030    0.8340 H   0  0  0  0  0  0  0  0  0  0  0  0
   -5.1354   -1.3134   -0.0806 H   0  0  0  0  0  0  0  0  0  0  0  0
   -0.6038   -3.5740    1.3500 H   0  0  0  0  0  0  0  0  0  0  0  0
    0.9781   -4.3580    1.3912 H   0  0  0  0  0  0  0  0  0  0  0  0
    0.7347   -2.8076    2.2115 H   0  0  0  0  0  0  0  0  0  0  0  0
    0.7767   -2.8983   -2.1249 H   0  0  0  0  0  0  0  0  0  0  0  0
    1.0061   -4.4120   -1.2333 H   0  0  0  0  0  0  0  0  0  0  0  0
   -0.5766   -3.6338   -1.2577 H   0  0  0  0  0  0  0  0  0  0  0  0
    2.8167   -2.1215   -0.8592 H   0  0  0  0  0  0  0  0  0  0  0  0
    2.8054   -2.0717    0.9436 H   0  0  0  0  0  0  0  0  0  0  0  0
    2.8976   -3.5917    0.0889 H   0  0  0  0  0  0  0  0  0  0  0  0
    0.7800    1.8964    0.8267 H   0  0  0  0  0  0  0  0  0  0  0  0
    0.5676    5.1688    1.5438 H   0  0  0  0  0  0  0  0  0  0  0  0
    2.8473    1.3649   -2.3254 H   0  0  0  0  0  0  0  0  0  0  0  0
    5.1247    4.2866    0.9857 H   0  0  0  0  0  0  0  0  0  0  0  0
    5.3036    1.1922   -1.9982 H   0  0  0  0  0  0  0  0  0  0  0  0
    6.4384    2.7082   -0.3900 H   0  0  0  0  0  0  0  0  0  0  0  0
  1 15  1  0  0  0  0
  1 30  1  0  0  0  0
  2 20  2  0  0  0  0
  3 22  2  0  0  0  0
  4 11  1  0  0  0  0
  4 20  1  0  0  0  0
  4 31  1  0  0  0  0
  5 24  1  0  0  0  0
  5 25  1  0  0  0  0
  5 32  1  0  0  0  0
  6  8  1  0  0  0  0
  6 12  1  0  0  0  0
  6 13  1  0  0  0  0
  6 14  1  0  0  0  0
  7  9  1  0  0  0  0
  7 16  1  0  0  0  0
  7 17  1  0  0  0  0
  7 18  1  0  0  0  0
  8 10  2  0  0  0  0
  8 11  1  0  0  0  0
  9 10  1  0  0  0  0
  9 15  2  0  0  0  0
 10 33  1  0  0  0  0
 11 19  2  0  0  0  0
 12 34  1  0  0  0  0
 12 35  1  0  0  0  0
 12 36  1  0  0  0  0
 13 37  1  0  0  0  0
 13 38  1  0  0  0  0
 13 39  1  0  0  0  0
 14 40  1  0  0  0  0
 14 41  1  0  0  0  0
 14 42  1  0  0  0  0
 15 19  1  0  0  0  0
 16 43  1  0  0  0  0
 16 44  1  0  0  0  0
 16 45  1  0  0  0  0
 17 46  1  0  0  0  0
 17 47  1  0  0  0  0
 17 48  1  0  0  0  0
 18 49  1  0  0  0  0
 18 50  1  0  0  0  0
 18 51  1  0  0  0  0
 19 52  1  0  0  0  0
 20 21  1  0  0  0  0
 21 22  1  0  0  0  0
 21 24  2  0  0  0  0
 22 23  1  0  0  0  0
 23 25  1  0  0  0  0
 23 26  2  0  0  0  0
 24 53  1  0  0  0  0
 25 27  2  0  0  0  0
 26 28  1  0  0  0  0
 26 54  1  0  0  0  0
 27 29  1  0  0  0  0
 27 55  1  0  0  0  0
 28 29  2  0  0  0  0
 28 56  1  0  0  0  0
 29 57  1  0  0  0  0
M  END
>  <DRUGBANK_ID>
DB08820

>  <SECONDARY_ACCESSION_NUMBERS>
DB05989

>  <COMMON_NAME>
Ivacaftor

>  <CAS_NUMBER>
873054-44-5

>  <UNII>
1Y740ILL1Z

>  <SYNONYMS>
Ivacaftor; Ivacaftorum; N-(2,4-di-tert-butyl-5-hydroxyphenyl)-4-oxo-1,4-dihydroquinoline-3-carboxamide

$$$$
