
 OpenBabel10282417133D

 24 24  0  0  1  0  0  0  0  0999 V2000
    0.7087    1.2241   -0.2221 C   0  0  0  0  0  0  0  0  0  0  0  0
   -2.8763    0.0469    0.2445 C   0  0  0  0  0  0  0  0  0  0  0  0
   -1.4166    0.0176   -0.2436 C   0  0  2  0  0  0  0  0  0  0  0  0
    1.4765   -0.0197    0.2507 C   0  0  2  0  0  0  0  0  0  0  0  0
   -0.7279   -1.2775    0.2311 C   0  0  2  0  0  0  0  0  0  0  0  0
    0.7452   -1.2893   -0.2136 C   0  0  2  0  0  0  0  0  0  0  0  0
   -0.6975    1.2243    0.2225 N   0  0  0  0  0  0  0  0  0  0  0  0
   -3.5343    1.2104   -0.2542 O   0  0  0  0  0  0  0  0  0  0  0  0
    1.6389    0.0210    1.6745 O   0  0  0  0  0  0  0  0  0  0  0  0
   -1.3824   -2.4467   -0.2757 O   0  0  0  0  0  0  0  0  0  0  0  0
    1.4181   -2.4543    0.2747 O   0  0  0  0  0  0  0  0  0  0  0  0
   -1.4427    0.0400   -1.3420 H   0  0  0  0  0  0  0  0  0  0  0  0
    2.4911   -0.0078   -0.1624 H   0  0  0  0  0  0  0  0  0  0  0  0
   -0.7893   -1.3621    1.3224 H   0  0  0  0  0  0  0  0  0  0  0  0
    0.7818   -1.3509   -1.3089 H   0  0  0  0  0  0  0  0  0  0  0  0
    1.1865    2.1248    0.1793 H   0  0  0  0  0  0  0  0  0  0  0  0
    0.7414    1.2930   -1.3165 H   0  0  0  0  0  0  0  0  0  0  0  0
   -3.4258   -0.8249   -0.1245 H   0  0  0  0  0  0  0  0  0  0  0  0
   -2.9373    0.0488    1.3387 H   0  0  0  0  0  0  0  0  0  0  0  0
   -1.1438    2.0537   -0.1726 H   0  0  0  0  0  0  0  0  0  0  0  0
   -3.1402    1.9652    0.2175 H   0  0  0  0  0  0  0  0  0  0  0  0
    0.7887   -0.2193    2.0851 H   0  0  0  0  0  0  0  0  0  0  0  0
   -1.4180   -2.3854   -1.2471 H   0  0  0  0  0  0  0  0  0  0  0  0
    0.7425   -3.0540    0.6418 H   0  0  0  0  0  0  0  0  0  0  0  0
  1 16  1  0  0  0  0
  1 17  1  0  0  0  0
  2 18  1  0  0  0  0
  2 19  1  0  0  0  0
  3 12  1  6  0  0  0
  3  2  1  0  0  0  0
  4  1  1  0  0  0  0
  4 13  1  6  0  0  0
  4  9  1  0  0  0  0
  5  3  1  0  0  0  0
  5 10  1  0  0  0  0
  5 14  1  1  0  0  0
  6  4  1  0  0  0  0
  6  5  1  0  0  0  0
  6 15  1  6  0  0  0
  6 11  1  0  0  0  0
  7  1  1  0  0  0  0
  7  3  1  0  0  0  0
  7 20  1  0  0  0  0
  8  2  1  0  0  0  0
  8 21  1  0  0  0  0
  9 22  1  0  0  0  0
 10 23  1  0  0  0  0
 11 24  1  0  0  0  0
M  END
>  <DRUGBANK_ID>
DB03955

>  <SECONDARY_ACCESSION_NUMBERS>
EXPT01145

>  <COMMON_NAME>
1-deoxymannojirimycin

>  <CAS_NUMBER>
84444-90-6

>  <SYNONYMS>
D-manno-Deoxynojirimycin

$$$$
