
 OpenBabel10282417193D

 17 16  0  0  1  0  0  0  0  0999 V2000
    0.9994   -0.1540    2.5681 C   0  0  0  0  0  0  0  0  0  0  0  0
    0.5154   -0.6944    1.2188 C   0  0  2  0  0  0  0  0  0  0  0  0
    1.0709   -0.1007   -0.0598 C   0  0  0  0  0  0  0  0  0  0  0  0
    1.3601    1.6775   -0.2297 P   0  0  3  0  0  0  0  0  0  0  0  0
    2.1210    1.8719   -1.5214 O   0  0  0  0  0  0  0  0  0  0  0  0
   -0.1625    2.2025   -0.3666 O   0  0  0  0  0  0  0  0  0  0  0  0
   -0.8456   -0.5792    1.1712 F   0  0  0  0  0  0  0  0  0  0  0  0
    1.3531    1.2524    2.6202 N   0  0  0  0  0  0  0  0  0  0  0  0
    1.8711   -0.7237    2.9044 H   0  0  0  0  0  0  0  0  0  0  0  0
    0.2066   -0.3088    3.3087 H   0  0  0  0  0  0  0  0  0  0  0  0
    0.7223   -1.7742    1.2035 H   0  0  0  0  0  0  0  0  0  0  0  0
    2.0073   -0.6042   -0.3135 H   0  0  0  0  0  0  0  0  0  0  0  0
    0.3594   -0.3384   -0.8621 H   0  0  0  0  0  0  0  0  0  0  0  0
    1.7504    2.4706    0.8662 H   0  0  0  0  0  0  0  0  0  0  0  0
   -0.8461    1.5260   -0.5520 H   0  0  0  0  0  0  0  0  0  0  0  0
    2.2549    1.4167    2.1823 H   0  0  0  0  0  0  0  0  0  0  0  0
    0.6094    1.8366    2.2355 H   0  0  0  0  0  0  0  0  0  0  0  0
  1  8  1  0  0  0  0
  1  9  1  0  0  0  0
  1 10  1  0  0  0  0
  2  7  1  0  0  0  0
  2 11  1  6  0  0  0
  2  3  1  0  0  0  0
  2  1  1  0  0  0  0
  3  4  1  0  0  0  0
  3 12  1  0  0  0  0
  3 13  1  0  0  0  0
  4  5  2  0  0  0  0
  4  6  1  0  0  0  0
  4 14  1  0  0  0  0
  6 15  1  0  0  0  0
  8 16  1  0  0  0  0
  8 17  1  0  0  0  0
M  END
>  <DRUGBANK_ID>
DB11920

>  <COMMON_NAME>
Lesogaberan

>  <CAS_NUMBER>
344413-67-8

>  <UNII>
4D6Q6HGC7Z

>  <SYNONYMS>
Lesogaberan

$$$$
