
 OpenBabel10282417203D

 64 66  0  0  1  0  0  0  0  0999 V2000
    1.6753   -0.0798    0.0225 C   0  0  0  0  0  0  0  0  0  0  0  0
    1.3075   -0.6806   -1.2204 O   0  0  0  0  0  0  0  0  0  0  0  0
    1.1760    0.1674   -2.2785 C   0  0  0  0  0  0  0  0  0  0  0  0
    2.4236    0.6477   -2.5901 C   0  0  0  0  0  0  0  0  0  0  0  0
    2.6819    1.3787   -3.7204 C   0  0  0  0  0  0  0  0  0  0  0  0
    1.6320    1.6820   -4.5790 C   0  0  0  0  0  0  0  0  0  0  0  0
    0.3487    1.2130   -4.2975 C   0  0  0  0  0  0  0  0  0  0  0  0
    0.1032    0.3816   -3.1592 C   0  0  0  0  0  0  0  0  0  0  0  0
   -1.2630   -0.2256   -3.1539 C   0  0  0  0  0  0  0  0  0  0  0  0
   -1.9099   -0.0407   -4.1864 O   0  0  0  0  0  0  0  0  0  0  0  0
   -1.8639   -0.9488   -2.1381 N   0  0  0  0  0  0  0  0  0  0  0  0
   -1.3318   -1.3723   -0.8805 C   0  0  0  0  0  0  0  0  0  0  0  0
   -1.5970   -0.6135    0.4547 C   0  0  3  0  0  0  0  0  0  0  0  0
   -3.0802   -0.6155    0.7717 C   0  0  0  0  0  0  0  0  0  0  0  0
   -3.7391    0.4702   -0.0664 C   0  0  0  0  0  0  0  0  0  0  0  0
   -3.1768    1.8261   -0.0746 N   0  0  0  0  0  0  0  0  0  0  0  0
   -1.7492    1.8274   -0.2918 C   0  0  0  0  0  0  0  0  0  0  0  0
   -1.1467    0.8507    0.6593 C   0  0  0  0  0  0  0  0  0  0  0  0
   -3.7694    2.6911   -1.1036 C   0  0  0  0  0  0  0  0  0  0  0  0
   -3.5670    2.3244   -2.6185 C   0  0  0  0  0  0  0  0  0  0  0  0
   -4.2905    1.0319   -3.0864 C   0  0  1  0  0  0  0  0  0  0  0  0
   -5.6980    0.8760   -2.6372 C   0  0  0  0  0  0  0  0  0  0  0  0
   -6.2474   -0.3959   -2.4310 C   0  0  0  0  0  0  0  0  0  0  0  0
   -7.5954   -0.4828   -2.1375 C   0  0  0  0  0  0  0  0  0  0  0  0
   -8.3415    0.6892   -2.0023 C   0  0  0  0  0  0  0  0  0  0  0  0
   -7.7762    1.9465   -2.1350 C   0  0  0  0  0  0  0  0  0  0  0  0
   -6.4570    2.0335   -2.4823 C   0  0  0  0  0  0  0  0  0  0  0  0
   -9.6527    0.6064   -1.7643 F   0  0  0  0  0  0  0  0  0  0  0  0
   -4.2008    0.5965   -4.4371 O   0  0  0  0  0  0  0  0  0  0  0  0
   -4.5227    1.4512   -5.4045 C   0  0  0  0  0  0  0  0  0  0  0  0
   -5.0497    2.5209   -5.2775 O   0  0  0  0  0  0  0  0  0  0  0  0
   -4.1298    0.9167   -6.5872 N   0  0  0  0  0  0  0  0  0  0  0  0
    1.9266    2.5800   -6.0220 Cl  0  0  0  0  0  0  0  0  0  0  0  0
    4.0006    1.7254   -3.8996 N   0  0  0  0  0  0  0  0  0  0  0  0
    1.0575   -0.5446    0.8031 H   0  0  0  0  0  0  0  0  0  0  0  0
    1.5710    1.0133    0.0169 H   0  0  0  0  0  0  0  0  0  0  0  0
    2.7025   -0.3057    0.2727 H   0  0  0  0  0  0  0  0  0  0  0  0
    3.2389    0.3423   -1.9441 H   0  0  0  0  0  0  0  0  0  0  0  0
   -0.4453    1.4564   -5.0122 H   0  0  0  0  0  0  0  0  0  0  0  0
   -2.7806   -1.3207   -2.3674 H   0  0  0  0  0  0  0  0  0  0  0  0
   -1.4439   -2.4572   -0.7811 H   0  0  0  0  0  0  0  0  0  0  0  0
   -0.3262   -1.3423   -1.0996 H   0  0  0  0  0  0  0  0  0  0  0  0
   -1.0755   -1.2066    1.2165 H   0  0  0  0  0  0  0  0  0  0  0  0
   -3.4882   -1.5989    0.5009 H   0  0  0  0  0  0  0  0  0  0  0  0
   -3.2558   -0.4488    1.8352 H   0  0  0  0  0  0  0  0  0  0  0  0
   -3.5311    0.0782   -1.0235 H   0  0  0  0  0  0  0  0  0  0  0  0
   -4.8219    0.4515    0.0435 H   0  0  0  0  0  0  0  0  0  0  0  0
   -1.3169    2.8271   -0.1451 H   0  0  0  0  0  0  0  0  0  0  0  0
   -1.4611    1.5424   -1.3005 H   0  0  0  0  0  0  0  0  0  0  0  0
   -1.3188    1.1630    1.6978 H   0  0  0  0  0  0  0  0  0  0  0  0
   -0.1130    1.0222    0.5227 H   0  0  0  0  0  0  0  0  0  0  0  0
   -4.8194    2.7888   -0.8308 H   0  0  0  0  0  0  0  0  0  0  0  0
   -3.3744    3.7070   -0.9568 H   0  0  0  0  0  0  0  0  0  0  0  0
   -3.9150    3.1768   -3.2076 H   0  0  0  0  0  0  0  0  0  0  0  0
   -2.5005    2.2899   -2.8706 H   0  0  0  0  0  0  0  0  0  0  0  0
   -3.7765    0.2172   -2.6431 H   0  0  0  0  0  0  0  0  0  0  0  0
   -5.6407   -1.2959   -2.5360 H   0  0  0  0  0  0  0  0  0  0  0  0
   -8.0758   -1.4486   -2.0440 H   0  0  0  0  0  0  0  0  0  0  0  0
   -8.3426    2.8589   -2.0190 H   0  0  0  0  0  0  0  0  0  0  0  0
   -6.0118    3.0125   -2.6400 H   0  0  0  0  0  0  0  0  0  0  0  0
   -3.5244    0.1083   -6.5997 H   0  0  0  0  0  0  0  0  0  0  0  0
   -4.3130    1.4598   -7.4104 H   0  0  0  0  0  0  0  0  0  0  0  0
    4.2775    2.2544   -4.7090 H   0  0  0  0  0  0  0  0  0  0  0  0
    4.6793    1.4295   -3.2095 H   0  0  0  0  0  0  0  0  0  0  0  0
  1  2  1  0  0  0  0
  1 35  1  0  0  0  0
  1 36  1  0  0  0  0
  1 37  1  0  0  0  0
  2  3  1  0  0  0  0
  3  4  2  0  0  0  0
  3  8  1  0  0  0  0
  4  5  1  0  0  0  0
  4 38  1  0  0  0  0
  5  6  2  0  0  0  0
  5 34  1  0  0  0  0
  6  7  1  0  0  0  0
  6 33  1  0  0  0  0
  7  8  2  0  0  0  0
  7 39  1  0  0  0  0
  8  9  1  0  0  0  0
  9 10  2  0  0  0  0
  9 11  1  0  0  0  0
 11 12  1  0  0  0  0
 11 40  1  0  0  0  0
 12 13  1  0  0  0  0
 12 41  1  0  0  0  0
 12 42  1  0  0  0  0
 13 14  1  0  0  0  0
 13 18  1  0  0  0  0
 13 43  1  0  0  0  0
 14 15  1  0  0  0  0
 14 44  1  0  0  0  0
 14 45  1  0  0  0  0
 15 16  1  0  0  0  0
 15 46  1  0  0  0  0
 15 47  1  0  0  0  0
 16 17  1  0  0  0  0
 16 19  1  0  0  0  0
 17 18  1  0  0  0  0
 17 48  1  0  0  0  0
 17 49  1  0  0  0  0
 18 50  1  0  0  0  0
 18 51  1  0  0  0  0
 19 20  1  0  0  0  0
 19 52  1  0  0  0  0
 19 53  1  0  0  0  0
 20 21  1  0  0  0  0
 20 54  1  0  0  0  0
 20 55  1  0  0  0  0
 21 22  1  0  0  0  0
 21 29  1  0  0  0  0
 21 56  1  1  0  0  0
 22 23  2  0  0  0  0
 22 27  1  0  0  0  0
 23 24  1  0  0  0  0
 23 57  1  0  0  0  0
 24 25  2  0  0  0  0
 24 58  1  0  0  0  0
 25 26  1  0  0  0  0
 25 28  1  0  0  0  0
 26 27  2  0  0  0  0
 26 59  1  0  0  0  0
 27 60  1  0  0  0  0
 29 30  1  0  0  0  0
 30 31  2  0  0  0  0
 30 32  1  0  0  0  0
 32 61  1  0  0  0  0
 32 62  1  0  0  0  0
 34 63  1  0  0  0  0
 34 64  1  0  0  0  0
M  END
>  <DRUGBANK_ID>
DB12798

>  <COMMON_NAME>
Relenopride

>  <CAS_NUMBER>
1221416-43-8

>  <UNII>
SIS5BFO4WL

>  <SYNONYMS>
Relenopride

$$$$
