
 OpenBabel10282417143D

177177  0  0  1  0  0  0  0  0999 V2000
   22.0981   -4.5385    7.3263 C   0  0  0  0  0  0  0  0  0  0  0  0
   21.6406   -4.5033    5.9961 O   0  0  0  0  0  0  0  0  0  0  0  0
   21.5491   -3.1421    5.5214 C   0  0  0  0  0  0  0  0  0  0  0  0
   20.7488   -2.0608    6.2337 C   0  0  2  0  0  0  0  0  0  0  0  0
   19.1969   -2.8133    6.3230 N   0  0  0  0  0  0  0  0  0  0  0  0
   18.7820   -3.5798    7.5574 C   0  0  0  0  0  0  0  0  0  0  0  0
   19.0918   -3.7854    5.2242 C   0  0  0  0  0  0  0  0  0  0  0  0
   21.0883   -0.0647    5.5239 C   0  0  0  0  0  0  0  0  0  0  0  0
   20.8368   -0.1537    7.0675 O   0  0  0  0  0  0  0  0  0  0  0  0
   22.0130    1.4381    4.3757 O   0  0  0  0  0  0  0  0  0  0  0  0
   23.4891    2.9032    3.4599 C   0  0  2  0  0  0  0  0  0  0  0  0
   25.0718    4.4202    1.9012 C   0  0  0  0  0  0  0  0  0  0  0  0
   26.8461    5.3263    0.5810 C   0  0  0  0  0  0  0  0  0  0  0  0
   27.7702    6.1398   -0.9616 C   0  0  0  0  0  0  0  0  0  0  0  0
   28.8480    6.9910   -2.5226 C   0  0  0  0  0  0  0  0  0  0  0  0
   28.3944    7.5195   -3.9798 C   0  0  0  0  0  0  0  0  0  0  0  0
   29.1245    8.0700   -5.3759 C   0  0  0  0  0  0  0  0  0  0  0  0
   30.2905    8.4144   -5.2644 O   0  0  0  0  0  0  0  0  0  0  0  0
   28.4589    8.2473   -6.5942 O   0  0  0  0  0  0  0  0  0  0  0  0
   27.0907    7.8500   -6.7850 C   0  0  1  0  0  0  0  0  0  0  0  0
   26.9653    6.3401   -6.6521 C   0  0  0  0  0  0  0  0  0  0  0  0
   27.4018    5.7446   -5.3744 C   0  0  0  0  0  0  0  0  0  0  0  0
   26.5782    5.2629   -4.4379 C   0  0  0  0  0  0  0  0  0  0  0  0
   26.9819    4.8966   -3.0639 C   0  0  1  0  0  0  0  0  0  0  0  0
   25.9523    5.6469   -2.0803 C   0  0  0  0  0  0  0  0  0  0  0  0
   24.6144    5.2227   -2.1440 C   0  0  2  0  0  0  0  0  0  0  0  0
   23.8210    5.9642   -1.1253 C   0  0  0  0  0  0  0  0  0  0  0  0
   24.5868    3.7563   -1.9820 C   0  0  0  0  0  0  0  0  0  0  0  0
   24.9641    3.2709   -0.6993 C   0  0  0  0  0  0  0  0  0  0  0  0
   24.2349    2.6636    0.1803 C   0  0  0  0  0  0  0  0  0  0  0  0
   22.8800    2.4308   -0.2434 C   0  0  0  0  0  0  0  0  0  0  0  0
   24.7982    2.3518    1.4680 C   0  0  2  0  0  0  0  0  0  0  0  0
   23.8573    3.3111    1.9779 C   0  0  0  0  0  0  0  0  0  0  0  0
   22.1428    2.7319    2.1762 C   0  0  0  0  0  0  0  0  0  0  0  0
   22.2876    1.0104    2.4739 C   0  0  1  0  0  0  0  0  0  0  0  0
   23.0884    0.2641    1.6570 C   0  0  0  0  0  0  0  0  0  0  0  0
   23.2781    0.4879    3.8613 C   0  0  1  0  0  0  0  0  0  0  0  0
   24.4295    1.0139    4.3547 O   0  0  0  0  0  0  0  0  0  0  0  0
   22.5833    1.8701    4.9189 C   0  0  2  0  0  0  0  0  0  0  0  0
   22.5253    1.2977    6.4963 C   0  0  0  0  0  0  0  0  0  0  0  0
   26.1716    2.3830    1.7995 O   0  0  0  0  0  0  0  0  0  0  0  0
   26.5780    3.5874    2.3353 C   0  0  0  0  0  0  0  0  0  0  0  0
   27.0159    3.5242   -2.8713 O   0  0  0  0  0  0  0  0  0  0  0  0
   27.6424    3.0417   -1.7145 C   0  0  0  0  0  0  0  0  0  0  0  0
   26.1904    8.5834   -5.8191 C   0  0  1  0  0  0  0  0  0  0  0  0
   26.9809    9.6932   -5.2190 C   0  0  0  0  0  0  0  0  0  0  0  0
   25.0457    9.0861   -6.6310 C   0  0  1  0  0  0  0  0  0  0  0  0
   24.4169    7.9448   -7.1995 O   0  0  0  0  0  0  0  0  0  0  0  0
   24.0951    9.8632   -5.7780 C   0  0  1  0  0  0  0  0  0  0  0  0
   24.6804   11.0873   -5.1677 C   0  0  0  0  0  0  0  0  0  0  0  0
   22.9787   10.3658   -6.6345 C   0  0  0  0  0  0  0  0  0  0  0  0
   22.3081    9.1823   -7.1278 C   0  0  0  0  0  0  0  0  0  0  0  0
   21.6934    8.2699   -6.1333 C   0  0  1  0  0  0  0  0  0  0  0  0
   20.8806    8.9422   -5.1811 O   0  0  0  0  0  0  0  0  0  0  0  0
   21.2644   10.0197   -4.5081 C   0  0  0  0  0  0  0  0  0  0  0  0
   22.3595   10.5035   -4.4185 O   0  0  0  0  0  0  0  0  0  0  0  0
   20.3584   10.6578   -3.5841 C   0  0  2  0  0  0  0  0  0  0  0  0
   19.2667    9.5657   -3.1375 C   0  0  0  0  0  0  0  0  0  0  0  0
   19.6903   12.3094   -4.3010 N   0  0  0  0  0  0  0  0  0  0  0  0
   20.8720   13.0991   -4.4532 C   0  0  0  0  0  0  0  0  0  0  0  0
   18.2928   11.9083   -5.8973 C   0  0  0  0  0  0  0  0  0  0  0  0
   20.8972    7.1878   -6.8618 C   0  0  2  0  0  0  0  0  0  0  0  0
   21.8037    6.0831   -7.3024 C   0  0  0  0  0  0  0  0  0  0  0  0
   20.1865    7.7386   -8.1061 C   0  0  2  0  0  0  0  0  0  0  0  0
   20.7463    8.8486   -8.8799 O   0  0  0  0  0  0  0  0  0  0  0  0
   20.2659   10.2113   -8.8978 C   0  0  0  0  0  0  0  0  0  0  0  0
   18.7357   10.4941   -8.3370 C   0  0  0  0  0  0  0  0  0  0  0  0
   21.0378   11.1789   -8.9857 O   0  0  0  0  0  0  0  0  0  0  0  0
   18.8929    8.1306   -7.6013 C   0  0  2  0  0  0  0  0  0  0  0  0
   17.8901    8.3166   -8.8782 C   0  0  0  0  0  0  0  0  0  0  0  0
   19.3713    9.2765   -6.6646 C   0  0  0  0  0  0  0  0  0  0  0  0
   18.6538    9.6298   -5.6190 C   0  0  0  0  0  0  0  0  0  0  0  0
   19.0320   10.8458   -4.9202 N   0  0  0  0  0  0  0  0  0  0  0  0
   18.1210   11.5657   -3.5175 C   0  0  0  0  0  0  0  0  0  0  0  0
   19.9039   12.3746   -6.0512 C   0  0  0  0  0  0  0  0  0  0  0  0
   20.1223   12.4019   -7.2517 O   0  0  0  0  0  0  0  0  0  0  0  0
   22.1598   -5.5559    7.6780 H   0  0  0  0  0  0  0  0  0  0  0  0
   21.4145   -4.0465    8.0034 H   0  0  0  0  0  0  0  0  0  0  0  0
   23.0617   -4.0476    7.3755 H   0  0  0  0  0  0  0  0  0  0  0  0
   22.5089   -2.7006    5.5536 H   0  0  0  0  0  0  0  0  0  0  0  0
   21.1881   -3.1601    4.5035 H   0  0  0  0  0  0  0  0  0  0  0  0
   20.9291   -2.5209    7.4459 H   0  0  0  0  0  0  0  0  0  0  0  0
   17.7341   -3.9171    7.4525 H   0  0  0  0  0  0  0  0  0  0  0  0
   19.3766   -4.4794    7.7499 H   0  0  0  0  0  0  0  0  0  0  0  0
   18.8253   -2.9431    8.4385 H   0  0  0  0  0  0  0  0  0  0  0  0
   18.0764   -4.1146    5.0772 H   0  0  0  0  0  0  0  0  0  0  0  0
   19.4122   -3.2838    4.3135 H   0  0  0  0  0  0  0  0  0  0  0  0
   19.7007   -4.6833    5.3668 H   0  0  0  0  0  0  0  0  0  0  0  0
   22.0315    2.2707    3.6083 H   0  0  0  0  0  0  0  0  0  0  0  0
   26.3054    5.3420    1.8189 H   0  0  0  0  0  0  0  0  0  0  0  0
   26.0436    4.9374    0.6930 H   0  0  0  0  0  0  0  0  0  0  0  0
   28.3448    5.7953    0.1520 H   0  0  0  0  0  0  0  0  0  0  0  0
   27.4922    6.3739   -2.0077 H   0  0  0  0  0  0  0  0  0  0  0  0
   29.9738    7.3872   -2.8473 H   0  0  0  0  0  0  0  0  0  0  0  0
   27.3506    7.2991   -4.2301 H   0  0  0  0  0  0  0  0  0  0  0  0
   26.7833    8.1292   -7.8152 H   0  0  0  0  0  0  0  0  0  0  0  0
   27.5966    5.8674   -7.3853 H   0  0  0  0  0  0  0  0  0  0  0  0
   25.9343    6.0458   -6.7866 H   0  0  0  0  0  0  0  0  0  0  0  0
   28.4393    5.9449   -5.0835 H   0  0  0  0  0  0  0  0  0  0  0  0
   25.5546    5.1285   -4.6993 H   0  0  0  0  0  0  0  0  0  0  0  0
   28.0544    5.1509   -2.9635 H   0  0  0  0  0  0  0  0  0  0  0  0
   26.0361    6.7840   -2.1092 H   0  0  0  0  0  0  0  0  0  0  0  0
   26.2534    5.3848   -1.1135 H   0  0  0  0  0  0  0  0  0  0  0  0
   24.3521    5.5209   -3.1396 H   0  0  0  0  0  0  0  0  0  0  0  0
   24.3488    6.7979   -0.6550 H   0  0  0  0  0  0  0  0  0  0  0  0
   22.9908    6.3417   -1.6970 H   0  0  0  0  0  0  0  0  0  0  0  0
   23.4509    5.3127   -0.3401 H   0  0  0  0  0  0  0  0  0  0  0  0
   25.1717    3.2290   -2.7000 H   0  0  0  0  0  0  0  0  0  0  0  0
   23.6044    3.4680   -2.1720 H   0  0  0  0  0  0  0  0  0  0  0  0
   25.9400    3.4194   -0.4553 H   0  0  0  0  0  0  0  0  0  0  0  0
   22.6149    1.4415   -0.3069 H   0  0  0  0  0  0  0  0  0  0  0  0
   22.1001    2.9677    0.1347 H   0  0  0  0  0  0  0  0  0  0  0  0
   22.6234    2.7396   -1.1926 H   0  0  0  0  0  0  0  0  0  0  0  0
   24.8626    1.4665    1.8842 H   0  0  0  0  0  0  0  0  0  0  0  0
   23.6816    4.4003    2.6102 H   0  0  0  0  0  0  0  0  0  0  0  0
   24.8003    3.3667    3.4248 H   0  0  0  0  0  0  0  0  0  0  0  0
   21.7635    3.1132    1.4137 H   0  0  0  0  0  0  0  0  0  0  0  0
   21.6280    3.4080    3.0791 H   0  0  0  0  0  0  0  0  0  0  0  0
   21.2300    0.7422    2.5433 H   0  0  0  0  0  0  0  0  0  0  0  0
   23.0550   -0.7388    1.8312 H   0  0  0  0  0  0  0  0  0  0  0  0
   22.8297    0.5135    0.7430 H   0  0  0  0  0  0  0  0  0  0  0  0
   24.0706    0.3745    1.8408 H   0  0  0  0  0  0  0  0  0  0  0  0
   22.7703   -0.3889    4.2565 H   0  0  0  0  0  0  0  0  0  0  0  0
   24.2999    1.9595    4.4783 H   0  0  0  0  0  0  0  0  0  0  0  0
   21.9180    2.8015    5.1357 H   0  0  0  0  0  0  0  0  0  0  0  0
   21.9568    1.8534    7.2483 H   0  0  0  0  0  0  0  0  0  0  0  0
   22.3669    0.2420    6.7270 H   0  0  0  0  0  0  0  0  0  0  0  0
   23.5163    1.1308    6.6294 H   0  0  0  0  0  0  0  0  0  0  0  0
   26.1230    3.6798    0.9668 H   0  0  0  0  0  0  0  0  0  0  0  0
   25.8044    4.6551    3.1784 H   0  0  0  0  0  0  0  0  0  0  0  0
   27.3857    4.1945    2.0710 H   0  0  0  0  0  0  0  0  0  0  0  0
   28.6691    3.3074   -1.6679 H   0  0  0  0  0  0  0  0  0  0  0  0
   27.3323    3.4804   -0.8118 H   0  0  0  0  0  0  0  0  0  0  0  0
   27.4655    1.9777   -1.6377 H   0  0  0  0  0  0  0  0  0  0  0  0
   25.7898    7.9269   -5.0353 H   0  0  0  0  0  0  0  0  0  0  0  0
   27.3038   10.4250   -5.9342 H   0  0  0  0  0  0  0  0  0  0  0  0
   26.5218   10.1317   -4.4139 H   0  0  0  0  0  0  0  0  0  0  0  0
   27.7529    9.4191   -4.5520 H   0  0  0  0  0  0  0  0  0  0  0  0
   25.4043    9.7439   -7.4211 H   0  0  0  0  0  0  0  0  0  0  0  0
   24.9806    7.4965   -7.8366 H   0  0  0  0  0  0  0  0  0  0  0  0
   23.7335    9.1879   -4.9837 H   0  0  0  0  0  0  0  0  0  0  0  0
   25.1712   11.7121   -5.8883 H   0  0  0  0  0  0  0  0  0  0  0  0
   24.0637   11.6237   -4.4836 H   0  0  0  0  0  0  0  0  0  0  0  0
   25.3201   10.8588   -4.3924 H   0  0  0  0  0  0  0  0  0  0  0  0
   22.2340   10.9921   -6.1578 H   0  0  0  0  0  0  0  0  0  0  0  0
   23.3048   11.0394   -7.3980 H   0  0  0  0  0  0  0  0  0  0  0  0
   21.5693    9.7037   -7.5801 H   0  0  0  0  0  0  0  0  0  0  0  0
   22.8341    8.6708   -7.9068 H   0  0  0  0  0  0  0  0  0  0  0  0
   22.4683    7.8617   -5.5340 H   0  0  0  0  0  0  0  0  0  0  0  0
   20.7339   11.0285   -2.6809 H   0  0  0  0  0  0  0  0  0  0  0  0
   18.4847    9.9487   -2.5136 H   0  0  0  0  0  0  0  0  0  0  0  0
   18.8023    9.0415   -3.9212 H   0  0  0  0  0  0  0  0  0  0  0  0
   19.5578    8.7884   -2.5522 H   0  0  0  0  0  0  0  0  0  0  0  0
   21.4799   12.5567   -5.1736 H   0  0  0  0  0  0  0  0  0  0  0  0
   20.4093   13.9967   -4.8269 H   0  0  0  0  0  0  0  0  0  0  0  0
   21.1705   13.2490   -3.4909 H   0  0  0  0  0  0  0  0  0  0  0  0
   19.5617   11.0240   -6.2365 H   0  0  0  0  0  0  0  0  0  0  0  0
   17.5124   11.1756   -5.7122 H   0  0  0  0  0  0  0  0  0  0  0  0
   17.9282   12.8035   -5.8935 H   0  0  0  0  0  0  0  0  0  0  0  0
   20.1355    6.7669   -6.1801 H   0  0  0  0  0  0  0  0  0  0  0  0
   22.6113    5.9697   -6.5876 H   0  0  0  0  0  0  0  0  0  0  0  0
   21.2571    5.1434   -7.3690 H   0  0  0  0  0  0  0  0  0  0  0  0
   22.2212    6.3153   -8.2801 H   0  0  0  0  0  0  0  0  0  0  0  0
   20.1166    7.0095   -8.8769 H   0  0  0  0  0  0  0  0  0  0  0  0
   18.6958   11.0014   -7.4526 H   0  0  0  0  0  0  0  0  0  0  0  0
   18.1108   11.0821   -8.8492 H   0  0  0  0  0  0  0  0  0  0  0  0
   18.1202    9.7466   -7.8482 H   0  0  0  0  0  0  0  0  0  0  0  0
   18.3577    7.5636   -6.8840 H   0  0  0  0  0  0  0  0  0  0  0  0
   18.1228    7.5825   -9.5907 H   0  0  0  0  0  0  0  0  0  0  0  0
   16.8618    8.3304   -8.5216 H   0  0  0  0  0  0  0  0  0  0  0  0
   17.9941    9.2601   -9.4576 H   0  0  0  0  0  0  0  0  0  0  0  0
   20.0902   10.1876   -7.1187 H   0  0  0  0  0  0  0  0  0  0  0  0
   17.9648    8.9698   -5.2513 H   0  0  0  0  0  0  0  0  0  0  0  0
   18.9815   11.8504   -2.8085 H   0  0  0  0  0  0  0  0  0  0  0  0
   17.5500   12.4118   -3.7486 H   0  0  0  0  0  0  0  0  0  0  0  0
   17.5715   10.7234   -3.4669 H   0  0  0  0  0  0  0  0  0  0  0  0
   19.3138   13.3961   -5.6679 H   0  0  0  0  0  0  0  0  0  0  0  0
  1  2  1  0  0  0  0
  1 77  1  0  0  0  0
  1 78  1  0  0  0  0
  1 79  1  0  0  0  0
  2  3  1  0  0  0  0
  3 80  1  0  0  0  0
  3 81  1  0  0  0  0
  4  8  1  0  0  0  0
  4 82  1  1  0  0  0
  4  5  1  0  0  0  0
  4  3  1  0  0  0  0
  5  6  1  0  0  0  0
  5  7  1  0  0  0  0
  6 83  1  0  0  0  0
  6 84  1  0  0  0  0
  6 85  1  0  0  0  0
  7 86  1  0  0  0  0
  7 87  1  0  0  0  0
  7 88  1  0  0  0  0
  8  9  2  0  0  0  0
  8 10  1  0  0  0  0
 11 10  1  0  0  0  0
 11 12  1  0  0  0  0
 11 39  1  0  0  0  0
 11 89  1  1  0  0  0
 12 13  1  0  0  0  0
 12 90  1  0  0  0  0
 12 91  1  0  0  0  0
 13 14  2  0  0  0  0
 13 92  1  0  0  0  0
 14 15  1  0  0  0  0
 14 93  1  0  0  0  0
 15 16  2  0  0  0  0
 15 94  1  0  0  0  0
 16 17  1  0  0  0  0
 16 95  1  0  0  0  0
 17 18  2  0  0  0  0
 17 19  1  0  0  0  0
 19 20  1  0  0  0  0
 20 21  1  0  0  0  0
 20 96  1  6  0  0  0
 20 45  1  0  0  0  0
 21 22  1  0  0  0  0
 21 97  1  0  0  0  0
 21 98  1  0  0  0  0
 22 23  2  0  0  0  0
 22 99  1  0  0  0  0
 23 24  1  0  0  0  0
 23100  1  0  0  0  0
 24 25  1  0  0  0  0
 24101  1  1  0  0  0
 24 43  1  0  0  0  0
 25 26  1  0  0  0  0
 25102  1  0  0  0  0
 25103  1  0  0  0  0
 26 28  1  0  0  0  0
 26104  1  6  0  0  0
 26 27  1  0  0  0  0
 27105  1  0  0  0  0
 27106  1  0  0  0  0
 27107  1  0  0  0  0
 28 29  1  0  0  0  0
 28108  1  0  0  0  0
 28109  1  0  0  0  0
 29 30  2  0  0  0  0
 29110  1  0  0  0  0
 30 31  1  0  0  0  0
 30 32  1  0  0  0  0
 31111  1  0  0  0  0
 31112  1  0  0  0  0
 31113  1  0  0  0  0
 32 33  1  0  0  0  0
 32 41  1  0  0  0  0
 32114  1  1  0  0  0
 33 34  1  0  0  0  0
 33115  1  0  0  0  0
 33116  1  0  0  0  0
 34 35  1  0  0  0  0
 34117  1  0  0  0  0
 34118  1  0  0  0  0
 35 36  1  0  0  0  0
 35 37  1  0  0  0  0
 35119  1  1  0  0  0
 36120  1  0  0  0  0
 36121  1  0  0  0  0
 36122  1  0  0  0  0
 37 38  1  0  0  0  0
 37 39  1  0  0  0  0
 37123  1  1  0  0  0
 38124  1  0  0  0  0
 39125  1  1  0  0  0
 39 40  1  0  0  0  0
 40126  1  0  0  0  0
 40127  1  0  0  0  0
 40128  1  0  0  0  0
 41 42  1  0  0  0  0
 42129  1  0  0  0  0
 42130  1  0  0  0  0
 42131  1  0  0  0  0
 43 44  1  0  0  0  0
 44132  1  0  0  0  0
 44133  1  0  0  0  0
 44134  1  0  0  0  0
 45 46  1  0  0  0  0
 45 47  1  0  0  0  0
 45135  1  1  0  0  0
 46136  1  0  0  0  0
 46137  1  0  0  0  0
 46138  1  0  0  0  0
 47 48  1  0  0  0  0
 47 49  1  0  0  0  0
 47139  1  6  0  0  0
 48140  1  0  0  0  0
 49 50  1  0  0  0  0
 49 51  1  0  0  0  0
 49141  1  1  0  0  0
 50142  1  0  0  0  0
 50143  1  0  0  0  0
 50144  1  0  0  0  0
 51 52  1  0  0  0  0
 51145  1  0  0  0  0
 51146  1  0  0  0  0
 52 53  1  0  0  0  0
 52147  1  0  0  0  0
 52148  1  0  0  0  0
 53 54  1  0  0  0  0
 53149  1  1  0  0  0
 54 55  1  0  0  0  0
 55 56  2  0  0  0  0
 57 59  1  0  0  0  0
 57150  1  1  0  0  0
 57 58  1  0  0  0  0
 57 55  1  0  0  0  0
 58151  1  0  0  0  0
 58152  1  0  0  0  0
 58153  1  0  0  0  0
 59 60  1  0  0  0  0
 59 61  1  0  0  0  0
 60154  1  0  0  0  0
 60155  1  0  0  0  0
 60156  1  0  0  0  0
 61157  1  0  0  0  0
 61158  1  0  0  0  0
 61159  1  0  0  0  0
 62160  1  1  0  0  0
 62 63  1  0  0  0  0
 62 53  1  0  0  0  0
 63161  1  0  0  0  0
 63162  1  0  0  0  0
 63163  1  0  0  0  0
 64164  1  6  0  0  0
 64 65  1  0  0  0  0
 64 62  1  0  0  0  0
 65 66  1  0  0  0  0
 66 67  1  0  0  0  0
 66 68  2  0  0  0  0
 67165  1  0  0  0  0
 67166  1  0  0  0  0
 67167  1  0  0  0  0
 69 71  1  0  0  0  0
 69168  1  1  0  0  0
 69 70  1  0  0  0  0
 69 64  1  0  0  0  0
 70169  1  0  0  0  0
 70170  1  0  0  0  0
 70171  1  0  0  0  0
 71 72  2  0  0  0  0
 71172  1  0  0  0  0
 72 73  1  0  0  0  0
 72173  1  0  0  0  0
 73 74  1  0  0  0  0
 73 75  1  0  0  0  0
 74174  1  0  0  0  0
 74175  1  0  0  0  0
 74176  1  0  0  0  0
 75 76  2  0  0  0  0
 75177  1  0  0  0  0
M  END
>  <DRUGBANK_ID>
DB04629

>  <COMMON_NAME>
Aplyronine A

$$$$
