
 OpenBabel10282417133D

125125  0  0  0  0  0  0  0  0999 V2000
  -15.8845    3.1138    1.5431 C   0  0  0  0  0  0  0  0  0  0  0  0
   -2.3353   26.7462    1.7873 C   0  0  0  0  0  0  0  0  0  0  0  0
  -14.5960    2.5501    0.9676 C   0  0  0  0  0  0  0  0  0  0  0  0
   -3.6838   26.5009    1.1298 C   0  0  0  0  0  0  0  0  0  0  0  0
  -14.0878    3.4466   -0.1618 C   0  0  0  0  0  0  0  0  0  0  0  0
   -3.5897   25.3500    0.1278 C   0  0  0  0  0  0  0  0  0  0  0  0
  -13.8060    4.8639    0.3487 C   0  0  0  0  0  0  0  0  0  0  0  0
   -3.1634   24.0487    0.8105 C   0  0  0  0  0  0  0  0  0  0  0  0
  -12.7595    4.8311    1.4677 C   0  0  0  0  0  0  0  0  0  0  0  0
  -11.4485    4.2455    0.9361 C   0  0  0  0  0  0  0  0  0  0  0  0
  -10.9312    5.1115   -0.2156 C   0  0  0  0  0  0  0  0  0  0  0  0
  -10.6907    6.5375    0.2874 C   0  0  0  0  0  0  0  0  0  0  0  0
   -9.6570    6.5078    1.4159 C   0  0  0  0  0  0  0  0  0  0  0  0
   -8.3497    5.9109    0.8868 C   0  0  0  0  0  0  0  0  0  0  0  0
   -7.8280    6.7717   -0.2660 C   0  0  0  0  0  0  0  0  0  0  0  0
   -7.5865    8.1929    0.2395 C   0  0  0  0  0  0  0  0  0  0  0  0
   -4.6234   17.9778    1.4293 C   0  0  0  0  0  0  0  0  0  0  0  0
   -6.0184   18.4346    1.3162 C   0  0  0  0  0  0  0  0  0  0  0  0
   -6.5620    8.1481    1.3804 C   0  0  0  0  0  0  0  0  0  0  0  0
   -4.6360   17.3544    2.8375 C   0  0  0  0  0  0  0  0  0  0  0  0
   -4.1519   23.6461    1.9098 C   0  0  0  0  0  0  0  0  0  0  0  0
   -6.0722   19.4958    2.3924 C   0  0  0  0  0  0  0  0  0  0  0  0
   -5.2069    7.6284    0.8638 C   0  0  0  0  0  0  0  0  0  0  0  0
   -5.8989   15.9094    2.7874 C   0  0  0  0  0  0  0  0  0  0  0  0
   -5.5604   23.3984    1.3507 C   0  0  0  0  0  0  0  0  0  0  0  0
   -5.0038   20.5300    2.0598 C   0  0  0  0  0  0  0  0  0  0  0  0
   -4.6625    8.4191   -0.3321 C   0  0  0  0  0  0  0  0  0  0  0  0
   -5.5890   14.2613    1.6048 C   0  0  0  0  0  0  0  0  0  0  0  0
   -6.5797   21.3406    0.0909 C   0  0  0  0  0  0  0  0  0  0  0  0
   -4.1308   14.8568   -0.6917 C   0  0  0  0  0  0  0  0  0  0  0  0
   -2.1164   16.1563    1.2799 C   0  0  0  0  0  0  0  0  0  0  0  0
   -5.5140   11.5653    1.1607 C   0  0  0  0  0  0  0  0  0  0  0  0
   -5.0717   12.3461    3.7008 C   0  0  0  0  0  0  0  0  0  0  0  0
   -5.5082   22.3689    0.2728 C   0  0  2  0  0  0  0  0  0  0  0  0
   -5.2088   20.9606    0.6345 C   0  0  1  0  0  0  0  0  0  0  0  0
   -2.6636   15.5079   -0.3109 C   0  0  3  0  0  0  0  0  0  0  0  0
   -4.6632   11.5367    2.4532 C   0  0  2  0  0  0  0  0  0  0  0  0
   -4.3858    9.8258    0.0616 C   0  0  0  0  0  0  0  0  0  0  0  0
   -3.8457   13.2945    1.4611 C   0  0  0  0  0  0  0  0  0  0  0  0
   -5.2144   15.8060   -0.5590 O   0  0  0  0  0  0  0  0  0  0  0  0
   -2.7387   16.6230   -1.1976 O   0  0  0  0  0  0  0  0  0  0  0  0
   -3.3062   10.3878    0.0309 O   0  0  0  0  0  0  0  0  0  0  0  0
   -2.7035   13.7525    1.1217 O   0  0  0  0  0  0  0  0  0  0  0  0
   -4.2159   15.6101    1.8990 O   0  0  0  0  0  0  0  0  0  0  0  0
   -3.7595   15.1774    4.5541 O   0  0  0  0  0  0  0  0  0  0  0  0
   -5.5570   10.3512    0.4770 O   0  0  0  0  0  0  0  0  0  0  0  0
   -2.4602   15.6187    2.7673 O   0  0  0  0  0  0  0  0  0  0  0  0
   -5.3066   13.7791    3.4641 O   0  0  0  0  0  0  0  0  0  0  0  0
   -3.5142   12.1720    2.1019 O   0  0  0  0  0  0  0  0  0  0  0  0
   -3.8834   14.6989    3.1157 P   0  0  3  0  0  0  0  0  0  0  0  0
   -5.0230   22.7327   -0.6226 H   0  0  0  0  0  0  0  0  0  0  0  0
   -4.6271   20.3500   -0.0561 H   0  0  0  0  0  0  0  0  0  0  0  0
   -1.8838   14.7978   -0.6015 H   0  0  0  0  0  0  0  0  0  0  0  0
   -4.3170   10.5317    2.7045 H   0  0  0  0  0  0  0  0  0  0  0  0
  -15.7464    4.1163    1.9613 H   0  0  0  0  0  0  0  0  0  0  0  0
  -16.2539    2.4862    2.3537 H   0  0  0  0  0  0  0  0  0  0  0  0
  -16.6412    3.1803    0.7561 H   0  0  0  0  0  0  0  0  0  0  0  0
   -1.5898   26.9910    1.0250 H   0  0  0  0  0  0  0  0  0  0  0  0
   -2.3988   27.5618    2.5081 H   0  0  0  0  0  0  0  0  0  0  0  0
   -1.9790   25.8686    2.3363 H   0  0  0  0  0  0  0  0  0  0  0  0
  -13.8489    2.4510    1.7642 H   0  0  0  0  0  0  0  0  0  0  0  0
  -14.7552    1.5365    0.5914 H   0  0  0  0  0  0  0  0  0  0  0  0
   -4.0271   27.4053    0.6200 H   0  0  0  0  0  0  0  0  0  0  0  0
   -4.4365   26.2926    1.8991 H   0  0  0  0  0  0  0  0  0  0  0  0
  -13.1882    3.0015   -0.6045 H   0  0  0  0  0  0  0  0  0  0  0  0
  -14.8155    3.4866   -0.9772 H   0  0  0  0  0  0  0  0  0  0  0  0
   -2.8769   25.5968   -0.6656 H   0  0  0  0  0  0  0  0  0  0  0  0
   -4.5559   25.2241   -0.3750 H   0  0  0  0  0  0  0  0  0  0  0  0
  -13.4903    5.4992   -0.4852 H   0  0  0  0  0  0  0  0  0  0  0  0
  -14.7145    5.3528    0.7070 H   0  0  0  0  0  0  0  0  0  0  0  0
   -2.1613   24.1376    1.2404 H   0  0  0  0  0  0  0  0  0  0  0  0
   -3.0574   23.2530    0.0647 H   0  0  0  0  0  0  0  0  0  0  0  0
  -12.6248    5.8380    1.8752 H   0  0  0  0  0  0  0  0  0  0  0  0
  -13.0962    4.2562    2.3338 H   0  0  0  0  0  0  0  0  0  0  0  0
  -10.7232    4.1637    1.7512 H   0  0  0  0  0  0  0  0  0  0  0  0
  -11.5623    3.2121    0.5997 H   0  0  0  0  0  0  0  0  0  0  0  0
  -10.0297    4.6616   -0.6404 H   0  0  0  0  0  0  0  0  0  0  0  0
  -11.6186    5.1300   -1.0646 H   0  0  0  0  0  0  0  0  0  0  0  0
  -10.3828    7.1762   -0.5448 H   0  0  0  0  0  0  0  0  0  0  0  0
  -11.6074    7.0181    0.6382 H   0  0  0  0  0  0  0  0  0  0  0  0
   -9.5263    7.5138    1.8237 H   0  0  0  0  0  0  0  0  0  0  0  0
   -9.9990    5.9370    2.2830 H   0  0  0  0  0  0  0  0  0  0  0  0
   -7.6282    5.8211    1.7022 H   0  0  0  0  0  0  0  0  0  0  0  0
   -8.4639    4.8769    0.5534 H   0  0  0  0  0  0  0  0  0  0  0  0
   -6.9229    6.3247   -0.6845 H   0  0  0  0  0  0  0  0  0  0  0  0
   -8.5161    6.7924   -1.1160 H   0  0  0  0  0  0  0  0  0  0  0  0
   -7.2776    8.8284   -0.5946 H   0  0  0  0  0  0  0  0  0  0  0  0
   -8.5060    8.6767    0.5843 H   0  0  0  0  0  0  0  0  0  0  0  0
   -3.7997   18.6657    1.1864 H   0  0  0  0  0  0  0  0  0  0  0  0
   -4.4435   17.3486    0.5878 H   0  0  0  0  0  0  0  0  0  0  0  0
   -6.2234   18.7266    0.2895 H   0  0  0  0  0  0  0  0  0  0  0  0
   -6.7160   17.6233    1.4857 H   0  0  0  0  0  0  0  0  0  0  0  0
   -6.4894    9.1214    1.8652 H   0  0  0  0  0  0  0  0  0  0  0  0
   -6.8993    7.5408    2.2234 H   0  0  0  0  0  0  0  0  0  0  0  0
   -4.6385   17.9871    3.7410 H   0  0  0  0  0  0  0  0  0  0  0  0
   -3.5715   17.1728    3.0696 H   0  0  0  0  0  0  0  0  0  0  0  0
   -4.2081   24.3987    2.7019 H   0  0  0  0  0  0  0  0  0  0  0  0
   -3.7447   22.7622    2.4047 H   0  0  0  0  0  0  0  0  0  0  0  0
   -7.0766   19.8751    2.4809 H   0  0  0  0  0  0  0  0  0  0  0  0
   -5.8848   19.1195    3.4007 H   0  0  0  0  0  0  0  0  0  0  0  0
   -4.4880    7.6263    1.6878 H   0  0  0  0  0  0  0  0  0  0  0  0
   -5.3072    6.5826    0.5550 H   0  0  0  0  0  0  0  0  0  0  0  0
   -6.9038   16.2774    2.7439 H   0  0  0  0  0  0  0  0  0  0  0  0
   -5.8244   15.6909    3.8826 H   0  0  0  0  0  0  0  0  0  0  0  0
   -5.9735   24.3118    0.9157 H   0  0  0  0  0  0  0  0  0  0  0  0
   -6.2480   23.1206    2.1590 H   0  0  0  0  0  0  0  0  0  0  0  0
   -5.0050   21.2725    2.8492 H   0  0  0  0  0  0  0  0  0  0  0  0
   -3.9616   20.1671    2.1355 H   0  0  0  0  0  0  0  0  0  0  0  0
   -3.7356    7.9820   -0.6956 H   0  0  0  0  0  0  0  0  0  0  0  0
   -5.3561    8.4496   -1.1790 H   0  0  0  0  0  0  0  0  0  0  0  0
   -6.0748   14.3478    0.6479 H   0  0  0  0  0  0  0  0  0  0  0  0
   -6.3720   13.5973    1.9728 H   0  0  0  0  0  0  0  0  0  0  0  0
   -7.4564   21.3732    0.7241 H   0  0  0  0  0  0  0  0  0  0  0  0
   -6.7994   21.0074   -0.9202 H   0  0  0  0  0  0  0  0  0  0  0  0
   -4.2894   14.2994   -1.6083 H   0  0  0  0  0  0  0  0  0  0  0  0
   -4.3659   13.9963   -0.1428 H   0  0  0  0  0  0  0  0  0  0  0  0
   -2.5854   17.1275    1.2768 H   0  0  0  0  0  0  0  0  0  0  0  0
   -1.1003   16.5744    1.2634 H   0  0  0  0  0  0  0  0  0  0  0  0
   -5.1830   12.2293    0.3507 H   0  0  0  0  0  0  0  0  0  0  0  0
   -6.5243   11.8414    1.4209 H   0  0  0  0  0  0  0  0  0  0  0  0
   -5.9911   11.8842    4.0396 H   0  0  0  0  0  0  0  0  0  0  0  0
   -4.2919   12.2817    4.4736 H   0  0  0  0  0  0  0  0  0  0  0  0
   -5.5981   15.9779    0.3384 H   0  0  0  0  0  0  0  0  0  0  0  0
   -3.6940   16.8733   -1.1842 H   0  0  0  0  0  0  0  0  0  0  0  0
   -4.0419   15.6631    0.9895 H   0  0  0  0  0  0  0  0  0  0  0  0
  1 55  1  0  0  0  0
  1 56  1  0  0  0  0
  1 57  1  0  0  0  0
  2 58  1  0  0  0  0
  2 59  1  0  0  0  0
  2 60  1  0  0  0  0
  3  1  1  0  0  0  0
  3 61  1  0  0  0  0
  3 62  1  0  0  0  0
  4  2  1  0  0  0  0
  4 63  1  0  0  0  0
  4 64  1  0  0  0  0
  5  3  1  0  0  0  0
  5 65  1  0  0  0  0
  5 66  1  0  0  0  0
  6  4  1  0  0  0  0
  6 67  1  0  0  0  0
  6 68  1  0  0  0  0
  7  5  1  0  0  0  0
  7 69  1  0  0  0  0
  7 70  1  0  0  0  0
  8  6  1  0  0  0  0
  8 71  1  0  0  0  0
  8 72  1  0  0  0  0
  9  7  1  0  0  0  0
  9 73  1  0  0  0  0
  9 74  1  0  0  0  0
 10  9  1  0  0  0  0
 10 75  1  0  0  0  0
 10 76  1  0  0  0  0
 11 10  1  0  0  0  0
 11 77  1  0  0  0  0
 11 78  1  0  0  0  0
 12 11  1  0  0  0  0
 12 79  1  0  0  0  0
 12 80  1  0  0  0  0
 13 12  1  0  0  0  0
 13 81  1  0  0  0  0
 13 82  1  0  0  0  0
 14 13  1  0  0  0  0
 14 83  1  0  0  0  0
 14 84  1  0  0  0  0
 15 14  1  0  0  0  0
 15 85  1  0  0  0  0
 15 86  1  0  0  0  0
 16 15  1  0  0  0  0
 16 87  1  0  0  0  0
 16 88  1  0  0  0  0
 17 89  1  0  0  0  0
 17 90  1  0  0  0  0
 18 17  1  0  0  0  0
 18 91  1  0  0  0  0
 18 92  1  0  0  0  0
 19 16  1  0  0  0  0
 19 93  1  0  0  0  0
 19 94  1  0  0  0  0
 20 17  1  0  0  0  0
 20 95  1  0  0  0  0
 20 96  1  0  0  0  0
 21  8  1  0  0  0  0
 21 97  1  0  0  0  0
 21 98  1  0  0  0  0
 22 18  1  0  0  0  0
 22 99  1  0  0  0  0
 22100  1  0  0  0  0
 23 19  1  0  0  0  0
 23101  1  0  0  0  0
 23102  1  0  0  0  0
 24 20  1  0  0  0  0
 24103  1  0  0  0  0
 24104  1  0  0  0  0
 25 21  1  0  0  0  0
 25105  1  0  0  0  0
 25106  1  0  0  0  0
 26 22  1  0  0  0  0
 26107  1  0  0  0  0
 26108  1  0  0  0  0
 27 23  1  0  0  0  0
 27109  1  0  0  0  0
 27110  1  0  0  0  0
 28 24  1  0  0  0  0
 28111  1  0  0  0  0
 28112  1  0  0  0  0
 29113  1  0  0  0  0
 29114  1  0  0  0  0
 30115  1  0  0  0  0
 30116  1  0  0  0  0
 31117  1  0  0  0  0
 31118  1  0  0  0  0
 32119  1  0  0  0  0
 32120  1  0  0  0  0
 33121  1  0  0  0  0
 33122  1  0  0  0  0
 34 29  1  0  0  0  0
 34 35  1  0  0  0  0
 34 51  1  6  0  0  0
 34 25  1  0  0  0  0
 35 29  1  0  0  0  0
 35 52  1  6  0  0  0
 35 26  1  0  0  0  0
 36 30  1  0  0  0  0
 36 31  1  0  0  0  0
 37 49  1  0  0  0  0
 37 54  1  1  0  0  0
 37 33  1  0  0  0  0
 37 32  1  0  0  0  0
 38 27  1  0  0  0  0
 39 28  1  0  0  0  0
 40 30  1  0  0  0  0
 40123  1  0  0  0  0
 41 36  1  0  0  0  0
 41124  1  0  0  0  0
 42 38  2  0  0  0  0
 43 39  2  0  0  0  0
 44125  1  0  0  0  0
 46 32  1  0  0  0  0
 46 38  1  0  0  0  0
 47 31  1  0  0  0  0
 48 33  1  0  0  0  0
 49 39  1  0  0  0  0
 50 44  1  0  0  0  0
 50 45  2  0  0  0  0
 50 47  1  0  0  0  0
 50 48  1  0  0  0  0
 53 36  1  0  0  0  0
M  END
>  <DRUGBANK_ID>
DB03979

>  <SECONDARY_ACCESSION_NUMBERS>
EXPT01177

>  <COMMON_NAME>
1-[Glycerolylphosphonyl]-2-[8-(2-Hexyl-Cyclopropyl)-Octanal-1-Yl]-3-[Hexadecanal-1-Yl]-Glycerol

$$$$
