
 OpenBabel10282417123D

 50 52  0  0  0  0  0  0  0  0999 V2000
    1.0437    0.0108   -0.0154 C   0  0  0  0  0  0  0  0  0  0  0  0
    0.5679   -1.4093   -0.3323 C   0  0  0  0  0  0  0  0  0  0  0  0
    1.0648    1.7834    1.8704 C   0  0  0  0  0  0  0  0  0  0  0  0
   -2.8299    1.3209    4.6029 C   0  0  0  0  0  0  0  0  0  0  0  0
   -1.8800    5.5305    3.9179 C   0  0  0  0  0  0  0  0  0  0  0  0
    0.5500    0.4595    1.3560 C   0  0  1  0  0  0  0  0  0  0  0  0
    1.0591   -2.5010    0.6481 C   0  0  1  0  0  0  0  0  0  0  0  0
    0.5516    2.8701    0.9728 C   0  0  2  0  0  0  0  0  0  0  0  0
   -2.7342    3.9398    5.0422 C   0  0  0  0  0  0  0  0  0  0  0  0
    1.3255    4.1596    1.0899 C   0  0  2  0  0  0  0  0  0  0  0  0
    0.5442    4.9218    2.1363 C   0  0  2  0  0  0  0  0  0  0  0  0
   -3.3787    3.1058    5.9715 C   0  0  0  0  0  0  0  0  0  0  0  0
   -2.1614    3.3345    3.9288 C   0  0  0  0  0  0  0  0  0  0  0  0
   -0.8865    4.4004    1.9634 C   0  0  2  0  0  0  0  0  0  0  0  0
    0.4896   -2.5168    2.1103 C   0  0  0  0  0  0  0  0  0  0  0  0
   -0.8889    0.2684    1.4981 N   0  0  0  0  0  0  0  0  0  0  0  0
    0.6346   -3.7833    0.0321 N   0  0  0  0  0  0  0  0  0  0  0  0
   -3.9648    3.5881    7.1197 N   0  0  0  0  0  0  0  0  0  0  0  0
   -3.4198    1.7789    5.7268 N   0  0  0  0  0  0  0  0  0  0  0  0
   -2.1603    2.0163    3.6552 N   0  0  0  0  0  0  0  0  0  0  0  0
   -2.5453    5.3044    5.0249 N   0  0  0  0  0  0  0  0  0  0  0  0
   -1.6216    4.3736    3.2162 N   0  0  0  0  0  0  0  0  0  0  0  0
    1.2723    4.8573   -0.1628 O   0  0  0  0  0  0  0  0  0  0  0  0
    0.6076    6.3303    1.9207 O   0  0  0  0  0  0  0  0  0  0  0  0
   -0.5063   -3.1039    2.4802 O   0  0  0  0  0  0  0  0  0  0  0  0
    1.2205   -1.8157    3.0110 O   0  0  0  0  0  0  0  0  0  0  0  0
   -0.8155    3.1223    1.3347 O   0  0  0  0  0  0  0  0  0  0  0  0
    1.0671   -0.1727    2.0300 H   0  0  0  0  0  0  0  0  0  0  0  0
    2.1533   -2.4855    0.6902 H   0  0  0  0  0  0  0  0  0  0  0  0
    0.5462    2.5497   -0.0681 H   0  0  0  0  0  0  0  0  0  0  0  0
    2.3811    4.0075    1.3429 H   0  0  0  0  0  0  0  0  0  0  0  0
    0.9362    4.6950    3.1347 H   0  0  0  0  0  0  0  0  0  0  0  0
   -1.4657    5.0320    1.2817 H   0  0  0  0  0  0  0  0  0  0  0  0
    0.7049    0.6767   -0.8185 H   0  0  0  0  0  0  0  0  0  0  0  0
    2.1408    0.0391   -0.0317 H   0  0  0  0  0  0  0  0  0  0  0  0
   -0.5281   -1.4155   -0.4108 H   0  0  0  0  0  0  0  0  0  0  0  0
    0.9304   -1.6335   -1.3470 H   0  0  0  0  0  0  0  0  0  0  0  0
    0.7331    1.9029    2.9140 H   0  0  0  0  0  0  0  0  0  0  0  0
    2.1612    1.7395    1.8984 H   0  0  0  0  0  0  0  0  0  0  0  0
   -2.8992    0.2470    4.4448 H   0  0  0  0  0  0  0  0  0  0  0  0
   -1.5435    6.5017    3.5728 H   0  0  0  0  0  0  0  0  0  0  0  0
   -1.2031    0.5622    2.4282 H   0  0  0  0  0  0  0  0  0  0  0  0
   -1.3750    0.9499    0.9034 H   0  0  0  0  0  0  0  0  0  0  0  0
    0.8956   -4.5293    0.6779 H   0  0  0  0  0  0  0  0  0  0  0  0
   -0.3918   -3.7869    0.0684 H   0  0  0  0  0  0  0  0  0  0  0  0
   -3.9444    4.5829    7.2959 H   0  0  0  0  0  0  0  0  0  0  0  0
   -4.4258    2.9419    7.7387 H   0  0  0  0  0  0  0  0  0  0  0  0
    0.3722    4.7796   -0.5266 H   0  0  0  0  0  0  0  0  0  0  0  0
    0.5301    6.4739    0.9555 H   0  0  0  0  0  0  0  0  0  0  0  0
    0.5395   -1.4091    3.5955 H   0  0  0  0  0  0  0  0  0  0  0  0
  1 34  1  0  0  0  0
  1 35  1  0  0  0  0
  2  1  1  0  0  0  0
  2 36  1  0  0  0  0
  2 37  1  0  0  0  0
  3 38  1  0  0  0  0
  3 39  1  0  0  0  0
  4 40  1  0  0  0  0
  5 41  1  0  0  0  0
  6  1  1  0  0  0  0
  6  3  1  0  0  0  0
  6 16  1  0  0  0  0
  6 28  1  1  0  0  0
  7  2  1  0  0  0  0
  7 17  1  0  0  0  0
  7 29  1  1  0  0  0
  8  3  1  0  0  0  0
  8 30  1  6  0  0  0
 10  8  1  0  0  0  0
 10 23  1  0  0  0  0
 10 31  1  1  0  0  0
 11 10  1  0  0  0  0
 11 24  1  0  0  0  0
 11 32  1  1  0  0  0
 12  9  2  0  0  0  0
 13  9  1  0  0  0  0
 14 11  1  0  0  0  0
 14 33  1  6  0  0  0
 14 22  1  0  0  0  0
 15  7  1  0  0  0  0
 16 42  1  0  0  0  0
 16 43  1  0  0  0  0
 17 44  1  0  0  0  0
 17 45  1  0  0  0  0
 18 12  1  0  0  0  0
 18 46  1  0  0  0  0
 18 47  1  0  0  0  0
 19  4  2  0  0  0  0
 19 12  1  0  0  0  0
 20  4  1  0  0  0  0
 20 13  2  0  0  0  0
 21  5  2  0  0  0  0
 21  9  1  0  0  0  0
 22  5  1  0  0  0  0
 22 13  1  0  0  0  0
 23 48  1  0  0  0  0
 24 49  1  0  0  0  0
 25 15  2  0  0  0  0
 26 15  1  0  0  0  0
 26 50  1  0  0  0  0
 27  8  1  0  0  0  0
 27 14  1  0  0  0  0
M  END
>  <DRUGBANK_ID>
DB01910

>  <SECONDARY_ACCESSION_NUMBERS>
EXPT02890

>  <COMMON_NAME>
Sinefungin

>  <CAS_NUMBER>
58944-73-3

>  <UNII>
W2U467CIIL

>  <SYNONYMS>
(2S,5S)-2,5-diamino-6-[(2R,3S,R,5R)-5-(6-amino-9H-purin-9-yl)-3,4-dihydroxytetrahydrofuran-2-yl]hexanoic acid; 6,9-Diamino-1-(6-amino-9H-purin-9-yl)-1,5,6,7,8,9-hexadeoxy-beta-D-ribo-decofuranuronic acid; 6,9-Diamino-1-(6-amino-9H-purin-9-yl)-1,5,6,7,8,9-hexadeoxydecofuranuronic acid; Adenosyl-ornithine; Sinefungin; sinefungina; sinefungine; sinefunginum

$$$$
