LZ3
 OpenBabel10282417173D

 34 36  0  0  0  0  0  0  0  0999 V2000
    0.9133    0.0301    0.0651 N   0  0  0  0  0  0  0  0  0  0  0  0
    0.2998   -0.5243   -1.0598 C   0  0  0  0  0  0  0  0  0  0  0  0
   -1.1756   -0.4647   -1.1623 C   0  0  0  0  0  0  0  0  0  0  0  0
   -1.8125    1.9398   -0.3026 C   0  0  0  0  0  0  0  0  0  0  0  0
   -2.9027    2.7020    0.1088 C   0  0  0  0  0  0  0  0  0  0  0  0
   -4.1951    2.2098   -0.0391 C   0  0  0  0  0  0  0  0  0  0  0  0
   -4.4334    0.9308   -0.5606 C   0  0  0  0  0  0  0  0  0  0  0  0
   -2.0179    0.6348   -0.7940 C   0  0  0  0  0  0  0  0  0  0  0  0
    1.0107   -0.9669   -1.9640 O   0  0  0  0  0  0  0  0  0  0  0  0
   -1.9172   -1.5234   -1.5481 N   0  0  0  0  0  0  0  0  0  0  0  0
   -3.1894   -1.1119   -1.3881 N   0  0  0  0  0  0  0  0  0  0  0  0
    0.7560    1.5267    1.9773 C   0  0  0  0  0  0  0  0  0  0  0  0
    0.0954    1.9458    3.1456 C   0  0  0  0  0  0  0  0  0  0  0  0
   -0.9759    1.1969    3.6442 C   0  0  0  0  0  0  0  0  0  0  0  0
   -1.3970    0.0464    2.9806 C   0  0  0  0  0  0  0  0  0  0  0  0
   -0.7517   -0.3518    1.8139 C   0  0  0  0  0  0  0  0  0  0  0  0
   -1.8925    1.6711    5.0816 S   0  0  0  0  0  0  0  0  0  0  0  0
   -3.2210    2.0402    4.6675 O   0  0  0  0  0  0  0  0  0  0  0  0
   -1.6456    0.6829    6.1113 O   0  0  0  0  0  0  0  0  0  0  0  0
   -1.1759    3.1028    5.6066 N   0  0  0  0  0  0  0  0  0  0  0  0
    0.3212    0.3805    1.2963 C   0  0  0  0  0  0  0  0  0  0  0  0
   -3.3170    0.1623   -0.9080 C   0  0  0  0  0  0  0  0  0  0  0  0
    1.9140    0.1479   -0.0376 H   0  0  0  0  0  0  0  0  0  0  0  0
   -0.8096    2.3321   -0.1747 H   0  0  0  0  0  0  0  0  0  0  0  0
   -2.7301    3.6801    0.5495 H   0  0  0  0  0  0  0  0  0  0  0  0
   -5.0338    2.8358    0.2560 H   0  0  0  0  0  0  0  0  0  0  0  0
   -5.4455    0.5567   -0.6702 H   0  0  0  0  0  0  0  0  0  0  0  0
   -3.9364   -1.7642   -1.6000 H   0  0  0  0  0  0  0  0  0  0  0  0
    1.5280    2.1687    1.5555 H   0  0  0  0  0  0  0  0  0  0  0  0
    0.4153    2.8606    3.6363 H   0  0  0  0  0  0  0  0  0  0  0  0
   -2.2367   -0.5403    3.3453 H   0  0  0  0  0  0  0  0  0  0  0  0
   -1.1378   -1.2259    1.2969 H   0  0  0  0  0  0  0  0  0  0  0  0
   -1.3547    3.8602    4.9487 H   0  0  0  0  0  0  0  0  0  0  0  0
   -1.5630    3.3287    6.5269 H   0  0  0  0  0  0  0  0  0  0  0  0
  1  2  1  0  0  0  0
  1 21  1  0  0  0  0
  1 23  1  0  0  0  0
  2  3  1  0  0  0  0
  2  9  2  0  0  0  0
  3  8  1  0  0  0  0
  3 10  2  0  0  0  0
  4  5  2  0  0  0  0
  4  8  1  0  0  0  0
  4 24  1  0  0  0  0
  5  6  1  0  0  0  0
  5 25  1  0  0  0  0
  6  7  2  0  0  0  0
  6 26  1  0  0  0  0
  7 22  1  0  0  0  0
  7 27  1  0  0  0  0
  8 22  2  0  0  0  0
 10 11  1  0  0  0  0
 11 22  1  0  0  0  0
 11 28  1  0  0  0  0
 12 13  2  0  0  0  0
 12 21  1  0  0  0  0
 12 29  1  0  0  0  0
 13 14  1  0  0  0  0
 13 30  1  0  0  0  0
 14 15  2  0  0  0  0
 14 17  1  0  0  0  0
 15 16  1  0  0  0  0
 15 31  1  0  0  0  0
 16 21  2  0  0  0  0
 16 32  1  0  0  0  0
 17 18  2  0  0  0  0
 17 19  2  0  0  0  0
 17 20  1  0  0  0  0
 20 33  1  0  0  0  0
 20 34  1  0  0  0  0
M  END
>  <DRUGBANK_ID>
DB08133

>  <COMMON_NAME>
N-(4-sulfamoylphenyl)-1H-indazole-3-carboxamide

$$$$
