
 OpenBabel10282417143D

 17 18  0  0  0  0  0  0  0  0999 V2000
   -0.1770   -0.7369    0.0014 C   0  0  0  0  0  0  0  0  0  0  0  0
   -0.1680    0.6541    0.0009 C   0  0  0  0  0  0  0  0  0  0  0  0
    1.0411   -1.4382    0.0033 C   0  0  0  0  0  0  0  0  0  0  0  0
   -1.5467   -1.0814   -0.0022 C   0  0  0  0  0  0  0  0  0  0  0  0
    1.0051    1.4147   -0.0019 C   0  0  0  0  0  0  0  0  0  0  0  0
   -1.4892    1.0224    0.0041 N   0  0  0  0  0  0  0  0  0  0  0  0
    2.2316   -0.6891    0.0002 C   0  0  0  0  0  0  0  0  0  0  0  0
   -2.3467   -0.0127   -0.0006 N   0  0  0  0  0  0  0  0  0  0  0  0
    2.2162    0.7140   -0.0033 C   0  0  0  0  0  0  0  0  0  0  0  0
    3.5202   -1.3945   -0.0009 N   0  3  0  0  0  0  0  0  0  0  0  0
    3.4998   -2.6334    0.0025 O   0  0  0  0  0  0  0  0  0  0  0  0
    4.5528   -0.7089   -0.0054 O   0  5  0  0  0  0  0  0  0  0  0  0
    1.0448   -2.5248    0.0062 H   0  0  0  0  0  0  0  0  0  0  0  0
   -1.9899   -2.0691   -0.0067 H   0  0  0  0  0  0  0  0  0  0  0  0
    0.9848    2.5004   -0.0044 H   0  0  0  0  0  0  0  0  0  0  0  0
   -1.8696    1.9622    0.0091 H   0  0  0  0  0  0  0  0  0  0  0  0
    3.1449    1.2831   -0.0073 H   0  0  0  0  0  0  0  0  0  0  0  0
  1  2  1  0  0  0  0
  1  3  2  0  0  0  0
  1  4  1  0  0  0  0
  2  5  2  0  0  0  0
  2  6  1  0  0  0  0
  3  7  1  0  0  0  0
  3 13  1  0  0  0  0
  4  8  2  0  0  0  0
  4 14  1  0  0  0  0
  5  9  1  0  0  0  0
  5 15  1  0  0  0  0
  6  8  1  0  0  0  0
  6 16  1  0  0  0  0
  7 10  1  0  0  0  0
  7  9  2  0  0  0  0
  9 17  1  0  0  0  0
 10 11  2  0  0  0  0
 10 12  1  0  0  0  0
M  CHG  2  10   1  12  -1
M  END
>  <DRUGBANK_ID>
DB04534

>  <SECONDARY_ACCESSION_NUMBERS>
EXPT00255

>  <COMMON_NAME>
5-Nitroindazole

>  <CAS_NUMBER>
5401-94-5

>  <UNII>
235Y7P37ZD

>  <SYNONYMS>
5-Nitro-1H-indazole

$$$$
