
 OpenBabel10282417233D

 41 44  0  0  1  0  0  0  0  0999 V2000
    0.9644    0.1535   -0.3330 C   0  0  0  0  0  0  0  0  0  0  0  0
    0.2084    1.2130   -1.1583 C   0  0  1  0  0  0  0  0  0  0  0  0
   -0.2563    1.1766   -2.6713 C   0  0  0  0  0  0  0  0  0  0  0  0
   -1.6255    0.9100   -2.1998 N   0  0  0  0  0  0  0  0  0  0  0  0
   -2.9185    1.1430   -2.6738 C   0  0  0  0  0  0  0  0  0  0  0  0
   -3.8162    1.5042   -1.9391 O   0  0  0  0  0  0  0  0  0  0  0  0
   -3.3581    0.9816   -4.0938 C   0  0  0  0  0  0  0  0  0  0  0  0
   -2.8116    2.1689   -4.8698 C   0  0  0  0  0  0  0  0  0  0  0  0
   -2.3582    3.1538   -5.5135 N   0  0  0  0  0  0  0  0  0  0  0  0
   -1.2775    1.1416   -0.7699 C   0  0  2  0  0  0  0  0  0  0  0  0
   -1.7950    2.4395   -0.1705 C   0  0  0  0  0  0  0  0  0  0  0  0
   -3.0449    2.0165    0.6217 C   0  0  0  0  0  0  0  0  0  0  0  0
   -3.0703    0.5556    0.6367 N   0  0  0  0  0  0  0  0  0  0  0  0
   -1.8502    0.0048    0.0884 C   0  0  0  0  0  0  0  0  0  0  0  0
   -4.2291   -0.1893    0.5960 C   0  0  0  0  0  0  0  0  0  0  0  0
   -4.3706   -1.3233    1.4163 C   0  0  0  0  0  0  0  0  0  0  0  0
   -3.5372   -2.0329    2.3248 C   0  0  0  0  0  0  0  0  0  0  0  0
   -4.3117   -2.9893    2.9440 C   0  0  0  0  0  0  0  0  0  0  0  0
   -5.5787   -2.8976    2.4270 N   0  0  0  0  0  0  0  0  0  0  0  0
   -5.6166   -1.9275    1.4647 C   0  0  0  0  0  0  0  0  0  0  0  0
   -6.6980   -1.6213    0.7362 N   0  0  0  0  0  0  0  0  0  0  0  0
   -6.4426   -0.5792   -0.0716 C   0  0  0  0  0  0  0  0  0  0  0  0
   -5.3164    0.1616   -0.1420 N   0  0  0  0  0  0  0  0  0  0  0  0
    0.6446   -0.8665   -0.5709 H   0  0  0  0  0  0  0  0  0  0  0  0
    0.7671    0.3136    0.7407 H   0  0  0  0  0  0  0  0  0  0  0  0
    2.0508    0.2164   -0.4206 H   0  0  0  0  0  0  0  0  0  0  0  0
    0.6995    2.1705   -0.9161 H   0  0  0  0  0  0  0  0  0  0  0  0
   -0.2461    2.1044   -3.2617 H   0  0  0  0  0  0  0  0  0  0  0  0
    0.3189    0.4330   -3.2312 H   0  0  0  0  0  0  0  0  0  0  0  0
   -2.9653    0.0488   -4.5089 H   0  0  0  0  0  0  0  0  0  0  0  0
   -4.4505    0.9587   -4.1588 H   0  0  0  0  0  0  0  0  0  0  0  0
   -1.0514    2.8607    0.5206 H   0  0  0  0  0  0  0  0  0  0  0  0
   -1.9921    3.2196   -0.9160 H   0  0  0  0  0  0  0  0  0  0  0  0
   -2.9141    2.3468    1.6571 H   0  0  0  0  0  0  0  0  0  0  0  0
   -3.9421    2.5009    0.2297 H   0  0  0  0  0  0  0  0  0  0  0  0
   -1.9464   -0.9286   -0.4822 H   0  0  0  0  0  0  0  0  0  0  0  0
   -1.2146   -0.1971    0.9531 H   0  0  0  0  0  0  0  0  0  0  0  0
   -2.4930   -1.8308    2.5187 H   0  0  0  0  0  0  0  0  0  0  0  0
   -4.0753   -3.7084    3.7149 H   0  0  0  0  0  0  0  0  0  0  0  0
   -6.3832   -3.4404    2.7034 H   0  0  0  0  0  0  0  0  0  0  0  0
   -7.2458   -0.3015   -0.7490 H   0  0  0  0  0  0  0  0  0  0  0  0
  1 24  1  0  0  0  0
  1 25  1  0  0  0  0
  1 26  1  0  0  0  0
  2  1  1  0  0  0  0
  2  3  1  0  0  0  0
  2 10  1  0  0  0  0
  2 27  1  1  0  0  0
  3  4  1  0  0  0  0
  3 28  1  0  0  0  0
  3 29  1  0  0  0  0
  4  5  1  0  0  0  0
  5  6  2  0  0  0  0
  5  7  1  0  0  0  0
  7  8  1  0  0  0  0
  7 30  1  0  0  0  0
  7 31  1  0  0  0  0
  8  9  3  0  0  0  0
 10  4  1  6  0  0  0
 10 11  1  0  0  0  0
 10 14  1  0  0  0  0
 11 12  1  0  0  0  0
 11 32  1  0  0  0  0
 11 33  1  0  0  0  0
 12 13  1  0  0  0  0
 12 34  1  0  0  0  0
 12 35  1  0  0  0  0
 13 14  1  0  0  0  0
 13 15  1  0  0  0  0
 14 36  1  0  0  0  0
 14 37  1  0  0  0  0
 15 16  2  0  0  0  0
 15 23  1  0  0  0  0
 16 17  1  0  0  0  0
 16 20  1  0  0  0  0
 17 18  2  0  0  0  0
 17 38  1  0  0  0  0
 18 19  1  0  0  0  0
 18 39  1  0  0  0  0
 19 20  1  0  0  0  0
 19 40  1  0  0  0  0
 20 21  2  0  0  0  0
 21 22  1  0  0  0  0
 22 23  2  0  0  0  0
 22 41  1  0  0  0  0
M  END
>  <DRUGBANK_ID>
DB16133

>  <COMMON_NAME>
Delgocitinib

>  <CAS_NUMBER>
1263774-59-9

>  <UNII>
9L0Q8KK220

>  <SYNONYMS>
Delgocitinib

$$$$
