
 OpenBabel10282417193D

 56 59  0  0  1  0  0  0  0  0999 V2000
    0.9733    0.0378    0.1481 C   0  0  0  0  0  0  0  0  0  0  0  0
    0.4046    1.1262    0.1260 O   0  0  0  0  0  0  0  0  0  0  0  0
    3.1844    1.2057    0.0495 C   0  0  0  0  0  0  0  0  0  0  0  0
    3.1923   -1.1953    0.0560 C   0  0  0  0  0  0  0  0  0  0  0  0
    4.5772    1.2101   -0.1251 C   0  0  0  0  0  0  0  0  0  0  0  0
    4.5724   -1.1784   -0.1838 C   0  0  0  0  0  0  0  0  0  0  0  0
    5.2921    0.0189   -0.2596 C   0  0  0  0  0  0  0  0  0  0  0  0
    2.4718   -0.0024    0.1096 C   0  0  0  0  0  0  0  0  0  0  0  0
   -1.6839   -1.9726    1.4176 C   0  0  0  0  0  0  0  0  0  0  0  0
   -2.5857    0.2551   -2.1769 C   0  0  0  0  0  0  0  0  0  0  0  0
   -1.1663   -2.9479    1.9411 O   0  0  0  0  0  0  0  0  0  0  0  0
   -1.1800   -1.2276    0.1843 C   0  0  2  0  0  0  0  0  0  0  0  0
   -2.5776    0.6186   -3.3464 O   0  0  0  0  0  0  0  0  0  0  0  0
   -1.7268   -1.8796   -1.0988 C   0  0  0  0  0  0  0  0  0  0  0  0
   -2.9270   -1.1315   -1.6858 C   0  0  0  0  0  0  0  0  0  0  0  0
   -2.8417   -1.4575    1.8895 O   0  0  0  0  0  0  0  0  0  0  0  0
    0.2847   -1.1662    0.1501 N   0  0  0  0  0  0  0  0  0  0  0  0
   -2.2769    1.0981   -1.1825 O   0  0  0  0  0  0  0  0  0  0  0  0
    7.2388   -0.5877   -1.6351 C   0  0  0  0  0  0  0  0  0  0  0  0
    7.6251    0.5610    0.4661 C   0  0  0  0  0  0  0  0  0  0  0  0
    6.6425    0.0216   -0.4645 N   0  0  0  0  0  0  0  0  0  0  0  0
    8.9760    0.3334   -0.2289 C   0  0  2  0  0  0  0  0  0  0  0  0
    8.6592   -0.4441   -1.4361 N   0  0  0  0  0  0  0  0  0  0  0  0
   10.8957   -1.3801   -1.5602 C   0  0  0  0  0  0  0  0  0  0  0  0
    9.6493   -1.1948   -2.0782 C   0  0  0  0  0  0  0  0  0  0  0  0
   11.8871   -2.0697   -2.2278 N   0  0  0  0  0  0  0  0  0  0  0  0
   11.1292   -0.8390   -0.2878 N   0  0  0  0  0  0  0  0  0  0  0  0
   10.3920   -2.4933   -3.9671 N   0  0  0  0  0  0  0  0  0  0  0  0
   11.6105   -2.5974   -3.3797 C   0  0  0  0  0  0  0  0  0  0  0  0
    9.3607   -1.8217   -3.3981 C   0  0  0  0  0  0  0  0  0  0  0  0
   10.0207   -0.4482    0.5975 C   0  0  0  0  0  0  0  0  0  0  0  0
   12.5307   -3.2986   -4.0807 N   0  0  0  0  0  0  0  0  0  0  0  0
    8.2677   -1.7497   -3.9563 O   0  0  0  0  0  0  0  0  0  0  0  0
    9.4060    1.2958   -0.5373 H   0  0  0  0  0  0  0  0  0  0  0  0
    2.6643    2.1592    0.1247 H   0  0  0  0  0  0  0  0  0  0  0  0
    2.7209   -2.1596    0.1949 H   0  0  0  0  0  0  0  0  0  0  0  0
    5.0976    2.1605   -0.2219 H   0  0  0  0  0  0  0  0  0  0  0  0
    5.0888   -2.1297   -0.2901 H   0  0  0  0  0  0  0  0  0  0  0  0
   -1.5345   -0.2130    0.3312 H   0  0  0  0  0  0  0  0  0  0  0  0
   -0.9458   -1.9466   -1.8681 H   0  0  0  0  0  0  0  0  0  0  0  0
   -2.0344   -2.9161   -0.8952 H   0  0  0  0  0  0  0  0  0  0  0  0
   -3.3053   -1.6964   -2.5476 H   0  0  0  0  0  0  0  0  0  0  0  0
   -3.7491   -1.0726   -0.9655 H   0  0  0  0  0  0  0  0  0  0  0  0
   -3.0547   -1.9606    2.7018 H   0  0  0  0  0  0  0  0  0  0  0  0
    0.7655   -2.0518    0.1732 H   0  0  0  0  0  0  0  0  0  0  0  0
   -1.8242    1.8848   -1.5519 H   0  0  0  0  0  0  0  0  0  0  0  0
    6.9612   -1.6443   -1.7112 H   0  0  0  0  0  0  0  0  0  0  0  0
    6.9353   -0.0459   -2.5359 H   0  0  0  0  0  0  0  0  0  0  0  0
    7.4618    1.6304    0.6418 H   0  0  0  0  0  0  0  0  0  0  0  0
    7.5744    0.0432    1.4302 H   0  0  0  0  0  0  0  0  0  0  0  0
   12.0919   -0.8073    0.0205 H   0  0  0  0  0  0  0  0  0  0  0  0
   10.1983   -2.9027   -4.8639 H   0  0  0  0  0  0  0  0  0  0  0  0
   10.3766    0.1450    1.4460 H   0  0  0  0  0  0  0  0  0  0  0  0
    9.5648   -1.3624    1.0012 H   0  0  0  0  0  0  0  0  0  0  0  0
   12.3487   -3.7193   -4.9794 H   0  0  0  0  0  0  0  0  0  0  0  0
   13.4505   -3.4161   -3.6774 H   0  0  0  0  0  0  0  0  0  0  0  0
  1 17  1  0  0  0  0
  2  1  2  0  0  0  0
  3  8  1  0  0  0  0
  3 35  1  0  0  0  0
  4  8  2  0  0  0  0
  4 36  1  0  0  0  0
  5  3  2  0  0  0  0
  5 37  1  0  0  0  0
  6  4  1  0  0  0  0
  6 38  1  0  0  0  0
  7  5  1  0  0  0  0
  7  6  2  0  0  0  0
  8  1  1  0  0  0  0
 11  9  2  0  0  0  0
 12 17  1  0  0  0  0
 12 39  1  1  0  0  0
 12 14  1  0  0  0  0
 12  9  1  0  0  0  0
 13 10  2  0  0  0  0
 14 40  1  0  0  0  0
 14 41  1  0  0  0  0
 15 10  1  0  0  0  0
 15 14  1  0  0  0  0
 15 42  1  0  0  0  0
 15 43  1  0  0  0  0
 16  9  1  0  0  0  0
 16 44  1  0  0  0  0
 17 45  1  0  0  0  0
 18 10  1  0  0  0  0
 18 46  1  0  0  0  0
 19 23  1  0  0  0  0
 19 21  1  0  0  0  0
 19 47  1  0  0  0  0
 19 48  1  0  0  0  0
 20 21  1  0  0  0  0
 20 49  1  0  0  0  0
 20 50  1  0  0  0  0
 21  7  1  0  0  0  0
 22 20  1  0  0  0  0
 22 31  1  0  0  0  0
 22 34  1  6  0  0  0
 22 23  1  0  0  0  0
 23 25  1  0  0  0  0
 25 24  2  0  0  0  0
 26 24  1  0  0  0  0
 27 24  1  0  0  0  0
 27 51  1  0  0  0  0
 28 52  1  0  0  0  0
 29 26  2  0  0  0  0
 29 28  1  0  0  0  0
 30 25  1  0  0  0  0
 30 28  1  0  0  0  0
 31 27  1  0  0  0  0
 31 53  1  0  0  0  0
 31 54  1  0  0  0  0
 32 29  1  0  0  0  0
 32 55  1  0  0  0  0
 32 56  1  0  0  0  0
 33 30  2  0  0  0  0
M  END
>  <DRUGBANK_ID>
DB12676

>  <COMMON_NAME>
Modufolin

>  <CAS_NUMBER>
31690-11-6

>  <UNII>
Z8R4A37V9Q

>  <SYNONYMS>
(6R,S)5,10-methylene-tetrahydrofolic acid; (6R)-5,10-METHYLENETETRAHYDROFOLATE; 6R-MTHF; D-N5,N10-METHYLENE-L-TETRAHYDROFOLIC ACID

$$$$
