Betaine.mol
 OpenBabel10282417163D

 19 18  0  0  0  0  0  0  0  0999 V2000
    1.2212   -0.1944   -0.1088 O   0  5  0  0  0  0  0  0  0  0  0  0
    2.4790   -0.0831   -0.1842 C   0  0  0  0  0  0  0  0  0  0  0  0
    3.2328    0.0735   -1.1780 O   0  0  0  0  0  0  0  0  0  0  0  0
    3.1961    0.0264    1.1978 C   0  0  0  0  0  0  0  0  0  0  0  0
    2.8776    1.3086    2.0752 N   0  3  0  0  0  0  0  0  0  0  0  0
    1.3855    1.3244    2.3706 C   0  0  0  0  0  0  0  0  0  0  0  0
    3.6621    1.2690    3.3554 C   0  0  0  0  0  0  0  0  0  0  0  0
    3.2492    2.5213    1.2431 C   0  0  0  0  0  0  0  0  0  0  0  0
    2.9423   -0.8421    1.8164 H   0  0  0  0  0  0  0  0  0  0  0  0
    4.2833    0.0332    1.0498 H   0  0  0  0  0  0  0  0  0  0  0  0
    1.1268    0.3954    2.8876 H   0  0  0  0  0  0  0  0  0  0  0  0
    1.1800    2.1847    3.0142 H   0  0  0  0  0  0  0  0  0  0  0  0
    0.8191    1.4455    1.4477 H   0  0  0  0  0  0  0  0  0  0  0  0
    4.7297    1.2592    3.1188 H   0  0  0  0  0  0  0  0  0  0  0  0
    3.4137    2.1616    3.9385 H   0  0  0  0  0  0  0  0  0  0  0  0
    3.3850    0.3682    3.9109 H   0  0  0  0  0  0  0  0  0  0  0  0
    4.3242    2.4852    1.0414 H   0  0  0  0  0  0  0  0  0  0  0  0
    2.6802    2.5129    0.3102 H   0  0  0  0  0  0  0  0  0  0  0  0
    3.0045    3.4165    1.8220 H   0  0  0  0  0  0  0  0  0  0  0  0
  1  2  1  0  0  0  0
  2  3  2  0  0  0  0
  2  4  1  0  0  0  0
  4  5  1  0  0  0  0
  4  9  1  0  0  0  0
  4 10  1  0  0  0  0
  5  6  1  0  0  0  0
  5  7  1  0  0  0  0
  5  8  1  0  0  0  0
  6 11  1  0  0  0  0
  6 12  1  0  0  0  0
  6 13  1  0  0  0  0
  7 14  1  0  0  0  0
  7 15  1  0  0  0  0
  7 16  1  0  0  0  0
  8 17  1  0  0  0  0
  8 18  1  0  0  0  0
  8 19  1  0  0  0  0
M  CHG  2   1  -1   5   1
M  END
>  <DRUGBANK_ID>
DB06756

>  <COMMON_NAME>
Betaine

>  <CAS_NUMBER>
107-43-7

>  <UNII>
3SCV180C9W

>  <SYNONYMS>
2-(Trimethylammonio)Acetate; 2-N,N,N-trimethylammonio acetate; 2-trimethylammonioacetate; Abromine; Acidol; Beta√≠na anhidra; Betaine; Betaine, anhydrous; Glycine betaine; Glycinebetaine; Glykokollbetain; N,N,N-trimethylammonioacetate; N,N,N-Trimethylglycine; TMG; Trimethylaminoacetate; Trimethylammonioacetate; Trimethylglycine; Trimethylglycocoll

$$$$
