
 OpenBabel10282417153D

 66 69  0  0  1  0  0  0  0  0999 V2000
   -0.9981    1.6666   -0.3176 C   0  0  0  0  0  0  0  0  0  0  0  0
    2.1331    4.2060    1.6363 C   0  0  0  0  0  0  0  0  0  0  0  0
    3.4918    9.0492   -4.3622 C   0  0  0  0  0  0  0  0  0  0  0  0
    3.7063    8.5982   -6.8105 C   0  0  0  0  0  0  0  0  0  0  0  0
   -0.4699    1.9320   -7.5570 C   0  0  0  0  0  0  0  0  0  0  0  0
   -2.0498   -0.4615    0.9034 C   0  0  0  0  0  0  0  0  0  0  0  0
   -2.6986    0.6861    2.9145 C   0  0  0  0  0  0  0  0  0  0  0  0
   -3.3529   -0.3569    0.4024 C   0  0  0  0  0  0  0  0  0  0  0  0
   -4.0266    0.6643    2.4744 C   0  0  0  0  0  0  0  0  0  0  0  0
    0.5914    4.6793   -3.6740 C   0  0  0  0  0  0  0  0  0  0  0  0
   -0.7625    2.4294   -4.5334 C   0  0  0  0  0  0  0  0  0  0  0  0
   -0.0204    2.9630    1.9964 C   0  0  0  0  0  0  0  0  0  0  0  0
    1.2714    2.3907   -0.6090 C   0  0  0  0  0  0  0  0  0  0  0  0
   -0.2176    0.4834    2.4127 C   0  0  0  0  0  0  0  0  0  0  0  0
    0.8655    4.0355   -7.2936 C   0  0  0  0  0  0  0  0  0  0  0  0
    0.4001    1.3922    0.2005 C   0  0  1  0  0  0  0  0  0  0  0  0
    0.7013    4.0724    1.1130 C   0  0  2  0  0  0  0  0  0  0  0  0
   -1.6810    0.1860    2.1000 C   0  0  0  0  0  0  0  0  0  0  0  0
   -4.3394    0.1676    1.2136 C   0  0  0  0  0  0  0  0  0  0  0  0
    0.6422    4.3493   -5.0564 C   0  0  0  0  0  0  0  0  0  0  0  0
   -0.1716    3.9784   -2.7464 C   0  0  0  0  0  0  0  0  0  0  0  0
    1.2206    4.9014   -6.2554 C   0  0  0  0  0  0  0  0  0  0  0  0
   -0.9909    2.9755   -3.2722 C   0  0  0  0  0  0  0  0  0  0  0  0
   -0.0192    3.1788   -5.4349 C   0  0  0  0  0  0  0  0  0  0  0  0
    2.0321    6.1160   -6.4833 C   0  0  0  0  0  0  0  0  0  0  0  0
   -0.0318    4.4796   -1.3089 C   0  0  0  0  0  0  0  0  0  0  0  0
    2.4204    7.0828   -5.3257 C   0  0  0  0  0  0  0  0  0  0  0  0
   -2.5631    2.5109   -2.6790 Cl  0  0  0  0  0  0  0  0  0  0  0  0
   -5.6087    0.1660    0.7877 F   0  0  0  0  0  0  0  0  0  0  0  0
    3.1903    8.2150   -5.5222 N   0  0  0  0  0  0  0  0  0  0  0  0
    0.1234    3.0076   -6.7873 N   0  0  0  0  0  0  0  0  0  0  0  0
    0.4402    1.5897    1.6631 N   0  0  0  0  0  0  0  0  0  0  0  0
    0.7472    3.7485   -0.3588 N   0  0  0  0  0  0  0  0  0  0  0  0
    2.4241    6.3681   -7.6213 O   0  0  0  0  0  0  0  0  0  0  0  0
   -0.5258    5.5736   -1.0406 O   0  0  0  0  0  0  0  0  0  0  0  0
    2.0521    6.8555   -4.1747 O   0  0  0  0  0  0  0  0  0  0  0  0
    0.7502    0.3821   -0.0416 H   0  0  0  0  0  0  0  0  0  0  0  0
    0.1609    5.0143    1.2656 H   0  0  0  0  0  0  0  0  0  0  0  0
   -0.8843    2.3651   -1.0920 H   0  0  0  0  0  0  0  0  0  0  0  0
   -1.7020    2.1870    0.3366 H   0  0  0  0  0  0  0  0  0  0  0  0
   -1.4651    0.8506   -0.8456 H   0  0  0  0  0  0  0  0  0  0  0  0
    2.1714    4.1239    2.7260 H   0  0  0  0  0  0  0  0  0  0  0  0
    2.7894    3.4226    1.2501 H   0  0  0  0  0  0  0  0  0  0  0  0
    2.5570    5.1629    1.3298 H   0  0  0  0  0  0  0  0  0  0  0  0
    4.5738    9.0834   -4.2194 H   0  0  0  0  0  0  0  0  0  0  0  0
    3.0865   10.0493   -4.5276 H   0  0  0  0  0  0  0  0  0  0  0  0
    3.0507    8.6663   -3.4331 H   0  0  0  0  0  0  0  0  0  0  0  0
    4.3463    7.7926   -7.1796 H   0  0  0  0  0  0  0  0  0  0  0  0
    2.8629    8.7550   -7.4877 H   0  0  0  0  0  0  0  0  0  0  0  0
    4.2858    9.5177   -6.7255 H   0  0  0  0  0  0  0  0  0  0  0  0
   -1.1438    2.3544   -8.3057 H   0  0  0  0  0  0  0  0  0  0  0  0
    0.3326    1.3552   -8.0190 H   0  0  0  0  0  0  0  0  0  0  0  0
   -1.0480    1.2673   -6.9096 H   0  0  0  0  0  0  0  0  0  0  0  0
   -1.2729   -0.8381    0.2358 H   0  0  0  0  0  0  0  0  0  0  0  0
   -2.4566    1.1105    3.8845 H   0  0  0  0  0  0  0  0  0  0  0  0
   -3.5753   -0.5929   -0.6367 H   0  0  0  0  0  0  0  0  0  0  0  0
   -4.8172    1.0678    3.0956 H   0  0  0  0  0  0  0  0  0  0  0  0
    1.0668    5.5428   -3.2420 H   0  0  0  0  0  0  0  0  0  0  0  0
   -1.3159    1.5541   -4.8507 H   0  0  0  0  0  0  0  0  0  0  0  0
    0.1558    3.1644    3.0620 H   0  0  0  0  0  0  0  0  0  0  0  0
   -1.1043    3.0802    1.8936 H   0  0  0  0  0  0  0  0  0  0  0  0
    1.2188    2.1373   -1.6722 H   0  0  0  0  0  0  0  0  0  0  0  0
    2.3284    2.3305   -0.3441 H   0  0  0  0  0  0  0  0  0  0  0  0
    0.3477   -0.4388    2.2204 H   0  0  0  0  0  0  0  0  0  0  0  0
   -0.1017    0.6622    3.4892 H   0  0  0  0  0  0  0  0  0  0  0  0
    1.0895    4.0828   -8.3539 H   0  0  0  0  0  0  0  0  0  0  0  0
  1 39  1  0  0  0  0
  1 40  1  0  0  0  0
  1 41  1  0  0  0  0
  2 42  1  0  0  0  0
  2 43  1  0  0  0  0
  2 44  1  0  0  0  0
  3 45  1  0  0  0  0
  3 46  1  0  0  0  0
  3 47  1  0  0  0  0
  4 48  1  0  0  0  0
  4 49  1  0  0  0  0
  4 50  1  0  0  0  0
  5 51  1  0  0  0  0
  5 52  1  0  0  0  0
  5 53  1  0  0  0  0
  6 54  1  0  0  0  0
  7 55  1  0  0  0  0
  8  6  1  0  0  0  0
  8 56  1  0  0  0  0
  9  7  2  0  0  0  0
  9 57  1  0  0  0  0
 10 58  1  0  0  0  0
 11 59  1  0  0  0  0
 12 60  1  0  0  0  0
 12 61  1  0  0  0  0
 13 62  1  0  0  0  0
 13 63  1  0  0  0  0
 14 64  1  0  0  0  0
 14 65  1  0  0  0  0
 15 66  1  0  0  0  0
 16 13  1  0  0  0  0
 16 37  1  6  0  0  0
 16  1  1  0  0  0  0
 17 12  1  0  0  0  0
 17 38  1  1  0  0  0
 17  2  1  0  0  0  0
 18  6  2  0  0  0  0
 18  7  1  0  0  0  0
 18 14  1  0  0  0  0
 19  8  2  0  0  0  0
 19  9  1  0  0  0  0
 20 10  2  0  0  0  0
 21 10  1  0  0  0  0
 22 15  2  0  0  0  0
 22 20  1  0  0  0  0
 23 11  1  0  0  0  0
 23 21  2  0  0  0  0
 24 11  2  0  0  0  0
 24 20  1  0  0  0  0
 25 22  1  0  0  0  0
 26 21  1  0  0  0  0
 27 25  1  0  0  0  0
 28 23  1  0  0  0  0
 29 19  1  0  0  0  0
 30  3  1  0  0  0  0
 30  4  1  0  0  0  0
 30 27  1  0  0  0  0
 31  5  1  0  0  0  0
 31 15  1  0  0  0  0
 31 24  1  0  0  0  0
 32 12  1  0  0  0  0
 32 14  1  0  0  0  0
 32 16  1  0  0  0  0
 33 13  1  0  0  0  0
 33 17  1  0  0  0  0
 33 26  1  0  0  0  0
 34 25  2  0  0  0  0
 35 26  2  0  0  0  0
 36 27  2  0  0  0  0
M  END
>  <DRUGBANK_ID>
DB05412

>  <COMMON_NAME>
Talmapimod

>  <CAS_NUMBER>
309913-83-5

>  <UNII>
B1E00KQ6NT

>  <SYNONYMS>
Talmapimod

$$$$
