1081
 OpenBabel10282417113D

 66 69  0  0  0  0  0  0  0  0999 V2000
    0.8866   -0.1814    0.1229 O   0  0  0  0  0  0  0  0  0  0  0  0
    0.9062    1.8914   -0.8354 O   0  0  0  0  0  0  0  0  0  0  0  0
   -2.4648    0.5029    3.0066 N   0  0  0  0  0  0  0  0  0  0  0  0
   -0.1224    2.2797    1.4429 N   0  0  0  0  0  0  0  0  0  0  0  0
   -1.4853    0.9809    0.0316 C   0  0  0  0  0  0  0  0  0  0  0  0
   -2.4108    2.0872    0.8516 C   0  0  0  0  0  0  0  0  0  0  0  0
   -1.9073   -0.3496    0.6923 C   0  0  0  0  0  0  0  0  0  0  0  0
   -2.5978    1.8413    2.4001 C   0  0  0  0  0  0  0  0  0  0  0  0
   -1.6559   -0.4192    2.1923 C   0  0  0  0  0  0  0  0  0  0  0  0
   -1.8906    0.5740    4.3986 C   0  0  0  0  0  0  0  0  0  0  0  0
   -1.9421    1.2219   -1.3898 C   0  0  0  0  0  0  0  0  0  0  0  0
    0.2400    0.9467   -0.2973 C   0  0  0  0  0  0  0  0  0  0  0  0
   -0.3240    0.6622    4.6118 C   0  0  0  0  0  0  0  0  0  0  0  0
    0.4191    1.9866    4.1549 C   0  0  0  0  0  0  0  0  0  0  0  0
   -1.5472    2.4058   -2.0568 C   0  0  0  0  0  0  0  0  0  0  0  0
   -2.6552    0.2401   -2.0482 C   0  0  0  0  0  0  0  0  0  0  0  0
   -0.1841    3.1951    4.9530 C   0  0  0  0  0  0  0  0  0  0  0  0
    1.9554    1.9339    4.3828 C   0  0  0  0  0  0  0  0  0  0  0  0
   -1.8382    2.5671   -3.3950 C   0  0  0  0  0  0  0  0  0  0  0  0
   -2.9336    0.3994   -3.3846 C   0  0  0  0  0  0  0  0  0  0  0  0
    0.1231    2.1468    2.6726 C   0  0  0  0  0  0  0  0  0  0  0  0
   -2.5364    1.5590   -4.0522 C   0  0  0  0  0  0  0  0  0  0  0  0
    2.3399   -0.1144    0.0706 C   0  0  0  0  0  0  0  0  0  0  0  0
   -0.7416    3.0422    6.2375 C   0  0  0  0  0  0  0  0  0  0  0  0
    2.7176    3.1200    4.4962 C   0  0  0  0  0  0  0  0  0  0  0  0
   -0.0480    4.5104    4.4615 C   0  0  0  0  0  0  0  0  0  0  0  0
    2.6581    0.7275    4.5121 C   0  0  0  0  0  0  0  0  0  0  0  0
    2.9170   -1.5117   -0.0626 C   0  0  0  0  0  0  0  0  0  0  0  0
   -1.0941    4.1449    7.0114 C   0  0  0  0  0  0  0  0  0  0  0  0
    4.0677    3.1150    4.8309 C   0  0  0  0  0  0  0  0  0  0  0  0
   -0.2781    5.6090    5.2874 C   0  0  0  0  0  0  0  0  0  0  0  0
    4.0109    0.7183    4.8701 C   0  0  0  0  0  0  0  0  0  0  0  0
   -0.8183    5.4264    6.5547 C   0  0  0  0  0  0  0  0  0  0  0  0
    4.7123    1.9091    5.0346 C   0  0  0  0  0  0  0  0  0  0  0  0
   -2.0144    3.1144    0.7140 H   0  0  0  0  0  0  0  0  0  0  0  0
   -3.4119    2.1620    0.4089 H   0  0  0  0  0  0  0  0  0  0  0  0
   -2.9830   -0.4964    0.5636 H   0  0  0  0  0  0  0  0  0  0  0  0
   -1.3837   -1.1837    0.2209 H   0  0  0  0  0  0  0  0  0  0  0  0
   -1.7521    2.2705    2.8269 H   0  0  0  0  0  0  0  0  0  0  0  0
   -3.1922    2.6138    2.9203 H   0  0  0  0  0  0  0  0  0  0  0  0
   -1.8661   -1.4349    2.5455 H   0  0  0  0  0  0  0  0  0  0  0  0
   -0.5844   -0.2793    2.3297 H   0  0  0  0  0  0  0  0  0  0  0  0
   -2.3911    1.3781    4.9530 H   0  0  0  0  0  0  0  0  0  0  0  0
   -2.2075   -0.3409    4.9191 H   0  0  0  0  0  0  0  0  0  0  0  0
   -0.1074    0.4796    5.6751 H   0  0  0  0  0  0  0  0  0  0  0  0
    0.1264   -0.2164    4.1400 H   0  0  0  0  0  0  0  0  0  0  0  0
   -0.9515    3.1716   -1.5491 H   0  0  0  0  0  0  0  0  0  0  0  0
   -2.9740   -0.6581   -1.5341 H   0  0  0  0  0  0  0  0  0  0  0  0
   -1.4997    3.4573   -3.9159 H   0  0  0  0  0  0  0  0  0  0  0  0
   -3.4495   -0.4032   -3.8935 H   0  0  0  0  0  0  0  0  0  0  0  0
   -2.7753    1.6708   -5.1007 H   0  0  0  0  0  0  0  0  0  0  0  0
    2.7178    0.4894   -0.7669 H   0  0  0  0  0  0  0  0  0  0  0  0
    2.6963    0.3362    1.0053 H   0  0  0  0  0  0  0  0  0  0  0  0
   -0.9101    2.0683    6.6865 H   0  0  0  0  0  0  0  0  0  0  0  0
    2.2884    4.1045    4.3576 H   0  0  0  0  0  0  0  0  0  0  0  0
    0.3564    4.6997    3.4661 H   0  0  0  0  0  0  0  0  0  0  0  0
    2.1822   -0.2354    4.3562 H   0  0  0  0  0  0  0  0  0  0  0  0
    2.5835   -1.9712   -0.9981 H   0  0  0  0  0  0  0  0  0  0  0  0
    4.0133   -1.4920   -0.0598 H   0  0  0  0  0  0  0  0  0  0  0  0
    2.5762   -2.1488    0.7580 H   0  0  0  0  0  0  0  0  0  0  0  0
   -1.5408    3.9920    7.9901 H   0  0  0  0  0  0  0  0  0  0  0  0
    4.5916    4.0603    4.9486 H   0  0  0  0  0  0  0  0  0  0  0  0
    0.0005    6.6037    4.9495 H   0  0  0  0  0  0  0  0  0  0  0  0
    4.5155   -0.2291    5.0374 H   0  0  0  0  0  0  0  0  0  0  0  0
   -1.0180    6.2826    7.1908 H   0  0  0  0  0  0  0  0  0  0  0  0
    5.7611    1.9002    5.3121 H   0  0  0  0  0  0  0  0  0  0  0  0
  1 12  1  0  0  0  0
  1 23  1  0  0  0  0
  2 12  2  0  0  0  0
  3  8  1  0  0  0  0
  3  9  1  0  0  0  0
  3 10  1  0  0  0  0
  4 21  3  0  0  0  0
  5  6  1  0  0  0  0
  5  7  1  0  0  0  0
  5 11  1  0  0  0  0
  5 12  1  0  0  0  0
  6  8  1  0  0  0  0
  6 35  1  0  0  0  0
  6 36  1  0  0  0  0
  7  9  1  0  0  0  0
  7 37  1  0  0  0  0
  7 38  1  0  0  0  0
  8 39  1  0  0  0  0
  8 40  1  0  0  0  0
  9 41  1  0  0  0  0
  9 42  1  0  0  0  0
 10 13  1  0  0  0  0
 10 43  1  0  0  0  0
 10 44  1  0  0  0  0
 11 15  2  0  0  0  0
 11 16  1  0  0  0  0
 13 14  1  0  0  0  0
 13 45  1  0  0  0  0
 13 46  1  0  0  0  0
 14 17  1  0  0  0  0
 14 18  1  0  0  0  0
 14 21  1  0  0  0  0
 15 19  1  0  0  0  0
 15 47  1  0  0  0  0
 16 20  2  0  0  0  0
 16 48  1  0  0  0  0
 17 24  2  0  0  0  0
 17 26  1  0  0  0  0
 18 25  2  0  0  0  0
 18 27  1  0  0  0  0
 19 22  2  0  0  0  0
 19 49  1  0  0  0  0
 20 22  1  0  0  0  0
 20 50  1  0  0  0  0
 22 51  1  0  0  0  0
 23 28  1  0  0  0  0
 23 52  1  0  0  0  0
 23 53  1  0  0  0  0
 24 29  1  0  0  0  0
 24 54  1  0  0  0  0
 25 30  1  0  0  0  0
 25 55  1  0  0  0  0
 26 31  2  0  0  0  0
 26 56  1  0  0  0  0
 27 32  2  0  0  0  0
 27 57  1  0  0  0  0
 28 58  1  0  0  0  0
 28 59  1  0  0  0  0
 28 60  1  0  0  0  0
 29 33  2  0  0  0  0
 29 61  1  0  0  0  0
 30 34  2  0  0  0  0
 30 62  1  0  0  0  0
 31 33  1  0  0  0  0
 31 63  1  0  0  0  0
 32 34  1  0  0  0  0
 32 64  1  0  0  0  0
 33 65  1  0  0  0  0
 34 66  1  0  0  0  0
M  END
>  <DRUGBANK_ID>
DB01081

>  <SECONDARY_ACCESSION_NUMBERS>
APRD00366

>  <COMMON_NAME>
Diphenoxylate

>  <CAS_NUMBER>
915-30-0

>  <UNII>
73312P173G

>  <SYNONYMS>
1-(3-Cyano-3,3-diphenylpropyl)-4-phenyl-isonipecotic acid ethyl ester; 2,2-Diphenyl-4-(4-carbethoxy-4-phenylpiperidino)butyronitrile; Difenossilato; Difenoxilato; Diphenoxylate; Diphenoxylatum; Ethyl 1-(3-cyano-3,3-diphenylpropyl)-4-phenyl-4-piperidinecarboxylate; Ethyl 1-(3-cyano-3,3-diphenylpropyl)-4-phenylisonipecotate

$$$$
