JI7
 OpenBabel10282417173D

 54 56  0  0  0  0  0  0  0  0999 V2000
   -0.7591    1.3589    0.1221 C   0  0  0  0  0  0  0  0  0  0  0  0
   -1.4468    0.1545    0.2845 C   0  0  0  0  0  0  0  0  0  0  0  0
   -0.7047   -0.9967    0.5164 C   0  0  0  0  0  0  0  0  0  0  0  0
    0.6781   -0.8889    0.4916 C   0  0  0  0  0  0  0  0  0  0  0  0
    1.3272    0.2869    0.5327 N   0  0  0  0  0  0  0  0  0  0  0  0
    0.6162    1.3862    0.2767 C   0  0  0  0  0  0  0  0  0  0  0  0
    1.5467   -2.0534    0.1744 C   0  0  0  0  0  0  0  0  0  0  0  0
    2.3270   -1.9897   -1.1998 C   0  0  2  0  0  0  0  0  0  0  0  0
    3.5112   -1.0434   -1.2462 C   0  0  2  0  0  0  0  0  0  0  0  0
    2.8963    0.1055   -2.0924 C   0  0  0  0  0  0  0  0  0  0  0  0
    2.1746   -0.4753   -3.2114 N   0  0  0  0  0  0  0  0  0  0  0  0
    1.7610   -1.7422   -2.6599 C   0  0  0  0  0  0  0  0  0  0  0  0
    4.6560   -1.6448   -1.9806 N   0  0  0  0  0  0  0  0  0  0  0  0
    5.3444   -2.7804   -1.3396 C   0  0  0  0  0  0  0  0  0  0  0  0
    4.6810   -4.2082   -1.3214 C   0  0  0  0  0  0  0  0  0  0  0  0
    4.0846   -4.6017   -2.6027 N   0  0  0  0  0  0  0  0  0  0  0  0
    3.1625   -5.7662   -2.5943 C   0  0  0  0  0  0  0  0  0  0  0  0
    1.7740   -5.6433   -1.9417 C   0  0  0  0  0  0  0  0  0  0  0  0
    1.0029   -6.6344   -1.3969 C   0  0  0  0  0  0  0  0  0  0  0  0
   -0.2340   -6.3402   -0.7455 C   0  0  0  0  0  0  0  0  0  0  0  0
   -0.7907   -5.0632   -0.7757 C   0  0  0  0  0  0  0  0  0  0  0  0
   -0.2279   -4.1789   -1.6110 C   0  0  0  0  0  0  0  0  0  0  0  0
    1.0587   -4.4675   -2.1205 C   0  0  0  0  0  0  0  0  0  0  0  0
   -1.2149   -2.8382   -2.0647 Cl  0  0  0  0  0  0  0  0  0  0  0  0
   -2.9252    0.0631    0.0660 C   0  0  0  0  0  0  0  0  0  0  0  0
    1.3609    2.4924   -0.0956 N   0  0  0  0  0  0  0  0  0  0  0  0
    2.7299   -2.9817   -1.1556 H   0  0  0  0  0  0  0  0  0  0  0  0
    3.8221   -0.7028   -0.2562 H   0  0  0  0  0  0  0  0  0  0  0  0
   -1.2795    2.2627   -0.1641 H   0  0  0  0  0  0  0  0  0  0  0  0
   -1.1980   -1.9619    0.5840 H   0  0  0  0  0  0  0  0  0  0  0  0
    2.2787   -2.1568    0.9926 H   0  0  0  0  0  0  0  0  0  0  0  0
    0.9701   -2.9808    0.2845 H   0  0  0  0  0  0  0  0  0  0  0  0
    2.1056    0.6038   -1.5573 H   0  0  0  0  0  0  0  0  0  0  0  0
    3.6007    0.8557   -2.4307 H   0  0  0  0  0  0  0  0  0  0  0  0
    2.7917   -0.6387   -4.0036 H   0  0  0  0  0  0  0  0  0  0  0  0
    2.2604   -2.4081   -3.3810 H   0  0  0  0  0  0  0  0  0  0  0  0
    0.7141   -1.8700   -2.8500 H   0  0  0  0  0  0  0  0  0  0  0  0
    4.3940   -1.8741   -2.9349 H   0  0  0  0  0  0  0  0  0  0  0  0
    6.2928   -2.8846   -1.8835 H   0  0  0  0  0  0  0  0  0  0  0  0
    5.6220   -2.4973   -0.3175 H   0  0  0  0  0  0  0  0  0  0  0  0
    5.4466   -4.9402   -1.0451 H   0  0  0  0  0  0  0  0  0  0  0  0
    3.9530   -4.2457   -0.5056 H   0  0  0  0  0  0  0  0  0  0  0  0
    3.7206   -3.8046   -3.1107 H   0  0  0  0  0  0  0  0  0  0  0  0
    2.9828   -5.9859   -3.6551 H   0  0  0  0  0  0  0  0  0  0  0  0
    3.7095   -6.6156   -2.1768 H   0  0  0  0  0  0  0  0  0  0  0  0
    1.3010   -7.6754   -1.5006 H   0  0  0  0  0  0  0  0  0  0  0  0
   -0.8125   -7.1110   -0.2708 H   0  0  0  0  0  0  0  0  0  0  0  0
   -1.7187   -4.8017   -0.2655 H   0  0  0  0  0  0  0  0  0  0  0  0
    1.6122   -3.8225   -2.7072 H   0  0  0  0  0  0  0  0  0  0  0  0
   -3.1503   -0.4626   -0.8696 H   0  0  0  0  0  0  0  0  0  0  0  0
   -3.3916   -0.4756    0.8956 H   0  0  0  0  0  0  0  0  0  0  0  0
   -3.3754    1.0583    0.0097 H   0  0  0  0  0  0  0  0  0  0  0  0
    2.3412    2.3342    0.1165 H   0  0  0  0  0  0  0  0  0  0  0  0
    0.9885    3.3864    0.1715 H   0  0  0  0  0  0  0  0  0  0  0  0
  1  2  1  0  0  0  0
  1 29  1  0  0  0  0
  2 25  1  0  0  0  0
  3  2  2  0  0  0  0
  3 30  1  0  0  0  0
  4  3  1  0  0  0  0
  5  4  2  0  0  0  0
  5  6  1  0  0  0  0
  6  1  2  0  0  0  0
  7  4  1  0  0  0  0
  7 31  1  0  0  0  0
  7 32  1  0  0  0  0
  8  7  1  0  0  0  0
  8 12  1  0  0  0  0
  8 27  1  6  0  0  0
  9 13  1  0  0  0  0
  9  8  1  0  0  0  0
  9 28  1  1  0  0  0
 10 11  1  0  0  0  0
 10  9  1  0  0  0  0
 10 33  1  0  0  0  0
 10 34  1  0  0  0  0
 11 12  1  0  0  0  0
 11 35  1  0  0  0  0
 12 36  1  0  0  0  0
 12 37  1  0  0  0  0
 13 38  1  0  0  0  0
 14 13  1  0  0  0  0
 14 39  1  0  0  0  0
 14 40  1  0  0  0  0
 15 14  1  0  0  0  0
 15 41  1  0  0  0  0
 15 42  1  0  0  0  0
 16 15  1  0  0  0  0
 16 43  1  0  0  0  0
 17 16  1  0  0  0  0
 17 44  1  0  0  0  0
 17 45  1  0  0  0  0
 18 19  1  0  0  0  0
 18 17  1  0  0  0  0
 19 46  1  0  0  0  0
 20 19  2  0  0  0  0
 20 47  1  0  0  0  0
 21 20  1  0  0  0  0
 21 48  1  0  0  0  0
 22 21  2  0  0  0  0
 22 23  1  0  0  0  0
 23 18  2  0  0  0  0
 23 49  1  0  0  0  0
 24 22  1  0  0  0  0
 25 50  1  0  0  0  0
 25 51  1  0  0  0  0
 25 52  1  0  0  0  0
 26  6  1  0  0  0  0
 26 53  1  0  0  0  0
 26 54  1  0  0  0  0
M  END
>  <DRUGBANK_ID>
DB08019

>  <COMMON_NAME>
N-{(3R,4S)-4-[(6-amino-4-methylpyridin-2-yl)methyl]pyrrolidin-3-yl}-N'-(3-chlorobenzyl)ethane-1,2-diamine

$$$$
