
 OpenBabel10282417133D

 22 22  0  0  1  0  0  0  0  0999 V2000
    0.8178   -0.1011   -0.0663 C   0  0  0  0  0  0  0  0  0  0  0  0
   -1.4573   -2.2561   -2.8632 C   0  0  0  0  0  0  0  0  0  0  0  0
   -1.1311   -1.4851   -4.1410 C   0  0  0  0  0  0  0  0  0  0  0  0
   -1.4824   -1.1716   -1.8042 C   0  0  0  0  0  0  0  0  0  0  0  0
    0.3990    0.4754   -1.3933 C   0  0  0  0  0  0  0  0  0  0  0  0
   -0.3137   -0.2514   -3.6834 C   0  0  1  0  0  0  0  0  0  0  0  0
   -0.8354    1.0245   -4.3652 C   0  0  0  0  0  0  0  0  0  0  0  0
   -0.4123   -0.2800   -2.2115 N   0  0  0  0  0  0  0  0  0  0  0  0
    0.8855    1.5551   -1.7238 O   0  0  0  0  0  0  0  0  0  0  0  0
   -1.6313    1.0781   -5.2966 O   0  0  0  0  0  0  0  0  0  0  0  0
   -0.2470    2.1506   -3.9356 O   0  0  0  0  0  0  0  0  0  0  0  0
    0.7406   -0.3767   -3.9616 H   0  0  0  0  0  0  0  0  0  0  0  0
    0.5081   -1.1342    0.0804 H   0  0  0  0  0  0  0  0  0  0  0  0
    0.4598    0.5281    0.7514 H   0  0  0  0  0  0  0  0  0  0  0  0
    1.9162   -0.0925   -0.0534 H   0  0  0  0  0  0  0  0  0  0  0  0
   -0.6615   -2.9777   -2.6460 H   0  0  0  0  0  0  0  0  0  0  0  0
   -2.4027   -2.8032   -2.9381 H   0  0  0  0  0  0  0  0  0  0  0  0
   -0.5727   -2.1086   -4.8491 H   0  0  0  0  0  0  0  0  0  0  0  0
   -2.0667   -1.2046   -4.6378 H   0  0  0  0  0  0  0  0  0  0  0  0
   -2.4166   -0.5995   -1.8818 H   0  0  0  0  0  0  0  0  0  0  0  0
   -1.3942   -1.5423   -0.7833 H   0  0  0  0  0  0  0  0  0  0  0  0
   -0.6469    2.9055   -4.4038 H   0  0  0  0  0  0  0  0  0  0  0  0
  1 13  1  0  0  0  0
  1 14  1  0  0  0  0
  1 15  1  0  0  0  0
  2 16  1  0  0  0  0
  2 17  1  0  0  0  0
  3  2  1  0  0  0  0
  3 18  1  0  0  0  0
  3 19  1  0  0  0  0
  4  2  1  0  0  0  0
  4 20  1  0  0  0  0
  4 21  1  0  0  0  0
  5  1  1  0  0  0  0
  6  3  1  0  0  0  0
  6 12  1  6  0  0  0
  6  7  1  0  0  0  0
  8  4  1  0  0  0  0
  8  5  1  0  0  0  0
  8  6  1  0  0  0  0
  9  5  2  0  0  0  0
 10  7  2  0  0  0  0
 11  7  1  0  0  0  0
 11 22  1  0  0  0  0
M  END
>  <DRUGBANK_ID>
DB03360

>  <SECONDARY_ACCESSION_NUMBERS>
EXPT02279

>  <COMMON_NAME>
N-Acetylproline

>  <CAS_NUMBER>
68-95-1

>  <UNII>
CC8XZ138VZ

>  <SYNONYMS>
(2S)-1-acetylpyrrolidine-2-carboxylic acid; (S)-(-)-N-acetylproline; (S)-1-acetylpyrrolidine-2-carboxylic acid; (S)-N-acetylproline; 1-acetylproline; Acetyl proline; N-acetyl-L-proline

$$$$
