BEK
 OpenBabel10282417123D

 20 20  0  0  0  0  0  0  0  0999 V2000
    1.0009   -0.0761    0.0268 C   0  0  0  0  0  0  0  0  0  0  0  0
    0.3566   -1.1180    0.0288 O   0  0  0  0  0  0  0  0  0  0  0  0
    0.3361    1.1184    0.0212 N   0  0  0  0  0  0  0  0  0  0  0  0
    2.4873   -0.0670    0.0269 C   0  0  0  0  0  0  0  0  0  0  0  0
    3.2332    1.1107    0.0270 C   0  0  0  0  0  0  0  0  0  0  0  0
    3.1877   -1.2757    0.0262 C   0  0  0  0  0  0  0  0  0  0  0  0
    2.6261    2.3087    0.0429 F   0  0  0  0  0  0  0  0  0  0  0  0
    2.5486   -2.4542    0.0352 F   0  0  0  0  0  0  0  0  0  0  0  0
    4.6331    1.0765    0.0144 C   0  0  0  0  0  0  0  0  0  0  0  0
    4.5859   -1.3063    0.0189 C   0  0  0  0  0  0  0  0  0  0  0  0
    5.3365   -0.1324    0.0080 C   0  0  0  0  0  0  0  0  0  0  0  0
    5.3015    2.2409    0.0109 F   0  0  0  0  0  0  0  0  0  0  0  0
    5.1802   -2.5084    0.0255 F   0  0  0  0  0  0  0  0  0  0  0  0
    6.7042   -0.0438   -0.0061 O   0  0  0  0  0  0  0  0  0  0  0  0
    7.4390   -1.2680   -0.0074 C   0  0  0  0  0  0  0  0  0  0  0  0
    0.7876    2.0250    0.0201 H   0  0  0  0  0  0  0  0  0  0  0  0
   -0.6769    1.0917    0.0209 H   0  0  0  0  0  0  0  0  0  0  0  0
    7.2440   -1.8447    0.9032 H   0  0  0  0  0  0  0  0  0  0  0  0
    7.2250   -1.8556   -0.9068 H   0  0  0  0  0  0  0  0  0  0  0  0
    8.5075   -1.0307   -0.0200 H   0  0  0  0  0  0  0  0  0  0  0  0
  1  2  2  0  0  0  0
  1  3  1  0  0  0  0
  1  4  1  0  0  0  0
  3 16  1  0  0  0  0
  3 17  1  0  0  0  0
  4  5  2  0  0  0  0
  4  6  1  0  0  0  0
  5  7  1  0  0  0  0
  5  9  1  0  0  0  0
  6  8  1  0  0  0  0
  6 10  2  0  0  0  0
  9 11  2  0  0  0  0
  9 12  1  0  0  0  0
 10 11  1  0  0  0  0
 10 13  1  0  0  0  0
 11 14  1  0  0  0  0
 14 15  1  0  0  0  0
 15 18  1  0  0  0  0
 15 19  1  0  0  0  0
 15 20  1  0  0  0  0
M  END
>  <DRUGBANK_ID>
DB01827

>  <SECONDARY_ACCESSION_NUMBERS>
EXPT00667

>  <COMMON_NAME>
2,3,5,6-Tetrafluoro-4-Methoxy-Benzamide

$$$$
