
 OpenBabel10282417153D

 57 61  0  0  1  0  0  0  0  0999 V2000
   -0.6659    1.8977    1.1090 C   0  0  0  0  0  0  0  0  0  0  0  0
   -0.8531    3.2575    1.8858 C   0  0  1  0  0  0  0  0  0  0  0  0
    0.3212    4.2312    2.2300 C   0  0  0  0  0  0  0  0  0  0  0  0
    1.3675    3.6449    1.3432 C   0  0  0  0  0  0  0  0  0  0  0  0
    1.4861    2.0252    1.7006 C   0  0  2  0  0  0  0  0  0  0  0  0
    0.0683    1.0694    2.0912 C   0  0  0  0  0  0  0  0  0  0  0  0
    1.6724    4.3760    0.3209 C   0  0  0  0  0  0  0  0  0  0  0  0
    2.0965    3.8594   -1.0370 C   0  0  0  0  0  0  0  0  0  0  0  0
    1.6235    2.4309   -1.0897 C   0  0  2  0  0  0  0  0  0  0  0  0
    2.1231    1.4413    0.2319 C   0  0  2  0  0  0  0  0  0  0  0  0
    1.6924   -0.1893   -1.6216 C   0  0  0  0  0  0  0  0  0  0  0  0
    1.6334   -0.0224   -0.1255 C   0  0  0  0  0  0  0  0  0  0  0  0
   -1.8975    3.9906    1.2954 O   0  0  0  0  0  0  0  0  0  0  0  0
    1.7659    2.0271    3.2497 C   0  0  0  0  0  0  0  0  0  0  0  0
    3.2201    1.4975    0.2099 H   0  0  0  0  0  0  0  0  0  0  0  0
    0.5731    2.5643   -0.8673 H   0  0  0  0  0  0  0  0  0  0  0  0
   -0.5286   -0.2328   -2.3783 C   0  0  0  0  0  0  0  0  0  0  0  0
    2.6723    1.5570   -2.7946 H   0  0  0  0  0  0  0  0  0  0  0  0
   -0.6336    2.3127   -2.6166 C   0  0  0  0  0  0  0  0  0  0  0  0
    0.5474    0.8189   -2.5239 C   0  0  2  0  0  0  0  0  0  0  0  0
    1.6296    1.8057   -2.5404 C   0  0  1  0  0  0  0  0  0  0  0  0
    1.1099    2.2767   -3.9331 C   0  0  0  0  0  0  0  0  0  0  0  0
   -0.4533    2.2182   -3.9352 C   0  0  0  0  0  0  0  0  0  0  0  0
   -0.6101    4.0697   -2.8778 C   0  0  0  0  0  0  0  0  0  0  0  0
   -1.1561    5.0653   -2.0535 C   0  0  0  0  0  0  0  0  0  0  0  0
   -0.0838    4.7551   -4.0641 C   0  0  0  0  0  0  0  0  0  0  0  0
   -0.9406    6.4550   -2.1650 N   0  0  0  0  0  0  0  0  0  0  0  0
    0.2553    6.1161   -4.1695 C   0  0  0  0  0  0  0  0  0  0  0  0
   -0.1614    6.9309   -3.1622 C   0  0  0  0  0  0  0  0  0  0  0  0
   -1.2497    1.6886    0.2022 H   0  0  0  0  0  0  0  0  0  0  0  0
    0.0883    1.5929    0.4259 H   0  0  0  0  0  0  0  0  0  0  0  0
   -1.2055    2.9565    2.8757 H   0  0  0  0  0  0  0  0  0  0  0  0
    0.6742    4.2605    3.2666 H   0  0  0  0  0  0  0  0  0  0  0  0
    0.1210    5.2962    2.0240 H   0  0  0  0  0  0  0  0  0  0  0  0
   -0.7250    0.3277    1.8494 H   0  0  0  0  0  0  0  0  0  0  0  0
    0.6557    0.1217    2.1551 H   0  0  0  0  0  0  0  0  0  0  0  0
    1.3074    5.4367    0.2227 H   0  0  0  0  0  0  0  0  0  0  0  0
    3.1452    3.9985   -1.2450 H   0  0  0  0  0  0  0  0  0  0  0  0
    1.5560    4.4345   -1.7933 H   0  0  0  0  0  0  0  0  0  0  0  0
    1.5887   -1.2588   -1.8864 H   0  0  0  0  0  0  0  0  0  0  0  0
    2.7535   -0.0746   -1.9139 H   0  0  0  0  0  0  0  0  0  0  0  0
    0.5898   -0.2967    0.0737 H   0  0  0  0  0  0  0  0  0  0  0  0
    2.1956   -0.7807    0.4371 H   0  0  0  0  0  0  0  0  0  0  0  0
   -2.0830    4.6824    1.9528 H   0  0  0  0  0  0  0  0  0  0  0  0
    0.7675    2.1683    3.7633 H   0  0  0  0  0  0  0  0  0  0  0  0
    2.0849    1.0889    3.6936 H   0  0  0  0  0  0  0  0  0  0  0  0
    2.2802    2.9016    3.6530 H   0  0  0  0  0  0  0  0  0  0  0  0
   -1.2333   -0.0198   -1.5891 H   0  0  0  0  0  0  0  0  0  0  0  0
   -1.0334   -0.3377   -3.3476 H   0  0  0  0  0  0  0  0  0  0  0  0
   -0.2005   -1.2784   -2.2668 H   0  0  0  0  0  0  0  0  0  0  0  0
    1.5545    3.2562   -4.0632 H   0  0  0  0  0  0  0  0  0  0  0  0
    1.4277    1.6659   -4.7793 H   0  0  0  0  0  0  0  0  0  0  0  0
   -1.0403    1.4043   -4.3595 H   0  0  0  0  0  0  0  0  0  0  0  0
   -1.8403    4.8555   -1.2396 H   0  0  0  0  0  0  0  0  0  0  0  0
    0.1430    4.2182   -4.9878 H   0  0  0  0  0  0  0  0  0  0  0  0
    0.8513    6.4879   -5.0011 H   0  0  0  0  0  0  0  0  0  0  0  0
    0.1131    7.9869   -3.1535 H   0  0  0  0  0  0  0  0  0  0  0  0
  1  2  1  0  0  0  0
  1  6  1  0  0  0  0
  1 30  1  0  0  0  0
  1 31  1  0  0  0  0
  2  3  1  0  0  0  0
  2 32  1  1  0  0  0
  2 13  1  0  0  0  0
  3  4  1  0  0  0  0
  3 33  1  0  0  0  0
  3 34  1  0  0  0  0
  4  5  1  0  0  0  0
  4  7  2  0  0  0  0
  5  6  1  0  0  0  0
  5 10  1  0  0  0  0
  5 14  1  6  0  0  0
  6 35  1  0  0  0  0
  6 36  1  0  0  0  0
  7  8  1  0  0  0  0
  7 37  1  0  0  0  0
  8  9  1  0  0  0  0
  8 38  1  0  0  0  0
  8 39  1  0  0  0  0
  9 10  1  0  0  0  0
  9 21  1  0  0  0  0
  9 16  1  1  0  0  0
 10 12  1  0  0  0  0
 10 15  1  1  0  0  0
 11 12  1  0  0  0  0
 11 40  1  0  0  0  0
 11 41  1  0  0  0  0
 12 42  1  0  0  0  0
 12 43  1  0  0  0  0
 13 44  1  0  0  0  0
 14 45  1  0  0  0  0
 14 46  1  0  0  0  0
 14 47  1  0  0  0  0
 17 48  1  0  0  0  0
 17 49  1  0  0  0  0
 17 50  1  0  0  0  0
 19 20  1  0  0  0  0
 19 23  2  0  0  0  0
 19 24  1  0  0  0  0
 20 11  1  0  0  0  0
 20 17  1  1  0  0  0
 20 21  1  0  0  0  0
 21 18  1  6  0  0  0
 21 22  1  0  0  0  0
 22 23  1  0  0  0  0
 22 51  1  0  0  0  0
 22 52  1  0  0  0  0
 23 53  1  0  0  0  0
 25 24  1  0  0  0  0
 25 54  1  0  0  0  0
 26 24  2  0  0  0  0
 26 55  1  0  0  0  0
 27 25  2  0  0  0  0
 28 26  1  0  0  0  0
 28 56  1  0  0  0  0
 29 27  1  0  0  0  0
 29 28  2  0  0  0  0
 29 57  1  0  0  0  0
M  END
>  <DRUGBANK_ID>
DB05812

>  <COMMON_NAME>
Abiraterone

>  <CAS_NUMBER>
154229-19-3

>  <UNII>
G819A456D0

>  <SYNONYMS>
(3Î²)-17-(pyridin-3-yl)androsta-5,16-dien-3-ol; 17-(3-Pyridyl)androsta-5,16-dien-3beta-ol; Abiraterona; Abiraterone

$$$$
