SAV
 OpenBabel10282417173D

 52 55  0  0  0  0  0  0  0  0999 V2000
    0.9551    0.0582    0.0954 N   0  0  0  0  0  0  0  0  0  0  0  0
    0.3605   -2.3438    4.1253 N   0  0  0  0  0  0  0  0  0  0  0  0
    0.3030    1.0695   -0.6207 C   0  0  0  0  0  0  0  0  0  0  0  0
    0.3328   -0.9559    0.7950 C   0  0  0  0  0  0  0  0  0  0  0  0
   -1.2464   -2.6103    0.8524 C   0  0  0  0  0  0  0  0  0  0  0  0
   -0.9129   -2.9321    2.1498 C   0  0  0  0  0  0  0  0  0  0  0  0
    0.1034   -2.1776    2.7344 C   0  0  0  0  0  0  0  0  0  0  0  0
    1.5231   -0.4157    5.1736 C   0  0  0  0  0  0  0  0  0  0  0  0
    4.9986   -0.6810    7.1132 C   0  0  0  0  0  0  0  0  0  0  0  0
    3.5600   -2.0235    6.0060 C   0  0  0  0  0  0  0  0  0  0  0  0
    0.6820    1.3624   -1.9285 C   0  0  0  0  0  0  0  0  0  0  0  0
   -1.1493    2.9584   -2.1425 C   0  0  0  0  0  0  0  0  0  0  0  0
   -1.5053    4.4321   -4.0395 C   0  0  0  0  0  0  0  0  0  0  0  0
   -3.6697    3.7673   -0.9572 C   0  0  0  0  0  0  0  0  0  0  0  0
   -2.6981    3.0673   -0.1859 O   0  0  0  0  0  0  0  0  0  0  0  0
   -1.5719    2.6215   -0.8422 C   0  0  0  0  0  0  0  0  0  0  0  0
   -0.8160    1.7183   -0.0844 C   0  0  0  0  0  0  0  0  0  0  0  0
   -0.6692   -1.6187    0.1825 N   0  0  0  0  0  0  0  0  0  0  0  0
    1.4397   -1.7731    4.8543 C   0  0  0  0  0  0  0  0  0  0  0  0
    2.6137    0.1427    5.9516 C   0  0  0  0  0  0  0  0  0  0  0  0
    3.7040   -0.6850    6.3840 C   0  0  0  0  0  0  0  0  0  0  0  0
    5.9442    0.2616    7.8245 C   0  0  0  0  0  0  0  0  0  0  0  0
    5.5047   -1.9244    7.1583 N   0  0  0  0  0  0  0  0  0  0  0  0
    4.6357   -2.6781    6.5125 N   0  0  0  0  0  0  0  0  0  0  0  0
    2.4967   -2.5773    5.2646 C   0  0  0  0  0  0  0  0  0  0  0  0
    0.7600   -1.2420    2.0372 N   0  0  0  0  0  0  0  0  0  0  0  0
   -0.0419    2.2841   -2.6996 C   0  0  0  0  0  0  0  0  0  0  0  0
    0.2448    2.5457   -4.0105 O   0  0  0  0  0  0  0  0  0  0  0  0
    1.2906    1.8390   -4.6461 C   0  0  0  0  0  0  0  0  0  0  0  0
   -1.8631    3.9507   -2.7597 O   0  0  0  0  0  0  0  0  0  0  0  0
    1.9541    0.1032    0.2315 H   0  0  0  0  0  0  0  0  0  0  0  0
    0.1521   -3.2890    4.4260 H   0  0  0  0  0  0  0  0  0  0  0  0
   -2.0191   -3.1454    0.3044 H   0  0  0  0  0  0  0  0  0  0  0  0
   -1.4356   -3.7266    2.6570 H   0  0  0  0  0  0  0  0  0  0  0  0
    0.7025    0.2242    4.8408 H   0  0  0  0  0  0  0  0  0  0  0  0
    1.5171    0.8118   -2.3487 H   0  0  0  0  0  0  0  0  0  0  0  0
   -0.4852    4.8277   -4.0484 H   0  0  0  0  0  0  0  0  0  0  0  0
   -1.6712    3.6632   -4.7993 H   0  0  0  0  0  0  0  0  0  0  0  0
   -2.1758    5.2629   -4.2764 H   0  0  0  0  0  0  0  0  0  0  0  0
   -3.3121    4.7780   -1.1779 H   0  0  0  0  0  0  0  0  0  0  0  0
   -3.9494    3.2185   -1.8655 H   0  0  0  0  0  0  0  0  0  0  0  0
   -4.5799    3.8800   -0.3628 H   0  0  0  0  0  0  0  0  0  0  0  0
   -1.1104    1.5164    0.9439 H   0  0  0  0  0  0  0  0  0  0  0  0
    2.5450    1.2026    6.1934 H   0  0  0  0  0  0  0  0  0  0  0  0
    6.0683   -0.0629    8.8735 H   0  0  0  0  0  0  0  0  0  0  0  0
    6.9621    0.1322    7.4081 H   0  0  0  0  0  0  0  0  0  0  0  0
    5.7327    1.3290    7.8239 H   0  0  0  0  0  0  0  0  0  0  0  0
    4.8190   -3.6664    6.4543 H   0  0  0  0  0  0  0  0  0  0  0  0
    2.5202   -3.6315    5.0134 H   0  0  0  0  0  0  0  0  0  0  0  0
    2.2496    2.0740   -4.1778 H   0  0  0  0  0  0  0  0  0  0  0  0
    1.0923    0.7633   -4.6574 H   0  0  0  0  0  0  0  0  0  0  0  0
    1.3268    2.1848   -5.6834 H   0  0  0  0  0  0  0  0  0  0  0  0
  1  3  1  0  0  0  0
  1  4  1  0  0  0  0
  1 31  1  0  0  0  0
  2  7  1  0  0  0  0
  2 19  1  0  0  0  0
  2 32  1  0  0  0  0
  3 11  2  0  0  0  0
  3 17  1  0  0  0  0
  4 18  2  0  0  0  0
  4 26  1  0  0  0  0
  5  6  2  0  0  0  0
  5 18  1  0  0  0  0
  5 33  1  0  0  0  0
  6  7  1  0  0  0  0
  6 34  1  0  0  0  0
  7 26  2  0  0  0  0
  8 19  2  0  0  0  0
  8 20  1  0  0  0  0
  8 35  1  0  0  0  0
  9 21  1  0  0  0  0
  9 22  1  0  0  0  0
  9 23  2  0  0  0  0
 10 21  1  0  0  0  0
 10 24  1  0  0  0  0
 10 25  2  0  0  0  0
 11 27  1  0  0  0  0
 11 36  1  0  0  0  0
 12 16  1  0  0  0  0
 12 27  2  0  0  0  0
 12 30  1  0  0  0  0
 13 30  1  0  0  0  0
 13 37  1  0  0  0  0
 13 38  1  0  0  0  0
 13 39  1  0  0  0  0
 14 15  1  0  0  0  0
 14 40  1  0  0  0  0
 14 41  1  0  0  0  0
 14 42  1  0  0  0  0
 15 16  1  0  0  0  0
 16 17  2  0  0  0  0
 17 43  1  0  0  0  0
 19 25  1  0  0  0  0
 20 21  2  0  0  0  0
 20 44  1  0  0  0  0
 22 45  1  0  0  0  0
 22 46  1  0  0  0  0
 22 47  1  0  0  0  0
 23 24  1  0  0  0  0
 24 48  1  0  0  0  0
 25 49  1  0  0  0  0
 27 28  1  0  0  0  0
 28 29  1  0  0  0  0
 29 50  1  0  0  0  0
 29 51  1  0  0  0  0
 29 52  1  0  0  0  0
M  END
>  <DRUGBANK_ID>
DB08519

>  <COMMON_NAME>
N~4~-(3-methyl-1H-indazol-6-yl)-N~2~-(3,4,5-trimethoxyphenyl)pyrimidine-2,4-diamine

$$$$
