
 OpenBabel10282417153D

 60 60  0  0  0  0  0  0  0  0999 V2000
    0.5607    1.1962   -0.0937 C   0  0  0  0  0  0  0  0  0  0  0  0
    1.2600    2.5344   -0.1548 C   0  0  0  0  0  0  0  0  0  0  0  0
   -0.8219    1.1334    0.0430 C   0  0  0  0  0  0  0  0  0  0  0  0
    1.2654   -0.0163   -0.1836 C   0  0  0  0  0  0  0  0  0  0  0  0
    2.2635    2.7296    0.9913 C   0  0  0  0  0  0  0  0  0  0  0  0
   -1.4665   -0.1061   -0.0052 C   0  0  0  0  0  0  0  0  0  0  0  0
    0.6534   -1.2445   -0.0060 C   0  0  0  0  0  0  0  0  0  0  0  0
   -0.7257   -1.2895   -0.0136 C   0  0  0  0  0  0  0  0  0  0  0  0
   -1.6529   -3.1325   -0.1714 I   0  0  0  0  0  0  0  0  0  0  0  0
    3.4047    1.7090    0.9662 C   0  0  0  0  0  0  0  0  0  0  0  0
    4.1148    1.7311   -0.4001 C   0  0  0  0  0  0  0  0  0  0  0  0
    4.8020    3.0804   -0.5818 C   0  0  0  0  0  0  0  0  0  0  0  0
    5.8100    3.2783    0.5503 C   0  0  0  0  0  0  0  0  0  0  0  0
    6.8454    2.1485    0.5141 C   0  0  0  0  0  0  0  0  0  0  0  0
    7.5852    2.1836   -0.8258 C   0  0  0  0  0  0  0  0  0  0  0  0
    8.2770    3.5402   -0.9855 C   0  0  0  0  0  0  0  0  0  0  0  0
    9.2657    3.7544    0.1685 C   0  0  0  0  0  0  0  0  0  0  0  0
   10.3292    2.6492    0.1765 C   0  0  0  0  0  0  0  0  0  0  0  0
   11.1046    2.6534   -1.1403 C   0  0  0  0  0  0  0  0  0  0  0  0
   11.7729    4.0158   -1.4113 C   0  0  3  0  0  0  0  0  0  0  0  0
   12.7721    4.2931   -0.2804 C   0  0  0  0  0  0  0  0  0  0  0  0
   12.4458    4.0696   -2.7863 C   0  0  0  0  0  0  0  0  0  0  0  0
   11.4721    3.8603   -3.9332 C   0  0  0  0  0  0  0  0  0  0  0  0
   11.3486    4.9014   -4.7786 O   0  0  0  0  0  0  0  0  0  0  0  0
   10.8377    2.8239   -4.1192 O   0  0  0  0  0  0  0  0  0  0  0  0
    1.7336    2.6425   -1.1385 H   0  0  0  0  0  0  0  0  0  0  0  0
    0.5349    3.3565   -0.1181 H   0  0  0  0  0  0  0  0  0  0  0  0
   -1.4048    2.0449    0.1467 H   0  0  0  0  0  0  0  0  0  0  0  0
    2.3275   -0.0584   -0.3849 H   0  0  0  0  0  0  0  0  0  0  0  0
    2.6782    3.7441    0.9297 H   0  0  0  0  0  0  0  0  0  0  0  0
    1.7566    2.6822    1.9593 H   0  0  0  0  0  0  0  0  0  0  0  0
   -2.5495   -0.1319   -0.0446 H   0  0  0  0  0  0  0  0  0  0  0  0
    1.2744   -2.1321    0.0765 H   0  0  0  0  0  0  0  0  0  0  0  0
    4.0919    1.8923    1.7944 H   0  0  0  0  0  0  0  0  0  0  0  0
    3.0584    0.7112    1.2336 H   0  0  0  0  0  0  0  0  0  0  0  0
    4.8108    0.8888   -0.4742 H   0  0  0  0  0  0  0  0  0  0  0  0
    3.4493    1.5655   -1.2517 H   0  0  0  0  0  0  0  0  0  0  0  0
    5.2677    3.1302   -1.5711 H   0  0  0  0  0  0  0  0  0  0  0  0
    4.0824    3.9029   -0.5960 H   0  0  0  0  0  0  0  0  0  0  0  0
    6.2597    4.2702    0.4740 H   0  0  0  0  0  0  0  0  0  0  0  0
    5.3352    3.3126    1.5330 H   0  0  0  0  0  0  0  0  0  0  0  0
    7.5207    2.2410    1.3683 H   0  0  0  0  0  0  0  0  0  0  0  0
    6.4018    1.1602    0.6650 H   0  0  0  0  0  0  0  0  0  0  0  0
    8.2884    1.3489   -0.8837 H   0  0  0  0  0  0  0  0  0  0  0  0
    6.9174    2.0044   -1.6739 H   0  0  0  0  0  0  0  0  0  0  0  0
    8.7564    3.5986   -1.9661 H   0  0  0  0  0  0  0  0  0  0  0  0
    7.5601    4.3668   -1.0137 H   0  0  0  0  0  0  0  0  0  0  0  0
    9.7053    4.7516    0.0927 H   0  0  0  0  0  0  0  0  0  0  0  0
    8.7625    3.7797    1.1395 H   0  0  0  0  0  0  0  0  0  0  0  0
   10.9897    2.7629    1.0378 H   0  0  0  0  0  0  0  0  0  0  0  0
    9.8802    1.6604    0.3197 H   0  0  0  0  0  0  0  0  0  0  0  0
   11.8461    1.8488   -1.1484 H   0  0  0  0  0  0  0  0  0  0  0  0
   10.4048    2.3930   -1.9366 H   0  0  0  0  0  0  0  0  0  0  0  0
   11.0264    4.8186   -1.4129 H   0  0  0  0  0  0  0  0  0  0  0  0
   13.5244    3.4986   -0.2341 H   0  0  0  0  0  0  0  0  0  0  0  0
   13.2719    5.2544   -0.4076 H   0  0  0  0  0  0  0  0  0  0  0  0
   12.2793    4.3319    0.6980 H   0  0  0  0  0  0  0  0  0  0  0  0
   12.9381    5.0430   -2.8996 H   0  0  0  0  0  0  0  0  0  0  0  0
   13.2275    3.3079   -2.8593 H   0  0  0  0  0  0  0  0  0  0  0  0
   11.9143    5.6711   -4.5899 H   0  0  0  0  0  0  0  0  0  0  0  0
  1  4  1  0  0  0  0
  1  2  1  0  0  0  0
  1  3  2  0  0  0  0
  2  5  1  0  0  0  0
  2 26  1  0  0  0  0
  2 27  1  0  0  0  0
  3  6  1  0  0  0  0
  3 28  1  0  0  0  0
  4  7  2  0  0  0  0
  4 29  1  0  0  0  0
  5 10  1  0  0  0  0
  5 30  1  0  0  0  0
  5 31  1  0  0  0  0
  6  8  2  0  0  0  0
  6 32  1  0  0  0  0
  7  8  1  0  0  0  0
  7 33  1  0  0  0  0
  8  9  1  0  0  0  0
 10 11  1  0  0  0  0
 10 34  1  0  0  0  0
 10 35  1  0  0  0  0
 11 12  1  0  0  0  0
 11 36  1  0  0  0  0
 11 37  1  0  0  0  0
 12 13  1  0  0  0  0
 12 38  1  0  0  0  0
 12 39  1  0  0  0  0
 13 14  1  0  0  0  0
 13 40  1  0  0  0  0
 13 41  1  0  0  0  0
 14 15  1  0  0  0  0
 14 42  1  0  0  0  0
 14 43  1  0  0  0  0
 15 16  1  0  0  0  0
 15 44  1  0  0  0  0
 15 45  1  0  0  0  0
 16 17  1  0  0  0  0
 16 46  1  0  0  0  0
 16 47  1  0  0  0  0
 17 18  1  0  0  0  0
 17 48  1  0  0  0  0
 17 49  1  0  0  0  0
 18 19  1  0  0  0  0
 18 50  1  0  0  0  0
 18 51  1  0  0  0  0
 19 20  1  0  0  0  0
 19 52  1  0  0  0  0
 19 53  1  0  0  0  0
 20 21  1  0  0  0  0
 20 22  1  0  0  0  0
 20 54  1  0  0  0  0
 21 55  1  0  0  0  0
 21 56  1  0  0  0  0
 21 57  1  0  0  0  0
 22 23  1  0  0  0  0
 22 58  1  0  0  0  0
 22 59  1  0  0  0  0
 23 24  1  0  0  0  0
 23 25  2  0  0  0  0
 24 60  1  0  0  0  0
M  ISO  1   9 123
M  END
>  <DRUGBANK_ID>
DB05683

>  <COMMON_NAME>
Iodofiltic acid I-123

>  <CAS_NUMBER>
123748-56-1

>  <UNII>
0J7USQ749M

>  <SYNONYMS>
I-123 BMIPP; Iodofiltic acid (123I); Iodofiltic acid I 123

$$$$
