
 OpenBabel10282417103D

 19 18  0  0  0  0  0  0  0  0999 V2000
    1.0229   -0.1178   -0.1582 O   0  0  0  0  0  0  0  0  0  0  0  0
    2.2464   -0.0696   -0.1147 C   0  0  0  0  0  0  0  0  0  0  0  0
    3.0062   -0.8237   -0.9469 O   0  0  0  0  0  0  0  0  0  0  0  0
    3.0576    0.8074    0.8699 C   0  0  1  0  0  0  0  0  0  0  0  0
    2.7368    2.2251    0.6254 N   0  0  0  0  0  0  0  0  0  0  0  0
    2.7222    0.4089    2.3272 C   0  0  0  0  0  0  0  0  0  0  0  0
    3.0727   -1.0616    2.5826 C   0  0  0  0  0  0  0  0  0  0  0  0
    3.4656    1.2758    3.3518 C   0  0  0  0  0  0  0  0  0  0  0  0
    3.9706   -0.7372   -0.8420 H   0  0  0  0  0  0  0  0  0  0  0  0
    4.1304    0.6651    0.6907 H   0  0  0  0  0  0  0  0  0  0  0  0
    3.2525    2.8338    1.2553 H   0  0  0  0  0  0  0  0  0  0  0  0
    2.9730    2.4968   -0.3258 H   0  0  0  0  0  0  0  0  0  0  0  0
    1.6433    0.5317    2.4955 H   0  0  0  0  0  0  0  0  0  0  0  0
    4.1439   -1.2375    2.4377 H   0  0  0  0  0  0  0  0  0  0  0  0
    2.8144   -1.3504    3.6067 H   0  0  0  0  0  0  0  0  0  0  0  0
    2.5255   -1.7285    1.9093 H   0  0  0  0  0  0  0  0  0  0  0  0
    3.2002    2.3334    3.2633 H   0  0  0  0  0  0  0  0  0  0  0  0
    3.2142    0.9731    4.3735 H   0  0  0  0  0  0  0  0  0  0  0  0
    4.5498    1.1848    3.2250 H   0  0  0  0  0  0  0  0  0  0  0  0
  2  1  2  0  0  0  0
  3  2  1  0  0  0  0
  3  9  1  0  0  0  0
  4  2  1  0  0  0  0
  4  5  1  0  0  0  0
  4 10  1  6  0  0  0
  5 11  1  0  0  0  0
  5 12  1  0  0  0  0
  6  4  1  0  0  0  0
  6 13  1  0  0  0  0
  7  6  1  0  0  0  0
  7 14  1  0  0  0  0
  7 15  1  0  0  0  0
  7 16  1  0  0  0  0
  8  6  1  0  0  0  0
  8 17  1  0  0  0  0
  8 18  1  0  0  0  0
  8 19  1  0  0  0  0
M  END
>  <DRUGBANK_ID>
DB00161

>  <SECONDARY_ACCESSION_NUMBERS>
NUTR00060

>  <COMMON_NAME>
Valine

>  <CAS_NUMBER>
72-18-4

>  <UNII>
HG18B9YRS7

>  <SYNONYMS>
(2S)-2-Amino-3-methylbutanoic acid; (S)-Valine; 2-Amino-3-methylbutyric acid; L-(+)-alpha-Aminoisovaleric acid; L-alpha-Amino-beta-methylbutyric acid; L-valin; L-valine; Val; Valine

$$$$
