
 OpenBabel10282417103D

 29 29  0  0  0  0  0  0  0  0999 V2000
    0.5213    1.3039    0.0828 C   0  0  0  0  0  0  0  0  0  0  0  0
   -0.9063    1.0181    0.1381 C   0  0  0  0  0  0  0  0  0  0  0  0
    1.3754    0.1495    0.0788 C   0  0  0  0  0  0  0  0  0  0  0  0
    0.8891    2.7223    0.0267 N   0  0  0  0  0  0  0  0  0  0  0  0
   -1.4600   -0.3115    0.1723 C   0  0  0  0  0  0  0  0  0  0  0  0
   -2.2251    2.7927   -0.0155 I   0  0  0  0  0  0  0  0  0  0  0  0
    0.8713   -1.2100    0.0848 C   0  0  0  0  0  0  0  0  0  0  0  0
    3.6494    0.1187   -0.1130 I   0  0  0  0  0  0  0  0  0  0  0  0
    2.1137    3.3409    0.0492 C   0  0  0  0  0  0  0  0  0  0  0  0
   -0.5400   -1.4013    0.0573 C   0  0  0  0  0  0  0  0  0  0  0  0
   -2.9317   -0.6625    0.3780 C   0  0  0  0  0  0  0  0  0  0  0  0
    1.8784   -2.2460    0.0735 N   0  0  0  0  0  0  0  0  0  0  0  0
    2.2225    4.8345   -0.0515 C   0  0  0  0  0  0  0  0  0  0  0  0
    3.2059    2.7953    0.1706 O   0  0  0  0  0  0  0  0  0  0  0  0
   -1.3708   -3.3042   -0.8405 I   0  0  0  0  0  0  0  0  0  0  0  0
   -3.4067   -1.7473    0.6636 O   0  0  0  0  0  0  0  0  0  0  0  0
   -3.8240    0.3260    0.2705 O   0  0  0  0  0  0  0  0  0  0  0  0
    1.8058   -3.5747    0.4070 C   0  0  0  0  0  0  0  0  0  0  0  0
    3.0547   -4.3969    0.2013 C   0  0  0  0  0  0  0  0  0  0  0  0
    0.8360   -4.1387    0.8965 O   0  0  0  0  0  0  0  0  0  0  0  0
    0.0895    3.3573    0.0188 H   0  0  0  0  0  0  0  0  0  0  0  0
    2.8289   -1.8783    0.0492 H   0  0  0  0  0  0  0  0  0  0  0  0
    2.8342    5.1563    0.8038 H   0  0  0  0  0  0  0  0  0  0  0  0
    2.8007    5.0626   -0.9567 H   0  0  0  0  0  0  0  0  0  0  0  0
    1.2873    5.3857   -0.0529 H   0  0  0  0  0  0  0  0  0  0  0  0
   -4.6701   -0.1506    0.4343 H   0  0  0  0  0  0  0  0  0  0  0  0
    3.1117   -5.0690    1.0652 H   0  0  0  0  0  0  0  0  0  0  0  0
    2.9443   -5.0100   -0.6988 H   0  0  0  0  0  0  0  0  0  0  0  0
    3.9847   -3.8266    0.1567 H   0  0  0  0  0  0  0  0  0  0  0  0
  1  2  1  0  0  0  0
  1  3  2  0  0  0  0
  1  4  1  0  0  0  0
  2  5  2  0  0  0  0
  2  6  1  0  0  0  0
  3  7  1  0  0  0  0
  3  8  1  0  0  0  0
  4  9  1  0  0  0  0
  4 21  1  0  0  0  0
  5 10  1  0  0  0  0
  5 11  1  0  0  0  0
  7 12  1  0  0  0  0
  7 10  2  0  0  0  0
  9 13  1  0  0  0  0
  9 14  2  0  0  0  0
 10 15  1  0  0  0  0
 11 16  2  0  0  0  0
 11 17  1  0  0  0  0
 12 18  1  0  0  0  0
 12 22  1  0  0  0  0
 13 23  1  0  0  0  0
 13 24  1  0  0  0  0
 13 25  1  0  0  0  0
 17 26  1  0  0  0  0
 18 19  1  0  0  0  0
 18 20  2  0  0  0  0
 19 27  1  0  0  0  0
 19 28  1  0  0  0  0
 19 29  1  0  0  0  0
M  END
>  <DRUGBANK_ID>
DB00271

>  <SECONDARY_ACCESSION_NUMBERS>
APRD00913

>  <COMMON_NAME>
Diatrizoate

>  <CAS_NUMBER>
117-96-4

>  <UNII>
5UVC90J1LK

>  <SYNONYMS>
2,4,6-Triiodo-3,5-diacetamidobenzoic acid; 3,5-Bis(acetylamino)-2,4,6-triiodobenzoic acid; 3,5-diacetamido-2,4,6-triiodobenzoic acid; Acide amidotrizoique; Acidum amidotrizoicum; Acidum diacetylaminotrijodbenzoicum; Amidotrizoate; Amidotrizoic Acid; Amidotrizoic acid (anhydrous); Diatrizoesaure; Diatrizoic acid; Diatrizoic acid (anhydrous); Methalamic acid; Triombrin; Urografin acid; Urogranoic acid

$$$$
