
 OpenBabel10282417203D

  1  0  0  0  0  0  0  0  0  0999 V2000
    0.9483   -0.0798   -0.0310 Sb  0  0  0  0  0  0  0  0  0  0  0  0
M  CHG  1   1   5
M  END
>  <DRUGBANK_ID>
DB13047

>  <COMMON_NAME>
Pentavalent Antimony

>  <CAS_NUMBER>
22537-51-5

>  <UNII>
841L03HG64

>  <SYNONYMS>
Antimony cation (5+); SB5+

$$$$
