
 OpenBabel10282417183D

100107  0  0  0  0  0  0  0  0999 V2000
    0.6919    1.2694   -0.0338 C   0  0  3  0  0  0  0  0  0  0  0  0
   -0.7731    1.2909    0.2544 C   0  0  3  0  0  0  0  0  0  0  0  0
   -1.3381    0.0199   -0.4070 C   0  0  3  0  0  0  0  0  0  0  0  0
   -0.9190   -1.0653    0.4917 O   0  0  0  0  0  0  0  0  0  0  0  0
    0.4726   -1.3467    0.4040 C   0  0  3  0  0  0  0  0  0  0  0  0
    1.3521   -0.0336    0.4723 C   0  0  3  0  0  0  0  0  0  0  0  0
    2.6343   -0.1770   -0.1404 O   0  0  0  0  0  0  0  0  0  0  0  0
    1.2881    2.4042    0.5540 O   0  0  0  0  0  0  0  0  0  0  0  0
   -0.8914    1.2987    1.7128 O   0  0  0  0  0  0  0  0  0  0  0  0
    0.6163   -2.2797   -0.7470 C   0  0  0  0  0  0  0  0  0  0  0  0
    1.9693   -2.4035   -1.1014 O   0  0  0  0  0  0  0  0  0  0  0  0
   -1.2076   -0.2184   -1.9037 O   0  0  0  0  0  0  0  0  0  0  0  0
    4.6101    1.4866   -4.8235 C   0  0  0  0  0  0  0  0  0  0  0  0
    4.0979    2.0381   -3.6009 C   0  0  0  0  0  0  0  0  0  0  0  0
    4.3618    1.5313   -2.1980 C   0  0  0  0  0  0  0  0  0  0  0  0
    5.1325    0.4226   -2.0043 C   0  0  0  0  0  0  0  0  0  0  0  0
    5.4103   -0.0765   -3.2632 C   0  0  0  0  0  0  0  0  0  0  0  0
    5.3229    0.3759   -4.6351 C   0  0  0  0  0  0  0  0  0  0  0  0
    1.7386    4.7529   -2.5805 C   0  0  0  0  0  0  0  0  0  0  0  0
    1.2449    5.3505   -1.4353 C   0  0  0  0  0  0  0  0  0  0  0  0
    1.8410    5.1146   -0.2069 C   0  0  0  0  0  0  0  0  0  0  0  0
    2.9298    4.2659   -0.1414 C   0  0  0  0  0  0  0  0  0  0  0  0
    3.3130    3.5599   -1.2836 C   0  0  0  0  0  0  0  0  0  0  0  0
    2.7142    3.7792   -2.5379 C   0  0  0  0  0  0  0  0  0  0  0  0
    0.7316   -1.2467   -3.1308 C   0  0  0  0  0  0  0  0  0  0  0  0
    2.0449   -1.1639   -3.4549 C   0  0  0  0  0  0  0  0  0  0  0  0
    2.3276    0.0154   -3.9676 C   0  0  0  0  0  0  0  0  0  0  0  0
   -0.0711   -0.1261   -2.7139 C   0  0  0  0  0  0  0  0  0  0  0  0
    0.2617    1.0434   -3.3349 C   0  0  0  0  0  0  0  0  0  0  0  0
    1.4763    1.1171   -3.9842 C   0  0  0  0  0  0  0  0  0  0  0  0
    1.9458    2.3532   -4.6654 C   0  0  3  0  0  0  0  0  0  0  0  0
   -0.6769    2.1477   -3.4067 C   0  0  0  0  0  0  0  0  0  0  0  0
   -0.4092    3.2042   -4.3966 C   0  0  0  0  0  0  0  0  0  0  0  0
    0.8356    3.2590   -5.0511 C   0  0  0  0  0  0  0  0  0  0  0  0
    1.1649    4.3176   -5.8918 C   0  0  0  0  0  0  0  0  0  0  0  0
    0.2558    5.3523   -6.0243 C   0  0  0  0  0  0  0  0  0  0  0  0
   -0.9893    5.3045   -5.3693 C   0  0  0  0  0  0  0  0  0  0  0  0
   -1.3204    4.2310   -4.5552 C   0  0  0  0  0  0  0  0  0  0  0  0
   -1.6527    2.1511   -2.6676 O   0  0  0  0  0  0  0  0  0  0  0  0
   -2.4631    4.2167   -3.8177 O   0  0  0  0  0  0  0  0  0  0  0  0
    0.6210    6.5662   -6.7789 C   0  0  0  0  0  0  0  0  0  0  0  0
   -0.0977    7.5104   -6.9484 O   0  0  0  0  0  0  0  0  0  0  0  0
    1.8726    6.4905   -7.2857 O   0  0  0  0  0  0  0  0  0  0  0  0
    3.0835    3.0903   -3.8298 C   0  0  3  0  0  0  0  0  0  0  0  0
    4.2464    2.4604   -1.0895 C   0  0  0  0  0  0  0  0  0  0  0  0
    3.5187    3.9965    1.0618 O   0  0  0  0  0  0  0  0  0  0  0  0
    0.0785    6.2689   -1.5033 C   0  0  0  0  0  0  0  0  0  0  0  0
   -0.4293    6.8084   -0.5934 O   0  0  0  0  0  0  0  0  0  0  0  0
   -0.3259    6.4483   -2.7905 O   0  0  0  0  0  0  0  0  0  0  0  0
    4.9382    2.3110   -0.0985 O   0  0  0  0  0  0  0  0  0  0  0  0
    6.0411    0.1642   -0.9360 O   0  0  0  0  0  0  0  0  0  0  0  0
    7.4929   -0.3138   -1.0593 C   0  0  3  0  0  0  0  0  0  0  0  0
    8.3928    0.4819   -1.8929 O   0  0  0  0  0  0  0  0  0  0  0  0
    7.9996    0.6090   -3.2671 C   0  0  3  0  0  0  0  0  0  0  0  0
    7.7649   -1.1502   -3.8311 C   0  0  3  0  0  0  0  0  0  0  0  0
    7.0766   -2.2577   -2.6461 C   0  0  3  0  0  0  0  0  0  0  0  0
    7.7084   -1.8656   -1.3474 C   0  0  3  0  0  0  0  0  0  0  0  0
    9.0876   -2.2161   -1.4868 O   0  0  0  0  0  0  0  0  0  0  0  0
    5.6238   -2.3524   -2.4045 O   0  0  0  0  0  0  0  0  0  0  0  0
    7.0910   -1.5106   -5.0475 O   0  0  0  0  0  0  0  0  0  0  0  0
    7.1376    2.0423   -3.3166 C   0  0  0  0  0  0  0  0  0  0  0  0
    7.1793    3.0434   -2.2773 O   0  0  0  0  0  0  0  0  0  0  0  0
    0.8791    1.4286   -1.0845 H   0  0  0  0  0  0  0  0  0  0  0  0
   -1.2561    2.2083   -0.0880 H   0  0  0  0  0  0  0  0  0  0  0  0
   -2.4199    0.0535   -0.2236 H   0  0  0  0  0  0  0  0  0  0  0  0
    0.8142   -2.0075    1.1985 H   0  0  0  0  0  0  0  0  0  0  0  0
    1.5615    0.1128    1.5360 H   0  0  0  0  0  0  0  0  0  0  0  0
    2.7098    0.5198   -0.8153 H   0  0  0  0  0  0  0  0  0  0  0  0
    1.2806    2.3191    1.5189 H   0  0  0  0  0  0  0  0  0  0  0  0
   -0.5291    0.4585    2.0554 H   0  0  0  0  0  0  0  0  0  0  0  0
    0.0731   -3.1990   -0.9989 H   0  0  0  0  0  0  0  0  0  0  0  0
   -0.0633   -1.7817   -1.3874 H   0  0  0  0  0  0  0  0  0  0  0  0
    2.3659   -1.5022   -1.0447 H   0  0  0  0  0  0  0  0  0  0  0  0
    4.3859    1.7598   -5.8576 H   0  0  0  0  0  0  0  0  0  0  0  0
    6.2588   -0.5644   -3.0062 H   0  0  0  0  0  0  0  0  0  0  0  0
    5.9438    0.0707   -5.4800 H   0  0  0  0  0  0  0  0  0  0  0  0
    1.3198    5.0522   -3.5219 H   0  0  0  0  0  0  0  0  0  0  0  0
    1.4252    5.5404    0.6943 H   0  0  0  0  0  0  0  0  0  0  0  0
    0.5187   -2.2997   -3.0069 H   0  0  0  0  0  0  0  0  0  0  0  0
    2.8151   -1.9376   -3.3675 H   0  0  0  0  0  0  0  0  0  0  0  0
    3.2916   -0.0595   -4.3723 H   0  0  0  0  0  0  0  0  0  0  0  0
    2.3190    1.9771   -5.6351 H   0  0  0  0  0  0  0  0  0  0  0  0
    2.1764    4.3909   -6.2978 H   0  0  0  0  0  0  0  0  0  0  0  0
   -1.6592    6.1525   -5.4212 H   0  0  0  0  0  0  0  0  0  0  0  0
   -3.0509    4.9610   -3.9855 H   0  0  0  0  0  0  0  0  0  0  0  0
    1.9770    7.3087   -7.8138 H   0  0  0  0  0  0  0  0  0  0  0  0
    3.5719    3.8357   -4.4747 H   0  0  0  0  0  0  0  0  0  0  0  0
    2.9905    4.3103    1.8064 H   0  0  0  0  0  0  0  0  0  0  0  0
   -1.1074    7.0286   -2.7203 H   0  0  0  0  0  0  0  0  0  0  0  0
    7.9528   -0.2101   -0.0547 H   0  0  0  0  0  0  0  0  0  0  0  0
    8.7925    0.9920   -3.9191 H   0  0  0  0  0  0  0  0  0  0  0  0
    8.7897   -1.4737   -4.0041 H   0  0  0  0  0  0  0  0  0  0  0  0
    7.2365   -3.2590   -3.0445 H   0  0  0  0  0  0  0  0  0  0  0  0
    7.2644   -2.4604   -0.5401 H   0  0  0  0  0  0  0  0  0  0  0  0
    9.4896   -1.5560   -2.0825 H   0  0  0  0  0  0  0  0  0  0  0  0
    5.3649   -1.8574   -1.5854 H   0  0  0  0  0  0  0  0  0  0  0  0
    6.1908   -1.8411   -4.7995 H   0  0  0  0  0  0  0  0  0  0  0  0
    6.8468    2.4590   -4.2911 H   0  0  0  0  0  0  0  0  0  0  0  0
    6.1983    1.7882   -3.0360 H   0  0  0  0  0  0  0  0  0  0  0  0
    6.7095    2.6977   -1.4722 H   0  0  0  0  0  0  0  0  0  0  0  0
  1  8  1  0  0  0  0
  1  6  1  0  0  0  0
  1  2  1  0  0  0  0
  1 63  1  0  0  0  0
  2  9  1  0  0  0  0
  2  3  1  0  0  0  0
  2 64  1  0  0  0  0
  3  4  1  0  0  0  0
  3 12  1  0  0  0  0
  3 65  1  0  0  0  0
  4  5  1  0  0  0  0
  5 10  1  0  0  0  0
  5  6  1  0  0  0  0
  5 66  1  0  0  0  0
  6  7  1  0  0  0  0
  6 67  1  0  0  0  0
  7 68  1  0  0  0  0
  8 69  1  0  0  0  0
  9 70  1  0  0  0  0
 10 11  1  0  0  0  0
 10 71  1  0  0  0  0
 10 72  1  0  0  0  0
 11 73  1  0  0  0  0
 13 14  2  0  0  0  0
 13 74  1  0  0  0  0
 14 15  1  0  0  0  0
 15 16  2  0  0  0  0
 16 17  1  0  0  0  0
 16 51  1  0  0  0  0
 17 18  2  0  0  0  0
 17 75  1  0  0  0  0
 18 13  1  0  0  0  0
 18 76  1  0  0  0  0
 19 20  2  0  0  0  0
 19 77  1  0  0  0  0
 20 21  1  0  0  0  0
 20 47  1  0  0  0  0
 21 22  2  0  0  0  0
 21 78  1  0  0  0  0
 22 23  1  0  0  0  0
 22 46  1  0  0  0  0
 23 45  1  0  0  0  0
 23 24  2  0  0  0  0
 24 19  1  0  0  0  0
 25 26  2  0  0  0  0
 25 79  1  0  0  0  0
 26 27  1  0  0  0  0
 26 80  1  0  0  0  0
 27 30  2  0  0  0  0
 27 81  1  0  0  0  0
 28 12  1  0  0  0  0
 28 25  1  0  0  0  0
 29 32  1  0  0  0  0
 29 28  2  0  0  0  0
 29 30  1  0  0  0  0
 30 31  1  0  0  0  0
 31 34  1  0  0  0  0
 31 44  1  0  0  0  0
 31 82  1  0  0  0  0
 32 39  2  0  0  0  0
 33 32  1  0  0  0  0
 33 34  2  0  0  0  0
 34 35  1  0  0  0  0
 35 36  2  0  0  0  0
 35 83  1  0  0  0  0
 36 37  1  0  0  0  0
 36 41  1  0  0  0  0
 37 38  2  0  0  0  0
 37 84  1  0  0  0  0
 38 33  1  0  0  0  0
 38 40  1  0  0  0  0
 40 85  1  0  0  0  0
 41 42  2  0  0  0  0
 41 43  1  0  0  0  0
 43 86  1  0  0  0  0
 44 24  1  0  0  0  0
 44 14  1  0  0  0  0
 44 87  1  0  0  0  0
 45 15  1  0  0  0  0
 45 50  2  0  0  0  0
 46 88  1  0  0  0  0
 47 48  2  0  0  0  0
 47 49  1  0  0  0  0
 49 89  1  0  0  0  0
 51 52  1  0  0  0  0
 52 53  1  0  0  0  0
 52 57  1  0  0  0  0
 52 90  1  0  0  0  0
 53 54  1  0  0  0  0
 54 55  1  0  0  0  0
 54 61  1  0  0  0  0
 54 91  1  0  0  0  0
 55 56  1  0  0  0  0
 55 60  1  0  0  0  0
 55 92  1  0  0  0  0
 56 57  1  0  0  0  0
 56 59  1  0  0  0  0
 56 93  1  0  0  0  0
 57 58  1  0  0  0  0
 57 94  1  0  0  0  0
 58 95  1  0  0  0  0
 59 96  1  0  0  0  0
 60 97  1  0  0  0  0
 61 62  1  0  0  0  0
 61 98  1  0  0  0  0
 61 99  1  0  0  0  0
 62100  1  0  0  0  0
M  END
>  <DRUGBANK_ID>
DB11365

>  <COMMON_NAME>
Sennosides

>  <CAS_NUMBER>
517-43-1

>  <UNII>
3FYP5M0IJX

>  <SYNONYMS>
Senna glycosides; Sennoside; Sennosides

$$$$
