
 OpenBabel10282417243D

 53 54  0  0  0  0  0  0  0  0999 V2000
    0.9818    0.1050   -0.0543 C   0  0  0  0  0  0  0  0  0  0  0  0
    0.4575   -1.0956   -0.5934 O   0  0  0  0  0  0  0  0  0  0  0  0
    0.8567   -1.3273   -1.8759 C   0  0  0  0  0  0  0  0  0  0  0  0
    2.1788   -1.2382   -2.3140 C   0  0  0  0  0  0  0  0  0  0  0  0
    2.5313   -1.6053   -3.6101 C   0  0  0  0  0  0  0  0  0  0  0  0
    3.7983   -1.5781   -4.1268 O   0  0  0  0  0  0  0  0  0  0  0  0
    4.8072   -1.1447   -3.2192 C   0  0  0  0  0  0  0  0  0  0  0  0
    1.5426   -2.0960   -4.4471 C   0  0  0  0  0  0  0  0  0  0  0  0
    0.2235   -2.2462   -3.9685 C   0  0  0  0  0  0  0  0  0  0  0  0
   -0.7158   -2.9969   -4.7785 C   0  0  0  0  0  0  0  0  0  0  0  0
   -1.9630   -3.4036   -4.5290 C   0  0  0  0  0  0  0  0  0  0  0  0
   -2.8530   -4.2494   -5.3833 C   0  0  0  0  0  0  0  0  0  0  0  0
   -3.9845   -4.4828   -4.9714 O   0  0  0  0  0  0  0  0  0  0  0  0
   -2.4467   -4.8284   -6.7069 C   0  0  0  0  0  0  0  0  0  0  0  0
   -1.2678   -4.7313   -7.3179 C   0  0  0  0  0  0  0  0  0  0  0  0
   -0.8113   -5.2658   -8.5610 C   0  0  0  0  0  0  0  0  0  0  0  0
    0.4539   -5.0314   -8.9610 C   0  0  0  0  0  0  0  0  0  0  0  0
    0.9463   -5.5277  -10.2383 C   0  0  0  0  0  0  0  0  0  0  0  0
    0.1416   -5.3501  -11.3628 C   0  0  0  0  0  0  0  0  0  0  0  0
    0.5324   -5.8456  -12.5964 C   0  0  0  0  0  0  0  0  0  0  0  0
   -0.2134   -5.7472  -13.7443 O   0  0  0  0  0  0  0  0  0  0  0  0
   -1.4328   -5.0175  -13.6145 C   0  0  0  0  0  0  0  0  0  0  0  0
    1.7703   -6.4872  -12.7110 C   0  0  0  0  0  0  0  0  0  0  0  0
    2.0830   -7.0593  -13.9186 O   0  0  0  0  0  0  0  0  0  0  0  0
    2.6489   -6.5621  -11.6206 C   0  0  0  0  0  0  0  0  0  0  0  0
    3.9444   -7.0160  -11.6416 O   0  0  0  0  0  0  0  0  0  0  0  0
    4.4961   -7.2667  -12.9328 C   0  0  0  0  0  0  0  0  0  0  0  0
    2.2043   -6.1226  -10.3660 C   0  0  0  0  0  0  0  0  0  0  0  0
   -0.1291   -1.8045   -2.7107 C   0  0  0  0  0  0  0  0  0  0  0  0
    0.6011    0.1888    0.9648 H   0  0  0  0  0  0  0  0  0  0  0  0
    0.6326    0.9645   -0.6350 H   0  0  0  0  0  0  0  0  0  0  0  0
    2.0727    0.0889    0.0024 H   0  0  0  0  0  0  0  0  0  0  0  0
    2.9359   -0.9157   -1.6169 H   0  0  0  0  0  0  0  0  0  0  0  0
    4.6218   -0.1105   -2.9088 H   0  0  0  0  0  0  0  0  0  0  0  0
    4.8641   -1.8121   -2.3511 H   0  0  0  0  0  0  0  0  0  0  0  0
    5.7743   -1.1753   -3.7259 H   0  0  0  0  0  0  0  0  0  0  0  0
    1.8190   -2.4093   -5.4553 H   0  0  0  0  0  0  0  0  0  0  0  0
   -0.1764   -3.2567   -5.6497 H   0  0  0  0  0  0  0  0  0  0  0  0
   -2.4522   -3.1309   -3.5960 H   0  0  0  0  0  0  0  0  0  0  0  0
   -3.2517   -5.3951   -7.1676 H   0  0  0  0  0  0  0  0  0  0  0  0
   -0.4440   -4.2047   -6.9109 H   0  0  0  0  0  0  0  0  0  0  0  0
   -1.5089   -5.8513   -9.1466 H   0  0  0  0  0  0  0  0  0  0  0  0
    1.1636   -4.4412   -8.3781 H   0  0  0  0  0  0  0  0  0  0  0  0
   -0.8032   -4.8331  -11.2356 H   0  0  0  0  0  0  0  0  0  0  0  0
   -2.1219   -5.5355  -12.9377 H   0  0  0  0  0  0  0  0  0  0  0  0
   -1.2506   -3.9896  -13.2767 H   0  0  0  0  0  0  0  0  0  0  0  0
   -1.9034   -4.9643  -14.5980 H   0  0  0  0  0  0  0  0  0  0  0  0
    1.3067   -6.9411  -14.4949 H   0  0  0  0  0  0  0  0  0  0  0  0
    4.0536   -8.1732  -13.3574 H   0  0  0  0  0  0  0  0  0  0  0  0
    4.3890   -6.4028  -13.6020 H   0  0  0  0  0  0  0  0  0  0  0  0
    5.5671   -7.4555  -12.8288 H   0  0  0  0  0  0  0  0  0  0  0  0
    2.8378   -6.2593   -9.4909 H   0  0  0  0  0  0  0  0  0  0  0  0
   -1.1499   -1.8679   -2.3531 H   0  0  0  0  0  0  0  0  0  0  0  0
  1  2  1  0  0  0  0
  1 30  1  0  0  0  0
  1 31  1  0  0  0  0
  1 32  1  0  0  0  0
  2  3  1  0  0  0  0
  3  4  2  0  0  0  0
  3 29  1  0  0  0  0
  4  5  1  0  0  0  0
  4 33  1  0  0  0  0
  5  6  1  0  0  0  0
  5  8  2  0  0  0  0
  6  7  1  0  0  0  0
  7 34  1  0  0  0  0
  7 35  1  0  0  0  0
  7 36  1  0  0  0  0
  8  9  1  0  0  0  0
  8 37  1  0  0  0  0
  9 10  1  0  0  0  0
  9 29  2  0  0  0  0
 10 11  2  0  0  0  0
 10 38  1  0  0  0  0
 11 12  1  0  0  0  0
 11 39  1  0  0  0  0
 12 13  2  0  0  0  0
 12 14  1  0  0  0  0
 14 15  2  0  0  0  0
 14 40  1  0  0  0  0
 15 16  1  0  0  0  0
 15 41  1  0  0  0  0
 16 17  2  0  0  0  0
 16 42  1  0  0  0  0
 17 18  1  0  0  0  0
 17 43  1  0  0  0  0
 18 19  2  0  0  0  0
 18 28  1  0  0  0  0
 19 20  1  0  0  0  0
 19 44  1  0  0  0  0
 20 21  1  0  0  0  0
 20 23  2  0  0  0  0
 21 22  1  0  0  0  0
 22 45  1  0  0  0  0
 22 46  1  0  0  0  0
 22 47  1  0  0  0  0
 23 24  1  0  0  0  0
 23 25  1  0  0  0  0
 24 48  1  0  0  0  0
 25 26  1  0  0  0  0
 25 28  2  0  0  0  0
 26 27  1  0  0  0  0
 27 49  1  0  0  0  0
 27 50  1  0  0  0  0
 27 51  1  0  0  0  0
 28 52  1  0  0  0  0
 29 53  1  0  0  0  0
M  END
>  <DRUGBANK_ID>
DB18009

>  <COMMON_NAME>
AB-001

>  <CAS_NUMBER>
2663700-89-6

>  <UNII>
TNM7KA4LB3

>  <SYNONYMS>
(1E, 4E, 6E)-1-(3, 5-dimethoxyphenyl)- 7-(4-hydroxy-3, 5dimethoxyphenyl) hepta- 1, 4, 6-trien-3-one

$$$$
