
 OpenBabel10282417143D

 19 20  0  0  0  0  0  0  0  0999 V2000
    0.9388    0.1161   -0.0945 N   0  0  0  0  0  0  0  0  0  0  0  0
    0.2345    0.0477    1.1110 C   0  0  0  0  0  0  0  0  0  0  0  0
    0.6668    0.8674    2.1575 C   0  0  0  0  0  0  0  0  0  0  0  0
   -0.0090    0.8976    3.3780 C   0  0  0  0  0  0  0  0  0  0  0  0
   -1.1156    0.0801    3.5772 C   0  0  0  0  0  0  0  0  0  0  0  0
   -1.5208   -0.8124    2.5771 C   0  0  0  0  0  0  0  0  0  0  0  0
   -0.8411   -0.8440    1.3301 C   0  0  0  0  0  0  0  0  0  0  0  0
   -1.2305   -1.8228    0.4071 C   0  0  0  0  0  0  0  0  0  0  0  0
   -2.1353   -2.7938    0.7961 C   0  0  0  0  0  0  0  0  0  0  0  0
   -2.8391   -2.7496    1.9452 N   0  0  0  0  0  0  0  0  0  0  0  0
   -2.5519   -1.7281    2.7792 C   0  0  0  0  0  0  0  0  0  0  0  0
    0.4899   -0.1875   -0.9463 H   0  0  0  0  0  0  0  0  0  0  0  0
    1.9477    0.0264   -0.0503 H   0  0  0  0  0  0  0  0  0  0  0  0
    1.5295    1.5119    2.0130 H   0  0  0  0  0  0  0  0  0  0  0  0
    0.3363    1.5557    4.1695 H   0  0  0  0  0  0  0  0  0  0  0  0
   -1.6217    0.0984    4.5423 H   0  0  0  0  0  0  0  0  0  0  0  0
   -0.7796   -1.8866   -0.5771 H   0  0  0  0  0  0  0  0  0  0  0  0
   -2.2932   -3.6777    0.1860 H   0  0  0  0  0  0  0  0  0  0  0  0
   -3.1763   -1.6885    3.6709 H   0  0  0  0  0  0  0  0  0  0  0  0
  1  2  1  0  0  0  0
  1 12  1  0  0  0  0
  1 13  1  0  0  0  0
  2  3  2  0  0  0  0
  2  7  1  0  0  0  0
  3  4  1  0  0  0  0
  3 14  1  0  0  0  0
  4  5  2  0  0  0  0
  4 15  1  0  0  0  0
  5  6  1  0  0  0  0
  5 16  1  0  0  0  0
  6  7  2  0  0  0  0
  6 11  1  0  0  0  0
  7  8  1  0  0  0  0
  8  9  2  0  0  0  0
  8 17  1  0  0  0  0
  9 10  1  0  0  0  0
  9 18  1  0  0  0  0
 10 11  2  0  0  0  0
 11 19  1  0  0  0  0
M  END
>  <DRUGBANK_ID>
DB04605

>  <COMMON_NAME>
5-Aminoisoquinoline

>  <CAS_NUMBER>
1125-60-6

>  <UNII>
LDJ0JLN1Y7

$$$$
