
 OpenBabel10282417183D

  8  3  0  0  0  0  0  0  0  0999 V2000
    0.9308    0.0229    0.0684 C   0  0  0  0  0  0  0  0  0  0  0  0
    0.2953    0.8687    0.7727 O   0  0  0  0  0  0  0  0  0  0  0  0
    0.2208   -0.9221   -0.7185 O   0  5  0  0  0  0  0  0  0  0  0  0
    2.3508    0.0229    0.0684 O   0  5  0  0  0  0  0  0  0  0  0  0
    1.0108    0.0875    0.0472 O   0  6  0  0  0  0  0  0  0  0  0  0
    0.9024    0.0214    0.0051 O   0  6  0  0  0  0  0  0  0  0  0  0
    1.0725    0.0313   -0.0614 Bi  0  1  0  0  0  0  0  0  0  0  0  0
    1.0156   -0.0460    0.0874 Bi  0  1  0  0  0  0  0  0  0  0  0  0
  1  2  2  0  0  0  0
  1  3  1  0  0  0  0
  1  4  1  0  0  0  0
M  CHG  6   3  -1   4  -1   5  -2   6  -2   7   3   8   3
M  END
>  <DRUGBANK_ID>
DB11281

>  <COMMON_NAME>
Bismuth subcarbonate

>  <CAS_NUMBER>
5892-10-4

>  <UNII>
M41L2IN55T

>  <SYNONYMS>
2,4-Dioxa-1,5-dibismapentane, 1,3,5-trioxo-; Bismuth carbonate; Bismuth oxycarbonate; Bismuth subcarbonate; Bismuthyl carbonate

$$$$
