
 OpenBabel10282417233D

101107  0  0  1  0  0  0  0  0999 V2000
    0.3056    0.0471    0.1200 C   0  0  0  0  0  0  0  0  0  0  0  0
   -0.2060    1.3686   -0.2404 C   0  0  1  0  0  0  0  0  0  0  0  0
    0.2487    2.3843   -1.4860 N   0  0  0  0  0  0  0  0  0  0  0  0
   -0.3745    2.9486   -2.5624 C   0  0  0  0  0  0  0  0  0  0  0  0
    0.2047    3.2537   -3.6008 O   0  0  0  0  0  0  0  0  0  0  0  0
   -1.8043    2.8598   -2.3324 C   0  0  1  0  0  0  0  0  0  0  0  0
   -1.7510    0.9491   -2.5874 C   0  0  0  0  0  0  0  0  0  0  0  0
   -0.7221   -0.5588   -2.1249 C   0  0  0  0  0  0  0  0  0  0  0  0
   -1.3948   -1.5586   -1.7529 O   0  0  0  0  0  0  0  0  0  0  0  0
    0.9555   -0.6417   -1.9533 N   0  0  0  0  0  0  0  0  0  0  0  0
    1.8355   -1.6552   -1.0158 C   0  0  0  0  0  0  0  0  0  0  0  0
    2.8608   -1.1395    0.3215 C   0  0  0  0  0  0  0  0  0  0  0  0
    3.4140    0.3733    0.3646 C   0  0  3  0  0  0  0  0  0  0  0  0
    2.6514    1.3087   -0.7519 C   0  0  0  0  0  0  0  0  0  0  0  0
    1.7420    0.5554   -2.1157 C   0  0  0  0  0  0  0  0  0  0  0  0
    4.0286    0.9695    1.8266 N   0  0  0  0  0  0  0  0  0  0  0  0
    3.2716    1.4657    3.0714 C   0  0  0  0  0  0  0  0  0  0  0  0
    3.7434    1.9615    4.3963 C   0  0  0  0  0  0  0  0  0  0  0  0
    4.5598    0.8133    4.8564 C   0  0  0  0  0  0  0  0  0  0  0  0
    5.4725    0.3532    3.6961 C   0  0  0  0  0  0  0  0  0  0  0  0
    4.7619   -0.1351    2.4242 C   0  0  0  0  0  0  0  0  0  0  0  0
   -2.3027    3.9954   -0.8969 N   0  0  0  0  0  0  0  0  0  0  0  0
   -1.7162    5.2889   -0.4276 C   0  0  2  0  0  0  0  0  0  0  0  0
   -0.2990    5.6228   -0.6599 C   0  0  0  0  0  0  0  0  0  0  0  0
    0.7400    4.7964   -0.5601 C   0  0  0  0  0  0  0  0  0  0  0  0
    2.1561    5.0123   -0.8460 C   0  0  0  0  0  0  0  0  0  0  0  0
    2.7759    5.7960    0.1035 C   0  0  0  0  0  0  0  0  0  0  0  0
    4.1354    6.0271    0.0126 C   0  0  0  0  0  0  0  0  0  0  0  0
    4.9128    5.3610   -0.9362 C   0  0  0  0  0  0  0  0  0  0  0  0
    4.3292    4.4561   -1.8064 C   0  0  0  0  0  0  0  0  0  0  0  0
    2.9367    4.3769   -1.8433 C   0  0  0  0  0  0  0  0  0  0  0  0
   -2.1998    5.0370    1.0987 C   0  0  2  0  0  0  0  0  0  0  0  0
   -1.2371    4.8561    2.2530 N   0  0  0  0  0  0  0  0  0  0  0  0
   -1.1030    3.8292    3.3028 C   0  0  2  0  0  0  0  0  0  0  0  0
   -0.0107    4.5070    4.1722 C   0  0  0  0  0  0  0  0  0  0  0  0
   -0.1932    5.8963    3.9585 O   0  0  0  0  0  0  0  0  0  0  0  0
   -0.8955    6.0901    2.7802 C   0  0  0  0  0  0  0  0  0  0  0  0
   -1.2053    7.0997    2.2945 O   0  0  0  0  0  0  0  0  0  0  0  0
   -0.5027    2.5372    2.9371 C   0  0  0  0  0  0  0  0  0  0  0  0
    0.6615    2.7515    2.3030 C   0  0  0  0  0  0  0  0  0  0  0  0
    1.2585    1.6190    1.9998 C   0  0  0  0  0  0  0  0  0  0  0  0
    0.9283    0.3565    2.5142 C   0  0  0  0  0  0  0  0  0  0  0  0
   -0.2451    0.0911    3.0928 C   0  0  0  0  0  0  0  0  0  0  0  0
   -1.0008    1.2177    3.2373 C   0  0  0  0  0  0  0  0  0  0  0  0
   -2.6462    3.8011    0.6473 C   0  0  0  0  0  0  0  0  0  0  0  0
   -2.9570    2.9944    1.5270 O   0  0  0  0  0  0  0  0  0  0  0  0
   -1.5968    0.9060    0.0536 C   0  0  0  0  0  0  0  0  0  0  0  0
   -2.2839   -0.1464    0.5211 C   0  0  0  0  0  0  0  0  0  0  0  0
   -3.6744   -0.2049    0.3980 C   0  0  0  0  0  0  0  0  0  0  0  0
   -4.4750    0.8608    0.0393 C   0  0  0  0  0  0  0  0  0  0  0  0
   -3.8313    1.9108   -0.4361 C   0  0  0  0  0  0  0  0  0  0  0  0
   -2.4444    1.7846   -0.3534 C   0  0  0  0  0  0  0  0  0  0  0  0
   -0.0623   -0.8604   -0.2961 H   0  0  0  0  0  0  0  0  0  0  0  0
   -0.0209   -0.4545    0.9899 H   0  0  0  0  0  0  0  0  0  0  0  0
    1.3282    0.0930    0.1590 H   0  0  0  0  0  0  0  0  0  0  0  0
    0.0358    2.1317    0.4414 H   0  0  0  0  0  0  0  0  0  0  0  0
    1.2259    2.6367   -1.6767 H   0  0  0  0  0  0  0  0  0  0  0  0
   -2.3711    3.2147   -3.1896 H   0  0  0  0  0  0  0  0  0  0  0  0
   -2.8047    0.6461   -2.3652 H   0  0  0  0  0  0  0  0  0  0  0  0
   -1.7226    0.7870   -3.6653 H   0  0  0  0  0  0  0  0  0  0  0  0
    2.5995   -1.9226   -1.7270 H   0  0  0  0  0  0  0  0  0  0  0  0
    1.1958   -2.4621   -0.6287 H   0  0  0  0  0  0  0  0  0  0  0  0
    3.6515   -1.8862    0.4264 H   0  0  0  0  0  0  0  0  0  0  0  0
    2.4668   -1.3930    1.3070 H   0  0  0  0  0  0  0  0  0  0  0  0
    4.3548    0.2989   -0.1815 H   0  0  0  0  0  0  0  0  0  0  0  0
    2.0369    2.0642   -0.2570 H   0  0  0  0  0  0  0  0  0  0  0  0
    3.3713    2.0564   -1.0762 H   0  0  0  0  0  0  0  0  0  0  0  0
    0.8607    1.0131   -2.5051 H   0  0  0  0  0  0  0  0  0  0  0  0
    2.3236    0.6344   -3.0131 H   0  0  0  0  0  0  0  0  0  0  0  0
    2.6694    0.6349    3.4787 H   0  0  0  0  0  0  0  0  0  0  0  0
    2.8348    2.4443    2.9084 H   0  0  0  0  0  0  0  0  0  0  0  0
    2.8545    2.1538    5.0446 H   0  0  0  0  0  0  0  0  0  0  0  0
    4.2305    2.9255    4.2361 H   0  0  0  0  0  0  0  0  0  0  0  0
    5.1012    1.1477    5.7332 H   0  0  0  0  0  0  0  0  0  0  0  0
    3.8703    0.0011    5.1422 H   0  0  0  0  0  0  0  0  0  0  0  0
    6.0955    1.2048    3.3999 H   0  0  0  0  0  0  0  0  0  0  0  0
    6.0690   -0.4775    4.0476 H   0  0  0  0  0  0  0  0  0  0  0  0
    5.4598   -0.4890    1.6682 H   0  0  0  0  0  0  0  0  0  0  0  0
    4.0788   -0.9490    2.6961 H   0  0  0  0  0  0  0  0  0  0  0  0
   -2.3510    6.0269   -0.9152 H   0  0  0  0  0  0  0  0  0  0  0  0
   -0.1152    6.6613   -0.8702 H   0  0  0  0  0  0  0  0  0  0  0  0
    0.5725    3.8712   -0.0606 H   0  0  0  0  0  0  0  0  0  0  0  0
    2.1768    6.2336    0.8973 H   0  0  0  0  0  0  0  0  0  0  0  0
    4.5781    6.7330    0.7008 H   0  0  0  0  0  0  0  0  0  0  0  0
    5.9738    5.5675   -1.0130 H   0  0  0  0  0  0  0  0  0  0  0  0
    4.9460    3.8242   -2.4471 H   0  0  0  0  0  0  0  0  0  0  0  0
    2.5334    3.7584   -2.6437 H   0  0  0  0  0  0  0  0  0  0  0  0
   -3.1865    5.3862    1.4642 H   0  0  0  0  0  0  0  0  0  0  0  0
   -1.9960    3.5692    3.8725 H   0  0  0  0  0  0  0  0  0  0  0  0
   -0.0682    4.2087    5.2173 H   0  0  0  0  0  0  0  0  0  0  0  0
    1.0444    4.3123    3.8947 H   0  0  0  0  0  0  0  0  0  0  0  0
    1.0945    3.6907    1.9544 H   0  0  0  0  0  0  0  0  0  0  0  0
    2.1102    1.8675    1.3933 H   0  0  0  0  0  0  0  0  0  0  0  0
    1.4318   -0.5210    2.1842 H   0  0  0  0  0  0  0  0  0  0  0  0
   -0.5475   -0.9584    3.0569 H   0  0  0  0  0  0  0  0  0  0  0  0
   -2.0444    1.0337    3.4163 H   0  0  0  0  0  0  0  0  0  0  0  0
   -1.7747   -1.0409    0.8146 H   0  0  0  0  0  0  0  0  0  0  0  0
   -4.0768   -1.1854    0.4580 H   0  0  0  0  0  0  0  0  0  0  0  0
   -5.5339    0.9542    0.1482 H   0  0  0  0  0  0  0  0  0  0  0  0
   -4.3250    2.8799   -0.5281 H   0  0  0  0  0  0  0  0  0  0  0  0
   -1.6606    2.5224   -0.3483 H   0  0  0  0  0  0  0  0  0  0  0  0
  1 53  1  0  0  0  0
  1 54  1  0  0  0  0
  1 55  1  0  0  0  0
  2  1  1  0  0  0  0
  2  3  1  0  0  0  0
  2 47  1  0  0  0  0
  2 56  1  1  0  0  0
  3  4  1  0  0  0  0
  3 57  1  0  0  0  0
  4  5  2  0  0  0  0
  6  4  1  0  0  0  0
  6  7  1  0  0  0  0
  6 22  1  0  0  0  0
  6 58  1  6  0  0  0
  7  8  1  0  0  0  0
  7 59  1  0  0  0  0
  7 60  1  0  0  0  0
  8  9  2  0  0  0  0
  8 10  1  0  0  0  0
 10 11  1  0  0  0  0
 10 15  1  0  0  0  0
 11 12  1  0  0  0  0
 11 61  1  0  0  0  0
 11 62  1  0  0  0  0
 12 13  1  0  0  0  0
 12 63  1  0  0  0  0
 12 64  1  0  0  0  0
 13 14  1  0  0  0  0
 13 16  1  0  0  0  0
 13 65  1  0  0  0  0
 14 15  1  0  0  0  0
 14 66  1  0  0  0  0
 14 67  1  0  0  0  0
 15 68  1  0  0  0  0
 15 69  1  0  0  0  0
 16 17  1  0  0  0  0
 16 21  1  0  0  0  0
 17 18  1  0  0  0  0
 17 70  1  0  0  0  0
 17 71  1  0  0  0  0
 18 19  1  0  0  0  0
 18 72  1  0  0  0  0
 18 73  1  0  0  0  0
 19 20  1  0  0  0  0
 19 74  1  0  0  0  0
 19 75  1  0  0  0  0
 20 21  1  0  0  0  0
 20 76  1  0  0  0  0
 20 77  1  0  0  0  0
 21 78  1  0  0  0  0
 21 79  1  0  0  0  0
 22 45  1  0  0  0  0
 23 22  1  0  0  0  0
 23 32  1  0  0  0  0
 23 80  1  6  0  0  0
 23 24  1  0  0  0  0
 24 25  2  0  0  0  0
 24 81  1  0  0  0  0
 25 26  1  0  0  0  0
 25 82  1  0  0  0  0
 26 27  2  0  0  0  0
 26 31  1  0  0  0  0
 27 28  1  0  0  0  0
 27 83  1  0  0  0  0
 28 29  2  0  0  0  0
 28 84  1  0  0  0  0
 29 30  1  0  0  0  0
 29 85  1  0  0  0  0
 30 31  2  0  0  0  0
 30 86  1  0  0  0  0
 31 87  1  0  0  0  0
 32 33  1  0  0  0  0
 32 45  1  0  0  0  0
 32 88  1  1  0  0  0
 33 37  1  0  0  0  0
 34 33  1  0  0  0  0
 34 35  1  0  0  0  0
 34 89  1  1  0  0  0
 34 39  1  0  0  0  0
 35 36  1  0  0  0  0
 35 90  1  0  0  0  0
 35 91  1  0  0  0  0
 36 37  1  0  0  0  0
 37 38  2  0  0  0  0
 39 40  2  0  0  0  0
 39 44  1  0  0  0  0
 40 41  1  0  0  0  0
 40 92  1  0  0  0  0
 41 42  2  0  0  0  0
 41 93  1  0  0  0  0
 42 43  1  0  0  0  0
 42 94  1  0  0  0  0
 43 44  2  0  0  0  0
 43 95  1  0  0  0  0
 44 96  1  0  0  0  0
 45 46  2  0  0  0  0
 47 48  2  0  0  0  0
 47 52  1  0  0  0  0
 48 49  1  0  0  0  0
 48 97  1  0  0  0  0
 49 50  2  0  0  0  0
 49 98  1  0  0  0  0
 50 51  1  0  0  0  0
 50 99  1  0  0  0  0
 51 52  2  0  0  0  0
 51100  1  0  0  0  0
 52101  1  0  0  0  0
M  END
>  <DRUGBANK_ID>
DB16968

>  <COMMON_NAME>
SRX-246

>  <CAS_NUMBER>
512784-93-9

>  <UNII>
372X2P22UY

>  <SYNONYMS>
.gamma.-oxo-.alpha.-((3s,4r)-2-oxo-3-((4s)-2-oxo-4-phenyl-3-oxazolidinyl)-4-((1e)-2-phenylethenyl)-1-azetidinyl)-n-((1r)-1-phenylethyl)-(.alpha.r)-(1,4'-bipiperidine)-1'-butanamide; (.alpha.r)-.gamma.-oxo-.alpha.-((3s,4r)-2-oxo-3-((4s)-2-oxo-4-phenyl-3-oxazolidinyl)-4-((1e)-2-phenylethenyl)-1-azetidinyl)-n-((1r)-1-phenylethyl)(1,4'-bipiperidine)-1'-butanamide; (1,4'-bipiperidine)-1'-butanamide, .gamma.-oxo-.alpha.-((3s,4r)-2-oxo-3-((4s)-2-oxo-4-phenyl-3-oxazolidinyl)-4-((1e)-2-phenylethenyl)-1-azetidinyl)-n-((1r)-1-phenylethyl)-, (.alpha.r)-

$$$$
