
 OpenBabel10282417213D

 20 19  0  0  0  0  0  0  0  0999 V2000
    1.0377    0.9078    0.0343 Na  0  3  0  0  0  0  0  0  0  0  0  0
   -2.1648   -3.7098    1.6180 O   0  0  0  0  0  0  0  0  0  0  0  0
   -2.7122   -0.7325    3.3690 O   0  5  0  0  0  0  0  0  0  0  0  0
   -3.3961   -3.2810    4.9997 O   0  0  0  0  0  0  0  0  0  0  0  0
   -2.5298   -4.2231    2.8263 C   0  0  0  0  0  0  0  0  0  0  0  0
   -2.5581   -5.4146    3.0952 O   0  0  0  0  0  0  0  0  0  0  0  0
   -2.8789   -3.1186    3.7422 C   0  0  0  0  0  0  0  0  0  0  0  0
   -2.6100   -1.9609    3.1234 C   0  0  0  0  0  0  0  0  0  0  0  0
   -1.0242   -0.0708   -0.1271 O   0  0  0  0  0  0  0  0  0  0  0  0
   -0.4673   -1.3683    0.0924 C   0  0  0  0  0  0  0  0  0  0  0  0
   -0.6206   -1.8397    1.5326 C   0  0  2  0  0  0  0  0  0  0  0  0
    0.3668   -2.8670    1.7130 O   0  0  0  0  0  0  0  0  0  0  0  0
   -2.0839   -2.2894    1.7637 C   0  0  1  0  0  0  0  0  0  0  0  0
   -2.7580   -1.8441    1.0181 H   0  0  0  0  0  0  0  0  0  0  0  0
   -3.4950   -4.2378    5.1357 H   0  0  0  0  0  0  0  0  0  0  0  0
   -1.9788   -0.1399    0.1288 H   0  0  0  0  0  0  0  0  0  0  0  0
    0.6008   -1.2867   -0.1279 H   0  0  0  0  0  0  0  0  0  0  0  0
   -0.8689   -2.0826   -0.6315 H   0  0  0  0  0  0  0  0  0  0  0  0
   -0.3476   -1.0126    2.1994 H   0  0  0  0  0  0  0  0  0  0  0  0
    0.0318   -3.6606    1.2535 H   0  0  0  0  0  0  0  0  0  0  0  0
  2  5  1  0  0  0  0
  4 15  1  0  0  0  0
  5  6  2  0  0  0  0
  5  7  1  0  0  0  0
  7  4  1  0  0  0  0
  7  8  2  0  0  0  0
  8  3  1  0  0  0  0
  9 10  1  0  0  0  0
  9 16  1  0  0  0  0
 10 17  1  0  0  0  0
 10 18  1  0  0  0  0
 11 12  1  0  0  0  0
 11 19  1  1  0  0  0
 11 13  1  0  0  0  0
 11 10  1  0  0  0  0
 12 20  1  0  0  0  0
 13  2  1  0  0  0  0
 13  8  1  0  0  0  0
 13 14  1  6  0  0  0
M  CHG  2   1   1   3  -1
M  END
>  <DRUGBANK_ID>
DB14482

>  <SECONDARY_ACCESSION_NUMBERS>
DBSALT001764

>  <COMMON_NAME>
Sodium ascorbate

>  <CAS_NUMBER>
134-03-2

>  <UNII>
S033EH8359

>  <SYNONYMS>
Ascorbato s√≥dico; Ascorbic acid sodium salt; L-Ascorbic acid sodium salt; L-Ascorbic acid, monosodium salt; Monosodium L-ascorbate; Sodium ascorbate; sodium L-ascorbate; Vitamin C sodium; Vitamin C, sodium salt

$$$$
