
 OpenBabel10282417213D

 60 63  0  0  0  0  0  0  0  0999 V2000
   -2.1802   10.6910   10.5572 Cl  0  0  0  0  0  0  0  0  0  0  0  0
   -4.7203    4.6024    9.8587 F   0  0  0  0  0  0  0  0  0  0  0  0
   -3.7293    2.7568   10.4556 F   0  0  0  0  0  0  0  0  0  0  0  0
   -3.9613    4.3770   11.8883 F   0  0  0  0  0  0  0  0  0  0  0  0
   -1.2889    4.1248   10.9894 O   0  0  0  0  0  0  0  0  0  0  0  0
    9.0134    1.8913   12.2261 O   0  0  0  0  0  0  0  0  0  0  0  0
    9.3589   -0.3212   11.9813 O   0  0  0  0  0  0  0  0  0  0  0  0
   -2.0046    6.3923    7.7622 N   0  0  0  0  0  0  0  0  0  0  0  0
   -2.9129    5.5142    7.2591 N   0  0  0  0  0  0  0  0  0  0  0  0
    0.3506    5.7218   10.4251 N   0  0  0  0  0  0  0  0  0  0  0  0
    2.6274    5.0998   10.4539 N   0  0  0  0  0  0  0  0  0  0  0  0
    2.0076    7.2932   10.0490 N   0  0  0  0  0  0  0  0  0  0  0  0
    8.3836    0.2633    9.1922 N   0  0  0  0  0  0  0  0  0  0  0  0
   -2.3296    4.6722   10.1403 C   0  0  2  0  0  0  0  0  0  0  0  0
   -2.3922    6.1927   10.1844 C   0  0  0  0  0  0  0  0  0  0  0  0
   -3.6927    4.1053   10.5859 C   0  0  0  0  0  0  0  0  0  0  0  0
   -2.1767    6.9866    9.0387 C   0  0  0  0  0  0  0  0  0  0  0  0
   -2.5330    6.8269   11.4382 C   0  0  0  0  0  0  0  0  0  0  0  0
    0.0124    4.4431   10.6483 C   0  0  0  0  0  0  0  0  0  0  0  0
   -2.0835    8.3794    9.1583 C   0  0  0  0  0  0  0  0  0  0  0  0
   -2.2541    8.9784   10.4102 C   0  0  0  0  0  0  0  0  0  0  0  0
   -2.4816    8.2116   11.5487 C   0  0  0  0  0  0  0  0  0  0  0  0
    0.9286    3.4388   10.7724 C   0  0  0  0  0  0  0  0  0  0  0  0
   -0.9167    6.5298    6.9335 C   0  0  0  0  0  0  0  0  0  0  0  0
    2.2455    3.8201   10.6578 C   0  0  0  0  0  0  0  0  0  0  0  0
   -2.4201    5.1654    6.0618 C   0  0  0  0  0  0  0  0  0  0  0  0
    1.6531    6.0001   10.3274 C   0  0  0  0  0  0  0  0  0  0  0  0
   -1.1509    5.7372    5.8361 C   0  0  0  0  0  0  0  0  0  0  0  0
    3.3151    2.8284   10.7231 C   0  0  0  0  0  0  0  0  0  0  0  0
    3.3460    1.7642    9.8031 C   0  0  0  0  0  0  0  0  0  0  0  0
    4.3242    2.9191   11.6882 C   0  0  0  0  0  0  0  0  0  0  0  0
    5.3709    0.9275   10.7917 C   0  0  0  0  0  0  0  0  0  0  0  0
   -3.1515    4.2586    5.1390 C   0  0  0  0  0  0  0  0  0  0  0  0
    4.3671    0.8204    9.8307 C   0  0  0  0  0  0  0  0  0  0  0  0
    5.3533    1.9884   11.7084 C   0  0  0  0  0  0  0  0  0  0  0  0
    7.7981    0.7708   10.4460 C   0  0  1  0  0  0  0  0  0  0  0  0
    6.5342   -0.0268   10.8002 C   0  0  0  0  0  0  0  0  0  0  0  0
    8.7899    0.7039   11.6121 C   0  0  0  0  0  0  0  0  0  0  0  0
    8.5492    2.6660   11.8539 H   0  0  0  0  0  0  0  0  0  0  0  0
    2.9828    7.5275   10.1399 H   0  0  0  0  0  0  0  0  0  0  0  0
    1.2845    7.9873   10.1430 H   0  0  0  0  0  0  0  0  0  0  0  0
    9.4003    0.2770    9.2526 H   0  0  0  0  0  0  0  0  0  0  0  0
    8.1166    0.8875    8.4310 H   0  0  0  0  0  0  0  0  0  0  0  0
   -2.1402    4.2791    9.1399 H   0  0  0  0  0  0  0  0  0  0  0  0
   -2.6474    6.2382   12.3489 H   0  0  0  0  0  0  0  0  0  0  0  0
   -1.9301    9.0032    8.2822 H   0  0  0  0  0  0  0  0  0  0  0  0
   -2.6043    8.6738   12.5253 H   0  0  0  0  0  0  0  0  0  0  0  0
    0.6393    2.4169   10.9704 H   0  0  0  0  0  0  0  0  0  0  0  0
   -0.0557    7.1138    7.2241 H   0  0  0  0  0  0  0  0  0  0  0  0
   -0.5008    5.5767    4.9873 H   0  0  0  0  0  0  0  0  0  0  0  0
    2.5744    1.6781    9.0410 H   0  0  0  0  0  0  0  0  0  0  0  0
    4.3148    3.7133   12.4314 H   0  0  0  0  0  0  0  0  0  0  0  0
   -3.3006    4.7514    4.1712 H   0  0  0  0  0  0  0  0  0  0  0  0
   -2.5689    3.3482    4.9619 H   0  0  0  0  0  0  0  0  0  0  0  0
   -4.1329    3.9689    5.5258 H   0  0  0  0  0  0  0  0  0  0  0  0
    4.3898    0.0300    9.0827 H   0  0  0  0  0  0  0  0  0  0  0  0
    6.1653    2.1166   12.4197 H   0  0  0  0  0  0  0  0  0  0  0  0
    7.5774    1.8303   10.2646 H   0  0  0  0  0  0  0  0  0  0  0  0
    6.5862   -0.5040   11.7884 H   0  0  0  0  0  0  0  0  0  0  0  0
    6.3534   -0.8473   10.0911 H   0  0  0  0  0  0  0  0  0  0  0  0
  1 21  1  0  0  0  0
  5 19  1  0  0  0  0
  6 39  1  0  0  0  0
  8 24  1  0  0  0  0
  9  8  1  0  0  0  0
 10 19  1  0  0  0  0
 11 27  1  0  0  0  0
 12 40  1  0  0  0  0
 12 41  1  0  0  0  0
 13 42  1  0  0  0  0
 13 43  1  0  0  0  0
 14  5  1  0  0  0  0
 14 16  1  0  0  0  0
 14 44  1  6  0  0  0
 15 14  1  0  0  0  0
 15 17  1  0  0  0  0
 16  2  1  0  0  0  0
 16  3  1  0  0  0  0
 16  4  1  0  0  0  0
 17  8  1  0  0  0  0
 17 20  2  0  0  0  0
 18 15  2  0  0  0  0
 18 45  1  0  0  0  0
 19 23  2  0  0  0  0
 20 21  1  0  0  0  0
 20 46  1  0  0  0  0
 21 22  2  0  0  0  0
 22 18  1  0  0  0  0
 22 47  1  0  0  0  0
 23 25  1  0  0  0  0
 23 48  1  0  0  0  0
 24 28  2  0  0  0  0
 24 49  1  0  0  0  0
 25 11  2  0  0  0  0
 25 29  1  0  0  0  0
 26  9  2  0  0  0  0
 26 33  1  0  0  0  0
 27 10  2  0  0  0  0
 27 12  1  0  0  0  0
 28 26  1  0  0  0  0
 28 50  1  0  0  0  0
 29 31  1  0  0  0  0
 30 29  2  0  0  0  0
 30 51  1  0  0  0  0
 31 35  2  0  0  0  0
 31 52  1  0  0  0  0
 32 34  2  0  0  0  0
 32 37  1  0  0  0  0
 33 53  1  0  0  0  0
 33 54  1  0  0  0  0
 33 55  1  0  0  0  0
 34 30  1  0  0  0  0
 34 56  1  0  0  0  0
 35 32  1  0  0  0  0
 35 57  1  0  0  0  0
 36 38  1  0  0  0  0
 36 58  1  6  0  0  0
 36 37  1  0  0  0  0
 36 13  1  0  0  0  0
 37 59  1  0  0  0  0
 37 60  1  0  0  0  0
 38  6  1  0  0  0  0
 38  7  2  0  0  0  0
M  END
>  <DRUGBANK_ID>
DB14218

>  <COMMON_NAME>
Telotristat

>  <CAS_NUMBER>
1033805-28-5

>  <UNII>
381V4FCV2Z

>  <SYNONYMS>
Telotristat

$$$$
