
 OpenBabel10282417123D

 27 27  0  0  1  0  0  0  0  0999 V2000
    0.9840   -0.2174    0.1965 C   0  0  0  0  0  0  0  0  0  0  0  0
    0.5295   -1.1574   -0.7600 O   0  0  0  0  0  0  0  0  0  0  0  0
    1.0135   -1.0032   -2.0981 C   0  0  1  0  0  0  0  0  0  0  0  0
    0.1827   -1.8131   -2.9667 O   0  0  0  0  0  0  0  0  0  0  0  0
   -1.2041   -1.3905   -2.9122 C   0  0  2  0  0  0  0  0  0  0  0  0
   -2.0613   -2.3785   -3.7120 C   0  0  0  0  0  0  0  0  0  0  0  0
   -1.9319   -3.6957   -3.1771 O   0  0  0  0  0  0  0  0  0  0  0  0
   -1.3230    0.0457   -3.4547 C   0  0  2  0  0  0  0  0  0  0  0  0
   -0.9191    0.1082   -4.8356 O   0  0  0  0  0  0  0  0  0  0  0  0
   -0.4122    0.9834   -2.6413 C   0  0  2  0  0  0  0  0  0  0  0  0
   -0.4464    2.3182   -3.1525 O   0  0  0  0  0  0  0  0  0  0  0  0
    1.0299    0.4413   -2.6577 C   0  0  1  0  0  0  0  0  0  0  0  0
    1.9827    1.2788   -1.9970 O   0  0  0  0  0  0  0  0  0  0  0  0
    0.6962   -0.5673    1.1903 H   0  0  0  0  0  0  0  0  0  0  0  0
    0.4748    0.7393    0.0559 H   0  0  0  0  0  0  0  0  0  0  0  0
    2.0682   -0.0888    0.1620 H   0  0  0  0  0  0  0  0  0  0  0  0
    2.0283   -1.4157   -2.1371 H   0  0  0  0  0  0  0  0  0  0  0  0
   -1.5394   -1.4389   -1.8687 H   0  0  0  0  0  0  0  0  0  0  0  0
   -3.1182   -2.0994   -3.6531 H   0  0  0  0  0  0  0  0  0  0  0  0
   -1.7656   -2.4237   -4.7636 H   0  0  0  0  0  0  0  0  0  0  0  0
   -0.9746   -3.8838   -3.1515 H   0  0  0  0  0  0  0  0  0  0  0  0
   -2.3595    0.3962   -3.4158 H   0  0  0  0  0  0  0  0  0  0  0  0
   -0.1562   -0.4898   -4.9537 H   0  0  0  0  0  0  0  0  0  0  0  0
   -0.7972    1.0497   -1.6199 H   0  0  0  0  0  0  0  0  0  0  0  0
   -0.2404    2.2594   -4.1049 H   0  0  0  0  0  0  0  0  0  0  0  0
    1.3744    0.4081   -3.6985 H   0  0  0  0  0  0  0  0  0  0  0  0
    1.5110    1.8613   -1.3738 H   0  0  0  0  0  0  0  0  0  0  0  0
  1  2  1  0  0  0  0
  1 14  1  0  0  0  0
  1 15  1  0  0  0  0
  1 16  1  0  0  0  0
  3  2  1  0  0  0  0
  3  4  1  0  0  0  0
  3 12  1  0  0  0  0
  3 17  1  6  0  0  0
  4  5  1  0  0  0  0
  5  6  1  0  0  0  0
  5  8  1  0  0  0  0
  5 18  1  1  0  0  0
  6  7  1  0  0  0  0
  6 19  1  0  0  0  0
  6 20  1  0  0  0  0
  7 21  1  0  0  0  0
  8  9  1  0  0  0  0
  8 10  1  0  0  0  0
  8 22  1  1  0  0  0
  9 23  1  0  0  0  0
 10 11  1  0  0  0  0
 10 12  1  0  0  0  0
 10 24  1  1  0  0  0
 11 25  1  0  0  0  0
 12 13  1  0  0  0  0
 12 26  1  6  0  0  0
 13 27  1  0  0  0  0
M  END
>  <DRUGBANK_ID>
DB02100

>  <SECONDARY_ACCESSION_NUMBERS>
EXPT00507

>  <COMMON_NAME>
Methyl alpha-galactoside

>  <CAS_NUMBER>
34004-14-3

>  <UNII>
ESJ6UY55QN

$$$$
