
 OpenBabel10282417183D

 59 62  0  0  0  0  0  0  0  0999 V2000
    1.2599   -1.3426   -0.0062 C   0  0  0  0  0  0  0  0  0  0  0  0
    2.3738   -0.4936   -0.0824 C   0  0  0  0  0  0  0  0  0  0  0  0
    2.3310    0.8855   -0.0411 C   0  0  0  0  0  0  0  0  0  0  0  0
    1.1143    1.5044    0.0220 C   0  0  0  0  0  0  0  0  0  0  0  0
   -0.0688    0.7469    0.0235 C   0  0  0  0  0  0  0  0  0  0  0  0
   -1.3055    1.4096   -0.0014 C   0  0  0  0  0  0  0  0  0  0  0  0
   -2.5039    0.7138   -0.0160 C   0  0  0  0  0  0  0  0  0  0  0  0
   -2.4914   -0.6673   -0.0039 C   0  0  0  0  0  0  0  0  0  0  0  0
   -1.2766   -1.3546    0.0188 C   0  0  0  0  0  0  0  0  0  0  0  0
   -0.0201   -0.6924    0.0198 C   0  0  0  0  0  0  0  0  0  0  0  0
    1.3916   -2.8704    0.0257 C   0  0  0  0  0  0  0  0  0  0  0  0
    0.4079   -3.6055    0.0808 O   0  0  0  0  0  0  0  0  0  0  0  0
    2.5761   -3.5678   -0.0231 N   0  0  0  0  0  0  0  0  0  0  0  0
    3.9645   -3.1951   -0.0169 C   0  0  0  0  0  0  0  0  0  0  0  0
    4.6839   -3.3879    1.3020 C   0  0  0  0  0  0  0  0  0  0  0  0
    6.0076   -3.7290    1.1263 N   0  0  0  0  0  0  0  0  0  0  0  0
    6.8170   -4.0968    2.2793 C   0  0  0  0  0  0  0  0  0  0  0  0
    7.1153   -5.5896    2.3271 C   0  0  0  0  0  0  0  0  0  0  0  0
    7.8037   -5.9567    1.2180 F   0  0  0  0  0  0  0  0  0  0  0  0
    7.8615   -5.9063    3.4029 F   0  0  0  0  0  0  0  0  0  0  0  0
    5.9830   -6.3244    2.3609 F   0  0  0  0  0  0  0  0  0  0  0  0
    4.1931   -3.1261    2.3824 O   0  0  0  0  0  0  0  0  0  0  0  0
    0.9219    4.9954    0.8730 O   0  0  0  0  0  0  0  0  0  0  0  0
    0.6857    3.6267    1.1086 N   0  0  0  0  0  0  0  0  0  0  0  0
    1.1702    2.9686    0.1111 C   0  0  0  0  0  0  0  0  0  0  0  0
    1.8600    3.7709   -0.9345 C   0  0  0  0  0  0  0  0  0  0  0  0
    1.4950    5.1688   -0.4412 C   0  0  3  0  0  0  0  0  0  0  0  0
    0.4351    5.7890   -1.3728 C   0  0  0  0  0  0  0  0  0  0  0  0
    0.0104    6.9986   -0.9348 F   0  0  0  0  0  0  0  0  0  0  0  0
    0.9578    5.9761   -2.6167 F   0  0  0  0  0  0  0  0  0  0  0  0
   -0.6561    5.0112   -1.5327 F   0  0  0  0  0  0  0  0  0  0  0  0
    2.7391    6.0473   -0.2684 C   0  0  0  0  0  0  0  0  0  0  0  0
    3.8112    5.6444    0.5466 C   0  0  0  0  0  0  0  0  0  0  0  0
    4.9487    6.4462    0.6644 C   0  0  0  0  0  0  0  0  0  0  0  0
    5.0391    7.6625   -0.0128 C   0  0  0  0  0  0  0  0  0  0  0  0
    3.9765    8.1000   -0.8060 C   0  0  0  0  0  0  0  0  0  0  0  0
    2.8456    7.2886   -0.9168 C   0  0  0  0  0  0  0  0  0  0  0  0
    4.0191    9.4134   -1.5451 C   0  0  0  0  0  0  0  0  0  0  0  0
    4.1722   10.4748   -0.7116 F   0  0  0  0  0  0  0  0  0  0  0  0
    5.0431    9.4683   -2.4373 F   0  0  0  0  0  0  0  0  0  0  0  0
    2.8879    9.6636   -2.2649 F   0  0  0  0  0  0  0  0  0  0  0  0
    6.2591    5.9223    1.6474 Cl  0  0  0  0  0  0  0  0  0  0  0  0
    3.3885   -0.7694   -0.1920 H   0  0  0  0  0  0  0  0  0  0  0  0
    3.2722    1.4294   -0.0411 H   0  0  0  0  0  0  0  0  0  0  0  0
   -1.3558    2.4962   -0.0161 H   0  0  0  0  0  0  0  0  0  0  0  0
   -3.4405    1.2605   -0.0323 H   0  0  0  0  0  0  0  0  0  0  0  0
   -3.4243   -1.2234   -0.0153 H   0  0  0  0  0  0  0  0  0  0  0  0
   -1.3576   -2.4380    0.0231 H   0  0  0  0  0  0  0  0  0  0  0  0
    2.3941   -4.5637    0.0742 H   0  0  0  0  0  0  0  0  0  0  0  0
    4.4594   -3.6208   -0.8901 H   0  0  0  0  0  0  0  0  0  0  0  0
    4.1181   -2.1593   -0.1467 H   0  0  0  0  0  0  0  0  0  0  0  0
    6.3467   -3.9749    0.2028 H   0  0  0  0  0  0  0  0  0  0  0  0
    7.7443   -3.5222    2.2050 H   0  0  0  0  0  0  0  0  0  0  0  0
    6.3085   -3.8010    3.2016 H   0  0  0  0  0  0  0  0  0  0  0  0
    1.4695    3.5355   -1.9291 H   0  0  0  0  0  0  0  0  0  0  0  0
    2.9353    3.5653   -0.9358 H   0  0  0  0  0  0  0  0  0  0  0  0
    3.7632    4.7033    1.0943 H   0  0  0  0  0  0  0  0  0  0  0  0
    5.9321    8.2761    0.0783 H   0  0  0  0  0  0  0  0  0  0  0  0
    2.0409    7.6745   -1.5411 H   0  0  0  0  0  0  0  0  0  0  0  0
  1  2  1  0  0  0  0
  1 10  2  0  0  0  0
  1 11  1  0  0  0  0
  2  3  2  0  0  0  0
  2 43  1  0  0  0  0
  3  4  1  0  0  0  0
  3 44  1  0  0  0  0
  4  5  2  0  0  0  0
  4 25  1  0  0  0  0
  5  6  1  0  0  0  0
  5 10  1  0  0  0  0
  6  7  2  0  0  0  0
  6 45  1  0  0  0  0
  7  8  1  0  0  0  0
  7 46  1  0  0  0  0
  8  9  2  0  0  0  0
  8 47  1  0  0  0  0
  9 10  1  0  0  0  0
  9 48  1  0  0  0  0
 11 12  2  0  0  0  0
 11 13  1  0  0  0  0
 13 14  1  0  0  0  0
 13 49  1  0  0  0  0
 14 15  1  0  0  0  0
 14 50  1  0  0  0  0
 14 51  1  0  0  0  0
 15 16  1  0  0  0  0
 15 22  2  0  0  0  0
 16 17  1  0  0  0  0
 16 52  1  0  0  0  0
 17 18  1  0  0  0  0
 17 53  1  0  0  0  0
 17 54  1  0  0  0  0
 18 19  1  0  0  0  0
 18 20  1  0  0  0  0
 18 21  1  0  0  0  0
 23 24  1  0  0  0  0
 23 27  1  0  0  0  0
 24 25  2  0  0  0  0
 25 26  1  0  0  0  0
 26 27  1  0  0  0  0
 26 55  1  0  0  0  0
 26 56  1  0  0  0  0
 27 28  1  0  0  0  0
 27 32  1  0  0  0  0
 28 29  1  0  0  0  0
 28 30  1  0  0  0  0
 28 31  1  0  0  0  0
 32 33  1  0  0  0  0
 32 37  2  0  0  0  0
 33 34  2  0  0  0  0
 33 57  1  0  0  0  0
 34 35  1  0  0  0  0
 34 42  1  0  0  0  0
 35 36  2  0  0  0  0
 35 58  1  0  0  0  0
 36 37  1  0  0  0  0
 36 38  1  0  0  0  0
 37 59  1  0  0  0  0
 38 39  1  0  0  0  0
 38 40  1  0  0  0  0
 38 41  1  0  0  0  0
M  END
>  <DRUGBANK_ID>
DB11369

>  <COMMON_NAME>
Afoxolaner

>  <CAS_NUMBER>
1093861-60-9

>  <UNII>
02L07H6D0U

>  <SYNONYMS>
Afoxolaner

$$$$
