SU1
 OpenBabel10282417173D

 38 40  0  0  0  0  0  0  0  0999 V2000
   -0.6972    1.6057   -0.0331 N   0  0  0  0  0  0  0  0  0  0  0  0
   -1.7893    0.7694   -0.1197 C   0  0  0  0  0  0  0  0  0  0  0  0
   -2.9446    1.0885   -0.1564 O   0  0  0  0  0  0  0  0  0  0  0  0
   -1.1804   -0.5875   -0.0890 C   0  0  0  0  0  0  0  0  0  0  0  0
    1.3833   -1.3420   -0.0523 C   0  0  0  0  0  0  0  0  0  0  0  0
    2.6758   -0.7834   -0.0362 C   0  0  0  0  0  0  0  0  0  0  0  0
    2.8553    0.6106    0.0213 C   0  0  0  0  0  0  0  0  0  0  0  0
    1.7568    1.4682    0.0481 C   0  0  0  0  0  0  0  0  0  0  0  0
    0.5030    0.9058    0.0032 C   0  0  0  0  0  0  0  0  0  0  0  0
    0.2910   -0.4730   -0.0347 C   0  0  0  0  0  0  0  0  0  0  0  0
   -1.9066   -1.6714    0.1364 C   0  0  0  0  0  0  0  0  0  0  0  0
   -4.0899   -1.3871   -0.9123 N   0  0  0  0  0  0  0  0  0  0  0  0
   -3.3227   -1.8020    0.1529 C   0  0  0  0  0  0  0  0  0  0  0  0
   -4.1911   -2.3966    1.0576 C   0  0  0  0  0  0  0  0  0  0  0  0
   -5.5326   -2.1427    0.6146 C   0  0  0  0  0  0  0  0  0  0  0  0
   -5.4229   -1.5274   -0.6147 C   0  0  0  0  0  0  0  0  0  0  0  0
   -6.7943   -2.4608    1.3409 C   0  0  0  0  0  0  0  0  0  0  0  0
   -3.7775   -3.1155    2.2988 C   0  0  0  0  0  0  0  0  0  0  0  0
   -3.1160   -4.4708    2.0253 C   0  0  0  0  0  0  0  0  0  0  0  0
   -1.8495   -4.4705    1.2107 C   0  0  0  0  0  0  0  0  0  0  0  0
   -0.7171   -4.3149    1.6454 O   0  0  0  0  0  0  0  0  0  0  0  0
   -2.0891   -4.5202   -0.1233 O   0  0  0  0  0  0  0  0  0  0  0  0
   -0.8202    2.6003    0.0118 H   0  0  0  0  0  0  0  0  0  0  0  0
    1.2844   -2.4251   -0.0877 H   0  0  0  0  0  0  0  0  0  0  0  0
    3.5581   -1.4243   -0.0736 H   0  0  0  0  0  0  0  0  0  0  0  0
    3.8583    1.0310    0.0374 H   0  0  0  0  0  0  0  0  0  0  0  0
    1.8753    2.5427    0.0840 H   0  0  0  0  0  0  0  0  0  0  0  0
   -1.2833   -2.4372    0.5479 H   0  0  0  0  0  0  0  0  0  0  0  0
   -3.7366   -0.9618   -1.7578 H   0  0  0  0  0  0  0  0  0  0  0  0
   -6.1787   -1.1602   -1.2974 H   0  0  0  0  0  0  0  0  0  0  0  0
   -6.8766   -3.5379    1.5157 H   0  0  0  0  0  0  0  0  0  0  0  0
   -6.8093   -1.9528    2.3119 H   0  0  0  0  0  0  0  0  0  0  0  0
   -7.6809   -2.1375    0.7847 H   0  0  0  0  0  0  0  0  0  0  0  0
   -3.1405   -2.4521    2.8971 H   0  0  0  0  0  0  0  0  0  0  0  0
   -4.6699   -3.3021    2.9117 H   0  0  0  0  0  0  0  0  0  0  0  0
   -2.8606   -4.9283    2.9848 H   0  0  0  0  0  0  0  0  0  0  0  0
   -3.8182   -5.1372    1.5170 H   0  0  0  0  0  0  0  0  0  0  0  0
   -1.3393   -4.0944   -0.5920 H   0  0  0  0  0  0  0  0  0  0  0  0
  1  2  1  0  0  0  0
  1  9  1  0  0  0  0
  1 23  1  0  0  0  0
  2  3  2  0  0  0  0
  2  4  1  0  0  0  0
  4 10  1  0  0  0  0
  4 11  2  0  0  0  0
  5  6  1  0  0  0  0
  5 10  2  0  0  0  0
  5 24  1  0  0  0  0
  6  7  2  0  0  0  0
  6 25  1  0  0  0  0
  7  8  1  0  0  0  0
  7 26  1  0  0  0  0
  8  9  2  0  0  0  0
  8 27  1  0  0  0  0
  9 10  1  0  0  0  0
 11 13  1  0  0  0  0
 11 28  1  0  0  0  0
 12 13  1  0  0  0  0
 12 16  1  0  0  0  0
 12 29  1  0  0  0  0
 13 14  2  0  0  0  0
 14 15  1  0  0  0  0
 14 18  1  0  0  0  0
 15 16  2  0  0  0  0
 15 17  1  0  0  0  0
 16 30  1  0  0  0  0
 17 31  1  0  0  0  0
 17 32  1  0  0  0  0
 17 33  1  0  0  0  0
 18 19  1  0  0  0  0
 18 34  1  0  0  0  0
 18 35  1  0  0  0  0
 19 20  1  0  0  0  0
 19 36  1  0  0  0  0
 19 37  1  0  0  0  0
 20 21  2  0  0  0  0
 20 22  1  0  0  0  0
 22 38  1  0  0  0  0
M  END
>  <DRUGBANK_ID>
DB08577

>  <COMMON_NAME>
3-[(3-(2-CARBOXYETHYL)-4-METHYLPYRROL-2-YL)METHYLENE]-2-INDOLINONE

$$$$
