
 OpenBabel10282417183D

 17 18  0  0  0  0  0  0  0  0999 V2000
    2.4204   -0.6406   -0.0591 O   0  0  0  0  0  0  0  0  0  0  0  0
    1.2961   -1.3863    0.0182 C   0  0  0  0  0  0  0  0  0  0  0  0
    2.3924    0.7144   -0.0290 C   0  0  0  0  0  0  0  0  0  0  0  0
    0.0017   -0.7023    0.0994 C   0  0  0  0  0  0  0  0  0  0  0  0
    1.1924    1.3514    0.0850 N   0  0  0  0  0  0  0  0  0  0  0  0
   -0.0144    0.6784    0.1031 C   0  0  0  0  0  0  0  0  0  0  0  0
    1.3323   -2.6129   -0.0196 O   0  0  0  0  0  0  0  0  0  0  0  0
    3.4292    1.3782   -0.1134 O   0  0  0  0  0  0  0  0  0  0  0  0
   -1.1972   -1.4188    0.1132 C   0  0  0  0  0  0  0  0  0  0  0  0
   -1.2191    1.3730    0.0601 C   0  0  0  0  0  0  0  0  0  0  0  0
   -2.3999   -0.7341   -0.0485 C   0  0  0  0  0  0  0  0  0  0  0  0
   -2.4008    0.6588   -0.1372 C   0  0  0  0  0  0  0  0  0  0  0  0
    1.2284    2.3623    0.0603 H   0  0  0  0  0  0  0  0  0  0  0  0
   -1.1917   -2.5032    0.2002 H   0  0  0  0  0  0  0  0  0  0  0  0
   -1.2529    2.4562    0.1352 H   0  0  0  0  0  0  0  0  0  0  0  0
   -3.3339   -1.2866   -0.1168 H   0  0  0  0  0  0  0  0  0  0  0  0
   -3.3226    1.1874   -0.3690 H   0  0  0  0  0  0  0  0  0  0  0  0
  2  1  1  0  0  0  0
  3  1  1  0  0  0  0
  4  2  1  0  0  0  0
  4  6  1  0  0  0  0
  5  3  1  0  0  0  0
  5 13  1  0  0  0  0
  6  5  1  0  0  0  0
  7  2  2  0  0  0  0
  8  3  2  0  0  0  0
  9  4  2  0  0  0  0
  9 14  1  0  0  0  0
 10  6  2  0  0  0  0
 10 15  1  0  0  0  0
 11  9  1  0  0  0  0
 11 12  2  0  0  0  0
 11 16  1  0  0  0  0
 12 10  1  0  0  0  0
 12 17  1  0  0  0  0
M  END
>  <DRUGBANK_ID>
DB11593

>  <COMMON_NAME>
Isatoic anhydride

>  <CAS_NUMBER>
118-48-9

>  <UNII>
R8TFA74Y4U

>  <SYNONYMS>
1,2-dihydro-3,1-benzoxazine-2,4-dione; 1h-benz(d)(1,3)oxazine-2,4-dione; 2,4-dioxo-1,2-dihydro-4h-3,1-benzoxazine; 2h-3,1-benzoxazine-2,4(1h)-dione; 3,1-benzoxazine-2,4(1h)-dione; Isatoic acid anhydride; N-carboxyanthranilic anhydride

$$$$
