
 OpenBabel10282417123D

 10  9  0  0  0  0  0  0  0  0999 V2000
    0.9587    0.0486   -0.0614 C   0  0  0  0  0  0  0  0  0  0  0  0
    0.2209    0.9633   -1.0136 C   0  0  0  0  0  0  0  0  0  0  0  0
    0.3599   -0.7602    0.7553 N   0  0  0  0  0  0  0  0  0  0  0  0
   -0.6400    0.1642   -1.8821 N   0  0  0  0  0  0  0  0  0  0  0  0
    2.0591    0.0927   -0.0687 H   0  0  0  0  0  0  0  0  0  0  0  0
   -0.3854    1.6609   -0.4283 H   0  0  0  0  0  0  0  0  0  0  0  0
    0.9494    1.5290   -1.6010 H   0  0  0  0  0  0  0  0  0  0  0  0
   -0.6558   -0.6836    0.6026 H   0  0  0  0  0  0  0  0  0  0  0  0
   -1.1090    0.7775   -2.5479 H   0  0  0  0  0  0  0  0  0  0  0  0
   -0.0642   -0.4672   -2.4409 H   0  0  0  0  0  0  0  0  0  0  0  0
  1  2  1  0  0  0  0
  1  3  2  0  0  0  0
  1  5  1  0  0  0  0
  2  4  1  0  0  0  0
  2  6  1  0  0  0  0
  2  7  1  0  0  0  0
  3  8  1  0  0  0  0
  4  9  1  0  0  0  0
  4 10  1  0  0  0  0
M  END
>  <DRUGBANK_ID>
DB02108

>  <SECONDARY_ACCESSION_NUMBERS>
EXPT00447

>  <COMMON_NAME>
2-Aminoethanimidic Acid

>  <SYNONYMS>
2-aminoethylimine

$$$$
