
 OpenBabel10282417243D

 31 33  0  0  1  0  0  0  0  0999 V2000
    0.9647   -0.0095   -0.0124 O   0  0  0  0  0  0  0  0  0  0  0  0
    0.5605    0.5835   -1.2524 C   0  0  0  0  0  0  0  0  0  0  0  0
    1.3035    1.9136   -1.4924 C   0  0  1  0  0  0  0  0  0  0  0  0
    1.5448    2.0778   -2.9068 O   0  0  0  0  0  0  0  0  0  0  0  0
    1.4324    3.4765   -3.2667 C   0  0  2  0  0  0  0  0  0  0  0  0
    0.6127    4.1577   -2.1655 C   0  0  2  0  0  0  0  0  0  0  0  0
    1.0101    5.5265   -1.9836 O   0  0  0  0  0  0  0  0  0  0  0  0
    0.8900    3.2868   -0.9325 C   0  0  2  0  0  0  0  0  0  0  0  0
    2.0486    3.8656   -0.2690 O   0  0  0  0  0  0  0  0  0  0  0  0
    0.8435    3.6178   -4.6010 N   0  0  0  0  0  0  0  0  0  0  0  0
   -0.4495    3.2230   -4.8132 N   0  0  0  0  0  0  0  0  0  0  0  0
   -0.6885    3.5548   -6.0867 C   0  0  0  0  0  0  0  0  0  0  0  0
    0.4201    4.1384   -6.6955 C   0  0  0  0  0  0  0  0  0  0  0  0
    1.4049    4.1840   -5.7326 C   0  0  0  0  0  0  0  0  0  0  0  0
    2.6601    4.6884   -5.8940 N   0  0  0  0  0  0  0  0  0  0  0  0
    2.8758    5.1419   -7.0971 C   0  0  0  0  0  0  0  0  0  0  0  0
    1.9602    5.1413   -8.1367 N   0  0  0  0  0  0  0  0  0  0  0  0
    0.6842    4.6451   -8.0064 C   0  0  0  0  0  0  0  0  0  0  0  0
   -0.1288    4.6412   -8.9327 O   0  0  0  0  0  0  0  0  0  0  0  0
    1.9343   -0.1174   -0.0394 H   0  0  0  0  0  0  0  0  0  0  0  0
    0.8576   -0.1281   -2.0368 H   0  0  0  0  0  0  0  0  0  0  0  0
   -0.5321    0.6287   -1.2734 H   0  0  0  0  0  0  0  0  0  0  0  0
    2.2735    1.7199   -1.0260 H   0  0  0  0  0  0  0  0  0  0  0  0
    2.4491    3.8822   -3.3136 H   0  0  0  0  0  0  0  0  0  0  0  0
   -0.4602    4.1578   -2.3810 H   0  0  0  0  0  0  0  0  0  0  0  0
    1.9122    5.5335   -1.6124 H   0  0  0  0  0  0  0  0  0  0  0  0
    0.0771    3.2885   -0.1970 H   0  0  0  0  0  0  0  0  0  0  0  0
    2.8269    3.7320   -0.8393 H   0  0  0  0  0  0  0  0  0  0  0  0
   -1.6588    3.3585   -6.5242 H   0  0  0  0  0  0  0  0  0  0  0  0
    3.8471    5.5775   -7.3873 H   0  0  0  0  0  0  0  0  0  0  0  0
    2.1985    5.5089   -9.0471 H   0  0  0  0  0  0  0  0  0  0  0  0
  1  2  1  0  0  0  0
  1 20  1  0  0  0  0
  2 21  1  0  0  0  0
  2 22  1  0  0  0  0
  3  2  1  0  0  0  0
  3  4  1  0  0  0  0
  3 23  1  1  0  0  0
  5  4  1  0  0  0  0
  5 24  1  6  0  0  0
  5 10  1  0  0  0  0
  6  5  1  0  0  0  0
  6  7  1  0  0  0  0
  6  8  1  0  0  0  0
  6 25  1  6  0  0  0
  7 26  1  0  0  0  0
  8  3  1  0  0  0  0
  8  9  1  0  0  0  0
  8 27  1  1  0  0  0
  9 28  1  0  0  0  0
 10 11  1  0  0  0  0
 10 14  1  0  0  0  0
 11 12  2  0  0  0  0
 12 13  1  0  0  0  0
 12 29  1  0  0  0  0
 13 14  2  0  0  0  0
 13 18  1  0  0  0  0
 14 15  1  0  0  0  0
 15 16  2  0  0  0  0
 16 17  1  0  0  0  0
 16 30  1  0  0  0  0
 17 18  1  0  0  0  0
 17 31  1  0  0  0  0
 18 19  2  0  0  0  0
M  END
>  <DRUGBANK_ID>
DB17738

>  <COMMON_NAME>
Allopurinol riboside

>  <CAS_NUMBER>
16220-07-8

>  <UNII>
WZS8452SEC

>  <SYNONYMS>
4h-pyrazolo(3,4-d)pyrimidin-4-one, 1,5-dihydro-1-.beta.-d-ribofuranosyl-; Allopurinol-1-ribonucleoside

$$$$
