
 OpenBabel10282417183D

 83 87  0  0  0  0  0  0  0  0999 V2000
   -2.4178    1.3531    0.0841 C   0  0  0  0  0  0  0  0  0  0  0  0
    2.2516    1.2351    0.0413 C   0  0  0  0  0  0  0  0  0  0  0  0
   -5.0325   -1.5867    0.8584 C   0  0  0  0  0  0  0  0  0  0  0  0
    8.7114   -0.7130   -1.6421 C   0  0  0  0  0  0  0  0  0  0  0  0
    7.4038    2.7819    4.4520 C   0  0  0  0  0  0  0  0  0  0  0  0
    7.6927    0.1277   -1.2696 C   0  0  0  0  0  0  0  0  0  0  0  0
    9.3770   -1.5078   -0.6860 C   0  0  0  0  0  0  0  0  0  0  0  0
    6.8529    1.6785    5.1275 C   0  0  0  0  0  0  0  0  0  0  0  0
    7.8278    2.6732    3.1605 C   0  0  0  0  0  0  0  0  0  0  0  0
   -1.0410   -5.0510    1.9710 C   0  0  0  0  0  0  0  0  0  0  0  0
    7.4250    0.2058    0.0801 C   0  0  0  0  0  0  0  0  0  0  0  0
    8.9445   -1.5968    0.6416 C   0  0  0  0  0  0  0  0  0  0  0  0
    6.7268    0.4348    4.5124 C   0  0  0  0  0  0  0  0  0  0  0  0
    7.6724    1.4662    2.5747 C   0  0  0  0  0  0  0  0  0  0  0  0
   -0.9152   -4.1508    0.9274 C   0  0  0  0  0  0  0  0  0  0  0  0
   -0.0986   -5.0565    2.9856 C   0  0  0  0  0  0  0  0  0  0  0  0
    6.2949   -3.1353    0.5403 C   0  0  0  0  0  0  0  0  0  0  0  0
    4.9718   -1.2403    0.2162 C   0  0  0  0  0  0  0  0  0  0  0  0
    5.9550   -3.0170    2.0345 C   0  0  0  0  0  0  0  0  0  0  0  0
    4.8609   -0.9190    1.8005 C   0  0  0  0  0  0  0  0  0  0  0  0
    4.4177   -3.6706   -0.5634 C   0  0  0  0  0  0  0  0  0  0  0  0
    3.3128   -3.8470    0.4290 C   0  0  0  0  0  0  0  0  0  0  0  0
    0.7654   -2.9710    2.1268 C   0  0  0  0  0  0  0  0  0  0  0  0
   -1.3514    0.3174   -0.0257 C   0  0  0  0  0  0  0  0  0  0  0  0
    1.0697    0.2520   -0.1672 C   0  0  0  0  0  0  0  0  0  0  0  0
    7.9202   -0.7538    1.0529 C   0  0  0  0  0  0  0  0  0  0  0  0
    7.1899    0.3171    3.2108 C   0  0  0  0  0  0  0  0  0  0  0  0
   -0.1286   -3.0093    1.0380 C   0  0  0  0  0  0  0  0  0  0  0  0
    0.8226   -4.0161    3.0491 C   0  0  0  0  0  0  0  0  0  0  0  0
   -1.4897   -1.0306    0.0900 C   0  0  0  0  0  0  0  0  0  0  0  0
    0.9890   -1.1097   -0.2232 C   0  0  0  0  0  0  0  0  0  0  0  0
   -0.2540   -1.9263   -0.0775 C   0  0  3  0  0  0  0  0  0  0  0  0
    7.2219   -0.9793    2.4448 C   0  0  0  0  0  0  0  0  0  0  0  0
   -2.7912   -1.7187    0.3485 C   0  0  0  0  0  0  0  0  0  0  0  0
    2.1663   -1.8888   -0.0503 C   0  0  0  0  0  0  0  0  0  0  0  0
   -0.1244    0.9079   -0.2431 N   0  0  0  0  0  0  0  0  0  0  0  0
    5.3055   -2.5685   -0.3502 N   0  0  0  0  0  0  0  0  0  0  0  0
    5.9079   -1.6399    2.5166 N   0  0  0  0  0  0  0  0  0  0  0  0
    1.7983   -3.9389    4.1364 N   0  0  0  0  0  0  0  0  0  0  0  0
   -2.9881   -2.9189    0.3086 O   0  0  0  0  0  0  0  0  0  0  0  0
    2.9053   -1.2645    0.6027 O   0  0  0  0  0  0  0  0  0  0  0  0
    1.7110   -4.7755    5.0435 O   0  0  0  0  0  0  0  0  0  0  0  0
    2.6427   -3.0335    4.0955 O   0  0  0  0  0  0  0  0  0  0  0  0
   -3.8106   -0.8951    0.6316 O   0  0  0  0  0  0  0  0  0  0  0  0
    2.1764   -3.2473   -0.2076 O   0  0  0  0  0  0  0  0  0  0  0  0
   -2.1996    1.9870    0.9479 H   0  0  0  0  0  0  0  0  0  0  0  0
   -2.4369    1.9414   -0.8349 H   0  0  0  0  0  0  0  0  0  0  0  0
   -3.4242    0.9988    0.2110 H   0  0  0  0  0  0  0  0  0  0  0  0
    2.3893    1.8559   -0.8483 H   0  0  0  0  0  0  0  0  0  0  0  0
    2.0548    1.9076    0.8941 H   0  0  0  0  0  0  0  0  0  0  0  0
    3.2356    0.8436    0.2787 H   0  0  0  0  0  0  0  0  0  0  0  0
   -5.2723   -2.2559    0.0228 H   0  0  0  0  0  0  0  0  0  0  0  0
   -4.9552   -2.1478    1.7940 H   0  0  0  0  0  0  0  0  0  0  0  0
   -5.8178   -0.8384    0.9431 H   0  0  0  0  0  0  0  0  0  0  0  0
    8.9738   -0.7578   -2.6908 H   0  0  0  0  0  0  0  0  0  0  0  0
    7.5045    3.7468    4.9180 H   0  0  0  0  0  0  0  0  0  0  0  0
    7.0464    0.6507   -1.9735 H   0  0  0  0  0  0  0  0  0  0  0  0
   10.2049   -2.1271   -1.0007 H   0  0  0  0  0  0  0  0  0  0  0  0
    6.5391    1.7971    6.1553 H   0  0  0  0  0  0  0  0  0  0  0  0
    8.2944    3.4386    2.5546 H   0  0  0  0  0  0  0  0  0  0  0  0
   -1.8949   -5.7207    1.9711 H   0  0  0  0  0  0  0  0  0  0  0  0
    6.5633    0.8444    0.3383 H   0  0  0  0  0  0  0  0  0  0  0  0
    9.2264   -2.4537    1.2567 H   0  0  0  0  0  0  0  0  0  0  0  0
    6.2731   -0.4110    5.0309 H   0  0  0  0  0  0  0  0  0  0  0  0
    7.9954    1.5095    1.5564 H   0  0  0  0  0  0  0  0  0  0  0  0
   -1.5319   -4.2986    0.0449 H   0  0  0  0  0  0  0  0  0  0  0  0
   -0.1049   -5.8648    3.7062 H   0  0  0  0  0  0  0  0  0  0  0  0
    6.6387   -4.1292    0.2692 H   0  0  0  0  0  0  0  0  0  0  0  0
    7.1517   -2.6161    0.2108 H   0  0  0  0  0  0  0  0  0  0  0  0
    5.9230   -0.9112    0.0731 H   0  0  0  0  0  0  0  0  0  0  0  0
    4.5742   -0.4413   -0.4470 H   0  0  0  0  0  0  0  0  0  0  0  0
    4.9987   -3.4565    2.3184 H   0  0  0  0  0  0  0  0  0  0  0  0
    6.6412   -3.6537    2.5839 H   0  0  0  0  0  0  0  0  0  0  0  0
    3.9101   -1.2091    2.2787 H   0  0  0  0  0  0  0  0  0  0  0  0
    4.8660    0.1681    2.0043 H   0  0  0  0  0  0  0  0  0  0  0  0
    5.0107   -4.5942   -0.5197 H   0  0  0  0  0  0  0  0  0  0  0  0
    4.0713   -3.6873   -1.5964 H   0  0  0  0  0  0  0  0  0  0  0  0
    3.4468   -3.4507    1.4390 H   0  0  0  0  0  0  0  0  0  0  0  0
    3.2323   -4.9276    0.6222 H   0  0  0  0  0  0  0  0  0  0  0  0
    1.5287   -2.2012    2.2160 H   0  0  0  0  0  0  0  0  0  0  0  0
   -0.2858   -2.4436   -1.0491 H   0  0  0  0  0  0  0  0  0  0  0  0
    7.8512   -1.6711    3.0220 H   0  0  0  0  0  0  0  0  0  0  0  0
   -0.0776    1.9111   -0.4058 H   0  0  0  0  0  0  0  0  0  0  0  0
  1 46  1  0  0  0  0
  1 47  1  0  0  0  0
  1 48  1  0  0  0  0
  2 49  1  0  0  0  0
  2 50  1  0  0  0  0
  2 51  1  0  0  0  0
  3 52  1  0  0  0  0
  3 53  1  0  0  0  0
  3 54  1  0  0  0  0
  4 55  1  0  0  0  0
  5 56  1  0  0  0  0
  6  4  2  0  0  0  0
  6 57  1  0  0  0  0
  7  4  1  0  0  0  0
  7 58  1  0  0  0  0
  8  5  2  0  0  0  0
  8 59  1  0  0  0  0
  9  5  1  0  0  0  0
  9 60  1  0  0  0  0
 10 61  1  0  0  0  0
 11  6  1  0  0  0  0
 11 62  1  0  0  0  0
 12  7  2  0  0  0  0
 12 63  1  0  0  0  0
 13  8  1  0  0  0  0
 13 64  1  0  0  0  0
 14  9  2  0  0  0  0
 14 65  1  0  0  0  0
 15 10  2  0  0  0  0
 15 66  1  0  0  0  0
 16 10  1  0  0  0  0
 16 67  1  0  0  0  0
 17 68  1  0  0  0  0
 17 69  1  0  0  0  0
 18 70  1  0  0  0  0
 18 71  1  0  0  0  0
 19 17  1  0  0  0  0
 19 72  1  0  0  0  0
 19 73  1  0  0  0  0
 20 18  1  0  0  0  0
 20 74  1  0  0  0  0
 20 75  1  0  0  0  0
 21 76  1  0  0  0  0
 21 77  1  0  0  0  0
 22 21  1  0  0  0  0
 22 78  1  0  0  0  0
 22 79  1  0  0  0  0
 23 80  1  0  0  0  0
 24  1  1  0  0  0  0
 25  2  1  0  0  0  0
 26 11  2  0  0  0  0
 26 12  1  0  0  0  0
 27 13  2  0  0  0  0
 27 14  1  0  0  0  0
 28 15  1  0  0  0  0
 28 23  2  0  0  0  0
 29 16  2  0  0  0  0
 29 23  1  0  0  0  0
 30 24  2  0  0  0  0
 31 25  2  0  0  0  0
 32 28  1  0  0  0  0
 32 30  1  0  0  0  0
 32 31  1  0  0  0  0
 32 81  1  0  0  0  0
 33 26  1  0  0  0  0
 33 27  1  0  0  0  0
 33 82  1  0  0  0  0
 34 30  1  0  0  0  0
 35 31  1  0  0  0  0
 36 24  1  0  0  0  0
 36 25  1  0  0  0  0
 36 83  1  0  0  0  0
 37 17  1  0  0  0  0
 37 18  1  0  0  0  0
 37 21  1  0  0  0  0
 38 19  1  0  0  0  0
 38 20  1  0  0  0  0
 38 33  1  0  0  0  0
 39 29  1  0  0  0  0
 40 34  2  0  0  0  0
 41 35  2  0  0  0  0
 42 39  2  0  0  0  0
 43 39  2  0  0  0  0
 44  3  1  0  0  0  0
 44 34  1  0  0  0  0
 45 22  1  0  0  0  0
 45 35  1  0  0  0  0
M  END
>  <DRUGBANK_ID>
DB09238

>  <COMMON_NAME>
Manidipine

>  <CAS_NUMBER>
89226-50-6

>  <UNII>
6O4754US88

>  <SYNONYMS>
Manidipine; Manidipino

$$$$
