
 OpenBabel10282417143D

155156  0  0  1  0  0  0  0  0999 V2000
   17.2298  -15.7839  -10.3626 C   0  0  0  0  0  0  0  0  0  0  0  0
   16.2342  -14.2540  -11.8974 O   0  0  0  0  0  0  0  0  0  0  0  0
   15.1261  -13.2403  -13.8406 C   0  0  2  0  0  0  0  0  0  0  0  0
   13.3466  -12.2640  -16.0196 C   0  0  0  0  0  0  0  0  0  0  0  0
   11.6885  -11.6264  -18.0184 C   0  0  0  0  0  0  0  0  0  0  0  0
   10.6775  -11.0231  -20.2255 C   0  0  0  0  0  0  0  0  0  0  0  0
    9.8919  -11.2558  -19.0497 C   0  0  0  0  0  0  0  0  0  0  0  0
    8.1029  -10.2902  -19.9445 C   0  0  0  0  0  0  0  0  0  0  0  0
    6.4641   -9.8933  -19.6181 C   0  0  0  0  0  0  0  0  0  0  0  0
    5.2352   -8.9974  -20.0753 C   0  0  0  0  0  0  0  0  0  0  0  0
    4.9296   -9.4095  -21.1818 O   0  0  0  0  0  0  0  0  0  0  0  0
    4.1829   -8.6151  -19.2921 O   0  0  0  0  0  0  0  0  0  0  0  0
    4.0054   -9.1934  -18.0303 C   0  0  1  0  0  0  0  0  0  0  0  0
    5.1401   -8.6016  -17.1395 C   0  0  1  0  0  0  0  0  0  0  0  0
    5.8735   -8.5262  -15.8735 C   0  0  0  0  0  0  0  0  0  0  0  0
    6.4899   -8.8542  -17.5738 C   0  0  0  0  0  0  0  0  0  0  0  0
    7.4206   -9.7093  -16.9705 C   0  0  0  0  0  0  0  0  0  0  0  0
    8.6818  -10.0965  -17.3836 C   0  0  1  0  0  0  0  0  0  0  0  0
    8.7927  -11.7800  -17.3745 C   0  0  0  0  0  0  0  0  0  0  0  0
    8.5282  -12.3024  -16.1089 C   0  0  2  0  0  0  0  0  0  0  0  0
    7.2718  -12.8430  -16.3914 O   0  0  0  0  0  0  0  0  0  0  0  0
    6.6629  -12.2584  -17.5328 C   0  0  0  0  0  0  0  0  0  0  0  0
    9.6593  -11.7010  -15.2705 C   0  0  1  0  0  0  0  0  0  0  0  0
   10.4965  -11.5426  -14.0643 C   0  0  0  0  0  0  0  0  0  0  0  0
   10.9597  -12.1885  -15.7701 C   0  0  0  0  0  0  0  0  0  0  0  0
   11.8148  -13.0974  -15.1487 C   0  0  0  0  0  0  0  0  0  0  0  0
   13.3688  -13.7689  -15.3592 C   0  0  2  0  0  0  0  0  0  0  0  0
   13.2919  -15.0297  -15.6812 C   0  0  0  0  0  0  0  0  0  0  0  0
   13.1112  -15.5222  -14.3159 C   0  0  2  0  0  0  0  0  0  0  0  0
   12.6339  -15.6229  -12.9509 O   0  0  0  0  0  0  0  0  0  0  0  0
   12.4247  -16.9045  -12.6300 C   0  0  0  0  0  0  0  0  0  0  0  0
   14.1858  -15.0445  -13.6169 C   0  0  1  0  0  0  0  0  0  0  0  0
   14.5915  -14.6766  -12.3985 C   0  0  0  0  0  0  0  0  0  0  0  0
   15.6119  -15.3448  -14.1367 C   0  0  1  0  0  0  0  0  0  0  0  0
   16.9845  -14.8615  -13.8581 C   0  0  0  0  0  0  0  0  0  0  0  0
   17.5143  -15.4663  -12.6512 C   0  0  0  0  0  0  0  0  0  0  0  0
   17.0255  -13.6810  -12.3538 C   0  0  0  0  0  0  0  0  0  0  0  0
   17.2348  -16.7370  -12.3837 C   0  0  0  0  0  0  0  0  0  0  0  0
   16.1977  -17.3243  -13.1659 C   0  0  0  0  0  0  0  0  0  0  0  0
   15.5011  -18.1108  -12.5499 O   0  0  0  0  0  0  0  0  0  0  0  0
   15.5490  -16.6781  -14.1245 O   0  0  0  0  0  0  0  0  0  0  0  0
   14.0621  -12.6450  -14.7088 O   0  0  0  0  0  0  0  0  0  0  0  0
   15.1921  -11.9965  -15.5380 C   0  0  0  0  0  0  0  0  0  0  0  0
    8.8663   -9.1325  -18.4523 O   0  0  0  0  0  0  0  0  0  0  0  0
   10.1783   -9.0735  -18.8766 C   0  0  0  0  0  0  0  0  0  0  0  0
    2.5529   -9.6318  -18.1968 C   0  0  1  0  0  0  0  0  0  0  0  0
    2.6413  -10.9238  -18.9043 C   0  0  0  0  0  0  0  0  0  0  0  0
    1.8316   -9.8263  -16.9076 C   0  0  1  0  0  0  0  0  0  0  0  0
    1.9821   -8.7821  -16.0807 O   0  0  0  0  0  0  0  0  0  0  0  0
    3.0844   -8.0513  -15.9252 C   0  0  0  0  0  0  0  0  0  0  0  0
    0.3910  -10.2396  -17.0806 C   0  0  1  0  0  0  0  0  0  0  0  0
    0.3136  -11.5578  -17.7149 C   0  0  0  0  0  0  0  0  0  0  0  0
   -0.3523  -10.3047  -15.7782 C   0  0  0  0  0  0  0  0  0  0  0  0
   -0.3867   -8.9687  -15.0901 C   0  0  0  0  0  0  0  0  0  0  0  0
   -1.1001   -7.9344  -15.9416 C   0  0  0  0  0  0  0  0  0  0  0  0
   -2.1096   -7.3751  -15.5155 O   0  0  0  0  0  0  0  0  0  0  0  0
   -0.5286   -7.5916  -17.3111 C   0  0  2  0  0  0  0  0  0  0  0  0
    0.9040   -7.3470  -17.2720 C   0  0  0  0  0  0  0  0  0  0  0  0
   -1.1484   -6.3726  -17.8831 C   0  0  1  0  0  0  0  0  0  0  0  0
   -0.5593   -6.0715  -19.2593 C   0  0  0  0  0  0  0  0  0  0  0  0
   -0.7631   -7.1765  -20.2595 C   0  0  0  0  0  0  0  0  0  0  0  0
   -1.5312   -7.0415  -21.3741 C   0  0  0  0  0  0  0  0  0  0  0  0
   -1.8488   -8.1477  -22.2148 N   0  0  0  0  0  0  0  0  0  0  0  0
   -2.6433   -7.9158  -23.4300 C   0  0  0  0  0  0  0  0  0  0  0  0
   -1.3502   -9.4521  -21.9018 C   0  0  0  0  0  0  0  0  0  0  0  0
   -0.6852   -9.7302  -20.9027 O   0  0  0  0  0  0  0  0  0  0  0  0
   -2.5548   -6.5459  -17.9929 O   0  0  0  0  0  0  0  0  0  0  0  0
   -2.8588   -7.6426  -18.8219 C   0  0  0  0  0  0  0  0  0  0  0  0
   18.5284  -16.8014  -10.2782 H   0  0  0  0  0  0  0  0  0  0  0  0
   16.8704  -17.1497   -9.6573 H   0  0  0  0  0  0  0  0  0  0  0  0
   17.9970  -16.8808   -9.0773 H   0  0  0  0  0  0  0  0  0  0  0  0
   15.6428  -13.3647  -12.2098 H   0  0  0  0  0  0  0  0  0  0  0  0
   12.6461  -12.5530  -17.4808 H   0  0  0  0  0  0  0  0  0  0  0  0
   12.4604  -12.3175  -17.3955 H   0  0  0  0  0  0  0  0  0  0  0  0
    9.9014   -9.7709  -21.2261 H   0  0  0  0  0  0  0  0  0  0  0  0
   11.0312  -10.6005  -21.7568 H   0  0  0  0  0  0  0  0  0  0  0  0
    9.6466  -11.0548  -21.6901 H   0  0  0  0  0  0  0  0  0  0  0  0
    8.5599  -10.9597  -18.8354 H   0  0  0  0  0  0  0  0  0  0  0  0
    7.7099   -9.5718  -21.1074 H   0  0  0  0  0  0  0  0  0  0  0  0
    6.2290  -10.2456  -18.6287 H   0  0  0  0  0  0  0  0  0  0  0  0
    4.1577   -9.9358  -17.2575 H   0  0  0  0  0  0  0  0  0  0  0  0
    4.7035   -7.7513  -16.7802 H   0  0  0  0  0  0  0  0  0  0  0  0
    5.4351   -8.5760  -14.9506 H   0  0  0  0  0  0  0  0  0  0  0  0
    6.2222   -9.4519  -15.7290 H   0  0  0  0  0  0  0  0  0  0  0  0
    6.7116   -7.8162  -15.9421 H   0  0  0  0  0  0  0  0  0  0  0  0
    6.7499   -8.4931  -18.5368 H   0  0  0  0  0  0  0  0  0  0  0  0
    7.2511  -10.3168  -15.9948 H   0  0  0  0  0  0  0  0  0  0  0  0
    9.5758  -10.0428  -16.9115 H   0  0  0  0  0  0  0  0  0  0  0  0
    8.5574  -12.2909  -18.4379 H   0  0  0  0  0  0  0  0  0  0  0  0
    9.5894  -12.4060  -17.6028 H   0  0  0  0  0  0  0  0  0  0  0  0
    8.6399  -12.8804  -15.2456 H   0  0  0  0  0  0  0  0  0  0  0  0
    6.5304  -11.2484  -17.3488 H   0  0  0  0  0  0  0  0  0  0  0  0
    7.1977  -12.3514  -18.4326 H   0  0  0  0  0  0  0  0  0  0  0  0
    5.7636  -12.6570  -17.8284 H   0  0  0  0  0  0  0  0  0  0  0  0
    8.9110  -10.9838  -14.9748 H   0  0  0  0  0  0  0  0  0  0  0  0
   10.0629  -11.4768  -13.1393 H   0  0  0  0  0  0  0  0  0  0  0  0
   10.8817  -12.4413  -13.7966 H   0  0  0  0  0  0  0  0  0  0  0  0
   11.3550  -10.8714  -14.2228 H   0  0  0  0  0  0  0  0  0  0  0  0
   11.2075  -11.7686  -16.6082 H   0  0  0  0  0  0  0  0  0  0  0  0
   11.7601  -13.4540  -14.1413 H   0  0  0  0  0  0  0  0  0  0  0  0
   14.1167  -13.3900  -16.6634 H   0  0  0  0  0  0  0  0  0  0  0  0
   13.1639  -15.2669  -16.7051 H   0  0  0  0  0  0  0  0  0  0  0  0
   14.1762  -15.4868  -15.9250 H   0  0  0  0  0  0  0  0  0  0  0  0
   12.3884  -16.1446  -14.6054 H   0  0  0  0  0  0  0  0  0  0  0  0
   11.5709  -17.1094  -13.2353 H   0  0  0  0  0  0  0  0  0  0  0  0
   13.2646  -17.5076  -12.8936 H   0  0  0  0  0  0  0  0  0  0  0  0
   12.2059  -16.9302  -11.5926 H   0  0  0  0  0  0  0  0  0  0  0  0
   13.4127  -14.2650  -13.1709 H   0  0  0  0  0  0  0  0  0  0  0  0
   14.8384  -14.7690  -11.4005 H   0  0  0  0  0  0  0  0  0  0  0  0
   15.3504  -15.3812  -12.0620 H   0  0  0  0  0  0  0  0  0  0  0  0
   14.2759  -13.2555  -12.3959 H   0  0  0  0  0  0  0  0  0  0  0  0
   15.8727  -14.9681  -15.0713 H   0  0  0  0  0  0  0  0  0  0  0  0
   16.8273  -13.8370  -14.1116 H   0  0  0  0  0  0  0  0  0  0  0  0
   16.2997  -14.4392  -13.3084 H   0  0  0  0  0  0  0  0  0  0  0  0
   18.5728  -14.3625  -11.9031 H   0  0  0  0  0  0  0  0  0  0  0  0
   18.0702  -13.6434  -10.9944 H   0  0  0  0  0  0  0  0  0  0  0  0
   17.8226  -17.3017  -11.6959 H   0  0  0  0  0  0  0  0  0  0  0  0
   15.5890  -12.7060  -16.2472 H   0  0  0  0  0  0  0  0  0  0  0  0
   14.6575  -11.1931  -16.0462 H   0  0  0  0  0  0  0  0  0  0  0  0
   15.8950  -11.6162  -14.8808 H   0  0  0  0  0  0  0  0  0  0  0  0
   10.8126   -8.9545  -18.0672 H   0  0  0  0  0  0  0  0  0  0  0  0
   10.6198   -9.9038  -19.1689 H   0  0  0  0  0  0  0  0  0  0  0  0
   10.3242   -8.4985  -19.7359 H   0  0  0  0  0  0  0  0  0  0  0  0
    2.0393   -8.9445  -18.8793 H   0  0  0  0  0  0  0  0  0  0  0  0
    3.0539  -11.6910  -18.2841 H   0  0  0  0  0  0  0  0  0  0  0  0
    1.7544  -11.2287  -19.2783 H   0  0  0  0  0  0  0  0  0  0  0  0
    3.0730  -10.8679  -19.8645 H   0  0  0  0  0  0  0  0  0  0  0  0
    2.3170  -10.4943  -16.2588 H   0  0  0  0  0  0  0  0  0  0  0  0
    3.6394   -8.7532  -15.3605 H   0  0  0  0  0  0  0  0  0  0  0  0
    3.2899   -7.8758  -16.9575 H   0  0  0  0  0  0  0  0  0  0  0  0
    3.0970   -7.0697  -15.4911 H   0  0  0  0  0  0  0  0  0  0  0  0
   -0.0947   -9.5929  -17.7342 H   0  0  0  0  0  0  0  0  0  0  0  0
    0.8950  -12.2782  -17.1840 H   0  0  0  0  0  0  0  0  0  0  0  0
   -0.6599  -11.8799  -17.9622 H   0  0  0  0  0  0  0  0  0  0  0  0
    0.5962  -11.5437  -18.6868 H   0  0  0  0  0  0  0  0  0  0  0  0
   -1.3694  -10.6451  -15.9487 H   0  0  0  0  0  0  0  0  0  0  0  0
    0.1564  -11.0363  -15.1536 H   0  0  0  0  0  0  0  0  0  0  0  0
   -0.8800   -9.0510  -14.1332 H   0  0  0  0  0  0  0  0  0  0  0  0
    0.6152   -8.6350  -14.8689 H   0  0  0  0  0  0  0  0  0  0  0  0
   -0.7588   -8.3669  -18.0092 H   0  0  0  0  0  0  0  0  0  0  0  0
    1.1198   -7.4479  -16.2528 H   0  0  0  0  0  0  0  0  0  0  0  0
    1.3995   -7.9574  -17.9693 H   0  0  0  0  0  0  0  0  0  0  0  0
    1.2886   -6.3819  -17.3674 H   0  0  0  0  0  0  0  0  0  0  0  0
   -0.9408   -5.5458  -17.2085 H   0  0  0  0  0  0  0  0  0  0  0  0
   -1.0106   -5.1629  -19.6368 H   0  0  0  0  0  0  0  0  0  0  0  0
    0.5085   -5.9229  -19.1769 H   0  0  0  0  0  0  0  0  0  0  0  0
   -0.4583   -8.1724  -19.9502 H   0  0  0  0  0  0  0  0  0  0  0  0
   -1.9575   -6.0461  -21.5596 H   0  0  0  0  0  0  0  0  0  0  0  0
   -2.0599   -8.1770  -24.3111 H   0  0  0  0  0  0  0  0  0  0  0  0
   -3.5401   -8.5321  -23.4172 H   0  0  0  0  0  0  0  0  0  0  0  0
   -2.9393   -6.8724  -23.5060 H   0  0  0  0  0  0  0  0  0  0  0  0
   -1.5744  -10.2822  -22.5993 H   0  0  0  0  0  0  0  0  0  0  0  0
   -2.5298   -7.4443  -19.7873 H   0  0  0  0  0  0  0  0  0  0  0  0
   -2.3949   -8.5520  -18.4796 H   0  0  0  0  0  0  0  0  0  0  0  0
   -3.9017   -7.7762  -18.9395 H   0  0  0  0  0  0  0  0  0  0  0  0
  1  2  1  0  0  0  0
  1 69  1  0  0  0  0
  1 70  1  0  0  0  0
  1 71  1  0  0  0  0
  3  4  1  0  0  0  0
  3 37  1  0  0  0  0
  3  2  1  0  0  0  0
  3 72  1  1  0  0  0
  4  5  1  0  0  0  0
  4 73  1  0  0  0  0
  4 74  1  0  0  0  0
  5  7  2  0  0  0  0
  5  6  1  0  0  0  0
  6 75  1  0  0  0  0
  6 76  1  0  0  0  0
  6 77  1  0  0  0  0
  7  8  1  0  0  0  0
  7 78  1  0  0  0  0
  8  9  2  0  0  0  0
  8 79  1  0  0  0  0
  9 10  1  0  0  0  0
  9 80  1  0  0  0  0
 10 12  1  0  0  0  0
 10 11  2  0  0  0  0
 12 13  1  0  0  0  0
 13 14  1  0  0  0  0
 13 46  1  0  0  0  0
 13 81  1  6  0  0  0
 14 16  1  0  0  0  0
 14 82  1  6  0  0  0
 14 15  1  0  0  0  0
 15 83  1  0  0  0  0
 15 84  1  0  0  0  0
 15 85  1  0  0  0  0
 16 17  2  0  0  0  0
 16 86  1  0  0  0  0
 17 18  1  0  0  0  0
 17 87  1  0  0  0  0
 18 19  1  0  0  0  0
 18 44  1  0  0  0  0
 18 88  1  1  0  0  0
 19 20  1  0  0  0  0
 19 89  1  0  0  0  0
 19 90  1  0  0  0  0
 20 23  1  0  0  0  0
 20 21  1  0  0  0  0
 20 91  1  6  0  0  0
 21 22  1  0  0  0  0
 22 92  1  0  0  0  0
 22 93  1  0  0  0  0
 22 94  1  0  0  0  0
 23 25  1  0  0  0  0
 23 95  1  6  0  0  0
 23 24  1  0  0  0  0
 24 96  1  0  0  0  0
 24 97  1  0  0  0  0
 24 98  1  0  0  0  0
 25 26  2  0  0  0  0
 25 99  1  0  0  0  0
 26 27  1  0  0  0  0
 26100  1  0  0  0  0
 27 28  1  0  0  0  0
 27101  1  6  0  0  0
 27 42  1  0  0  0  0
 28 29  1  0  0  0  0
 28102  1  0  0  0  0
 28103  1  0  0  0  0
 29 32  1  0  0  0  0
 29104  1  6  0  0  0
 29 30  1  0  0  0  0
 30 31  1  0  0  0  0
 31105  1  0  0  0  0
 31106  1  0  0  0  0
 31107  1  0  0  0  0
 32 34  1  0  0  0  0
 32108  1  6  0  0  0
 32 33  1  0  0  0  0
 33109  1  0  0  0  0
 33110  1  0  0  0  0
 33111  1  0  0  0  0
 34 35  1  0  0  0  0
 34 41  1  0  0  0  0
 34112  1  6  0  0  0
 35 36  1  0  0  0  0
 35113  1  0  0  0  0
 35114  1  0  0  0  0
 36 37  1  0  0  0  0
 36 38  2  0  0  0  0
 37115  1  0  0  0  0
 37116  1  0  0  0  0
 38 39  1  0  0  0  0
 38117  1  0  0  0  0
 39 41  1  0  0  0  0
 39 40  2  0  0  0  0
 42 43  1  0  0  0  0
 43118  1  0  0  0  0
 43119  1  0  0  0  0
 43120  1  0  0  0  0
 44 45  1  0  0  0  0
 45121  1  0  0  0  0
 45122  1  0  0  0  0
 45123  1  0  0  0  0
 46 47  1  0  0  0  0
 46 48  1  0  0  0  0
 46124  1  6  0  0  0
 47125  1  0  0  0  0
 47126  1  0  0  0  0
 47127  1  0  0  0  0
 48 49  1  0  0  0  0
 48 51  1  0  0  0  0
 48128  1  1  0  0  0
 49 50  1  0  0  0  0
 50129  1  0  0  0  0
 50130  1  0  0  0  0
 50131  1  0  0  0  0
 51 52  1  0  0  0  0
 51 53  1  0  0  0  0
 51132  1  6  0  0  0
 52133  1  0  0  0  0
 52134  1  0  0  0  0
 52135  1  0  0  0  0
 53 54  1  0  0  0  0
 53136  1  0  0  0  0
 53137  1  0  0  0  0
 54 55  1  0  0  0  0
 54138  1  0  0  0  0
 54139  1  0  0  0  0
 55 56  2  0  0  0  0
 57 59  1  0  0  0  0
 57140  1  6  0  0  0
 57 58  1  0  0  0  0
 57 55  1  0  0  0  0
 58141  1  0  0  0  0
 58142  1  0  0  0  0
 58143  1  0  0  0  0
 59 60  1  0  0  0  0
 59 67  1  0  0  0  0
 59144  1  1  0  0  0
 60 61  1  0  0  0  0
 60145  1  0  0  0  0
 60146  1  0  0  0  0
 61 62  2  0  0  0  0
 61147  1  0  0  0  0
 62 63  1  0  0  0  0
 62148  1  0  0  0  0
 63 64  1  0  0  0  0
 63 65  1  0  0  0  0
 64149  1  0  0  0  0
 64150  1  0  0  0  0
 64151  1  0  0  0  0
 65 66  2  0  0  0  0
 65152  1  0  0  0  0
 67 68  1  0  0  0  0
 68153  1  0  0  0  0
 68154  1  0  0  0  0
 68155  1  0  0  0  0
M  END
>  <DRUGBANK_ID>
DB04774

>  <COMMON_NAME>
Reidispongiolide A

$$$$
