
 OpenBabel10282417153D

 98102  0  0  1  0  0  0  0  0999 V2000
   -0.8357   -0.3933    0.5066 O   0  0  0  0  0  0  0  0  0  0  0  0
    1.7040   -0.1922   -8.1201 O   0  0  0  0  0  0  0  0  0  0  0  0
    0.6449    1.7049   -7.7648 O   0  0  0  0  0  0  0  0  0  0  0  0
    0.2063   -1.3207    2.2295 O   0  0  0  0  0  0  0  0  0  0  0  0
    2.0915   -2.7569    0.7910 O   0  0  0  0  0  0  0  0  0  0  0  0
    3.0666   -2.6703   -1.2036 O   0  0  0  0  0  0  0  0  0  0  0  0
    1.1086    2.3280   -4.4799 C   0  0  1  0  0  0  0  0  0  0  0  0
    2.5145    2.5580   -4.9534 C   0  0  1  0  0  0  0  0  0  0  0  0
    1.2134    0.3362   -4.2109 C   0  0  1  0  0  0  0  0  0  0  0  0
    3.0539    0.8367   -5.8871 C   0  0  1  0  0  0  0  0  0  0  0  0
    0.2066   -0.5740   -3.2899 C   0  0  2  0  0  0  0  0  0  0  0  0
    3.5832    0.7825   -7.7789 C   0  0  2  0  0  0  0  0  0  0  0  0
   -0.5071    1.1224   -2.6460 C   0  0  1  0  0  0  0  0  0  0  0  0
    3.5200    2.0861   -7.3614 C   0  0  1  0  0  0  0  0  0  0  0  0
    0.8877    3.2383   -3.1796 C   0  0  0  0  0  0  0  0  0  0  0  0
    2.1462   -1.0721   -4.8598 C   0  0  0  0  0  0  0  0  0  0  0  0
    2.5641    3.2418   -6.2257 C   0  0  0  0  0  0  0  0  0  0  0  0
    3.5058   -0.5874   -5.2659 C   0  0  0  0  0  0  0  0  0  0  0  0
   -0.4745    2.7385   -2.9905 C   0  0  0  0  0  0  0  0  0  0  0  0
    3.9474    2.7506   -6.1539 C   0  0  0  0  0  0  0  0  0  0  0  0
   -1.5763    1.3578   -1.4757 C   0  0  0  0  0  0  0  0  0  0  0  0
    3.2016    2.2646   -9.1617 C   0  0  1  0  0  0  0  0  0  0  0  0
    0.0686   -1.4871   -1.8857 C   0  0  0  0  0  0  0  0  0  0  0  0
    0.1965    3.7588   -5.3696 C   0  0  0  0  0  0  0  0  0  0  0  0
    2.9932    4.3633   -4.6146 C   0  0  0  0  0  0  0  0  0  0  0  0
    4.9088    2.3302   -8.0966 C   0  0  0  0  0  0  0  0  0  0  0  0
    4.2456    3.4058   -8.7905 C   0  0  0  0  0  0  0  0  0  0  0  0
    0.1412   -2.4546   -3.7384 C   0  0  0  0  0  0  0  0  0  0  0  0
   -0.8814    0.1778   -0.8284 C   0  0  2  0  0  0  0  0  0  0  0  0
   -1.2855   -0.9812   -1.7219 C   0  0  0  0  0  0  0  0  0  0  0  0
    1.7553    1.1894   -7.7934 C   0  0  0  0  0  0  0  0  0  0  0  0
   -2.7097    1.7326   -2.4901 C   0  0  0  0  0  0  0  0  0  0  0  0
   -2.5542    1.1940   -0.3451 C   0  0  0  0  0  0  0  0  0  0  0  0
    2.2912    2.9305  -10.4225 C   0  0  0  0  0  0  0  0  0  0  0  0
    2.6193    2.5703  -11.8277 C   0  0  0  0  0  0  0  0  0  0  0  0
    1.3600    3.9511  -10.3896 C   0  0  0  0  0  0  0  0  0  0  0  0
    0.2843   -0.5718    1.2527 C   0  0  0  0  0  0  0  0  0  0  0  0
    1.6782    0.0637    0.9498 C   0  0  0  0  0  0  0  0  0  0  0  0
    2.6064   -0.5157   -0.1515 C   0  0  0  0  0  0  0  0  0  0  0  0
    2.2360    0.0623   -1.4655 C   0  0  0  0  0  0  0  0  0  0  0  0
    3.9929    0.0804   -0.3423 C   0  0  0  0  0  0  0  0  0  0  0  0
    2.6316   -2.0645   -0.2294 C   0  0  0  0  0  0  0  0  0  0  0  0
    2.1084    0.5447   -3.6230 H   0  0  0  0  0  0  0  0  0  0  0  0
    2.0264    0.5193   -6.0400 H   0  0  0  0  0  0  0  0  0  0  0  0
    4.5781    0.3329   -7.6630 H   0  0  0  0  0  0  0  0  0  0  0  0
    0.4681    1.3692   -2.2162 H   0  0  0  0  0  0  0  0  0  0  0  0
    2.4580   -0.8080   -7.9966 H   0  0  0  0  0  0  0  0  0  0  0  0
    1.6221   -2.3296    1.5394 H   0  0  0  0  0  0  0  0  0  0  0  0
    0.7935    4.3531   -3.3286 H   0  0  0  0  0  0  0  0  0  0  0  0
    1.4220    3.2901   -2.2202 H   0  0  0  0  0  0  0  0  0  0  0  0
    1.7365   -1.7854   -5.6302 H   0  0  0  0  0  0  0  0  0  0  0  0
    2.3561   -1.7723   -4.0316 H   0  0  0  0  0  0  0  0  0  0  0  0
    2.3213    4.0359   -6.9684 H   0  0  0  0  0  0  0  0  0  0  0  0
    1.6644    2.7809   -6.5383 H   0  0  0  0  0  0  0  0  0  0  0  0
    3.9327   -1.3193   -5.9979 H   0  0  0  0  0  0  0  0  0  0  0  0
    4.1498   -0.7557   -4.3764 H   0  0  0  0  0  0  0  0  0  0  0  0
   -1.1400    3.0755   -3.7818 H   0  0  0  0  0  0  0  0  0  0  0  0
   -0.8449    3.3663   -2.1608 H   0  0  0  0  0  0  0  0  0  0  0  0
    4.7337    3.5069   -6.1283 H   0  0  0  0  0  0  0  0  0  0  0  0
    4.3555    2.1708   -5.2452 H   0  0  0  0  0  0  0  0  0  0  0  0
    2.3027    2.7200   -8.7058 H   0  0  0  0  0  0  0  0  0  0  0  0
    0.3160   -2.5387   -1.6571 H   0  0  0  0  0  0  0  0  0  0  0  0
    0.5521   -1.3520   -0.9394 H   0  0  0  0  0  0  0  0  0  0  0  0
    0.7298    4.7272   -5.1088 H   0  0  0  0  0  0  0  0  0  0  0  0
    0.2165    3.9276   -6.4529 H   0  0  0  0  0  0  0  0  0  0  0  0
   -0.7630    4.1847   -5.0129 H   0  0  0  0  0  0  0  0  0  0  0  0
    2.5943    4.8514   -3.7203 H   0  0  0  0  0  0  0  0  0  0  0  0
    4.0585    4.6206   -4.6417 H   0  0  0  0  0  0  0  0  0  0  0  0
    2.6010    5.1257   -5.3807 H   0  0  0  0  0  0  0  0  0  0  0  0
    5.3026    1.6573   -8.8742 H   0  0  0  0  0  0  0  0  0  0  0  0
    5.7231    2.3130   -7.3483 H   0  0  0  0  0  0  0  0  0  0  0  0
    4.7399    3.9255   -9.5873 H   0  0  0  0  0  0  0  0  0  0  0  0
    3.9240    4.1792   -8.0677 H   0  0  0  0  0  0  0  0  0  0  0  0
   -0.6819   -2.8145   -4.3410 H   0  0  0  0  0  0  0  0  0  0  0  0
    1.0966   -3.0048   -3.9952 H   0  0  0  0  0  0  0  0  0  0  0  0
    0.0212   -3.3021   -2.9575 H   0  0  0  0  0  0  0  0  0  0  0  0
    0.0344    0.7535   -0.6417 H   0  0  0  0  0  0  0  0  0  0  0  0
   -1.6876   -0.7408   -2.7377 H   0  0  0  0  0  0  0  0  0  0  0  0
   -2.1230   -1.5404   -1.3553 H   0  0  0  0  0  0  0  0  0  0  0  0
   -3.3998    0.9294   -2.6698 H   0  0  0  0  0  0  0  0  0  0  0  0
   -3.1474    2.6682   -2.1023 H   0  0  0  0  0  0  0  0  0  0  0  0
   -2.4740    2.0413   -3.5127 H   0  0  0  0  0  0  0  0  0  0  0  0
   -2.1527    1.0689    0.6608 H   0  0  0  0  0  0  0  0  0  0  0  0
   -3.0961    2.1153   -0.1852 H   0  0  0  0  0  0  0  0  0  0  0  0
   -3.2211    0.3602   -0.6038 H   0  0  0  0  0  0  0  0  0  0  0  0
    1.7190    2.1897  -12.3266 H   0  0  0  0  0  0  0  0  0  0  0  0
    2.9484    3.4551  -12.3967 H   0  0  0  0  0  0  0  0  0  0  0  0
    3.4030    1.8268  -11.8280 H   0  0  0  0  0  0  0  0  0  0  0  0
    0.9366    4.4876   -9.5382 H   0  0  0  0  0  0  0  0  0  0  0  0
    0.9185    4.3496  -11.3213 H   0  0  0  0  0  0  0  0  0  0  0  0
    1.5641    1.1499    0.8786 H   0  0  0  0  0  0  0  0  0  0  0  0
    2.2405   -0.1049    1.8790 H   0  0  0  0  0  0  0  0  0  0  0  0
    2.3440    1.1414   -1.6190 H   0  0  0  0  0  0  0  0  0  0  0  0
    2.5768   -0.5680   -2.2779 H   0  0  0  0  0  0  0  0  0  0  0  0
    1.2254    0.0251   -1.5070 H   0  0  0  0  0  0  0  0  0  0  0  0
    4.6689   -0.1828    0.4426 H   0  0  0  0  0  0  0  0  0  0  0  0
    4.4086   -0.2779   -1.3124 H   0  0  0  0  0  0  0  0  0  0  0  0
    3.9234    1.1782   -0.4577 H   0  0  0  0  0  0  0  0  0  0  0  0
  1 37  1  0  0  0  0
  2 31  1  0  0  0  0
  2 47  1  0  0  0  0
  3 31  2  0  0  0  0
  4 37  2  0  0  0  0
  5 42  1  0  0  0  0
  5 48  1  0  0  0  0
  6 42  2  0  0  0  0
  7  8  1  0  0  0  0
  7  9  1  0  0  0  0
  7 15  1  0  0  0  0
  7 24  1  6  0  0  0
  8 10  1  0  0  0  0
  8 17  1  0  0  0  0
  8 25  1  1  0  0  0
  9 11  1  0  0  0  0
  9 16  1  0  0  0  0
  9 43  1  1  0  0  0
 10 12  1  0  0  0  0
 10 18  1  0  0  0  0
 10 44  1  6  0  0  0
 11 13  1  0  0  0  0
 11 23  1  0  0  0  0
 11 28  1  6  0  0  0
 12 14  1  0  0  0  0
 12 22  1  0  0  0  0
 12 45  1  6  0  0  0
 13 19  1  0  0  0  0
 13 21  1  0  0  0  0
 13 46  1  1  0  0  0
 14 20  1  0  0  0  0
 14 26  1  0  0  0  0
 14 31  1  6  0  0  0
 15 19  1  0  0  0  0
 15 49  1  0  0  0  0
 15 50  1  0  0  0  0
 16 18  1  0  0  0  0
 16 51  1  0  0  0  0
 16 52  1  0  0  0  0
 17 20  1  0  0  0  0
 17 53  1  0  0  0  0
 17 54  1  0  0  0  0
 18 55  1  0  0  0  0
 18 56  1  0  0  0  0
 19 57  1  0  0  0  0
 19 58  1  0  0  0  0
 20 59  1  0  0  0  0
 20 60  1  0  0  0  0
 21 29  1  0  0  0  0
 21 32  1  0  0  0  0
 21 33  1  0  0  0  0
 22 27  1  0  0  0  0
 22 34  1  0  0  0  0
 22 61  1  1  0  0  0
 23 30  1  0  0  0  0
 23 62  1  0  0  0  0
 23 63  1  0  0  0  0
 24 64  1  0  0  0  0
 24 65  1  0  0  0  0
 24 66  1  0  0  0  0
 25 67  1  0  0  0  0
 25 68  1  0  0  0  0
 25 69  1  0  0  0  0
 26 27  1  0  0  0  0
 26 70  1  0  0  0  0
 26 71  1  0  0  0  0
 27 72  1  0  0  0  0
 27 73  1  0  0  0  0
 28 74  1  0  0  0  0
 28 75  1  0  0  0  0
 28 76  1  0  0  0  0
 29 30  1  0  0  0  0
 29 77  1  6  0  0  0
 29  1  1  0  0  0  0
 30 78  1  0  0  0  0
 30 79  1  0  0  0  0
 32 80  1  0  0  0  0
 32 81  1  0  0  0  0
 32 82  1  0  0  0  0
 33 83  1  0  0  0  0
 33 84  1  0  0  0  0
 33 85  1  0  0  0  0
 34 35  1  0  0  0  0
 34 36  2  0  0  0  0
 35 86  1  0  0  0  0
 35 87  1  0  0  0  0
 35 88  1  0  0  0  0
 36 89  1  0  0  0  0
 36 90  1  0  0  0  0
 37 38  1  0  0  0  0
 38 39  1  0  0  0  0
 38 91  1  0  0  0  0
 38 92  1  0  0  0  0
 39 40  1  0  0  0  0
 39 41  1  0  0  0  0
 39 42  1  0  0  0  0
 40 93  1  0  0  0  0
 40 94  1  0  0  0  0
 40 95  1  0  0  0  0
 41 96  1  0  0  0  0
 41 97  1  0  0  0  0
 41 98  1  0  0  0  0
M  END
>  <DRUGBANK_ID>
DB06581

>  <COMMON_NAME>
Bevirimat

>  <CAS_NUMBER>
174022-42-5

>  <UNII>
S125DW66N8

>  <SYNONYMS>
Bevirimat

$$$$
