181
 OpenBabel10282417103D

 26 26  0  0  1  0  0  0  0  0999 V2000
   -2.1526    0.0630    0.0167 Cl  0  0  0  0  0  0  0  0  0  0  0  0
    4.9537   -3.1373    1.3305 O   0  0  0  0  0  0  0  0  0  0  0  0
    2.8695   -2.5746    1.8974 O   0  0  0  0  0  0  0  0  0  0  0  0
    4.0748   -0.0090   -2.4369 N   0  0  0  0  0  0  0  0  0  0  0  0
    3.8886   -0.0768    0.0518 C   0  0  3  0  0  0  0  0  0  0  0  0
    2.3676   -0.0048   -0.0218 C   0  0  0  0  0  0  0  0  0  0  0  0
    4.4078   -0.7772    1.3355 C   0  0  0  0  0  0  0  0  0  0  0  0
    4.4851   -0.7159   -1.2226 C   0  0  0  0  0  0  0  0  0  0  0  0
    1.6849    1.2186    0.0235 C   0  0  0  0  0  0  0  0  0  0  0  0
    1.6154   -1.1781   -0.1751 C   0  0  0  0  0  0  0  0  0  0  0  0
    3.9877   -2.2217    1.5458 C   0  0  0  0  0  0  0  0  0  0  0  0
    0.2847    1.2417    0.0031 C   0  0  0  0  0  0  0  0  0  0  0  0
    0.2289   -1.1660   -0.1104 C   0  0  0  0  0  0  0  0  0  0  0  0
   -0.4348    0.0470   -0.0242 C   0  0  0  0  0  0  0  0  0  0  0  0
    5.8589   -2.7919    1.2389 H   0  0  0  0  0  0  0  0  0  0  0  0
    4.3719   -0.5335   -3.2581 H   0  0  0  0  0  0  0  0  0  0  0  0
    3.0519    0.0077   -2.4827 H   0  0  0  0  0  0  0  0  0  0  0  0
    4.2699    0.9565    0.0986 H   0  0  0  0  0  0  0  0  0  0  0  0
    5.5034   -0.7226    1.3626 H   0  0  0  0  0  0  0  0  0  0  0  0
    4.0659   -0.2270    2.2216 H   0  0  0  0  0  0  0  0  0  0  0  0
    5.5788   -0.6980   -1.1667 H   0  0  0  0  0  0  0  0  0  0  0  0
    4.1820   -1.7644   -1.3049 H   0  0  0  0  0  0  0  0  0  0  0  0
    2.2288    2.1612    0.0557 H   0  0  0  0  0  0  0  0  0  0  0  0
    2.1019   -2.1413   -0.3050 H   0  0  0  0  0  0  0  0  0  0  0  0
   -0.2412    2.1920    0.0166 H   0  0  0  0  0  0  0  0  0  0  0  0
   -0.3053   -2.1112   -0.1200 H   0  0  0  0  0  0  0  0  0  0  0  0
  1 14  1  0  0  0  0
  2 11  1  0  0  0  0
  2 15  1  0  0  0  0
  3 11  2  0  0  0  0
  4  8  1  0  0  0  0
  4 16  1  0  0  0  0
  4 17  1  0  0  0  0
  5  6  1  0  0  0  0
  5  7  1  0  0  0  0
  5  8  1  0  0  0  0
  5 18  1  0  0  0  0
  6  9  2  0  0  0  0
  6 10  1  0  0  0  0
  7 11  1  0  0  0  0
  7 19  1  0  0  0  0
  7 20  1  0  0  0  0
  8 21  1  0  0  0  0
  8 22  1  0  0  0  0
  9 12  1  0  0  0  0
  9 23  1  0  0  0  0
 10 13  2  0  0  0  0
 10 24  1  0  0  0  0
 12 14  2  0  0  0  0
 12 25  1  0  0  0  0
 13 14  1  0  0  0  0
 13 26  1  0  0  0  0
M  END
>  <DRUGBANK_ID>
DB00181

>  <SECONDARY_ACCESSION_NUMBERS>
APRD00551

>  <COMMON_NAME>
Baclofen

>  <CAS_NUMBER>
1134-47-0

>  <UNII>
H789N3FKE8

>  <SYNONYMS>
(+-)-Baclofen; 4-Amino-3-(4-chlorophenyl)butyric acid; Baclofen; Baclof√®ne; Baclofeno; Baclofenum; beta-(4-Chlorophenyl)gaba; beta-(Aminomethyl)-4-chlorobenzenepropanoic acid; beta-(Aminomethyl)-p-chlorohydrocinnamic acid; beta-(p-Chlorophenyl)-gamma-aminobutyric acid; DL-4-Amino-3-p-chlorophenylbutanoic acid; DL-Baclofen; gamma-Amino-beta-(p-chlorophenyl)butyric acid

$$$$
