Untitled Document-1
 OpenBabel10282417123D

 19 18  0  0  0  0  0  0  0  0999 V2000
    0.8978    0.1161   -0.0008 C   0  0  1  0  0  0  0  0  0  0  0  0
    0.5963   -0.7314    1.1788 N   0  0  0  0  0  0  0  0  0  0  0  0
    0.3311   -0.4447   -1.3270 C   0  0  0  0  0  0  0  0  0  0  0  0
   -1.0551   -0.1301   -1.5998 O   0  0  0  0  0  0  0  0  0  0  0  0
   -1.9820   -0.5982   -0.7209 C   0  0  0  0  0  0  0  0  0  0  0  0
   -1.7522   -1.3656    0.2072 O   0  0  0  0  0  0  0  0  0  0  0  0
   -3.3422   -0.0381   -0.9861 C   0  0  0  0  0  0  0  0  0  0  0  0
    0.4544    1.5631    0.2285 C   0  0  0  0  0  0  0  0  0  0  0  0
    1.1944    2.5378    0.2930 O   0  0  0  0  0  0  0  0  0  0  0  0
   -0.8820    1.7299    0.3394 O   0  0  0  0  0  0  0  0  0  0  0  0
    1.9924    0.1242   -0.0748 H   0  0  0  0  0  0  0  0  0  0  0  0
    0.8932   -1.6876    0.9747 H   0  0  0  0  0  0  0  0  0  0  0  0
   -0.4298   -0.8381    1.2210 H   0  0  0  0  0  0  0  0  0  0  0  0
    0.9124   -0.0146   -2.1532 H   0  0  0  0  0  0  0  0  0  0  0  0
    0.4714   -1.5311   -1.3950 H   0  0  0  0  0  0  0  0  0  0  0  0
   -3.3369    1.0546   -0.9472 H   0  0  0  0  0  0  0  0  0  0  0  0
   -3.7108   -0.3995   -1.9464 H   0  0  0  0  0  0  0  0  0  0  0  0
   -4.0124   -0.3943   -0.1962 H   0  0  0  0  0  0  0  0  0  0  0  0
   -1.0188    2.6952    0.4248 H   0  0  0  0  0  0  0  0  0  0  0  0
  1  8  1  0  0  0  0
  1 11  1  6  0  0  0
  1  3  1  0  0  0  0
  1  2  1  0  0  0  0
  2 12  1  0  0  0  0
  2 13  1  0  0  0  0
  3  4  1  0  0  0  0
  3 14  1  0  0  0  0
  3 15  1  0  0  0  0
  4  5  1  0  0  0  0
  5  6  2  0  0  0  0
  5  7  1  0  0  0  0
  7 16  1  0  0  0  0
  7 17  1  0  0  0  0
  7 18  1  0  0  0  0
  8  9  2  0  0  0  0
  8 10  1  0  0  0  0
 10 19  1  0  0  0  0
M  END
>  <DRUGBANK_ID>
DB01837

>  <SECONDARY_ACCESSION_NUMBERS>
EXPT02411

>  <COMMON_NAME>
O-acetyl-L-serine

>  <CAS_NUMBER>
5147-00-2

>  <UNII>
G05L7T7ZEQ

>  <SYNONYMS>
L-Serine, acetate (ester); O3-acetyl-L-serine

$$$$
