
 OpenBabel10282417173D
Written by jPsi
 23 22  0  0  0  0  0  0  0  0999 V2000
    0.9279   -0.0226    0.0901 C   0  0  1  0  0  0  0  0  0  0  0  0
    0.4821    0.5186   -1.2857 C   0  0  1  0  0  0  0  0  0  0  0  0
    0.6758    2.0245   -1.4728 C   0  0  0  0  0  0  0  0  0  0  0  0
    2.1155    2.4132   -1.2760 C   0  0  0  0  0  0  0  0  0  0  0  0
    2.7829    2.9703   -2.1484 O   0  0  0  0  0  0  0  0  0  0  0  0
    1.1592   -0.1856   -2.3320 O   0  0  0  0  0  0  0  0  0  0  0  0
    0.3902    0.8491    1.2517 C   0  0  1  0  0  0  0  0  0  0  0  0
   -0.4131    0.0681    2.2830 C   0  0  0  0  0  0  0  0  0  0  0  0
    0.4067   -0.9350    2.8715 O   0  0  0  0  0  0  0  0  0  0  0  0
    1.5063    1.5018    1.8697 O   0  0  0  0  0  0  0  0  0  0  0  0
    0.5342   -1.3973    0.2426 O   0  0  0  0  0  0  0  0  0  0  0  0
    2.0243   -0.0564    0.1143 H   0  0  0  0  0  0  0  0  0  0  0  0
   -0.5790    0.2764   -1.4228 H   0  0  0  0  0  0  0  0  0  0  0  0
    0.3636    2.3225   -2.4777 H   0  0  0  0  0  0  0  0  0  0  0  0
    0.0737    2.6128   -0.7748 H   0  0  0  0  0  0  0  0  0  0  0  0
    2.5676    2.1777   -0.3007 H   0  0  0  0  0  0  0  0  0  0  0  0
    2.1191   -0.0307   -2.2557 H   0  0  0  0  0  0  0  0  0  0  0  0
   -0.2651    1.6451    0.8984 H   0  0  0  0  0  0  0  0  0  0  0  0
   -0.7728    0.7324    3.0723 H   0  0  0  0  0  0  0  0  0  0  0  0
   -1.2829   -0.3993    1.8064 H   0  0  0  0  0  0  0  0  0  0  0  0
    0.7211   -1.5019    2.1334 H   0  0  0  0  0  0  0  0  0  0  0  0
    1.9603    0.8254    2.4123 H   0  0  0  0  0  0  0  0  0  0  0  0
   -0.4239   -1.4676    0.0749 H   0  0  0  0  0  0  0  0  0  0  0  0
  1 11  1  0  0  0  0
  1 12  1  1  0  0  0
  1  7  1  0  0  0  0
  1  2  1  0  0  0  0
  2  3  1  0  0  0  0
  2  6  1  0  0  0  0
  2 13  1  6  0  0  0
  3  4  1  0  0  0  0
  3 14  1  0  0  0  0
  3 15  1  0  0  0  0
  4  5  2  0  0  0  0
  4 16  1  0  0  0  0
  6 17  1  0  0  0  0
  7  8  1  0  0  0  0
  7 10  1  0  0  0  0
  7 18  1  6  0  0  0
  8  9  1  0  0  0  0
  8 19  1  0  0  0  0
  8 20  1  0  0  0  0
  9 21  1  0  0  0  0
 10 22  1  0  0  0  0
 11 23  1  0  0  0  0
M  END
>  <DRUGBANK_ID>
DB08831

>  <COMMON_NAME>
2-deoxyglucose

>  <CAS_NUMBER>
154-17-6

>  <UNII>
9G2MP84A8W

>  <SYNONYMS>
2-Deoxy-D-arabino-hexose; 2-deoxy-D-glucose; 2-DG; D-arabino-2-desoxyhexose

$$$$
