
 OpenBabel10282417163D

 23 22  0  0  0  0  0  0  0  0999 V2000
    0.6444   -1.1680   -2.1620 C   0  0  0  0  0  0  0  0  0  0  0  0
    1.1439   -0.0313   -2.7049 O   0  0  0  0  0  0  0  0  0  0  0  0
    0.4316    1.3039    0.2481 C   0  0  0  0  0  0  0  0  0  0  0  0
    1.0973   -0.0727    0.1370 C   0  0  0  0  0  0  0  0  0  0  0  0
    0.3078   -1.1371   -0.6474 C   0  0  2  0  0  0  0  0  0  0  0  0
    0.5779   -2.4553   -0.0284 N   0  0  0  0  0  0  0  0  0  0  0  0
   -1.5966   -2.9231    0.5386 O   0  0  0  0  0  0  0  0  0  0  0  0
   -0.4170   -3.2398    0.4748 C   0  0  0  0  0  0  0  0  0  0  0  0
    0.0057   -4.4183    0.9929 N   0  0  0  0  0  0  0  0  0  0  0  0
   -0.7448    1.3392    1.1860 C   0  0  0  0  0  0  0  0  0  0  0  0
   -0.8000    1.9584    2.2380 O   0  0  0  0  0  0  0  0  0  0  0  0
    0.4612   -2.1475   -2.8751 O   0  0  0  0  0  0  0  0  0  0  0  0
   -1.7914    0.6400    0.7254 O   0  0  0  0  0  0  0  0  0  0  0  0
    1.2980    0.7433   -2.1381 H   0  0  0  0  0  0  0  0  0  0  0  0
    1.1772    1.9996    0.6547 H   0  0  0  0  0  0  0  0  0  0  0  0
    0.1240    1.7169   -0.7178 H   0  0  0  0  0  0  0  0  0  0  0  0
    1.3060   -0.4314    1.1520 H   0  0  0  0  0  0  0  0  0  0  0  0
    2.0800    0.0569   -0.3347 H   0  0  0  0  0  0  0  0  0  0  0  0
   -0.7682   -0.9586   -0.5988 H   0  0  0  0  0  0  0  0  0  0  0  0
    1.4900   -2.8687   -0.1502 H   0  0  0  0  0  0  0  0  0  0  0  0
   -0.7126   -5.0254    1.3692 H   0  0  0  0  0  0  0  0  0  0  0  0
    0.9436   -4.7787    0.9365 H   0  0  0  0  0  0  0  0  0  0  0  0
   -2.4805    0.6609    1.4234 H   0  0  0  0  0  0  0  0  0  0  0  0
  1  2  1  0  0  0  0
  1 12  2  0  0  0  0
  2 14  1  0  0  0  0
  3 10  1  0  0  0  0
  3 15  1  0  0  0  0
  3 16  1  0  0  0  0
  4  3  1  0  0  0  0
  4 17  1  0  0  0  0
  4 18  1  0  0  0  0
  5  6  1  0  0  0  0
  5 19  1  1  0  0  0
  5  4  1  0  0  0  0
  5  1  1  0  0  0  0
  6  8  1  0  0  0  0
  6 20  1  0  0  0  0
  8  7  2  0  0  0  0
  9  8  1  0  0  0  0
  9 21  1  0  0  0  0
  9 22  1  0  0  0  0
 10 11  2  0  0  0  0
 10 13  1  0  0  0  0
 13 23  1  0  0  0  0
M  END
>  <DRUGBANK_ID>
DB06775

>  <COMMON_NAME>
Carglumic acid

>  <CAS_NUMBER>
1188-38-1

>  <UNII>
5L0HB4V1EW

>  <SYNONYMS>
(2S)-2-(carbamoylamino)pentanedioic acid; (S)-2-ureidopentanedioic acid; Acide carglumique; ácido carglúmico; Acidum carglumicum; Carbamino-L-glutamic acid; Carbamylglutamic acid; Carglumic acid; L-N-Carbamoylglutamic acid; N-Carbamoyl-L-Glutamic Acid; N-Carbamyl-L-glutamate; N-Carbamylglutamate; Ureidoglutaric acid

$$$$
