
 OpenBabel10282417183D

 58 59  0  0  1  0  0  0  0  0999 V2000
   10.0040    6.3726   -5.0872 C   0  0  0  0  0  0  0  0  0  0  0  0
   10.3815    5.5742   -3.8285 C   0  0  0  0  0  0  0  0  0  0  0  0
    9.0061    6.2417   -5.9984 C   0  0  0  0  0  0  0  0  0  0  0  0
    9.5944    5.4959   -2.4941 C   0  0  0  0  0  0  0  0  0  0  0  0
    6.9721    7.8753   -2.6622 C   0  0  0  0  0  0  0  0  0  0  0  0
    8.2392    8.2877   -2.4632 C   0  0  0  0  0  0  0  0  0  0  0  0
    5.9387    8.5513   -2.1534 C   0  0  0  0  0  0  0  0  0  0  0  0
    7.6406    5.6588   -5.8204 C   0  0  0  0  0  0  0  0  0  0  0  0
    8.1588    5.0838   -2.6613 C   0  0  0  0  0  0  0  0  0  0  0  0
    3.5063    7.6564   -3.3389 C   0  0  0  0  0  0  0  0  0  0  0  0
    3.9873    6.6809   -4.1613 C   0  0  0  0  0  0  0  0  0  0  0  0
    7.2311    8.9973   -0.3987 C   0  0  0  0  0  0  0  0  0  0  0  0
    5.8204    9.0089   -5.8119 C   0  0  0  0  0  0  0  0  0  0  0  0
    3.7253    7.8970   -0.6131 C   0  0  0  0  0  0  0  0  0  0  0  0
    8.3910    8.8083   -1.2386 C   0  0  0  0  0  0  0  0  0  0  0  0
    2.8364    7.6480   -1.9520 C   0  0  2  0  0  0  0  0  0  0  0  0
    5.9319    8.7931   -0.8914 C   0  0  0  0  0  0  0  0  0  0  0  0
    6.6046    6.6593   -5.2425 C   0  0  2  0  0  0  0  0  0  0  0  0
    5.0170    6.6783   -5.4220 C   0  0  2  0  0  0  0  0  0  0  0  0
    7.0579    8.3046   -5.3356 C   0  0  1  0  0  0  0  0  0  0  0  0
    4.9765    7.8751   -6.3645 C   0  0  2  0  0  0  0  0  0  0  0  0
    7.8252    3.7217   -3.2271 C   0  0  0  0  0  0  0  0  0  0  0  0
   10.0066    9.1196   -0.7728 Cl  0  0  0  0  0  0  0  0  0  0  0  0
    2.1278    6.4131   -1.8037 O   0  0  0  0  0  0  0  0  0  0  0  0
    8.2565    8.7221   -5.9593 O   0  0  0  0  0  0  0  0  0  0  0  0
    5.6305    7.4633   -7.5709 O   0  0  0  0  0  0  0  0  0  0  0  0
    6.7178    3.1701   -3.1001 O   0  0  0  0  0  0  0  0  0  0  0  0
    8.7033    3.2504   -4.1279 O   0  0  0  0  0  0  0  0  0  0  0  0
    4.6843    9.0064   -0.3839 O   0  0  0  0  0  0  0  0  0  0  0  0
   10.7467    7.1389   -5.3411 H   0  0  0  0  0  0  0  0  0  0  0  0
    9.0761    6.7882   -6.9347 H   0  0  0  0  0  0  0  0  0  0  0  0
    3.6458    8.7059   -3.5706 H   0  0  0  0  0  0  0  0  0  0  0  0
    3.5483    5.6916   -3.9835 H   0  0  0  0  0  0  0  0  0  0  0  0
    2.0753    8.4410   -1.9798 H   0  0  0  0  0  0  0  0  0  0  0  0
    6.4617    6.1069   -4.3032 H   0  0  0  0  0  0  0  0  0  0  0  0
    4.7979    5.7158   -5.9015 H   0  0  0  0  0  0  0  0  0  0  0  0
    7.2185    8.9051   -4.4506 H   0  0  0  0  0  0  0  0  0  0  0  0
    3.9642    8.1931   -6.5709 H   0  0  0  0  0  0  0  0  0  0  0  0
   10.5380    4.5561   -4.1791 H   0  0  0  0  0  0  0  0  0  0  0  0
   11.3859    5.9173   -3.5449 H   0  0  0  0  0  0  0  0  0  0  0  0
   10.0500    4.8426   -1.7511 H   0  0  0  0  0  0  0  0  0  0  0  0
    9.6563    6.4795   -2.0324 H   0  0  0  0  0  0  0  0  0  0  0  0
    6.5970    7.4445   -3.4915 H   0  0  0  0  0  0  0  0  0  0  0  0
    8.9885    8.1232   -3.2434 H   0  0  0  0  0  0  0  0  0  0  0  0
    5.2092    8.8436   -2.8684 H   0  0  0  0  0  0  0  0  0  0  0  0
    7.2568    4.9427   -6.5446 H   0  0  0  0  0  0  0  0  0  0  0  0
    7.8743    4.9742   -5.0408 H   0  0  0  0  0  0  0  0  0  0  0  0
    7.4891    5.3143   -1.8247 H   0  0  0  0  0  0  0  0  0  0  0  0
    7.8878    5.8163   -3.3812 H   0  0  0  0  0  0  0  0  0  0  0  0
    7.3925    9.3572    0.5886 H   0  0  0  0  0  0  0  0  0  0  0  0
    5.3266    9.4969   -4.9608 H   0  0  0  0  0  0  0  0  0  0  0  0
    6.1171    9.7895   -6.5133 H   0  0  0  0  0  0  0  0  0  0  0  0
    2.9707    8.1031    0.1598 H   0  0  0  0  0  0  0  0  0  0  0  0
    4.1772    6.9467   -0.2976 H   0  0  0  0  0  0  0  0  0  0  0  0
    2.7906    5.7028   -1.8398 H   0  0  0  0  0  0  0  0  0  0  0  0
    8.2069    8.4869   -6.8913 H   0  0  0  0  0  0  0  0  0  0  0  0
    5.3036    6.5709   -7.7739 H   0  0  0  0  0  0  0  0  0  0  0  0
    8.2355    2.6776   -4.7725 H   0  0  0  0  0  0  0  0  0  0  0  0
  2  1  1  0  0  0  0
  2 39  1  0  0  0  0
  2 40  1  0  0  0  0
  3  1  2  0  0  0  0
  4  2  1  0  0  0  0
  4 41  1  0  0  0  0
  4 42  1  0  0  0  0
  5 43  1  0  0  0  0
  6  5  2  0  0  0  0
  6 44  1  0  0  0  0
  7  5  1  0  0  0  0
  7 45  1  0  0  0  0
  8  3  1  0  0  0  0
  8 46  1  0  0  0  0
  8 47  1  0  0  0  0
  9  4  1  0  0  0  0
  9 48  1  0  0  0  0
  9 49  1  0  0  0  0
 11 10  2  0  0  0  0
 12 50  1  0  0  0  0
 13 51  1  0  0  0  0
 13 52  1  0  0  0  0
 14 53  1  0  0  0  0
 14 54  1  0  0  0  0
 15  6  1  0  0  0  0
 15 12  2  0  0  0  0
 16 24  1  0  0  0  0
 16 34  1  6  0  0  0
 16 14  1  0  0  0  0
 16 10  1  0  0  0  0
 17  7  2  0  0  0  0
 17 12  1  0  0  0  0
 18 35  1  1  0  0  0
 18  8  1  0  0  0  0
 19 18  1  0  0  0  0
 19 36  1  6  0  0  0
 19 11  1  0  0  0  0
 20 13  1  0  0  0  0
 20 18  1  0  0  0  0
 20 25  1  0  0  0  0
 20 37  1  1  0  0  0
 21 13  1  0  0  0  0
 21 19  1  0  0  0  0
 21 38  1  6  0  0  0
 21 26  1  0  0  0  0
 22  9  1  0  0  0  0
 23 15  1  0  0  0  0
 24 55  1  0  0  0  0
 25 56  1  0  0  0  0
 26 57  1  0  0  0  0
 27 22  2  0  0  0  0
 28 22  1  0  0  0  0
 28 58  1  0  0  0  0
 29 14  1  0  0  0  0
 29 17  1  0  0  0  0
 30  1  1  0  0  0  0
 31  3  1  0  0  0  0
 32 10  1  0  0  0  0
 33 11  1  0  0  0  0
M  END
>  <DRUGBANK_ID>
DB11507

>  <COMMON_NAME>
Cloprostenol

>  <CAS_NUMBER>
54276-21-0

>  <UNII>
4208238832

>  <SYNONYMS>
Cloprostenol

$$$$
