Bergapten
 OpenBabel10282417193D

 24 26  0  0  0  0  0  0  0  0999 V2000
    0.8397    0.0714   -0.0819 C   0  0  0  0  0  0  0  0  0  0  0  0
    0.5481   -1.0174    0.7951 O   0  0  0  0  0  0  0  0  0  0  0  0
    0.9685   -2.2783    0.4317 C   0  0  0  0  0  0  0  0  0  0  0  0
    2.3133   -2.6095    0.1219 C   0  0  0  0  0  0  0  0  0  0  0  0
    3.4137   -1.6534    0.0633 C   0  0  0  0  0  0  0  0  0  0  0  0
    4.6360   -1.9928   -0.3390 C   0  0  0  0  0  0  0  0  0  0  0  0
    5.0055   -3.3863   -0.5860 C   0  0  0  0  0  0  0  0  0  0  0  0
    6.1576   -3.6866   -0.8513 O   0  0  0  0  0  0  0  0  0  0  0  0
    3.9903   -4.3200   -0.4443 O   0  0  0  0  0  0  0  0  0  0  0  0
    2.6607   -3.9509   -0.1125 C   0  0  0  0  0  0  0  0  0  0  0  0
    1.7609   -5.0111   -0.0262 C   0  0  0  0  0  0  0  0  0  0  0  0
    0.4596   -4.6554    0.2909 C   0  0  0  0  0  0  0  0  0  0  0  0
    0.0284   -3.3496    0.5225 C   0  0  0  0  0  0  0  0  0  0  0  0
   -1.3640   -3.4829    0.8215 C   0  0  0  0  0  0  0  0  0  0  0  0
   -1.6709   -4.8235    0.7369 C   0  0  0  0  0  0  0  0  0  0  0  0
   -0.5653   -5.5408    0.4207 O   0  0  0  0  0  0  0  0  0  0  0  0
    0.3447    0.9618    0.3181 H   0  0  0  0  0  0  0  0  0  0  0  0
    0.4986   -0.1126   -1.1026 H   0  0  0  0  0  0  0  0  0  0  0  0
    1.8851    0.3658   -0.1015 H   0  0  0  0  0  0  0  0  0  0  0  0
    3.2856   -0.6364    0.3827 H   0  0  0  0  0  0  0  0  0  0  0  0
    5.4206   -1.2514   -0.4182 H   0  0  0  0  0  0  0  0  0  0  0  0
    2.0529   -6.0417   -0.1845 H   0  0  0  0  0  0  0  0  0  0  0  0
   -2.0644   -2.6966    1.0615 H   0  0  0  0  0  0  0  0  0  0  0  0
   -2.5769   -5.4019    0.8660 H   0  0  0  0  0  0  0  0  0  0  0  0
  1  2  1  0  0  0  0
  1 17  1  0  0  0  0
  1 18  1  0  0  0  0
  1 19  1  0  0  0  0
  2  3  1  0  0  0  0
  3  4  2  0  0  0  0
  3 13  1  0  0  0  0
  4  5  1  0  0  0  0
  4 10  1  0  0  0  0
  5  6  2  0  0  0  0
  5 20  1  0  0  0  0
  6  7  1  0  0  0  0
  6 21  1  0  0  0  0
  7  8  2  0  0  0  0
  7  9  1  0  0  0  0
  9 10  1  0  0  0  0
 10 11  2  0  0  0  0
 11 12  1  0  0  0  0
 11 22  1  0  0  0  0
 12 13  2  0  0  0  0
 12 16  1  0  0  0  0
 13 14  1  0  0  0  0
 14 15  2  0  0  0  0
 14 23  1  0  0  0  0
 15 16  1  0  0  0  0
 15 24  1  0  0  0  0
M  END
>  <DRUGBANK_ID>
DB12216

>  <COMMON_NAME>
Bergapten

>  <CAS_NUMBER>
484-20-8

>  <UNII>
4FVK84C92X

>  <SYNONYMS>
5 methoxypsoralen; 5-methoxypsoralen

$$$$
