1244
 OpenBabel10282417113D

 61 63  0  0  1  0  0  0  0  0999 V2000
    0.5513    0.1410    0.1067 O   0  0  0  0  0  0  0  0  0  0  0  0
    2.6259   -0.2230   -2.6462 N   0  0  0  0  0  0  0  0  0  0  0  0
   -1.0944   -0.8532   -3.6445 N   0  0  0  0  0  0  0  0  0  0  0  0
    1.1120   -0.2098   -2.3939 C   0  0  3  0  0  0  0  0  0  0  0  0
    3.4182   -1.2779   -1.9678 C   0  0  0  0  0  0  0  0  0  0  0  0
    3.2787    1.0586   -2.3367 C   0  0  0  0  0  0  0  0  0  0  0  0
    4.0949   -0.6704   -0.7642 C   0  0  0  0  0  0  0  0  0  0  0  0
    4.1821    0.8243   -1.1354 C   0  0  0  0  0  0  0  0  0  0  0  0
    0.4077   -0.9364   -3.5836 C   0  0  0  0  0  0  0  0  0  0  0  0
    0.6851   -0.8255   -1.0252 C   0  0  0  0  0  0  0  0  0  0  0  0
   -1.6742   -0.2650   -4.8609 C   0  0  0  0  0  0  0  0  0  0  0  0
   -1.9922   -1.2433   -2.6517 C   0  0  0  0  0  0  0  0  0  0  0  0
    1.8805    0.2581    0.5407 C   0  0  0  0  0  0  0  0  0  0  0  0
    2.6865    0.8957    1.7010 C   0  0  0  0  0  0  0  0  0  0  0  0
   -2.4219   -1.3073   -5.6586 C   0  0  0  0  0  0  0  0  0  0  0  0
   -1.9833   -0.5952   -1.4135 C   0  0  0  0  0  0  0  0  0  0  0  0
   -3.0125   -2.1772   -2.7435 C   0  0  0  0  0  0  0  0  0  0  0  0
    2.2885    0.0420    2.8759 C   0  0  0  0  0  0  0  0  0  0  0  0
    4.3069    0.8521    1.7555 C   0  0  0  0  0  0  0  0  0  0  0  0
   -1.9548   -2.6371   -5.6799 C   0  0  0  0  0  0  0  0  0  0  0  0
   -3.6748   -1.0093   -6.2046 C   0  0  0  0  0  0  0  0  0  0  0  0
   -2.4611   -1.2421   -0.2638 C   0  0  0  0  0  0  0  0  0  0  0  0
   -3.8011   -2.5791   -1.6532 C   0  0  0  0  0  0  0  0  0  0  0  0
   -3.4069   -2.2129   -0.3645 C   0  0  0  0  0  0  0  0  0  0  0  0
   -2.7862   -3.6704   -6.0928 C   0  0  0  0  0  0  0  0  0  0  0  0
   -4.4946   -2.0482   -6.6440 C   0  0  0  0  0  0  0  0  0  0  0  0
   -4.0545   -3.3735   -6.5805 C   0  0  0  0  0  0  0  0  0  0  0  0
    0.7548    0.8298   -2.4675 H   0  0  0  0  0  0  0  0  0  0  0  0
    4.2508   -1.5999   -2.5891 H   0  0  0  0  0  0  0  0  0  0  0  0
    2.8555   -2.1895   -1.7465 H   0  0  0  0  0  0  0  0  0  0  0  0
    2.5530    1.8654   -2.1375 H   0  0  0  0  0  0  0  0  0  0  0  0
    3.9109    1.4357   -3.1414 H   0  0  0  0  0  0  0  0  0  0  0  0
    3.5824   -0.9876    0.1340 H   0  0  0  0  0  0  0  0  0  0  0  0
    5.0550   -1.1063   -0.4836 H   0  0  0  0  0  0  0  0  0  0  0  0
    3.8356    1.5867   -0.4271 H   0  0  0  0  0  0  0  0  0  0  0  0
    5.2247    1.0821   -1.2982 H   0  0  0  0  0  0  0  0  0  0  0  0
    0.8111   -0.4745   -4.5048 H   0  0  0  0  0  0  0  0  0  0  0  0
    0.7462   -1.9791   -3.6432 H   0  0  0  0  0  0  0  0  0  0  0  0
    1.3281   -1.6696   -0.7939 H   0  0  0  0  0  0  0  0  0  0  0  0
   -0.1717   -1.4652   -0.9855 H   0  0  0  0  0  0  0  0  0  0  0  0
   -2.3348    0.5510   -4.5407 H   0  0  0  0  0  0  0  0  0  0  0  0
   -0.9163    0.1919   -5.5088 H   0  0  0  0  0  0  0  0  0  0  0  0
    2.0273   -0.8032    0.7031 H   0  0  0  0  0  0  0  0  0  0  0  0
    2.2023    0.7880   -0.3135 H   0  0  0  0  0  0  0  0  0  0  0  0
    2.3889    1.9413    1.7735 H   0  0  0  0  0  0  0  0  0  0  0  0
   -1.3946    0.2981   -1.3131 H   0  0  0  0  0  0  0  0  0  0  0  0
   -3.2982   -2.6453   -3.6827 H   0  0  0  0  0  0  0  0  0  0  0  0
    2.7192   -0.9658    2.7534 H   0  0  0  0  0  0  0  0  0  0  0  0
    2.6798    0.4819    3.7861 H   0  0  0  0  0  0  0  0  0  0  0  0
    1.2043   -0.0591    2.9099 H   0  0  0  0  0  0  0  0  0  0  0  0
    4.8816    1.4326    1.0233 H   0  0  0  0  0  0  0  0  0  0  0  0
    4.6600    1.2954    2.6901 H   0  0  0  0  0  0  0  0  0  0  0  0
    4.7356   -0.1631    1.7290 H   0  0  0  0  0  0  0  0  0  0  0  0
   -1.0202   -2.8890   -5.1808 H   0  0  0  0  0  0  0  0  0  0  0  0
   -4.0468    0.0132   -6.2128 H   0  0  0  0  0  0  0  0  0  0  0  0
   -2.0371   -0.9636    0.7100 H   0  0  0  0  0  0  0  0  0  0  0  0
   -4.6897   -3.1651   -1.8048 H   0  0  0  0  0  0  0  0  0  0  0  0
   -3.8863   -2.6278    0.5127 H   0  0  0  0  0  0  0  0  0  0  0  0
   -2.4715   -4.6990   -5.9407 H   0  0  0  0  0  0  0  0  0  0  0  0
   -5.5026   -1.8308   -6.9856 H   0  0  0  0  0  0  0  0  0  0  0  0
   -4.7112   -4.1812   -6.8869 H   0  0  0  0  0  0  0  0  0  0  0  0
  1 10  1  0  0  0  0
  1 13  1  0  0  0  0
  2  4  1  0  0  0  0
  2  5  1  0  0  0  0
  2  6  1  0  0  0  0
  3  9  1  0  0  0  0
  3 11  1  0  0  0  0
  3 12  1  0  0  0  0
  4  9  1  0  0  0  0
  4 10  1  0  0  0  0
  4 28  1  0  0  0  0
  5  7  1  0  0  0  0
  5 29  1  0  0  0  0
  5 30  1  0  0  0  0
  6  8  1  0  0  0  0
  6 31  1  0  0  0  0
  6 32  1  0  0  0  0
  7  8  1  0  0  0  0
  7 33  1  0  0  0  0
  7 34  1  0  0  0  0
  8 35  1  0  0  0  0
  8 36  1  0  0  0  0
  9 37  1  0  0  0  0
  9 38  1  0  0  0  0
 10 39  1  0  0  0  0
 10 40  1  0  0  0  0
 11 15  1  0  0  0  0
 11 41  1  0  0  0  0
 11 42  1  0  0  0  0
 12 16  2  0  0  0  0
 12 17  1  0  0  0  0
 13 14  1  0  0  0  0
 13 43  1  0  0  0  0
 13 44  1  0  0  0  0
 14 18  1  0  0  0  0
 14 19  1  0  0  0  0
 14 45  1  0  0  0  0
 15 20  2  0  0  0  0
 15 21  1  0  0  0  0
 16 22  1  0  0  0  0
 16 46  1  0  0  0  0
 17 23  2  0  0  0  0
 17 47  1  0  0  0  0
 18 48  1  0  0  0  0
 18 49  1  0  0  0  0
 18 50  1  0  0  0  0
 19 51  1  0  0  0  0
 19 52  1  0  0  0  0
 19 53  1  0  0  0  0
 20 25  1  0  0  0  0
 20 54  1  0  0  0  0
 21 26  2  0  0  0  0
 21 55  1  0  0  0  0
 22 24  2  0  0  0  0
 22 56  1  0  0  0  0
 23 24  1  0  0  0  0
 23 57  1  0  0  0  0
 24 58  1  0  0  0  0
 25 27  2  0  0  0  0
 25 59  1  0  0  0  0
 26 27  1  0  0  0  0
 26 60  1  0  0  0  0
 27 61  1  0  0  0  0
M  END
>  <DRUGBANK_ID>
DB01244

>  <SECONDARY_ACCESSION_NUMBERS>
APRD00727

>  <COMMON_NAME>
Bepridil

>  <CAS_NUMBER>
64706-54-3

>  <UNII>
755BO701MA

>  <SYNONYMS>
Bepadin; Bepridil

$$$$
