
 OpenBabel10282417223D

 48 49  0  0  0  0  0  0  0  0999 V2000
    1.0346   -0.8209    1.0327 C   0  0  0  0  0  0  0  0  0  0  0  0
    0.3701   -2.0132    1.0575 O   0  0  0  0  0  0  0  0  0  0  0  0
   -0.8935   -1.8158    0.5087 C   0  0  0  0  0  0  0  0  0  0  0  0
   -1.6789   -0.6225    0.4024 C   0  0  0  0  0  0  0  0  0  0  0  0
   -1.2308    0.9020    0.1384 C   0  0  0  0  0  0  0  0  0  0  0  0
   -2.0251    1.7656    0.4843 O   0  0  0  0  0  0  0  0  0  0  0  0
    0.1706    1.4604   -0.3918 C   0  0  0  0  0  0  0  0  0  0  0  0
    1.1179    0.8768   -1.1698 C   0  0  0  0  0  0  0  0  0  0  0  0
    2.6200    0.8687   -0.9527 C   0  0  0  0  0  0  0  0  0  0  0  0
    3.3463    1.5889    0.0075 C   0  0  0  0  0  0  0  0  0  0  0  0
    4.7519    1.6232   -0.0571 C   0  0  0  0  0  0  0  0  0  0  0  0
    5.4181    0.8485   -1.0045 C   0  0  0  0  0  0  0  0  0  0  0  0
    6.7497    0.9824   -1.2505 O   0  0  0  0  0  0  0  0  0  0  0  0
    4.7294   -0.0894   -1.7480 C   0  0  0  0  0  0  0  0  0  0  0  0
    3.3400   -0.1106   -1.6737 C   0  0  0  0  0  0  0  0  0  0  0  0
   -3.0480   -0.8875    0.6909 C   0  0  0  0  0  0  0  0  0  0  0  0
   -3.9643    0.1202    0.9155 O   0  0  0  0  0  0  0  0  0  0  0  0
   -3.5522   -2.2256    0.8562 C   0  0  0  0  0  0  0  0  0  0  0  0
   -4.9842   -2.4986    1.2506 C   0  0  0  0  0  0  0  0  0  0  0  0
   -5.6500   -3.3729    0.2176 C   0  0  0  0  0  0  0  0  0  0  0  0
   -6.1057   -4.6220    0.4404 C   0  0  0  0  0  0  0  0  0  0  0  0
   -6.6377   -5.4554   -0.6891 C   0  0  0  0  0  0  0  0  0  0  0  0
   -6.0707   -5.2631    1.8077 C   0  0  0  0  0  0  0  0  0  0  0  0
   -2.6867   -3.3147    0.6708 C   0  0  0  0  0  0  0  0  0  0  0  0
   -2.9483   -4.6401    0.8187 O   0  0  0  0  0  0  0  0  0  0  0  0
   -1.3761   -3.1071    0.4231 C   0  0  0  0  0  0  0  0  0  0  0  0
    0.6534   -0.0821    1.7419 H   0  0  0  0  0  0  0  0  0  0  0  0
    0.7624   -0.6027    0.0419 H   0  0  0  0  0  0  0  0  0  0  0  0
    2.1089   -0.9009    0.9822 H   0  0  0  0  0  0  0  0  0  0  0  0
    0.4279    2.3889    0.1230 H   0  0  0  0  0  0  0  0  0  0  0  0
    0.8453   -0.0103   -1.7476 H   0  0  0  0  0  0  0  0  0  0  0  0
    2.8533    2.1237    0.8167 H   0  0  0  0  0  0  0  0  0  0  0  0
    5.3024    2.2873    0.6047 H   0  0  0  0  0  0  0  0  0  0  0  0
    7.0792    1.7466   -0.7518 H   0  0  0  0  0  0  0  0  0  0  0  0
    5.2496   -0.7595   -2.4279 H   0  0  0  0  0  0  0  0  0  0  0  0
    2.8267   -0.9130   -2.2014 H   0  0  0  0  0  0  0  0  0  0  0  0
   -3.5090    0.9917    0.8902 H   0  0  0  0  0  0  0  0  0  0  0  0
   -4.9606   -2.9744    2.2395 H   0  0  0  0  0  0  0  0  0  0  0  0
   -5.5748   -1.5878    1.3726 H   0  0  0  0  0  0  0  0  0  0  0  0
   -5.6564   -2.9610   -0.7929 H   0  0  0  0  0  0  0  0  0  0  0  0
   -6.0515   -6.3738   -0.8034 H   0  0  0  0  0  0  0  0  0  0  0  0
   -7.6791   -5.7193   -0.4904 H   0  0  0  0  0  0  0  0  0  0  0  0
   -6.6015   -4.9236   -1.6469 H   0  0  0  0  0  0  0  0  0  0  0  0
   -5.0534   -5.3713    2.2006 H   0  0  0  0  0  0  0  0  0  0  0  0
   -6.6292   -4.6513    2.5206 H   0  0  0  0  0  0  0  0  0  0  0  0
   -6.4969   -6.2679    1.7933 H   0  0  0  0  0  0  0  0  0  0  0  0
   -3.8973   -4.7646    0.8690 H   0  0  0  0  0  0  0  0  0  0  0  0
   -0.6910   -3.9521    0.3803 H   0  0  0  0  0  0  0  0  0  0  0  0
  1  2  1  0  0  0  0
  1 27  1  0  0  0  0
  1 28  1  0  0  0  0
  1 29  1  0  0  0  0
  2  3  1  0  0  0  0
  3  4  2  0  0  0  0
  3 26  1  0  0  0  0
  4  5  1  0  0  0  0
  4 16  1  0  0  0  0
  5  6  2  0  0  0  0
  5  7  1  0  0  0  0
  7  8  2  0  0  0  0
  7 30  1  0  0  0  0
  8  9  1  0  0  0  0
  8 31  1  0  0  0  0
  9 10  2  0  0  0  0
  9 15  1  0  0  0  0
 10 11  1  0  0  0  0
 10 32  1  0  0  0  0
 11 12  2  0  0  0  0
 11 33  1  0  0  0  0
 12 13  1  0  0  0  0
 12 14  1  0  0  0  0
 13 34  1  0  0  0  0
 14 15  2  0  0  0  0
 14 35  1  0  0  0  0
 15 36  1  0  0  0  0
 16 17  1  0  0  0  0
 16 18  2  0  0  0  0
 17 37  1  0  0  0  0
 18 19  1  0  0  0  0
 18 24  1  0  0  0  0
 19 20  1  0  0  0  0
 19 38  1  0  0  0  0
 19 39  1  0  0  0  0
 20 21  2  0  0  0  0
 20 40  1  0  0  0  0
 21 22  1  0  0  0  0
 21 23  1  0  0  0  0
 22 41  1  0  0  0  0
 22 42  1  0  0  0  0
 22 43  1  0  0  0  0
 23 44  1  0  0  0  0
 23 45  1  0  0  0  0
 23 46  1  0  0  0  0
 24 25  1  0  0  0  0
 24 26  2  0  0  0  0
 25 47  1  0  0  0  0
 26 48  1  0  0  0  0
M  END
>  <DRUGBANK_ID>
DB15359

>  <COMMON_NAME>
Xanthohumol

>  <CAS_NUMBER>
6754-58-1

>  <UNII>
T4467YT1NT

$$$$
