
 OpenBabel10282417213D

 71 75  0  0  0  0  0  0  0  0999 V2000
    1.0631    0.0154   -0.0761 P   0  0  3  0  0  0  0  0  0  0  0  0
    0.9188   -1.1769    0.8661 O   0  0  0  0  0  0  0  0  0  0  0  0
    0.9879    1.2458    0.9972 O   0  0  0  0  0  0  0  0  0  0  0  0
   -0.6669    0.0154   -0.0761 O   0  0  0  0  0  0  0  0  0  0  0  0
   -1.2410    0.8156   -1.1781 C   0  0  0  0  0  0  0  0  0  0  0  0
   -0.4889    2.1569   -1.2199 C   0  0  1  0  0  0  0  0  0  0  0  0
    0.7517    1.7560   -1.8987 O   0  0  0  0  0  0  0  0  0  0  0  0
   -0.7671    3.5199   -1.8461 C   0  0  1  0  0  0  0  0  0  0  0  0
    0.0944    4.4893   -1.1762 O   0  0  0  0  0  0  0  0  0  0  0  0
   -0.2666    3.4376   -3.2737 C   0  0  1  0  0  0  0  0  0  0  0  0
    0.2854    4.6603   -3.7644 O   0  0  0  0  0  0  0  0  0  0  0  0
    0.8249    2.3891   -3.1999 C   0  0  2  0  0  0  0  0  0  0  0  0
    0.7759    1.4610   -4.3291 N   0  0  0  0  0  0  0  0  0  0  0  0
   -0.3081    0.7836   -4.8274 C   0  0  0  0  0  0  0  0  0  0  0  0
   -0.0253    0.1212   -5.9314 N   0  0  0  0  0  0  0  0  0  0  0  0
    1.3139    0.3572   -6.1548 C   0  0  0  0  0  0  0  0  0  0  0  0
    2.2303   -0.1346   -7.1036 C   0  0  0  0  0  0  0  0  0  0  0  0
    1.8772   -1.0063   -8.1100 N   0  0  0  0  0  0  0  0  0  0  0  0
    3.5284    0.2334   -7.0035 N   0  0  0  0  0  0  0  0  0  0  0  0
    3.8703    1.1031   -6.0327 C   0  0  0  0  0  0  0  0  0  0  0  0
    3.0670    1.7072   -5.1259 N   0  0  0  0  0  0  0  0  0  0  0  0
    1.8028    1.2545   -5.2234 C   0  0  0  0  0  0  0  0  0  0  0  0
    2.7931    0.0154   -0.0761 O   0  0  0  0  0  0  0  0  0  0  0  0
    3.3697    1.6375   -0.2461 P   0  0  3  0  0  0  0  0  0  0  0  0
    3.1502    1.8008    1.2520 O   0  0  0  0  0  0  0  0  0  0  0  0
    4.6071    1.1653   -0.9894 O   0  5  0  0  0  0  0  0  0  0  0  0
    3.9464    3.2597   -0.4162 O   0  0  0  0  0  0  0  0  0  0  0  0
    5.4009    3.2989   -0.3114 C   0  0  0  0  0  0  0  0  0  0  0  0
    6.0613    2.5748    0.9491 C   0  0  1  0  0  0  0  0  0  0  0  0
    5.2747    1.6015    1.6981 O   0  0  0  0  0  0  0  0  0  0  0  0
    7.3395    1.7736    0.6833 C   0  0  1  0  0  0  0  0  0  0  0  0
    8.2445    1.8807    1.7852 O   0  0  0  0  0  0  0  0  0  0  0  0
    6.8933    0.3187    0.6219 C   0  0  1  0  0  0  0  0  0  0  0  0
    7.8112   -0.6849    1.0312 O   0  0  0  0  0  0  0  0  0  0  0  0
    5.6548    0.2129    1.4695 C   0  0  2  0  0  0  0  0  0  0  0  0
    4.7228   -0.9385    0.8667 N   0  3  0  0  0  0  0  0  0  0  0  0
    4.7325   -1.2431   -0.5091 C   0  0  0  0  0  0  0  0  0  0  0  0
    3.6318   -1.8113   -1.1921 C   0  0  0  0  0  0  0  0  0  0  0  0
    2.9624   -0.9713   -2.3746 C   0  0  0  0  0  0  0  0  0  0  0  0
    1.7352   -1.0933   -2.6439 O   0  0  0  0  0  0  0  0  0  0  0  0
    3.6014    0.1058   -2.9379 N   0  0  0  0  0  0  0  0  0  0  0  0
    2.7827   -2.5760   -0.3975 C   0  0  0  0  0  0  0  0  0  0  0  0
    2.9489   -2.5503    1.0255 C   0  0  0  0  0  0  0  0  0  0  0  0
    3.8459   -1.6362    1.6515 C   0  0  0  0  0  0  0  0  0  0  0  0
    1.7815    1.2342    1.6056 H   0  0  0  0  0  0  0  0  0  0  0  0
   -1.0628    0.2181   -2.0794 H   0  0  0  0  0  0  0  0  0  0  0  0
   -2.3198    0.8836   -1.0156 H   0  0  0  0  0  0  0  0  0  0  0  0
   -0.3325    2.4037   -0.1671 H   0  0  0  0  0  0  0  0  0  0  0  0
   -1.7866    3.8987   -1.7440 H   0  0  0  0  0  0  0  0  0  0  0  0
    0.9724    4.0910   -1.0080 H   0  0  0  0  0  0  0  0  0  0  0  0
   -1.0908    3.1560   -3.9309 H   0  0  0  0  0  0  0  0  0  0  0  0
    0.9697    4.9508   -3.1271 H   0  0  0  0  0  0  0  0  0  0  0  0
    1.8242    2.8330   -3.1963 H   0  0  0  0  0  0  0  0  0  0  0  0
   -1.2883    0.8113   -4.3713 H   0  0  0  0  0  0  0  0  0  0  0  0
    0.8948   -1.1957   -8.2481 H   0  0  0  0  0  0  0  0  0  0  0  0
    2.5653   -1.2127   -8.8168 H   0  0  0  0  0  0  0  0  0  0  0  0
    4.9343    1.3084   -5.9374 H   0  0  0  0  0  0  0  0  0  0  0  0
    5.8370    2.9211   -1.2490 H   0  0  0  0  0  0  0  0  0  0  0  0
    5.6908    4.3575   -0.3448 H   0  0  0  0  0  0  0  0  0  0  0  0
    6.2898    3.4117    1.6273 H   0  0  0  0  0  0  0  0  0  0  0  0
    7.8478    2.0729   -0.2384 H   0  0  0  0  0  0  0  0  0  0  0  0
    7.7215    1.7992    2.6021 H   0  0  0  0  0  0  0  0  0  0  0  0
    6.7320    0.1646   -0.4305 H   0  0  0  0  0  0  0  0  0  0  0  0
    8.1021   -0.4507    1.9304 H   0  0  0  0  0  0  0  0  0  0  0  0
    5.8341   -0.1386    2.4962 H   0  0  0  0  0  0  0  0  0  0  0  0
    5.3747   -0.6549   -1.1255 H   0  0  0  0  0  0  0  0  0  0  0  0
    4.2588    0.6764   -2.3815 H   0  0  0  0  0  0  0  0  0  0  0  0
    3.0858    0.7555   -3.5280 H   0  0  0  0  0  0  0  0  0  0  0  0
    1.7822   -2.8128   -0.7918 H   0  0  0  0  0  0  0  0  0  0  0  0
    2.1076   -2.9167    1.6349 H   0  0  0  0  0  0  0  0  0  0  0  0
    3.7369   -1.3750    2.7073 H   0  0  0  0  0  0  0  0  0  0  0  0
  1  3  1  0  0  0  0
  1  4  1  0  0  0  0
  2  1  2  0  0  0  0
  3 45  1  0  0  0  0
  5  4  1  0  0  0  0
  5 46  1  0  0  0  0
  5 47  1  0  0  0  0
  6  5  1  0  0  0  0
  6  7  1  0  0  0  0
  6 48  1  1  0  0  0
  8  6  1  0  0  0  0
  8  9  1  0  0  0  0
  8 49  1  1  0  0  0
  9 50  1  0  0  0  0
 10  8  1  0  0  0  0
 10 11  1  0  0  0  0
 10 51  1  6  0  0  0
 11 52  1  0  0  0  0
 12  7  1  0  0  0  0
 12 10  1  0  0  0  0
 12 53  1  6  0  0  0
 12 13  1  0  0  0  0
 14 13  1  0  0  0  0
 14 15  2  0  0  0  0
 14 54  1  0  0  0  0
 16 15  1  0  0  0  0
 16 17  1  0  0  0  0
 17 18  1  0  0  0  0
 17 19  2  0  0  0  0
 18 55  1  0  0  0  0
 18 56  1  0  0  0  0
 20 19  1  0  0  0  0
 20 21  2  0  0  0  0
 20 57  1  0  0  0  0
 22 13  1  0  0  0  0
 22 16  2  0  0  0  0
 22 21  1  0  0  0  0
 23  1  1  0  0  0  0
 24 23  1  0  0  0  0
 24 26  1  0  0  0  0
 25 24  2  0  0  0  0
 27 24  1  0  0  0  0
 28 27  1  0  0  0  0
 28 58  1  0  0  0  0
 28 59  1  0  0  0  0
 29 28  1  0  0  0  0
 29 30  1  0  0  0  0
 29 60  1  1  0  0  0
 31 29  1  0  0  0  0
 31 32  1  0  0  0  0
 31 61  1  6  0  0  0
 32 62  1  0  0  0  0
 33 31  1  0  0  0  0
 33 34  1  0  0  0  0
 33 63  1  6  0  0  0
 34 64  1  0  0  0  0
 35 30  1  0  0  0  0
 35 33  1  0  0  0  0
 35 65  1  1  0  0  0
 35 36  1  0  0  0  0
 37 36  1  0  0  0  0
 37 38  2  0  0  0  0
 37 66  1  0  0  0  0
 38 39  1  0  0  0  0
 38 42  1  0  0  0  0
 39 40  2  0  0  0  0
 39 41  1  0  0  0  0
 41 67  1  0  0  0  0
 41 68  1  0  0  0  0
 42 43  2  0  0  0  0
 42 69  1  0  0  0  0
 43 44  1  0  0  0  0
 43 70  1  0  0  0  0
 44 36  2  0  0  0  0
 44 71  1  0  0  0  0
M  CHG  2  26  -1  36   1
M  END
>  <DRUGBANK_ID>
DB14128

>  <COMMON_NAME>
Nadide

>  <CAS_NUMBER>
53-84-9

>  <UNII>
0U46U6E8UK

>  <SYNONYMS>
beta-Diphosphopyridine nucleotide; beta-NAD; beta-NAD+; beta-Nicotinamide adenine dinucleotide; Codehydrase I; Codehydrogenase I; Coenzyme I; Cozymase I; Diphosphopyridine nucleotide; DPN; NAD; NAD+; Nadida; Nadide; Nadidum; Nicotinamide adenine dinucleotide; Nicotinamide dinucleotide; Nicotinamide-adenine dinucleotide; Nicotineamide adenine dinucleotide; Oxidized diphosphopyridine nucleotide; Pyridine, nucleotide diphosphate

$$$$
