
 OpenBabel10282417133D

 28 29  0  0  1  0  0  0  0  0999 V2000
    1.0433    0.1068   -0.1117 O   0  0  0  0  0  0  0  0  0  0  0  0
    0.5740    1.3270    0.4527 C   0  0  0  0  0  0  0  0  0  0  0  0
    1.1092    1.6147    1.8629 C   0  0  1  0  0  0  0  0  0  0  0  0
    1.5175    0.3736    2.4595 O   0  0  0  0  0  0  0  0  0  0  0  0
    2.9265    0.4249    2.7082 C   0  0  2  0  0  0  0  0  0  0  0  0
    3.5188    1.5786    1.8947 C   0  0  2  0  0  0  0  0  0  0  0  0
    4.6663    2.1579    2.5196 O   0  0  0  0  0  0  0  0  0  0  0  0
    2.3313    2.5436    1.8752 C   0  0  2  0  0  0  0  0  0  0  0  0
    2.3380    3.3733    3.0529 O   0  0  0  0  0  0  0  0  0  0  0  0
    3.4605   -0.9201    2.6279 N   0  0  0  0  0  0  0  0  0  0  0  0
    3.8682   -1.5750    1.4723 C   0  0  0  0  0  0  0  0  0  0  0  0
    4.3845   -2.8072    1.5443 C   0  0  0  0  0  0  0  0  0  0  0  0
    4.1669   -3.4754    2.8302 C   0  0  0  0  0  0  0  0  0  0  0  0
    3.7526   -2.9128    3.9089 N   0  0  0  0  0  0  0  0  0  0  0  0
    3.5052   -1.5702    3.8754 C   0  0  0  0  0  0  0  0  0  0  0  0
    3.3208   -0.9563    4.9304 O   0  0  0  0  0  0  0  0  0  0  0  0
    1.9864    0.0228    0.0812 H   0  0  0  0  0  0  0  0  0  0  0  0
    0.8308    2.1329   -0.2378 H   0  0  0  0  0  0  0  0  0  0  0  0
   -0.5178    1.2611    0.4879 H   0  0  0  0  0  0  0  0  0  0  0  0
    0.3042    2.0376    2.4782 H   0  0  0  0  0  0  0  0  0  0  0  0
    3.0210    0.7684    3.7405 H   0  0  0  0  0  0  0  0  0  0  0  0
    3.7937    1.2851    0.8788 H   0  0  0  0  0  0  0  0  0  0  0  0
    4.3779    2.5588    3.3645 H   0  0  0  0  0  0  0  0  0  0  0  0
    2.3519    3.2288    1.0237 H   0  0  0  0  0  0  0  0  0  0  0  0
    2.2100    2.8310    3.8516 H   0  0  0  0  0  0  0  0  0  0  0  0
    3.8202   -1.0698    0.5128 H   0  0  0  0  0  0  0  0  0  0  0  0
    4.8478   -3.3624    0.7400 H   0  0  0  0  0  0  0  0  0  0  0  0
    4.3319   -4.5634    2.8397 H   0  0  0  0  0  0  0  0  0  0  0  0
  1  2  1  0  0  0  0
  1 17  1  0  0  0  0
  2 18  1  0  0  0  0
  2 19  1  0  0  0  0
  3  2  1  0  0  0  0
  3  4  1  0  0  0  0
  3  8  1  0  0  0  0
  3 20  1  1  0  0  0
  4  5  1  0  0  0  0
  5  6  1  0  0  0  0
  5 21  1  1  0  0  0
  5 10  1  0  0  0  0
  6  7  1  0  0  0  0
  6  8  1  0  0  0  0
  6 22  1  6  0  0  0
  7 23  1  0  0  0  0
  8  9  1  0  0  0  0
  8 24  1  6  0  0  0
  9 25  1  0  0  0  0
 10 11  1  0  0  0  0
 10 15  1  0  0  0  0
 11 12  2  0  0  0  0
 11 26  1  0  0  0  0
 12 13  1  0  0  0  0
 12 27  1  0  0  0  0
 13 14  2  0  0  0  0
 13 28  1  0  0  0  0
 14 15  1  0  0  0  0
 15 16  2  0  0  0  0
M  END
>  <DRUGBANK_ID>
DB03068

>  <SECONDARY_ACCESSION_NUMBERS>
EXPT03280

>  <COMMON_NAME>
Zebularine

>  <CAS_NUMBER>
3690-10-6

>  <UNII>
7A9Y5SX0GY

>  <SYNONYMS>
1-beta-D-ribofuranosyl-2(1H)-pyrimidinone; 1-beta-D-ribofuranosylpyrimidin-2(1H)-one; 4-deoxyuridine; Pyrimidin-2-one beta-D-ribofuranoside; pyrimidin-2-one beta-ribofuranoside; Pyrimidin-2-one ribonucleoside

$$$$
