
 OpenBabel10282417113D

 51 53  0  0  1  0  0  0  0  0999 V2000
    0.3717    0.5106   -0.9051 C   0  0  1  0  0  0  0  0  0  0  0  0
    1.6469    0.4332   -0.0687 C   0  0  1  0  0  0  0  0  0  0  0  0
    1.5299    1.3809    1.1199 C   0  0  0  0  0  0  0  0  0  0  0  0
    1.6939   -1.0435    0.2610 C   0  0  0  0  0  0  0  0  0  0  0  0
    3.1141   -1.9405    0.6945 S   0  0  0  0  0  0  0  0  0  0  0  0
    4.6142   -0.9510    0.4774 C   0  0  2  0  0  0  0  0  0  0  0  0
    4.7559    0.1461    1.5008 C   0  0  0  0  0  0  0  0  0  0  0  0
    5.6461    1.1358    0.9194 N   0  0  0  0  0  0  0  0  0  0  0  0
    5.4999    1.0636   -0.5620 C   0  0  1  0  0  0  0  0  0  0  0  0
    4.7999   -0.2704   -0.8707 C   0  0  0  0  0  0  0  0  0  0  0  0
    4.7574    2.3123   -1.1500 C   0  0  0  0  0  0  0  0  0  0  0  0
    3.8521    2.1773   -1.9834 O   0  0  0  0  0  0  0  0  0  0  0  0
    5.1840    3.5906   -0.7975 N   0  0  0  0  0  0  0  0  0  0  0  0
    6.2736    3.8910    0.1141 C   0  0  0  0  0  0  0  0  0  0  0  0
    4.4757    4.7350   -1.3563 C   0  0  0  0  0  0  0  0  0  0  0  0
    0.4537   -1.5798    0.1129 C   0  0  0  0  0  0  0  0  0  0  0  0
   -0.4065   -0.7084   -0.5509 N   0  0  0  0  0  0  0  0  0  0  0  0
   -1.4387    0.0071    0.0101 C   0  0  0  0  0  0  0  0  0  0  0  0
   -2.3510   -0.3447    0.7117 O   0  0  0  0  0  0  0  0  0  0  0  0
   -0.8764    1.3506   -0.5234 C   0  0  2  0  0  0  0  0  0  0  0  0
   -1.6000    2.0517   -1.6608 C   0  0  1  0  0  0  0  0  0  0  0  0
   -0.7783    3.2521   -2.1316 C   0  0  0  0  0  0  0  0  0  0  0  0
   -1.8256    1.1609   -2.7476 O   0  0  0  0  0  0  0  0  0  0  0  0
    0.0682   -2.9882    0.4839 C   0  0  0  0  0  0  0  0  0  0  0  0
   -1.2271   -3.3145    0.2835 O   0  0  0  0  0  0  0  0  0  0  0  0
    0.8399   -3.8174    0.9431 O   0  0  0  0  0  0  0  0  0  0  0  0
    0.6226    0.5282   -1.9735 H   0  0  0  0  0  0  0  0  0  0  0  0
   -0.7137    2.0816    0.2792 H   0  0  0  0  0  0  0  0  0  0  0  0
    2.4400    0.7751   -0.7121 H   0  0  0  0  0  0  0  0  0  0  0  0
    2.3584    1.4158    1.8062 H   0  0  0  0  0  0  0  0  0  0  0  0
    1.4435    2.4080    0.7527 H   0  0  0  0  0  0  0  0  0  0  0  0
    0.6805    1.1225    1.7534 H   0  0  0  0  0  0  0  0  0  0  0  0
    5.4664   -1.6276    0.6318 H   0  0  0  0  0  0  0  0  0  0  0  0
    3.8267    0.6341    1.6557 H   0  0  0  0  0  0  0  0  0  0  0  0
    5.0732   -0.1824    2.4958 H   0  0  0  0  0  0  0  0  0  0  0  0
    6.6034    0.8935    1.1697 H   0  0  0  0  0  0  0  0  0  0  0  0
    6.4967    1.0550   -1.0166 H   0  0  0  0  0  0  0  0  0  0  0  0
    5.3959   -0.8965   -1.5416 H   0  0  0  0  0  0  0  0  0  0  0  0
    3.8657   -0.1409   -1.4077 H   0  0  0  0  0  0  0  0  0  0  0  0
    6.9939    4.5329   -0.3975 H   0  0  0  0  0  0  0  0  0  0  0  0
    5.8639    4.4041    0.9891 H   0  0  0  0  0  0  0  0  0  0  0  0
    6.8251    3.0152    0.4379 H   0  0  0  0  0  0  0  0  0  0  0  0
    4.5685    4.7252   -2.4470 H   0  0  0  0  0  0  0  0  0  0  0  0
    3.4146    4.6762   -1.0927 H   0  0  0  0  0  0  0  0  0  0  0  0
    4.8883    5.6729   -0.9704 H   0  0  0  0  0  0  0  0  0  0  0  0
   -2.5779    2.4046   -1.3181 H   0  0  0  0  0  0  0  0  0  0  0  0
    0.2125    2.9440   -2.4851 H   0  0  0  0  0  0  0  0  0  0  0  0
   -1.2703    3.7588   -2.9678 H   0  0  0  0  0  0  0  0  0  0  0  0
   -0.6308    3.9745   -1.3209 H   0  0  0  0  0  0  0  0  0  0  0  0
   -0.9758    0.9002   -3.1420 H   0  0  0  0  0  0  0  0  0  0  0  0
   -1.8177   -2.5873    0.0142 H   0  0  0  0  0  0  0  0  0  0  0  0
  1  2  1  0  0  0  0
  1 17  1  0  0  0  0
  1 20  1  0  0  0  0
  1 27  1  6  0  0  0
  2  3  1  0  0  0  0
  2  4  1  0  0  0  0
  2 29  1  6  0  0  0
  3 30  1  0  0  0  0
  3 31  1  0  0  0  0
  3 32  1  0  0  0  0
  4  5  1  0  0  0  0
  4 16  2  0  0  0  0
  6  5  1  0  0  0  0
  6  7  1  0  0  0  0
  6 10  1  0  0  0  0
  6 33  1  1  0  0  0
  7  8  1  0  0  0  0
  7 34  1  0  0  0  0
  7 35  1  0  0  0  0
  8  9  1  0  0  0  0
  8 36  1  0  0  0  0
  9 10  1  0  0  0  0
  9 37  1  6  0  0  0
  9 11  1  0  0  0  0
 10 38  1  0  0  0  0
 10 39  1  0  0  0  0
 11 12  2  0  0  0  0
 11 13  1  0  0  0  0
 13 14  1  0  0  0  0
 13 15  1  0  0  0  0
 14 40  1  0  0  0  0
 14 41  1  0  0  0  0
 14 42  1  0  0  0  0
 15 43  1  0  0  0  0
 15 44  1  0  0  0  0
 15 45  1  0  0  0  0
 16 17  1  0  0  0  0
 16 24  1  0  0  0  0
 17 18  1  0  0  0  0
 18 19  2  0  0  0  0
 18 20  1  0  0  0  0
 20 28  1  1  0  0  0
 20 21  1  0  0  0  0
 21 22  1  0  0  0  0
 21 23  1  0  0  0  0
 21 46  1  1  0  0  0
 22 47  1  0  0  0  0
 22 48  1  0  0  0  0
 22 49  1  0  0  0  0
 23 50  1  0  0  0  0
 24 25  1  0  0  0  0
 24 26  2  0  0  0  0
 25 51  1  0  0  0  0
M  END
>  <DRUGBANK_ID>
DB00760

>  <SECONDARY_ACCESSION_NUMBERS>
APRD01097; EXPT02153

>  <COMMON_NAME>
Meropenem

>  <CAS_NUMBER>
96036-03-2

>  <UNII>
YOP6PX0BAO

>  <SYNONYMS>
(4R,5S,6S)-3-{[(3S,5S)-5-(dimethylcarbamoyl)pyrrolidin-3-yl]thio}-6-[(1R)-1-hydroxyethyl]-4-methyl-7-oxo-1-azabicyclo[3.2.0]hept-2-ene-2-carboxylic acid; Meropenem; Meropenem anhydrous; Meropenemum

$$$$
