
 OpenBabel10282417193D

 46 49  0  0  1  0  0  0  0  0999 V2000
   -1.6266    1.1194    0.0027 C   0  0  0  0  0  0  0  0  0  0  0  0
   -2.5428    0.0861    0.0019 C   0  0  0  0  0  0  0  0  0  0  0  0
   -1.7966   -1.4642    0.0028 S   0  0  0  0  0  0  0  0  0  0  0  0
   -0.2619   -0.7627    0.0084 C   0  0  0  0  0  0  0  0  0  0  0  0
   -0.3137    0.6038    0.0070 C   0  0  0  0  0  0  0  0  0  0  0  0
    0.8389    1.2969    0.0027 N   0  0  0  0  0  0  0  0  0  0  0  0
    2.0820    0.6892   -0.0393 C   0  0  0  0  0  0  0  0  0  0  0  0
    2.2078   -0.6536   -0.0078 C   0  0  0  0  0  0  0  0  0  0  0  0
    0.9800   -1.5040    0.0095 C   0  0  0  0  0  0  0  0  0  0  0  0
    1.0974   -2.7153    0.0109 O   0  0  0  0  0  0  0  0  0  0  0  0
    3.2072    1.4513   -0.1490 N   0  0  0  0  0  0  0  0  0  0  0  0
    3.3070    2.8746   -0.0029 C   0  0  0  0  0  0  0  0  0  0  0  0
    4.0638    3.1577    1.2713 C   0  0  0  0  0  0  0  0  0  0  0  0
    5.4341    2.4008    1.3089 C   0  0  0  0  0  0  0  0  0  0  0  0
    6.2372    2.3481    0.0337 N   0  0  0  0  0  0  0  0  0  0  0  0
    7.2732    3.3812    0.0951 C   0  0  2  0  0  0  0  0  0  0  0  0
    6.4547    4.6497    0.3719 C   0  0  0  0  0  0  0  0  0  0  0  0
    7.4296    5.7256    0.5937 C   0  0  0  0  0  0  0  0  0  0  0  0
    7.9487    6.0694   -0.6640 O   0  0  0  0  0  0  0  0  0  0  0  0
    8.3258    5.0160   -1.4699 C   0  0  0  0  0  0  0  0  0  0  0  0
    8.1336    3.6512   -1.1410 C   0  0  0  0  0  0  0  0  0  0  0  0
    8.8002    2.6930   -1.9456 C   0  0  0  0  0  0  0  0  0  0  0  0
    9.4717    3.1071   -3.1186 C   0  0  0  0  0  0  0  0  0  0  0  0
    9.4891    4.4463   -3.5047 C   0  0  0  0  0  0  0  0  0  0  0  0
    8.9212    5.3951   -2.6720 C   0  0  0  0  0  0  0  0  0  0  0  0
    8.9107    7.2160   -3.2105 Br  0  0  0  0  0  0  0  0  0  0  0  0
   10.3492    1.8675   -4.2577 Br  0  0  0  0  0  0  0  0  0  0  0  0
   -1.9025    2.1669   -0.0004 H   0  0  0  0  0  0  0  0  0  0  0  0
   -3.6200    0.1486    0.0001 H   0  0  0  0  0  0  0  0  0  0  0  0
    0.8450    2.3049   -0.0292 H   0  0  0  0  0  0  0  0  0  0  0  0
    3.1536   -1.1778   -0.0256 H   0  0  0  0  0  0  0  0  0  0  0  0
    4.0920    0.9415   -0.1115 H   0  0  0  0  0  0  0  0  0  0  0  0
    3.8171    3.2859   -0.8791 H   0  0  0  0  0  0  0  0  0  0  0  0
    2.3488    3.3976    0.0249 H   0  0  0  0  0  0  0  0  0  0  0  0
    4.1080    4.2521    1.3508 H   0  0  0  0  0  0  0  0  0  0  0  0
    3.4846    2.8667    2.1572 H   0  0  0  0  0  0  0  0  0  0  0  0
    6.0292    2.8113    2.1400 H   0  0  0  0  0  0  0  0  0  0  0  0
    5.2683    1.3650    1.6065 H   0  0  0  0  0  0  0  0  0  0  0  0
    5.6483    2.5865   -0.7670 H   0  0  0  0  0  0  0  0  0  0  0  0
    7.9592    3.1365    0.9166 H   0  0  0  0  0  0  0  0  0  0  0  0
    5.9129    4.6442    1.3074 H   0  0  0  0  0  0  0  0  0  0  0  0
    5.7433    4.8593   -0.4482 H   0  0  0  0  0  0  0  0  0  0  0  0
    8.1939    5.3827    1.3018 H   0  0  0  0  0  0  0  0  0  0  0  0
    6.8963    6.5686    1.0419 H   0  0  0  0  0  0  0  0  0  0  0  0
    8.8219    1.6333   -1.6874 H   0  0  0  0  0  0  0  0  0  0  0  0
    9.9523    4.7611   -4.4351 H   0  0  0  0  0  0  0  0  0  0  0  0
  1  2  2  0  0  0  0
  1  5  1  0  0  0  0
  1 28  1  0  0  0  0
  2  3  1  0  0  0  0
  2 29  1  0  0  0  0
  3  4  1  0  0  0  0
  4  5  2  0  0  0  0
  4  9  1  0  0  0  0
  5  6  1  0  0  0  0
  6  7  1  0  0  0  0
  6 30  1  0  0  0  0
  7  8  2  0  0  0  0
  7 11  1  0  0  0  0
  8  9  1  0  0  0  0
  8 31  1  0  0  0  0
  9 10  2  0  0  0  0
 11 12  1  0  0  0  0
 11 32  1  0  0  0  0
 12 13  1  0  0  0  0
 12 33  1  0  0  0  0
 12 34  1  0  0  0  0
 13 14  1  0  0  0  0
 13 35  1  0  0  0  0
 13 36  1  0  0  0  0
 14 15  1  0  0  0  0
 14 37  1  0  0  0  0
 14 38  1  0  0  0  0
 15 39  1  0  0  0  0
 16 15  1  0  0  0  0
 16 17  1  0  0  0  0
 16 21  1  0  0  0  0
 16 40  1  1  0  0  0
 17 18  1  0  0  0  0
 17 41  1  0  0  0  0
 17 42  1  0  0  0  0
 18 19  1  0  0  0  0
 18 43  1  0  0  0  0
 18 44  1  0  0  0  0
 19 20  1  0  0  0  0
 20 21  2  0  0  0  0
 20 25  1  0  0  0  0
 21 22  1  0  0  0  0
 22 23  2  0  0  0  0
 22 45  1  0  0  0  0
 23 24  1  0  0  0  0
 23 27  1  0  0  0  0
 24 25  2  0  0  0  0
 24 46  1  0  0  0  0
 25 26  1  0  0  0  0
M  END
>  <DRUGBANK_ID>
DB12262

>  <COMMON_NAME>
CRS-3123

>  <CAS_NUMBER>
1013915-71-3

>  <UNII>
2P987FW4E8

$$$$
