
 OpenBabel10282417233D

 51 54  0  0  1  0  0  0  0  0999 V2000
   -3.6605    4.1521   -0.1092 N   0  0  0  0  0  0  0  0  0  0  0  0
   -3.7493    3.5472   -1.3330 C   0  0  0  0  0  0  0  0  0  0  0  0
   -2.6603    3.1891   -1.9276 N   0  0  0  0  0  0  0  0  0  0  0  0
   -2.7517    2.6050   -3.1625 C   0  0  0  0  0  0  0  0  0  0  0  0
   -1.7746    1.9825   -3.5737 O   0  0  0  0  0  0  0  0  0  0  0  0
   -3.9047    2.8152   -3.9295 N   0  0  0  0  0  0  0  0  0  0  0  0
   -5.0406    3.2967   -3.3001 C   0  0  0  0  0  0  0  0  0  0  0  0
   -5.0700    3.4488   -1.9750 C   0  0  0  0  0  0  0  0  0  0  0  0
   -4.0175    2.3525   -5.3359 C   0  0  2  0  0  0  0  0  0  0  0  0
   -3.9143    0.9223   -5.4074 O   0  0  0  0  0  0  0  0  0  0  0  0
   -2.7077    0.5911   -6.1286 C   0  0  2  0  0  0  0  0  0  0  0  0
   -1.8838   -0.4727   -5.4172 C   0  0  0  0  0  0  0  0  0  0  0  0
   -2.3635   -0.8083   -4.1188 O   0  0  0  0  0  0  0  0  0  0  0  0
   -1.7542   -2.2010   -3.6048 P   0  0  2  0  0  0  0  0  0  0  0  0
   -2.3106   -3.3336   -4.4137 O   0  0  0  0  0  0  0  0  0  0  0  0
   -1.9997   -2.2454   -2.0102 O   0  0  0  0  0  0  0  0  0  0  0  0
   -1.0729   -2.9124   -1.1580 C   0  0  0  0  0  0  0  0  0  0  0  0
    0.3633   -2.5029   -1.4547 C   0  0  0  0  0  0  0  0  0  0  0  0
    0.7205   -2.6828   -2.9352 C   0  0  2  0  0  0  0  0  0  0  0  0
   -0.1714   -1.9507   -3.7453 O   0  0  0  0  0  0  0  0  0  0  0  0
    0.8000   -4.1365   -3.3546 C   0  0  0  0  0  0  0  0  0  0  0  0
   -0.3226   -4.9699   -3.3345 C   0  0  0  0  0  0  0  0  0  0  0  0
   -0.2357   -6.3072   -3.6227 C   0  0  0  0  0  0  0  0  0  0  0  0
    0.9391   -6.9230   -3.7550 N   0  0  0  0  0  0  0  0  0  0  0  0
    2.0323   -6.1263   -3.7505 C   0  0  0  0  0  0  0  0  0  0  0  0
    2.0063   -4.7382   -3.6851 C   0  0  0  0  0  0  0  0  0  0  0  0
   -1.8889    1.8710   -6.3218 C   0  0  1  0  0  0  0  0  0  0  0  0
   -1.0182    1.8485   -7.4474 O   0  0  0  0  0  0  0  0  0  0  0  0
   -2.9813    2.9267   -6.3203 C   0  0  2  0  0  0  0  0  0  0  0  0
   -2.5409    4.2296   -5.9646 O   0  0  0  0  0  0  0  0  0  0  0  0
   -4.1978    3.7321    0.6417 H   0  0  0  0  0  0  0  0  0  0  0  0
   -2.7125    4.3855    0.1704 H   0  0  0  0  0  0  0  0  0  0  0  0
   -5.9234    3.4859   -3.9031 H   0  0  0  0  0  0  0  0  0  0  0  0
   -5.9488    3.6932   -1.4016 H   0  0  0  0  0  0  0  0  0  0  0  0
   -5.0242    2.6007   -5.7027 H   0  0  0  0  0  0  0  0  0  0  0  0
   -3.0037    0.2006   -7.1129 H   0  0  0  0  0  0  0  0  0  0  0  0
   -1.8354   -1.3673   -6.0525 H   0  0  0  0  0  0  0  0  0  0  0  0
   -0.8509   -0.1366   -5.2933 H   0  0  0  0  0  0  0  0  0  0  0  0
   -1.3192   -2.6676   -0.1204 H   0  0  0  0  0  0  0  0  0  0  0  0
   -1.1968   -3.9986   -1.1991 H   0  0  0  0  0  0  0  0  0  0  0  0
    0.4566   -1.4401   -1.1958 H   0  0  0  0  0  0  0  0  0  0  0  0
    1.0635   -3.0582   -0.8175 H   0  0  0  0  0  0  0  0  0  0  0  0
    1.7085   -2.2214   -3.0807 H   0  0  0  0  0  0  0  0  0  0  0  0
   -1.3128   -4.6401   -3.0757 H   0  0  0  0  0  0  0  0  0  0  0  0
   -1.1454   -6.8928   -3.7060 H   0  0  0  0  0  0  0  0  0  0  0  0
    2.9737   -6.6629   -3.7571 H   0  0  0  0  0  0  0  0  0  0  0  0
    2.9175   -4.1691   -3.8342 H   0  0  0  0  0  0  0  0  0  0  0  0
   -1.1932    2.0478   -5.5118 H   0  0  0  0  0  0  0  0  0  0  0  0
   -1.5248    1.8400   -8.2708 H   0  0  0  0  0  0  0  0  0  0  0  0
   -3.4108    2.9891   -7.3281 H   0  0  0  0  0  0  0  0  0  0  0  0
   -2.2052    4.1718   -5.0495 H   0  0  0  0  0  0  0  0  0  0  0  0
  1  2  1  0  0  0  0
  1 31  1  0  0  0  0
  1 32  1  0  0  0  0
  2  3  2  0  0  0  0
  2  8  1  0  0  0  0
  3  4  1  0  0  0  0
  4  5  2  0  0  0  0
  4  6  1  0  0  0  0
  6  7  1  0  0  0  0
  7  8  2  0  0  0  0
  7 33  1  0  0  0  0
  8 34  1  0  0  0  0
  9  6  1  0  0  0  0
  9 10  1  0  0  0  0
  9 35  1  6  0  0  0
 11 10  1  0  0  0  0
 11 36  1  6  0  0  0
 11 12  1  0  0  0  0
 12 13  1  0  0  0  0
 12 37  1  0  0  0  0
 12 38  1  0  0  0  0
 14 16  1  0  0  0  0
 14 20  1  0  0  0  0
 14 15  2  6  0  0  0
 14 13  1  0  0  0  0
 16 17  1  0  0  0  0
 17 18  1  0  0  0  0
 17 39  1  0  0  0  0
 17 40  1  0  0  0  0
 18 41  1  0  0  0  0
 18 42  1  0  0  0  0
 19 18  1  0  0  0  0
 19 20  1  0  0  0  0
 19 43  1  6  0  0  0
 19 21  1  0  0  0  0
 21 22  2  0  0  0  0
 21 26  1  0  0  0  0
 22 23  1  0  0  0  0
 22 44  1  0  0  0  0
 23 24  2  0  0  0  0
 23 45  1  0  0  0  0
 24 25  1  0  0  0  0
 25 26  2  0  0  0  0
 25 46  1  0  0  0  0
 26 47  1  0  0  0  0
 27 11  1  0  0  0  0
 27 28  1  0  0  0  0
 27 29  1  0  0  0  0
 27 48  1  1  0  0  0
 28 49  1  0  0  0  0
 29  9  1  0  0  0  0
 29 30  1  0  0  0  0
 29 50  1  6  0  0  0
 30 51  1  0  0  0  0
M  END
>  <DRUGBANK_ID>
DB17139

>  <COMMON_NAME>
MB07133

>  <CAS_NUMBER>
685111-92-6

>  <UNII>
BNL5ERR07R

>  <SYNONYMS>
(2R,4S)-4-amino-1-(5-O-(2-oxo-4-(4-pyridyl)-1,3,2-dioxaphosphorinan-2-yl)-beta-d-arabinofuranosyl)-2(1H)-pyrimidinone; 2(1h)-pyrimidinone, 4-amino-1-(5-o-((2r,4s)-2-oxido-4-(4-pyridinyl)-1,3,2-dioxaphosphorinan-2-yl)-.beta.-d-arabinofuranosyl)-; 4-amino-1-(5-o-((2r, 4s)-2-oxido-4-(4-pyridinyl)-1, 3, 2-dioxaphosphorinan-2-yl)-.beta.-d-arabinofuranosyl)-2(1h)-pyrimidinone; 4-Amino-1-[5-O-[(2R, 4S)-2-oxido-4-(4-pyridinyl)-1, 3, 2-dioxaphosphorinan-2-yl]-b-D-arabinofuranosyl]-2(1H)-pyrimidinone

$$$$
