
 OpenBabel10282417203D

 45 48  0  0  0  0  0  0  0  0999 V2000
    1.0835    0.1181   -0.0073 C   0  0  0  0  0  0  0  0  0  0  0  0
    0.6784   -1.0243    0.7835 N   0  0  0  0  0  0  0  0  0  0  0  0
   -0.2671   -0.9835    1.7930 C   0  0  0  0  0  0  0  0  0  0  0  0
   -0.5780   -2.0181    2.5178 N   0  0  0  0  0  0  0  0  0  0  0  0
   -0.0278   -3.2616    2.1836 C   0  0  0  0  0  0  0  0  0  0  0  0
   -0.4897   -4.4095    2.8251 C   0  0  0  0  0  0  0  0  0  0  0  0
   -0.1228   -5.6729    2.3514 C   0  0  0  0  0  0  0  0  0  0  0  0
    0.8860   -5.7967    1.3974 C   0  0  0  0  0  0  0  0  0  0  0  0
    1.4164   -4.6575    0.8093 C   0  0  0  0  0  0  0  0  0  0  0  0
    0.8858   -3.4126    1.1476 C   0  0  0  0  0  0  0  0  0  0  0  0
    1.2522   -2.2263    0.3771 C   0  0  0  0  0  0  0  0  0  0  0  0
    1.9956   -2.3492   -0.5929 O   0  0  0  0  0  0  0  0  0  0  0  0
   -1.0994    0.2967    1.9978 C   0  0  0  0  0  0  0  0  0  0  0  0
   -2.5227    0.1505    1.8630 O   0  0  0  0  0  0  0  0  0  0  0  0
   -2.9476   -0.1812    0.6035 C   0  0  0  0  0  0  0  0  0  0  0  0
   -2.4476   -1.2641   -0.1060 C   0  0  0  0  0  0  0  0  0  0  0  0
   -2.8075   -1.4924   -1.4211 C   0  0  0  0  0  0  0  0  0  0  0  0
   -3.7670   -0.6995   -2.0353 C   0  0  0  0  0  0  0  0  0  0  0  0
   -4.4475    0.2410   -1.2509 C   0  0  0  0  0  0  0  0  0  0  0  0
   -4.0045    0.5332    0.0487 C   0  0  0  0  0  0  0  0  0  0  0  0
   -3.9982   -0.8280   -3.5227 C   0  0  0  0  0  0  0  0  0  0  0  0
   -2.8055   -0.3827   -4.3949 C   0  0  3  0  0  0  0  0  0  0  0  0
   -2.3486    1.0079   -4.0039 C   0  0  0  0  0  0  0  0  0  0  0  0
   -3.0227    2.0229   -4.1285 O   0  0  0  0  0  0  0  0  0  0  0  0
   -1.0945    1.0059   -3.4756 N   0  0  0  0  0  0  0  0  0  0  0  0
   -0.3703   -0.1410   -3.5312 C   0  0  0  0  0  0  0  0  0  0  0  0
    0.7691   -0.2714   -3.1484 O   0  0  0  0  0  0  0  0  0  0  0  0
   -1.2908   -1.4077   -4.3041 S   0  0  0  0  0  0  0  0  0  0  0  0
    0.8293    1.0797    0.4269 H   0  0  0  0  0  0  0  0  0  0  0  0
    0.5866    0.0400   -0.9676 H   0  0  0  0  0  0  0  0  0  0  0  0
    2.1669    0.0909   -0.1486 H   0  0  0  0  0  0  0  0  0  0  0  0
   -1.1601   -4.3218    3.6760 H   0  0  0  0  0  0  0  0  0  0  0  0
   -0.6265   -6.5600    2.7257 H   0  0  0  0  0  0  0  0  0  0  0  0
    1.2556   -6.7751    1.1059 H   0  0  0  0  0  0  0  0  0  0  0  0
    2.2079   -4.7305    0.0678 H   0  0  0  0  0  0  0  0  0  0  0  0
   -0.8960    0.6201    3.0253 H   0  0  0  0  0  0  0  0  0  0  0  0
   -0.7978    1.1278    1.3621 H   0  0  0  0  0  0  0  0  0  0  0  0
   -1.7771   -1.9901    0.3218 H   0  0  0  0  0  0  0  0  0  0  0  0
   -2.2982   -2.2954   -1.9456 H   0  0  0  0  0  0  0  0  0  0  0  0
   -5.3101    0.7716   -1.6488 H   0  0  0  0  0  0  0  0  0  0  0  0
   -4.4842    1.3244    0.6183 H   0  0  0  0  0  0  0  0  0  0  0  0
   -4.2831   -1.8612   -3.7553 H   0  0  0  0  0  0  0  0  0  0  0  0
   -4.8620   -0.2060   -3.7931 H   0  0  0  0  0  0  0  0  0  0  0  0
   -3.0906   -0.3790   -5.4494 H   0  0  0  0  0  0  0  0  0  0  0  0
   -0.6703    1.8574   -3.1474 H   0  0  0  0  0  0  0  0  0  0  0  0
  1  2  1  0  0  0  0
  1 29  1  0  0  0  0
  1 30  1  0  0  0  0
  1 31  1  0  0  0  0
  2  3  1  0  0  0  0
  2 11  1  0  0  0  0
  3  4  2  0  0  0  0
  3 13  1  0  0  0  0
  4  5  1  0  0  0  0
  5  6  2  0  0  0  0
  5 10  1  0  0  0  0
  6  7  1  0  0  0  0
  6 32  1  0  0  0  0
  7  8  2  0  0  0  0
  7 33  1  0  0  0  0
  8  9  1  0  0  0  0
  8 34  1  0  0  0  0
  9 10  2  0  0  0  0
  9 35  1  0  0  0  0
 10 11  1  0  0  0  0
 11 12  2  0  0  0  0
 13 14  1  0  0  0  0
 13 36  1  0  0  0  0
 13 37  1  0  0  0  0
 14 15  1  0  0  0  0
 15 16  2  0  0  0  0
 15 20  1  0  0  0  0
 16 17  1  0  0  0  0
 16 38  1  0  0  0  0
 17 18  2  0  0  0  0
 17 39  1  0  0  0  0
 18 19  1  0  0  0  0
 18 21  1  0  0  0  0
 19 20  2  0  0  0  0
 19 40  1  0  0  0  0
 20 41  1  0  0  0  0
 21 22  1  0  0  0  0
 21 42  1  0  0  0  0
 21 43  1  0  0  0  0
 22 23  1  0  0  0  0
 22 28  1  0  0  0  0
 22 44  1  0  0  0  0
 23 24  2  0  0  0  0
 23 25  1  0  0  0  0
 25 26  1  0  0  0  0
 25 45  1  0  0  0  0
 26 27  2  0  0  0  0
 26 28  1  0  0  0  0
M  END
>  <DRUGBANK_ID>
DB12781

>  <COMMON_NAME>
Balaglitazone

>  <CAS_NUMBER>
199113-98-9

>  <UNII>
4M1609828O

>  <SYNONYMS>
Balaglitazone

$$$$
