
 OpenBabel10282417173D

 24 24  0  0  0  0  0  0  0  0999 V2000
    1.0366    0.0263   -0.0893 Au  0  0  0  0  0  0  0  0  0  0  0  0
    3.4466    0.0263   -0.0893 S   0  0  0  0  0  0  0  0  0  0  0  0
    5.4286   -0.9076   -1.2980 O   0  0  0  0  0  0  0  0  0  0  0  0
    2.4486   -2.9064   -0.5950 O   0  0  0  0  0  0  0  0  0  0  0  0
    4.3996   -4.1128    1.0857 O   0  0  0  0  0  0  0  0  0  0  0  0
    6.5176   -2.2970    1.9160 O   0  0  0  0  0  0  0  0  0  0  0  0
    7.5875    0.7914   -0.7089 O   0  0  0  0  0  0  0  0  0  0  0  0
    3.8430   -2.6264   -0.6916 C   0  0  2  0  0  0  0  0  0  0  0  0
    4.4868   -2.7573    0.6662 C   0  0  2  0  0  0  0  0  0  0  0  0
    4.0499   -1.2375   -1.2360 C   0  0  1  0  0  0  0  0  0  0  0  0
    5.9135   -2.2651    0.6272 C   0  0  1  0  0  0  0  0  0  0  0  0
    6.0219   -0.8863   -0.0018 C   0  0  1  0  0  0  0  0  0  0  0  0
    7.4864   -0.4972   -0.1210 C   0  0  0  0  0  0  0  0  0  0  0  0
    2.0195   -2.2518    0.0275 H   0  0  0  0  0  0  0  0  0  0  0  0
    4.8777   -4.6963    0.4292 H   0  0  0  0  0  0  0  0  0  0  0  0
    6.0312   -1.6731    2.5277 H   0  0  0  0  0  0  0  0  0  0  0  0
    7.1715    0.7765   -1.6181 H   0  0  0  0  0  0  0  0  0  0  0  0
    4.2980   -3.3289   -1.3583 H   0  0  0  0  0  0  0  0  0  0  0  0
    3.9712   -2.1472    1.3782 H   0  0  0  0  0  0  0  0  0  0  0  0
    3.5514   -1.2460   -2.1827 H   0  0  0  0  0  0  0  0  0  0  0  0
    6.4573   -2.9415    0.0015 H   0  0  0  0  0  0  0  0  0  0  0  0
    5.5124   -0.1731    0.6120 H   0  0  0  0  0  0  0  0  0  0  0  0
    7.9316   -0.4813    0.8519 H   0  0  0  0  0  0  0  0  0  0  0  0
    7.9960   -1.2103   -0.7348 H   0  0  0  0  0  0  0  0  0  0  0  0
  1  2  1  0  0  0  0
  3 10  1  0  0  0  0
  3 12  1  0  0  0  0
  4 14  1  0  0  0  0
  5 15  1  0  0  0  0
  6 16  1  0  0  0  0
  7 13  1  0  0  0  0
  7 17  1  0  0  0  0
  8  4  1  0  0  0  0
  8  9  1  0  0  0  0
  8 10  1  0  0  0  0
  8 18  1  6  0  0  0
  9  5  1  0  0  0  0
  9 11  1  0  0  0  0
  9 19  1  1  0  0  0
 10  2  1  0  0  0  0
 10 20  1  6  0  0  0
 11  6  1  0  0  0  0
 11 12  1  0  0  0  0
 11 21  1  6  0  0  0
 12 13  1  0  0  0  0
 12 22  1  1  0  0  0
 13 23  1  0  0  0  0
 13 24  1  0  0  0  0
M  END
>  <DRUGBANK_ID>
DB09121

>  <COMMON_NAME>
Aurothioglucose

>  <CAS_NUMBER>
12192-57-3

>  <UNII>
2P2V9Q0E78

>  <SYNONYMS>
Auromyose; Aurothioglucose; Gold thioglucose

$$$$
