
 OpenBabel10282417193D

 69 72  0  0  1  0  0  0  0  0999 V2000
    2.3388    1.2140   -0.0682 C   0  0  0  0  0  0  0  0  0  0  0  0
    1.0011    0.5052   -0.0183 C   0  0  0  0  0  0  0  0  0  0  0  0
    0.8529   -0.8666    0.1007 C   0  0  0  0  0  0  0  0  0  0  0  0
   -0.2315   -1.7048   -0.0004 C   0  0  0  0  0  0  0  0  0  0  0  0
   -1.4106   -1.0320   -0.0203 C   0  0  0  0  0  0  0  0  0  0  0  0
   -1.3916    0.3933   -0.0099 C   0  0  0  0  0  0  0  0  0  0  0  0
   -0.1845    1.1668   -0.0373 C   0  0  0  0  0  0  0  0  0  0  0  0
   -0.0979    2.6174   -0.0244 C   0  0  0  0  0  0  0  0  0  0  0  0
    0.4771    3.3199   -1.1080 C   0  0  0  0  0  0  0  0  0  0  0  0
    0.5710    4.7020   -1.0957 C   0  0  0  0  0  0  0  0  0  0  0  0
   -0.0200    5.3966   -0.0483 C   0  0  0  0  0  0  0  0  0  0  0  0
   -0.6552    4.7000    0.9990 C   0  0  0  0  0  0  0  0  0  0  0  0
   -0.5445    3.3151    1.0908 C   0  0  0  0  0  0  0  0  0  0  0  0
   -1.7404    5.3801    1.7936 C   0  0  0  0  0  0  0  0  0  0  0  0
   -3.0613    4.8115    1.6331 O   0  0  0  0  0  0  0  0  0  0  0  0
   -3.6627    4.7983    0.3982 C   0  0  0  0  0  0  0  0  0  0  0  0
   -3.0355    4.4028   -0.7938 C   0  0  0  0  0  0  0  0  0  0  0  0
   -3.6881    4.2760   -2.0134 C   0  0  0  0  0  0  0  0  0  0  0  0
   -5.0332    4.5132   -2.0069 C   0  0  0  0  0  0  0  0  0  0  0  0
   -5.7020    4.7686   -0.8200 C   0  0  0  0  0  0  0  0  0  0  0  0
   -5.0389    5.0036    0.3702 C   0  0  0  0  0  0  0  0  0  0  0  0
   -7.0654    4.7411   -0.9808 O   0  0  0  0  0  0  0  0  0  0  0  0
   -7.2237    4.2034   -2.3312 C   0  0  0  0  0  0  0  0  0  0  0  0
   -5.9823    4.6350   -3.1361 C   0  0  1  0  0  0  0  0  0  0  0  0
   -6.2304    6.0684   -3.6324 C   0  0  0  0  0  0  0  0  0  0  0  0
   -5.0570    7.0060   -3.7170 C   0  0  0  0  0  0  0  0  0  0  0  0
   -4.7436    7.6558   -4.7007 O   0  0  0  0  0  0  0  0  0  0  0  0
   -4.4244    7.1892   -2.5461 O   0  0  0  0  0  0  0  0  0  0  0  0
   -2.7105    1.0841   -0.0141 C   0  0  0  0  0  0  0  0  0  0  0  0
   -0.1674   -3.0622   -0.1123 O   0  0  0  0  0  0  0  0  0  0  0  0
    1.0607   -3.8301   -0.1863 C   0  0  0  0  0  0  0  0  0  0  0  0
    2.0579   -3.5798   -1.3351 C   0  0  0  0  0  0  0  0  0  0  0  0
    2.7423   -2.2139   -1.3445 C   0  0  0  0  0  0  0  0  0  0  0  0
    3.7962   -1.9970    0.4098 S   0  0  0  0  0  0  0  0  0  0  0  0
    4.7383   -3.1201    0.4327 O   0  0  0  0  0  0  0  0  0  0  0  0
    4.3576   -0.6804    0.5000 O   0  0  0  0  0  0  0  0  0  0  0  0
    2.7511   -2.1584    1.9921 C   0  0  0  0  0  0  0  0  0  0  0  0
    2.3861    2.0125   -0.8069 H   0  0  0  0  0  0  0  0  0  0  0  0
    2.6204    1.6409    0.9000 H   0  0  0  0  0  0  0  0  0  0  0  0
    3.1233    0.6075   -0.4948 H   0  0  0  0  0  0  0  0  0  0  0  0
    1.7290   -1.3765    0.2564 H   0  0  0  0  0  0  0  0  0  0  0  0
   -2.3416   -1.5892   -0.0393 H   0  0  0  0  0  0  0  0  0  0  0  0
    0.8842    2.7762   -1.9612 H   0  0  0  0  0  0  0  0  0  0  0  0
    0.9957    5.2207   -1.9492 H   0  0  0  0  0  0  0  0  0  0  0  0
   -0.1207    6.4743   -0.1262 H   0  0  0  0  0  0  0  0  0  0  0  0
   -0.9741    2.7707    1.9303 H   0  0  0  0  0  0  0  0  0  0  0  0
   -1.4812    5.2846    2.8545 H   0  0  0  0  0  0  0  0  0  0  0  0
   -1.7890    6.4465    1.5591 H   0  0  0  0  0  0  0  0  0  0  0  0
   -2.0102    4.1133   -0.8329 H   0  0  0  0  0  0  0  0  0  0  0  0
   -3.1331    3.9839   -2.8986 H   0  0  0  0  0  0  0  0  0  0  0  0
   -5.5814    5.3247    1.2493 H   0  0  0  0  0  0  0  0  0  0  0  0
   -7.3171    3.1096   -2.2802 H   0  0  0  0  0  0  0  0  0  0  0  0
   -8.1687    4.5966   -2.7211 H   0  0  0  0  0  0  0  0  0  0  0  0
   -5.7007    3.9760   -3.9651 H   0  0  0  0  0  0  0  0  0  0  0  0
   -6.6812    5.9979   -4.6307 H   0  0  0  0  0  0  0  0  0  0  0  0
   -6.9754    6.5754   -3.0066 H   0  0  0  0  0  0  0  0  0  0  0  0
   -3.6955    7.8190   -2.7047 H   0  0  0  0  0  0  0  0  0  0  0  0
   -2.7964    1.7120    0.8736 H   0  0  0  0  0  0  0  0  0  0  0  0
   -2.7808    1.6635   -0.9336 H   0  0  0  0  0  0  0  0  0  0  0  0
   -3.5266    0.3605    0.0054 H   0  0  0  0  0  0  0  0  0  0  0  0
    1.5748   -3.8257    0.7618 H   0  0  0  0  0  0  0  0  0  0  0  0
    0.7550   -4.8843   -0.2571 H   0  0  0  0  0  0  0  0  0  0  0  0
    2.8706   -4.3122   -1.2826 H   0  0  0  0  0  0  0  0  0  0  0  0
    1.5286   -3.7516   -2.2811 H   0  0  0  0  0  0  0  0  0  0  0  0
    3.4544   -2.0612   -2.1613 H   0  0  0  0  0  0  0  0  0  0  0  0
    1.9946   -1.4585   -1.6167 H   0  0  0  0  0  0  0  0  0  0  0  0
    1.8221   -1.5812    2.0522 H   0  0  0  0  0  0  0  0  0  0  0  0
    2.5191   -3.1955    2.2110 H   0  0  0  0  0  0  0  0  0  0  0  0
    3.3312   -1.7469    2.8167 H   0  0  0  0  0  0  0  0  0  0  0  0
  1  2  1  0  0  0  0
  1 38  1  0  0  0  0
  1 39  1  0  0  0  0
  1 40  1  0  0  0  0
  2  3  2  0  0  0  0
  2  7  1  0  0  0  0
  3  4  1  0  0  0  0
  3 41  1  0  0  0  0
  4  5  2  0  0  0  0
  4 30  1  0  0  0  0
  5  6  1  0  0  0  0
  5 42  1  0  0  0  0
  6  7  2  0  0  0  0
  6 29  1  0  0  0  0
  7  8  1  0  0  0  0
  8  9  2  0  0  0  0
  8 13  1  0  0  0  0
  9 10  1  0  0  0  0
  9 43  1  0  0  0  0
 10 11  2  0  0  0  0
 10 44  1  0  0  0  0
 11 12  1  0  0  0  0
 11 45  1  0  0  0  0
 12 13  2  0  0  0  0
 12 14  1  0  0  0  0
 13 46  1  0  0  0  0
 14 15  1  0  0  0  0
 14 47  1  0  0  0  0
 14 48  1  0  0  0  0
 15 16  1  0  0  0  0
 16 17  2  0  0  0  0
 16 21  1  0  0  0  0
 17 18  1  0  0  0  0
 17 49  1  0  0  0  0
 18 19  2  0  0  0  0
 18 50  1  0  0  0  0
 19 20  1  0  0  0  0
 19 24  1  0  0  0  0
 20 21  2  0  0  0  0
 20 22  1  0  0  0  0
 21 51  1  0  0  0  0
 22 23  1  0  0  0  0
 23 24  1  0  0  0  0
 23 52  1  0  0  0  0
 23 53  1  0  0  0  0
 24 25  1  0  0  0  0
 24 54  1  6  0  0  0
 25 26  1  0  0  0  0
 25 55  1  0  0  0  0
 25 56  1  0  0  0  0
 26 27  2  0  0  0  0
 26 28  1  0  0  0  0
 28 57  1  0  0  0  0
 29 58  1  0  0  0  0
 29 59  1  0  0  0  0
 29 60  1  0  0  0  0
 30 31  1  0  0  0  0
 31 32  1  0  0  0  0
 31 61  1  0  0  0  0
 31 62  1  0  0  0  0
 32 33  1  0  0  0  0
 32 63  1  0  0  0  0
 32 64  1  0  0  0  0
 33 34  1  0  0  0  0
 33 65  1  0  0  0  0
 33 66  1  0  0  0  0
 34 35  2  0  0  0  0
 34 36  2  0  0  0  0
 34 37  1  0  0  0  0
 37 67  1  0  0  0  0
 37 68  1  0  0  0  0
 37 69  1  0  0  0  0
M  END
>  <DRUGBANK_ID>
DB12491

>  <COMMON_NAME>
Fasiglifam

>  <CAS_NUMBER>
1000413-72-8

>  <UNII>
GLP1W4JXAH

>  <SYNONYMS>
Fasiglifam

$$$$
