
 OpenBabel10282417243D

 68 71  0  0  1  0  0  0  0  0999 V2000
    1.0967   -0.0881   -0.2346 H   0  0  0  0  0  0  0  0  0  0  0  0
    2.1960   -0.0746   -0.2601 C   0  0  1  0  0  0  0  0  0  0  0  0
    2.6500   -1.3682    0.4471 C   0  0  0  0  0  0  0  0  0  0  0  0
    4.1136   -1.3237    0.8831 C   0  0  0  0  0  0  0  0  0  0  0  0
    4.5324   -0.0157    1.5848 C   0  0  1  0  0  0  0  0  0  0  0  0
    4.1189    1.2191    0.7562 C   0  0  0  0  0  0  0  0  0  0  0  0
    2.6352    1.2270    0.4482 C   0  0  0  0  0  0  0  0  0  0  0  0
    4.1154    0.0164    3.0081 N   0  0  0  0  0  0  0  0  0  0  0  0
    4.6479    1.1997    3.6790 C   0  0  0  0  0  0  0  0  0  0  0  0
    2.6890   -0.0547    3.3010 C   0  0  0  0  0  0  0  0  0  0  0  0
    2.6345   -0.0938   -1.7517 C   0  0  1  0  0  0  0  0  0  0  0  0
    2.2027    1.2246   -2.3827 C   0  0  0  0  0  0  0  0  0  0  0  0
    4.0625   -0.2623   -1.9195 O   0  0  0  0  0  0  0  0  0  0  0  0
    4.1373   -1.4796   -2.5255 C   0  0  0  0  0  0  0  0  0  0  0  0
    2.8948   -1.9819   -2.8247 C   0  0  0  0  0  0  0  0  0  0  0  0
    1.8960   -1.1485   -2.4084 O   0  0  0  0  0  0  0  0  0  0  0  0
    2.6664   -3.1997   -3.4687 C   0  0  0  0  0  0  0  0  0  0  0  0
    1.2319   -3.5553   -3.7147 C   0  0  0  0  0  0  0  0  0  0  0  0
    3.7929   -3.9605   -3.8221 C   0  0  0  0  0  0  0  0  0  0  0  0
    5.0549   -3.4560   -3.4283 C   0  0  0  0  0  0  0  0  0  0  0  0
    5.2471   -2.2233   -2.8043 C   0  0  0  0  0  0  0  0  0  0  0  0
    6.8540   -1.7446   -2.4148 Cl  0  0  0  0  0  0  0  0  0  0  0  0
    3.6052   -5.2264   -4.6161 C   0  0  0  0  0  0  0  0  0  0  0  0
    2.5172   -5.6882   -4.9110 O   0  0  0  0  0  0  0  0  0  0  0  0
    4.6168   -5.9612   -5.1367 N   0  0  0  0  0  0  0  0  0  0  0  0
    6.0595   -5.9646   -5.0627 C   0  0  0  0  0  0  0  0  0  0  0  0
    6.5266   -7.0822   -4.1985 C   0  0  0  0  0  0  0  0  0  0  0  0
    6.1957   -8.3687   -4.4199 C   0  0  0  0  0  0  0  0  0  0  0  0
    5.3529   -8.8125   -5.5804 C   0  0  0  0  0  0  0  0  0  0  0  0
    6.6642   -9.3999   -3.5245 C   0  0  0  0  0  0  0  0  0  0  0  0
    7.4801   -9.1078   -2.5008 C   0  0  0  0  0  0  0  0  0  0  0  0
    8.0085  -10.1546   -1.5787 C   0  0  0  0  0  0  0  0  0  0  0  0
    7.8561   -7.8050   -2.2826 N   0  0  0  0  0  0  0  0  0  0  0  0
    7.4350   -6.7409   -3.0490 C   0  0  0  0  0  0  0  0  0  0  0  0
    7.7960   -5.6001   -2.8115 O   0  0  0  0  0  0  0  0  0  0  0  0
    1.9769   -1.5845    1.2742 H   0  0  0  0  0  0  0  0  0  0  0  0
    2.4809   -2.2493   -0.1812 H   0  0  0  0  0  0  0  0  0  0  0  0
    4.3645   -2.2025    1.4881 H   0  0  0  0  0  0  0  0  0  0  0  0
    4.7491   -1.4389    0.0016 H   0  0  0  0  0  0  0  0  0  0  0  0
    5.6342   -0.0310    1.5744 H   0  0  0  0  0  0  0  0  0  0  0  0
    4.4119    2.1588    1.2344 H   0  0  0  0  0  0  0  0  0  0  0  0
    4.6817    1.2435   -0.1852 H   0  0  0  0  0  0  0  0  0  0  0  0
    2.3976    2.1389   -0.1026 H   0  0  0  0  0  0  0  0  0  0  0  0
    2.0085    1.4111    1.3131 H   0  0  0  0  0  0  0  0  0  0  0  0
    4.2618    2.1294    3.2493 H   0  0  0  0  0  0  0  0  0  0  0  0
    4.3506    1.1947    4.7305 H   0  0  0  0  0  0  0  0  0  0  0  0
    5.7399    1.2114    3.6393 H   0  0  0  0  0  0  0  0  0  0  0  0
    2.1393    0.8170    2.9630 H   0  0  0  0  0  0  0  0  0  0  0  0
    2.2217   -0.9614    2.9394 H   0  0  0  0  0  0  0  0  0  0  0  0
    2.4951   -0.0838    4.3737 H   0  0  0  0  0  0  0  0  0  0  0  0
    1.1221    1.3471   -2.2462 H   0  0  0  0  0  0  0  0  0  0  0  0
    2.7173    2.0854   -1.9485 H   0  0  0  0  0  0  0  0  0  0  0  0
    2.4398    1.2618   -3.4429 H   0  0  0  0  0  0  0  0  0  0  0  0
    0.7180   -3.6764   -2.7568 H   0  0  0  0  0  0  0  0  0  0  0  0
    0.7695   -2.7575   -4.3014 H   0  0  0  0  0  0  0  0  0  0  0  0
    1.0363   -4.4653   -4.2669 H   0  0  0  0  0  0  0  0  0  0  0  0
    5.9795   -3.9775   -3.5420 H   0  0  0  0  0  0  0  0  0  0  0  0
    4.1576   -6.7190   -5.6286 H   0  0  0  0  0  0  0  0  0  0  0  0
    6.4534   -6.0347   -6.0782 H   0  0  0  0  0  0  0  0  0  0  0  0
    6.4436   -5.0307   -4.7286 H   0  0  0  0  0  0  0  0  0  0  0  0
    5.8145   -9.6383   -6.1206 H   0  0  0  0  0  0  0  0  0  0  0  0
    4.3521   -9.0891   -5.2320 H   0  0  0  0  0  0  0  0  0  0  0  0
    5.2447   -8.0381   -6.3444 H   0  0  0  0  0  0  0  0  0  0  0  0
    6.3387  -10.4178   -3.7089 H   0  0  0  0  0  0  0  0  0  0  0  0
    9.1013  -10.1869   -1.6266 H   0  0  0  0  0  0  0  0  0  0  0  0
    7.7001   -9.9543   -0.5486 H   0  0  0  0  0  0  0  0  0  0  0  0
    7.6324  -11.1451   -1.8563 H   0  0  0  0  0  0  0  0  0  0  0  0
    8.4757   -7.5701   -1.5145 H   0  0  0  0  0  0  0  0  0  0  0  0
  2  1  1  1  0  0  0
  2  3  1  0  0  0  0
  2  7  1  0  0  0  0
  2 11  1  0  0  0  0
  3  4  1  0  0  0  0
  3 36  1  0  0  0  0
  3 37  1  0  0  0  0
  4 38  1  0  0  0  0
  4 39  1  0  0  0  0
  5  4  1  0  0  0  0
  5  6  1  0  0  0  0
  5  8  1  0  0  0  0
  5 40  1  1  0  0  0
  6  7  1  0  0  0  0
  6 41  1  0  0  0  0
  6 42  1  0  0  0  0
  7 43  1  0  0  0  0
  7 44  1  0  0  0  0
  8  9  1  0  0  0  0
  8 10  1  0  0  0  0
  9 45  1  0  0  0  0
  9 46  1  0  0  0  0
  9 47  1  0  0  0  0
 10 48  1  0  0  0  0
 10 49  1  0  0  0  0
 10 50  1  0  0  0  0
 11 12  1  6  0  0  0
 11 13  1  0  0  0  0
 11 16  1  0  0  0  0
 12 51  1  0  0  0  0
 12 52  1  0  0  0  0
 12 53  1  0  0  0  0
 13 14  1  0  0  0  0
 14 15  2  0  0  0  0
 14 21  1  0  0  0  0
 15 16  1  0  0  0  0
 15 17  1  0  0  0  0
 17 18  1  0  0  0  0
 17 19  2  0  0  0  0
 18 54  1  0  0  0  0
 18 55  1  0  0  0  0
 18 56  1  0  0  0  0
 19 20  1  0  0  0  0
 19 23  1  0  0  0  0
 20 21  2  0  0  0  0
 20 57  1  0  0  0  0
 21 22  1  0  0  0  0
 23 24  2  0  0  0  0
 23 25  1  0  0  0  0
 25 26  1  0  0  0  0
 25 58  1  0  0  0  0
 26 27  1  0  0  0  0
 26 59  1  0  0  0  0
 26 60  1  0  0  0  0
 27 28  2  0  0  0  0
 27 34  1  0  0  0  0
 28 29  1  0  0  0  0
 28 30  1  0  0  0  0
 29 61  1  0  0  0  0
 29 62  1  0  0  0  0
 29 63  1  0  0  0  0
 30 31  2  0  0  0  0
 30 64  1  0  0  0  0
 31 32  1  0  0  0  0
 31 33  1  0  0  0  0
 32 65  1  0  0  0  0
 32 66  1  0  0  0  0
 32 67  1  0  0  0  0
 33 34  1  0  0  0  0
 33 68  1  0  0  0  0
 34 35  2  0  0  0  0
M  END
>  <DRUGBANK_ID>
DB18314

>  <COMMON_NAME>
Valemetostat

>  <CAS_NUMBER>
1809336-39-7

>  <UNII>
60RD0234VE

>  <SYNONYMS>
Ezh1/2 inhibitor ds-3201

$$$$
