BAS
 OpenBabel10282417163D

 25 25  0  0  0  0  0  0  0  0999 V2000
   -0.7473    2.7171    3.2488 C   0  0  0  0  0  0  0  0  0  0  0  0
   -1.1978    3.8326    3.3810 O   0  0  0  0  0  0  0  0  0  0  0  0
    0.3806    2.4152    2.5202 N   0  0  0  0  0  0  0  0  0  0  0  0
    0.8673    1.0383    2.3190 C   0  0  2  0  0  0  0  0  0  0  0  0
    0.1406    0.5109    1.0371 C   0  0  0  0  0  0  0  0  0  0  0  0
    0.0037   -0.9851    0.8573 C   0  0  0  0  0  0  0  0  0  0  0  0
    0.8331    0.2232    3.6317 C   0  0  0  0  0  0  0  0  0  0  0  0
    0.8295   -1.1762    3.6561 C   0  0  0  0  0  0  0  0  0  0  0  0
    0.5958   -1.9154    4.8114 C   0  0  0  0  0  0  0  0  0  0  0  0
    0.4799   -1.2693    6.0255 C   0  0  0  0  0  0  0  0  0  0  0  0
    0.6366    0.1093    6.0756 C   0  0  0  0  0  0  0  0  0  0  0  0
    0.8317    0.8423    4.8991 C   0  0  0  0  0  0  0  0  0  0  0  0
    1.9327    1.1397    2.0646 H   0  0  0  0  0  0  0  0  0  0  0  0
   -1.1774    1.8419    3.7703 H   0  0  0  0  0  0  0  0  0  0  0  0
    0.6436    3.1401    1.8609 H   0  0  0  0  0  0  0  0  0  0  0  0
   -0.8674    0.9396    0.9702 H   0  0  0  0  0  0  0  0  0  0  0  0
    0.6768    0.9025    0.1594 H   0  0  0  0  0  0  0  0  0  0  0  0
   -0.6753   -1.3806    1.6211 H   0  0  0  0  0  0  0  0  0  0  0  0
   -0.4341   -1.2676   -0.1006 H   0  0  0  0  0  0  0  0  0  0  0  0
    0.9898   -1.4578    0.8962 H   0  0  0  0  0  0  0  0  0  0  0  0
    0.9990   -1.7828    2.7834 H   0  0  0  0  0  0  0  0  0  0  0  0
    0.5175   -2.9961    4.7337 H   0  0  0  0  0  0  0  0  0  0  0  0
    0.3049   -1.8452    6.9269 H   0  0  0  0  0  0  0  0  0  0  0  0
    0.5937    0.6263    7.0297 H   0  0  0  0  0  0  0  0  0  0  0  0
    0.9245    1.9231    5.0048 H   0  0  0  0  0  0  0  0  0  0  0  0
  1  2  2  0  0  0  0
  1  3  1  0  0  0  0
  1 14  1  0  0  0  0
  3 15  1  0  0  0  0
  4  7  1  0  0  0  0
  4 13  1  6  0  0  0
  4  5  1  0  0  0  0
  4  3  1  0  0  0  0
  5  6  1  0  0  0  0
  5 16  1  0  0  0  0
  5 17  1  0  0  0  0
  6 18  1  0  0  0  0
  6 19  1  0  0  0  0
  6 20  1  0  0  0  0
  7  8  2  0  0  0  0
  7 12  1  0  0  0  0
  8  9  1  0  0  0  0
  8 21  1  0  0  0  0
  9 10  2  0  0  0  0
  9 22  1  0  0  0  0
 10 11  1  0  0  0  0
 10 23  1  0  0  0  0
 11 12  2  0  0  0  0
 11 24  1  0  0  0  0
 12 25  1  0  0  0  0
M  END
>  <DRUGBANK_ID>
DB07436

>  <COMMON_NAME>
N-(1-PHENYL-PROPYL)-FORMAMIDE

$$$$
