
 OpenBabel10282417143D

 62 64  0  0  0  0  0  0  0  0999 V2000
    1.5363   -0.1284    0.2974 N   0  0  0  0  0  0  0  0  0  0  0  0
    3.1821    0.1019    2.7644 N   0  0  0  0  0  0  0  0  0  0  0  0
   -0.7726   -0.4682   -0.6524 C   0  0  3  0  0  0  0  0  0  0  0  0
   -0.0746   -2.0597    1.1715 C   0  0  3  0  0  0  0  0  0  0  0  0
   -2.5006   -1.7579    0.7456 C   0  0  3  0  0  0  0  0  0  0  0  0
   -1.2660    0.1483    1.7154 C   0  0  3  0  0  0  0  0  0  0  0  0
    0.4529   -1.1775   -0.0216 C   0  0  3  0  0  0  0  0  0  0  0  0
   -2.0879   -1.2721   -0.6620 C   0  0  0  0  0  0  0  0  0  0  0  0
   -1.0981    0.7166    0.2341 C   0  0  0  0  0  0  0  0  0  0  0  0
   -1.4135   -2.7695    1.1538 C   0  0  0  0  0  0  0  0  0  0  0  0
   -0.3522   -1.0234    2.1984 C   0  0  0  0  0  0  0  0  0  0  0  0
   -2.6025   -0.5523    1.7319 C   0  0  0  0  0  0  0  0  0  0  0  0
    1.4876    0.9603    1.3657 C   0  0  0  0  0  0  0  0  0  0  0  0
    1.8631    0.6517    2.8394 C   0  0  0  0  0  0  0  0  0  0  0  0
    3.3585   -0.7611    3.9108 C   0  0  0  0  0  0  0  0  0  0  0  0
    2.7614   -2.1390    3.7602 C   0  0  0  0  0  0  0  0  0  0  0  0
    3.5591   -3.2487    3.7058 C   0  0  0  0  0  0  0  0  0  0  0  0
    3.0076   -4.6443    3.5979 C   0  0  0  0  0  0  0  0  0  0  0  0
    5.0316   -3.0107    3.7733 C   0  0  0  0  0  0  0  0  0  0  0  0
    3.4159   -5.3815    2.3088 C   0  0  0  0  0  0  0  0  0  0  0  0
    4.9046   -5.5264    2.1650 C   0  0  0  0  0  0  0  0  0  0  0  0
    5.6175   -6.6602    2.3055 C   0  0  0  0  0  0  0  0  0  0  0  0
    7.1175   -6.6247    2.3462 C   0  0  0  0  0  0  0  0  0  0  0  0
    4.9290   -7.9802    2.4025 C   0  0  0  0  0  0  0  0  0  0  0  0
    2.4530   -0.2920   -0.1087 H   0  0  0  0  0  0  0  0  0  0  0  0
    3.2089   -0.4828    1.9211 H   0  0  0  0  0  0  0  0  0  0  0  0
   -0.5103   -0.1500   -1.6694 H   0  0  0  0  0  0  0  0  0  0  0  0
    0.7164   -2.7569    1.4934 H   0  0  0  0  0  0  0  0  0  0  0  0
   -3.4701   -2.2549    0.7366 H   0  0  0  0  0  0  0  0  0  0  0  0
   -1.2365    0.9712    2.4401 H   0  0  0  0  0  0  0  0  0  0  0  0
    0.8880   -1.8760   -0.7536 H   0  0  0  0  0  0  0  0  0  0  0  0
   -2.8762   -0.6090   -1.0345 H   0  0  0  0  0  0  0  0  0  0  0  0
   -2.0038   -2.1200   -1.3437 H   0  0  0  0  0  0  0  0  0  0  0  0
   -0.3357    1.4742    0.0125 H   0  0  0  0  0  0  0  0  0  0  0  0
   -1.9891    1.2716   -0.0757 H   0  0  0  0  0  0  0  0  0  0  0  0
   -1.6169   -3.1416    2.1737 H   0  0  0  0  0  0  0  0  0  0  0  0
   -1.3818   -3.6477    0.5071 H   0  0  0  0  0  0  0  0  0  0  0  0
   -0.5740   -1.3698    3.2131 H   0  0  0  0  0  0  0  0  0  0  0  0
    0.6674   -0.8435    2.2130 H   0  0  0  0  0  0  0  0  0  0  0  0
   -3.3808    0.1635    1.4534 H   0  0  0  0  0  0  0  0  0  0  0  0
   -2.8095   -0.8743    2.7618 H   0  0  0  0  0  0  0  0  0  0  0  0
    2.0806    1.8104    1.0101 H   0  0  0  0  0  0  0  0  0  0  0  0
    0.5459    1.4649    1.5131 H   0  0  0  0  0  0  0  0  0  0  0  0
    1.5849    1.4636    3.5206 H   0  0  0  0  0  0  0  0  0  0  0  0
    1.2889   -0.0822    3.4102 H   0  0  0  0  0  0  0  0  0  0  0  0
    4.4345   -0.7496    4.0166 H   0  0  0  0  0  0  0  0  0  0  0  0
    2.9562   -0.3083    4.8217 H   0  0  0  0  0  0  0  0  0  0  0  0
    1.6906   -2.2862    3.7486 H   0  0  0  0  0  0  0  0  0  0  0  0
    3.3238   -5.2134    4.4843 H   0  0  0  0  0  0  0  0  0  0  0  0
    1.9080   -4.6398    3.6350 H   0  0  0  0  0  0  0  0  0  0  0  0
    5.3506   -2.5274    2.8380 H   0  0  0  0  0  0  0  0  0  0  0  0
    5.2879   -2.3696    4.6198 H   0  0  0  0  0  0  0  0  0  0  0  0
    5.6110   -3.9133    3.9463 H   0  0  0  0  0  0  0  0  0  0  0  0
    2.9208   -6.3585    2.3172 H   0  0  0  0  0  0  0  0  0  0  0  0
    3.0324   -4.8485    1.4328 H   0  0  0  0  0  0  0  0  0  0  0  0
    5.4563   -4.6139    1.9710 H   0  0  0  0  0  0  0  0  0  0  0  0
    7.4877   -7.1126    3.2551 H   0  0  0  0  0  0  0  0  0  0  0  0
    7.5341   -7.1316    1.4728 H   0  0  0  0  0  0  0  0  0  0  0  0
    7.5079   -5.5991    2.3590 H   0  0  0  0  0  0  0  0  0  0  0  0
    4.3145   -8.0387    3.3064 H   0  0  0  0  0  0  0  0  0  0  0  0
    4.2817   -8.1054    1.5257 H   0  0  0  0  0  0  0  0  0  0  0  0
    5.6393   -8.8089    2.4048 H   0  0  0  0  0  0  0  0  0  0  0  0
  1  7  1  0  0  0  0
  1 13  1  0  0  0  0
  1 25  1  0  0  0  0
  2 14  1  0  0  0  0
  2 15  1  0  0  0  0
  2 26  1  0  0  0  0
  3  7  1  0  0  0  0
  3  8  1  0  0  0  0
  3  9  1  0  0  0  0
  3 27  1  0  0  0  0
  4  7  1  0  0  0  0
  4 10  1  0  0  0  0
  4 11  1  0  0  0  0
  4 28  1  0  0  0  0
  5  8  1  0  0  0  0
  5 10  1  0  0  0  0
  5 12  1  0  0  0  0
  5 29  1  0  0  0  0
  6  9  1  0  0  0  0
  6 11  1  0  0  0  0
  6 12  1  0  0  0  0
  6 30  1  0  0  0  0
  7 31  1  0  0  0  0
  8 32  1  0  0  0  0
  8 33  1  0  0  0  0
  9 34  1  0  0  0  0
  9 35  1  0  0  0  0
 10 36  1  0  0  0  0
 10 37  1  0  0  0  0
 11 38  1  0  0  0  0
 11 39  1  0  0  0  0
 12 40  1  0  0  0  0
 12 41  1  0  0  0  0
 13 14  1  0  0  0  0
 13 42  1  0  0  0  0
 13 43  1  0  0  0  0
 14 44  1  0  0  0  0
 14 45  1  0  0  0  0
 15 16  1  0  0  0  0
 15 46  1  0  0  0  0
 15 47  1  0  0  0  0
 16 17  2  0  0  0  0
 16 48  1  0  0  0  0
 17 18  1  0  0  0  0
 17 19  1  0  0  0  0
 18 20  1  0  0  0  0
 18 49  1  0  0  0  0
 18 50  1  0  0  0  0
 19 51  1  0  0  0  0
 19 52  1  0  0  0  0
 19 53  1  0  0  0  0
 20 21  1  0  0  0  0
 20 54  1  0  0  0  0
 20 55  1  0  0  0  0
 21 22  2  0  0  0  0
 21 56  1  0  0  0  0
 22 23  1  0  0  0  0
 22 24  1  0  0  0  0
 23 57  1  0  0  0  0
 23 58  1  0  0  0  0
 23 59  1  0  0  0  0
 24 60  1  0  0  0  0
 24 61  1  0  0  0  0
 24 62  1  0  0  0  0
M  END
>  <DRUGBANK_ID>
DB05186

>  <COMMON_NAME>
SQ-109

>  <CAS_NUMBER>
502487-67-4

>  <UNII>
9AU7XUV31A

>  <SYNONYMS>
N-adamantanyl-N'-geranyl-ethylenediamine

$$$$
