
 OpenBabel10282417113D

 26 25  0  0  1  0  0  0  0  0999 V2000
    0.8285    0.8152   -2.4600 C   0  0  0  0  0  0  0  0  0  0  0  0
    0.3476    0.8501   -1.0135 C   0  0  2  0  0  0  0  0  0  0  0  0
    1.0818   -0.1000   -0.0425 C   0  0  2  0  0  0  0  0  0  0  0  0
    1.1855    0.4683    1.4001 C   0  0  1  0  0  0  0  0  0  0  0  0
    2.0411    1.7606    1.5604 C   0  0  1  0  0  0  0  0  0  0  0  0
    1.5711    3.0739    0.9049 C   0  0  0  0  0  0  0  0  0  0  0  0
    0.2055    3.3911    1.1851 O   0  0  0  0  0  0  0  0  0  0  0  0
    2.1276    2.0416    2.9705 O   0  0  0  0  0  0  0  0  0  0  0  0
   -0.1019    0.6297    2.0258 O   0  0  0  0  0  0  0  0  0  0  0  0
    2.4026   -0.4046   -0.4909 O   0  0  0  0  0  0  0  0  0  0  0  0
   -1.0715    0.7310   -0.8792 O   0  0  0  0  0  0  0  0  0  0  0  0
    0.3481   -0.3584   -3.0892 O   0  0  0  0  0  0  0  0  0  0  0  0
    1.9232    0.8470   -2.5211 H   0  0  0  0  0  0  0  0  0  0  0  0
    0.4641    1.6922   -3.0069 H   0  0  0  0  0  0  0  0  0  0  0  0
    0.5247    1.8668   -0.7403 H   0  0  0  0  0  0  0  0  0  0  0  0
    0.5197   -1.0432    0.0132 H   0  0  0  0  0  0  0  0  0  0  0  0
    1.6982   -0.2958    2.0012 H   0  0  0  0  0  0  0  0  0  0  0  0
    3.0611    1.5554    1.2156 H   0  0  0  0  0  0  0  0  0  0  0  0
    2.1552    3.9116    1.2899 H   0  0  0  0  0  0  0  0  0  0  0  0
    1.7505    3.0916   -0.1746 H   0  0  0  0  0  0  0  0  0  0  0  0
   -0.3764    2.6872    0.8706 H   0  0  0  0  0  0  0  0  0  0  0  0
    1.2064    2.2368    3.2387 H   0  0  0  0  0  0  0  0  0  0  0  0
   -0.7812    0.7548    1.3612 H   0  0  0  0  0  0  0  0  0  0  0  0
    2.3260   -0.9129   -1.3224 H   0  0  0  0  0  0  0  0  0  0  0  0
   -1.3363   -0.1461   -1.2135 H   0  0  0  0  0  0  0  0  0  0  0  0
   -0.5995   -0.1982   -3.2493 H   0  0  0  0  0  0  0  0  0  0  0  0
  1 12  1  0  0  0  0
  1 13  1  0  0  0  0
  1 14  1  0  0  0  0
  2 11  1  0  0  0  0
  2 15  1  1  0  0  0
  2  3  1  0  0  0  0
  2  1  1  0  0  0  0
  3 16  1  1  0  0  0
  3 10  1  0  0  0  0
  3  4  1  0  0  0  0
  4  5  1  0  0  0  0
  4  9  1  0  0  0  0
  4 17  1  1  0  0  0
  5  6  1  0  0  0  0
  5  8  1  0  0  0  0
  5 18  1  6  0  0  0
  6  7  1  0  0  0  0
  6 19  1  0  0  0  0
  6 20  1  0  0  0  0
  7 21  1  0  0  0  0
  8 22  1  0  0  0  0
  9 23  1  0  0  0  0
 10 24  1  0  0  0  0
 11 25  1  0  0  0  0
 12 26  1  0  0  0  0
M  END
>  <DRUGBANK_ID>
DB00742

>  <SECONDARY_ACCESSION_NUMBERS>
APRD01083; EXPT02246

>  <COMMON_NAME>
Mannitol

>  <CAS_NUMBER>
69-65-8

>  <UNII>
3OWL53L36A

>  <SYNONYMS>
(2R,3R,4R,5R)-hexane-1,2,3,4,5,6-hexaol; (2R,3R,4R,5R)-hexane-1,2,3,4,5,6-hexol; D-(-)-Mannitol; D-Mannitol; Manitol; Manna Sugar; Mannit; Mannite; Mannitol; Mannitolum

$$$$
