
 OpenBabel10282417183D

 87 89  0  0  0  0  0  0  0  0999 V2000
    1.4026   -0.2037    0.1863 C   0  0  0  0  0  0  0  0  0  0  0  0
   -2.6764    0.4449    0.3425 N   0  3  0  0  0  0  0  0  0  0  0  0
    2.7001   -0.4244    0.5201 C   0  0  0  0  0  0  0  0  0  0  0  0
   -1.4309    0.2713    0.0096 C   0  0  0  0  0  0  0  0  0  0  0  0
    0.8735    1.1425   -0.0578 C   0  0  0  0  0  0  0  0  0  0  0  0
    0.4896   -1.3109   -0.0193 C   0  0  0  0  0  0  0  0  0  0  0  0
   -0.8233   -1.1061   -0.0959 C   0  0  0  0  0  0  0  0  0  0  0  0
   -0.4407    1.3857   -0.1780 C   0  0  0  0  0  0  0  0  0  0  0  0
    3.2329   -1.7957    0.6879 C   0  0  0  0  0  0  0  0  0  0  0  0
    3.6362    0.7062    0.7323 C   0  0  0  0  0  0  0  0  0  0  0  0
    4.4442   -4.3542    0.9594 C   0  0  0  0  0  0  0  0  0  0  0  0
    5.4523    2.7354    1.2608 C   0  0  0  0  0  0  0  0  0  0  0  0
    4.7179   -5.7065    1.1280 N   0  0  0  0  0  0  0  0  0  0  0  0
    3.3711    1.6459    1.7386 C   0  0  0  0  0  0  0  0  0  0  0  0
    3.3928   -2.6231   -0.4157 C   0  0  0  0  0  0  0  0  0  0  0  0
    4.8245    0.7881   -0.0114 C   0  0  0  0  0  0  0  0  0  0  0  0
    3.7396   -2.2101    1.9149 C   0  0  0  0  0  0  0  0  0  0  0  0
    4.0955   -3.8223   -0.2904 C   0  0  0  0  0  0  0  0  0  0  0  0
    5.7576    1.7774    0.2908 C   0  0  0  0  0  0  0  0  0  0  0  0
    4.3617   -3.4562    2.0292 C   0  0  0  0  0  0  0  0  0  0  0  0
    4.2615    2.6798    1.9825 C   0  0  0  0  0  0  0  0  0  0  0  0
    6.5828    4.1329    1.5086 S   0  0  0  0  0  0  0  0  0  0  0  0
    7.7940    3.4363    1.9633 O   0  5  0  0  0  0  0  0  0  0  0  0
    6.6170    4.6857    0.1640 O   0  0  0  0  0  0  0  0  0  0  0  0
    5.8868    4.9212    2.5095 O   0  0  0  0  0  0  0  0  0  0  0  0
    5.2859   -6.2273    2.3885 C   0  0  0  0  0  0  0  0  0  0  0  0
    4.4399   -7.3198    3.0244 C   0  0  0  0  0  0  0  0  0  0  0  0
    4.4894   -6.7069    0.0416 C   0  0  0  0  0  0  0  0  0  0  0  0
    3.0093   -6.9661   -0.2610 C   0  0  0  0  0  0  0  0  0  0  0  0
    0.2318   -7.4170   -0.7183 C   0  0  0  0  0  0  0  0  0  0  0  0
    2.5237   -8.2657   -0.3889 C   0  0  0  0  0  0  0  0  0  0  0  0
    2.0517   -5.9476   -0.4320 C   0  0  0  0  0  0  0  0  0  0  0  0
    1.1468   -8.4699   -0.6020 C   0  0  0  0  0  0  0  0  0  0  0  0
    0.6914   -6.1367   -0.6049 C   0  0  0  0  0  0  0  0  0  0  0  0
    0.4536  -10.1319   -0.6299 S   0  0  0  0  0  0  0  0  0  0  0  0
   -0.4769  -10.0578    0.4965 O   0  5  0  0  0  0  0  0  0  0  0  0
   -0.1554  -10.1602   -1.9568 O   0  0  0  0  0  0  0  0  0  0  0  0
    1.6207  -10.9789   -0.4380 O   0  0  0  0  0  0  0  0  0  0  0  0
   -3.3225    1.8166    0.5926 C   0  0  0  0  0  0  0  0  0  0  0  0
   -3.5699   -0.7609    0.6061 C   0  0  0  0  0  0  0  0  0  0  0  0
   -3.8241   -1.5210   -0.7028 C   0  0  0  0  0  0  0  0  0  0  0  0
   -4.3725    2.1457   -0.4223 C   0  0  0  0  0  0  0  0  0  0  0  0
   -6.1568    2.6763   -2.5336 C   0  0  0  0  0  0  0  0  0  0  0  0
   -4.3941    3.4082   -1.0085 C   0  0  0  0  0  0  0  0  0  0  0  0
   -5.3456    1.2256   -0.8393 C   0  0  0  0  0  0  0  0  0  0  0  0
   -5.2962    3.6623   -2.0466 C   0  0  0  0  0  0  0  0  0  0  0  0
   -6.1420    1.4296   -1.9523 C   0  0  0  0  0  0  0  0  0  0  0  0
   -5.2993    5.2742   -2.8604 S   0  0  0  0  0  0  0  0  0  0  0  0
   -4.9637    4.8793   -4.2294 O   0  5  0  0  0  0  0  0  0  0  0  0
   -6.6567    5.7175   -2.6096 O   0  0  0  0  0  0  0  0  0  0  0  0
   -4.2389    5.9750   -2.1394 O   0  0  0  0  0  0  0  0  0  0  0  0
    0.0138   -0.0210    2.6694 Na  0  3  0  0  0  0  0  0  0  0  0  0
    2.0263    0.1315   -2.4874 Na  0  3  0  0  0  0  0  0  0  0  0  0
    1.5619    1.9878   -0.1508 H   0  0  0  0  0  0  0  0  0  0  0  0
    0.8272   -2.3485   -0.0757 H   0  0  0  0  0  0  0  0  0  0  0  0
   -1.4026   -2.0179   -0.1642 H   0  0  0  0  0  0  0  0  0  0  0  0
   -0.7561    2.4097   -0.3764 H   0  0  0  0  0  0  0  0  0  0  0  0
    2.4724    1.6078    2.3378 H   0  0  0  0  0  0  0  0  0  0  0  0
    2.9321   -2.4127   -1.3744 H   0  0  0  0  0  0  0  0  0  0  0  0
    5.0654    0.0849   -0.8057 H   0  0  0  0  0  0  0  0  0  0  0  0
    3.6858   -1.5893    2.8052 H   0  0  0  0  0  0  0  0  0  0  0  0
    4.1776   -4.4336   -1.1900 H   0  0  0  0  0  0  0  0  0  0  0  0
    6.7266    1.8171   -0.2064 H   0  0  0  0  0  0  0  0  0  0  0  0
    4.7816   -3.6900    2.9998 H   0  0  0  0  0  0  0  0  0  0  0  0
    4.0462    3.4343    2.7347 H   0  0  0  0  0  0  0  0  0  0  0  0
    6.3022   -6.5887    2.2003 H   0  0  0  0  0  0  0  0  0  0  0  0
    5.4021   -5.4625    3.1575 H   0  0  0  0  0  0  0  0  0  0  0  0
    4.3990   -8.2183    2.4044 H   0  0  0  0  0  0  0  0  0  0  0  0
    4.8773   -7.6083    3.9870 H   0  0  0  0  0  0  0  0  0  0  0  0
    3.4166   -6.9771    3.2070 H   0  0  0  0  0  0  0  0  0  0  0  0
    5.0346   -6.4177   -0.8661 H   0  0  0  0  0  0  0  0  0  0  0  0
    4.9572   -7.6580    0.3351 H   0  0  0  0  0  0  0  0  0  0  0  0
   -0.8214   -7.6137   -0.8868 H   0  0  0  0  0  0  0  0  0  0  0  0
    3.1815   -9.1286   -0.3039 H   0  0  0  0  0  0  0  0  0  0  0  0
    2.2900   -4.9148   -0.4302 H   0  0  0  0  0  0  0  0  0  0  0  0
    0.0328   -5.2799   -0.6310 H   0  0  0  0  0  0  0  0  0  0  0  0
   -3.6984    1.8342    1.6215 H   0  0  0  0  0  0  0  0  0  0  0  0
   -2.5318    2.5730    0.5570 H   0  0  0  0  0  0  0  0  0  0  0  0
   -3.0870   -1.3776    1.3720 H   0  0  0  0  0  0  0  0  0  0  0  0
   -4.4873   -0.4112    1.0892 H   0  0  0  0  0  0  0  0  0  0  0  0
   -2.9427   -1.9843   -1.1402 H   0  0  0  0  0  0  0  0  0  0  0  0
   -4.5392   -2.3290   -0.5453 H   0  0  0  0  0  0  0  0  0  0  0  0
   -4.1695   -0.8795   -1.5153 H   0  0  0  0  0  0  0  0  0  0  0  0
   -6.8484    2.8964   -3.3412 H   0  0  0  0  0  0  0  0  0  0  0  0
   -3.7325    4.2112   -0.6852 H   0  0  0  0  0  0  0  0  0  0  0  0
   -5.5386    0.2871   -0.3482 H   0  0  0  0  0  0  0  0  0  0  0  0
   -6.7530    0.6176   -2.3358 H   0  0  0  0  0  0  0  0  0  0  0  0
  2 39  1  0  0  0  0
  2 40  1  0  0  0  0
  3  1  2  0  0  0  0
  4  2  2  0  0  0  0
  5  1  1  0  0  0  0
  5 54  1  0  0  0  0
  6  1  1  0  0  0  0
  6 55  1  0  0  0  0
  7  4  1  0  0  0  0
  7  6  2  0  0  0  0
  7 56  1  0  0  0  0
  8  4  1  0  0  0  0
  8  5  2  0  0  0  0
  8 57  1  0  0  0  0
  9  3  1  0  0  0  0
 10  3  1  0  0  0  0
 12 22  1  0  0  0  0
 13 11  1  0  0  0  0
 13 26  1  0  0  0  0
 13 28  1  0  0  0  0
 14 10  2  0  0  0  0
 14 58  1  0  0  0  0
 15  9  2  0  0  0  0
 15 59  1  0  0  0  0
 16 10  1  0  0  0  0
 16 60  1  0  0  0  0
 17  9  1  0  0  0  0
 17 61  1  0  0  0  0
 18 11  2  0  0  0  0
 18 15  1  0  0  0  0
 18 62  1  0  0  0  0
 19 12  1  0  0  0  0
 19 16  2  0  0  0  0
 19 63  1  0  0  0  0
 20 11  1  0  0  0  0
 20 17  2  0  0  0  0
 20 64  1  0  0  0  0
 21 12  2  0  0  0  0
 21 14  1  0  0  0  0
 21 65  1  0  0  0  0
 22 23  1  0  0  0  0
 22 24  2  0  0  0  0
 22 25  2  0  0  0  0
 26 27  1  0  0  0  0
 26 66  1  0  0  0  0
 26 67  1  0  0  0  0
 27 68  1  0  0  0  0
 27 69  1  0  0  0  0
 27 70  1  0  0  0  0
 28 71  1  0  0  0  0
 28 72  1  0  0  0  0
 29 28  1  0  0  0  0
 30 73  1  0  0  0  0
 31 29  2  0  0  0  0
 31 74  1  0  0  0  0
 32 29  1  0  0  0  0
 32 75  1  0  0  0  0
 33 30  2  0  0  0  0
 33 31  1  0  0  0  0
 33 35  1  0  0  0  0
 34 30  1  0  0  0  0
 34 32  2  0  0  0  0
 34 76  1  0  0  0  0
 35 36  1  0  0  0  0
 35 37  2  0  0  0  0
 35 38  2  0  0  0  0
 39 77  1  0  0  0  0
 39 78  1  0  0  0  0
 40 41  1  0  0  0  0
 40 79  1  0  0  0  0
 40 80  1  0  0  0  0
 41 81  1  0  0  0  0
 41 82  1  0  0  0  0
 41 83  1  0  0  0  0
 42 39  1  0  0  0  0
 43 84  1  0  0  0  0
 44 42  2  0  0  0  0
 44 85  1  0  0  0  0
 45 42  1  0  0  0  0
 45 86  1  0  0  0  0
 46 43  2  0  0  0  0
 46 44  1  0  0  0  0
 46 48  1  0  0  0  0
 47 43  1  0  0  0  0
 47 45  2  0  0  0  0
 47 87  1  0  0  0  0
 48 49  1  0  0  0  0
 48 50  2  0  0  0  0
 48 51  2  0  0  0  0
M  CHG  6   2   1  23  -1  36  -1  49  -1  52   1  53   1
M  END
>  <DRUGBANK_ID>
DB11183

>  <COMMON_NAME>
Light green SF yellowish

>  <CAS_NUMBER>
5141-20-8

>  <UNII>
3F7BHA64Z0

>  <SYNONYMS>
A F Green No.2; A.F. Green No. 2; Acid Brilliant Green SF; Acid green; Acid green 5; Acid Green A; C.I. Acid Green 5; Lichtgruen; Light Green G; Light Green SF; Wool Brilliant Green SF

$$$$
