
 OpenBabel10282417183D

 32 34  0  0  1  0  0  0  0  0999 V2000
   -1.1433   -1.4235    0.0841 O   0  0  0  0  0  0  0  0  0  0  0  0
    3.6160   -1.3636   -0.0925 O   0  0  0  0  0  0  0  0  0  0  0  0
   -1.8181   -1.0364   -5.8136 O   0  0  0  0  0  0  0  0  0  0  0  0
   -2.4048    0.6508   -0.4312 C   0  0  2  0  0  0  0  0  0  0  0  0
   -1.2563    1.5067    0.1283 C   0  0  0  0  0  0  0  0  0  0  0  0
   -2.3355   -0.6703    0.3617 C   0  0  0  0  0  0  0  0  0  0  0  0
    0.0303    0.7176    0.1347 C   0  0  0  0  0  0  0  0  0  0  0  0
   -2.3506    0.3923   -1.9419 C   0  0  0  0  0  0  0  0  0  0  0  0
    0.0136   -0.6853    0.0887 C   0  0  0  0  0  0  0  0  0  0  0  0
    1.2571    1.3906    0.1299 C   0  0  0  0  0  0  0  0  0  0  0  0
   -3.3089   -0.4439   -2.5408 C   0  0  0  0  0  0  0  0  0  0  0  0
   -1.3016    0.8676   -2.7466 C   0  0  0  0  0  0  0  0  0  0  0  0
    1.2076   -1.4038   -0.0129 C   0  0  0  0  0  0  0  0  0  0  0  0
    2.4488    0.6723    0.0562 C   0  0  0  0  0  0  0  0  0  0  0  0
    2.4175   -0.7155   -0.0181 C   0  0  0  0  0  0  0  0  0  0  0  0
   -3.1112   -0.9227   -3.8389 C   0  0  0  0  0  0  0  0  0  0  0  0
   -1.1373    0.4409   -4.0618 C   0  0  0  0  0  0  0  0  0  0  0  0
   -2.0180   -0.4986   -4.5776 C   0  0  0  0  0  0  0  0  0  0  0  0
    3.4531   -2.3208   -0.1095 H   0  0  0  0  0  0  0  0  0  0  0  0
   -0.9603   -0.7223   -6.1428 H   0  0  0  0  0  0  0  0  0  0  0  0
   -3.3514    1.1640   -0.2150 H   0  0  0  0  0  0  0  0  0  0  0  0
   -1.1493    2.4316   -0.4510 H   0  0  0  0  0  0  0  0  0  0  0  0
   -1.4752    1.8038    1.1614 H   0  0  0  0  0  0  0  0  0  0  0  0
   -2.3711   -0.4816    1.4435 H   0  0  0  0  0  0  0  0  0  0  0  0
   -3.1941   -1.3131    0.1381 H   0  0  0  0  0  0  0  0  0  0  0  0
    1.2879    2.4764    0.1564 H   0  0  0  0  0  0  0  0  0  0  0  0
   -4.1807   -0.7791   -1.9861 H   0  0  0  0  0  0  0  0  0  0  0  0
   -0.5363    1.5327   -2.3561 H   0  0  0  0  0  0  0  0  0  0  0  0
    1.1732   -2.4856   -0.0936 H   0  0  0  0  0  0  0  0  0  0  0  0
    3.4007    1.1948    0.0459 H   0  0  0  0  0  0  0  0  0  0  0  0
   -3.7951   -1.6563   -4.2589 H   0  0  0  0  0  0  0  0  0  0  0  0
   -0.3014    0.8210   -4.6360 H   0  0  0  0  0  0  0  0  0  0  0  0
  1  6  1  0  0  0  0
  1  9  1  0  0  0  0
  2 15  1  0  0  0  0
  2 19  1  0  0  0  0
  3 18  1  0  0  0  0
  3 20  1  0  0  0  0
  4  5  1  0  0  0  0
  4  6  1  0  0  0  0
  4  8  1  0  0  0  0
  4 21  1  1  0  0  0
  5  7  1  0  0  0  0
  5 22  1  0  0  0  0
  5 23  1  0  0  0  0
  6 24  1  0  0  0  0
  6 25  1  0  0  0  0
  7  9  2  0  0  0  0
  7 10  1  0  0  0  0
  8 11  2  0  0  0  0
  8 12  1  0  0  0  0
  9 13  1  0  0  0  0
 10 14  2  0  0  0  0
 10 26  1  0  0  0  0
 11 16  1  0  0  0  0
 11 27  1  0  0  0  0
 12 17  2  0  0  0  0
 12 28  1  0  0  0  0
 13 15  2  0  0  0  0
 13 29  1  0  0  0  0
 14 15  1  0  0  0  0
 14 30  1  0  0  0  0
 16 18  2  0  0  0  0
 16 31  1  0  0  0  0
 17 18  1  0  0  0  0
 17 32  1  0  0  0  0
M  END
>  <DRUGBANK_ID>
DB11674

>  <COMMON_NAME>
Equol

>  <CAS_NUMBER>
531-95-3

>  <UNII>
2T6D2HPX7Q

>  <SYNONYMS>
S-equol

$$$$
