1179
 OpenBabel10282417113D

 52 56  0  0  1  0  0  0  0  0999 V2000
   -4.6086   -0.0530   -0.0455 O   0  0  0  0  0  0  0  0  0  0  0  0
   -1.1629   -2.6514   -0.6250 O   0  0  0  0  0  0  0  0  0  0  0  0
   -4.3583    2.1517    0.4599 O   0  0  0  0  0  0  0  0  0  0  0  0
    3.7274    1.1987   -0.1082 O   0  0  0  0  0  0  0  0  0  0  0  0
    3.7094   -1.1951    0.0890 O   0  0  0  0  0  0  0  0  0  0  0  0
    0.1118    1.6583   -4.7960 O   0  0  0  0  0  0  0  0  0  0  0  0
   -4.0199    3.8697   -3.4346 O   0  0  0  0  0  0  0  0  0  0  0  0
   -2.2156    3.1706   -5.4991 O   0  0  0  0  0  0  0  0  0  0  0  0
   -2.3726   -0.6359   -0.3620 C   0  0  1  0  0  0  0  0  0  0  0  0
   -2.4136    0.6710    0.3981 C   0  0  1  0  0  0  0  0  0  0  0  0
   -1.2458    1.5466   -0.1012 C   0  0  1  0  0  0  0  0  0  0  0  0
   -1.2352   -1.4806    0.1773 C   0  0  2  0  0  0  0  0  0  0  0  0
    0.0692    0.7483    0.0931 C   0  0  0  0  0  0  0  0  0  0  0  0
   -3.7608   -1.1937   -0.2199 C   0  0  0  0  0  0  0  0  0  0  0  0
    0.0681   -0.6849    0.1797 C   0  0  0  0  0  0  0  0  0  0  0  0
   -3.8617    1.0523    0.2460 C   0  0  0  0  0  0  0  0  0  0  0  0
   -1.4424    2.0147   -1.5448 C   0  0  0  0  0  0  0  0  0  0  0  0
    1.2988    1.4425    0.0417 C   0  0  0  0  0  0  0  0  0  0  0  0
    1.2915   -1.3777    0.2612 C   0  0  0  0  0  0  0  0  0  0  0  0
    2.4660    0.7077    0.0418 C   0  0  0  0  0  0  0  0  0  0  0  0
    2.4595   -0.6608    0.1515 C   0  0  0  0  0  0  0  0  0  0  0  0
   -2.5415    2.8259   -1.8418 C   0  0  0  0  0  0  0  0  0  0  0  0
   -0.6045    1.6481   -2.6043 C   0  0  0  0  0  0  0  0  0  0  0  0
   -0.8621    2.0676   -3.9133 C   0  0  0  0  0  0  0  0  0  0  0  0
   -2.8819    3.1761   -3.1416 C   0  0  0  0  0  0  0  0  0  0  0  0
   -2.0217    2.8212   -4.1921 C   0  0  0  0  0  0  0  0  0  0  0  0
    4.4583   -0.0298   -0.3113 C   0  0  0  0  0  0  0  0  0  0  0  0
   -0.0358    2.0678   -6.1483 C   0  0  0  0  0  0  0  0  0  0  0  0
   -4.9570    4.1760   -2.4172 C   0  0  0  0  0  0  0  0  0  0  0  0
   -3.3364    3.9432   -5.8714 C   0  0  0  0  0  0  0  0  0  0  0  0
   -2.2236   -0.4731   -1.4395 H   0  0  0  0  0  0  0  0  0  0  0  0
   -2.2904    0.5025    1.4783 H   0  0  0  0  0  0  0  0  0  0  0  0
   -0.2681   -2.7195   -0.9968 H   0  0  0  0  0  0  0  0  0  0  0  0
   -1.1811    2.4450    0.5290 H   0  0  0  0  0  0  0  0  0  0  0  0
   -1.4462   -1.7923    1.2074 H   0  0  0  0  0  0  0  0  0  0  0  0
   -3.8781   -1.8695    0.6306 H   0  0  0  0  0  0  0  0  0  0  0  0
   -4.0769   -1.7080   -1.1334 H   0  0  0  0  0  0  0  0  0  0  0  0
    1.3345    2.5197   -0.0932 H   0  0  0  0  0  0  0  0  0  0  0  0
    1.3385   -2.4585    0.3483 H   0  0  0  0  0  0  0  0  0  0  0  0
   -3.1547    3.1935   -1.0331 H   0  0  0  0  0  0  0  0  0  0  0  0
    0.2782    1.0320   -2.4436 H   0  0  0  0  0  0  0  0  0  0  0  0
    5.4003    0.0043    0.2460 H   0  0  0  0  0  0  0  0  0  0  0  0
    4.6887   -0.1219   -1.3812 H   0  0  0  0  0  0  0  0  0  0  0  0
   -0.9346    1.6186   -6.5850 H   0  0  0  0  0  0  0  0  0  0  0  0
   -0.0268    3.1613   -6.2284 H   0  0  0  0  0  0  0  0  0  0  0  0
    0.8136    1.7009   -6.7266 H   0  0  0  0  0  0  0  0  0  0  0  0
   -5.3899    3.2668   -1.9904 H   0  0  0  0  0  0  0  0  0  0  0  0
   -4.5092    4.8170   -1.6535 H   0  0  0  0  0  0  0  0  0  0  0  0
   -5.7641    4.7426   -2.8914 H   0  0  0  0  0  0  0  0  0  0  0  0
   -4.2578    3.3787   -5.7001 H   0  0  0  0  0  0  0  0  0  0  0  0
   -3.3256    4.9168   -5.3710 H   0  0  0  0  0  0  0  0  0  0  0  0
   -3.2632    4.1315   -6.9432 H   0  0  0  0  0  0  0  0  0  0  0  0
  1 14  1  0  0  0  0
  1 16  1  0  0  0  0
  2 33  1  0  0  0  0
  3 16  2  0  0  0  0
  4 20  1  0  0  0  0
  4 27  1  0  0  0  0
  5 21  1  0  0  0  0
  5 27  1  0  0  0  0
  6 24  1  0  0  0  0
  6 28  1  0  0  0  0
  7 25  1  0  0  0  0
  7 29  1  0  0  0  0
  8 26  1  0  0  0  0
  8 30  1  0  0  0  0
  9 10  1  0  0  0  0
  9 12  1  0  0  0  0
  9 14  1  0  0  0  0
  9 31  1  6  0  0  0
 10 11  1  0  0  0  0
 10 16  1  0  0  0  0
 10 32  1  1  0  0  0
 11 13  1  0  0  0  0
 11 34  1  1  0  0  0
 11 17  1  0  0  0  0
 12 15  1  0  0  0  0
 12 35  1  1  0  0  0
 12  2  1  0  0  0  0
 13 15  1  0  0  0  0
 13 18  2  0  0  0  0
 14 36  1  0  0  0  0
 14 37  1  0  0  0  0
 15 19  2  0  0  0  0
 17 22  2  0  0  0  0
 17 23  1  0  0  0  0
 18 20  1  0  0  0  0
 18 38  1  0  0  0  0
 19 21  1  0  0  0  0
 19 39  1  0  0  0  0
 20 21  2  0  0  0  0
 22 25  1  0  0  0  0
 22 40  1  0  0  0  0
 23 24  2  0  0  0  0
 23 41  1  0  0  0  0
 24 26  1  0  0  0  0
 25 26  2  0  0  0  0
 27 42  1  0  0  0  0
 27 43  1  0  0  0  0
 28 44  1  0  0  0  0
 28 45  1  0  0  0  0
 28 46  1  0  0  0  0
 29 47  1  0  0  0  0
 29 48  1  0  0  0  0
 29 49  1  0  0  0  0
 30 50  1  0  0  0  0
 30 51  1  0  0  0  0
 30 52  1  0  0  0  0
M  END
>  <DRUGBANK_ID>
DB01179

>  <SECONDARY_ACCESSION_NUMBERS>
APRD01189; DB08417

>  <COMMON_NAME>
Podofilox

>  <CAS_NUMBER>
518-28-5

>  <UNII>
L36H50F353

>  <SYNONYMS>
(âˆ’)-podophyllotoxin; Podofilox; Podophyllinic acid lactone; Podophyllotoxin; PPT

$$$$
