
 OpenBabel10282417183D

 67 66  0  0  0  0  0  0  0  0999 V2000
    0.9805   -0.1061    0.0213 O   0  0  0  0  0  0  0  0  0  0  0  0
    0.2237   -0.8321    1.0108 C   0  0  0  0  0  0  0  0  0  0  0  0
    0.2921   -2.3503    0.7882 C   0  0  3  0  0  0  0  0  0  0  0  0
    1.6094   -2.8430    0.8071 O   0  0  0  0  0  0  0  0  0  0  0  0
   -0.4139   -3.1342    1.8664 C   0  0  0  0  0  0  0  0  0  0  0  0
   -1.8123   -2.9851    1.7536 O   0  0  0  0  0  0  0  0  0  0  0  0
    2.3028    0.1396    0.1019 C   0  0  0  0  0  0  0  0  0  0  0  0
    3.1430   -0.6720    1.0601 C   0  0  0  0  0  0  0  0  0  0  0  0
    4.0192   -1.6942    0.2915 C   0  0  0  0  0  0  0  0  0  0  0  0
    5.0308   -0.9961   -0.5905 C   0  0  0  0  0  0  0  0  0  0  0  0
    5.9036   -0.1232    0.2894 C   0  0  0  0  0  0  0  0  0  0  0  0
    6.6166   -1.0125    1.3163 C   0  0  0  0  0  0  0  0  0  0  0  0
    7.4720   -2.0470    0.5768 C   0  0  0  0  0  0  0  0  0  0  0  0
    8.4619   -1.3086   -0.3281 C   0  0  0  0  0  0  0  0  0  0  0  0
    9.3332   -0.3904    0.5345 C   0  0  0  0  0  0  0  0  0  0  0  0
   10.0901   -1.2382    1.5603 C   0  0  0  0  0  0  0  0  0  0  0  0
   10.9646   -2.2562    0.8232 C   0  0  0  0  0  0  0  0  0  0  0  0
   11.9568   -1.5143   -0.0775 C   0  0  0  0  0  0  0  0  0  0  0  0
   12.8412   -0.6019    0.7775 C   0  0  0  0  0  0  0  0  0  0  0  0
   13.6095   -1.4408    1.8028 C   0  0  0  0  0  0  0  0  0  0  0  0
   14.4959   -2.4657    1.0865 C   0  0  0  0  0  0  0  0  0  0  0  0
   15.5257   -1.7637    0.1944 C   0  0  0  0  0  0  0  0  0  0  0  0
   16.4201   -0.8269    1.0075 C   0  0  0  0  0  0  0  0  0  0  0  0
   17.1791   -1.6067    2.0688 C   0  0  0  0  0  0  0  0  0  0  0  0
    2.8120    0.9567   -0.6723 O   0  0  0  0  0  0  0  0  0  0  0  0
    0.5153   -0.5086    2.0162 H   0  0  0  0  0  0  0  0  0  0  0  0
   -0.8126   -0.5097    0.8644 H   0  0  0  0  0  0  0  0  0  0  0  0
   -0.0912   -2.5782   -0.2113 H   0  0  0  0  0  0  0  0  0  0  0  0
    1.9315   -2.5226   -0.0455 H   0  0  0  0  0  0  0  0  0  0  0  0
   -0.1482   -4.1949    1.7737 H   0  0  0  0  0  0  0  0  0  0  0  0
   -0.0713   -2.8178    2.8594 H   0  0  0  0  0  0  0  0  0  0  0  0
   -2.0181   -2.0408    1.8407 H   0  0  0  0  0  0  0  0  0  0  0  0
    3.7346    0.0255    1.6602 H   0  0  0  0  0  0  0  0  0  0  0  0
    2.5582   -1.1417    1.8498 H   0  0  0  0  0  0  0  0  0  0  0  0
    4.4693   -2.3902    1.0114 H   0  0  0  0  0  0  0  0  0  0  0  0
    3.5266   -2.3607   -0.4136 H   0  0  0  0  0  0  0  0  0  0  0  0
    5.5974   -1.7466   -1.1537 H   0  0  0  0  0  0  0  0  0  0  0  0
    4.5389   -0.4219   -1.3769 H   0  0  0  0  0  0  0  0  0  0  0  0
    6.5860    0.4510   -0.3386 H   0  0  0  0  0  0  0  0  0  0  0  0
    5.3347    0.6543    0.7999 H   0  0  0  0  0  0  0  0  0  0  0  0
    7.1991   -0.3864    1.9957 H   0  0  0  0  0  0  0  0  0  0  0  0
    5.9306   -1.5248    1.9969 H   0  0  0  0  0  0  0  0  0  0  0  0
    7.9655   -2.7048    1.2970 H   0  0  0  0  0  0  0  0  0  0  0  0
    6.8754   -2.7460   -0.0164 H   0  0  0  0  0  0  0  0  0  0  0  0
    9.0457   -2.0277   -0.9073 H   0  0  0  0  0  0  0  0  0  0  0  0
    7.9652   -0.7237   -1.1068 H   0  0  0  0  0  0  0  0  0  0  0  0
    9.9985    0.1959   -0.1037 H   0  0  0  0  0  0  0  0  0  0  0  0
    8.7540    0.3814    1.0490 H   0  0  0  0  0  0  0  0  0  0  0  0
   10.6672   -0.5891    2.2235 H   0  0  0  0  0  0  0  0  0  0  0  0
    9.4211   -1.7577    2.2520 H   0  0  0  0  0  0  0  0  0  0  0  0
   11.4603   -2.9096    1.5452 H   0  0  0  0  0  0  0  0  0  0  0  0
   10.3763   -2.9578    0.2252 H   0  0  0  0  0  0  0  0  0  0  0  0
   12.5392   -2.2339   -0.6577 H   0  0  0  0  0  0  0  0  0  0  0  0
   11.4564   -0.9242   -0.8508 H   0  0  0  0  0  0  0  0  0  0  0  0
   13.5083   -0.0237    0.1333 H   0  0  0  0  0  0  0  0  0  0  0  0
   12.2603    0.1691    1.2934 H   0  0  0  0  0  0  0  0  0  0  0  0
   14.1853   -0.7842    2.4598 H   0  0  0  0  0  0  0  0  0  0  0  0
   12.9363   -1.9582    2.4941 H   0  0  0  0  0  0  0  0  0  0  0  0
   14.9763   -3.1154    1.8219 H   0  0  0  0  0  0  0  0  0  0  0  0
   13.9030   -3.1606    0.4823 H   0  0  0  0  0  0  0  0  0  0  0  0
   16.1300   -2.5124   -0.3264 H   0  0  0  0  0  0  0  0  0  0  0  0
   15.0299   -1.1935   -0.6011 H   0  0  0  0  0  0  0  0  0  0  0  0
   17.1181   -0.3145    0.3400 H   0  0  0  0  0  0  0  0  0  0  0  0
   15.8335   -0.0316    1.4830 H   0  0  0  0  0  0  0  0  0  0  0  0
   17.7928   -2.3775    1.5937 H   0  0  0  0  0  0  0  0  0  0  0  0
   17.8181   -0.9443    2.6533 H   0  0  0  0  0  0  0  0  0  0  0  0
   16.5063   -2.1018    2.7767 H   0  0  0  0  0  0  0  0  0  0  0  0
  1  2  1  0  0  0  0
  1  7  1  0  0  0  0
  2  3  1  0  0  0  0
  2 26  1  0  0  0  0
  2 27  1  0  0  0  0
  3  4  1  0  0  0  0
  3  5  1  0  0  0  0
  3 28  1  0  0  0  0
  4 29  1  0  0  0  0
  5  6  1  0  0  0  0
  5 30  1  0  0  0  0
  5 31  1  0  0  0  0
  6 32  1  0  0  0  0
  7  8  1  0  0  0  0
  7 25  2  0  0  0  0
  8  9  1  0  0  0  0
  8 33  1  0  0  0  0
  8 34  1  0  0  0  0
  9 10  1  0  0  0  0
  9 35  1  0  0  0  0
  9 36  1  0  0  0  0
 10 11  1  0  0  0  0
 10 37  1  0  0  0  0
 10 38  1  0  0  0  0
 11 12  1  0  0  0  0
 11 39  1  0  0  0  0
 11 40  1  0  0  0  0
 12 13  1  0  0  0  0
 12 41  1  0  0  0  0
 12 42  1  0  0  0  0
 13 14  1  0  0  0  0
 13 43  1  0  0  0  0
 13 44  1  0  0  0  0
 14 15  1  0  0  0  0
 14 45  1  0  0  0  0
 14 46  1  0  0  0  0
 15 16  1  0  0  0  0
 15 47  1  0  0  0  0
 15 48  1  0  0  0  0
 16 17  1  0  0  0  0
 16 49  1  0  0  0  0
 16 50  1  0  0  0  0
 17 18  1  0  0  0  0
 17 51  1  0  0  0  0
 17 52  1  0  0  0  0
 18 19  1  0  0  0  0
 18 53  1  0  0  0  0
 18 54  1  0  0  0  0
 19 20  1  0  0  0  0
 19 55  1  0  0  0  0
 19 56  1  0  0  0  0
 20 21  1  0  0  0  0
 20 57  1  0  0  0  0
 20 58  1  0  0  0  0
 21 22  1  0  0  0  0
 21 59  1  0  0  0  0
 21 60  1  0  0  0  0
 22 23  1  0  0  0  0
 22 61  1  0  0  0  0
 22 62  1  0  0  0  0
 23 24  1  0  0  0  0
 23 63  1  0  0  0  0
 23 64  1  0  0  0  0
 24 65  1  0  0  0  0
 24 66  1  0  0  0  0
 24 67  1  0  0  0  0
M  END
>  <DRUGBANK_ID>
DB11250

>  <SECONDARY_ACCESSION_NUMBERS>
DBSALT001566

>  <COMMON_NAME>
Glyceryl monostearate

>  <CAS_NUMBER>
31566-31-1

>  <UNII>
258491E1RZ

>  <SYNONYMS>
Geleol mono and diglycerides; Glycerin monostearate; Glycerol monostearate; Glyceroli monostearas; Glyceryl monooctadecanoate; Glyceryl monopalmitostearate; Glyceryl stearate; Monoglyceryl stearate; Monostearate (glyceride); Monostearin; Stearic acid, monoester with glycerol; Stearoylglycerol

$$$$
