
 OpenBabel10282417123D

 78 82  0  0  0  0  0  0  0  0999 V2000
    1.0290   -0.0744   -0.0602 P   0  0  0  0  0  0  0  0  0  0  0  0
    2.0039   -6.7783    0.6706 P   0  0  3  0  0  0  0  0  0  0  0  0
    1.3980   -4.0135    1.5983 P   0  0  3  0  0  0  0  0  0  0  0  0
    0.6000   -4.1233    2.8710 O   0  0  0  0  0  0  0  0  0  0  0  0
    0.8883   -1.1861    4.1535 O   0  0  0  0  0  0  0  0  0  0  0  0
    1.7898   -1.1941    0.4924 O   0  0  0  0  0  0  0  0  0  0  0  0
   -1.9023   -3.3019    1.2860 O   0  0  0  0  0  0  0  0  0  0  0  0
   -1.2577   -1.4443    1.0737 O   0  0  0  0  0  0  0  0  0  0  0  0
   -1.8681   -1.8769    3.2463 O   0  0  0  0  0  0  0  0  0  0  0  0
    0.7296   -6.6010   -0.3801 O   0  0  0  0  0  0  0  0  0  0  0  0
    2.2605   -4.4257    3.5014 O   0  0  0  0  0  0  0  0  0  0  0  0
    1.4693   -5.7330    1.7746 O   0  0  0  0  0  0  0  0  0  0  0  0
    1.0142    1.4788    0.3273 O   0  0  0  0  0  0  0  0  0  0  0  0
   -0.7010   -0.0744   -0.0602 O   0  0  0  0  0  0  0  0  0  0  0  0
    2.5773   -0.0744   -0.0602 O   0  0  0  0  0  0  0  0  0  0  0  0
    2.0514   -8.3307    0.4929 O   0  0  0  0  0  0  0  0  0  0  0  0
    1.8872   -4.6890    0.2769 O   0  0  0  0  0  0  0  0  0  0  0  0
    3.4229   -6.3270    0.4774 O   0  0  0  0  0  0  0  0  0  0  0  0
    1.3342   -2.4745    1.4405 O   0  0  0  0  0  0  0  0  0  0  0  0
    5.9417    1.0701    0.9708 O   0  0  0  0  0  0  0  0  0  0  0  0
    5.1637   -1.1677    3.9424 O   0  0  0  0  0  0  0  0  0  0  0  0
    3.6461   -3.6396    1.5094 N   0  0  0  0  0  0  0  0  0  0  0  0
    2.3055   -0.0828    2.4922 N   0  3  0  0  0  0  0  0  0  0  0  0
    5.7268   -3.5654    1.5794 N   0  0  0  0  0  0  0  0  0  0  0  0
    3.3566   -4.0894   -1.0688 N   0  0  0  0  0  0  0  0  0  0  0  0
    5.3848   -4.5949   -2.0071 N   0  0  0  0  0  0  0  0  0  0  0  0
    7.3695   -4.1481   -0.7743 N   0  0  0  0  0  0  0  0  0  0  0  0
    6.8335   -1.4752    2.4298 N   0  0  0  0  0  0  0  0  0  0  0  0
    1.7115   -2.8151    0.0545 C   0  0  2  0  0  0  0  0  0  0  0  0
   -0.3473   -3.3491    0.3376 C   0  0  1  0  0  0  0  0  0  0  0  0
    2.5069   -3.0731    2.2420 C   0  0  1  0  0  0  0  0  0  0  0  0
   -0.3895   -4.7124    1.1970 C   0  0  1  0  0  0  0  0  0  0  0  0
   -0.2073   -1.2871    1.9727 C   0  0  2  0  0  0  0  0  0  0  0  0
   -0.5514   -2.2778    2.9471 C   0  0  1  0  0  0  0  0  0  0  0  0
    0.8434   -0.5229    2.8498 C   0  0  1  0  0  0  0  0  0  0  0  0
    0.2310   -2.4383    4.1600 C   0  0  1  0  0  0  0  0  0  0  0  0
   -0.0543   -5.4135   -0.3916 C   0  0  0  0  0  0  0  0  0  0  0  0
    1.0867   -3.8092    4.5912 C   0  0  0  0  0  0  0  0  0  0  0  0
    4.0341   -3.7339    0.1157 C   0  0  0  0  0  0  0  0  0  0  0  0
    4.6689   -3.5471    2.3177 C   0  0  0  0  0  0  0  0  0  0  0  0
    3.3425   -0.7864    2.2731 C   0  0  0  0  0  0  0  0  0  0  0  0
    2.5717    1.2134    2.1811 C   0  0  0  0  0  0  0  0  0  0  0  0
    4.6473   -0.6639    1.6707 C   0  0  1  0  0  0  0  0  0  0  0  0
    5.3462   -3.8668    0.2857 C   0  0  0  0  0  0  0  0  0  0  0  0
    3.7319    1.6202    1.6484 C   0  0  0  0  0  0  0  0  0  0  0  0
    4.8535    0.7060    1.3713 C   0  0  0  0  0  0  0  0  0  0  0  0
    6.0188   -4.2191   -0.8543 C   0  0  0  0  0  0  0  0  0  0  0  0
    5.5848   -1.0994    2.7829 C   0  0  0  0  0  0  0  0  0  0  0  0
    4.0672   -4.5740   -2.0708 C   0  0  0  0  0  0  0  0  0  0  0  0
   -2.0230   -3.2154    2.3257 H   0  0  0  0  0  0  0  0  0  0  0  0
   -1.6145   -0.6787    0.6551 H   0  0  0  0  0  0  0  0  0  0  0  0
   -1.8889   -0.9400    2.9626 H   0  0  0  0  0  0  0  0  0  0  0  0
    1.8449    1.9426    0.0711 H   0  0  0  0  0  0  0  0  0  0  0  0
   -0.9512   -0.6116   -0.8569 H   0  0  0  0  0  0  0  0  0  0  0  0
    1.3929   -8.5987   -0.1731 H   0  0  0  0  0  0  0  0  0  0  0  0
    2.7664   -5.0038   -0.0434 H   0  0  0  0  0  0  0  0  0  0  0  0
    7.7829   -3.8939    0.1127 H   0  0  0  0  0  0  0  0  0  0  0  0
    7.9006   -4.4222   -1.5706 H   0  0  0  0  0  0  0  0  0  0  0  0
    7.0877   -1.6138    1.4566 H   0  0  0  0  0  0  0  0  0  0  0  0
    7.4420   -1.8919    3.1214 H   0  0  0  0  0  0  0  0  0  0  0  0
    1.8377   -2.3335   -0.8870 H   0  0  0  0  0  0  0  0  0  0  0  0
   -0.9739   -3.0425   -0.5161 H   0  0  0  0  0  0  0  0  0  0  0  0
    2.1557   -2.4897    3.1076 H   0  0  0  0  0  0  0  0  0  0  0  0
   -1.2557   -5.2448    1.5319 H   0  0  0  0  0  0  0  0  0  0  0  0
    0.1086   -1.5268    0.9952 H   0  0  0  0  0  0  0  0  0  0  0  0
   -0.6153   -3.2087    2.5165 H   0  0  0  0  0  0  0  0  0  0  0  0
    0.2619    0.3719    2.7987 H   0  0  0  0  0  0  0  0  0  0  0  0
   -0.6160   -2.5263    4.8149 H   0  0  0  0  0  0  0  0  0  0  0  0
   -1.0557   -5.4822   -0.8862 H   0  0  0  0  0  0  0  0  0  0  0  0
    0.4482   -4.7389   -1.1526 H   0  0  0  0  0  0  0  0  0  0  0  0
    0.3929   -4.6987    4.5618 H   0  0  0  0  0  0  0  0  0  0  0  0
    1.6046   -3.6412    5.4617 H   0  0  0  0  0  0  0  0  0  0  0  0
    4.3989   -3.1816    3.3162 H   0  0  0  0  0  0  0  0  0  0  0  0
    3.3167   -1.6983    2.6308 H   0  0  0  0  0  0  0  0  0  0  0  0
    1.6906    1.8204    2.2120 H   0  0  0  0  0  0  0  0  0  0  0  0
    4.6901   -1.2600    0.7316 H   0  0  0  0  0  0  0  0  0  0  0  0
    3.8797    2.6099    1.3204 H   0  0  0  0  0  0  0  0  0  0  0  0
    3.5319   -4.9249   -2.9696 H   0  0  0  0  0  0  0  0  0  0  0  0
  1  6  1  0  0  0  0
  1 13  1  0  0  0  0
  1 14  1  0  0  0  0
  1 15  2  0  0  0  0
  2 10  1  0  0  0  0
  2 12  1  0  0  0  0
  2 16  1  0  0  0  0
  2 18  2  0  0  0  0
  3 11  1  0  0  0  0
  3 12  1  0  0  0  0
  3 17  1  0  0  0  0
  3 19  2  0  0  0  0
  4 31  1  0  0  0  0
  4 32  1  0  0  0  0
  5 35  1  0  0  0  0
  5 36  1  0  0  0  0
  7 50  1  0  0  0  0
  8 51  1  0  0  0  0
  9 52  1  0  0  0  0
 10 37  1  0  0  0  0
 11 38  1  0  0  0  0
 13 53  1  0  0  0  0
 14 54  1  0  0  0  0
 16 55  1  0  0  0  0
 17 56  1  0  0  0  0
 20 46  2  0  0  0  0
 21 48  2  0  0  0  0
 22 39  1  0  0  0  0
 22 40  1  0  0  0  0
 23 41  2  0  0  0  0
 23 42  1  0  0  0  0
 24 40  2  0  0  0  0
 24 44  1  0  0  0  0
 25 39  2  0  0  0  0
 25 49  1  0  0  0  0
 26 47  1  0  0  0  0
 26 49  2  0  0  0  0
 27 47  1  0  0  0  0
 27 57  1  0  0  0  0
 27 58  1  0  0  0  0
 28 48  1  0  0  0  0
 28 59  1  0  0  0  0
 28 60  1  0  0  0  0
 29  6  1  0  0  0  0
 29 30  1  0  0  0  0
 29 31  1  0  0  0  0
 29 61  1  6  0  0  0
 30  7  1  0  0  0  0
 30 32  1  0  0  0  0
 30 62  1  6  0  0  0
 31 63  1  1  0  0  0
 31 22  1  0  0  0  0
 32 64  1  1  0  0  0
 32 37  1  0  0  0  0
 33 34  1  0  0  0  0
 33 35  1  0  0  0  0
 33 65  1  6  0  0  0
 33  8  1  0  0  0  0
 34  9  1  0  0  0  0
 34 36  1  0  0  0  0
 34 66  1  6  0  0  0
 35 67  1  1  0  0  0
 35 23  1  0  0  0  0
 36 38  1  0  0  0  0
 36 68  1  1  0  0  0
 37 69  1  0  0  0  0
 37 70  1  0  0  0  0
 38 71  1  0  0  0  0
 38 72  1  0  0  0  0
 39 44  1  0  0  0  0
 40 73  1  0  0  0  0
 41 43  1  0  0  0  0
 41 74  1  0  0  0  0
 42 45  2  0  0  0  0
 42 75  1  0  0  0  0
 43 46  1  0  0  0  0
 43 76  1  6  0  0  0
 43 48  1  0  0  0  0
 44 47  2  0  0  0  0
 45 46  1  0  0  0  0
 45 77  1  0  0  0  0
 49 78  1  0  0  0  0
M  CHG  1  23   1
M  END
>  <DRUGBANK_ID>
DB01753

>  <SECONDARY_ACCESSION_NUMBERS>
EXPT02418

>  <COMMON_NAME>
4-oxo-nicotinamide-adenine dinucleotide phosphate

$$$$
