
 OpenBabel10282417243D

 55 59  0  0  0  0  0  0  0  0999 V2000
    0.8388   -0.0991   -0.0627 C   0  0  0  0  0  0  0  0  0  0  0  0
    0.2245   -1.0634   -0.9295 O   0  0  0  0  0  0  0  0  0  0  0  0
    0.6421   -1.0227   -2.2292 C   0  0  0  0  0  0  0  0  0  0  0  0
    1.9040   -0.6309   -2.5841 C   0  0  0  0  0  0  0  0  0  0  0  0
    2.2181   -0.4396   -3.9128 C   0  0  0  0  0  0  0  0  0  0  0  0
    1.4616   -0.9486   -4.9439 C   0  0  0  0  0  0  0  0  0  0  0  0
    0.1942   -1.4282   -4.6084 C   0  0  0  0  0  0  0  0  0  0  0  0
   -0.2363   -1.3750   -3.2566 C   0  0  0  0  0  0  0  0  0  0  0  0
    2.0569   -0.8894   -6.6317 S   0  0  0  0  0  0  0  0  0  0  0  0
    2.1394   -2.2777   -7.0975 O   0  0  0  0  0  0  0  0  0  0  0  0
    1.2135    0.0463   -7.3197 O   0  0  0  0  0  0  0  0  0  0  0  0
    3.6584   -0.2275   -6.7543 N   0  0  0  0  0  0  0  0  0  0  0  0
    4.6630   -0.2067   -5.7044 C   0  0  0  0  0  0  0  0  0  0  0  0
    4.7090   -1.2678   -4.7637 C   0  0  0  0  0  0  0  0  0  0  0  0
    5.3538   -1.1164   -3.5058 C   0  0  0  0  0  0  0  0  0  0  0  0
    6.2795   -0.0788   -3.4358 C   0  0  0  0  0  0  0  0  0  0  0  0
    7.0621    0.1378   -2.3277 O   0  0  0  0  0  0  0  0  0  0  0  0
    6.5361    0.7490   -4.5487 C   0  0  0  0  0  0  0  0  0  0  0  0
    7.7592    1.4249   -4.6586 C   0  0  0  0  0  0  0  0  0  0  0  0
    8.0828    2.0484   -5.8460 C   0  0  0  0  0  0  0  0  0  0  0  0
    7.0717    2.8970   -6.1465 C   0  0  0  0  0  0  0  0  0  0  0  0
    5.8414    2.1934   -6.2800 C   0  0  0  0  0  0  0  0  0  0  0  0
    5.6189    0.9015   -5.5927 C   0  0  0  0  0  0  0  0  0  0  0  0
    5.1881   -2.1129   -2.3967 C   0  0  0  0  0  0  0  0  0  0  0  0
    5.4392   -3.4750   -2.7278 C   0  0  0  0  0  0  0  0  0  0  0  0
    5.6793   -3.9822   -3.9810 O   0  0  0  0  0  0  0  0  0  0  0  0
    5.5195   -4.4425   -1.7464 C   0  0  0  0  0  0  0  0  0  0  0  0
    5.4604   -4.0721   -0.4141 C   0  0  0  0  0  0  0  0  0  0  0  0
    5.3621   -2.7266   -0.0371 C   0  0  0  0  0  0  0  0  0  0  0  0
    5.7267   -2.3558    1.2686 C   0  0  0  0  0  0  0  0  0  0  0  0
    5.9016   -1.0191    1.5944 C   0  0  0  0  0  0  0  0  0  0  0  0
    4.7897   -0.3478    1.2274 C   0  0  0  0  0  0  0  0  0  0  0  0
    4.5666   -0.5133   -0.1687 C   0  0  0  0  0  0  0  0  0  0  0  0
    5.0047   -1.7227   -0.9396 C   0  0  0  0  0  0  0  0  0  0  0  0
    0.4982   -0.2843    0.9587 H   0  0  0  0  0  0  0  0  0  0  0  0
    0.5485    0.9156   -0.3549 H   0  0  0  0  0  0  0  0  0  0  0  0
    1.9274   -0.1704   -0.0234 H   0  0  0  0  0  0  0  0  0  0  0  0
    2.6660   -0.3971   -1.8672 H   0  0  0  0  0  0  0  0  0  0  0  0
    3.0999    0.1414   -4.0803 H   0  0  0  0  0  0  0  0  0  0  0  0
   -0.4914   -1.7831   -5.3746 H   0  0  0  0  0  0  0  0  0  0  0  0
   -1.2743   -1.5750   -3.0075 H   0  0  0  0  0  0  0  0  0  0  0  0
    4.0398   -0.4747   -7.6758 H   0  0  0  0  0  0  0  0  0  0  0  0
    4.0517   -2.1296   -4.9067 H   0  0  0  0  0  0  0  0  0  0  0  0
    6.8866   -0.5298   -1.6477 H   0  0  0  0  0  0  0  0  0  0  0  0
    8.4019    1.5324   -3.7946 H   0  0  0  0  0  0  0  0  0  0  0  0
    8.1535    1.3601   -6.7252 H   0  0  0  0  0  0  0  0  0  0  0  0
    7.2008    3.8384   -5.5776 H   0  0  0  0  0  0  0  0  0  0  0  0
    5.1439    2.5473   -7.0342 H   0  0  0  0  0  0  0  0  0  0  0  0
    5.6980   -3.3047   -4.6696 H   0  0  0  0  0  0  0  0  0  0  0  0
    5.7365   -5.4717   -2.0235 H   0  0  0  0  0  0  0  0  0  0  0  0
    5.5895   -4.8450    0.3380 H   0  0  0  0  0  0  0  0  0  0  0  0
    5.7832   -3.1002    2.0526 H   0  0  0  0  0  0  0  0  0  0  0  0
    6.7294   -0.5016    1.0479 H   0  0  0  0  0  0  0  0  0  0  0  0
    4.0145   -0.4638    2.0117 H   0  0  0  0  0  0  0  0  0  0  0  0
    4.2115    0.3715   -0.6917 H   0  0  0  0  0  0  0  0  0  0  0  0
  1  2  1  0  0  0  0
  1 35  1  0  0  0  0
  1 36  1  0  0  0  0
  1 37  1  0  0  0  0
  2  3  1  0  0  0  0
  3  4  2  0  0  0  0
  3  8  1  0  0  0  0
  4  5  1  0  0  0  0
  4 38  1  0  0  0  0
  5  6  2  0  0  0  0
  5 39  1  0  0  0  0
  6  7  1  0  0  0  0
  6  9  1  0  0  0  0
  7  8  2  0  0  0  0
  7 40  1  0  0  0  0
  8 41  1  0  0  0  0
  9 10  2  0  0  0  0
  9 11  2  0  0  0  0
  9 12  1  0  0  0  0
 12 13  1  0  0  0  0
 12 42  1  0  0  0  0
 13 14  2  0  0  0  0
 13 23  1  0  0  0  0
 14 15  1  0  0  0  0
 14 43  1  0  0  0  0
 15 16  2  0  0  0  0
 15 24  1  0  0  0  0
 16 17  1  0  0  0  0
 16 18  1  0  0  0  0
 17 44  1  0  0  0  0
 18 19  2  0  0  0  0
 18 23  1  0  0  0  0
 19 20  1  0  0  0  0
 19 45  1  0  0  0  0
 20 21  2  0  0  0  0
 20 46  1  0  0  0  0
 21 22  1  0  0  0  0
 21 47  1  0  0  0  0
 22 23  2  0  0  0  0
 22 48  1  0  0  0  0
 24 25  2  0  0  0  0
 24 34  1  0  0  0  0
 25 26  1  0  0  0  0
 25 27  1  0  0  0  0
 26 49  1  0  0  0  0
 27 28  2  0  0  0  0
 27 50  1  0  0  0  0
 28 29  1  0  0  0  0
 28 51  1  0  0  0  0
 29 30  2  0  0  0  0
 29 34  1  0  0  0  0
 30 31  1  0  0  0  0
 30 52  1  0  0  0  0
 31 32  2  0  0  0  0
 31 53  1  0  0  0  0
 32 33  1  0  0  0  0
 32 54  1  0  0  0  0
 33 34  2  0  0  0  0
 33 55  1  0  0  0  0
M  END
>  <DRUGBANK_ID>
DB17578

>  <COMMON_NAME>
TTI-101

>  <CAS_NUMBER>
432001-19-9

>  <UNII>
KZ3DLD11RQ

>  <SYNONYMS>
Benzenesulfonamide, n-(1',2-dihydroxy(1,2'-binaphthalen)-4'-yl)-4-methoxy-; Stat3 inhibitor c188-9; Stat3 inhibitor tti-101

$$$$
