
 OpenBabel10282417223D

 65 69  0  0  0  0  0  0  0  0999 V2000
   -1.9065   -0.0096   -0.0224 C   0  0  0  0  0  0  0  0  0  0  0  0
   -0.4674   -0.0190   -0.0579 C   0  0  0  0  0  0  0  0  0  0  0  0
    0.2304   -1.2352   -0.0784 C   0  0  0  0  0  0  0  0  0  0  0  0
    1.6319   -1.2412   -0.0327 C   0  0  0  0  0  0  0  0  0  0  0  0
    2.3315   -0.0325    0.0482 C   0  0  0  0  0  0  0  0  0  0  0  0
    1.6343    1.1803    0.0198 C   0  0  0  0  0  0  0  0  0  0  0  0
    0.2382    1.1891   -0.0371 C   0  0  0  0  0  0  0  0  0  0  0  0
   -3.0592    0.0003    0.0383 N   0  0  0  0  0  0  0  0  0  0  0  0
    2.3530   -2.5441   -0.0303 C   0  0  0  0  0  0  0  0  0  0  0  0
    3.0978   -2.8302    1.2150 C   0  0  0  0  0  0  0  0  0  0  0  0
    3.3155   -4.1201    1.4571 C   0  0  0  0  0  0  0  0  0  0  0  0
    3.2591   -5.0941    0.3623 C   0  0  0  0  0  0  0  0  0  0  0  0
    2.8758   -4.6087   -0.8816 N   0  0  0  0  0  0  0  0  0  0  0  0
    2.2512   -3.3653   -1.0337 N   0  0  0  0  0  0  0  0  0  0  0  0
    3.6290   -6.2327    0.6302 O   0  0  0  0  0  0  0  0  0  0  0  0
    3.0212   -5.4660   -2.0710 C   0  0  0  0  0  0  0  0  0  0  0  0
    4.4796   -5.6867   -2.4626 C   0  0  0  0  0  0  0  0  0  0  0  0
    5.3962   -6.3240   -1.6002 C   0  0  0  0  0  0  0  0  0  0  0  0
    6.7839   -6.2167   -1.7603 C   0  0  0  0  0  0  0  0  0  0  0  0
    7.2368   -5.7424   -2.9878 C   0  0  0  0  0  0  0  0  0  0  0  0
    6.3297   -5.3474   -3.9767 C   0  0  0  0  0  0  0  0  0  0  0  0
    4.9689   -5.2279   -3.6841 C   0  0  0  0  0  0  0  0  0  0  0  0
    7.7087   -6.5775   -0.6797 C   0  0  0  0  0  0  0  0  0  0  0  0
    7.6866   -7.8464   -0.2515 N   0  0  0  0  0  0  0  0  0  0  0  0
    8.5708   -8.1518    0.7168 C   0  0  0  0  0  0  0  0  0  0  0  0
    9.4194   -7.2527    1.3311 C   0  0  0  0  0  0  0  0  0  0  0  0
    9.3568   -5.9812    0.8141 C   0  0  0  0  0  0  0  0  0  0  0  0
    8.5318   -5.6177   -0.1965 N   0  0  0  0  0  0  0  0  0  0  0  0
   10.2626   -7.4824    2.3725 O   0  0  0  0  0  0  0  0  0  0  0  0
   10.2463   -8.8033    2.9216 C   0  0  0  0  0  0  0  0  0  0  0  0
    9.4746   -9.9942    6.2864 N   0  0  0  0  0  0  0  0  0  0  0  0
    9.5475   -8.5697    5.9275 C   0  0  0  0  0  0  0  0  0  0  0  0
    8.6057   -8.2489    4.7790 C   0  0  0  0  0  0  0  0  0  0  0  0
    8.8926   -9.1517    3.5855 C   0  0  0  0  0  0  0  0  0  0  0  0
    8.8400  -10.6197    3.9888 C   0  0  0  0  0  0  0  0  0  0  0  0
    9.7800  -10.8818    5.1548 C   0  0  0  0  0  0  0  0  0  0  0  0
   10.4073  -10.2616    7.3769 C   0  0  0  0  0  0  0  0  0  0  0  0
   -0.3167   -2.1758   -0.1107 H   0  0  0  0  0  0  0  0  0  0  0  0
    3.4169   -0.0227    0.1099 H   0  0  0  0  0  0  0  0  0  0  0  0
    2.1774    2.1233    0.0391 H   0  0  0  0  0  0  0  0  0  0  0  0
   -0.2912    2.1420   -0.0568 H   0  0  0  0  0  0  0  0  0  0  0  0
    3.3192   -2.0640    1.9411 H   0  0  0  0  0  0  0  0  0  0  0  0
    3.6696   -4.5166    2.3984 H   0  0  0  0  0  0  0  0  0  0  0  0
    2.5378   -6.4302   -1.8825 H   0  0  0  0  0  0  0  0  0  0  0  0
    2.4798   -4.9854   -2.8985 H   0  0  0  0  0  0  0  0  0  0  0  0
    5.0511   -6.8976   -0.7481 H   0  0  0  0  0  0  0  0  0  0  0  0
    8.3052   -5.7086   -3.1810 H   0  0  0  0  0  0  0  0  0  0  0  0
    6.6934   -5.1016   -4.9689 H   0  0  0  0  0  0  0  0  0  0  0  0
    4.2990   -4.7825   -4.4160 H   0  0  0  0  0  0  0  0  0  0  0  0
    8.5387   -9.2004    0.9890 H   0  0  0  0  0  0  0  0  0  0  0  0
    9.9943   -5.1942    1.2096 H   0  0  0  0  0  0  0  0  0  0  0  0
   10.5426   -9.5316    2.1568 H   0  0  0  0  0  0  0  0  0  0  0  0
   11.0593   -8.8298    3.6577 H   0  0  0  0  0  0  0  0  0  0  0  0
    9.2663   -7.9441    6.7815 H   0  0  0  0  0  0  0  0  0  0  0  0
   10.5735   -8.2915    5.6586 H   0  0  0  0  0  0  0  0  0  0  0  0
    7.5644   -8.3980    5.0935 H   0  0  0  0  0  0  0  0  0  0  0  0
    8.6963   -7.1949    4.4914 H   0  0  0  0  0  0  0  0  0  0  0  0
    8.0533   -8.9878    2.9122 H   0  0  0  0  0  0  0  0  0  0  0  0
    7.8100  -10.8788    4.2678 H   0  0  0  0  0  0  0  0  0  0  0  0
    9.1000  -11.2580    3.1348 H   0  0  0  0  0  0  0  0  0  0  0  0
   10.8175  -10.7465    4.8250 H   0  0  0  0  0  0  0  0  0  0  0  0
    9.6738  -11.9312    5.4518 H   0  0  0  0  0  0  0  0  0  0  0  0
   10.3229  -11.3023    7.7035 H   0  0  0  0  0  0  0  0  0  0  0  0
   11.4428  -10.0724    7.0716 H   0  0  0  0  0  0  0  0  0  0  0  0
   10.1768   -9.6284    8.2390 H   0  0  0  0  0  0  0  0  0  0  0  0
  1  2  1  0  0  0  0
  1  8  3  0  0  0  0
  2  3  1  0  0  0  0
  2  7  2  0  0  0  0
  3  4  2  0  0  0  0
  3 38  1  0  0  0  0
  4  5  1  0  0  0  0
  4  9  1  0  0  0  0
  5  6  2  0  0  0  0
  5 39  1  0  0  0  0
  6  7  1  0  0  0  0
  6 40  1  0  0  0  0
  7 41  1  0  0  0  0
  9 10  1  0  0  0  0
  9 14  2  0  0  0  0
 10 11  2  0  0  0  0
 10 42  1  0  0  0  0
 11 12  1  0  0  0  0
 11 43  1  0  0  0  0
 12 13  1  0  0  0  0
 12 15  2  0  0  0  0
 13 14  1  0  0  0  0
 13 16  1  0  0  0  0
 16 17  1  0  0  0  0
 16 44  1  0  0  0  0
 16 45  1  0  0  0  0
 17 18  1  0  0  0  0
 17 22  2  0  0  0  0
 18 19  2  0  0  0  0
 18 46  1  0  0  0  0
 19 20  1  0  0  0  0
 19 23  1  0  0  0  0
 20 21  2  0  0  0  0
 20 47  1  0  0  0  0
 21 22  1  0  0  0  0
 21 48  1  0  0  0  0
 22 49  1  0  0  0  0
 23 24  1  0  0  0  0
 23 28  2  0  0  0  0
 24 25  2  0  0  0  0
 25 26  1  0  0  0  0
 25 50  1  0  0  0  0
 26 27  2  0  0  0  0
 26 29  1  0  0  0  0
 27 28  1  0  0  0  0
 27 51  1  0  0  0  0
 29 30  1  0  0  0  0
 30 34  1  0  0  0  0
 30 52  1  0  0  0  0
 30 53  1  0  0  0  0
 31 32  1  0  0  0  0
 31 36  1  0  0  0  0
 31 37  1  0  0  0  0
 32 33  1  0  0  0  0
 32 54  1  0  0  0  0
 32 55  1  0  0  0  0
 33 34  1  0  0  0  0
 33 56  1  0  0  0  0
 33 57  1  0  0  0  0
 34 35  1  0  0  0  0
 34 58  1  0  0  0  0
 35 36  1  0  0  0  0
 35 59  1  0  0  0  0
 35 60  1  0  0  0  0
 36 61  1  0  0  0  0
 36 62  1  0  0  0  0
 37 63  1  0  0  0  0
 37 64  1  0  0  0  0
 37 65  1  0  0  0  0
M  END
>  <DRUGBANK_ID>
DB15133

>  <COMMON_NAME>
Tepotinib

>  <CAS_NUMBER>
1100598-32-0

>  <UNII>
1IJV77EI07

>  <SYNONYMS>
Tepotinib

$$$$
