
 OpenBabel10282417133D

 19 19  0  0  0  0  0  0  0  0999 V2000
    2.7879   -0.1811   -1.2820 F   0  0  0  0  0  0  0  0  0  0  0  0
    2.6753   -1.2788    0.6530 O   0  0  0  0  0  0  0  0  0  0  0  0
    2.9216    2.4209    2.6887 O   0  0  0  0  0  0  0  0  0  0  0  0
    2.1548    2.3550   -0.0543 O   0  0  0  0  0  0  0  0  0  0  0  0
    2.7717   -0.0683    4.1768 O   0  0  0  0  0  0  0  0  0  0  0  0
    1.0173   -1.3933    2.1825 O   0  5  0  0  0  0  0  0  0  0  0  0
    2.3570    1.2220    2.1122 C   0  0  1  0  0  0  0  0  0  0  0  0
    2.6980    1.1951    0.6151 C   0  0  1  0  0  0  0  0  0  0  0  0
    2.9118   -0.0629    2.7521 C   0  0  2  0  0  0  0  0  0  0  0  0
    2.2239   -0.1136   -0.0330 C   0  0  1  0  0  0  0  0  0  0  0  0
    2.3304   -1.3313    2.0484 C   0  0  3  0  0  0  0  0  0  0  0  0
    1.1396   -0.1257   -0.1834 H   0  0  0  0  0  0  0  0  0  0  0  0
    3.8293    2.1914    2.9476 H   0  0  0  0  0  0  0  0  0  0  0  0
    1.4756    2.7155    0.5428 H   0  0  0  0  0  0  0  0  0  0  0  0
    2.6748   -1.0117    4.4003 H   0  0  0  0  0  0  0  0  0  0  0  0
    1.2754    1.3163    2.2670 H   0  0  0  0  0  0  0  0  0  0  0  0
    3.7871    1.2749    0.5020 H   0  0  0  0  0  0  0  0  0  0  0  0
    3.9967   -0.0688    2.5858 H   0  0  0  0  0  0  0  0  0  0  0  0
    2.9160   -2.1731    2.4379 H   0  0  0  0  0  0  0  0  0  0  0  0
  2 10  1  0  0  0  0
  2 11  1  0  0  0  0
  3 13  1  0  0  0  0
  4 14  1  0  0  0  0
  5 15  1  0  0  0  0
  6 11  1  0  0  0  0
  7  3  1  0  0  0  0
  7  8  1  0  0  0  0
  7  9  1  0  0  0  0
  7 16  1  1  0  0  0
  8 10  1  0  0  0  0
  8 17  1  6  0  0  0
  8  4  1  0  0  0  0
  9 11  1  0  0  0  0
  9 18  1  6  0  0  0
  9  5  1  0  0  0  0
 10 12  1  6  0  0  0
 10  1  1  0  0  0  0
 11 19  1  0  0  0  0
M  CHG  1   6  -1
M  END
>  <DRUGBANK_ID>
DB03586

>  <SECONDARY_ACCESSION_NUMBERS>
EXPT03266

>  <COMMON_NAME>
(3R,4R,5S,6R)-6-Fluoro-3,4,5-trihydroxytetrahydro-2H-pyran-2-olate

$$$$
