
 OpenBabel10282417163D

 30 32  0  0  0  0  0  0  0  0999 V2000
    0.9532   -0.0256   -0.0699 C   0  0  0  0  0  0  0  0  0  0  0  0
    1.0850   -2.5312   -0.0898 C   0  0  0  0  0  0  0  0  0  0  0  0
   -0.5229   -1.4326   -1.5399 C   0  0  0  0  0  0  0  0  0  0  0  0
    1.4984   -7.5086   -0.1691 C   0  0  0  0  0  0  0  0  0  0  0  0
    0.0824   -8.7891   -1.6713 C   0  0  0  0  0  0  0  0  0  0  0  0
    0.4955   -1.3559   -0.5827 C   0  0  0  0  0  0  0  0  0  0  0  0
    1.0765   -8.7271   -0.7003 C   0  0  0  0  0  0  0  0  0  0  0  0
    0.6856   -3.7791   -0.5813 C   0  0  0  0  0  0  0  0  0  0  0  0
    0.9030   -6.3227   -0.6270 C   0  0  0  0  0  0  0  0  0  0  0  0
   -0.9180   -2.6693   -2.0262 C   0  0  0  0  0  0  0  0  0  0  0  0
   -0.5018   -7.6162   -2.1211 C   0  0  0  0  0  0  0  0  0  0  0  0
   -0.3130   -3.8440   -1.5541 C   0  0  0  0  0  0  0  0  0  0  0  0
   -0.0964   -6.3784   -1.6029 C   0  0  0  0  0  0  0  0  0  0  0  0
    1.3304   -5.0153   -0.0794 C   0  0  0  0  0  0  0  0  0  0  0  0
   -0.7282   -5.1446   -2.0907 C   0  0  0  0  0  0  0  0  0  0  0  0
    1.6133   -9.9136   -0.2971 O   0  0  0  0  0  0  0  0  0  0  0  0
   -1.8970   -2.7304   -2.9757 O   0  0  0  0  0  0  0  0  0  0  0  0
   -1.4773   -7.6754   -3.0737 O   0  0  0  0  0  0  0  0  0  0  0  0
    2.2092   -4.9600    0.7768 O   0  0  0  0  0  0  0  0  0  0  0  0
   -1.6036   -5.1997   -2.9510 O   0  0  0  0  0  0  0  0  0  0  0  0
    0.5772    0.1348    0.9441 H   0  0  0  0  0  0  0  0  0  0  0  0
    0.5979    0.7872   -0.7115 H   0  0  0  0  0  0  0  0  0  0  0  0
    2.0469    0.0118   -0.0656 H   0  0  0  0  0  0  0  0  0  0  0  0
    1.8653   -2.4666    0.6689 H   0  0  0  0  0  0  0  0  0  0  0  0
   -0.9979   -0.5303   -1.9142 H   0  0  0  0  0  0  0  0  0  0  0  0
    2.2768   -7.4700    0.5901 H   0  0  0  0  0  0  0  0  0  0  0  0
   -0.2293   -9.7485   -2.0691 H   0  0  0  0  0  0  0  0  0  0  0  0
    2.2919   -9.7493    0.3783 H   0  0  0  0  0  0  0  0  0  0  0  0
   -2.2345   -1.8631   -3.2332 H   0  0  0  0  0  0  0  0  0  0  0  0
   -1.6781   -8.5766   -3.3563 H   0  0  0  0  0  0  0  0  0  0  0  0
  1 21  1  0  0  0  0
  1 22  1  0  0  0  0
  1 23  1  0  0  0  0
  2 24  1  0  0  0  0
  3 25  1  0  0  0  0
  4 26  1  0  0  0  0
  5 27  1  0  0  0  0
  6  1  1  0  0  0  0
  6  2  2  0  0  0  0
  6  3  1  0  0  0  0
  7  4  2  0  0  0  0
  7  5  1  0  0  0  0
  8  2  1  0  0  0  0
  9  4  1  0  0  0  0
 10  3  2  0  0  0  0
 11  5  2  0  0  0  0
 12  8  2  0  0  0  0
 12 10  1  0  0  0  0
 13  9  2  0  0  0  0
 13 11  1  0  0  0  0
 14  8  1  0  0  0  0
 14  9  1  0  0  0  0
 15 12  1  0  0  0  0
 15 13  1  0  0  0  0
 16  7  1  0  0  0  0
 16 28  1  0  0  0  0
 17 10  1  0  0  0  0
 17 29  1  0  0  0  0
 18 11  1  0  0  0  0
 18 30  1  0  0  0  0
 19 14  2  0  0  0  0
 20 15  2  0  0  0  0
M  END
>  <DRUGBANK_ID>
DB07715

>  <SECONDARY_ACCESSION_NUMBERS>
DB12653

>  <COMMON_NAME>
Emodin

>  <CAS_NUMBER>
518-82-1

>  <UNII>
KA46RNI6HN

>  <SYNONYMS>
1,3,8-trihydroxy-6-methyl-9,10-anthracenedione; 1,3,8-trihydroxy-6-methyl-9,10-anthraquinone; Schuttgelb

$$$$
