
 OpenBabel10282417193D

 50 53  0  0  0  0  0  0  0  0999 V2000
   -0.3972    1.9039   -0.1614 N   0  0  0  0  0  0  0  0  0  0  0  0
    0.2324    2.8195   -0.9811 C   0  0  0  0  0  0  0  0  0  0  0  0
    1.4519    2.9853   -1.0258 O   0  0  0  0  0  0  0  0  0  0  0  0
   -0.5384    3.5851   -1.8047 N   0  0  0  0  0  0  0  0  0  0  0  0
   -1.9222    3.5546   -1.9666 C   0  0  0  0  0  0  0  0  0  0  0  0
   -2.7606    3.4924   -0.8545 C   0  0  0  0  0  0  0  0  0  0  0  0
   -4.1361    3.3935   -1.0151 C   0  0  0  0  0  0  0  0  0  0  0  0
   -4.6878    3.4077   -2.2961 C   0  0  0  0  0  0  0  0  0  0  0  0
   -3.8509    3.4861   -3.4161 C   0  0  0  0  0  0  0  0  0  0  0  0
   -2.4644    3.5822   -3.2526 C   0  0  0  0  0  0  0  0  0  0  0  0
   -6.1163    3.4025   -2.4431 C   0  0  0  0  0  0  0  0  0  0  0  0
   -7.2667    3.4327   -2.5340 N   0  0  0  0  0  0  0  0  0  0  0  0
    0.3446    1.1347    0.8346 C   0  0  1  0  0  0  0  0  0  0  0  0
    1.1017    2.1403    1.6978 C   0  0  0  0  0  0  0  0  0  0  0  0
    2.0077    1.4644    2.6984 C   0  0  1  0  0  0  0  0  0  0  0  0
    1.1727    0.6630    3.6190 N   0  0  0  0  0  0  0  0  0  0  0  0
    0.4140   -0.3724    2.8850 C   0  0  0  0  0  0  0  0  0  0  0  0
   -0.4881    0.2393    1.7848 C   0  0  0  0  0  0  0  0  0  0  0  0
    2.0340    0.0823    4.6585 C   0  0  0  0  0  0  0  0  0  0  0  0
    3.0607    0.6487    1.9875 C   0  0  0  0  0  0  0  0  0  0  0  0
    3.9370    1.1558    1.0630 N   0  0  0  0  0  0  0  0  0  0  0  0
    4.6862    0.1075    0.5902 C   0  0  0  0  0  0  0  0  0  0  0  0
    4.2151   -1.0034    1.2714 C   0  0  0  0  0  0  0  0  0  0  0  0
    3.2155   -0.6548    2.1013 N   0  0  0  0  0  0  0  0  0  0  0  0
    4.7614   -2.2697    1.0652 C   0  0  0  0  0  0  0  0  0  0  0  0
    5.8075   -2.3733    0.1542 C   0  0  0  0  0  0  0  0  0  0  0  0
    6.2626   -1.2457   -0.5401 C   0  0  0  0  0  0  0  0  0  0  0  0
    5.7073    0.0268   -0.3453 C   0  0  0  0  0  0  0  0  0  0  0  0
   -1.3738    1.6975   -0.2924 H   0  0  0  0  0  0  0  0  0  0  0  0
    0.0184    4.1401   -2.4455 H   0  0  0  0  0  0  0  0  0  0  0  0
   -2.3487    3.5503    0.1507 H   0  0  0  0  0  0  0  0  0  0  0  0
   -4.7644    3.3249   -0.1307 H   0  0  0  0  0  0  0  0  0  0  0  0
   -4.2732    3.4703   -4.4193 H   0  0  0  0  0  0  0  0  0  0  0  0
   -1.8255    3.6159   -4.1333 H   0  0  0  0  0  0  0  0  0  0  0  0
    1.0081    0.4767    0.2581 H   0  0  0  0  0  0  0  0  0  0  0  0
    0.3732    2.8001    2.1895 H   0  0  0  0  0  0  0  0  0  0  0  0
    1.7290    2.8037    1.1050 H   0  0  0  0  0  0  0  0  0  0  0  0
    2.4972    2.2695    3.2613 H   0  0  0  0  0  0  0  0  0  0  0  0
    1.0616   -1.1143    2.4090 H   0  0  0  0  0  0  0  0  0  0  0  0
   -0.1951   -0.9477    3.5909 H   0  0  0  0  0  0  0  0  0  0  0  0
   -1.2902    0.8151    2.2629 H   0  0  0  0  0  0  0  0  0  0  0  0
   -0.9719   -0.5773    1.2329 H   0  0  0  0  0  0  0  0  0  0  0  0
    1.4496   -0.4802    5.3874 H   0  0  0  0  0  0  0  0  0  0  0  0
    2.7988   -0.6022    4.2839 H   0  0  0  0  0  0  0  0  0  0  0  0
    2.5645    0.8801    5.1931 H   0  0  0  0  0  0  0  0  0  0  0  0
    3.9897    2.1188    0.7598 H   0  0  0  0  0  0  0  0  0  0  0  0
    4.3799   -3.1252    1.6121 H   0  0  0  0  0  0  0  0  0  0  0  0
    6.2676   -3.3427   -0.0105 H   0  0  0  0  0  0  0  0  0  0  0  0
    7.0754   -1.3593   -1.2510 H   0  0  0  0  0  0  0  0  0  0  0  0
    6.0584    0.8982   -0.8822 H   0  0  0  0  0  0  0  0  0  0  0  0
  1  2  1  0  0  0  0
  1 29  1  0  0  0  0
  2  3  2  0  0  0  0
  2  4  1  0  0  0  0
  4  5  1  0  0  0  0
  4 30  1  0  0  0  0
  5  6  1  0  0  0  0
  5 10  2  0  0  0  0
  6  7  2  0  0  0  0
  6 31  1  0  0  0  0
  7  8  1  0  0  0  0
  7 32  1  0  0  0  0
  8  9  2  0  0  0  0
  8 11  1  0  0  0  0
  9 10  1  0  0  0  0
  9 33  1  0  0  0  0
 10 34  1  0  0  0  0
 11 12  3  0  0  0  0
 13 18  1  0  0  0  0
 13 35  1  6  0  0  0
 13  1  1  0  0  0  0
 14 13  1  0  0  0  0
 14 36  1  0  0  0  0
 14 37  1  0  0  0  0
 15 14  1  0  0  0  0
 15 38  1  1  0  0  0
 15 20  1  0  0  0  0
 16 15  1  0  0  0  0
 16 17  1  0  0  0  0
 16 19  1  0  0  0  0
 17 39  1  0  0  0  0
 17 40  1  0  0  0  0
 18 17  1  0  0  0  0
 18 41  1  0  0  0  0
 18 42  1  0  0  0  0
 19 43  1  0  0  0  0
 19 44  1  0  0  0  0
 19 45  1  0  0  0  0
 20 21  1  0  0  0  0
 20 24  2  0  0  0  0
 21 22  1  0  0  0  0
 21 46  1  0  0  0  0
 22 23  1  0  0  0  0
 22 28  2  0  0  0  0
 23 24  1  0  0  0  0
 23 25  2  0  0  0  0
 25 26  1  0  0  0  0
 25 47  1  0  0  0  0
 26 27  2  0  0  0  0
 26 48  1  0  0  0  0
 27 28  1  0  0  0  0
 27 49  1  0  0  0  0
 28 50  1  0  0  0  0
M  END
>  <DRUGBANK_ID>
DB11978

>  <COMMON_NAME>
Glasdegib

>  <CAS_NUMBER>
1095173-27-5

>  <UNII>
K673DMO5H9

>  <SYNONYMS>
Glasdegib

$$$$
