
 OpenBabel10282417203D

 22 22  0  0  0  0  0  0  0  0999 V2000
    0.6725    0.0254    0.1381 C   0  0  0  0  0  0  0  0  0  0  0  0
    0.4966    1.5256    0.1601 C   0  0  0  0  0  0  0  0  0  0  0  0
    3.5528    0.3418   -0.2104 C   0  0  0  0  0  0  0  0  0  0  0  0
    4.4775    2.4673    0.3681 C   0  0  0  0  0  0  0  0  0  0  0  0
    4.2537   -0.2764    0.8276 C   0  0  0  0  0  0  0  0  0  0  0  0
    5.3421    1.8199    1.2632 C   0  0  0  0  0  0  0  0  0  0  0  0
    3.5026    1.7308   -0.3053 C   0  0  0  0  0  0  0  0  0  0  0  0
    5.1740    0.4671    1.5421 C   0  0  0  0  0  0  0  0  0  0  0  0
    2.4877    2.4003   -1.1551 C   0  0  0  0  0  0  0  0  0  0  0  0
    5.9610   -0.1070    2.4931 O   0  0  0  0  0  0  0  0  0  0  0  0
    2.8749    3.1804   -2.0330 O   0  0  0  0  0  0  0  0  0  0  0  0
    1.1604    2.1662   -0.9691 O   0  0  0  0  0  0  0  0  0  0  0  0
    0.7148   -0.3617   -0.8867 H   0  0  0  0  0  0  0  0  0  0  0  0
   -0.0324   -0.5486    0.7371 H   0  0  0  0  0  0  0  0  0  0  0  0
    1.5966   -0.1865    0.6551 H   0  0  0  0  0  0  0  0  0  0  0  0
   -0.5753    1.7425    0.0653 H   0  0  0  0  0  0  0  0  0  0  0  0
    0.8457    1.9675    1.0975 H   0  0  0  0  0  0  0  0  0  0  0  0
    2.9539   -0.2687   -0.8795 H   0  0  0  0  0  0  0  0  0  0  0  0
    4.5859    3.5330    0.1828 H   0  0  0  0  0  0  0  0  0  0  0  0
    4.0483   -1.3173    1.0623 H   0  0  0  0  0  0  0  0  0  0  0  0
    6.1368    2.3712    1.7562 H   0  0  0  0  0  0  0  0  0  0  0  0
    5.7704   -1.0598    2.5340 H   0  0  0  0  0  0  0  0  0  0  0  0
  1 13  1  0  0  0  0
  1 14  1  0  0  0  0
  1 15  1  0  0  0  0
  2  1  1  0  0  0  0
  2 16  1  0  0  0  0
  2 17  1  0  0  0  0
  3 18  1  0  0  0  0
  4 19  1  0  0  0  0
  5  3  1  0  0  0  0
  5 20  1  0  0  0  0
  6  4  2  0  0  0  0
  6 21  1  0  0  0  0
  7  3  2  0  0  0  0
  7  4  1  0  0  0  0
  8  5  2  0  0  0  0
  8  6  1  0  0  0  0
  9  7  1  0  0  0  0
 10  8  1  0  0  0  0
 10 22  1  0  0  0  0
 11  9  2  0  0  0  0
 12  2  1  0  0  0  0
 12  9  1  0  0  0  0
M  END
>  <DRUGBANK_ID>
DB13628

>  <COMMON_NAME>
Ethyl hydroxybenzoate

>  <CAS_NUMBER>
120-47-8

>  <UNII>
14255EXE39

>  <SYNONYMS>
4-hydroxybenzoic acid ethyl ester; Ethyl p-hydroxybenzoate; Ethyl paraben; Ethylparaben; p-hydroxybenzoic acid ethyl ester; p-Oxybenzoesaeureaethylester

$$$$
