BB1
 OpenBabel10282417143D

 54 53  0  0  0  0  0  0  0  0999 V2000
   -2.4948   -0.0121   -4.1344 C   0  0  0  0  0  0  0  0  0  0  0  0
   -1.0057    0.1444   -3.8240 C   0  0  2  0  0  0  0  0  0  0  0  0
   -0.3526   -1.2253   -3.7338 C   0  0  0  0  0  0  0  0  0  0  0  0
   -0.0250   -1.7698   -4.8005 O   0  0  0  0  0  0  0  0  0  0  0  0
   -0.2129   -1.9897   -2.6278 N   0  0  0  0  0  0  0  0  0  0  0  0
   -0.3030   -1.8408   -1.1251 C   0  0  2  0  0  0  0  0  0  0  0  0
   -0.7331    1.1570   -2.7158 C   0  0  0  0  0  0  0  0  0  0  0  0
    0.7341    1.4893   -2.5232 C   0  0  0  0  0  0  0  0  0  0  0  0
    1.4011    2.0817   -3.7525 C   0  0  0  0  0  0  0  0  0  0  0  0
    0.7438    3.3867   -4.1622 C   0  0  0  0  0  0  0  0  0  0  0  0
   -3.2887   -0.3947   -2.9839 N   0  0  0  0  0  0  0  0  0  0  0  0
   -3.9733   -1.5550   -2.7882 C   0  0  0  0  0  0  0  0  0  0  0  0
   -4.5718   -1.8098   -1.7594 O   0  0  0  0  0  0  0  0  0  0  0  0
   -3.3458    0.5542   -1.9453 O   0  0  0  0  0  0  0  0  0  0  0  0
    1.0853   -1.3734   -0.5104 C   0  0  0  0  0  0  0  0  0  0  0  0
    1.2655   -1.0248    0.8446 N   0  0  0  0  0  0  0  0  0  0  0  0
    2.6293   -0.7286    1.2636 C   0  0  0  0  0  0  0  0  0  0  0  0
    0.2896   -0.8077    1.9310 C   0  0  0  0  0  0  0  0  0  0  0  0
    2.0682   -1.3755   -1.2697 O   0  0  0  0  0  0  0  0  0  0  0  0
   -0.7253   -3.2456   -0.5467 C   0  0  0  0  0  0  0  0  0  0  0  0
   -0.9739   -3.1691    0.9426 C   0  0  0  0  0  0  0  0  0  0  0  0
   -2.0557   -3.7267   -1.1175 C   0  0  0  0  0  0  0  0  0  0  0  0
    0.3672   -4.3150   -0.7278 C   0  0  0  0  0  0  0  0  0  0  0  0
   -0.5897    0.5761   -4.7489 H   0  0  0  0  0  0  0  0  0  0  0  0
   -1.0500   -1.0733   -0.9216 H   0  0  0  0  0  0  0  0  0  0  0  0
   -2.6388   -0.7637   -4.9219 H   0  0  0  0  0  0  0  0  0  0  0  0
   -2.9007    0.9333   -4.5148 H   0  0  0  0  0  0  0  0  0  0  0  0
    0.2644   -2.8359   -2.9185 H   0  0  0  0  0  0  0  0  0  0  0  0
   -1.2976    2.0746   -2.9305 H   0  0  0  0  0  0  0  0  0  0  0  0
   -1.0977    0.8106   -1.7516 H   0  0  0  0  0  0  0  0  0  0  0  0
    0.8250    2.1748   -1.6723 H   0  0  0  0  0  0  0  0  0  0  0  0
    1.2673    0.5837   -2.2520 H   0  0  0  0  0  0  0  0  0  0  0  0
    2.4592    2.2477   -3.5273 H   0  0  0  0  0  0  0  0  0  0  0  0
    1.3748    1.3698   -4.5845 H   0  0  0  0  0  0  0  0  0  0  0  0
    0.7867    4.1061   -3.3385 H   0  0  0  0  0  0  0  0  0  0  0  0
    1.2499    3.8093   -5.0316 H   0  0  0  0  0  0  0  0  0  0  0  0
   -0.3072    3.2461   -4.4339 H   0  0  0  0  0  0  0  0  0  0  0  0
   -3.9175   -2.2443   -3.6492 H   0  0  0  0  0  0  0  0  0  0  0  0
   -3.5371   -0.0086   -1.1667 H   0  0  0  0  0  0  0  0  0  0  0  0
    2.6271    0.2554    1.7431 H   0  0  0  0  0  0  0  0  0  0  0  0
    2.9468   -1.4853    1.9878 H   0  0  0  0  0  0  0  0  0  0  0  0
    3.3450   -0.6995    0.4413 H   0  0  0  0  0  0  0  0  0  0  0  0
   -0.5586   -0.2272    1.5754 H   0  0  0  0  0  0  0  0  0  0  0  0
   -0.0574   -1.7134    2.4264 H   0  0  0  0  0  0  0  0  0  0  0  0
    0.7789   -0.3269    2.7840 H   0  0  0  0  0  0  0  0  0  0  0  0
   -1.6018   -2.2989    1.1682 H   0  0  0  0  0  0  0  0  0  0  0  0
   -1.4551   -4.0400    1.3888 H   0  0  0  0  0  0  0  0  0  0  0  0
    0.0107   -3.1620    1.4051 H   0  0  0  0  0  0  0  0  0  0  0  0
   -2.0199   -3.9168   -2.1910 H   0  0  0  0  0  0  0  0  0  0  0  0
   -2.3884   -4.6437   -0.6177 H   0  0  0  0  0  0  0  0  0  0  0  0
   -2.8116   -2.9740   -0.8998 H   0  0  0  0  0  0  0  0  0  0  0  0
    0.5356   -4.5775   -1.7728 H   0  0  0  0  0  0  0  0  0  0  0  0
    1.3216   -3.9820   -0.3011 H   0  0  0  0  0  0  0  0  0  0  0  0
    0.0908   -5.2278   -0.1873 H   0  0  0  0  0  0  0  0  0  0  0  0
  1 11  1  0  0  0  0
  1 26  1  0  0  0  0
  1 27  1  0  0  0  0
  2  7  1  0  0  0  0
  2 24  1  6  0  0  0
  2  3  1  0  0  0  0
  2  1  1  0  0  0  0
  3  4  2  0  0  0  0
  3  5  1  0  0  0  0
  5 28  1  0  0  0  0
  6 20  1  0  0  0  0
  6 25  1  1  0  0  0
  6 15  1  0  0  0  0
  6  5  1  0  0  0  0
  7  8  1  0  0  0  0
  7 29  1  0  0  0  0
  7 30  1  0  0  0  0
  8  9  1  0  0  0  0
  8 31  1  0  0  0  0
  8 32  1  0  0  0  0
  9 10  1  0  0  0  0
  9 33  1  0  0  0  0
  9 34  1  0  0  0  0
 10 35  1  0  0  0  0
 10 36  1  0  0  0  0
 10 37  1  0  0  0  0
 11 12  1  0  0  0  0
 11 14  1  0  0  0  0
 12 13  2  0  0  0  0
 12 38  1  0  0  0  0
 14 39  1  0  0  0  0
 15 16  1  0  0  0  0
 15 19  2  0  0  0  0
 16 17  1  0  0  0  0
 16 18  1  0  0  0  0
 17 40  1  0  0  0  0
 17 41  1  0  0  0  0
 17 42  1  0  0  0  0
 18 43  1  0  0  0  0
 18 44  1  0  0  0  0
 18 45  1  0  0  0  0
 20 21  1  0  0  0  0
 20 22  1  0  0  0  0
 20 23  1  0  0  0  0
 21 46  1  0  0  0  0
 21 47  1  0  0  0  0
 21 48  1  0  0  0  0
 22 49  1  0  0  0  0
 22 50  1  0  0  0  0
 22 51  1  0  0  0  0
 23 52  1  0  0  0  0
 23 53  1  0  0  0  0
 23 54  1  0  0  0  0
M  END
>  <DRUGBANK_ID>
DB04368

>  <SECONDARY_ACCESSION_NUMBERS>
EXPT00629

>  <COMMON_NAME>
Bb-3497

>  <CAS_NUMBER>
235784-88-0

$$$$
