
 OpenBabel10282417143D

 44 47  0  0  0  0  0  0  0  0999 V2000
   -1.0580   -0.4450    0.0020 C   0  0  0  0  0  0  0  0  0  0  0  0
    2.8676   -0.1068   -4.0811 C   0  0  0  0  0  0  0  0  0  0  0  0
    3.7105    3.2755    0.5868 C   0  0  0  0  0  0  0  0  0  0  0  0
    7.1860   -1.4187    0.6025 C   0  0  0  0  0  0  0  0  0  0  0  0
    0.1060   -1.1310   -0.0010 C   0  0  0  0  0  0  0  0  0  0  0  0
    2.7626    0.2634   -2.7859 C   0  0  0  0  0  0  0  0  0  0  0  0
    3.2138    2.0644    0.9215 C   0  0  0  0  0  0  0  0  0  0  0  0
    6.0477   -0.8870    1.0156 C   0  0  0  0  0  0  0  0  0  0  0  0
    0.6020    0.9690    0.0020 C   0  0  0  0  0  0  0  0  0  0  0  0
    3.3622   -1.8092   -2.8114 C   0  0  0  0  0  0  0  0  0  0  0  0
    4.2628    1.8300   -0.9495 C   0  0  0  0  0  0  0  0  0  0  0  0
    5.6797   -1.9531   -0.9238 C   0  0  0  0  0  0  0  0  0  0  0  0
    3.0630   -0.7637   -0.0049 Cu  0  0  0  0  0  0  0  0  0  0  0  0
   -0.7430    0.8870   -0.0020 N   0  0  0  0  0  0  0  0  0  0  0  0
    3.2423   -1.4232   -4.0968 N   0  0  0  0  0  0  0  0  0  0  0  0
    4.3708    3.1277   -0.6029 N   0  0  0  0  0  0  0  0  0  0  0  0
    6.9668   -2.0604   -0.5565 N   0  0  0  0  0  0  0  0  0  0  0  0
    1.0920   -0.2780   -0.0010 N   0  3  0  0  0  0  0  0  0  0  0  0
    3.0599   -0.7600   -2.0349 N   0  3  0  0  0  0  0  0  0  0  0  0
    3.5487    1.2074   -0.0021 N   0  3  0  0  0  0  0  0  0  0  0  0
    5.0341   -1.2493   -0.0089 N   0  0  0  0  0  0  0  0  0  0  0  0
    3.0661   -0.7672    1.9751 O   0  3  0  0  0  0  0  0  0  0  0  0
    2.5893   -2.6862   -0.0076 O   0  3  0  0  0  0  0  0  0  0  0  0
   -2.0423   -0.8646    0.0066 H   0  0  0  0  0  0  0  0  0  0  0  0
    2.6909    0.5133   -4.9350 H   0  0  0  0  0  0  0  0  0  0  0  0
    3.6069    4.1811    1.1473 H   0  0  0  0  0  0  0  0  0  0  0  0
    8.1263   -1.3491    1.1084 H   0  0  0  0  0  0  0  0  0  0  0  0
    0.2025   -2.1966   -0.0030 H   0  0  0  0  0  0  0  0  0  0  0  0
    2.4822    1.2346   -2.4351 H   0  0  0  0  0  0  0  0  0  0  0  0
    2.6410    1.8452    1.7983 H   0  0  0  0  0  0  0  0  0  0  0  0
    5.8891   -0.3135    1.9049 H   0  0  0  0  0  0  0  0  0  0  0  0
    1.1774    1.8711    0.0067 H   0  0  0  0  0  0  0  0  0  0  0  0
    3.6485   -2.7823   -2.4708 H   0  0  0  0  0  0  0  0  0  0  0  0
    4.6747    1.3767   -1.8269 H   0  0  0  0  0  0  0  0  0  0  0  0
    5.2477   -2.3684   -1.8102 H   0  0  0  0  0  0  0  0  0  0  0  0
   -1.3999    1.6673   -0.0070 H   0  0  0  0  0  0  0  0  0  0  0  0
    3.4003   -2.0007   -4.9226 H   0  0  0  0  0  0  0  0  0  0  0  0
    4.8521    3.8590   -1.1264 H   0  0  0  0  0  0  0  0  0  0  0  0
    7.6807   -2.5610   -1.0858 H   0  0  0  0  0  0  0  0  0  0  0  0
    4.3585   -0.6958   -0.5357 H   0  0  0  0  0  0  0  0  0  0  0  0
    3.7466   -1.4209    2.3062 H   0  0  0  0  0  0  0  0  0  0  0  0
    3.2922    0.1476    2.3097 H   0  0  0  0  0  0  0  0  0  0  0  0
    2.0506   -2.8956   -0.8237 H   0  0  0  0  0  0  0  0  0  0  0  0
    3.4250   -3.2354   -0.0099 H   0  0  0  0  0  0  0  0  0  0  0  0
  1 24  1  0  0  0  0
  2 25  1  0  0  0  0
  3 26  1  0  0  0  0
  4 27  1  0  0  0  0
  5  1  2  0  0  0  0
  5 28  1  0  0  0  0
  6  2  2  0  0  0  0
  6 29  1  0  0  0  0
  7  3  2  0  0  0  0
  7 30  1  0  0  0  0
  8  4  2  0  0  0  0
  8 31  1  0  0  0  0
  9 32  1  0  0  0  0
 10 33  1  0  0  0  0
 11 34  1  0  0  0  0
 12 35  1  0  0  0  0
 14  1  1  0  0  0  0
 14  9  1  0  0  0  0
 14 36  1  0  0  0  0
 15  2  1  0  0  0  0
 15 10  1  0  0  0  0
 15 37  1  0  0  0  0
 16  3  1  0  0  0  0
 16 11  1  0  0  0  0
 16 38  1  0  0  0  0
 17  4  1  0  0  0  0
 17 12  1  0  0  0  0
 17 39  1  0  0  0  0
 18  5  1  0  0  0  0
 18  9  2  0  0  0  0
 18 13  1  0  0  0  0
 19  6  1  0  0  0  0
 19 10  2  0  0  0  0
 19 13  1  0  0  0  0
 20  7  1  0  0  0  0
 20 11  2  0  0  0  0
 20 13  1  0  0  0  0
 21  8  1  0  0  0  0
 21 12  2  0  0  0  0
 21 13  1  0  0  0  0
 21 40  1  0  0  0  0
 22 13  1  0  0  0  0
 22 41  1  0  0  0  0
 22 42  1  0  0  0  0
 23 13  1  0  0  0  0
 23 43  1  0  0  0  0
 23 44  1  0  0  0  0
M  CHG  6  13  -4  18   1  19   1  20   1  22   1  23   1
M  END
>  <DRUGBANK_ID>
DB04231

>  <SECONDARY_ACCESSION_NUMBERS>
EXPT01867

>  <COMMON_NAME>
Tetra(imidazole)diaquacopper (I)

$$$$
