
 OpenBabel10282417113D

 75 78  0  0  1  0  0  0  0  0999 V2000
    0.0375   -0.3108    0.4269 C   0  0  0  0  0  0  0  0  0  0  0  0
   -1.5895   -0.7597    0.9337 C   0  0  0  0  0  0  0  0  0  0  0  0
   -2.1377    0.6042    0.9339 C   0  0  0  0  0  0  0  0  0  0  0  0
   -2.0576    1.1273   -0.4351 C   0  0  0  0  0  0  0  0  0  0  0  0
   -0.7822    1.4971   -0.6530 C   0  0  0  0  0  0  0  0  0  0  0  0
    0.2607    1.3814    0.4636 C   0  0  1  0  0  0  0  0  0  0  0  0
    0.9662    2.8975    0.1784 C   0  0  2  0  0  0  0  0  0  0  0  0
   -0.1821    1.6124   -2.0592 C   0  0  0  0  0  0  0  0  0  0  0  0
    0.2978    3.0896   -2.2588 C   0  0  0  0  0  0  0  0  0  0  0  0
    1.5340    3.3882   -1.2753 C   0  0  1  0  0  0  0  0  0  0  0  0
    2.0803    4.8279    1.2010 C   0  0  0  0  0  0  0  0  0  0  0  0
    1.8969    3.3739    1.3101 C   0  0  2  0  0  0  0  0  0  0  0  0
    2.6662    4.8953   -1.5103 C   0  0  1  0  0  0  0  0  0  0  0  0
    2.6234    5.1415   -0.1035 C   0  0  1  0  0  0  0  0  0  0  0  0
    2.4307    6.8505   -0.5366 C   0  0  2  0  0  0  0  0  0  0  0  0
    4.1311    6.0119   -0.5587 C   0  0  0  0  0  0  0  0  0  0  0  0
    3.5895    7.2133    0.2128 C   0  0  0  0  0  0  0  0  0  0  0  0
   -2.2545    1.2735    1.9525 O   0  0  0  0  0  0  0  0  0  0  0  0
    0.3759    1.4512    2.0210 C   0  0  0  0  0  0  0  0  0  0  0  0
    4.0282    3.8956   -0.5760 C   0  0  0  0  0  0  0  0  0  0  0  0
    3.0893    2.6231    1.3172 O   0  0  0  0  0  0  0  0  0  0  0  0
    2.1667    2.5682   -1.5986 H   0  0  0  0  0  0  0  0  0  0  0  0
    2.0674    5.4521   -2.2023 H   0  0  0  0  0  0  0  0  0  0  0  0
    0.0700    3.5588    0.3042 H   0  0  0  0  0  0  0  0  0  0  0  0
    1.0964    7.4841   -0.2367 C   0  0  0  0  0  0  0  0  0  0  0  0
    0.2373    6.9624    0.4535 O   0  0  0  0  0  0  0  0  0  0  0  0
    0.8333    8.8122   -0.9256 C   0  0  0  0  0  0  0  0  0  0  0  0
    1.6462    9.9104   -0.5241 O   0  0  0  0  0  0  0  0  0  0  0  0
    1.5522   10.2124    0.8015 C   0  0  0  0  0  0  0  0  0  0  0  0
    0.9082    9.5625    1.6158 O   0  0  0  0  0  0  0  0  0  0  0  0
    2.3490   11.4475    1.1965 C   0  0  0  0  0  0  0  0  0  0  0  0
    3.8133   11.2895    1.0461 N   0  0  0  0  0  0  0  0  0  0  0  0
    4.5381   12.5241    1.3878 C   0  0  0  0  0  0  0  0  0  0  0  0
    4.4259   12.9920    2.8366 C   0  0  0  0  0  0  0  0  0  0  0  0
    4.3323   10.1172    1.7602 C   0  0  0  0  0  0  0  0  0  0  0  0
    4.1603   10.0075    3.2649 C   0  0  0  0  0  0  0  0  0  0  0  0
    2.7623    7.2355   -1.9633 O   0  0  0  0  0  0  0  0  0  0  0  0
    0.1122   -0.7208   -0.5955 H   0  0  0  0  0  0  0  0  0  0  0  0
    0.8118   -0.8398    0.9899 H   0  0  0  0  0  0  0  0  0  0  0  0
   -1.9340   -1.1014    1.9315 H   0  0  0  0  0  0  0  0  0  0  0  0
   -2.2198   -1.3006    0.1883 H   0  0  0  0  0  0  0  0  0  0  0  0
   -2.5487    0.5577   -1.2219 H   0  0  0  0  0  0  0  0  0  0  0  0
   -0.9267    1.2957   -2.8051 H   0  0  0  0  0  0  0  0  0  0  0  0
    0.6604    0.9121   -2.2141 H   0  0  0  0  0  0  0  0  0  0  0  0
   -0.5907    3.6969   -2.0320 H   0  0  0  0  0  0  0  0  0  0  0  0
    0.5518    3.2327   -3.3115 H   0  0  0  0  0  0  0  0  0  0  0  0
    2.7599    5.1655    1.9959 H   0  0  0  0  0  0  0  0  0  0  0  0
    1.1192    5.3001    1.4341 H   0  0  0  0  0  0  0  0  0  0  0  0
    1.5277    3.3412    2.3307 H   0  0  0  0  0  0  0  0  0  0  0  0
    5.0873    6.2694   -1.0227 H   0  0  0  0  0  0  0  0  0  0  0  0
    4.5991    5.5362    0.3636 H   0  0  0  0  0  0  0  0  0  0  0  0
    4.1269    8.1199   -0.0411 H   0  0  0  0  0  0  0  0  0  0  0  0
    3.4924    7.0862    1.3095 H   0  0  0  0  0  0  0  0  0  0  0  0
    0.0183    0.6534    2.6623 H   0  0  0  0  0  0  0  0  0  0  0  0
    1.4527    1.3778    2.2579 H   0  0  0  0  0  0  0  0  0  0  0  0
   -0.0643    2.3840    2.3891 H   0  0  0  0  0  0  0  0  0  0  0  0
    3.7408    2.9383   -0.9927 H   0  0  0  0  0  0  0  0  0  0  0  0
    4.6436    4.2430   -1.4622 H   0  0  0  0  0  0  0  0  0  0  0  0
    4.7290    3.7294    0.2384 H   0  0  0  0  0  0  0  0  0  0  0  0
    3.1053    2.1315    0.4790 H   0  0  0  0  0  0  0  0  0  0  0  0
    0.9723    8.6619   -2.0036 H   0  0  0  0  0  0  0  0  0  0  0  0
   -0.2264    9.0375   -0.7922 H   0  0  0  0  0  0  0  0  0  0  0  0
    1.9694   12.2936    0.6138 H   0  0  0  0  0  0  0  0  0  0  0  0
    2.0885   11.6390    2.2403 H   0  0  0  0  0  0  0  0  0  0  0  0
    5.5987   12.3891    1.1375 H   0  0  0  0  0  0  0  0  0  0  0  0
    4.1866   13.3332    0.7361 H   0  0  0  0  0  0  0  0  0  0  0  0
    5.0234   12.3804    3.5040 H   0  0  0  0  0  0  0  0  0  0  0  0
    4.8432   13.9886    2.9730 H   0  0  0  0  0  0  0  0  0  0  0  0
    3.3917   12.9936    3.1916 H   0  0  0  0  0  0  0  0  0  0  0  0
    3.7711    9.2755    1.3912 H   0  0  0  0  0  0  0  0  0  0  0  0
    5.3752    9.9353    1.4699 H   0  0  0  0  0  0  0  0  0  0  0  0
    3.1408   10.2606    3.5664 H   0  0  0  0  0  0  0  0  0  0  0  0
    4.3712    8.9906    3.6001 H   0  0  0  0  0  0  0  0  0  0  0  0
    4.8691   10.6168    3.8113 H   0  0  0  0  0  0  0  0  0  0  0  0
    3.1097    8.1333   -2.0830 H   0  0  0  0  0  0  0  0  0  0  0  0
  1  2  1  0  0  0  0
  1  6  1  0  0  0  0
  1 38  1  0  0  0  0
  1 39  1  0  0  0  0
  2  3  1  0  0  0  0
  2 40  1  0  0  0  0
  2 41  1  0  0  0  0
  3  4  1  0  0  0  0
  3 18  2  0  0  0  0
  4  5  2  0  0  0  0
  4 42  1  0  0  0  0
  5  8  1  0  0  0  0
  6  5  1  0  0  0  0
  6 19  1  6  0  0  0
  7  6  1  0  0  0  0
  7 10  1  0  0  0  0
  7 24  1  1  0  0  0
  8  9  1  0  0  0  0
  8 43  1  0  0  0  0
  8 44  1  0  0  0  0
  9 10  1  0  0  0  0
  9 45  1  0  0  0  0
  9 46  1  0  0  0  0
 10 13  1  0  0  0  0
 10 22  1  6  0  0  0
 11 12  1  0  0  0  0
 11 14  1  0  0  0  0
 11 47  1  0  0  0  0
 11 48  1  0  0  0  0
 12  7  1  0  0  0  0
 12 21  1  0  0  0  0
 12 49  1  1  0  0  0
 13 16  1  0  0  0  0
 13 23  1  6  0  0  0
 14 13  1  0  0  0  0
 14 20  1  1  0  0  0
 15 14  1  0  0  0  0
 15 17  1  0  0  0  0
 15 37  1  6  0  0  0
 15 25  1  0  0  0  0
 16 17  1  0  0  0  0
 16 50  1  0  0  0  0
 16 51  1  0  0  0  0
 17 52  1  0  0  0  0
 17 53  1  0  0  0  0
 19 54  1  0  0  0  0
 19 55  1  0  0  0  0
 19 56  1  0  0  0  0
 20 57  1  0  0  0  0
 20 58  1  0  0  0  0
 20 59  1  0  0  0  0
 21 60  1  0  0  0  0
 25 26  2  0  0  0  0
 25 27  1  0  0  0  0
 27 28  1  0  0  0  0
 27 61  1  0  0  0  0
 27 62  1  0  0  0  0
 28 29  1  0  0  0  0
 29 30  2  0  0  0  0
 29 31  1  0  0  0  0
 31 32  1  0  0  0  0
 31 63  1  0  0  0  0
 31 64  1  0  0  0  0
 32 33  1  0  0  0  0
 32 35  1  0  0  0  0
 33 34  1  0  0  0  0
 33 65  1  0  0  0  0
 33 66  1  0  0  0  0
 34 67  1  0  0  0  0
 34 68  1  0  0  0  0
 34 69  1  0  0  0  0
 35 36  1  0  0  0  0
 35 70  1  0  0  0  0
 35 71  1  0  0  0  0
 36 72  1  0  0  0  0
 36 73  1  0  0  0  0
 36 74  1  0  0  0  0
 37 75  1  0  0  0  0
M  END
>  <DRUGBANK_ID>
DB00769

>  <SECONDARY_ACCESSION_NUMBERS>
APRD01018

>  <COMMON_NAME>
Hydrocortamate

>  <CAS_NUMBER>
76-47-1

>  <UNII>
Y3N00BK5WK

>  <SYNONYMS>
17-Hydroxycorticosterone, 21-(diethylamino)acetate; Hidrocortamato; Hydrocortamate; Hydrocortamatum

$$$$
