2TH
 OpenBabel10282417163D

 35 38  0  0  0  0  0  0  0  0999 V2000
   -2.1269   -1.1844    0.7211 O   0  0  0  0  0  0  0  0  0  0  0  0
   -1.5687   -0.5713   -0.4380 C   0  0  2  0  0  0  0  0  0  0  0  0
   -0.0891   -0.4324   -0.2659 C   0  0  0  0  0  0  0  0  0  0  0  0
    0.2732    0.8829    0.0462 C   0  0  0  0  0  0  0  0  0  0  0  0
    1.5936    1.2262    0.2864 C   0  0  0  0  0  0  0  0  0  0  0  0
    2.5641    0.2281    0.1904 C   0  0  0  0  0  0  0  0  0  0  0  0
    2.2044   -1.0898   -0.1300 C   0  0  0  0  0  0  0  0  0  0  0  0
    0.8692   -1.4284   -0.3574 C   0  0  0  0  0  0  0  0  0  0  0  0
   -0.9256    1.7697    0.1347 C   0  0  0  0  0  0  0  0  0  0  0  0
   -2.0219    0.9082   -0.5261 C   0  0  1  0  0  0  0  0  0  0  0  0
   -2.3067    1.3676   -1.8915 N   0  0  0  0  0  0  0  0  0  0  0  0
   -3.5016    1.7795   -2.4274 C   0  0  0  0  0  0  0  0  0  0  0  0
   -3.5551    2.0164   -3.6353 O   0  0  0  0  0  0  0  0  0  0  0  0
   -4.6491    1.8909   -1.5554 C   0  0  0  0  0  0  0  0  0  0  0  0
   -5.9688    1.4840   -1.8025 C   0  0  0  0  0  0  0  0  0  0  0  0
   -6.6672    1.7731   -0.6353 C   0  0  0  0  0  0  0  0  0  0  0  0
   -5.8562    2.3545    0.2558 C   0  0  0  0  0  0  0  0  0  0  0  0
   -6.5789    2.7318    1.7007 S   0  0  0  0  0  0  0  0  0  0  0  0
   -8.0636    2.1066    1.0918 C   0  0  0  0  0  0  0  0  0  0  0  0
   -7.9822    1.6066   -0.2001 C   0  0  0  0  0  0  0  0  0  0  0  0
   -9.4538    2.1671    2.0996 Cl  0  0  0  0  0  0  0  0  0  0  0  0
   -4.6365    2.4960   -0.2985 N   0  0  0  0  0  0  0  0  0  0  0  0
   -1.8377   -1.1575   -1.3218 H   0  0  0  0  0  0  0  0  0  0  0  0
   -2.9269    0.9919    0.0666 H   0  0  0  0  0  0  0  0  0  0  0  0
   -3.0870   -1.2540    0.5787 H   0  0  0  0  0  0  0  0  0  0  0  0
    1.8737    2.2417    0.5487 H   0  0  0  0  0  0  0  0  0  0  0  0
    3.6084    0.4705    0.3720 H   0  0  0  0  0  0  0  0  0  0  0  0
    2.9728   -1.8562   -0.1924 H   0  0  0  0  0  0  0  0  0  0  0  0
    0.5895   -2.4505   -0.5924 H   0  0  0  0  0  0  0  0  0  0  0  0
   -0.7718    2.7246   -0.3783 H   0  0  0  0  0  0  0  0  0  0  0  0
   -1.1738    1.9539    1.1856 H   0  0  0  0  0  0  0  0  0  0  0  0
   -1.5653    1.2964   -2.5829 H   0  0  0  0  0  0  0  0  0  0  0  0
   -6.3143    1.0175   -2.7169 H   0  0  0  0  0  0  0  0  0  0  0  0
   -8.8125    1.1788   -0.7447 H   0  0  0  0  0  0  0  0  0  0  0  0
   -3.8331    2.9169    0.1470 H   0  0  0  0  0  0  0  0  0  0  0  0
  1 25  1  0  0  0  0
  2  1  1  0  0  0  0
  2  3  1  0  0  0  0
  2 10  1  0  0  0  0
  2 23  1  6  0  0  0
  3  4  2  0  0  0  0
  3  8  1  0  0  0  0
  4  5  1  0  0  0  0
  4  9  1  0  0  0  0
  5  6  2  0  0  0  0
  5 26  1  0  0  0  0
  6  7  1  0  0  0  0
  6 27  1  0  0  0  0
  7  8  2  0  0  0  0
  7 28  1  0  0  0  0
  8 29  1  0  0  0  0
  9 10  1  0  0  0  0
  9 30  1  0  0  0  0
  9 31  1  0  0  0  0
 10 11  1  0  0  0  0
 10 24  1  1  0  0  0
 11 12  1  0  0  0  0
 11 32  1  0  0  0  0
 12 13  2  0  0  0  0
 12 14  1  0  0  0  0
 14 15  2  0  0  0  0
 14 22  1  0  0  0  0
 15 16  1  0  0  0  0
 15 33  1  0  0  0  0
 16 17  2  0  0  0  0
 16 20  1  0  0  0  0
 17 18  1  0  0  0  0
 17 22  1  0  0  0  0
 18 19  1  0  0  0  0
 19 20  2  0  0  0  0
 19 21  1  0  0  0  0
 20 34  1  0  0  0  0
 22 35  1  0  0  0  0
M  END
>  <DRUGBANK_ID>
DB06986

>  <COMMON_NAME>
2-CHLORO-N-[(1R,2R)-1-HYDROXY-2,3-DIHYDRO-1H-INDEN-2-YL]-6H-THIENO[2,3-B]PYRROLE-5-CARBOXAMIDE

$$$$
