PU8
 OpenBabel10282417133D

 52 54  0  0  0  0  0  0  0  0999 V2000
    0.8155    0.1268   -0.3183 C   0  0  0  0  0  0  0  0  0  0  0  0
    0.4093    0.3102    1.0306 O   0  0  0  0  0  0  0  0  0  0  0  0
    0.7568   -0.7431    1.8603 C   0  0  0  0  0  0  0  0  0  0  0  0
    2.1606   -1.0055    2.0483 C   0  0  0  0  0  0  0  0  0  0  0  0
   -0.3691   -1.4246    2.5146 C   0  0  0  0  0  0  0  0  0  0  0  0
   -1.6900   -1.3633    2.3656 O   0  0  0  0  0  0  0  0  0  0  0  0
   -2.1002   -0.1068    1.9033 C   0  0  0  0  0  0  0  0  0  0  0  0
   -0.0596   -2.4286    3.4295 C   0  0  0  0  0  0  0  0  0  0  0  0
   -0.8106   -3.4254    3.9808 O   0  0  0  0  0  0  0  0  0  0  0  0
   -2.2367   -3.4951    3.9941 C   0  0  0  0  0  0  0  0  0  0  0  0
    1.3047   -2.5579    3.5119 C   0  0  0  0  0  0  0  0  0  0  0  0
    2.5208   -2.0356    2.9009 C   0  0  0  0  0  0  0  0  0  0  0  0
    4.0298   -2.6506    2.8308 C   0  0  0  0  0  0  0  0  0  0  0  0
    4.6720   -3.0957    4.1741 C   0  0  0  0  0  0  0  0  0  0  0  0
    5.7384   -2.4383    4.6147 N   0  0  0  0  0  0  0  0  0  0  0  0
    5.8972   -2.8197    5.9135 C   0  0  0  0  0  0  0  0  0  0  0  0
    6.7424   -2.3600    6.9208 C   0  0  0  0  0  0  0  0  0  0  0  0
    7.6607   -1.3639    6.6689 N   0  0  0  0  0  0  0  0  0  0  0  0
    5.0178   -3.8307    6.2535 C   0  0  0  0  0  0  0  0  0  0  0  0
    4.8673   -4.3998    7.4520 N   0  0  0  0  0  0  0  0  0  0  0  0
    5.7094   -3.8608    8.3521 C   0  0  0  0  0  0  0  0  0  0  0  0
    6.6351   -2.8927    8.1567 N   0  0  0  0  0  0  0  0  0  0  0  0
    4.3446   -4.1349    5.0935 N   0  0  0  0  0  0  0  0  0  0  0  0
    3.4747   -5.3417    5.0809 C   0  0  0  0  0  0  0  0  0  0  0  0
    2.1076   -5.1173    4.5143 C   0  0  0  0  0  0  0  0  0  0  0  0
    2.3238   -4.9353    2.9844 C   0  0  0  0  0  0  0  0  0  0  0  0
    2.6941   -5.6873    1.7779 C   0  0  0  0  0  0  0  0  0  0  0  0
    3.4515   -0.1190    1.2977 Cl  0  0  0  0  0  0  0  0  0  0  0  0
    0.4050    0.9727   -0.8662 H   0  0  0  0  0  0  0  0  0  0  0  0
    0.4492   -0.8152   -0.7352 H   0  0  0  0  0  0  0  0  0  0  0  0
    1.8898    0.1887   -0.4707 H   0  0  0  0  0  0  0  0  0  0  0  0
   -1.5634    0.6778    2.4392 H   0  0  0  0  0  0  0  0  0  0  0  0
   -1.9359   -0.1164    0.8296 H   0  0  0  0  0  0  0  0  0  0  0  0
   -3.1623   -0.0140    2.1163 H   0  0  0  0  0  0  0  0  0  0  0  0
   -2.6183   -2.6400    4.5490 H   0  0  0  0  0  0  0  0  0  0  0  0
   -2.6550   -3.5814    2.9878 H   0  0  0  0  0  0  0  0  0  0  0  0
   -2.5696   -4.4001    4.5352 H   0  0  0  0  0  0  0  0  0  0  0  0
    1.1717   -3.5665    3.8245 H   0  0  0  0  0  0  0  0  0  0  0  0
    4.1592   -3.4631    2.0779 H   0  0  0  0  0  0  0  0  0  0  0  0
    4.7580   -1.9733    2.3506 H   0  0  0  0  0  0  0  0  0  0  0  0
    7.7104   -1.0063    5.7244 H   0  0  0  0  0  0  0  0  0  0  0  0
    8.2867   -1.0771    7.3983 H   0  0  0  0  0  0  0  0  0  0  0  0
    5.6368   -4.2656    9.3540 H   0  0  0  0  0  0  0  0  0  0  0  0
    3.9577   -6.1147    4.4890 H   0  0  0  0  0  0  0  0  0  0  0  0
    3.3421   -5.6952    6.1092 H   0  0  0  0  0  0  0  0  0  0  0  0
    1.2570   -5.7574    4.7390 H   0  0  0  0  0  0  0  0  0  0  0  0
    1.8553   -4.2033    5.1206 H   0  0  0  0  0  0  0  0  0  0  0  0
    1.6750   -4.2881    2.4032 H   0  0  0  0  0  0  0  0  0  0  0  0
    3.1704   -4.3579    3.1443 H   0  0  0  0  0  0  0  0  0  0  0  0
    1.7824   -6.1843    1.4707 H   0  0  0  0  0  0  0  0  0  0  0  0
    2.8879   -4.9210    0.9894 H   0  0  0  0  0  0  0  0  0  0  0  0
    3.6037   -6.2577    1.8744 H   0  0  0  0  0  0  0  0  0  0  0  0
  1  2  1  0  0  0  0
  1 29  1  0  0  0  0
  1 30  1  0  0  0  0
  1 31  1  0  0  0  0
  2  3  1  0  0  0  0
  3  4  2  0  0  0  0
  3  5  1  0  0  0  0
  4 12  1  0  0  0  0
  4 28  1  0  0  0  0
  5  6  1  0  0  0  0
  5  8  2  0  0  0  0
  6  7  1  0  0  0  0
  7 32  1  0  0  0  0
  7 33  1  0  0  0  0
  7 34  1  0  0  0  0
  8  9  1  0  0  0  0
  8 11  1  0  0  0  0
  9 10  1  0  0  0  0
 10 35  1  0  0  0  0
 10 36  1  0  0  0  0
 10 37  1  0  0  0  0
 11 12  2  0  0  0  0
 11 38  1  0  0  0  0
 12 13  1  0  0  0  0
 13 14  1  0  0  0  0
 13 39  1  0  0  0  0
 13 40  1  0  0  0  0
 14 15  2  0  0  0  0
 14 23  1  0  0  0  0
 15 16  1  0  0  0  0
 16 17  2  0  0  0  0
 16 19  1  0  0  0  0
 17 18  1  0  0  0  0
 17 22  1  0  0  0  0
 18 41  1  0  0  0  0
 18 42  1  0  0  0  0
 19 20  2  0  0  0  0
 19 23  1  0  0  0  0
 20 21  1  0  0  0  0
 21 22  2  0  0  0  0
 21 43  1  0  0  0  0
 23 24  1  0  0  0  0
 24 25  1  0  0  0  0
 24 44  1  0  0  0  0
 24 45  1  0  0  0  0
 25 26  1  0  0  0  0
 25 46  1  0  0  0  0
 25 47  1  0  0  0  0
 26 27  1  0  0  0  0
 26 48  1  0  0  0  0
 26 49  1  0  0  0  0
 27 50  1  0  0  0  0
 27 51  1  0  0  0  0
 27 52  1  0  0  0  0
M  END
>  <DRUGBANK_ID>
DB03504

>  <SECONDARY_ACCESSION_NUMBERS>
EXPT02698

>  <COMMON_NAME>
9-Butyl-8-(2-Chloro-3,4,5-Trimethoxy-Benzyl)-9h-Purin-6-Ylamine

$$$$
