
 OpenBabel10282417223D

 34 36  0  0  0  0  0  0  0  0999 V2000
   -1.0078    1.4436   -0.0202 C   0  0  0  0  0  0  0  0  0  0  0  0
   -2.1502    0.7097   -0.0089 N   0  0  0  0  0  0  0  0  0  0  0  0
   -2.0712   -0.6313   -0.1008 C   0  0  0  0  0  0  0  0  0  0  0  0
   -0.9367   -1.3313   -0.2644 N   0  0  0  0  0  0  0  0  0  0  0  0
    0.1612   -0.5711   -0.2225 C   0  0  0  0  0  0  0  0  0  0  0  0
    0.2210    0.8065   -0.0884 C   0  0  0  0  0  0  0  0  0  0  0  0
    1.4704   -0.9670   -0.1871 N   0  0  0  0  0  0  0  0  0  0  0  0
    1.5196    1.2483   -0.0322 N   0  0  0  0  0  0  0  0  0  0  0  0
    2.2502    0.1528   -0.0744 C   0  0  0  0  0  0  0  0  0  0  0  0
   -3.2307   -1.3277    0.0214 N   0  0  0  0  0  0  0  0  0  0  0  0
    1.9600   -2.3238   -0.1207 C   0  0  0  0  0  0  0  0  0  0  0  0
    1.6582   -3.0505    1.1735 C   0  0  0  0  0  0  0  0  0  0  0  0
    2.8001   -3.8610    1.5177 O   0  0  0  0  0  0  0  0  0  0  0  0
    2.6156   -4.9699    2.3593 C   0  0  0  0  0  0  0  0  0  0  0  0
    2.8734   -4.4509    4.0522 P   0  0  0  0  0  0  0  0  0  0  0  0
    0.2455   -3.4782    1.5325 C   0  0  0  0  0  0  0  0  0  0  0  0
    0.9011   -2.3744    2.3050 C   0  0  0  0  0  0  0  0  0  0  0  0
    1.8153   -5.3921    4.8047 O   0  0  0  0  0  0  0  0  0  0  0  0
    4.3076   -5.0937    4.3657 O   0  0  0  0  0  0  0  0  0  0  0  0
    2.7968   -3.0208    4.4678 O   0  0  0  0  0  0  0  0  0  0  0  0
   -1.1013    2.5171    0.0565 H   0  0  0  0  0  0  0  0  0  0  0  0
    3.3304    0.1079   -0.0057 H   0  0  0  0  0  0  0  0  0  0  0  0
   -3.2155   -2.3305   -0.0704 H   0  0  0  0  0  0  0  0  0  0  0  0
   -4.0862   -0.7949    0.0137 H   0  0  0  0  0  0  0  0  0  0  0  0
    1.6077   -2.8789   -0.9948 H   0  0  0  0  0  0  0  0  0  0  0  0
    3.0542   -2.2551   -0.2125 H   0  0  0  0  0  0  0  0  0  0  0  0
    1.6766   -5.4998    2.1860 H   0  0  0  0  0  0  0  0  0  0  0  0
    3.3944   -5.6966    2.1101 H   0  0  0  0  0  0  0  0  0  0  0  0
   -0.5835   -3.2349    0.8847 H   0  0  0  0  0  0  0  0  0  0  0  0
    0.0124   -4.3793    2.0827 H   0  0  0  0  0  0  0  0  0  0  0  0
    1.0310   -2.5738    3.3534 H   0  0  0  0  0  0  0  0  0  0  0  0
    0.5970   -1.3409    2.2023 H   0  0  0  0  0  0  0  0  0  0  0  0
    0.9042   -5.0646    4.6603 H   0  0  0  0  0  0  0  0  0  0  0  0
    4.9248   -4.9553    3.6196 H   0  0  0  0  0  0  0  0  0  0  0  0
  1  2  1  0  0  0  0
  1  6  2  0  0  0  0
  1 21  1  0  0  0  0
  2  3  2  0  0  0  0
  3  4  1  0  0  0  0
  3 10  1  0  0  0  0
  4  5  2  0  0  0  0
  5  6  1  0  0  0  0
  6  8  1  0  0  0  0
  7  5  1  0  0  0  0
  7  9  1  0  0  0  0
  7 11  1  0  0  0  0
  8  9  2  0  0  0  0
  9 22  1  0  0  0  0
 10 23  1  0  0  0  0
 10 24  1  0  0  0  0
 11 12  1  0  0  0  0
 11 25  1  0  0  0  0
 11 26  1  0  0  0  0
 12 13  1  0  0  0  0
 12 17  1  0  0  0  0
 13 14  1  0  0  0  0
 14 15  1  0  0  0  0
 14 27  1  0  0  0  0
 14 28  1  0  0  0  0
 15 18  1  0  0  0  0
 15 19  1  0  0  0  0
 15 20  2  0  0  0  0
 16 12  1  0  0  0  0
 16 29  1  0  0  0  0
 16 30  1  0  0  0  0
 17 16  1  0  0  0  0
 17 31  1  0  0  0  0
 17 32  1  0  0  0  0
 18 33  1  0  0  0  0
 19 34  1  0  0  0  0
M  END
>  <DRUGBANK_ID>
DB15671

>  <COMMON_NAME>
Besifovir

>  <CAS_NUMBER>
441785-25-7

>  <UNII>
4PLG22CQUU

>  <SYNONYMS>
Besifovir

$$$$
