
 OpenBabel10282417113D

108113  0  0  1  0  0  0  0  0999 V2000
   -1.8651   -6.5160    3.1449 C   0  0  1  0  0  0  0  0  0  0  0  0
    0.3647   -6.2553    3.5270 C   0  0  2  0  0  0  0  0  0  0  0  0
   -6.3174   -7.6893    2.4332 O   0  0  0  0  0  0  0  0  0  0  0  0
   -5.0204   -7.8576    3.0975 C   0  0  2  0  0  0  0  0  0  0  0  0
   -3.3648   -7.3185    2.8006 C   0  0  1  0  0  0  0  0  0  0  0  0
   -4.1201  -10.2904    1.6930 C   0  0  0  0  0  0  0  0  0  0  0  0
   -4.7270   -9.5231    3.0257 C   0  0  2  0  0  0  0  0  0  0  0  0
   -3.7848  -12.2422   -2.7200 C   0  0  0  0  0  0  0  0  0  0  0  0
   -4.3803  -12.2268   -1.3240 C   0  0  0  0  0  0  0  0  0  0  0  0
   -3.9199  -11.4633   -0.3386 C   0  0  0  0  0  0  0  0  0  0  0  0
   -4.6775  -11.0860    0.8197 C   0  0  0  0  0  0  0  0  0  0  0  0
   -5.7301  -10.3502    3.7087 C   0  0  0  0  0  0  0  0  0  0  0  0
   -3.1722   -8.2179    1.7992 C   0  0  0  0  0  0  0  0  0  0  0  0
   -3.5800   -5.7580    3.2287 O   0  0  0  0  0  0  0  0  0  0  0  0
   -5.6325  -12.9580   -1.0083 C   0  0  0  0  0  0  0  0  0  0  0  0
   -4.5159  -12.5235   -3.6703 O   0  0  0  0  0  0  0  0  0  0  0  0
   -2.4745  -11.8288   -2.9582 N   0  0  0  0  0  0  0  0  0  0  0  0
    1.1582   -5.1226    4.9089 C   0  0  2  0  0  0  0  0  0  0  0  0
    1.6641   -3.8136    5.5975 O   0  0  0  0  0  0  0  0  0  0  0  0
    0.1905   -5.4814    5.9986 C   0  0  1  0  0  0  0  0  0  0  0  0
   -1.9233  -10.6239   -2.4242 C   0  0  0  0  0  0  0  0  0  0  0  0
   -0.5844  -10.4706   -2.0783 C   0  0  0  0  0  0  0  0  0  0  0  0
   -2.7333   -9.5482   -2.0568 C   0  0  0  0  0  0  0  0  0  0  0  0
   -2.3070   -8.4019   -1.3085 C   0  0  0  0  0  0  0  0  0  0  0  0
   -0.9915   -7.8914   -1.0120 C   0  0  0  0  0  0  0  0  0  0  0  0
   -0.0986   -9.2823   -1.3877 C   0  0  0  0  0  0  0  0  0  0  0  0
   -3.2900   -7.6084   -0.8203 C   0  0  0  0  0  0  0  0  0  0  0  0
   -2.9084   -6.5933    0.0678 C   0  0  0  0  0  0  0  0  0  0  0  0
   -1.5725   -6.3913    0.6421 C   0  0  0  0  0  0  0  0  0  0  0  0
   -0.8863   -6.2498   -0.4055 C   0  0  0  0  0  0  0  0  0  0  0  0
   -4.1072   -9.6480   -2.2525 O   0  0  0  0  0  0  0  0  0  0  0  0
   -4.6507   -7.8104   -0.9506 O   0  0  0  0  0  0  0  0  0  0  0  0
    2.1542   -7.0490    3.8386 C   0  0  0  0  0  0  0  0  0  0  0  0
    2.8853   -3.1717    5.5717 C   0  0  0  0  0  0  0  0  0  0  0  0
    4.0350   -3.9377    5.0101 C   0  0  0  0  0  0  0  0  0  0  0  0
    3.0512   -2.0036    5.9294 O   0  0  0  0  0  0  0  0  0  0  0  0
   -0.7435   -6.7437    5.5738 C   0  0  1  0  0  0  0  0  0  0  0  0
   -1.3388   -7.7231    6.6406 O   0  0  0  0  0  0  0  0  0  0  0  0
   -1.3506   -5.4639    4.9551 C   0  0  0  0  0  0  0  0  0  0  0  0
    0.1758   -6.0519    7.2537 C   0  0  0  0  0  0  0  0  0  0  0  0
   -1.0823   -7.5021    8.2416 C   0  0  0  0  0  0  0  0  0  0  0  0
   -2.4983   -4.8904    4.7700 C   0  0  0  0  0  0  0  0  0  0  0  0
   -2.5750   -4.0502    3.3631 O   0  0  0  0  0  0  0  0  0  0  0  0
   -0.8478   -5.5060    1.5276 O   0  0  0  0  0  0  0  0  0  0  0  0
   -1.5929   -4.2441    1.9138 C   0  0  1  0  0  0  0  0  0  0  0  0
   -1.6961   -4.5749    0.2134 C   0  0  0  0  0  0  0  0  0  0  0  0
   -0.8063   -3.1724    2.4925 C   0  0  0  0  0  0  0  0  0  0  0  0
   -4.0782   -5.8112    0.4779 C   0  0  0  0  0  0  0  0  0  0  0  0
    1.2978   -9.5520   -1.2107 N   0  0  0  0  0  0  0  0  0  0  0  0
    1.6301  -10.6826   -1.8530 C   0  0  0  0  0  0  0  0  0  0  0  0
    0.5132  -11.3108   -2.3876 N   0  0  0  0  0  0  0  0  0  0  0  0
   -2.6462   -3.8470   -0.1524 O   0  0  0  0  0  0  0  0  0  0  0  0
    2.9023  -11.3162   -2.1353 C   0  0  0  0  0  0  0  0  0  0  0  0
    3.0035  -12.4488   -2.8777 C   0  0  0  0  0  0  0  0  0  0  0  0
    1.8066  -13.0733   -3.4217 C   0  0  0  0  0  0  0  0  0  0  0  0
    0.6105  -12.5057   -3.1668 C   0  0  0  0  0  0  0  0  0  0  0  0
    4.3263  -13.1091   -3.1818 C   0  0  0  0  0  0  0  0  0  0  0  0
   -2.2037   -5.7015    2.5627 H   0  0  0  0  0  0  0  0  0  0  0  0
    0.7947   -6.6826    4.4746 H   0  0  0  0  0  0  0  0  0  0  0  0
   -6.6699   -6.7906    2.6242 H   0  0  0  0  0  0  0  0  0  0  0  0
   -5.2542   -7.1354    3.8622 H   0  0  0  0  0  0  0  0  0  0  0  0
   -3.2164   -7.5832    3.8174 H   0  0  0  0  0  0  0  0  0  0  0  0
   -3.1477  -10.0288    1.2167 H   0  0  0  0  0  0  0  0  0  0  0  0
   -3.8629   -9.6240    3.6819 H   0  0  0  0  0  0  0  0  0  0  0  0
   -2.9770  -10.9600   -0.4371 H   0  0  0  0  0  0  0  0  0  0  0  0
   -5.6784  -11.3280    1.0589 H   0  0  0  0  0  0  0  0  0  0  0  0
   -5.4522  -11.3953    3.5562 H   0  0  0  0  0  0  0  0  0  0  0  0
   -5.6060  -10.0869    4.7580 H   0  0  0  0  0  0  0  0  0  0  0  0
   -6.7318  -10.1411    3.3511 H   0  0  0  0  0  0  0  0  0  0  0  0
   -2.7110   -8.8925    2.4826 H   0  0  0  0  0  0  0  0  0  0  0  0
   -4.1647   -8.2979    1.2812 H   0  0  0  0  0  0  0  0  0  0  0  0
   -2.3944   -8.2570    1.1311 H   0  0  0  0  0  0  0  0  0  0  0  0
   -4.2767   -5.3133    2.5883 H   0  0  0  0  0  0  0  0  0  0  0  0
   -5.3398  -13.9887   -0.8413 H   0  0  0  0  0  0  0  0  0  0  0  0
   -6.0925  -12.6584   -0.0624 H   0  0  0  0  0  0  0  0  0  0  0  0
   -6.4204  -12.8261   -1.7378 H   0  0  0  0  0  0  0  0  0  0  0  0
   -2.1389  -12.0225   -3.9032 H   0  0  0  0  0  0  0  0  0  0  0  0
    1.2341   -4.4504    4.0796 H   0  0  0  0  0  0  0  0  0  0  0  0
    0.0743   -4.5950    6.6554 H   0  0  0  0  0  0  0  0  0  0  0  0
   -4.4042   -9.9827   -3.1081 H   0  0  0  0  0  0  0  0  0  0  0  0
   -5.0722   -8.2460   -0.1754 H   0  0  0  0  0  0  0  0  0  0  0  0
    2.6269   -7.2462    5.0358 H   0  0  0  0  0  0  0  0  0  0  0  0
    2.4452   -8.0686    3.5499 H   0  0  0  0  0  0  0  0  0  0  0  0
    3.1722   -6.4451    3.7495 H   0  0  0  0  0  0  0  0  0  0  0  0
    4.3469   -3.4989    4.0590 H   0  0  0  0  0  0  0  0  0  0  0  0
    4.8892   -3.9554    5.6958 H   0  0  0  0  0  0  0  0  0  0  0  0
    3.7357   -4.9578    4.8520 H   0  0  0  0  0  0  0  0  0  0  0  0
   -0.2764   -7.5647    4.9315 H   0  0  0  0  0  0  0  0  0  0  0  0
   -0.8128   -4.9669    4.1312 H   0  0  0  0  0  0  0  0  0  0  0  0
   -1.0967   -5.8671    7.1472 H   0  0  0  0  0  0  0  0  0  0  0  0
    0.6396   -7.0983    7.0732 H   0  0  0  0  0  0  0  0  0  0  0  0
    0.1707   -5.5781    8.2396 H   0  0  0  0  0  0  0  0  0  0  0  0
    0.0427   -7.4431    8.6069 H   0  0  0  0  0  0  0  0  0  0  0  0
   -1.6340   -6.5523    8.5136 H   0  0  0  0  0  0  0  0  0  0  0  0
   -1.3965   -8.3205    8.8401 H   0  0  0  0  0  0  0  0  0  0  0  0
   -3.1581   -5.8008    4.9516 H   0  0  0  0  0  0  0  0  0  0  0  0
   -0.7064   -3.3156    3.5773 H   0  0  0  0  0  0  0  0  0  0  0  0
    0.1765   -3.1780    2.1061 H   0  0  0  0  0  0  0  0  0  0  0  0
   -1.4824   -2.3143    2.4641 H   0  0  0  0  0  0  0  0  0  0  0  0
   -4.4055   -5.1242   -0.2757 H   0  0  0  0  0  0  0  0  0  0  0  0
   -4.8878   -6.3179    0.9806 H   0  0  0  0  0  0  0  0  0  0  0  0
   -3.5861   -5.2491    1.2074 H   0  0  0  0  0  0  0  0  0  0  0  0
    3.8013  -10.8588   -1.7412 H   0  0  0  0  0  0  0  0  0  0  0  0
    1.9056  -13.9805   -4.0231 H   0  0  0  0  0  0  0  0  0  0  0  0
   -0.2832  -12.9624   -3.5726 H   0  0  0  0  0  0  0  0  0  0  0  0
    4.4169  -13.3846   -4.2403 H   0  0  0  0  0  0  0  0  0  0  0  0
    5.1582  -12.4347   -2.9524 H   0  0  0  0  0  0  0  0  0  0  0  0
    4.4576  -14.0182   -2.5828 H   0  0  0  0  0  0  0  0  0  0  0  0
  1  2  1  0  0  0  0
  1  5  1  0  0  0  0
  1 14  1  0  0  0  0
  1 58  1  6  0  0  0
  2 18  1  0  0  0  0
  2 59  1  1  0  0  0
  2 33  1  0  0  0  0
  3 60  1  0  0  0  0
  4  5  1  0  0  0  0
  4  7  1  0  0  0  0
  4  3  1  0  0  0  0
  4 61  1  1  0  0  0
  5 13  1  0  0  0  0
  5 62  1  1  0  0  0
  6  7  1  0  0  0  0
  6 11  2  0  0  0  0
  6 63  1  0  0  0  0
  7 12  1  0  0  0  0
  7 64  1  1  0  0  0
  8  9  1  0  0  0  0
  8 17  1  0  0  0  0
  8 16  2  0  0  0  0
  9 10  2  0  0  0  0
  9 15  1  0  0  0  0
 10 11  1  0  0  0  0
 10 65  1  0  0  0  0
 11 66  1  0  0  0  0
 12 67  1  0  0  0  0
 12 68  1  0  0  0  0
 12 69  1  0  0  0  0
 13 70  1  0  0  0  0
 13 71  1  0  0  0  0
 13 72  1  0  0  0  0
 14 73  1  0  0  0  0
 15 74  1  0  0  0  0
 15 75  1  0  0  0  0
 15 76  1  0  0  0  0
 17 21  1  0  0  0  0
 17 77  1  0  0  0  0
 18 20  1  0  0  0  0
 18 19  1  0  0  0  0
 18 78  1  6  0  0  0
 19 34  1  0  0  0  0
 20 37  1  0  0  0  0
 20 79  1  1  0  0  0
 20 40  1  0  0  0  0
 21 22  1  0  0  0  0
 21 23  2  0  0  0  0
 22 51  1  0  0  0  0
 23 24  1  0  0  0  0
 23 31  1  0  0  0  0
 24 25  1  0  0  0  0
 24 27  2  0  0  0  0
 25 26  1  0  0  0  0
 25 30  2  0  0  0  0
 26 22  2  0  0  0  0
 26 49  1  0  0  0  0
 27 28  1  0  0  0  0
 27 32  1  0  0  0  0
 28 29  2  0  0  0  0
 28 48  1  0  0  0  0
 29 30  1  0  0  0  0
 29 44  1  0  0  0  0
 30 46  1  0  0  0  0
 31 80  1  0  0  0  0
 32 81  1  0  0  0  0
 33 82  1  0  0  0  0
 33 83  1  0  0  0  0
 33 84  1  0  0  0  0
 34 35  1  0  0  0  0
 34 36  2  0  0  0  0
 35 85  1  0  0  0  0
 35 86  1  0  0  0  0
 35 87  1  0  0  0  0
 37 39  1  0  0  0  0
 37 38  1  0  0  0  0
 37 88  1  6  0  0  0
 38 41  1  0  0  0  0
 39 42  2  0  0  0  0
 39 89  1  0  0  0  0
 40 90  1  0  0  0  0
 40 91  1  0  0  0  0
 40 92  1  0  0  0  0
 41 93  1  0  0  0  0
 41 94  1  0  0  0  0
 41 95  1  0  0  0  0
 42 43  1  0  0  0  0
 42 96  1  0  0  0  0
 43 45  1  0  0  0  0
 44 45  1  0  0  0  0
 45 46  1  0  0  0  0
 45 47  1  1  0  0  0
 47 97  1  0  0  0  0
 47 98  1  0  0  0  0
 47 99  1  0  0  0  0
 48100  1  0  0  0  0
 48101  1  0  0  0  0
 48102  1  0  0  0  0
 49 50  2  0  0  0  0
 50 51  1  0  0  0  0
 50 53  1  0  0  0  0
 51 56  1  0  0  0  0
 52 46  2  0  0  0  0
 53 54  2  0  0  0  0
 53103  1  0  0  0  0
 54 55  1  0  0  0  0
 54 57  1  0  0  0  0
 55 56  2  0  0  0  0
 55104  1  0  0  0  0
 56105  1  0  0  0  0
 57106  1  0  0  0  0
 57107  1  0  0  0  0
 57108  1  0  0  0  0
M  END
>  <DRUGBANK_ID>
DB01220

>  <SECONDARY_ACCESSION_NUMBERS>
APRD01218

>  <COMMON_NAME>
Rifaximin

>  <CAS_NUMBER>
80621-81-4

>  <UNII>
L36O5T016N

>  <SYNONYMS>
Rifamycin L 105; Rifamycin L 105SV; Rifaxidin; Rifaximin; Rifaximina; Rifaximine; Rifaximinun

$$$$
