
 OpenBabel10282417193D

 74 79  0  0  1  0  0  0  0  0999 V2000
    0.3065    3.0276    1.3598 C   0  0  0  0  0  0  0  0  0  0  0  0
   -1.2618    2.5571    2.0046 C   0  0  0  0  0  0  0  0  0  0  0  0
   -2.5163    1.7460    1.0104 C   0  0  0  0  0  0  0  0  0  0  0  0
   -2.1589    1.3427   -0.7663 C   0  0  0  0  0  0  0  0  0  0  0  0
   -0.4646    1.6880   -1.4810 C   0  0  0  0  0  0  0  0  0  0  0  0
    0.7628    2.6471   -0.3803 C   0  0  0  0  0  0  0  0  0  0  0  0
    1.9941    1.9928   -0.3045 C   0  0  1  0  0  0  0  0  0  0  0  0
    2.8981    2.6245   -1.3239 C   0  0  0  0  0  0  0  0  0  0  0  0
    3.3981    2.3426    0.0818 C   0  0  1  0  0  0  0  0  0  0  0  0
    3.8643    3.3818    1.1007 C   0  0  0  0  0  0  0  0  0  0  0  0
    3.5058    2.8974    2.5155 C   0  0  0  0  0  0  0  0  0  0  0  0
    3.9112    3.8524    3.6263 C   0  0  0  0  0  0  0  0  0  0  0  0
    3.4176    5.2706    3.3729 C   0  0  0  0  0  0  0  0  0  0  0  0
    3.8994    5.7742    2.0187 C   0  0  0  0  0  0  0  0  0  0  0  0
    3.4658    4.8447    0.8760 C   0  0  0  0  0  0  0  0  0  0  0  0
    1.1065    0.8677    0.1372 C   0  0  0  0  0  0  0  0  0  0  0  0
    1.4483   -0.3047    0.2337 O   0  0  0  0  0  0  0  0  0  0  0  0
   -0.4729    1.4160    0.4471 N   0  0  0  0  0  0  0  0  0  0  0  0
   -1.1995    3.0890   -0.2110 C   0  0  0  0  0  0  0  0  0  0  0  0
   -0.7974    3.8290   -1.3131 N   0  0  0  0  0  0  0  0  0  0  0  0
   -1.8387    4.2542   -2.1683 C   0  0  0  0  0  0  0  0  0  0  0  0
   -3.0144    4.5438   -1.4619 C   0  0  0  0  0  0  0  0  0  0  0  0
   -2.5977    4.0732    0.1049 S   0  0  0  0  0  0  0  0  0  0  0  0
   -4.2734    6.0350   -1.4563 S   0  0  0  0  0  0  0  0  0  0  0  0
   -3.1576    7.7403   -2.1217 C   0  0  0  0  0  0  0  0  0  0  0  0
   -1.4188    8.2458   -1.7193 C   0  0  0  0  0  0  0  0  0  0  0  0
   -0.4608    7.1112   -1.5991 N   0  0  0  0  0  0  0  0  0  0  0  0
   -1.4506    6.4792   -0.8316 C   0  0  0  0  0  0  0  0  0  0  0  0
   -1.2468    6.4890    0.6209 C   0  0  0  0  0  0  0  0  0  0  0  0
    0.1102    5.9855    0.5713 C   0  0  0  0  0  0  0  0  0  0  0  0
    0.6315    6.5086   -0.7850 C   0  0  0  0  0  0  0  0  0  0  0  0
   -4.3753    2.5448    1.5924 S   0  0  0  0  0  0  0  0  0  0  0  0
   -4.9418    3.5359    0.6824 O   0  0  0  0  0  0  0  0  0  0  0  0
   -5.1717    1.3550    1.7686 O   0  0  0  0  0  0  0  0  0  0  0  0
   -4.3299    3.4991    3.1524 C   0  0  0  0  0  0  0  0  0  0  0  0
   -3.5796    4.8405    3.3600 C   0  0  0  0  0  0  0  0  0  0  0  0
   -3.3647    3.6471    4.2706 C   0  0  0  0  0  0  0  0  0  0  0  0
    0.9379    3.6059    2.0271 H   0  0  0  0  0  0  0  0  0  0  0  0
   -1.5100    3.2080    2.8259 H   0  0  0  0  0  0  0  0  0  0  0  0
   -2.9833    1.6353   -1.4524 H   0  0  0  0  0  0  0  0  0  0  0  0
   -0.3828    1.9638   -2.5462 H   0  0  0  0  0  0  0  0  0  0  0  0
    3.2260    2.0821   -2.1950 H   0  0  0  0  0  0  0  0  0  0  0  0
    2.7057    3.6760   -1.5947 H   0  0  0  0  0  0  0  0  0  0  0  0
    4.0465    1.4780    0.1841 H   0  0  0  0  0  0  0  0  0  0  0  0
    4.9637    3.3759    1.0510 H   0  0  0  0  0  0  0  0  0  0  0  0
    2.4402    2.7405    2.6045 H   0  0  0  0  0  0  0  0  0  0  0  0
    3.9239    1.9024    2.6928 H   0  0  0  0  0  0  0  0  0  0  0  0
    3.4998    3.4912    4.5759 H   0  0  0  0  0  0  0  0  0  0  0  0
    5.0021    3.8503    3.7175 H   0  0  0  0  0  0  0  0  0  0  0  0
    2.3213    5.3009    3.4084 H   0  0  0  0  0  0  0  0  0  0  0  0
    3.7785    5.9316    4.1700 H   0  0  0  0  0  0  0  0  0  0  0  0
    3.5050    6.7835    1.8470 H   0  0  0  0  0  0  0  0  0  0  0  0
    4.9932    5.8579    2.0347 H   0  0  0  0  0  0  0  0  0  0  0  0
    3.8918    5.2232   -0.0600 H   0  0  0  0  0  0  0  0  0  0  0  0
    2.3879    4.9101    0.7787 H   0  0  0  0  0  0  0  0  0  0  0  0
   -1.0156    0.5380    0.5078 H   0  0  0  0  0  0  0  0  0  0  0  0
   -1.4211    4.7678   -3.0318 H   0  0  0  0  0  0  0  0  0  0  0  0
   -3.1977    7.4027   -3.1474 H   0  0  0  0  0  0  0  0  0  0  0  0
   -3.8162    8.5759   -1.8505 H   0  0  0  0  0  0  0  0  0  0  0  0
   -1.1143    8.9253   -2.5046 H   0  0  0  0  0  0  0  0  0  0  0  0
   -1.4394    8.7626   -0.7462 H   0  0  0  0  0  0  0  0  0  0  0  0
   -1.9040    6.1374   -1.7330 H   0  0  0  0  0  0  0  0  0  0  0  0
   -2.3629    6.9554   -0.5405 H   0  0  0  0  0  0  0  0  0  0  0  0
   -1.3777    7.4922    1.0118 H   0  0  0  0  0  0  0  0  0  0  0  0
   -1.9780    5.9423    1.2026 H   0  0  0  0  0  0  0  0  0  0  0  0
    0.6331    6.1254    1.5038 H   0  0  0  0  0  0  0  0  0  0  0  0
    0.0375    4.9279    0.4879 H   0  0  0  0  0  0  0  0  0  0  0  0
    1.5153    7.1010   -0.6264 H   0  0  0  0  0  0  0  0  0  0  0  0
    0.9827    5.5917   -1.3286 H   0  0  0  0  0  0  0  0  0  0  0  0
   -5.3536    3.4869    3.4772 H   0  0  0  0  0  0  0  0  0  0  0  0
   -2.6491    5.2514    2.9695 H   0  0  0  0  0  0  0  0  0  0  0  0
   -4.1351    5.7012    3.7582 H   0  0  0  0  0  0  0  0  0  0  0  0
   -3.8042    3.7020    5.2649 H   0  0  0  0  0  0  0  0  0  0  0  0
   -2.3914    3.2005    4.3783 H   0  0  0  0  0  0  0  0  0  0  0  0
  1  2  2  0  0  0  0
  1  6  1  0  0  0  0
  1 38  1  0  0  0  0
  2  3  1  0  0  0  0
  2 39  1  0  0  0  0
  3  4  2  0  0  0  0
  3 32  1  0  0  0  0
  4  5  1  0  0  0  0
  4 40  1  0  0  0  0
  5  6  2  0  0  0  0
  5 41  1  0  0  0  0
  7  8  1  0  0  0  0
  7  9  1  0  0  0  0
  7 16  1  6  0  0  0
  7  6  1  0  0  0  0
  8  9  1  0  0  0  0
  8 42  1  0  0  0  0
  8 43  1  0  0  0  0
  9 10  1  0  0  0  0
  9 44  1  1  0  0  0
 10 11  1  0  0  0  0
 10 15  1  0  0  0  0
 10 45  1  0  0  0  0
 11 12  1  0  0  0  0
 11 46  1  0  0  0  0
 11 47  1  0  0  0  0
 12 13  1  0  0  0  0
 12 48  1  0  0  0  0
 12 49  1  0  0  0  0
 13 14  1  0  0  0  0
 13 50  1  0  0  0  0
 13 51  1  0  0  0  0
 14 15  1  0  0  0  0
 14 52  1  0  0  0  0
 14 53  1  0  0  0  0
 15 54  1  0  0  0  0
 15 55  1  0  0  0  0
 16 17  2  0  0  0  0
 16 18  1  0  0  0  0
 18 19  1  0  0  0  0
 18 56  1  0  0  0  0
 19 20  2  0  0  0  0
 19 23  1  0  0  0  0
 20 21  1  0  0  0  0
 21 22  2  0  0  0  0
 21 57  1  0  0  0  0
 22 23  1  0  0  0  0
 22 24  1  0  0  0  0
 24 25  1  0  0  0  0
 25 26  1  0  0  0  0
 25 58  1  0  0  0  0
 25 59  1  0  0  0  0
 26 27  1  0  0  0  0
 26 60  1  0  0  0  0
 26 61  1  0  0  0  0
 27 28  1  0  0  0  0
 27 31  1  0  0  0  0
 28 29  1  0  0  0  0
 28 62  1  0  0  0  0
 28 63  1  0  0  0  0
 29 30  1  0  0  0  0
 29 64  1  0  0  0  0
 29 65  1  0  0  0  0
 30 31  1  0  0  0  0
 30 66  1  0  0  0  0
 30 67  1  0  0  0  0
 31 68  1  0  0  0  0
 31 69  1  0  0  0  0
 32 33  2  0  0  0  0
 32 34  2  0  0  0  0
 32 35  1  0  0  0  0
 35 36  1  0  0  0  0
 35 37  1  0  0  0  0
 35 70  1  0  0  0  0
 36 37  1  0  0  0  0
 36 71  1  0  0  0  0
 36 72  1  0  0  0  0
 37 73  1  0  0  0  0
 37 74  1  0  0  0  0
M  END
>  <DRUGBANK_ID>
DB12284

>  <COMMON_NAME>
LY-2608204

>  <CAS_NUMBER>
1234703-40-2

>  <UNII>
5A0L003HEY

$$$$
