
 OpenBabel10282417243D

165165  0  0  1  0  0  0  0  0999 V2000
    0.9905   -0.0157    0.0544 C   0  0  0  0  0  0  0  0  0  0  0  0
    0.5439    0.6968    1.3205 C   0  0  0  0  0  0  0  0  0  0  0  0
    1.0442    2.1411    1.3175 C   0  0  0  0  0  0  0  0  0  0  0  0
    0.4928    2.9083    0.1120 C   0  0  0  0  0  0  0  0  0  0  0  0
   -1.0406    2.9040    0.1344 C   0  0  0  0  0  0  0  0  0  0  0  0
   -1.5364    3.6028    1.4028 C   0  0  0  0  0  0  0  0  0  0  0  0
   -0.9964    5.0356    1.4102 C   0  0  0  0  0  0  0  0  0  0  0  0
   -1.4144    5.7425    0.1047 C   0  0  0  0  0  0  0  0  0  0  0  0
   -2.9217    5.7197   -0.0442 C   0  0  0  0  0  0  0  0  0  0  0  0
   -3.4466    6.4491    1.1322 C   0  0  0  0  0  0  0  0  0  0  0  0
   -2.9223    7.9205    1.0898 C   0  0  0  0  0  0  0  0  0  0  0  0
   -3.6096    8.7703    0.0718 C   0  0  0  0  0  0  0  0  0  0  0  0
   -5.1255    8.7752    0.3332 C   0  0  0  0  0  0  0  0  0  0  0  0
   -5.6282    9.4806    1.6248 C   0  0  0  0  0  0  0  0  0  0  0  0
   -6.3939   10.4444    1.5274 O   0  0  0  0  0  0  0  0  0  0  0  0
   -5.2965    9.0980    2.9099 N   0  0  0  0  0  0  0  0  0  0  0  0
   -4.6877    7.8350    3.3355 C   0  0  1  0  0  0  0  0  0  0  0  0
   -3.1870    7.8960    3.8969 C   0  0  0  0  0  0  0  0  0  0  0  0
   -3.0134    8.0794    5.3554 C   0  0  0  0  0  0  0  0  0  0  0  0
   -3.2164    6.6939    5.9910 C   0  0  0  0  0  0  0  0  0  0  0  0
   -2.5334    6.5315    7.1383 O   0  0  0  0  0  0  0  0  0  0  0  0
   -3.9688    5.8275    5.6262 O   0  0  0  0  0  0  0  0  0  0  0  0
   -5.5766    6.7403    3.8949 C   0  0  0  0  0  0  0  0  0  0  0  0
   -5.6323    5.6147    3.3897 O   0  0  0  0  0  0  0  0  0  0  0  0
   -6.2163    7.0025    5.0656 N   0  0  0  0  0  0  0  0  0  0  0  0
   -5.9387    8.1618    5.9382 C   0  0  1  0  0  0  0  0  0  0  0  0
   -7.1785    8.9300    6.2294 C   0  0  0  0  0  0  0  0  0  0  0  0
   -5.1045    8.0167    7.2750 C   0  0  0  0  0  0  0  0  0  0  0  0
   -4.2055    8.7886    7.6320 O   0  0  0  0  0  0  0  0  0  0  0  0
   -5.2915    6.9436    8.0685 N   0  0  0  0  0  0  0  0  0  0  0  0
   -6.4936    6.1641    8.0639 C   0  0  1  0  0  0  0  0  0  0  0  0
   -6.3097    4.6607    7.8206 C   0  0  0  0  0  0  0  0  0  0  0  0
   -5.6217    3.9226    8.9182 C   0  0  0  0  0  0  0  0  0  0  0  0
   -7.6999    4.0455    7.7101 C   0  0  0  0  0  0  0  0  0  0  0  0
   -7.3330    6.6778    9.2441 C   0  0  0  0  0  0  0  0  0  0  0  0
   -8.4060    7.2547    9.0447 O   0  0  0  0  0  0  0  0  0  0  0  0
   -6.8973    6.5699   10.5311 N   0  0  0  0  0  0  0  0  0  0  0  0
   -5.6799    5.9058   11.0526 C   0  0  1  0  0  0  0  0  0  0  0  0
   -4.6315    6.8111   11.6837 C   0  0  0  0  0  0  0  0  0  0  0  0
   -5.0327    7.5241   12.8195 O   0  0  0  0  0  0  0  0  0  0  0  0
   -5.9210    4.5472   11.8055 C   0  0  0  0  0  0  0  0  0  0  0  0
   -5.3244    3.4941   11.5797 O   0  0  0  0  0  0  0  0  0  0  0  0
   -6.8596    4.4981   12.7739 N   0  0  0  0  0  0  0  0  0  0  0  0
   -7.2063    5.6786   13.5038 C   0  0  1  0  0  0  0  0  0  0  0  0
   -8.7255    5.9475   13.4517 C   0  0  0  0  0  0  0  0  0  0  0  0
   -9.4269    5.1877   14.5340 C   0  0  0  0  0  0  0  0  0  0  0  0
   -8.9717    6.0198   15.7531 C   0  0  0  0  0  0  0  0  0  0  0  0
  -10.9241    5.0625   14.4925 C   0  0  0  0  0  0  0  0  0  0  0  0
   -6.3199    5.7315   14.8124 C   0  0  0  0  0  0  0  0  0  0  0  0
   -5.7271    6.7549   15.1712 O   0  0  0  0  0  0  0  0  0  0  0  0
   -6.3579    4.7304   15.7471 N   0  0  0  0  0  0  0  0  0  0  0  0
   -7.3245    3.6205   15.8954 C   0  0  1  0  0  0  0  0  0  0  0  0
   -6.5626    2.2949   15.8718 C   0  0  0  0  0  0  0  0  0  0  0  0
   -5.9311    2.0595   17.2174 C   0  0  0  0  0  0  0  0  0  0  0  0
   -7.0183    1.8015   18.2202 C   0  0  0  0  0  0  0  0  0  0  0  0
   -8.1872    0.8983   17.9302 C   0  0  0  0  0  0  0  0  0  0  0  0
   -7.6071   -0.3892   18.0728 N   0  0  0  0  0  0  0  0  0  0  0  0
   -8.7048    3.6659   16.9422 C   0  0  0  0  0  0  0  0  0  0  0  0
   -9.7417    3.0631   16.6187 O   0  0  0  0  0  0  0  0  0  0  0  0
   -8.6466    4.2747   18.2512 N   0  0  0  0  0  0  0  0  0  0  0  0
   -7.5320    4.9908   18.8917 C   0  0  0  0  0  0  0  0  0  0  0  0
   -7.1346    4.1458   20.1010 C   0  0  0  0  0  0  0  0  0  0  0  0
   -8.4569    3.4607   20.5045 C   0  0  0  0  0  0  0  0  0  0  0  0
   -9.4009    3.5838   19.2871 C   0  0  1  0  0  0  0  0  0  0  0  0
  -10.8213    4.0371   19.5414 C   0  0  0  0  0  0  0  0  0  0  0  0
  -11.1370    5.2274   19.5728 O   0  0  0  0  0  0  0  0  0  0  0  0
  -11.7698    3.0625   19.7326 N   0  0  0  0  0  0  0  0  0  0  0  0
  -11.6718    1.5797   19.7127 C   0  0  1  0  0  0  0  0  0  0  0  0
  -12.0186    1.0054   21.0990 C   0  0  1  0  0  0  0  0  0  0  0  0
  -13.4357    1.3433   21.5348 C   0  0  0  0  0  0  0  0  0  0  0  0
  -11.7849   -0.4033   21.1360 O   0  0  0  0  0  0  0  0  0  0  0  0
  -12.5535    0.9580   18.6226 C   0  0  0  0  0  0  0  0  0  0  0  0
  -11.9547    0.1417   17.7383 O   0  0  0  0  0  0  0  0  0  0  0  0
  -13.7919    1.1517   18.5547 O   0  0  0  0  0  0  0  0  0  0  0  0
    0.5959    0.4605   -0.8494 H   0  0  0  0  0  0  0  0  0  0  0  0
    0.6364   -1.0463    0.0445 H   0  0  0  0  0  0  0  0  0  0  0  0
    2.0823   -0.0031   -0.0099 H   0  0  0  0  0  0  0  0  0  0  0  0
   -0.5490    0.6541    1.4019 H   0  0  0  0  0  0  0  0  0  0  0  0
    0.9208    0.1785    2.2056 H   0  0  0  0  0  0  0  0  0  0  0  0
    0.7592    2.6279    2.2587 H   0  0  0  0  0  0  0  0  0  0  0  0
    2.1373    2.1707    1.3027 H   0  0  0  0  0  0  0  0  0  0  0  0
    0.9022    3.9244    0.1092 H   0  0  0  0  0  0  0  0  0  0  0  0
    0.8490    2.4962   -0.8340 H   0  0  0  0  0  0  0  0  0  0  0  0
   -1.4209    3.3836   -0.7734 H   0  0  0  0  0  0  0  0  0  0  0  0
   -1.4622    1.8994    0.0715 H   0  0  0  0  0  0  0  0  0  0  0  0
   -2.6308    3.5700    1.4461 H   0  0  0  0  0  0  0  0  0  0  0  0
   -1.2341    3.0815    2.3149 H   0  0  0  0  0  0  0  0  0  0  0  0
   -1.3262    5.5424    2.3237 H   0  0  0  0  0  0  0  0  0  0  0  0
    0.0903    5.0793    1.5058 H   0  0  0  0  0  0  0  0  0  0  0  0
   -1.0089    6.7536    0.1024 H   0  0  0  0  0  0  0  0  0  0  0  0
   -0.9800    5.3119   -0.7931 H   0  0  0  0  0  0  0  0  0  0  0  0
   -3.2847    6.2106   -0.9464 H   0  0  0  0  0  0  0  0  0  0  0  0
   -3.3656    4.7185   -0.0578 H   0  0  0  0  0  0  0  0  0  0  0  0
   -4.5276    6.2927    1.0569 H   0  0  0  0  0  0  0  0  0  0  0  0
   -3.2043    5.9383    2.0745 H   0  0  0  0  0  0  0  0  0  0  0  0
   -3.1649    8.5527    1.9072 H   0  0  0  0  0  0  0  0  0  0  0  0
   -1.8367    8.0032    1.1834 H   0  0  0  0  0  0  0  0  0  0  0  0
   -3.2242    9.7911    0.1740 H   0  0  0  0  0  0  0  0  0  0  0  0
   -3.3408    8.4071   -0.9199 H   0  0  0  0  0  0  0  0  0  0  0  0
   -5.5689    9.3082   -0.5139 H   0  0  0  0  0  0  0  0  0  0  0  0
   -5.5645    7.7733    0.2775 H   0  0  0  0  0  0  0  0  0  0  0  0
   -5.8497    9.6064    3.5838 H   0  0  0  0  0  0  0  0  0  0  0  0
   -4.6924    7.4211    2.3743 H   0  0  0  0  0  0  0  0  0  0  0  0
   -2.6222    6.9874    3.6579 H   0  0  0  0  0  0  0  0  0  0  0  0
   -2.6056    8.7432    3.5113 H   0  0  0  0  0  0  0  0  0  0  0  0
   -2.0190    8.4355    5.6276 H   0  0  0  0  0  0  0  0  0  0  0  0
   -3.6135    8.9581    5.5784 H   0  0  0  0  0  0  0  0  0  0  0  0
   -2.4956    7.3972    7.5835 H   0  0  0  0  0  0  0  0  0  0  0  0
   -6.4242    6.0855    5.4464 H   0  0  0  0  0  0  0  0  0  0  0  0
   -5.3887    8.8574    5.3264 H   0  0  0  0  0  0  0  0  0  0  0  0
   -7.8257    8.3694    6.8911 H   0  0  0  0  0  0  0  0  0  0  0  0
   -6.8737    9.8609    6.7127 H   0  0  0  0  0  0  0  0  0  0  0  0
   -7.7016    9.1409    5.2958 H   0  0  0  0  0  0  0  0  0  0  0  0
   -4.6139    6.8719    8.8158 H   0  0  0  0  0  0  0  0  0  0  0  0
   -7.0760    6.4768    7.2066 H   0  0  0  0  0  0  0  0  0  0  0  0
   -5.7245    4.4776    6.9154 H   0  0  0  0  0  0  0  0  0  0  0  0
   -6.3319    4.0645    9.7212 H   0  0  0  0  0  0  0  0  0  0  0  0
   -5.5496    2.8420    8.8383 H   0  0  0  0  0  0  0  0  0  0  0  0
   -4.6097    4.2969    9.1089 H   0  0  0  0  0  0  0  0  0  0  0  0
   -8.1834    4.3622    6.7870 H   0  0  0  0  0  0  0  0  0  0  0  0
   -7.6377    2.9559    7.7448 H   0  0  0  0  0  0  0  0  0  0  0  0
   -8.3305    4.3561    8.5542 H   0  0  0  0  0  0  0  0  0  0  0  0
   -7.6390    6.8645   11.1543 H   0  0  0  0  0  0  0  0  0  0  0  0
   -5.1164    5.6562   10.1829 H   0  0  0  0  0  0  0  0  0  0  0  0
   -3.7616    6.1979   11.9398 H   0  0  0  0  0  0  0  0  0  0  0  0
   -4.3266    7.5672   10.9588 H   0  0  0  0  0  0  0  0  0  0  0  0
   -5.8358    8.0297   12.6140 H   0  0  0  0  0  0  0  0  0  0  0  0
   -6.8649    3.5890   13.2202 H   0  0  0  0  0  0  0  0  0  0  0  0
   -6.8891    6.5275   12.9375 H   0  0  0  0  0  0  0  0  0  0  0  0
   -8.8976    7.0155   13.6416 H   0  0  0  0  0  0  0  0  0  0  0  0
   -9.1348    5.7412   12.4601 H   0  0  0  0  0  0  0  0  0  0  0  0
   -9.1595    4.1482   14.3181 H   0  0  0  0  0  0  0  0  0  0  0  0
   -9.6370    6.7950   16.0853 H   0  0  0  0  0  0  0  0  0  0  0  0
   -8.5698    5.5844   16.6262 H   0  0  0  0  0  0  0  0  0  0  0  0
   -8.0762    6.5702   15.5303 H   0  0  0  0  0  0  0  0  0  0  0  0
  -11.2819    4.9381   13.4696 H   0  0  0  0  0  0  0  0  0  0  0  0
  -11.2451    4.1685   15.0466 H   0  0  0  0  0  0  0  0  0  0  0  0
  -11.3641    5.9296   14.9716 H   0  0  0  0  0  0  0  0  0  0  0  0
   -5.8536    5.0554   16.5612 H   0  0  0  0  0  0  0  0  0  0  0  0
   -7.7442    3.5300   14.9146 H   0  0  0  0  0  0  0  0  0  0  0  0
   -7.2546    1.4944   15.5860 H   0  0  0  0  0  0  0  0  0  0  0  0
   -5.7960    2.3139   15.0877 H   0  0  0  0  0  0  0  0  0  0  0  0
   -5.2095    1.2543   17.2428 H   0  0  0  0  0  0  0  0  0  0  0  0
   -5.4037    2.9868   17.4995 H   0  0  0  0  0  0  0  0  0  0  0  0
   -6.6679    1.6332   19.2320 H   0  0  0  0  0  0  0  0  0  0  0  0
   -7.3744    2.7750   18.2669 H   0  0  0  0  0  0  0  0  0  0  0  0
   -8.9421    0.9634   18.7007 H   0  0  0  0  0  0  0  0  0  0  0  0
   -8.7126    1.0558   16.9790 H   0  0  0  0  0  0  0  0  0  0  0  0
   -8.2914   -1.1040   17.8866 H   0  0  0  0  0  0  0  0  0  0  0  0
   -6.8309   -0.4471   17.4221 H   0  0  0  0  0  0  0  0  0  0  0  0
   -7.8900    5.9607   19.2434 H   0  0  0  0  0  0  0  0  0  0  0  0
   -6.7045    5.1290   18.2115 H   0  0  0  0  0  0  0  0  0  0  0  0
   -6.3266    3.4582   19.8217 H   0  0  0  0  0  0  0  0  0  0  0  0
   -6.6672    4.6987   20.9161 H   0  0  0  0  0  0  0  0  0  0  0  0
   -8.2958    2.4061   20.7789 H   0  0  0  0  0  0  0  0  0  0  0  0
   -8.8670    3.9594   21.3812 H   0  0  0  0  0  0  0  0  0  0  0  0
   -9.5752    2.6178   18.8689 H   0  0  0  0  0  0  0  0  0  0  0  0
  -12.7070    3.4472   19.7897 H   0  0  0  0  0  0  0  0  0  0  0  0
  -10.6599    1.2419   19.5254 H   0  0  0  0  0  0  0  0  0  0  0  0
  -11.3243    1.4413   21.8301 H   0  0  0  0  0  0  0  0  0  0  0  0
  -14.1745    0.8705   20.8843 H   0  0  0  0  0  0  0  0  0  0  0  0
  -13.6336    0.9759   22.5431 H   0  0  0  0  0  0  0  0  0  0  0  0
  -13.6006    2.4253   21.5208 H   0  0  0  0  0  0  0  0  0  0  0  0
  -12.4671   -0.8504   20.6014 H   0  0  0  0  0  0  0  0  0  0  0  0
  -10.9793    0.0866   17.7695 H   0  0  0  0  0  0  0  0  0  0  0  0
  1  2  1  0  0  0  0
  1 75  1  0  0  0  0
  1 76  1  0  0  0  0
  1 77  1  0  0  0  0
  2  3  1  0  0  0  0
  2 78  1  0  0  0  0
  2 79  1  0  0  0  0
  3  4  1  0  0  0  0
  3 80  1  0  0  0  0
  3 81  1  0  0  0  0
  4  5  1  0  0  0  0
  4 82  1  0  0  0  0
  4 83  1  0  0  0  0
  5  6  1  0  0  0  0
  5 84  1  0  0  0  0
  5 85  1  0  0  0  0
  6  7  1  0  0  0  0
  6 86  1  0  0  0  0
  6 87  1  0  0  0  0
  7  8  1  0  0  0  0
  7 88  1  0  0  0  0
  7 89  1  0  0  0  0
  8  9  1  0  0  0  0
  8 90  1  0  0  0  0
  8 91  1  0  0  0  0
  9 10  1  0  0  0  0
  9 92  1  0  0  0  0
  9 93  1  0  0  0  0
 10 11  1  0  0  0  0
 10 94  1  0  0  0  0
 10 95  1  0  0  0  0
 11 12  1  0  0  0  0
 11 96  1  0  0  0  0
 11 97  1  0  0  0  0
 12 13  1  0  0  0  0
 12 98  1  0  0  0  0
 12 99  1  0  0  0  0
 13 14  1  0  0  0  0
 13100  1  0  0  0  0
 13101  1  0  0  0  0
 14 15  2  0  0  0  0
 14 16  1  0  0  0  0
 16102  1  0  0  0  0
 17 16  1  0  0  0  0
 17 18  1  0  0  0  0
 17 23  1  0  0  0  0
 17103  1  6  0  0  0
 18 19  1  0  0  0  0
 18104  1  0  0  0  0
 18105  1  0  0  0  0
 19 20  1  0  0  0  0
 19106  1  0  0  0  0
 19107  1  0  0  0  0
 20 21  1  0  0  0  0
 20 22  2  0  0  0  0
 21108  1  0  0  0  0
 23 24  2  0  0  0  0
 23 25  1  0  0  0  0
 25109  1  0  0  0  0
 26 25  1  0  0  0  0
 26 27  1  0  0  0  0
 26 28  1  0  0  0  0
 26110  1  6  0  0  0
 27111  1  0  0  0  0
 27112  1  0  0  0  0
 27113  1  0  0  0  0
 28 29  2  0  0  0  0
 28 30  1  0  0  0  0
 30114  1  0  0  0  0
 31 30  1  0  0  0  0
 31 32  1  0  0  0  0
 31 35  1  0  0  0  0
 31115  1  6  0  0  0
 32 33  1  0  0  0  0
 32 34  1  0  0  0  0
 32116  1  0  0  0  0
 33117  1  0  0  0  0
 33118  1  0  0  0  0
 33119  1  0  0  0  0
 34120  1  0  0  0  0
 34121  1  0  0  0  0
 34122  1  0  0  0  0
 35 36  2  0  0  0  0
 35 37  1  0  0  0  0
 37123  1  0  0  0  0
 38 37  1  0  0  0  0
 38 39  1  0  0  0  0
 38 41  1  0  0  0  0
 38124  1  6  0  0  0
 39 40  1  0  0  0  0
 39125  1  0  0  0  0
 39126  1  0  0  0  0
 40127  1  0  0  0  0
 41 42  2  0  0  0  0
 41 43  1  0  0  0  0
 43128  1  0  0  0  0
 44 43  1  0  0  0  0
 44 45  1  0  0  0  0
 44 49  1  0  0  0  0
 44129  1  6  0  0  0
 45 46  1  0  0  0  0
 45130  1  0  0  0  0
 45131  1  0  0  0  0
 46 47  1  0  0  0  0
 46 48  1  0  0  0  0
 46132  1  0  0  0  0
 47133  1  0  0  0  0
 47134  1  0  0  0  0
 47135  1  0  0  0  0
 48136  1  0  0  0  0
 48137  1  0  0  0  0
 48138  1  0  0  0  0
 49 50  2  0  0  0  0
 49 51  1  0  0  0  0
 51139  1  0  0  0  0
 52 51  1  0  0  0  0
 52 53  1  0  0  0  0
 52 58  1  0  0  0  0
 52140  1  6  0  0  0
 53 54  1  0  0  0  0
 53141  1  0  0  0  0
 53142  1  0  0  0  0
 54 55  1  0  0  0  0
 54143  1  0  0  0  0
 54144  1  0  0  0  0
 55 56  1  0  0  0  0
 55145  1  0  0  0  0
 55146  1  0  0  0  0
 56 57  1  0  0  0  0
 56147  1  0  0  0  0
 56148  1  0  0  0  0
 57149  1  0  0  0  0
 57150  1  0  0  0  0
 58 59  2  0  0  0  0
 58 60  1  0  0  0  0
 60 61  1  0  0  0  0
 61 62  1  0  0  0  0
 61151  1  0  0  0  0
 61152  1  0  0  0  0
 62 63  1  0  0  0  0
 62153  1  0  0  0  0
 62154  1  0  0  0  0
 63155  1  0  0  0  0
 63156  1  0  0  0  0
 64 63  1  0  0  0  0
 64 60  1  0  0  0  0
 64157  1  6  0  0  0
 64 65  1  0  0  0  0
 65 66  2  0  0  0  0
 65 67  1  0  0  0  0
 67158  1  0  0  0  0
 68 67  1  0  0  0  0
 68 69  1  0  0  0  0
 68 72  1  0  0  0  0
 68159  1  6  0  0  0
 69 70  1  0  0  0  0
 69 71  1  0  0  0  0
 69160  1  1  0  0  0
 70161  1  0  0  0  0
 70162  1  0  0  0  0
 70163  1  0  0  0  0
 71164  1  0  0  0  0
 72 73  1  0  0  0  0
 72 74  2  0  0  0  0
 73165  1  0  0  0  0
M  END
>  <DRUGBANK_ID>
DB18564

>  <COMMON_NAME>
YT-001

>  <CAS_NUMBER>
1072301-78-0

>  <UNII>
256XF8BC7R

>  <SYNONYMS>
L-Threonine, N-(1-oxotetradecyl)-L-α-glutamyl-L-alanyl-L-valyl-L-seryl-L-leucyl-L-lysyl-L-prolyl-; N-myristoylated -Glu-Ala-Val-Ser-Leu-Lys-Pro-Thr

$$$$
