804
 OpenBabel10282417113D

 57 58  0  0  0  0  0  0  0  0999 V2000
    0.9930    0.1707    0.0915 O   0  0  0  0  0  0  0  0  0  0  0  0
    1.0818    1.3857   -1.7967 O   0  0  0  0  0  0  0  0  0  0  0  0
    2.4457   -2.2815    1.1587 N   0  0  0  0  0  0  0  0  0  0  0  0
   -1.1829    0.7022   -0.9765 C   0  0  0  0  0  0  0  0  0  0  0  0
   -1.6720    0.3771   -2.4518 C   0  0  0  0  0  0  0  0  0  0  0  0
   -1.6653    2.0708   -0.4262 C   0  0  0  0  0  0  0  0  0  0  0  0
   -1.7123   -0.3814   -0.0044 C   0  0  0  0  0  0  0  0  0  0  0  0
   -1.2179    1.4412   -3.4629 C   0  0  0  0  0  0  0  0  0  0  0  0
   -3.1906    0.1588   -2.6003 C   0  0  0  0  0  0  0  0  0  0  0  0
   -3.1601    2.1849   -0.1310 C   0  0  0  0  0  0  0  0  0  0  0  0
   -3.1963   -0.3636    0.3673 C   0  0  0  0  0  0  0  0  0  0  0  0
   -1.7717    1.2035   -4.8549 C   0  0  0  0  0  0  0  0  0  0  0  0
   -3.7750    0.0429   -3.9814 C   0  0  0  0  0  0  0  0  0  0  0  0
   -3.6947    1.0313    0.7187 C   0  0  0  0  0  0  0  0  0  0  0  0
   -3.2872    1.1731   -4.8530 C   0  0  0  0  0  0  0  0  0  0  0  0
    0.4013    0.7760   -0.9629 C   0  0  0  0  0  0  0  0  0  0  0  0
    2.4349    0.0108    0.0102 C   0  0  0  0  0  0  0  0  0  0  0  0
    2.9499   -0.8893    1.1570 C   0  0  0  0  0  0  0  0  0  0  0  0
    3.0401   -3.1045    2.2245 C   0  0  0  0  0  0  0  0  0  0  0  0
    0.9811   -2.3903    1.1233 C   0  0  0  0  0  0  0  0  0  0  0  0
    2.7694   -2.6680    3.6629 C   0  0  0  0  0  0  0  0  0  0  0  0
    0.2403   -1.7102    2.2765 C   0  0  0  0  0  0  0  0  0  0  0  0
   -1.1991   -0.5752   -2.7385 H   0  0  0  0  0  0  0  0  0  0  0  0
   -1.1410    2.2715    0.5186 H   0  0  0  0  0  0  0  0  0  0  0  0
   -1.3581    2.8837   -1.0905 H   0  0  0  0  0  0  0  0  0  0  0  0
   -1.4311   -1.3856   -0.3454 H   0  0  0  0  0  0  0  0  0  0  0  0
   -1.2098   -0.1914    0.9412 H   0  0  0  0  0  0  0  0  0  0  0  0
   -1.5140    2.4388   -3.1259 H   0  0  0  0  0  0  0  0  0  0  0  0
   -0.1336    1.4424   -3.5704 H   0  0  0  0  0  0  0  0  0  0  0  0
   -3.4901   -0.7611   -2.1175 H   0  0  0  0  0  0  0  0  0  0  0  0
   -3.7348    0.9891   -2.1827 H   0  0  0  0  0  0  0  0  0  0  0  0
   -3.3554    3.1284    0.3885 H   0  0  0  0  0  0  0  0  0  0  0  0
   -3.7397    2.3252   -1.0434 H   0  0  0  0  0  0  0  0  0  0  0  0
   -3.3630   -1.0449    1.2123 H   0  0  0  0  0  0  0  0  0  0  0  0
   -3.8422   -0.8087   -0.3845 H   0  0  0  0  0  0  0  0  0  0  0  0
   -1.4161    2.0016   -5.5107 H   0  0  0  0  0  0  0  0  0  0  0  0
   -1.3793    0.2521   -5.2315 H   0  0  0  0  0  0  0  0  0  0  0  0
   -4.8684    0.0881   -3.8865 H   0  0  0  0  0  0  0  0  0  0  0  0
   -3.5194   -0.9377   -4.3905 H   0  0  0  0  0  0  0  0  0  0  0  0
   -3.3980    1.2250    1.7535 H   0  0  0  0  0  0  0  0  0  0  0  0
   -4.7905    1.0312    0.6912 H   0  0  0  0  0  0  0  0  0  0  0  0
   -3.6760    2.1284   -4.4750 H   0  0  0  0  0  0  0  0  0  0  0  0
   -3.6709    1.0335   -5.8648 H   0  0  0  0  0  0  0  0  0  0  0  0
    2.7253   -0.4233   -0.9556 H   0  0  0  0  0  0  0  0  0  0  0  0
    2.8979    1.0000    0.1127 H   0  0  0  0  0  0  0  0  0  0  0  0
    4.0478   -0.9139    1.1007 H   0  0  0  0  0  0  0  0  0  0  0  0
    2.7018   -0.3879    2.0959 H   0  0  0  0  0  0  0  0  0  0  0  0
    2.6949   -4.1394    2.0981 H   0  0  0  0  0  0  0  0  0  0  0  0
    4.1254   -3.1441    2.0762 H   0  0  0  0  0  0  0  0  0  0  0  0
    0.6349   -2.0078    0.1593 H   0  0  0  0  0  0  0  0  0  0  0  0
    0.6805   -3.4420    1.0694 H   0  0  0  0  0  0  0  0  0  0  0  0
    1.7540   -2.8947    3.9735 H   0  0  0  0  0  0  0  0  0  0  0  0
    3.3826   -3.2268    4.3694 H   0  0  0  0  0  0  0  0  0  0  0  0
    2.9527   -1.6010    3.8138 H   0  0  0  0  0  0  0  0  0  0  0  0
    0.6218   -0.7078    2.5020 H   0  0  0  0  0  0  0  0  0  0  0  0
   -0.8263   -1.6454    2.0871 H   0  0  0  0  0  0  0  0  0  0  0  0
    0.2563   -2.2969    3.1845 H   0  0  0  0  0  0  0  0  0  0  0  0
  1 16  1  0  0  0  0
  1 17  1  0  0  0  0
  2 16  2  0  0  0  0
  3 18  1  0  0  0  0
  3 19  1  0  0  0  0
  3 20  1  0  0  0  0
  4  5  1  0  0  0  0
  4  6  1  0  0  0  0
  4  7  1  0  0  0  0
  4 16  1  0  0  0  0
  5  8  1  0  0  0  0
  5  9  1  0  0  0  0
  5 23  1  0  0  0  0
  6 10  1  0  0  0  0
  6 24  1  0  0  0  0
  6 25  1  0  0  0  0
  7 11  1  0  0  0  0
  7 26  1  0  0  0  0
  7 27  1  0  0  0  0
  8 12  1  0  0  0  0
  8 28  1  0  0  0  0
  8 29  1  0  0  0  0
  9 13  1  0  0  0  0
  9 30  1  0  0  0  0
  9 31  1  0  0  0  0
 10 14  1  0  0  0  0
 10 32  1  0  0  0  0
 10 33  1  0  0  0  0
 11 14  1  0  0  0  0
 11 34  1  0  0  0  0
 11 35  1  0  0  0  0
 12 15  1  0  0  0  0
 12 36  1  0  0  0  0
 12 37  1  0  0  0  0
 13 15  1  0  0  0  0
 13 38  1  0  0  0  0
 13 39  1  0  0  0  0
 14 40  1  0  0  0  0
 14 41  1  0  0  0  0
 15 42  1  0  0  0  0
 15 43  1  0  0  0  0
 17 18  1  0  0  0  0
 17 44  1  0  0  0  0
 17 45  1  0  0  0  0
 18 46  1  0  0  0  0
 18 47  1  0  0  0  0
 19 21  1  0  0  0  0
 19 48  1  0  0  0  0
 19 49  1  0  0  0  0
 20 22  1  0  0  0  0
 20 50  1  0  0  0  0
 20 51  1  0  0  0  0
 21 52  1  0  0  0  0
 21 53  1  0  0  0  0
 21 54  1  0  0  0  0
 22 55  1  0  0  0  0
 22 56  1  0  0  0  0
 22 57  1  0  0  0  0
M  END
>  <DRUGBANK_ID>
DB00804

>  <SECONDARY_ACCESSION_NUMBERS>
APRD00113

>  <COMMON_NAME>
Dicyclomine

>  <CAS_NUMBER>
77-19-0

>  <UNII>
4KV4X8IF6V

>  <SYNONYMS>
2-(diethylamino)ethyl 1-cyclohexylcyclohexanecarboxylate; Bicyclohexyl-1-carboxylic acid 2-diethylamino-ethyl ester; Dicicloverina; Dicyclomine; Dicycloverin; Dicycloverine; Dicycloverinum

$$$$
