
 OpenBabel10282417133D

 86 91  0  0  0  0  0  0  0  0999 V2000
    3.0407   10.8847   -7.0457 P   0  0  3  0  0  0  0  0  0  0  0  0
    3.3625   11.6761   -9.8727 P   0  0  1  0  0  0  0  0  0  0  0  0
    0.2440   10.6982   -4.3303 O   0  0  0  0  0  0  0  0  0  0  0  0
    4.7487   13.1392   -8.2123 O   0  0  0  0  0  0  0  0  0  0  0  0
   -3.0274   11.3603   -5.6052 O   0  0  0  0  0  0  0  0  0  0  0  0
   -1.2428   10.7702   -7.3189 O   0  0  0  0  0  0  0  0  0  0  0  0
    3.9389   14.4998   -5.2483 O   0  0  0  0  0  0  0  0  0  0  0  0
    6.5644   14.3677   -5.4089 O   0  0  0  0  0  0  0  0  0  0  0  0
    2.0950   12.1777   -6.7259 O   0  0  0  0  0  0  0  0  0  0  0  0
    2.0206   12.4395   -9.0920 O   0  0  0  0  0  0  0  0  0  0  0  0
    1.4047    9.2751    0.4062 O   0  0  0  0  0  0  0  0  0  0  0  0
    3.8112   11.1674   -8.3948 O   0  0  0  0  0  0  0  0  0  0  0  0
    2.2647   10.4848  -10.1717 O   0  0  0  0  0  0  0  0  0  0  0  0
    0.0127   11.7177    1.3818 O   0  0  0  0  0  0  0  0  0  0  0  0
    2.1204    9.7615   -7.4429 O   0  5  0  0  0  0  0  0  0  0  0  0
    3.9763   10.9116   -5.8648 O   0  0  0  0  0  0  0  0  0  0  0  0
    4.5634   10.9928  -10.5714 O   0  0  0  0  0  0  0  0  0  0  0  0
   -1.4871   10.4254   -2.9768 N   0  3  0  0  0  0  0  0  0  0  0  0
    6.9777   12.3060   -8.1623 N   0  0  0  0  0  0  0  0  0  0  0  0
    8.2307   10.4165   -8.3985 N   0  0  0  0  0  0  0  0  0  0  0  0
    6.8850   12.8203  -10.6821 N   0  0  0  0  0  0  0  0  0  0  0  0
   -0.3466   13.3571    0.0363 N   0  0  0  0  0  0  0  0  0  0  0  0
    7.5825   10.7977  -11.9757 N   0  0  0  0  0  0  0  0  0  0  0  0
    8.2949    8.8084  -10.8602 N   0  0  0  0  0  0  0  0  0  0  0  0
   -1.1335   10.5459   -4.3717 C   0  0  1  0  0  0  0  0  0  0  0  0
   -1.7107   11.6844   -5.1806 C   0  0  1  0  0  0  0  0  0  0  0  0
   -0.7271   11.6845   -6.3374 C   0  0  1  0  0  0  0  0  0  0  0  0
    0.5234   11.1926   -5.6022 C   0  0  1  0  0  0  0  0  0  0  0  0
    4.4394   14.8061   -6.6092 C   0  0  1  0  0  0  0  0  0  0  0  0
    5.9398   14.3376   -6.6957 C   0  0  2  0  0  0  0  0  0  0  0  0
    3.7310   13.9733   -7.6908 C   0  0  1  0  0  0  0  0  0  0  0  0
    5.8841   12.9512   -7.3707 C   0  0  1  0  0  0  0  0  0  0  0  0
   -0.9298    9.1519    1.0189 C   0  0  1  0  0  0  0  0  0  0  0  0
    1.5146   12.2758   -5.4557 C   0  0  0  0  0  0  0  0  0  0  0  0
   -1.8812    9.8165    2.0166 C   0  0  0  0  0  0  0  0  0  0  0  0
   -1.2191    9.6899   -0.3685 C   0  0  0  0  0  0  0  0  0  0  0  0
    2.5136   13.9087   -8.7275 C   0  0  0  0  0  0  0  0  0  0  0  0
   -1.4126    9.6460    3.4495 C   0  0  0  0  0  0  0  0  0  0  0  0
    0.0462   10.0466    3.6664 C   0  0  0  0  0  0  0  0  0  0  0  0
   -1.1523   11.3846   -2.0645 C   0  0  0  0  0  0  0  0  0  0  0  0
    0.5701    9.2763    1.3182 C   0  0  0  0  0  0  0  0  0  0  0  0
    0.9950    9.2682    2.7621 C   0  0  0  0  0  0  0  0  0  0  0  0
   -0.9499   11.0373   -0.7333 C   0  0  0  0  0  0  0  0  0  0  0  0
   -1.7174    9.1522   -2.6186 C   0  0  0  0  0  0  0  0  0  0  0  0
   -1.6651    8.7650   -1.3147 C   0  0  0  0  0  0  0  0  0  0  0  0
    7.2018   12.1088   -9.5591 C   0  0  0  0  0  0  0  0  0  0  0  0
    7.6797   11.2543   -7.5598 C   0  0  0  0  0  0  0  0  0  0  0  0
    7.8202   10.8530   -9.6209 C   0  0  0  0  0  0  0  0  0  0  0  0
   -0.4059   12.0306    0.2536 C   0  0  0  0  0  0  0  0  0  0  0  0
    7.9059   10.1577  -10.8456 C   0  0  0  0  0  0  0  0  0  0  0  0
    7.1459   12.0749  -11.8278 C   0  0  0  0  0  0  0  0  0  0  0  0
   -0.3420   13.8385   -0.8454 H   0  0  0  0  0  0  0  0  0  0  0  0
    0.0865   13.8382    0.8258 H   0  0  0  0  0  0  0  0  0  0  0  0
    7.8154    8.2765  -11.5757 H   0  0  0  0  0  0  0  0  0  0  0  0
    8.1954    8.4395   -9.9133 H   0  0  0  0  0  0  0  0  0  0  0  0
   -2.9129   10.7906   -6.4052 H   0  0  0  0  0  0  0  0  0  0  0  0
   -0.7394    9.9311   -7.3135 H   0  0  0  0  0  0  0  0  0  0  0  0
    3.9149   13.5232   -5.1208 H   0  0  0  0  0  0  0  0  0  0  0  0
    5.9138   14.0594   -4.7441 H   0  0  0  0  0  0  0  0  0  0  0  0
    1.9569   10.1664   -9.2849 H   0  0  0  0  0  0  0  0  0  0  0  0
   -1.3730    9.6099   -4.8988 H   0  0  0  0  0  0  0  0  0  0  0  0
   -1.6747   12.6414   -4.6564 H   0  0  0  0  0  0  0  0  0  0  0  0
   -0.5943   12.6600   -6.8256 H   0  0  0  0  0  0  0  0  0  0  0  0
    0.8708   10.3165   -6.0950 H   0  0  0  0  0  0  0  0  0  0  0  0
    4.2798   15.8744   -6.7343 H   0  0  0  0  0  0  0  0  0  0  0  0
    6.4605   15.0089   -7.3717 H   0  0  0  0  0  0  0  0  0  0  0  0
    3.0849   13.6522   -6.9176 H   0  0  0  0  0  0  0  0  0  0  0  0
    5.7080   12.2277   -6.5562 H   0  0  0  0  0  0  0  0  0  0  0  0
   -1.1241    8.0688    1.0455 H   0  0  0  0  0  0  0  0  0  0  0  0
    2.2201   12.1472   -4.6255 H   0  0  0  0  0  0  0  0  0  0  0  0
    1.0201   13.2468   -5.2580 H   0  0  0  0  0  0  0  0  0  0  0  0
   -2.0316   10.8843    1.8247 H   0  0  0  0  0  0  0  0  0  0  0  0
   -2.8915    9.4079    1.8826 H   0  0  0  0  0  0  0  0  0  0  0  0
    2.8086   14.3621   -9.6752 H   0  0  0  0  0  0  0  0  0  0  0  0
    1.6118   14.3937   -8.3408 H   0  0  0  0  0  0  0  0  0  0  0  0
   -2.0573   10.2464    4.0992 H   0  0  0  0  0  0  0  0  0  0  0  0
   -1.5372    8.5963    3.7284 H   0  0  0  0  0  0  0  0  0  0  0  0
    0.1705   11.1281    3.5347 H   0  0  0  0  0  0  0  0  0  0  0  0
    0.3215    9.8627    4.7092 H   0  0  0  0  0  0  0  0  0  0  0  0
   -0.9623   12.3876   -2.4317 H   0  0  0  0  0  0  0  0  0  0  0  0
    1.0358    8.2212    3.0722 H   0  0  0  0  0  0  0  0  0  0  0  0
    2.0032    9.6935    2.8241 H   0  0  0  0  0  0  0  0  0  0  0  0
   -1.8297    8.4107   -3.4086 H   0  0  0  0  0  0  0  0  0  0  0  0
   -1.8685    7.7227   -1.0881 H   0  0  0  0  0  0  0  0  0  0  0  0
    7.6664   11.0628   -6.4964 H   0  0  0  0  0  0  0  0  0  0  0  0
    6.9832   12.5619  -12.7925 H   0  0  0  0  0  0  0  0  0  0  0  0
  1  9  1  0  0  0  0
  1 12  1  0  0  0  0
  1 15  1  0  0  0  0
  1 16  2  0  0  0  0
  2 13  1  0  0  0  0
  2 17  2  6  0  0  0
  2 12  1  0  0  0  0
  2 10  1  0  0  0  0
  3 25  1  0  0  0  0
  3 28  1  0  0  0  0
  4 31  1  0  0  0  0
  4 32  1  0  0  0  0
  5 56  1  0  0  0  0
  6 57  1  0  0  0  0
  7 58  1  0  0  0  0
  8 59  1  0  0  0  0
  9 34  1  0  0  0  0
 10 37  1  0  0  0  0
 11 41  2  0  0  0  0
 13 60  1  0  0  0  0
 14 49  2  0  0  0  0
 18 40  2  0  0  0  0
 18 44  1  0  0  0  0
 19 46  1  0  0  0  0
 19 47  1  0  0  0  0
 20 47  2  0  0  0  0
 20 48  1  0  0  0  0
 21 46  2  0  0  0  0
 21 51  1  0  0  0  0
 22 49  1  0  0  0  0
 22 52  1  0  0  0  0
 22 53  1  0  0  0  0
 23 50  1  0  0  0  0
 23 51  2  0  0  0  0
 24 50  1  0  0  0  0
 24 54  1  0  0  0  0
 24 55  1  0  0  0  0
 25 26  1  0  0  0  0
 25 61  1  6  0  0  0
 25 18  1  0  0  0  0
 26  5  1  0  0  0  0
 26 27  1  0  0  0  0
 26 62  1  1  0  0  0
 27  6  1  0  0  0  0
 27 28  1  0  0  0  0
 27 63  1  6  0  0  0
 28 34  1  0  0  0  0
 28 64  1  6  0  0  0
 29  7  1  0  0  0  0
 29 30  1  0  0  0  0
 29 31  1  0  0  0  0
 29 65  1  6  0  0  0
 30  8  1  0  0  0  0
 30 32  1  0  0  0  0
 30 66  1  6  0  0  0
 31 37  1  0  0  0  0
 31 67  1  1  0  0  0
 32 68  1  1  0  0  0
 32 19  1  0  0  0  0
 33 35  1  0  0  0  0
 33 41  1  0  0  0  0
 33 69  1  6  0  0  0
 33 36  1  0  0  0  0
 34 70  1  0  0  0  0
 34 71  1  0  0  0  0
 35 38  1  0  0  0  0
 35 72  1  0  0  0  0
 35 73  1  0  0  0  0
 36 43  2  0  0  0  0
 36 45  1  0  0  0  0
 37 74  1  0  0  0  0
 37 75  1  0  0  0  0
 38 39  1  0  0  0  0
 38 76  1  0  0  0  0
 38 77  1  0  0  0  0
 39 42  1  0  0  0  0
 39 78  1  0  0  0  0
 39 79  1  0  0  0  0
 40 43  1  0  0  0  0
 40 80  1  0  0  0  0
 41 42  1  0  0  0  0
 42 81  1  0  0  0  0
 42 82  1  0  0  0  0
 43 49  1  0  0  0  0
 44 45  2  0  0  0  0
 44 83  1  0  0  0  0
 45 84  1  0  0  0  0
 46 48  1  0  0  0  0
 47 85  1  0  0  0  0
 48 50  2  0  0  0  0
 51 86  1  0  0  0  0
M  CHG  2  15  -1  18   1
M  END
>  <DRUGBANK_ID>
DB03168

>  <SECONDARY_ACCESSION_NUMBERS>
EXPT02318

>  <COMMON_NAME>
Nicotinamide adenine dinucleotide cyclohexanone

$$$$
