
 OpenBabel10282417203D

 12 12  0  0  0  0  0  0  0  0999 V2000
   -2.2695    0.5382    0.0194 O   0  0  0  0  0  0  0  0  0  0  0  0
   -1.1341    0.0961   -0.0154 C   0  0  0  0  0  0  0  0  0  0  0  0
   -0.7610   -1.3570    0.0167 C   0  0  0  0  0  0  0  0  0  0  0  0
    0.7600   -1.3542   -0.0413 C   0  0  0  0  0  0  0  0  0  0  0  0
    1.1288    0.0995   -0.0212 C   0  0  0  0  0  0  0  0  0  0  0  0
    2.2628    0.5436    0.0277 O   0  0  0  0  0  0  0  0  0  0  0  0
   -0.0038    0.8408   -0.0712 N   0  0  0  0  0  0  0  0  0  0  0  0
   -1.1249   -1.8166    0.9405 H   0  0  0  0  0  0  0  0  0  0  0  0
   -1.1916   -1.8741   -0.8452 H   0  0  0  0  0  0  0  0  0  0  0  0
    1.1969   -1.8700    0.8182 H   0  0  0  0  0  0  0  0  0  0  0  0
    1.1214   -1.8087   -0.9683 H   0  0  0  0  0  0  0  0  0  0  0  0
   -0.0049    1.8482   -0.0733 H   0  0  0  0  0  0  0  0  0  0  0  0
  1  2  2  0  0  0  0
  2  3  1  0  0  0  0
  2  7  1  0  0  0  0
  3  4  1  0  0  0  0
  3  8  1  0  0  0  0
  3  9  1  0  0  0  0
  4  5  1  0  0  0  0
  4 10  1  0  0  0  0
  4 11  1  0  0  0  0
  5  6  2  0  0  0  0
  5  7  1  0  0  0  0
  7 12  1  0  0  0  0
M  END
>  <DRUGBANK_ID>
DB13376

>  <COMMON_NAME>
Succinimide

>  <CAS_NUMBER>
123-56-8

>  <UNII>
10X90O3503

$$$$
