CMQ
 OpenBabel10282417163D

 63 64  0  0  0  0  0  0  0  0999 V2000
    4.6957   -1.1042    1.9500 O   0  0  0  0  0  0  0  0  0  0  0  0
    4.4169    0.0540    1.5150 C   0  0  0  0  0  0  0  0  0  0  0  0
    4.0441    1.0120    2.3874 O   0  0  0  0  0  0  0  0  0  0  0  0
    3.7190    2.3627    2.0237 C   0  0  0  0  0  0  0  0  0  0  0  0
    4.8890    3.0982    1.4539 C   0  0  0  0  0  0  0  0  0  0  0  0
    4.7593    3.5075    0.1601 C   0  0  0  0  0  0  0  0  0  0  0  0
    5.8271    4.1326   -0.4394 C   0  0  0  0  0  0  0  0  0  0  0  0
    7.0524    4.3507    0.1191 C   0  0  0  0  0  0  0  0  0  0  0  0
    7.1051    4.1518    1.4687 C   0  0  0  0  0  0  0  0  0  0  0  0
    6.0555    3.4767    2.1278 C   0  0  0  0  0  0  0  0  0  0  0  0
    4.4695    0.3407    0.1955 N   0  0  0  0  0  0  0  0  0  0  0  0
    4.9987   -0.5823   -0.7798 C   0  0  1  0  0  0  0  0  0  0  0  0
    3.7759   -1.1542   -1.6364 C   0  0  0  0  0  0  0  0  0  0  0  0
    3.2533   -0.1219   -2.5927 C   0  0  0  0  0  0  0  0  0  0  0  0
    4.5989   -0.1322   -3.6284 C   0  0  0  0  0  0  0  0  0  0  0  0
    1.7254   -0.4759   -3.1735 C   0  0  0  0  0  0  0  0  0  0  0  0
    6.3833    0.1342   -1.4893 C   0  0  0  0  0  0  0  0  0  0  0  0
    7.3506   -0.6121   -1.7425 O   0  0  0  0  0  0  0  0  0  0  0  0
    6.3335    1.4127   -2.2587 N   0  0  0  0  0  0  0  0  0  0  0  0
    5.1245    2.3948   -2.9190 C   0  0  2  0  0  0  0  0  0  0  0  0
    4.0208    2.2809   -4.3774 C   0  0  1  0  0  0  0  0  0  0  0  0
    4.5763    2.0931   -5.6624 O   0  0  0  0  0  0  0  0  0  0  0  0
    2.8263    1.4215   -4.4519 C   0  0  0  0  0  0  0  0  0  0  0  0
    5.7287    3.7267   -3.3555 C   0  0  0  0  0  0  0  0  0  0  0  0
    4.6232    4.8046   -3.2198 C   0  0  0  0  0  0  0  0  0  0  0  0
    3.2709    4.5244   -2.8304 C   0  0  0  0  0  0  0  0  0  0  0  0
    2.2569    5.4520   -2.8804 C   0  0  0  0  0  0  0  0  0  0  0  0
    2.6380    6.7587   -3.0176 C   0  0  0  0  0  0  0  0  0  0  0  0
    1.7004    7.7415   -3.0024 O   0  0  0  0  0  0  0  0  0  0  0  0
    3.9879    7.1012   -3.1372 C   0  0  0  0  0  0  0  0  0  0  0  0
    4.9718    6.1323   -3.3407 C   0  0  0  0  0  0  0  0  0  0  0  0
    5.3637   -1.4884   -0.2720 H   0  0  0  0  0  0  0  0  0  0  0  0
    4.4816    2.4370   -2.0465 H   0  0  0  0  0  0  0  0  0  0  0  0
    3.4418    3.1921   -4.4750 H   0  0  0  0  0  0  0  0  0  0  0  0
    2.8598    2.3464    1.3339 H   0  0  0  0  0  0  0  0  0  0  0  0
    3.3796    2.9101    2.9062 H   0  0  0  0  0  0  0  0  0  0  0  0
    3.8338    3.3339   -0.3788 H   0  0  0  0  0  0  0  0  0  0  0  0
    5.6765    4.5804   -1.3744 H   0  0  0  0  0  0  0  0  0  0  0  0
    7.8411    4.7918   -0.4840 H   0  0  0  0  0  0  0  0  0  0  0  0
    7.9345    4.5939    2.0048 H   0  0  0  0  0  0  0  0  0  0  0  0
    6.1493    3.2845    3.1877 H   0  0  0  0  0  0  0  0  0  0  0  0
    4.2687    1.2635   -0.1424 H   0  0  0  0  0  0  0  0  0  0  0  0
    4.0805   -1.9770   -2.2953 H   0  0  0  0  0  0  0  0  0  0  0  0
    2.9343   -1.4851   -1.0245 H   0  0  0  0  0  0  0  0  0  0  0  0
    3.1572    0.8060   -1.9774 H   0  0  0  0  0  0  0  0  0  0  0  0
    4.9504   -0.9930   -4.1650 H   0  0  0  0  0  0  0  0  0  0  0  0
    5.1827    0.6629   -4.1312 H   0  0  0  0  0  0  0  0  0  0  0  0
    5.2024   -0.0290   -2.8278 H   0  0  0  0  0  0  0  0  0  0  0  0
    0.9660   -0.6943   -2.4175 H   0  0  0  0  0  0  0  0  0  0  0  0
    1.1458    0.3199   -3.7023 H   0  0  0  0  0  0  0  0  0  0  0  0
    1.8131   -1.2224   -3.9631 H   0  0  0  0  0  0  0  0  0  0  0  0
    7.1840    1.4263   -2.8207 H   0  0  0  0  0  0  0  0  0  0  0  0
    5.4489    2.4790   -5.7024 H   0  0  0  0  0  0  0  0  0  0  0  0
    2.2354    1.6990   -3.5718 H   0  0  0  0  0  0  0  0  0  0  0  0
    2.2505    1.3906   -5.3643 H   0  0  0  0  0  0  0  0  0  0  0  0
    3.0873    0.3842   -4.6219 H   0  0  0  0  0  0  0  0  0  0  0  0
    6.6671    3.9693   -2.8423 H   0  0  0  0  0  0  0  0  0  0  0  0
    6.0772    3.6288   -4.3860 H   0  0  0  0  0  0  0  0  0  0  0  0
    2.9142    3.5390   -2.5392 H   0  0  0  0  0  0  0  0  0  0  0  0
    1.2287    5.1208   -2.7655 H   0  0  0  0  0  0  0  0  0  0  0  0
    0.8251    7.3205   -3.0625 H   0  0  0  0  0  0  0  0  0  0  0  0
    4.2798    8.1392   -3.0584 H   0  0  0  0  0  0  0  0  0  0  0  0
    6.0113    6.4044   -3.4951 H   0  0  0  0  0  0  0  0  0  0  0  0
  1  2  2  0  0  0  0
  2  3  1  0  0  0  0
  2 11  1  0  0  0  0
  3  4  1  0  0  0  0
  4  5  1  0  0  0  0
  4 35  1  0  0  0  0
  4 36  1  0  0  0  0
  5  6  2  0  0  0  0
  5 10  1  0  0  0  0
  6  7  1  0  0  0  0
  6 37  1  0  0  0  0
  7  8  2  0  0  0  0
  7 38  1  0  0  0  0
  8  9  1  0  0  0  0
  8 39  1  0  0  0  0
  9 10  2  0  0  0  0
  9 40  1  0  0  0  0
 10 41  1  0  0  0  0
 11 42  1  0  0  0  0
 12 11  1  0  0  0  0
 12 13  1  0  0  0  0
 12 17  1  0  0  0  0
 12 32  1  1  0  0  0
 13 14  1  0  0  0  0
 13 43  1  0  0  0  0
 13 44  1  0  0  0  0
 14 15  1  0  0  0  0
 14 16  1  0  0  0  0
 14 45  1  0  0  0  0
 15 46  1  0  0  0  0
 15 47  1  0  0  0  0
 15 48  1  0  0  0  0
 16 49  1  0  0  0  0
 16 50  1  0  0  0  0
 16 51  1  0  0  0  0
 17 18  2  0  0  0  0
 17 19  1  0  0  0  0
 19 52  1  0  0  0  0
 20 24  1  0  0  0  0
 20 33  1  1  0  0  0
 20 21  1  0  0  0  0
 20 19  1  0  0  0  0
 21 22  1  0  0  0  0
 21 23  1  0  0  0  0
 21 34  1  6  0  0  0
 22 53  1  0  0  0  0
 23 54  1  0  0  0  0
 23 55  1  0  0  0  0
 23 56  1  0  0  0  0
 24 25  1  0  0  0  0
 24 57  1  0  0  0  0
 24 58  1  0  0  0  0
 25 26  1  0  0  0  0
 25 31  2  0  0  0  0
 26 27  2  0  0  0  0
 26 59  1  0  0  0  0
 27 28  1  0  0  0  0
 27 60  1  0  0  0  0
 28 29  1  0  0  0  0
 28 30  2  0  0  0  0
 29 61  1  0  0  0  0
 30 31  1  0  0  0  0
 30 62  1  0  0  0  0
 31 63  1  0  0  0  0
M  END
>  <DRUGBANK_ID>
DB07571

>  <COMMON_NAME>
N~2~-[(BENZYLOXY)CARBONYL]-N-[(1S,2S)-2-HYDROXY-1-(4-HYDROXYBENZYL)PROPYL]-L-LEUCINAMIDE

$$$$
