
 OpenBabel10282417123D

 29 29  0  0  0  0  0  0  0  0999 V2000
    1.6373   -0.0954   -0.1861 C   0  0  1  0  0  0  0  0  0  0  0  0
    1.2890    0.9363    0.7309 O   0  0  0  0  0  0  0  0  0  0  0  0
    0.0822    1.6403    0.4187 C   0  0  1  0  0  0  0  0  0  0  0  0
   -1.1185    0.6829    0.3428 C   0  0  2  0  0  0  0  0  0  0  0  0
   -0.8087   -0.5079   -0.5812 C   0  0  1  0  0  0  0  0  0  0  0  0
    0.5293   -1.1625   -0.2083 C   0  0  2  0  0  0  0  0  0  0  0  0
    0.9010    2.9337    2.3654 O   0  0  0  0  0  0  0  0  0  0  0  0
    2.4263    2.1571    3.9750 O   0  0  0  0  0  0  0  0  0  0  0  0
   -0.0445    1.6025    4.0492 O   0  0  0  0  0  0  0  0  0  0  0  0
   -0.1941    2.7366    1.4713 C   0  0  0  0  0  0  0  0  0  0  0  0
   -2.2743    1.4053   -0.0804 O   0  0  0  0  0  0  0  0  0  0  0  0
   -1.8622   -1.4724   -0.5146 O   0  0  0  0  0  0  0  0  0  0  0  0
    1.9646    0.4601   -1.4393 O   0  0  0  0  0  0  0  0  0  0  0  0
    0.3777   -1.8111    1.0699 O   0  0  0  0  0  0  0  0  0  0  0  0
    1.3239    1.4671    3.1798 P   0  0  0  0  0  0  0  0  0  0  0  0
    1.7468    0.0006    3.9941 O   0  0  0  0  0  0  0  0  0  0  0  0
    2.5582   -0.5434    0.2085 H   0  0  0  0  0  0  0  0  0  0  0  0
    0.2126    2.1540   -0.5411 H   0  0  0  0  0  0  0  0  0  0  0  0
   -1.3459    0.2905    1.3429 H   0  0  0  0  0  0  0  0  0  0  0  0
   -0.7799   -0.1616   -1.6189 H   0  0  0  0  0  0  0  0  0  0  0  0
    0.7720   -1.9491   -0.9301 H   0  0  0  0  0  0  0  0  0  0  0  0
   -0.0802    2.5106    4.4112 H   0  0  0  0  0  0  0  0  0  0  0  0
   -0.4120    3.6882    0.9761 H   0  0  0  0  0  0  0  0  0  0  0  0
   -1.0855    2.5080    2.0668 H   0  0  0  0  0  0  0  0  0  0  0  0
   -2.1681    1.6665   -1.0113 H   0  0  0  0  0  0  0  0  0  0  0  0
   -1.7758   -1.9289    0.3459 H   0  0  0  0  0  0  0  0  0  0  0  0
    1.1482    0.7166   -1.9142 H   0  0  0  0  0  0  0  0  0  0  0  0
    0.4898   -1.1646    1.7935 H   0  0  0  0  0  0  0  0  0  0  0  0
    2.2798    0.3298    4.7479 H   0  0  0  0  0  0  0  0  0  0  0  0
  1 13  1  0  0  0  0
  1  6  1  0  0  0  0
  1 17  1  1  0  0  0
  2  1  1  0  0  0  0
  3  2  1  0  0  0  0
  3  4  1  0  0  0  0
  3 18  1  6  0  0  0
  3 10  1  0  0  0  0
  4 11  1  0  0  0  0
  4  5  1  0  0  0  0
  4 19  1  1  0  0  0
  5 12  1  0  0  0  0
  5  6  1  0  0  0  0
  5 20  1  6  0  0  0
  6 14  1  0  0  0  0
  6 21  1  6  0  0  0
  7 10  1  0  0  0  0
  9 22  1  0  0  0  0
 10 23  1  0  0  0  0
 10 24  1  0  0  0  0
 11 25  1  0  0  0  0
 12 26  1  0  0  0  0
 13 27  1  0  0  0  0
 14 28  1  0  0  0  0
 15  7  1  0  0  0  0
 15  8  2  0  0  0  0
 15  9  1  0  0  0  0
 15 16  1  0  0  0  0
 16 29  1  0  0  0  0
M  END
>  <DRUGBANK_ID>
DB02900

>  <SECONDARY_ACCESSION_NUMBERS>
EXPT02088

>  <COMMON_NAME>
alpha-D-mannose 6-phosphate

>  <CAS_NUMBER>
40436-60-0

>  <UNII>
C77UQ006XD

>  <SYNONYMS>
(6P)Mana; (6P)Manα; 6-H2PO3Manα; 6-O-phosphono-α-D-mannopyranose; alpha-D-Mannopyranose 6-phosphate; Man6P; α-D-mannose 6-phosphate

$$$$
