
 OpenBabel10282417103D

169174  0  0  0  0  0  0  0  0999 V2000
    1.6100    1.4509   -0.1207 S   0  0  0  0  0  0  0  0  0  0  0  0
    1.2469   -1.3943    2.1762 S   0  0  0  0  0  0  0  0  0  0  0  0
   -0.1955   -0.4964   -1.3114 O   0  0  0  0  0  0  0  0  0  0  0  0
    2.9145   10.9449    1.7459 O   0  0  0  0  0  0  0  0  0  0  0  0
    1.1610    2.7638   -2.2862 O   0  0  0  0  0  0  0  0  0  0  0  0
    4.9313   10.4796   -0.2453 O   0  0  0  0  0  0  0  0  0  0  0  0
   -7.0947    1.7015    4.0286 O   0  0  0  0  0  0  0  0  0  0  0  0
    1.6181    4.1256    8.1806 O   0  0  0  0  0  0  0  0  0  0  0  0
   -6.8673    3.1927    6.2500 O   0  0  0  0  0  0  0  0  0  0  0  0
   -0.3249    2.2393    7.4424 O   0  0  0  0  0  0  0  0  0  0  0  0
   -3.8232    7.3247    4.6591 O   0  0  0  0  0  0  0  0  0  0  0  0
    2.0828    7.8389    4.3858 O   0  0  0  0  0  0  0  0  0  0  0  0
   -5.2592    6.7533    3.0904 O   0  0  0  0  0  0  0  0  0  0  0  0
    1.1267    7.0691    5.9556 O   0  0  0  0  0  0  0  0  0  0  0  0
    1.4810    1.0616   -1.5095 O   0  5  0  0  0  0  0  0  0  0  0  0
    0.6123   -1.8417    0.9431 O   0  5  0  0  0  0  0  0  0  0  0  0
    0.8246    0.8167    0.7959 O   0  0  0  0  0  0  0  0  0  0  0  0
    1.5224    2.9274    0.1828 O   0  0  0  0  0  0  0  0  0  0  0  0
    1.1177   -2.4779    3.1412 O   0  0  0  0  0  0  0  0  0  0  0  0
    0.9991   -0.1039    2.8132 O   0  0  0  0  0  0  0  0  0  0  0  0
   -3.1806    4.1656    1.6023 N   0  3  3  0  0  0  0  0  0  0  0  0
    3.5551    4.8724    2.5510 N   0  3  3  0  0  0  0  0  0  0  0  0
   -2.7126    2.6802    1.5236 C   0  0  3  0  0  0  0  0  0  0  0  0
    3.0782    6.1960    2.8805 C   0  0  3  0  0  0  0  0  0  0  0  0
   -1.7891    2.5067    0.3338 C   0  0  0  0  0  0  0  0  0  0  0  0
    3.5647    7.3724    2.0856 C   0  0  0  0  0  0  0  0  0  0  0  0
   -1.3263    3.6342   -0.4363 C   0  0  0  0  0  0  0  0  0  0  0  0
    4.6291    7.1285    1.2570 C   0  0  0  0  0  0  0  0  0  0  0  0
   -3.2730    4.7698    0.2132 C   0  0  0  0  0  0  0  0  0  0  0  0
    5.0016    4.8595    2.3390 C   0  0  0  0  0  0  0  0  0  0  0  0
   -1.5650    1.1954   -0.1223 C   0  0  0  0  0  0  0  0  0  0  0  0
    3.1863    8.7248    2.2824 C   0  0  0  0  0  0  0  0  0  0  0  0
   -1.8978    4.9936   -0.3520 C   0  0  0  0  0  0  0  0  0  0  0  0
    5.2785    5.7706    1.1563 C   0  0  0  0  0  0  0  0  0  0  0  0
   -2.3751    2.0485    2.9253 C   0  0  0  0  0  0  0  0  0  0  0  0
    1.5480    5.8531    3.0755 C   0  0  0  0  0  0  0  0  0  0  0  0
   -0.7880    1.0137   -1.3314 C   0  0  0  0  0  0  0  0  0  0  0  0
    3.5599    9.7659    1.4790 C   0  0  0  0  0  0  0  0  0  0  0  0
   -0.5425    3.5898   -1.5682 C   0  0  0  0  0  0  0  0  0  0  0  0
    5.0522    8.1673    0.4611 C   0  0  0  0  0  0  0  0  0  0  0  0
   -0.2307    2.3623   -2.1071 C   0  0  0  0  0  0  0  0  0  0  0  0
    4.5155    9.4637    0.5435 C   0  0  0  0  0  0  0  0  0  0  0  0
   -2.3069    5.0605    2.3745 C   0  0  0  0  0  0  0  0  0  0  0  0
    3.2180    4.0463    3.7337 C   0  0  0  0  0  0  0  0  0  0  0  0
   -3.4500    2.1976    4.0207 C   0  0  0  0  0  0  0  0  0  0  0  0
    0.9243    4.8495    4.3658 C   0  0  0  0  0  0  0  0  0  0  0  0
    2.7898    4.4277    1.3533 C   0  0  0  0  0  0  0  0  0  0  0  0
   -4.5116    4.2016    2.2539 C   0  0  0  0  0  0  0  0  0  0  0  0
   -2.9653    6.4961    2.4045 C   0  0  0  0  0  0  0  0  0  0  0  0
    3.1656    5.1387    5.0459 C   0  0  0  0  0  0  0  0  0  0  0  0
   -4.6731    1.5864    3.7677 C   0  0  0  0  0  0  0  0  0  0  0  0
    1.0789    4.8702    5.9728 C   0  0  0  0  0  0  0  0  0  0  0  0
   -3.4034    3.0574    5.1414 C   0  0  0  0  0  0  0  0  0  0  0  0
    0.1813    3.8220    3.9883 C   0  0  0  0  0  0  0  0  0  0  0  0
   -5.8268    1.9913    4.4613 C   0  0  0  0  0  0  0  0  0  0  0  0
    0.9250    4.0307    7.0040 C   0  0  0  0  0  0  0  0  0  0  0  0
   -5.7217    2.8017    5.6081 C   0  0  0  0  0  0  0  0  0  0  0  0
    0.0890    3.1307    6.5247 C   0  0  0  0  0  0  0  0  0  0  0  0
   -4.0810    6.8774    3.4003 C   0  0  0  0  0  0  0  0  0  0  0  0
    2.1232    6.8242    5.2650 C   0  0  0  0  0  0  0  0  0  0  0  0
   -4.4718    3.2266    6.0072 C   0  0  0  0  0  0  0  0  0  0  0  0
   -0.2916    3.1126    5.1041 C   0  0  0  0  0  0  0  0  0  0  0  0
    1.3214   -1.0045   -1.1599 C   0  0  0  0  0  0  0  0  0  0  0  0
    3.2936   12.0456    0.9305 C   0  0  0  0  0  0  0  0  0  0  0  0
    2.0779    3.3001   -3.1710 C   0  0  0  0  0  0  0  0  0  0  0  0
    5.9447   10.1765   -1.1672 C   0  0  0  0  0  0  0  0  0  0  0  0
   -2.6994    8.0608    5.2247 C   0  0  0  0  0  0  0  0  0  0  0  0
    0.6482    8.4170    3.9776 C   0  0  0  0  0  0  0  0  0  0  0  0
   -7.1978    0.9356    2.8347 C   0  0  0  0  0  0  0  0  0  0  0  0
    2.7123    5.1064    8.3131 C   0  0  0  0  0  0  0  0  0  0  0  0
   -6.6823    4.0160    7.4020 C   0  0  0  0  0  0  0  0  0  0  0  0
   -1.2752    1.3600    6.9128 C   0  0  0  0  0  0  0  0  0  0  0  0
   -1.6378    7.1283    5.6973 C   0  0  0  0  0  0  0  0  0  0  0  0
   -0.5004    7.5269    3.3981 C   0  0  0  0  0  0  0  0  0  0  0  0
   -1.1823    6.5917    4.4275 C   0  0  0  0  0  0  0  0  0  0  0  0
    3.3694    1.0274   -0.6383 C   0  0  0  0  0  0  0  0  0  0  0  0
    3.1776   -1.0783    1.7926 C   0  0  0  0  0  0  0  0  0  0  0  0
    4.0024    2.2058   -0.7887 C   0  0  0  0  0  0  0  0  0  0  0  0
    3.8553    0.2258    1.8710 C   0  0  0  0  0  0  0  0  0  0  0  0
    3.9794   -0.2062   -1.2316 C   0  0  0  0  0  0  0  0  0  0  0  0
    3.8536   -2.1393    1.2287 C   0  0  0  0  0  0  0  0  0  0  0  0
    5.2952    2.1821   -1.1606 C   0  0  0  0  0  0  0  0  0  0  0  0
    5.2307    0.3896    1.5166 C   0  0  0  0  0  0  0  0  0  0  0  0
    5.3105   -0.2457   -1.5898 C   0  0  0  0  0  0  0  0  0  0  0  0
    5.2254   -1.9930    0.9774 C   0  0  0  0  0  0  0  0  0  0  0  0
    5.9506    0.9709   -1.4635 C   0  0  0  0  0  0  0  0  0  0  0  0
    5.9159   -0.7595    1.1276 C   0  0  0  0  0  0  0  0  0  0  0  0
   -3.6130    2.1575    1.2057 H   0  0  0  0  0  0  0  0  0  0  0  0
    3.6649    6.4870    3.7598 H   0  0  0  0  0  0  0  0  0  0  0  0
   -3.8941    4.1012   -0.3789 H   0  0  0  0  0  0  0  0  0  0  0  0
   -3.7694    5.7330    0.2742 H   0  0  0  0  0  0  0  0  0  0  0  0
    5.4541    5.2113    3.2756 H   0  0  0  0  0  0  0  0  0  0  0  0
    5.2824    3.8162    2.1729 H   0  0  0  0  0  0  0  0  0  0  0  0
   -1.7197    0.4151    0.6441 H   0  0  0  0  0  0  0  0  0  0  0  0
    2.6327    9.1251    3.1091 H   0  0  0  0  0  0  0  0  0  0  0  0
   -2.0171    5.3545   -1.3786 H   0  0  0  0  0  0  0  0  0  0  0  0
   -1.2186    5.7161    0.1280 H   0  0  0  0  0  0  0  0  0  0  0  0
    6.3532    5.8708    1.0654 H   0  0  0  0  0  0  0  0  0  0  0  0
    4.8893    5.3047    0.2475 H   0  0  0  0  0  0  0  0  0  0  0  0
   -2.0761    0.9943    2.8951 H   0  0  0  0  0  0  0  0  0  0  0  0
   -1.4511    2.4959    3.1807 H   0  0  0  0  0  0  0  0  0  0  0  0
    1.2766    6.8444    3.0130 H   0  0  0  0  0  0  0  0  0  0  0  0
    1.0050    5.7166    2.1271 H   0  0  0  0  0  0  0  0  0  0  0  0
    0.1140    4.4640   -1.7608 H   0  0  0  0  0  0  0  0  0  0  0  0
    5.8202    7.9226   -0.2525 H   0  0  0  0  0  0  0  0  0  0  0  0
   -2.1706    4.5399    3.3123 H   0  0  0  0  0  0  0  0  0  0  0  0
   -1.2973    5.0585    1.9343 H   0  0  0  0  0  0  0  0  0  0  0  0
    3.9108    3.2071    3.8791 H   0  0  0  0  0  0  0  0  0  0  0  0
    2.3326    3.4386    3.4439 H   0  0  0  0  0  0  0  0  0  0  0  0
    3.1340    3.4247    1.2742 H   0  0  0  0  0  0  0  0  0  0  0  0
    1.7148    4.3761    1.5149 H   0  0  0  0  0  0  0  0  0  0  0  0
    2.9142    5.1266    0.5181 H   0  0  0  0  0  0  0  0  0  0  0  0
   -5.1849    3.4641    1.8492 H   0  0  0  0  0  0  0  0  0  0  0  0
   -4.3729    4.2020    3.3302 H   0  0  0  0  0  0  0  0  0  0  0  0
   -4.9123    5.1451    1.9806 H   0  0  0  0  0  0  0  0  0  0  0  0
   -2.3410    7.2256    2.7787 H   0  0  0  0  0  0  0  0  0  0  0  0
   -2.8863    6.9673    1.4218 H   0  0  0  0  0  0  0  0  0  0  0  0
    4.1397    5.2878    5.4669 H   0  0  0  0  0  0  0  0  0  0  0  0
    2.8988    4.2405    5.6566 H   0  0  0  0  0  0  0  0  0  0  0  0
   -4.7218    0.9249    2.9085 H   0  0  0  0  0  0  0  0  0  0  0  0
    1.6708    5.5444    6.5602 H   0  0  0  0  0  0  0  0  0  0  0  0
   -2.5806    3.7111    5.4069 H   0  0  0  0  0  0  0  0  0  0  0  0
   -0.0857    3.7198    2.9435 H   0  0  0  0  0  0  0  0  0  0  0  0
   -4.2865    3.7727    6.9277 H   0  0  0  0  0  0  0  0  0  0  0  0
   -1.1311    2.5002    4.9135 H   0  0  0  0  0  0  0  0  0  0  0  0
    1.6944   -2.0062   -0.8569 H   0  0  0  0  0  0  0  0  0  0  0  0
    1.8938   -0.7412   -2.0603 H   0  0  0  0  0  0  0  0  0  0  0  0
    1.8346   -0.6113   -0.2558 H   0  0  0  0  0  0  0  0  0  0  0  0
    4.3499   12.2772    1.0989 H   0  0  0  0  0  0  0  0  0  0  0  0
    3.0686   11.8348   -0.1210 H   0  0  0  0  0  0  0  0  0  0  0  0
    2.7216   12.9337    1.2063 H   0  0  0  0  0  0  0  0  0  0  0  0
    1.4859    3.5442   -4.0206 H   0  0  0  0  0  0  0  0  0  0  0  0
    2.5597    4.1303   -2.6238 H   0  0  0  0  0  0  0  0  0  0  0  0
    2.9194    2.6207   -3.4105 H   0  0  0  0  0  0  0  0  0  0  0  0
    6.8479    9.8489   -0.6432 H   0  0  0  0  0  0  0  0  0  0  0  0
    5.5852    9.4282   -1.8788 H   0  0  0  0  0  0  0  0  0  0  0  0
    6.1590   11.0999   -1.6973 H   0  0  0  0  0  0  0  0  0  0  0  0
   -2.3139    8.7808    4.4959 H   0  0  0  0  0  0  0  0  0  0  0  0
   -3.0116    8.5985    6.1090 H   0  0  0  0  0  0  0  0  0  0  0  0
    0.8228    9.0347    3.0904 H   0  0  0  0  0  0  0  0  0  0  0  0
    0.2420    8.9986    4.7920 H   0  0  0  0  0  0  0  0  0  0  0  0
   -6.7986    1.4860    1.9731 H   0  0  0  0  0  0  0  0  0  0  0  0
   -6.6981   -0.0318    2.9471 H   0  0  0  0  0  0  0  0  0  0  0  0
   -8.2567    0.7478    2.6502 H   0  0  0  0  0  0  0  0  0  0  0  0
    3.4779    5.0306    7.5247 H   0  0  0  0  0  0  0  0  0  0  0  0
    2.3338    6.1418    8.3197 H   0  0  0  0  0  0  0  0  0  0  0  0
    3.2555    4.9527    9.2459 H   0  0  0  0  0  0  0  0  0  0  0  0
   -6.1047    3.4871    8.1697 H   0  0  0  0  0  0  0  0  0  0  0  0
   -6.2010    4.9704    7.1474 H   0  0  0  0  0  0  0  0  0  0  0  0
   -7.6646    4.2403    7.8197 H   0  0  0  0  0  0  0  0  0  0  0  0
   -2.2030    1.9139    6.8213 H   0  0  0  0  0  0  0  0  0  0  0  0
   -0.9637    0.9085    5.9607 H   0  0  0  0  0  0  0  0  0  0  0  0
   -1.4051    0.5921    7.6513 H   0  0  0  0  0  0  0  0  0  0  0  0
   -0.8664    7.6462    6.2360 H   0  0  0  0  0  0  0  0  0  0  0  0
   -1.9805    6.2650    6.2874 H   0  0  0  0  0  0  0  0  0  0  0  0
   -0.3500    6.9741    2.4369 H   0  0  0  0  0  0  0  0  0  0  0  0
   -1.1166    8.3109    2.9384 H   0  0  0  0  0  0  0  0  0  0  0  0
   -0.7116    5.6950    4.5648 H   0  0  0  0  0  0  0  0  0  0  0  0
   -2.0673    6.0279    4.2085 H   0  0  0  0  0  0  0  0  0  0  0  0
    3.4737    3.0922   -0.4988 H   0  0  0  0  0  0  0  0  0  0  0  0
    3.2682    1.1515    1.8926 H   0  0  0  0  0  0  0  0  0  0  0  0
    3.5907   -1.2320   -1.2656 H   0  0  0  0  0  0  0  0  0  0  0  0
    3.2751   -2.9458    0.7754 H   0  0  0  0  0  0  0  0  0  0  0  0
    5.8195    3.0828   -0.9139 H   0  0  0  0  0  0  0  0  0  0  0  0
    5.6813    1.3642    1.2359 H   0  0  0  0  0  0  0  0  0  0  0  0
    5.8354   -1.2197   -1.5502 H   0  0  0  0  0  0  0  0  0  0  0  0
    5.7016   -2.7987    0.4294 H   0  0  0  0  0  0  0  0  0  0  0  0
    7.0088    0.9500   -1.2727 H   0  0  0  0  0  0  0  0  0  0  0  0
    6.8710   -0.6494    0.6014 H   0  0  0  0  0  0  0  0  0  0  0  0
  1 15  1  0  0  0  0
  1 17  2  0  0  0  0
  1 18  2  0  0  0  0
  1 76  1  0  0  0  0
  2 16  1  0  0  0  0
  2 19  2  0  0  0  0
  2 20  2  0  0  0  0
  2 77  1  0  0  0  0
  3 37  1  0  0  0  0
  3 63  1  0  0  0  0
  4 38  1  0  0  0  0
  4 64  1  0  0  0  0
  5 41  1  0  0  0  0
  5 65  1  0  0  0  0
  6 42  1  0  0  0  0
  6 66  1  0  0  0  0
  7 55  1  0  0  0  0
  7 69  1  0  0  0  0
  8 56  1  0  0  0  0
  8 70  1  0  0  0  0
  9 57  1  0  0  0  0
  9 71  1  0  0  0  0
 10 58  1  0  0  0  0
 10 72  1  0  0  0  0
 11 59  1  0  0  0  0
 11 67  1  0  0  0  0
 12 60  1  0  0  0  0
 12 68  1  0  0  0  0
 13 59  2  0  0  0  0
 14 60  2  0  0  0  0
 21 23  1  0  0  0  0
 21 29  1  0  0  0  0
 21 43  1  0  0  0  0
 21 48  1  0  0  0  0
 22 24  1  0  0  0  0
 22 30  1  0  0  0  0
 22 44  1  0  0  0  0
 22 47  1  0  0  0  0
 23 25  1  0  0  0  0
 23 35  1  0  0  0  0
 23 88  1  0  0  0  0
 24 26  1  0  0  0  0
 24 36  1  0  0  0  0
 24 89  1  0  0  0  0
 25 27  2  0  0  0  0
 25 31  1  0  0  0  0
 26 28  2  0  0  0  0
 26 32  1  0  0  0  0
 27 33  1  0  0  0  0
 27 39  1  0  0  0  0
 28 34  1  0  0  0  0
 28 40  1  0  0  0  0
 29 33  1  0  0  0  0
 29 90  1  0  0  0  0
 29 91  1  0  0  0  0
 30 34  1  0  0  0  0
 30 92  1  0  0  0  0
 30 93  1  0  0  0  0
 31 37  2  0  0  0  0
 31 94  1  0  0  0  0
 32 38  2  0  0  0  0
 32 95  1  0  0  0  0
 33 96  1  0  0  0  0
 33 97  1  0  0  0  0
 34 98  1  0  0  0  0
 34 99  1  0  0  0  0
 35 45  1  0  0  0  0
 35100  1  0  0  0  0
 35101  1  0  0  0  0
 36 46  1  0  0  0  0
 36102  1  0  0  0  0
 36103  1  0  0  0  0
 37 41  1  0  0  0  0
 38 42  1  0  0  0  0
 39 41  2  0  0  0  0
 39104  1  0  0  0  0
 40 42  2  0  0  0  0
 40105  1  0  0  0  0
 43 49  1  0  0  0  0
 43106  1  0  0  0  0
 43107  1  0  0  0  0
 44 50  1  0  0  0  0
 44108  1  0  0  0  0
 44109  1  0  0  0  0
 45 51  2  0  0  0  0
 45 53  1  0  0  0  0
 46 52  2  0  0  0  0
 46 54  1  0  0  0  0
 47110  1  0  0  0  0
 47111  1  0  0  0  0
 47112  1  0  0  0  0
 48113  1  0  0  0  0
 48114  1  0  0  0  0
 48115  1  0  0  0  0
 49 59  1  0  0  0  0
 49116  1  0  0  0  0
 49117  1  0  0  0  0
 50 60  1  0  0  0  0
 50118  1  0  0  0  0
 50119  1  0  0  0  0
 51 55  1  0  0  0  0
 51120  1  0  0  0  0
 52 56  1  0  0  0  0
 52121  1  0  0  0  0
 53 61  2  0  0  0  0
 53122  1  0  0  0  0
 54 62  2  0  0  0  0
 54123  1  0  0  0  0
 55 57  2  0  0  0  0
 56 58  2  0  0  0  0
 57 61  1  0  0  0  0
 58 62  1  0  0  0  0
 61124  1  0  0  0  0
 62125  1  0  0  0  0
 63126  1  0  0  0  0
 63127  1  0  0  0  0
 63128  1  0  0  0  0
 64129  1  0  0  0  0
 64130  1  0  0  0  0
 64131  1  0  0  0  0
 65132  1  0  0  0  0
 65133  1  0  0  0  0
 65134  1  0  0  0  0
 66135  1  0  0  0  0
 66136  1  0  0  0  0
 66137  1  0  0  0  0
 67 73  1  0  0  0  0
 67138  1  0  0  0  0
 67139  1  0  0  0  0
 68 74  1  0  0  0  0
 68140  1  0  0  0  0
 68141  1  0  0  0  0
 69142  1  0  0  0  0
 69143  1  0  0  0  0
 69144  1  0  0  0  0
 70145  1  0  0  0  0
 70146  1  0  0  0  0
 70147  1  0  0  0  0
 71148  1  0  0  0  0
 71149  1  0  0  0  0
 71150  1  0  0  0  0
 72151  1  0  0  0  0
 72152  1  0  0  0  0
 72153  1  0  0  0  0
 73 75  1  0  0  0  0
 73154  1  0  0  0  0
 73155  1  0  0  0  0
 74 75  1  0  0  0  0
 74156  1  0  0  0  0
 74157  1  0  0  0  0
 75158  1  0  0  0  0
 75159  1  0  0  0  0
 76 78  2  0  0  0  0
 76 80  1  0  0  0  0
 77 79  2  0  0  0  0
 77 81  1  0  0  0  0
 78 82  1  0  0  0  0
 78160  1  0  0  0  0
 79 83  1  0  0  0  0
 79161  1  0  0  0  0
 80 84  2  0  0  0  0
 80162  1  0  0  0  0
 81 85  2  0  0  0  0
 81163  1  0  0  0  0
 82 86  2  0  0  0  0
 82164  1  0  0  0  0
 83 87  2  0  0  0  0
 83165  1  0  0  0  0
 84 86  1  0  0  0  0
 84166  1  0  0  0  0
 85 87  1  0  0  0  0
 85167  1  0  0  0  0
 86168  1  0  0  0  0
 87169  1  0  0  0  0
M  CHG  4  15  -1  16  -1  21   1  22   1
M  END
>  <DRUGBANK_ID>
DB00732

>  <SECONDARY_ACCESSION_NUMBERS>
APRD00806

>  <COMMON_NAME>
Atracurium besylate

>  <CAS_NUMBER>
64228-81-5

>  <UNII>
40AX66P76P

>  <SYNONYMS>
Atracurium besilate; Atracurium besylate; Atracurium dibesylate; Besilate d'atracurium; Besilato de atracurio

$$$$
