
 OpenBabel10282417123D

 32 32  0  0  1  0  0  0  0  0999 V2000
    0.8882   -0.4029    0.4033 C   0  0  0  0  0  0  0  0  0  0  0  0
    0.2682    1.1323    0.4107 C   0  0  2  0  0  0  0  0  0  0  0  0
   -0.9102    0.9110   -0.4764 C   0  0  2  0  0  0  0  0  0  0  0  0
   -0.3099    1.0900   -1.9396 C   0  0  1  0  0  0  0  0  0  0  0  0
   -0.2309    2.5512   -2.2907 C   0  0  2  0  0  0  0  0  0  0  0  0
    0.8251    2.9951   -1.3155 C   0  0  1  0  0  0  0  0  0  0  0  0
    0.5338   -1.2436   -0.7283 O   0  0  0  0  0  0  0  0  0  0  0  0
   -2.0009    1.7745   -0.1532 O   0  0  0  0  0  0  0  0  0  0  0  0
    1.2828    4.3109   -1.5580 O   0  0  0  0  0  0  0  0  0  0  0  0
    3.4696    1.7617   -2.5471 O   0  0  0  0  0  0  0  0  0  0  0  0
    2.8015    1.0637   -0.3585 O   0  0  0  0  0  0  0  0  0  0  0  0
    3.4192   -0.6277   -2.0763 O   0  0  0  0  0  0  0  0  0  0  0  0
   -0.6053    5.7232   -2.5926 O   0  0  0  0  0  0  0  0  0  0  0  0
   -1.1553    4.2062   -4.4460 O   0  0  0  0  0  0  0  0  0  0  0  0
   -2.9512    5.0972   -2.9020 O   0  0  0  0  0  0  0  0  0  0  0  0
    0.7786    2.4947    0.0428 O   0  0  0  0  0  0  0  0  0  0  0  0
    1.1040    0.4845   -2.3526 O   0  0  0  0  0  0  0  0  0  0  0  0
   -1.3945    3.3332   -2.1335 O   0  0  0  0  0  0  0  0  0  0  0  0
    2.7383    0.5768   -1.7318 S   0  0  0  0  0  0  0  0  0  0  0  0
   -1.6198    4.5957   -3.1316 S   0  0  0  0  0  0  0  0  0  0  0  0
    0.0995    1.3010    1.4792 H   0  0  0  0  0  0  0  0  0  0  0  0
   -1.3294   -0.0866   -0.3107 H   0  0  0  0  0  0  0  0  0  0  0  0
   -1.0452    0.6061   -2.6049 H   0  0  0  0  0  0  0  0  0  0  0  0
    0.1230    2.6051   -3.3280 H   0  0  0  0  0  0  0  0  0  0  0  0
    1.6690    2.5113   -1.6891 H   0  0  0  0  0  0  0  0  0  0  0  0
    0.3791   -0.9442    1.2051 H   0  0  0  0  0  0  0  0  0  0  0  0
    1.9446   -0.5813    0.5940 H   0  0  0  0  0  0  0  0  0  0  0  0
    0.7000   -0.8068   -1.5808 H   0  0  0  0  0  0  0  0  0  0  0  0
   -1.7216    2.4123    0.5306 H   0  0  0  0  0  0  0  0  0  0  0  0
    1.8516    4.2711   -2.3604 H   0  0  0  0  0  0  0  0  0  0  0  0
    2.8852    2.2032   -3.1750 H   0  0  0  0  0  0  0  0  0  0  0  0
   -0.7598    5.9067   -1.6439 H   0  0  0  0  0  0  0  0  0  0  0  0
  1 26  1  0  0  0  0
  1 27  1  0  0  0  0
  2  1  1  0  0  0  0
  2 21  1  1  0  0  0
  3  2  1  0  0  0  0
  3 22  1  1  0  0  0
  3  8  1  0  0  0  0
  4  3  1  0  0  0  0
  4 17  1  0  0  0  0
  4 23  1  6  0  0  0
  5  4  1  0  0  0  0
  5 24  1  6  0  0  0
  5 18  1  0  0  0  0
  6  5  1  0  0  0  0
  6 25  1  6  0  0  0
  6  9  1  0  0  0  0
  7  1  1  0  0  0  0
  7 28  1  0  0  0  0
  8 29  1  0  0  0  0
  9 30  1  0  0  0  0
 10 31  1  0  0  0  0
 13 32  1  0  0  0  0
 16  2  1  0  0  0  0
 16  6  1  0  0  0  0
 19 10  1  0  0  0  0
 19 11  2  0  0  0  0
 19 12  2  0  0  0  0
 19 17  1  0  0  0  0
 20 13  1  0  0  0  0
 20 14  2  0  0  0  0
 20 15  2  0  0  0  0
 20 18  1  0  0  0  0
M  END
>  <DRUGBANK_ID>
DB02879

>  <SECONDARY_ACCESSION_NUMBERS>
EXPT02535

>  <COMMON_NAME>
2,3-Di-O-Sulfo-Alpha-D-Glucopyranose

$$$$
