Sialyllactose.mol
 OpenBabel10282417173D

 25 26  0  0  0  0  0  0  0  0999 V2000
    1.1207   -0.2877   -0.0249 N   0  0  0  0  0  0  0  0  0  0  0  0
    0.5561    0.1381    1.2610 C   0  0  0  0  0  0  0  0  0  0  0  0
    1.0070    1.5343    1.6899 C   0  0  0  0  0  0  0  0  0  0  0  0
    0.5956    2.6692    0.7959 C   0  0  0  0  0  0  0  0  0  0  0  0
   -0.0644    2.6629   -0.4172 C   0  0  0  0  0  0  0  0  0  0  0  0
   -0.0613    3.9369   -0.9245 N   0  0  0  0  0  0  0  0  0  0  0  0
    0.4765    4.8029   -0.0023 C   0  0  0  0  0  0  0  0  0  0  0  0
    0.6537    6.1898   -0.0565 C   0  0  0  0  0  0  0  0  0  0  0  0
    1.2011    6.8129    1.0730 C   0  0  0  0  0  0  0  0  0  0  0  0
    1.5679    6.0660    2.1873 C   0  0  0  0  0  0  0  0  0  0  0  0
    2.0950    6.6479    3.3038 O   0  0  0  0  0  0  0  0  0  0  0  0
    1.4196    4.6845    2.2143 C   0  0  0  0  0  0  0  0  0  0  0  0
    0.8608    4.0403    1.0963 C   0  0  0  0  0  0  0  0  0  0  0  0
    0.8174    0.3696   -0.7418 H   0  0  0  0  0  0  0  0  0  0  0  0
    2.1319   -0.1574    0.0020 H   0  0  0  0  0  0  0  0  0  0  0  0
   -0.5378    0.0945    1.2205 H   0  0  0  0  0  0  0  0  0  0  0  0
    0.8801   -0.5839    2.0186 H   0  0  0  0  0  0  0  0  0  0  0  0
    0.6319    1.7279    2.7038 H   0  0  0  0  0  0  0  0  0  0  0  0
    2.1041    1.5459    1.7655 H   0  0  0  0  0  0  0  0  0  0  0  0
   -0.5069    1.8667   -1.0012 H   0  0  0  0  0  0  0  0  0  0  0  0
   -0.4176    4.1994   -1.8294 H   0  0  0  0  0  0  0  0  0  0  0  0
    0.3732    6.7624   -0.9335 H   0  0  0  0  0  0  0  0  0  0  0  0
    1.3304    7.8904    1.0596 H   0  0  0  0  0  0  0  0  0  0  0  0
    2.1483    7.6053    3.1593 H   0  0  0  0  0  0  0  0  0  0  0  0
    1.7171    4.1175    3.0899 H   0  0  0  0  0  0  0  0  0  0  0  0
  1  2  1  0  0  0  0
  1 14  1  0  0  0  0
  1 15  1  0  0  0  0
  2  3  1  0  0  0  0
  2 16  1  0  0  0  0
  2 17  1  0  0  0  0
  3  4  1  0  0  0  0
  3 18  1  0  0  0  0
  3 19  1  0  0  0  0
  4  5  2  0  0  0  0
  4 13  1  0  0  0  0
  5  6  1  0  0  0  0
  5 20  1  0  0  0  0
  6  7  1  0  0  0  0
  6 21  1  0  0  0  0
  7  8  2  0  0  0  0
  7 13  1  0  0  0  0
  8  9  1  0  0  0  0
  8 22  1  0  0  0  0
  9 10  2  0  0  0  0
  9 23  1  0  0  0  0
 10 11  1  0  0  0  0
 10 12  1  0  0  0  0
 11 24  1  0  0  0  0
 12 13  2  0  0  0  0
 12 25  1  0  0  0  0
M  END
>  <DRUGBANK_ID>
DB08839

>  <COMMON_NAME>
Serotonin

>  <CAS_NUMBER>
50-67-9

>  <UNII>
333DO1RDJY

>  <SYNONYMS>
3-(2-Aminoethyl)-1H-indol-5-ol; 5-HT; 5-Hydroxytryptamine; Enteramine; s√©rotonine; thrombocytin; thrombotonin

$$$$
