1216
 OpenBabel10282417113D

 63 66  0  0  1  0  0  0  0  0999 V2000
    7.5918   -1.9612    5.3252 O   0  0  0  0  0  0  0  0  0  0  0  0
    7.2513    6.4251   -1.6901 O   0  0  0  0  0  0  0  0  0  0  0  0
    9.8971    5.5510   -1.3919 N   0  0  0  0  0  0  0  0  0  0  0  0
    6.3860   -1.2691    3.2781 N   0  0  0  0  0  0  0  0  0  0  0  0
    8.6215    2.5768    4.4591 C   0  0  2  0  0  0  0  0  0  0  0  0
    7.2233    2.0780    4.4447 C   0  0  1  0  0  0  0  0  0  0  0  0
    9.1322    2.6917    2.9284 C   0  0  1  0  0  0  0  0  0  0  0  0
    8.3224    3.6232    2.0121 C   0  0  1  0  0  0  0  0  0  0  0  0
    8.8342    3.6398    0.4171 C   0  0  1  0  0  0  0  0  0  0  0  0
    6.8538    0.7102    5.5617 C   0  0  2  0  0  0  0  0  0  0  0  0
    6.3213    3.3842    3.6039 C   0  0  0  0  0  0  0  0  0  0  0  0
    6.7914    3.4760    2.1414 C   0  0  0  0  0  0  0  0  0  0  0  0
    9.2245    1.4696    5.3483 C   0  0  0  0  0  0  0  0  0  0  0  0
   10.5516    3.1162    2.8374 C   0  0  0  0  0  0  0  0  0  0  0  0
    8.1275    0.9761    6.3689 C   0  0  0  0  0  0  0  0  0  0  0  0
   10.1470    4.3930    0.1351 C   0  0  1  0  0  0  0  0  0  0  0  0
   11.0873    3.4285    1.2484 C   0  0  0  0  0  0  0  0  0  0  0  0
    7.5391    0.9017    3.6335 C   0  0  0  0  0  0  0  0  0  0  0  0
    8.8111    2.2746   -0.2671 C   0  0  0  0  0  0  0  0  0  0  0  0
    8.1177    4.7840   -0.1594 C   0  0  0  0  0  0  0  0  0  0  0  0
    6.8850   -1.0681    4.8269 C   0  0  0  0  0  0  0  0  0  0  0  0
    8.6891    6.0397   -0.1198 C   0  0  0  0  0  0  0  0  0  0  0  0
    8.3847    6.4142   -1.5195 C   0  0  0  0  0  0  0  0  0  0  0  0
    5.7153   -0.0225    2.3368 C   0  0  0  0  0  0  0  0  0  0  0  0
    6.6656    0.4894    1.0445 C   0  0  0  0  0  0  0  0  0  0  0  0
    4.4638   -0.3852    1.6761 C   0  0  0  0  0  0  0  0  0  0  0  0
    4.8994    1.0804    3.3421 C   0  0  0  0  0  0  0  0  0  0  0  0
    8.6402    3.5586    4.9300 H   0  0  0  0  0  0  0  0  0  0  0  0
    9.2071    1.6901    2.4944 H   0  0  0  0  0  0  0  0  0  0  0  0
    8.5001    4.6184    2.4529 H   0  0  0  0  0  0  0  0  0  0  0  0
   10.1905    5.0956    1.0176 H   0  0  0  0  0  0  0  0  0  0  0  0
   10.2414    6.6354   -1.4229 H   0  0  0  0  0  0  0  0  0  0  0  0
    7.0775   -1.8294    2.7388 H   0  0  0  0  0  0  0  0  0  0  0  0
    5.8997    0.8765    6.0848 H   0  0  0  0  0  0  0  0  0  0  0  0
    5.2111    3.4244    3.5418 H   0  0  0  0  0  0  0  0  0  0  0  0
    6.4506    4.3863    4.0468 H   0  0  0  0  0  0  0  0  0  0  0  0
    6.4692    2.5861    1.6636 H   0  0  0  0  0  0  0  0  0  0  0  0
    6.2116    4.1933    1.5323 H   0  0  0  0  0  0  0  0  0  0  0  0
   10.1246    1.8225    5.8071 H   0  0  0  0  0  0  0  0  0  0  0  0
    9.5430    0.6184    4.7321 H   0  0  0  0  0  0  0  0  0  0  0  0
   11.0799    2.2385    3.2716 H   0  0  0  0  0  0  0  0  0  0  0  0
   10.6768    3.9303    3.5553 H   0  0  0  0  0  0  0  0  0  0  0  0
    7.8886    1.7887    7.0602 H   0  0  0  0  0  0  0  0  0  0  0  0
    8.4673    0.0885    6.8979 H   0  0  0  0  0  0  0  0  0  0  0  0
   11.0194    2.4077    0.8966 H   0  0  0  0  0  0  0  0  0  0  0  0
   12.1133    3.6895    1.4202 H   0  0  0  0  0  0  0  0  0  0  0  0
    7.6609    1.0596    2.6648 H   0  0  0  0  0  0  0  0  0  0  0  0
    8.2454    0.0790    3.7669 H   0  0  0  0  0  0  0  0  0  0  0  0
    6.6454    0.4498    3.7903 H   0  0  0  0  0  0  0  0  0  0  0  0
    7.7789    2.0248   -0.4646 H   0  0  0  0  0  0  0  0  0  0  0  0
    9.3063    2.2233   -1.2355 H   0  0  0  0  0  0  0  0  0  0  0  0
    9.2821    1.4878    0.3517 H   0  0  0  0  0  0  0  0  0  0  0  0
    7.4084    4.9927    0.5710 H   0  0  0  0  0  0  0  0  0  0  0  0
    9.9113    6.3741    0.1518 H   0  0  0  0  0  0  0  0  0  0  0  0
    7.1570   -0.2809    0.4489 H   0  0  0  0  0  0  0  0  0  0  0  0
    6.1286    1.2168    0.4206 H   0  0  0  0  0  0  0  0  0  0  0  0
    7.5765    1.0649    1.2012 H   0  0  0  0  0  0  0  0  0  0  0  0
    3.8730   -0.7651    2.5036 H   0  0  0  0  0  0  0  0  0  0  0  0
    4.0556    0.5717    1.2903 H   0  0  0  0  0  0  0  0  0  0  0  0
    4.7034   -1.0809    0.8950 H   0  0  0  0  0  0  0  0  0  0  0  0
    4.2255    0.7000    4.1172 H   0  0  0  0  0  0  0  0  0  0  0  0
    5.3954    1.5446    4.1614 H   0  0  0  0  0  0  0  0  0  0  0  0
    4.6322    1.9447    2.7536 H   0  0  0  0  0  0  0  0  0  0  0  0
  1 21  2  0  0  0  0
  2 23  2  0  0  0  0
  3 16  1  0  0  0  0
  3 23  1  0  0  0  0
  3 32  1  0  0  0  0
  4 21  1  0  0  0  0
  4 24  1  0  0  0  0
  4 33  1  0  0  0  0
  5  6  1  0  0  0  0
  5  7  1  0  0  0  0
  5 13  1  0  0  0  0
  5 28  1  1  0  0  0
  6 10  1  0  0  0  0
  6 11  1  0  0  0  0
  6 18  1  6  0  0  0
  7  8  1  0  0  0  0
  7 14  1  0  0  0  0
  7 29  1  6  0  0  0
  8  9  1  0  0  0  0
  8 12  1  0  0  0  0
  8 30  1  1  0  0  0
  9 16  1  0  0  0  0
  9 19  1  6  0  0  0
  9 20  1  0  0  0  0
 10 15  1  0  0  0  0
 10 21  1  0  0  0  0
 10 34  1  1  0  0  0
 11 12  1  0  0  0  0
 11 35  1  0  0  0  0
 11 36  1  0  0  0  0
 12 37  1  0  0  0  0
 12 38  1  0  0  0  0
 13 15  1  0  0  0  0
 13 39  1  0  0  0  0
 13 40  1  0  0  0  0
 14 17  1  0  0  0  0
 14 41  1  0  0  0  0
 14 42  1  0  0  0  0
 15 43  1  0  0  0  0
 15 44  1  0  0  0  0
 16 17  1  0  0  0  0
 16 31  1  1  0  0  0
 17 45  1  0  0  0  0
 17 46  1  0  0  0  0
 18 47  1  0  0  0  0
 18 48  1  0  0  0  0
 18 49  1  0  0  0  0
 19 50  1  0  0  0  0
 19 51  1  0  0  0  0
 19 52  1  0  0  0  0
 20 22  2  0  0  0  0
 20 53  1  0  0  0  0
 22 23  1  0  0  0  0
 22 54  1  0  0  0  0
 24 25  1  0  0  0  0
 24 26  1  0  0  0  0
 24 27  1  0  0  0  0
 25 55  1  0  0  0  0
 25 56  1  0  0  0  0
 25 57  1  0  0  0  0
 26 58  1  0  0  0  0
 26 59  1  0  0  0  0
 26 60  1  0  0  0  0
 27 61  1  0  0  0  0
 27 62  1  0  0  0  0
 27 63  1  0  0  0  0
M  END
>  <DRUGBANK_ID>
DB01216

>  <SECONDARY_ACCESSION_NUMBERS>
APRD00632; DB07774

>  <COMMON_NAME>
Finasteride

>  <CAS_NUMBER>
98319-26-7

>  <UNII>
57GNO57U7G

>  <SYNONYMS>
(5alpha,17beta)-(1,1-Dimethylethyl)-3-oxo-4-azaandrost-1-ene-17-carboxamide; Finasterida; Finasteride; Finasteridum

$$$$
