
 OpenBabel10282417233D

 12 12  0  0  0  0  0  0  0  0999 V2000
   -2.6780   -0.1302   -0.0243 O   0  0  0  0  0  0  0  0  0  0  0  0
   -1.4556   -0.0360    0.0077 C   0  0  0  0  0  0  0  0  0  0  0  0
   -0.5596   -1.2567    0.0578 C   0  0  0  0  0  0  0  0  0  0  0  0
    0.8505   -1.1650   -0.0394 O   0  0  0  0  0  0  0  0  0  0  0  0
    1.4556    0.0360   -0.0077 C   0  0  0  0  0  0  0  0  0  0  0  0
    2.6780    0.1302    0.0243 O   0  0  0  0  0  0  0  0  0  0  0  0
    0.5596    1.2567   -0.0578 C   0  0  0  0  0  0  0  0  0  0  0  0
   -0.8505    1.1650    0.0394 O   0  0  0  0  0  0  0  0  0  0  0  0
   -0.7750   -1.7673    1.0030 H   0  0  0  0  0  0  0  0  0  0  0  0
   -0.8820   -1.9155   -0.7564 H   0  0  0  0  0  0  0  0  0  0  0  0
    0.7750    1.7673   -1.0030 H   0  0  0  0  0  0  0  0  0  0  0  0
    0.8820    1.9155    0.7564 H   0  0  0  0  0  0  0  0  0  0  0  0
  1  2  2  0  0  0  0
  2  3  1  0  0  0  0
  2  8  1  0  0  0  0
  3  4  1  0  0  0  0
  3  9  1  0  0  0  0
  3 10  1  0  0  0  0
  4  5  1  0  0  0  0
  5  6  2  0  0  0  0
  5  7  1  0  0  0  0
  7  8  1  0  0  0  0
  7 11  1  0  0  0  0
  7 12  1  0  0  0  0
M  END
>  <DRUGBANK_ID>
DB16177

>  <COMMON_NAME>
ABH001

>  <CAS_NUMBER>
502-97-6

>  <UNII>
YRZ676PGU6

>  <SYNONYMS>
Glycolide

$$$$
