D42
 OpenBabel10282417163D

 54 58  0  0  0  0  0  0  0  0999 V2000
    0.3753   -1.1986    0.2317 C   0  0  0  0  0  0  0  0  0  0  0  0
   -1.1231   -1.1976   -0.1467 C   0  0  0  0  0  0  0  0  0  0  0  0
   -1.8443    0.0294    0.2878 N   0  0  0  0  0  0  0  0  0  0  0  0
   -1.0920    1.1902   -0.2753 C   0  0  0  0  0  0  0  0  0  0  0  0
    0.4108    1.1792    0.1224 C   0  0  0  0  0  0  0  0  0  0  0  0
    1.0755   -0.0430   -0.3699 N   0  0  0  0  0  0  0  0  0  0  0  0
    2.4788   -0.0234    0.0290 C   0  0  0  0  0  0  0  0  0  0  0  0
   -1.9952    0.0609    1.7497 N   0  0  0  0  0  0  0  0  0  0  0  0
   -1.6665    1.1732    2.5201 C   0  0  0  0  0  0  0  0  0  0  0  0
   -1.8646    1.0583    3.8847 N   0  0  0  0  0  0  0  0  0  0  0  0
   -1.4769    2.1457    4.7322 C   0  0  0  0  0  0  0  0  0  0  0  0
   -1.6560    3.4760    4.2960 C   0  0  0  0  0  0  0  0  0  0  0  0
   -1.3339    4.5892    5.0882 C   0  0  0  0  0  0  0  0  0  0  0  0
   -0.8139    4.4232    6.3718 C   0  0  0  0  0  0  0  0  0  0  0  0
   -0.6117    3.1289    6.8174 C   0  0  0  0  0  0  0  0  0  0  0  0
   -0.9426    1.9968    6.0048 C   0  0  0  0  0  0  0  0  0  0  0  0
   -0.1331    2.6250    8.0808 C   0  0  0  0  0  0  0  0  0  0  0  0
   -0.1695    1.2266    8.0648 C   0  0  0  0  0  0  0  0  0  0  0  0
   -0.5943    0.7558    6.7709 C   0  0  0  0  0  0  0  0  0  0  0  0
    0.3178    3.1149    9.2299 N   0  0  0  0  0  0  0  0  0  0  0  0
    0.5709    1.9775    9.9584 N   0  0  0  0  0  0  0  0  0  0  0  0
    0.2402    0.8001    9.3078 C   0  0  0  0  0  0  0  0  0  0  0  0
    0.5615   -0.5223    9.7566 C   0  0  0  0  0  0  0  0  0  0  0  0
    1.8129   -1.2656    8.8525 S   0  0  0  0  0  0  0  0  0  0  0  0
    1.5924   -2.7305    9.6889 C   0  0  0  0  0  0  0  0  0  0  0  0
    0.7186   -2.6803   10.6805 N   0  0  0  0  0  0  0  0  0  0  0  0
    0.1144   -1.3948   10.7529 C   0  0  0  0  0  0  0  0  0  0  0  0
   -0.9227   -1.1714   11.8274 C   0  0  0  0  0  0  0  0  0  0  0  0
    2.4278   -3.8758    9.2035 C   0  0  0  0  0  0  0  0  0  0  0  0
   -1.1588    2.1944    2.0612 O   0  0  0  0  0  0  0  0  0  0  0  0
   -0.6625   -0.3983    6.3560 O   0  0  0  0  0  0  0  0  0  0  0  0
    0.8337   -2.1297   -0.1181 H   0  0  0  0  0  0  0  0  0  0  0  0
    0.4626   -1.1871    1.3277 H   0  0  0  0  0  0  0  0  0  0  0  0
   -1.2026   -1.2891   -1.2409 H   0  0  0  0  0  0  0  0  0  0  0  0
   -1.6148   -2.0877    0.2610 H   0  0  0  0  0  0  0  0  0  0  0  0
   -1.1649    1.1834   -1.3711 H   0  0  0  0  0  0  0  0  0  0  0  0
   -1.5958    2.1287   -0.0160 H   0  0  0  0  0  0  0  0  0  0  0  0
    0.5605    1.1922    1.2081 H   0  0  0  0  0  0  0  0  0  0  0  0
    0.8897    2.0883   -0.2559 H   0  0  0  0  0  0  0  0  0  0  0  0
    2.9752    0.8626   -0.3822 H   0  0  0  0  0  0  0  0  0  0  0  0
    2.6040   -0.0116    1.1182 H   0  0  0  0  0  0  0  0  0  0  0  0
    2.9939   -0.8995   -0.3740 H   0  0  0  0  0  0  0  0  0  0  0  0
   -2.5570   -0.6825    2.1501 H   0  0  0  0  0  0  0  0  0  0  0  0
   -2.0100    0.1447    4.2961 H   0  0  0  0  0  0  0  0  0  0  0  0
   -2.0801    3.6907    3.3138 H   0  0  0  0  0  0  0  0  0  0  0  0
   -1.5213    5.5809    4.6777 H   0  0  0  0  0  0  0  0  0  0  0  0
   -0.6023    5.2914    6.9853 H   0  0  0  0  0  0  0  0  0  0  0  0
    1.0223    2.0791   10.8629 H   0  0  0  0  0  0  0  0  0  0  0  0
   -1.7918   -1.8303   11.7014 H   0  0  0  0  0  0  0  0  0  0  0  0
   -0.5196   -1.3742   12.8297 H   0  0  0  0  0  0  0  0  0  0  0  0
   -1.2920   -0.1407   11.8346 H   0  0  0  0  0  0  0  0  0  0  0  0
    3.1148   -4.2385    9.9715 H   0  0  0  0  0  0  0  0  0  0  0  0
    1.8199   -4.7010    8.8225 H   0  0  0  0  0  0  0  0  0  0  0  0
    3.0582   -3.5544    8.3597 H   0  0  0  0  0  0  0  0  0  0  0  0
  1  2  1  0  0  0  0
  1  6  1  0  0  0  0
  1 32  1  0  0  0  0
  1 33  1  0  0  0  0
  2  3  1  0  0  0  0
  2 34  1  0  0  0  0
  2 35  1  0  0  0  0
  3  4  1  0  0  0  0
  3  8  1  0  0  0  0
  4  5  1  0  0  0  0
  4 36  1  0  0  0  0
  4 37  1  0  0  0  0
  5  6  1  0  0  0  0
  5 38  1  0  0  0  0
  5 39  1  0  0  0  0
  6  7  1  0  0  0  0
  7 40  1  0  0  0  0
  7 41  1  0  0  0  0
  7 42  1  0  0  0  0
  8  9  1  0  0  0  0
  8 43  1  0  0  0  0
  9 10  1  0  0  0  0
  9 30  2  0  0  0  0
 10 11  1  0  0  0  0
 10 44  1  0  0  0  0
 11 12  2  0  0  0  0
 11 16  1  0  0  0  0
 12 13  1  0  0  0  0
 12 45  1  0  0  0  0
 13 14  2  0  0  0  0
 13 46  1  0  0  0  0
 14 15  1  0  0  0  0
 14 47  1  0  0  0  0
 15 16  2  0  0  0  0
 15 17  1  0  0  0  0
 16 19  1  0  0  0  0
 17 18  1  0  0  0  0
 17 20  2  0  0  0  0
 18 19  1  0  0  0  0
 18 22  2  0  0  0  0
 19 31  2  0  0  0  0
 20 21  1  0  0  0  0
 21 22  1  0  0  0  0
 21 48  1  0  0  0  0
 22 23  1  0  0  0  0
 23 24  1  0  0  0  0
 23 27  2  0  0  0  0
 24 25  1  0  0  0  0
 25 26  2  0  0  0  0
 25 29  1  0  0  0  0
 26 27  1  0  0  0  0
 27 28  1  0  0  0  0
 28 49  1  0  0  0  0
 28 50  1  0  0  0  0
 28 51  1  0  0  0  0
 29 52  1  0  0  0  0
 29 53  1  0  0  0  0
 29 54  1  0  0  0  0
M  END
>  <DRUGBANK_ID>
DB07622

>  <COMMON_NAME>
1-(3-(2,4-DIMETHYLTHIAZOL-5-YL)-4-OXO-2,4-DIHYDROINDENO[1,2-C]PYRAZOL-5-YL)-3-(4-METHYLPIPERAZIN-1-YL)UREA

$$$$
