
 OpenBabel10282417173D

 36 36  0  0  0  0  0  0  0  0999 V2000
    0.4310    3.5826    3.1780 C   0  0  0  0  0  0  0  0  0  0  0  0
    0.7074   -0.8747   -0.3868 O   0  0  0  0  0  0  0  0  0  0  0  0
   -0.3133   -0.1861   -0.4260 C   0  0  0  0  0  0  0  0  0  0  0  0
   -1.5127   -0.6334   -0.9182 O   0  0  0  0  0  0  0  0  0  0  0  0
   -1.5626   -2.0455   -1.3979 C   0  0  0  0  0  0  0  0  0  0  0  0
   -3.0010   -2.3951   -1.8505 C   0  0  0  0  0  0  0  0  0  0  0  0
   -1.2033   -3.0638   -0.2928 C   0  0  0  0  0  0  0  0  0  0  0  0
   -0.6541   -2.2598   -2.6247 C   0  0  0  0  0  0  0  0  0  0  0  0
   -0.1738    1.0715    0.0871 N   0  0  0  0  0  0  0  0  0  0  0  0
   -0.8268    2.4042    0.0170 C   0  0  2  0  0  0  0  0  0  0  0  0
   -0.3197    3.1713   -1.2553 C   0  0  0  0  0  0  0  0  0  0  0  0
   -0.7527    4.6478   -1.3440 C   0  0  0  0  0  0  0  0  0  0  0  0
   -0.8010    2.4787   -2.5316 C   0  0  0  0  0  0  0  0  0  0  0  0
   -0.4374    3.1953    1.2716 C   0  0  0  0  0  0  0  0  0  0  0  0
    0.2316    2.5582    2.2972 O   0  0  0  0  0  0  0  0  0  0  0  0
   -0.0195    4.7354    2.7504 N   0  0  0  0  0  0  0  0  0  0  0  0
   -0.6121    4.4780    1.5370 N   0  0  0  0  0  0  0  0  0  0  0  0
    0.7839    1.1427    0.4025 H   0  0  0  0  0  0  0  0  0  0  0  0
   -1.9146    2.2854   -0.0117 H   0  0  0  0  0  0  0  0  0  0  0  0
    0.9166    3.3620    4.1168 H   0  0  0  0  0  0  0  0  0  0  0  0
   -3.7181   -2.3057   -1.0283 H   0  0  0  0  0  0  0  0  0  0  0  0
   -3.3433   -1.7414   -2.6583 H   0  0  0  0  0  0  0  0  0  0  0  0
   -3.0576   -3.4312   -2.2205 H   0  0  0  0  0  0  0  0  0  0  0  0
   -1.8766   -2.9683    0.5651 H   0  0  0  0  0  0  0  0  0  0  0  0
   -1.2707   -4.0951   -0.6646 H   0  0  0  0  0  0  0  0  0  0  0  0
   -0.1865   -2.9400    0.0845 H   0  0  0  0  0  0  0  0  0  0  0  0
    0.3983   -2.0711   -2.4026 H   0  0  0  0  0  0  0  0  0  0  0  0
   -0.7193   -3.2917   -2.9947 H   0  0  0  0  0  0  0  0  0  0  0  0
   -0.9355   -1.5871   -3.4411 H   0  0  0  0  0  0  0  0  0  0  0  0
    0.7806    3.1593   -1.2557 H   0  0  0  0  0  0  0  0  0  0  0  0
   -0.3095    5.2689   -0.5626 H   0  0  0  0  0  0  0  0  0  0  0  0
   -0.4134    5.1008   -2.2824 H   0  0  0  0  0  0  0  0  0  0  0  0
   -1.8416    4.7430   -1.2897 H   0  0  0  0  0  0  0  0  0  0  0  0
   -1.8950    2.4747   -2.5749 H   0  0  0  0  0  0  0  0  0  0  0  0
   -0.4265    2.9983   -3.4200 H   0  0  0  0  0  0  0  0  0  0  0  0
   -0.4476    1.4476   -2.5904 H   0  0  0  0  0  0  0  0  0  0  0  0
  1 16  2  0  0  0  0
  1 15  1  0  0  0  0
  1 20  1  0  0  0  0
  3  2  2  0  0  0  0
  3  4  1  0  0  0  0
  3  9  1  0  0  0  0
  5  4  1  0  0  0  0
  5  8  1  0  0  0  0
  5  7  1  0  0  0  0
  5  6  1  0  0  0  0
  6 21  1  0  0  0  0
  6 22  1  0  0  0  0
  6 23  1  0  0  0  0
  7 24  1  0  0  0  0
  7 25  1  0  0  0  0
  7 26  1  0  0  0  0
  8 27  1  0  0  0  0
  8 28  1  0  0  0  0
  8 29  1  0  0  0  0
 10 19  1  6  0  0  0
 10 14  1  0  0  0  0
 10  9  1  0  0  0  0
 11 10  1  0  0  0  0
 11 13  1  0  0  0  0
 11 12  1  0  0  0  0
 11 30  1  0  0  0  0
 12 31  1  0  0  0  0
 12 32  1  0  0  0  0
 12 33  1  0  0  0  0
 13 34  1  0  0  0  0
 13 35  1  0  0  0  0
 13 36  1  0  0  0  0
 14 17  2  0  0  0  0
 14 15  1  0  0  0  0
 17 16  1  0  0  0  0
 18  9  1  0  0  0  0
M  END
>  <DRUGBANK_ID>
DB08336

>  <COMMON_NAME>
2-Methyl-2-propanyl [(1R)-2-methyl-1-(1,3,4-oxadiazol-2-yl)propyl]carbamate

$$$$
