
 OpenBabel10282417133D

 30 32  0  0  0  0  0  0  0  0999 V2000
    1.0995   -1.2736   -0.0004 C   0  0  0  0  0  0  0  0  0  0  0  0
   -0.2927   -1.2464    0.0313 C   0  0  0  0  0  0  0  0  0  0  0  0
   -2.6099    6.5804   -0.0921 C   0  0  0  0  0  0  0  0  0  0  0  0
   -1.7435    5.7281   -0.7912 C   0  0  0  0  0  0  0  0  0  0  0  0
    1.7869   -0.0693   -0.0330 C   0  0  0  0  0  0  0  0  0  0  0  0
   -2.9747    4.9069    1.6373 C   0  0  0  0  0  0  0  0  0  0  0  0
   -3.2285    6.1871    1.1088 C   0  0  0  0  0  0  0  0  0  0  0  0
   -1.4814    4.4623   -0.2633 C   0  0  0  0  0  0  0  0  0  0  0  0
   -2.0942    4.0846    0.9226 C   0  0  0  0  0  0  0  0  0  0  0  0
   -0.9412   -0.0175    0.0469 C   0  0  0  0  0  0  0  0  0  0  0  0
   -0.1712    1.1478    0.0320 C   0  0  0  0  0  0  0  0  0  0  0  0
   -4.1525    7.1452    1.8093 C   0  0  0  0  0  0  0  0  0  0  0  0
   -0.7860    2.4682    0.1103 C   0  0  0  0  0  0  0  0  0  0  0  0
   -4.7743    6.8727    2.9177 N   0  0  0  0  0  0  0  0  0  0  0  0
   -4.4009    8.3832    1.3149 N   0  0  0  0  0  0  0  0  0  0  0  0
    1.1854    1.1384   -0.0065 N   0  0  0  0  0  0  0  0  0  0  0  0
   -0.6735    3.4682   -0.7458 N   0  0  0  0  0  0  0  0  0  0  0  0
   -1.6265    2.8168    1.1439 N   0  0  0  0  0  0  0  0  0  0  0  0
   -2.3065    0.0458    0.0939 O   0  0  0  0  0  0  0  0  0  0  0  0
    1.6404   -2.2137   -0.0006 H   0  0  0  0  0  0  0  0  0  0  0  0
   -0.8465   -2.1789    0.0520 H   0  0  0  0  0  0  0  0  0  0  0  0
   -2.7769    7.5604   -0.5229 H   0  0  0  0  0  0  0  0  0  0  0  0
   -1.2774    6.0364   -1.7200 H   0  0  0  0  0  0  0  0  0  0  0  0
    2.8724   -0.0446   -0.0810 H   0  0  0  0  0  0  0  0  0  0  0  0
   -3.4201    4.5460    2.5546 H   0  0  0  0  0  0  0  0  0  0  0  0
   -4.5712    5.9394    3.2657 H   0  0  0  0  0  0  0  0  0  0  0  0
   -4.0074    8.7629    0.4700 H   0  0  0  0  0  0  0  0  0  0  0  0
   -5.0337    8.9671    1.8461 H   0  0  0  0  0  0  0  0  0  0  0  0
   -1.8617    2.2160    1.9196 H   0  0  0  0  0  0  0  0  0  0  0  0
   -2.6742   -0.8334   -0.0967 H   0  0  0  0  0  0  0  0  0  0  0  0
  1 20  1  0  0  0  0
  2  1  2  0  0  0  0
  2 21  1  0  0  0  0
  3 22  1  0  0  0  0
  4  3  2  0  0  0  0
  4 23  1  0  0  0  0
  5  1  1  0  0  0  0
  5 24  1  0  0  0  0
  6 25  1  0  0  0  0
  7  3  1  0  0  0  0
  7  6  2  0  0  0  0
  8  4  1  0  0  0  0
  9  6  1  0  0  0  0
  9  8  2  0  0  0  0
 10  2  1  0  0  0  0
 11 10  2  0  0  0  0
 12  7  1  0  0  0  0
 13 11  1  0  0  0  0
 14 12  2  0  0  0  0
 14 26  1  0  0  0  0
 15 12  1  0  0  0  0
 15 27  1  0  0  0  0
 15 28  1  0  0  0  0
 16  5  2  0  0  0  0
 16 11  1  0  0  0  0
 17  8  1  0  0  0  0
 17 13  2  0  0  0  0
 18  9  1  0  0  0  0
 18 13  1  0  0  0  0
 18 29  1  0  0  0  0
 19 10  1  0  0  0  0
 19 30  1  0  0  0  0
M  END
>  <DRUGBANK_ID>
DB03016

>  <SECONDARY_ACCESSION_NUMBERS>
EXPT00317

>  <COMMON_NAME>
CRA_1801

$$$$
