
 OpenBabel10282417103D

 14 13  0  0  0  0  0  0  0  0999 V2000
   -0.6080   -1.8988    0.5023 C   0  0  0  0  0  0  0  0  0  0  0  0
    0.1992   -1.2424   -0.6228 C   0  0  2  0  0  0  0  0  0  0  0  0
    1.0686   -0.1125   -0.0496 C   0  0  0  0  0  0  0  0  0  0  0  0
   -1.7291   -1.2436    0.8808 O   0  0  0  0  0  0  0  0  0  0  0  0
   -0.2570   -2.9347    1.0552 O   0  0  0  0  0  0  0  0  0  0  0  0
   -0.6621   -0.8052   -1.7375 N   0  0  0  0  0  0  0  0  0  0  0  0
    2.4306   -0.5262    0.0618 O   0  0  0  0  0  0  0  0  0  0  0  0
    0.8506   -2.0273   -1.0270 H   0  0  0  0  0  0  0  0  0  0  0  0
    1.0640    0.7624   -0.7097 H   0  0  0  0  0  0  0  0  0  0  0  0
    0.7349    0.2208    0.9385 H   0  0  0  0  0  0  0  0  0  0  0  0
   -1.9056   -0.4105    0.4099 H   0  0  0  0  0  0  0  0  0  0  0  0
   -1.1604   -1.6077   -2.1232 H   0  0  0  0  0  0  0  0  0  0  0  0
   -1.3276   -0.0838   -1.4943 H   0  0  0  0  0  0  0  0  0  0  0  0
    2.4506   -1.3689    0.5508 H   0  0  0  0  0  0  0  0  0  0  0  0
  2  6  1  0  0  0  0
  2  8  1  6  0  0  0
  2  3  1  0  0  0  0
  2  1  1  0  0  0  0
  3  9  1  0  0  0  0
  3 10  1  0  0  0  0
  4  1  1  0  0  0  0
  4 11  1  0  0  0  0
  5  1  2  0  0  0  0
  6 12  1  0  0  0  0
  6 13  1  0  0  0  0
  7  3  1  0  0  0  0
  7 14  1  0  0  0  0
M  END
>  <DRUGBANK_ID>
DB00133

>  <SECONDARY_ACCESSION_NUMBERS>
NUTR00053; DB03375

>  <COMMON_NAME>
Serine

>  <CAS_NUMBER>
56-45-1

>  <UNII>
452VLY9402

>  <SYNONYMS>
(S)-2-Amino-3-hydroxypropanoic acid; (S)-Serine; alpha-Amino-beta-hydroxypropionic acid; beta-Hydroxyalanine; L-Serine; Ser; Serina; Serine; Serinum

$$$$
