
 OpenBabel10282417123D

 48 48  0  0  0  0  0  0  0  0999 V2000
    1.0664    0.0501    0.0555 P   0  0  2  0  0  0  0  0  0  0  0  0
    3.4441   -5.7194   -1.5320 P   0  0  0  0  0  0  0  0  0  0  0  0
    0.8222   -3.9457   -5.4744 P   0  0  0  0  0  0  0  0  0  0  0  0
    0.9467   -1.5580    0.2996 O   0  0  0  0  0  0  0  0  0  0  0  0
    3.4787   -4.4646   -2.7224 O   0  0  0  0  0  0  0  0  0  0  0  0
    1.1332   -4.8717   -4.2057 O   0  0  0  0  0  0  0  0  0  0  0  0
    3.4976   -2.2370   -0.9625 O   0  0  0  0  0  0  0  0  0  0  0  0
   -1.3348   -4.4342   -2.8316 O   0  0  0  0  0  0  0  0  0  0  0  0
   -0.1250   -4.1672   -0.2259 O   0  0  0  0  0  0  0  0  0  0  0  0
    1.0185    0.7139    1.5771 O   0  0  0  0  0  0  0  0  0  0  0  0
   -0.6636    0.0501    0.0555 O   0  0  0  0  0  0  0  0  0  0  0  0
    3.1869   -6.7170   -2.8035 O   0  0  0  0  0  0  0  0  0  0  0  0
    5.0712   -5.6636   -1.6632 O   0  0  0  0  0  0  0  0  0  0  0  0
    1.2264   -4.9541   -6.6357 O   0  0  0  0  0  0  0  0  0  0  0  0
   -0.7701   -3.9671   -5.4777 O   0  0  0  0  0  0  0  0  0  0  0  0
    2.6148    0.0501    0.0555 O   0  0  0  0  0  0  0  0  0  0  0  0
    3.4131   -6.8425   -0.4666 O   0  0  0  0  0  0  0  0  0  0  0  0
    1.4728   -2.6089   -5.4921 O   0  0  0  0  0  0  0  0  0  0  0  0
    4.3762   -0.0809    1.9793 O   0  0  0  0  0  0  0  0  0  0  0  0
    2.6142   -0.2295    4.6428 O   0  0  0  0  0  0  0  0  0  0  0  0
    2.3509   -3.5998   -2.5489 C   0  0  1  0  0  0  0  0  0  0  0  0
    1.0745   -4.3779   -2.8776 C   0  0  1  0  0  0  0  0  0  0  0  0
    1.0239   -2.1980   -0.9739 C   0  0  3  0  0  0  0  0  0  0  0  0
    2.3130   -3.0074   -1.1226 C   0  0  2  0  0  0  0  0  0  0  0  0
   -0.2031   -3.5945   -2.5774 C   0  0  2  0  0  0  0  0  0  0  0  0
   -0.2104   -3.0755   -1.1465 C   0  0  1  0  0  0  0  0  0  0  0  0
    2.2981    1.2522    2.0331 C   0  0  0  0  0  0  0  0  0  0  0  0
    3.2195    0.0785    2.4088 C   0  0  0  0  0  0  0  0  0  0  0  0
    2.6368   -0.8917    3.3909 C   0  0  0  0  0  0  0  0  0  0  0  0
    3.3956   -1.6098   -0.2106 H   0  0  0  0  0  0  0  0  0  0  0  0
   -1.3438   -5.1651   -2.1834 H   0  0  0  0  0  0  0  0  0  0  0  0
   -0.9402   -4.6952   -0.2672 H   0  0  0  0  0  0  0  0  0  0  0  0
   -0.9372   -0.5607    0.7684 H   0  0  0  0  0  0  0  0  0  0  0  0
    2.2698   -7.0257   -2.8663 H   0  0  0  0  0  0  0  0  0  0  0  0
    5.3594   -4.7418   -1.7935 H   0  0  0  0  0  0  0  0  0  0  0  0
    2.1964   -5.0294   -6.6954 H   0  0  0  0  0  0  0  0  0  0  0  0
   -1.1588   -4.2305   -4.6160 H   0  0  0  0  0  0  0  0  0  0  0  0
    3.5381    0.0306    4.8212 H   0  0  0  0  0  0  0  0  0  0  0  0
    2.5006   -2.7905   -3.2688 H   0  0  0  0  0  0  0  0  0  0  0  0
    1.0299   -5.2885   -2.2708 H   0  0  0  0  0  0  0  0  0  0  0  0
    1.0195   -1.4335   -1.7663 H   0  0  0  0  0  0  0  0  0  0  0  0
    2.3576   -3.7735   -0.3437 H   0  0  0  0  0  0  0  0  0  0  0  0
   -0.2898   -2.7407   -3.2545 H   0  0  0  0  0  0  0  0  0  0  0  0
   -1.1279   -2.5160   -0.9330 H   0  0  0  0  0  0  0  0  0  0  0  0
    2.7650    1.8811    1.2543 H   0  0  0  0  0  0  0  0  0  0  0  0
    2.1657    1.9039    2.8981 H   0  0  0  0  0  0  0  0  0  0  0  0
    1.6243   -1.1740    3.0867 H   0  0  0  0  0  0  0  0  0  0  0  0
    3.2476   -1.7956    3.4441 H   0  0  0  0  0  0  0  0  0  0  0  0
  1  4  1  0  0  0  0
  1 10  1  0  0  0  0
  1 11  1  0  0  0  0
  1 16  2  6  0  0  0
  2  5  1  0  0  0  0
  2 12  1  0  0  0  0
  2 13  1  0  0  0  0
  2 17  2  0  0  0  0
  3  6  1  0  0  0  0
  3 14  1  0  0  0  0
  3 15  1  0  0  0  0
  3 18  2  0  0  0  0
  4 23  1  0  0  0  0
  7 30  1  0  0  0  0
  8 31  1  0  0  0  0
  9 32  1  0  0  0  0
 10 27  1  0  0  0  0
 11 33  1  0  0  0  0
 12 34  1  0  0  0  0
 13 35  1  0  0  0  0
 14 36  1  0  0  0  0
 15 37  1  0  0  0  0
 19 28  2  0  0  0  0
 20 29  1  0  0  0  0
 20 38  1  0  0  0  0
 21  5  1  0  0  0  0
 21 22  1  0  0  0  0
 21 24  1  0  0  0  0
 21 39  1  6  0  0  0
 22  6  1  0  0  0  0
 22 25  1  0  0  0  0
 22 40  1  1  0  0  0
 23 24  1  0  0  0  0
 23 26  1  0  0  0  0
 23 41  1  0  0  0  0
 24 42  1  1  0  0  0
 24  7  1  0  0  0  0
 25 26  1  0  0  0  0
 25 43  1  6  0  0  0
 25  8  1  0  0  0  0
 26 44  1  1  0  0  0
 26  9  1  0  0  0  0
 27 28  1  0  0  0  0
 27 45  1  0  0  0  0
 27 46  1  0  0  0  0
 28 29  1  0  0  0  0
 29 47  1  0  0  0  0
 29 48  1  0  0  0  0
M  END
>  <DRUGBANK_ID>
DB02028

>  <SECONDARY_ACCESSION_NUMBERS>
EXPT01828

>  <COMMON_NAME>
(1R,2R,3S,4R,6S)-3,4,6-Trihydroxy-5-{[(S)-hydroxy(3-hydroxy-2-oxopropoxy)phosphoryl]oxy}-1,2-cyclohexanediyl bis[dihydrogen (phosphate)]

$$$$
