
 OpenBabel10282417243D

 95 96  0  0  1  0  0  0  0  0999 V2000
    5.3368   12.8239    2.0376 C   0  0  0  0  0  0  0  0  0  0  0  0
    5.6574   11.7718    1.0413 C   0  0  0  0  0  0  0  0  0  0  0  0
    5.0197   10.6023    1.6052 C   0  0  0  0  0  0  0  0  0  0  0  0
    3.6927   10.4415    2.2329 C   0  0  0  0  0  0  0  0  0  0  0  0
    2.7372   10.3039    1.0859 C   0  0  0  0  0  0  0  0  0  0  0  0
    2.8570    9.1538    0.0633 C   0  0  0  0  0  0  0  0  0  0  0  0
    2.3595    7.7645    0.4105 N   0  0  0  0  0  0  0  0  0  0  0  0
    2.7801    6.8884   -0.6267 C   0  0  0  0  0  0  0  0  0  0  0  0
    4.1826    7.0694   -0.8770 C   0  0  0  0  0  0  0  0  0  0  0  0
    5.6008    6.2341    0.4189 O   0  0  0  0  0  0  0  0  0  0  0  0
    6.0616    6.7635    1.9955 C   0  0  0  0  0  0  0  0  0  0  0  0
    4.7670    7.5646    2.9011 C   0  0  0  0  0  0  0  0  0  0  0  0
    4.3056    7.8499    4.1182 C   0  0  0  0  0  0  0  0  0  0  0  0
    5.4804    7.6966    4.7111 C   0  0  0  0  0  0  0  0  0  0  0  0
    5.4771    9.3351    5.3918 C   0  0  0  0  0  0  0  0  0  0  0  0
    6.1298    8.9423    6.6300 C   0  0  0  0  0  0  0  0  0  0  0  0
    7.5743    8.7253    6.4143 C   0  0  0  0  0  0  0  0  0  0  0  0
    8.2184    9.9726    6.0864 C   0  0  0  0  0  0  0  0  0  0  0  0
    8.4551   10.9054    7.0623 N   0  0  0  0  0  0  0  0  0  0  0  0
    9.7329   11.3278    7.1820 C   0  0  0  0  0  0  0  0  0  0  0  0
    9.8981   12.1911    8.1224 N   0  0  0  0  0  0  0  0  0  0  0  0
   10.8695   10.8346    6.4385 N   0  0  0  0  0  0  0  0  0  0  0  0
   11.2163   10.0159    5.2759 C   0  0  0  0  0  0  0  0  0  0  0  0
   12.3252    9.5154    5.0905 O   0  0  0  0  0  0  0  0  0  0  0  0
   10.2702    9.6776    4.2131 C   0  0  0  0  0  0  0  0  0  0  0  0
    9.5127   10.7835    3.7904 N   0  0  0  0  0  0  0  0  0  0  0  0
    8.3434   10.5621    3.2704 C   0  0  0  0  0  0  0  0  0  0  0  0
    7.1365   11.6677    3.7933 Cl  0  0  0  0  0  0  0  0  0  0  0  0
    8.0780    9.2748    3.0853 C   0  0  0  0  0  0  0  0  0  0  0  0
    6.7857    9.0228    3.1074 N   0  0  0  0  0  0  0  0  0  0  0  0
    8.9562    8.2083    3.2425 N   0  0  0  0  0  0  0  0  0  0  0  0
   10.0183    8.3283    3.9979 C   0  0  0  0  0  0  0  0  0  0  0  0
   10.5046    7.2135    4.6989 N   0  0  0  0  0  0  0  0  0  0  0  0
    6.8307    6.7449    4.0284 C   0  0  0  0  0  0  0  0  0  0  0  0
    7.2578    6.4400    2.5015 C   0  0  0  0  0  0  0  0  0  0  0  0
    3.2050    7.2729    1.3741 C   0  0  0  0  0  0  0  0  0  0  0  0
    4.9515    8.0042    0.6707 C   0  0  2  0  0  0  0  0  0  0  0  0
    6.1546    8.7983    0.9028 O   0  0  0  0  0  0  0  0  0  0  0  0
    6.1399    7.4176   -0.8841 C   0  0  1  0  0  0  0  0  0  0  0  0
    7.5005    7.5823   -0.7211 O   0  0  0  0  0  0  0  0  0  0  0  0
    5.2912    5.4983   -1.3452 C   0  0  2  0  0  0  0  0  0  0  0  0
    3.9308    5.6411   -2.4749 O   0  0  0  0  0  0  0  0  0  0  0  0
    4.4750    4.4816    0.1293 C   0  0  2  0  0  0  0  0  0  0  0  0
    2.9895    4.4104    0.5058 O   0  0  0  0  0  0  0  0  0  0  0  0
    5.0767    4.4351    1.5999 C   0  0  0  0  0  0  0  0  0  0  0  0
    4.4271    4.1194    2.8328 O   0  0  0  0  0  0  0  0  0  0  0  0
    4.4429   12.6020    2.6278 H   0  0  0  0  0  0  0  0  0  0  0  0
    5.4470   13.7572    1.5627 H   0  0  0  0  0  0  0  0  0  0  0  0
    6.0462   13.0533    2.7956 H   0  0  0  0  0  0  0  0  0  0  0  0
    5.1337   11.8266    0.1020 H   0  0  0  0  0  0  0  0  0  0  0  0
    6.7319   11.4946    0.8776 H   0  0  0  0  0  0  0  0  0  0  0  0
    5.0136   10.0645    0.7007 H   0  0  0  0  0  0  0  0  0  0  0  0
    5.8046   10.5049    2.2700 H   0  0  0  0  0  0  0  0  0  0  0  0
    3.3480    9.6072    2.7858 H   0  0  0  0  0  0  0  0  0  0  0  0
    3.6605   11.0005    3.1617 H   0  0  0  0  0  0  0  0  0  0  0  0
    1.7703   10.1688    1.5234 H   0  0  0  0  0  0  0  0  0  0  0  0
    2.9323   11.2217    0.5430 H   0  0  0  0  0  0  0  0  0  0  0  0
    2.3601    9.3680   -0.8643 H   0  0  0  0  0  0  0  0  0  0  0  0
    3.8660    9.2638   -0.3483 H   0  0  0  0  0  0  0  0  0  0  0  0
    2.7166    5.8385   -0.6576 H   0  0  0  0  0  0  0  0  0  0  0  0
    2.0718    7.0870   -1.3999 H   0  0  0  0  0  0  0  0  0  0  0  0
    4.8426    7.0671   -2.0559 H   0  0  0  0  0  0  0  0  0  0  0  0
    4.3278    8.0526   -1.4830 H   0  0  0  0  0  0  0  0  0  0  0  0
    4.2194    8.3659    2.3124 H   0  0  0  0  0  0  0  0  0  0  0  0
    3.4562    8.5408    4.2665 H   0  0  0  0  0  0  0  0  0  0  0  0
    5.9321   10.3146    5.1946 H   0  0  0  0  0  0  0  0  0  0  0  0
    4.4497    9.8016    5.3928 H   0  0  0  0  0  0  0  0  0  0  0  0
    6.0419    9.7516    7.3254 H   0  0  0  0  0  0  0  0  0  0  0  0
    5.6404    8.0188    6.8691 H   0  0  0  0  0  0  0  0  0  0  0  0
    8.1771    8.1962    7.1168 H   0  0  0  0  0  0  0  0  0  0  0  0
    7.7246    7.9989    5.6827 H   0  0  0  0  0  0  0  0  0  0  0  0
    9.1553    9.6399    5.8248 H   0  0  0  0  0  0  0  0  0  0  0  0
    7.7854   10.5932    5.3880 H   0  0  0  0  0  0  0  0  0  0  0  0
    7.6364   11.4994    7.1725 H   0  0  0  0  0  0  0  0  0  0  0  0
    8.9405   12.3650    8.4752 H   0  0  0  0  0  0  0  0  0  0  0  0
   11.7229   11.0731    6.9244 H   0  0  0  0  0  0  0  0  0  0  0  0
    6.4996    8.1336    3.1799 H   0  0  0  0  0  0  0  0  0  0  0  0
    5.8732    9.2793    2.8798 H   0  0  0  0  0  0  0  0  0  0  0  0
   10.2941    6.2677    4.3613 H   0  0  0  0  0  0  0  0  0  0  0  0
   11.4560    7.3129    5.0513 H   0  0  0  0  0  0  0  0  0  0  0  0
    7.7136    7.2433    4.3732 H   0  0  0  0  0  0  0  0  0  0  0  0
    8.0674    7.0544    1.7715 H   0  0  0  0  0  0  0  0  0  0  0  0
    2.6817    7.5261    2.3611 H   0  0  0  0  0  0  0  0  0  0  0  0
    3.1532    6.2155    1.9583 H   0  0  0  0  0  0  0  0  0  0  0  0
    4.5597    6.9680    1.2440 H   0  0  0  0  0  0  0  0  0  0  0  0
    6.9126    8.6949    1.5006 H   0  0  0  0  0  0  0  0  0  0  0  0
    5.8266    8.4549   -1.1760 H   0  0  0  0  0  0  0  0  0  0  0  0
    7.4935    8.4071   -0.1799 H   0  0  0  0  0  0  0  0  0  0  0  0
    6.1515    5.1380   -1.8252 H   0  0  0  0  0  0  0  0  0  0  0  0
    3.4917    6.5696   -2.6088 H   0  0  0  0  0  0  0  0  0  0  0  0
    4.7313    3.5056   -0.1830 H   0  0  0  0  0  0  0  0  0  0  0  0
    2.5022    5.2226    0.7970 H   0  0  0  0  0  0  0  0  0  0  0  0
    6.1292    4.6680    1.7396 H   0  0  0  0  0  0  0  0  0  0  0  0
    4.5778    5.3361    1.7086 H   0  0  0  0  0  0  0  0  0  0  0  0
    3.4875    4.3311    2.6689 H   0  0  0  0  0  0  0  0  0  0  0  0
  1  2  1  0  0  0  0
  1 47  1  0  0  0  0
  1 48  1  0  0  0  0
  1 49  1  0  0  0  0
  2  3  1  0  0  0  0
  2 50  1  0  0  0  0
  2 51  1  0  0  0  0
  3  4  1  0  0  0  0
  3 52  1  0  0  0  0
  3 53  1  0  0  0  0
  4  5  1  0  0  0  0
  4 54  1  0  0  0  0
  4 55  1  0  0  0  0
  5  6  1  0  0  0  0
  5 56  1  0  0  0  0
  5 57  1  0  0  0  0
  6  7  1  0  0  0  0
  6 58  1  0  0  0  0
  6 59  1  0  0  0  0
  7  8  1  0  0  0  0
  7 36  1  0  0  0  0
  8  9  1  0  0  0  0
  8 60  1  0  0  0  0
  8 61  1  0  0  0  0
  9 10  1  0  0  0  0
  9 62  1  0  0  0  0
  9 63  1  0  0  0  0
 10 11  1  0  0  0  0
 11 12  2  0  0  0  0
 11 35  1  0  0  0  0
 12 13  1  0  0  0  0
 12 64  1  0  0  0  0
 13 14  2  0  0  0  0
 13 65  1  0  0  0  0
 14 15  1  0  0  0  0
 14 34  1  0  0  0  0
 15 16  1  0  0  0  0
 15 66  1  0  0  0  0
 15 67  1  0  0  0  0
 16 17  1  0  0  0  0
 16 68  1  0  0  0  0
 16 69  1  0  0  0  0
 17 18  1  0  0  0  0
 17 70  1  0  0  0  0
 17 71  1  0  0  0  0
 18 19  1  0  0  0  0
 18 72  1  0  0  0  0
 18 73  1  0  0  0  0
 19 20  1  0  0  0  0
 19 74  1  0  0  0  0
 20 21  2  0  0  0  0
 20 22  1  0  0  0  0
 21 75  1  0  0  0  0
 22 23  1  0  0  0  0
 22 76  1  0  0  0  0
 23 24  2  0  0  0  0
 23 25  1  0  0  0  0
 25 26  2  0  0  0  0
 25 32  1  0  0  0  0
 26 27  1  0  0  0  0
 27 28  1  0  0  0  0
 27 29  2  0  0  0  0
 29 30  1  0  0  0  0
 29 31  1  0  0  0  0
 30 77  1  0  0  0  0
 30 78  1  0  0  0  0
 31 32  2  0  0  0  0
 32 33  1  0  0  0  0
 33 79  1  0  0  0  0
 33 80  1  0  0  0  0
 34 35  2  0  0  0  0
 34 81  1  0  0  0  0
 35 82  1  0  0  0  0
 36 83  1  0  0  0  0
 36 84  1  0  0  0  0
 37 85  1  1  0  0  0
 37 38  1  0  0  0  0
 37 36  1  0  0  0  0
 38 86  1  0  0  0  0
 39 37  1  0  0  0  0
 39 40  1  0  0  0  0
 39 87  1  6  0  0  0
 40 88  1  0  0  0  0
 41 89  1  6  0  0  0
 41 42  1  0  0  0  0
 41 39  1  0  0  0  0
 42 90  1  0  0  0  0
 43 45  1  0  0  0  0
 43 91  1  6  0  0  0
 43 44  1  0  0  0  0
 43 41  1  0  0  0  0
 44 92  1  0  0  0  0
 45 46  1  0  0  0  0
 45 93  1  0  0  0  0
 45 94  1  0  0  0  0
 46 95  1  0  0  0  0
M  END
>  <DRUGBANK_ID>
DB18042

>  <COMMON_NAME>
Idrevloride

>  <CAS_NUMBER>
1416973-63-1

>  <UNII>
NY2J56S3YA

>  <SYNONYMS>
3,5-diamino-6-chloro-N-(N-(4-(4-(2-(hexyl((2S,3R,4R, 5R)-2,3,4,5,6-pentahydroxyhexyl)amino)ethoxy)phenyl)butyl)-carbamimidoyl)pyrazine-2-carboxamide; 3,5-diamino-6-chloro-n-(n-(4-(4-(2-(hexyl((2s,3r,4r,5r)-2,3,4,5,6-pentahydroxylhexyl)amino)ethoxy)phenyl)butyl)-carbamimidoyl)pyrazine-2-carboxamide; D-glucitol, 1-deoxy-1-((2-(4-(4-(((((3,5-diamino-6-chloro-2-pyrazinyl)carbonyl)amino)iminomethyl)amino)butyl)phenoxy)ethyl)hexylamino)-

$$$$
