GC7
 OpenBabel10282417133D

 34 33  0  0  0  0  0  0  0  0999 V2000
    0.9635   -0.0148   -0.0901 N   0  0  0  0  0  0  0  0  0  0  0  0
    0.5424   -1.0852    0.8034 C   0  0  0  0  0  0  0  0  0  0  0  0
    1.0285   -0.8281    2.2312 C   0  0  0  0  0  0  0  0  0  0  0  0
    0.4567    0.4651    2.8262 C   0  0  0  0  0  0  0  0  0  0  0  0
   -1.0759    0.4498    2.8652 C   0  0  0  0  0  0  0  0  0  0  0  0
   -1.6158   -0.6891    3.7396 C   0  0  0  0  0  0  0  0  0  0  0  0
   -1.1680   -0.5658    5.1996 C   0  0  0  0  0  0  0  0  0  0  0  0
   -1.5464    0.7813    5.8001 C   0  0  0  0  0  0  0  0  0  0  0  0
   -2.9733    1.0970    5.6061 N   0  0  0  0  0  0  0  0  0  0  0  0
   -3.5247    2.2280    6.2757 C   0  0  0  0  0  0  0  0  0  0  0  0
   -2.9601    3.3953    5.7178 N   0  0  0  0  0  0  0  0  0  0  0  0
   -4.9254    2.3087    6.0720 N   0  0  0  0  0  0  0  0  0  0  0  0
    0.5965    0.8812    0.2259 H   0  0  0  0  0  0  0  0  0  0  0  0
    1.9790    0.0744   -0.0462 H   0  0  0  0  0  0  0  0  0  0  0  0
   -0.5484   -1.1791    0.7664 H   0  0  0  0  0  0  0  0  0  0  0  0
    0.9371   -2.0385    0.4423 H   0  0  0  0  0  0  0  0  0  0  0  0
    0.7590   -1.6852    2.8602 H   0  0  0  0  0  0  0  0  0  0  0  0
    2.1232   -0.7857    2.2562 H   0  0  0  0  0  0  0  0  0  0  0  0
    0.8701    0.6135    3.8302 H   0  0  0  0  0  0  0  0  0  0  0  0
    0.7970    1.3368    2.2572 H   0  0  0  0  0  0  0  0  0  0  0  0
   -1.4398    1.4216    3.2164 H   0  0  0  0  0  0  0  0  0  0  0  0
   -1.4926    0.3592    1.8570 H   0  0  0  0  0  0  0  0  0  0  0  0
   -2.7083   -0.7043    3.6746 H   0  0  0  0  0  0  0  0  0  0  0  0
   -1.3052   -1.6640    3.3492 H   0  0  0  0  0  0  0  0  0  0  0  0
   -1.6020   -1.3807    5.7869 H   0  0  0  0  0  0  0  0  0  0  0  0
   -0.0797   -0.6873    5.2749 H   0  0  0  0  0  0  0  0  0  0  0  0
   -1.3048    0.8084    6.8655 H   0  0  0  0  0  0  0  0  0  0  0  0
   -0.9690    1.5737    5.3142 H   0  0  0  0  0  0  0  0  0  0  0  0
   -3.5530    0.5132    5.0218 H   0  0  0  0  0  0  0  0  0  0  0  0
   -3.3107    2.1617    7.3447 H   0  0  0  0  0  0  0  0  0  0  0  0
   -3.4692    4.2720    5.6656 H   0  0  0  0  0  0  0  0  0  0  0  0
   -2.0623    3.3937    5.2535 H   0  0  0  0  0  0  0  0  0  0  0  0
   -5.5108    2.8022    6.7460 H   0  0  0  0  0  0  0  0  0  0  0  0
   -5.4382    1.8217    5.3502 H   0  0  0  0  0  0  0  0  0  0  0  0
  1  2  1  0  0  0  0
  1 13  1  0  0  0  0
  1 14  1  0  0  0  0
  2  3  1  0  0  0  0
  2 15  1  0  0  0  0
  2 16  1  0  0  0  0
  3  4  1  0  0  0  0
  3 17  1  0  0  0  0
  3 18  1  0  0  0  0
  4  5  1  0  0  0  0
  4 19  1  0  0  0  0
  4 20  1  0  0  0  0
  5  6  1  0  0  0  0
  5 21  1  0  0  0  0
  5 22  1  0  0  0  0
  6  7  1  0  0  0  0
  6 23  1  0  0  0  0
  6 24  1  0  0  0  0
  7  8  1  0  0  0  0
  7 25  1  0  0  0  0
  7 26  1  0  0  0  0
  8  9  1  0  0  0  0
  8 27  1  0  0  0  0
  8 28  1  0  0  0  0
  9 10  1  0  0  0  0
  9 29  1  0  0  0  0
 10 11  1  0  0  0  0
 10 12  1  0  0  0  0
 10 30  1  0  0  0  0
 11 31  1  0  0  0  0
 11 32  1  0  0  0  0
 12 33  1  0  0  0  0
 12 34  1  0  0  0  0
M  END
>  <DRUGBANK_ID>
DB03639

>  <SECONDARY_ACCESSION_NUMBERS>
EXPT01555

>  <COMMON_NAME>
1-Guanidinium-7-Aminoheptane

$$$$
