
 OpenBabel10282417143D

 29 30  0  0  0  0  0  0  0  0999 V2000
    0.8877   -0.0911    0.0504 S   0  0  0  0  0  0  0  0  0  0  0  0
   -0.6583   -2.1978   -6.2297 O   0  0  0  0  0  0  0  0  0  0  0  0
   -0.7953    3.1704   -8.1301 O   0  0  0  0  0  0  0  0  0  0  0  0
   -0.2859    1.1671   -7.0080 N   0  0  0  0  0  0  0  0  0  0  0  0
   -2.3863    1.5119   -7.6319 N   0  0  0  0  0  0  0  0  0  0  0  0
   -1.0494    0.0960   -6.6035 C   0  0  0  0  0  0  0  0  0  0  0  0
   -2.3197    0.2953   -6.9892 C   0  0  0  0  0  0  0  0  0  0  0  0
   -0.5883   -1.0534   -5.7924 C   0  0  0  0  0  0  0  0  0  0  0  0
   -0.1790   -0.7934   -4.3778 C   0  0  0  0  0  0  0  0  0  0  0  0
   -1.1118    2.0903   -7.6611 C   0  0  0  0  0  0  0  0  0  0  0  0
   -3.5179   -0.5477   -6.7744 C   0  0  0  0  0  0  0  0  0  0  0  0
   -0.1515    0.4983   -3.8394 C   0  0  0  0  0  0  0  0  0  0  0  0
    0.0886   -1.8795   -3.5315 C   0  0  0  0  0  0  0  0  0  0  0  0
    0.4573   -0.3738   -1.6568 C   0  0  0  0  0  0  0  0  0  0  0  0
    0.1698    0.7055   -2.4935 C   0  0  0  0  0  0  0  0  0  0  0  0
    0.3536   -1.6700   -2.1689 C   0  0  0  0  0  0  0  0  0  0  0  0
    2.7088   -0.1081   -0.0456 C   0  0  0  0  0  0  0  0  0  0  0  0
    0.7044    1.2987   -6.8743 H   0  0  0  0  0  0  0  0  0  0  0  0
   -3.2085    1.9533   -8.0167 H   0  0  0  0  0  0  0  0  0  0  0  0
   -4.2616   -0.0132   -6.1764 H   0  0  0  0  0  0  0  0  0  0  0  0
   -3.9646   -0.8261   -7.7329 H   0  0  0  0  0  0  0  0  0  0  0  0
   -3.2684   -1.4713   -6.2430 H   0  0  0  0  0  0  0  0  0  0  0  0
   -0.3890    1.3717   -4.4381 H   0  0  0  0  0  0  0  0  0  0  0  0
    0.0726   -2.8983   -3.9179 H   0  0  0  0  0  0  0  0  0  0  0  0
    0.1658    1.7221   -2.1071 H   0  0  0  0  0  0  0  0  0  0  0  0
    0.4558   -2.5286   -1.5082 H   0  0  0  0  0  0  0  0  0  0  0  0
    3.1131    0.0617    0.9582 H   0  0  0  0  0  0  0  0  0  0  0  0
    3.0823   -1.0737   -0.3990 H   0  0  0  0  0  0  0  0  0  0  0  0
    3.0843    0.6872   -0.6967 H   0  0  0  0  0  0  0  0  0  0  0  0
  1 14  1  0  0  0  0
  1 17  1  0  0  0  0
  2  8  2  0  0  0  0
  3 10  2  0  0  0  0
  4  6  1  0  0  0  0
  4 10  1  0  0  0  0
  4 18  1  0  0  0  0
  5  7  1  0  0  0  0
  5 10  1  0  0  0  0
  5 19  1  0  0  0  0
  6  7  2  0  0  0  0
  6  8  1  0  0  0  0
  7 11  1  0  0  0  0
  8  9  1  0  0  0  0
  9 12  2  0  0  0  0
  9 13  1  0  0  0  0
 11 20  1  0  0  0  0
 11 21  1  0  0  0  0
 11 22  1  0  0  0  0
 12 15  1  0  0  0  0
 12 23  1  0  0  0  0
 13 16  2  0  0  0  0
 13 24  1  0  0  0  0
 14 15  2  0  0  0  0
 14 16  1  0  0  0  0
 15 25  1  0  0  0  0
 16 26  1  0  0  0  0
 17 27  1  0  0  0  0
 17 28  1  0  0  0  0
 17 29  1  0  0  0  0
M  END
>  <DRUGBANK_ID>
DB04880

>  <COMMON_NAME>
Enoximone

>  <CAS_NUMBER>
77671-31-9

>  <UNII>
C7Z4ITI7L7

>  <SYNONYMS>
Enoximona; Enoximone; Enoximonum

$$$$
