
 OpenBabel10282417243D

 41 41  0  0  0  0  0  0  0  0999 V2000
    0.9995   -0.1022    0.2155 O   0  0  0  0  0  0  0  0  0  0  0  0
    0.4165    0.9393    0.8359 C   0  0  0  0  0  0  0  0  0  0  0  0
    1.0992    1.7911    1.3918 O   0  0  0  0  0  0  0  0  0  0  0  0
   -1.0872    0.9393    0.7557 C   0  0  0  0  0  0  0  0  0  0  0  0
   -1.5881    1.1183   -0.6783 C   0  0  0  0  0  0  0  0  0  0  0  0
   -1.1816   -0.0491   -1.5823 C   0  0  0  0  0  0  0  0  0  0  0  0
   -1.6923   -1.3830   -1.0188 C   0  0  0  0  0  0  0  0  0  0  0  0
   -3.2245   -1.4150   -0.9854 C   0  0  0  0  0  0  0  0  0  0  0  0
   -3.8013   -1.2243   -2.3792 C   0  0  0  0  0  0  0  0  0  0  0  0
   -3.2972   -2.2992   -3.3140 C   0  0  0  0  0  0  0  0  0  0  0  0
   -3.7662   -3.6144   -2.9218 N   0  0  0  0  0  0  0  0  0  0  0  0
   -4.5303   -4.4730   -3.6696 C   0  0  0  0  0  0  0  0  0  0  0  0
   -4.9720   -5.5074   -3.1788 O   0  0  0  0  0  0  0  0  0  0  0  0
   -4.8790   -4.0852   -5.0546 C   0  0  0  0  0  0  0  0  0  0  0  0
   -6.2307   -4.0967   -5.4128 C   0  0  0  0  0  0  0  0  0  0  0  0
   -6.6146   -3.6160   -6.6644 C   0  0  0  0  0  0  0  0  0  0  0  0
   -5.6556   -3.1066   -7.5436 C   0  0  0  0  0  0  0  0  0  0  0  0
   -4.3039   -3.1084   -7.1960 C   0  0  0  0  0  0  0  0  0  0  0  0
   -3.9139   -3.6394   -5.9713 C   0  0  0  0  0  0  0  0  0  0  0  0
   -2.5820   -3.6876   -5.6519 O   0  0  0  0  0  0  0  0  0  0  0  0
    1.9609    0.0810    0.1985 H   0  0  0  0  0  0  0  0  0  0  0  0
   -1.4725    0.0293    1.2279 H   0  0  0  0  0  0  0  0  0  0  0  0
   -1.4690    1.7601    1.3705 H   0  0  0  0  0  0  0  0  0  0  0  0
   -2.6819    1.2163   -0.6676 H   0  0  0  0  0  0  0  0  0  0  0  0
   -1.2189    2.0577   -1.1018 H   0  0  0  0  0  0  0  0  0  0  0  0
   -1.5396    0.1278   -2.6016 H   0  0  0  0  0  0  0  0  0  0  0  0
   -0.0990   -0.0875   -1.7173 H   0  0  0  0  0  0  0  0  0  0  0  0
   -1.2796   -2.2081   -1.6074 H   0  0  0  0  0  0  0  0  0  0  0  0
   -1.3111   -1.5801   -0.0134 H   0  0  0  0  0  0  0  0  0  0  0  0
   -3.5646   -2.3623   -0.5562 H   0  0  0  0  0  0  0  0  0  0  0  0
   -3.6263   -0.6393   -0.3264 H   0  0  0  0  0  0  0  0  0  0  0  0
   -4.8947   -1.2283   -2.3512 H   0  0  0  0  0  0  0  0  0  0  0  0
   -3.5253   -0.2479   -2.7953 H   0  0  0  0  0  0  0  0  0  0  0  0
   -3.6538   -1.9983   -4.2928 H   0  0  0  0  0  0  0  0  0  0  0  0
   -2.2060   -2.3507   -3.3840 H   0  0  0  0  0  0  0  0  0  0  0  0
   -3.5161   -3.9782   -2.0092 H   0  0  0  0  0  0  0  0  0  0  0  0
   -6.9791   -4.4675   -4.7153 H   0  0  0  0  0  0  0  0  0  0  0  0
   -7.6629   -3.6309   -6.9521 H   0  0  0  0  0  0  0  0  0  0  0  0
   -5.9627   -2.7221   -8.5129 H   0  0  0  0  0  0  0  0  0  0  0  0
   -3.5721   -2.7039   -7.8876 H   0  0  0  0  0  0  0  0  0  0  0  0
   -2.0777   -3.0964   -6.2330 H   0  0  0  0  0  0  0  0  0  0  0  0
  1  2  1  0  0  0  0
  1 21  1  0  0  0  0
  2  3  2  0  0  0  0
  2  4  1  0  0  0  0
  4  5  1  0  0  0  0
  4 22  1  0  0  0  0
  4 23  1  0  0  0  0
  5  6  1  0  0  0  0
  5 24  1  0  0  0  0
  5 25  1  0  0  0  0
  6  7  1  0  0  0  0
  6 26  1  0  0  0  0
  6 27  1  0  0  0  0
  7  8  1  0  0  0  0
  7 28  1  0  0  0  0
  7 29  1  0  0  0  0
  8  9  1  0  0  0  0
  8 30  1  0  0  0  0
  8 31  1  0  0  0  0
  9 10  1  0  0  0  0
  9 32  1  0  0  0  0
  9 33  1  0  0  0  0
 10 11  1  0  0  0  0
 10 34  1  0  0  0  0
 10 35  1  0  0  0  0
 11 12  1  0  0  0  0
 11 36  1  0  0  0  0
 12 13  2  0  0  0  0
 12 14  1  0  0  0  0
 14 15  2  0  0  0  0
 14 19  1  0  0  0  0
 15 16  1  0  0  0  0
 15 37  1  0  0  0  0
 16 17  2  0  0  0  0
 16 38  1  0  0  0  0
 17 18  1  0  0  0  0
 17 39  1  0  0  0  0
 18 19  2  0  0  0  0
 18 40  1  0  0  0  0
 19 20  1  0  0  0  0
 20 41  1  0  0  0  0
M  END
>  <DRUGBANK_ID>
DB18517

>  <COMMON_NAME>
Salcaprozic acid

>  <CAS_NUMBER>
183990-46-7

>  <UNII>
X88E147FCU

$$$$
