
 OpenBabel10282417193D

 68 71  0  0  1  0  0  0  0  0999 V2000
    0.8622   -0.0885    0.1177 C   0  0  0  0  0  0  0  0  0  0  0  0
    0.4690    0.7766   -1.0760 C   0  0  1  0  0  0  0  0  0  0  0  0
    1.0414    0.1816   -2.3780 C   0  0  0  0  0  0  0  0  0  0  0  0
    0.3591   -0.3588   -3.2521 O   0  0  0  0  0  0  0  0  0  0  0  0
    2.3748    0.2274   -2.6107 N   0  0  0  0  0  0  0  0  0  0  0  0
    3.4588    0.6112   -1.7150 C   0  0  1  0  0  0  0  0  0  0  0  0
    4.2987   -0.6174   -1.2220 C   0  0  0  0  0  0  0  0  0  0  0  0
    3.6264   -1.9772   -1.4977 C   0  0  0  0  0  0  0  0  0  0  0  0
    4.4666   -3.1448   -0.9998 C   0  0  0  0  0  0  0  0  0  0  0  0
    4.7677   -3.0104    0.4854 C   0  0  0  0  0  0  0  0  0  0  0  0
    5.4631   -1.6864    0.7863 C   0  0  0  0  0  0  0  0  0  0  0  0
    4.6555   -0.4940    0.2787 C   0  0  0  0  0  0  0  0  0  0  0  0
    4.3888    1.7015   -2.2920 C   0  0  0  0  0  0  0  0  0  0  0  0
    4.5718    2.7362   -1.6458 O   0  0  0  0  0  0  0  0  0  0  0  0
    5.1576    1.3774   -3.3846 N   0  0  0  0  0  0  0  0  0  0  0  0
    4.7498    0.6675   -4.5750 C   0  0  0  0  0  0  0  0  0  0  0  0
    6.0236   -0.0059   -5.0111 C   0  0  0  0  0  0  0  0  0  0  0  0
    7.0783    1.0612   -4.7389 C   0  0  0  0  0  0  0  0  0  0  0  0
    6.5266    1.8829   -3.5491 C   0  0  1  0  0  0  0  0  0  0  0  0
    6.5026    3.3505   -3.8766 C   0  0  0  0  0  0  0  0  0  0  0  0
    5.8844    3.8414   -4.9305 N   0  0  0  0  0  0  0  0  0  0  0  0
    5.9017    5.2280   -4.9031 C   0  0  0  0  0  0  0  0  0  0  0  0
    6.6269    5.7628   -3.8530 C   0  0  0  0  0  0  0  0  0  0  0  0
    7.2766    4.5110   -2.8752 S   0  0  0  0  0  0  0  0  0  0  0  0
    5.2103    6.0148   -5.9216 C   0  0  0  0  0  0  0  0  0  0  0  0
    5.2409    7.2461   -5.9593 O   0  0  0  0  0  0  0  0  0  0  0  0
    4.4687    5.2762   -6.9737 C   0  0  0  0  0  0  0  0  0  0  0  0
    3.4175    4.4125   -6.6318 C   0  0  0  0  0  0  0  0  0  0  0  0
    2.7518    3.6998   -7.6314 C   0  0  0  0  0  0  0  0  0  0  0  0
    3.1313    3.8628   -8.9600 C   0  0  0  0  0  0  0  0  0  0  0  0
    4.1576    4.7349   -9.3122 C   0  0  0  0  0  0  0  0  0  0  0  0
    4.8277    5.4520   -8.3172 C   0  0  0  0  0  0  0  0  0  0  0  0
    2.4995    3.1680   -9.9151 F   0  0  0  0  0  0  0  0  0  0  0  0
   -1.0065    0.8095   -1.1017 N   0  0  0  0  0  0  0  0  0  0  0  0
   -1.5118    1.6701   -2.1642 C   0  0  0  0  0  0  0  0  0  0  0  0
    0.5162   -1.1209    0.0052 H   0  0  0  0  0  0  0  0  0  0  0  0
    0.4947    0.3250    1.0601 H   0  0  0  0  0  0  0  0  0  0  0  0
    1.9347   -0.1572    0.2294 H   0  0  0  0  0  0  0  0  0  0  0  0
    0.8597    1.7941   -0.9514 H   0  0  0  0  0  0  0  0  0  0  0  0
    2.5706   -0.2945   -3.4489 H   0  0  0  0  0  0  0  0  0  0  0  0
    3.0120    1.1064   -0.8509 H   0  0  0  0  0  0  0  0  0  0  0  0
    5.2557   -0.6288   -1.7608 H   0  0  0  0  0  0  0  0  0  0  0  0
    2.6450   -2.0217   -1.0131 H   0  0  0  0  0  0  0  0  0  0  0  0
    3.4652   -2.1109   -2.5731 H   0  0  0  0  0  0  0  0  0  0  0  0
    3.9330   -4.0827   -1.1893 H   0  0  0  0  0  0  0  0  0  0  0  0
    5.4045   -3.1852   -1.5664 H   0  0  0  0  0  0  0  0  0  0  0  0
    3.8321   -3.0758    1.0557 H   0  0  0  0  0  0  0  0  0  0  0  0
    5.3997   -3.8439    0.8095 H   0  0  0  0  0  0  0  0  0  0  0  0
    5.6112   -1.5926    1.8682 H   0  0  0  0  0  0  0  0  0  0  0  0
    6.4547   -1.6765    0.3205 H   0  0  0  0  0  0  0  0  0  0  0  0
    5.2101    0.4332    0.4611 H   0  0  0  0  0  0  0  0  0  0  0  0
    3.7541   -0.4357    0.8941 H   0  0  0  0  0  0  0  0  0  0  0  0
    4.4039    1.4115   -5.3028 H   0  0  0  0  0  0  0  0  0  0  0  0
    3.9701   -0.0634   -4.4386 H   0  0  0  0  0  0  0  0  0  0  0  0
    6.2000   -0.8858   -4.3792 H   0  0  0  0  0  0  0  0  0  0  0  0
    5.9824   -0.3303   -6.0532 H   0  0  0  0  0  0  0  0  0  0  0  0
    8.0478    0.6066   -4.5149 H   0  0  0  0  0  0  0  0  0  0  0  0
    7.2040    1.6730   -5.6395 H   0  0  0  0  0  0  0  0  0  0  0  0
    7.0827    1.6686   -2.6277 H   0  0  0  0  0  0  0  0  0  0  0  0
    6.7913    6.8057   -3.6186 H   0  0  0  0  0  0  0  0  0  0  0  0
    3.1203    4.2892   -5.5930 H   0  0  0  0  0  0  0  0  0  0  0  0
    1.9434    3.0186   -7.3841 H   0  0  0  0  0  0  0  0  0  0  0  0
    4.4284    4.8463  -10.3579 H   0  0  0  0  0  0  0  0  0  0  0  0
    5.6327    6.1311   -8.5880 H   0  0  0  0  0  0  0  0  0  0  0  0
   -1.3367   -0.1429   -1.2708 H   0  0  0  0  0  0  0  0  0  0  0  0
   -1.2364    1.3248   -3.1638 H   0  0  0  0  0  0  0  0  0  0  0  0
   -2.6035    1.6767   -2.1263 H   0  0  0  0  0  0  0  0  0  0  0  0
   -1.1544    2.6960   -2.0419 H   0  0  0  0  0  0  0  0  0  0  0  0
  1 36  1  0  0  0  0
  1 37  1  0  0  0  0
  1 38  1  0  0  0  0
  2  1  1  0  0  0  0
  2  3  1  0  0  0  0
  2 34  1  0  0  0  0
  2 39  1  1  0  0  0
  3  4  2  0  0  0  0
  3  5  1  0  0  0  0
  5 40  1  0  0  0  0
  6  5  1  0  0  0  0
  6  7  1  0  0  0  0
  6 13  1  0  0  0  0
  6 41  1  1  0  0  0
  7  8  1  0  0  0  0
  7 12  1  0  0  0  0
  7 42  1  0  0  0  0
  8  9  1  0  0  0  0
  8 43  1  0  0  0  0
  8 44  1  0  0  0  0
  9 10  1  0  0  0  0
  9 45  1  0  0  0  0
  9 46  1  0  0  0  0
 10 11  1  0  0  0  0
 10 47  1  0  0  0  0
 10 48  1  0  0  0  0
 11 12  1  0  0  0  0
 11 49  1  0  0  0  0
 11 50  1  0  0  0  0
 12 51  1  0  0  0  0
 12 52  1  0  0  0  0
 13 14  2  0  0  0  0
 13 15  1  0  0  0  0
 15 16  1  0  0  0  0
 15 19  1  0  0  0  0
 16 17  1  0  0  0  0
 16 53  1  0  0  0  0
 16 54  1  0  0  0  0
 17 18  1  0  0  0  0
 17 55  1  0  0  0  0
 17 56  1  0  0  0  0
 18 19  1  0  0  0  0
 18 57  1  0  0  0  0
 18 58  1  0  0  0  0
 19 59  1  1  0  0  0
 19 20  1  0  0  0  0
 20 21  2  0  0  0  0
 20 24  1  0  0  0  0
 21 22  1  0  0  0  0
 22 23  2  0  0  0  0
 22 25  1  0  0  0  0
 23 24  1  0  0  0  0
 23 60  1  0  0  0  0
 25 26  2  0  0  0  0
 25 27  1  0  0  0  0
 27 28  2  0  0  0  0
 27 32  1  0  0  0  0
 28 29  1  0  0  0  0
 28 61  1  0  0  0  0
 29 30  2  0  0  0  0
 29 62  1  0  0  0  0
 30 31  1  0  0  0  0
 30 33  1  0  0  0  0
 31 32  2  0  0  0  0
 31 63  1  0  0  0  0
 32 64  1  0  0  0  0
 34 35  1  0  0  0  0
 34 65  1  0  0  0  0
 35 66  1  0  0  0  0
 35 67  1  0  0  0  0
 35 68  1  0  0  0  0
M  END
>  <DRUGBANK_ID>
DB12085

>  <COMMON_NAME>
LCL-161

>  <CAS_NUMBER>
1005342-46-0

>  <UNII>
6TNS415Y3P

>  <SYNONYMS>
(2S)-N-[(1S)-1-cyclohexyl-2-[(2S)-2-[4-(4-fluorobenzoyl)-1,3-thiazol-2-yl]pyrrolidin-1-yl]-2-oxoethyl]-2-(methylamino)propanamide

$$$$
