1462
 OpenBabel10282417113D

 57 59  0  0  0  0  0  0  0  0999 V2000
    0.8662    0.6274    0.2418 O   0  0  0  0  0  0  0  0  0  0  0  0
    2.2907  -10.6062   -3.2470 O   0  5  0  0  0  0  0  0  0  0  0  0
    4.1299  -10.6670   -2.0555 O   0  0  0  0  0  0  0  0  0  0  0  0
    0.6388   -6.5683    1.2006 N   0  0  0  0  0  0  0  0  0  0  0  0
    0.5133   -3.8644    0.5845 N   0  0  0  0  0  0  0  0  0  0  0  0
   -0.7160   -7.2198   -0.4107 N   0  0  0  0  0  0  0  0  0  0  0  0
    3.0088  -10.2082   -2.3169 N   0  3  0  0  0  0  0  0  0  0  0  0
    1.2543   -5.6132    2.0796 C   0  0  0  0  0  0  0  0  0  0  0  0
    1.5939   -4.2966    1.3896 C   0  0  0  0  0  0  0  0  0  0  0  0
   -0.7075   -6.4681    0.7515 C   0  0  0  0  0  0  0  0  0  0  0  0
    1.4326   -7.3783    0.3871 C   0  0  0  0  0  0  0  0  0  0  0  0
    0.5945   -7.7805   -0.6403 C   0  0  0  0  0  0  0  0  0  0  0  0
   -1.8755   -5.1068    1.2099 C   0  0  0  0  0  0  0  0  0  0  0  0
    0.4852   -2.4811    0.4016 C   0  0  0  0  0  0  0  0  0  0  0  0
   -0.0034   -4.3449   -0.6601 C   0  0  0  0  0  0  0  0  0  0  0  0
    2.7957   -7.7410    0.4880 C   0  0  0  0  0  0  0  0  0  0  0  0
   -1.8079   -3.2303    1.5092 C   0  0  0  0  0  0  0  0  0  0  0  0
    1.1596   -8.6281   -1.6455 C   0  0  0  0  0  0  0  0  0  0  0  0
    2.4811   -9.1328   -1.4536 C   0  0  0  0  0  0  0  0  0  0  0  0
    3.2869   -8.6949   -0.3981 C   0  0  0  0  0  0  0  0  0  0  0  0
    1.2381   -1.9545   -0.7391 C   0  0  0  0  0  0  0  0  0  0  0  0
    0.8356   -4.4222   -1.8544 C   0  0  0  0  0  0  0  0  0  0  0  0
   -2.2765   -2.2046    0.2282 C   0  0  0  0  0  0  0  0  0  0  0  0
   -0.6959   -2.5364    2.6345 C   0  0  0  0  0  0  0  0  0  0  0  0
   -1.4330   -0.7169   -0.0449 C   0  0  0  0  0  0  0  0  0  0  0  0
    0.1736   -1.0179    2.3940 C   0  0  0  0  0  0  0  0  0  0  0  0
   -0.1853   -0.1391    0.9836 C   0  0  0  0  0  0  0  0  0  0  0  0
    2.3545    0.3697    0.1558 C   0  0  0  0  0  0  0  0  0  0  0  0
    2.9920    1.6649   -0.2839 C   0  0  0  0  0  0  0  0  0  0  0  0
    0.5581   -5.5342    2.9150 H   0  0  0  0  0  0  0  0  0  0  0  0
    2.1843   -6.0254    2.4678 H   0  0  0  0  0  0  0  0  0  0  0  0
    1.8504   -3.6156    2.2260 H   0  0  0  0  0  0  0  0  0  0  0  0
    2.4835   -4.2795    0.7670 H   0  0  0  0  0  0  0  0  0  0  0  0
   -2.2725   -5.5369    2.1306 H   0  0  0  0  0  0  0  0  0  0  0  0
   -2.6083   -5.2411    0.3816 H   0  0  0  0  0  0  0  0  0  0  0  0
   -0.4490   -2.4143    0.1333 H   0  0  0  0  0  0  0  0  0  0  0  0
   -0.0219   -1.9856    0.9742 H   0  0  0  0  0  0  0  0  0  0  0  0
    0.1176   -5.3174   -0.4522 H   0  0  0  0  0  0  0  0  0  0  0  0
   -1.0729   -4.2128   -0.9018 H   0  0  0  0  0  0  0  0  0  0  0  0
    3.4293   -7.3852    1.2964 H   0  0  0  0  0  0  0  0  0  0  0  0
    0.5688   -8.9625   -2.4955 H   0  0  0  0  0  0  0  0  0  0  0  0
    4.2797   -9.1119   -0.2165 H   0  0  0  0  0  0  0  0  0  0  0  0
    0.7110   -2.2021   -1.6106 H   0  0  0  0  0  0  0  0  0  0  0  0
    1.1664   -0.9414   -0.9855 H   0  0  0  0  0  0  0  0  0  0  0  0
    2.2116   -2.2898   -0.4567 H   0  0  0  0  0  0  0  0  0  0  0  0
    1.8536   -4.5144   -1.4754 H   0  0  0  0  0  0  0  0  0  0  0  0
    0.4945   -5.2916   -2.3975 H   0  0  0  0  0  0  0  0  0  0  0  0
    0.6454   -3.5875   -2.5019 H   0  0  0  0  0  0  0  0  0  0  0  0
   -2.6636   -2.7200   -0.7264 H   0  0  0  0  0  0  0  0  0  0  0  0
   -0.0927   -3.3115    3.2084 H   0  0  0  0  0  0  0  0  0  0  0  0
   -1.2968   -0.4570   -1.1810 H   0  0  0  0  0  0  0  0  0  0  0  0
    1.3225   -1.1002    2.6131 H   0  0  0  0  0  0  0  0  0  0  0  0
    2.7639   -0.0464    1.0728 H   0  0  0  0  0  0  0  0  0  0  0  0
    2.7325   -0.2825   -0.6723 H   0  0  0  0  0  0  0  0  0  0  0  0
    2.6761    2.4262    0.4193 H   0  0  0  0  0  0  0  0  0  0  0  0
    4.0857    1.5897   -0.3338 H   0  0  0  0  0  0  0  0  0  0  0  0
    2.6208    1.9330   -1.2836 H   0  0  0  0  0  0  0  0  0  0  0  0
  1 27  1  0  0  0  0
  1 28  1  0  0  0  0
  2  7  1  0  0  0  0
  3  7  2  0  0  0  0
  4  8  1  0  0  0  0
  4 10  1  0  0  0  0
  4 11  1  0  0  0  0
  5  9  1  0  0  0  0
  5 14  1  0  0  0  0
  5 15  1  0  0  0  0
  6 10  2  0  0  0  0
  6 12  1  0  0  0  0
  7 19  1  0  0  0  0
  8  9  1  0  0  0  0
  8 30  1  0  0  0  0
  8 31  1  0  0  0  0
  9 32  1  0  0  0  0
  9 33  1  0  0  0  0
 10 13  1  0  0  0  0
 11 12  2  0  0  0  0
 11 16  1  0  0  0  0
 12 18  1  0  0  0  0
 13 17  1  0  0  0  0
 13 34  1  0  0  0  0
 13 35  1  0  0  0  0
 14 21  1  0  0  0  0
 14 36  1  0  0  0  0
 14 37  1  0  0  0  0
 15 22  1  0  0  0  0
 15 38  1  0  0  0  0
 15 39  1  0  0  0  0
 16 20  2  0  0  0  0
 16 40  1  0  0  0  0
 17 23  2  0  0  0  0
 17 24  1  0  0  0  0
 18 19  2  0  0  0  0
 18 41  1  0  0  0  0
 19 20  1  0  0  0  0
 20 42  1  0  0  0  0
 21 43  1  0  0  0  0
 21 44  1  0  0  0  0
 21 45  1  0  0  0  0
 22 46  1  0  0  0  0
 22 47  1  0  0  0  0
 22 48  1  0  0  0  0
 23 25  1  0  0  0  0
 23 49  1  0  0  0  0
 24 26  2  0  0  0  0
 24 50  1  0  0  0  0
 25 27  2  0  0  0  0
 25 51  1  0  0  0  0
 26 27  1  0  0  0  0
 26 52  1  0  0  0  0
 28 29  1  0  0  0  0
 28 53  1  0  0  0  0
 28 54  1  0  0  0  0
 29 55  1  0  0  0  0
 29 56  1  0  0  0  0
 29 57  1  0  0  0  0
M  CHG  2   2  -1   7   1
M  END
>  <DRUGBANK_ID>
DB01462

>  <COMMON_NAME>
Etonitazene

>  <CAS_NUMBER>
911-65-9

>  <UNII>
9U3GT3353T

>  <SYNONYMS>
Etonitazene

$$$$
