
 OpenBabel10282417133D

 43 45  0  0  0  0  0  0  0  0999 V2000
   -1.4284    0.1942   -0.1687 C   0  0  0  0  0  0  0  0  0  0  0  0
   -0.9870   -1.2268    0.1268 C   0  0  0  0  0  0  0  0  0  0  0  0
   -0.4635    1.3445    0.2739 C   0  0  0  0  0  0  0  0  0  0  0  0
    0.4643   -1.4761   -0.2771 C   0  0  0  0  0  0  0  0  0  0  0  0
    0.9945    1.0088   -0.2029 C   0  0  0  0  0  0  0  0  0  0  0  0
    1.4777   -0.4036    0.1338 C   0  0  0  0  0  0  0  0  0  0  0  0
   -0.9375    2.6347   -0.3867 N   0  0  0  0  0  0  0  0  0  0  0  0
   -0.3828    1.4828    1.8445 C   0  0  0  0  0  0  0  0  0  0  0  0
   -0.1161    0.3733    2.6733 C   0  0  0  0  0  0  0  0  0  0  0  0
   -0.4920    2.7103    2.5175 C   0  0  0  0  0  0  0  0  0  0  0  0
   -0.0042    0.4515    4.0609 C   0  0  0  0  0  0  0  0  0  0  0  0
   -0.4287    2.7963    3.9190 C   0  0  0  0  0  0  0  0  0  0  0  0
   -0.1851    1.6629    4.6875 C   0  0  0  0  0  0  0  0  0  0  0  0
   -0.8582    2.6266   -1.8706 C   0  0  0  0  0  0  0  0  0  0  0  0
   -2.3262    2.9954   -0.0068 C   0  0  0  0  0  0  0  0  0  0  0  0
   -1.2464    3.9635   -2.5001 C   0  0  0  0  0  0  0  0  0  0  0  0
   -2.6804    4.3914   -0.5127 C   0  0  0  0  0  0  0  0  0  0  0  0
   -2.6203    4.4121   -2.0308 C   0  0  0  0  0  0  0  0  0  0  0  0
   -1.5536    0.2087   -1.2567 H   0  0  0  0  0  0  0  0  0  0  0  0
   -2.4287    0.3398    0.2551 H   0  0  0  0  0  0  0  0  0  0  0  0
   -1.1898   -1.4771    1.1697 H   0  0  0  0  0  0  0  0  0  0  0  0
   -1.6385   -1.9165   -0.4235 H   0  0  0  0  0  0  0  0  0  0  0  0
    0.7814   -2.4475    0.1143 H   0  0  0  0  0  0  0  0  0  0  0  0
    0.4901   -1.5483   -1.3708 H   0  0  0  0  0  0  0  0  0  0  0  0
    1.7067    1.7495    0.1876 H   0  0  0  0  0  0  0  0  0  0  0  0
    1.0832    1.0556   -1.2908 H   0  0  0  0  0  0  0  0  0  0  0  0
    1.7529   -0.4816    1.1882 H   0  0  0  0  0  0  0  0  0  0  0  0
    2.4231   -0.5906   -0.3904 H   0  0  0  0  0  0  0  0  0  0  0  0
    0.0730   -0.6108    2.2829 H   0  0  0  0  0  0  0  0  0  0  0  0
   -0.6435    3.6388    1.9716 H   0  0  0  0  0  0  0  0  0  0  0  0
    0.2380   -0.4489    4.6200 H   0  0  0  0  0  0  0  0  0  0  0  0
   -0.5565    3.7577    4.4041 H   0  0  0  0  0  0  0  0  0  0  0  0
   -0.1150    1.7260    5.7690 H   0  0  0  0  0  0  0  0  0  0  0  0
   -1.5222    1.8693   -2.3010 H   0  0  0  0  0  0  0  0  0  0  0  0
    0.1491    2.4169   -2.2334 H   0  0  0  0  0  0  0  0  0  0  0  0
   -2.4891    2.9957    1.0723 H   0  0  0  0  0  0  0  0  0  0  0  0
   -3.0485    2.2812   -0.4171 H   0  0  0  0  0  0  0  0  0  0  0  0
   -1.2505    3.8548   -3.5915 H   0  0  0  0  0  0  0  0  0  0  0  0
   -0.4919    4.7185   -2.2517 H   0  0  0  0  0  0  0  0  0  0  0  0
   -1.9922    5.1360   -0.0920 H   0  0  0  0  0  0  0  0  0  0  0  0
   -3.6884    4.6544   -0.1754 H   0  0  0  0  0  0  0  0  0  0  0  0
   -2.8479    5.4101   -2.4142 H   0  0  0  0  0  0  0  0  0  0  0  0
   -3.3803    3.7264   -2.4272 H   0  0  0  0  0  0  0  0  0  0  0  0
  1 19  1  0  0  0  0
  1 20  1  0  0  0  0
  2  1  1  0  0  0  0
  2 21  1  0  0  0  0
  2 22  1  0  0  0  0
  3  1  1  0  0  0  0
  4  2  1  0  0  0  0
  4 23  1  0  0  0  0
  4 24  1  0  0  0  0
  5  3  1  0  0  0  0
  5 25  1  0  0  0  0
  5 26  1  0  0  0  0
  6  4  1  0  0  0  0
  6  5  1  0  0  0  0
  6 27  1  0  0  0  0
  6 28  1  0  0  0  0
  7  3  1  0  0  0  0
  8  3  1  0  0  0  0
  9  8  1  0  0  0  0
  9 29  1  0  0  0  0
 10  8  2  0  0  0  0
 10 30  1  0  0  0  0
 11  9  2  0  0  0  0
 11 31  1  0  0  0  0
 12 10  1  0  0  0  0
 12 32  1  0  0  0  0
 13 11  1  0  0  0  0
 13 12  2  0  0  0  0
 13 33  1  0  0  0  0
 14  7  1  0  0  0  0
 14 34  1  0  0  0  0
 14 35  1  0  0  0  0
 15  7  1  0  0  0  0
 15 36  1  0  0  0  0
 15 37  1  0  0  0  0
 16 14  1  0  0  0  0
 16 38  1  0  0  0  0
 16 39  1  0  0  0  0
 17 15  1  0  0  0  0
 17 40  1  0  0  0  0
 17 41  1  0  0  0  0
 18 16  1  0  0  0  0
 18 17  1  0  0  0  0
 18 42  1  0  0  0  0
 18 43  1  0  0  0  0
M  END
>  <DRUGBANK_ID>
DB03575

>  <SECONDARY_ACCESSION_NUMBERS>
EXPT03307

>  <COMMON_NAME>
Phencyclidine

>  <CAS_NUMBER>
77-10-1

>  <UNII>
J1DOI7UV76

>  <SYNONYMS>
1-(1-Phenylcyclohexyl)piperidine; Fenciclidina; PCP; Phencyclidine; Phencyclidinum

$$$$
