
 OpenBabel10282417213D

 34 35  0  0  0  0  0  0  0  0999 V2000
   -1.3092   -0.2012   -0.0646 C   0  0  0  0  0  0  0  0  0  0  0  0
   -1.2306    1.1845   -0.0322 C   0  0  0  0  0  0  0  0  0  0  0  0
    0.0280    1.8780   -0.0546 C   0  0  0  0  0  0  0  0  0  0  0  0
   -0.1520   -0.9263   -0.0444 C   0  0  0  0  0  0  0  0  0  0  0  0
    1.0660   -0.2556    0.0844 C   0  0  0  0  0  0  0  0  0  0  0  0
    1.2512    1.1469   -0.0461 C   0  0  0  0  0  0  0  0  0  0  0  0
    2.6763    1.7695   -0.1159 C   0  0  0  0  0  0  0  0  0  0  0  0
    3.9476    1.0225   -0.1999 C   0  0  0  0  0  0  0  0  0  0  0  0
    4.1532   -0.2256   -0.5670 C   0  0  0  0  0  0  0  0  0  0  0  0
    1.9938   -1.1301    0.5874 O   0  0  0  0  0  0  0  0  0  0  0  0
    2.9558    2.9534   -0.0244 O   0  0  0  0  0  0  0  0  0  0  0  0
   -0.2213    3.2348   -0.0300 O   0  0  0  0  0  0  0  0  0  0  0  0
   -2.4690   -0.9111   -0.0287 O   0  0  0  0  0  0  0  0  0  0  0  0
    5.3711   -0.9561   -0.2834 C   0  0  0  0  0  0  0  0  0  0  0  0
    6.3020   -0.5927    0.6964 C   0  0  0  0  0  0  0  0  0  0  0  0
    7.4294   -1.3827    0.8726 C   0  0  0  0  0  0  0  0  0  0  0  0
    7.5710   -2.5589    0.1318 C   0  0  0  0  0  0  0  0  0  0  0  0
    6.5683   -2.9847   -0.7357 C   0  0  0  0  0  0  0  0  0  0  0  0
    5.4832   -2.1658   -0.9638 C   0  0  0  0  0  0  0  0  0  0  0  0
    0.8701    4.1302   -0.0261 C   0  0  0  0  0  0  0  0  0  0  0  0
   -2.1509    1.7631    0.0255 H   0  0  0  0  0  0  0  0  0  0  0  0
   -0.1803   -2.0131    0.0014 H   0  0  0  0  0  0  0  0  0  0  0  0
    4.7978    1.6493    0.0841 H   0  0  0  0  0  0  0  0  0  0  0  0
    3.3705   -0.8406   -0.9939 H   0  0  0  0  0  0  0  0  0  0  0  0
    2.6194   -0.6148    1.1210 H   0  0  0  0  0  0  0  0  0  0  0  0
   -3.2294   -0.3115    0.0076 H   0  0  0  0  0  0  0  0  0  0  0  0
    6.1672    0.2883    1.3224 H   0  0  0  0  0  0  0  0  0  0  0  0
    8.1927   -1.0836    1.5853 H   0  0  0  0  0  0  0  0  0  0  0  0
    8.4702   -3.1551    0.2298 H   0  0  0  0  0  0  0  0  0  0  0  0
    6.6221   -3.9389   -1.2475 H   0  0  0  0  0  0  0  0  0  0  0  0
    4.7109   -2.4699   -1.6681 H   0  0  0  0  0  0  0  0  0  0  0  0
    1.4348    4.0032    0.9054 H   0  0  0  0  0  0  0  0  0  0  0  0
    1.4217    4.0120   -0.9657 H   0  0  0  0  0  0  0  0  0  0  0  0
    0.5502    5.1722   -0.0167 H   0  0  0  0  0  0  0  0  0  0  0  0
  1 13  1  0  0  0  0
  1  2  2  0  0  0  0
  2  3  1  0  0  0  0
  2 21  1  0  0  0  0
  3 12  1  0  0  0  0
  3  6  2  0  0  0  0
  4  1  1  0  0  0  0
  4 22  1  0  0  0  0
  5  6  1  0  0  0  0
  5  4  2  0  0  0  0
  5 10  1  0  0  0  0
  6  7  1  0  0  0  0
  7 11  2  0  0  0  0
  7  8  1  0  0  0  0
  8  9  2  0  0  0  0
  8 23  1  0  0  0  0
  9 14  1  0  0  0  0
  9 24  1  0  0  0  0
 10 25  1  0  0  0  0
 12 20  1  0  0  0  0
 13 26  1  0  0  0  0
 14 15  2  0  0  0  0
 15 16  1  0  0  0  0
 15 27  1  0  0  0  0
 16 17  2  0  0  0  0
 16 28  1  0  0  0  0
 17 18  1  0  0  0  0
 17 29  1  0  0  0  0
 18 19  2  0  0  0  0
 18 30  1  0  0  0  0
 19 14  1  0  0  0  0
 19 31  1  0  0  0  0
 20 32  1  0  0  0  0
 20 33  1  0  0  0  0
 20 34  1  0  0  0  0
M  END
>  <DRUGBANK_ID>
DB14122

>  <COMMON_NAME>
Dihydroxymethoxychalcone

>  <CAS_NUMBER>
19309-14-9

>  <UNII>
H8KP1OJ8JX

>  <SYNONYMS>
(E)-1-(2,4-Dihydroxy-6-methoxyphenyl)-3-phenyl-2-propen-1-one; Alpinetin chalcone; Cardamomin; Cardamonin

$$$$
