CT2
 OpenBabel10282417163D

 50 51  0  0  0  0  0  0  0  0999 V2000
   -4.0126   -3.4133   -3.7445 C   0  0  0  0  0  0  0  0  0  0  0  0
   -2.6316   -4.0294   -3.8683 C   0  0  0  0  0  0  0  0  0  0  0  0
   -1.5629   -3.0148   -4.2980 C   0  0  0  0  0  0  0  0  0  0  0  0
   -1.4802   -1.7568   -3.4295 C   0  0  0  0  0  0  0  0  0  0  0  0
   -0.9628   -1.9797   -2.0104 C   0  0  2  0  0  0  0  0  0  0  0  0
    0.4861   -1.9365   -2.0130 N   0  0  0  0  0  0  0  0  0  0  0  0
    1.2607   -0.8702   -1.6950 C   0  0  0  0  0  0  0  0  0  0  0  0
    2.4720   -1.0353   -1.5919 O   0  0  0  0  0  0  0  0  0  0  0  0
    0.5764    0.2896   -1.5314 O   0  0  0  0  0  0  0  0  0  0  0  0
    1.2420    1.4760   -1.0092 C   0  0  0  0  0  0  0  0  0  0  0  0
    1.2393    1.4809    0.5473 C   0  0  0  0  0  0  0  0  0  0  0  0
   -0.1416    1.4896    1.1816 C   0  0  0  0  0  0  0  0  0  0  0  0
   -1.0307    0.4419    0.9249 C   0  0  0  0  0  0  0  0  0  0  0  0
   -2.3027    0.3933    1.4811 C   0  0  0  0  0  0  0  0  0  0  0  0
   -2.6794    1.3701    2.3887 C   0  0  0  0  0  0  0  0  0  0  0  0
   -1.7921    2.4004    2.7044 C   0  0  0  0  0  0  0  0  0  0  0  0
   -0.5498    2.4927    2.0651 C   0  0  0  0  0  0  0  0  0  0  0  0
    0.5551    2.7459   -1.5545 C   0  0  0  0  0  0  0  0  0  0  0  0
    1.6445    3.8228   -1.6018 C   0  0  0  0  0  0  0  0  0  0  0  0
    2.9816    3.0991   -1.5247 C   0  0  0  0  0  0  0  0  0  0  0  0
    2.6441    1.6302   -1.6126 C   0  0  0  0  0  0  0  0  0  0  0  0
   -1.3061   -3.2995   -1.3378 C   0  0  0  0  0  0  0  0  0  0  0  0
   -2.2407   -3.4564   -0.5568 O   0  0  0  0  0  0  0  0  0  0  0  0
   -1.3705   -1.1912   -1.3820 H   0  0  0  0  0  0  0  0  0  0  0  0
   -4.0216   -2.5517   -3.0700 H   0  0  0  0  0  0  0  0  0  0  0  0
   -4.7071   -4.1410   -3.3181 H   0  0  0  0  0  0  0  0  0  0  0  0
   -4.3745   -3.0947   -4.7240 H   0  0  0  0  0  0  0  0  0  0  0  0
   -2.4107   -4.5032   -2.9151 H   0  0  0  0  0  0  0  0  0  0  0  0
   -2.6360   -4.8691   -4.5695 H   0  0  0  0  0  0  0  0  0  0  0  0
   -0.5773   -3.4957   -4.3306 H   0  0  0  0  0  0  0  0  0  0  0  0
   -1.7858   -2.7026   -5.3258 H   0  0  0  0  0  0  0  0  0  0  0  0
   -0.8300   -1.0265   -3.9344 H   0  0  0  0  0  0  0  0  0  0  0  0
   -2.4533   -1.2564   -3.3886 H   0  0  0  0  0  0  0  0  0  0  0  0
    1.0254   -2.7610   -2.2448 H   0  0  0  0  0  0  0  0  0  0  0  0
    1.7585    0.5908    0.9237 H   0  0  0  0  0  0  0  0  0  0  0  0
    1.8029    2.3447    0.9240 H   0  0  0  0  0  0  0  0  0  0  0  0
   -0.7258   -0.3720    0.2894 H   0  0  0  0  0  0  0  0  0  0  0  0
   -2.9688   -0.4269    1.2257 H   0  0  0  0  0  0  0  0  0  0  0  0
   -3.6568    1.3183    2.8582 H   0  0  0  0  0  0  0  0  0  0  0  0
   -2.0671    3.1277    3.4630 H   0  0  0  0  0  0  0  0  0  0  0  0
    0.0927    3.3438    2.2771 H   0  0  0  0  0  0  0  0  0  0  0  0
    0.1533    2.5646   -2.5580 H   0  0  0  0  0  0  0  0  0  0  0  0
   -0.2915    3.0884   -0.9494 H   0  0  0  0  0  0  0  0  0  0  0  0
    1.5653    4.4108   -2.5216 H   0  0  0  0  0  0  0  0  0  0  0  0
    1.5531    4.5178   -0.7596 H   0  0  0  0  0  0  0  0  0  0  0  0
    3.6637    3.3893   -2.3292 H   0  0  0  0  0  0  0  0  0  0  0  0
    3.4819    3.3113   -0.5735 H   0  0  0  0  0  0  0  0  0  0  0  0
    3.3985    1.0310   -1.0943 H   0  0  0  0  0  0  0  0  0  0  0  0
    2.6282    1.3169   -2.6653 H   0  0  0  0  0  0  0  0  0  0  0  0
   -0.7474   -4.1807   -1.7124 H   0  0  0  0  0  0  0  0  0  0  0  0
  1  2  1  0  0  0  0
  1 25  1  0  0  0  0
  1 26  1  0  0  0  0
  1 27  1  0  0  0  0
  2  3  1  0  0  0  0
  2 28  1  0  0  0  0
  2 29  1  0  0  0  0
  3  4  1  0  0  0  0
  3 30  1  0  0  0  0
  3 31  1  0  0  0  0
  4 32  1  0  0  0  0
  4 33  1  0  0  0  0
  5 22  1  0  0  0  0
  5 24  1  1  0  0  0
  5  6  1  0  0  0  0
  5  4  1  0  0  0  0
  6  7  1  0  0  0  0
  6 34  1  0  0  0  0
  7  8  2  0  0  0  0
  7  9  1  0  0  0  0
  9 10  1  0  0  0  0
 10 11  1  0  0  0  0
 10 18  1  0  0  0  0
 10 21  1  0  0  0  0
 11 12  1  0  0  0  0
 11 35  1  0  0  0  0
 11 36  1  0  0  0  0
 12 13  1  0  0  0  0
 12 17  2  0  0  0  0
 13 14  2  0  0  0  0
 13 37  1  0  0  0  0
 14 15  1  0  0  0  0
 14 38  1  0  0  0  0
 15 16  2  0  0  0  0
 15 39  1  0  0  0  0
 16 17  1  0  0  0  0
 16 40  1  0  0  0  0
 17 41  1  0  0  0  0
 18 19  1  0  0  0  0
 18 42  1  0  0  0  0
 18 43  1  0  0  0  0
 19 20  1  0  0  0  0
 19 44  1  0  0  0  0
 19 45  1  0  0  0  0
 20 21  1  0  0  0  0
 20 46  1  0  0  0  0
 20 47  1  0  0  0  0
 21 48  1  0  0  0  0
 21 49  1  0  0  0  0
 22 23  2  0  0  0  0
 22 50  1  0  0  0  0
M  END
>  <DRUGBANK_ID>
DB07593

>  <COMMON_NAME>
1-(PHENYLMETHYL)CYCLOPENTYL[(1S)-1-FORMYLPENTYL]CARBAMATE

$$$$
