
 OpenBabel10282417213D

 91 92  0  0  1  0  0  0  0  0999 V2000
    3.0693   -0.8741    0.7146 C   0  0  0  0  0  0  0  0  0  0  0  0
    2.5927   -0.7107    2.1459 C   0  0  0  0  0  0  0  0  0  0  0  0
    3.0981    0.6133    2.7102 C   0  0  0  0  0  0  0  0  0  0  0  0
    2.5712    1.7814    1.8763 C   0  0  0  0  0  0  0  0  0  0  0  0
    1.0433    1.7745    1.8808 C   0  0  0  0  0  0  0  0  0  0  0  0
    0.5509    1.9125    3.3169 C   0  0  0  0  0  0  0  0  0  0  0  0
    1.1059    3.2146    3.8872 C   0  0  0  0  0  0  0  0  0  0  0  0
    0.6270    4.3446    2.9989 C   0  0  0  0  0  0  0  0  0  0  0  0
   -0.8603    4.2040    3.0016 C   0  0  0  0  0  0  0  0  0  0  0  0
   -1.1749    4.2123    4.5189 C   0  0  0  0  0  0  0  0  0  0  0  0
   -0.4765    5.5457    4.9949 C   0  0  0  0  0  0  0  0  0  0  0  0
   -1.1472    6.3861    3.8350 C   0  0  0  0  0  0  0  0  0  0  0  0
   -2.8247    5.4744    3.6090 C   0  0  0  0  0  0  0  0  0  0  0  0
   -2.3491    6.0105    5.3610 C   0  0  0  0  0  0  0  0  0  0  0  0
   -1.7653    7.9928    5.6290 C   0  0  0  0  0  0  0  0  0  0  0  0
   -2.7894    9.5175    4.7321 C   0  0  0  0  0  0  0  0  0  0  0  0
   -4.5977    9.3790    4.6981 O   0  0  0  0  0  0  0  0  0  0  0  0
   -5.8399    8.3414    4.1792 C   0  0  0  0  0  0  0  0  0  0  0  0
   -5.0193    8.1624    2.9786 C   0  0  0  0  0  0  0  0  0  0  0  0
   -3.4154    8.0461    3.0780 C   0  0  0  0  0  0  0  0  0  0  0  0
   -2.9111    7.1891    4.2106 O   0  0  0  0  0  0  0  0  0  0  0  0
   -3.4870    7.3586    5.8331 P   0  0  3  0  0  0  0  0  0  0  0  0
   -4.8956    7.9278    5.9050 O   0  0  0  0  0  0  0  0  0  0  0  0
   -4.3276    5.9657    6.3472 O   0  0  0  0  0  0  0  0  0  0  0  0
   -4.0961    7.5379    7.5494 C   0  0  0  0  0  0  0  0  0  0  0  0
   -3.9268    8.8528    8.2885 O   0  0  0  0  0  0  0  0  0  0  0  0
   -4.6132   10.0054    7.7148 C   0  0  2  0  0  0  0  0  0  0  0  0
   -6.0594    9.7578    7.4430 C   0  0  0  0  0  0  0  0  0  0  0  0
   -3.8752   10.4532    6.5503 C   0  0  0  0  0  0  0  0  0  0  0  0
   -4.6137   11.3018    5.3509 N   0  0  0  0  0  0  0  0  0  0  0  0
   -5.4108   11.1594    4.0323 C   0  0  0  0  0  0  0  0  0  0  0  0
   -5.4199   12.1542    3.2049 N   0  0  0  0  0  0  0  0  0  0  0  0
   -4.7521   13.0031    3.9766 C   0  0  0  0  0  0  0  0  0  0  0  0
   -4.1555   12.5120    5.1192 C   0  0  0  0  0  0  0  0  0  0  0  0
   -3.3573   13.0536    6.0035 N   0  0  0  0  0  0  0  0  0  0  0  0
   -3.2843   14.3333    5.7298 C   0  0  0  0  0  0  0  0  0  0  0  0
   -3.8855   15.0100    4.7115 N   0  0  0  0  0  0  0  0  0  0  0  0
   -4.6297   14.3362    3.8024 C   0  0  0  0  0  0  0  0  0  0  0  0
   -5.2946   14.8932    2.7421 N   0  0  0  0  0  0  0  0  0  0  0  0
    2.6987   -0.0744    0.0656 H   0  0  0  0  0  0  0  0  0  0  0  0
    2.7073   -1.8102    0.2936 H   0  0  0  0  0  0  0  0  0  0  0  0
    4.1623   -0.8518    0.6874 H   0  0  0  0  0  0  0  0  0  0  0  0
    1.4983   -0.7628    2.1765 H   0  0  0  0  0  0  0  0  0  0  0  0
    2.9458   -1.5369    2.7652 H   0  0  0  0  0  0  0  0  0  0  0  0
    2.7898    0.7063    3.7582 H   0  0  0  0  0  0  0  0  0  0  0  0
    4.1897    0.6336    2.7250 H   0  0  0  0  0  0  0  0  0  0  0  0
    2.9771    2.7224    2.2583 H   0  0  0  0  0  0  0  0  0  0  0  0
    2.9355    1.7430    0.8504 H   0  0  0  0  0  0  0  0  0  0  0  0
    0.6682    2.5720    1.2325 H   0  0  0  0  0  0  0  0  0  0  0  0
    0.6273    0.8713    1.4372 H   0  0  0  0  0  0  0  0  0  0  0  0
   -0.5436    1.8574    3.3374 H   0  0  0  0  0  0  0  0  0  0  0  0
    0.8490    1.0858    3.9549 H   0  0  0  0  0  0  0  0  0  0  0  0
    0.8060    3.3101    4.9363 H   0  0  0  0  0  0  0  0  0  0  0  0
    2.1802    3.2592    3.9564 H   0  0  0  0  0  0  0  0  0  0  0  0
    0.9931    5.3103    3.3708 H   0  0  0  0  0  0  0  0  0  0  0  0
    0.9647    4.3455    1.9776 H   0  0  0  0  0  0  0  0  0  0  0  0
   -1.2309    5.0000    2.3264 H   0  0  0  0  0  0  0  0  0  0  0  0
   -1.3696    3.3763    2.5446 H   0  0  0  0  0  0  0  0  0  0  0  0
   -2.2766    4.0155    4.6245 H   0  0  0  0  0  0  0  0  0  0  0  0
   -0.9674    3.4349    5.2110 H   0  0  0  0  0  0  0  0  0  0  0  0
   -0.7356    5.8292    6.0885 H   0  0  0  0  0  0  0  0  0  0  0  0
    0.5386    5.8022    5.0934 H   0  0  0  0  0  0  0  0  0  0  0  0
   -0.9669    7.4300    4.1145 H   0  0  0  0  0  0  0  0  0  0  0  0
   -0.8685    6.6882    2.8425 H   0  0  0  0  0  0  0  0  0  0  0  0
   -3.9738    5.9740    3.4121 H   0  0  0  0  0  0  0  0  0  0  0  0
   -2.8419    5.7372    2.5487 H   0  0  0  0  0  0  0  0  0  0  0  0
   -3.6411    5.6927    4.9403 H   0  0  0  0  0  0  0  0  0  0  0  0
   -2.5192    5.3854    6.3266 H   0  0  0  0  0  0  0  0  0  0  0  0
   -2.1112    8.3240    6.7445 H   0  0  0  0  0  0  0  0  0  0  0  0
   -0.8112    8.3283    6.1075 H   0  0  0  0  0  0  0  0  0  0  0  0
   -2.4325   10.5747    5.0991 H   0  0  0  0  0  0  0  0  0  0  0  0
   -3.0359   10.0353    3.7723 H   0  0  0  0  0  0  0  0  0  0  0  0
   -6.0461    7.3777    4.7577 H   0  0  0  0  0  0  0  0  0  0  0  0
   -6.8508    8.7600    4.5085 H   0  0  0  0  0  0  0  0  0  0  0  0
   -5.4168    7.2322    2.6471 H   0  0  0  0  0  0  0  0  0  0  0  0
   -5.2753    8.9783    2.3171 H   0  0  0  0  0  0  0  0  0  0  0  0
   -3.0613    7.8265    2.0784 H   0  0  0  0  0  0  0  0  0  0  0  0
   -2.5980    8.7880    3.0252 H   0  0  0  0  0  0  0  0  0  0  0  0
   -4.4942    8.4471    5.2506 H   0  0  0  0  0  0  0  0  0  0  0  0
   -5.1611    7.2850    7.7534 H   0  0  0  0  0  0  0  0  0  0  0  0
   -3.5657    6.8342    8.2144 H   0  0  0  0  0  0  0  0  0  0  0  0
   -4.3567   10.9331    8.2084 H   0  0  0  0  0  0  0  0  0  0  0  0
   -6.4599   10.4084    6.6673 H   0  0  0  0  0  0  0  0  0  0  0  0
   -6.3354    8.7468    7.1399 H   0  0  0  0  0  0  0  0  0  0  0  0
   -6.5270    9.9194    8.3962 H   0  0  0  0  0  0  0  0  0  0  0  0
   -2.7434   10.5342    6.7791 H   0  0  0  0  0  0  0  0  0  0  0  0
   -3.6495    9.4602    6.3084 H   0  0  0  0  0  0  0  0  0  0  0  0
   -5.9434   10.3001    3.6605 H   0  0  0  0  0  0  0  0  0  0  0  0
   -2.6744   14.8374    6.4534 H   0  0  0  0  0  0  0  0  0  0  0  0
   -5.8561   14.2887    2.1395 H   0  0  0  0  0  0  0  0  0  0  0  0
   -5.2280   15.8801    2.6445 H   0  0  0  0  0  0  0  0  0  0  0  0
  1  2  1  0  0  0  0
  1 40  1  0  0  0  0
  1 41  1  0  0  0  0
  1 42  1  0  0  0  0
  2  3  1  0  0  0  0
  2 43  1  0  0  0  0
  2 44  1  0  0  0  0
  3  4  1  0  0  0  0
  3 45  1  0  0  0  0
  3 46  1  0  0  0  0
  4  5  1  0  0  0  0
  4 47  1  0  0  0  0
  4 48  1  0  0  0  0
  5  6  1  0  0  0  0
  5 49  1  0  0  0  0
  5 50  1  0  0  0  0
  6  7  1  0  0  0  0
  6 51  1  0  0  0  0
  6 52  1  0  0  0  0
  7  8  1  0  0  0  0
  7 53  1  0  0  0  0
  7 54  1  0  0  0  0
  8  9  1  0  0  0  0
  8 55  1  0  0  0  0
  8 56  1  0  0  0  0
  9 10  1  0  0  0  0
  9 57  1  0  0  0  0
  9 58  1  0  0  0  0
 10 11  1  0  0  0  0
 10 59  1  0  0  0  0
 10 60  1  0  0  0  0
 11 12  1  0  0  0  0
 11 61  1  0  0  0  0
 11 62  1  0  0  0  0
 12 13  1  0  0  0  0
 12 63  1  0  0  0  0
 12 64  1  0  0  0  0
 13 14  1  0  0  0  0
 13 65  1  0  0  0  0
 13 66  1  0  0  0  0
 14 15  1  0  0  0  0
 14 67  1  0  0  0  0
 14 68  1  0  0  0  0
 15 16  1  0  0  0  0
 15 69  1  0  0  0  0
 15 70  1  0  0  0  0
 16 17  1  0  0  0  0
 16 71  1  0  0  0  0
 16 72  1  0  0  0  0
 17 18  1  0  0  0  0
 18 19  1  0  0  0  0
 18 73  1  0  0  0  0
 18 74  1  0  0  0  0
 19 20  1  0  0  0  0
 19 75  1  0  0  0  0
 19 76  1  0  0  0  0
 20 21  1  0  0  0  0
 20 77  1  0  0  0  0
 20 78  1  0  0  0  0
 21 22  1  0  0  0  0
 22 23  1  0  0  0  0
 22 24  2  0  0  0  0
 22 25  1  0  0  0  0
 23 79  1  0  0  0  0
 25 26  1  0  0  0  0
 25 80  1  0  0  0  0
 25 81  1  0  0  0  0
 27 29  1  0  0  0  0
 27 82  1  1  0  0  0
 27 28  1  0  0  0  0
 27 26  1  0  0  0  0
 28 83  1  0  0  0  0
 28 84  1  0  0  0  0
 28 85  1  0  0  0  0
 29 30  1  0  0  0  0
 29 86  1  0  0  0  0
 29 87  1  0  0  0  0
 30 31  1  0  0  0  0
 30 34  1  0  0  0  0
 31 32  2  0  0  0  0
 31 88  1  0  0  0  0
 32 33  1  0  0  0  0
 33 34  2  0  0  0  0
 33 38  1  0  0  0  0
 34 35  1  0  0  0  0
 35 36  2  0  0  0  0
 36 37  1  0  0  0  0
 36 89  1  0  0  0  0
 37 38  2  0  0  0  0
 38 39  1  0  0  0  0
 39 90  1  0  0  0  0
 39 91  1  0  0  0  0
M  END
>  <DRUGBANK_ID>
DB14925

>  <COMMON_NAME>
Tenofovir exalidex

>  <CAS_NUMBER>
911208-73-6

>  <UNII>
K7J545MEMA

>  <SYNONYMS>
Tenofovir exalidex

$$$$
