1403
 OpenBabel10282417113D

 47 49  0  0  1  0  0  0  0  0999 V2000
    3.5405   -1.0617   -0.4745 C   0  0  0  0  0  0  0  0  0  0  0  0
    3.6446    0.3056   -0.7431 C   0  0  0  0  0  0  0  0  0  0  0  0
    2.5809    1.1683   -0.4600 C   0  0  0  0  0  0  0  0  0  0  0  0
    2.3645   -1.5661    0.0530 C   0  0  0  0  0  0  0  0  0  0  0  0
    1.2775   -0.7150    0.3015 C   0  0  0  0  0  0  0  0  0  0  0  0
    1.3941    0.6682    0.0602 C   0  0  0  0  0  0  0  0  0  0  0  0
    0.0116    1.7638    0.3949 S   0  0  0  0  0  0  0  0  0  0  0  0
    0.0264   -1.2723    0.6521 N   0  0  0  0  0  0  0  0  0  0  0  0
   -1.1386   -0.7453    0.0608 C   0  0  0  0  0  0  0  0  0  0  0  0
   -1.3300    0.6520   -0.0280 C   0  0  0  0  0  0  0  0  0  0  0  0
   -2.5455    1.1659   -0.4837 C   0  0  0  0  0  0  0  0  0  0  0  0
   -3.5987    0.3131   -0.8371 C   0  0  0  0  0  0  0  0  0  0  0  0
   -3.3881   -1.0707   -0.8760 C   0  0  0  0  0  0  0  0  0  0  0  0
   -2.1181   -1.5447   -0.5713 C   0  0  0  0  0  0  0  0  0  0  0  0
    0.1185   -2.0415    1.9518 C   0  0  0  0  0  0  0  0  0  0  0  0
   -0.7252   -1.5972    3.1850 C   0  0  1  0  0  0  0  0  0  0  0  0
   -2.2291   -1.3898    2.9683 C   0  0  0  0  0  0  0  0  0  0  0  0
   -0.5945   -2.5838    4.3733 C   0  0  0  0  0  0  0  0  0  0  0  0
   -3.0340   -2.6196    2.7635 N   0  0  0  0  0  0  0  0  0  0  0  0
   -4.3729   -2.2010    2.3548 C   0  0  0  0  0  0  0  0  0  0  0  0
   -2.4277   -3.5393    1.8128 C   0  0  0  0  0  0  0  0  0  0  0  0
   -4.4927   -1.8277   -1.1822 O   0  0  0  0  0  0  0  0  0  0  0  0
   -4.4667   -3.2271   -0.8979 C   0  0  0  0  0  0  0  0  0  0  0  0
    4.3595   -1.7353   -0.7089 H   0  0  0  0  0  0  0  0  0  0  0  0
    4.5517    0.6955   -1.1897 H   0  0  0  0  0  0  0  0  0  0  0  0
    2.6728    2.2288   -0.6830 H   0  0  0  0  0  0  0  0  0  0  0  0
    2.2616   -2.6397    0.2124 H   0  0  0  0  0  0  0  0  0  0  0  0
   -2.6945    2.2445   -0.5530 H   0  0  0  0  0  0  0  0  0  0  0  0
   -4.5673    0.7204   -1.0972 H   0  0  0  0  0  0  0  0  0  0  0  0
   -1.8787   -2.5877   -0.7804 H   0  0  0  0  0  0  0  0  0  0  0  0
    0.0270   -3.1048    1.7220 H   0  0  0  0  0  0  0  0  0  0  0  0
    1.1547   -2.0003    2.3286 H   0  0  0  0  0  0  0  0  0  0  0  0
   -0.3061   -0.6394    3.5257 H   0  0  0  0  0  0  0  0  0  0  0  0
   -2.6322   -0.8902    3.8613 H   0  0  0  0  0  0  0  0  0  0  0  0
   -2.3830   -0.6552    2.1772 H   0  0  0  0  0  0  0  0  0  0  0  0
    0.4417   -2.7721    4.6554 H   0  0  0  0  0  0  0  0  0  0  0  0
   -1.1260   -2.1897    5.2500 H   0  0  0  0  0  0  0  0  0  0  0  0
   -1.0515   -3.5558    4.1595 H   0  0  0  0  0  0  0  0  0  0  0  0
   -4.3542   -1.5198    1.5011 H   0  0  0  0  0  0  0  0  0  0  0  0
   -4.9964   -3.0633    2.1066 H   0  0  0  0  0  0  0  0  0  0  0  0
   -4.8750   -1.6735    3.1685 H   0  0  0  0  0  0  0  0  0  0  0  0
   -1.9781   -2.9696    1.0379 H   0  0  0  0  0  0  0  0  0  0  0  0
   -1.6126   -4.1391    2.2184 H   0  0  0  0  0  0  0  0  0  0  0  0
   -3.0816   -4.2569    1.3232 H   0  0  0  0  0  0  0  0  0  0  0  0
   -3.6692   -3.7467   -1.4313 H   0  0  0  0  0  0  0  0  0  0  0  0
   -4.3948   -3.4250    0.1627 H   0  0  0  0  0  0  0  0  0  0  0  0
   -5.4278   -3.6715   -1.1781 H   0  0  0  0  0  0  0  0  0  0  0  0
  1  2  1  0  0  0  0
  1 24  1  0  0  0  0
  2  3  2  0  0  0  0
  2 25  1  0  0  0  0
  3  6  1  0  0  0  0
  3 26  1  0  0  0  0
  4  1  2  0  0  0  0
  4 27  1  0  0  0  0
  5  6  2  0  0  0  0
  5  4  1  0  0  0  0
  6  7  1  0  0  0  0
  7 10  1  0  0  0  0
  8 15  1  0  0  0  0
  8  5  1  0  0  0  0
  9  8  1  0  0  0  0
  9 10  2  0  0  0  0
 10 11  1  0  0  0  0
 11 12  2  0  0  0  0
 11 28  1  0  0  0  0
 12 13  1  0  0  0  0
 12 29  1  0  0  0  0
 13 14  2  0  0  0  0
 13 22  1  0  0  0  0
 14  9  1  0  0  0  0
 14 30  1  0  0  0  0
 15 16  1  0  0  0  0
 15 31  1  0  0  0  0
 15 32  1  0  0  0  0
 16 17  1  0  0  0  0
 16 18  1  0  0  0  0
 16 33  1  1  0  0  0
 17 19  1  0  0  0  0
 17 34  1  0  0  0  0
 17 35  1  0  0  0  0
 18 36  1  0  0  0  0
 18 37  1  0  0  0  0
 18 38  1  0  0  0  0
 19 20  1  0  0  0  0
 19 21  1  0  0  0  0
 20 39  1  0  0  0  0
 20 40  1  0  0  0  0
 20 41  1  0  0  0  0
 21 42  1  0  0  0  0
 21 43  1  0  0  0  0
 21 44  1  0  0  0  0
 22 23  1  0  0  0  0
 23 45  1  0  0  0  0
 23 46  1  0  0  0  0
 23 47  1  0  0  0  0
M  END
>  <DRUGBANK_ID>
DB01403

>  <COMMON_NAME>
Methotrimeprazine

>  <CAS_NUMBER>
60-99-1

>  <UNII>
9G0LAW7ATQ

>  <SYNONYMS>
(-)-(2R)-3-(2-methoxy-10H-phenothiazin-10-yl)-N,N,2-trimethylpropan-1-amine; (-)-10-(3-(Dimethylamino)-2-methylpropyl)-2-methoxyphenothiazine; 2-Methoxytrimeprazine; Levomepromazina; Levomepromazine; Lévomépromazine; Levomepromazinum; Methotrimeprazine

$$$$
