
 OpenBabel10282417193D

 55 60  0  0  0  0  0  0  0  0999 V2000
   -1.1081    0.0386    0.0473 C   0  0  0  0  0  0  0  0  0  0  0  0
    0.0070    0.7986    0.0133 N   0  0  0  0  0  0  0  0  0  0  0  0
   -0.6836   -1.3773    0.0799 C   0  0  0  0  0  0  0  0  0  0  0  0
    1.1147    0.0269    0.0312 C   0  0  0  0  0  0  0  0  0  0  0  0
    0.6609   -1.3865    0.0576 C   0  0  0  0  0  0  0  0  0  0  0  0
   -2.2489    0.4513    0.0158 O   0  0  0  0  0  0  0  0  0  0  0  0
    2.2605    0.4372    0.0097 O   0  0  0  0  0  0  0  0  0  0  0  0
    1.5276   -2.5076   -0.0130 C   0  0  0  0  0  0  0  0  0  0  0  0
    1.5669   -3.4990   -1.0383 C   0  0  0  0  0  0  0  0  0  0  0  0
    2.4695   -2.8464    0.9314 C   0  0  0  0  0  0  0  0  0  0  0  0
    2.5175   -4.4490   -0.6604 C   0  0  0  0  0  0  0  0  0  0  0  0
    3.0270   -4.0433    0.5547 N   0  0  0  0  0  0  0  0  0  0  0  0
   -1.5930   -2.5339    0.0508 C   0  0  0  0  0  0  0  0  0  0  0  0
   -1.4906   -3.3906    1.1006 N   0  0  0  0  0  0  0  0  0  0  0  0
   -2.4664   -2.7453   -1.0256 C   0  0  0  0  0  0  0  0  0  0  0  0
   -2.2287   -4.5127    1.0636 C   0  0  0  0  0  0  0  0  0  0  0  0
   -3.2296   -3.9105   -0.9324 C   0  0  0  0  0  0  0  0  0  0  0  0
   -3.0906   -4.7871    0.0719 N   0  0  0  0  0  0  0  0  0  0  0  0
    0.8882   -3.6763   -2.2607 C   0  0  0  0  0  0  0  0  0  0  0  0
    1.1915   -4.7711   -3.0717 C   0  0  0  0  0  0  0  0  0  0  0  0
    2.8199   -5.5666   -1.4520 C   0  0  0  0  0  0  0  0  0  0  0  0
    2.1485   -5.6990   -2.6736 C   0  0  0  0  0  0  0  0  0  0  0  0
   -2.6082   -1.9052   -2.1651 C   0  0  0  0  0  0  0  0  0  0  0  0
   -3.5268   -2.1960   -3.1666 C   0  0  0  0  0  0  0  0  0  0  0  0
   -4.1637   -4.1652   -1.9361 C   0  0  0  0  0  0  0  0  0  0  0  0
   -4.3193   -3.3250   -3.0451 C   0  0  0  0  0  0  0  0  0  0  0  0
   -2.1990   -5.3928    2.1102 N   0  0  0  0  0  0  0  0  0  0  0  0
   -1.7814   -6.7803    1.9263 C   0  0  0  0  0  0  0  0  0  0  0  0
   -2.3555   -4.9344    3.4814 C   0  0  0  0  0  0  0  0  0  0  0  0
   -2.6929   -7.7223    2.7547 C   0  0  0  0  0  0  0  0  0  0  0  0
   -3.2523   -5.9416    4.2570 C   0  0  0  0  0  0  0  0  0  0  0  0
   -2.7265   -7.3271    4.1848 N   0  0  0  0  0  0  0  0  0  0  0  0
   -3.5505   -8.2455    4.9645 C   0  0  0  0  0  0  0  0  0  0  0  0
    0.0132    1.8048   -0.0191 H   0  0  0  0  0  0  0  0  0  0  0  0
    2.7714   -2.3625    1.8509 H   0  0  0  0  0  0  0  0  0  0  0  0
    3.7244   -4.5494    1.0828 H   0  0  0  0  0  0  0  0  0  0  0  0
    0.1472   -2.9572   -2.5888 H   0  0  0  0  0  0  0  0  0  0  0  0
    0.6786   -4.8868   -4.0228 H   0  0  0  0  0  0  0  0  0  0  0  0
    3.5597   -6.3006   -1.1482 H   0  0  0  0  0  0  0  0  0  0  0  0
    2.3806   -6.5360   -3.3284 H   0  0  0  0  0  0  0  0  0  0  0  0
   -2.0043   -1.0097   -2.2811 H   0  0  0  0  0  0  0  0  0  0  0  0
   -3.6251   -1.5359   -4.0244 H   0  0  0  0  0  0  0  0  0  0  0  0
   -4.7960   -5.0476   -1.8556 H   0  0  0  0  0  0  0  0  0  0  0  0
   -5.0539   -3.5587   -3.8115 H   0  0  0  0  0  0  0  0  0  0  0  0
   -0.7485   -6.8975    2.2838 H   0  0  0  0  0  0  0  0  0  0  0  0
   -1.7981   -7.0911    0.8760 H   0  0  0  0  0  0  0  0  0  0  0  0
   -1.3784   -4.8612    3.9732 H   0  0  0  0  0  0  0  0  0  0  0  0
   -2.8344   -3.9493    3.5209 H   0  0  0  0  0  0  0  0  0  0  0  0
   -2.3231   -8.7504    2.6622 H   0  0  0  0  0  0  0  0  0  0  0  0
   -3.7081   -7.6989    2.3350 H   0  0  0  0  0  0  0  0  0  0  0  0
   -4.2682   -5.9136    3.8364 H   0  0  0  0  0  0  0  0  0  0  0  0
   -3.3227   -5.6210    5.3021 H   0  0  0  0  0  0  0  0  0  0  0  0
   -3.5588   -7.9501    6.0200 H   0  0  0  0  0  0  0  0  0  0  0  0
   -4.5852   -8.2851    4.6080 H   0  0  0  0  0  0  0  0  0  0  0  0
   -3.1329   -9.2584    4.9294 H   0  0  0  0  0  0  0  0  0  0  0  0
  1  6  2  0  0  0  0
  2  1  1  0  0  0  0
  2 34  1  0  0  0  0
  3  1  1  0  0  0  0
  3 13  1  0  0  0  0
  4  2  1  0  0  0  0
  4  7  2  0  0  0  0
  5  3  2  0  0  0  0
  5  4  1  0  0  0  0
  5  8  1  0  0  0  0
  9  8  1  0  0  0  0
 10  8  2  0  0  0  0
 10 35  1  0  0  0  0
 11  9  2  0  0  0  0
 12 10  1  0  0  0  0
 12 11  1  0  0  0  0
 12 36  1  0  0  0  0
 14 13  1  0  0  0  0
 15 13  2  0  0  0  0
 16 14  2  0  0  0  0
 16 27  1  0  0  0  0
 17 15  1  0  0  0  0
 18 16  1  0  0  0  0
 18 17  2  0  0  0  0
 19  9  1  0  0  0  0
 19 37  1  0  0  0  0
 20 19  2  0  0  0  0
 20 38  1  0  0  0  0
 21 11  1  0  0  0  0
 21 39  1  0  0  0  0
 22 20  1  0  0  0  0
 22 21  2  0  0  0  0
 22 40  1  0  0  0  0
 23 15  1  0  0  0  0
 23 41  1  0  0  0  0
 24 23  2  0  0  0  0
 24 42  1  0  0  0  0
 25 17  1  0  0  0  0
 25 43  1  0  0  0  0
 26 24  1  0  0  0  0
 26 25  2  0  0  0  0
 26 44  1  0  0  0  0
 28 27  1  0  0  0  0
 28 45  1  0  0  0  0
 28 46  1  0  0  0  0
 29 27  1  0  0  0  0
 29 47  1  0  0  0  0
 29 48  1  0  0  0  0
 30 28  1  0  0  0  0
 30 49  1  0  0  0  0
 30 50  1  0  0  0  0
 31 29  1  0  0  0  0
 31 51  1  0  0  0  0
 31 52  1  0  0  0  0
 32 30  1  0  0  0  0
 32 31  1  0  0  0  0
 32 33  1  0  0  0  0
 33 53  1  0  0  0  0
 33 54  1  0  0  0  0
 33 55  1  0  0  0  0
M  END
>  <DRUGBANK_ID>
DB12369

>  <COMMON_NAME>
Sotrastaurin

>  <CAS_NUMBER>
425637-18-9

>  <UNII>
7I279E1NZ8

>  <SYNONYMS>
Sotrastaurin; Sotrastaurina; Sotrastaurinum

$$$$
