M38
 OpenBabel10282417173D

 40 43  0  0  0  0  0  0  0  0999 V2000
    0.4949    0.5225    0.0376 C   0  0  0  0  0  0  0  0  0  0  0  0
   -0.5039    1.2388   -0.7080 C   0  0  0  0  0  0  0  0  0  0  0  0
   -1.4249    0.4057   -1.2573 C   0  0  0  0  0  0  0  0  0  0  0  0
   -1.9571   -0.4350   -0.2873 C   0  0  0  0  0  0  0  0  0  0  0  0
   -1.0999   -1.1054    0.5959 C   0  0  0  0  0  0  0  0  0  0  0  0
    0.2426   -0.7495    0.6313 C   0  0  0  0  0  0  0  0  0  0  0  0
    1.1624   -1.7025    1.3049 C   0  0  0  0  0  0  0  0  0  0  0  0
    0.6483   -2.7115    2.0450 C   0  0  0  0  0  0  0  0  0  0  0  0
   -1.6570   -2.1647    1.4614 C   0  0  0  0  0  0  0  0  0  0  0  0
   -0.7411   -3.0060    2.1334 N   0  0  0  0  0  0  0  0  0  0  0  0
    2.6998   -1.8619    1.3166 C   0  0  0  0  0  0  0  0  0  0  0  0
    3.0202   -3.0243    2.1914 C   0  0  0  0  0  0  0  0  0  0  0  0
    1.7970   -3.3737    2.6695 C   0  0  0  0  0  0  0  0  0  0  0  0
    4.2032   -3.6704    2.6435 C   0  0  0  0  0  0  0  0  0  0  0  0
    4.1217   -4.7511    3.5453 C   0  0  0  0  0  0  0  0  0  0  0  0
    2.8960   -5.0237    4.0973 C   0  0  0  0  0  0  0  0  0  0  0  0
    1.8150   -4.2046    3.7435 C   0  0  0  0  0  0  0  0  0  0  0  0
    3.5148   -1.2141    0.7575 O   0  0  0  0  0  0  0  0  0  0  0  0
    0.9785   -7.3516    4.7328 O   0  0  0  0  0  0  0  0  0  0  0  0
   -0.2603   -5.5782    5.1929 O   0  0  0  0  0  0  0  0  0  0  0  0
   -2.8807   -2.2675    1.5298 O   0  0  0  0  0  0  0  0  0  0  0  0
   -1.4143   -4.0913    2.9071 C   0  0  0  0  0  0  0  0  0  0  0  0
   -1.2426   -5.5589    2.4336 C   0  0  0  0  0  0  0  0  0  0  0  0
    0.2011   -6.3270    4.3383 C   0  0  0  0  0  0  0  0  0  0  0  0
    0.1022   -6.1556    2.7751 C   0  0  0  0  0  0  0  0  0  0  0  0
    1.5371    0.7790   -0.1434 H   0  0  0  0  0  0  0  0  0  0  0  0
   -1.1072    2.1112   -0.3754 H   0  0  0  0  0  0  0  0  0  0  0  0
   -0.8369   -0.0869   -2.0632 H   0  0  0  0  0  0  0  0  0  0  0  0
   -3.0210   -0.4090   -0.0652 H   0  0  0  0  0  0  0  0  0  0  0  0
    5.1951   -3.3574    2.3429 H   0  0  0  0  0  0  0  0  0  0  0  0
    4.9766   -5.3289    3.9032 H   0  0  0  0  0  0  0  0  0  0  0  0
    2.7999   -5.8394    4.8140 H   0  0  0  0  0  0  0  0  0  0  0  0
    0.8581   -4.2144    4.2071 H   0  0  0  0  0  0  0  0  0  0  0  0
    1.5278   -7.6956    4.0112 H   0  0  0  0  0  0  0  0  0  0  0  0
   -1.2349   -3.9271    3.9696 H   0  0  0  0  0  0  0  0  0  0  0  0
   -2.5062   -3.9567    2.8464 H   0  0  0  0  0  0  0  0  0  0  0  0
   -1.9778   -6.1994    2.9359 H   0  0  0  0  0  0  0  0  0  0  0  0
   -1.4381   -5.6219    1.3565 H   0  0  0  0  0  0  0  0  0  0  0  0
    0.3182   -7.1163    2.3049 H   0  0  0  0  0  0  0  0  0  0  0  0
    0.8129   -5.5293    2.2335 H   0  0  0  0  0  0  0  0  0  0  0  0
  1  2  1  0  0  0  0
  1  6  2  0  0  0  0
  1 26  1  0  0  0  0
  2  3  2  0  0  0  0
  2 27  1  0  0  0  0
  3  4  1  0  0  0  0
  3 28  1  0  0  0  0
  4  5  2  0  0  0  0
  4 29  1  0  0  0  0
  5  6  1  0  0  0  0
  5  9  1  0  0  0  0
  6  7  1  0  0  0  0
  7  8  2  0  0  0  0
  7 11  1  0  0  0  0
  8 10  1  0  0  0  0
  8 13  1  0  0  0  0
  9 10  1  0  0  0  0
  9 21  2  0  0  0  0
 10 22  1  0  0  0  0
 11 12  1  0  0  0  0
 11 18  2  0  0  0  0
 12 13  1  0  0  0  0
 12 14  2  0  0  0  0
 13 17  2  0  0  0  0
 14 15  1  0  0  0  0
 14 30  1  0  0  0  0
 15 16  2  0  0  0  0
 15 31  1  0  0  0  0
 16 17  1  0  0  0  0
 16 32  1  0  0  0  0
 17 33  1  0  0  0  0
 19 24  1  0  0  0  0
 19 34  1  0  0  0  0
 20 24  2  0  0  0  0
 22 23  1  0  0  0  0
 22 35  1  0  0  0  0
 22 36  1  0  0  0  0
 23 25  1  0  0  0  0
 23 37  1  0  0  0  0
 23 38  1  0  0  0  0
 24 25  1  0  0  0  0
 25 39  1  0  0  0  0
 25 40  1  0  0  0  0
M  END
>  <DRUGBANK_ID>
DB08159

>  <COMMON_NAME>
4-(5,11-DIOXO-5H-INDENO[1,2-C]ISOQUINOLIN-6(11H)-YL)BUTANOATE

$$$$
