2UN
 OpenBabel10282417163D

 49 50  0  0  0  0  0  0  0  0999 V2000
    0.9870   -0.0073   -0.1450 O   0  0  0  0  0  0  0  0  0  0  0  0
    2.4303    0.0261    0.0382 S   0  0  0  0  0  0  0  0  0  0  0  0
    3.0859   -0.8453    0.9653 O   0  0  0  0  0  0  0  0  0  0  0  0
    3.0461   -0.3089   -1.4061 O   0  0  0  0  0  0  0  0  0  0  0  0
    2.9618    1.5737    0.3183 N   0  0  0  0  0  0  0  0  0  0  0  0
    2.0673    2.6174    0.6532 C   0  0  0  0  0  0  0  0  0  0  0  0
    0.9938    2.4392    1.5256 C   0  0  0  0  0  0  0  0  0  0  0  0
    2.2855    3.8663    0.0959 C   0  0  0  0  0  0  0  0  0  0  0  0
    1.3806    4.8968    0.3450 C   0  0  0  0  0  0  0  0  0  0  0  0
    0.3168    4.7621    1.2360 C   0  0  0  0  0  0  0  0  0  0  0  0
    0.1149    3.4972    1.8009 C   0  0  0  0  0  0  0  0  0  0  0  0
   -0.5291    5.9948    1.5802 C   0  0  0  0  0  0  0  0  0  0  0  0
    0.1951    7.0789    2.4781 C   0  0  0  0  0  0  0  0  0  0  0  0
    1.3835    7.7520    1.7309 C   0  0  0  0  0  0  0  0  0  0  0  0
    1.3229    8.8482    1.1829 O   0  0  0  0  0  0  0  0  0  0  0  0
    2.5159    6.9945    1.6728 O   0  0  0  0  0  0  0  0  0  0  0  0
    3.4565    7.3749    0.6406 C   0  0  0  0  0  0  0  0  0  0  0  0
   -0.7259    8.2540    2.8266 C   0  0  0  0  0  0  0  0  0  0  0  0
   -0.6117    8.9135    4.0221 O   0  0  0  0  0  0  0  0  0  0  0  0
    0.0128    8.6293    5.3254 C   0  0  0  0  0  0  0  0  0  0  0  0
   -1.5274    8.6805    1.9916 O   0  0  0  0  0  0  0  0  0  0  0  0
    0.5641    6.3208    3.7376 C   0  0  0  0  0  0  0  0  0  0  0  0
   -0.6438    5.7434    4.5387 C   0  0  0  0  0  0  0  0  0  0  0  0
   -0.5725    4.4116    4.9117 C   0  0  0  0  0  0  0  0  0  0  0  0
   -1.5051    3.8749    5.7962 C   0  0  0  0  0  0  0  0  0  0  0  0
   -2.3856    4.7023    6.4876 C   0  0  0  0  0  0  0  0  0  0  0  0
   -2.4432    6.0373    6.1708 C   0  0  0  0  0  0  0  0  0  0  0  0
   -1.7551    6.4693    5.0471 C   0  0  0  0  0  0  0  0  0  0  0  0
    2.6702   -1.1687   -1.6859 H   0  0  0  0  0  0  0  0  0  0  0  0
    3.9637    1.7014    0.4387 H   0  0  0  0  0  0  0  0  0  0  0  0
    0.8023    1.4692    1.9780 H   0  0  0  0  0  0  0  0  0  0  0  0
    3.1184    4.0537   -0.5748 H   0  0  0  0  0  0  0  0  0  0  0  0
    1.5291    5.8431   -0.1584 H   0  0  0  0  0  0  0  0  0  0  0  0
   -0.7251    3.2994    2.4625 H   0  0  0  0  0  0  0  0  0  0  0  0
   -0.9071    6.4197    0.6458 H   0  0  0  0  0  0  0  0  0  0  0  0
   -1.4310    5.6385    2.1006 H   0  0  0  0  0  0  0  0  0  0  0  0
    2.9560    7.6665   -0.2944 H   0  0  0  0  0  0  0  0  0  0  0  0
    4.1027    8.1785    0.9943 H   0  0  0  0  0  0  0  0  0  0  0  0
    4.0737    6.5001    0.4034 H   0  0  0  0  0  0  0  0  0  0  0  0
    0.0977    7.5951    5.6482 H   0  0  0  0  0  0  0  0  0  0  0  0
    1.0262    9.0088    5.3289 H   0  0  0  0  0  0  0  0  0  0  0  0
   -0.6300    9.0339    6.1132 H   0  0  0  0  0  0  0  0  0  0  0  0
    1.2577    5.5045    3.5032 H   0  0  0  0  0  0  0  0  0  0  0  0
    1.2461    6.9332    4.3339 H   0  0  0  0  0  0  0  0  0  0  0  0
    0.2064    3.7788    4.5007 H   0  0  0  0  0  0  0  0  0  0  0  0
   -1.4956    2.8109    5.9913 H   0  0  0  0  0  0  0  0  0  0  0  0
   -3.0438    4.3138    7.2545 H   0  0  0  0  0  0  0  0  0  0  0  0
   -3.0106    6.7475    6.7713 H   0  0  0  0  0  0  0  0  0  0  0  0
   -2.0643    7.4637    4.7417 H   0  0  0  0  0  0  0  0  0  0  0  0
  1  2  2  0  0  0  0
  2  3  2  0  0  0  0
  2  4  1  0  0  0  0
  2  5  1  0  0  0  0
  4 29  1  0  0  0  0
  5  6  1  0  0  0  0
  5 30  1  0  0  0  0
  6  7  2  0  0  0  0
  6  8  1  0  0  0  0
  7 11  1  0  0  0  0
  7 31  1  0  0  0  0
  8  9  2  0  0  0  0
  8 32  1  0  0  0  0
  9 10  1  0  0  0  0
  9 33  1  0  0  0  0
 10 11  2  0  0  0  0
 10 12  1  0  0  0  0
 11 34  1  0  0  0  0
 12 13  1  0  0  0  0
 12 35  1  0  0  0  0
 12 36  1  0  0  0  0
 13 14  1  0  0  0  0
 13 18  1  0  0  0  0
 13 22  1  0  0  0  0
 14 15  2  0  0  0  0
 14 16  1  0  0  0  0
 16 17  1  0  0  0  0
 17 37  1  0  0  0  0
 17 38  1  0  0  0  0
 17 39  1  0  0  0  0
 18 19  1  0  0  0  0
 18 21  2  0  0  0  0
 19 20  1  0  0  0  0
 20 40  1  0  0  0  0
 20 41  1  0  0  0  0
 20 42  1  0  0  0  0
 22 23  1  0  0  0  0
 22 43  1  0  0  0  0
 22 44  1  0  0  0  0
 23 24  1  0  0  0  0
 23 28  2  0  0  0  0
 24 25  2  0  0  0  0
 24 45  1  0  0  0  0
 25 26  1  0  0  0  0
 25 46  1  0  0  0  0
 26 27  2  0  0  0  0
 26 47  1  0  0  0  0
 27 28  1  0  0  0  0
 27 48  1  0  0  0  0
 28 49  1  0  0  0  0
M  END
>  <DRUGBANK_ID>
DB06989

>  <COMMON_NAME>
{4-[2-BENZYL-3-METHOXY-2-(METHOXYCARBONYL)-3-OXOPROPYL]PHENYL}SULFAMIC ACID

$$$$
