L12
 OpenBabel10282417123D

 31 33  0  0  0  0  0  0  0  0999 V2000
   -1.5336   -1.1651   -0.1604 C   0  0  0  0  0  0  0  0  0  0  0  0
   -2.0865   -2.5604   -0.0429 C   0  0  0  0  0  0  0  0  0  0  0  0
   -2.9573   -2.8194    1.2176 C   0  0  0  0  0  0  0  0  0  0  0  0
   -4.2223   -1.9905    1.3121 C   0  0  0  0  0  0  0  0  0  0  0  0
   -4.1498   -0.6213    1.5770 C   0  0  0  0  0  0  0  0  0  0  0  0
   -5.2541    0.1751    1.3262 C   0  0  0  0  0  0  0  0  0  0  0  0
   -6.4704   -0.3177    1.0362 N   0  0  0  0  0  0  0  0  0  0  0  0
   -6.5672   -1.6639    0.9783 C   0  0  0  0  0  0  0  0  0  0  0  0
   -5.4837   -2.5300    1.0699 C   0  0  0  0  0  0  0  0  0  0  0  0
   -2.2372   -0.0255   -0.5062 C   0  0  0  0  0  0  0  0  0  0  0  0
    1.0578   -1.4185    0.0462 C   0  0  0  0  0  0  0  0  0  0  0  0
   -0.1723   -0.7424   -0.0448 C   0  0  0  0  0  0  0  0  0  0  0  0
   -0.1632    0.6528   -0.0646 C   0  0  0  0  0  0  0  0  0  0  0  0
    1.0042    1.4158    0.0062 C   0  0  0  0  0  0  0  0  0  0  0  0
    2.2135    0.7185    0.0049 C   0  0  0  0  0  0  0  0  0  0  0  0
   -1.4684    1.0595   -0.1840 N   0  0  0  0  0  0  0  0  0  0  0  0
    2.2425   -0.6749    0.0242 C   0  0  0  0  0  0  0  0  0  0  0  0
   -2.6544   -2.7963   -0.9508 H   0  0  0  0  0  0  0  0  0  0  0  0
   -1.2490   -3.2704   -0.0125 H   0  0  0  0  0  0  0  0  0  0  0  0
   -3.2328   -3.8833    1.2151 H   0  0  0  0  0  0  0  0  0  0  0  0
   -2.3636   -2.6645    2.1267 H   0  0  0  0  0  0  0  0  0  0  0  0
   -3.2067   -0.1561    1.8452 H   0  0  0  0  0  0  0  0  0  0  0  0
   -5.1629    1.2575    1.3065 H   0  0  0  0  0  0  0  0  0  0  0  0
   -7.5750   -2.0407    0.8356 H   0  0  0  0  0  0  0  0  0  0  0  0
   -5.6332   -3.5967    0.9488 H   0  0  0  0  0  0  0  0  0  0  0  0
   -3.2712    0.1102   -0.7971 H   0  0  0  0  0  0  0  0  0  0  0  0
    1.0918   -2.5029    0.0491 H   0  0  0  0  0  0  0  0  0  0  0  0
    0.9778    2.4997   -0.0062 H   0  0  0  0  0  0  0  0  0  0  0  0
    3.1461    1.2755   -0.0296 H   0  0  0  0  0  0  0  0  0  0  0  0
   -1.7878    2.0141   -0.1437 H   0  0  0  0  0  0  0  0  0  0  0  0
    3.1960   -1.1956    0.0013 H   0  0  0  0  0  0  0  0  0  0  0  0
  1  2  1  0  0  0  0
  1 10  2  0  0  0  0
  1 12  1  0  0  0  0
  2  3  1  0  0  0  0
  2 18  1  0  0  0  0
  2 19  1  0  0  0  0
  3  4  1  0  0  0  0
  3 20  1  0  0  0  0
  3 21  1  0  0  0  0
  4  5  2  0  0  0  0
  4  9  1  0  0  0  0
  5  6  1  0  0  0  0
  5 22  1  0  0  0  0
  6  7  2  0  0  0  0
  6 23  1  0  0  0  0
  7  8  1  0  0  0  0
  8  9  2  0  0  0  0
  8 24  1  0  0  0  0
  9 25  1  0  0  0  0
 10 16  1  0  0  0  0
 10 26  1  0  0  0  0
 11 12  2  0  0  0  0
 11 17  1  0  0  0  0
 11 27  1  0  0  0  0
 12 13  1  0  0  0  0
 13 14  2  0  0  0  0
 13 16  1  0  0  0  0
 14 15  1  0  0  0  0
 14 28  1  0  0  0  0
 15 17  2  0  0  0  0
 15 29  1  0  0  0  0
 16 30  1  0  0  0  0
 17 31  1  0  0  0  0
M  END
>  <DRUGBANK_ID>
DB01953

>  <SECONDARY_ACCESSION_NUMBERS>
EXPT01988

>  <COMMON_NAME>
Inhibitor of P38 Kinase

>  <UNII>
2X6GDX4TXP

$$$$
