
 OpenBabel10282417103D

 73 75  0  0  1  0  0  0  0  0999 V2000
    1.9061    3.2569    0.7436 C   0  0  0  0  0  0  0  0  0  0  0  0
    1.5473    6.1218    0.0152 C   0  0  0  0  0  0  0  0  0  0  0  0
    1.2691    5.2316   -2.4484 C   0  0  0  0  0  0  0  0  0  0  0  0
    1.2577    3.7787   -2.9565 C   0  0  0  0  0  0  0  0  0  0  0  0
    1.7109    4.2194    1.8769 C   0  0  0  0  0  0  0  0  0  0  0  0
    1.0659    7.3669   -0.1380 C   0  0  0  0  0  0  0  0  0  0  0  0
    2.0221    5.5814    1.3347 C   0  0  0  0  0  0  0  0  0  0  0  0
    1.0904    8.3446    0.9397 C   0  0  0  0  0  0  0  0  0  0  0  0
    2.1759    8.7325    1.6503 C   0  0  0  0  0  0  0  0  0  0  0  0
    3.5801    8.2939    1.4264 C   0  0  0  0  0  0  0  0  0  0  0  0
    2.0464    9.7455    2.7589 C   0  0  0  0  0  0  0  0  0  0  0  0
    4.6003    9.3706    1.2280 C   0  0  0  0  0  0  0  0  0  0  0  0
    4.1617    7.1652    1.8012 C   0  0  0  0  0  0  0  0  0  0  0  0
    3.1069   10.8440    2.6117 C   0  0  2  0  0  0  0  0  0  0  0  0
    4.5122   10.2556    2.4686 C   0  0  0  0  0  0  0  0  0  0  0  0
    3.0694   11.7099    3.7406 O   0  0  0  0  0  0  0  0  0  0  0  0
   -0.0681    1.0845   -0.4071 C   0  0  0  0  0  0  0  0  0  0  0  0
    0.5634    1.5633   -1.7251 C   0  0  2  0  0  0  0  0  0  0  0  0
    1.4164    0.3611   -2.1759 C   0  0  0  0  0  0  0  0  0  0  0  0
    0.5236   -0.8697   -2.3832 C   0  0  0  0  0  0  0  0  0  0  0  0
    0.7985   -1.4725   -5.2546 C   0  0  0  0  0  0  0  0  0  0  0  0
   -1.1948   -0.0159   -5.7638 C   0  0  0  0  0  0  0  0  0  0  0  0
   -0.6029   -0.5928   -3.3935 C   0  0  0  0  0  0  0  0  0  0  0  0
    1.4139    2.8480   -1.7040 C   0  0  2  0  0  0  0  0  0  0  0  0
    2.4782    2.5554   -1.6940 H   0  0  0  0  0  0  0  0  0  0  0  0
    1.7880    5.0830   -1.0305 C   0  0  2  0  0  0  0  0  0  0  0  0
    2.8824    4.9701   -1.1194 H   0  0  0  0  0  0  0  0  0  0  0  0
    1.1479    3.7673   -0.5146 C   0  0  2  0  0  0  0  0  0  0  0  0
   -0.3505    4.1048   -0.2293 C   0  0  0  0  0  0  0  0  0  0  0  0
   -0.0549   -0.2887   -4.8001 C   0  0  0  0  0  0  0  0  0  0  0  0
    0.7205    0.9097   -4.8087 O   0  0  0  0  0  0  0  0  0  0  0  0
    2.9825    3.1606    0.5216 H   0  0  0  0  0  0  0  0  0  0  0  0
    1.6123    2.2882    1.1270 H   0  0  0  0  0  0  0  0  0  0  0  0
    0.2612    5.6592   -2.4776 H   0  0  0  0  0  0  0  0  0  0  0  0
    1.9056    5.8866   -3.0539 H   0  0  0  0  0  0  0  0  0  0  0  0
    0.3343    3.5968   -3.5122 H   0  0  0  0  0  0  0  0  0  0  0  0
    2.0949    3.6289   -3.6507 H   0  0  0  0  0  0  0  0  0  0  0  0
    2.4228    4.0011    2.6855 H   0  0  0  0  0  0  0  0  0  0  0  0
    0.7101    4.1762    2.3100 H   0  0  0  0  0  0  0  0  0  0  0  0
    0.6448    7.6960   -1.0854 H   0  0  0  0  0  0  0  0  0  0  0  0
    3.0776    5.4328    1.1019 H   0  0  0  0  0  0  0  0  0  0  0  0
    1.7868    6.2544    2.1545 H   0  0  0  0  0  0  0  0  0  0  0  0
    0.1090    8.7806    1.1511 H   0  0  0  0  0  0  0  0  0  0  0  0
    2.1585    9.2309    3.7241 H   0  0  0  0  0  0  0  0  0  0  0  0
    1.0483   10.2034    2.7967 H   0  0  0  0  0  0  0  0  0  0  0  0
    4.4639    9.8991    0.2861 H   0  0  0  0  0  0  0  0  0  0  0  0
    5.6090    8.9313    1.2130 H   0  0  0  0  0  0  0  0  0  0  0  0
    3.7105    6.4797    2.5091 H   0  0  0  0  0  0  0  0  0  0  0  0
    5.1277    6.8441    1.4076 H   0  0  0  0  0  0  0  0  0  0  0  0
    2.8850   11.4424    1.7212 H   0  0  0  0  0  0  0  0  0  0  0  0
    5.2711   11.0373    2.4173 H   0  0  0  0  0  0  0  0  0  0  0  0
    4.7465    9.6702    3.3749 H   0  0  0  0  0  0  0  0  0  0  0  0
    3.2292   11.1688    4.5329 H   0  0  0  0  0  0  0  0  0  0  0  0
    0.6924    0.9111    0.3475 H   0  0  0  0  0  0  0  0  0  0  0  0
   -0.8748    1.6829   -0.0340 H   0  0  0  0  0  0  0  0  0  0  0  0
   -0.6130    0.1515   -0.4866 H   0  0  0  0  0  0  0  0  0  0  0  0
   -0.2463    1.7783   -2.4267 H   0  0  0  0  0  0  0  0  0  0  0  0
    2.0050    0.5858   -3.0693 H   0  0  0  0  0  0  0  0  0  0  0  0
    2.1740    0.1382   -1.4146 H   0  0  0  0  0  0  0  0  0  0  0  0
    1.1327   -1.7297   -2.6608 H   0  0  0  0  0  0  0  0  0  0  0  0
    0.0845   -1.2162   -1.4444 H   0  0  0  0  0  0  0  0  0  0  0  0
    0.1993   -2.3890   -5.2590 H   0  0  0  0  0  0  0  0  0  0  0  0
    1.2254   -1.3048   -6.2434 H   0  0  0  0  0  0  0  0  0  0  0  0
    1.6594   -1.6354   -4.5967 H   0  0  0  0  0  0  0  0  0  0  0  0
   -1.7497    0.8783   -5.4532 H   0  0  0  0  0  0  0  0  0  0  0  0
   -0.7943    0.2000   -6.7601 H   0  0  0  0  0  0  0  0  0  0  0  0
   -1.8813   -0.8617   -5.8229 H   0  0  0  0  0  0  0  0  0  0  0  0
   -1.2697   -1.4620   -3.4169 H   0  0  0  0  0  0  0  0  0  0  0  0
   -1.2460    0.2288   -3.0523 H   0  0  0  0  0  0  0  0  0  0  0  0
   -0.8661    4.4534   -1.1248 H   0  0  0  0  0  0  0  0  0  0  0  0
   -0.9558    3.3270    0.1929 H   0  0  0  0  0  0  0  0  0  0  0  0
   -0.4663    4.8712    0.5403 H   0  0  0  0  0  0  0  0  0  0  0  0
    1.2248    0.9567   -5.6375 H   0  0  0  0  0  0  0  0  0  0  0  0
  1  5  1  0  0  0  0
  1 32  1  0  0  0  0
  1 33  1  0  0  0  0
  2  6  2  0  0  0  0
  2  7  1  0  0  0  0
  3  4  1  0  0  0  0
  3 34  1  0  0  0  0
  3 35  1  0  0  0  0
  4 36  1  0  0  0  0
  4 37  1  0  0  0  0
  5  7  1  0  0  0  0
  5 38  1  0  0  0  0
  5 39  1  0  0  0  0
  6  8  1  0  0  0  0
  6 40  1  0  0  0  0
  7 41  1  0  0  0  0
  7 42  1  0  0  0  0
  8  9  2  0  0  0  0
  8 43  1  0  0  0  0
  9 10  1  0  0  0  0
  9 11  1  0  0  0  0
 10 12  1  0  0  0  0
 10 13  2  0  0  0  0
 11 14  1  0  0  0  0
 11 44  1  0  0  0  0
 11 45  1  0  0  0  0
 12 15  1  0  0  0  0
 12 46  1  0  0  0  0
 12 47  1  0  0  0  0
 13 48  1  0  0  0  0
 13 49  1  0  0  0  0
 14 16  1  0  0  0  0
 14 15  1  0  0  0  0
 14 50  1  6  0  0  0
 15 51  1  0  0  0  0
 15 52  1  0  0  0  0
 16 53  1  0  0  0  0
 17 54  1  0  0  0  0
 17 55  1  0  0  0  0
 17 56  1  0  0  0  0
 18 19  1  0  0  0  0
 18 57  1  6  0  0  0
 18 17  1  0  0  0  0
 19 20  1  0  0  0  0
 19 58  1  0  0  0  0
 19 59  1  0  0  0  0
 20 23  1  0  0  0  0
 20 60  1  0  0  0  0
 20 61  1  0  0  0  0
 21 62  1  0  0  0  0
 21 63  1  0  0  0  0
 21 64  1  0  0  0  0
 22 65  1  0  0  0  0
 22 66  1  0  0  0  0
 22 67  1  0  0  0  0
 23 30  1  0  0  0  0
 23 68  1  0  0  0  0
 23 69  1  0  0  0  0
 24  4  1  0  0  0  0
 24 18  1  0  0  0  0
 24 25  1  1  0  0  0
 26 28  1  0  0  0  0
 26  2  1  0  0  0  0
 26  3  1  0  0  0  0
 26 27  1  6  0  0  0
 28 24  1  0  0  0  0
 28  1  1  0  0  0  0
 28 29  1  1  0  0  0
 29 70  1  0  0  0  0
 29 71  1  0  0  0  0
 29 72  1  0  0  0  0
 30 21  1  0  0  0  0
 30 22  1  0  0  0  0
 30 31  1  0  0  0  0
 31 73  1  0  0  0  0
M  END
>  <DRUGBANK_ID>
DB00146

>  <SECONDARY_ACCESSION_NUMBERS>
NUTR00006; APRD00428

>  <COMMON_NAME>
Calcifediol

>  <CAS_NUMBER>
19356-17-3

>  <UNII>
T0WXW8F54E

>  <SYNONYMS>
(3S,5Z,7E)-9,10-secocholesta-5,7,10-triene-3,25-diol; (3β,5Z,7E)-9,10-secocholesta-5,7,10(19)-triene-3,25-diol; (5Z,7E)-(3S)-9,10-secocholesta-5,7,10(19)-triene-3,25-diol; 25-hydroxycholecalciferol; 25-Hydroxyvitamin D3; Calcidiol; Calcifédiol; Calcifediol; Calcifediol anhydrous; Calcifediolum

$$$$
