
 OpenBabel10282417183D

 45 46  0  0  0  0  0  0  0  0999 V2000
    0.9627   -0.0542    0.1550 C   0  0  0  0  0  0  0  0  0  0  0  0
    0.9612   -2.5357    0.1848 C   0  0  0  0  0  0  0  0  0  0  0  0
   -1.0757   -1.3008   -0.6175 C   0  0  0  0  0  0  0  0  0  0  0  0
    3.3024    0.8499  -13.8576 C   0  0  0  0  0  0  0  0  0  0  0  0
    1.7248   -2.5466   -4.0229 C   0  0  0  0  0  0  0  0  0  0  0  0
    1.7846   -0.1440   -4.0078 C   0  0  0  0  0  0  0  0  0  0  0  0
    3.2331    0.9939   -9.6683 C   0  0  0  0  0  0  0  0  0  0  0  0
    4.9010   -0.7581   -9.6287 C   0  0  0  0  0  0  0  0  0  0  0  0
    1.2216   -2.5370   -2.7212 C   0  0  0  0  0  0  0  0  0  0  0  0
    1.2373   -0.1382   -2.7295 C   0  0  0  0  0  0  0  0  0  0  0  0
    3.2350    0.9612  -11.0635 C   0  0  0  0  0  0  0  0  0  0  0  0
    4.8702   -0.8110  -11.0262 C   0  0  0  0  0  0  0  0  0  0  0  0
    2.5143   -0.1028   -6.9101 C   0  0  0  0  0  0  0  0  0  0  0  0
    1.9709   -1.3440   -4.6901 C   0  0  0  0  0  0  0  0  0  0  0  0
    4.0315    0.0997   -8.9537 C   0  0  0  0  0  0  0  0  0  0  0  0
    0.9750   -1.3308   -2.0446 C   0  0  0  0  0  0  0  0  0  0  0  0
    4.0368    0.0476  -11.7514 C   0  0  0  0  0  0  0  0  0  0  0  0
    2.3230   -1.3863   -6.1364 C   0  0  0  0  0  0  0  0  0  0  0  0
    3.9027   -0.0138   -7.4857 C   0  0  0  0  0  0  0  0  0  0  0  0
    0.4610   -1.3062   -0.6018 C   0  0  0  0  0  0  0  0  0  0  0  0
    2.3805   -2.4757   -6.7102 O   0  0  0  0  0  0  0  0  0  0  0  0
    4.9102   -0.0666   -6.7780 O   0  0  0  0  0  0  0  0  0  0  0  0
    4.0904   -0.0773  -13.1143 O   0  0  0  0  0  0  0  0  0  0  0  0
    0.6332   -0.0582    1.1984 H   0  0  0  0  0  0  0  0  0  0  0  0
    0.5844    0.8775   -0.2802 H   0  0  0  0  0  0  0  0  0  0  0  0
    2.0587   -0.0054    0.1434 H   0  0  0  0  0  0  0  0  0  0  0  0
    0.6332   -2.5041    1.2281 H   0  0  0  0  0  0  0  0  0  0  0  0
    0.5815   -3.4758   -0.2289 H   0  0  0  0  0  0  0  0  0  0  0  0
    2.0572   -2.5836    0.1723 H   0  0  0  0  0  0  0  0  0  0  0  0
   -1.4686   -0.4203   -1.1398 H   0  0  0  0  0  0  0  0  0  0  0  0
   -1.4741   -2.1873   -1.1243 H   0  0  0  0  0  0  0  0  0  0  0  0
   -1.4780   -1.2897    0.4018 H   0  0  0  0  0  0  0  0  0  0  0  0
    2.2351    0.7006  -13.6598 H   0  0  0  0  0  0  0  0  0  0  0  0
    3.6002    1.8825  -13.6420 H   0  0  0  0  0  0  0  0  0  0  0  0
    3.4711    0.6741  -14.9236 H   0  0  0  0  0  0  0  0  0  0  0  0
    1.9149   -3.5041   -4.5052 H   0  0  0  0  0  0  0  0  0  0  0  0
    2.0467    0.8206   -4.4215 H   0  0  0  0  0  0  0  0  0  0  0  0
    2.6084    1.7226   -9.1602 H   0  0  0  0  0  0  0  0  0  0  0  0
    5.5771   -1.4035   -9.0718 H   0  0  0  0  0  0  0  0  0  0  0  0
    1.0207   -3.4993   -2.2586 H   0  0  0  0  0  0  0  0  0  0  0  0
    1.0285    0.8325   -2.2893 H   0  0  0  0  0  0  0  0  0  0  0  0
    2.5841    1.6536  -11.5857 H   0  0  0  0  0  0  0  0  0  0  0  0
    5.4901   -1.5378  -11.5471 H   0  0  0  0  0  0  0  0  0  0  0  0
    1.7372   -0.0845   -7.6829 H   0  0  0  0  0  0  0  0  0  0  0  0
    2.3532    0.8013   -6.3261 H   0  0  0  0  0  0  0  0  0  0  0  0
  1 24  1  0  0  0  0
  1 25  1  0  0  0  0
  1 26  1  0  0  0  0
  2 27  1  0  0  0  0
  2 28  1  0  0  0  0
  2 29  1  0  0  0  0
  3 30  1  0  0  0  0
  3 31  1  0  0  0  0
  3 32  1  0  0  0  0
  4 33  1  0  0  0  0
  4 34  1  0  0  0  0
  4 35  1  0  0  0  0
  5 36  1  0  0  0  0
  6 37  1  0  0  0  0
  7 38  1  0  0  0  0
  8 39  1  0  0  0  0
  9  5  1  0  0  0  0
  9 40  1  0  0  0  0
 10  6  2  0  0  0  0
 10 41  1  0  0  0  0
 11  7  1  0  0  0  0
 11 42  1  0  0  0  0
 12  8  2  0  0  0  0
 12 43  1  0  0  0  0
 13 44  1  0  0  0  0
 13 45  1  0  0  0  0
 14  5  2  0  0  0  0
 14  6  1  0  0  0  0
 15  7  2  0  0  0  0
 15  8  1  0  0  0  0
 16  9  2  0  0  0  0
 16 10  1  0  0  0  0
 17 11  2  0  0  0  0
 17 12  1  0  0  0  0
 18 13  1  0  0  0  0
 18 14  1  0  0  0  0
 19 13  1  0  0  0  0
 19 15  1  0  0  0  0
 20  1  1  0  0  0  0
 20  2  1  0  0  0  0
 20  3  1  0  0  0  0
 20 16  1  0  0  0  0
 21 18  2  0  0  0  0
 22 19  2  0  0  0  0
 23  4  1  0  0  0  0
 23 17  1  0  0  0  0
M  END
>  <DRUGBANK_ID>
DB09495

>  <COMMON_NAME>
Avobenzone

>  <CAS_NUMBER>
70356-09-1

>  <UNII>
G63QQF2NOX

>  <SYNONYMS>
Avobenzone; Butyl Methoxydibenzoylmethane; Parsol 1789

$$$$
