
 OpenBabel10282417193D

 39 41  0  0  0  0  0  0  0  0999 V2000
    0.9433    0.0789   -0.0186 C   0  0  0  0  0  0  0  0  0  0  0  0
    0.4643    1.3650    0.3640 O   0  0  0  0  0  0  0  0  0  0  0  0
    0.8163    1.7171    1.6400 C   0  0  0  0  0  0  0  0  0  0  0  0
    2.1232    1.6612    2.1210 C   0  0  0  0  0  0  0  0  0  0  0  0
    2.4334    2.0585    3.4279 C   0  0  0  0  0  0  0  0  0  0  0  0
    1.3942    2.5654    4.2111 C   0  0  0  0  0  0  0  0  0  0  0  0
    0.0879    2.6763    3.7383 C   0  0  0  0  0  0  0  0  0  0  0  0
   -0.2065    2.2359    2.4335 C   0  0  0  0  0  0  0  0  0  0  0  0
   -0.6858    3.2748    4.7730 C   0  0  0  0  0  0  0  0  0  0  0  0
    0.1758    3.5493    5.8158 C   0  0  0  0  0  0  0  0  0  0  0  0
    1.4055    3.0504    5.4970 N   0  0  0  0  0  0  0  0  0  0  0  0
   -2.1426    3.5636    4.7219 C   0  0  0  0  0  0  0  0  0  0  0  0
   -2.9219    2.7790    5.7672 C   0  0  0  0  0  0  0  0  0  0  0  0
   -2.6115    3.1495    7.1473 N   0  0  0  0  0  0  0  0  0  0  0  0
   -3.3831    3.7702    8.0836 C   0  0  0  0  0  0  0  0  0  0  0  0
   -2.8857    4.1644    9.1363 O   0  0  0  0  0  0  0  0  0  0  0  0
   -4.8264    3.9549    7.7923 C   0  0  0  0  0  0  0  0  0  0  0  0
   -5.5187    2.9113    7.3128 C   0  0  0  0  0  0  0  0  0  0  0  0
   -6.9145    3.1104    6.9248 C   0  0  0  0  0  0  0  0  0  0  0  0
   -7.5501    2.2162    6.3760 O   0  0  0  0  0  0  0  0  0  0  0  0
   -7.5009    4.4291    7.2016 C   0  0  0  0  0  0  0  0  0  0  0  0
   -6.7229    5.3598    7.7626 C   0  0  0  0  0  0  0  0  0  0  0  0
   -5.3955    5.1843    8.0766 O   0  0  0  0  0  0  0  0  0  0  0  0
    0.5577   -0.1340   -1.0203 H   0  0  0  0  0  0  0  0  0  0  0  0
    0.5689   -0.6960    0.6594 H   0  0  0  0  0  0  0  0  0  0  0  0
    2.0349    0.0500   -0.0754 H   0  0  0  0  0  0  0  0  0  0  0  0
    2.9337    1.3360    1.4774 H   0  0  0  0  0  0  0  0  0  0  0  0
    3.4497    2.0052    3.8022 H   0  0  0  0  0  0  0  0  0  0  0  0
   -1.2133    2.3126    2.0351 H   0  0  0  0  0  0  0  0  0  0  0  0
    0.0125    4.0368    6.7679 H   0  0  0  0  0  0  0  0  0  0  0  0
    2.2130    3.0785    6.1036 H   0  0  0  0  0  0  0  0  0  0  0  0
   -2.3185    4.6387    4.8349 H   0  0  0  0  0  0  0  0  0  0  0  0
   -2.5479    3.2825    3.7408 H   0  0  0  0  0  0  0  0  0  0  0  0
   -3.9668    2.9666    5.5346 H   0  0  0  0  0  0  0  0  0  0  0  0
   -2.7398    1.7020    5.6870 H   0  0  0  0  0  0  0  0  0  0  0  0
   -1.6591    3.0070    7.4594 H   0  0  0  0  0  0  0  0  0  0  0  0
   -5.0880    1.9394    7.1108 H   0  0  0  0  0  0  0  0  0  0  0  0
   -8.5384    4.5852    6.9478 H   0  0  0  0  0  0  0  0  0  0  0  0
   -7.0588    6.3525    8.0264 H   0  0  0  0  0  0  0  0  0  0  0  0
  1  2  1  0  0  0  0
  1 24  1  0  0  0  0
  1 25  1  0  0  0  0
  1 26  1  0  0  0  0
  2  3  1  0  0  0  0
  3  4  2  0  0  0  0
  3  8  1  0  0  0  0
  4  5  1  0  0  0  0
  4 27  1  0  0  0  0
  5  6  2  0  0  0  0
  5 28  1  0  0  0  0
  6  7  1  0  0  0  0
  6 11  1  0  0  0  0
  7  8  2  0  0  0  0
  7  9  1  0  0  0  0
  8 29  1  0  0  0  0
  9 10  2  0  0  0  0
  9 12  1  0  0  0  0
 10 11  1  0  0  0  0
 10 30  1  0  0  0  0
 11 31  1  0  0  0  0
 12 13  1  0  0  0  0
 12 32  1  0  0  0  0
 12 33  1  0  0  0  0
 13 14  1  0  0  0  0
 13 34  1  0  0  0  0
 13 35  1  0  0  0  0
 14 15  1  0  0  0  0
 14 36  1  0  0  0  0
 15 16  2  0  0  0  0
 15 17  1  0  0  0  0
 17 18  2  0  0  0  0
 17 23  1  0  0  0  0
 18 19  1  0  0  0  0
 18 37  1  0  0  0  0
 19 20  2  0  0  0  0
 19 21  1  0  0  0  0
 21 22  2  0  0  0  0
 21 38  1  0  0  0  0
 22 23  1  0  0  0  0
 22 39  1  0  0  0  0
M  END
>  <DRUGBANK_ID>
DB12288

>  <COMMON_NAME>
Piromelatine

>  <CAS_NUMBER>
946846-83-9

>  <UNII>
S3UN2146K9

>  <SYNONYMS>
Piromelatine

$$$$
