
 OpenBabel10282417183D

 33 34  0  0  1  0  0  0  0  0999 V2000
    1.5650   -0.3870   -0.0080 B   0  0  0  0  0  0  0  0  0  0  0  0
    0.0110   -0.4750   -0.0300 C   0  0  0  0  0  0  0  0  0  0  0  0
   -0.4180    0.8540   -0.0210 C   0  0  0  0  0  0  0  0  0  0  0  0
   -1.7720    1.1840    0.0020 C   0  0  0  0  0  0  0  0  0  0  0  0
   -2.6930    0.1620    0.0190 C   0  0  0  0  0  0  0  0  0  0  0  0
   -2.2940   -1.1730    0.0150 C   0  0  0  0  0  0  0  0  0  0  0  0
   -0.9430   -1.5040   -0.0120 C   0  0  0  0  0  0  0  0  0  0  0  0
   -0.5351   -2.8641   -0.0212 O   0  0  0  0  0  0  0  0  0  0  0  0
    0.8465   -3.1908   -0.0488 C   0  0  0  0  0  0  0  0  0  0  0  0
    1.4798   -2.6090   -1.3022 C   0  0  0  0  0  0  0  0  0  0  0  0
    1.3165   -1.0978   -1.2977 C   0  0  0  0  0  0  0  0  0  0  0  0
    1.9540   -0.5563   -0.1502 O   0  0  0  0  0  0  0  0  0  0  0  0
    0.7540    1.8000   -0.0010 C   0  0  2  0  0  0  0  0  0  0  0  0
    1.9330    0.9520    0.0150 O   0  0  0  0  0  0  0  0  0  0  0  0
    0.7098    2.7301    1.2004 C   0  0  0  0  0  0  0  0  0  0  0  0
    1.8865    3.6110    1.1817 N   0  0  0  0  0  0  0  0  0  0  0  0
    2.5310   -1.3270    0.0130 O   0  0  0  0  0  0  0  0  0  0  0  0
   -2.0873    2.2065    0.0063 H   0  0  0  0  0  0  0  0  0  0  0  0
   -3.7367    0.3971    0.0356 H   0  0  0  0  0  0  0  0  0  0  0  0
   -3.0312   -1.9483    0.0328 H   0  0  0  0  0  0  0  0  0  0  0  0
    1.3269   -2.7828    0.8158 H   0  0  0  0  0  0  0  0  0  0  0  0
    0.9615   -4.2546   -0.0520 H   0  0  0  0  0  0  0  0  0  0  0  0
    2.5209   -2.8552   -1.3230 H   0  0  0  0  0  0  0  0  0  0  0  0
    0.9995   -3.0171   -2.1668 H   0  0  0  0  0  0  0  0  0  0  0  0
    1.7623   -0.6883   -2.1800 H   0  0  0  0  0  0  0  0  0  0  0  0
    0.2754   -0.8517   -1.2769 H   0  0  0  0  0  0  0  0  0  0  0  0
    1.5374   -0.9390    0.6744 H   0  0  0  0  0  0  0  0  0  0  0  0
    0.7501    2.4195   -0.8734 H   0  0  0  0  0  0  0  0  0  0  0  0
   -0.1801    3.3227    1.1601 H   0  0  0  0  0  0  0  0  0  0  0  0
    0.7121    2.1509    2.1001 H   0  0  0  0  0  0  0  0  0  0  0  0
    1.8568    4.2351    1.9879 H   0  0  0  0  0  0  0  0  0  0  0  0
    2.7348    3.0460    1.2201 H   0  0  0  0  0  0  0  0  0  0  0  0
    3.4273   -0.8837    0.0228 H   0  0  0  0  0  0  0  0  0  0  0  0
  1  2  1  0  0  0  0
  1 14  1  0  0  0  0
  1 17  1  0  0  0  0
  2  3  2  0  0  0  0
  2  7  1  0  0  0  0
  3  4  1  0  0  0  0
  3 13  1  0  0  0  0
  4  5  2  0  0  0  0
  4 18  1  0  0  0  0
  5  6  1  0  0  0  0
  5 19  1  0  0  0  0
  6  7  2  0  0  0  0
  6 20  1  0  0  0  0
  7  8  1  0  0  0  0
  8  9  1  0  0  0  0
  9 10  1  0  0  0  0
  9 21  1  0  0  0  0
  9 22  1  0  0  0  0
 10 11  1  0  0  0  0
 10 23  1  0  0  0  0
 10 24  1  0  0  0  0
 11 12  1  0  0  0  0
 11 25  1  0  0  0  0
 11 26  1  0  0  0  0
 12 27  1  0  0  0  0
 13 14  1  0  0  0  0
 13 15  1  0  0  0  0
 13 28  1  6  0  0  0
 15 16  1  0  0  0  0
 15 29  1  0  0  0  0
 15 30  1  0  0  0  0
 16 31  1  0  0  0  0
 16 32  1  0  0  0  0
 17 33  1  0  0  0  0
M  END
>  <DRUGBANK_ID>
DB11744

>  <COMMON_NAME>
Epetraborole

>  <CAS_NUMBER>
1093643-37-8

>  <UNII>
6MC93Z2DF9

>  <SYNONYMS>
Epetraborole

$$$$
