
 OpenBabel10282417203D

 51 54  0  0  1  0  0  0  0  0999 V2000
    2.4969    6.0792   -5.8582 C   0  0  0  0  0  0  0  0  0  0  0  0
    2.5453    7.4219   -3.2028 C   0  0  0  0  0  0  0  0  0  0  0  0
    8.4102    4.9369   -1.1172 C   0  0  0  0  0  0  0  0  0  0  0  0
    7.7177    0.5404   -1.6490 C   0  0  0  0  0  0  0  0  0  0  0  0
    7.1308    5.7351   -0.8945 C   0  0  0  0  0  0  0  0  0  0  0  0
    6.9911    1.4649   -2.7362 C   0  0  0  0  0  0  0  0  0  0  0  0
    5.0710    4.0525   -3.6995 C   0  0  0  0  0  0  0  0  0  0  0  0
    4.4293    7.5118   -1.7259 C   0  0  0  0  0  0  0  0  0  0  0  0
    3.8245    4.9084   -3.5854 C   0  0  0  0  0  0  0  0  0  0  0  0
    4.7577    8.3806   -3.3551 C   0  0  0  0  0  0  0  0  0  0  0  0
    8.3259    2.5712   -0.4217 C   0  0  0  0  0  0  0  0  0  0  0  0
    3.9769    6.5214   -5.8216 C   0  0  0  0  0  0  0  0  0  0  0  0
    8.0396    3.4850   -1.3453 C   0  0  0  0  0  0  0  0  0  0  0  0
    7.3974    1.4246   -0.5091 C   0  0  0  0  0  0  0  0  0  0  0  0
    7.1468    3.1159   -2.5350 C   0  0  1  0  0  0  0  0  0  0  0  0
    5.8643    4.0274   -2.4116 C   0  0  2  0  0  0  0  0  0  0  0  0
    6.2877    5.4848   -2.1399 C   0  0  2  0  0  0  0  0  0  0  0  0
    5.2853    6.5571   -2.3380 C   0  0  1  0  0  0  0  0  0  0  0  0
    4.0978    6.4045   -3.4633 C   0  0  2  0  0  0  0  0  0  0  0  0
    4.7226    7.2136   -4.5506 C   0  0  2  0  0  0  0  0  0  0  0  0
    4.7039    6.0113   -6.7016 O   0  0  0  0  0  0  0  0  0  0  0  0
    6.3118    1.4277    0.0011 O   0  0  0  0  0  0  0  0  0  0  0  0
    6.1309    6.9439   -4.8168 O   0  0  0  0  0  0  0  0  0  0  0  0
    7.6633    3.4565   -3.4480 H   0  0  0  0  0  0  0  0  0  0  0  0
    5.2115    3.7056   -1.5945 H   0  0  0  0  0  0  0  0  0  0  0  0
    6.9961    5.7061   -2.9648 H   0  0  0  0  0  0  0  0  0  0  0  0
    6.0867    7.3308   -2.3110 H   0  0  0  0  0  0  0  0  0  0  0  0
    1.9864    6.1852   -4.9312 H   0  0  0  0  0  0  0  0  0  0  0  0
    2.3807    4.9869   -5.9670 H   0  0  0  0  0  0  0  0  0  0  0  0
    1.9224    6.5461   -6.6412 H   0  0  0  0  0  0  0  0  0  0  0  0
    2.2012    7.4797   -2.1661 H   0  0  0  0  0  0  0  0  0  0  0  0
    2.6675    8.4846   -3.4897 H   0  0  0  0  0  0  0  0  0  0  0  0
    1.6417    7.2703   -3.7758 H   0  0  0  0  0  0  0  0  0  0  0  0
    9.0618    5.0610   -0.2499 H   0  0  0  0  0  0  0  0  0  0  0  0
    8.9389    5.3578   -1.9830 H   0  0  0  0  0  0  0  0  0  0  0  0
    7.2724   -0.4259   -1.3427 H   0  0  0  0  0  0  0  0  0  0  0  0
    8.8121    0.3685   -1.6599 H   0  0  0  0  0  0  0  0  0  0  0  0
    6.5976    5.4797    0.0286 H   0  0  0  0  0  0  0  0  0  0  0  0
    7.3757    6.8068   -0.7981 H   0  0  0  0  0  0  0  0  0  0  0  0
    5.9274    1.1970   -2.6712 H   0  0  0  0  0  0  0  0  0  0  0  0
    7.2507    1.2231   -3.7788 H   0  0  0  0  0  0  0  0  0  0  0  0
    4.7773    3.0539   -4.0248 H   0  0  0  0  0  0  0  0  0  0  0  0
    5.6848    4.4586   -4.5159 H   0  0  0  0  0  0  0  0  0  0  0  0
    4.6010    7.9695   -0.7618 H   0  0  0  0  0  0  0  0  0  0  0  0
    3.6658    6.7099   -1.4692 H   0  0  0  0  0  0  0  0  0  0  0  0
    3.0784    4.6110   -2.8430 H   0  0  0  0  0  0  0  0  0  0  0  0
    3.3690    4.6224   -4.5058 H   0  0  0  0  0  0  0  0  0  0  0  0
    4.2201    9.3121   -3.5022 H   0  0  0  0  0  0  0  0  0  0  0  0
    5.8079    8.7291   -3.3628 H   0  0  0  0  0  0  0  0  0  0  0  0
    8.9779    2.6748    0.4189 H   0  0  0  0  0  0  0  0  0  0  0  0
    6.2059    6.3646   -5.6068 H   0  0  0  0  0  0  0  0  0  0  0  0
  1 28  1  0  0  0  0
  1 29  1  0  0  0  0
  1 30  1  0  0  0  0
  2 31  1  0  0  0  0
  2 32  1  0  0  0  0
  2 33  1  0  0  0  0
  3 34  1  0  0  0  0
  3 35  1  0  0  0  0
  4 36  1  0  0  0  0
  4 37  1  0  0  0  0
  5  3  1  0  0  0  0
  5 38  1  0  0  0  0
  5 39  1  0  0  0  0
  6  4  1  0  0  0  0
  6 40  1  0  0  0  0
  6 41  1  0  0  0  0
  7 42  1  0  0  0  0
  7 43  1  0  0  0  0
  8 44  1  0  0  0  0
  8 45  1  0  0  0  0
  9  7  1  0  0  0  0
  9 46  1  0  0  0  0
  9 47  1  0  0  0  0
 10  8  1  0  0  0  0
 10 48  1  0  0  0  0
 10 49  1  0  0  0  0
 11 50  1  0  0  0  0
 12  1  1  0  0  0  0
 13  3  1  0  0  0  0
 13 11  2  0  0  0  0
 14  4  1  0  0  0  0
 14 11  1  0  0  0  0
 15  6  1  0  0  0  0
 15 13  1  0  0  0  0
 15 24  1  1  0  0  0
 16  7  1  0  0  0  0
 16 15  1  0  0  0  0
 16 25  1  6  0  0  0
 17  5  1  0  0  0  0
 17 16  1  0  0  0  0
 17 26  1  1  0  0  0
 18  8  1  0  0  0  0
 18 17  1  0  0  0  0
 18 27  1  6  0  0  0
 19  9  1  0  0  0  0
 19 18  1  0  0  0  0
 19  2  1  1  0  0  0
 20 10  1  0  0  0  0
 20 19  1  0  0  0  0
 20 12  1  6  0  0  0
 20 23  1  0  0  0  0
 21 12  2  0  0  0  0
 22 14  2  0  0  0  0
 23 51  1  0  0  0  0
M  END
>  <DRUGBANK_ID>
DB13230

>  <COMMON_NAME>
Gestonorone

>  <CAS_NUMBER>
2137-18-0

>  <UNII>
H4G605B7VP

$$$$
