107
 OpenBabel10282417163D

 46 50  0  0  0  0  0  0  0  0999 V2000
    4.4858    1.9505   -0.4415 O   0  0  0  0  0  0  0  0  0  0  0  0
    3.3558    1.8706   -0.0804 C   0  0  0  0  0  0  0  0  0  0  0  0
    2.1945    2.6361   -0.3184 N   0  0  0  0  0  0  0  0  0  0  0  0
    1.5851    2.5694    0.8314 C   0  0  0  0  0  0  0  0  0  0  0  0
    0.5801    3.4672    1.4765 C   0  0  0  0  0  0  0  0  0  0  0  0
    1.1745    4.3688    2.2926 C   0  0  0  0  0  0  0  0  0  0  0  0
    2.5819    4.2561    2.5604 C   0  0  0  0  0  0  0  0  0  0  0  0
    3.3545    5.3430    2.8657 N   0  0  0  0  0  0  0  0  0  0  0  0
    4.6142    4.9639    2.7922 C   0  0  0  0  0  0  0  0  0  0  0  0
    4.9023    3.3176    2.3608 S   0  0  0  0  0  0  0  0  0  0  0  0
    3.2067    3.0119    2.3625 C   0  0  0  0  0  0  0  0  0  0  0  0
    2.4554    1.8446    1.8070 C   0  0  0  0  0  0  0  0  0  0  0  0
    2.9295    0.9033    0.9391 C   0  0  0  0  0  0  0  0  0  0  0  0
    2.2497   -0.1906    0.0749 C   0  0  0  0  0  0  0  0  0  0  0  0
    2.7200   -0.2089   -1.3556 N   0  0  0  0  0  0  0  0  0  0  0  0
    3.3011   -1.3359   -1.9057 C   0  0  0  0  0  0  0  0  0  0  0  0
    2.8780   -2.5468   -1.4054 C   0  0  0  0  0  0  0  0  0  0  0  0
    3.5677   -3.7140   -1.6383 C   0  0  0  0  0  0  0  0  0  0  0  0
    4.5447   -3.7859   -2.5945 C   0  0  0  0  0  0  0  0  0  0  0  0
    5.0534   -2.5797   -3.0935 C   0  0  0  0  0  0  0  0  0  0  0  0
    4.4051   -1.3529   -2.7761 C   0  0  0  0  0  0  0  0  0  0  0  0
    4.9776   -5.3812   -3.2731 S   0  0  0  0  0  0  0  0  0  0  0  0
    4.9788   -5.2217   -4.7142 O   0  0  0  0  0  0  0  0  0  0  0  0
    6.1907   -5.7786   -2.5873 O   0  0  0  0  0  0  0  0  0  0  0  0
    3.8146   -6.5942   -2.9891 N   0  0  0  0  0  0  0  0  0  0  0  0
    0.7297   -4.9885   -1.8263 C   0  0  0  0  0  0  0  0  0  0  0  0
    0.6079   -5.6444   -0.6084 C   0  0  0  0  0  0  0  0  0  0  0  0
    1.3223   -6.8183   -0.4566 C   0  0  0  0  0  0  0  0  0  0  0  0
    2.3333   -7.1947   -1.2888 N   0  0  0  0  0  0  0  0  0  0  0  0
    2.5430   -6.4312   -2.3843 C   0  0  0  0  0  0  0  0  0  0  0  0
    1.6608   -5.4396   -2.7723 C   0  0  0  0  0  0  0  0  0  0  0  0
   -0.4900    3.3527    1.3858 H   0  0  0  0  0  0  0  0  0  0  0  0
    0.6097    5.1338    2.8170 H   0  0  0  0  0  0  0  0  0  0  0  0
    5.4419    5.6358    2.9894 H   0  0  0  0  0  0  0  0  0  0  0  0
    2.4894   -1.1387    0.5677 H   0  0  0  0  0  0  0  0  0  0  0  0
    1.1526   -0.1186    0.0490 H   0  0  0  0  0  0  0  0  0  0  0  0
    2.5945    0.6088   -1.9527 H   0  0  0  0  0  0  0  0  0  0  0  0
    1.9827   -2.5948   -0.7971 H   0  0  0  0  0  0  0  0  0  0  0  0
    3.2595   -4.5790   -1.0827 H   0  0  0  0  0  0  0  0  0  0  0  0
    5.9896   -2.5738   -3.6541 H   0  0  0  0  0  0  0  0  0  0  0  0
    4.8058   -0.4294   -3.1963 H   0  0  0  0  0  0  0  0  0  0  0  0
    4.2169   -7.5219   -2.8772 H   0  0  0  0  0  0  0  0  0  0  0  0
    0.2059   -4.0507   -1.9965 H   0  0  0  0  0  0  0  0  0  0  0  0
   -0.0089   -5.2480    0.1937 H   0  0  0  0  0  0  0  0  0  0  0  0
    1.1017   -7.4857    0.3746 H   0  0  0  0  0  0  0  0  0  0  0  0
    1.8403   -4.8696   -3.6760 H   0  0  0  0  0  0  0  0  0  0  0  0
  1  2  2  0  0  0  0
  2  3  1  0  0  0  0
  2 13  1  0  0  0  0
  3  4  2  0  0  0  0
  4  5  1  0  0  0  0
  4 12  1  0  0  0  0
  5  6  2  0  0  0  0
  5 32  1  0  0  0  0
  6  7  1  0  0  0  0
  6 33  1  0  0  0  0
  7  8  1  0  0  0  0
  7 11  2  0  0  0  0
  8  9  2  0  0  0  0
  9 10  1  0  0  0  0
  9 34  1  0  0  0  0
 10 11  1  0  0  0  0
 11 12  1  0  0  0  0
 12 13  2  0  0  0  0
 13 14  1  0  0  0  0
 14 15  1  0  0  0  0
 14 35  1  0  0  0  0
 14 36  1  0  0  0  0
 15 16  1  0  0  0  0
 15 37  1  0  0  0  0
 16 17  2  0  0  0  0
 16 21  1  0  0  0  0
 17 18  1  0  0  0  0
 17 38  1  0  0  0  0
 18 19  2  0  0  0  0
 18 39  1  0  0  0  0
 19 20  1  0  0  0  0
 19 22  1  0  0  0  0
 20 21  2  0  0  0  0
 20 40  1  0  0  0  0
 21 41  1  0  0  0  0
 22 23  2  0  0  0  0
 22 24  2  0  0  0  0
 22 25  1  0  0  0  0
 25 30  1  0  0  0  0
 25 42  1  0  0  0  0
 26 27  2  0  0  0  0
 26 31  1  0  0  0  0
 26 43  1  0  0  0  0
 27 28  1  0  0  0  0
 27 44  1  0  0  0  0
 28 29  2  0  0  0  0
 28 45  1  0  0  0  0
 29 30  1  0  0  0  0
 30 31  2  0  0  0  0
 31 46  1  0  0  0  0
M  END
>  <DRUGBANK_ID>
DB06844

>  <COMMON_NAME>
4-[(7-OXO-7H-THIAZOLO[5,4-E]INDOL-8-YLMETHYL)-AMINO]-N-PYRIDIN-2-YL-BENZENESULFONAMIDE

$$$$
