1FN
 OpenBabel10282417163D

 50 54  0  0  0  0  0  0  0  0999 V2000
    0.9302    0.0422    0.1139 C   0  0  0  0  0  0  0  0  0  0  0  0
   -4.0666    3.7758    0.1265 C   0  0  0  0  0  0  0  0  0  0  0  0
   -3.4710    2.4051    0.0419 C   0  0  0  0  0  0  0  0  0  0  0  0
   -3.7047    4.8663   -0.8121 C   0  0  0  0  0  0  0  0  0  0  0  0
   -5.3599    6.2735    0.2932 C   0  0  0  0  0  0  0  0  0  0  0  0
   -5.6199    5.3160    1.1889 C   0  0  0  0  0  0  0  0  0  0  0  0
   -5.0819    3.9912    0.9868 C   0  0  0  0  0  0  0  0  0  0  0  0
   -1.2794    1.1424   -0.0127 C   0  0  0  0  0  0  0  0  0  0  0  0
    0.1215    1.2101   -0.0126 C   0  0  0  0  0  0  0  0  0  0  0  0
   -4.5729    6.6184   -3.1223 C   0  0  0  0  0  0  0  0  0  0  0  0
    3.7311   -1.8826    3.0690 C   0  0  0  0  0  0  0  0  0  0  0  0
   -4.2750    7.4945   -4.1623 C   0  0  0  0  0  0  0  0  0  0  0  0
    3.5000   -2.2097    1.6524 C   0  0  0  0  0  0  0  0  0  0  0  0
    4.7089   -1.7754    1.0849 C   0  0  0  0  0  0  0  0  0  0  0  0
    5.1889   -1.9758   -0.1521 N   0  0  0  0  0  0  0  0  0  0  0  0
    4.2803   -2.5566   -0.9615 C   0  0  0  0  0  0  0  0  0  0  0  0
    2.9581   -2.8122   -0.6226 C   0  0  0  0  0  0  0  0  0  0  0  0
    2.4904   -2.4460    0.6537 C   0  0  0  0  0  0  0  0  0  0  0  0
    1.0801   -2.3629    0.7877 O   0  0  0  0  0  0  0  0  0  0  0  0
    0.3863   -1.2313    0.2986 C   0  0  0  0  0  0  0  0  0  0  0  0
   -1.0139   -1.3087    0.1432 C   0  0  0  0  0  0  0  0  0  0  0  0
   -1.8235   -0.1420    0.0046 C   0  0  0  0  0  0  0  0  0  0  0  0
    2.2576    0.2140    0.0733 F   0  0  0  0  0  0  0  0  0  0  0  0
   -2.0753    2.3393   -0.0143 N   0  0  0  0  0  0  0  0  0  0  0  0
   -4.2377    1.4488    0.0869 O   0  0  0  0  0  0  0  0  0  0  0  0
   -4.4982    6.0295   -0.7662 N   0  0  0  0  0  0  0  0  0  0  0  0
   -2.7450    4.6998   -1.5825 O   0  0  0  0  0  0  0  0  0  0  0  0
   -4.3005    6.9846   -1.7947 C   0  0  0  0  0  0  0  0  0  0  0  0
    4.1066   -0.5465    2.8475 C   0  0  0  0  0  0  0  0  0  0  0  0
    5.2029   -0.8317    1.9813 N   0  0  0  0  0  0  0  0  0  0  0  0
   -3.7624    8.2412   -1.5054 C   0  0  0  0  0  0  0  0  0  0  0  0
   -3.4435    9.1059   -2.5528 C   0  0  0  0  0  0  0  0  0  0  0  0
   -3.6989    8.7240   -3.8680 C   0  0  0  0  0  0  0  0  0  0  0  0
   -3.3746    9.5528   -4.8682 F   0  0  0  0  0  0  0  0  0  0  0  0
   -5.8101    7.2613    0.3646 H   0  0  0  0  0  0  0  0  0  0  0  0
   -6.2296    5.5074    2.0679 H   0  0  0  0  0  0  0  0  0  0  0  0
   -5.5282    3.1791    1.5555 H   0  0  0  0  0  0  0  0  0  0  0  0
    0.6390    2.1644   -0.0662 H   0  0  0  0  0  0  0  0  0  0  0  0
   -5.0144    5.6497   -3.3465 H   0  0  0  0  0  0  0  0  0  0  0  0
    4.5487   -2.3155    3.6918 H   0  0  0  0  0  0  0  0  0  0  0  0
   -4.4673    7.2158   -5.1932 H   0  0  0  0  0  0  0  0  0  0  0  0
    4.6283   -2.7271   -1.9790 H   0  0  0  0  0  0  0  0  0  0  0  0
    2.2893   -3.2267   -1.3677 H   0  0  0  0  0  0  0  0  0  0  0  0
   -1.5437   -2.2597    0.1520 H   0  0  0  0  0  0  0  0  0  0  0  0
   -2.9008   -0.2799   -0.0482 H   0  0  0  0  0  0  0  0  0  0  0  0
   -1.5743    3.2243   -0.0503 H   0  0  0  0  0  0  0  0  0  0  0  0
    3.3916    0.1934    2.4937 H   0  0  0  0  0  0  0  0  0  0  0  0
    6.1587   -0.9349    2.2821 H   0  0  0  0  0  0  0  0  0  0  0  0
   -3.5189    8.5177   -0.4836 H   0  0  0  0  0  0  0  0  0  0  0  0
   -2.9718   10.0630   -2.3562 H   0  0  0  0  0  0  0  0  0  0  0  0
  1  9  2  0  0  0  0
  1 20  1  0  0  0  0
  1 23  1  0  0  0  0
  2  3  1  0  0  0  0
  2  4  1  0  0  0  0
  2  7  2  0  0  0  0
  3 24  1  0  0  0  0
  3 25  2  0  0  0  0
  4 26  1  0  0  0  0
  4 27  2  0  0  0  0
  5  6  2  0  0  0  0
  5 26  1  0  0  0  0
  5 35  1  0  0  0  0
  6  7  1  0  0  0  0
  6 36  1  0  0  0  0
  7 37  1  0  0  0  0
  8  9  1  0  0  0  0
  8 22  2  0  0  0  0
  8 24  1  0  0  0  0
  9 38  1  0  0  0  0
 10 12  2  0  0  0  0
 10 28  1  0  0  0  0
 10 39  1  0  0  0  0
 11 13  1  0  0  0  0
 11 29  2  0  0  0  0
 11 40  1  0  0  0  0
 12 33  1  0  0  0  0
 12 41  1  0  0  0  0
 13 14  2  0  0  0  0
 13 18  1  0  0  0  0
 14 15  1  0  0  0  0
 14 30  1  0  0  0  0
 15 16  2  0  0  0  0
 16 17  1  0  0  0  0
 16 42  1  0  0  0  0
 17 18  2  0  0  0  0
 17 43  1  0  0  0  0
 18 19  1  0  0  0  0
 19 20  1  0  0  0  0
 20 21  2  0  0  0  0
 21 22  1  0  0  0  0
 21 44  1  0  0  0  0
 22 45  1  0  0  0  0
 24 46  1  0  0  0  0
 26 28  1  0  0  0  0
 28 31  2  0  0  0  0
 29 30  1  0  0  0  0
 29 47  1  0  0  0  0
 30 48  1  0  0  0  0
 31 32  1  0  0  0  0
 31 49  1  0  0  0  0
 32 33  2  0  0  0  0
 32 50  1  0  0  0  0
 33 34  1  0  0  0  0
M  END
>  <DRUGBANK_ID>
DB06896

>  <COMMON_NAME>
1-(4-fluorophenyl)-N-[3-fluoro-4-(1H-pyrrolo[2,3-b]pyridin-4-yloxy)phenyl]-2-oxo-1,2-dihydropyridine-3-carboxamide

$$$$
