
 OpenBabel10282417133D

 59 61  0  0  0  0  0  0  0  0999 V2000
    2.9471    0.0039    0.0825 C   0  0  0  0  0  0  0  0  0  0  0  0
    2.3032   -1.2254    0.0180 C   0  0  0  0  0  0  0  0  0  0  0  0
    0.9175   -1.2269   -0.0175 C   0  0  0  0  0  0  0  0  0  0  0  0
    0.2313   -0.0074   -0.0169 C   0  0  0  0  0  0  0  0  0  0  0  0
    0.9022    1.2166   -0.0135 C   0  0  0  0  0  0  0  0  0  0  0  0
    2.2801    1.2209    0.0211 C   0  0  0  0  0  0  0  0  0  0  0  0
   -1.6546   -0.0069   -0.0099 Br  0  0  0  0  0  0  0  0  0  0  0  0
    7.4456    1.2881    1.4153 C   0  0  0  0  0  0  0  0  0  0  0  0
    7.3122    1.5688    2.7759 C   0  0  0  0  0  0  0  0  0  0  0  0
    6.0194    1.6827    3.2445 C   0  0  0  0  0  0  0  0  0  0  0  0
    4.9248    1.2841    2.4427 C   0  0  0  0  0  0  0  0  0  0  0  0
    8.3466    1.7748    3.6611 O   0  0  0  0  0  0  0  0  0  0  0  0
    9.7287    1.4758    3.3445 C   0  0  0  0  0  0  0  0  0  0  0  0
   10.1094   -0.0184    3.2477 C   0  0  0  0  0  0  0  0  0  0  0  0
    9.4943   -0.6825    2.0413 C   0  0  0  0  0  0  0  0  0  0  0  0
    9.9935    0.0545    0.7724 C   0  0  0  0  0  0  0  0  0  0  0  0
   11.2836   -0.4267    0.1790 C   0  0  0  0  0  0  0  0  0  0  0  0
   11.4045   -1.9477    0.0752 C   0  0  0  0  0  0  0  0  0  0  0  0
   10.5094   -2.6209   -0.8767 N   0  0  0  0  0  0  0  0  0  0  0  0
   10.6779   -4.0603   -0.9794 C   0  0  0  0  0  0  0  0  0  0  0  0
    9.1126   -2.4517   -0.5858 C   0  0  0  0  0  0  0  0  0  0  0  0
   10.2326   -4.7460    0.2876 C   0  0  0  0  0  0  0  0  0  0  0  0
    9.1154   -5.4812    0.3875 C   0  0  0  0  0  0  0  0  0  0  0  0
    6.4092    0.7062    0.6394 C   0  0  0  0  0  0  0  0  0  0  0  0
    5.1447    0.6753    1.1860 C   0  0  0  0  0  0  0  0  0  0  0  0
    4.3688    0.0719    0.1655 C   0  0  0  0  0  0  0  0  0  0  0  0
    5.0663   -0.3446   -0.8569 N   0  0  0  0  0  0  0  0  0  0  0  0
    6.2806    0.1698   -0.6323 N   0  0  0  0  0  0  0  0  0  0  0  0
    7.2438   -0.3727   -1.5306 C   0  0  0  0  0  0  0  0  0  0  0  0
    2.8722   -2.1530    0.0070 H   0  0  0  0  0  0  0  0  0  0  0  0
    0.3926   -2.1749   -0.0326 H   0  0  0  0  0  0  0  0  0  0  0  0
    0.3805    2.1650   -0.0261 H   0  0  0  0  0  0  0  0  0  0  0  0
    2.8434    2.1533    0.0028 H   0  0  0  0  0  0  0  0  0  0  0  0
    8.3672    1.5259    0.9640 H   0  0  0  0  0  0  0  0  0  0  0  0
    5.8360    2.1162    4.2254 H   0  0  0  0  0  0  0  0  0  0  0  0
    3.9105    1.4223    2.7967 H   0  0  0  0  0  0  0  0  0  0  0  0
   10.0512    2.0716    2.4871 H   0  0  0  0  0  0  0  0  0  0  0  0
   10.3480    1.8747    4.1577 H   0  0  0  0  0  0  0  0  0  0  0  0
   11.1977   -0.1421    3.1471 H   0  0  0  0  0  0  0  0  0  0  0  0
    9.8119   -0.5572    4.1525 H   0  0  0  0  0  0  0  0  0  0  0  0
    9.7058   -1.7520    2.0459 H   0  0  0  0  0  0  0  0  0  0  0  0
    8.4079   -0.7059    2.1681 H   0  0  0  0  0  0  0  0  0  0  0  0
    9.2265    0.1030    0.0149 H   0  0  0  0  0  0  0  0  0  0  0  0
   10.1797    1.1191    0.9095 H   0  0  0  0  0  0  0  0  0  0  0  0
   11.4163    0.0688   -0.7923 H   0  0  0  0  0  0  0  0  0  0  0  0
   12.0684   -0.0330    0.8355 H   0  0  0  0  0  0  0  0  0  0  0  0
   12.4376   -2.1412   -0.2129 H   0  0  0  0  0  0  0  0  0  0  0  0
   11.2884   -2.3533    1.0813 H   0  0  0  0  0  0  0  0  0  0  0  0
   10.0504   -4.3846   -1.8249 H   0  0  0  0  0  0  0  0  0  0  0  0
   11.7046   -4.2869   -1.2567 H   0  0  0  0  0  0  0  0  0  0  0  0
    8.7336   -2.7111    0.4116 H   0  0  0  0  0  0  0  0  0  0  0  0
    9.0308   -1.4125   -0.7169 H   0  0  0  0  0  0  0  0  0  0  0  0
    8.4559   -2.9170   -1.3323 H   0  0  0  0  0  0  0  0  0  0  0  0
   10.7570   -4.4760    1.1996 H   0  0  0  0  0  0  0  0  0  0  0  0
    8.7731   -5.8311    1.3553 H   0  0  0  0  0  0  0  0  0  0  0  0
    8.4819   -5.6702   -0.4742 H   0  0  0  0  0  0  0  0  0  0  0  0
    8.1154    0.2653   -1.6604 H   0  0  0  0  0  0  0  0  0  0  0  0
    7.3704   -1.3078   -1.0181 H   0  0  0  0  0  0  0  0  0  0  0  0
    6.8699   -0.7182   -2.4999 H   0  0  0  0  0  0  0  0  0  0  0  0
  1  2  2  0  0  0  0
  2  3  1  0  0  0  0
  2 30  1  0  0  0  0
  3  4  2  0  0  0  0
  3 31  1  0  0  0  0
  4  7  1  0  0  0  0
  4  5  1  0  0  0  0
  5  6  2  0  0  0  0
  5 32  1  0  0  0  0
  6  1  1  0  0  0  0
  6 33  1  0  0  0  0
  8  9  2  0  0  0  0
  8 34  1  0  0  0  0
  9 10  1  0  0  0  0
  9 12  1  0  0  0  0
 10 11  2  0  0  0  0
 10 35  1  0  0  0  0
 11 25  1  0  0  0  0
 11 36  1  0  0  0  0
 12 13  1  0  0  0  0
 13 14  1  0  0  0  0
 13 37  1  0  0  0  0
 13 38  1  0  0  0  0
 14 15  1  0  0  0  0
 14 39  1  0  0  0  0
 14 40  1  0  0  0  0
 15 16  1  0  0  0  0
 15 41  1  0  0  0  0
 15 42  1  0  0  0  0
 16 17  1  0  0  0  0
 16 43  1  0  0  0  0
 16 44  1  0  0  0  0
 17 18  1  0  0  0  0
 17 45  1  0  0  0  0
 17 46  1  0  0  0  0
 18 19  1  0  0  0  0
 18 47  1  0  0  0  0
 18 48  1  0  0  0  0
 19 20  1  0  0  0  0
 19 21  1  0  0  0  0
 20 22  1  0  0  0  0
 20 49  1  0  0  0  0
 20 50  1  0  0  0  0
 21 51  1  0  0  0  0
 21 52  1  0  0  0  0
 21 53  1  0  0  0  0
 22 23  2  0  0  0  0
 22 54  1  0  0  0  0
 23 55  1  0  0  0  0
 23 56  1  0  0  0  0
 24 25  2  0  0  0  0
 24  8  1  0  0  0  0
 25 26  1  0  0  0  0
 26 27  2  0  0  0  0
 26  1  1  0  0  0  0
 27 28  1  0  0  0  0
 28 24  1  0  0  0  0
 28 29  1  0  0  0  0
 29 57  1  0  0  0  0
 29 58  1  0  0  0  0
 29 59  1  0  0  0  0
M  END
>  <DRUGBANK_ID>
DB03888

>  <SECONDARY_ACCESSION_NUMBERS>
EXPT02737

>  <COMMON_NAME>
N-Allyl-6-{[3-(4-bromophenyl)-1-methyl-1H-indazol-6-yl]oxy}-N-methyl-1-hexanamine

$$$$
