
 OpenBabel10282417213D

 18 18  0  0  0  0  0  0  0  0999 V2000
    0.7187   -1.0116   -0.2589 C   0  0  0  0  0  0  0  0  0  0  0  0
   -0.7262   -1.0376    0.1722 C   0  0  3  0  0  0  0  0  0  0  0  0
   -1.1766    0.3111   -0.0282 O   0  0  0  0  0  0  0  0  0  0  0  0
    0.0036    1.1295   -0.0693 C   0  0  3  0  0  0  0  0  0  0  0  0
    1.1572    0.2927    0.1241 O   0  0  0  0  0  0  0  0  0  0  0  0
    0.1240    1.8498   -1.4198 C   0  0  0  0  0  0  0  0  0  0  0  0
   -1.5122    3.1775   -1.7849 I   0  0  0  0  0  0  0  0  0  0  0  0
   -0.8859   -1.4160    1.6468 C   0  0  0  0  0  0  0  0  0  0  0  0
   -2.2620   -1.3740    2.0201 O   0  0  0  0  0  0  0  0  0  0  0  0
    1.3410   -1.7808    0.2062 H   0  0  0  0  0  0  0  0  0  0  0  0
    0.8112   -1.0940   -1.3474 H   0  0  0  0  0  0  0  0  0  0  0  0
   -1.3356   -1.7024   -0.4481 H   0  0  0  0  0  0  0  0  0  0  0  0
   -0.0382    1.8510    0.7539 H   0  0  0  0  0  0  0  0  0  0  0  0
    1.0649    2.4121   -1.4485 H   0  0  0  0  0  0  0  0  0  0  0  0
    0.1800    1.1178   -2.2340 H   0  0  0  0  0  0  0  0  0  0  0  0
   -0.5238   -2.4341    1.8229 H   0  0  0  0  0  0  0  0  0  0  0  0
   -0.3457   -0.7313    2.3078 H   0  0  0  0  0  0  0  0  0  0  0  0
   -2.5780   -0.4797    1.7812 H   0  0  0  0  0  0  0  0  0  0  0  0
  1  2  1  0  0  0  0
  1  5  1  0  0  0  0
  1 10  1  0  0  0  0
  1 11  1  0  0  0  0
  2  3  1  0  0  0  0
  2  8  1  0  0  0  0
  2 12  1  0  0  0  0
  3  4  1  0  0  0  0
  4  5  1  0  0  0  0
  4  6  1  0  0  0  0
  4 13  1  0  0  0  0
  6  7  1  0  0  0  0
  6 14  1  0  0  0  0
  6 15  1  0  0  0  0
  8  9  1  0  0  0  0
  8 16  1  0  0  0  0
  8 17  1  0  0  0  0
  9 18  1  0  0  0  0
M  END
>  <DRUGBANK_ID>
DB13768

>  <COMMON_NAME>
Domiodol

>  <CAS_NUMBER>
61869-07-6

>  <UNII>
C1PXF8V06N

>  <SYNONYMS>
Domiodol

$$$$
