
 OpenBabel10282417193D

 44 46  0  0  0  0  0  0  0  0999 V2000
    1.0469   -0.0811   -0.0156 C   0  0  0  0  0  0  0  0  0  0  0  0
    8.6963    1.1238    6.1187 C   0  0  0  0  0  0  0  0  0  0  0  0
    6.7985   -0.2515    0.9976 C   0  0  0  0  0  0  0  0  0  0  0  0
    0.5898   -0.8537    1.2258 C   0  0  0  0  0  0  0  0  0  0  0  0
    2.4804   -1.4168    8.5246 C   0  0  0  0  0  0  0  0  0  0  0  0
    1.7787   -1.9581    7.4591 C   0  0  0  0  0  0  0  0  0  0  0  0
    3.0717   -0.1716    8.4319 C   0  0  0  0  0  0  0  0  0  0  0  0
    1.5558   -1.2143    6.3411 C   0  0  0  0  0  0  0  0  0  0  0  0
    2.7307    0.6248    7.3916 C   0  0  0  0  0  0  0  0  0  0  0  0
    1.7964    1.0195    5.2635 C   0  0  0  0  0  0  0  0  0  0  0  0
    1.4821    0.2532    3.5219 C   0  0  0  0  0  0  0  0  0  0  0  0
    5.0876    1.0405    5.1931 C   0  0  0  0  0  0  0  0  0  0  0  0
    5.1687   -0.0727    2.9887 C   0  0  0  0  0  0  0  0  0  0  0  0
    1.9912    0.0926    6.3830 C   0  0  0  0  0  0  0  0  0  0  0  0
    3.3507    0.6845    4.4191 C   0  0  0  0  0  0  0  0  0  0  0  0
    1.3348   -0.3178    2.3827 C   0  0  0  0  0  0  0  0  0  0  0  0
    4.3824    0.5805    3.8527 C   0  0  0  0  0  0  0  0  0  0  0  0
    3.1886    0.3462    3.8099 C   0  0  0  0  0  0  0  0  0  0  0  0
    6.6695    0.7218    4.5444 C   0  0  0  0  0  0  0  0  0  0  0  0
    6.4571    0.2565    3.2630 C   0  0  0  0  0  0  0  0  0  0  0  0
    2.5633   -0.2808    2.5092 N   0  0  0  0  0  0  0  0  0  0  0  0
    8.0721    0.7345    4.8770 O   0  0  0  0  0  0  0  0  0  0  0  0
    7.3620    0.1549    2.2647 O   0  0  0  0  0  0  0  0  0  0  0  0
    0.6936    0.9513    0.0434 H   0  0  0  0  0  0  0  0  0  0  0  0
    0.6851   -0.5130   -0.9564 H   0  0  0  0  0  0  0  0  0  0  0  0
    2.1403   -0.0697   -0.0560 H   0  0  0  0  0  0  0  0  0  0  0  0
    8.5123    2.1822    6.2763 H   0  0  0  0  0  0  0  0  0  0  0  0
    8.2964    0.5291    6.9348 H   0  0  0  0  0  0  0  0  0  0  0  0
    9.8128    0.9956    6.1574 H   0  0  0  0  0  0  0  0  0  0  0  0
    6.3487   -1.2517    1.0664 H   0  0  0  0  0  0  0  0  0  0  0  0
    6.0459    0.4581    0.6194 H   0  0  0  0  0  0  0  0  0  0  0  0
    7.6070   -0.3023    0.2731 H   0  0  0  0  0  0  0  0  0  0  0  0
   -0.5179   -0.8808    1.1891 H   0  0  0  0  0  0  0  0  0  0  0  0
    0.8988   -1.8999    1.0655 H   0  0  0  0  0  0  0  0  0  0  0  0
    2.5429   -1.9848    9.4354 H   0  0  0  0  0  0  0  0  0  0  0  0
    1.4040   -2.9617    7.5117 H   0  0  0  0  0  0  0  0  0  0  0  0
    3.7517    0.1995    9.1743 H   0  0  0  0  0  0  0  0  0  0  0  0
    0.9811   -1.5984    5.5093 H   0  0  0  0  0  0  0  0  0  0  0  0
    2.9566    1.6744    7.3159 H   0  0  0  0  0  0  0  0  0  0  0  0
    2.0220    2.0878    5.1872 H   0  0  0  0  0  0  0  0  0  0  0  0
    0.6892    0.9599    5.0725 H   0  0  0  0  0  0  0  0  0  0  0  0
    0.1825    0.2585    3.6430 H   0  0  0  0  0  0  0  0  0  0  0  0
    5.7883    1.6040    6.1700 H   0  0  0  0  0  0  0  0  0  0  0  0
    4.7581   -0.5989    2.1856 H   0  0  0  0  0  0  0  0  0  0  0  0
  1 24  1  0  0  0  0
  1 25  1  0  0  0  0
  1 26  1  0  0  0  0
  2 27  1  0  0  0  0
  2 28  1  0  0  0  0
  2 29  1  0  0  0  0
  3 30  1  0  0  0  0
  3 31  1  0  0  0  0
  3 32  1  0  0  0  0
  4  1  1  0  0  0  0
  4 33  1  0  0  0  0
  4 34  1  0  0  0  0
  5 35  1  0  0  0  0
  6  5  2  0  0  0  0
  6 36  1  0  0  0  0
  7  5  1  0  0  0  0
  7 37  1  0  0  0  0
  8  6  1  0  0  0  0
  8 38  1  0  0  0  0
  9  7  2  0  0  0  0
  9 39  1  0  0  0  0
 10 40  1  0  0  0  0
 10 41  1  0  0  0  0
 11 42  1  0  0  0  0
 12 43  1  0  0  0  0
 13 44  1  0  0  0  0
 14  8  2  0  0  0  0
 14  9  1  0  0  0  0
 14 10  1  0  0  0  0
 15 11  2  0  0  0  0
 15 12  1  0  0  0  0
 16  4  1  0  0  0  0
 16 11  1  0  0  0  0
 17 13  1  0  0  0  0
 17 15  1  0  0  0  0
 18 10  1  0  0  0  0
 18 17  2  0  0  0  0
 19 12  2  0  0  0  0
 20 13  2  0  0  0  0
 20 19  1  0  0  0  0
 21 16  2  0  0  0  0
 21 18  1  0  0  0  0
 22  2  1  0  0  0  0
 22 19  1  0  0  0  0
 23  3  1  0  0  0  0
 23 20  1  0  0  0  0
M  END
>  <DRUGBANK_ID>
DB12251

>  <COMMON_NAME>
Moxaverine

>  <CAS_NUMBER>
10539-19-2

>  <UNII>
P3P08Y1XJ4

>  <SYNONYMS>
Moxaverine

$$$$
