
 OpenBabel10282417133D

 12 11  0  0  0  0  0  0  0  0999 V2000
    0.9515    0.0175    0.0652 C   0  0  0  0  0  0  0  0  0  0  0  0
    0.2215    1.2952   -0.2534 C   0  0  0  0  0  0  0  0  0  0  0  0
   -0.6639    1.0910   -1.4755 C   0  0  0  0  0  0  0  0  0  0  0  0
    2.2956    0.0982    0.0592 O   0  0  0  0  0  0  0  0  0  0  0  0
    0.3704   -1.0397    0.2841 O   0  0  0  0  0  0  0  0  0  0  0  0
   -1.6500    0.0889   -1.2631 O   0  0  0  0  0  0  0  0  0  0  0  0
   -0.3786    1.5619    0.6238 H   0  0  0  0  0  0  0  0  0  0  0  0
    0.9268    2.1124   -0.4365 H   0  0  0  0  0  0  0  0  0  0  0  0
   -1.1990    2.0187   -1.7032 H   0  0  0  0  0  0  0  0  0  0  0  0
   -0.0736    0.8163   -2.3551 H   0  0  0  0  0  0  0  0  0  0  0  0
    2.6773    0.9713   -0.1459 H   0  0  0  0  0  0  0  0  0  0  0  0
   -1.1924   -0.7294   -0.9737 H   0  0  0  0  0  0  0  0  0  0  0  0
  2  1  1  0  0  0  0
  2  7  1  0  0  0  0
  2  8  1  0  0  0  0
  3  2  1  0  0  0  0
  3  9  1  0  0  0  0
  3 10  1  0  0  0  0
  4  1  1  0  0  0  0
  4 11  1  0  0  0  0
  5  1  2  0  0  0  0
  6  3  1  0  0  0  0
  6 12  1  0  0  0  0
M  END
>  <DRUGBANK_ID>
DB03688

>  <SECONDARY_ACCESSION_NUMBERS>
EXPT00183

>  <COMMON_NAME>
Hydracrylic acid

>  <CAS_NUMBER>
503-66-2

>  <UNII>
C4ZF6XLD2X

>  <SYNONYMS>
3-Hydroxypropanoic acid; 3-Hydroxypropionic acid; beta-Hydroxypropionic acid; Î²-hydroxypropionic acid

$$$$
