
 OpenBabel10282417113D

 51 53  0  0  0  0  0  0  0  0999 V2000
    0.6910   -8.9759    6.5636 S   0  0  0  0  0  0  0  0  0  0  0  0
    0.7478   -7.2134    6.8036 C   0  0  2  0  0  0  0  0  0  0  0  0
   -0.2109   -6.3985    6.0612 N   0  0  0  0  0  0  0  0  0  0  0  0
   -0.1388   -6.1920    4.7086 C   0  0  0  0  0  0  0  0  0  0  0  0
    0.3562   -7.1572    3.5610 C   0  0  2  0  0  0  0  0  0  0  0  0
    0.4783   -8.6552    3.8916 C   0  0  0  0  0  0  0  0  0  0  0  0
    1.4692   -9.0638    4.9504 C   0  0  0  0  0  0  0  0  0  0  0  0
    2.1462   -6.5574    6.7741 C   0  0  0  0  0  0  0  0  0  0  0  0
    2.0113   -5.2089    7.4971 C   0  0  0  0  0  0  0  0  0  0  0  0
    0.9962   -4.3499    6.7555 C   0  0  0  0  0  0  0  0  0  0  0  0
   -0.3878   -5.0808    6.7645 C   0  0  1  0  0  0  0  0  0  0  0  0
   -1.5066   -4.0140    6.5924 C   0  0  0  0  0  0  0  0  0  0  0  0
   -1.4280   -2.8686    6.9994 O   0  0  0  0  0  0  0  0  0  0  0  0
   -2.7182   -4.4886    6.2391 O   0  0  0  0  0  0  0  0  0  0  0  0
    1.2671   -6.2618    2.7876 N   0  0  0  0  0  0  0  0  0  0  0  0
    0.4932   -5.1748    2.2716 C   0  0  0  0  0  0  0  0  0  0  0  0
    0.9326   -3.6829    2.4099 C   0  0  2  0  0  0  0  0  0  0  0  0
   -0.0061   -2.8875    1.4515 C   0  0  0  0  0  0  0  0  0  0  0  0
   -0.6803   -5.4096    1.9277 O   0  0  0  0  0  0  0  0  0  0  0  0
    2.7435   -3.5020    2.2153 S   0  0  0  0  0  0  0  0  0  0  0  0
    0.5199   -2.9983    0.0486 C   0  0  0  0  0  0  0  0  0  0  0  0
    1.1402   -1.8793   -0.4989 C   0  0  0  0  0  0  0  0  0  0  0  0
    1.8997   -2.0187   -1.6487 C   0  0  0  0  0  0  0  0  0  0  0  0
    2.0604   -3.2753   -2.2355 C   0  0  0  0  0  0  0  0  0  0  0  0
    1.4489   -4.3978   -1.6887 C   0  0  0  0  0  0  0  0  0  0  0  0
    0.6272   -4.2488   -0.5853 C   0  0  0  0  0  0  0  0  0  0  0  0
   -0.3903   -5.0026    4.4120 O   0  0  0  0  0  0  0  0  0  0  0  0
    0.4022   -7.1577    7.8426 H   0  0  0  0  0  0  0  0  0  0  0  0
   -0.4331   -7.2932    2.8091 H   0  0  0  0  0  0  0  0  0  0  0  0
    0.6311   -9.2853    3.0025 H   0  0  0  0  0  0  0  0  0  0  0  0
   -0.5370   -8.9482    4.2216 H   0  0  0  0  0  0  0  0  0  0  0  0
    1.7656  -10.1110    4.8293 H   0  0  0  0  0  0  0  0  0  0  0  0
    2.3719   -8.4601    4.9121 H   0  0  0  0  0  0  0  0  0  0  0  0
    2.9166   -7.1548    7.2721 H   0  0  0  0  0  0  0  0  0  0  0  0
    2.4839   -6.3944    5.7401 H   0  0  0  0  0  0  0  0  0  0  0  0
    2.9676   -4.6882    7.5861 H   0  0  0  0  0  0  0  0  0  0  0  0
    1.6421   -5.3861    8.5143 H   0  0  0  0  0  0  0  0  0  0  0  0
    0.9458   -3.3454    7.1809 H   0  0  0  0  0  0  0  0  0  0  0  0
    1.3855   -4.2003    5.7361 H   0  0  0  0  0  0  0  0  0  0  0  0
   -0.6667   -5.4082    7.7704 H   0  0  0  0  0  0  0  0  0  0  0  0
   -3.3069   -3.7320    6.4580 H   0  0  0  0  0  0  0  0  0  0  0  0
    2.1925   -6.0131    3.1260 H   0  0  0  0  0  0  0  0  0  0  0  0
    0.7305   -3.2798    3.4108 H   0  0  0  0  0  0  0  0  0  0  0  0
   -1.0410   -3.2600    1.4682 H   0  0  0  0  0  0  0  0  0  0  0  0
   -0.1170   -1.8375    1.7576 H   0  0  0  0  0  0  0  0  0  0  0  0
    2.7858   -4.0678    0.9998 H   0  0  0  0  0  0  0  0  0  0  0  0
    1.0914   -0.9234    0.0174 H   0  0  0  0  0  0  0  0  0  0  0  0
    2.4042   -1.1500   -2.0559 H   0  0  0  0  0  0  0  0  0  0  0  0
    2.6726   -3.3808   -3.1233 H   0  0  0  0  0  0  0  0  0  0  0  0
    1.6288   -5.3890   -2.0951 H   0  0  0  0  0  0  0  0  0  0  0  0
    0.1537   -5.1395   -0.1793 H   0  0  0  0  0  0  0  0  0  0  0  0
  1  2  1  0  0  0  0
  1  7  1  0  0  0  0
  2  3  1  0  0  0  0
  2  8  1  0  0  0  0
  2 28  1  1  0  0  0
  3  4  1  0  0  0  0
  3 11  1  0  0  0  0
  4  5  1  0  0  0  0
  4 27  2  0  0  0  0
  5  6  1  0  0  0  0
  5 29  1  6  0  0  0
  5 15  1  0  0  0  0
  6  7  1  0  0  0  0
  6 30  1  0  0  0  0
  6 31  1  0  0  0  0
  7 32  1  0  0  0  0
  7 33  1  0  0  0  0
  8  9  1  0  0  0  0
  8 34  1  0  0  0  0
  8 35  1  0  0  0  0
  9 10  1  0  0  0  0
  9 36  1  0  0  0  0
  9 37  1  0  0  0  0
 10 11  1  0  0  0  0
 10 38  1  0  0  0  0
 10 39  1  0  0  0  0
 11 12  1  0  0  0  0
 11 40  1  1  0  0  0
 12 13  2  0  0  0  0
 12 14  1  0  0  0  0
 14 41  1  0  0  0  0
 15 16  1  0  0  0  0
 15 42  1  0  0  0  0
 16 19  2  0  0  0  0
 17 20  1  0  0  0  0
 17 43  1  1  0  0  0
 17 18  1  0  0  0  0
 17 16  1  0  0  0  0
 18 21  1  0  0  0  0
 18 44  1  0  0  0  0
 18 45  1  0  0  0  0
 20 46  1  0  0  0  0
 21 22  1  0  0  0  0
 21 26  2  0  0  0  0
 22 23  2  0  0  0  0
 22 47  1  0  0  0  0
 23 24  1  0  0  0  0
 23 48  1  0  0  0  0
 24 25  2  0  0  0  0
 24 49  1  0  0  0  0
 25 26  1  0  0  0  0
 25 50  1  0  0  0  0
 26 51  1  0  0  0  0
M  END
>  <DRUGBANK_ID>
DB00886

>  <SECONDARY_ACCESSION_NUMBERS>
APRD00443

>  <COMMON_NAME>
Omapatrilat

>  <CAS_NUMBER>
167305-00-2

>  <UNII>
36NLI90E7T

>  <SYNONYMS>
Omapatrilat; Omapatrilate

$$$$
