
 OpenBabel10282417183D

 55 57  0  0  1  0  0  0  0  0999 V2000
    1.2624   -0.2311    0.1243 C   0  0  0  0  0  0  0  0  0  0  0  0
    0.6600   -0.0424    1.5124 C   0  0  0  0  0  0  0  0  0  0  0  0
    0.9532    1.3566    1.9676 C   0  0  0  0  0  0  0  0  0  0  0  0
    0.4281    2.5981    1.2268 C   0  0  2  0  0  0  0  0  0  0  0  0
   -0.5406    2.2723    0.1119 C   0  0  0  0  0  0  0  0  0  0  0  0
   -1.2198    1.1288   -0.2925 C   0  0  0  0  0  0  0  0  0  0  0  0
   -1.6970    1.3368   -1.5753 C   0  0  0  0  0  0  0  0  0  0  0  0
   -1.5396    2.6728   -1.7823 C   0  0  0  0  0  0  0  0  0  0  0  0
   -0.8135    3.2638   -0.7941 O   0  0  0  0  0  0  0  0  0  0  0  0
   -2.0662    3.4855   -2.8684 C   0  0  0  0  0  0  0  0  0  0  0  0
    1.6313    3.4030    0.8562 N   0  0  0  0  0  0  0  0  0  0  0  0
    1.7447    4.6687    1.2442 C   0  0  0  0  0  0  0  0  0  0  0  0
    1.6311    5.3739    2.4304 C   0  0  0  0  0  0  0  0  0  0  0  0
    2.0401    6.6313    1.7692 C   0  0  0  0  0  0  0  0  0  0  0  0
    2.2180    7.8031    2.0535 O   0  0  0  0  0  0  0  0  0  0  0  0
    2.1720    5.8739    0.5068 C   0  0  0  0  0  0  0  0  0  0  0  0
    2.4436    6.1936   -0.6374 O   0  0  0  0  0  0  0  0  0  0  0  0
    1.3594    5.1097    3.7101 N   0  0  0  0  0  0  0  0  0  0  0  0
    1.3921    3.7880    4.2735 C   0  0  0  0  0  0  0  0  0  0  0  0
    0.3293    3.3200    5.0296 C   0  0  0  0  0  0  0  0  0  0  0  0
    0.3043    1.9807    5.4420 C   0  0  0  0  0  0  0  0  0  0  0  0
    1.3847    1.1070    5.1647 C   0  0  0  0  0  0  0  0  0  0  0  0
    2.5327    1.5473    4.4506 C   0  0  0  0  0  0  0  0  0  0  0  0
    2.4775    2.9163    4.0228 C   0  0  0  0  0  0  0  0  0  0  0  0
    3.3691    3.5473    3.1854 O   0  0  0  0  0  0  0  0  0  0  0  0
    3.5717    0.4275    4.0731 C   0  0  0  0  0  0  0  0  0  0  0  0
    3.3240   -0.7299    4.4292 O   0  0  0  0  0  0  0  0  0  0  0  0
    4.7530    0.6830    3.3364 N   0  0  0  0  0  0  0  0  0  0  0  0
    5.2094    1.9900    3.0393 C   0  0  0  0  0  0  0  0  0  0  0  0
    5.7402   -0.3304    3.0419 C   0  0  0  0  0  0  0  0  0  0  0  0
    1.1073    0.6104   -0.5588 H   0  0  0  0  0  0  0  0  0  0  0  0
    0.8438   -1.1133   -0.3575 H   0  0  0  0  0  0  0  0  0  0  0  0
    2.3486   -0.2838    0.1907 H   0  0  0  0  0  0  0  0  0  0  0  0
   -0.4165   -0.1806    1.6534 H   0  0  0  0  0  0  0  0  0  0  0  0
    1.0679   -0.7921    2.1960 H   0  0  0  0  0  0  0  0  0  0  0  0
    0.4902    1.4066    2.9444 H   0  0  0  0  0  0  0  0  0  0  0  0
    2.0423    1.3930    2.0387 H   0  0  0  0  0  0  0  0  0  0  0  0
   -0.1451    3.1888    1.9554 H   0  0  0  0  0  0  0  0  0  0  0  0
   -1.2496    0.1370    0.1136 H   0  0  0  0  0  0  0  0  0  0  0  0
   -2.1513    0.6040   -2.2230 H   0  0  0  0  0  0  0  0  0  0  0  0
   -2.7709    4.2127   -2.4635 H   0  0  0  0  0  0  0  0  0  0  0  0
   -1.2647    3.9680   -3.4238 H   0  0  0  0  0  0  0  0  0  0  0  0
   -2.6149    2.8178   -3.5429 H   0  0  0  0  0  0  0  0  0  0  0  0
    2.1000    3.0334    0.0278 H   0  0  0  0  0  0  0  0  0  0  0  0
    1.6181    5.7852    4.4343 H   0  0  0  0  0  0  0  0  0  0  0  0
   -0.5248    3.9676    5.2005 H   0  0  0  0  0  0  0  0  0  0  0  0
   -0.5996    1.5976    5.9162 H   0  0  0  0  0  0  0  0  0  0  0  0
    1.2561    0.0518    5.4237 H   0  0  0  0  0  0  0  0  0  0  0  0
    3.2627    3.1384    2.3044 H   0  0  0  0  0  0  0  0  0  0  0  0
    6.2425    2.2612    3.2277 H   0  0  0  0  0  0  0  0  0  0  0  0
    4.9514    2.1880    1.9889 H   0  0  0  0  0  0  0  0  0  0  0  0
    4.7810    2.5355    3.8477 H   0  0  0  0  0  0  0  0  0  0  0  0
    6.1617   -0.6786    3.9859 H   0  0  0  0  0  0  0  0  0  0  0  0
    5.3034   -1.1439    2.4639 H   0  0  0  0  0  0  0  0  0  0  0  0
    6.5454    0.1279    2.4490 H   0  0  0  0  0  0  0  0  0  0  0  0
  1  2  1  0  0  0  0
  1 31  1  0  0  0  0
  1 32  1  0  0  0  0
  1 33  1  0  0  0  0
  2  3  1  0  0  0  0
  2 34  1  0  0  0  0
  2 35  1  0  0  0  0
  3  4  1  0  0  0  0
  3 36  1  0  0  0  0
  3 37  1  0  0  0  0
  4  5  1  0  0  0  0
  4 11  1  0  0  0  0
  4 38  1  1  0  0  0
  5  6  2  0  0  0  0
  5  9  1  0  0  0  0
  6  7  1  0  0  0  0
  6 39  1  0  0  0  0
  7  8  2  0  0  0  0
  7 40  1  0  0  0  0
  8  9  1  0  0  0  0
  8 10  1  0  0  0  0
 10 41  1  0  0  0  0
 10 42  1  0  0  0  0
 10 43  1  0  0  0  0
 11 12  1  0  0  0  0
 11 44  1  0  0  0  0
 12 13  2  0  0  0  0
 12 16  1  0  0  0  0
 13 14  1  0  0  0  0
 13 18  1  0  0  0  0
 14 15  2  0  0  0  0
 14 16  1  0  0  0  0
 16 17  2  0  0  0  0
 18 19  1  0  0  0  0
 18 45  1  0  0  0  0
 19 20  2  0  0  0  0
 19 24  1  0  0  0  0
 20 21  1  0  0  0  0
 20 46  1  0  0  0  0
 21 22  2  0  0  0  0
 21 47  1  0  0  0  0
 22 23  1  0  0  0  0
 22 48  1  0  0  0  0
 23 24  2  0  0  0  0
 23 26  1  0  0  0  0
 24 25  1  0  0  0  0
 25 49  1  0  0  0  0
 26 27  2  0  0  0  0
 26 28  1  0  0  0  0
 28 29  1  0  0  0  0
 28 30  1  0  0  0  0
 29 50  1  0  0  0  0
 29 51  1  0  0  0  0
 29 52  1  0  0  0  0
 30 53  1  0  0  0  0
 30 54  1  0  0  0  0
 30 55  1  0  0  0  0
M  END
>  <DRUGBANK_ID>
DB11711

>  <COMMON_NAME>
Navarixin

>  <CAS_NUMBER>
473727-83-2

>  <UNII>
4GMU5HUX5I

>  <SYNONYMS>
Navarixin; Navarixin anhydrous

$$$$
