
 OpenBabel10282417123D

 30 31  0  0  0  0  0  0  0  0999 V2000
   -2.7554    3.1403    2.6397 P   0  0  0  0  0  0  0  0  0  0  0  0
   -0.2746    1.0696    1.6600 O   0  0  0  0  0  0  0  0  0  0  0  0
   -2.0545    0.8339   -1.4752 O   0  0  0  0  0  0  0  0  0  0  0  0
   -0.9031    3.2086   -1.0706 O   0  0  0  0  0  0  0  0  0  0  0  0
   -1.2398    3.1291    3.2511 O   0  0  0  0  0  0  0  0  0  0  0  0
    0.5572   -0.2529   -0.9707 O   0  0  0  0  0  0  0  0  0  0  0  0
   -2.0889   -3.0097    1.2801 O   0  0  0  0  0  0  0  0  0  0  0  0
   -3.6479    2.7122    3.9245 O   0  0  0  0  0  0  0  0  0  0  0  0
   -2.4933    1.4491    2.3862 O   0  0  0  0  0  0  0  0  0  0  0  0
   -2.9899    4.6538    2.8666 O   0  0  0  0  0  0  0  0  0  0  0  0
   -1.7743   -0.7430    1.5180 N   0  0  0  0  0  0  0  0  0  0  0  0
   -0.2496   -1.9025    0.4460 N   0  0  0  0  0  0  0  0  0  0  0  0
   -1.0664    0.2628    0.7625 C   0  0  1  0  0  0  0  0  0  0  0  0
   -1.9542    1.1787   -0.1055 C   0  0  1  0  0  0  0  0  0  0  0  0
   -1.3614    2.5755    0.1090 C   0  0  1  0  0  0  0  0  0  0  0  0
   -0.2167    2.4158    1.1311 C   0  0  1  0  0  0  0  0  0  0  0  0
   -0.1398   -0.6360   -0.0409 C   0  0  0  0  0  0  0  0  0  0  0  0
   -0.2579    3.4677    2.2681 C   0  0  0  0  0  0  0  0  0  0  0  0
   -1.4155   -1.9955    1.1194 C   0  0  0  0  0  0  0  0  0  0  0  0
   -2.6234   -0.5525    2.0446 H   0  0  0  0  0  0  0  0  0  0  0  0
    0.2323   -2.6993    0.0732 H   0  0  0  0  0  0  0  0  0  0  0  0
   -1.1646    0.9347   -1.8572 H   0  0  0  0  0  0  0  0  0  0  0  0
   -0.1473    2.7070   -1.4118 H   0  0  0  0  0  0  0  0  0  0  0  0
   -4.2291    3.4834    4.0994 H   0  0  0  0  0  0  0  0  0  0  0  0
   -1.6818    1.2519    2.9171 H   0  0  0  0  0  0  0  0  0  0  0  0
   -2.9938    1.1613    0.2598 H   0  0  0  0  0  0  0  0  0  0  0  0
   -2.1509    3.2470    0.4469 H   0  0  0  0  0  0  0  0  0  0  0  0
    0.7441    2.5223    0.6200 H   0  0  0  0  0  0  0  0  0  0  0  0
   -0.4825    4.4642    1.8664 H   0  0  0  0  0  0  0  0  0  0  0  0
    0.7050    3.5383    2.7834 H   0  0  0  0  0  0  0  0  0  0  0  0
  1  5  1  0  0  0  0
  1  8  1  0  0  0  0
  1  9  1  0  0  0  0
  1 10  2  0  0  0  0
  2 16  1  0  0  0  0
  3 22  1  0  0  0  0
  4 23  1  0  0  0  0
  5 18  1  0  0  0  0
  6 17  2  0  0  0  0
  7 19  2  0  0  0  0
  8 24  1  0  0  0  0
  9 25  1  0  0  0  0
 11 13  1  0  0  0  0
 11 19  1  0  0  0  0
 11 20  1  0  0  0  0
 12 17  1  0  0  0  0
 12 19  1  0  0  0  0
 12 21  1  0  0  0  0
 13  2  1  1  0  0  0
 13 14  1  0  0  0  0
 13 17  1  0  0  0  0
 14  3  1  0  0  0  0
 14 15  1  0  0  0  0
 14 26  1  1  0  0  0
 15 16  1  0  0  0  0
 15 27  1  1  0  0  0
 15  4  1  0  0  0  0
 16 28  1  6  0  0  0
 16 18  1  0  0  0  0
 18 29  1  0  0  0  0
 18 30  1  0  0  0  0
M  END
>  <DRUGBANK_ID>
DB02493

>  <SECONDARY_ACCESSION_NUMBERS>
EXPT01683; DB02150

>  <COMMON_NAME>
Hydantocidin-5'-phosphate

>  <SYNONYMS>
[(5S,7R,8S,9R)-8,9-dihydroxy-2,4-dioxo-6-oxa-1,3-diazaspiro[4.4]non-7-yl]methyl dihydrogen phosphate; Phosphohydantocidin

$$$$
