
 OpenBabel10282417173D

 28 29  0  0  0  0  0  0  0  0999 V2000
    0.3227    0.6911    0.0005 C   0  0  0  0  0  0  0  0  0  0  0  0
    0.2116   -0.6886    0.0031 C   0  0  0  0  0  0  0  0  0  0  0  0
   -0.8762    1.4359   -0.0001 C   0  0  0  0  0  0  0  0  0  0  0  0
    1.6561    1.0551    0.0007 N   0  0  0  0  0  0  0  0  0  0  0  0
    1.4970   -1.1477    0.0184 N   0  0  0  0  0  0  0  0  0  0  0  0
   -0.9096   -1.4191   -0.0034 N   0  0  0  0  0  0  0  0  0  0  0  0
   -2.0443    0.7371    0.0136 N   0  0  0  0  0  0  0  0  0  0  0  0
   -0.9574    2.8124   -0.0523 N   0  0  0  0  0  0  0  0  0  0  0  0
    2.3314   -0.0693    0.0206 C   0  0  0  0  0  0  0  0  0  0  0  0
   -1.9951   -0.6165    0.0000 C   0  0  0  0  0  0  0  0  0  0  0  0
    0.2026    3.6499    0.1024 C   0  0  0  0  0  0  0  0  0  0  0  0
    0.1976    4.6300   -1.0270 C   0  0  0  0  0  0  0  0  0  0  0  0
    0.3070    5.9626   -0.8833 C   0  0  0  0  0  0  0  0  0  0  0  0
    0.3539    6.8813   -2.0665 C   0  0  0  0  0  0  0  0  0  0  0  0
    0.4113    6.5883    0.4769 C   0  0  0  0  0  0  0  0  0  0  0  0
    1.7703   -2.1195    0.0383 H   0  0  0  0  0  0  0  0  0  0  0  0
   -1.8707    3.2047    0.1301 H   0  0  0  0  0  0  0  0  0  0  0  0
    3.4091   -0.1452    0.0405 H   0  0  0  0  0  0  0  0  0  0  0  0
   -2.9552   -1.1250   -0.0132 H   0  0  0  0  0  0  0  0  0  0  0  0
    0.1834    4.1175    1.0905 H   0  0  0  0  0  0  0  0  0  0  0  0
    1.1622    3.1455    0.0373 H   0  0  0  0  0  0  0  0  0  0  0  0
    0.1600    4.1888   -2.0223 H   0  0  0  0  0  0  0  0  0  0  0  0
   -0.4893    7.5774   -2.0332 H   0  0  0  0  0  0  0  0  0  0  0  0
    1.2861    7.4554   -2.0657 H   0  0  0  0  0  0  0  0  0  0  0  0
    0.3014    6.3366   -3.0157 H   0  0  0  0  0  0  0  0  0  0  0  0
   -0.4718    6.3384    1.0755 H   0  0  0  0  0  0  0  0  0  0  0  0
    1.3055    6.2237    0.9961 H   0  0  0  0  0  0  0  0  0  0  0  0
    0.4785    7.6767    0.4217 H   0  0  0  0  0  0  0  0  0  0  0  0
  1  2  2  0  0  0  0
  1  3  1  0  0  0  0
  1  4  1  0  0  0  0
  2  5  1  0  0  0  0
  2  6  1  0  0  0  0
  3  7  2  0  0  0  0
  3  8  1  0  0  0  0
  4  9  2  0  0  0  0
  5  9  1  0  0  0  0
  5 16  1  0  0  0  0
  6 10  2  0  0  0  0
  7 10  1  0  0  0  0
  8 11  1  0  0  0  0
  8 17  1  0  0  0  0
  9 18  1  0  0  0  0
 10 19  1  0  0  0  0
 11 12  1  0  0  0  0
 11 20  1  0  0  0  0
 11 21  1  0  0  0  0
 12 13  2  0  0  0  0
 12 22  1  0  0  0  0
 13 14  1  0  0  0  0
 13 15  1  0  0  0  0
 14 23  1  0  0  0  0
 14 24  1  0  0  0  0
 14 25  1  0  0  0  0
 15 26  1  0  0  0  0
 15 27  1  0  0  0  0
 15 28  1  0  0  0  0
M  END
>  <DRUGBANK_ID>
DB08768

>  <COMMON_NAME>
N(6)-dimethylallyladenine

>  <CAS_NUMBER>
2365-40-4

>  <UNII>
V500BB256Z

>  <SYNONYMS>
IPADE; Isopentenyl adenine; Isopentenyladenine; N(6)-(delta(2)-Isopentenyl)adenine; N6-(3-methylbut-2-enyl)adenine; N6-(delta2-Isopentenyl)-adenine; N6-dimethylallyladenine; N6-isopentenyladenine

$$$$
