
 OpenBabel10282417103D

 45 47  0  0  1  0  0  0  0  0999 V2000
    1.3272    0.9581    0.5088 S   0  0  0  0  0  0  0  0  0  0  0  0
    2.1788   -0.5831   -0.0027 C   0  0  0  0  0  0  0  0  0  0  0  0
    1.2635   -1.8254    0.0005 C   0  0  0  0  0  0  0  0  0  0  0  0
   -0.0962   -1.7165   -0.1219 C   0  0  0  0  0  0  0  0  0  0  0  0
    0.0526    0.7459   -0.7493 C   0  0  1  0  0  0  0  0  0  0  0  0
   -0.6550   -0.4966   -0.4562 N   0  0  0  0  0  0  0  0  0  0  0  0
   -1.7766    0.1073    0.0269 C   0  0  0  0  0  0  0  0  0  0  0  0
   -1.3172    1.4653   -0.5615 C   0  0  1  0  0  0  0  0  0  0  0  0
   -2.7159   -0.3652    0.6048 O   0  0  0  0  0  0  0  0  0  0  0  0
   -1.0952   -2.8688    0.1007 C   0  0  0  0  0  0  0  0  0  0  0  0
   -2.2520   -2.7348   -0.5939 O   0  0  0  0  0  0  0  0  0  0  0  0
   -0.9213   -3.8683    0.7768 O   0  0  0  0  0  0  0  0  0  0  0  0
    2.0472   -3.0480    0.2783 C   0  0  0  0  0  0  0  0  0  0  0  0
    1.6714   -4.3201    0.0972 C   0  0  0  0  0  0  0  0  0  0  0  0
   -1.4292    2.6902    0.2712 N   0  0  0  0  0  0  0  0  0  0  0  0
   -2.1071    3.8109   -0.2033 C   0  0  0  0  0  0  0  0  0  0  0  0
   -2.2039    5.0782    0.6838 C   0  0  0  0  0  0  0  0  0  0  0  0
   -2.5866    3.8243   -1.3320 O   0  0  0  0  0  0  0  0  0  0  0  0
   -2.9364    6.2530    0.1623 C   0  0  0  0  0  0  0  0  0  0  0  0
   -1.6761    5.2064    1.8799 N   0  0  0  0  0  0  0  0  0  0  0  0
   -1.0020    4.0549    2.3110 O   0  0  0  0  0  0  0  0  0  0  0  0
   -0.4455    4.2318    3.6045 C   0  0  0  0  0  0  0  0  0  0  0  0
    0.6623    5.2695    3.6383 C   0  0  0  0  0  0  0  0  0  0  0  0
    0.5105    6.2328    4.5778 O   0  0  0  0  0  0  0  0  0  0  0  0
    1.6355    5.2424    2.8962 O   0  0  0  0  0  0  0  0  0  0  0  0
   -2.5050    7.5655    0.2649 C   0  0  0  0  0  0  0  0  0  0  0  0
   -3.6514    8.6343   -0.4346 S   0  0  0  0  0  0  0  0  0  0  0  0
   -4.6442    7.2959   -0.8422 C   0  0  0  0  0  0  0  0  0  0  0  0
   -4.1697    6.1258   -0.4879 N   0  0  0  0  0  0  0  0  0  0  0  0
   -5.8185    7.4675   -1.4621 N   0  0  0  0  0  0  0  0  0  0  0  0
    0.4186    0.8294   -1.7790 H   0  0  0  0  0  0  0  0  0  0  0  0
    2.6225   -0.4395   -0.9951 H   0  0  0  0  0  0  0  0  0  0  0  0
    3.0047   -0.6910    0.7107 H   0  0  0  0  0  0  0  0  0  0  0  0
   -1.8243    1.6161   -1.5234 H   0  0  0  0  0  0  0  0  0  0  0  0
   -2.6684   -1.8643   -0.4264 H   0  0  0  0  0  0  0  0  0  0  0  0
    3.0647   -2.9128    0.6560 H   0  0  0  0  0  0  0  0  0  0  0  0
    2.2472   -5.1685    0.4535 H   0  0  0  0  0  0  0  0  0  0  0  0
    0.7345   -4.5911   -0.3674 H   0  0  0  0  0  0  0  0  0  0  0  0
   -1.0110    2.7570    1.1954 H   0  0  0  0  0  0  0  0  0  0  0  0
   -1.2323    4.4249    4.3402 H   0  0  0  0  0  0  0  0  0  0  0  0
    0.0159    3.2759    3.8823 H   0  0  0  0  0  0  0  0  0  0  0  0
   -0.3247    6.2040    5.0817 H   0  0  0  0  0  0  0  0  0  0  0  0
   -1.5909    7.9480    0.6947 H   0  0  0  0  0  0  0  0  0  0  0  0
   -6.1650    8.3794   -1.7289 H   0  0  0  0  0  0  0  0  0  0  0  0
   -6.3725    6.6631   -1.7273 H   0  0  0  0  0  0  0  0  0  0  0  0
  1  2  1  0  0  0  0
  2  3  1  0  0  0  0
  2 32  1  0  0  0  0
  2 33  1  0  0  0  0
  3  4  2  0  0  0  0
  3 13  1  0  0  0  0
  4 10  1  0  0  0  0
  5  6  1  0  0  0  0
  5  1  1  0  0  0  0
  5 31  1  6  0  0  0
  6  7  1  0  0  0  0
  6  4  1  0  0  0  0
  7  8  1  0  0  0  0
  7  9  2  0  0  0  0
  8 15  1  0  0  0  0
  8  5  1  0  0  0  0
  8 34  1  6  0  0  0
 10 11  1  0  0  0  0
 10 12  2  0  0  0  0
 11 35  1  0  0  0  0
 13 14  2  0  0  0  0
 13 36  1  0  0  0  0
 14 37  1  0  0  0  0
 14 38  1  0  0  0  0
 15 16  1  0  0  0  0
 15 39  1  0  0  0  0
 16 17  1  0  0  0  0
 16 18  2  0  0  0  0
 17 19  1  0  0  0  0
 17 20  2  0  0  0  0
 19 26  2  0  0  0  0
 20 21  1  0  0  0  0
 21 22  1  0  0  0  0
 22 23  1  0  0  0  0
 22 40  1  0  0  0  0
 22 41  1  0  0  0  0
 23 24  1  0  0  0  0
 23 25  2  0  0  0  0
 24 42  1  0  0  0  0
 26 27  1  0  0  0  0
 26 43  1  0  0  0  0
 27 28  1  0  0  0  0
 28 29  2  0  0  0  0
 28 30  1  0  0  0  0
 29 19  1  0  0  0  0
 30 44  1  0  0  0  0
 30 45  1  0  0  0  0
M  END
>  <DRUGBANK_ID>
DB00671

>  <SECONDARY_ACCESSION_NUMBERS>
APRD00583

>  <COMMON_NAME>
Cefixime

>  <CAS_NUMBER>
79350-37-1

>  <UNII>
XZ7BG04GJX

>  <SYNONYMS>
(−)-cefixim; Cefixim; Cefixima; Céfixime; Cefixime; Cefixime anhydrous; Cefiximum

$$$$
