
 OpenBabel10282417123D

 24 24  0  0  1  0  0  0  0  0999 V2000
    1.4073   -0.0143    0.4007 C   0  0  0  0  0  0  0  0  0  0  0  0
    0.4905    1.2191    0.3452 C   0  0  2  0  0  0  0  0  0  0  0  0
   -0.7670    0.8454   -0.4667 C   0  0  2  0  0  0  0  0  0  0  0  0
   -0.4730    0.9449   -1.9891 C   0  0  1  0  0  0  0  0  0  0  0  0
    0.0473    2.3391   -2.3511 C   0  0  2  0  0  0  0  0  0  0  0  0
    1.2645    2.6870   -1.4694 C   0  0  2  0  0  0  0  0  0  0  0  0
   -1.9288    1.6596   -0.0607 N   0  0  0  0  0  0  0  0  0  0  0  0
    0.4283   -0.0727   -2.4491 O   0  0  0  0  0  0  0  0  0  0  0  0
   -1.0143    3.2932   -2.2103 O   0  0  0  0  0  0  0  0  0  0  0  0
    2.3966    1.9802   -1.9414 O   0  0  0  0  0  0  0  0  0  0  0  0
    1.1350    2.4257   -0.0827 O   0  0  0  0  0  0  0  0  0  0  0  0
    0.2217    1.4264    1.3904 H   0  0  0  0  0  0  0  0  0  0  0  0
   -1.0243   -0.1880   -0.2086 H   0  0  0  0  0  0  0  0  0  0  0  0
   -1.4098    0.7529   -2.5200 H   0  0  0  0  0  0  0  0  0  0  0  0
    0.3603    2.3410   -3.4029 H   0  0  0  0  0  0  0  0  0  0  0  0
    1.4696    3.7623   -1.5691 H   0  0  0  0  0  0  0  0  0  0  0  0
    1.2416   -0.6908   -0.4406 H   0  0  0  0  0  0  0  0  0  0  0  0
    1.1317   -0.6228    1.2689 H   0  0  0  0  0  0  0  0  0  0  0  0
    2.4730    0.2099    0.4343 H   0  0  0  0  0  0  0  0  0  0  0  0
   -2.7729    1.1888   -0.3884 H   0  0  0  0  0  0  0  0  0  0  0  0
   -1.9075    2.5387   -0.5954 H   0  0  0  0  0  0  0  0  0  0  0  0
    1.3480    0.2496   -2.3583 H   0  0  0  0  0  0  0  0  0  0  0  0
   -0.6902    4.1409   -2.5627 H   0  0  0  0  0  0  0  0  0  0  0  0
    2.7251    1.5276   -1.1400 H   0  0  0  0  0  0  0  0  0  0  0  0
  1 17  1  0  0  0  0
  1 18  1  0  0  0  0
  1 19  1  0  0  0  0
  2  1  1  0  0  0  0
  2 12  1  1  0  0  0
  3  2  1  0  0  0  0
  3 13  1  1  0  0  0
  3  7  1  0  0  0  0
  4  3  1  0  0  0  0
  4  8  1  0  0  0  0
  4 14  1  6  0  0  0
  5  4  1  0  0  0  0
  5 15  1  6  0  0  0
  5  9  1  0  0  0  0
  6  5  1  0  0  0  0
  6 10  1  0  0  0  0
  6 16  1  6  0  0  0
  7 20  1  0  0  0  0
  7 21  1  0  0  0  0
  8 22  1  0  0  0  0
  9 23  1  0  0  0  0
 10 24  1  0  0  0  0
 11  2  1  0  0  0  0
 11  6  1  0  0  0  0
M  END
>  <DRUGBANK_ID>
DB02469

>  <SECONDARY_ACCESSION_NUMBERS>
EXPT01106

>  <COMMON_NAME>
4,6-dideoxy-4-amino-beta-D-glucopyranoside

$$$$
