
 OpenBabel10282417233D

 66 69  0  0  0  0  0  0  0  0999 V2000
    1.0600    0.0576   -0.0111 C   0  0  0  0  0  0  0  0  0  0  0  0
    0.7324    0.4235   -1.4014 N   0  0  0  0  0  0  0  0  0  0  0  0
   -0.6624    0.2483   -1.7178 C   0  0  0  0  0  0  0  0  0  0  0  0
    1.0461    1.8811   -1.5648 C   0  0  0  0  0  0  0  0  0  0  0  0
    0.4432    2.8634   -0.4528 C   0  0  0  0  0  0  0  0  0  0  0  0
    1.2386    3.5906    0.1578 O   0  0  0  0  0  0  0  0  0  0  0  0
   -0.9632    3.0087   -0.2850 N   0  0  0  0  0  0  0  0  0  0  0  0
   -1.5466    4.3299   -0.1584 C   0  0  0  0  0  0  0  0  0  0  0  0
   -2.2596    4.4442    1.1689 C   0  0  0  0  0  0  0  0  0  0  0  0
   -3.2821    3.3343    1.3596 C   0  0  0  0  0  0  0  0  0  0  0  0
   -2.6675    1.9848    1.1668 C   0  0  0  0  0  0  0  0  0  0  0  0
   -2.0150    1.9667   -0.1231 C   0  0  0  0  0  0  0  0  0  0  0  0
   -3.8016    3.3927    2.7319 C   0  0  0  0  0  0  0  0  0  0  0  0
   -4.5094    4.4714    3.2411 C   0  0  0  0  0  0  0  0  0  0  0  0
   -5.0847    4.4674    4.5307 C   0  0  0  0  0  0  0  0  0  0  0  0
   -4.9353    3.3860    5.3443 C   0  0  0  0  0  0  0  0  0  0  0  0
   -5.3813    3.2969    6.6919 N   0  0  0  0  0  0  0  0  0  0  0  0
   -5.2044    2.3135    7.6863 C   0  0  0  0  0  0  0  0  0  0  0  0
   -5.8491    2.4437    8.7341 O   0  0  0  0  0  0  0  0  0  0  0  0
   -4.4280    1.0941    7.5685 C   0  0  0  0  0  0  0  0  0  0  0  0
   -3.9993    0.0991    6.7960 N   0  0  0  0  0  0  0  0  0  0  0  0
   -3.7106   -0.6600    5.0440 C   0  0  0  0  0  0  0  0  0  0  0  0
   -4.7292   -1.0340    5.6867 C   0  0  0  0  0  0  0  0  0  0  0  0
   -5.0300   -0.1454    7.3640 N   0  0  0  0  0  0  0  0  0  0  0  0
   -2.3105   -1.3221    4.5352 C   0  0  0  0  0  0  0  0  0  0  0  0
   -1.1944   -1.6202    4.3323 N   0  0  0  0  0  0  0  0  0  0  0  0
   -4.2480    2.4071    4.7173 C   0  0  0  0  0  0  0  0  0  0  0  0
   -3.6068    2.3395    3.5367 C   0  0  0  0  0  0  0  0  0  0  0  0
   -4.1531    1.1999    5.3066 C   0  0  0  0  0  0  0  0  0  0  0  0
   -2.6111    0.5562    5.9405 C   0  0  0  0  0  0  0  0  0  0  0  0
   -2.9116   -1.2797    6.9343 C   0  0  0  0  0  0  0  0  0  0  0  0
   -4.7645   -2.3815    7.0339 C   0  0  0  0  0  0  0  0  0  0  0  0
   -6.4418   -1.3228    6.6510 C   0  0  0  0  0  0  0  0  0  0  0  0
   -6.0460    0.3941    5.5367 C   0  0  0  0  0  0  0  0  0  0  0  0
    0.6973   -0.9435    0.2344 H   0  0  0  0  0  0  0  0  0  0  0  0
    0.6705    0.7345    0.7658 H   0  0  0  0  0  0  0  0  0  0  0  0
    2.1493    0.0571    0.0741 H   0  0  0  0  0  0  0  0  0  0  0  0
   -0.8782    1.1777   -1.3308 H   0  0  0  0  0  0  0  0  0  0  0  0
   -1.1895    0.5830   -2.6183 H   0  0  0  0  0  0  0  0  0  0  0  0
   -1.2240   -0.5127   -1.1596 H   0  0  0  0  0  0  0  0  0  0  0  0
    2.1391    1.9516   -1.5734 H   0  0  0  0  0  0  0  0  0  0  0  0
    0.7043    2.2240   -2.5524 H   0  0  0  0  0  0  0  0  0  0  0  0
   -2.2921    4.4160   -0.9639 H   0  0  0  0  0  0  0  0  0  0  0  0
   -0.8173    5.1297   -0.2871 H   0  0  0  0  0  0  0  0  0  0  0  0
   -2.7775    5.4017    1.2278 H   0  0  0  0  0  0  0  0  0  0  0  0
   -1.5149    4.3924    1.9730 H   0  0  0  0  0  0  0  0  0  0  0  0
   -4.1211    3.4140    0.6595 H   0  0  0  0  0  0  0  0  0  0  0  0
   -1.8568    1.7506    1.8805 H   0  0  0  0  0  0  0  0  0  0  0  0
   -3.3987    1.1542    1.1813 H   0  0  0  0  0  0  0  0  0  0  0  0
   -1.6860    0.9404    0.0553 H   0  0  0  0  0  0  0  0  0  0  0  0
   -2.7097    2.0366   -0.9710 H   0  0  0  0  0  0  0  0  0  0  0  0
   -4.5827    5.3417    2.6135 H   0  0  0  0  0  0  0  0  0  0  0  0
   -5.6406    5.3230    4.8558 H   0  0  0  0  0  0  0  0  0  0  0  0
   -5.8764    4.1012    7.0474 H   0  0  0  0  0  0  0  0  0  0  0  0
   -4.1086   -1.9448    5.5788 H   0  0  0  0  0  0  0  0  0  0  0  0
   -5.9682    0.1309    7.6486 H   0  0  0  0  0  0  0  0  0  0  0  0
   -3.0312    1.4383    3.3165 H   0  0  0  0  0  0  0  0  0  0  0  0
   -1.6717    1.1025    5.6682 H   0  0  0  0  0  0  0  0  0  0  0  0
   -2.8579   -1.0786    8.0250 H   0  0  0  0  0  0  0  0  0  0  0  0
   -2.2191   -2.0842    6.6510 H   0  0  0  0  0  0  0  0  0  0  0  0
   -4.9880   -3.2118    7.6760 H   0  0  0  0  0  0  0  0  0  0  0  0
   -5.1550   -2.9386    5.8682 H   0  0  0  0  0  0  0  0  0  0  0  0
   -7.4139   -1.7528    6.4145 H   0  0  0  0  0  0  0  0  0  0  0  0
   -6.5034   -1.3298    7.8113 H   0  0  0  0  0  0  0  0  0  0  0  0
   -6.4404    0.0619    4.5346 H   0  0  0  0  0  0  0  0  0  0  0  0
   -6.7095    1.1489    5.9664 H   0  0  0  0  0  0  0  0  0  0  0  0
  1  2  1  0  0  0  0
  1 35  1  0  0  0  0
  1 36  1  0  0  0  0
  1 37  1  0  0  0  0
  2  3  1  0  0  0  0
  2  4  1  0  0  0  0
  3 38  1  0  0  0  0
  3 39  1  0  0  0  0
  3 40  1  0  0  0  0
  4  5  1  0  0  0  0
  4 41  1  0  0  0  0
  4 42  1  0  0  0  0
  5  6  2  0  0  0  0
  5  7  1  0  0  0  0
  7  8  1  0  0  0  0
  7 12  1  0  0  0  0
  8  9  1  0  0  0  0
  8 43  1  0  0  0  0
  8 44  1  0  0  0  0
  9 10  1  0  0  0  0
  9 45  1  0  0  0  0
  9 46  1  0  0  0  0
 10 11  1  0  0  0  0
 10 13  1  0  0  0  0
 10 47  1  0  0  0  0
 11 12  1  0  0  0  0
 11 48  1  0  0  0  0
 11 49  1  0  0  0  0
 12 50  1  0  0  0  0
 12 51  1  0  0  0  0
 13 14  2  0  0  0  0
 13 28  1  0  0  0  0
 14 15  1  0  0  0  0
 14 52  1  0  0  0  0
 15 16  2  0  0  0  0
 15 53  1  0  0  0  0
 16 17  1  0  0  0  0
 16 27  1  0  0  0  0
 17 18  1  0  0  0  0
 17 54  1  0  0  0  0
 18 19  2  0  0  0  0
 18 20  1  0  0  0  0
 20 21  2  0  0  0  0
 20 24  1  0  0  0  0
 21 22  1  0  0  0  0
 22 23  2  0  0  0  0
 22 25  1  0  0  0  0
 23 24  1  0  0  0  0
 23 55  1  0  0  0  0
 24 56  1  0  0  0  0
 25 26  3  0  0  0  0
 27 28  2  0  0  0  0
 27 29  1  0  0  0  0
 28 57  1  0  0  0  0
 29 30  2  0  0  0  0
 29 34  1  0  0  0  0
 30 31  1  0  0  0  0
 30 58  1  0  0  0  0
 31 32  1  0  0  0  0
 31 59  1  0  0  0  0
 31 60  1  0  0  0  0
 32 33  1  0  0  0  0
 32 61  1  0  0  0  0
 32 62  1  0  0  0  0
 33 34  1  0  0  0  0
 33 63  1  0  0  0  0
 33 64  1  0  0  0  0
 34 65  1  0  0  0  0
 34 66  1  0  0  0  0
M  END
>  <DRUGBANK_ID>
DB17140

>  <COMMON_NAME>
JNJ-28312141

>  <CAS_NUMBER>
885692-52-4

>  <UNII>
YKQ241VJ92

>  <SYNONYMS>
1h-imidazole-2-carboxamide, 5-cyano-n-(2-(1-cyclohexen-1-yl)-4-(1-(2-(dimethylamino)acetyl)-4-piperidinyl)phenyl)-; 4-cyano-N-[2-(1-cyclohexen-1-yl)-4-[1-[(dimethylamino)acetyl]-4-piperidinyl]phenyl]-1H-imidazole-2-carboxamide

$$$$
