
 OpenBabel10282417123D

 41 44  0  0  0  0  0  0  0  0999 V2000
    1.3677   -0.2587    0.4220 C   0  0  0  0  0  0  0  0  0  0  0  0
    0.4784   -1.3250    0.3484 C   0  0  0  0  0  0  0  0  0  0  0  0
    0.8801    1.0394    0.5089 C   0  0  0  0  0  0  0  0  0  0  0  0
   -5.2008    0.0962    0.4947 C   0  0  0  0  0  0  0  0  0  0  0  0
   -0.9032   -1.0855    0.3309 C   0  0  0  0  0  0  0  0  0  0  0  0
   -0.4905    1.2728    0.5172 C   0  0  0  0  0  0  0  0  0  0  0  0
   -3.8613   -0.1545    0.8354 C   0  0  0  0  0  0  0  0  0  0  0  0
   -5.5558    0.8763   -0.6524 C   0  0  0  0  0  0  0  0  0  0  0  0
   -1.2626    3.0726   -3.5110 C   0  0  0  0  0  0  0  0  0  0  0  0
   -2.1962    0.3857   -3.6238 C   0  0  0  0  0  0  0  0  0  0  0  0
   -1.4180    0.2255    0.3886 C   0  0  0  0  0  0  0  0  0  0  0  0
   -2.8559    0.4925    0.1456 C   0  0  0  0  0  0  0  0  0  0  0  0
   -4.5623    1.5426   -1.3797 C   0  0  0  0  0  0  0  0  0  0  0  0
   -0.3422    1.9955   -3.2445 C   0  0  0  0  0  0  0  0  0  0  0  0
   -0.8579    0.6711   -3.2967 C   0  0  0  0  0  0  0  0  0  0  0  0
   -2.6682    2.7527   -3.6644 C   0  0  0  0  0  0  0  0  0  0  0  0
   -3.0397    1.4378   -3.9298 C   0  0  0  0  0  0  0  0  0  0  0  0
   -3.2926    1.4448   -0.7950 C   0  0  0  0  0  0  0  0  0  0  0  0
    1.0762    2.2273   -2.6850 C   0  0  0  0  0  0  0  0  0  0  0  0
   -4.6223    2.2848   -2.7474 C   0  0  0  0  0  0  0  0  0  0  0  0
    0.0168   -0.7692   -2.9009 Cl  0  0  0  0  0  0  0  0  0  0  0  0
    1.8410    1.3130   -2.1959 N   0  0  0  0  0  0  0  0  0  0  0  0
    1.7094    3.4358   -2.5609 N   0  0  0  0  0  0  0  0  0  0  0  0
   -3.8510    3.3529   -3.1382 N   0  0  0  0  0  0  0  0  0  0  0  0
   -4.4528    1.5270   -3.9478 N   0  0  0  0  0  0  0  0  0  0  0  0
   -2.4784    2.5202   -1.0169 O   0  0  0  0  0  0  0  0  0  0  0  0
    2.4368   -0.4176    0.3035 H   0  0  0  0  0  0  0  0  0  0  0  0
    0.8627   -2.3307    0.1945 H   0  0  0  0  0  0  0  0  0  0  0  0
    1.5613    1.8854    0.4308 H   0  0  0  0  0  0  0  0  0  0  0  0
   -5.9636   -0.3179    1.1548 H   0  0  0  0  0  0  0  0  0  0  0  0
   -1.5660   -1.9335    0.1678 H   0  0  0  0  0  0  0  0  0  0  0  0
   -0.8137    2.3124    0.5307 H   0  0  0  0  0  0  0  0  0  0  0  0
   -3.5961   -0.7663    1.6964 H   0  0  0  0  0  0  0  0  0  0  0  0
   -6.6154    1.0038   -0.8605 H   0  0  0  0  0  0  0  0  0  0  0  0
   -0.9670    4.1076   -3.3480 H   0  0  0  0  0  0  0  0  0  0  0  0
   -2.6249   -0.5838   -3.3864 H   0  0  0  0  0  0  0  0  0  0  0  0
    1.3510    0.4042   -2.1200 H   0  0  0  0  0  0  0  0  0  0  0  0
    1.5712    4.1920   -3.1995 H   0  0  0  0  0  0  0  0  0  0  0  0
    2.6880    3.2754   -2.3011 H   0  0  0  0  0  0  0  0  0  0  0  0
   -4.8221    1.9942   -4.7608 H   0  0  0  0  0  0  0  0  0  0  0  0
   -1.6369    2.1351   -1.2817 H   0  0  0  0  0  0  0  0  0  0  0  0
  1 27  1  0  0  0  0
  2  1  2  0  0  0  0
  2 28  1  0  0  0  0
  3  1  1  0  0  0  0
  3 29  1  0  0  0  0
  4 30  1  0  0  0  0
  5  2  1  0  0  0  0
  5 31  1  0  0  0  0
  6  3  2  0  0  0  0
  6 32  1  0  0  0  0
  7  4  2  0  0  0  0
  7 33  1  0  0  0  0
  8  4  1  0  0  0  0
  8 34  1  0  0  0  0
  9 35  1  0  0  0  0
 10 36  1  0  0  0  0
 11  5  2  0  0  0  0
 11  6  1  0  0  0  0
 12  7  1  0  0  0  0
 12 11  1  0  0  0  0
 13  8  2  0  0  0  0
 14  9  2  0  0  0  0
 15 10  2  0  0  0  0
 15 14  1  0  0  0  0
 16  9  1  0  0  0  0
 17 10  1  0  0  0  0
 17 16  2  0  0  0  0
 18 12  2  0  0  0  0
 18 13  1  0  0  0  0
 19 14  1  0  0  0  0
 20 13  1  0  0  0  0
 21 15  1  0  0  0  0
 22 19  2  0  0  0  0
 22 37  1  0  0  0  0
 23 19  1  0  0  0  0
 23 38  1  0  0  0  0
 23 39  1  0  0  0  0
 24 16  1  0  0  0  0
 24 20  2  0  0  0  0
 25 17  1  0  0  0  0
 25 20  1  0  0  0  0
 25 40  1  0  0  0  0
 26 18  1  0  0  0  0
 26 41  1  0  0  0  0
M  END
>  <DRUGBANK_ID>
DB02366

>  <SECONDARY_ACCESSION_NUMBERS>
EXPT00299

>  <COMMON_NAME>
CRA_10762

$$$$
