
 OpenBabel10282417133D

 25 26  0  0  0  0  0  0  0  0999 V2000
    2.1838   -0.6753   -0.0165 C   0  0  0  0  0  0  0  0  0  0  0  0
    2.1459    0.7162   -0.0299 C   0  0  0  0  0  0  0  0  0  0  0  0
    0.9998   -1.4164    0.0161 C   0  0  0  0  0  0  0  0  0  0  0  0
    0.9286    1.4066   -0.0031 C   0  0  0  0  0  0  0  0  0  0  0  0
   -2.0760   -2.6087   -0.0145 C   0  0  0  0  0  0  0  0  0  0  0  0
   -2.3891   -0.0555   -0.0633 C   0  0  0  0  0  0  0  0  0  0  0  0
   -1.6013   -1.1901   -0.0220 C   0  0  0  0  0  0  0  0  0  0  0  0
   -0.2411   -0.7486    0.0019 C   0  0  0  0  0  0  0  0  0  0  0  0
   -2.9308   -2.8841    1.1987 C   0  0  0  0  0  0  0  0  0  0  0  0
   -0.2489    0.6465   -0.0006 C   0  0  0  0  0  0  0  0  0  0  0  0
   -4.3805   -3.3349    0.9892 C   0  0  0  0  0  0  0  0  0  0  0  0
   -2.4548   -2.7594    2.4056 N   0  0  0  0  0  0  0  0  0  0  0  0
   -1.5679    1.0392   -0.0025 N   0  0  0  0  0  0  0  0  0  0  0  0
   -5.1331   -3.5570    1.9217 O   0  0  0  0  0  0  0  0  0  0  0  0
   -4.7457   -3.4869   -0.2827 O   0  0  0  0  0  0  0  0  0  0  0  0
   -3.1948   -2.9632    3.0918 H   0  0  0  0  0  0  0  0  0  0  0  0
    3.1376   -1.1957   -0.0351 H   0  0  0  0  0  0  0  0  0  0  0  0
    3.0792    1.2735   -0.0623 H   0  0  0  0  0  0  0  0  0  0  0  0
    1.0393   -2.5008    0.0356 H   0  0  0  0  0  0  0  0  0  0  0  0
    0.9082    2.4915   -0.0013 H   0  0  0  0  0  0  0  0  0  0  0  0
   -2.6045   -2.8144   -0.9488 H   0  0  0  0  0  0  0  0  0  0  0  0
   -1.2283   -3.3024    0.0246 H   0  0  0  0  0  0  0  0  0  0  0  0
   -3.4636    0.0614   -0.1045 H   0  0  0  0  0  0  0  0  0  0  0  0
   -1.8815    1.9994    0.0144 H   0  0  0  0  0  0  0  0  0  0  0  0
   -5.6807   -3.7820   -0.2583 H   0  0  0  0  0  0  0  0  0  0  0  0
  1 17  1  0  0  0  0
  2  1  2  0  0  0  0
  2 18  1  0  0  0  0
  3  1  1  0  0  0  0
  3 19  1  0  0  0  0
  4  2  1  0  0  0  0
  4 20  1  0  0  0  0
  5 21  1  0  0  0  0
  5 22  1  0  0  0  0
  6 23  1  0  0  0  0
  7  5  1  0  0  0  0
  7  6  2  0  0  0  0
  8  3  2  0  0  0  0
  8  7  1  0  0  0  0
  9  5  1  0  0  0  0
 10  4  2  0  0  0  0
 10  8  1  0  0  0  0
 11  9  1  0  0  0  0
 12  9  2  0  0  0  0
 13  6  1  0  0  0  0
 13 10  1  0  0  0  0
 13 24  1  0  0  0  0
 14 11  2  0  0  0  0
 15 11  1  0  0  0  0
 15 25  1  0  0  0  0
 16 12  1  0  0  0  0
M  END
>  <DRUGBANK_ID>
DB02988

>  <SECONDARY_ACCESSION_NUMBERS>
EXPT01942

>  <COMMON_NAME>
Imino-Tryptophan

$$$$
