706
 OpenBabel10282417103D

 56 57  0  0  1  0  0  0  0  0999 V2000
    9.0777    1.4563   -4.7962 S   0  0  0  0  0  0  0  0  0  0  0  0
    2.7682   -1.2470    1.4634 O   0  0  0  0  0  0  0  0  0  0  0  0
    9.6698   -1.4659   -6.2878 O   0  0  0  0  0  0  0  0  0  0  0  0
   10.5373    1.6263   -4.7985 O   0  0  0  0  0  0  0  0  0  0  0  0
    8.2572    1.8074   -5.9066 O   0  0  0  0  0  0  0  0  0  0  0  0
    5.3210   -0.8503   -0.1119 O   0  0  0  0  0  0  0  0  0  0  0  0
    5.4693   -3.8377   -0.3389 N   0  0  0  0  0  0  0  0  0  0  0  0
    8.5995    2.5125   -3.5865 N   0  0  0  0  0  0  0  0  0  0  0  0
    6.4976   -3.3285   -1.2817 C   0  0  1  0  0  0  0  0  0  0  0  0
    7.5070   -2.0261   -1.1259 C   0  0  0  0  0  0  0  0  0  0  0  0
    8.0479   -1.6921   -2.4940 C   0  0  0  0  0  0  0  0  0  0  0  0
    7.3742   -4.5131   -0.8530 C   0  0  0  0  0  0  0  0  0  0  0  0
    3.6941   -3.8558   -0.3956 C   0  0  0  0  0  0  0  0  0  0  0  0
    8.2093   -0.3902   -2.9892 C   0  0  0  0  0  0  0  0  0  0  0  0
    8.7477   -0.2021   -4.2761 C   0  0  0  0  0  0  0  0  0  0  0  0
    8.3635   -2.7647   -3.3070 C   0  0  0  0  0  0  0  0  0  0  0  0
    2.5071   -2.8593    0.8044 C   0  0  0  0  0  0  0  0  0  0  0  0
    9.1309   -1.3264   -5.0438 C   0  0  0  0  0  0  0  0  0  0  0  0
    8.9562   -2.5992   -4.5198 C   0  0  0  0  0  0  0  0  0  0  0  0
    3.9676   -0.4767    1.8214 C   0  0  0  0  0  0  0  0  0  0  0  0
    5.2192   -0.4284    1.1330 C   0  0  0  0  0  0  0  0  0  0  0  0
    4.0076    0.3940    2.8711 C   0  0  0  0  0  0  0  0  0  0  0  0
    9.7383   -0.3340   -7.1134 C   0  0  0  0  0  0  0  0  0  0  0  0
    6.4487    0.1409    1.4687 C   0  0  0  0  0  0  0  0  0  0  0  0
    5.1762    1.2134    3.0986 C   0  0  0  0  0  0  0  0  0  0  0  0
    6.4079    1.0519    2.4514 C   0  0  0  0  0  0  0  0  0  0  0  0
    4.4302   -1.8528   -0.0135 C   0  0  0  0  0  0  0  0  0  0  0  0
    4.6143   -2.9908    1.6141 C   0  0  0  0  0  0  0  0  0  0  0  0
    5.8482   -3.1650    0.3445 H   0  0  0  0  0  0  0  0  0  0  0  0
    9.2355    2.4604   -2.7956 H   0  0  0  0  0  0  0  0  0  0  0  0
    8.6738    3.4374   -4.0280 H   0  0  0  0  0  0  0  0  0  0  0  0
    6.0378   -3.2718   -2.2607 H   0  0  0  0  0  0  0  0  0  0  0  0
    8.3460   -2.1884   -0.4217 H   0  0  0  0  0  0  0  0  0  0  0  0
    7.1236   -1.0622   -0.8275 H   0  0  0  0  0  0  0  0  0  0  0  0
    6.7699   -5.4277   -0.8181 H   0  0  0  0  0  0  0  0  0  0  0  0
    8.2133   -4.7291   -1.4917 H   0  0  0  0  0  0  0  0  0  0  0  0
    7.7833   -4.3447    0.1632 H   0  0  0  0  0  0  0  0  0  0  0  0
    3.3992   -3.5869   -1.4219 H   0  0  0  0  0  0  0  0  0  0  0  0
    3.5287   -4.9319   -0.2833 H   0  0  0  0  0  0  0  0  0  0  0  0
    7.8950    0.4649   -2.3904 H   0  0  0  0  0  0  0  0  0  0  0  0
    8.1001   -3.7770   -3.0590 H   0  0  0  0  0  0  0  0  0  0  0  0
    1.4961   -2.8411    0.3827 H   0  0  0  0  0  0  0  0  0  0  0  0
    2.3470   -3.3667    1.7750 H   0  0  0  0  0  0  0  0  0  0  0  0
    9.2570   -3.5016   -5.0430 H   0  0  0  0  0  0  0  0  0  0  0  0
    3.1403    0.4979    3.4971 H   0  0  0  0  0  0  0  0  0  0  0  0
    8.7442    0.0913   -7.2474 H   0  0  0  0  0  0  0  0  0  0  0  0
   10.4843    0.3457   -6.7116 H   0  0  0  0  0  0  0  0  0  0  0  0
   10.0944   -0.6159   -8.1012 H   0  0  0  0  0  0  0  0  0  0  0  0
    7.3495   -0.0100    0.8731 H   0  0  0  0  0  0  0  0  0  0  0  0
    5.1075    2.0535    3.7733 H   0  0  0  0  0  0  0  0  0  0  0  0
    7.2942    1.6545    2.6128 H   0  0  0  0  0  0  0  0  0  0  0  0
    3.4327   -1.4664   -0.3462 H   0  0  0  0  0  0  0  0  0  0  0  0
    4.5761   -2.2024   -1.0474 H   0  0  0  0  0  0  0  0  0  0  0  0
    4.4290   -2.5204    2.5735 H   0  0  0  0  0  0  0  0  0  0  0  0
    4.0014   -3.9393    1.6518 H   0  0  0  0  0  0  0  0  0  0  0  0
    5.5276   -3.5923    1.8152 H   0  0  0  0  0  0  0  0  0  0  0  0
  1  4  2  0  0  0  0
  1  5  2  0  0  0  0
  1  8  1  0  0  0  0
  1 15  1  0  0  0  0
  2 17  1  0  0  0  0
  2 20  1  0  0  0  0
  3 18  1  0  0  0  0
  3 23  1  0  0  0  0
  6 21  1  0  0  0  0
  6 27  1  0  0  0  0
  7 13  1  0  0  0  0
  7 29  1  0  0  0  0
  8 30  1  0  0  0  0
  8 31  1  0  0  0  0
  9 12  1  0  0  0  0
  9 32  1  6  0  0  0
  9 10  1  0  0  0  0
  9  7  1  0  0  0  0
 10 11  1  0  0  0  0
 10 33  1  0  0  0  0
 10 34  1  0  0  0  0
 11 14  2  0  0  0  0
 11 16  1  0  0  0  0
 12 35  1  0  0  0  0
 12 36  1  0  0  0  0
 12 37  1  0  0  0  0
 13 17  1  0  0  0  0
 13 38  1  0  0  0  0
 13 39  1  0  0  0  0
 14 15  1  0  0  0  0
 14 40  1  0  0  0  0
 15 18  2  0  0  0  0
 16 19  2  0  0  0  0
 16 41  1  0  0  0  0
 17 42  1  0  0  0  0
 17 43  1  0  0  0  0
 18 19  1  0  0  0  0
 19 44  1  0  0  0  0
 20 21  1  0  0  0  0
 20 22  2  0  0  0  0
 21 24  2  0  0  0  0
 22 25  1  0  0  0  0
 22 45  1  0  0  0  0
 23 46  1  0  0  0  0
 23 47  1  0  0  0  0
 23 48  1  0  0  0  0
 24 26  1  0  0  0  0
 24 49  1  0  0  0  0
 25 26  2  0  0  0  0
 25 50  1  0  0  0  0
 26 51  1  0  0  0  0
 27 28  1  0  0  0  0
 27 52  1  0  0  0  0
 27 53  1  0  0  0  0
 28 54  1  0  0  0  0
 28 55  1  0  0  0  0
 28 56  1  0  0  0  0
M  END
>  <DRUGBANK_ID>
DB00706

>  <SECONDARY_ACCESSION_NUMBERS>
APRD00036

>  <COMMON_NAME>
Tamsulosin

>  <CAS_NUMBER>
106133-20-4

>  <UNII>
G3P28OML5I

>  <SYNONYMS>
(−)-tamsulosin; (R)-(−)-tamsulosin; (R)-5-(2-((2-(2-ethoxyphenoxy)ethyl)amino)propyl)-2-methoxybenzenesulfonamide; Tamsulosin; Tamsulosina; Tamsulosine; Tamsulosinum

$$$$
