
 OpenBabel10282417203D

 56 58  0  0  0  0  0  0  0  0999 V2000
    1.0171   -0.0793    0.0751 C   0  0  0  0  0  0  0  0  0  0  0  0
    0.6153    0.3844   -1.3197 C   0  0  0  0  0  0  0  0  0  0  0  0
    1.1088   -0.4818   -2.3722 O   0  0  0  0  0  0  0  0  0  0  0  0
    2.4664   -0.5520   -2.5142 C   0  0  0  0  0  0  0  0  0  0  0  0
    3.2407    0.0762   -1.8168 O   0  0  0  0  0  0  0  0  0  0  0  0
    2.9626   -1.5170   -3.6511 C   0  0  3  0  0  0  0  0  0  0  0  0
    1.9268   -2.2028   -4.5688 C   0  0  0  0  0  0  0  0  0  0  0  0
    1.1847   -3.2513   -3.8122 C   0  0  0  0  0  0  0  0  0  0  0  0
    1.9919   -4.2046   -3.0639 N   0  0  0  0  0  0  0  0  0  0  0  0
    2.9370   -3.5605   -2.1616 C   0  0  0  0  0  0  0  0  0  0  0  0
    3.8066   -2.6073   -2.9422 C   0  0  0  0  0  0  0  0  0  0  0  0
    1.1461   -5.1088   -2.2878 C   0  0  0  0  0  0  0  0  0  0  0  0
    0.2842   -4.4611   -1.1511 C   0  0  0  0  0  0  0  0  0  0  0  0
   -0.8258   -3.4655   -1.5710 C   0  0  3  0  0  0  0  0  0  0  0  0
   -1.7917   -4.0737   -2.5705 C   0  0  0  0  0  0  0  0  0  0  0  0
   -1.8240   -5.4645   -2.7899 C   0  0  0  0  0  0  0  0  0  0  0  0
   -2.6329   -6.0532   -3.7439 C   0  0  0  0  0  0  0  0  0  0  0  0
   -3.5549   -5.2668   -4.4040 C   0  0  0  0  0  0  0  0  0  0  0  0
   -3.5875   -3.8887   -4.1738 C   0  0  0  0  0  0  0  0  0  0  0  0
   -2.6550   -3.2788   -3.3273 C   0  0  0  0  0  0  0  0  0  0  0  0
   -1.4808   -2.9426   -0.4182 O   0  0  0  0  0  0  0  0  0  0  0  0
    3.7604   -0.6598   -4.6160 C   0  0  0  0  0  0  0  0  0  0  0  0
    3.0801    0.3829   -5.2724 C   0  0  0  0  0  0  0  0  0  0  0  0
    3.7392    1.1830   -6.1836 C   0  0  0  0  0  0  0  0  0  0  0  0
    5.0935    0.9732   -6.4169 C   0  0  0  0  0  0  0  0  0  0  0  0
    5.7837   -0.0384   -5.7507 C   0  0  0  0  0  0  0  0  0  0  0  0
    5.1106   -0.8848   -4.8858 C   0  0  0  0  0  0  0  0  0  0  0  0
    0.6660   -1.0981    0.2596 H   0  0  0  0  0  0  0  0  0  0  0  0
    0.6071    0.5844    0.8428 H   0  0  0  0  0  0  0  0  0  0  0  0
    2.1014   -0.0937    0.2069 H   0  0  0  0  0  0  0  0  0  0  0  0
   -0.4807    0.3752   -1.3833 H   0  0  0  0  0  0  0  0  0  0  0  0
    0.9334    1.4168   -1.5073 H   0  0  0  0  0  0  0  0  0  0  0  0
    1.1774   -1.4833   -4.9316 H   0  0  0  0  0  0  0  0  0  0  0  0
    2.3866   -2.6597   -5.4535 H   0  0  0  0  0  0  0  0  0  0  0  0
    0.6940   -2.6133   -3.1236 H   0  0  0  0  0  0  0  0  0  0  0  0
    0.4141   -3.7191   -4.4345 H   0  0  0  0  0  0  0  0  0  0  0  0
    3.5619   -4.3276   -1.6888 H   0  0  0  0  0  0  0  0  0  0  0  0
    2.4372   -3.0089   -1.3599 H   0  0  0  0  0  0  0  0  0  0  0  0
    4.3691   -3.2066   -3.6678 H   0  0  0  0  0  0  0  0  0  0  0  0
    4.5283   -2.1641   -2.2467 H   0  0  0  0  0  0  0  0  0  0  0  0
    0.5742   -5.6685   -3.0317 H   0  0  0  0  0  0  0  0  0  0  0  0
    1.7731   -5.8901   -1.8362 H   0  0  0  0  0  0  0  0  0  0  0  0
   -0.1907   -5.2681   -0.5784 H   0  0  0  0  0  0  0  0  0  0  0  0
    0.9316   -3.9912   -0.4034 H   0  0  0  0  0  0  0  0  0  0  0  0
   -0.4338   -2.5367   -1.9551 H   0  0  0  0  0  0  0  0  0  0  0  0
   -1.1840   -6.1483   -2.2435 H   0  0  0  0  0  0  0  0  0  0  0  0
   -2.5524   -7.1222   -3.9173 H   0  0  0  0  0  0  0  0  0  0  0  0
   -4.2574   -5.7365   -5.0835 H   0  0  0  0  0  0  0  0  0  0  0  0
   -4.3598   -3.2903   -4.6472 H   0  0  0  0  0  0  0  0  0  0  0  0
   -2.6267   -2.1928   -3.2516 H   0  0  0  0  0  0  0  0  0  0  0  0
   -2.1029   -3.6111   -0.1088 H   0  0  0  0  0  0  0  0  0  0  0  0
    2.0219    0.5613   -5.0829 H   0  0  0  0  0  0  0  0  0  0  0  0
    3.1931    1.9697   -6.6918 H   0  0  0  0  0  0  0  0  0  0  0  0
    5.6176    1.6027   -7.1252 H   0  0  0  0  0  0  0  0  0  0  0  0
    6.8500   -0.1718   -5.8975 H   0  0  0  0  0  0  0  0  0  0  0  0
    5.6588   -1.7077   -4.4361 H   0  0  0  0  0  0  0  0  0  0  0  0
  1  2  1  0  0  0  0
  1 28  1  0  0  0  0
  1 29  1  0  0  0  0
  1 30  1  0  0  0  0
  2  3  1  0  0  0  0
  2 31  1  0  0  0  0
  2 32  1  0  0  0  0
  3  4  1  0  0  0  0
  4  5  2  0  0  0  0
  4  6  1  0  0  0  0
  6  7  1  0  0  0  0
  6 11  1  0  0  0  0
  6 22  1  0  0  0  0
  7  8  1  0  0  0  0
  7 33  1  0  0  0  0
  7 34  1  0  0  0  0
  8  9  1  0  0  0  0
  8 35  1  0  0  0  0
  8 36  1  0  0  0  0
  9 10  1  0  0  0  0
  9 12  1  0  0  0  0
 10 11  1  0  0  0  0
 10 37  1  0  0  0  0
 10 38  1  0  0  0  0
 11 39  1  0  0  0  0
 11 40  1  0  0  0  0
 12 13  1  0  0  0  0
 12 41  1  0  0  0  0
 12 42  1  0  0  0  0
 13 14  1  0  0  0  0
 13 43  1  0  0  0  0
 13 44  1  0  0  0  0
 14 15  1  0  0  0  0
 14 21  1  0  0  0  0
 14 45  1  0  0  0  0
 15 16  2  0  0  0  0
 15 20  1  0  0  0  0
 16 17  1  0  0  0  0
 16 46  1  0  0  0  0
 17 18  2  0  0  0  0
 17 47  1  0  0  0  0
 18 19  1  0  0  0  0
 18 48  1  0  0  0  0
 19 20  2  0  0  0  0
 19 49  1  0  0  0  0
 20 50  1  0  0  0  0
 21 51  1  0  0  0  0
 22 23  2  0  0  0  0
 22 27  1  0  0  0  0
 23 24  1  0  0  0  0
 23 52  1  0  0  0  0
 24 25  2  0  0  0  0
 24 53  1  0  0  0  0
 25 26  1  0  0  0  0
 25 54  1  0  0  0  0
 26 27  2  0  0  0  0
 26 55  1  0  0  0  0
 27 56  1  0  0  0  0
M  END
>  <DRUGBANK_ID>
DB13605

>  <COMMON_NAME>
Phenoperidine

>  <CAS_NUMBER>
562-26-5

>  <UNII>
G9BH09J4JW

>  <SYNONYMS>
Phenoperidine

$$$$
