ZZ6
 OpenBabel10282417173D

 35 37  0  0  0  0  0  0  0  0999 V2000
   -2.6554    0.9297    0.0117 Cl  0  0  0  0  0  0  0  0  0  0  0  0
   -1.2058   -0.0168   -0.0628 C   0  0  0  0  0  0  0  0  0  0  0  0
    0.0090    0.6687   -0.0243 C   0  0  0  0  0  0  0  0  0  0  0  0
    1.2059   -0.0424   -0.0090 C   0  0  0  0  0  0  0  0  0  0  0  0
    2.7010    0.8049    0.0188 Cl  0  0  0  0  0  0  0  0  0  0  0  0
    1.2054   -1.4333   -0.0145 C   0  0  0  0  0  0  0  0  0  0  0  0
   -0.0077   -2.1178   -0.0620 C   0  0  0  0  0  0  0  0  0  0  0  0
   -1.2341   -1.4207   -0.0982 C   0  0  0  0  0  0  0  0  0  0  0  0
   -2.4828   -2.1636   -0.0942 C   0  0  0  0  0  0  0  0  0  0  0  0
   -3.3646   -2.0048   -1.1248 N   0  0  0  0  0  0  0  0  0  0  0  0
   -4.5329   -2.6569   -1.0939 C   0  0  0  0  0  0  0  0  0  0  0  0
   -5.4267   -2.5094   -2.1136 N   0  0  0  0  0  0  0  0  0  0  0  0
   -4.9118   -3.4780   -0.1388 N   0  0  0  0  0  0  0  0  0  0  0  0
   -4.0140   -3.6138    0.8327 C   0  0  0  0  0  0  0  0  0  0  0  0
   -4.3388   -4.6478    2.0712 S   0  0  0  0  0  0  0  0  0  0  0  0
   -2.7892   -3.0142    0.9663 C   0  0  0  0  0  0  0  0  0  0  0  0
   -2.1434   -3.4298    2.2016 C   0  0  0  0  0  0  0  0  0  0  0  0
   -2.9057   -4.3460    2.9221 C   0  0  0  0  0  0  0  0  0  0  0  0
   -2.5848   -4.9956    4.1973 C   0  0  0  0  0  0  0  0  0  0  0  0
   -1.5272   -4.7821    4.7799 O   0  0  0  0  0  0  0  0  0  0  0  0
   -3.4520   -5.8862    4.8182 N   0  0  0  0  0  0  0  0  0  0  0  0
   -4.7807   -6.3896    4.4884 C   0  0  0  0  0  0  0  0  0  0  0  0
   -4.7771   -7.8468    4.0896 C   0  0  0  0  0  0  0  0  0  0  0  0
    0.0162    1.7542    0.0026 H   0  0  0  0  0  0  0  0  0  0  0  0
    2.1386   -1.9902    0.0168 H   0  0  0  0  0  0  0  0  0  0  0  0
    0.0072   -3.2083   -0.0561 H   0  0  0  0  0  0  0  0  0  0  0  0
   -6.3066   -2.9933   -2.0229 H   0  0  0  0  0  0  0  0  0  0  0  0
   -5.2318   -1.8534   -2.8450 H   0  0  0  0  0  0  0  0  0  0  0  0
   -1.1695   -3.0811    2.5364 H   0  0  0  0  0  0  0  0  0  0  0  0
   -3.0620   -6.2235    5.6907 H   0  0  0  0  0  0  0  0  0  0  0  0
   -5.4519   -6.1637    5.3186 H   0  0  0  0  0  0  0  0  0  0  0  0
   -5.2569   -5.8868    3.6718 H   0  0  0  0  0  0  0  0  0  0  0  0
   -4.6503   -8.4836    4.9655 H   0  0  0  0  0  0  0  0  0  0  0  0
   -5.7327   -8.0912    3.6107 H   0  0  0  0  0  0  0  0  0  0  0  0
   -3.9831   -8.0656    3.3668 H   0  0  0  0  0  0  0  0  0  0  0  0
  1  2  1  0  0  0  0
  2  3  1  0  0  0  0
  2  8  2  0  0  0  0
  3  4  2  0  0  0  0
  3 24  1  0  0  0  0
  4  5  1  0  0  0  0
  4  6  1  0  0  0  0
  6  7  2  0  0  0  0
  6 25  1  0  0  0  0
  7  8  1  0  0  0  0
  7 26  1  0  0  0  0
  8  9  1  0  0  0  0
  9 10  1  0  0  0  0
  9 16  2  0  0  0  0
 10 11  2  0  0  0  0
 11 12  1  0  0  0  0
 11 13  1  0  0  0  0
 12 27  1  0  0  0  0
 12 28  1  0  0  0  0
 13 14  2  0  0  0  0
 14 15  1  0  0  0  0
 14 16  1  0  0  0  0
 15 18  1  0  0  0  0
 16 17  1  0  0  0  0
 17 18  2  0  0  0  0
 17 29  1  0  0  0  0
 18 19  1  0  0  0  0
 19 20  2  0  0  0  0
 19 21  1  0  0  0  0
 21 22  1  0  0  0  0
 21 30  1  0  0  0  0
 22 23  1  0  0  0  0
 22 31  1  0  0  0  0
 22 32  1  0  0  0  0
 23 33  1  0  0  0  0
 23 34  1  0  0  0  0
 23 35  1  0  0  0  0
M  END
>  <DRUGBANK_ID>
DB08789

>  <COMMON_NAME>
2-AMINO-4-(2,4-DICHLOROPHENYL)-N-ETHYLTHIENO[2,3-D]PYRIMIDINE-6-CARBOXAMIDE

$$$$
