
 OpenBabel10282417183D

 51 52  0  0  0  0  0  0  0  0999 V2000
   -2.4379   -6.4822    0.7597 C   0  0  0  0  0  0  0  0  0  0  0  0
   -2.1375   -5.0235    0.9017 C   0  0  0  0  0  0  0  0  0  0  0  0
   -1.4846   -5.8236   -0.2175 C   0  0  0  0  0  0  0  0  0  0  0  0
    1.8004   -1.9528    2.2830 N   0  0  0  0  0  0  0  0  0  0  0  0
   -0.6599   -4.1257    4.4988 O   0  0  0  0  0  0  0  0  0  0  0  0
    1.6751   -3.0181    4.6057 C   0  0  1  0  0  0  0  0  0  0  0  0
   -0.2765   -5.2438    3.8229 C   0  0  0  0  0  0  0  0  0  0  0  0
    2.5466   -2.5892    3.3775 C   0  0  0  0  0  0  0  0  0  0  0  0
    0.1285   -2.9370    4.3612 C   0  0  0  0  0  0  0  0  0  0  0  0
    0.5168   -7.6038    2.5155 C   0  0  0  0  0  0  0  0  0  0  0  0
   -0.9398   -6.4191    4.0794 C   0  0  0  0  0  0  0  0  0  0  0  0
    0.7631   -5.2794    2.8934 C   0  0  0  0  0  0  0  0  0  0  0  0
   -0.5696   -7.6053    3.4170 C   0  0  0  0  0  0  0  0  0  0  0  0
    1.3071   -6.4805    2.4525 C   0  0  0  0  0  0  0  0  0  0  0  0
    2.1474   -4.2548    5.1657 O   0  0  0  0  0  0  0  0  0  0  0  0
   -0.0137   -6.0527   -0.2799 C   0  0  0  0  0  0  0  0  0  0  0  0
    0.3921   -7.3340   -0.7531 O   0  0  0  0  0  0  0  0  0  0  0  0
    2.5777   -1.5743    1.1077 C   0  0  0  0  0  0  0  0  0  0  0  0
    0.6933   -8.6684    1.4455 C   0  0  0  0  0  0  0  0  0  0  0  0
    0.0066   -8.4513    0.0560 C   0  0  0  0  0  0  0  0  0  0  0  0
    3.2820   -2.7708    0.4683 C   0  0  0  0  0  0  0  0  0  0  0  0
    1.5727   -0.9853    0.1075 C   0  0  0  0  0  0  0  0  0  0  0  0
   -2.1068   -7.1276    1.5576 H   0  0  0  0  0  0  0  0  0  0  0  0
   -3.3972   -6.7949    0.3710 H   0  0  0  0  0  0  0  0  0  0  0  0
   -2.9206   -4.3176    0.6609 H   0  0  0  0  0  0  0  0  0  0  0  0
   -1.6217   -4.7312    1.8040 H   0  0  0  0  0  0  0  0  0  0  0  0
   -1.8537   -5.6434   -1.2153 H   0  0  0  0  0  0  0  0  0  0  0  0
    1.0479   -2.5505    1.9467 H   0  0  0  0  0  0  0  0  0  0  0  0
    1.8979   -2.3023    5.4006 H   0  0  0  0  0  0  0  0  0  0  0  0
    3.3071   -1.8882    3.7383 H   0  0  0  0  0  0  0  0  0  0  0  0
    3.0956   -3.4692    3.0230 H   0  0  0  0  0  0  0  0  0  0  0  0
   -0.1648   -2.4603    3.4209 H   0  0  0  0  0  0  0  0  0  0  0  0
   -0.2565   -2.2188    5.0967 H   0  0  0  0  0  0  0  0  0  0  0  0
   -1.8258   -6.4024    4.7190 H   0  0  0  0  0  0  0  0  0  0  0  0
    1.1457   -4.3939    2.4419 H   0  0  0  0  0  0  0  0  0  0  0  0
   -1.1821   -8.4861    3.5370 H   0  0  0  0  0  0  0  0  0  0  0  0
    2.1672   -6.4264    1.7755 H   0  0  0  0  0  0  0  0  0  0  0  0
    2.1242   -4.9615    4.4990 H   0  0  0  0  0  0  0  0  0  0  0  0
    0.4930   -5.2794   -0.8698 H   0  0  0  0  0  0  0  0  0  0  0  0
    0.4132   -5.9082    0.6684 H   0  0  0  0  0  0  0  0  0  0  0  0
    3.3020   -0.8027    1.3863 H   0  0  0  0  0  0  0  0  0  0  0  0
    0.2998   -9.6066    1.8488 H   0  0  0  0  0  0  0  0  0  0  0  0
    1.7683   -8.8158    1.2855 H   0  0  0  0  0  0  0  0  0  0  0  0
   -1.0806   -8.4831    0.1290 H   0  0  0  0  0  0  0  0  0  0  0  0
    0.2636   -9.3274   -0.5545 H   0  0  0  0  0  0  0  0  0  0  0  0
    2.5642   -3.5480    0.1787 H   0  0  0  0  0  0  0  0  0  0  0  0
    3.8267   -2.4601   -0.4275 H   0  0  0  0  0  0  0  0  0  0  0  0
    4.0118   -3.2246    1.1448 H   0  0  0  0  0  0  0  0  0  0  0  0
    1.0097   -0.1541    0.5483 H   0  0  0  0  0  0  0  0  0  0  0  0
    2.0850   -0.6117   -0.7836 H   0  0  0  0  0  0  0  0  0  0  0  0
    0.8415   -1.7375   -0.2194 H   0  0  0  0  0  0  0  0  0  0  0  0
  1 23  1  0  0  0  0
  1 24  1  0  0  0  0
  2  1  1  0  0  0  0
  2 25  1  0  0  0  0
  2 26  1  0  0  0  0
  3  1  1  0  0  0  0
  3  2  1  0  0  0  0
  3 27  1  0  0  0  0
  4  8  1  0  0  0  0
  4 28  1  0  0  0  0
  5  7  1  0  0  0  0
  6 15  1  0  0  0  0
  6 29  1  1  0  0  0
  6  8  1  0  0  0  0
  6  9  1  0  0  0  0
  7 12  1  0  0  0  0
  8 30  1  0  0  0  0
  8 31  1  0  0  0  0
  9  5  1  0  0  0  0
  9 32  1  0  0  0  0
  9 33  1  0  0  0  0
 10 19  1  0  0  0  0
 11 13  1  0  0  0  0
 11  7  2  0  0  0  0
 11 34  1  0  0  0  0
 12 14  2  0  0  0  0
 12 35  1  0  0  0  0
 13 10  2  0  0  0  0
 13 36  1  0  0  0  0
 14 10  1  0  0  0  0
 14 37  1  0  0  0  0
 15 38  1  0  0  0  0
 16  3  1  0  0  0  0
 16 39  1  0  0  0  0
 16 40  1  0  0  0  0
 17 16  1  0  0  0  0
 18  4  1  0  0  0  0
 18 41  1  0  0  0  0
 19 20  1  0  0  0  0
 19 42  1  0  0  0  0
 19 43  1  0  0  0  0
 20 17  1  0  0  0  0
 20 44  1  0  0  0  0
 20 45  1  0  0  0  0
 21 18  1  0  0  0  0
 21 46  1  0  0  0  0
 21 47  1  0  0  0  0
 21 48  1  0  0  0  0
 22 18  1  0  0  0  0
 22 49  1  0  0  0  0
 22 50  1  0  0  0  0
 22 51  1  0  0  0  0
M  END
>  <DRUGBANK_ID>
DB09351

>  <COMMON_NAME>
Levobetaxolol

>  <CAS_NUMBER>
93221-48-8

>  <UNII>
75O9XHA4TU

>  <SYNONYMS>
(S)-betaxolol; Levobetaxolol

$$$$
