
 OpenBabel10282417143D

  7  6  0  0  0  0  0  0  0  0999 V2000
    0.9376   -0.1062    0.0595 N   0  0  0  0  0  0  0  0  0  0  0  0
    0.3556   -0.9278    0.9588 C   0  0  0  0  0  0  0  0  0  0  0  0
   -0.9815   -0.8910    0.9185 O   0  0  0  0  0  0  0  0  0  0  0  0
    0.9928   -1.6288    1.7261 O   0  0  0  0  0  0  0  0  0  0  0  0
    0.4702    0.4943   -0.5979 H   0  0  0  0  0  0  0  0  0  0  0  0
    1.9507   -0.1080    0.0614 H   0  0  0  0  0  0  0  0  0  0  0  0
   -1.3346   -0.2818    0.2516 H   0  0  0  0  0  0  0  0  0  0  0  0
  1  2  1  0  0  0  0
  1  5  1  0  0  0  0
  1  6  1  0  0  0  0
  2  3  1  0  0  0  0
  2  4  2  0  0  0  0
  3  7  1  0  0  0  0
M  END
>  <DRUGBANK_ID>
DB04261

>  <SECONDARY_ACCESSION_NUMBERS>
EXPT02453

>  <COMMON_NAME>
Carbamic Acid

>  <CAS_NUMBER>
463-77-4

>  <UNII>
O0UC6XOS4H

$$$$
