
 OpenBabel10282417183D

 47 50  0  0  0  0  0  0  0  0999 V2000
   -0.9919    1.1102    0.0276 S   0  0  0  0  0  0  0  0  0  0  0  0
   -0.4077    7.3978   -1.0887 O   0  0  0  0  0  0  0  0  0  0  0  0
   -2.1555    3.5678    5.6514 O   0  0  0  0  0  0  0  0  0  0  0  0
    2.5436   -0.4237    0.0019 O   0  0  0  0  0  0  0  0  0  0  0  0
   -1.9013   -1.3506    0.0165 O   0  0  0  0  0  0  0  0  0  0  0  0
   -1.1283    6.1082    1.6512 N   0  0  0  0  0  0  0  0  0  0  0  0
   -1.5546    8.0925    2.4335 N   0  0  0  0  0  0  0  0  0  0  0  0
    0.3627   -1.0557   -0.0426 N   0  0  0  0  0  0  0  0  0  0  0  0
   -1.4458    5.8986    2.9495 C   0  0  0  0  0  0  0  0  0  0  0  0
   -1.8360    7.1289    3.4006 C   0  0  0  0  0  0  0  0  0  0  0  0
   -1.0355    7.4468    1.3791 C   0  0  0  0  0  0  0  0  0  0  0  0
   -1.4596    4.6929    3.6468 C   0  0  0  0  0  0  0  0  0  0  0  0
   -2.3966    7.1518    4.6819 C   0  0  0  0  0  0  0  0  0  0  0  0
   -2.0173    4.7035    4.8987 C   0  0  0  0  0  0  0  0  0  0  0  0
   -0.3437    8.1094    0.1769 C   0  0  0  0  0  0  0  0  0  0  0  0
    0.8219    1.2963    0.0054 C   0  0  3  0  0  0  0  0  0  0  0  0
   -2.4878    5.9235    5.4056 C   0  0  0  0  0  0  0  0  0  0  0  0
    1.3549   -0.1267   -0.0131 C   0  0  0  0  0  0  0  0  0  0  0  0
    1.0351    3.5389   -1.3233 C   0  0  0  0  0  0  0  0  0  0  0  0
   -0.8573    4.9324    0.9075 C   0  0  0  0  0  0  0  0  0  0  0  0
    1.3408    2.0593   -1.2226 C   0  0  0  0  0  0  0  0  0  0  0  0
    0.4224    6.3160   -1.3522 C   0  0  0  0  0  0  0  0  0  0  0  0
   -0.9295   -0.6370   -0.0040 C   0  0  0  0  0  0  0  0  0  0  0  0
    1.6337    4.4268   -0.4157 C   0  0  0  0  0  0  0  0  0  0  0  0
    0.1871    4.0697   -2.3060 C   0  0  0  0  0  0  0  0  0  0  0  0
    1.3631    5.8158   -0.4420 C   0  0  0  0  0  0  0  0  0  0  0  0
   -0.0751    5.4563   -2.3553 C   0  0  0  0  0  0  0  0  0  0  0  0
   -1.6789    2.3480    5.0607 C   0  0  0  0  0  0  0  0  0  0  0  0
    0.5696   -2.0417   -0.0539 H   0  0  0  0  0  0  0  0  0  0  0  0
   -1.0884    3.7918    3.1749 H   0  0  0  0  0  0  0  0  0  0  0  0
   -2.7673    8.0807    5.0948 H   0  0  0  0  0  0  0  0  0  0  0  0
    0.6935    8.3781    0.4005 H   0  0  0  0  0  0  0  0  0  0  0  0
   -0.8633    9.0634    0.0027 H   0  0  0  0  0  0  0  0  0  0  0  0
    1.1337    1.7555    0.9499 H   0  0  0  0  0  0  0  0  0  0  0  0
   -2.9427    5.9311    6.3903 H   0  0  0  0  0  0  0  0  0  0  0  0
    0.0799    4.5500    1.3283 H   0  0  0  0  0  0  0  0  0  0  0  0
   -1.6103    4.1556    0.9848 H   0  0  0  0  0  0  0  0  0  0  0  0
   -0.9294    5.2059   -0.1093 H   0  0  0  0  0  0  0  0  0  0  0  0
    2.4374    2.0028   -1.2120 H   0  0  0  0  0  0  0  0  0  0  0  0
    1.0423    1.5469   -2.1459 H   0  0  0  0  0  0  0  0  0  0  0  0
    2.1102    4.0092    0.4756 H   0  0  0  0  0  0  0  0  0  0  0  0
   -0.3499    3.4070   -2.9855 H   0  0  0  0  0  0  0  0  0  0  0  0
    1.6256    6.3763    0.4542 H   0  0  0  0  0  0  0  0  0  0  0  0
   -0.8139    5.8268   -3.0651 H   0  0  0  0  0  0  0  0  0  0  0  0
   -2.2170    2.1020    4.1346 H   0  0  0  0  0  0  0  0  0  0  0  0
   -0.5977    2.3874    4.8715 H   0  0  0  0  0  0  0  0  0  0  0  0
   -1.8569    1.5330    5.7662 H   0  0  0  0  0  0  0  0  0  0  0  0
  1 16  1  0  0  0  0
  1 23  1  0  0  0  0
  2 15  1  0  0  0  0
  2 22  1  0  0  0  0
  3 14  1  0  0  0  0
  3 28  1  0  0  0  0
  4 18  2  0  0  0  0
  5 23  2  0  0  0  0
  6  9  1  0  0  0  0
  6 11  1  0  0  0  0
  6 20  1  0  0  0  0
  7 10  1  0  0  0  0
  7 11  2  0  0  0  0
  8 18  1  0  0  0  0
  8 23  1  0  0  0  0
  8 29  1  0  0  0  0
  9 10  1  0  0  0  0
  9 12  2  0  0  0  0
 10 13  2  0  0  0  0
 11 15  1  0  0  0  0
 12 14  1  0  0  0  0
 12 30  1  0  0  0  0
 13 17  1  0  0  0  0
 13 31  1  0  0  0  0
 14 17  2  0  0  0  0
 15 32  1  0  0  0  0
 15 33  1  0  0  0  0
 16 18  1  0  0  0  0
 16 21  1  0  0  0  0
 16 34  1  0  0  0  0
 17 35  1  0  0  0  0
 19 21  1  0  0  0  0
 19 24  2  0  0  0  0
 19 25  1  0  0  0  0
 20 36  1  0  0  0  0
 20 37  1  0  0  0  0
 20 38  1  0  0  0  0
 21 39  1  0  0  0  0
 21 40  1  0  0  0  0
 22 26  2  0  0  0  0
 22 27  1  0  0  0  0
 24 26  1  0  0  0  0
 24 41  1  0  0  0  0
 25 27  2  0  0  0  0
 25 42  1  0  0  0  0
 26 43  1  0  0  0  0
 27 44  1  0  0  0  0
 28 45  1  0  0  0  0
 28 46  1  0  0  0  0
 28 47  1  0  0  0  0
M  END
>  <DRUGBANK_ID>
DB09200

>  <COMMON_NAME>
Rivoglitazone

>  <CAS_NUMBER>
185428-18-6

>  <UNII>
3A3N0634Q6

>  <SYNONYMS>
Rivoglitazone

$$$$
