
 OpenBabel10282417233D

 65 68  0  0  0  0  0  0  0  0999 V2000
    2.7388    0.9468   -0.1356 N   0  0  0  0  0  0  0  0  0  0  0  0
    2.8950   -0.7982   -0.0135 C   0  0  0  0  0  0  0  0  0  0  0  0
    1.2560   -1.3406   -0.5930 N   0  0  0  0  0  0  0  0  0  0  0  0
    1.4160    1.6669   -0.8623 C   0  0  0  0  0  0  0  0  0  0  0  0
   -0.0027    0.6443   -0.5090 C   0  0  0  0  0  0  0  0  0  0  0  0
   -0.1685   -0.2487    0.2045 C   0  0  0  0  0  0  0  0  0  0  0  0
   -1.7697   -0.8614    1.0210 N   0  0  0  0  0  0  0  0  0  0  0  0
   -2.7383   -0.0537    0.9375 C   0  0  0  0  0  0  0  0  0  0  0  0
   -1.5966    0.8778    0.6959 N   0  0  0  0  0  0  0  0  0  0  0  0
    3.8750    1.7070    0.0013 C   0  0  0  0  0  0  0  0  0  0  0  0
    1.2972   -3.1012   -0.4689 C   0  0  0  0  0  0  0  0  0  0  0  0
   -4.4300   -0.1740    0.2597 Cl  0  0  0  0  0  0  0  0  0  0  0  0
    3.8893   -1.5157    0.0600 O   0  0  0  0  0  0  0  0  0  0  0  0
    1.2728    2.8992   -1.0393 O   0  0  0  0  0  0  0  0  0  0  0  0
   -0.9458    2.0893   -0.5269 C   0  0  0  0  0  0  0  0  0  0  0  0
    0.3587    1.8049    0.9850 C   0  0  0  0  0  0  0  0  0  0  0  0
    1.1400    0.0887    1.4365 C   0  0  0  0  0  0  0  0  0  0  0  0
    0.3270   -1.6620    1.0883 C   0  0  0  0  0  0  0  0  0  0  0  0
   -0.9798   -1.5645   -0.5235 C   0  0  0  0  0  0  0  0  0  0  0  0
   -1.6347    0.2462   -1.2021 C   0  0  0  0  0  0  0  0  0  0  0  0
   -1.6993   -2.8690   -0.1418 C   0  0  0  0  0  0  0  0  0  0  0  0
   -1.2702   -3.5089   -1.3188 O   0  0  0  0  0  0  0  0  0  0  0  0
   -1.3031   -3.5540    1.2518 C   0  0  0  0  0  0  0  0  0  0  0  0
   -1.4306   -2.8948    2.5273 C   0  0  0  0  0  0  0  0  0  0  0  0
   -0.8292   -3.4083    3.6665 C   0  0  0  0  0  0  0  0  0  0  0  0
   -0.0673   -4.5626    3.5585 C   0  0  0  0  0  0  0  0  0  0  0  0
    0.1191   -5.1905    2.3364 C   0  0  0  0  0  0  0  0  0  0  0  0
   -0.5586   -4.7366    1.2164 C   0  0  0  0  0  0  0  0  0  0  0  0
   -1.5121   -2.6354   -2.4728 C   0  0  0  0  0  0  0  0  0  0  0  0
   -3.0004   -2.6018   -2.5338 C   0  0  0  0  0  0  0  0  0  0  0  0
   -3.4057   -4.0483   -2.6596 C   0  0  0  0  0  0  0  0  0  0  0  0
   -2.7605   -4.6285   -3.8476 N   0  0  0  0  0  0  0  0  0  0  0  0
   -1.2877   -4.6029   -3.7455 C   0  0  0  0  0  0  0  0  0  0  0  0
   -0.7904   -3.1976   -3.6303 C   0  0  0  0  0  0  0  0  0  0  0  0
   -3.1837   -6.0128   -3.9556 C   0  0  0  0  0  0  0  0  0  0  0  0
   -2.2678    1.6321    0.4116 H   0  0  0  0  0  0  0  0  0  0  0  0
    3.6882    2.2250   -0.9278 H   0  0  0  0  0  0  0  0  0  0  0  0
    3.7299    2.2533    0.9402 H   0  0  0  0  0  0  0  0  0  0  0  0
    4.5425    0.8656    0.0067 H   0  0  0  0  0  0  0  0  0  0  0  0
    0.9236   -3.5084    0.5135 H   0  0  0  0  0  0  0  0  0  0  0  0
    0.6918   -3.4689   -1.2629 H   0  0  0  0  0  0  0  0  0  0  0  0
    2.2708   -3.5586   -0.2692 H   0  0  0  0  0  0  0  0  0  0  0  0
   -1.3209    3.0485   -0.1888 H   0  0  0  0  0  0  0  0  0  0  0  0
    1.3327    2.5554    1.0163 H   0  0  0  0  0  0  0  0  0  0  0  0
    1.4871    0.0939    0.0314 H   0  0  0  0  0  0  0  0  0  0  0  0
    1.3919   -2.1416    1.1577 H   0  0  0  0  0  0  0  0  0  0  0  0
   -2.7499    0.4455   -1.2203 H   0  0  0  0  0  0  0  0  0  0  0  0
   -2.7597   -2.7645   -0.0261 H   0  0  0  0  0  0  0  0  0  0  0  0
   -1.8945   -1.9136    2.6457 H   0  0  0  0  0  0  0  0  0  0  0  0
   -0.9814   -2.9337    4.6298 H   0  0  0  0  0  0  0  0  0  0  0  0
    0.3630   -5.0200    4.4353 H   0  0  0  0  0  0  0  0  0  0  0  0
    0.7998   -6.0258    2.2273 H   0  0  0  0  0  0  0  0  0  0  0  0
   -0.2307   -5.1082    0.2481 H   0  0  0  0  0  0  0  0  0  0  0  0
   -1.1090   -1.6084   -2.5037 H   0  0  0  0  0  0  0  0  0  0  0  0
   -3.3094   -1.9593   -3.3428 H   0  0  0  0  0  0  0  0  0  0  0  0
   -3.4386   -2.1817   -1.6213 H   0  0  0  0  0  0  0  0  0  0  0  0
   -4.4869   -4.0660   -2.7385 H   0  0  0  0  0  0  0  0  0  0  0  0
   -3.1349   -4.6240   -1.7549 H   0  0  0  0  0  0  0  0  0  0  0  0
   -0.9507   -5.1794   -2.8709 H   0  0  0  0  0  0  0  0  0  0  0  0
   -0.8302   -5.0232   -4.6343 H   0  0  0  0  0  0  0  0  0  0  0  0
   -1.0223   -2.5633   -4.4870 H   0  0  0  0  0  0  0  0  0  0  0  0
    0.2949   -3.1551   -3.4517 H   0  0  0  0  0  0  0  0  0  0  0  0
   -2.7572   -6.4534   -4.8581 H   0  0  0  0  0  0  0  0  0  0  0  0
   -2.8687   -6.6032   -3.0876 H   0  0  0  0  0  0  0  0  0  0  0  0
   -4.2719   -6.0592   -4.0364 H   0  0  0  0  0  0  0  0  0  0  0  0
  1  2  1  0  0  0  0
  1  4  1  0  0  0  0
  1 10  1  0  0  0  0
  2 13  2  0  0  0  0
  2  3  1  0  0  0  0
  3 11  1  0  0  0  0
  3  6  1  0  0  0  0
  4 14  2  0  0  0  0
  5  4  1  0  0  0  0
  5  6  2  0  0  0  0
  6  7  1  0  0  0  0
  7  8  2  0  0  0  0
  8 12  1  0  0  0  0
  8  9  1  0  0  0  0
  9  5  1  0  0  0  0
  9 36  1  0  0  0  0
 10 37  1  0  0  0  0
 10 38  1  0  0  0  0
 10 39  1  0  0  0  0
 11 40  1  0  0  0  0
 11 41  1  0  0  0  0
 11 42  1  0  0  0  0
 15 16  2  0  0  0  0
 15 43  1  0  0  0  0
 16 17  1  0  0  0  0
 16 44  1  0  0  0  0
 17 18  2  0  0  0  0
 17 45  1  0  0  0  0
 18 19  1  0  0  0  0
 18 46  1  0  0  0  0
 19 20  2  0  0  0  0
 19 21  1  0  0  0  0
 20 15  1  0  0  0  0
 20 47  1  0  0  0  0
 21 22  1  0  0  0  0
 21 23  1  0  0  0  0
 21 48  1  0  0  0  0
 22 29  1  0  0  0  0
 23 24  2  0  0  0  0
 24 25  1  0  0  0  0
 24 49  1  0  0  0  0
 25 26  2  0  0  0  0
 25 50  1  0  0  0  0
 26 27  1  0  0  0  0
 26 51  1  0  0  0  0
 27 28  2  0  0  0  0
 27 52  1  0  0  0  0
 28 23  1  0  0  0  0
 28 53  1  0  0  0  0
 29 30  1  0  0  0  0
 29 34  1  0  0  0  0
 29 54  1  0  0  0  0
 30 31  1  0  0  0  0
 30 55  1  0  0  0  0
 30 56  1  0  0  0  0
 31 32  1  0  0  0  0
 31 57  1  0  0  0  0
 31 58  1  0  0  0  0
 32 33  1  0  0  0  0
 32 35  1  0  0  0  0
 33 34  1  0  0  0  0
 33 59  1  0  0  0  0
 33 60  1  0  0  0  0
 34 61  1  0  0  0  0
 34 62  1  0  0  0  0
 35 63  1  0  0  0  0
 35 64  1  0  0  0  0
 35 65  1  0  0  0  0
M  END
>  <DRUGBANK_ID>
DB15987

>  <COMMON_NAME>
Piprinhydrinate

>  <CAS_NUMBER>
606-90-6

>  <UNII>
SI78RFJ7XI

>  <SYNONYMS>
Diphenylpyraline 8-chlorotheophyllinate; Diphenylpyraline teoclate; Piprinhidrinato; Piprinhydrinate; Piprinhydrinatum

$$$$
