
 OpenBabel10282417203D

 29 31  0  0  0  0  0  0  0  0999 V2000
    2.2523   -0.6008   -0.0003 C   0  0  0  0  0  0  0  0  0  0  0  0
    2.1314    0.7929   -0.0154 C   0  0  0  0  0  0  0  0  0  0  0  0
    0.8764    1.4229   -0.0082 C   0  0  0  0  0  0  0  0  0  0  0  0
   -0.2360    0.5858    0.0099 C   0  0  0  0  0  0  0  0  0  0  0  0
   -0.1383   -0.8008    0.0483 C   0  0  0  0  0  0  0  0  0  0  0  0
    1.1195   -1.4129    0.0341 C   0  0  0  0  0  0  0  0  0  0  0  0
   -1.4568   -1.2792    0.0971 C   0  0  0  0  0  0  0  0  0  0  0  0
   -2.2960   -0.1917   -0.0002 C   0  0  0  0  0  0  0  0  0  0  0  0
   -1.5524    0.9630   -0.0202 O   0  0  0  0  0  0  0  0  0  0  0  0
   -3.7857   -0.0876   -0.1020 C   0  0  3  0  0  0  0  0  0  0  0  0
   -4.3543   -0.7930   -1.3297 C   0  0  0  0  0  0  0  0  0  0  0  0
   -4.0688   -2.1423   -1.6216 C   0  0  0  0  0  0  0  0  0  0  0  0
   -4.5809   -2.7707   -2.7557 C   0  0  0  0  0  0  0  0  0  0  0  0
   -5.4270   -2.0679   -3.6009 C   0  0  0  0  0  0  0  0  0  0  0  0
   -5.7495   -0.7408   -3.3255 C   0  0  0  0  0  0  0  0  0  0  0  0
   -5.2098   -0.1030   -2.2016 C   0  0  0  0  0  0  0  0  0  0  0  0
   -6.0876   -2.8526   -4.9802 Cl  0  0  0  0  0  0  0  0  0  0  0  0
   -4.3300   -0.6956    1.0713 O   0  0  0  0  0  0  0  0  0  0  0  0
    3.2348   -1.0658   -0.0118 H   0  0  0  0  0  0  0  0  0  0  0  0
    3.0348    1.3981   -0.0380 H   0  0  0  0  0  0  0  0  0  0  0  0
    0.7782    2.5018   -0.0207 H   0  0  0  0  0  0  0  0  0  0  0  0
    1.2034   -2.4958    0.0429 H   0  0  0  0  0  0  0  0  0  0  0  0
   -1.7456   -2.3171    0.1500 H   0  0  0  0  0  0  0  0  0  0  0  0
   -4.0957    0.9635   -0.0851 H   0  0  0  0  0  0  0  0  0  0  0  0
   -3.4396   -2.7418   -0.9748 H   0  0  0  0  0  0  0  0  0  0  0  0
   -4.3190   -3.8056   -2.9598 H   0  0  0  0  0  0  0  0  0  0  0  0
   -6.4244   -0.1964   -3.9799 H   0  0  0  0  0  0  0  0  0  0  0  0
   -5.4710    0.9359   -2.0090 H   0  0  0  0  0  0  0  0  0  0  0  0
   -4.0954   -1.6360    1.0411 H   0  0  0  0  0  0  0  0  0  0  0  0
  1  2  2  0  0  0  0
  1  6  1  0  0  0  0
  1 19  1  0  0  0  0
  2  3  1  0  0  0  0
  2 20  1  0  0  0  0
  3  4  2  0  0  0  0
  3 21  1  0  0  0  0
  4  5  1  0  0  0  0
  4  9  1  0  0  0  0
  5  6  2  0  0  0  0
  5  7  1  0  0  0  0
  6 22  1  0  0  0  0
  7  8  2  0  0  0  0
  7 23  1  0  0  0  0
  8  9  1  0  0  0  0
  8 10  1  0  0  0  0
 10 11  1  0  0  0  0
 10 18  1  0  0  0  0
 10 24  1  0  0  0  0
 11 12  2  0  0  0  0
 11 16  1  0  0  0  0
 12 13  1  0  0  0  0
 12 25  1  0  0  0  0
 13 14  2  0  0  0  0
 13 26  1  0  0  0  0
 14 15  1  0  0  0  0
 14 17  1  0  0  0  0
 15 16  2  0  0  0  0
 15 27  1  0  0  0  0
 16 28  1  0  0  0  0
 18 29  1  0  0  0  0
M  END
>  <DRUGBANK_ID>
DB13291

>  <COMMON_NAME>
Cloridarol

>  <CAS_NUMBER>
3611-72-1

>  <UNII>
2L2063955H

>  <SYNONYMS>
Cloridarol

$$$$
