
 OpenBabel10282417193D

 59 62  0  0  1  0  0  0  0  0999 V2000
    1.0212   -0.0154    0.0059 C   0  0  0  0  0  0  0  0  0  0  0  0
    0.4850    1.2117   -0.6723 C   0  0  0  0  0  0  0  0  0  0  0  0
   -0.1540    1.1820   -1.7162 O   0  0  0  0  0  0  0  0  0  0  0  0
    0.7996    2.3454    0.0084 O   0  0  0  0  0  0  0  0  0  0  0  0
    0.3542    3.5878   -0.5760 C   0  0  1  0  0  0  0  0  0  0  0  0
   -1.1688    3.7424   -0.4664 C   0  0  0  0  0  0  0  0  0  0  0  0
   -1.6862    5.1323   -0.8969 C   0  0  2  0  0  0  0  0  0  0  0  0
   -1.0022    6.2839   -0.0645 C   0  0  2  0  0  0  0  0  0  0  0  0
   -1.4497    7.6656   -0.6245 C   0  0  0  0  0  0  0  0  0  0  0  0
   -0.6367    8.8449   -0.1014 C   0  0  0  0  0  0  0  0  0  0  0  0
    0.8393    8.6584   -0.4434 C   0  0  1  0  0  0  0  0  0  0  0  0
    1.6706    9.8835   -0.1273 C   0  0  0  0  0  0  0  0  0  0  0  0
    1.1781   10.9738    0.1361 O   0  0  0  0  0  0  0  0  0  0  0  0
    3.0060    9.7383   -0.2788 O   0  0  0  0  0  0  0  0  0  0  0  0
    3.6954    8.4707   -0.1746 C   0  0  1  0  0  0  0  0  0  0  0  0
    2.8113    7.2428   -0.4074 C   0  0  0  0  0  0  0  0  0  0  0  0
    1.4125    7.3776    0.2007 C   0  0  2  0  0  0  0  0  0  0  0  0
    0.5439    6.1572   -0.2811 C   0  0  1  0  0  0  0  0  0  0  0  0
    1.0217    4.7612    0.1570 C   0  0  0  0  0  0  0  0  0  0  0  0
    1.9082    4.5992    0.9927 O   0  0  0  0  0  0  0  0  0  0  0  0
    1.5504    7.5269    1.7311 C   0  0  0  0  0  0  0  0  0  0  0  0
    4.8743    8.4665   -1.0993 C   0  0  0  0  0  0  0  0  0  0  0  0
    5.9629    9.3825   -1.1041 C   0  0  0  0  0  0  0  0  0  0  0  0
    6.7857    9.0023   -2.1372 C   0  0  0  0  0  0  0  0  0  0  0  0
    6.2894    7.9098   -2.7664 O   0  0  0  0  0  0  0  0  0  0  0  0
    5.1398    7.5876   -2.1333 C   0  0  0  0  0  0  0  0  0  0  0  0
   -1.3803    6.1355    1.4307 C   0  0  0  0  0  0  0  0  0  0  0  0
   -3.2254    5.1139   -0.9131 C   0  0  0  0  0  0  0  0  0  0  0  0
   -3.8843    4.3408   -1.6009 O   0  0  0  0  0  0  0  0  0  0  0  0
   -3.7614    6.0332   -0.0834 O   0  0  0  0  0  0  0  0  0  0  0  0
   -5.1792    6.0869    0.0496 C   0  0  0  0  0  0  0  0  0  0  0  0
    0.6798   -0.8974   -0.5473 H   0  0  0  0  0  0  0  0  0  0  0  0
    0.6407   -0.0935    1.0274 H   0  0  0  0  0  0  0  0  0  0  0  0
    2.1138   -0.0119   -0.0023 H   0  0  0  0  0  0  0  0  0  0  0  0
    0.6944    3.6389   -1.6194 H   0  0  0  0  0  0  0  0  0  0  0  0
   -1.6564    2.9775   -1.0791 H   0  0  0  0  0  0  0  0  0  0  0  0
   -1.4842    3.5126    0.5583 H   0  0  0  0  0  0  0  0  0  0  0  0
   -1.4017    5.2812   -1.9508 H   0  0  0  0  0  0  0  0  0  0  0  0
   -1.3717    7.6527   -1.7216 H   0  0  0  0  0  0  0  0  0  0  0  0
   -2.4970    7.8772   -0.4011 H   0  0  0  0  0  0  0  0  0  0  0  0
   -0.7870    8.9676    0.9758 H   0  0  0  0  0  0  0  0  0  0  0  0
   -1.0212    9.7633   -0.5621 H   0  0  0  0  0  0  0  0  0  0  0  0
    0.8915    8.5720   -1.5411 H   0  0  0  0  0  0  0  0  0  0  0  0
    4.0895    8.4306    0.8499 H   0  0  0  0  0  0  0  0  0  0  0  0
    3.3341    6.3530   -0.0384 H   0  0  0  0  0  0  0  0  0  0  0  0
    2.6788    7.0917   -1.4870 H   0  0  0  0  0  0  0  0  0  0  0  0
    0.6921    6.1348   -1.3760 H   0  0  0  0  0  0  0  0  0  0  0  0
    2.1991    8.3629    2.0087 H   0  0  0  0  0  0  0  0  0  0  0  0
    0.6170    7.7546    2.2320 H   0  0  0  0  0  0  0  0  0  0  0  0
    1.9769    6.6366    2.1962 H   0  0  0  0  0  0  0  0  0  0  0  0
    6.1157   10.2244   -0.4426 H   0  0  0  0  0  0  0  0  0  0  0  0
    7.7123    9.3848   -2.5373 H   0  0  0  0  0  0  0  0  0  0  0  0
    4.6229    6.7238   -2.5297 H   0  0  0  0  0  0  0  0  0  0  0  0
   -1.0215    6.9462    2.0502 H   0  0  0  0  0  0  0  0  0  0  0  0
   -2.4533    6.1563    1.6109 H   0  0  0  0  0  0  0  0  0  0  0  0
   -1.0141    5.1994    1.8593 H   0  0  0  0  0  0  0  0  0  0  0  0
   -5.6344    6.3756   -0.8994 H   0  0  0  0  0  0  0  0  0  0  0  0
   -5.5640    5.1321    0.4148 H   0  0  0  0  0  0  0  0  0  0  0  0
   -5.4083    6.8575    0.7941 H   0  0  0  0  0  0  0  0  0  0  0  0
  1  2  1  0  0  0  0
  1 32  1  0  0  0  0
  1 33  1  0  0  0  0
  1 34  1  0  0  0  0
  2  3  2  0  0  0  0
  2  4  1  0  0  0  0
  5  4  1  0  0  0  0
  5  6  1  0  0  0  0
  5 19  1  0  0  0  0
  5 35  1  6  0  0  0
  6  7  1  0  0  0  0
  6 36  1  0  0  0  0
  6 37  1  0  0  0  0
  7  8  1  0  0  0  0
  7 38  1  6  0  0  0
  7 28  1  0  0  0  0
  8  9  1  0  0  0  0
  8 18  1  0  0  0  0
  8 27  1  1  0  0  0
  9 10  1  0  0  0  0
  9 39  1  0  0  0  0
  9 40  1  0  0  0  0
 10 41  1  0  0  0  0
 10 42  1  0  0  0  0
 11 10  1  0  0  0  0
 11 12  1  0  0  0  0
 11 17  1  0  0  0  0
 11 43  1  6  0  0  0
 12 13  2  0  0  0  0
 12 14  1  0  0  0  0
 14 15  1  0  0  0  0
 15 16  1  0  0  0  0
 15 44  1  1  0  0  0
 15 22  1  0  0  0  0
 16 17  1  0  0  0  0
 16 45  1  0  0  0  0
 16 46  1  0  0  0  0
 17 18  1  0  0  0  0
 17 21  1  1  0  0  0
 18 19  1  0  0  0  0
 18 47  1  6  0  0  0
 19 20  2  0  0  0  0
 21 48  1  0  0  0  0
 21 49  1  0  0  0  0
 21 50  1  0  0  0  0
 22 23  1  0  0  0  0
 22 26  2  0  0  0  0
 23 24  2  0  0  0  0
 23 51  1  0  0  0  0
 24 25  1  0  0  0  0
 24 52  1  0  0  0  0
 25 26  1  0  0  0  0
 26 53  1  0  0  0  0
 27 54  1  0  0  0  0
 27 55  1  0  0  0  0
 27 56  1  0  0  0  0
 28 29  2  0  0  0  0
 28 30  1  0  0  0  0
 30 31  1  0  0  0  0
 31 57  1  0  0  0  0
 31 58  1  0  0  0  0
 31 59  1  0  0  0  0
M  END
>  <DRUGBANK_ID>
DB12327

>  <COMMON_NAME>
Salvinorin A

>  <CAS_NUMBER>
83729-01-5

>  <UNII>
T56W91NG6J

$$$$
