
 OpenBabel10282417123D

 19 18  0  0  0  0  0  0  0  0999 V2000
    0.8932    0.1336   -0.0010 C   0  0  0  0  0  0  0  0  0  0  0  0
    0.6103   -0.4322    1.3898 C   0  0  0  0  0  0  0  0  0  0  0  0
    1.1684    0.3835    2.4842 N   0  0  0  0  0  0  0  0  0  0  0  0
    0.1700    1.0626    3.3458 C   0  0  0  0  0  0  0  0  0  0  0  0
    0.1808    0.5883    4.7985 C   0  0  0  0  0  0  0  0  0  0  0  0
    2.5550    0.5912    2.6858 C   0  0  0  0  0  0  0  0  0  0  0  0
    3.7123   -0.4789    1.8772 S   0  0  0  0  0  0  0  0  0  0  0  0
    3.2307    1.7805    3.6732 S   0  0  0  0  0  0  0  0  0  0  0  0
    0.4505    1.1263   -0.1200 H   0  0  0  0  0  0  0  0  0  0  0  0
    0.4777   -0.5276   -0.7679 H   0  0  0  0  0  0  0  0  0  0  0  0
    1.9599    0.2400   -0.2146 H   0  0  0  0  0  0  0  0  0  0  0  0
   -0.4812   -0.4985    1.4998 H   0  0  0  0  0  0  0  0  0  0  0  0
    0.9763   -1.4572    1.4896 H   0  0  0  0  0  0  0  0  0  0  0  0
    0.3230    2.1433    3.2872 H   0  0  0  0  0  0  0  0  0  0  0  0
   -0.8398    0.8779    2.9522 H   0  0  0  0  0  0  0  0  0  0  0  0
    1.1284    0.7934    5.3034 H   0  0  0  0  0  0  0  0  0  0  0  0
   -0.5981    1.1025    5.3710 H   0  0  0  0  0  0  0  0  0  0  0  0
    0.0061   -0.4891    4.8657 H   0  0  0  0  0  0  0  0  0  0  0  0
    2.9241   -1.1043    1.0058 H   0  0  0  0  0  0  0  0  0  0  0  0
  1  2  1  0  0  0  0
  1  9  1  0  0  0  0
  1 10  1  0  0  0  0
  1 11  1  0  0  0  0
  2  3  1  0  0  0  0
  2 12  1  0  0  0  0
  2 13  1  0  0  0  0
  3  4  1  0  0  0  0
  3  6  1  0  0  0  0
  4  5  1  0  0  0  0
  4 14  1  0  0  0  0
  4 15  1  0  0  0  0
  5 16  1  0  0  0  0
  5 17  1  0  0  0  0
  5 18  1  0  0  0  0
  6  7  1  0  0  0  0
  6  8  2  0  0  0  0
  7 19  1  0  0  0  0
M  END
>  <DRUGBANK_ID>
DB02520

>  <SECONDARY_ACCESSION_NUMBERS>
EXPT01132

>  <COMMON_NAME>
Ditiocarb

>  <CAS_NUMBER>
147-84-2

>  <UNII>
99Z2744345

>  <SYNONYMS>
diethyl dithiocarbamate; diethyl-dithiocarbamate; diethylcarbamodithioic acid; diethyldithiocarbamate; diethyldithiocarbamic acid

$$$$
