495
 OpenBabel10282417103D

 32 33  0  0  1  0  0  0  0  0999 V2000
    1.1333   -0.0340   -0.0406 O   0  0  0  0  0  0  0  0  0  0  0  0
    1.3169    3.3661    0.0850 O   0  0  0  0  0  0  0  0  0  0  0  0
   -1.0649   -3.4474    1.0658 O   0  0  0  0  0  0  0  0  0  0  0  0
    0.3446   -2.9936    5.3069 O   0  0  0  0  0  0  0  0  0  0  0  0
    0.4348   -1.7354    1.5071 N   0  0  0  0  0  0  0  0  0  0  0  0
   -2.1492    1.5317   -0.4943 N   0  0  0  0  0  0  0  0  0  0  0  0
   -0.1244   -3.3452    3.1120 N   0  0  0  0  0  0  0  0  0  0  0  0
   -2.1367    1.6104   -1.7403 N   0  3  0  0  0  0  0  0  0  0  0  0
   -2.1242    1.6780   -2.8746 N   0  5  0  0  0  0  0  0  0  0  0  0
   -1.1111    0.7377    0.1869 C   0  0  1  0  0  0  0  0  0  0  0  0
    0.2856   -1.1905    0.1479 C   0  0  1  0  0  0  0  0  0  0  0  0
   -1.1318   -0.7253   -0.1871 C   0  0  0  0  0  0  0  0  0  0  0  0
    0.3171    1.1577   -0.1376 C   0  0  1  0  0  0  0  0  0  0  0  0
    0.8512    2.2344    0.8184 C   0  0  0  0  0  0  0  0  0  0  0  0
    1.2629   -1.1375    2.4377 C   0  0  0  0  0  0  0  0  0  0  0  0
   -0.2931   -2.8781    1.8341 C   0  0  0  0  0  0  0  0  0  0  0  0
    1.2488   -1.4737    3.7322 C   0  0  0  0  0  0  0  0  0  0  0  0
    0.4572   -2.6548    4.1347 C   0  0  0  0  0  0  0  0  0  0  0  0
    1.9461   -0.7043    4.8017 C   0  0  0  0  0  0  0  0  0  0  0  0
    1.9870    3.0492   -0.5458 H   0  0  0  0  0  0  0  0  0  0  0  0
   -0.6576   -4.1613    3.3692 H   0  0  0  0  0  0  0  0  0  0  0  0
   -1.2938    0.8178    1.2654 H   0  0  0  0  0  0  0  0  0  0  0  0
    0.6140   -1.9694   -0.5501 H   0  0  0  0  0  0  0  0  0  0  0  0
   -1.3068   -0.8544   -1.2616 H   0  0  0  0  0  0  0  0  0  0  0  0
   -1.9278   -1.2597    0.3368 H   0  0  0  0  0  0  0  0  0  0  0  0
    0.4110    1.5006   -1.1740 H   0  0  0  0  0  0  0  0  0  0  0  0
    0.0807    2.5982    1.5055 H   0  0  0  0  0  0  0  0  0  0  0  0
    1.6902    1.8661    1.4163 H   0  0  0  0  0  0  0  0  0  0  0  0
    1.9034   -0.3335    2.0929 H   0  0  0  0  0  0  0  0  0  0  0  0
    1.2103   -0.3086    5.5118 H   0  0  0  0  0  0  0  0  0  0  0  0
    2.6544   -1.3341    5.3454 H   0  0  0  0  0  0  0  0  0  0  0  0
    2.4899    0.1522    4.3897 H   0  0  0  0  0  0  0  0  0  0  0  0
  1 11  1  0  0  0  0
  1 13  1  0  0  0  0
  2 14  1  0  0  0  0
  2 20  1  0  0  0  0
  3 16  2  0  0  0  0
  4 18  2  0  0  0  0
  5 15  1  0  0  0  0
  5 16  1  0  0  0  0
  6  8  2  0  0  0  0
  7 16  1  0  0  0  0
  7 18  1  0  0  0  0
  7 21  1  0  0  0  0
  8  9  2  0  0  0  0
 10  6  1  0  0  0  0
 10 12  1  0  0  0  0
 10 13  1  0  0  0  0
 10 22  1  1  0  0  0
 11  5  1  0  0  0  0
 11 12  1  0  0  0  0
 11 23  1  6  0  0  0
 12 24  1  0  0  0  0
 12 25  1  0  0  0  0
 13 26  1  6  0  0  0
 13 14  1  0  0  0  0
 14 27  1  0  0  0  0
 14 28  1  0  0  0  0
 15 17  2  0  0  0  0
 15 29  1  0  0  0  0
 17 18  1  0  0  0  0
 17 19  1  0  0  0  0
 19 30  1  0  0  0  0
 19 31  1  0  0  0  0
 19 32  1  0  0  0  0
M  CHG  2   8   1   9  -1
M  END
>  <DRUGBANK_ID>
DB00495

>  <SECONDARY_ACCESSION_NUMBERS>
APRD00449

>  <COMMON_NAME>
Zidovudine

>  <CAS_NUMBER>
30516-87-1

>  <UNII>
4B9XT59T7S

>  <SYNONYMS>
Azidothymidine; AZT; ZDV; Zidovudina; Zidovudine; Zidovudinum

$$$$
