
 OpenBabel10282417143D

 81 87  0  0  1  0  0  0  0  0999 V2000
    3.6522    4.2972  -23.3740 C   0  0  0  0  0  0  0  0  0  0  0  0
    8.4161    7.0042  -32.4375 C   0  0  0  0  0  0  0  0  0  0  0  0
    8.0903    3.9686  -29.1230 C   0  0  0  0  0  0  0  0  0  0  0  0
    6.5911    3.9044  -19.2729 C   0  0  0  0  0  0  0  0  0  0  0  0
   13.9678    3.4640  -30.3958 C   0  0  0  0  0  0  0  0  0  0  0  0
   13.0216    4.7358  -29.9461 C   0  0  0  0  0  0  0  0  0  0  0  0
   14.3427    2.4505  -31.0156 C   0  0  0  0  0  0  0  0  0  0  0  0
    5.5948    4.3311  -25.4037 C   0  0  0  0  0  0  0  0  0  0  0  0
    6.4686    5.0375  -26.1452 C   0  0  0  0  0  0  0  0  0  0  0  0
   11.5997    2.7271  -30.6934 C   0  0  0  0  0  0  0  0  0  0  0  0
   12.1049    2.0984  -31.7179 C   0  0  0  0  0  0  0  0  0  0  0  0
    5.6070    4.0678  -21.8328 C   0  0  0  0  0  0  0  0  0  0  0  0
   10.9045    2.8828  -28.2802 C   0  0  0  0  0  0  0  0  0  0  0  0
    7.9146    4.1206  -22.5607 C   0  0  0  0  0  0  0  0  0  0  0  0
   12.7777    3.9198  -33.5902 C   0  0  0  0  0  0  0  0  0  0  0  0
    5.1261    4.1100  -23.1301 C   0  0  0  0  0  0  0  0  0  0  0  0
    8.2223    5.8273  -31.5156 C   0  0  2  0  0  0  0  0  0  0  0  0
   11.0107    3.4600  -29.4991 C   0  0  0  0  0  0  0  0  0  0  0  0
    6.9784    4.0775  -21.5515 C   0  0  0  0  0  0  0  0  0  0  0  0
    6.0694    4.1253  -24.1421 C   0  0  0  0  0  0  0  0  0  0  0  0
   11.7997    4.6596  -29.2881 C   0  0  0  0  0  0  0  0  0  0  0  0
    7.5038    4.0988  -23.8729 C   0  0  0  0  0  0  0  0  0  0  0  0
    7.8644    4.9776  -25.8575 C   0  0  0  0  0  0  0  0  0  0  0  0
   10.4518    3.9579  -27.3261 C   0  0  2  0  0  0  0  0  0  0  0  0
   14.2514    1.3818  -32.2106 C   0  0  2  0  0  0  0  0  0  0  0  0
   12.3496    2.4982  -33.9091 C   0  0  2  0  0  0  0  0  0  0  0  0
    8.4394    4.2277  -24.8867 C   0  0  0  0  0  0  0  0  0  0  0  0
    8.0282    6.6179  -28.9253 C   0  0  2  0  0  0  0  0  0  0  0  0
    6.7955    5.8972  -30.8494 C   0  0  1  0  0  0  0  0  0  0  0  0
    6.7945    6.9447  -29.7374 C   0  0  2  0  0  0  0  0  0  0  0  0
   11.0498    5.2864  -28.1082 C   0  0  2  0  0  0  0  0  0  0  0  0
    9.9784    4.0130  -24.8358 C   0  0  0  0  0  0  0  0  0  0  0  0
    9.3961    6.6862  -29.5860 C   0  0  2  0  0  0  0  0  0  0  0  0
   13.0904    3.4953  -35.7229 C   0  0  0  0  0  0  0  0  0  0  0  0
   12.8321    1.6668  -32.7844 C   0  0  2  0  0  0  0  0  0  0  0  0
    7.7810    5.2203  -28.4866 N   0  0  0  0  0  0  0  0  0  0  0  0
    8.7564    5.8064  -26.4468 O   0  0  0  0  0  0  0  0  0  0  0  0
    5.7324    6.0329  -31.7675 O   0  0  0  0  0  0  0  0  0  0  0  0
    6.7244    8.2761  -30.2108 O   0  0  0  0  0  0  0  0  0  0  0  0
   10.5055    3.8649  -23.7351 O   0  0  0  0  0  0  0  0  0  0  0  0
   13.3615    3.6916  -36.9251 O   0  0  0  0  0  0  0  0  0  0  0  0
    7.5374    4.0466  -20.3095 O   0  0  0  0  0  0  0  0  0  0  0  0
   13.0462    4.5051  -34.8266 O   0  0  0  0  0  0  0  0  0  0  0  0
    9.4120    5.7957  -30.6853 O   0  0  0  0  0  0  0  0  0  0  0  0
   10.8350    3.8739  -25.9350 O   0  0  0  0  0  0  0  0  0  0  0  0
   12.8520    2.2636  -35.1939 O   0  0  0  0  0  0  0  0  0  0  0  0
   10.3832    6.4855  -28.5587 O   0  0  0  0  0  0  0  0  0  0  0  0
   13.1593    0.3575  -32.5940 O   0  0  0  0  0  0  0  0  0  0  0  0
   12.6434    5.0573  -30.9548 H   0  0  0  0  0  0  0  0  0  0  0  0
    8.2745    4.8952  -32.0868 H   0  0  0  0  0  0  0  0  0  0  0  0
    9.4213    3.6636  -27.2705 H   0  0  0  0  0  0  0  0  0  0  0  0
   15.1369    1.0969  -32.7480 H   0  0  0  0  0  0  0  0  0  0  0  0
   11.2384    2.4745  -33.9478 H   0  0  0  0  0  0  0  0  0  0  0  0
    8.0584    7.3177  -28.0667 H   0  0  0  0  0  0  0  0  0  0  0  0
    6.5048    4.9594  -30.3848 H   0  0  0  0  0  0  0  0  0  0  0  0
    5.9114    6.8308  -29.0876 H   0  0  0  0  0  0  0  0  0  0  0  0
   11.6471    5.7179  -27.3061 H   0  0  0  0  0  0  0  0  0  0  0  0
    9.5746    7.7064  -29.9642 H   0  0  0  0  0  0  0  0  0  0  0  0
    3.0738    3.9969  -22.5004 H   0  0  0  0  0  0  0  0  0  0  0  0
    3.3042    3.6741  -24.2043 H   0  0  0  0  0  0  0  0  0  0  0  0
    3.4360    5.3495  -23.6033 H   0  0  0  0  0  0  0  0  0  0  0  0
    8.2114    7.9454  -31.9334 H   0  0  0  0  0  0  0  0  0  0  0  0
    9.4602    7.0766  -32.7422 H   0  0  0  0  0  0  0  0  0  0  0  0
    7.7413    6.9272  -33.2852 H   0  0  0  0  0  0  0  0  0  0  0  0
    7.9872    3.1819  -28.3750 H   0  0  0  0  0  0  0  0  0  0  0  0
    7.5781    3.5895  -29.9967 H   0  0  0  0  0  0  0  0  0  0  0  0
    9.0867    4.0580  -29.4345 H   0  0  0  0  0  0  0  0  0  0  0  0
    5.9460    4.7882  -19.2390 H   0  0  0  0  0  0  0  0  0  0  0  0
    6.0078    2.9864  -19.4088 H   0  0  0  0  0  0  0  0  0  0  0  0
    7.1378    3.8326  -18.3357 H   0  0  0  0  0  0  0  0  0  0  0  0
    4.5548    4.2917  -25.7169 H   0  0  0  0  0  0  0  0  0  0  0  0
    5.9651    5.6604  -26.8817 H   0  0  0  0  0  0  0  0  0  0  0  0
    4.8735    4.0475  -21.0397 H   0  0  0  0  0  0  0  0  0  0  0  0
   11.0014    1.8253  -28.0712 H   0  0  0  0  0  0  0  0  0  0  0  0
    8.9562    4.2443  -22.2857 H   0  0  0  0  0  0  0  0  0  0  0  0
   13.6903    3.9535  -32.9886 H   0  0  0  0  0  0  0  0  0  0  0  0
   12.0051    4.4809  -33.0492 H   0  0  0  0  0  0  0  0  0  0  0  0
    6.8216    5.1493  -28.2116 H   0  0  0  0  0  0  0  0  0  0  0  0
    8.7062    5.4877  -27.3727 H   0  0  0  0  0  0  0  0  0  0  0  0
    5.7181    6.9674  -32.0171 H   0  0  0  0  0  0  0  0  0  0  0  0
    7.6195    8.6477  -30.2640 H   0  0  0  0  0  0  0  0  0  0  0  0
  1 59  1  0  0  0  0
  1 60  1  0  0  0  0
  1 61  1  0  0  0  0
  2 62  1  0  0  0  0
  2 63  1  0  0  0  0
  2 64  1  0  0  0  0
  3 65  1  0  0  0  0
  3 66  1  0  0  0  0
  3 67  1  0  0  0  0
  4 68  1  0  0  0  0
  4 69  1  0  0  0  0
  4 70  1  0  0  0  0
  6  5  1  0  0  0  0
  7  5  3  0  0  0  0
  8 71  1  0  0  0  0
  9  8  2  0  0  0  0
  9 72  1  0  0  0  0
 11 10  3  0  0  0  0
 12 73  1  0  0  0  0
 13 74  1  0  0  0  0
 14 75  1  0  0  0  0
 15 76  1  0  0  0  0
 15 77  1  0  0  0  0
 16  1  1  0  0  0  0
 16 12  2  0  0  0  0
 17 50  1  6  0  0  0
 17  2  1  0  0  0  0
 18 10  1  0  0  0  0
 18 13  2  0  0  0  0
 19 12  1  0  0  0  0
 19 14  2  0  0  0  0
 20  8  1  0  0  0  0
 20 16  1  0  0  0  0
 21  6  2  0  0  0  0
 21 18  1  0  0  0  0
 22 14  1  0  0  0  0
 22 20  2  0  0  0  0
 23  9  1  0  0  0  0
 24 13  1  0  0  0  0
 24 51  1  6  0  0  0
 24 45  1  0  0  0  0
 25  7  1  0  0  0  0
 25 52  1  6  0  0  0
 26 15  1  0  0  0  0
 26 35  1  0  0  0  0
 26 53  1  6  0  0  0
 27 22  1  0  0  0  0
 27 23  2  0  0  0  0
 28 54  1  1  0  0  0
 28 36  1  0  0  0  0
 29 17  1  0  0  0  0
 29 38  1  0  0  0  0
 29 55  1  1  0  0  0
 30 28  1  0  0  0  0
 30 29  1  0  0  0  0
 30 39  1  0  0  0  0
 30 56  1  1  0  0  0
 31 21  1  0  0  0  0
 31 24  1  0  0  0  0
 31 47  1  0  0  0  0
 31 57  1  1  0  0  0
 32 27  1  0  0  0  0
 33 28  1  0  0  0  0
 33 47  1  0  0  0  0
 33 58  1  6  0  0  0
 35 11  1  1  0  0  0
 35 25  1  0  0  0  0
 35 48  1  0  0  0  0
 36  3  1  0  0  0  0
 36 78  1  0  0  0  0
 37 23  1  0  0  0  0
 37 79  1  0  0  0  0
 38 80  1  0  0  0  0
 39 81  1  0  0  0  0
 40 32  2  0  0  0  0
 41 34  2  0  0  0  0
 42  4  1  0  0  0  0
 42 19  1  0  0  0  0
 43 15  1  0  0  0  0
 43 34  1  0  0  0  0
 44 17  1  0  0  0  0
 44 33  1  0  0  0  0
 45 32  1  0  0  0  0
 46 26  1  0  0  0  0
 46 34  1  0  0  0  0
 48 25  1  0  0  0  0
 49  6  1  0  0  0  0
M  END
>  <DRUGBANK_ID>
DB04408

>  <SECONDARY_ACCESSION_NUMBERS>
EXPT00912

>  <COMMON_NAME>
Ncs-Chromophore

>  <CAS_NUMBER>
81604-85-5

>  <UNII>
2SJ8J82D90

$$$$
