
 OpenBabel10282417173D

 56 56  0  0  0  0  0  0  0  0999 V2000
   -0.3415   -1.3990    0.2188 C   0  0  0  0  0  0  0  0  0  0  0  0
    1.0627   -1.0839    0.1753 C   0  0  0  0  0  0  0  0  0  0  0  0
    1.4571    0.3184    0.1842 C   0  0  0  0  0  0  0  0  0  0  0  0
    0.5218    1.4114    0.4186 C   0  0  0  0  0  0  0  0  0  0  0  0
   -0.8314    0.9231    0.7903 C   0  0  0  0  0  0  0  0  0  0  0  0
   -1.3383   -0.4356    0.5702 C   0  0  0  0  0  0  0  0  0  0  0  0
   -2.2894    2.3049    2.1387 I   0  0  0  0  0  0  0  0  0  0  0  0
   -0.9486   -3.4434   -0.5660 I   0  0  0  0  0  0  0  0  0  0  0  0
    3.7031    0.5644   -0.5443 I   0  0  0  0  0  0  0  0  0  0  0  0
    0.8015    2.8821    0.1095 N   0  0  0  0  0  0  0  0  0  0  0  0
    2.1638   -2.1661    0.2044 C   0  0  0  0  0  0  0  0  0  0  0  0
    1.8627   -3.4904    0.1751 N   0  0  0  0  0  0  0  0  0  0  0  0
    2.8968   -4.5043    0.2252 C   0  0  0  0  0  0  0  0  0  0  0  0
    2.7540   -5.3566    1.4812 C   0  0  3  0  0  0  0  0  0  0  0  0
    1.3971   -6.0695    1.5209 C   0  0  0  0  0  0  0  0  0  0  0  0
    1.2235   -6.9074    0.3764 O   0  0  0  0  0  0  0  0  0  0  0  0
    3.3569   -1.9559    0.3553 O   0  0  0  0  0  0  0  0  0  0  0  0
    3.8015   -6.3244    1.4994 O   0  0  0  0  0  0  0  0  0  0  0  0
   -2.8789   -0.7727    0.5874 C   0  0  0  0  0  0  0  0  0  0  0  0
   -3.2738   -2.0898    0.5065 N   0  0  0  0  0  0  0  0  0  0  0  0
   -3.7602    0.0723    0.6632 O   0  0  0  0  0  0  0  0  0  0  0  0
   -4.6460   -2.5935    0.4970 C   0  0  0  0  0  0  0  0  0  0  0  0
   -4.9577   -3.4839   -0.7165 C   0  0  0  0  0  0  0  0  0  0  0  0
   -4.1593   -4.6674   -0.7165 O   0  0  0  0  0  0  0  0  0  0  0  0
    2.0626    3.4830    0.1285 C   0  0  0  0  0  0  0  0  0  0  0  0
    2.3559    4.9398   -0.0811 C   0  0  0  0  0  0  0  0  0  0  0  0
    3.1242    2.9176    0.4496 O   0  0  0  0  0  0  0  0  0  0  0  0
   -0.3338    3.7838   -0.0934 C   0  0  0  0  0  0  0  0  0  0  0  0
   -1.2328    3.6005   -1.3339 C   0  0  3  0  0  0  0  0  0  0  0  0
   -1.8757    2.2540   -1.6863 C   0  0  0  0  0  0  0  0  0  0  0  0
   -2.2177    4.6445   -1.3337 O   0  0  0  0  0  0  0  0  0  0  0  0
   -2.9613    1.8396   -0.9003 O   0  0  0  0  0  0  0  0  0  0  0  0
    0.9034   -3.7848    0.1684 H   0  0  0  0  0  0  0  0  0  0  0  0
    2.8090   -5.0920   -0.6933 H   0  0  0  0  0  0  0  0  0  0  0  0
    3.9057   -4.0782    0.1888 H   0  0  0  0  0  0  0  0  0  0  0  0
    2.8570   -4.7236    2.3712 H   0  0  0  0  0  0  0  0  0  0  0  0
    1.3251   -6.7048    2.4058 H   0  0  0  0  0  0  0  0  0  0  0  0
    0.5666   -5.3591    1.5664 H   0  0  0  0  0  0  0  0  0  0  0  0
    1.2267   -6.3607   -0.4275 H   0  0  0  0  0  0  0  0  0  0  0  0
    3.6320   -6.9312    0.7554 H   0  0  0  0  0  0  0  0  0  0  0  0
   -2.5722   -2.8078    0.5264 H   0  0  0  0  0  0  0  0  0  0  0  0
   -4.7274   -3.1932    1.4089 H   0  0  0  0  0  0  0  0  0  0  0  0
   -5.3528   -1.7646    0.5366 H   0  0  0  0  0  0  0  0  0  0  0  0
   -6.0009   -3.8112   -0.6729 H   0  0  0  0  0  0  0  0  0  0  0  0
   -4.7994   -2.9563   -1.6627 H   0  0  0  0  0  0  0  0  0  0  0  0
   -3.2428   -4.3945   -0.8852 H   0  0  0  0  0  0  0  0  0  0  0  0
    2.9990    5.2003    0.7740 H   0  0  0  0  0  0  0  0  0  0  0  0
    2.9553    5.0577   -0.9901 H   0  0  0  0  0  0  0  0  0  0  0  0
    1.5516    5.6584   -0.0648 H   0  0  0  0  0  0  0  0  0  0  0  0
   -0.7902    3.9440    0.8726 H   0  0  0  0  0  0  0  0  0  0  0  0
   -0.0031    4.8133   -0.2226 H   0  0  0  0  0  0  0  0  0  0  0  0
   -0.5881    3.8091   -2.1930 H   0  0  0  0  0  0  0  0  0  0  0  0
   -2.3627    2.3284   -2.6559 H   0  0  0  0  0  0  0  0  0  0  0  0
   -1.1184    1.4681   -1.7732 H   0  0  0  0  0  0  0  0  0  0  0  0
   -2.8081    4.5223   -0.5684 H   0  0  0  0  0  0  0  0  0  0  0  0
   -2.8092    1.8870    0.0588 H   0  0  0  0  0  0  0  0  0  0  0  0
  1  2  2  0  0  0  0
  1  6  1  0  0  0  0
  1  8  1  0  0  0  0
  2  3  1  0  0  0  0
  2 11  1  0  0  0  0
  3  4  2  0  0  0  0
  3  9  1  0  0  0  0
  4  5  1  0  0  0  0
  4 10  1  0  0  0  0
  5  6  2  0  0  0  0
  5  7  1  0  0  0  0
  6 19  1  0  0  0  0
 10 25  1  0  0  0  0
 10 28  1  0  0  0  0
 11 12  1  0  0  0  0
 11 17  2  0  0  0  0
 12 13  1  0  0  0  0
 12 33  1  0  0  0  0
 13 14  1  0  0  0  0
 13 34  1  0  0  0  0
 13 35  1  0  0  0  0
 14 15  1  0  0  0  0
 14 18  1  0  0  0  0
 14 36  1  0  0  0  0
 15 16  1  0  0  0  0
 15 37  1  0  0  0  0
 15 38  1  0  0  0  0
 16 39  1  0  0  0  0
 18 40  1  0  0  0  0
 19 20  1  0  0  0  0
 19 21  2  0  0  0  0
 20 22  1  0  0  0  0
 20 41  1  0  0  0  0
 22 23  1  0  0  0  0
 22 42  1  0  0  0  0
 22 43  1  0  0  0  0
 23 24  1  0  0  0  0
 23 44  1  0  0  0  0
 23 45  1  0  0  0  0
 24 46  1  0  0  0  0
 25 26  1  0  0  0  0
 25 27  2  0  0  0  0
 26 47  1  0  0  0  0
 26 48  1  0  0  0  0
 26 49  1  0  0  0  0
 28 29  1  0  0  0  0
 28 50  1  0  0  0  0
 28 51  1  0  0  0  0
 29 30  1  0  0  0  0
 29 31  1  0  0  0  0
 29 52  1  0  0  0  0
 30 32  1  0  0  0  0
 30 53  1  0  0  0  0
 30 54  1  0  0  0  0
 31 55  1  0  0  0  0
 32 56  1  0  0  0  0
M  END
>  <DRUGBANK_ID>
DB09135

>  <COMMON_NAME>
Ioxilan

>  <CAS_NUMBER>
107793-72-6

>  <UNII>
A4YJ7J11TG

>  <SYNONYMS>
Ioxilan; Ioxilane; Ioxilanum; N-(2,3-dihydroxypropyl)-Nâ€™-(2- hydroxyethyl)-5-[N-(2,3-dihydroxypropyl) acetamido]-2,4,6-triiodoisophthal-amide

$$$$
