
 OpenBabel10282417123D

 75 78  0  0  1  0  0  0  0  0999 V2000
   -0.2222    0.2691   -0.2007 C   0  0  0  0  0  0  0  0  0  0  0  0
   -1.0342    0.7332    1.0765 C   0  0  0  0  0  0  0  0  0  0  0  0
   -0.6350    2.7856   -0.4195 C   0  0  0  0  0  0  0  0  0  0  0  0
    1.5687    3.7662    0.2642 C   0  0  0  0  0  0  0  0  0  0  0  0
    1.2358    1.1351   -0.0785 C   0  0  2  0  0  0  0  0  0  0  0  0
    3.6204   -0.1749    0.2908 C   0  0  0  0  0  0  0  0  0  0  0  0
    5.0354   -0.1054    0.5381 C   0  0  0  0  0  0  0  0  0  0  0  0
    6.2646    0.8677    3.1561 C   0  0  0  0  0  0  0  0  0  0  0  0
    7.1632   -0.0662    2.3197 C   0  0  0  0  0  0  0  0  0  0  0  0
    1.4119    0.3587    1.2134 C   0  0  0  0  0  0  0  0  0  0  0  0
    3.0033    1.1707   -0.0731 C   0  0  1  0  0  0  0  0  0  0  0  0
    3.6469    2.4054    1.0424 C   0  0  2  0  0  0  0  0  0  0  0  0
    5.2406    2.2146    2.0645 C   0  0  1  0  0  0  0  0  0  0  0  0
    5.2759    0.8445    1.6782 C   0  0  2  0  0  0  0  0  0  0  0  0
    4.0819    0.8537    3.1713 C   0  0  0  0  0  0  0  0  0  0  0  0
    8.0051    3.0213    4.2942 C   0  0  0  0  0  0  0  0  0  0  0  0
    8.2059    3.2599    2.7887 C   0  0  0  0  0  0  0  0  0  0  0  0
    9.5176    1.2501    1.9629 C   0  0  0  0  0  0  0  0  0  0  0  0
    8.2298    2.0855    1.7668 C   0  0  1  0  0  0  0  0  0  0  0  0
    7.0232    1.0534    1.4345 C   0  0  1  0  0  0  0  0  0  0  0  0
   -1.3230    2.2437    0.9016 C   0  0  2  0  0  0  0  0  0  0  0  0
   -1.3340    2.9707    2.1430 O   0  0  0  0  0  0  0  0  0  0  0  0
    3.1532    3.7127    0.2816 C   0  0  2  0  0  0  0  0  0  0  0  0
    3.6487    4.9357    0.8006 O   0  0  0  0  0  0  0  0  0  0  0  0
    0.8815    2.6049   -0.4729 C   0  0  1  0  0  0  0  0  0  0  0  0
    8.8883    1.9577    4.9911 C   0  0  0  0  0  0  0  0  0  0  0  0
    8.7443    0.7671    4.8916 O   0  0  0  0  0  0  0  0  0  0  0  0
    9.8779    2.4427    5.8146 N   0  0  0  0  0  0  0  0  0  0  0  0
   10.8772    1.5041    6.3056 C   0  0  0  0  0  0  0  0  0  0  0  0
   12.9717    2.1918    7.2921 O   0  0  0  0  0  0  0  0  0  0  0  0
   12.2667    2.1113    6.1288 C   0  0  0  0  0  0  0  0  0  0  0  0
   12.6973    2.5178    5.0870 O   0  0  0  0  0  0  0  0  0  0  0  0
   -1.0267    0.4206   -0.9523 H   0  0  0  0  0  0  0  0  0  0  0  0
   -0.1498   -0.8278   -0.2934 H   0  0  0  0  0  0  0  0  0  0  0  0
   -0.5363    0.9470    2.0353 H   0  0  0  0  0  0  0  0  0  0  0  0
   -1.1285   -0.2315    1.6233 H   0  0  0  0  0  0  0  0  0  0  0  0
   -0.9770    3.7690   -0.7519 H   0  0  0  0  0  0  0  0  0  0  0  0
   -1.0373    2.1894   -1.2623 H   0  0  0  0  0  0  0  0  0  0  0  0
    1.2506    4.7290   -0.1794 H   0  0  0  0  0  0  0  0  0  0  0  0
    1.1292    3.8095    1.2680 H   0  0  0  0  0  0  0  0  0  0  0  0
    3.3455   -0.5199    1.2993 H   0  0  0  0  0  0  0  0  0  0  0  0
    3.3346   -0.9958   -0.3594 H   0  0  0  0  0  0  0  0  0  0  0  0
    5.7552   -0.0473   -0.2869 H   0  0  0  0  0  0  0  0  0  0  0  0
    5.2186   -1.1479    0.8252 H   0  0  0  0  0  0  0  0  0  0  0  0
    6.7277    1.1906    4.0593 H   0  0  0  0  0  0  0  0  0  0  0  0
    5.7505    0.0082    3.6712 H   0  0  0  0  0  0  0  0  0  0  0  0
    8.0673   -0.4194    2.7974 H   0  0  0  0  0  0  0  0  0  0  0  0
    6.7128   -0.9930    1.9548 H   0  0  0  0  0  0  0  0  0  0  0  0
    2.0786    0.8805    1.8511 H   0  0  0  0  0  0  0  0  0  0  0  0
    0.8300   -0.1027    1.9931 H   0  0  0  0  0  0  0  0  0  0  0  0
    1.6315   -0.6348    0.7690 H   0  0  0  0  0  0  0  0  0  0  0  0
    3.3663    1.4440   -1.0741 H   0  0  0  0  0  0  0  0  0  0  0  0
    2.9245    2.5381    1.8503 H   0  0  0  0  0  0  0  0  0  0  0  0
    5.9125    2.9038    1.5704 H   0  0  0  0  0  0  0  0  0  0  0  0
    4.5336    1.1984    4.1524 H   0  0  0  0  0  0  0  0  0  0  0  0
    3.3593    1.6763    3.2379 H   0  0  0  0  0  0  0  0  0  0  0  0
    3.6256   -0.1057    3.3722 H   0  0  0  0  0  0  0  0  0  0  0  0
    8.0827    3.9703    4.8264 H   0  0  0  0  0  0  0  0  0  0  0  0
    6.9585    2.7977    4.4820 H   0  0  0  0  0  0  0  0  0  0  0  0
    9.1545    3.8068    2.6730 H   0  0  0  0  0  0  0  0  0  0  0  0
    7.4516    3.9882    2.4591 H   0  0  0  0  0  0  0  0  0  0  0  0
    9.5858    0.4506    1.2173 H   0  0  0  0  0  0  0  0  0  0  0  0
   10.4346    1.8346    1.9849 H   0  0  0  0  0  0  0  0  0  0  0  0
    9.5072    0.7436    2.9166 H   0  0  0  0  0  0  0  0  0  0  0  0
    8.4014    2.5926    0.8027 H   0  0  0  0  0  0  0  0  0  0  0  0
    7.0681    1.1023    0.3463 H   0  0  0  0  0  0  0  0  0  0  0  0
   -2.3106    2.5178    0.5924 H   0  0  0  0  0  0  0  0  0  0  0  0
   -0.8453    2.5410    2.8699 H   0  0  0  0  0  0  0  0  0  0  0  0
    3.4694    3.6603   -0.7658 H   0  0  0  0  0  0  0  0  0  0  0  0
    3.1781    5.6582    0.3362 H   0  0  0  0  0  0  0  0  0  0  0  0
    1.1679    2.7332   -1.5455 H   0  0  0  0  0  0  0  0  0  0  0  0
    9.7869    3.3628    6.2143 H   0  0  0  0  0  0  0  0  0  0  0  0
   10.6420    1.2478    7.3417 H   0  0  0  0  0  0  0  0  0  0  0  0
   10.8846    0.5702    5.7304 H   0  0  0  0  0  0  0  0  0  0  0  0
   12.5215    1.8516    8.0837 H   0  0  0  0  0  0  0  0  0  0  0  0
  1 33  1  0  0  0  0
  1 34  1  0  0  0  0
  2  1  1  0  0  0  0
  2 35  1  0  0  0  0
  2 36  1  0  0  0  0
  3 37  1  0  0  0  0
  3 38  1  0  0  0  0
  4 23  1  0  0  0  0
  4 39  1  0  0  0  0
  4 40  1  0  0  0  0
  5 11  1  0  0  0  0
  5  1  1  0  0  0  0
  5 10  1  6  0  0  0
  6  7  1  0  0  0  0
  6 41  1  0  0  0  0
  6 42  1  0  0  0  0
  7 43  1  0  0  0  0
  7 44  1  0  0  0  0
  8 45  1  0  0  0  0
  8 46  1  0  0  0  0
  9  8  1  0  0  0  0
  9 47  1  0  0  0  0
  9 48  1  0  0  0  0
 10 49  1  0  0  0  0
 10 50  1  0  0  0  0
 10 51  1  0  0  0  0
 11  6  1  0  0  0  0
 11 12  1  0  0  0  0
 11 52  1  1  0  0  0
 12 13  1  0  0  0  0
 12 23  1  0  0  0  0
 12 53  1  6  0  0  0
 13 14  1  0  0  0  0
 13  8  1  0  0  0  0
 13 54  1  1  0  0  0
 14 20  1  0  0  0  0
 14  7  1  0  0  0  0
 14 15  1  6  0  0  0
 15 55  1  0  0  0  0
 15 56  1  0  0  0  0
 15 57  1  0  0  0  0
 16 17  1  0  0  0  0
 16 26  1  0  0  0  0
 16 58  1  0  0  0  0
 16 59  1  0  0  0  0
 17 60  1  0  0  0  0
 17 61  1  0  0  0  0
 18 62  1  0  0  0  0
 18 63  1  0  0  0  0
 18 64  1  0  0  0  0
 19 17  1  0  0  0  0
 19 18  1  0  0  0  0
 19 65  1  6  0  0  0
 20  9  1  0  0  0  0
 20 19  1  0  0  0  0
 20 66  1  6  0  0  0
 21  3  1  0  0  0  0
 21  2  1  0  0  0  0
 21 67  1  6  0  0  0
 21 22  1  0  0  0  0
 22 68  1  0  0  0  0
 23 24  1  0  0  0  0
 23 69  1  6  0  0  0
 24 70  1  0  0  0  0
 25  5  1  0  0  0  0
 25  3  1  0  0  0  0
 25  4  1  0  0  0  0
 25 71  1  6  0  0  0
 26 28  1  0  0  0  0
 26 27  2  0  0  0  0
 28 29  1  0  0  0  0
 28 72  1  0  0  0  0
 29 31  1  0  0  0  0
 29 73  1  0  0  0  0
 29 74  1  0  0  0  0
 30 75  1  0  0  0  0
 31 30  1  0  0  0  0
 31 32  2  0  0  0  0
M  END
>  <DRUGBANK_ID>
DB02123

>  <SECONDARY_ACCESSION_NUMBERS>
EXPT00909

>  <COMMON_NAME>
Glycochenodeoxycholic Acid

>  <CAS_NUMBER>
640-79-9

>  <UNII>
451ZNJ667Y

$$$$
