RSA
 OpenBabel10282417133D

 26 27  0  0  0  0  0  0  0  0999 V2000
   -5.0393   -3.7778    4.7169 C   0  0  0  0  0  0  0  0  0  0  0  0
   -4.8282   -3.4356    3.4765 C   0  0  0  0  0  0  0  0  0  0  0  0
   -4.5822   -3.0367    2.0306 C   0  0  0  0  0  0  0  0  0  0  0  0
   -4.2481   -1.6287    1.9071 N   0  0  0  0  0  0  0  0  0  0  0  0
   -3.8795   -1.2612    0.5351 C   0  0  1  0  0  0  0  0  0  0  0  0
   -4.4721   -2.1239   -0.6156 C   0  0  0  0  0  0  0  0  0  0  0  0
   -5.8308   -1.5133   -0.9687 C   0  0  0  0  0  0  0  0  0  0  0  0
   -5.5421   -0.0677   -0.7238 C   0  0  0  0  0  0  0  0  0  0  0  0
   -4.4443    0.0852    0.1347 C   0  0  0  0  0  0  0  0  0  0  0  0
   -3.9961    1.3525    0.4820 C   0  0  0  0  0  0  0  0  0  0  0  0
   -6.2208    1.0250   -1.2394 C   0  0  0  0  0  0  0  0  0  0  0  0
   -5.7617    2.3003   -0.9070 C   0  0  0  0  0  0  0  0  0  0  0  0
   -4.6591    2.4626   -0.0560 C   0  0  0  0  0  0  0  0  0  0  0  0
   -2.7868   -1.2521    0.4529 H   0  0  0  0  0  0  0  0  0  0  0  0
   -5.2080   -4.0529    5.7322 H   0  0  0  0  0  0  0  0  0  0  0  0
   -3.7744   -3.6738    1.6522 H   0  0  0  0  0  0  0  0  0  0  0  0
   -5.5127   -3.2686    1.5002 H   0  0  0  0  0  0  0  0  0  0  0  0
   -5.0321   -1.0646    2.2305 H   0  0  0  0  0  0  0  0  0  0  0  0
   -3.7995   -2.0545   -1.4817 H   0  0  0  0  0  0  0  0  0  0  0  0
   -4.5508   -3.1956   -0.4127 H   0  0  0  0  0  0  0  0  0  0  0  0
   -6.0969   -1.7240   -2.0070 H   0  0  0  0  0  0  0  0  0  0  0  0
   -6.6226   -1.8603   -0.2966 H   0  0  0  0  0  0  0  0  0  0  0  0
   -3.1431    1.4851    1.1376 H   0  0  0  0  0  0  0  0  0  0  0  0
   -7.0719    0.8969   -1.8980 H   0  0  0  0  0  0  0  0  0  0  0  0
   -6.2617    3.1750   -1.3178 H   0  0  0  0  0  0  0  0  0  0  0  0
   -4.3130    3.4665    0.1833 H   0  0  0  0  0  0  0  0  0  0  0  0
  1  2  3  0  0  0  0
  1 15  1  0  0  0  0
  2  3  1  0  0  0  0
  3  4  1  0  0  0  0
  3 16  1  0  0  0  0
  3 17  1  0  0  0  0
  4 18  1  0  0  0  0
  5  6  1  0  0  0  0
  5  9  1  0  0  0  0
  5 14  1  6  0  0  0
  5  4  1  0  0  0  0
  6  7  1  0  0  0  0
  6 19  1  0  0  0  0
  6 20  1  0  0  0  0
  7  8  1  0  0  0  0
  7 21  1  0  0  0  0
  7 22  1  0  0  0  0
  8  9  2  0  0  0  0
  8 11  1  0  0  0  0
  9 10  1  0  0  0  0
 10 13  2  0  0  0  0
 10 23  1  0  0  0  0
 11 12  2  0  0  0  0
 11 24  1  0  0  0  0
 12 13  1  0  0  0  0
 12 25  1  0  0  0  0
 13 26  1  0  0  0  0
M  END
>  <DRUGBANK_ID>
DB03894

>  <SECONDARY_ACCESSION_NUMBERS>
EXPT02818

>  <COMMON_NAME>
N-Propargyl-1(S)-Aminoindan

>  <UNII>
4KM7HJ6CBA

$$$$
