
 OpenBabel10282417233D

 36 36  0  0  0  0  0  0  0  0999 V2000
    1.2093   -0.0631    0.8023 C   0  0  0  0  0  0  0  0  0  0  0  0
    0.7755    0.6138    2.0731 C   0  0  0  0  0  0  0  0  0  0  0  0
    1.1617    2.1034    2.0847 C   0  0  0  0  0  0  0  0  0  0  0  0
    0.4443    2.9179    1.0850 N   0  0  0  0  0  0  0  0  0  0  0  0
    1.0106    4.2551    0.8368 C   0  0  0  0  0  0  0  0  0  0  0  0
    2.5170    4.2258    0.5221 C   0  0  0  0  0  0  0  0  0  0  0  0
    2.9053    3.7814   -0.8160 O   0  0  0  0  0  0  0  0  0  0  0  0
    2.5348    2.5517   -1.3235 C   0  0  0  0  0  0  0  0  0  0  0  0
    1.1961    2.2325   -1.6982 C   0  0  0  0  0  0  0  0  0  0  0  0
    0.8050    0.8860   -1.9280 C   0  0  0  0  0  0  0  0  0  0  0  0
    1.8240   -0.0832   -2.0844 C   0  0  0  0  0  0  0  0  0  0  0  0
    3.1761    0.3128   -1.9635 C   0  0  0  0  0  0  0  0  0  0  0  0
    4.1459   -0.6075   -2.0978 F   0  0  0  0  0  0  0  0  0  0  0  0
    3.5383    1.6080   -1.5612 C   0  0  0  0  0  0  0  0  0  0  0  0
   -1.0426    0.2712   -1.5084 S   0  0  0  0  0  0  0  0  0  0  0  0
   -1.6239    0.4012    0.2147 C   0  0  0  0  0  0  0  0  0  0  0  0
   -1.8970    1.1762   -2.2796 O   0  0  0  0  0  0  0  0  0  0  0  0
   -1.0147   -1.1437   -1.7772 O   0  0  0  0  0  0  0  0  0  0  0  0
    0.7623    0.5933    0.1064 H   0  0  0  0  0  0  0  0  0  0  0  0
    0.8015   -1.0500    0.5518 H   0  0  0  0  0  0  0  0  0  0  0  0
    2.2775   -0.0390    0.5950 H   0  0  0  0  0  0  0  0  0  0  0  0
   -0.3027    0.6127    2.2162 H   0  0  0  0  0  0  0  0  0  0  0  0
    1.1872    0.0242    2.8829 H   0  0  0  0  0  0  0  0  0  0  0  0
    0.9031    2.5130    3.0552 H   0  0  0  0  0  0  0  0  0  0  0  0
    2.2354    2.1117    1.9114 H   0  0  0  0  0  0  0  0  0  0  0  0
    0.5780    2.4401    0.2179 H   0  0  0  0  0  0  0  0  0  0  0  0
    0.5036    4.7292   -0.0194 H   0  0  0  0  0  0  0  0  0  0  0  0
    0.7693    4.8763    1.7057 H   0  0  0  0  0  0  0  0  0  0  0  0
    2.8732    5.2621    0.6199 H   0  0  0  0  0  0  0  0  0  0  0  0
    3.0842    3.7096    1.3056 H   0  0  0  0  0  0  0  0  0  0  0  0
    0.4338    3.0015   -1.6307 H   0  0  0  0  0  0  0  0  0  0  0  0
    1.6092   -1.1486   -2.1312 H   0  0  0  0  0  0  0  0  0  0  0  0
    4.5927    1.8443   -1.4141 H   0  0  0  0  0  0  0  0  0  0  0  0
   -1.5007    1.4017    0.6268 H   0  0  0  0  0  0  0  0  0  0  0  0
   -2.6926    0.1735    0.3240 H   0  0  0  0  0  0  0  0  0  0  0  0
   -1.1926   -0.3921    0.8346 H   0  0  0  0  0  0  0  0  0  0  0  0
  1  2  1  0  0  0  0
  1 19  1  0  0  0  0
  1 20  1  0  0  0  0
  1 21  1  0  0  0  0
  2  3  1  0  0  0  0
  2 22  1  0  0  0  0
  2 23  1  0  0  0  0
  3  4  1  0  0  0  0
  3 24  1  0  0  0  0
  3 25  1  0  0  0  0
  4  5  1  0  0  0  0
  4 26  1  0  0  0  0
  5  6  1  0  0  0  0
  5 27  1  0  0  0  0
  5 28  1  0  0  0  0
  6  7  1  0  0  0  0
  6 29  1  0  0  0  0
  6 30  1  0  0  0  0
  7  8  1  0  0  0  0
  8  9  2  0  0  0  0
  8 14  1  0  0  0  0
  9 10  1  0  0  0  0
  9 31  1  0  0  0  0
 10 11  2  0  0  0  0
 10 15  1  0  0  0  0
 11 12  1  0  0  0  0
 11 32  1  0  0  0  0
 12 13  1  0  0  0  0
 12 14  2  0  0  0  0
 14 33  1  0  0  0  0
 15 16  1  0  0  0  0
 15 17  2  0  0  0  0
 15 18  2  0  0  0  0
 16 34  1  0  0  0  0
 16 35  1  0  0  0  0
 16 36  1  0  0  0  0
M  END
>  <DRUGBANK_ID>
DB16229

>  <COMMON_NAME>
Mesdopetam

>  <CAS_NUMBER>
1403894-72-3

>  <UNII>
HD4QV8GX26

>  <SYNONYMS>
Mesdopetam

$$$$
