
 OpenBabel10282417123D

 17 17  0  0  0  0  0  0  0  0999 V2000
    2.3253    0.0037   -0.0437 N   0  0  0  0  0  0  0  0  0  0  0  0
    0.9453   -0.0035    0.0065 C   0  0  0  0  0  0  0  0  0  0  0  0
    0.2214    1.1875   -0.0056 C   0  0  0  0  0  0  0  0  0  0  0  0
   -1.1798    1.1719    0.0037 C   0  0  0  0  0  0  0  0  0  0  0  0
   -1.8866   -0.0418    0.0049 C   0  0  0  0  0  0  0  0  0  0  0  0
   -1.1576   -1.2353   -0.0013 C   0  0  0  0  0  0  0  0  0  0  0  0
    0.2437   -1.2090   -0.0013 C   0  0  0  0  0  0  0  0  0  0  0  0
   -3.3799    0.0235    0.0108 C   0  0  0  0  0  0  0  0  0  0  0  0
   -4.0435   -1.1502    0.0081 O   0  0  0  0  0  0  0  0  0  0  0  0
   -3.9797    1.0905    0.0186 O   0  0  0  0  0  0  0  0  0  0  0  0
    2.8474   -0.8597    0.0207 H   0  0  0  0  0  0  0  0  0  0  0  0
    2.8370    0.8735    0.0204 H   0  0  0  0  0  0  0  0  0  0  0  0
    0.7404    2.1432   -0.0188 H   0  0  0  0  0  0  0  0  0  0  0  0
   -1.7149    2.1213    0.0079 H   0  0  0  0  0  0  0  0  0  0  0  0
   -1.6272   -2.2101   -0.0076 H   0  0  0  0  0  0  0  0  0  0  0  0
    0.7862   -2.1513   -0.0050 H   0  0  0  0  0  0  0  0  0  0  0  0
   -3.5290   -1.9723    0.0019 H   0  0  0  0  0  0  0  0  0  0  0  0
  1  2  1  0  0  0  0
  1 11  1  0  0  0  0
  1 12  1  0  0  0  0
  2  3  2  0  0  0  0
  2  7  1  0  0  0  0
  3  4  1  0  0  0  0
  3 13  1  0  0  0  0
  4  5  2  0  0  0  0
  4 14  1  0  0  0  0
  5  6  1  0  0  0  0
  5  8  1  0  0  0  0
  6  7  2  0  0  0  0
  6 15  1  0  0  0  0
  7 16  1  0  0  0  0
  8  9  1  0  0  0  0
  8 10  2  0  0  0  0
  9 17  1  0  0  0  0
M  END
>  <DRUGBANK_ID>
DB02362

>  <SECONDARY_ACCESSION_NUMBERS>
EXPT02486

>  <COMMON_NAME>
Aminobenzoic acid

>  <CAS_NUMBER>
150-13-0

>  <UNII>
TL2TJE8QTX

>  <SYNONYMS>
1-Amino-4-carboxybenzene; 4-aminobenzoic acid; 4-Carboxyaniline; Aminobenzoic acid; p-Aminobenzoic acid; p-Carboxyaniline; p-Carboxyphenylamine; para-Aminobenzoic acid

$$$$
