
 OpenBabel10282417233D

 41 43  0  0  0  0  0  0  0  0999 V2000
    0.9662   -0.0862    0.0240 C   0  0  0  0  0  0  0  0  0  0  0  0
    0.3689    1.2359    0.2991 N   0  0  0  0  0  0  0  0  0  0  0  0
   -0.3862    2.0225   -0.6590 N   0  0  0  0  0  0  0  0  0  0  0  0
   -0.7618    1.4692   -1.7670 C   0  0  0  0  0  0  0  0  0  0  0  0
   -1.5303    2.2109   -2.7177 C   0  0  0  0  0  0  0  0  0  0  0  0
   -1.3902    3.5430   -3.0460 C   0  0  0  0  0  0  0  0  0  0  0  0
   -2.2748    3.9199   -4.0148 N   0  0  0  0  0  0  0  0  0  0  0  0
   -2.9814    2.8435   -4.2769 C   0  0  0  0  0  0  0  0  0  0  0  0
   -4.0629    2.6460   -5.1787 C   0  0  0  0  0  0  0  0  0  0  0  0
   -4.6454    1.4364   -5.2753 C   0  0  0  0  0  0  0  0  0  0  0  0
   -4.1919    0.3110   -4.4688 C   0  0  0  0  0  0  0  0  0  0  0  0
   -5.0760   -1.3162   -4.6667 Br  0  0  0  0  0  0  0  0  0  0  0  0
   -3.1661    0.4896   -3.6140 C   0  0  0  0  0  0  0  0  0  0  0  0
   -2.5623    1.7497   -3.5187 N   0  0  0  0  0  0  0  0  0  0  0  0
    0.7864    1.8773    1.8547 S   0  0  0  0  0  0  0  0  0  0  0  0
    0.0672    1.1230    2.8566 O   0  0  0  0  0  0  0  0  0  0  0  0
    2.2391    1.8783    1.8871 O   0  0  0  0  0  0  0  0  0  0  0  0
    0.1391    3.5662    1.9123 C   0  0  0  0  0  0  0  0  0  0  0  0
   -1.2692    3.7027    1.8900 C   0  0  0  0  0  0  0  0  0  0  0  0
   -1.8529    4.9783    1.7839 C   0  0  0  0  0  0  0  0  0  0  0  0
   -1.0666    6.1261    1.8778 C   0  0  0  0  0  0  0  0  0  0  0  0
    0.3067    5.9893    2.0672 C   0  0  0  0  0  0  0  0  0  0  0  0
    0.9406    4.7234    2.0184 C   0  0  0  0  0  0  0  0  0  0  0  0
    2.4416    4.7677    2.0444 C   0  0  0  0  0  0  0  0  0  0  0  0
   -3.2933    5.1248    1.5184 N   0  3  0  0  0  0  0  0  0  0  0  0
   -3.7362    6.2720    1.3527 O   0  5  0  0  0  0  0  0  0  0  0  0
   -3.9767    4.0941    1.4551 O   0  0  0  0  0  0  0  0  0  0  0  0
    0.6981   -0.4929   -0.9485 H   0  0  0  0  0  0  0  0  0  0  0  0
    0.6215   -0.8077    0.7689 H   0  0  0  0  0  0  0  0  0  0  0  0
    2.0587   -0.0289    0.0346 H   0  0  0  0  0  0  0  0  0  0  0  0
   -0.5304    0.4358   -2.0564 H   0  0  0  0  0  0  0  0  0  0  0  0
   -0.6642    4.2362   -2.6392 H   0  0  0  0  0  0  0  0  0  0  0  0
   -4.4002    3.4887   -5.7714 H   0  0  0  0  0  0  0  0  0  0  0  0
   -5.4741    1.2897   -5.9631 H   0  0  0  0  0  0  0  0  0  0  0  0
   -2.7930   -0.3061   -2.9823 H   0  0  0  0  0  0  0  0  0  0  0  0
   -1.8985    2.8142    1.9212 H   0  0  0  0  0  0  0  0  0  0  0  0
   -1.4972    7.1237    1.7972 H   0  0  0  0  0  0  0  0  0  0  0  0
    0.8998    6.8930    2.2172 H   0  0  0  0  0  0  0  0  0  0  0  0
    2.7973    5.3548    1.1912 H   0  0  0  0  0  0  0  0  0  0  0  0
    2.7973    5.2133    2.9779 H   0  0  0  0  0  0  0  0  0  0  0  0
    2.9393    3.8153    1.9555 H   0  0  0  0  0  0  0  0  0  0  0  0
  1  2  1  0  0  0  0
  1 28  1  0  0  0  0
  1 29  1  0  0  0  0
  1 30  1  0  0  0  0
  2  3  1  0  0  0  0
  2 15  1  0  0  0  0
  3  4  2  0  0  0  0
  4  5  1  0  0  0  0
  4 31  1  0  0  0  0
  5  6  2  0  0  0  0
  5 14  1  0  0  0  0
  6  7  1  0  0  0  0
  6 32  1  0  0  0  0
  7  8  2  0  0  0  0
  8  9  1  0  0  0  0
  8 14  1  0  0  0  0
  9 10  2  0  0  0  0
  9 33  1  0  0  0  0
 10 11  1  0  0  0  0
 10 34  1  0  0  0  0
 11 12  1  0  0  0  0
 11 13  2  0  0  0  0
 13 14  1  0  0  0  0
 13 35  1  0  0  0  0
 15 16  2  0  0  0  0
 15 17  2  0  0  0  0
 15 18  1  0  0  0  0
 18 19  2  0  0  0  0
 18 23  1  0  0  0  0
 19 20  1  0  0  0  0
 19 36  1  0  0  0  0
 20 21  2  0  0  0  0
 20 25  1  0  0  0  0
 21 22  1  0  0  0  0
 21 37  1  0  0  0  0
 22 23  2  0  0  0  0
 22 38  1  0  0  0  0
 23 24  1  0  0  0  0
 24 39  1  0  0  0  0
 24 40  1  0  0  0  0
 24 41  1  0  0  0  0
 25 26  1  0  0  0  0
 25 27  2  0  0  0  0
M  CHG  2  25   1  26  -1
M  END
>  <DRUGBANK_ID>
DB17047

>  <COMMON_NAME>
PIK-75

>  <CAS_NUMBER>
945619-31-8

>  <UNII>
9058I8S63D

>  <SYNONYMS>
Benzenesulfonic acid, 2-methyl-5-nitro-, 2-((6-bromoimidazo(1,2-a)pyridin-3-yl)methylene)-1-methylhydrazide

$$$$
