
 OpenBabel10282417173D

 90 89  0  0  1  0  0  0  0  0999 V2000
    0.3738    1.5939   -0.4221 C   0  0  2  0  0  0  0  0  0  0  0  0
    1.7095    0.9889   -0.3531 C   0  0  0  0  0  0  0  0  0  0  0  0
   -0.4775    0.5262   -0.0116 N   0  0  0  0  0  0  0  0  0  0  0  0
    0.4263    2.2028   -1.8690 C   0  0  0  0  0  0  0  0  0  0  0  0
    2.3262    0.2986    1.4589 S   0  0  0  0  0  0  0  0  0  0  0  0
   -1.2988    0.0102   -0.9408 C   0  0  0  0  0  0  0  0  0  0  0  0
    0.3509    3.5758   -1.8678 N   0  0  0  0  0  0  0  0  0  0  0  0
    0.7184    1.5887   -2.8947 O   0  0  0  0  0  0  0  0  0  0  0  0
    2.8890    1.6520    2.4760 C   0  0  1  0  0  0  0  0  0  0  0  0
   -2.2160   -1.0343   -0.4498 C   0  0  0  0  0  0  0  0  0  0  0  0
   -1.4201    0.5087   -2.0718 O   0  0  0  0  0  0  0  0  0  0  0  0
   -0.0886    4.2157   -3.0814 C   0  0  0  0  0  0  0  0  0  0  0  0
    3.7503    2.7494    1.8629 C   0  0  2  0  0  0  0  0  0  0  0  0
    1.5531    2.1675    2.7808 C   0  0  0  0  0  0  0  0  0  0  0  0
   -3.5889   -0.3613   -0.3554 C   0  0  0  0  0  0  0  0  0  0  0  0
   -1.4878    4.7787   -2.8571 C   0  0  0  0  0  0  0  0  0  0  0  0
    3.4799    2.9524    0.3842 C   0  0  0  0  0  0  0  0  0  0  0  0
    5.1377    2.5410    2.0595 O   0  0  0  0  0  0  0  0  0  0  0  0
    0.8516    1.8653    3.8467 C   0  0  0  0  0  0  0  0  0  0  0  0
   -4.0691    0.2851   -1.6793 C   0  0  1  0  0  0  0  0  0  0  0  0
   -1.5672    6.1176   -3.0475 O   0  0  0  0  0  0  0  0  0  0  0  0
   -2.4426    4.1310   -2.4624 O   0  0  0  0  0  0  0  0  0  0  0  0
    4.2686    1.9366   -0.6421 C   0  0  0  0  0  0  0  0  0  0  0  0
   -0.4663    2.4070    3.8614 C   0  0  0  0  0  0  0  0  0  0  0  0
   -4.0775   -0.7527   -2.8449 C   0  0  0  0  0  0  0  0  0  0  0  0
   -5.3877    0.9145   -1.4673 N   0  0  0  0  0  0  0  0  0  0  0  0
    4.2473    0.1518   -0.6196 C   0  0  0  0  0  0  0  0  0  0  0  0
   -1.1124    2.3663    4.9922 C   0  0  0  0  0  0  0  0  0  0  0  0
   -5.3035   -0.9097   -3.4162 O   0  0  0  0  0  0  0  0  0  0  0  0
   -3.1420   -1.4108   -3.2210 O   0  0  0  0  0  0  0  0  0  0  0  0
    3.0730   -1.2148   -0.7893 C   0  0  0  0  0  0  0  0  0  0  0  0
   -2.3785    2.9915    5.1927 C   0  0  0  0  0  0  0  0  0  0  0  0
    3.0224   -1.7451   -2.0200 O   0  0  0  0  0  0  0  0  0  0  0  0
    2.2261   -1.6872   -0.0341 O   0  0  0  0  0  0  0  0  0  0  0  0
   -2.9638    2.9405    6.3833 C   0  0  0  0  0  0  0  0  0  0  0  0
   -2.3695    2.2302    7.5514 C   0  0  0  0  0  0  0  0  0  0  0  0
   -2.2263    3.1495    8.7041 C   0  0  0  0  0  0  0  0  0  0  0  0
   -2.8117    2.9084    9.8768 C   0  0  0  0  0  0  0  0  0  0  0  0
   -3.6320    1.6810   10.1510 C   0  0  0  0  0  0  0  0  0  0  0  0
   -2.9915    0.8429   11.2471 C   0  0  0  0  0  0  0  0  0  0  0  0
   -2.9958    1.5826   12.5825 C   0  0  0  0  0  0  0  0  0  0  0  0
   -4.4072    2.0131   12.9919 C   0  0  0  0  0  0  0  0  0  0  0  0
   -5.3228    0.8087   13.1485 C   0  0  0  0  0  0  0  0  0  0  0  0
    0.2630    2.4050    0.2812 H   0  0  0  0  0  0  0  0  0  0  0  0
    1.6568    0.2056   -1.1147 H   0  0  0  0  0  0  0  0  0  0  0  0
    2.3595    1.6127   -0.9274 H   0  0  0  0  0  0  0  0  0  0  0  0
   -0.0684   -0.1447    0.6514 H   0  0  0  0  0  0  0  0  0  0  0  0
    0.2382    4.0555   -0.9852 H   0  0  0  0  0  0  0  0  0  0  0  0
    3.3805    1.2271    3.3665 H   0  0  0  0  0  0  0  0  0  0  0  0
   -2.1773   -1.8717   -1.1461 H   0  0  0  0  0  0  0  0  0  0  0  0
   -1.8878   -1.4141    0.5246 H   0  0  0  0  0  0  0  0  0  0  0  0
    0.6430    4.9893   -3.3149 H   0  0  0  0  0  0  0  0  0  0  0  0
   -0.1456    3.5120   -3.9170 H   0  0  0  0  0  0  0  0  0  0  0  0
    3.4983    3.6696    2.4121 H   0  0  0  0  0  0  0  0  0  0  0  0
    1.0601    2.7094    1.9889 H   0  0  0  0  0  0  0  0  0  0  0  0
   -4.3077   -1.1095   -0.0126 H   0  0  0  0  0  0  0  0  0  0  0  0
   -3.5361    0.4182    0.4222 H   0  0  0  0  0  0  0  0  0  0  0  0
    2.3935    2.9853    0.2762 H   0  0  0  0  0  0  0  0  0  0  0  0
    3.6623    4.0046    0.1195 H   0  0  0  0  0  0  0  0  0  0  0  0
    5.4046    1.7986    1.4950 H   0  0  0  0  0  0  0  0  0  0  0  0
    1.2581    1.2606    4.6588 H   0  0  0  0  0  0  0  0  0  0  0  0
   -3.4477    1.1328   -1.9798 H   0  0  0  0  0  0  0  0  0  0  0  0
   -0.7360    6.5500   -3.3162 H   0  0  0  0  0  0  0  0  0  0  0  0
    3.9997    2.2826   -1.6570 H   0  0  0  0  0  0  0  0  0  0  0  0
    5.3180    2.2495   -0.5506 H   0  0  0  0  0  0  0  0  0  0  0  0
   -0.8723    2.9065    2.9834 H   0  0  0  0  0  0  0  0  0  0  0  0
   -5.6424    1.4866   -2.2698 H   0  0  0  0  0  0  0  0  0  0  0  0
   -6.0948    0.2598   -1.1618 H   0  0  0  0  0  0  0  0  0  0  0  0
    4.9338   -0.0926   -1.4331 H   0  0  0  0  0  0  0  0  0  0  0  0
    4.7875   -0.0763    0.3072 H   0  0  0  0  0  0  0  0  0  0  0  0
   -0.5982    1.8580    5.8012 H   0  0  0  0  0  0  0  0  0  0  0  0
   -5.9516   -0.3049   -3.0240 H   0  0  0  0  0  0  0  0  0  0  0  0
   -2.8493    3.5067    4.3611 H   0  0  0  0  0  0  0  0  0  0  0  0
    3.4973   -1.2327   -2.6745 H   0  0  0  0  0  0  0  0  0  0  0  0
   -3.9414    3.3962    6.5143 H   0  0  0  0  0  0  0  0  0  0  0  0
   -3.0022    1.3593    7.6964 H   0  0  0  0  0  0  0  0  0  0  0  0
   -1.3807    1.7921    7.4248 H   0  0  0  0  0  0  0  0  0  0  0  0
   -1.5923    4.0266    8.5801 H   0  0  0  0  0  0  0  0  0  0  0  0
   -2.6576    3.6271   10.6778 H   0  0  0  0  0  0  0  0  0  0  0  0
   -4.6553    1.9911   10.3719 H   0  0  0  0  0  0  0  0  0  0  0  0
   -3.7565    1.0128    9.3018 H   0  0  0  0  0  0  0  0  0  0  0  0
   -3.5360   -0.1048   11.3264 H   0  0  0  0  0  0  0  0  0  0  0  0
   -1.9671    0.5625   10.9693 H   0  0  0  0  0  0  0  0  0  0  0  0
   -2.5573    0.9397   13.3516 H   0  0  0  0  0  0  0  0  0  0  0  0
   -2.3488    2.4657   12.5221 H   0  0  0  0  0  0  0  0  0  0  0  0
   -4.3576    2.5753   13.9278 H   0  0  0  0  0  0  0  0  0  0  0  0
   -4.8390    2.7071   12.2612 H   0  0  0  0  0  0  0  0  0  0  0  0
   -4.9227    0.1339   13.9105 H   0  0  0  0  0  0  0  0  0  0  0  0
   -6.3266    1.1233   13.4388 H   0  0  0  0  0  0  0  0  0  0  0  0
   -5.4251    0.2423   12.2166 H   0  0  0  0  0  0  0  0  0  0  0  0
  1  2  1  0  0  0  0
  1  3  1  0  0  0  0
  1  4  1  0  0  0  0
  1 44  1  1  0  0  0
  2  5  1  0  0  0  0
  2 45  1  0  0  0  0
  2 46  1  0  0  0  0
  3  6  1  0  0  0  0
  3 47  1  0  0  0  0
  4  7  1  0  0  0  0
  4  8  2  0  0  0  0
  6 10  1  0  0  0  0
  6 11  2  0  0  0  0
  7 12  1  0  0  0  0
  7 48  1  0  0  0  0
  9  5  1  0  0  0  0
  9 14  1  0  0  0  0
  9 49  1  1  0  0  0
 10 15  1  0  0  0  0
 10 50  1  0  0  0  0
 10 51  1  0  0  0  0
 12 16  1  0  0  0  0
 12 52  1  0  0  0  0
 12 53  1  0  0  0  0
 13 18  1  0  0  0  0
 13 54  1  1  0  0  0
 13 17  1  0  0  0  0
 13  9  1  0  0  0  0
 14 19  2  0  0  0  0
 14 55  1  0  0  0  0
 15 20  1  0  0  0  0
 15 56  1  0  0  0  0
 15 57  1  0  0  0  0
 16 21  1  0  0  0  0
 16 22  2  0  0  0  0
 17 23  1  0  0  0  0
 17 58  1  0  0  0  0
 17 59  1  0  0  0  0
 18 60  1  0  0  0  0
 19 24  1  0  0  0  0
 19 61  1  0  0  0  0
 20 25  1  0  0  0  0
 20 26  1  0  0  0  0
 20 62  1  6  0  0  0
 21 63  1  0  0  0  0
 23 27  1  0  0  0  0
 23 64  1  0  0  0  0
 23 65  1  0  0  0  0
 24 28  2  0  0  0  0
 24 66  1  0  0  0  0
 25 29  1  0  0  0  0
 25 30  2  0  0  0  0
 26 67  1  0  0  0  0
 26 68  1  0  0  0  0
 27 31  1  0  0  0  0
 27 69  1  0  0  0  0
 27 70  1  0  0  0  0
 28 32  1  0  0  0  0
 28 71  1  0  0  0  0
 29 72  1  0  0  0  0
 31 33  1  0  0  0  0
 31 34  2  0  0  0  0
 32 35  2  0  0  0  0
 32 73  1  0  0  0  0
 33 74  1  0  0  0  0
 35 36  1  0  0  0  0
 35 75  1  0  0  0  0
 36 37  1  0  0  0  0
 36 76  1  0  0  0  0
 36 77  1  0  0  0  0
 37 38  2  0  0  0  0
 37 78  1  0  0  0  0
 38 39  1  0  0  0  0
 38 79  1  0  0  0  0
 39 40  1  0  0  0  0
 39 80  1  0  0  0  0
 39 81  1  0  0  0  0
 40 41  1  0  0  0  0
 40 82  1  0  0  0  0
 40 83  1  0  0  0  0
 41 42  1  0  0  0  0
 41 84  1  0  0  0  0
 41 85  1  0  0  0  0
 42 43  1  0  0  0  0
 42 86  1  0  0  0  0
 42 87  1  0  0  0  0
 43 88  1  0  0  0  0
 43 89  1  0  0  0  0
 43 90  1  0  0  0  0
M  END
>  <DRUGBANK_ID>
DB08855

>  <COMMON_NAME>
Leukotriene C4

>  <CAS_NUMBER>
72025-60-6

>  <UNII>
2CU6TT9V48

>  <SYNONYMS>
(R-(R*,S*-(E,E,Z,Z)))-N-(S-(1-(4-Carboxy-1-hydroxybutyl)-2,4,6,9-pentadecatetraenyl)-N-L-gamma-glutamyl-L-cysteinyl)glycine; L-Î³-glutamyl-S-[(1R,2E,4E,6Z,9Z)-1-[(1S)-4-carboxy-1-hydroxybutyl]pentadeca-2,4,6,9-tetraen-1-yl]-L-cysteinylglycine; LTC (sub 4); LTC4

$$$$
