ZAH
 OpenBabel10282417133D

 43 44  0  0  0  0  0  0  0  0999 V2000
    4.0700    1.3785    0.2385 C   0  0  0  0  0  0  0  0  0  0  0  0
    4.1686    0.7298    1.2728 O   0  0  0  0  0  0  0  0  0  0  0  0
    4.5032    2.6583    0.1703 O   0  0  0  0  0  0  0  0  0  0  0  0
    3.2252    0.9660   -0.9837 C   0  0  2  0  0  0  0  0  0  0  0  0
    4.2848    0.9781   -2.0860 C   0  0  0  0  0  0  0  0  0  0  0  0
    3.5079    0.7818   -3.3616 C   0  0  0  0  0  0  0  0  0  0  0  0
    2.1607    1.4483   -3.0838 C   0  0  0  0  0  0  0  0  0  0  0  0
    2.1348    1.7591   -1.6404 N   0  0  0  0  0  0  0  0  0  0  0  0
    1.0338    2.4836   -1.1652 C   0  0  0  0  0  0  0  0  0  0  0  0
    0.1972    2.9120   -1.9776 O   0  0  0  0  0  0  0  0  0  0  0  0
    0.7343    2.7691    0.3467 C   0  0  2  0  0  0  0  0  0  0  0  0
    1.9206    2.7524    1.2385 C   0  0  0  0  0  0  0  0  0  0  0  0
   -0.1827    1.7961    0.8929 N   0  0  0  0  0  0  0  0  0  0  0  0
   -0.9872    2.1251    1.9476 C   0  0  0  0  0  0  0  0  0  0  0  0
   -1.3144    1.2872    2.7553 O   0  0  0  0  0  0  0  0  0  0  0  0
   -1.3438    3.4368    1.9129 O   0  0  0  0  0  0  0  0  0  0  0  0
   -2.4495    3.8767    2.7158 C   0  0  0  0  0  0  0  0  0  0  0  0
   -3.7669    3.4380    2.1182 C   0  0  0  0  0  0  0  0  0  0  0  0
   -4.0389    2.0689    1.9873 C   0  0  0  0  0  0  0  0  0  0  0  0
   -5.2173    1.5828    1.4529 C   0  0  0  0  0  0  0  0  0  0  0  0
   -6.2141    2.4743    1.1158 C   0  0  0  0  0  0  0  0  0  0  0  0
   -6.0071    3.8440    1.2978 C   0  0  0  0  0  0  0  0  0  0  0  0
   -4.7688    4.3346    1.7380 C   0  0  0  0  0  0  0  0  0  0  0  0
    2.8369   -0.0501   -0.8267 H   0  0  0  0  0  0  0  0  0  0  0  0
    0.3247    3.7838    0.4209 H   0  0  0  0  0  0  0  0  0  0  0  0
    4.5561    2.9770    1.0968 H   0  0  0  0  0  0  0  0  0  0  0  0
    4.7677    1.9658   -2.1248 H   0  0  0  0  0  0  0  0  0  0  0  0
    5.0677    0.2352   -1.9149 H   0  0  0  0  0  0  0  0  0  0  0  0
    4.0290    1.2301   -4.2130 H   0  0  0  0  0  0  0  0  0  0  0  0
    3.3951   -0.2890   -3.5599 H   0  0  0  0  0  0  0  0  0  0  0  0
    2.0176    2.3573   -3.6760 H   0  0  0  0  0  0  0  0  0  0  0  0
    1.3509    0.7494   -3.3394 H   0  0  0  0  0  0  0  0  0  0  0  0
    1.8478    2.6316    2.3217 H   0  0  0  0  0  0  0  0  0  0  0  0
    2.2588    1.7729    0.9926 H   0  0  0  0  0  0  0  0  0  0  0  0
    2.5799    3.5853    0.9990 H   0  0  0  0  0  0  0  0  0  0  0  0
    0.1165    0.8301    0.9333 H   0  0  0  0  0  0  0  0  0  0  0  0
   -2.3495    3.5376    3.7525 H   0  0  0  0  0  0  0  0  0  0  0  0
   -2.3922    4.9740    2.7388 H   0  0  0  0  0  0  0  0  0  0  0  0
   -3.3428    1.3137    2.3123 H   0  0  0  0  0  0  0  0  0  0  0  0
   -5.3337    0.5088    1.3490 H   0  0  0  0  0  0  0  0  0  0  0  0
   -7.1511    2.0927    0.7266 H   0  0  0  0  0  0  0  0  0  0  0  0
   -6.8271    4.5292    1.1053 H   0  0  0  0  0  0  0  0  0  0  0  0
   -4.6151    5.4104    1.7937 H   0  0  0  0  0  0  0  0  0  0  0  0
  1  2  2  0  0  0  0
  1  3  1  0  0  0  0
  3 26  1  0  0  0  0
  4  1  1  0  0  0  0
  4  5  1  0  0  0  0
  4  8  1  0  0  0  0
  4 24  1  1  0  0  0
  5  6  1  0  0  0  0
  5 27  1  0  0  0  0
  5 28  1  0  0  0  0
  6  7  1  0  0  0  0
  6 29  1  0  0  0  0
  6 30  1  0  0  0  0
  7  8  1  0  0  0  0
  7 31  1  0  0  0  0
  7 32  1  0  0  0  0
  8  9  1  0  0  0  0
  9 10  2  0  0  0  0
 11 13  1  0  0  0  0
 11 25  1  1  0  0  0
 11 12  1  0  0  0  0
 11  9  1  0  0  0  0
 12 33  1  0  0  0  0
 12 34  1  0  0  0  0
 12 35  1  0  0  0  0
 13 14  1  0  0  0  0
 13 36  1  0  0  0  0
 14 15  2  0  0  0  0
 14 16  1  0  0  0  0
 16 17  1  0  0  0  0
 17 18  1  0  0  0  0
 17 37  1  0  0  0  0
 17 38  1  0  0  0  0
 18 19  2  0  0  0  0
 18 23  1  0  0  0  0
 19 20  1  0  0  0  0
 19 39  1  0  0  0  0
 20 21  2  0  0  0  0
 20 40  1  0  0  0  0
 21 22  1  0  0  0  0
 21 41  1  0  0  0  0
 22 23  2  0  0  0  0
 22 42  1  0  0  0  0
 23 43  1  0  0  0  0
M  END
>  <DRUGBANK_ID>
DB04033

>  <SECONDARY_ACCESSION_NUMBERS>
EXPT03282

>  <COMMON_NAME>
Z-Ala Prolinal

>  <UNII>
P6X7ZC6L89

$$$$
