
 OpenBabel10282417153D

 56 58  0  0  0  0  0  0  0  0999 V2000
    0.4848   -0.1190   -0.4105 C   0  0  0  0  0  0  0  0  0  0  0  0
    0.2572    1.2016   -1.0900 C   0  0  0  0  0  0  0  0  0  0  0  0
    0.9978    1.1380   -2.3763 C   0  0  0  0  0  0  0  0  0  0  0  0
    0.3948    1.0159   -3.4350 O   0  0  0  0  0  0  0  0  0  0  0  0
    2.4060    1.1501   -2.3725 N   0  0  0  0  0  0  0  0  0  0  0  0
    3.6268    1.1916   -1.2182 S   0  0  0  0  0  0  0  0  0  0  0  0
    4.2381   -0.1133   -1.2404 O   0  0  0  0  0  0  0  0  0  0  0  0
    4.4344    2.3483   -1.5801 O   0  0  0  0  0  0  0  0  0  0  0  0
    2.9761    1.4586    0.4630 C   0  0  0  0  0  0  0  0  0  0  0  0
    2.7304    0.3301    1.2818 C   0  0  0  0  0  0  0  0  0  0  0  0
    1.8351    0.3791    2.3806 C   0  0  0  0  0  0  0  0  0  0  0  0
    1.1956   -0.7911    2.8655 N   0  0  0  0  0  0  0  0  0  0  0  0
    1.3423   -2.1037    2.3996 C   0  0  0  0  0  0  0  0  0  0  0  0
    2.5892   -2.5309    2.1668 N   0  0  0  0  0  0  0  0  0  0  0  0
    2.7559   -3.7841    1.7221 C   0  0  0  0  0  0  0  0  0  0  0  0
    1.7158   -4.6363    1.4860 C   0  0  0  0  0  0  0  0  0  0  0  0
    1.9341   -5.8917    1.0711 F   0  0  0  0  0  0  0  0  0  0  0  0
    0.4468   -4.1420    1.7308 C   0  0  0  0  0  0  0  0  0  0  0  0
   -0.6558   -5.0195    1.6277 N   0  0  0  0  0  0  0  0  0  0  0  0
   -2.0049   -4.6390    1.6231 C   0  0  0  0  0  0  0  0  0  0  0  0
   -2.4810   -3.6238    0.7951 C   0  0  0  0  0  0  0  0  0  0  0  0
   -3.8296   -3.2657    0.8124 C   0  0  0  0  0  0  0  0  0  0  0  0
   -4.7280   -3.8943    1.6745 C   0  0  0  0  0  0  0  0  0  0  0  0
   -6.0352   -3.5184    1.8680 O   0  0  0  0  0  0  0  0  0  0  0  0
   -6.5093   -2.3257    1.2049 C   0  0  0  0  0  0  0  0  0  0  0  0
   -5.6675   -1.1112    1.5610 C   0  0  0  0  0  0  0  0  0  0  0  0
   -4.9453   -0.0694    1.8664 C   0  0  0  0  0  0  0  0  0  0  0  0
   -4.2689   -4.9616    2.4511 C   0  0  0  0  0  0  0  0  0  0  0  0
   -2.9141   -5.3210    2.4343 C   0  0  0  0  0  0  0  0  0  0  0  0
    0.2599   -2.8771    2.2055 N   0  0  0  0  0  0  0  0  0  0  0  0
    1.4122    1.6415    2.8016 C   0  0  0  0  0  0  0  0  0  0  0  0
    1.8216    2.7948    2.1054 C   0  0  0  0  0  0  0  0  0  0  0  0
    2.5898    2.7204    0.9228 C   0  0  0  0  0  0  0  0  0  0  0  0
    2.9067    3.9701    0.1597 C   0  0  0  0  0  0  0  0  0  0  0  0
   -0.0416   -0.9743   -0.8225 H   0  0  0  0  0  0  0  0  0  0  0  0
    0.1906   -0.0099    0.6268 H   0  0  0  0  0  0  0  0  0  0  0  0
    1.5220   -0.4246   -0.5315 H   0  0  0  0  0  0  0  0  0  0  0  0
   -0.8160    1.3533   -1.2209 H   0  0  0  0  0  0  0  0  0  0  0  0
    0.6138    2.0799   -0.5506 H   0  0  0  0  0  0  0  0  0  0  0  0
    2.7878    0.9698   -3.3016 H   0  0  0  0  0  0  0  0  0  0  0  0
    3.0244   -0.6431    0.8949 H   0  0  0  0  0  0  0  0  0  0  0  0
    0.4394   -0.7083    3.5305 H   0  0  0  0  0  0  0  0  0  0  0  0
    3.7863   -4.0825    1.5790 H   0  0  0  0  0  0  0  0  0  0  0  0
   -0.4676   -5.9012    1.1588 H   0  0  0  0  0  0  0  0  0  0  0  0
   -1.8048   -3.0724    0.1479 H   0  0  0  0  0  0  0  0  0  0  0  0
   -4.1279   -2.4566    0.1567 H   0  0  0  0  0  0  0  0  0  0  0  0
   -6.5030   -2.4960    0.1221 H   0  0  0  0  0  0  0  0  0  0  0  0
   -7.5471   -2.1599    1.5103 H   0  0  0  0  0  0  0  0  0  0  0  0
   -4.3525    0.7784    2.1208 H   0  0  0  0  0  0  0  0  0  0  0  0
   -4.9537   -5.5067    3.0953 H   0  0  0  0  0  0  0  0  0  0  0  0
   -2.5518   -6.0891    3.1137 H   0  0  0  0  0  0  0  0  0  0  0  0
    0.7108    1.7491    3.6281 H   0  0  0  0  0  0  0  0  0  0  0  0
    1.4690    3.7636    2.4577 H   0  0  0  0  0  0  0  0  0  0  0  0
    3.9893    4.0499    0.0298 H   0  0  0  0  0  0  0  0  0  0  0  0
    2.4073    3.9648   -0.8153 H   0  0  0  0  0  0  0  0  0  0  0  0
    2.5875    4.8645    0.6985 H   0  0  0  0  0  0  0  0  0  0  0  0
  1  2  1  0  0  0  0
  1 35  1  0  0  0  0
  1 36  1  0  0  0  0
  1 37  1  0  0  0  0
  2  3  1  0  0  0  0
  2 38  1  0  0  0  0
  2 39  1  0  0  0  0
  3  4  2  0  0  0  0
  3  5  1  0  0  0  0
  5  6  1  0  0  0  0
  5 40  1  0  0  0  0
  6  7  2  0  0  0  0
  6  8  2  0  0  0  0
  6  9  1  0  0  0  0
  9 10  2  0  0  0  0
  9 33  1  0  0  0  0
 10 11  1  0  0  0  0
 10 41  1  0  0  0  0
 11 12  1  0  0  0  0
 11 31  2  0  0  0  0
 12 13  1  0  0  0  0
 12 42  1  0  0  0  0
 13 14  2  0  0  0  0
 13 30  1  0  0  0  0
 14 15  1  0  0  0  0
 15 16  2  0  0  0  0
 15 43  1  0  0  0  0
 16 17  1  0  0  0  0
 16 18  1  0  0  0  0
 18 19  1  0  0  0  0
 18 30  2  0  0  0  0
 19 20  1  0  0  0  0
 19 44  1  0  0  0  0
 20 21  2  0  0  0  0
 20 29  1  0  0  0  0
 21 22  1  0  0  0  0
 21 45  1  0  0  0  0
 22 23  2  0  0  0  0
 22 46  1  0  0  0  0
 23 24  1  0  0  0  0
 23 28  1  0  0  0  0
 24 25  1  0  0  0  0
 25 26  1  0  0  0  0
 25 47  1  0  0  0  0
 25 48  1  0  0  0  0
 26 27  3  0  0  0  0
 27 49  1  0  0  0  0
 28 29  2  0  0  0  0
 28 50  1  0  0  0  0
 29 51  1  0  0  0  0
 31 32  1  0  0  0  0
 31 52  1  0  0  0  0
 32 33  2  0  0  0  0
 32 53  1  0  0  0  0
 33 34  1  0  0  0  0
 34 54  1  0  0  0  0
 34 55  1  0  0  0  0
 34 56  1  0  0  0  0
M  END
>  <DRUGBANK_ID>
DB06321

>  <COMMON_NAME>
R-348

>  <CAS_NUMBER>
916742-11-5

>  <UNII>
3J396119JY

>  <SYNONYMS>
5-Fluoro-N-(4-methyl-3-propionylaminosulfonylphenyl)-N'-(4-(prop-2-ynyloxy)phenyl)-2,4-pyrimidinediamine

$$$$
