
 OpenBabel10282417183D

 47 50  0  0  1  0  0  0  0  0999 V2000
   -0.6162    6.1181   -1.3308 C   0  0  0  0  0  0  0  0  0  0  0  0
    0.3405    5.9345   -0.1471 N   0  3  0  0  0  0  0  0  0  0  0  0
    0.4323    4.5681    0.5624 C   0  0  2  0  0  0  0  0  0  0  0  0
    1.0596    3.4059   -0.2315 C   0  0  0  0  0  0  0  0  0  0  0  0
    2.4561    3.7787   -0.8010 C   0  0  2  0  0  0  0  0  0  0  0  0
    2.6297    5.2907   -1.1994 C   0  0  0  0  0  0  0  0  0  0  0  0
    1.8826    6.2633   -0.2641 C   0  0  1  0  0  0  0  0  0  0  0  0
    2.3616    6.0375    1.1501 C   0  0  1  0  0  0  0  0  0  0  0  0
    1.3946    4.9063    1.7191 C   0  0  2  0  0  0  0  0  0  0  0  0
    2.7879    4.7556    1.5575 O   0  0  0  0  0  0  0  0  0  0  0  0
    3.0398    2.7930   -1.6882 O   0  0  0  0  0  0  0  0  0  0  0  0
    3.1261    2.4908   -2.9976 C   0  0  0  0  0  0  0  0  0  0  0  0
    4.0130    1.7496   -3.3551 O   0  0  0  0  0  0  0  0  0  0  0  0
    2.0343    2.9331   -3.9828 C   0  0  2  0  0  0  0  0  0  0  0  0
    1.6432    4.3962   -4.0393 C   0  0  0  0  0  0  0  0  0  0  0  0
    0.8052    4.7048   -2.9543 O   0  0  0  0  0  0  0  0  0  0  0  0
    0.8040    2.0332   -3.8921 C   0  0  0  0  0  0  0  0  0  0  0  0
    0.7796    0.8752   -4.6488 C   0  0  0  0  0  0  0  0  0  0  0  0
   -0.3077    0.0090   -4.5345 C   0  0  0  0  0  0  0  0  0  0  0  0
   -1.3188    0.2220   -3.5919 C   0  0  0  0  0  0  0  0  0  0  0  0
   -1.2943    1.3414   -2.8050 C   0  0  0  0  0  0  0  0  0  0  0  0
   -0.3225    2.2767   -3.0729 C   0  0  0  0  0  0  0  0  0  0  0  0
   -0.2781    6.9249    0.9177 C   0  0  0  0  0  0  0  0  0  0  0  0
   -0.0911    6.4980   -2.2059 H   0  0  0  0  0  0  0  0  0  0  0  0
   -1.3510    6.9032   -1.0939 H   0  0  0  0  0  0  0  0  0  0  0  0
   -1.1999    5.2066   -1.4799 H   0  0  0  0  0  0  0  0  0  0  0  0
   -0.5902    4.3103    0.8631 H   0  0  0  0  0  0  0  0  0  0  0  0
    0.4861    2.9290   -1.0064 H   0  0  0  0  0  0  0  0  0  0  0  0
    1.0241    2.5487    0.4605 H   0  0  0  0  0  0  0  0  0  0  0  0
    3.1499    3.5906    0.0168 H   0  0  0  0  0  0  0  0  0  0  0  0
    3.6964    5.4669   -1.3943 H   0  0  0  0  0  0  0  0  0  0  0  0
    2.2827    5.6510   -2.1505 H   0  0  0  0  0  0  0  0  0  0  0  0
    1.9347    7.2952   -0.6362 H   0  0  0  0  0  0  0  0  0  0  0  0
    3.0780    6.7702    1.4670 H   0  0  0  0  0  0  0  0  0  0  0  0
    1.0734    4.5276    2.6672 H   0  0  0  0  0  0  0  0  0  0  0  0
    2.5291    2.7906   -4.9539 H   0  0  0  0  0  0  0  0  0  0  0  0
    2.5062    5.0682   -4.0361 H   0  0  0  0  0  0  0  0  0  0  0  0
    1.0043    4.6181   -4.8858 H   0  0  0  0  0  0  0  0  0  0  0  0
    1.0150    3.9876   -2.3451 H   0  0  0  0  0  0  0  0  0  0  0  0
    1.5822    0.6598   -5.3520 H   0  0  0  0  0  0  0  0  0  0  0  0
   -0.3616   -0.8568   -5.1823 H   0  0  0  0  0  0  0  0  0  0  0  0
   -2.1535   -0.4592   -3.4938 H   0  0  0  0  0  0  0  0  0  0  0  0
   -2.0300    1.5413   -2.0308 H   0  0  0  0  0  0  0  0  0  0  0  0
   -0.5603    3.2068   -2.5821 H   0  0  0  0  0  0  0  0  0  0  0  0
    0.4003    7.0777    1.7577 H   0  0  0  0  0  0  0  0  0  0  0  0
   -0.4410    7.8929    0.4415 H   0  0  0  0  0  0  0  0  0  0  0  0
   -1.2029    6.4647    1.2779 H   0  0  0  0  0  0  0  0  0  0  0  0
  1 24  1  0  0  0  0
  1 25  1  0  0  0  0
  1 26  1  0  0  0  0
  1  2  1  0  0  0  0
  2  3  1  0  0  0  0
  2  7  1  0  0  0  0
  2 23  1  0  0  0  0
  3  4  1  0  0  0  0
  3  9  1  0  0  0  0
  3 27  1  6  0  0  0
  4  5  1  0  0  0  0
  4 28  1  0  0  0  0
  4 29  1  0  0  0  0
  5  6  1  0  0  0  0
  5 11  1  0  0  0  0
  5 30  1  1  0  0  0
  6 31  1  0  0  0  0
  6 32  1  0  0  0  0
  7  6  1  0  0  0  0
  7  8  1  0  0  0  0
  7 33  1  1  0  0  0
  8  9  1  0  0  0  0
  8 10  1  0  0  0  0
  8 34  1  1  0  0  0
  9 10  1  0  0  0  0
  9 35  1  1  0  0  0
 11 12  1  0  0  0  0
 12 13  2  0  0  0  0
 14 17  1  0  0  0  0
 14 36  1  6  0  0  0
 14 15  1  0  0  0  0
 14 12  1  0  0  0  0
 15 16  1  0  0  0  0
 15 37  1  0  0  0  0
 15 38  1  0  0  0  0
 16 39  1  0  0  0  0
 17 18  2  0  0  0  0
 17 22  1  0  0  0  0
 18 19  1  0  0  0  0
 18 40  1  0  0  0  0
 19 20  2  0  0  0  0
 19 41  1  0  0  0  0
 20 21  1  0  0  0  0
 20 42  1  0  0  0  0
 21 22  2  0  0  0  0
 21 43  1  0  0  0  0
 22 44  1  0  0  0  0
 23 45  1  0  0  0  0
 23 46  1  0  0  0  0
 23 47  1  0  0  0  0
M  CHG  1   2   1
M  END
>  <DRUGBANK_ID>
DB11315

>  <COMMON_NAME>
Methscopolamine

>  <CAS_NUMBER>
13265-10-6

>  <UNII>
VDR09VTQ8U

>  <SYNONYMS>
Methylscopolamine

$$$$
