
 OpenBabel10282417183D

 76 83  0  0  0  0  0  0  0  0999 V2000
    1.0175    0.0544    0.1904 C   0  0  0  0  0  0  0  0  0  0  0  0
    0.6634   -1.4158    0.0774 N   0  0  0  0  0  0  0  0  0  0  0  0
    0.6033    0.6421    1.4949 C   0  0  0  0  0  0  0  0  0  0  0  0
    0.3818   -0.2136    2.5227 O   0  0  0  0  0  0  0  0  0  0  0  0
    0.5064    1.9005    1.8569 N   0  0  0  0  0  0  0  0  0  0  0  0
    0.5051    0.9920   -0.9617 C   0  0  0  0  0  0  0  0  0  0  0  0
    2.5473    0.0936    0.0795 C   0  0  0  0  0  0  0  0  0  0  0  0
    1.9583   -3.4618   -3.3663 C   0  0  0  0  0  0  0  0  0  0  0  0
    3.1026   -4.4027   -3.8870 C   0  0  0  0  0  0  0  0  0  0  0  0
    0.3214   -3.9833   -3.1515 C   0  0  0  0  0  0  0  0  0  0  0  0
   -1.8022   -3.9593   -2.4784 C   0  0  0  0  0  0  0  0  0  0  0  0
   -2.5009   -2.8530   -2.1059 C   0  0  1  0  0  0  0  0  0  0  0  0
   -3.1796   -2.3724   -3.3351 N   0  0  0  0  0  0  0  0  0  0  0  0
    0.1319   -3.9717   -0.8958 C   0  0  0  0  0  0  0  0  0  0  0  0
   -0.9879   -3.1092   -2.0049 C   0  0  2  0  0  0  0  0  0  0  0  0
   -1.7177   -3.5228   -5.0555 C   0  0  0  0  0  0  0  0  0  0  0  0
   -3.1197   -3.1963   -4.6152 C   0  0  0  0  0  0  0  0  0  0  0  0
   -0.7150   -4.3279   -3.7371 C   0  0  2  0  0  0  0  0  0  0  0  0
   -0.8558   -5.6480   -2.1355 C   0  0  2  0  0  0  0  0  0  0  0  0
   -1.3773   -4.7605   -0.2892 C   0  0  0  0  0  0  0  0  0  0  0  0
   -0.7575   -3.5688    0.0534 C   0  0  0  0  0  0  0  0  0  0  0  0
   -0.3165   -2.2270    0.7701 C   0  0  0  0  0  0  0  0  0  0  0  0
   -0.9815   -1.8492    1.7247 O   0  0  0  0  0  0  0  0  0  0  0  0
   -1.9437   -4.9628    1.2483 O   0  0  0  0  0  0  0  0  0  0  0  0
   -1.6003   -6.0956   -2.8649 H   0  0  0  0  0  0  0  0  0  0  0  0
    0.4952   -4.7235   -4.1919 C   0  0  0  0  0  0  0  0  0  0  0  0
    0.5702   -6.3998   -2.6193 O   0  0  0  0  0  0  0  0  0  0  0  0
    1.2070   -5.7630   -3.7644 C   0  0  0  0  0  0  0  0  0  0  0  0
    2.5976   -5.6672   -3.9799 C   0  0  0  0  0  0  0  0  0  0  0  0
    3.3635   -6.7604   -4.1861 O   0  0  0  0  0  0  0  0  0  0  0  0
   -0.0856    0.5220    3.5872 N   0  0  0  0  0  0  0  0  0  0  0  0
    0.0942    1.7706    3.1647 C   0  0  0  0  0  0  0  0  0  0  0  0
    0.0153    2.8962    4.0397 C   0  0  0  0  0  0  0  0  0  0  0  0
    0.1392    5.2160    5.5169 C   0  0  0  0  0  0  0  0  0  0  0  0
    1.0829    4.2154    5.7073 C   0  0  0  0  0  0  0  0  0  0  0  0
   -0.8143    3.9570    3.7118 C   0  0  0  0  0  0  0  0  0  0  0  0
   -0.8464    5.0614    4.5478 C   0  0  0  0  0  0  0  0  0  0  0  0
   -2.6932   -0.9768   -3.4418 C   0  0  0  0  0  0  0  0  0  0  0  0
   -1.1991   -0.5590   -3.7988 C   0  0  0  0  0  0  0  0  0  0  0  0
   -0.1174   -1.1090   -4.9321 C   0  0  0  0  0  0  0  0  0  0  0  0
   -0.2335   -1.6071   -3.6275 C   0  0  0  0  0  0  0  0  0  0  0  0
    0.8518    2.9701    5.1495 C   0  0  0  0  0  0  0  0  0  0  0  0
   -3.1483   -2.9764   -1.2137 H   0  0  0  0  0  0  0  0  0  0  0  0
   -0.9884   -1.7951   -1.4286 O   0  0  0  0  0  0  0  0  0  0  0  0
    0.8192   -1.7164   -0.8721 H   0  0  0  0  0  0  0  0  0  0  0  0
    0.8545    2.0295   -0.8118 H   0  0  0  0  0  0  0  0  0  0  0  0
    0.8758    0.7094   -1.9580 H   0  0  0  0  0  0  0  0  0  0  0  0
   -0.5874    1.0435   -1.0061 H   0  0  0  0  0  0  0  0  0  0  0  0
    2.9709   -0.5948    0.8149 H   0  0  0  0  0  0  0  0  0  0  0  0
    2.8988   -0.2267   -0.9122 H   0  0  0  0  0  0  0  0  0  0  0  0
    2.9406    1.0974    0.2700 H   0  0  0  0  0  0  0  0  0  0  0  0
    2.5690   -2.4753   -3.4590 H   0  0  0  0  0  0  0  0  0  0  0  0
    4.2190   -4.2522   -4.0903 H   0  0  0  0  0  0  0  0  0  0  0  0
   -2.3961   -4.7978   -1.9275 H   0  0  0  0  0  0  0  0  0  0  0  0
   -2.5728   -4.5403   -3.1688 H   0  0  0  0  0  0  0  0  0  0  0  0
    1.1665   -3.7664   -0.9279 H   0  0  0  0  0  0  0  0  0  0  0  0
    0.3159   -5.1170   -0.6741 H   0  0  0  0  0  0  0  0  0  0  0  0
   -1.6884   -2.4481   -5.4110 H   0  0  0  0  0  0  0  0  0  0  0  0
   -1.2921   -3.8257   -6.0323 H   0  0  0  0  0  0  0  0  0  0  0  0
   -3.5664   -4.1898   -4.5960 H   0  0  0  0  0  0  0  0  0  0  0  0
   -3.6588   -2.6435   -5.3924 H   0  0  0  0  0  0  0  0  0  0  0  0
   -2.1655   -4.1079    1.8603 H   0  0  0  0  0  0  0  0  0  0  0  0
    2.6983   -7.4722   -4.2111 H   0  0  0  0  0  0  0  0  0  0  0  0
    0.1625    6.1138    6.1253 H   0  0  0  0  0  0  0  0  0  0  0  0
    1.9851    4.4012    6.2799 H   0  0  0  0  0  0  0  0  0  0  0  0
   -1.4522    3.8939    2.8368 H   0  0  0  0  0  0  0  0  0  0  0  0
   -1.5999    5.8249    4.4087 H   0  0  0  0  0  0  0  0  0  0  0  0
   -3.3112   -0.4237   -4.1227 H   0  0  0  0  0  0  0  0  0  0  0  0
   -2.8986   -0.5817   -2.4182 H   0  0  0  0  0  0  0  0  0  0  0  0
   -0.9847    0.2289   -3.1120 H   0  0  0  0  0  0  0  0  0  0  0  0
   -0.1738   -1.9721   -5.5891 H   0  0  0  0  0  0  0  0  0  0  0  0
    0.8631   -1.0858   -5.3725 H   0  0  0  0  0  0  0  0  0  0  0  0
    0.5182   -1.7961   -2.8721 H   0  0  0  0  0  0  0  0  0  0  0  0
   -0.9713   -2.3400   -3.6826 H   0  0  0  0  0  0  0  0  0  0  0  0
    1.3412    2.0824    5.5425 H   0  0  0  0  0  0  0  0  0  0  0  0
   -0.6346   -1.0254   -1.8399 H   0  0  0  0  0  0  0  0  0  0  0  0
  1  2  1  0  0  0  0
  1  3  1  0  0  0  0
  1  6  1  0  0  0  0
  2 22  1  0  0  0  0
  2 45  1  0  0  0  0
  3  5  2  0  0  0  0
  4  3  1  0  0  0  0
  4 31  1  0  0  0  0
  6 46  1  0  0  0  0
  6 47  1  0  0  0  0
  6 48  1  0  0  0  0
  7  1  1  0  0  0  0
  7 49  1  0  0  0  0
  7 50  1  0  0  0  0
  7 51  1  0  0  0  0
  8  9  1  0  0  0  0
  8 10  2  0  0  0  0
  8 52  1  0  0  0  0
  9 29  2  0  0  0  0
  9 53  1  0  0  0  0
 10 11  1  0  0  0  0
 10 26  1  0  0  0  0
 11 12  1  0  0  0  0
 11 54  1  0  0  0  0
 11 55  1  0  0  0  0
 12 13  1  0  0  0  0
 12 43  1  6  0  0  0
 13 38  1  0  0  0  0
 13 17  1  0  0  0  0
 14 15  1  0  0  0  0
 14 56  1  0  0  0  0
 14 57  1  0  0  0  0
 15 12  1  0  0  0  0
 15 44  1  1  0  0  0
 16 17  1  0  0  0  0
 16 58  1  0  0  0  0
 16 59  1  0  0  0  0
 17 60  1  0  0  0  0
 17 61  1  0  0  0  0
 18 16  1  0  0  0  0
 18 19  1  0  0  0  0
 18 15  1  0  0  0  0
 18 26  1  6  0  0  0
 19 20  1  0  0  0  0
 19 25  1  6  0  0  0
 19 27  1  0  0  0  0
 20 21  2  0  0  0  0
 21 14  1  0  0  0  0
 21 22  1  0  0  0  0
 22 23  2  0  0  0  0
 24 20  1  0  0  0  0
 24 62  1  0  0  0  0
 27 28  1  0  0  0  0
 28 26  2  0  0  0  0
 29 28  1  0  0  0  0
 29 30  1  0  0  0  0
 30 63  1  0  0  0  0
 31 32  2  0  0  0  0
 32 33  1  0  0  0  0
 32  5  1  0  0  0  0
 33 36  2  0  0  0  0
 33 42  1  0  0  0  0
 34 35  1  0  0  0  0
 34 64  1  0  0  0  0
 35 65  1  0  0  0  0
 36 37  1  0  0  0  0
 36 66  1  0  0  0  0
 37 34  2  0  0  0  0
 37 67  1  0  0  0  0
 38 39  1  0  0  0  0
 38 68  1  0  0  0  0
 38 69  1  0  0  0  0
 39 70  1  0  0  0  0
 40 41  1  0  0  0  0
 40 39  1  0  0  0  0
 40 71  1  0  0  0  0
 40 72  1  0  0  0  0
 41 39  1  0  0  0  0
 41 73  1  0  0  0  0
 41 74  1  0  0  0  0
 42 35  2  0  0  0  0
 42 75  1  0  0  0  0
 44 76  1  0  0  0  0
M  END
>  <DRUGBANK_ID>
DB11691

>  <COMMON_NAME>
Naldemedine

>  <CAS_NUMBER>
916072-89-4

>  <UNII>
03KSI6WLXH

>  <SYNONYMS>
Naldemedine

$$$$
