
 OpenBabel10282417153D

 59 61  0  0  1  0  0  0  0  0999 V2000
   -2.6002   -1.6033    0.4276 O   0  0  0  0  0  0  0  0  0  0  0  0
   -2.7930   -2.3030   -1.7555 O   0  0  0  0  0  0  0  0  0  0  0  0
   -0.3484    0.1401    2.4466 O   0  0  0  0  0  0  0  0  0  0  0  0
   -0.9986   -8.6883   -3.8084 O   0  5  0  0  0  0  0  0  0  0  0  0
   -1.2694    0.9795    0.5962 N   0  0  0  0  0  0  0  0  0  0  0  0
    1.7381   -4.1056   -5.6395 N   0  0  0  0  0  0  0  0  0  0  0  0
   -0.1105   -2.7376   -5.5263 N   0  0  0  0  0  0  0  0  0  0  0  0
   -0.9121   -7.6006   -3.1642 N   0  3  0  0  0  0  0  0  0  0  0  0
   -1.4667    0.0230   -1.5758 C   0  0  1  0  0  0  0  0  0  0  0  0
   -1.9192    1.1411   -0.7212 C   0  0  1  0  0  0  0  0  0  0  0  0
    0.2907    0.5262   -1.7250 C   0  0  0  0  0  0  0  0  0  0  0  0
   -3.4385    1.2232   -0.7640 C   0  0  0  0  0  0  0  0  0  0  0  0
    1.3752   -0.3729   -2.4277 C   0  0  0  0  0  0  0  0  0  0  0  0
   -2.3924   -1.4430   -0.9634 C   0  0  0  0  0  0  0  0  0  0  0  0
    0.9734   -1.0884   -3.5640 C   0  0  0  0  0  0  0  0  0  0  0  0
   -0.5524   -0.0780    1.2720 C   0  0  0  0  0  0  0  0  0  0  0  0
    2.5309   -0.8422   -1.7282 C   0  0  0  0  0  0  0  0  0  0  0  0
    1.6870   -2.2182   -4.0142 C   0  0  0  0  0  0  0  0  0  0  0  0
   -0.0491   -1.5141    0.6764 C   0  0  0  0  0  0  0  0  0  0  0  0
    3.2770   -1.9334   -2.2080 C   0  0  0  0  0  0  0  0  0  0  0  0
    2.8461   -2.6281   -3.3403 C   0  0  0  0  0  0  0  0  0  0  0  0
    0.1190   -1.9169   -0.6205 C   0  0  0  0  0  0  0  0  0  0  0  0
   -0.2158   -2.6888    1.3728 C   0  0  0  0  0  0  0  0  0  0  0  0
   -0.3475   -4.2022   -0.6948 C   0  0  0  0  0  0  0  0  0  0  0  0
    1.0727   -3.0462   -5.1030 C   0  0  0  0  0  0  0  0  0  0  0  0
   -3.0157   -2.8088    1.3065 C   0  0  0  0  0  0  0  0  0  0  0  0
    0.0409   -3.1029   -1.3449 C   0  0  0  0  0  0  0  0  0  0  0  0
   -0.3680   -4.0174    0.6791 C   0  0  0  0  0  0  0  0  0  0  0  0
   -0.6583   -5.3355   -1.5436 C   0  0  0  0  0  0  0  0  0  0  0  0
    0.4318   -5.8391   -2.2608 C   0  0  0  0  0  0  0  0  0  0  0  0
   -1.9300   -5.8666   -1.7897 C   0  0  0  0  0  0  0  0  0  0  0  0
    0.3050   -6.9745   -3.0280 C   0  0  0  0  0  0  0  0  0  0  0  0
   -2.0298   -7.0181   -2.5787 C   0  0  0  0  0  0  0  0  0  0  0  0
   -1.3485    1.8120    1.1793 H   0  0  0  0  0  0  0  0  0  0  0  0
    1.4592   -4.4371   -6.5545 H   0  0  0  0  0  0  0  0  0  0  0  0
    2.7231   -4.2248   -5.4453 H   0  0  0  0  0  0  0  0  0  0  0  0
   -0.4082   -3.3707   -6.2695 H   0  0  0  0  0  0  0  0  0  0  0  0
   -1.8065    0.0899   -2.6162 H   0  0  0  0  0  0  0  0  0  0  0  0
   -1.5575    2.0912   -1.1514 H   0  0  0  0  0  0  0  0  0  0  0  0
    0.3376    1.5151   -2.1900 H   0  0  0  0  0  0  0  0  0  0  0  0
    0.6947    0.6994   -0.7128 H   0  0  0  0  0  0  0  0  0  0  0  0
   -3.8056    2.1486   -0.3209 H   0  0  0  0  0  0  0  0  0  0  0  0
   -3.7810    1.1940   -1.8113 H   0  0  0  0  0  0  0  0  0  0  0  0
   -3.9079    0.3891   -0.2447 H   0  0  0  0  0  0  0  0  0  0  0  0
   -0.0490   -0.9524   -3.9193 H   0  0  0  0  0  0  0  0  0  0  0  0
    2.7352   -0.5359   -0.6957 H   0  0  0  0  0  0  0  0  0  0  0  0
    4.1420   -2.2995   -1.6535 H   0  0  0  0  0  0  0  0  0  0  0  0
    3.3770   -3.5326   -3.6187 H   0  0  0  0  0  0  0  0  0  0  0  0
   -0.1068   -1.2974   -1.4169 H   0  0  0  0  0  0  0  0  0  0  0  0
   -0.6242   -2.5360    2.3675 H   0  0  0  0  0  0  0  0  0  0  0  0
   -2.9664   -2.5070    2.3738 H   0  0  0  0  0  0  0  0  0  0  0  0
   -3.9258   -3.3204    1.0104 H   0  0  0  0  0  0  0  0  0  0  0  0
   -2.3305   -3.6499    1.3686 H   0  0  0  0  0  0  0  0  0  0  0  0
   -0.0626   -3.0668   -2.4301 H   0  0  0  0  0  0  0  0  0  0  0  0
   -0.7828   -4.8695    1.2103 H   0  0  0  0  0  0  0  0  0  0  0  0
    1.3950   -5.3366   -2.1881 H   0  0  0  0  0  0  0  0  0  0  0  0
   -2.8372   -5.4125   -1.3916 H   0  0  0  0  0  0  0  0  0  0  0  0
    1.1289   -7.4626   -3.5176 H   0  0  0  0  0  0  0  0  0  0  0  0
   -2.9403   -7.5660   -2.7736 H   0  0  0  0  0  0  0  0  0  0  0  0
  1 14  1  0  0  0  0
  1 26  1  0  0  0  0
  2 14  2  0  0  0  0
  3 16  2  0  0  0  0
  4  8  1  0  0  0  0
  5 16  1  0  0  0  0
  5 34  1  0  0  0  0
  6 25  1  0  0  0  0
  6 35  1  0  0  0  0
  6 36  1  0  0  0  0
  7 25  2  0  0  0  0
  7 37  1  0  0  0  0
  8 32  2  0  0  0  0
  8 33  1  0  0  0  0
  9 11  1  0  0  0  0
  9 14  1  0  0  0  0
  9 38  1  6  0  0  0
 10 12  1  0  0  0  0
 10 39  1  6  0  0  0
 10  9  1  0  0  0  0
 10  5  1  0  0  0  0
 11 13  1  0  0  0  0
 11 40  1  0  0  0  0
 11 41  1  0  0  0  0
 12 42  1  0  0  0  0
 12 43  1  0  0  0  0
 12 44  1  0  0  0  0
 13 15  2  0  0  0  0
 13 17  1  0  0  0  0
 15 18  1  0  0  0  0
 15 45  1  0  0  0  0
 16 19  1  0  0  0  0
 17 20  2  0  0  0  0
 17 46  1  0  0  0  0
 18 21  2  0  0  0  0
 18 25  1  0  0  0  0
 19 22  2  0  0  0  0
 19 23  1  0  0  0  0
 20 21  1  0  0  0  0
 20 47  1  0  0  0  0
 21 48  1  0  0  0  0
 22 27  1  0  0  0  0
 22 49  1  0  0  0  0
 23 28  2  0  0  0  0
 23 50  1  0  0  0  0
 24 27  2  0  0  0  0
 24 28  1  0  0  0  0
 24 29  1  0  0  0  0
 26 51  1  0  0  0  0
 26 52  1  0  0  0  0
 26 53  1  0  0  0  0
 27 54  1  0  0  0  0
 28 55  1  0  0  0  0
 29 30  2  0  0  0  0
 29 31  1  0  0  0  0
 30 32  1  0  0  0  0
 30 56  1  0  0  0  0
 31 33  2  0  0  0  0
 31 57  1  0  0  0  0
 32 58  1  0  0  0  0
 33 59  1  0  0  0  0
M  CHG  2   4  -1   8   1
M  END
>  <DRUGBANK_ID>
DB06635

>  <COMMON_NAME>
Otamixaban

>  <CAS_NUMBER>
193153-04-7

>  <UNII>
S173RED00L

>  <SYNONYMS>
Otamixaban

$$$$
