
 OpenBabel10282417143D

150156  0  0  0  0  0  0  0  0999 V2000
   16.0216   30.3871   -1.3895 C   0  0  0  0  0  0  0  0  0  0  0  0
   17.2210   30.1611   -1.2464 O   0  0  0  0  0  0  0  0  0  0  0  0
   15.3778   31.3986   -0.6856 N   0  0  0  0  0  0  0  0  0  0  0  0
   15.2398   29.4984   -2.3847 C   0  0  2  0  0  0  0  0  0  0  0  0
   15.0673   30.5418   -3.7004 C   0  0  0  0  0  0  0  0  0  0  0  0
   13.8949   30.2856   -4.5611 C   0  0  0  0  0  0  0  0  0  0  0  0
   13.5145   31.0142   -5.6588 C   0  0  0  0  0  0  0  0  0  0  0  0
   12.3105   30.5403   -6.1304 N   0  0  0  0  0  0  0  0  0  0  0  0
   11.8652   29.5330   -5.3197 C   0  0  0  0  0  0  0  0  0  0  0  0
   10.6978   28.7563   -5.2775 C   0  0  0  0  0  0  0  0  0  0  0  0
   10.5215   27.8271   -4.2482 C   0  0  0  0  0  0  0  0  0  0  0  0
   11.4901   27.6100   -3.3398 C   0  0  0  0  0  0  0  0  0  0  0  0
   12.6123   28.3487   -3.5279 C   0  0  0  0  0  0  0  0  0  0  0  0
   12.8559   29.3667   -4.3965 C   0  0  0  0  0  0  0  0  0  0  0  0
   14.3782   28.0379   -1.5925 N   0  0  0  0  0  0  0  0  0  0  0  0
   14.4806   26.0124   -1.5101 C   0  0  0  0  0  0  0  0  0  0  0  0
   13.1467   26.6918   -1.3211 O   0  0  0  0  0  0  0  0  0  0  0  0
   15.6202   23.9613   -1.2651 C   0  0  2  0  0  0  0  0  0  0  0  0
   16.2684   21.4804   -0.6295 C   0  0  0  0  0  0  0  0  0  0  0  0
   17.0667   18.9250   -1.4962 S   0  0  0  0  0  0  0  0  0  0  0  0
   15.8717   25.7553   -1.7353 N   0  0  0  0  0  0  0  0  0  0  0  0
   15.8935   25.5848   -0.3907 C   0  0  0  0  0  0  0  0  0  0  0  0
   17.0018   25.9158   -0.0947 O   0  0  0  0  0  0  0  0  0  0  0  0
   14.3074   24.4133   -0.2519 C   0  0  2  0  0  0  0  0  0  0  0  0
   15.2572   23.5045    0.6120 C   0  0  0  0  0  0  0  0  0  0  0  0
   16.3937   24.0193    1.3095 C   0  0  0  0  0  0  0  0  0  0  0  0
   14.1177   22.8259    1.1834 C   0  0  0  0  0  0  0  0  0  0  0  0
   13.8156   23.7548   -2.1027 N   0  0  0  0  0  0  0  0  0  0  0  0
   14.6492   23.1704   -2.9685 C   0  0  0  0  0  0  0  0  0  0  0  0
   14.4255   22.8376   -4.1280 O   0  0  0  0  0  0  0  0  0  0  0  0
   15.8598   22.3755   -1.8448 C   0  0  2  0  0  0  0  0  0  0  0  0
   16.7253   20.7217   -2.2204 C   0  0  0  0  0  0  0  0  0  0  0  0
   14.9969   19.8821   -1.7847 C   0  0  0  0  0  0  0  0  0  0  0  0
   13.2833   20.1965   -2.9444 C   0  0  0  0  0  0  0  0  0  0  0  0
   13.6255   19.5194   -4.4976 C   0  0  0  0  0  0  0  0  0  0  0  0
   14.3309   18.0840   -4.6661 N   0  0  0  0  0  0  0  0  0  0  0  0
   14.4409   21.5922   -0.5820 N   0  0  0  0  0  0  0  0  0  0  0  0
   13.8084   20.1756    0.2482 C   0  0  0  0  0  0  0  0  0  0  0  0
   12.9524   20.0580    1.0904 O   0  0  0  0  0  0  0  0  0  0  0  0
   14.5050   18.6269   -0.4831 C   0  0  1  0  0  0  0  0  0  0  0  0
   14.1477   18.4989   -2.5849 C   0  0  0  0  0  0  0  0  0  0  0  0
   15.2649   20.0405   -3.5243 C   0  0  0  0  0  0  0  0  0  0  0  0
   15.1484   21.3158   -3.1215 C   0  0  0  0  0  0  0  0  0  0  0  0
   16.6258   22.3574   -3.4311 N   0  0  0  0  0  0  0  0  0  0  0  0
   16.6932   21.8091   -4.5257 C   0  0  0  0  0  0  0  0  0  0  0  0
   17.0037   22.5067   -5.5423 C   0  0  0  0  0  0  0  0  0  0  0  0
   16.8557   21.7023   -6.6046 C   0  0  0  0  0  0  0  0  0  0  0  0
   16.3629   20.4510   -6.6781 C   0  0  0  0  0  0  0  0  0  0  0  0
   16.1789   19.8683   -5.5602 C   0  0  0  0  0  0  0  0  0  0  0  0
   16.1164   20.5772   -4.5014 C   0  0  0  0  0  0  0  0  0  0  0  0
   16.1280   19.0600    0.3295 N   0  0  0  0  0  0  0  0  0  0  0  0
   16.8921   18.0248    0.7298 C   0  0  0  0  0  0  0  0  0  0  0  0
   18.1346   18.2150    0.5529 O   0  0  0  0  0  0  0  0  0  0  0  0
   15.8022   16.5721    0.5632 C   0  0  2  0  0  0  0  0  0  0  0  0
   16.4506   15.4857    1.3589 C   0  0  0  0  0  0  0  0  0  0  0  0
   17.3521   15.9194    2.3920 C   0  0  0  0  0  0  0  0  0  0  0  0
   16.6769   16.6461    3.3265 C   0  0  0  0  0  0  0  0  0  0  0  0
   17.3652   17.1136    4.4037 C   0  0  0  0  0  0  0  0  0  0  0  0
   18.7280   16.8740    4.5066 C   0  0  0  0  0  0  0  0  0  0  0  0
   19.4642   17.2664    5.5825 O   0  0  0  0  0  0  0  0  0  0  0  0
   19.4218   16.2128    3.5031 C   0  0  0  0  0  0  0  0  0  0  0  0
   18.7323   15.7209    2.4229 C   0  0  0  0  0  0  0  0  0  0  0  0
   15.1132   15.9585   -0.7005 N   0  0  0  0  0  0  0  0  0  0  0  0
   15.4082   14.7875   -1.3454 C   0  0  0  0  0  0  0  0  0  0  0  0
   14.8957   14.5639   -2.4553 O   0  0  0  0  0  0  0  0  0  0  0  0
   16.3225   13.7019   -0.6460 C   0  0  2  0  0  0  0  0  0  0  0  0
   17.7130   14.1697   -0.6568 C   0  0  0  0  0  0  0  0  0  0  0  0
   18.0481   16.4423   -0.8060 S   0  0  0  0  0  0  0  0  0  0  0  0
   16.2089   12.2776   -0.9928 N   0  0  0  0  0  0  0  0  0  0  0  0
   14.9847   11.6114   -1.0498 C   0  0  0  0  0  0  0  0  0  0  0  0
   14.8387   10.4292   -1.2915 O   0  0  0  0  0  0  0  0  0  0  0  0
   14.0017   12.6647   -0.6743 C   0  0  2  0  0  0  0  0  0  0  0  0
   14.3795   13.2607    0.5984 N   0  0  0  0  0  0  0  0  0  0  0  0
   12.5790   12.6583   -0.8444 C   0  0  0  0  0  0  0  0  0  0  0  0
   11.9504   13.9944   -0.5820 C   0  0  0  0  0  0  0  0  0  0  0  0
   11.1466   14.5599   -1.5466 C   0  0  0  0  0  0  0  0  0  0  0  0
   10.3598   15.6561   -1.2455 C   0  0  0  0  0  0  0  0  0  0  0  0
   10.4089   16.2330    0.0020 C   0  0  0  0  0  0  0  0  0  0  0  0
   11.1753   15.6371    0.9697 C   0  0  0  0  0  0  0  0  0  0  0  0
   12.0455   14.6297    0.6475 C   0  0  0  0  0  0  0  0  0  0  0  0
   14.3941   31.6390   -0.7717 H   0  0  0  0  0  0  0  0  0  0  0  0
   15.8994   31.9585   -0.0001 H   0  0  0  0  0  0  0  0  0  0  0  0
   15.8086   28.7717   -2.8660 H   0  0  0  0  0  0  0  0  0  0  0  0
   15.0564   31.6293   -3.4049 H   0  0  0  0  0  0  0  0  0  0  0  0
   16.0039   30.5020   -4.3239 H   0  0  0  0  0  0  0  0  0  0  0  0
   14.0522   31.8454   -6.0813 H   0  0  0  0  0  0  0  0  0  0  0  0
   11.7951   30.8842   -6.9286 H   0  0  0  0  0  0  0  0  0  0  0  0
    9.9176   28.8775   -6.0016 H   0  0  0  0  0  0  0  0  0  0  0  0
    9.6361   27.2302   -4.1515 H   0  0  0  0  0  0  0  0  0  0  0  0
   11.3826   26.8749   -2.5569 H   0  0  0  0  0  0  0  0  0  0  0  0
   13.4997   28.0713   -3.1082 H   0  0  0  0  0  0  0  0  0  0  0  0
   13.5306   29.2243   -1.6298 H   0  0  0  0  0  0  0  0  0  0  0  0
   14.5950   24.9804   -1.8963 H   0  0  0  0  0  0  0  0  0  0  0  0
   17.0847   20.9619    0.1578 H   0  0  0  0  0  0  0  0  0  0  0  0
   15.5381   20.6460    0.1244 H   0  0  0  0  0  0  0  0  0  0  0  0
   16.0082   27.1149   -1.6261 H   0  0  0  0  0  0  0  0  0  0  0  0
   13.4227   24.8943   -0.3236 H   0  0  0  0  0  0  0  0  0  0  0  0
   15.9895   22.9615    0.0484 H   0  0  0  0  0  0  0  0  0  0  0  0
   15.8184   24.7818    1.7482 H   0  0  0  0  0  0  0  0  0  0  0  0
   16.7554   23.1897    1.8346 H   0  0  0  0  0  0  0  0  0  0  0  0
   17.2534   24.3313    0.7048 H   0  0  0  0  0  0  0  0  0  0  0  0
   13.1539   22.5180    0.2845 H   0  0  0  0  0  0  0  0  0  0  0  0
   14.5936   21.9467    1.5800 H   0  0  0  0  0  0  0  0  0  0  0  0
   13.5130   23.5846    1.5138 H   0  0  0  0  0  0  0  0  0  0  0  0
   14.2345   24.4572   -3.0743 H   0  0  0  0  0  0  0  0  0  0  0  0
   17.1919   22.5880   -1.2044 H   0  0  0  0  0  0  0  0  0  0  0  0
   17.0455   20.0473   -3.0539 H   0  0  0  0  0  0  0  0  0  0  0  0
   17.5987   20.5841   -1.6091 H   0  0  0  0  0  0  0  0  0  0  0  0
   15.3570   18.8408   -1.8814 H   0  0  0  0  0  0  0  0  0  0  0  0
   14.2269   20.1016   -1.2696 H   0  0  0  0  0  0  0  0  0  0  0  0
   12.3589   19.6290   -2.7449 H   0  0  0  0  0  0  0  0  0  0  0  0
   13.1559   21.1904   -2.6123 H   0  0  0  0  0  0  0  0  0  0  0  0
   13.1252   20.0623   -5.1825 H   0  0  0  0  0  0  0  0  0  0  0  0
   14.2775   20.2833   -4.9056 H   0  0  0  0  0  0  0  0  0  0  0  0
   14.6802   17.9129   -5.5744 H   0  0  0  0  0  0  0  0  0  0  0  0
   15.3560   18.0261   -4.1801 H   0  0  0  0  0  0  0  0  0  0  0  0
   14.3215   22.4609   -0.3936 H   0  0  0  0  0  0  0  0  0  0  0  0
   14.0046   17.7519   -0.2704 H   0  0  0  0  0  0  0  0  0  0  0  0
   14.7651   17.7242   -2.8594 H   0  0  0  0  0  0  0  0  0  0  0  0
   13.2117   18.5804   -2.0970 H   0  0  0  0  0  0  0  0  0  0  0  0
   14.5235   21.6211   -2.1529 H   0  0  0  0  0  0  0  0  0  0  0  0
   16.7257   23.3478   -2.9367 H   0  0  0  0  0  0  0  0  0  0  0  0
   17.3573   23.4793   -5.3980 H   0  0  0  0  0  0  0  0  0  0  0  0
   17.2365   22.0737   -7.4852 H   0  0  0  0  0  0  0  0  0  0  0  0
   16.2318   19.7940   -7.4804 H   0  0  0  0  0  0  0  0  0  0  0  0
   15.6343   19.0336   -5.5659 H   0  0  0  0  0  0  0  0  0  0  0  0
   17.1031   19.4711   -0.4133 H   0  0  0  0  0  0  0  0  0  0  0  0
   14.9877   16.9073    1.1799 H   0  0  0  0  0  0  0  0  0  0  0  0
   15.8161   14.6859    1.6590 H   0  0  0  0  0  0  0  0  0  0  0  0
   17.1110   14.9190    0.8247 H   0  0  0  0  0  0  0  0  0  0  0  0
   15.6152   16.8014    3.1717 H   0  0  0  0  0  0  0  0  0  0  0  0
   16.8118   17.6457    5.1524 H   0  0  0  0  0  0  0  0  0  0  0  0
   18.9545   17.7163    6.2749 H   0  0  0  0  0  0  0  0  0  0  0  0
   20.4897   16.0641    3.5668 H   0  0  0  0  0  0  0  0  0  0  0  0
   19.2833   15.2243    1.6267 H   0  0  0  0  0  0  0  0  0  0  0  0
   14.5368   16.5262   -1.3189 H   0  0  0  0  0  0  0  0  0  0  0  0
   16.1805   13.6800    0.4103 H   0  0  0  0  0  0  0  0  0  0  0  0
   18.2832   13.5752    0.1568 H   0  0  0  0  0  0  0  0  0  0  0  0
   18.0586   14.1976   -1.6163 H   0  0  0  0  0  0  0  0  0  0  0  0
   17.0551   11.7661   -1.0645 H   0  0  0  0  0  0  0  0  0  0  0  0
   14.1967   13.3131   -1.4498 H   0  0  0  0  0  0  0  0  0  0  0  0
   15.1766   12.7281    0.9267 H   0  0  0  0  0  0  0  0  0  0  0  0
   13.7442   13.0294    1.3028 H   0  0  0  0  0  0  0  0  0  0  0  0
   12.3562   12.3012   -1.8412 H   0  0  0  0  0  0  0  0  0  0  0  0
   12.3124   11.9529   -0.0885 H   0  0  0  0  0  0  0  0  0  0  0  0
   11.1399   14.1442   -2.5413 H   0  0  0  0  0  0  0  0  0  0  0  0
    9.6793   16.0377   -1.9842 H   0  0  0  0  0  0  0  0  0  0  0  0
    9.8686   17.1399    0.2309 H   0  0  0  0  0  0  0  0  0  0  0  0
   11.0565   15.9458    1.9892 H   0  0  0  0  0  0  0  0  0  0  0  0
   12.7787   14.3648    1.3868 H   0  0  0  0  0  0  0  0  0  0  0  0
  1  2  2  0  0  0  0
  1  3  1  0  0  0  0
  3 81  1  0  0  0  0
  3 82  1  0  0  0  0
  4 15  1  0  0  0  0
  4 83  1  6  0  0  0
  4  5  1  0  0  0  0
  4  1  1  0  0  0  0
  5  6  1  0  0  0  0
  5 84  1  0  0  0  0
  5 85  1  0  0  0  0
  6  7  2  0  0  0  0
  6 14  1  0  0  0  0
  7  8  1  0  0  0  0
  7 86  1  0  0  0  0
  8  9  1  0  0  0  0
  8 87  1  0  0  0  0
  9 10  2  0  0  0  0
  9 14  1  0  0  0  0
 10 11  1  0  0  0  0
 10 88  1  0  0  0  0
 11 12  2  0  0  0  0
 11 89  1  0  0  0  0
 12 13  1  0  0  0  0
 12 90  1  0  0  0  0
 13 14  2  0  0  0  0
 13 91  1  0  0  0  0
 15 16  1  0  0  0  0
 15 92  1  0  0  0  0
 16 17  2  0  0  0  0
 18 16  1  0  0  0  0
 18 19  1  0  0  0  0
 18 21  1  0  0  0  0
 18 93  1  6  0  0  0
 19 20  1  0  0  0  0
 19 94  1  0  0  0  0
 19 95  1  0  0  0  0
 20 68  1  0  0  0  0
 21 22  1  0  0  0  0
 21 96  1  0  0  0  0
 22 23  2  0  0  0  0
 22 24  1  0  0  0  0
 24 28  1  0  0  0  0
 24 97  1  1  0  0  0
 24 25  1  0  0  0  0
 25 26  1  0  0  0  0
 25 27  1  0  0  0  0
 25 98  1  0  0  0  0
 26 99  1  0  0  0  0
 26100  1  0  0  0  0
 26101  1  0  0  0  0
 27102  1  0  0  0  0
 27103  1  0  0  0  0
 27104  1  0  0  0  0
 28 29  1  0  0  0  0
 28105  1  0  0  0  0
 29 30  2  0  0  0  0
 29 31  1  0  0  0  0
 31 37  1  0  0  0  0
 31106  1  1  0  0  0
 31 32  1  0  0  0  0
 32 33  1  0  0  0  0
 32107  1  0  0  0  0
 32108  1  0  0  0  0
 33 34  1  0  0  0  0
 33109  1  0  0  0  0
 33110  1  0  0  0  0
 34 35  1  0  0  0  0
 34111  1  0  0  0  0
 34112  1  0  0  0  0
 35 36  1  0  0  0  0
 35113  1  0  0  0  0
 35114  1  0  0  0  0
 36115  1  0  0  0  0
 36116  1  0  0  0  0
 37 38  1  0  0  0  0
 37117  1  0  0  0  0
 38 39  2  0  0  0  0
 38 40  1  0  0  0  0
 40 41  1  0  0  0  0
 40 51  1  0  0  0  0
 40118  1  1  0  0  0
 41 42  1  0  0  0  0
 41119  1  0  0  0  0
 41120  1  0  0  0  0
 42 43  2  0  0  0  0
 42 50  1  0  0  0  0
 43 44  1  0  0  0  0
 43121  1  0  0  0  0
 44 45  1  0  0  0  0
 44122  1  0  0  0  0
 45 46  2  0  0  0  0
 45 50  1  0  0  0  0
 46 47  1  0  0  0  0
 46123  1  0  0  0  0
 47 48  2  0  0  0  0
 47124  1  0  0  0  0
 48 49  1  0  0  0  0
 48125  1  0  0  0  0
 49 50  2  0  0  0  0
 49126  1  0  0  0  0
 51 52  1  0  0  0  0
 51127  1  0  0  0  0
 52 53  2  0  0  0  0
 52 54  1  0  0  0  0
 54 63  1  0  0  0  0
 54128  1  1  0  0  0
 54 55  1  0  0  0  0
 55 56  1  0  0  0  0
 55129  1  0  0  0  0
 55130  1  0  0  0  0
 56 57  2  0  0  0  0
 56 62  1  0  0  0  0
 57 58  1  0  0  0  0
 57131  1  0  0  0  0
 58 59  2  0  0  0  0
 58132  1  0  0  0  0
 59 60  1  0  0  0  0
 59 61  1  0  0  0  0
 60133  1  0  0  0  0
 61 62  2  0  0  0  0
 61134  1  0  0  0  0
 62135  1  0  0  0  0
 63 64  1  0  0  0  0
 63136  1  0  0  0  0
 64 65  2  0  0  0  0
 64 66  1  0  0  0  0
 66 67  1  0  0  0  0
 66137  1  1  0  0  0
 66 69  1  0  0  0  0
 67 68  1  0  0  0  0
 67138  1  0  0  0  0
 67139  1  0  0  0  0
 69 70  1  0  0  0  0
 69140  1  0  0  0  0
 70 71  2  0  0  0  0
 72 74  1  0  0  0  0
 72141  1  6  0  0  0
 72 73  1  0  0  0  0
 72 70  1  0  0  0  0
 73142  1  0  0  0  0
 73143  1  0  0  0  0
 74 75  1  0  0  0  0
 74144  1  0  0  0  0
 74145  1  0  0  0  0
 75 76  1  0  0  0  0
 75 80  2  0  0  0  0
 76 77  2  0  0  0  0
 76146  1  0  0  0  0
 77 78  1  0  0  0  0
 77147  1  0  0  0  0
 78 79  2  0  0  0  0
 78148  1  0  0  0  0
 79 80  1  0  0  0  0
 79149  1  0  0  0  0
 80150  1  0  0  0  0
M  END
>  <DRUGBANK_ID>
DB04894

>  <COMMON_NAME>
Vapreotide

>  <CAS_NUMBER>
103222-11-3

>  <UNII>
2PK59M9GFF

>  <SYNONYMS>
Vapreotida; Vapreotide; Vapreotidum

$$$$
