
 OpenBabel10282417123D

 30 29  0  0  1  0  0  0  0  0999 V2000
   -2.8609    4.2006   -3.1621 O   0  0  0  0  0  0  0  0  0  0  0  0
   -1.5633    4.7742   -2.9053 C   0  0  1  0  0  0  0  0  0  0  0  0
   -1.6411    6.3202   -2.9855 C   0  0  0  0  0  0  0  0  0  0  0  0
   -2.3079    6.8776   -1.8340 O   0  0  0  0  0  0  0  0  0  0  0  0
   -3.9494    6.3327   -1.8702 P   0  0  0  0  0  0  0  0  0  0  0  0
   -3.5906    5.5416   -0.4874 O   0  0  0  0  0  0  0  0  0  0  0  0
   -4.3009    7.7644   -1.1659 O   0  0  0  0  0  0  0  0  0  0  0  0
   -5.4186    5.8449   -1.9027 O   0  0  0  0  0  0  0  0  0  0  0  0
   -0.9583    4.3356   -1.5567 C   0  0  1  0  0  0  0  0  0  0  0  0
   -1.0403    2.9188   -1.3797 O   0  0  0  0  0  0  0  0  0  0  0  0
    0.4916    4.8601   -1.4054 C   0  0  2  0  0  0  0  0  0  0  0  0
    1.3463    4.1374   -2.3012 O   0  0  0  0  0  0  0  0  0  0  0  0
    1.0041    4.8578    0.0509 C   0  0  2  0  0  0  0  0  0  0  0  0
    0.6018    3.7220    0.8016 O   0  0  0  0  0  0  0  0  0  0  0  0
    0.4758    6.1211    0.7338 C   0  0  0  0  0  0  0  0  0  0  0  0
    1.4125    6.9939    1.1522 O   0  0  0  0  0  0  0  0  0  0  0  0
   -0.7230    6.3472    0.8811 O   0  0  0  0  0  0  0  0  0  0  0  0
   -3.4142    4.0925   -2.3758 H   0  0  0  0  0  0  0  0  0  0  0  0
   -0.9494    4.3985   -3.7283 H   0  0  0  0  0  0  0  0  0  0  0  0
   -0.6501    6.7739   -3.0383 H   0  0  0  0  0  0  0  0  0  0  0  0
   -2.1799    6.6364   -3.8847 H   0  0  0  0  0  0  0  0  0  0  0  0
   -3.6397    4.5749   -0.5139 H   0  0  0  0  0  0  0  0  0  0  0  0
   -3.5948    8.4113   -1.3273 H   0  0  0  0  0  0  0  0  0  0  0  0
   -1.5440    4.7388   -0.7407 H   0  0  0  0  0  0  0  0  0  0  0  0
   -1.9325    2.6163   -1.6183 H   0  0  0  0  0  0  0  0  0  0  0  0
    0.5571    5.8961   -1.7443 H   0  0  0  0  0  0  0  0  0  0  0  0
    2.2184    4.5643   -2.3134 H   0  0  0  0  0  0  0  0  0  0  0  0
    2.0980    4.8660    0.0443 H   0  0  0  0  0  0  0  0  0  0  0  0
   -0.3752    3.6936    0.7768 H   0  0  0  0  0  0  0  0  0  0  0  0
    2.3347    6.6820    1.0947 H   0  0  0  0  0  0  0  0  0  0  0  0
  1 18  1  0  0  0  0
  2  1  1  0  0  0  0
  2  3  1  0  0  0  0
  2  9  1  0  0  0  0
  2 19  1  6  0  0  0
  3  4  1  0  0  0  0
  3 20  1  0  0  0  0
  3 21  1  0  0  0  0
  4  5  1  0  0  0  0
  5  6  1  0  0  0  0
  5  7  1  0  0  0  0
  5  8  2  0  0  0  0
  6 22  1  0  0  0  0
  7 23  1  0  0  0  0
  9 10  1  0  0  0  0
  9 24  1  1  0  0  0
 10 25  1  0  0  0  0
 11 26  1  6  0  0  0
 11 12  1  0  0  0  0
 11  9  1  0  0  0  0
 12 27  1  0  0  0  0
 13 15  1  0  0  0  0
 13 28  1  6  0  0  0
 13 14  1  0  0  0  0
 13 11  1  0  0  0  0
 14 29  1  0  0  0  0
 15 16  1  0  0  0  0
 15 17  2  0  0  0  0
 16 30  1  0  0  0  0
M  END
>  <DRUGBANK_ID>
DB01655

>  <SECONDARY_ACCESSION_NUMBERS>
EXPT02022

>  <COMMON_NAME>
L-gulonic acid 6-phosphate

>  <SYNONYMS>
6-O-phosphono-L-gulonic acid

$$$$
