PUZ
 OpenBabel10282417133D

 47 49  0  0  0  0  0  0  0  0999 V2000
    0.9673   -0.0894    0.0307 C   0  0  0  0  0  0  0  0  0  0  0  0
   -0.3366   -0.0894    0.0307 C   0  0  0  0  0  0  0  0  0  0  0  0
   -1.8566   -0.0894    0.0307 C   0  0  0  0  0  0  0  0  0  0  0  0
   -2.3251   -1.4887   -0.1809 C   0  0  0  0  0  0  0  0  0  0  0  0
   -1.7213   -2.3008    0.9348 C   0  0  0  0  0  0  0  0  0  0  0  0
   -1.9438   -1.7579    2.2638 N   0  0  0  0  0  0  0  0  0  0  0  0
   -1.7180   -0.4855    2.7828 C   0  0  0  0  0  0  0  0  0  0  0  0
   -1.0091    0.5336    2.2536 N   0  0  0  0  0  0  0  0  0  0  0  0
   -2.4647   -0.3562    3.9019 C   0  0  0  0  0  0  0  0  0  0  0  0
   -2.6135    0.9855    4.3814 C   0  0  0  0  0  0  0  0  0  0  0  0
   -3.1556    1.4182    5.5762 N   0  0  0  0  0  0  0  0  0  0  0  0
   -2.2262    2.0204    3.5887 N   0  0  0  0  0  0  0  0  0  0  0  0
   -1.4522    1.7389    2.5621 C   0  0  0  0  0  0  0  0  0  0  0  0
   -1.2616    2.7011    1.6303 F   0  0  0  0  0  0  0  0  0  0  0  0
   -2.8246   -1.6422    4.2772 N   0  0  0  0  0  0  0  0  0  0  0  0
   -2.5330   -2.4775    3.2616 C   0  0  0  0  0  0  0  0  0  0  0  0
   -2.8265   -3.9892    3.0797 C   0  0  0  0  0  0  0  0  0  0  0  0
   -2.1538   -4.8277    4.1163 C   0  0  0  0  0  0  0  0  0  0  0  0
   -2.4501   -4.6309    5.4603 C   0  0  0  0  0  0  0  0  0  0  0  0
   -3.4452   -3.8500    5.9877 O   0  0  0  0  0  0  0  0  0  0  0  0
   -4.6317   -3.5048    5.2620 C   0  0  0  0  0  0  0  0  0  0  0  0
   -1.5830   -5.2057    6.3929 C   0  0  0  0  0  0  0  0  0  0  0  0
   -0.5153   -6.0391    6.0120 C   0  0  0  0  0  0  0  0  0  0  0  0
   -0.2945   -6.3388    4.6742 C   0  0  0  0  0  0  0  0  0  0  0  0
   -1.1195   -5.7310    3.7270 C   0  0  0  0  0  0  0  0  0  0  0  0
    0.6932   -7.1556    4.1885 O   0  0  0  0  0  0  0  0  0  0  0  0
    1.5711   -7.7347    5.1548 C   0  0  0  0  0  0  0  0  0  0  0  0
    2.0326   -0.0808    0.0401 H   0  0  0  0  0  0  0  0  0  0  0  0
   -2.5095    0.4850    0.6830 H   0  0  0  0  0  0  0  0  0  0  0  0
   -2.0782    0.4378   -0.9140 H   0  0  0  0  0  0  0  0  0  0  0  0
   -3.4213   -1.5263   -0.1950 H   0  0  0  0  0  0  0  0  0  0  0  0
   -1.9897   -1.8790   -1.1540 H   0  0  0  0  0  0  0  0  0  0  0  0
   -2.1865   -3.2725    0.7930 H   0  0  0  0  0  0  0  0  0  0  0  0
   -0.6462   -2.4668    0.8435 H   0  0  0  0  0  0  0  0  0  0  0  0
   -3.1472    0.7448    6.3280 H   0  0  0  0  0  0  0  0  0  0  0  0
   -2.8340    2.3636    5.7807 H   0  0  0  0  0  0  0  0  0  0  0  0
   -3.8971   -4.2103    3.0343 H   0  0  0  0  0  0  0  0  0  0  0  0
   -2.5012   -4.3976    2.1223 H   0  0  0  0  0  0  0  0  0  0  0  0
   -4.5180   -2.8595    4.3960 H   0  0  0  0  0  0  0  0  0  0  0  0
   -5.1773   -4.3830    4.9144 H   0  0  0  0  0  0  0  0  0  0  0  0
   -5.2530   -2.8784    5.9037 H   0  0  0  0  0  0  0  0  0  0  0  0
   -1.7209   -4.9838    7.4466 H   0  0  0  0  0  0  0  0  0  0  0  0
    0.1240   -6.4332    6.7937 H   0  0  0  0  0  0  0  0  0  0  0  0
   -0.9257   -5.9378    2.6731 H   0  0  0  0  0  0  0  0  0  0  0  0
    2.1280   -6.9602    5.6938 H   0  0  0  0  0  0  0  0  0  0  0  0
    1.0219   -8.3793    5.8499 H   0  0  0  0  0  0  0  0  0  0  0  0
    2.3028   -8.3618    4.6340 H   0  0  0  0  0  0  0  0  0  0  0  0
  1  2  3  0  0  0  0
  1 28  1  0  0  0  0
  2  3  1  0  0  0  0
  3  4  1  0  0  0  0
  3 29  1  0  0  0  0
  3 30  1  0  0  0  0
  4  5  1  0  0  0  0
  4 31  1  0  0  0  0
  4 32  1  0  0  0  0
  5  6  1  0  0  0  0
  5 33  1  0  0  0  0
  5 34  1  0  0  0  0
  6  7  1  0  0  0  0
  6 16  1  0  0  0  0
  7  8  2  0  0  0  0
  7  9  1  0  0  0  0
  8 13  1  0  0  0  0
  9 10  2  0  0  0  0
  9 15  1  0  0  0  0
 10 11  1  0  0  0  0
 10 12  1  0  0  0  0
 11 35  1  0  0  0  0
 11 36  1  0  0  0  0
 12 13  2  0  0  0  0
 13 14  1  0  0  0  0
 15 16  2  0  0  0  0
 16 17  1  0  0  0  0
 17 18  1  0  0  0  0
 17 37  1  0  0  0  0
 17 38  1  0  0  0  0
 18 19  2  0  0  0  0
 18 25  1  0  0  0  0
 19 20  1  0  0  0  0
 19 22  1  0  0  0  0
 20 21  1  0  0  0  0
 21 39  1  0  0  0  0
 21 40  1  0  0  0  0
 21 41  1  0  0  0  0
 22 23  2  0  0  0  0
 22 42  1  0  0  0  0
 23 24  1  0  0  0  0
 23 43  1  0  0  0  0
 24 25  2  0  0  0  0
 24 26  1  0  0  0  0
 25 44  1  0  0  0  0
 26 27  1  0  0  0  0
 27 45  1  0  0  0  0
 27 46  1  0  0  0  0
 27 47  1  0  0  0  0
M  END
>  <DRUGBANK_ID>
DB03137

>  <SECONDARY_ACCESSION_NUMBERS>
EXPT02704

>  <COMMON_NAME>
8-(2,5-Dimethoxy-Benzyl)-2-Fluoro-9-Pent-9h-Purin-6-Ylamine

$$$$
