
 OpenBabel10282417193D

 54 58  0  0  1  0  0  0  0  0999 V2000
    0.9409   -0.1800   -0.0952 C   0  0  0  0  0  0  0  0  0  0  0  0
    0.5602    1.2139    0.3845 C   0  0  0  0  0  0  0  0  0  0  0  0
    1.5456    2.2968   -0.1056 C   0  0  2  0  0  0  0  0  0  0  0  0
    2.7252    2.3242    0.8601 C   0  0  0  0  0  0  0  0  0  0  0  0
    3.0974    1.1771    1.6920 C   0  0  0  0  0  0  0  0  0  0  0  0
    3.6005    1.4052    2.8985 C   0  0  0  0  0  0  0  0  0  0  0  0
    3.9369    2.6895    3.2645 N   0  0  0  0  0  0  0  0  0  0  0  0
    3.8711    3.7814    2.4299 C   0  0  0  0  0  0  0  0  0  0  0  0
    4.2119    4.9202    2.7607 O   0  0  0  0  0  0  0  0  0  0  0  0
    3.2468    3.5387    1.1034 C   0  0  0  0  0  0  0  0  0  0  0  0
    2.9299    4.6582    0.1735 C   0  0  0  0  0  0  0  0  0  0  0  0
    1.5124    4.8054    0.0550 O   0  0  0  0  0  0  0  0  0  0  0  0
    0.7578    3.6788   -0.0930 C   0  0  0  0  0  0  0  0  0  0  0  0
   -0.4589    3.7817   -0.2291 O   0  0  0  0  0  0  0  0  0  0  0  0
    4.4085    2.7196    4.6431 C   0  0  0  0  0  0  0  0  0  0  0  0
    4.3524    1.2815    5.0587 C   0  0  0  0  0  0  0  0  0  0  0  0
    3.8799    0.4971    4.0150 C   0  0  0  0  0  0  0  0  0  0  0  0
    3.6599   -0.8300    4.0545 N   0  0  0  0  0  0  0  0  0  0  0  0
    3.9637   -1.4535    5.2186 C   0  0  0  0  0  0  0  0  0  0  0  0
    3.7758   -2.8396    5.3489 C   0  0  0  0  0  0  0  0  0  0  0  0
    4.0640   -3.5441    6.5289 C   0  0  0  0  0  0  0  0  0  0  0  0
    4.5850   -2.8690    7.6043 C   0  0  0  0  0  0  0  0  0  0  0  0
    4.8351   -1.5169    7.4686 C   0  0  0  0  0  0  0  0  0  0  0  0
    4.4944   -0.7517    6.3346 C   0  0  0  0  0  0  0  0  0  0  0  0
    4.6732    0.6650    6.2499 C   0  0  0  0  0  0  0  0  0  0  0  0
    5.1618    1.5136    7.3911 C   0  0  0  0  0  0  0  0  0  0  0  0
    5.4568    0.9720    8.5249 N   0  0  0  0  0  0  0  0  0  0  0  0
    5.8495    1.8464    9.5368 O   0  0  0  0  0  0  0  0  0  0  0  0
    6.1877    1.0552   10.7071 C   0  0  0  0  0  0  0  0  0  0  0  0
    4.9743    0.3475   11.3575 C   0  0  0  0  0  0  0  0  0  0  0  0
    4.4252   -0.7272   10.5327 N   0  0  0  0  0  0  0  0  0  0  0  0
    2.0613    2.0051   -1.4007 O   0  0  0  0  0  0  0  0  0  0  0  0
    0.4823   -0.3928   -1.0604 H   0  0  0  0  0  0  0  0  0  0  0  0
    0.6273   -0.9210    0.6441 H   0  0  0  0  0  0  0  0  0  0  0  0
    2.0167   -0.2985   -0.2539 H   0  0  0  0  0  0  0  0  0  0  0  0
   -0.4818    1.4080    0.1097 H   0  0  0  0  0  0  0  0  0  0  0  0
    0.5359    1.2483    1.4855 H   0  0  0  0  0  0  0  0  0  0  0  0
    2.9203    0.1477    1.4095 H   0  0  0  0  0  0  0  0  0  0  0  0
    3.3162    4.4614   -0.8362 H   0  0  0  0  0  0  0  0  0  0  0  0
    3.3678    5.6118    0.4717 H   0  0  0  0  0  0  0  0  0  0  0  0
    5.4261    3.1125    4.6560 H   0  0  0  0  0  0  0  0  0  0  0  0
    3.7201    3.3394    5.2236 H   0  0  0  0  0  0  0  0  0  0  0  0
    3.3952   -3.4070    4.5029 H   0  0  0  0  0  0  0  0  0  0  0  0
    3.9140   -4.6164    6.6056 H   0  0  0  0  0  0  0  0  0  0  0  0
    4.8375   -3.3520    8.5453 H   0  0  0  0  0  0  0  0  0  0  0  0
    5.3622   -1.0892    8.3041 H   0  0  0  0  0  0  0  0  0  0  0  0
    5.2494    2.6020    7.2396 H   0  0  0  0  0  0  0  0  0  0  0  0
    6.9815    0.3342   10.4648 H   0  0  0  0  0  0  0  0  0  0  0  0
    6.6034    1.7512   11.4434 H   0  0  0  0  0  0  0  0  0  0  0  0
    5.2675   -0.0921   12.3159 H   0  0  0  0  0  0  0  0  0  0  0  0
    4.1795    1.0776   11.5322 H   0  0  0  0  0  0  0  0  0  0  0  0
    3.5570   -1.0929   10.9105 H   0  0  0  0  0  0  0  0  0  0  0  0
    4.1774   -0.2722    9.6463 H   0  0  0  0  0  0  0  0  0  0  0  0
    2.7299    2.6746   -1.6232 H   0  0  0  0  0  0  0  0  0  0  0  0
  1  2  1  0  0  0  0
  1 33  1  0  0  0  0
  1 34  1  0  0  0  0
  1 35  1  0  0  0  0
  2 36  1  0  0  0  0
  2 37  1  0  0  0  0
  3  2  1  0  0  0  0
  3  4  1  0  0  0  0
  3 13  1  0  0  0  0
  3 32  1  6  0  0  0
  4  5  1  0  0  0  0
  4 10  2  0  0  0  0
  5  6  2  0  0  0  0
  5 38  1  0  0  0  0
  6  7  1  0  0  0  0
  6 17  1  0  0  0  0
  7  8  1  0  0  0  0
  7 15  1  0  0  0  0
  8  9  2  0  0  0  0
  8 10  1  0  0  0  0
 10 11  1  0  0  0  0
 11 12  1  0  0  0  0
 11 39  1  0  0  0  0
 11 40  1  0  0  0  0
 12 13  1  0  0  0  0
 13 14  2  0  0  0  0
 15 16  1  0  0  0  0
 15 41  1  0  0  0  0
 15 42  1  0  0  0  0
 16 17  2  0  0  0  0
 16 25  1  0  0  0  0
 17 18  1  0  0  0  0
 18 19  2  0  0  0  0
 19 20  1  0  0  0  0
 19 24  1  0  0  0  0
 20 21  2  0  0  0  0
 20 43  1  0  0  0  0
 21 22  1  0  0  0  0
 21 44  1  0  0  0  0
 22 23  2  0  0  0  0
 22 45  1  0  0  0  0
 23 24  1  0  0  0  0
 23 46  1  0  0  0  0
 24 25  2  0  0  0  0
 25 26  1  0  0  0  0
 26 27  2  0  0  0  0
 26 47  1  0  0  0  0
 27 28  1  0  0  0  0
 28 29  1  0  0  0  0
 29 30  1  0  0  0  0
 29 48  1  0  0  0  0
 29 49  1  0  0  0  0
 30 31  1  0  0  0  0
 30 50  1  0  0  0  0
 30 51  1  0  0  0  0
 31 52  1  0  0  0  0
 31 53  1  0  0  0  0
 32 54  1  0  0  0  0
M  END
>  <DRUGBANK_ID>
DB12124

>  <COMMON_NAME>
Namitecan

>  <CAS_NUMBER>
372105-27-6

>  <UNII>
X34Z8N66T3

>  <SYNONYMS>
Namitecan

$$$$
