
 OpenBabel10282417123D

 15 14  0  0  1  0  0  0  0  0999 V2000
    1.0132   -0.7286   -2.2769 C   0  0  0  0  0  0  0  0  0  0  0  0
    0.4275    0.2974   -1.3112 C   0  0  2  0  0  0  0  0  0  0  0  0
    0.7553   -0.0234    0.0439 O   0  0  0  0  0  0  0  0  0  0  0  0
   -1.1028    0.3099   -1.3801 C   0  0  0  0  0  0  0  0  0  0  0  0
   -1.6115    1.2850   -0.3723 N   0  3  0  0  0  0  0  0  0  0  0  0
    1.8509   -1.2804   -1.8415 H   0  0  0  0  0  0  0  0  0  0  0  0
    1.3637   -0.2295   -3.1885 H   0  0  0  0  0  0  0  0  0  0  0  0
    0.2616   -1.4594   -2.5974 H   0  0  0  0  0  0  0  0  0  0  0  0
    0.8414    1.2874   -1.5368 H   0  0  0  0  0  0  0  0  0  0  0  0
    1.2171    0.7377    0.4512 H   0  0  0  0  0  0  0  0  0  0  0  0
   -1.4882    0.6040   -2.3578 H   0  0  0  0  0  0  0  0  0  0  0  0
   -1.5167   -0.6578   -1.0770 H   0  0  0  0  0  0  0  0  0  0  0  0
   -1.2893    2.2414   -0.5582 H   0  0  0  0  0  0  0  0  0  0  0  0
   -2.6378    1.2884   -0.3342 H   0  0  0  0  0  0  0  0  0  0  0  0
   -1.2640    1.0042    0.5577 H   0  0  0  0  0  0  0  0  0  0  0  0
  1  6  1  0  0  0  0
  1  7  1  0  0  0  0
  1  8  1  0  0  0  0
  2  4  1  0  0  0  0
  2  9  1  6  0  0  0
  2  3  1  0  0  0  0
  2  1  1  0  0  0  0
  3 10  1  0  0  0  0
  4  5  1  0  0  0  0
  4 11  1  0  0  0  0
  4 12  1  0  0  0  0
  5 13  1  0  0  0  0
  5 14  1  0  0  0  0
  5 15  1  0  0  0  0
M  CHG  1   5   1
M  END
>  <DRUGBANK_ID>
DB02576

>  <SECONDARY_ACCESSION_NUMBERS>
EXPT01471

>  <COMMON_NAME>
F-Loop of Vitamin B12

>  <CAS_NUMBER>
78-96-6

>  <UNII>
UE40BY1BZW

$$$$
