
 OpenBabel10282417123D

 56 59  0  0  0  0  0  0  0  0999 V2000
   -0.3752    1.2140    0.0510 C   0  0  0  0  0  0  0  0  0  0  0  0
    0.9677    1.2930    0.0160 C   0  0  0  0  0  0  0  0  0  0  0  0
    1.6926    0.0850    0.0225 C   0  0  0  0  0  0  0  0  0  0  0  0
    1.0543   -1.1781    0.0746 C   0  0  0  0  0  0  0  0  0  0  0  0
   -0.3084   -1.2024    0.1695 C   0  0  0  0  0  0  0  0  0  0  0  0
   -0.9290    0.0203    0.1630 N   0  0  0  0  0  0  0  0  0  0  0  0
    1.5074    2.6545    0.0134 C   0  0  0  0  0  0  0  0  0  0  0  0
    0.8729    3.6829    0.0263 O   0  0  0  0  0  0  0  0  0  0  0  0
    2.8485    2.6327    0.0293 O   0  0  0  0  0  0  0  0  0  0  0  0
   -1.3318   -2.3853    0.0473 C   0  0  0  0  0  0  0  0  0  0  0  0
   -1.5695   -3.7367    0.7274 C   0  0  0  0  0  0  0  0  0  0  0  0
   -0.7704   -3.6958   -0.5125 C   0  0  0  0  0  0  0  0  0  0  0  0
   -3.1460   -1.0293    1.0869 C   0  0  0  0  0  0  0  0  0  0  0  0
   -2.6946   -1.6708   -0.1167 C   0  0  0  0  0  0  0  0  0  0  0  0
   -3.0132   -1.0672   -1.3424 C   0  0  0  0  0  0  0  0  0  0  0  0
   -3.6969    0.1574   -1.3288 C   0  0  0  0  0  0  0  0  0  0  0  0
   -4.1023    0.8093   -0.1364 C   0  0  0  0  0  0  0  0  0  0  0  0
   -4.9210    2.0941   -0.2294 C   0  0  0  0  0  0  0  0  0  0  0  0
   -5.6123    2.3919    1.1187 C   0  0  0  0  0  0  0  0  0  0  0  0
   -4.5987    2.3613    2.2569 C   0  0  0  0  0  0  0  0  0  0  0  0
   -4.0426    0.9300    2.4417 C   0  0  0  0  0  0  0  0  0  0  0  0
   -3.7671    0.2372    1.1007 C   0  0  0  0  0  0  0  0  0  0  0  0
   -2.8053    1.0460    3.3702 C   0  0  0  0  0  0  0  0  0  0  0  0
   -5.1050    0.0533    3.1238 C   0  0  0  0  0  0  0  0  0  0  0  0
   -6.0212    1.8670   -1.2846 C   0  0  0  0  0  0  0  0  0  0  0  0
   -4.0611    3.3083   -0.6337 C   0  0  0  0  0  0  0  0  0  0  0  0
   -2.3571   -1.4955   -2.6236 C   0  0  0  0  0  0  0  0  0  0  0  0
   -1.0715    2.0476    0.0099 H   0  0  0  0  0  0  0  0  0  0  0  0
    2.7733    0.1206   -0.0249 H   0  0  0  0  0  0  0  0  0  0  0  0
    1.6187   -2.0971    0.0138 H   0  0  0  0  0  0  0  0  0  0  0  0
    3.0868    3.5807    0.0555 H   0  0  0  0  0  0  0  0  0  0  0  0
   -1.1288   -3.9826    1.6784 H   0  0  0  0  0  0  0  0  0  0  0  0
   -2.5552   -4.2012    0.6022 H   0  0  0  0  0  0  0  0  0  0  0  0
   -1.1622   -4.1313   -1.4217 H   0  0  0  0  0  0  0  0  0  0  0  0
    0.2793   -3.9426   -0.3688 H   0  0  0  0  0  0  0  0  0  0  0  0
   -2.6780   -1.3624    2.0185 H   0  0  0  0  0  0  0  0  0  0  0  0
   -3.8102    0.6712   -2.2811 H   0  0  0  0  0  0  0  0  0  0  0  0
   -6.3974    1.6500    1.3070 H   0  0  0  0  0  0  0  0  0  0  0  0
   -6.1213    3.3615    1.0912 H   0  0  0  0  0  0  0  0  0  0  0  0
   -3.7839    3.0694    2.0565 H   0  0  0  0  0  0  0  0  0  0  0  0
   -5.0624    2.7196    3.1846 H   0  0  0  0  0  0  0  0  0  0  0  0
   -3.0799    1.5056    4.3296 H   0  0  0  0  0  0  0  0  0  0  0  0
   -2.3591    0.0760    3.6089 H   0  0  0  0  0  0  0  0  0  0  0  0
   -2.0165    1.6666    2.9266 H   0  0  0  0  0  0  0  0  0  0  0  0
   -5.9804   -0.0753    2.4776 H   0  0  0  0  0  0  0  0  0  0  0  0
   -4.7197   -0.9521    3.3245 H   0  0  0  0  0  0  0  0  0  0  0  0
   -5.4370    0.4866    4.0696 H   0  0  0  0  0  0  0  0  0  0  0  0
   -6.7052    2.7150   -1.3441 H   0  0  0  0  0  0  0  0  0  0  0  0
   -5.6056    1.7246   -2.2882 H   0  0  0  0  0  0  0  0  0  0  0  0
   -6.5988    0.9645   -1.0456 H   0  0  0  0  0  0  0  0  0  0  0  0
   -3.2654    3.5223    0.0879 H   0  0  0  0  0  0  0  0  0  0  0  0
   -3.5728    3.1643   -1.6016 H   0  0  0  0  0  0  0  0  0  0  0  0
   -4.6854    4.2082   -0.7017 H   0  0  0  0  0  0  0  0  0  0  0  0
   -3.1187   -1.8528   -3.3154 H   0  0  0  0  0  0  0  0  0  0  0  0
   -1.7939   -0.6665   -3.0685 H   0  0  0  0  0  0  0  0  0  0  0  0
   -1.6333   -2.2968   -2.4818 H   0  0  0  0  0  0  0  0  0  0  0  0
  1  2  1  0  0  0  0
  1  6  2  0  0  0  0
  1 28  1  0  0  0  0
  2  3  2  0  0  0  0
  2  7  1  0  0  0  0
  3  4  1  0  0  0  0
  3 29  1  0  0  0  0
  4  5  2  0  0  0  0
  4 30  1  0  0  0  0
  5  6  1  0  0  0  0
  5 10  1  0  0  0  0
  7  8  2  0  0  0  0
  7  9  1  0  0  0  0
  9 31  1  0  0  0  0
 10 11  1  0  0  0  0
 10 12  1  0  0  0  0
 10 14  1  0  0  0  0
 11 12  1  0  0  0  0
 11 32  1  0  0  0  0
 11 33  1  0  0  0  0
 12 34  1  0  0  0  0
 12 35  1  0  0  0  0
 13 14  1  0  0  0  0
 13 22  2  0  0  0  0
 13 36  1  0  0  0  0
 14 15  2  0  0  0  0
 15 16  1  0  0  0  0
 15 27  1  0  0  0  0
 16 17  2  0  0  0  0
 16 37  1  0  0  0  0
 17 18  1  0  0  0  0
 17 22  1  0  0  0  0
 18 19  1  0  0  0  0
 18 25  1  0  0  0  0
 18 26  1  0  0  0  0
 19 20  1  0  0  0  0
 19 38  1  0  0  0  0
 19 39  1  0  0  0  0
 20 21  1  0  0  0  0
 20 40  1  0  0  0  0
 20 41  1  0  0  0  0
 21 22  1  0  0  0  0
 21 23  1  0  0  0  0
 21 24  1  0  0  0  0
 23 42  1  0  0  0  0
 23 43  1  0  0  0  0
 23 44  1  0  0  0  0
 24 45  1  0  0  0  0
 24 46  1  0  0  0  0
 24 47  1  0  0  0  0
 25 48  1  0  0  0  0
 25 49  1  0  0  0  0
 25 50  1  0  0  0  0
 26 51  1  0  0  0  0
 26 52  1  0  0  0  0
 26 53  1  0  0  0  0
 27 54  1  0  0  0  0
 27 55  1  0  0  0  0
 27 56  1  0  0  0  0
M  END
>  <DRUGBANK_ID>
DB01941

>  <SECONDARY_ACCESSION_NUMBERS>
EXPT02021

>  <COMMON_NAME>
LG-100268

>  <CAS_NUMBER>
153559-76-3

>  <UNII>
UVU4X1103P

$$$$
