
 OpenBabel10282417133D

 34 33  0  0  0  0  0  0  0  0999 V2000
    1.0709    0.1180    0.0131 C   0  0  0  0  0  0  0  0  0  0  0  0
   -1.5697   -3.6892    1.0189 C   0  0  0  0  0  0  0  0  0  0  0  0
    0.6102   -1.2117   -0.5863 C   0  0  0  0  0  0  0  0  0  0  0  0
   -0.9665   -2.4316    1.6342 C   0  0  0  0  0  0  0  0  0  0  0  0
    1.1143   -2.4309    0.1882 C   0  0  0  0  0  0  0  0  0  0  0  0
    0.5641   -2.5588    1.6079 C   0  0  0  0  0  0  0  0  0  0  0  0
    0.5503    0.4292    1.4205 C   0  0  0  0  0  0  0  0  0  0  0  0
    1.0706    1.6856    2.0593 C   0  0  0  0  0  0  0  0  0  0  0  0
   -1.1022   -4.9308    1.7780 C   0  0  0  0  0  0  0  0  0  0  0  0
   -1.5158   -4.8430    3.2393 C   0  0  0  0  0  0  0  0  0  0  0  0
    0.5704    2.8773    1.3167 C   0  0  0  0  0  0  0  0  0  0  0  0
   -0.1465    3.5033    1.8724 H   0  0  0  0  0  0  0  0  0  0  0  0
    0.8741    3.1273    0.1651 O   0  0  0  0  0  0  0  0  0  0  0  0
    0.7340    0.8932   -0.6791 H   0  0  0  0  0  0  0  0  0  0  0  0
    2.1659    0.1349    0.0185 H   0  0  0  0  0  0  0  0  0  0  0  0
   -2.6619   -3.6206    1.0235 H   0  0  0  0  0  0  0  0  0  0  0  0
   -1.2766   -3.7624   -0.0357 H   0  0  0  0  0  0  0  0  0  0  0  0
   -0.4809   -1.2184   -0.6977 H   0  0  0  0  0  0  0  0  0  0  0  0
    0.9848   -1.2802   -1.6160 H   0  0  0  0  0  0  0  0  0  0  0  0
   -1.3205   -2.2577    2.6556 H   0  0  0  0  0  0  0  0  0  0  0  0
   -1.3533   -1.5634    1.0927 H   0  0  0  0  0  0  0  0  0  0  0  0
    0.8434   -3.3325   -0.3751 H   0  0  0  0  0  0  0  0  0  0  0  0
    2.2080   -2.4195    0.2217 H   0  0  0  0  0  0  0  0  0  0  0  0
    0.9222   -3.4879    2.0466 H   0  0  0  0  0  0  0  0  0  0  0  0
    1.0435   -1.9057    2.3234 H   0  0  0  0  0  0  0  0  0  0  0  0
   -0.5425    0.3805    1.4623 H   0  0  0  0  0  0  0  0  0  0  0  0
    0.9449   -0.2688    2.1309 H   0  0  0  0  0  0  0  0  0  0  0  0
    0.7035    1.7217    3.0942 H   0  0  0  0  0  0  0  0  0  0  0  0
    2.1634    1.6717    2.1048 H   0  0  0  0  0  0  0  0  0  0  0  0
   -1.5053   -5.8267    1.3053 H   0  0  0  0  0  0  0  0  0  0  0  0
   -0.0168   -5.0604    1.7131 H   0  0  0  0  0  0  0  0  0  0  0  0
   -2.6052   -4.7838    3.3063 H   0  0  0  0  0  0  0  0  0  0  0  0
   -1.1581   -5.7106    3.7929 H   0  0  0  0  0  0  0  0  0  0  0  0
   -1.1032   -3.9629    3.7462 H   0  0  0  0  0  0  0  0  0  0  0  0
  1 14  1  0  0  0  0
  1 15  1  0  0  0  0
  2 16  1  0  0  0  0
  2 17  1  0  0  0  0
  3  1  1  0  0  0  0
  3 18  1  0  0  0  0
  3 19  1  0  0  0  0
  4  2  1  0  0  0  0
  4 20  1  0  0  0  0
  4 21  1  0  0  0  0
  5  3  1  0  0  0  0
  5 22  1  0  0  0  0
  5 23  1  0  0  0  0
  6  4  1  0  0  0  0
  6  5  1  0  0  0  0
  6 24  1  0  0  0  0
  6 25  1  0  0  0  0
  7  1  1  0  0  0  0
  7 26  1  0  0  0  0
  7 27  1  0  0  0  0
  8  7  1  0  0  0  0
  8 11  1  0  0  0  0
  8 28  1  0  0  0  0
  8 29  1  0  0  0  0
  9  2  1  0  0  0  0
  9 30  1  0  0  0  0
  9 31  1  0  0  0  0
 10  9  1  0  0  0  0
 10 32  1  0  0  0  0
 10 33  1  0  0  0  0
 10 34  1  0  0  0  0
 11 12  1  0  0  0  0
 11 13  2  0  0  0  0
M  END
>  <DRUGBANK_ID>
DB04093

>  <SECONDARY_ACCESSION_NUMBERS>
EXPT03190

>  <COMMON_NAME>
Undecanal

>  <CAS_NUMBER>
112-44-7

>  <UNII>
B6P0A9PSHN

>  <SYNONYMS>
n-Undecanal; Undecanal; Undecanaldehyde; Undecyl aldehyde; Undecylaldehyde; Undecylic aldehyde

$$$$
