RED
 OpenBabel10282417133D

 28 27  0  0  0  0  0  0  0  0999 V2000
    8.1933    1.9851   -5.2543 C   0  0  0  0  0  0  0  0  0  0  0  0
    7.6513    2.2092   -6.3312 O   0  0  0  0  0  0  0  0  0  0  0  0
    9.2333    1.1451   -5.1956 O   0  0  0  0  0  0  0  0  0  0  0  0
    7.8291    2.5538   -3.9199 C   0  0  0  0  0  0  0  0  0  0  0  0
    6.6000    3.4441   -4.0585 C   0  0  0  0  0  0  0  0  0  0  0  0
    5.3448    2.6624   -4.4253 C   0  0  0  0  0  0  0  0  0  0  0  0
    5.0839    1.5269   -3.4630 C   0  0  0  0  0  0  0  0  0  0  0  0
    4.4004    1.8795   -2.1237 C   0  0  2  0  0  0  0  0  0  0  0  0
    2.8699    1.7789   -2.1721 C   0  0  0  0  0  0  0  0  0  0  0  0
    2.2849    0.9526   -3.3139 C   0  0  0  0  0  0  0  0  0  0  0  0
    2.6857   -0.8351   -3.2004 S   0  0  0  0  0  0  0  0  0  0  0  0
    4.7463    3.5276   -1.3733 S   0  0  0  0  0  0  0  0  0  0  0  0
    4.7770    1.1703   -1.3763 H   0  0  0  0  0  0  0  0  0  0  0  0
    9.3445    0.8872   -6.1350 H   0  0  0  0  0  0  0  0  0  0  0  0
    7.6721    1.7409   -3.2022 H   0  0  0  0  0  0  0  0  0  0  0  0
    8.6552    3.1489   -3.5266 H   0  0  0  0  0  0  0  0  0  0  0  0
    6.4938    3.9666   -3.1136 H   0  0  0  0  0  0  0  0  0  0  0  0
    6.7500    4.2318   -4.8010 H   0  0  0  0  0  0  0  0  0  0  0  0
    4.4582    3.3019   -4.5038 H   0  0  0  0  0  0  0  0  0  0  0  0
    5.4486    2.2250   -5.4272 H   0  0  0  0  0  0  0  0  0  0  0  0
    4.5034    0.8437   -4.0737 H   0  0  0  0  0  0  0  0  0  0  0  0
    5.9510    0.8869   -3.2718 H   0  0  0  0  0  0  0  0  0  0  0  0
    2.5214    1.3865   -1.2082 H   0  0  0  0  0  0  0  0  0  0  0  0
    2.4261    2.7802   -2.2633 H   0  0  0  0  0  0  0  0  0  0  0  0
    1.1982    1.0385   -3.2917 H   0  0  0  0  0  0  0  0  0  0  0  0
    2.5854    1.3813   -4.2809 H   0  0  0  0  0  0  0  0  0  0  0  0
    4.0325   -0.7697   -3.2138 H   0  0  0  0  0  0  0  0  0  0  0  0
    4.5039    4.2540   -2.4840 H   0  0  0  0  0  0  0  0  0  0  0  0
  1  2  2  0  0  0  0
  1  3  1  0  0  0  0
  1  4  1  0  0  0  0
  3 14  1  0  0  0  0
  4  5  1  0  0  0  0
  4 15  1  0  0  0  0
  4 16  1  0  0  0  0
  5  6  1  0  0  0  0
  5 17  1  0  0  0  0
  5 18  1  0  0  0  0
  6  7  1  0  0  0  0
  6 19  1  0  0  0  0
  6 20  1  0  0  0  0
  7 21  1  0  0  0  0
  7 22  1  0  0  0  0
  8 12  1  0  0  0  0
  8 13  1  1  0  0  0
  8  9  1  0  0  0  0
  8  7  1  0  0  0  0
  9 10  1  0  0  0  0
  9 23  1  0  0  0  0
  9 24  1  0  0  0  0
 10 11  1  0  0  0  0
 10 25  1  0  0  0  0
 10 26  1  0  0  0  0
 11 27  1  0  0  0  0
 12 28  1  0  0  0  0
M  END
>  <DRUGBANK_ID>
DB03760

>  <SECONDARY_ACCESSION_NUMBERS>
EXPT02769

>  <COMMON_NAME>
Dihydrolipoic Acid

>  <CAS_NUMBER>
462-20-4

>  <UNII>
00K1YL9Q69

$$$$
