YZ9
 OpenBabel10282417123D

 27 28  0  0  0  0  0  0  0  0999 V2000
    0.9314   -0.0882    0.0426 C   0  0  0  0  0  0  0  0  0  0  0  0
    0.5298    1.3644   -0.1718 C   0  0  0  0  0  0  0  0  0  0  0  0
    3.1821    1.6817   -0.6828 O   0  0  0  0  0  0  0  0  0  0  0  0
    1.0214    1.8873   -1.4278 O   0  0  0  0  0  0  0  0  0  0  0  0
    5.6228    2.0635   -5.2230 C   0  0  0  0  0  0  0  0  0  0  0  0
    3.8744    2.0088   -3.4106 C   0  0  0  0  0  0  0  0  0  0  0  0
    4.4541    4.3873   -6.2463 C   0  0  0  0  0  0  0  0  0  0  0  0
    2.7734    4.3197   -4.5457 O   0  0  0  0  0  0  0  0  0  0  0  0
    4.4815    2.5900   -4.6036 C   0  0  0  0  0  0  0  0  0  0  0  0
    3.9186    3.7470   -5.1312 C   0  0  0  0  0  0  0  0  0  0  0  0
    2.1765    3.7916   -3.4004 C   0  0  0  0  0  0  0  0  0  0  0  0
    2.3673    2.0237   -1.5354 C   0  0  0  0  0  0  0  0  0  0  0  0
    6.0587    4.4933   -7.9585 O   0  0  0  0  0  0  0  0  0  0  0  0
    1.2106    4.3444   -2.8904 O   0  0  0  0  0  0  0  0  0  0  0  0
    6.1667    2.6873   -6.3595 C   0  0  0  0  0  0  0  0  0  0  0  0
    2.7991    2.5802   -2.8343 C   0  0  0  0  0  0  0  0  0  0  0  0
    5.5754    3.8460   -6.8600 C   0  0  0  0  0  0  0  0  0  0  0  0
    0.5797   -0.7075   -0.7875 H   0  0  0  0  0  0  0  0  0  0  0  0
    0.5233   -0.4775    0.9799 H   0  0  0  0  0  0  0  0  0  0  0  0
    2.0168   -0.2077    0.0861 H   0  0  0  0  0  0  0  0  0  0  0  0
   -0.5657    1.4236   -0.1986 H   0  0  0  0  0  0  0  0  0  0  0  0
    0.8598    2.0007    0.6588 H   0  0  0  0  0  0  0  0  0  0  0  0
    6.1065    1.1703   -4.8323 H   0  0  0  0  0  0  0  0  0  0  0  0
    4.3473    1.1314   -2.9767 H   0  0  0  0  0  0  0  0  0  0  0  0
    4.0036    5.2959   -6.6321 H   0  0  0  0  0  0  0  0  0  0  0  0
    6.8318    4.0207   -8.3073 H   0  0  0  0  0  0  0  0  0  0  0  0
    7.0460    2.2590   -6.8337 H   0  0  0  0  0  0  0  0  0  0  0  0
  1  2  1  0  0  0  0
  1 18  1  0  0  0  0
  1 19  1  0  0  0  0
  1 20  1  0  0  0  0
  2  4  1  0  0  0  0
  2 21  1  0  0  0  0
  2 22  1  0  0  0  0
  3 12  2  0  0  0  0
  4 12  1  0  0  0  0
  5  9  2  0  0  0  0
  5 15  1  0  0  0  0
  5 23  1  0  0  0  0
  6  9  1  0  0  0  0
  6 16  2  0  0  0  0
  6 24  1  0  0  0  0
  7 10  2  0  0  0  0
  7 17  1  0  0  0  0
  7 25  1  0  0  0  0
  8 10  1  0  0  0  0
  8 11  1  0  0  0  0
  9 10  1  0  0  0  0
 11 14  2  0  0  0  0
 11 16  1  0  0  0  0
 12 16  1  0  0  0  0
 13 17  1  0  0  0  0
 13 26  1  0  0  0  0
 15 17  2  0  0  0  0
 15 27  1  0  0  0  0
M  END
>  <DRUGBANK_ID>
DB02728

>  <SECONDARY_ACCESSION_NUMBERS>
EXPT03279

>  <COMMON_NAME>
7-Hydroxy-2-Oxo-Chromene-3-Carboxylic Acid Ethyl Ester

>  <UNII>
X538NC636R

$$$$
