
 OpenBabel10282417223D

  9  6  0  0  0  0  0  0  0  0999 V2000
    0.7472   -0.5030   -0.5198 S   0  0  0  0  0  0  0  0  0  0  0  0
   -0.1585   -1.9031    0.8478 S   0  0  3  0  0  0  0  0  0  0  0  0
    0.2196    0.8201   -0.1136 O   0  0  0  0  0  0  0  0  0  0  0  0
    0.3691   -0.9666   -1.8149 O   0  0  0  0  0  0  0  0  0  0  0  0
    2.1928   -0.4670   -0.2216 O   0  5  0  0  0  0  0  0  0  0  0  0
   -1.1545   -1.2335    1.7791 O   0  0  0  0  0  0  0  0  0  0  0  0
    0.8233   -2.8461    1.5117 O   0  5  0  0  0  0  0  0  0  0  0  0
    0.8856    0.6035    2.4887 K   0  3  0  0  0  0  0  0  0  0  0  0
    2.4277    2.0382   -1.0142 K   0  3  0  0  0  0  0  0  0  0  0  0
  1  2  1  0  0  0  0
  1  3  2  0  0  0  0
  1  4  2  0  0  0  0
  1  5  1  0  0  0  0
  2  6  2  0  0  0  0
  2  7  1  0  0  0  0
M  CHG  4   5  -1   7  -1   8   1   9   1
M  END
>  <DRUGBANK_ID>
DB15841

>  <COMMON_NAME>
Potassium metabisulfite

>  <CAS_NUMBER>
16731-55-8

>  <UNII>
65OE787Q7W

>  <SYNONYMS>
Potassium disulfite; Potassium metabisulfite; Potassium metabisulphite; Potassium pentaoxodisulfate; Potassium pyrosulfite

$$$$
