34154
 OpenBabel10282417173D

 37 38  0  0  0  0  0  0  0  0999 V2000
    1.0340   -0.1019   -0.0318 O   0  0  0  0  0  0  0  0  0  0  0  0
    3.9167    1.5817   -1.4380 N   0  0  0  0  0  0  0  0  0  0  0  0
    2.2998    2.3843   -0.0620 N   0  0  0  0  0  0  0  0  0  0  0  0
    1.9581   -1.4866    2.4832 C   0  0  0  0  0  0  0  0  0  0  0  0
    0.8098   -1.9223    1.6035 C   0  0  0  0  0  0  0  0  0  0  0  0
    0.4476   -1.2507    0.4270 C   0  0  0  0  0  0  0  0  0  0  0  0
    2.8642    1.3235   -0.6043 C   0  0  0  0  0  0  0  0  0  0  0  0
    1.5732   -1.1894    3.9234 C   0  0  0  0  0  0  0  0  0  0  0  0
    3.0969   -2.5008    2.3501 C   0  0  0  0  0  0  0  0  0  0  0  0
    4.2606    2.9741   -1.3399 C   0  0  0  0  0  0  0  0  0  0  0  0
    0.0738   -3.0632    1.9830 C   0  0  0  0  0  0  0  0  0  0  0  0
    2.4445   -0.0866   -0.2418 C   0  0  0  0  0  0  0  0  0  0  0  0
    2.9557    3.5256   -0.7567 C   0  0  0  0  0  0  0  0  0  0  0  0
   -0.6916   -1.6731   -0.2850 C   0  0  0  0  0  0  0  0  0  0  0  0
   -1.4237   -2.8060    0.1093 C   0  0  0  0  0  0  0  0  0  0  0  0
   -1.0232   -3.5024    1.2479 C   0  0  0  0  0  0  0  0  0  0  0  0
   -2.6166   -3.2959   -0.6575 C   0  0  0  0  0  0  0  0  0  0  0  0
    4.5668    0.8772   -1.7638 H   0  0  0  0  0  0  0  0  0  0  0  0
    2.3017   -0.5032    2.1840 H   0  0  0  0  0  0  0  0  0  0  0  0
    1.1921   -2.0616    4.4543 H   0  0  0  0  0  0  0  0  0  0  0  0
    2.4494   -0.8035    4.4566 H   0  0  0  0  0  0  0  0  0  0  0  0
    0.8081   -0.4032    3.9409 H   0  0  0  0  0  0  0  0  0  0  0  0
    3.3448   -2.6865    1.2960 H   0  0  0  0  0  0  0  0  0  0  0  0
    4.0026   -2.1441    2.8466 H   0  0  0  0  0  0  0  0  0  0  0  0
    2.8258   -3.4675    2.7889 H   0  0  0  0  0  0  0  0  0  0  0  0
    4.5007    3.4060   -2.3125 H   0  0  0  0  0  0  0  0  0  0  0  0
    5.0936    3.1349   -0.6452 H   0  0  0  0  0  0  0  0  0  0  0  0
    0.3540   -3.6223    2.8730 H   0  0  0  0  0  0  0  0  0  0  0  0
    3.0647   -0.2932    0.6256 H   0  0  0  0  0  0  0  0  0  0  0  0
    2.7402   -0.7987   -1.0166 H   0  0  0  0  0  0  0  0  0  0  0  0
    3.1253    4.3628   -0.0736 H   0  0  0  0  0  0  0  0  0  0  0  0
    2.2845    3.8554   -1.5581 H   0  0  0  0  0  0  0  0  0  0  0  0
   -1.0113   -1.1028   -1.1553 H   0  0  0  0  0  0  0  0  0  0  0  0
   -1.5682   -4.3835    1.5795 H   0  0  0  0  0  0  0  0  0  0  0  0
   -2.4333   -4.3145   -1.0176 H   0  0  0  0  0  0  0  0  0  0  0  0
   -3.5042   -3.3060   -0.0150 H   0  0  0  0  0  0  0  0  0  0  0  0
   -2.8319   -2.6650   -1.5244 H   0  0  0  0  0  0  0  0  0  0  0  0
  1  6  1  0  0  0  0
  1 12  1  0  0  0  0
  2  7  1  0  0  0  0
  2 10  1  0  0  0  0
  2 18  1  0  0  0  0
  3  7  2  0  0  0  0
  3 13  1  0  0  0  0
  4  5  1  0  0  0  0
  4  8  1  0  0  0  0
  4  9  1  0  0  0  0
  4 19  1  0  0  0  0
  5  6  2  0  0  0  0
  5 11  1  0  0  0  0
  6 14  1  0  0  0  0
  7 12  1  0  0  0  0
  8 20  1  0  0  0  0
  8 21  1  0  0  0  0
  8 22  1  0  0  0  0
  9 23  1  0  0  0  0
  9 24  1  0  0  0  0
  9 25  1  0  0  0  0
 10 13  1  0  0  0  0
 10 26  1  0  0  0  0
 10 27  1  0  0  0  0
 11 16  2  0  0  0  0
 11 28  1  0  0  0  0
 12 29  1  0  0  0  0
 12 30  1  0  0  0  0
 13 31  1  0  0  0  0
 13 32  1  0  0  0  0
 14 15  2  0  0  0  0
 14 33  1  0  0  0  0
 15 16  1  0  0  0  0
 15 17  1  0  0  0  0
 16 34  1  0  0  0  0
 17 35  1  0  0  0  0
 17 36  1  0  0  0  0
 17 37  1  0  0  0  0
M  END
>  <DRUGBANK_ID>
DB08803

>  <COMMON_NAME>
Tymazoline

>  <CAS_NUMBER>
24243-97-8

>  <UNII>
U993RH5585

>  <SYNONYMS>
Tymazoline

$$$$
