
 OpenBabel10282417223D

 33 32  0  0  0  0  0  0  0  0999 V2000
    0.4692    0.5672   -1.2048 S   0  0  0  0  0  0  0  0  0  0  0  0
   -0.3993    0.2089    0.7079 C   0  0  0  0  0  0  0  0  0  0  0  0
   -0.3370    1.7086   -1.5465 O   0  0  0  0  0  0  0  0  0  0  0  0
   -0.1305   -0.6252   -1.8381 O   0  0  0  0  0  0  0  0  0  0  0  0
    1.9155    0.6323   -1.4039 O   0  5  0  0  0  0  0  0  0  0  0  0
   -0.8398    1.2995    1.4761 C   0  0  0  0  0  0  0  0  0  0  0  0
   -0.7479   -1.1076    1.1944 C   0  0  0  0  0  0  0  0  0  0  0  0
   -1.5020    1.0774    2.7333 C   0  0  0  0  0  0  0  0  0  0  0  0
   -1.4087   -1.3000    2.4423 C   0  0  0  0  0  0  0  0  0  0  0  0
   -1.8007   -0.2076    3.1999 C   0  0  0  0  0  0  0  0  0  0  0  0
   -2.3027   -0.4449    4.4516 O   0  0  0  0  0  0  0  0  0  0  0  0
    2.5213   -0.3931    1.1284 S   0  0  0  0  0  0  0  0  0  0  0  0
    1.8893   -0.4961    2.8184 C   0  0  0  0  0  0  0  0  0  0  0  0
    2.1539    1.0026    0.9163 O   0  0  0  0  0  0  0  0  0  0  0  0
    1.7259   -1.4123    0.4239 O   0  0  0  0  0  0  0  0  0  0  0  0
    3.9376   -0.6946    1.2248 O   0  5  0  0  0  0  0  0  0  0  0  0
    1.4815    0.7100    3.4407 C   0  0  0  0  0  0  0  0  0  0  0  0
    1.4633   -1.7151    3.3261 C   0  0  0  0  0  0  0  0  0  0  0  0
    0.8236    0.7017    4.6630 C   0  0  0  0  0  0  0  0  0  0  0  0
    0.8141   -1.7237    4.5617 C   0  0  0  0  0  0  0  0  0  0  0  0
    0.5459   -0.5279    5.2413 C   0  0  0  0  0  0  0  0  0  0  0  0
   -0.2548   -0.6107    6.3477 O   0  0  0  0  0  0  0  0  0  0  0  0
   -1.7799   -0.9199   -1.1842 Zn  0  2  0  0  0  0  0  0  0  0  0  0
   -0.4865    2.3031    1.2438 H   0  0  0  0  0  0  0  0  0  0  0  0
   -0.2817   -2.0270    0.8263 H   0  0  0  0  0  0  0  0  0  0  0  0
   -1.5886    1.9091    3.4365 H   0  0  0  0  0  0  0  0  0  0  0  0
   -1.3595   -2.2786    2.9455 H   0  0  0  0  0  0  0  0  0  0  0  0
   -1.8506    0.1195    5.1089 H   0  0  0  0  0  0  0  0  0  0  0  0
    1.4717    1.6461    2.8710 H   0  0  0  0  0  0  0  0  0  0  0  0
    1.4425   -2.5920    2.6776 H   0  0  0  0  0  0  0  0  0  0  0  0
    0.3657    1.6273    5.0060 H   0  0  0  0  0  0  0  0  0  0  0  0
    0.3289   -2.6351    4.8958 H   0  0  0  0  0  0  0  0  0  0  0  0
   -0.4535    0.2787    6.6807 H   0  0  0  0  0  0  0  0  0  0  0  0
  1  2  1  0  0  0  0
  1  3  2  0  0  0  0
  1  4  2  0  0  0  0
  1  5  1  0  0  0  0
  2  6  1  0  0  0  0
  2  7  2  0  0  0  0
  6  8  2  0  0  0  0
  6 24  1  0  0  0  0
  7  9  1  0  0  0  0
  7 25  1  0  0  0  0
  8 10  1  0  0  0  0
  8 26  1  0  0  0  0
  9 10  2  0  0  0  0
  9 27  1  0  0  0  0
 10 11  1  0  0  0  0
 11 28  1  0  0  0  0
 12 13  1  0  0  0  0
 12 14  2  0  0  0  0
 12 15  2  0  0  0  0
 12 16  1  0  0  0  0
 13 17  1  0  0  0  0
 13 18  2  0  0  0  0
 17 19  2  0  0  0  0
 17 29  1  0  0  0  0
 18 20  1  0  0  0  0
 18 30  1  0  0  0  0
 19 21  1  0  0  0  0
 19 31  1  0  0  0  0
 20 21  2  0  0  0  0
 20 32  1  0  0  0  0
 21 22  1  0  0  0  0
 22 33  1  0  0  0  0
M  CHG  3   5  -1  16  -1  23   2
M  END
>  <DRUGBANK_ID>
DB15793

>  <COMMON_NAME>
Zinc phenolsulfonate

>  <CAS_NUMBER>
127-82-2

>  <UNII>
4O71YT5YB5

>  <SYNONYMS>
p-hydroxybenzenesulfonic acid zinc salt; Phenozin; Zinc p-phenolsulfonate; Zinc p-phenolsulphonate; Zinc paraphenolsulfonate; Zinc paraphenolsulphonate; Zinc phenolsulfonate; Zinc phenolsulphonate; Zinc sulfocarbolate

$$$$
