
 OpenBabel10282417173D

 45 46  0  0  0  0  0  0  0  0999 V2000
    0.9533   -0.0501   -0.0937 C   0  0  0  0  0  0  0  0  0  0  0  0
   -0.3877   -0.2112    1.9503 C   0  0  0  0  0  0  0  0  0  0  0  0
    1.6679    3.3247   -0.4686 C   0  0  0  0  0  0  0  0  0  0  0  0
    0.3315    4.4419    1.2820 C   0  0  0  0  0  0  0  0  0  0  0  0
    3.8687   -2.0500    0.4883 C   0  0  0  0  0  0  0  0  0  0  0  0
    4.8117    4.9806    3.9397 C   0  0  0  0  0  0  0  0  0  0  0  0
    5.2454    3.9141    3.1667 C   0  0  0  0  0  0  0  0  0  0  0  0
    3.4499    5.2405    4.0430 C   0  0  0  0  0  0  0  0  0  0  0  0
    4.3142    3.1588    2.4511 C   0  0  0  0  0  0  0  0  0  0  0  0
    2.5237    4.3751    3.4551 C   0  0  0  0  0  0  0  0  0  0  0  0
    2.4955    0.2509    2.9348 C   0  0  0  0  0  0  0  0  0  0  0  0
    2.9353    3.3445    2.6059 C   0  0  0  0  0  0  0  0  0  0  0  0
    1.7729    1.1817    2.0099 C   0  0  0  0  0  0  0  0  0  0  0  0
    1.9497    2.5131    1.8838 C   0  0  0  0  0  0  0  0  0  0  0  0
    0.5702    0.7266    1.1774 C   0  0  0  0  0  0  0  0  0  0  0  0
    0.9557    3.0901    0.8844 C   0  0  0  0  0  0  0  0  0  0  0  0
   -0.0879    1.9998    0.7012 N   0  0  0  0  0  0  0  0  0  0  0  0
   -1.1621    2.2779    1.6536 O   0  0  0  0  0  0  0  0  0  0  0  0
    3.9666    0.5419   -0.1570 O   0  0  0  0  0  0  0  0  0  0  0  0
    6.0496   -0.6207    0.5326 O   0  0  0  0  0  0  0  0  0  0  0  0
    4.2652   -0.0064    2.6959 S   0  0  0  0  0  0  0  0  0  0  0  0
    4.6246   -0.4459    0.6818 S   0  0  0  0  0  0  0  0  0  0  0  0
    0.6152    0.4261   -1.0197 H   0  0  0  0  0  0  0  0  0  0  0  0
    0.5711   -1.0765   -0.0987 H   0  0  0  0  0  0  0  0  0  0  0  0
    2.0147   -0.1532   -0.1814 H   0  0  0  0  0  0  0  0  0  0  0  0
   -1.2385   -0.5048    1.3221 H   0  0  0  0  0  0  0  0  0  0  0  0
    0.1175   -1.1424    2.2300 H   0  0  0  0  0  0  0  0  0  0  0  0
   -0.7727    0.2353    2.8716 H   0  0  0  0  0  0  0  0  0  0  0  0
    0.9699    3.7139   -1.2201 H   0  0  0  0  0  0  0  0  0  0  0  0
    2.4736    4.0627   -0.3627 H   0  0  0  0  0  0  0  0  0  0  0  0
    2.1179    2.4173   -0.8812 H   0  0  0  0  0  0  0  0  0  0  0  0
   -0.2077    4.3825    2.2333 H   0  0  0  0  0  0  0  0  0  0  0  0
    1.1041    5.2123    1.3895 H   0  0  0  0  0  0  0  0  0  0  0  0
   -0.3649    4.8083    0.5217 H   0  0  0  0  0  0  0  0  0  0  0  0
    2.8141   -2.0127    0.7644 H   0  0  0  0  0  0  0  0  0  0  0  0
    3.9856   -2.3996   -0.5368 H   0  0  0  0  0  0  0  0  0  0  0  0
    4.3923   -2.7186    1.1766 H   0  0  0  0  0  0  0  0  0  0  0  0
    5.5325    5.6104    4.4515 H   0  0  0  0  0  0  0  0  0  0  0  0
    6.3043    3.6823    3.0862 H   0  0  0  0  0  0  0  0  0  0  0  0
    3.1001    6.1162    4.5812 H   0  0  0  0  0  0  0  0  0  0  0  0
    4.7021    2.4147    1.7661 H   0  0  0  0  0  0  0  0  0  0  0  0
    1.4698    4.5412    3.6533 H   0  0  0  0  0  0  0  0  0  0  0  0
    2.3703    0.6412    3.9546 H   0  0  0  0  0  0  0  0  0  0  0  0
    2.0368   -0.7376    2.9522 H   0  0  0  0  0  0  0  0  0  0  0  0
   -1.9046    1.7815    1.2572 H   0  0  0  0  0  0  0  0  0  0  0  0
  1 23  1  0  0  0  0
  1 24  1  0  0  0  0
  1 25  1  0  0  0  0
  2 26  1  0  0  0  0
  2 27  1  0  0  0  0
  2 28  1  0  0  0  0
  3 29  1  0  0  0  0
  3 30  1  0  0  0  0
  3 31  1  0  0  0  0
  4 32  1  0  0  0  0
  4 33  1  0  0  0  0
  4 34  1  0  0  0  0
  5 35  1  0  0  0  0
  5 36  1  0  0  0  0
  5 37  1  0  0  0  0
  6 38  1  0  0  0  0
  7  6  2  0  0  0  0
  7 39  1  0  0  0  0
  8  6  1  0  0  0  0
  8 40  1  0  0  0  0
  9  7  1  0  0  0  0
  9 41  1  0  0  0  0
 10  8  2  0  0  0  0
 10 42  1  0  0  0  0
 11 43  1  0  0  0  0
 11 44  1  0  0  0  0
 12  9  2  0  0  0  0
 12 10  1  0  0  0  0
 13 11  1  0  0  0  0
 14 12  1  0  0  0  0
 14 13  2  0  0  0  0
 15  1  1  0  0  0  0
 15  2  1  0  0  0  0
 15 13  1  0  0  0  0
 16  3  1  0  0  0  0
 16  4  1  0  0  0  0
 16 14  1  0  0  0  0
 17 15  1  0  0  0  0
 17 16  1  0  0  0  0
 18 17  1  0  0  0  0
 18 45  1  0  0  0  0
 21 11  1  0  0  0  0
 22  5  1  0  0  0  0
 22 19  2  0  0  0  0
 22 20  2  0  0  0  0
 22 21  1  0  0  0  0
M  END
>  <DRUGBANK_ID>
DB08456

>  <COMMON_NAME>
S-[(1-Hydroxy-2,2,5,5-tetramethyl-4-phenyl-2,5-dihydro-1H-pyrrol-3-yl)methyl] methanesulfonothioate

$$$$
