4BM
 OpenBabel10282417163D

 40 41  0  0  0  0  0  0  0  0999 V2000
   -1.3889    0.0114   -0.6906 C   0  0  0  0  0  0  0  0  0  0  0  0
   -0.7682    1.2410   -0.3244 C   0  0  0  0  0  0  0  0  0  0  0  0
    0.6407    1.3637   -0.2149 C   0  0  0  0  0  0  0  0  0  0  0  0
    1.4492    0.2416   -0.3623 C   0  0  0  0  0  0  0  0  0  0  0  0
    0.8662   -0.9782   -0.6684 C   0  0  0  0  0  0  0  0  0  0  0  0
   -0.5180   -1.0725   -0.9258 C   0  0  0  0  0  0  0  0  0  0  0  0
   -2.7908   -0.2101   -0.3726 N   0  0  0  0  0  0  0  0  0  0  0  0
   -3.5510   -1.4339   -0.3656 C   0  0  0  0  0  0  0  0  0  0  0  0
   -3.6740   -2.4085    0.7264 C   0  0  0  0  0  0  0  0  0  0  0  0
   -4.3043   -3.6249    0.4658 C   0  0  0  0  0  0  0  0  0  0  0  0
   -5.1550   -3.7397   -0.6248 C   0  0  0  0  0  0  0  0  0  0  0  0
   -5.1327   -2.7892   -1.6330 C   0  0  0  0  0  0  0  0  0  0  0  0
   -4.2903   -1.6903   -1.5456 C   0  0  0  0  0  0  0  0  0  0  0  0
   -3.4285   -2.1970    2.2526 C   0  0  0  0  0  0  0  0  0  0  0  0
   -2.8322   -3.2336    3.0091 N   0  0  0  0  0  0  0  0  0  0  0  0
   -3.6484   -1.1035    2.7047 O   0  0  0  0  0  0  0  0  0  0  0  0
   -1.9989   -3.0028    4.1616 O   0  0  0  0  0  0  0  0  0  0  0  0
   -1.2149   -1.7844    4.2093 C   0  0  0  0  0  0  0  0  0  0  0  0
   -0.1272   -1.6165    3.1606 C   0  0  1  0  0  0  0  0  0  0  0  0
   -0.7409   -1.8017    1.8391 C   0  0  0  0  0  0  0  0  0  0  0  0
    0.3736   -0.2508    3.1665 O   0  0  0  0  0  0  0  0  0  0  0  0
   -1.3998   -0.5541    1.6758 O   0  0  0  0  0  0  0  0  0  0  0  0
    3.5120    0.3274   -0.1256 I   0  0  0  0  0  0  0  0  0  0  0  0
   -1.0231   -2.3150   -1.0305 F   0  0  0  0  0  0  0  0  0  0  0  0
   -4.2179   -0.8505   -2.5940 F   0  0  0  0  0  0  0  0  0  0  0  0
   -5.9166   -2.9658   -2.7048 F   0  0  0  0  0  0  0  0  0  0  0  0
    0.7153   -2.3013    3.2388 H   0  0  0  0  0  0  0  0  0  0  0  0
   -1.3648    2.0793    0.0339 H   0  0  0  0  0  0  0  0  0  0  0  0
    1.0876    2.3172    0.0626 H   0  0  0  0  0  0  0  0  0  0  0  0
    1.4221   -1.8997   -0.4750 H   0  0  0  0  0  0  0  0  0  0  0  0
   -3.3393    0.6423   -0.3082 H   0  0  0  0  0  0  0  0  0  0  0  0
   -4.2209   -4.4639    1.1473 H   0  0  0  0  0  0  0  0  0  0  0  0
   -5.8652   -4.5578   -0.6648 H   0  0  0  0  0  0  0  0  0  0  0  0
   -2.8161   -4.2061    2.7247 H   0  0  0  0  0  0  0  0  0  0  0  0
   -1.8773   -0.9164    4.2747 H   0  0  0  0  0  0  0  0  0  0  0  0
   -0.6594   -1.7658    5.1542 H   0  0  0  0  0  0  0  0  0  0  0  0
    0.0725   -1.9330    1.1600 H   0  0  0  0  0  0  0  0  0  0  0  0
   -1.2941   -2.7080    1.6001 H   0  0  0  0  0  0  0  0  0  0  0  0
   -0.2889    0.2407    2.6107 H   0  0  0  0  0  0  0  0  0  0  0  0
   -2.3187   -0.5063    2.0118 H   0  0  0  0  0  0  0  0  0  0  0  0
  1  2  2  0  0  0  0
  1  6  1  0  0  0  0
  1  7  1  0  0  0  0
  2  3  1  0  0  0  0
  2 28  1  0  0  0  0
  3  4  2  0  0  0  0
  3 29  1  0  0  0  0
  4  5  1  0  0  0  0
  4 23  1  0  0  0  0
  5  6  2  0  0  0  0
  5 30  1  0  0  0  0
  6 24  1  0  0  0  0
  7  8  1  0  0  0  0
  7 31  1  0  0  0  0
  8  9  2  0  0  0  0
  8 13  1  0  0  0  0
  9 10  1  0  0  0  0
  9 14  1  0  0  0  0
 10 11  2  0  0  0  0
 10 32  1  0  0  0  0
 11 12  1  0  0  0  0
 11 33  1  0  0  0  0
 12 13  2  0  0  0  0
 12 26  1  0  0  0  0
 13 25  1  0  0  0  0
 14 15  1  0  0  0  0
 14 16  2  0  0  0  0
 15 17  1  0  0  0  0
 15 34  1  0  0  0  0
 17 18  1  0  0  0  0
 18 19  1  0  0  0  0
 18 35  1  0  0  0  0
 18 36  1  0  0  0  0
 19 20  1  0  0  0  0
 19 21  1  0  0  0  0
 19 27  1  1  0  0  0
 20 22  1  0  0  0  0
 20 37  1  0  0  0  0
 20 38  1  0  0  0  0
 21 39  1  0  0  0  0
 22 40  1  0  0  0  0
M  END
>  <DRUGBANK_ID>
DB07101

>  <SECONDARY_ACCESSION_NUMBERS>
DB11802

>  <COMMON_NAME>
Mirdametinib

>  <CAS_NUMBER>
391210-10-9

>  <UNII>
86K0J5AK6M

>  <SYNONYMS>
Benzamide, N-((2R)-2,3-dihydroxypropoxy)-3,4-difluoro-2-((2-fluoro-4-iodophenyl)amino)-; N-[(2R)-2,3 Dihydroxypropoxy]-3,4 Difluro-2 -[(2-Fluoro-4-Iodophenyl)Amino] Benzamide; PD 0325901; PD-0325901; PD0325901

$$$$
