
 OpenBabel10282417113D

 15 14  0  0  0  0  0  0  0  0999 V2000
    1.1013    0.0886   -0.1183 O   0  0  0  0  0  0  0  0  0  0  0  0
    3.0743    1.1143   -0.4078 O   0  0  0  0  0  0  0  0  0  0  0  0
    0.8860   -2.8564    1.4751 O   0  0  0  0  0  0  0  0  0  0  0  0
    2.3204    0.0774    0.0010 C   0  0  0  0  0  0  0  0  0  0  0  0
    3.0886   -1.0842    0.5894 C   0  0  0  0  0  0  0  0  0  0  0  0
    2.6910   -1.3592    2.0431 C   0  0  0  0  0  0  0  0  0  0  0  0
    1.2112   -1.6928    2.2223 C   0  0  0  0  0  0  0  0  0  0  0  0
    4.0379    1.0010   -0.3198 H   0  0  0  0  0  0  0  0  0  0  0  0
    0.9225   -2.6180    0.5316 H   0  0  0  0  0  0  0  0  0  0  0  0
    2.9031   -1.9609   -0.0420 H   0  0  0  0  0  0  0  0  0  0  0  0
    4.1669   -0.8991    0.5347 H   0  0  0  0  0  0  0  0  0  0  0  0
    3.2807   -2.2140    2.4010 H   0  0  0  0  0  0  0  0  0  0  0  0
    2.9503   -0.4991    2.6704 H   0  0  0  0  0  0  0  0  0  0  0  0
    0.9918   -1.8946    3.2745 H   0  0  0  0  0  0  0  0  0  0  0  0
    0.5559   -0.8699    1.9257 H   0  0  0  0  0  0  0  0  0  0  0  0
  1  4  2  0  0  0  0
  2  4  1  0  0  0  0
  2  8  1  0  0  0  0
  3  7  1  0  0  0  0
  3  9  1  0  0  0  0
  4  5  1  0  0  0  0
  5  6  1  0  0  0  0
  5 10  1  0  0  0  0
  5 11  1  0  0  0  0
  6  7  1  0  0  0  0
  6 12  1  0  0  0  0
  6 13  1  0  0  0  0
  7 14  1  0  0  0  0
  7 15  1  0  0  0  0
M  END
>  <DRUGBANK_ID>
DB01440

>  <COMMON_NAME>
gamma-Hydroxybutyric acid

>  <CAS_NUMBER>
591-81-1

>  <UNII>
30IW36W5B2

>  <SYNONYMS>
3-carboxypropoxy acid; 4-hydroxy-butyric acid; 4-hydroxybutanoate; 4-hydroxybutanoic acid; 4-Hydroxybutyric acid; gamma-Hydroxybutyrate; GHB; oxy-n-butyric acid; Oxybate; Î³-Hydroxybutyric acid

$$$$
