
 OpenBabel10282417193D

 55 56  0  0  1  0  0  0  0  0999 V2000
    2.4470  -11.1156   -1.0689 C   0  0  0  0  0  0  0  0  0  0  0  0
    3.4268  -11.1345   -2.2303 C   0  0  0  0  0  0  0  0  0  0  0  0
    3.6338   -9.7216   -2.6851 C   0  0  0  0  0  0  0  0  0  0  0  0
    4.1599   -8.7286   -1.6955 C   0  0  0  0  0  0  0  0  0  0  0  0
    3.9494   -7.3703   -1.8995 C   0  0  0  0  0  0  0  0  0  0  0  0
    4.5979   -6.5061   -0.9919 C   0  0  0  0  0  0  0  0  0  0  0  0
    5.2072   -7.0054    0.1628 C   0  0  0  0  0  0  0  0  0  0  0  0
    5.2248   -8.3776    0.3577 C   0  0  0  0  0  0  0  0  0  0  0  0
    4.8051   -9.2258   -0.6136 N   0  0  0  0  0  0  0  0  0  0  0  0
    5.6093   -8.9767    1.6978 C   0  0  0  0  0  0  0  0  0  0  0  0
    4.5608   -9.6182    2.2971 F   0  0  0  0  0  0  0  0  0  0  0  0
    6.6107   -9.8940    1.6110 F   0  0  0  0  0  0  0  0  0  0  0  0
    6.0251   -8.0481    2.6080 F   0  0  0  0  0  0  0  0  0  0  0  0
    3.1349   -6.8014   -3.0189 C   0  0  0  0  0  0  0  0  0  0  0  0
    2.7378   -7.3773   -4.1833 C   0  0  0  0  0  0  0  0  0  0  0  0
    2.4335   -6.8381   -5.5534 C   0  0  0  0  0  0  0  0  0  0  0  0
    2.1038   -7.6263   -6.4395 O   0  0  0  0  0  0  0  0  0  0  0  0
    2.8052   -5.5811   -5.9022 N   0  0  0  0  0  0  0  0  0  0  0  0
    3.6509   -4.7237   -5.1323 C   0  0  2  0  0  0  0  0  0  0  0  0
    3.8533   -3.3342   -5.7323 C   0  0  0  0  0  0  0  0  0  0  0  0
    4.9916   -5.3591   -4.7523 C   0  0  0  0  0  0  0  0  0  0  0  0
    5.8316   -4.5469   -4.0447 C   0  0  0  0  0  0  0  0  0  0  0  0
    6.9517   -5.0477   -3.4323 C   0  0  0  0  0  0  0  0  0  0  0  0
    7.3002   -6.3997   -3.3806 C   0  0  0  0  0  0  0  0  0  0  0  0
    6.4288   -7.2373   -4.0624 C   0  0  0  0  0  0  0  0  0  0  0  0
    5.3930   -6.7123   -4.8531 C   0  0  0  0  0  0  0  0  0  0  0  0
    6.4850   -8.5711   -3.8908 F   0  0  0  0  0  0  0  0  0  0  0  0
    8.2953   -7.0001   -2.5328 N   0  0  0  0  0  0  0  0  0  0  0  0
    9.7461   -6.3376   -2.0462 S   0  0  0  0  0  0  0  0  0  0  0  0
    9.8532   -6.6349   -0.6489 O   0  0  0  0  0  0  0  0  0  0  0  0
   10.7666   -6.7931   -2.9889 O   0  0  0  0  0  0  0  0  0  0  0  0
    9.6657   -4.5809   -2.2071 C   0  0  0  0  0  0  0  0  0  0  0  0
    7.5975   -4.0431   -2.8730 F   0  0  0  0  0  0  0  0  0  0  0  0
    2.8277  -10.5362   -0.2236 H   0  0  0  0  0  0  0  0  0  0  0  0
    2.2512  -12.1265   -0.7253 H   0  0  0  0  0  0  0  0  0  0  0  0
    1.5045  -10.6395   -1.3687 H   0  0  0  0  0  0  0  0  0  0  0  0
    4.3835  -11.5967   -1.9809 H   0  0  0  0  0  0  0  0  0  0  0  0
    2.9875  -11.6810   -3.0749 H   0  0  0  0  0  0  0  0  0  0  0  0
    4.2630   -9.7060   -3.5835 H   0  0  0  0  0  0  0  0  0  0  0  0
    2.6098   -9.4143   -2.9067 H   0  0  0  0  0  0  0  0  0  0  0  0
    4.6356   -5.4302   -1.1550 H   0  0  0  0  0  0  0  0  0  0  0  0
    5.6205   -6.3336    0.9119 H   0  0  0  0  0  0  0  0  0  0  0  0
    3.0647   -5.7365   -2.8777 H   0  0  0  0  0  0  0  0  0  0  0  0
    2.8670   -8.4275   -4.4008 H   0  0  0  0  0  0  0  0  0  0  0  0
    2.6537   -5.3674   -6.8788 H   0  0  0  0  0  0  0  0  0  0  0  0
    3.0483   -4.5092   -4.2400 H   0  0  0  0  0  0  0  0  0  0  0  0
    3.1937   -3.1354   -6.5736 H   0  0  0  0  0  0  0  0  0  0  0  0
    3.6601   -2.5773   -4.9556 H   0  0  0  0  0  0  0  0  0  0  0  0
    4.8880   -3.1852   -6.0543 H   0  0  0  0  0  0  0  0  0  0  0  0
    5.6588   -3.4824   -3.9145 H   0  0  0  0  0  0  0  0  0  0  0  0
    4.8224   -7.4530   -5.4033 H   0  0  0  0  0  0  0  0  0  0  0  0
    8.3779   -8.0225   -2.6326 H   0  0  0  0  0  0  0  0  0  0  0  0
    9.5459   -4.3465   -3.2718 H   0  0  0  0  0  0  0  0  0  0  0  0
    8.8712   -4.2598   -1.5258 H   0  0  0  0  0  0  0  0  0  0  0  0
   10.5648   -4.0823   -1.8665 H   0  0  0  0  0  0  0  0  0  0  0  0
  1  2  1  0  0  0  0
  1 34  1  0  0  0  0
  1 35  1  0  0  0  0
  1 36  1  0  0  0  0
  2  3  1  0  0  0  0
  2 37  1  0  0  0  0
  2 38  1  0  0  0  0
  3  4  1  0  0  0  0
  3 39  1  0  0  0  0
  3 40  1  0  0  0  0
  4  5  2  0  0  0  0
  4  9  1  0  0  0  0
  5  6  1  0  0  0  0
  5 14  1  0  0  0  0
  6  7  2  0  0  0  0
  6 41  1  0  0  0  0
  7  8  1  0  0  0  0
  7 42  1  0  0  0  0
  8  9  2  0  0  0  0
  8 10  1  0  0  0  0
 10 11  1  0  0  0  0
 10 12  1  0  0  0  0
 10 13  1  0  0  0  0
 14 15  2  0  0  0  0
 14 43  1  0  0  0  0
 15 16  1  0  0  0  0
 15 44  1  0  0  0  0
 16 17  2  0  0  0  0
 16 18  1  0  0  0  0
 18 45  1  0  0  0  0
 19 21  1  0  0  0  0
 19 46  1  1  0  0  0
 19 20  1  0  0  0  0
 19 18  1  0  0  0  0
 20 47  1  0  0  0  0
 20 48  1  0  0  0  0
 20 49  1  0  0  0  0
 21 22  2  0  0  0  0
 21 26  1  0  0  0  0
 22 23  1  0  0  0  0
 22 50  1  0  0  0  0
 23 24  2  0  0  0  0
 23 33  1  0  0  0  0
 24 25  1  0  0  0  0
 24 28  1  0  0  0  0
 25 26  2  0  0  0  0
 25 27  1  0  0  0  0
 26 51  1  0  0  0  0
 28 29  1  0  0  0  0
 28 52  1  0  0  0  0
 29 30  2  0  0  0  0
 29 31  2  0  0  0  0
 29 32  1  0  0  0  0
 32 53  1  0  0  0  0
 32 54  1  0  0  0  0
 32 55  1  0  0  0  0
M  END
>  <DRUGBANK_ID>
DB12428

>  <COMMON_NAME>
PAC-14028

>  <CAS_NUMBER>
1005168-10-4

>  <UNII>
3VF7K7Z10B

$$$$
