
 OpenBabel10282417193D

 75 79  0  0  1  0  0  0  0  0999 V2000
    3.2536   -1.8350    0.0489 C   0  0  0  0  0  0  0  0  0  0  0  0
    3.6201    0.5216    0.2809 C   0  0  0  0  0  0  0  0  0  0  0  0
    3.0771    3.5075   -0.0986 C   0  0  0  0  0  0  0  0  0  0  0  0
   -0.6188    3.5526   -3.5118 C   0  0  0  0  0  0  0  0  0  0  0  0
    1.5674    3.1562   -7.1263 C   0  0  0  0  0  0  0  0  0  0  0  0
   -1.3434   -0.1538   -0.3868 C   0  0  0  0  0  0  0  0  0  0  0  0
   -1.0802    1.1959   -0.1792 C   0  0  0  0  0  0  0  0  0  0  0  0
   -1.3851   -0.8029   -1.7409 C   0  0  0  0  0  0  0  0  0  0  0  0
   -0.8621    1.9194   -1.3239 C   0  0  0  0  0  0  0  0  0  0  0  0
   -2.9240    1.9249   -7.9548 C   0  0  0  0  0  0  0  0  0  0  0  0
    3.0770    1.9488   -2.5916 C   0  0  0  0  0  0  0  0  0  0  0  0
   -2.3054    1.7361   -6.7914 C   0  0  0  0  0  0  0  0  0  0  0  0
    2.9415    1.0865   -3.7480 C   0  0  0  0  0  0  0  0  0  0  0  0
   -1.3246   -0.0328   -8.1951 C   0  0  0  0  0  0  0  0  0  0  0  0
    2.6987   -2.3738   -2.8897 C   0  0  0  0  0  0  0  0  0  0  0  0
    2.2786    3.7225   -3.7012 C   0  0  0  0  0  0  0  0  0  0  0  0
    1.5993   -1.9232   -4.7481 C   0  0  0  0  0  0  0  0  0  0  0  0
   -2.2352    1.1903   -8.8279 C   0  0  0  0  0  0  0  0  0  0  0  0
    2.1938   -3.0750   -4.0983 C   0  0  2  0  0  0  0  0  0  0  0  0
    2.7131    3.2529   -2.4932 C   0  0  0  0  0  0  0  0  0  0  0  0
   -1.1016   -0.1189   -2.9765 C   0  0  0  0  0  0  0  0  0  0  0  0
   -0.8571   -0.5565   -6.6846 C   0  0  0  0  0  0  0  0  0  0  0  0
   -1.0897    0.8279   -6.6502 C   0  0  0  0  0  0  0  0  0  0  0  0
    1.4628   -1.4822   -2.4802 C   0  0  1  0  0  0  0  0  0  0  0  0
   -0.8775    1.3163   -2.6432 C   0  0  0  0  0  0  0  0  0  0  0  0
    2.0961    2.9110   -4.8854 C   0  0  0  0  0  0  0  0  0  0  0  0
    2.3893    1.5328   -4.9412 C   0  0  0  0  0  0  0  0  0  0  0  0
    1.9353   -0.4004   -1.3907 C   0  0  0  0  0  0  0  0  0  0  0  0
   -1.3539    0.2998   -4.9002 C   0  0  0  0  0  0  0  0  0  0  0  0
   -0.7022   -0.8990   -4.7148 C   0  0  2  0  0  0  0  0  0  0  0  0
   -2.3864    1.8188  -10.4623 Cl  0  0  0  0  0  0  0  0  0  0  0  0
    3.0550   -0.5693   -0.5403 N   0  0  0  0  0  0  0  0  0  0  0  0
    0.8929   -0.9518   -3.9706 N   0  0  3  0  0  0  0  0  0  0  0  0
   -0.3292    1.1251   -5.6244 N   0  0  0  0  0  0  0  0  0  0  0  0
    1.1426   -3.9706   -3.8213 O   0  0  0  0  0  0  0  0  0  0  0  0
    1.3208    0.6445   -1.2398 O   0  0  0  0  0  0  0  0  0  0  0  0
   -2.6264    0.1922   -4.9134 O   0  0  0  0  0  0  0  0  0  0  0  0
    1.7274   -0.8882   -6.5678 O   0  0  0  0  0  0  0  0  0  0  0  0
    1.8959    1.0074   -7.6231 O   0  0  0  0  0  0  0  0  0  0  0  0
    2.6460    4.0316   -1.3659 O   0  0  0  0  0  0  0  0  0  0  0  0
   -0.6620    2.1682   -3.6741 O   0  0  0  0  0  0  0  0  0  0  0  0
    1.5161    3.7082   -5.8543 O   0  0  0  0  0  0  0  0  0  0  0  0
    1.5511    0.5154   -6.2982 S   0  0  0  0  0  0  0  0  0  0  0  0
    2.9321   -3.4530   -4.8174 H   0  0  0  0  0  0  0  0  0  0  0  0
    0.7354   -2.1124   -1.9732 H   0  0  0  0  0  0  0  0  0  0  0  0
    3.8219   -1.7330    0.9734 H   0  0  0  0  0  0  0  0  0  0  0  0
    3.8582   -2.3879   -0.6528 H   0  0  0  0  0  0  0  0  0  0  0  0
    2.2705   -2.2554    0.2487 H   0  0  0  0  0  0  0  0  0  0  0  0
    4.3732    1.0492   -0.3171 H   0  0  0  0  0  0  0  0  0  0  0  0
    2.8140    1.1432    0.6555 H   0  0  0  0  0  0  0  0  0  0  0  0
    4.1997    0.2216    1.1574 H   0  0  0  0  0  0  0  0  0  0  0  0
    2.2776    2.9221    0.3716 H   0  0  0  0  0  0  0  0  0  0  0  0
    4.0265    2.9774   -0.1904 H   0  0  0  0  0  0  0  0  0  0  0  0
    3.3019    4.2952    0.6324 H   0  0  0  0  0  0  0  0  0  0  0  0
   -1.5539    3.9614   -3.1565 H   0  0  0  0  0  0  0  0  0  0  0  0
    0.1619    3.8069   -2.8091 H   0  0  0  0  0  0  0  0  0  0  0  0
   -0.3956    3.9699   -4.4940 H   0  0  0  0  0  0  0  0  0  0  0  0
    2.5902    2.7576   -7.2529 H   0  0  0  0  0  0  0  0  0  0  0  0
    0.6994    2.4958   -7.1805 H   0  0  0  0  0  0  0  0  0  0  0  0
    1.3671    3.7415   -8.0048 H   0  0  0  0  0  0  0  0  0  0  0  0
   -1.4547   -0.7253    0.5409 H   0  0  0  0  0  0  0  0  0  0  0  0
   -0.9507    1.6697    0.8008 H   0  0  0  0  0  0  0  0  0  0  0  0
   -1.6104   -1.8612   -1.6812 H   0  0  0  0  0  0  0  0  0  0  0  0
   -0.4930    2.9328   -1.1676 H   0  0  0  0  0  0  0  0  0  0  0  0
   -3.7367    2.6200   -8.0941 H   0  0  0  0  0  0  0  0  0  0  0  0
    3.2451    1.5192   -1.6420 H   0  0  0  0  0  0  0  0  0  0  0  0
   -2.7245    2.1754   -5.8892 H   0  0  0  0  0  0  0  0  0  0  0  0
    3.1432    0.0554   -3.5445 H   0  0  0  0  0  0  0  0  0  0  0  0
   -0.7382   -0.3144   -9.1282 H   0  0  0  0  0  0  0  0  0  0  0  0
    2.9884   -3.1350   -2.1801 H   0  0  0  0  0  0  0  0  0  0  0  0
    3.6052   -1.7868   -3.1340 H   0  0  0  0  0  0  0  0  0  0  0  0
    1.8650    4.7235   -3.7187 H   0  0  0  0  0  0  0  0  0  0  0  0
    2.5288   -1.3728   -4.9685 H   0  0  0  0  0  0  0  0  0  0  0  0
    0.9168   -2.3121   -5.4947 H   0  0  0  0  0  0  0  0  0  0  0  0
    0.3897   -3.4217   -3.5290 H   0  0  0  0  0  0  0  0  0  0  0  0
  1 46  1  0  0  0  0
  1 47  1  0  0  0  0
  1 48  1  0  0  0  0
  2 49  1  0  0  0  0
  2 50  1  0  0  0  0
  2 51  1  0  0  0  0
  3 52  1  0  0  0  0
  3 53  1  0  0  0  0
  3 54  1  0  0  0  0
  4 55  1  0  0  0  0
  4 56  1  0  0  0  0
  4 57  1  0  0  0  0
  5 58  1  0  0  0  0
  5 59  1  0  0  0  0
  5 60  1  0  0  0  0
  6 61  1  0  0  0  0
  7  6  2  0  0  0  0
  7 62  1  0  0  0  0
  8  6  1  0  0  0  0
  8 63  1  0  0  0  0
  9  7  1  0  0  0  0
  9 64  1  0  0  0  0
 10 65  1  0  0  0  0
 11 66  1  0  0  0  0
 12 10  2  0  0  0  0
 12 67  1  0  0  0  0
 13 11  2  0  0  0  0
 13 68  1  0  0  0  0
 14 69  1  0  0  0  0
 15 70  1  0  0  0  0
 15 71  1  0  0  0  0
 16 72  1  0  0  0  0
 17 73  1  0  0  0  0
 17 74  1  0  0  0  0
 18 10  1  0  0  0  0
 18 14  2  0  0  0  0
 19 15  1  0  0  0  0
 19 17  1  0  0  0  0
 19 35  1  0  0  0  0
 19 44  1  6  0  0  0
 20 11  1  0  0  0  0
 20 16  2  0  0  0  0
 21  8  2  0  0  0  0
 22 14  1  0  0  0  0
 23 12  1  0  0  0  0
 23 22  2  0  0  0  0
 24 15  1  0  0  0  0
 24 45  1  1  0  0  0
 24 28  1  0  0  0  0
 25  9  2  0  0  0  0
 25 21  1  0  0  0  0
 26 16  1  0  0  0  0
 27 13  1  0  0  0  0
 27 26  2  0  0  0  0
 30 21  1  6  0  0  0
 30 22  1  0  0  0  0
 30 29  1  0  0  0  0
 30 33  1  0  0  0  0
 31 18  1  0  0  0  0
 32  1  1  0  0  0  0
 32  2  1  0  0  0  0
 32 28  1  0  0  0  0
 33 17  1  0  0  0  0
 33 24  1  0  0  0  0
 34 23  1  0  0  0  0
 34 29  1  0  0  0  0
 35 75  1  0  0  0  0
 36 28  2  0  0  0  0
 37 29  2  0  0  0  0
 40  3  1  0  0  0  0
 40 20  1  0  0  0  0
 41  4  1  0  0  0  0
 41 25  1  0  0  0  0
 42  5  1  0  0  0  0
 42 26  1  0  0  0  0
 43 27  1  0  0  0  0
 43 34  1  0  0  0  0
 43 38  2  0  0  0  0
 43 39  2  0  0  0  0
M  END
>  <DRUGBANK_ID>
DB12643

>  <COMMON_NAME>
Nelivaptan

>  <CAS_NUMBER>
439687-69-1

>  <UNII>
3TY57MQ4OA

>  <SYNONYMS>
Nelivaptan

$$$$
