
 OpenBabel10282417203D

 33 34  0  0  0  0  0  0  0  0999 V2000
    0.8601    0.1506   -0.1372 C   0  0  0  0  0  0  0  0  0  0  0  0
    0.4121   -1.2459   -0.5610 C   0  0  0  0  0  0  0  0  0  0  0  0
    0.9853   -2.4594    0.2468 C   0  0  0  0  0  0  0  0  0  0  0  0
    2.4594   -2.5802   -0.1859 C   0  0  0  0  0  0  0  0  0  0  0  0
    3.3207   -1.7323    0.0552 O   0  0  0  0  0  0  0  0  0  0  0  0
    2.8229   -3.6462   -0.9535 N   0  0  0  0  0  0  0  0  0  0  0  0
    2.0903   -4.7594   -1.1996 C   0  0  0  0  0  0  0  0  0  0  0  0
    2.5486   -5.7062   -1.8206 O   0  0  0  0  0  0  0  0  0  0  0  0
    0.8193   -4.7598   -0.7328 N   0  0  0  0  0  0  0  0  0  0  0  0
    0.1555   -3.6878   -0.2155 C   0  0  0  0  0  0  0  0  0  0  0  0
   -1.0697   -3.7739   -0.0865 O   0  0  0  0  0  0  0  0  0  0  0  0
    0.8509   -2.3603    1.8010 C   0  0  0  0  0  0  0  0  0  0  0  0
    0.2133   -3.2914    2.5482 C   0  0  0  0  0  0  0  0  0  0  0  0
   -0.0846   -3.1782    4.0102 C   0  0  0  0  0  0  0  0  0  0  0  0
    0.1409   -1.7762    4.5523 C   0  0  0  0  0  0  0  0  0  0  0  0
    1.4639   -1.2296    4.0415 C   0  0  0  0  0  0  0  0  0  0  0  0
    1.4220   -1.1456    2.5202 C   0  0  0  0  0  0  0  0  0  0  0  0
    0.3335    0.4659    0.7602 H   0  0  0  0  0  0  0  0  0  0  0  0
    0.5919    0.9042   -0.8791 H   0  0  0  0  0  0  0  0  0  0  0  0
    1.9384    0.2183    0.0284 H   0  0  0  0  0  0  0  0  0  0  0  0
   -0.6845   -1.2630   -0.5520 H   0  0  0  0  0  0  0  0  0  0  0  0
    0.7033   -1.3664   -1.6147 H   0  0  0  0  0  0  0  0  0  0  0  0
    3.7817   -3.6589   -1.2716 H   0  0  0  0  0  0  0  0  0  0  0  0
    0.2574   -5.5677   -0.9628 H   0  0  0  0  0  0  0  0  0  0  0  0
   -0.2046   -4.1993    2.1223 H   0  0  0  0  0  0  0  0  0  0  0  0
    0.5473   -3.8989    4.5380 H   0  0  0  0  0  0  0  0  0  0  0  0
   -1.1291   -3.4656    4.1795 H   0  0  0  0  0  0  0  0  0  0  0  0
    0.1267   -1.7886    5.6448 H   0  0  0  0  0  0  0  0  0  0  0  0
   -0.6795   -1.1212    4.2248 H   0  0  0  0  0  0  0  0  0  0  0  0
    1.6263   -0.2225    4.4436 H   0  0  0  0  0  0  0  0  0  0  0  0
    2.3019   -1.8563    4.3624 H   0  0  0  0  0  0  0  0  0  0  0  0
    0.7674   -0.2954    2.3504 H   0  0  0  0  0  0  0  0  0  0  0  0
    2.4202   -0.8952    2.1541 H   0  0  0  0  0  0  0  0  0  0  0  0
  1  2  1  0  0  0  0
  1 18  1  0  0  0  0
  1 19  1  0  0  0  0
  1 20  1  0  0  0  0
  2  3  1  0  0  0  0
  2 21  1  0  0  0  0
  2 22  1  0  0  0  0
  3  4  1  0  0  0  0
  3 10  1  0  0  0  0
  3 12  1  0  0  0  0
  4  5  2  0  0  0  0
  4  6  1  0  0  0  0
  6  7  1  0  0  0  0
  6 23  1  0  0  0  0
  7  8  2  0  0  0  0
  7  9  1  0  0  0  0
  9 10  1  0  0  0  0
  9 24  1  0  0  0  0
 10 11  2  0  0  0  0
 12 13  2  0  0  0  0
 12 17  1  0  0  0  0
 13 14  1  0  0  0  0
 13 25  1  0  0  0  0
 14 15  1  0  0  0  0
 14 26  1  0  0  0  0
 14 27  1  0  0  0  0
 15 16  1  0  0  0  0
 15 28  1  0  0  0  0
 15 29  1  0  0  0  0
 16 17  1  0  0  0  0
 16 30  1  0  0  0  0
 16 31  1  0  0  0  0
 17 32  1  0  0  0  0
 17 33  1  0  0  0  0
M  END
>  <DRUGBANK_ID>
DB13737

>  <COMMON_NAME>
Cyclobarbital

>  <CAS_NUMBER>
52-31-3

>  <UNII>
0M8A98AD9H

>  <SYNONYMS>
Cyclobarbital

$$$$
