
 OpenBabel10282417143D

 66 67  0  0  1  0  0  0  0  0999 V2000
    0.8906    0.1005   -0.0275 C   0  0  0  0  0  0  0  0  0  0  0  0
    0.4233   -1.1643    0.4092 O   0  0  0  0  0  0  0  0  0  0  0  0
    0.8925   -2.2556   -0.3927 C   0  0  1  0  0  0  0  0  0  0  0  0
    0.2776   -2.1390   -1.7804 C   0  0  0  0  0  0  0  0  0  0  0  0
    0.9963   -2.1344   -2.9028 C   0  0  0  0  0  0  0  0  0  0  0  0
    0.6229   -1.9688   -4.2399 C   0  0  0  0  0  0  0  0  0  0  0  0
    1.2399   -2.6289   -5.2815 C   0  0  0  0  0  0  0  0  0  0  0  0
    0.4151   -2.2334   -6.7256 S   0  0  0  0  0  0  0  0  0  0  0  0
   -0.5289   -1.0960   -5.8428 C   0  0  0  0  0  0  0  0  0  0  0  0
   -0.2936   -1.0188   -4.5550 N   0  0  0  0  0  0  0  0  0  0  0  0
   -1.6138   -0.2937   -6.4616 C   0  0  0  0  0  0  0  0  0  0  0  0
   -2.6893   -0.8962   -7.0747 C   0  0  0  0  0  0  0  0  0  0  0  0
   -3.7986    0.2963   -7.5796 S   0  0  0  0  0  0  0  0  0  0  0  0
   -2.7534    1.5256   -6.9578 C   0  0  0  0  0  0  0  0  0  0  0  0
   -1.6630    1.0837   -6.3672 N   0  0  0  0  0  0  0  0  0  0  0  0
   -3.1112    2.9922   -7.0740 C   0  0  1  0  0  0  0  0  0  0  0  0
   -3.2367    3.4152   -8.5415 C   0  0  0  0  0  0  0  0  0  0  0  0
   -4.3616    3.3735   -6.3119 C   0  0  0  0  0  0  0  0  0  0  0  0
   -4.3789    4.2323   -5.2820 C   0  0  0  0  0  0  0  0  0  0  0  0
   -5.5872    4.5416   -4.5583 C   0  0  0  0  0  0  0  0  0  0  0  0
   -5.6195    5.3969   -3.5261 C   0  0  0  0  0  0  0  0  0  0  0  0
   -6.8779    5.7211   -2.7610 C   0  0  0  0  0  0  0  0  0  0  0  0
   -6.7233    5.3293   -1.2933 C   0  0  0  0  0  0  0  0  0  0  0  0
   -7.1969    7.2097   -2.8776 C   0  0  0  0  0  0  0  0  0  0  0  0
    2.4721   -2.4129   -0.2716 C   0  0  1  0  0  0  0  0  0  0  0  0
    3.0615   -2.4045    1.1549 C   0  0  0  0  0  0  0  0  0  0  0  0
    3.0261   -3.5974   -1.0481 C   0  0  0  0  0  0  0  0  0  0  0  0
    3.8708   -3.3514   -2.1543 O   0  0  0  0  0  0  0  0  0  0  0  0
    4.3355   -2.0211   -2.5064 C   0  0  0  0  0  0  0  0  0  0  0  0
    2.6535   -4.8714   -0.7619 C   0  0  0  0  0  0  0  0  0  0  0  0
    1.7661   -5.2859    0.3801 C   0  0  0  0  0  0  0  0  0  0  0  0
    1.5012   -6.5913    0.5519 N   0  0  0  0  0  0  0  0  0  0  0  0
    1.2449   -4.5483    1.2151 O   0  0  0  0  0  0  0  0  0  0  0  0
    0.4760    0.8593    0.6343 H   0  0  0  0  0  0  0  0  0  0  0  0
    0.5604    0.3001   -1.0491 H   0  0  0  0  0  0  0  0  0  0  0  0
    1.9788    0.1648    0.0324 H   0  0  0  0  0  0  0  0  0  0  0  0
    0.3731   -3.1224    0.0032 H   0  0  0  0  0  0  0  0  0  0  0  0
   -0.8047   -2.0615   -1.8356 H   0  0  0  0  0  0  0  0  0  0  0  0
    2.0340   -2.2924   -2.8142 H   0  0  0  0  0  0  0  0  0  0  0  0
    2.0544   -3.3420   -5.2446 H   0  0  0  0  0  0  0  0  0  0  0  0
   -2.8927   -1.9516   -7.1847 H   0  0  0  0  0  0  0  0  0  0  0  0
   -2.2631    3.5570   -6.6587 H   0  0  0  0  0  0  0  0  0  0  0  0
   -4.0542    2.8908   -9.0493 H   0  0  0  0  0  0  0  0  0  0  0  0
   -3.4338    4.4895   -8.6255 H   0  0  0  0  0  0  0  0  0  0  0  0
   -2.3133    3.1988   -9.0909 H   0  0  0  0  0  0  0  0  0  0  0  0
   -5.2841    2.8903   -6.6275 H   0  0  0  0  0  0  0  0  0  0  0  0
   -3.4573    4.7118   -4.9576 H   0  0  0  0  0  0  0  0  0  0  0  0
   -6.5022    4.0429   -4.8720 H   0  0  0  0  0  0  0  0  0  0  0  0
   -4.7065    5.8942   -3.2026 H   0  0  0  0  0  0  0  0  0  0  0  0
   -7.7232    5.1574   -3.1770 H   0  0  0  0  0  0  0  0  0  0  0  0
   -5.9086    5.8850   -0.8152 H   0  0  0  0  0  0  0  0  0  0  0  0
   -7.6444    5.5423   -0.7402 H   0  0  0  0  0  0  0  0  0  0  0  0
   -6.5100    4.2598   -1.1904 H   0  0  0  0  0  0  0  0  0  0  0  0
   -7.3266    7.5045   -3.9246 H   0  0  0  0  0  0  0  0  0  0  0  0
   -8.1241    7.4466   -2.3449 H   0  0  0  0  0  0  0  0  0  0  0  0
   -6.3968    7.8240   -2.4492 H   0  0  0  0  0  0  0  0  0  0  0  0
    2.8855   -1.5004   -0.7023 H   0  0  0  0  0  0  0  0  0  0  0  0
    2.8828   -3.3072    1.7372 H   0  0  0  0  0  0  0  0  0  0  0  0
    4.1545   -2.3296    1.1070 H   0  0  0  0  0  0  0  0  0  0  0  0
    2.6806   -1.5693    1.7441 H   0  0  0  0  0  0  0  0  0  0  0  0
    3.5527   -1.2966   -2.7720 H   0  0  0  0  0  0  0  0  0  0  0  0
    4.9303   -1.5792   -1.7069 H   0  0  0  0  0  0  0  0  0  0  0  0
    4.9393   -2.0975   -3.4181 H   0  0  0  0  0  0  0  0  0  0  0  0
    3.0066   -5.6785   -1.3930 H   0  0  0  0  0  0  0  0  0  0  0  0
    0.9152   -6.7685    1.3622 H   0  0  0  0  0  0  0  0  0  0  0  0
    1.8459   -7.3573    0.0022 H   0  0  0  0  0  0  0  0  0  0  0  0
  1  2  1  0  0  0  0
  1 34  1  0  0  0  0
  1 35  1  0  0  0  0
  1 36  1  0  0  0  0
  3  2  1  0  0  0  0
  3  4  1  0  0  0  0
  3 25  1  0  0  0  0
  3 37  1  1  0  0  0
  4  5  2  0  0  0  0
  4 38  1  0  0  0  0
  5  6  1  0  0  0  0
  5 39  1  0  0  0  0
  6  7  2  0  0  0  0
  6 10  1  0  0  0  0
  7  8  1  0  0  0  0
  7 40  1  0  0  0  0
  8  9  1  0  0  0  0
  9 10  2  0  0  0  0
  9 11  1  0  0  0  0
 11 12  2  0  0  0  0
 11 15  1  0  0  0  0
 12 13  1  0  0  0  0
 12 41  1  0  0  0  0
 13 14  1  0  0  0  0
 14 15  2  0  0  0  0
 14 16  1  0  0  0  0
 16 17  1  0  0  0  0
 16 18  1  0  0  0  0
 16 42  1  1  0  0  0
 17 43  1  0  0  0  0
 17 44  1  0  0  0  0
 17 45  1  0  0  0  0
 18 19  2  0  0  0  0
 18 46  1  0  0  0  0
 19 20  1  0  0  0  0
 19 47  1  0  0  0  0
 20 21  2  0  0  0  0
 20 48  1  0  0  0  0
 21 22  1  0  0  0  0
 21 49  1  0  0  0  0
 22 23  1  0  0  0  0
 22 24  1  0  0  0  0
 22 50  1  0  0  0  0
 23 51  1  0  0  0  0
 23 52  1  0  0  0  0
 23 53  1  0  0  0  0
 24 54  1  0  0  0  0
 24 55  1  0  0  0  0
 24 56  1  0  0  0  0
 25 26  1  0  0  0  0
 25 27  1  0  0  0  0
 25 57  1  6  0  0  0
 26 58  1  0  0  0  0
 26 59  1  0  0  0  0
 26 60  1  0  0  0  0
 27 28  1  0  0  0  0
 27 30  2  0  0  0  0
 28 29  1  0  0  0  0
 29 61  1  0  0  0  0
 29 62  1  0  0  0  0
 29 63  1  0  0  0  0
 30 31  1  0  0  0  0
 30 64  1  0  0  0  0
 31 32  1  0  0  0  0
 31 33  2  0  0  0  0
 32 65  1  0  0  0  0
 32 66  1  0  0  0  0
M  END
>  <DRUGBANK_ID>
DB04741

>  <COMMON_NAME>
Myxothiazol

>  <CAS_NUMBER>
76706-55-3

>  <UNII>
6VY98BQ7NB

>  <SYNONYMS>
(+)-myxothiazol; Myxothiazol A

$$$$
