
 OpenBabel10282417213D

 66 66  0  0  0  0  0  0  0  0999 V2000
    0.9545   -0.0049   -0.1872 C   0  0  0  0  0  0  0  0  0  0  0  0
    0.5248   -1.4574   -0.0597 C   0  0  0  0  0  0  0  0  0  0  0  0
    1.0224   -2.0480    1.2602 C   0  0  0  0  0  0  0  0  0  0  0  0
    0.4558   -1.2839    2.4602 C   0  0  0  0  0  0  0  0  0  0  0  0
   -1.0757   -1.3115    2.4385 C   0  0  0  0  0  0  0  0  0  0  0  0
   -1.5736   -2.7586    2.5302 C   0  0  0  0  0  0  0  0  0  0  0  0
   -1.0972   -3.3739    3.8470 C   0  0  0  0  0  0  0  0  0  0  0  0
   -1.6177   -2.5104    5.0034 C   0  0  0  0  0  0  0  0  0  0  0  0
   -3.1566   -2.3845    4.9081 C   0  0  0  0  0  0  0  0  0  0  0  0
   -3.8055   -3.7571    4.9487 C   0  0  0  0  0  0  0  0  0  0  0  0
   -3.3679   -4.3802    6.2379 C   0  0  0  0  0  0  0  0  0  0  0  0
   -3.7807   -3.6125    7.4811 C   0  0  0  0  0  0  0  0  0  0  0  0
   -5.2653   -3.8128    7.6760 C   0  0  0  0  0  0  0  0  0  0  0  0
   -5.6973   -5.2835    7.7850 C   0  0  0  0  0  0  0  0  0  0  0  0
   -5.1964   -6.0229    9.0427 N   0  3  0  0  0  0  0  0  0  0  0  0
   -5.6385   -5.2207   10.2647 C   0  0  0  0  0  0  0  0  0  0  0  0
   -5.9387   -7.3552    9.0943 C   0  0  0  0  0  0  0  0  0  0  0  0
   -3.6364   -6.3455    9.1406 C   0  0  0  0  0  0  0  0  0  0  0  0
   -2.9874   -7.1498    8.0252 C   0  0  0  0  0  0  0  0  0  0  0  0
   -1.9816   -6.6423    7.2042 C   0  0  0  0  0  0  0  0  0  0  0  0
   -1.7380   -7.1813    5.9298 C   0  0  0  0  0  0  0  0  0  0  0  0
   -2.2893   -8.4176    5.5964 C   0  0  0  0  0  0  0  0  0  0  0  0
   -3.0253   -9.0874    6.5514 C   0  0  0  0  0  0  0  0  0  0  0  0
   -3.3927   -8.4621    7.7437 C   0  0  0  0  0  0  0  0  0  0  0  0
    0.5457    0.6185    0.6150 H   0  0  0  0  0  0  0  0  0  0  0  0
    0.6030    0.4214   -1.1272 H   0  0  0  0  0  0  0  0  0  0  0  0
    2.0452    0.0634   -0.1429 H   0  0  0  0  0  0  0  0  0  0  0  0
   -0.5668   -1.5271   -0.1403 H   0  0  0  0  0  0  0  0  0  0  0  0
    0.9154   -2.0451   -0.8943 H   0  0  0  0  0  0  0  0  0  0  0  0
    0.7491   -3.1094    1.3095 H   0  0  0  0  0  0  0  0  0  0  0  0
    2.1152   -2.0331    1.2995 H   0  0  0  0  0  0  0  0  0  0  0  0
    0.8576   -1.7098    3.3863 H   0  0  0  0  0  0  0  0  0  0  0  0
    0.8055   -0.2491    2.4837 H   0  0  0  0  0  0  0  0  0  0  0  0
   -1.4601   -0.6869    3.2516 H   0  0  0  0  0  0  0  0  0  0  0  0
   -1.4927   -0.8326    1.5503 H   0  0  0  0  0  0  0  0  0  0  0  0
   -2.6646   -2.7807    2.4448 H   0  0  0  0  0  0  0  0  0  0  0  0
   -1.2474   -3.3709    1.6870 H   0  0  0  0  0  0  0  0  0  0  0  0
   -1.4311   -4.4144    3.9152 H   0  0  0  0  0  0  0  0  0  0  0  0
   -0.0072   -3.4564    3.8985 H   0  0  0  0  0  0  0  0  0  0  0  0
   -1.2549   -2.9181    5.9535 H   0  0  0  0  0  0  0  0  0  0  0  0
   -1.1779   -1.5111    5.0151 H   0  0  0  0  0  0  0  0  0  0  0  0
   -3.5181   -1.7472    5.7149 H   0  0  0  0  0  0  0  0  0  0  0  0
   -3.4923   -1.8636    4.0122 H   0  0  0  0  0  0  0  0  0  0  0  0
   -4.8935   -3.7257    4.8688 H   0  0  0  0  0  0  0  0  0  0  0  0
   -3.4828   -4.4112    4.1283 H   0  0  0  0  0  0  0  0  0  0  0  0
   -3.7534   -5.3910    6.2174 H   0  0  0  0  0  0  0  0  0  0  0  0
   -2.2880   -4.4675    6.2250 H   0  0  0  0  0  0  0  0  0  0  0  0
   -3.1853   -3.9029    8.3391 H   0  0  0  0  0  0  0  0  0  0  0  0
   -3.5443   -2.5476    7.4377 H   0  0  0  0  0  0  0  0  0  0  0  0
   -5.6125   -3.2093    8.5164 H   0  0  0  0  0  0  0  0  0  0  0  0
   -5.7779   -3.3758    6.8093 H   0  0  0  0  0  0  0  0  0  0  0  0
   -6.7946   -5.2937    7.8272 H   0  0  0  0  0  0  0  0  0  0  0  0
   -5.4461   -5.8964    6.9146 H   0  0  0  0  0  0  0  0  0  0  0  0
   -6.7312   -5.1308   10.2319 H   0  0  0  0  0  0  0  0  0  0  0  0
   -5.3204   -5.7490   11.1629 H   0  0  0  0  0  0  0  0  0  0  0  0
   -5.1811   -4.2300   10.2380 H   0  0  0  0  0  0  0  0  0  0  0  0
   -5.8177   -7.8603    8.1342 H   0  0  0  0  0  0  0  0  0  0  0  0
   -5.5217   -7.9382    9.9198 H   0  0  0  0  0  0  0  0  0  0  0  0
   -7.0032   -7.1726    9.2532 H   0  0  0  0  0  0  0  0  0  0  0  0
   -3.1271   -5.3999    9.3157 H   0  0  0  0  0  0  0  0  0  0  0  0
   -3.5024   -6.8819   10.0842 H   0  0  0  0  0  0  0  0  0  0  0  0
   -1.4697   -5.7100    7.4641 H   0  0  0  0  0  0  0  0  0  0  0  0
   -1.1718   -6.6311    5.1836 H   0  0  0  0  0  0  0  0  0  0  0  0
   -2.0996   -8.8562    4.6208 H   0  0  0  0  0  0  0  0  0  0  0  0
   -3.3515  -10.1125    6.3657 H   0  0  0  0  0  0  0  0  0  0  0  0
   -4.0090   -9.0093    8.4386 H   0  0  0  0  0  0  0  0  0  0  0  0
  1  2  1  0  0  0  0
  1 25  1  0  0  0  0
  1 26  1  0  0  0  0
  1 27  1  0  0  0  0
  2  3  1  0  0  0  0
  2 28  1  0  0  0  0
  2 29  1  0  0  0  0
  3  4  1  0  0  0  0
  3 30  1  0  0  0  0
  3 31  1  0  0  0  0
  4  5  1  0  0  0  0
  4 32  1  0  0  0  0
  4 33  1  0  0  0  0
  5  6  1  0  0  0  0
  5 34  1  0  0  0  0
  5 35  1  0  0  0  0
  6  7  1  0  0  0  0
  6 36  1  0  0  0  0
  6 37  1  0  0  0  0
  7  8  1  0  0  0  0
  7 38  1  0  0  0  0
  7 39  1  0  0  0  0
  8  9  1  0  0  0  0
  8 40  1  0  0  0  0
  8 41  1  0  0  0  0
  9 10  1  0  0  0  0
  9 42  1  0  0  0  0
  9 43  1  0  0  0  0
 10 11  1  0  0  0  0
 10 44  1  0  0  0  0
 10 45  1  0  0  0  0
 11 12  1  0  0  0  0
 11 46  1  0  0  0  0
 11 47  1  0  0  0  0
 12 13  1  0  0  0  0
 12 48  1  0  0  0  0
 12 49  1  0  0  0  0
 13 14  1  0  0  0  0
 13 50  1  0  0  0  0
 13 51  1  0  0  0  0
 14 15  1  0  0  0  0
 14 52  1  0  0  0  0
 14 53  1  0  0  0  0
 15 16  1  0  0  0  0
 15 17  1  0  0  0  0
 15 18  1  0  0  0  0
 16 54  1  0  0  0  0
 16 55  1  0  0  0  0
 16 56  1  0  0  0  0
 17 57  1  0  0  0  0
 17 58  1  0  0  0  0
 17 59  1  0  0  0  0
 18 19  1  0  0  0  0
 18 60  1  0  0  0  0
 18 61  1  0  0  0  0
 19 20  2  0  0  0  0
 19 24  1  0  0  0  0
 20 21  1  0  0  0  0
 20 62  1  0  0  0  0
 21 22  2  0  0  0  0
 21 63  1  0  0  0  0
 22 23  1  0  0  0  0
 22 64  1  0  0  0  0
 23 24  2  0  0  0  0
 23 65  1  0  0  0  0
 24 66  1  0  0  0  0
M  CHG  1  15   1
M  END
>  <DRUGBANK_ID>
DB13774

>  <COMMON_NAME>
Myristalkonium

>  <CAS_NUMBER>
16287-71-1

>  <UNII>
I5M8YK41GK

>  <SYNONYMS>
Miristalkonium; Myristalkonium cation; Myristalkonium ion; Myristyl-benzalkonium; Tetradecylbenzyldimethylammonium; Zephiramine cation; Zephiramine ion

$$$$
