
 OpenBabel10282417133D

 42 45  0  0  0  0  0  0  0  0999 V2000
   -3.6739    0.7188    0.1970 C   0  0  0  0  0  0  0  0  0  0  0  0
   -3.6363   -0.6417   -0.4747 C   0  0  0  0  0  0  0  0  0  0  0  0
   -2.5003   -1.4840    0.1081 C   0  0  0  0  0  0  0  0  0  0  0  0
   -1.1459   -0.7939    0.0601 C   0  0  0  0  0  0  0  0  0  0  0  0
   -1.1155    0.6076    0.0691 C   0  0  0  0  0  0  0  0  0  0  0  0
   -2.3614    1.4557   -0.0346 C   0  0  0  0  0  0  0  0  0  0  0  0
    0.0364    1.3122    0.0536 N   0  0  0  0  0  0  0  0  0  0  0  0
    1.2065    0.6752    0.0246 C   0  0  0  0  0  0  0  0  0  0  0  0
    2.3511    1.4703   -0.0425 C   0  0  0  0  0  0  0  0  0  0  0  0
    3.6452    0.9605   -0.1161 C   0  0  0  0  0  0  0  0  0  0  0  0
    3.8131   -0.3978   -0.0843 C   0  0  0  0  0  0  0  0  0  0  0  0
    2.6847   -1.1960    0.0167 C   0  0  0  0  0  0  0  0  0  0  0  0
    1.3313   -0.7371    0.0364 C   0  0  0  0  0  0  0  0  0  0  0  0
    0.0968   -1.5037    0.0601 C   0  0  0  0  0  0  0  0  0  0  0  0
    0.0317   -2.8995   -0.0537 N   0  0  0  0  0  0  0  0  0  0  0  0
    1.0929   -3.8810    0.0007 C   0  0  0  0  0  0  0  0  0  0  0  0
    1.1766   -4.6278    1.3016 C   0  0  0  0  0  0  0  0  0  0  0  0
    0.4187   -4.2780    2.4229 C   0  0  0  0  0  0  0  0  0  0  0  0
    0.4093   -5.0990    3.5443 C   0  0  0  0  0  0  0  0  0  0  0  0
    1.1875   -6.2547    3.5659 C   0  0  0  0  0  0  0  0  0  0  0  0
    2.0298   -6.5541    2.4974 C   0  0  0  0  0  0  0  0  0  0  0  0
    2.0611   -5.7151    1.3889 C   0  0  0  0  0  0  0  0  0  0  0  0
   -4.5070    1.3132   -0.1979 H   0  0  0  0  0  0  0  0  0  0  0  0
   -3.8526    0.5972    1.2723 H   0  0  0  0  0  0  0  0  0  0  0  0
   -4.5948   -1.1551   -0.3354 H   0  0  0  0  0  0  0  0  0  0  0  0
   -3.4900   -0.5191   -1.5554 H   0  0  0  0  0  0  0  0  0  0  0  0
   -2.7278   -1.7225    1.1564 H   0  0  0  0  0  0  0  0  0  0  0  0
   -2.4947   -2.4226   -0.4532 H   0  0  0  0  0  0  0  0  0  0  0  0
   -2.3777    1.8869   -1.0444 H   0  0  0  0  0  0  0  0  0  0  0  0
   -2.2953    2.2954    0.6682 H   0  0  0  0  0  0  0  0  0  0  0  0
    2.2283    2.5527   -0.0524 H   0  0  0  0  0  0  0  0  0  0  0  0
    4.5141    1.6016   -0.1879 H   0  0  0  0  0  0  0  0  0  0  0  0
    4.7901   -0.8687   -0.1245 H   0  0  0  0  0  0  0  0  0  0  0  0
    2.9958   -2.2158    0.1025 H   0  0  0  0  0  0  0  0  0  0  0  0
   -0.8675   -3.3226    0.1446 H   0  0  0  0  0  0  0  0  0  0  0  0
    0.9637   -4.5748   -0.8365 H   0  0  0  0  0  0  0  0  0  0  0  0
    2.0735   -3.5143   -0.1780 H   0  0  0  0  0  0  0  0  0  0  0  0
   -0.1763   -3.3680    2.4264 H   0  0  0  0  0  0  0  0  0  0  0  0
   -0.2281   -4.8444    4.3857 H   0  0  0  0  0  0  0  0  0  0  0  0
    1.1456   -6.9170    4.4246 H   0  0  0  0  0  0  0  0  0  0  0  0
    2.6425   -7.4511    2.5147 H   0  0  0  0  0  0  0  0  0  0  0  0
    2.7673   -5.9182    0.5848 H   0  0  0  0  0  0  0  0  0  0  0  0
  1  2  1  0  0  0  0
  1  6  1  0  0  0  0
  1 23  1  0  0  0  0
  1 24  1  0  0  0  0
  2  3  1  0  0  0  0
  2 25  1  0  0  0  0
  2 26  1  0  0  0  0
  3  4  1  0  0  0  0
  3 27  1  0  0  0  0
  3 28  1  0  0  0  0
  4  5  2  0  0  0  0
  4 14  1  0  0  0  0
  5  6  1  0  0  0  0
  5  7  1  0  0  0  0
  6 29  1  0  0  0  0
  6 30  1  0  0  0  0
  7  8  2  0  0  0  0
  8  9  1  0  0  0  0
  8 13  1  0  0  0  0
  9 10  2  0  0  0  0
  9 31  1  0  0  0  0
 10 11  1  0  0  0  0
 10 32  1  0  0  0  0
 11 12  2  0  0  0  0
 11 33  1  0  0  0  0
 12 13  1  0  0  0  0
 12 34  1  0  0  0  0
 13 14  2  0  0  0  0
 14 15  1  0  0  0  0
 15 16  1  0  0  0  0
 15 35  1  0  0  0  0
 16 17  1  0  0  0  0
 16 36  1  0  0  0  0
 16 37  1  0  0  0  0
 17 18  2  0  0  0  0
 17 22  1  0  0  0  0
 18 19  1  0  0  0  0
 18 38  1  0  0  0  0
 19 20  2  0  0  0  0
 19 39  1  0  0  0  0
 20 21  1  0  0  0  0
 20 40  1  0  0  0  0
 21 22  2  0  0  0  0
 21 41  1  0  0  0  0
 22 42  1  0  0  0  0
M  END
>  <DRUGBANK_ID>
DB03672

>  <SECONDARY_ACCESSION_NUMBERS>
EXPT00297

>  <COMMON_NAME>
9-N-Phenylmethylamino-Tacrine

$$$$
