
 OpenBabel10282417173D

 28 28  0  0  0  0  0  0  0  0999 V2000
   -1.1893   -1.1433   -0.1085 C   0  0  0  0  0  0  0  0  0  0  0  0
    0.2080   -1.1971   -0.0138 C   0  0  0  0  0  0  0  0  0  0  0  0
   -2.0252   -2.4135   -0.0697 C   0  0  3  0  0  0  0  0  0  0  0  0
   -1.8026    0.1194   -0.2113 C   0  0  0  0  0  0  0  0  0  0  0  0
    0.9403   -0.0063    0.0192 C   0  0  0  0  0  0  0  0  0  0  0  0
   -2.9363   -2.5151    1.1912 C   0  0  0  0  0  0  0  0  0  0  0  0
   -2.8126   -2.4872   -1.2557 O   0  0  0  0  0  0  0  0  0  0  0  0
   -1.0720    1.2980   -0.0892 C   0  0  0  0  0  0  0  0  0  0  0  0
    0.3080    1.2299    0.0133 C   0  0  0  0  0  0  0  0  0  0  0  0
    2.3034   -0.0084    0.0623 O   0  0  0  0  0  0  0  0  0  0  0  0
   -3.9139   -1.4079    1.2956 N   0  0  0  0  0  0  0  0  0  0  0  0
   -4.7435   -1.4662    2.4959 C   0  0  0  0  0  0  0  0  0  0  0  0
   -3.9108   -1.3292    3.7630 C   0  0  0  0  0  0  0  0  0  0  0  0
    0.7142   -2.1559    0.0266 H   0  0  0  0  0  0  0  0  0  0  0  0
   -1.3673   -3.2918   -0.0729 H   0  0  0  0  0  0  0  0  0  0  0  0
   -2.8749    0.2090   -0.3652 H   0  0  0  0  0  0  0  0  0  0  0  0
   -3.4907   -3.4604    1.1571 H   0  0  0  0  0  0  0  0  0  0  0  0
   -2.2756   -2.5297    2.0637 H   0  0  0  0  0  0  0  0  0  0  0  0
   -3.5353   -1.8476   -1.1197 H   0  0  0  0  0  0  0  0  0  0  0  0
   -1.5865    2.2533   -0.0885 H   0  0  0  0  0  0  0  0  0  0  0  0
    0.8919    2.1451    0.0654 H   0  0  0  0  0  0  0  0  0  0  0  0
    2.6177   -0.9205   -0.0343 H   0  0  0  0  0  0  0  0  0  0  0  0
   -3.3766   -0.5458    1.3934 H   0  0  0  0  0  0  0  0  0  0  0  0
   -5.4374   -0.6171    2.4475 H   0  0  0  0  0  0  0  0  0  0  0  0
   -5.3531   -2.3738    2.5052 H   0  0  0  0  0  0  0  0  0  0  0  0
   -3.3027   -0.4171    3.7352 H   0  0  0  0  0  0  0  0  0  0  0  0
   -4.5573   -1.2834    4.6416 H   0  0  0  0  0  0  0  0  0  0  0  0
   -3.2369   -2.1801    3.8968 H   0  0  0  0  0  0  0  0  0  0  0  0
  1  2  1  0  0  0  0
  1  3  1  0  0  0  0
  1  4  2  0  0  0  0
  2  5  2  0  0  0  0
  2 14  1  0  0  0  0
  3  6  1  0  0  0  0
  3  7  1  0  0  0  0
  3 15  1  0  0  0  0
  4  8  1  0  0  0  0
  4 16  1  0  0  0  0
  5  9  1  0  0  0  0
  5 10  1  0  0  0  0
  6 11  1  0  0  0  0
  6 17  1  0  0  0  0
  6 18  1  0  0  0  0
  7 19  1  0  0  0  0
  8  9  2  0  0  0  0
  8 20  1  0  0  0  0
  9 21  1  0  0  0  0
 10 22  1  0  0  0  0
 11 12  1  0  0  0  0
 11 23  1  0  0  0  0
 12 13  1  0  0  0  0
 12 24  1  0  0  0  0
 12 25  1  0  0  0  0
 13 26  1  0  0  0  0
 13 27  1  0  0  0  0
 13 28  1  0  0  0  0
M  END
>  <DRUGBANK_ID>
DB08985

>  <COMMON_NAME>
Etilefrine

>  <CAS_NUMBER>
709-55-7

>  <UNII>
ZB6F8MY53V

>  <SYNONYMS>
Etilefrina; Etilefrine; Etilefrinum

$$$$
