
 OpenBabel10282417233D

 74 78  0  0  0  0  0  0  0  0999 V2000
    0.9937   -0.2132    0.0079 C   0  0  0  0  0  0  0  0  0  0  0  0
    0.4813   -1.5094    0.3516 O   0  0  0  0  0  0  0  0  0  0  0  0
    0.8382   -2.6214   -0.3863 C   0  0  0  0  0  0  0  0  0  0  0  0
    2.1873   -3.0457   -0.6609 C   0  0  0  0  0  0  0  0  0  0  0  0
    2.5315   -4.0627   -1.6891 C   0  0  0  0  0  0  0  0  0  0  0  0
    3.8129   -4.0705   -2.3037 N   0  0  0  0  0  0  0  0  0  0  0  0
    4.2875   -5.0563   -3.2872 C   0  0  0  0  0  0  0  0  0  0  0  0
    4.8237   -3.0247   -1.9791 C   0  0  0  0  0  0  0  0  0  0  0  0
    4.5745   -1.5718   -2.5525 C   0  0  0  0  0  0  0  0  0  0  0  0
    3.2938   -0.9150   -2.2286 N   0  0  0  0  0  0  0  0  0  0  0  0
    3.2218    0.5111   -2.4599 C   0  0  0  0  0  0  0  0  0  0  0  0
    2.1965   -1.4848   -3.0044 C   0  0  0  0  0  0  0  0  0  0  0  0
    1.4232   -4.7925   -2.1785 C   0  0  0  0  0  0  0  0  0  0  0  0
    1.3840   -5.5112   -3.4487 N   0  0  0  0  0  0  0  0  0  0  0  0
    0.4798   -6.3002   -4.1127 C   0  0  0  0  0  0  0  0  0  0  0  0
    0.8300   -7.0555   -5.0198 O   0  0  0  0  0  0  0  0  0  0  0  0
   -0.9260   -6.2775   -3.7913 C   0  0  0  0  0  0  0  0  0  0  0  0
   -1.4843   -5.1197   -3.4864 C   0  0  0  0  0  0  0  0  0  0  0  0
    0.2486   -4.6603   -1.4203 C   0  0  0  0  0  0  0  0  0  0  0  0
   -0.1915   -3.4607   -0.8216 C   0  0  0  0  0  0  0  0  0  0  0  0
   -1.6118   -3.1887   -0.6580 N   0  0  0  0  0  0  0  0  0  0  0  0
   -2.7451   -4.0261   -1.0165 C   0  0  0  0  0  0  0  0  0  0  0  0
   -3.6892   -3.7140   -1.9429 N   0  0  0  0  0  0  0  0  0  0  0  0
   -4.6521   -4.6424   -2.6011 C   0  0  0  0  0  0  0  0  0  0  0  0
   -4.5544   -5.9449   -2.3066 C   0  0  0  0  0  0  0  0  0  0  0  0
   -3.6995   -6.1531   -1.2329 C   0  0  0  0  0  0  0  0  0  0  0  0
   -2.8183   -5.2775   -0.5921 N   0  0  0  0  0  0  0  0  0  0  0  0
   -6.2886   -4.1697   -3.1797 C   0  0  0  0  0  0  0  0  0  0  0  0
   -7.7945   -3.7795   -2.3530 C   0  0  0  0  0  0  0  0  0  0  0  0
   -6.9916   -4.7196   -1.8818 N   0  0  0  0  0  0  0  0  0  0  0  0
   -6.0247   -3.3075   -1.2347 C   0  0  0  0  0  0  0  0  0  0  0  0
   -6.0393   -1.8087   -1.4207 C   0  0  0  0  0  0  0  0  0  0  0  0
   -5.2978   -2.1802   -2.6020 C   0  0  0  0  0  0  0  0  0  0  0  0
   -7.5522   -5.1723   -3.4932 C   0  0  0  0  0  0  0  0  0  0  0  0
   -6.8296   -4.3228   -4.2985 C   0  0  0  0  0  0  0  0  0  0  0  0
   -6.8308   -4.1617   -5.6933 C   0  0  0  0  0  0  0  0  0  0  0  0
   -7.9217   -4.7750   -6.2703 C   0  0  0  0  0  0  0  0  0  0  0  0
   -8.8826   -5.4625   -5.4900 C   0  0  0  0  0  0  0  0  0  0  0  0
   -8.7876   -5.6086   -4.0692 C   0  0  0  0  0  0  0  0  0  0  0  0
    0.6441    0.5152    0.7556 H   0  0  0  0  0  0  0  0  0  0  0  0
    0.5796    0.1502   -0.9420 H   0  0  0  0  0  0  0  0  0  0  0  0
    2.0845   -0.1611    0.0310 H   0  0  0  0  0  0  0  0  0  0  0  0
    2.9773   -2.4149   -0.2539 H   0  0  0  0  0  0  0  0  0  0  0  0
    4.5576   -4.5723   -4.2396 H   0  0  0  0  0  0  0  0  0  0  0  0
    5.1542   -5.5965   -2.9028 H   0  0  0  0  0  0  0  0  0  0  0  0
    3.6198   -5.8764   -3.5132 H   0  0  0  0  0  0  0  0  0  0  0  0
    4.9820   -3.0118   -0.8961 H   0  0  0  0  0  0  0  0  0  0  0  0
    5.7956   -3.3424   -2.3933 H   0  0  0  0  0  0  0  0  0  0  0  0
    5.4007   -0.9641   -2.1515 H   0  0  0  0  0  0  0  0  0  0  0  0
    4.6966   -1.5846   -3.6405 H   0  0  0  0  0  0  0  0  0  0  0  0
    3.1878    0.7133   -3.5312 H   0  0  0  0  0  0  0  0  0  0  0  0
    2.2821    0.8846   -2.0373 H   0  0  0  0  0  0  0  0  0  0  0  0
    4.0205    1.0673   -1.9700 H   0  0  0  0  0  0  0  0  0  0  0  0
    2.1815   -1.3163   -4.0744 H   0  0  0  0  0  0  0  0  0  0  0  0
    2.2927   -2.5349   -3.0262 H   0  0  0  0  0  0  0  0  0  0  0  0
    1.2290   -1.2615   -2.5477 H   0  0  0  0  0  0  0  0  0  0  0  0
    2.1462   -5.3998   -4.0943 H   0  0  0  0  0  0  0  0  0  0  0  0
   -1.5159   -7.1834   -3.7979 H   0  0  0  0  0  0  0  0  0  0  0  0
   -2.3276   -5.3048   -2.8858 H   0  0  0  0  0  0  0  0  0  0  0  0
   -1.0251   -4.1424   -3.4040 H   0  0  0  0  0  0  0  0  0  0  0  0
   -0.4220   -5.4967   -1.4120 H   0  0  0  0  0  0  0  0  0  0  0  0
   -1.7976   -2.1880   -0.5897 H   0  0  0  0  0  0  0  0  0  0  0  0
   -5.2155   -6.6560   -2.7746 H   0  0  0  0  0  0  0  0  0  0  0  0
   -3.6459   -7.1489   -0.8287 H   0  0  0  0  0  0  0  0  0  0  0  0
   -8.7237   -4.2831   -1.9121 H   0  0  0  0  0  0  0  0  0  0  0  0
   -5.5115   -3.6962   -0.3665 H   0  0  0  0  0  0  0  0  0  0  0  0
   -6.9521   -1.3102   -1.6739 H   0  0  0  0  0  0  0  0  0  0  0  0
   -5.3801   -1.3454   -0.6985 H   0  0  0  0  0  0  0  0  0  0  0  0
   -4.2312   -2.1199   -2.8721 H   0  0  0  0  0  0  0  0  0  0  0  0
   -5.5599   -2.3385   -3.6668 H   0  0  0  0  0  0  0  0  0  0  0  0
   -6.0901   -3.5740   -6.2143 H   0  0  0  0  0  0  0  0  0  0  0  0
   -8.0221   -4.7139   -7.3536 H   0  0  0  0  0  0  0  0  0  0  0  0
   -9.7228   -5.9190   -6.0049 H   0  0  0  0  0  0  0  0  0  0  0  0
   -9.6590   -5.8650   -3.4782 H   0  0  0  0  0  0  0  0  0  0  0  0
  1  2  1  0  0  0  0
  1 40  1  0  0  0  0
  1 41  1  0  0  0  0
  1 42  1  0  0  0  0
  2  3  1  0  0  0  0
  3  4  2  0  0  0  0
  3 20  1  0  0  0  0
  4  5  1  0  0  0  0
  4 43  1  0  0  0  0
  5  6  1  0  0  0  0
  5 13  2  0  0  0  0
  6  7  1  0  0  0  0
  6  8  1  0  0  0  0
  7 44  1  0  0  0  0
  7 45  1  0  0  0  0
  7 46  1  0  0  0  0
  8  9  1  0  0  0  0
  8 47  1  0  0  0  0
  8 48  1  0  0  0  0
  9 10  1  0  0  0  0
  9 49  1  0  0  0  0
  9 50  1  0  0  0  0
 10 11  1  0  0  0  0
 10 12  1  0  0  0  0
 11 51  1  0  0  0  0
 11 52  1  0  0  0  0
 11 53  1  0  0  0  0
 12 54  1  0  0  0  0
 12 55  1  0  0  0  0
 12 56  1  0  0  0  0
 13 14  1  0  0  0  0
 13 19  1  0  0  0  0
 14 15  1  0  0  0  0
 14 57  1  0  0  0  0
 15 16  2  0  0  0  0
 15 17  1  0  0  0  0
 17 18  2  0  0  0  0
 17 58  1  0  0  0  0
 18 59  1  0  0  0  0
 18 60  1  0  0  0  0
 19 20  2  0  0  0  0
 19 61  1  0  0  0  0
 20 21  1  0  0  0  0
 21 22  1  0  0  0  0
 21 62  1  0  0  0  0
 22 23  2  0  0  0  0
 22 27  1  0  0  0  0
 23 24  1  0  0  0  0
 24 25  2  0  0  0  0
 24 28  1  0  0  0  0
 25 26  1  0  0  0  0
 25 63  1  0  0  0  0
 26 27  2  0  0  0  0
 26 64  1  0  0  0  0
 28 29  2  0  0  0  0
 28 35  1  0  0  0  0
 29 30  1  0  0  0  0
 29 65  1  0  0  0  0
 30 31  1  0  0  0  0
 30 34  1  0  0  0  0
 31 32  1  0  0  0  0
 31 33  1  0  0  0  0
 31 66  1  0  0  0  0
 32 33  1  0  0  0  0
 32 67  1  0  0  0  0
 32 68  1  0  0  0  0
 33 69  1  0  0  0  0
 33 70  1  0  0  0  0
 34 35  2  0  0  0  0
 34 39  1  0  0  0  0
 35 36  1  0  0  0  0
 36 37  2  0  0  0  0
 36 71  1  0  0  0  0
 37 38  1  0  0  0  0
 37 72  1  0  0  0  0
 38 39  2  0  0  0  0
 38 73  1  0  0  0  0
 39 74  1  0  0  0  0
M  END
>  <DRUGBANK_ID>
DB16640

>  <COMMON_NAME>
Almonertinib

>  <CAS_NUMBER>
1899921-05-1

>  <UNII>
T4RS462G19

>  <SYNONYMS>
Almonertinib; HS-10296

$$$$
