
 OpenBabel10282417103D

 71 73  0  0  0  0  0  0  0  0999 V2000
    1.0313    0.1046    0.0091 C   0  0  0  0  0  0  0  0  0  0  0  0
    0.3080    0.5446   -0.9569 N   0  0  0  0  0  0  0  0  0  0  0  0
    1.0637   -0.8996    2.2847 C   0  0  0  0  0  0  0  0  0  0  0  0
    0.6246   -0.0664    3.4870 C   0  0  0  0  0  0  0  0  0  0  0  0
   -0.8821   -0.2671    3.7320 C   0  0  0  0  0  0  0  0  0  0  0  0
   -1.2754   -1.7635    3.6189 C   0  0  1  0  0  0  0  0  0  0  0  0
   -0.4111   -2.4557    4.5732 C   0  0  0  0  0  0  0  0  0  0  0  0
   -1.2005   -2.5388    5.6662 N   0  0  0  0  0  0  0  0  0  0  0  0
    0.8064   -2.5454    4.5236 O   0  0  0  0  0  0  0  0  0  0  0  0
   -3.0335   -3.1909    6.1344 C   0  0  0  0  0  0  0  0  0  0  0  0
   -4.0635   -2.8869    7.1858 C   0  0  0  0  0  0  0  0  0  0  0  0
   -3.4415   -2.9388    8.6249 C   0  0  2  0  0  0  0  0  0  0  0  0
   -1.8817   -2.1634    8.7552 C   0  0  0  0  0  0  0  0  0  0  0  0
   -0.4132   -1.9304    7.1751 C   0  0  2  0  0  0  0  0  0  0  0  0
    0.9504   -0.3818    7.2672 C   0  0  0  0  0  0  0  0  0  0  0  0
    0.8767    0.5518    8.0926 O   0  0  0  0  0  0  0  0  0  0  0  0
   -3.3049   -4.2337    9.3763 C   0  0  0  0  0  0  0  0  0  0  0  0
   -3.0529   -4.0446    3.8900 S   0  0  0  0  0  0  0  0  0  0  0  0
   -1.7329   -4.7381    5.6329 C   0  0  0  0  0  0  0  0  0  0  0  0
   -4.4620   -4.0900    4.3324 O   0  0  0  0  0  0  0  0  0  0  0  0
   -2.6201   -4.5565    2.6222 O   0  0  0  0  0  0  0  0  0  0  0  0
   -2.0227   -6.0492    5.9578 C   0  0  0  0  0  0  0  0  0  0  0  0
   -1.5504   -6.4453    7.2691 C   0  0  0  0  0  0  0  0  0  0  0  0
   -0.7979   -5.6442    8.2879 C   0  0  0  0  0  0  0  0  0  0  0  0
   -1.4826   -3.7055    7.1417 C   0  0  0  0  0  0  0  0  0  0  0  0
   -0.7485   -4.2491    8.2965 C   0  0  0  0  0  0  0  0  0  0  0  0
    0.0040   -3.3323    9.3973 C   0  0  0  0  0  0  0  0  0  0  0  0
    0.4562   -1.7895    8.8730 C   0  0  3  0  0  0  0  0  0  0  0  0
   -1.0570   -0.5598    8.1599 C   0  0  0  0  0  0  0  0  0  0  0  0
    1.6647   -2.5726    7.4755 C   0  0  0  0  0  0  0  0  0  0  0  0
    0.4340   -0.3956    1.1000 N   0  0  0  0  0  0  0  0  0  0  0  0
    2.3721    0.1210   -0.0006 N   0  0  0  0  0  0  0  0  0  0  0  0
    2.3093   -0.5161    6.9411 O   0  0  0  0  0  0  0  0  0  0  0  0
   -2.7356   -1.9498    3.8019 N   0  0  0  0  0  0  0  0  0  0  0  0
   -2.1204   -1.8163    7.0729 N   0  0  0  0  0  0  0  0  0  0  0  0
    0.9081    0.8890   -1.7059 H   0  0  0  0  0  0  0  0  0  0  0  0
    0.8252   -1.9634    2.3558 H   0  0  0  0  0  0  0  0  0  0  0  0
    2.1463   -0.8969    2.2483 H   0  0  0  0  0  0  0  0  0  0  0  0
    1.2141   -0.3525    4.3696 H   0  0  0  0  0  0  0  0  0  0  0  0
    0.8669    0.9921    3.3591 H   0  0  0  0  0  0  0  0  0  0  0  0
   -1.1378    0.2279    4.6890 H   0  0  0  0  0  0  0  0  0  0  0  0
   -1.4549    0.2515    2.9658 H   0  0  0  0  0  0  0  0  0  0  0  0
   -1.0742   -2.2872    2.7128 H   0  0  0  0  0  0  0  0  0  0  0  0
   -3.2181   -4.2634    6.5014 H   0  0  0  0  0  0  0  0  0  0  0  0
   -3.2606   -2.8156    5.2851 H   0  0  0  0  0  0  0  0  0  0  0  0
   -4.8043   -3.7031    7.0802 H   0  0  0  0  0  0  0  0  0  0  0  0
   -4.4498   -1.9538    6.7828 H   0  0  0  0  0  0  0  0  0  0  0  0
   -4.2150   -2.3755    9.1623 H   0  0  0  0  0  0  0  0  0  0  0  0
   -2.7455   -1.2513    8.6457 H   0  0  0  0  0  0  0  0  0  0  0  0
   -1.7447   -1.8534    9.8153 H   0  0  0  0  0  0  0  0  0  0  0  0
    0.0223   -2.8174    7.3921 H   0  0  0  0  0  0  0  0  0  0  0  0
   -2.2828   -4.4330    9.6346 H   0  0  0  0  0  0  0  0  0  0  0  0
   -3.6203   -4.1197   10.4043 H   0  0  0  0  0  0  0  0  0  0  0  0
   -3.6762   -5.0961    8.8322 H   0  0  0  0  0  0  0  0  0  0  0  0
   -2.8736   -6.5554    5.4707 H   0  0  0  0  0  0  0  0  0  0  0  0
   -1.8768   -7.4251    7.6333 H   0  0  0  0  0  0  0  0  0  0  0  0
   -0.4623   -6.1057    9.2182 H   0  0  0  0  0  0  0  0  0  0  0  0
    0.9691   -3.7964    9.5829 H   0  0  0  0  0  0  0  0  0  0  0  0
   -0.5891   -3.2091   10.3097 H   0  0  0  0  0  0  0  0  0  0  0  0
    1.0563   -1.2157    9.5850 H   0  0  0  0  0  0  0  0  0  0  0  0
   -1.6307   -0.0505    8.9461 H   0  0  0  0  0  0  0  0  0  0  0  0
   -0.9837    0.1817    7.3032 H   0  0  0  0  0  0  0  0  0  0  0  0
    1.5758   -2.0681    6.4439 H   0  0  0  0  0  0  0  0  0  0  0  0
    2.5540   -2.9241    7.9016 H   0  0  0  0  0  0  0  0  0  0  0  0
    1.3046   -3.4643    6.8288 H   0  0  0  0  0  0  0  0  0  0  0  0
   -0.5839   -0.4025    1.0572 H   0  0  0  0  0  0  0  0  0  0  0  0
    2.8942    0.4651   -0.7860 H   0  0  0  0  0  0  0  0  0  0  0  0
    2.9274   -0.2439    0.7558 H   0  0  0  0  0  0  0  0  0  0  0  0
    2.8706   -0.5619    7.7693 H   0  0  0  0  0  0  0  0  0  0  0  0
   -3.0884   -1.4616    4.6795 H   0  0  0  0  0  0  0  0  0  0  0  0
   -1.8859   -1.5304    6.0826 H   0  0  0  0  0  0  0  0  0  0  0  0
  1  2  2  0  0  0  0
  1 32  1  0  0  0  0
  2 36  1  0  0  0  0
  3  4  1  0  0  0  0
  3 37  1  0  0  0  0
  3 38  1  0  0  0  0
  4  5  1  0  0  0  0
  4 39  1  0  0  0  0
  4 40  1  0  0  0  0
  5 41  1  0  0  0  0
  5 42  1  0  0  0  0
  6  5  1  0  0  0  0
  6  7  1  0  0  0  0
  6 34  1  0  0  0  0
  6 43  1  6  0  0  0
  7  8  1  0  0  0  0
  7  9  2  0  0  0  0
  8 10  1  0  0  0  0
  8 14  1  0  0  0  0
 10 11  1  0  0  0  0
 10 44  1  0  0  0  0
 10 45  1  0  0  0  0
 11 12  1  0  0  0  0
 11 46  1  0  0  0  0
 11 47  1  0  0  0  0
 12 13  1  0  0  0  0
 12 48  1  1  0  0  0
 12 17  1  0  0  0  0
 13 14  1  0  0  0  0
 13 49  1  0  0  0  0
 13 50  1  0  0  0  0
 14 51  1  1  0  0  0
 14 15  1  0  0  0  0
 15 16  2  0  0  0  0
 15 33  1  0  0  0  0
 17 52  1  0  0  0  0
 17 53  1  0  0  0  0
 17 54  1  0  0  0  0
 18 19  1  0  0  0  0
 18 20  2  0  0  0  0
 18 21  2  0  0  0  0
 19 22  2  0  0  0  0
 22 23  1  0  0  0  0
 22 55  1  0  0  0  0
 23 24  2  0  0  0  0
 23 56  1  0  0  0  0
 24 26  1  0  0  0  0
 24 57  1  0  0  0  0
 25 19  1  0  0  0  0
 25 26  2  0  0  0  0
 25 35  1  0  0  0  0
 26 27  1  0  0  0  0
 27 28  1  0  0  0  0
 27 58  1  0  0  0  0
 27 59  1  0  0  0  0
 28 29  1  0  0  0  0
 28 30  1  0  0  0  0
 28 60  1  0  0  0  0
 29 35  1  0  0  0  0
 29 61  1  0  0  0  0
 29 62  1  0  0  0  0
 30 63  1  0  0  0  0
 30 64  1  0  0  0  0
 30 65  1  0  0  0  0
 31  1  1  0  0  0  0
 31  3  1  0  0  0  0
 31 66  1  0  0  0  0
 32 67  1  0  0  0  0
 32 68  1  0  0  0  0
 33 69  1  0  0  0  0
 34 18  1  0  0  0  0
 34 70  1  0  0  0  0
 35 71  1  0  0  0  0
M  END
>  <DRUGBANK_ID>
DB00278

>  <SECONDARY_ACCESSION_NUMBERS>
APRD00105

>  <COMMON_NAME>
Argatroban

>  <CAS_NUMBER>
74863-84-6

>  <UNII>
OCY3U280Y3

>  <SYNONYMS>
Argatroban; Argatroban anhydrous

$$$$
