501
 OpenBabel10282417163D

 45 47  0  0  0  0  0  0  0  0999 V2000
    1.3261    1.1995    0.0122 C   0  0  0  0  0  0  0  0  0  0  0  0
    2.0238   -0.0226   -0.0193 C   0  0  0  0  0  0  0  0  0  0  0  0
    1.2986   -1.2328   -0.0374 C   0  0  0  0  0  0  0  0  0  0  0  0
   -0.1071   -1.1737   -0.0025 C   0  0  0  0  0  0  0  0  0  0  0  0
   -0.7813    0.0396    0.0148 C   0  0  0  0  0  0  0  0  0  0  0  0
   -0.0703    1.2297    0.0139 C   0  0  0  0  0  0  0  0  0  0  0  0
    1.9599   -2.4790   -0.2004 N   0  0  0  0  0  0  0  0  0  0  0  0
    1.3482   -3.6778   -0.1574 C   0  0  0  0  0  0  0  0  0  0  0  0
    0.4033   -4.0111   -1.0743 N   0  0  0  0  0  0  0  0  0  0  0  0
   -0.0166   -5.1961   -0.6851 C   0  0  0  0  0  0  0  0  0  0  0  0
    0.6505   -5.5467    0.4914 N   0  0  0  0  0  0  0  0  0  0  0  0
    1.5812   -4.5976    0.7633 N   0  0  0  0  0  0  0  0  0  0  0  0
   -0.9510   -5.9978   -1.2583 N   0  0  0  0  0  0  0  0  0  0  0  0
   -1.2141   -7.1120   -0.6392 C   0  0  0  0  0  0  0  0  0  0  0  0
   -0.5822   -7.5577    0.6406 C   0  0  0  0  0  0  0  0  0  0  0  0
    0.3389   -6.7442    1.1902 C   0  0  0  0  0  0  0  0  0  0  0  0
    0.9702   -7.0550    2.3928 N   0  0  0  0  0  0  0  0  0  0  0  0
    1.9446   -6.2598    3.1249 C   0  0  0  0  0  0  0  0  0  0  0  0
    1.4207   -5.8969    4.5077 C   0  0  0  0  0  0  0  0  0  0  0  0
    1.2568   -7.1149    5.4074 C   0  0  0  0  0  0  0  0  0  0  0  0
    2.5697   -7.8659    5.5705 C   0  0  0  0  0  0  0  0  0  0  0  0
   -2.2458   -8.0187   -1.2593 C   0  0  0  0  0  0  0  0  0  0  0  0
   -2.5017    0.0527    0.0161 Cl  0  0  0  0  0  0  0  0  0  0  0  0
    3.5288   -0.0068   -0.0239 C   0  0  0  0  0  0  0  0  0  0  0  0
    1.8676    2.1430    0.0211 H   0  0  0  0  0  0  0  0  0  0  0  0
   -0.6965   -2.0863    0.0034 H   0  0  0  0  0  0  0  0  0  0  0  0
   -0.5966    2.1792    0.0108 H   0  0  0  0  0  0  0  0  0  0  0  0
    2.8960   -2.4688    0.1828 H   0  0  0  0  0  0  0  0  0  0  0  0
   -0.8862   -8.5037    1.0707 H   0  0  0  0  0  0  0  0  0  0  0  0
    0.7181   -7.9448    2.8153 H   0  0  0  0  0  0  0  0  0  0  0  0
    2.8904   -6.8051    3.1577 H   0  0  0  0  0  0  0  0  0  0  0  0
    2.2058   -5.3176    2.6612 H   0  0  0  0  0  0  0  0  0  0  0  0
    2.1248   -5.1940    4.9720 H   0  0  0  0  0  0  0  0  0  0  0  0
    0.4642   -5.3648    4.4196 H   0  0  0  0  0  0  0  0  0  0  0  0
    0.8945   -6.7887    6.3880 H   0  0  0  0  0  0  0  0  0  0  0  0
    0.4940   -7.7849    4.9959 H   0  0  0  0  0  0  0  0  0  0  0  0
    3.3344   -7.2096    5.9983 H   0  0  0  0  0  0  0  0  0  0  0  0
    2.4379   -8.7318    6.2206 H   0  0  0  0  0  0  0  0  0  0  0  0
    2.9468   -8.2437    4.6153 H   0  0  0  0  0  0  0  0  0  0  0  0
   -3.1976   -7.4833   -1.3257 H   0  0  0  0  0  0  0  0  0  0  0  0
   -1.9227   -8.2961   -2.2672 H   0  0  0  0  0  0  0  0  0  0  0  0
   -2.3901   -8.9274   -0.6703 H   0  0  0  0  0  0  0  0  0  0  0  0
    3.9134   -0.5060    0.8724 H   0  0  0  0  0  0  0  0  0  0  0  0
    3.9128   -0.5125   -0.9152 H   0  0  0  0  0  0  0  0  0  0  0  0
    3.9247    1.0143   -0.0245 H   0  0  0  0  0  0  0  0  0  0  0  0
  1  2  2  0  0  0  0
  1  6  1  0  0  0  0
  1 25  1  0  0  0  0
  2  3  1  0  0  0  0
  2 24  1  0  0  0  0
  3  4  2  0  0  0  0
  3  7  1  0  0  0  0
  4  5  1  0  0  0  0
  4 26  1  0  0  0  0
  5  6  2  0  0  0  0
  5 23  1  0  0  0  0
  6 27  1  0  0  0  0
  7  8  1  0  0  0  0
  7 28  1  0  0  0  0
  8  9  1  0  0  0  0
  8 12  2  0  0  0  0
  9 10  2  0  0  0  0
 10 11  1  0  0  0  0
 10 13  1  0  0  0  0
 11 12  1  0  0  0  0
 11 16  1  0  0  0  0
 13 14  2  0  0  0  0
 14 15  1  0  0  0  0
 14 22  1  0  0  0  0
 15 16  2  0  0  0  0
 15 29  1  0  0  0  0
 16 17  1  0  0  0  0
 17 18  1  0  0  0  0
 17 30  1  0  0  0  0
 18 19  1  0  0  0  0
 18 31  1  0  0  0  0
 18 32  1  0  0  0  0
 19 20  1  0  0  0  0
 19 33  1  0  0  0  0
 19 34  1  0  0  0  0
 20 21  1  0  0  0  0
 20 35  1  0  0  0  0
 20 36  1  0  0  0  0
 21 37  1  0  0  0  0
 21 38  1  0  0  0  0
 21 39  1  0  0  0  0
 22 40  1  0  0  0  0
 22 41  1  0  0  0  0
 22 42  1  0  0  0  0
 24 43  1  0  0  0  0
 24 44  1  0  0  0  0
 24 45  1  0  0  0  0
M  END
>  <DRUGBANK_ID>
DB07128

>  <COMMON_NAME>
N7-BUTYL-N2-(5-CHLORO-2-METHYLPHENYL)-5-METHYL[1,2,4]TRIAZOLO[1,5-A]PYRIMIDINE-2,7-DIAMINE

$$$$
