
 OpenBabel10282417233D

 61 65  0  0  0  0  0  0  0  0999 V2000
    1.2798    0.1243   -0.0266 O   0  0  0  0  0  0  0  0  0  0  0  0
    0.7848    1.2364   -0.6602 C   0  0  0  0  0  0  0  0  0  0  0  0
    1.4128    2.2372   -0.9084 O   0  0  0  0  0  0  0  0  0  0  0  0
   -0.7921    1.2875   -0.6736 C   0  0  0  0  0  0  0  0  0  0  0  0
   -1.8822    0.1025    0.5870 C   0  0  0  0  0  0  0  0  0  0  0  0
   -3.0925    0.4319    0.6270 C   0  0  0  0  0  0  0  0  0  0  0  0
   -4.0163    1.6566   -0.6386 C   0  0  0  0  0  0  0  0  0  0  0  0
   -3.1244    2.7513   -1.6942 C   0  0  0  0  0  0  0  0  0  0  0  0
   -1.4661    2.5549   -1.6539 C   0  0  0  0  0  0  0  0  0  0  0  0
   -5.7708    1.5676   -0.7462 C   0  0  0  0  0  0  0  0  0  0  0  0
   -6.7887    2.0775    0.2960 C   0  0  0  0  0  0  0  0  0  0  0  0
   -6.6928    0.5456    0.3968 C   0  0  0  0  0  0  0  0  0  0  0  0
   -5.5940    1.0615   -2.0146 N   0  0  0  0  0  0  0  0  0  0  0  0
   -4.0720    0.8208   -2.4592 C   0  0  0  0  0  0  0  0  0  0  0  0
   -3.9045    1.0874   -3.6640 O   0  0  0  0  0  0  0  0  0  0  0  0
   -2.5394    0.7797   -1.1407 C   0  0  3  0  0  0  0  0  0  0  0  0
   -1.9663    1.9027    0.8346 C   0  0  0  0  0  0  0  0  0  0  0  0
   -2.1768    1.1503    2.3437 C   0  0  0  0  0  0  0  0  0  0  0  0
   -3.7556    0.3042    2.8663 C   0  0  0  0  0  0  0  0  0  0  0  0
   -3.5431    1.9777    2.7616 C   0  0  0  0  0  0  0  0  0  0  0  0
   -0.3992    0.8911    1.2322 C   0  0  0  0  0  0  0  0  0  0  0  0
   -0.6844   -0.7142   -0.3551 C   0  0  0  0  0  0  0  0  0  0  0  0
   -2.6103   -0.7512   -1.0354 N   0  0  0  0  0  0  0  0  0  0  0  0
   -4.4065   -0.4332   -0.1433 C   0  0  0  0  0  0  0  0  0  0  0  0
   -4.6949    1.3492    1.0444 C   0  0  0  0  0  0  0  0  0  0  0  0
   -3.5798    2.9834    0.6568 C   0  0  0  0  0  0  0  0  0  0  0  0
   -3.1195    4.1204    1.5423 C   0  0  0  0  0  0  0  0  0  0  0  0
   -4.0364    4.1506    2.8419 C   0  0  0  0  0  0  0  0  0  0  0  0
   -5.3735    3.0167    3.3891 C   0  0  0  0  0  0  0  0  0  0  0  0
   -5.7003    1.5553    2.5004 C   0  0  0  0  0  0  0  0  0  0  0  0
   -3.8649    5.2549    3.6535 C   0  0  0  0  0  0  0  0  0  0  0  0
   -5.0024    5.9042    3.3924 F   0  0  0  0  0  0  0  0  0  0  0  0
   -3.7773    4.7648    4.8880 F   0  0  0  0  0  0  0  0  0  0  0  0
   -2.7748    5.9357    3.2802 F   0  0  0  0  0  0  0  0  0  0  0  0
    2.2292    0.0573    0.0776 H   0  0  0  0  0  0  0  0  0  0  0  0
   -1.3131   -0.6018    1.5305 H   0  0  0  0  0  0  0  0  0  0  0  0
   -3.0523   -0.4313    1.4073 H   0  0  0  0  0  0  0  0  0  0  0  0
   -3.8047    3.1549   -2.4401 H   0  0  0  0  0  0  0  0  0  0  0  0
   -1.0196    2.3564   -2.6509 H   0  0  0  0  0  0  0  0  0  0  0  0
   -6.4161    2.8232    1.0569 H   0  0  0  0  0  0  0  0  0  0  0  0
   -7.6833    2.6591    0.3371 H   0  0  0  0  0  0  0  0  0  0  0  0
   -7.4319   -0.2392    0.4365 H   0  0  0  0  0  0  0  0  0  0  0  0
   -6.2103   -0.0994    1.2011 H   0  0  0  0  0  0  0  0  0  0  0  0
   -6.3635    1.3161   -2.6093 H   0  0  0  0  0  0  0  0  0  0  0  0
   -1.9791    0.8013   -2.0816 H   0  0  0  0  0  0  0  0  0  0  0  0
   -1.2165    2.6380    1.7385 H   0  0  0  0  0  0  0  0  0  0  0  0
   -1.5973    1.2958    2.1703 H   0  0  0  0  0  0  0  0  0  0  0  0
   -4.4918   -0.3586    1.9878 H   0  0  0  0  0  0  0  0  0  0  0  0
   -4.3659   -0.5817    3.1956 H   0  0  0  0  0  0  0  0  0  0  0  0
   -4.5212    2.8160    1.9659 H   0  0  0  0  0  0  0  0  0  0  0  0
   -4.5288    2.7129    1.8811 H   0  0  0  0  0  0  0  0  0  0  0  0
    0.4150    1.0984    1.8382 H   0  0  0  0  0  0  0  0  0  0  0  0
   -0.2700    2.2949    0.7104 H   0  0  0  0  0  0  0  0  0  0  0  0
   -0.8182   -1.6653    0.0863 H   0  0  0  0  0  0  0  0  0  0  0  0
   -0.3238   -0.5567   -1.4040 H   0  0  0  0  0  0  0  0  0  0  0  0
   -5.1676   -0.6240   -0.8788 H   0  0  0  0  0  0  0  0  0  0  0  0
   -4.1181   -1.3676    0.3893 H   0  0  0  0  0  0  0  0  0  0  0  0
   -2.6860    3.0876   -0.0171 H   0  0  0  0  0  0  0  0  0  0  0  0
   -2.0918    4.5802    1.3518 H   0  0  0  0  0  0  0  0  0  0  0  0
   -6.3109    3.4768    3.5533 H   0  0  0  0  0  0  0  0  0  0  0  0
   -6.1189    0.6906    2.9605 H   0  0  0  0  0  0  0  0  0  0  0  0
  1  2  1  0  0  0  0
  1 35  1  0  0  0  0
  2  3  2  0  0  0  0
  2  4  1  0  0  0  0
  4  5  2  0  0  0  0
  4  9  1  0  0  0  0
  5  6  1  0  0  0  0
  5 36  1  0  0  0  0
  6  7  2  0  0  0  0
  6 37  1  0  0  0  0
  7  8  1  0  0  0  0
  7 10  1  0  0  0  0
  8  9  2  0  0  0  0
  8 38  1  0  0  0  0
  9 39  1  0  0  0  0
 10 11  1  0  0  0  0
 10 12  1  0  0  0  0
 10 13  1  0  0  0  0
 11 12  1  0  0  0  0
 11 40  1  0  0  0  0
 11 41  1  0  0  0  0
 12 42  1  0  0  0  0
 12 43  1  0  0  0  0
 13 14  1  0  0  0  0
 13 44  1  0  0  0  0
 14 15  2  0  0  0  0
 14 16  1  0  0  0  0
 16 17  1  0  0  0  0
 16 23  1  0  0  0  0
 16 45  1  0  0  0  0
 17 18  1  0  0  0  0
 17 46  1  0  0  0  0
 17 47  1  0  0  0  0
 18 19  1  0  0  0  0
 18 20  1  0  0  0  0
 18 21  1  0  0  0  0
 19 20  1  0  0  0  0
 19 48  1  0  0  0  0
 19 49  1  0  0  0  0
 20 50  1  0  0  0  0
 20 51  1  0  0  0  0
 21 22  1  0  0  0  0
 21 52  1  0  0  0  0
 21 53  1  0  0  0  0
 22 23  1  0  0  0  0
 22 54  1  0  0  0  0
 22 55  1  0  0  0  0
 23 24  1  0  0  0  0
 24 25  1  0  0  0  0
 24 56  1  0  0  0  0
 24 57  1  0  0  0  0
 25 26  2  0  0  0  0
 25 30  1  0  0  0  0
 26 27  1  0  0  0  0
 26 58  1  0  0  0  0
 27 28  2  0  0  0  0
 27 59  1  0  0  0  0
 28 29  1  0  0  0  0
 28 31  1  0  0  0  0
 29 30  2  0  0  0  0
 29 60  1  0  0  0  0
 30 61  1  0  0  0  0
 31 32  1  0  0  0  0
 31 33  1  0  0  0  0
 31 34  1  0  0  0  0
M  END
>  <DRUGBANK_ID>
DB16111

>  <COMMON_NAME>
CR6086

>  <CAS_NUMBER>
1417742-86-9

>  <UNII>
SS2LQQ8094

$$$$
