
 OpenBabel10282417213D

 19 16  0  0  0  0  0  0  0  0999 V2000
    0.4534    0.9729    0.6346 Zn  0  2  0  0  0  0  0  0  0  0  0  0
    2.0971   -1.0752    0.6236 O   0  5  0  0  0  0  0  0  0  0  0  0
    0.3573    0.1688   -1.1326 O   0  5  0  0  0  0  0  0  0  0  0  0
    3.9468    0.2661    0.2540 O   0  0  0  0  0  0  0  0  0  0  0  0
    1.8205    1.5514   -0.5563 O   0  0  0  0  0  0  0  0  0  0  0  0
    2.9945    0.3770    2.9267 N   0  0  0  0  0  0  0  0  0  0  0  0
    2.4046   -1.7857   -2.1453 N   0  0  0  0  0  0  0  0  0  0  0  0
    3.6959   -0.7693    2.2608 C   0  0  0  0  0  0  0  0  0  0  0  0
    2.6602   -0.3092   -2.0464 C   0  0  0  0  0  0  0  0  0  0  0  0
    3.2519   -0.6331    0.8513 C   0  0  0  0  0  0  0  0  0  0  0  0
    1.5827    0.5205   -1.2927 C   0  0  0  0  0  0  0  0  0  0  0  0
    3.5329    0.5535    3.7691 H   0  0  0  0  0  0  0  0  0  0  0  0
    3.2326    1.1680    2.3014 H   0  0  0  0  0  0  0  0  0  0  0  0
    3.1799   -2.1824   -2.6807 H   0  0  0  0  0  0  0  0  0  0  0  0
    2.5655   -2.1712   -1.1982 H   0  0  0  0  0  0  0  0  0  0  0  0
    3.4003   -1.7644    2.5877 H   0  0  0  0  0  0  0  0  0  0  0  0
    4.7847   -0.6437    2.2243 H   0  0  0  0  0  0  0  0  0  0  0  0
    2.7170    0.1429   -3.0258 H   0  0  0  0  0  0  0  0  0  0  0  0
    3.6926   -0.2673   -1.6950 H   0  0  0  0  0  0  0  0  0  0  0  0
  2 10  1  0  0  0  0
  3 11  1  0  0  0  0
  4 10  2  0  0  0  0
  5 11  2  0  0  0  0
  6  8  1  0  0  0  0
  6 12  1  0  0  0  0
  6 13  1  0  0  0  0
  7  9  1  0  0  0  0
  7 14  1  0  0  0  0
  7 15  1  0  0  0  0
  8 10  1  0  0  0  0
  8 16  1  0  0  0  0
  8 17  1  0  0  0  0
  9 11  1  0  0  0  0
  9 18  1  0  0  0  0
  9 19  1  0  0  0  0
M  CHG  3   1   2   2  -1   3  -1
M  END
>  <DRUGBANK_ID>
DB14493

>  <COMMON_NAME>
Zinc glycinate

>  <CAS_NUMBER>
14281-83-5

>  <UNII>
681VJX72FE

>  <SYNONYMS>
Zinc bisglycinate; Zinc(II) glycinate

$$$$
