R99
 OpenBabel10282417133D

 54 54  0  0  0  0  0  0  0  0999 V2000
    3.2359    0.0243    5.6153 C   0  0  0  0  0  0  0  0  0  0  0  0
    3.4595   -1.1897    5.5413 O   0  0  0  0  0  0  0  0  0  0  0  0
    1.9672    0.4598    5.6110 O   0  0  0  0  0  0  0  0  0  0  0  0
    4.2122    1.1214    5.5188 C   0  0  0  0  0  0  0  0  0  0  0  0
    5.6080    0.6139    5.1637 C   0  0  2  0  0  0  0  0  0  0  0  0
    6.5922    1.6438    5.2692 O   0  0  0  0  0  0  0  0  0  0  0  0
    5.5752   -0.4154    3.9217 C   0  0  0  0  0  0  0  0  0  0  0  0
    6.1932   -1.4841    4.0391 O   0  0  0  0  0  0  0  0  0  0  0  0
    4.7795   -0.2757    2.7769 N   0  0  0  0  0  0  0  0  0  0  0  0
    4.3257    0.9401    1.9664 C   0  0  2  0  0  0  0  0  0  0  0  0
    5.2508    1.2277    0.7246 C   0  0  0  0  0  0  0  0  0  0  0  0
    5.6475    2.7599    0.4057 C   0  0  0  0  0  0  0  0  0  0  0  0
    6.6846    3.5118    1.3001 C   0  0  0  0  0  0  0  0  0  0  0  0
    6.2828    4.2987    2.3804 C   0  0  0  0  0  0  0  0  0  0  0  0
    7.0270    4.4104    3.5916 C   0  0  0  0  0  0  0  0  0  0  0  0
    8.2859    3.8779    3.6519 C   0  0  0  0  0  0  0  0  0  0  0  0
    8.8166    3.3976    2.4655 C   0  0  0  0  0  0  0  0  0  0  0  0
    8.0379    3.2527    1.2891 C   0  0  0  0  0  0  0  0  0  0  0  0
    4.5281    2.1124    2.8364 C   0  0  0  0  0  0  0  0  0  0  0  0
    3.5860    3.0337    3.2027 N   0  0  0  0  0  0  0  0  0  0  0  0
    3.8871    4.0438    4.2670 C   0  0  0  0  0  0  0  0  0  0  0  0
    3.6238    5.4729    3.7988 C   0  0  0  0  0  0  0  0  0  0  0  0
    2.1452    5.5769    3.5032 C   0  0  0  0  0  0  0  0  0  0  0  0
    1.3714    5.3917    4.8007 C   0  0  0  0  0  0  0  0  0  0  0  0
    1.8569    6.9035    2.8368 C   0  0  0  0  0  0  0  0  0  0  0  0
    5.6664    2.1550    3.2842 O   0  0  0  0  0  0  0  0  0  0  0  0
    5.8963    0.0141    6.0240 H   0  0  0  0  0  0  0  0  0  0  0  0
    3.2687    0.7979    1.7072 H   0  0  0  0  0  0  0  0  0  0  0  0
    1.4696   -0.3838    5.5748 H   0  0  0  0  0  0  0  0  0  0  0  0
    3.7364    1.6332    4.7175 H   0  0  0  0  0  0  0  0  0  0  0  0
    4.2077    1.8652    6.3197 H   0  0  0  0  0  0  0  0  0  0  0  0
    6.3999    2.2539    4.5219 H   0  0  0  0  0  0  0  0  0  0  0  0
    4.8513   -1.1348    2.2383 H   0  0  0  0  0  0  0  0  0  0  0  0
    6.1677    0.6307    0.7967 H   0  0  0  0  0  0  0  0  0  0  0  0
    4.7155    0.8234   -0.1518 H   0  0  0  0  0  0  0  0  0  0  0  0
    6.0473    2.7742   -0.6130 H   0  0  0  0  0  0  0  0  0  0  0  0
    4.7003    3.3202    0.3637 H   0  0  0  0  0  0  0  0  0  0  0  0
    5.2313    4.4786    2.3704 H   0  0  0  0  0  0  0  0  0  0  0  0
    6.5884    4.6431    4.5655 H   0  0  0  0  0  0  0  0  0  0  0  0
    8.7890    3.7886    4.6141 H   0  0  0  0  0  0  0  0  0  0  0  0
    9.8384    3.0467    2.4829 H   0  0  0  0  0  0  0  0  0  0  0  0
    8.4914    2.8797    0.3851 H   0  0  0  0  0  0  0  0  0  0  0  0
    2.6146    2.7998    3.0549 H   0  0  0  0  0  0  0  0  0  0  0  0
    3.3399    3.8062    5.1809 H   0  0  0  0  0  0  0  0  0  0  0  0
    4.8920    3.9408    4.6452 H   0  0  0  0  0  0  0  0  0  0  0  0
    3.9625    6.2074    4.5421 H   0  0  0  0  0  0  0  0  0  0  0  0
    4.1552    5.7645    2.8895 H   0  0  0  0  0  0  0  0  0  0  0  0
    1.8665    4.7911    2.7906 H   0  0  0  0  0  0  0  0  0  0  0  0
    1.6763    6.1478    5.5313 H   0  0  0  0  0  0  0  0  0  0  0  0
    0.3013    5.4441    4.6207 H   0  0  0  0  0  0  0  0  0  0  0  0
    1.5474    4.4134    5.2586 H   0  0  0  0  0  0  0  0  0  0  0  0
    2.4234    6.9948    1.9018 H   0  0  0  0  0  0  0  0  0  0  0  0
    0.7938    6.9661    2.6008 H   0  0  0  0  0  0  0  0  0  0  0  0
    2.1394    7.7332    3.4897 H   0  0  0  0  0  0  0  0  0  0  0  0
  1  2  2  0  0  0  0
  1  3  1  0  0  0  0
  1  4  1  0  0  0  0
  3 29  1  0  0  0  0
  4 30  1  0  0  0  0
  4 31  1  0  0  0  0
  5  7  1  0  0  0  0
  5 27  1  1  0  0  0
  5  6  1  0  0  0  0
  5  4  1  0  0  0  0
  6 32  1  0  0  0  0
  7  8  2  0  0  0  0
  7  9  1  0  0  0  0
  9 33  1  0  0  0  0
 10 19  1  0  0  0  0
 10 28  1  6  0  0  0
 10 11  1  0  0  0  0
 10  9  1  0  0  0  0
 11 12  1  0  0  0  0
 11 34  1  0  0  0  0
 11 35  1  0  0  0  0
 12 13  1  0  0  0  0
 12 36  1  0  0  0  0
 12 37  1  0  0  0  0
 13 14  2  0  0  0  0
 13 18  1  0  0  0  0
 14 15  1  0  0  0  0
 14 38  1  0  0  0  0
 15 16  2  0  0  0  0
 15 39  1  0  0  0  0
 16 17  1  0  0  0  0
 16 40  1  0  0  0  0
 17 18  2  0  0  0  0
 17 41  1  0  0  0  0
 18 42  1  0  0  0  0
 19 20  1  0  0  0  0
 19 26  2  0  0  0  0
 20 21  1  0  0  0  0
 20 43  1  0  0  0  0
 21 22  1  0  0  0  0
 21 44  1  0  0  0  0
 21 45  1  0  0  0  0
 22 23  1  0  0  0  0
 22 46  1  0  0  0  0
 22 47  1  0  0  0  0
 23 24  1  0  0  0  0
 23 25  1  0  0  0  0
 23 48  1  0  0  0  0
 24 49  1  0  0  0  0
 24 50  1  0  0  0  0
 24 51  1  0  0  0  0
 25 52  1  0  0  0  0
 25 53  1  0  0  0  0
 25 54  1  0  0  0  0
M  END
>  <DRUGBANK_ID>
DB03573

>  <SECONDARY_ACCESSION_NUMBERS>
EXPT02751

>  <COMMON_NAME>
WRR-99

$$$$
