FBR
 OpenBabel10282417163D

 39 41  0  0  0  0  0  0  0  0999 V2000
    1.5087   -1.3061    0.7256 C   0  0  2  0  0  0  0  0  0  0  0  0
    3.3060   -2.3192    1.1570 C   0  0  0  0  0  0  0  0  0  0  0  0
    4.3351   -3.1216   -0.1389 C   0  0  0  0  0  0  0  0  0  0  0  0
    4.1604   -2.0777   -1.0930 C   0  0  0  0  0  0  0  0  0  0  0  0
    5.0120   -1.2793   -1.3825 O   0  0  0  0  0  0  0  0  0  0  0  0
    2.6537   -1.9890   -1.2112 C   0  0  0  0  0  0  0  0  0  0  0  0
    1.6540   -3.8708   -0.5855 Br  0  0  0  0  0  0  0  0  0  0  0  0
    2.3791   -0.9246   -0.4455 C   0  0  0  0  0  0  0  0  0  0  0  0
    2.8492    0.5141   -0.2357 C   0  0  0  0  0  0  0  0  0  0  0  0
    4.0218    1.1891   -0.1034 C   0  0  0  0  0  0  0  0  0  0  0  0
    4.0243    2.6089   -0.0084 C   0  0  0  0  0  0  0  0  0  0  0  0
    2.8490    3.3669   -0.0122 C   0  0  0  0  0  0  0  0  0  0  0  0
    2.8761    4.7262   -0.0193 O   0  0  0  0  0  0  0  0  0  0  0  0
    1.6540    2.7084    0.0244 C   0  0  0  0  0  0  0  0  0  0  0  0
    1.7774    1.3147    0.0521 C   0  0  0  0  0  0  0  0  0  0  0  0
    0.8235    0.3151    0.4321 C   0  0  0  0  0  0  0  0  0  0  0  0
   -0.2590   -1.6358    0.2237 C   0  0  0  0  0  0  0  0  0  0  0  0
   -1.1466   -1.3018   -1.3094 C   0  0  0  0  0  0  0  0  0  0  0  0
   -0.8266   -2.3960   -2.2809 C   0  0  0  0  0  0  0  0  0  0  0  0
   -1.3264   -3.6777   -1.6454 C   0  0  0  0  0  0  0  0  0  0  0  0
    3.6327   -3.2826    1.6368 H   0  0  0  0  0  0  0  0  0  0  0  0
    3.9308   -1.7786    1.9106 H   0  0  0  0  0  0  0  0  0  0  0  0
    5.3031   -3.6624    0.0372 H   0  0  0  0  0  0  0  0  0  0  0  0
    3.9421   -3.9773   -0.7278 H   0  0  0  0  0  0  0  0  0  0  0  0
    4.9334    0.6264   -0.0360 H   0  0  0  0  0  0  0  0  0  0  0  0
    4.9812    3.1080    0.0276 H   0  0  0  0  0  0  0  0  0  0  0  0
    3.0551    5.0236    0.8900 H   0  0  0  0  0  0  0  0  0  0  0  0
    0.7094    3.2562    0.0663 H   0  0  0  0  0  0  0  0  0  0  0  0
    0.0512    0.7578    1.0849 H   0  0  0  0  0  0  0  0  0  0  0  0
    0.2906    0.2782   -0.5495 H   0  0  0  0  0  0  0  0  0  0  0  0
   -0.7893   -2.4040    0.7962 H   0  0  0  0  0  0  0  0  0  0  0  0
   -0.8575   -0.8318    0.7371 H   0  0  0  0  0  0  0  0  0  0  0  0
   -2.2585   -1.3261   -1.1784 H   0  0  0  0  0  0  0  0  0  0  0  0
   -1.0422   -0.3118   -1.8103 H   0  0  0  0  0  0  0  0  0  0  0  0
   -1.2549   -2.2839   -3.2866 H   0  0  0  0  0  0  0  0  0  0  0  0
    0.2514   -2.3358   -2.3924 H   0  0  0  0  0  0  0  0  0  0  0  0
   -2.4137   -3.7610   -1.6991 H   0  0  0  0  0  0  0  0  0  0  0  0
   -0.8432   -4.5347   -2.1022 H   0  0  0  0  0  0  0  0  0  0  0  0
   -1.1037   -3.7172   -0.5792 H   0  0  0  0  0  0  0  0  0  0  0  0
  1  2  1  0  0  0  0
  1  8  1  0  0  0  0
  1 16  1  0  0  0  0
  1 17  1  6  0  0  0
  2  3  1  0  0  0  0
  2 21  1  0  0  0  0
  2 22  1  0  0  0  0
  3  4  1  0  0  0  0
  3 23  1  0  0  0  0
  3 24  1  0  0  0  0
  4  6  1  0  0  0  0
  4  5  2  0  0  0  0
  6  8  2  0  0  0  0
  6  7  1  0  0  0  0
  8  9  1  0  0  0  0
  9 10  2  0  0  0  0
  9 15  1  0  0  0  0
 10 11  1  0  0  0  0
 10 25  1  0  0  0  0
 11 12  2  0  0  0  0
 11 26  1  0  0  0  0
 12 14  1  0  0  0  0
 12 13  1  0  0  0  0
 13 27  1  0  0  0  0
 14 15  2  0  0  0  0
 14 28  1  0  0  0  0
 15 16  1  0  0  0  0
 16 29  1  0  0  0  0
 16 30  1  0  0  0  0
 17 18  1  0  0  0  0
 17 31  1  0  0  0  0
 17 32  1  0  0  0  0
 18 19  1  0  0  0  0
 18 33  1  0  0  0  0
 18 34  1  0  0  0  0
 19 20  1  0  0  0  0
 19 35  1  0  0  0  0
 19 36  1  0  0  0  0
 20 37  1  0  0  0  0
 20 38  1  0  0  0  0
 20 39  1  0  0  0  0
M  END
>  <DRUGBANK_ID>
DB07757

>  <COMMON_NAME>
(9aS)-4-bromo-9a-butyl-7-hydroxy-1,2,9,9a-tetrahydro-3H-fluoren-3-one

$$$$
