KR2
 OpenBabel10282417173D

 54 56  0  0  0  0  0  0  0  0999 V2000
    1.4740   -0.2682    0.0396 C   0  0  0  0  0  0  0  0  0  0  0  0
    0.5901   -1.3727    0.0684 C   0  0  0  0  0  0  0  0  0  0  0  0
   -0.7997   -1.1991    0.0330 C   0  0  0  0  0  0  0  0  0  0  0  0
   -1.3084    0.0673   -0.1311 C   0  0  0  0  0  0  0  0  0  0  0  0
   -0.4096    1.0996   -0.3444 C   0  0  0  0  0  0  0  0  0  0  0  0
    0.9627    1.0144   -0.1393 C   0  0  0  0  0  0  0  0  0  0  0  0
    1.7669    2.2767   -0.3190 C   0  0  0  0  0  0  0  0  0  0  0  0
    2.9812    2.2075   -0.5889 O   0  0  0  0  0  0  0  0  0  0  0  0
    1.0549    3.4888   -0.3073 N   0  0  0  0  0  0  0  0  0  0  0  0
    1.0835    4.4515   -1.4274 C   0  0  0  0  0  0  0  0  0  0  0  0
    1.6616    5.8568   -1.2075 C   0  0  0  0  0  0  0  0  0  0  0  0
    0.7535    6.6391   -0.2991 C   0  0  0  0  0  0  0  0  0  0  0  0
    1.1751    6.3950    1.1321 C   0  0  0  0  0  0  0  0  0  0  0  0
    1.4700    4.9400    1.5529 C   0  0  0  0  0  0  0  0  0  0  0  0
    0.5347    3.9588    0.9812 N   0  0  0  0  0  0  0  0  0  0  0  0
   -0.7738    3.6404    1.3150 C   0  0  0  0  0  0  0  0  0  0  0  0
   -1.5768    3.3261    0.4183 O   0  0  0  0  0  0  0  0  0  0  0  0
   -1.4351    3.6893    2.6909 C   0  0  0  0  0  0  0  0  0  0  0  0
   -2.7673    4.4855    2.5139 C   0  0  2  0  0  0  0  0  0  0  0  0
   -3.7707    3.5724    1.9152 N   0  0  0  0  0  0  0  0  0  0  0  0
   -2.5882    5.7796    1.6675 C   0  0  0  0  0  0  0  0  0  0  0  0
   -1.8795    6.9010    2.4087 C   0  0  0  0  0  0  0  0  0  0  0  0
   -2.0861    8.2141    1.9873 C   0  0  0  0  0  0  0  0  0  0  0  0
   -1.3685    9.2552    2.5890 C   0  0  0  0  0  0  0  0  0  0  0  0
   -1.5922   10.5092    2.1865 F   0  0  0  0  0  0  0  0  0  0  0  0
   -0.4182    9.0180    3.5810 C   0  0  0  0  0  0  0  0  0  0  0  0
    0.3649    9.9946    4.0481 F   0  0  0  0  0  0  0  0  0  0  0  0
   -0.1906    7.7477    4.0202 C   0  0  0  0  0  0  0  0  0  0  0  0
   -0.8907    6.7308    3.4092 C   0  0  0  0  0  0  0  0  0  0  0  0
   -0.2093    5.6059    3.5329 F   0  0  0  0  0  0  0  0  0  0  0  0
   -3.1719    4.7795    3.4873 H   0  0  0  0  0  0  0  0  0  0  0  0
    2.5464   -0.4381    0.0857 H   0  0  0  0  0  0  0  0  0  0  0  0
    0.9812   -2.3862    0.0913 H   0  0  0  0  0  0  0  0  0  0  0  0
   -1.4854   -2.0410    0.0627 H   0  0  0  0  0  0  0  0  0  0  0  0
   -2.3738    0.2750   -0.1827 H   0  0  0  0  0  0  0  0  0  0  0  0
   -0.8007    2.0050   -0.7705 H   0  0  0  0  0  0  0  0  0  0  0  0
    1.6302    3.9998   -2.2616 H   0  0  0  0  0  0  0  0  0  0  0  0
    0.0423    4.5536   -1.7600 H   0  0  0  0  0  0  0  0  0  0  0  0
    1.7195    6.3986   -2.1589 H   0  0  0  0  0  0  0  0  0  0  0  0
    2.6785    5.8287   -0.8007 H   0  0  0  0  0  0  0  0  0  0  0  0
   -0.2954    6.3454   -0.4487 H   0  0  0  0  0  0  0  0  0  0  0  0
    0.7686    7.7177   -0.5069 H   0  0  0  0  0  0  0  0  0  0  0  0
    0.3304    6.7785    1.6408 H   0  0  0  0  0  0  0  0  0  0  0  0
    1.9934    7.0604    1.4284 H   0  0  0  0  0  0  0  0  0  0  0  0
    1.5124    4.8115    2.6344 H   0  0  0  0  0  0  0  0  0  0  0  0
    2.4830    4.6964    1.2072 H   0  0  0  0  0  0  0  0  0  0  0  0
   -1.6604    2.6678    3.0227 H   0  0  0  0  0  0  0  0  0  0  0  0
   -0.8528    3.9896    3.5459 H   0  0  0  0  0  0  0  0  0  0  0  0
   -4.5912    4.0766    1.5882 H   0  0  0  0  0  0  0  0  0  0  0  0
   -3.3411    3.1808    1.0609 H   0  0  0  0  0  0  0  0  0  0  0  0
   -2.1009    5.5893    0.6993 H   0  0  0  0  0  0  0  0  0  0  0  0
   -3.5837    6.1417    1.3707 H   0  0  0  0  0  0  0  0  0  0  0  0
   -2.7533    8.4363    1.1578 H   0  0  0  0  0  0  0  0  0  0  0  0
    0.6334    7.4834    4.6762 H   0  0  0  0  0  0  0  0  0  0  0  0
  1  2  1  0  0  0  0
  1  6  2  0  0  0  0
  1 32  1  0  0  0  0
  2  3  2  0  0  0  0
  2 33  1  0  0  0  0
  3  4  1  0  0  0  0
  3 34  1  0  0  0  0
  4  5  2  0  0  0  0
  4 35  1  0  0  0  0
  5  6  1  0  0  0  0
  5 36  1  0  0  0  0
  6  7  1  0  0  0  0
  7  9  1  0  0  0  0
  7  8  2  0  0  0  0
  9 15  1  0  0  0  0
  9 10  1  0  0  0  0
 10 11  1  0  0  0  0
 10 37  1  0  0  0  0
 10 38  1  0  0  0  0
 11 12  1  0  0  0  0
 11 39  1  0  0  0  0
 11 40  1  0  0  0  0
 12 13  1  0  0  0  0
 12 41  1  0  0  0  0
 12 42  1  0  0  0  0
 13 14  1  0  0  0  0
 13 43  1  0  0  0  0
 13 44  1  0  0  0  0
 14 15  1  0  0  0  0
 14 45  1  0  0  0  0
 14 46  1  0  0  0  0
 15 16  1  0  0  0  0
 16 18  1  0  0  0  0
 16 17  2  0  0  0  0
 18 19  1  0  0  0  0
 18 47  1  0  0  0  0
 18 48  1  0  0  0  0
 19 20  1  0  0  0  0
 19 31  1  1  0  0  0
 19 21  1  0  0  0  0
 20 49  1  0  0  0  0
 20 50  1  0  0  0  0
 21 22  1  0  0  0  0
 21 51  1  0  0  0  0
 21 52  1  0  0  0  0
 22 23  1  0  0  0  0
 22 29  2  0  0  0  0
 23 24  2  0  0  0  0
 23 53  1  0  0  0  0
 24 25  1  0  0  0  0
 24 26  1  0  0  0  0
 26 27  1  0  0  0  0
 26 28  2  0  0  0  0
 28 29  1  0  0  0  0
 28 54  1  0  0  0  0
 29 30  1  0  0  0  0
M  END
>  <DRUGBANK_ID>
DB08051

>  <COMMON_NAME>
(2R)-4-(2-BENZOYL-1,2-DIAZEPAN-1-YL)-4-OXO-1-(2,4,5-TRIFLUOROPHENYL)BUTAN-2-AMINE

$$$$
