
 OpenBabel10282417103D

 74 78  0  0  0  0  0  0  0  0999 V2000
   -2.0628    1.2687   -0.0757 C   0  0  0  0  0  0  0  0  0  0  0  0
   -0.6830    1.5392    0.0372 C   0  0  0  0  0  0  0  0  0  0  0  0
   -2.5167    0.0047   -0.4622 C   0  0  0  0  0  0  0  0  0  0  0  0
   -1.5593   -0.9819   -0.6980 C   0  0  0  0  0  0  0  0  0  0  0  0
    0.2130    0.4514   -0.0031 C   0  0  0  0  0  0  0  0  0  0  0  0
   -0.2236   -0.8474   -0.2508 C   0  0  0  0  0  0  0  0  0  0  0  0
   -2.1462   -9.3797    5.5899 C   0  0  0  0  0  0  0  0  0  0  0  0
   -2.1643   -8.7337    6.8392 C   0  0  0  0  0  0  0  0  0  0  0  0
   -2.1448  -10.7743    5.5231 C   0  0  0  0  0  0  0  0  0  0  0  0
   -2.1776  -11.5253    6.6940 C   0  0  0  0  0  0  0  0  0  0  0  0
   -2.2086  -10.8838    7.9329 C   0  0  0  0  0  0  0  0  0  0  0  0
   -1.9417   -5.5771    4.6462 C   0  0  0  0  0  0  0  0  0  0  0  0
   -1.0451   -5.0738    3.5872 C   0  0  0  0  0  0  0  0  0  0  0  0
    0.2622   -3.8770    1.3080 C   0  0  0  0  0  0  0  0  0  0  0  0
    0.9343   -4.7609    2.1632 C   0  0  0  0  0  0  0  0  0  0  0  0
   -1.0762   -3.7058    1.6307 C   0  0  0  0  0  0  0  0  0  0  0  0
    0.2848   -5.3600    3.2862 C   0  0  0  0  0  0  0  0  0  0  0  0
   -3.0805   -2.6666    1.3123 C   0  0  0  0  0  0  0  0  0  0  0  0
   -3.1038   -5.1786    4.7290 O   0  0  0  0  0  0  0  0  0  0  0  0
   -1.4082   -6.5341    5.4844 N   0  0  0  0  0  0  0  0  0  0  0  0
   -1.6964   -4.2352    2.7474 C   0  0  0  0  0  0  0  0  0  0  0  0
   -1.8715   -3.1052    0.7461 O   0  0  0  0  0  0  0  0  0  0  0  0
    0.8696   -1.7661    0.0136 C   0  0  0  0  0  0  0  0  0  0  0  0
    0.8754   -3.2952    0.0251 C   0  0  0  0  0  0  0  0  0  0  0  0
    1.5866    0.3683    0.0510 N   0  0  0  0  0  0  0  0  0  0  0  0
    2.4676    1.5122   -0.0225 C   0  0  0  0  0  0  0  0  0  0  0  0
   -3.9265   -0.2708   -0.4460 N   0  0  0  0  0  0  0  0  0  0  0  0
   -4.6466   -1.4521   -0.7730 C   0  0  0  0  0  0  0  0  0  0  0  0
   -5.8355   -1.6160   -0.0922 O   0  0  0  0  0  0  0  0  0  0  0  0
   -6.9017   -0.6677   -0.1479 C   0  0  0  0  0  0  0  0  0  0  0  0
   -7.7851   -0.8693   -1.3675 C   0  0  0  0  0  0  0  0  0  0  0  0
   -8.4222    0.5073   -1.5925 C   0  0  0  0  0  0  0  0  0  0  0  0
   -7.6108    1.5257   -0.7988 C   0  0  0  0  0  0  0  0  0  0  0  0
    1.9906   -0.9465    0.0683 C   0  0  0  0  0  0  0  0  0  0  0  0
   -4.2039   -2.4246   -1.3763 O   0  0  0  0  0  0  0  0  0  0  0  0
   -6.4312    0.7524   -0.3304 C   0  0  0  0  0  0  0  0  0  0  0  0
   -2.2044   -9.4812    8.0273 C   0  0  0  0  0  0  0  0  0  0  0  0
   -2.2591   -8.8753    9.4008 C   0  0  0  0  0  0  0  0  0  0  0  0
   -2.1716   -6.9530    6.9040 S   0  0  0  0  0  0  0  0  0  0  0  0
   -1.2442   -6.5140    7.9146 O   0  0  0  0  0  0  0  0  0  0  0  0
   -3.5734   -6.5734    6.9200 O   0  0  0  0  0  0  0  0  0  0  0  0
   -2.7622    2.0913    0.0667 H   0  0  0  0  0  0  0  0  0  0  0  0
   -0.3290    2.5584    0.1597 H   0  0  0  0  0  0  0  0  0  0  0  0
   -1.8635   -1.9466   -1.0752 H   0  0  0  0  0  0  0  0  0  0  0  0
   -2.1579   -8.8161    4.6597 H   0  0  0  0  0  0  0  0  0  0  0  0
   -2.1306  -11.2785    4.5595 H   0  0  0  0  0  0  0  0  0  0  0  0
   -2.1901  -12.6121    6.6465 H   0  0  0  0  0  0  0  0  0  0  0  0
   -2.2465  -11.4884    8.8375 H   0  0  0  0  0  0  0  0  0  0  0  0
    1.9647   -5.0340    1.9505 H   0  0  0  0  0  0  0  0  0  0  0  0
    0.8424   -6.0556    3.8961 H   0  0  0  0  0  0  0  0  0  0  0  0
   -3.8654   -3.4208    1.2485 H   0  0  0  0  0  0  0  0  0  0  0  0
   -3.0366   -2.0442    2.2145 H   0  0  0  0  0  0  0  0  0  0  0  0
   -3.3256   -1.9319    0.6377 H   0  0  0  0  0  0  0  0  0  0  0  0
   -0.3998   -6.5894    5.5705 H   0  0  0  0  0  0  0  0  0  0  0  0
   -2.7511   -4.0485    2.9345 H   0  0  0  0  0  0  0  0  0  0  0  0
    0.3515   -3.6762   -0.8603 H   0  0  0  0  0  0  0  0  0  0  0  0
    1.9145   -3.6418   -0.0576 H   0  0  0  0  0  0  0  0  0  0  0  0
    2.2484    2.0496   -0.9507 H   0  0  0  0  0  0  0  0  0  0  0  0
    2.2754    2.1499    0.8429 H   0  0  0  0  0  0  0  0  0  0  0  0
    3.5084    1.1809   -0.0276 H   0  0  0  0  0  0  0  0  0  0  0  0
   -4.3848    0.3632    0.1826 H   0  0  0  0  0  0  0  0  0  0  0  0
   -7.4970   -0.7663    0.7720 H   0  0  0  0  0  0  0  0  0  0  0  0
   -7.1799   -1.1701   -2.2320 H   0  0  0  0  0  0  0  0  0  0  0  0
   -8.5339   -1.6568   -1.2251 H   0  0  0  0  0  0  0  0  0  0  0  0
   -8.4203    0.7548   -2.6579 H   0  0  0  0  0  0  0  0  0  0  0  0
   -9.4524    0.5218   -1.2315 H   0  0  0  0  0  0  0  0  0  0  0  0
   -7.2600    2.3681   -1.4034 H   0  0  0  0  0  0  0  0  0  0  0  0
   -8.1480    1.9071    0.0710 H   0  0  0  0  0  0  0  0  0  0  0  0
    3.0425   -1.2050    0.0763 H   0  0  0  0  0  0  0  0  0  0  0  0
   -6.0004    1.1531    0.5905 H   0  0  0  0  0  0  0  0  0  0  0  0
   -5.7170    0.8085   -1.1586 H   0  0  0  0  0  0  0  0  0  0  0  0
   -3.1352   -9.2449    9.9400 H   0  0  0  0  0  0  0  0  0  0  0  0
   -1.3464   -9.1296    9.9476 H   0  0  0  0  0  0  0  0  0  0  0  0
   -2.3567   -7.7919    9.4101 H   0  0  0  0  0  0  0  0  0  0  0  0
  1 42  1  0  0  0  0
  2  1  2  0  0  0  0
  2 43  1  0  0  0  0
  3  1  1  0  0  0  0
  4  3  2  0  0  0  0
  4 44  1  0  0  0  0
  5  2  1  0  0  0  0
  6  5  2  0  0  0  0
  6  4  1  0  0  0  0
  6 23  1  0  0  0  0
  7 45  1  0  0  0  0
  8  7  2  0  0  0  0
  9  7  1  0  0  0  0
  9 46  1  0  0  0  0
 10  9  2  0  0  0  0
 10 47  1  0  0  0  0
 11 10  1  0  0  0  0
 11 37  2  0  0  0  0
 11 48  1  0  0  0  0
 12 20  1  0  0  0  0
 13 12  1  0  0  0  0
 13 21  1  0  0  0  0
 15 14  2  0  0  0  0
 15 49  1  0  0  0  0
 16 14  1  0  0  0  0
 16 21  2  0  0  0  0
 17 13  2  0  0  0  0
 17 15  1  0  0  0  0
 17 50  1  0  0  0  0
 18 22  1  0  0  0  0
 18 51  1  0  0  0  0
 18 52  1  0  0  0  0
 18 53  1  0  0  0  0
 19 12  2  0  0  0  0
 20 39  1  0  0  0  0
 20 54  1  0  0  0  0
 21 55  1  0  0  0  0
 22 16  1  0  0  0  0
 24 14  1  0  0  0  0
 24 23  1  0  0  0  0
 24 56  1  0  0  0  0
 24 57  1  0  0  0  0
 25  5  1  0  0  0  0
 26 25  1  0  0  0  0
 26 58  1  0  0  0  0
 26 59  1  0  0  0  0
 26 60  1  0  0  0  0
 27  3  1  0  0  0  0
 27 61  1  0  0  0  0
 28 27  1  0  0  0  0
 29 28  1  0  0  0  0
 30 29  1  0  0  0  0
 30 62  1  0  0  0  0
 31 30  1  0  0  0  0
 31 63  1  0  0  0  0
 31 64  1  0  0  0  0
 32 31  1  0  0  0  0
 32 65  1  0  0  0  0
 32 66  1  0  0  0  0
 33 32  1  0  0  0  0
 33 36  1  0  0  0  0
 33 67  1  0  0  0  0
 33 68  1  0  0  0  0
 34 23  2  0  0  0  0
 34 25  1  0  0  0  0
 34 69  1  0  0  0  0
 35 28  2  0  0  0  0
 36 30  1  0  0  0  0
 36 70  1  0  0  0  0
 36 71  1  0  0  0  0
 37  8  1  0  0  0  0
 37 38  1  0  0  0  0
 38 72  1  0  0  0  0
 38 73  1  0  0  0  0
 38 74  1  0  0  0  0
 39  8  1  0  0  0  0
 40 39  2  0  0  0  0
 41 39  2  0  0  0  0
M  END
>  <DRUGBANK_ID>
DB00549

>  <SECONDARY_ACCESSION_NUMBERS>
APRD00377

>  <COMMON_NAME>
Zafirlukast

>  <CAS_NUMBER>
107753-78-6

>  <UNII>
XZ629S5L50

>  <SYNONYMS>
4-(5-cyclopentyloxycarbonylamino-1-methyl-1H-indol-3-ylmethyl)-3-methoxy-N-o-tolylsulfonylbenzamide; cyclopentyl 3-(2-methoxy-4-((o-tolylsulfonyl)carbamoyl)benzyl)-1-methylindole-5-carbamate; Zafirlukast

$$$$
