
 OpenBabel10282417223D

 27 28  0  0  0  0  0  0  0  0999 V2000
   -1.2325    1.4606   -0.0006 C   0  0  0  0  0  0  0  0  0  0  0  0
   -2.4557    0.6581   -0.3465 C   0  0  0  0  0  0  0  0  0  0  0  0
   -2.4524   -0.6514    0.4390 C   0  0  3  0  0  0  0  0  0  0  0  0
   -1.2344   -1.4247   -0.0163 C   0  0  0  0  0  0  0  0  0  0  0  0
    0.0539    0.7214   -0.0292 C   0  0  0  0  0  0  0  0  0  0  0  0
    0.0489   -0.6810   -0.0652 C   0  0  0  0  0  0  0  0  0  0  0  0
    1.2502   -1.3903   -0.0917 C   0  0  0  0  0  0  0  0  0  0  0  0
    2.4550   -0.6908   -0.0512 C   0  0  0  0  0  0  0  0  0  0  0  0
    2.4584    0.7059    0.0201 C   0  0  0  0  0  0  0  0  0  0  0  0
    1.2583    1.4171    0.0373 C   0  0  0  0  0  0  0  0  0  0  0  0
   -1.2719   -2.5914   -0.3928 O   0  0  0  0  0  0  0  0  0  0  0  0
   -1.3111    2.6425    0.3084 O   0  0  0  0  0  0  0  0  0  0  0  0
   -2.2926   -0.4054    2.2380 S   0  0  0  0  0  0  0  0  0  0  0  0
   -3.7406   -1.4252    0.1432 C   0  0  0  0  0  0  0  0  0  0  0  0
   -3.6288    0.4789    2.4608 O   0  0  0  0  0  0  0  0  0  0  0  0
   -2.4648   -1.6670    2.9250 O   0  0  0  0  0  0  0  0  0  0  0  0
   -1.1862    0.4614    2.5542 O   0  0  0  0  0  0  0  0  0  0  0  0
   -2.4249    0.4793   -1.4310 H   0  0  0  0  0  0  0  0  0  0  0  0
   -3.3505    1.2553   -0.1425 H   0  0  0  0  0  0  0  0  0  0  0  0
    1.2523   -2.4790   -0.1184 H   0  0  0  0  0  0  0  0  0  0  0  0
    3.3956   -1.2371   -0.0562 H   0  0  0  0  0  0  0  0  0  0  0  0
    3.4025    1.2430    0.0706 H   0  0  0  0  0  0  0  0  0  0  0  0
    1.2638    2.5020    0.1179 H   0  0  0  0  0  0  0  0  0  0  0  0
   -3.8426   -1.6301   -0.9278 H   0  0  0  0  0  0  0  0  0  0  0  0
   -3.7584   -2.3874    0.6660 H   0  0  0  0  0  0  0  0  0  0  0  0
   -4.6238   -0.8603    0.4614 H   0  0  0  0  0  0  0  0  0  0  0  0
   -3.4412    1.4325    2.3117 H   0  0  0  0  0  0  0  0  0  0  0  0
  1 12  2  0  0  0  0
  1  2  1  0  0  0  0
  2  3  1  0  0  0  0
  2 18  1  0  0  0  0
  2 19  1  0  0  0  0
  3  4  1  0  0  0  0
  3 13  1  0  0  0  0
  3 14  1  0  0  0  0
  4 11  2  0  0  0  0
  5  6  2  0  0  0  0
  5  1  1  0  0  0  0
  6  4  1  0  0  0  0
  6  7  1  0  0  0  0
  7  8  2  0  0  0  0
  7 20  1  0  0  0  0
  8  9  1  0  0  0  0
  8 21  1  0  0  0  0
  9 10  2  0  0  0  0
  9 22  1  0  0  0  0
 10  5  1  0  0  0  0
 10 23  1  0  0  0  0
 13 15  1  0  0  0  0
 13 16  2  0  0  0  0
 13 17  2  0  0  0  0
 14 24  1  0  0  0  0
 14 25  1  0  0  0  0
 14 26  1  0  0  0  0
 15 27  1  0  0  0  0
M  END
>  <DRUGBANK_ID>
DB15944

>  <COMMON_NAME>
Menadione bisulfite

>  <CAS_NUMBER>
130-36-9

>  <UNII>
I2BE1ZEN8I

$$$$
