
 OpenBabel10282417243D

 81 84  0  0  0  0  0  0  0  0999 V2000
    1.0566   -0.0141   -0.1079 C   0  0  0  0  0  0  0  0  0  0  0  0
    0.6087   -0.4264    1.2502 C   0  0  0  0  0  0  0  0  0  0  0  0
    0.6235   -1.6975    1.6806 C   0  0  0  0  0  0  0  0  0  0  0  0
    1.0628   -2.8317    0.8230 C   0  0  0  0  0  0  0  0  0  0  0  0
    0.1964   -2.0547    3.0566 C   0  0  0  0  0  0  0  0  0  0  0  0
    0.4925   -3.1130    3.5736 O   0  0  0  0  0  0  0  0  0  0  0  0
   -0.6727   -1.0697    3.7329 C   0  0  0  0  0  0  0  0  0  0  0  0
   -1.3439   -1.5547    4.9870 C   0  0  0  0  0  0  0  0  0  0  0  0
   -0.8229   -0.7981    6.2154 C   0  0  0  0  0  0  0  0  0  0  0  0
   -1.1085    0.7017    6.1194 C   0  0  0  0  0  0  0  0  0  0  0  0
   -2.6136    0.9039    5.8540 C   0  0  0  0  0  0  0  0  0  0  0  0
   -3.4060    0.2990    7.0257 C   0  0  0  0  0  0  0  0  0  0  0  0
   -2.9569    0.9358    8.3200 C   0  0  0  0  0  0  0  0  0  0  0  0
   -3.1940    2.3942    8.1346 C   0  0  0  0  0  0  0  0  0  0  0  0
   -4.6882    2.7132    7.8624 C   0  0  0  0  0  0  0  0  0  0  0  0
   -5.4541    2.4220    9.1171 C   0  0  0  0  0  0  0  0  0  0  0  0
   -4.9918    3.3513   10.2562 C   0  0  0  0  0  0  0  0  0  0  0  0
   -5.1996    5.1859   10.0208 P   0  3  0  0  0  0  0  0  0  0  0  0
   -6.9756    5.4302    9.8413 C   0  0  0  0  0  0  0  0  0  0  0  0
   -7.8998    4.3749    9.8738 C   0  0  0  0  0  0  0  0  0  0  0  0
   -9.2703    4.5761    9.7344 C   0  0  0  0  0  0  0  0  0  0  0  0
   -9.7638    5.8663    9.6828 C   0  0  0  0  0  0  0  0  0  0  0  0
   -8.8806    6.9366    9.7396 C   0  0  0  0  0  0  0  0  0  0  0  0
   -7.5038    6.7167    9.7564 C   0  0  0  0  0  0  0  0  0  0  0  0
   -4.6921    5.9798   11.5501 C   0  0  0  0  0  0  0  0  0  0  0  0
   -4.7162    7.3792   11.5917 C   0  0  0  0  0  0  0  0  0  0  0  0
   -4.5383    8.0932   12.7654 C   0  0  0  0  0  0  0  0  0  0  0  0
   -4.3200    7.4064   13.9455 C   0  0  0  0  0  0  0  0  0  0  0  0
   -4.2484    6.0132   13.9310 C   0  0  0  0  0  0  0  0  0  0  0  0
   -4.3811    5.3016   12.7311 C   0  0  0  0  0  0  0  0  0  0  0  0
   -4.2788    5.9793    8.6651 C   0  0  0  0  0  0  0  0  0  0  0  0
   -4.3918    7.2741    8.2129 C   0  0  0  0  0  0  0  0  0  0  0  0
   -3.6265    7.7484    7.1201 C   0  0  0  0  0  0  0  0  0  0  0  0
   -2.7896    6.9171    6.3739 C   0  0  0  0  0  0  0  0  0  0  0  0
   -2.6261    5.6385    6.8084 C   0  0  0  0  0  0  0  0  0  0  0  0
   -3.3057    5.2947    7.9718 C   0  0  0  0  0  0  0  0  0  0  0  0
   -0.7662    0.1658    3.2212 C   0  0  0  0  0  0  0  0  0  0  0  0
    0.0768    0.6411    2.1189 C   0  0  0  0  0  0  0  0  0  0  0  0
    0.2575    1.8247    1.9366 O   0  0  0  0  0  0  0  0  0  0  0  0
    0.6695    0.9659   -0.3986 H   0  0  0  0  0  0  0  0  0  0  0  0
    0.6961   -0.7276   -0.8542 H   0  0  0  0  0  0  0  0  0  0  0  0
    2.1490    0.0124   -0.1340 H   0  0  0  0  0  0  0  0  0  0  0  0
    0.4090   -2.8957   -0.0530 H   0  0  0  0  0  0  0  0  0  0  0  0
    2.0948   -2.6729    0.5030 H   0  0  0  0  0  0  0  0  0  0  0  0
    1.0046   -3.7948    1.3337 H   0  0  0  0  0  0  0  0  0  0  0  0
   -2.4306   -1.4737    4.8653 H   0  0  0  0  0  0  0  0  0  0  0  0
   -1.1927   -2.6248    5.1596 H   0  0  0  0  0  0  0  0  0  0  0  0
   -1.2958   -1.2140    7.1135 H   0  0  0  0  0  0  0  0  0  0  0  0
    0.2484   -0.9632    6.3554 H   0  0  0  0  0  0  0  0  0  0  0  0
   -0.7653    1.2158    7.0214 H   0  0  0  0  0  0  0  0  0  0  0  0
   -0.4832    1.1913    5.3718 H   0  0  0  0  0  0  0  0  0  0  0  0
   -2.8138    1.9651    5.6550 H   0  0  0  0  0  0  0  0  0  0  0  0
   -2.9841    0.4436    4.9365 H   0  0  0  0  0  0  0  0  0  0  0  0
   -4.4737    0.4346    6.8488 H   0  0  0  0  0  0  0  0  0  0  0  0
   -3.2990   -0.7788    7.1076 H   0  0  0  0  0  0  0  0  0  0  0  0
   -3.4776    0.5655    9.2018 H   0  0  0  0  0  0  0  0  0  0  0  0
   -1.8966    0.7909    8.5534 H   0  0  0  0  0  0  0  0  0  0  0  0
   -2.7630    2.8262    9.0442 H   0  0  0  0  0  0  0  0  0  0  0  0
   -2.5683    2.8033    7.3336 H   0  0  0  0  0  0  0  0  0  0  0  0
   -4.9460    3.7321    7.5721 H   0  0  0  0  0  0  0  0  0  0  0  0
   -5.0940    2.1933    6.9913 H   0  0  0  0  0  0  0  0  0  0  0  0
   -6.4980    2.5247    8.8434 H   0  0  0  0  0  0  0  0  0  0  0  0
   -5.3568    1.3706    9.4073 H   0  0  0  0  0  0  0  0  0  0  0  0
   -5.5522    3.0540   11.1528 H   0  0  0  0  0  0  0  0  0  0  0  0
   -3.9503    3.1559   10.5330 H   0  0  0  0  0  0  0  0  0  0  0  0
   -7.6053    3.3522   10.0484 H   0  0  0  0  0  0  0  0  0  0  0  0
   -9.9389    3.7200    9.7141 H   0  0  0  0  0  0  0  0  0  0  0  0
  -10.8324    6.0372    9.6237 H   0  0  0  0  0  0  0  0  0  0  0  0
   -9.2566    7.9528    9.7861 H   0  0  0  0  0  0  0  0  0  0  0  0
   -6.8563    7.5809    9.7439 H   0  0  0  0  0  0  0  0  0  0  0  0
   -4.9151    7.9510   10.7008 H   0  0  0  0  0  0  0  0  0  0  0  0
   -4.6127    9.1756   12.7416 H   0  0  0  0  0  0  0  0  0  0  0  0
   -4.2076    7.9596   14.8718 H   0  0  0  0  0  0  0  0  0  0  0  0
   -4.1193    5.4789   14.8682 H   0  0  0  0  0  0  0  0  0  0  0  0
   -4.2672    4.2218   12.7547 H   0  0  0  0  0  0  0  0  0  0  0  0
   -5.0597    7.9650    8.6972 H   0  0  0  0  0  0  0  0  0  0  0  0
   -3.7053    8.7923    6.8502 H   0  0  0  0  0  0  0  0  0  0  0  0
   -2.2602    7.2542    5.4912 H   0  0  0  0  0  0  0  0  0  0  0  0
   -1.9951    4.9086    6.3035 H   0  0  0  0  0  0  0  0  0  0  0  0
   -3.0916    4.3698    8.3849 H   0  0  0  0  0  0  0  0  0  0  0  0
   -1.3810    0.9604    3.6169 H   0  0  0  0  0  0  0  0  0  0  0  0
  1  2  1  0  0  0  0
  1 40  1  0  0  0  0
  1 41  1  0  0  0  0
  1 42  1  0  0  0  0
  2  3  2  0  0  0  0
  2 38  1  0  0  0  0
  3  4  1  0  0  0  0
  3  5  1  0  0  0  0
  4 43  1  0  0  0  0
  4 44  1  0  0  0  0
  4 45  1  0  0  0  0
  5  6  2  0  0  0  0
  5  7  1  0  0  0  0
  7  8  1  0  0  0  0
  7 37  2  0  0  0  0
  8  9  1  0  0  0  0
  8 46  1  0  0  0  0
  8 47  1  0  0  0  0
  9 10  1  0  0  0  0
  9 48  1  0  0  0  0
  9 49  1  0  0  0  0
 10 11  1  0  0  0  0
 10 50  1  0  0  0  0
 10 51  1  0  0  0  0
 11 12  1  0  0  0  0
 11 52  1  0  0  0  0
 11 53  1  0  0  0  0
 12 13  1  0  0  0  0
 12 54  1  0  0  0  0
 12 55  1  0  0  0  0
 13 14  1  0  0  0  0
 13 56  1  0  0  0  0
 13 57  1  0  0  0  0
 14 15  1  0  0  0  0
 14 58  1  0  0  0  0
 14 59  1  0  0  0  0
 15 16  1  0  0  0  0
 15 60  1  0  0  0  0
 15 61  1  0  0  0  0
 16 17  1  0  0  0  0
 16 62  1  0  0  0  0
 16 63  1  0  0  0  0
 17 18  1  0  0  0  0
 17 64  1  0  0  0  0
 17 65  1  0  0  0  0
 18 19  1  0  0  0  0
 18 25  1  0  0  0  0
 18 31  1  0  0  0  0
 19 20  2  0  0  0  0
 19 24  1  0  0  0  0
 20 21  1  0  0  0  0
 20 66  1  0  0  0  0
 21 22  2  0  0  0  0
 21 67  1  0  0  0  0
 22 23  1  0  0  0  0
 22 68  1  0  0  0  0
 23 24  2  0  0  0  0
 23 69  1  0  0  0  0
 24 70  1  0  0  0  0
 25 26  2  0  0  0  0
 25 30  1  0  0  0  0
 26 27  1  0  0  0  0
 26 71  1  0  0  0  0
 27 28  2  0  0  0  0
 27 72  1  0  0  0  0
 28 29  1  0  0  0  0
 28 73  1  0  0  0  0
 29 30  2  0  0  0  0
 29 74  1  0  0  0  0
 30 75  1  0  0  0  0
 31 32  2  0  0  0  0
 31 36  1  0  0  0  0
 32 33  1  0  0  0  0
 32 76  1  0  0  0  0
 33 34  2  0  0  0  0
 33 77  1  0  0  0  0
 34 35  1  0  0  0  0
 34 78  1  0  0  0  0
 35 36  2  0  0  0  0
 35 79  1  0  0  0  0
 36 80  1  0  0  0  0
 37 38  1  0  0  0  0
 37 81  1  0  0  0  0
 38 39  2  0  0  0  0
M  CHG  1  18   1
M  END
>  <DRUGBANK_ID>
DB18089

>  <COMMON_NAME>
Visometin cation

>  <CAS_NUMBER>
934960-96-0

>  <UNII>
207SW1QYQC

>  <SYNONYMS>
(10-(4,5-dimethyl-3,6-dioxo-1,4-cyclohexadien-1-yl)decyl)triphenylphosphonium; Phosphonium, (10-(4,5-dimethyl-3,6-dioxo-1,4-cyclohexadien-1-yl)decyl)triphenyl-; Skq-1 cation; Skq-1 ion

$$$$
