
 OpenBabel10282417183D

 74 73  0  0  0  0  0  0  0  0999 V2000
    0.9520    0.0330   -0.0729 C   0  0  0  0  0  0  0  0  0  0  0  0
    1.8411   -8.2550    0.3300 C   0  0  0  0  0  0  0  0  0  0  0  0
   -0.7850  -11.7142    5.3339 C   0  0  0  0  0  0  0  0  0  0  0  0
    0.5114   -1.4181   -0.1751 C   0  0  0  0  0  0  0  0  0  0  0  0
    0.5176   -7.5172    0.4239 C   0  0  0  0  0  0  0  0  0  0  0  0
   -1.5022  -10.6246    6.1096 C   0  0  0  0  0  0  0  0  0  0  0  0
    1.0263   -2.1804    1.0412 C   0  0  0  0  0  0  0  0  0  0  0  0
   -0.3592   -8.2303    1.4350 C   0  0  0  0  0  0  0  0  0  0  0  0
   -0.6094  -10.0675    7.2361 C   0  0  0  0  0  0  0  0  0  0  0  0
    0.4990   -1.5049    2.3144 C   0  0  0  0  0  0  0  0  0  0  0  0
    0.3373   -8.2967    2.7624 C   0  0  0  0  0  0  0  0  0  0  0  0
    0.7415   -9.5455    6.7605 C   0  0  0  0  0  0  0  0  0  0  0  0
   -1.0333   -1.5199    2.3388 C   0  0  0  0  0  0  0  0  0  0  0  0
    0.5419   -6.9038    3.2343 C   0  0  0  0  0  0  0  0  0  0  0  0
    0.4958   -8.3797    5.8895 C   0  0  0  0  0  0  0  0  0  0  0  0
   -1.5366   -2.9065    2.0783 C   0  0  0  0  0  0  0  0  0  0  0  0
   -0.8582   -6.3126    3.4633 C   0  0  0  0  0  0  0  0  0  0  0  0
   -0.1486   -7.2111    6.5625 C   0  0  0  0  0  0  0  0  0  0  0  0
    0.8621   -4.3249    4.8651 C   0  0  0  0  0  0  0  0  0  0  0  0
   -1.3455   -4.3745    6.1628 C   0  0  0  0  0  0  0  0  0  0  0  0
    0.1906   -4.2380    6.2160 C   0  0  0  0  0  0  0  0  0  0  0  0
   -1.2200   -3.6044    3.3217 C   0  0  0  0  0  0  0  0  0  0  0  0
   -1.9251   -6.5596    4.5289 C   0  0  0  0  0  0  0  0  0  0  0  0
    0.6153   -6.4163    7.5583 C   0  0  0  0  0  0  0  0  0  0  0  0
   -2.2214   -4.0679    3.8524 O   0  0  0  0  0  0  0  0  0  0  0  0
   -2.6030   -7.5819    4.4909 O   0  0  0  0  0  0  0  0  0  0  0  0
    1.0390   -6.9156    8.5607 O   0  0  0  0  0  0  0  0  0  0  0  0
    0.1186   -3.6930    3.6988 O   0  0  0  0  0  0  0  0  0  0  0  0
   -2.0406   -5.6488    5.6032 O   0  0  0  0  0  0  0  0  0  0  0  0
    0.8132   -5.0923    7.2505 O   0  0  0  0  0  0  0  0  0  0  0  0
    0.5462    0.5314    0.8139 H   0  0  0  0  0  0  0  0  0  0  0  0
    0.6013    0.6097   -0.9247 H   0  0  0  0  0  0  0  0  0  0  0  0
    2.0429    0.0774   -0.0060 H   0  0  0  0  0  0  0  0  0  0  0  0
    1.6452   -9.3115    0.1249 H   0  0  0  0  0  0  0  0  0  0  0  0
    2.4687   -7.8254   -0.4455 H   0  0  0  0  0  0  0  0  0  0  0  0
    2.4198   -8.2046    1.2615 H   0  0  0  0  0  0  0  0  0  0  0  0
   -0.4554  -12.4938    6.0251 H   0  0  0  0  0  0  0  0  0  0  0  0
   -1.4394  -12.1524    4.5783 H   0  0  0  0  0  0  0  0  0  0  0  0
    0.0930  -11.3274    4.8057 H   0  0  0  0  0  0  0  0  0  0  0  0
   -0.5833   -1.4694   -0.2409 H   0  0  0  0  0  0  0  0  0  0  0  0
    0.8852   -1.8789   -1.0917 H   0  0  0  0  0  0  0  0  0  0  0  0
   -0.0122   -7.4847   -0.5264 H   0  0  0  0  0  0  0  0  0  0  0  0
    0.6987   -6.4662    0.6873 H   0  0  0  0  0  0  0  0  0  0  0  0
   -2.4241  -11.0126    6.5529 H   0  0  0  0  0  0  0  0  0  0  0  0
   -1.8379   -9.8535    5.4049 H   0  0  0  0  0  0  0  0  0  0  0  0
    0.7350   -3.2383    0.9666 H   0  0  0  0  0  0  0  0  0  0  0  0
    2.1182   -2.2071    1.0634 H   0  0  0  0  0  0  0  0  0  0  0  0
   -0.6141   -9.2492    1.1530 H   0  0  0  0  0  0  0  0  0  0  0  0
   -1.3191   -7.7110    1.5342 H   0  0  0  0  0  0  0  0  0  0  0  0
   -0.4160  -10.8340    7.9835 H   0  0  0  0  0  0  0  0  0  0  0  0
   -1.1672   -9.2741    7.7465 H   0  0  0  0  0  0  0  0  0  0  0  0
    0.9649   -1.9635    3.1848 H   0  0  0  0  0  0  0  0  0  0  0  0
    0.8425   -0.4829    2.4465 H   0  0  0  0  0  0  0  0  0  0  0  0
    1.2779   -8.8546    2.8100 H   0  0  0  0  0  0  0  0  0  0  0  0
   -0.3546   -8.8222    3.4020 H   0  0  0  0  0  0  0  0  0  0  0  0
    1.3004  -10.2824    6.1753 H   0  0  0  0  0  0  0  0  0  0  0  0
    1.3972   -9.2158    7.5647 H   0  0  0  0  0  0  0  0  0  0  0  0
   -1.3968   -1.1742    3.3165 H   0  0  0  0  0  0  0  0  0  0  0  0
   -1.4761   -0.8549    1.5964 H   0  0  0  0  0  0  0  0  0  0  0  0
    1.1241   -6.2464    2.5607 H   0  0  0  0  0  0  0  0  0  0  0  0
    1.2594   -6.9264    4.0496 H   0  0  0  0  0  0  0  0  0  0  0  0
   -0.2128   -8.7031    5.1407 H   0  0  0  0  0  0  0  0  0  0  0  0
    1.4289   -8.1253    5.3960 H   0  0  0  0  0  0  0  0  0  0  0  0
   -2.6353   -2.8932    1.9996 H   0  0  0  0  0  0  0  0  0  0  0  0
   -1.2116   -3.4766    1.2054 H   0  0  0  0  0  0  0  0  0  0  0  0
   -1.2880   -5.9731    2.5167 H   0  0  0  0  0  0  0  0  0  0  0  0
   -0.5582   -5.4551    3.9270 H   0  0  0  0  0  0  0  0  0  0  0  0
   -1.1742   -7.4049    6.8960 H   0  0  0  0  0  0  0  0  0  0  0  0
   -0.1792   -6.5511    5.7415 H   0  0  0  0  0  0  0  0  0  0  0  0
    0.9740   -5.3788    4.7669 H   0  0  0  0  0  0  0  0  0  0  0  0
    1.9435   -4.1328    4.7747 H   0  0  0  0  0  0  0  0  0  0  0  0
   -1.7300   -4.2727    7.1783 H   0  0  0  0  0  0  0  0  0  0  0  0
   -1.7372   -3.4694    5.6884 H   0  0  0  0  0  0  0  0  0  0  0  0
    0.4428   -3.2225    6.5454 H   0  0  0  0  0  0  0  0  0  0  0  0
  1 31  1  0  0  0  0
  1 32  1  0  0  0  0
  1 33  1  0  0  0  0
  2 34  1  0  0  0  0
  2 35  1  0  0  0  0
  2 36  1  0  0  0  0
  3 37  1  0  0  0  0
  3 38  1  0  0  0  0
  3 39  1  0  0  0  0
  4  1  1  0  0  0  0
  4 40  1  0  0  0  0
  4 41  1  0  0  0  0
  5  2  1  0  0  0  0
  5 42  1  0  0  0  0
  5 43  1  0  0  0  0
  6  3  1  0  0  0  0
  6 44  1  0  0  0  0
  6 45  1  0  0  0  0
  7  4  1  0  0  0  0
  7 46  1  0  0  0  0
  7 47  1  0  0  0  0
  8  5  1  0  0  0  0
  8 48  1  0  0  0  0
  8 49  1  0  0  0  0
  9  6  1  0  0  0  0
  9 50  1  0  0  0  0
  9 51  1  0  0  0  0
 10  7  1  0  0  0  0
 10 52  1  0  0  0  0
 10 53  1  0  0  0  0
 11  8  1  0  0  0  0
 11 54  1  0  0  0  0
 11 55  1  0  0  0  0
 12  9  1  0  0  0  0
 12 56  1  0  0  0  0
 12 57  1  0  0  0  0
 13 10  1  0  0  0  0
 13 58  1  0  0  0  0
 13 59  1  0  0  0  0
 14 11  1  0  0  0  0
 14 60  1  0  0  0  0
 14 61  1  0  0  0  0
 15 12  1  0  0  0  0
 15 62  1  0  0  0  0
 15 63  1  0  0  0  0
 16 13  1  0  0  0  0
 16 64  1  0  0  0  0
 16 65  1  0  0  0  0
 17 14  1  0  0  0  0
 17 66  1  0  0  0  0
 17 67  1  0  0  0  0
 18 15  1  0  0  0  0
 18 68  1  0  0  0  0
 18 69  1  0  0  0  0
 19 70  1  0  0  0  0
 19 71  1  0  0  0  0
 20 72  1  0  0  0  0
 20 73  1  0  0  0  0
 21 19  1  0  0  0  0
 21 20  1  0  0  0  0
 21 74  1  0  0  0  0
 22 16  1  0  0  0  0
 23 17  1  0  0  0  0
 24 18  1  0  0  0  0
 25 22  2  0  0  0  0
 26 23  2  0  0  0  0
 27 24  2  0  0  0  0
 28 19  1  0  0  0  0
 28 22  1  0  0  0  0
 29 20  1  0  0  0  0
 29 23  1  0  0  0  0
 30 21  1  0  0  0  0
 30 24  1  0  0  0  0
M  END
>  <DRUGBANK_ID>
DB11677

>  <COMMON_NAME>
Triheptanoin

>  <CAS_NUMBER>
620-67-7

>  <UNII>
2P6O7CFW5K

>  <SYNONYMS>
Glycerol triheptanoate; Glyceryl triheptanoate; Trienanthoin; Triheptanoic glyceride; Triheptanoin; Triheptylin; Trioenanthoin

$$$$
