ROL
 OpenBabel10282417133D

 41 43  0  0  0  0  0  0  0  0999 V2000
    3.6095    0.7739    0.4282 C   0  0  0  0  0  0  0  0  0  0  0  0
    3.5472    1.6591   -0.6370 C   0  0  0  0  0  0  0  0  0  0  0  0
    4.0775    2.9471   -0.6032 C   0  0  0  0  0  0  0  0  0  0  0  0
    4.7077    3.3769    0.5686 C   0  0  0  0  0  0  0  0  0  0  0  0
    4.7602    2.5019    1.6628 C   0  0  0  0  0  0  0  0  0  0  0  0
    4.2592    1.1986    1.5789 C   0  0  0  0  0  0  0  0  0  0  0  0
    2.8785   -0.5283    0.2569 C   0  0  1  0  0  0  0  0  0  0  0  0
    3.3068   -1.3545   -0.9691 C   0  0  0  0  0  0  0  0  0  0  0  0
    2.9048   -2.7431   -0.5605 C   0  0  0  0  0  0  0  0  0  0  0  0
    2.7458   -3.7006   -1.3054 O   0  0  0  0  0  0  0  0  0  0  0  0
    2.7761   -2.7755    0.8084 N   0  0  0  0  0  0  0  0  0  0  0  0
    3.0025   -1.5027    1.4120 C   0  0  0  0  0  0  0  0  0  0  0  0
    3.9892    3.7939   -1.6651 O   0  0  0  0  0  0  0  0  0  0  0  0
    3.1600    3.5239   -2.7801 C   0  0  0  0  0  0  0  0  0  0  0  0
    1.6891    3.2519   -2.4640 C   0  0  0  0  0  0  0  0  0  0  0  0
    1.1675    2.5271   -3.6942 C   0  0  0  0  0  0  0  0  0  0  0  0
    2.3845    2.1081   -4.5296 C   0  0  0  0  0  0  0  0  0  0  0  0
    3.6212    2.3893   -3.6919 C   0  0  0  0  0  0  0  0  0  0  0  0
    5.3104    4.5876    0.8010 O   0  0  0  0  0  0  0  0  0  0  0  0
    5.4021    5.4908   -0.2956 C   0  0  0  0  0  0  0  0  0  0  0  0
    1.8094   -0.2883    0.1270 H   0  0  0  0  0  0  0  0  0  0  0  0
    3.0188    1.2893   -1.5022 H   0  0  0  0  0  0  0  0  0  0  0  0
    5.1928    2.8359    2.6026 H   0  0  0  0  0  0  0  0  0  0  0  0
    4.3898    0.5432    2.4327 H   0  0  0  0  0  0  0  0  0  0  0  0
    4.3872   -1.3207   -1.1443 H   0  0  0  0  0  0  0  0  0  0  0  0
    2.7772   -1.0536   -1.8803 H   0  0  0  0  0  0  0  0  0  0  0  0
    2.6078   -3.6394    1.3063 H   0  0  0  0  0  0  0  0  0  0  0  0
    3.9972   -1.5174    1.8634 H   0  0  0  0  0  0  0  0  0  0  0  0
    2.2484   -1.3092    2.1802 H   0  0  0  0  0  0  0  0  0  0  0  0
    3.1960    4.4408   -3.3844 H   0  0  0  0  0  0  0  0  0  0  0  0
    1.5183    2.6256   -1.5859 H   0  0  0  0  0  0  0  0  0  0  0  0
    1.1456    4.1725   -2.2313 H   0  0  0  0  0  0  0  0  0  0  0  0
    0.5753    1.6540   -3.3971 H   0  0  0  0  0  0  0  0  0  0  0  0
    0.5147    3.1886   -4.2705 H   0  0  0  0  0  0  0  0  0  0  0  0
    2.3317    1.0545   -4.8217 H   0  0  0  0  0  0  0  0  0  0  0  0
    2.4217    2.7072   -5.4447 H   0  0  0  0  0  0  0  0  0  0  0  0
    4.4924    2.6725   -4.2912 H   0  0  0  0  0  0  0  0  0  0  0  0
    3.9409    1.4834   -3.1725 H   0  0  0  0  0  0  0  0  0  0  0  0
    5.9218    5.0397   -1.1493 H   0  0  0  0  0  0  0  0  0  0  0  0
    4.4090    5.8644   -0.5677 H   0  0  0  0  0  0  0  0  0  0  0  0
    5.9967    6.3543    0.0130 H   0  0  0  0  0  0  0  0  0  0  0  0
  1  2  2  0  0  0  0
  1  6  1  0  0  0  0
  2  3  1  0  0  0  0
  2 22  1  0  0  0  0
  3  4  2  0  0  0  0
  3 13  1  0  0  0  0
  4  5  1  0  0  0  0
  4 19  1  0  0  0  0
  5  6  2  0  0  0  0
  5 23  1  0  0  0  0
  6 24  1  0  0  0  0
  7  8  1  0  0  0  0
  7 12  1  0  0  0  0
  7 21  1  6  0  0  0
  7  1  1  0  0  0  0
  8  9  1  0  0  0  0
  8 25  1  0  0  0  0
  8 26  1  0  0  0  0
  9 10  2  0  0  0  0
  9 11  1  0  0  0  0
 11 12  1  0  0  0  0
 11 27  1  0  0  0  0
 12 28  1  0  0  0  0
 12 29  1  0  0  0  0
 13 14  1  0  0  0  0
 14 15  1  0  0  0  0
 14 18  1  0  0  0  0
 14 30  1  0  0  0  0
 15 16  1  0  0  0  0
 15 31  1  0  0  0  0
 15 32  1  0  0  0  0
 16 17  1  0  0  0  0
 16 33  1  0  0  0  0
 16 34  1  0  0  0  0
 17 18  1  0  0  0  0
 17 35  1  0  0  0  0
 17 36  1  0  0  0  0
 18 37  1  0  0  0  0
 18 38  1  0  0  0  0
 19 20  1  0  0  0  0
 20 39  1  0  0  0  0
 20 40  1  0  0  0  0
 20 41  1  0  0  0  0
M  END
>  <DRUGBANK_ID>
DB04149

>  <SECONDARY_ACCESSION_NUMBERS>
EXPT00228

>  <COMMON_NAME>
(R)-Rolipram

>  <CAS_NUMBER>
85416-75-7

>  <UNII>
DPX51KUP08

>  <SYNONYMS>
(−)-rolipram; (R)-(-)-rolipram; (R)-(−)-rolipram; (R)-4-(3-Cyclopentyloxy-4-methoxy-phenyl)-pyrrolidin-2-one; R-rolipram

$$$$
