
 OpenBabel10282417203D

 49 51  0  0  0  0  0  0  0  0999 V2000
    0.9084   -0.1069    0.0145 C   0  0  0  0  0  0  0  0  0  0  0  0
    0.3826    0.9750   -0.9464 C   0  0  0  0  0  0  0  0  0  0  0  0
    0.8446    0.6451   -2.3826 C   0  0  0  0  0  0  0  0  0  0  0  0
   -1.1642    0.8944   -0.9236 C   0  0  0  0  0  0  0  0  0  0  0  0
    0.8731    2.2967   -0.4636 N   0  0  0  0  0  0  0  0  0  0  0  0
    2.3080    2.5183   -0.7174 C   0  0  0  0  0  0  0  0  0  0  0  0
    2.8239    3.8867   -0.2995 C   0  0  0  0  0  0  0  0  0  0  0  0
    1.9630    5.0676   -0.8199 C   0  0  0  0  0  0  0  0  0  0  0  0
    0.4958    4.7640   -0.4358 C   0  0  0  0  0  0  0  0  0  0  0  0
   -0.0052    3.4035   -0.8588 C   0  0  0  0  0  0  0  0  0  0  0  0
    2.4312    6.3434   -0.0622 C   0  0  0  0  0  0  0  0  0  0  0  0
    3.7743    6.7504   -0.1785 C   0  0  0  0  0  0  0  0  0  0  0  0
    4.1604    8.0341    0.1935 C   0  0  0  0  0  0  0  0  0  0  0  0
    3.2294    8.9083    0.7464 C   0  0  0  0  0  0  0  0  0  0  0  0
    1.9217    8.4900    0.9637 C   0  0  0  0  0  0  0  0  0  0  0  0
    1.5320    7.2081    0.5897 C   0  0  0  0  0  0  0  0  0  0  0  0
    2.0691    5.2681   -2.3784 C   0  0  0  0  0  0  0  0  0  0  0  0
    1.7327    4.2598   -3.2944 C   0  0  0  0  0  0  0  0  0  0  0  0
    1.7541    4.4121   -4.6768 C   0  0  0  0  0  0  0  0  0  0  0  0
    2.1382    5.6266   -5.2140 C   0  0  0  0  0  0  0  0  0  0  0  0
    2.4830    6.6597   -4.3576 C   0  0  0  0  0  0  0  0  0  0  0  0
    2.4553    6.4861   -2.9685 C   0  0  0  0  0  0  0  0  0  0  0  0
    0.5499   -1.0967   -0.2865 H   0  0  0  0  0  0  0  0  0  0  0  0
    0.5659    0.0763    1.0400 H   0  0  0  0  0  0  0  0  0  0  0  0
    2.0016   -0.1572    0.0317 H   0  0  0  0  0  0  0  0  0  0  0  0
    0.4519   -0.3193   -2.7151 H   0  0  0  0  0  0  0  0  0  0  0  0
    0.4915    1.3954   -3.0966 H   0  0  0  0  0  0  0  0  0  0  0  0
    1.9347    0.5764   -2.4661 H   0  0  0  0  0  0  0  0  0  0  0  0
   -1.5571    1.1147    0.0763 H   0  0  0  0  0  0  0  0  0  0  0  0
   -1.6224    1.5967   -1.6315 H   0  0  0  0  0  0  0  0  0  0  0  0
   -1.5161   -0.0995   -1.2128 H   0  0  0  0  0  0  0  0  0  0  0  0
    2.5859    2.3844   -1.7628 H   0  0  0  0  0  0  0  0  0  0  0  0
    2.9101    1.7671   -0.1954 H   0  0  0  0  0  0  0  0  0  0  0  0
    3.8602    3.9735   -0.6519 H   0  0  0  0  0  0  0  0  0  0  0  0
    2.8719    3.9028    0.7994 H   0  0  0  0  0  0  0  0  0  0  0  0
    0.3737    4.7954    0.6572 H   0  0  0  0  0  0  0  0  0  0  0  0
   -0.1793    5.5229   -0.8555 H   0  0  0  0  0  0  0  0  0  0  0  0
   -0.9822    3.3020   -0.3716 H   0  0  0  0  0  0  0  0  0  0  0  0
   -0.2368    3.3996   -1.9266 H   0  0  0  0  0  0  0  0  0  0  0  0
    4.4971    6.1162   -0.6882 H   0  0  0  0  0  0  0  0  0  0  0  0
    5.1729    8.3666   -0.0136 H   0  0  0  0  0  0  0  0  0  0  0  0
    3.5189    9.9233    0.9961 H   0  0  0  0  0  0  0  0  0  0  0  0
    1.1842    9.1717    1.3783 H   0  0  0  0  0  0  0  0  0  0  0  0
    0.4957    6.9371    0.7731 H   0  0  0  0  0  0  0  0  0  0  0  0
    1.4048    3.2852   -2.9782 H   0  0  0  0  0  0  0  0  0  0  0  0
    1.4566    3.5825   -5.3089 H   0  0  0  0  0  0  0  0  0  0  0  0
    2.1584    5.7576   -6.2882 H   0  0  0  0  0  0  0  0  0  0  0  0
    2.7665    7.6281   -4.7632 H   0  0  0  0  0  0  0  0  0  0  0  0
    2.7416    7.3462   -2.3748 H   0  0  0  0  0  0  0  0  0  0  0  0
  1  2  1  0  0  0  0
  1 23  1  0  0  0  0
  1 24  1  0  0  0  0
  1 25  1  0  0  0  0
  2  3  1  0  0  0  0
  2  4  1  0  0  0  0
  2  5  1  0  0  0  0
  3 26  1  0  0  0  0
  3 27  1  0  0  0  0
  3 28  1  0  0  0  0
  4 29  1  0  0  0  0
  4 30  1  0  0  0  0
  4 31  1  0  0  0  0
  5  6  1  0  0  0  0
  5 10  1  0  0  0  0
  6  7  1  0  0  0  0
  6 32  1  0  0  0  0
  6 33  1  0  0  0  0
  7  8  1  0  0  0  0
  7 34  1  0  0  0  0
  7 35  1  0  0  0  0
  8  9  1  0  0  0  0
  8 11  1  0  0  0  0
  8 17  1  0  0  0  0
  9 10  1  0  0  0  0
  9 36  1  0  0  0  0
  9 37  1  0  0  0  0
 10 38  1  0  0  0  0
 10 39  1  0  0  0  0
 11 12  2  0  0  0  0
 11 16  1  0  0  0  0
 12 13  1  0  0  0  0
 12 40  1  0  0  0  0
 13 14  2  0  0  0  0
 13 41  1  0  0  0  0
 14 15  1  0  0  0  0
 14 42  1  0  0  0  0
 15 16  2  0  0  0  0
 15 43  1  0  0  0  0
 16 44  1  0  0  0  0
 17 18  2  0  0  0  0
 17 22  1  0  0  0  0
 18 19  1  0  0  0  0
 18 45  1  0  0  0  0
 19 20  2  0  0  0  0
 19 46  1  0  0  0  0
 20 21  1  0  0  0  0
 20 47  1  0  0  0  0
 21 22  2  0  0  0  0
 21 48  1  0  0  0  0
 22 49  1  0  0  0  0
M  END
>  <DRUGBANK_ID>
DB13502

>  <COMMON_NAME>
Budipine

>  <CAS_NUMBER>
57982-78-2

>  <UNII>
L9026OPI2Z

>  <SYNONYMS>
Budipine

$$$$
