
 OpenBabel10282417143D

101106  0  0  0  0  0  0  0  0999 V2000
  -11.1677    8.2079    3.0400 C   0  0  0  0  0  0  0  0  0  0  0  0
  -10.7519    7.8359    4.2918 N   0  0  0  0  0  0  0  0  0  0  0  0
  -10.9412    9.4757    2.6222 N   0  0  0  0  0  0  0  0  0  0  0  0
  -13.3630    3.4430    2.5829 C   0  0  0  0  0  0  0  0  0  0  0  0
  -10.8700    0.0833   -1.8772 C   0  0  0  0  0  0  0  0  0  0  0  0
  -12.6204    4.4560    3.1965 N   0  0  0  0  0  0  0  0  0  0  0  0
  -10.6539    1.3435   -1.3704 N   0  0  0  0  0  0  0  0  0  0  0  0
  -13.2352    0.5104    0.4056 C   0  0  0  0  0  0  0  0  0  0  0  0
  -10.1067    8.8423    5.1330 C   0  0  0  0  0  0  0  0  0  0  0  0
  -12.6990    2.2521    2.3401 N   0  0  0  0  0  0  0  0  0  0  0  0
  -12.4306   -0.5820    0.1045 N   0  0  0  0  0  0  0  0  0  0  0  0
  -13.3344    0.9212    7.0123 C   0  0  0  0  0  0  0  0  0  0  0  0
  -10.9136    4.0343   -0.6172 N   0  0  0  0  0  0  0  0  0  0  0  0
  -10.5758   10.2420    4.8073 C   0  0  0  0  0  0  0  0  0  0  0  0
  -13.3521    0.9687    1.9031 C   0  0  2  0  0  0  0  0  0  0  0  0
  -12.5935   -0.2071    6.6310 C   0  0  0  0  0  0  0  0  0  0  0  0
  -13.9728    1.6778    6.0494 C   0  0  0  0  0  0  0  0  0  0  0  0
  -10.9557   10.5209    3.4994 C   0  0  0  0  0  0  0  0  0  0  0  0
  -11.9856   -0.8600   -1.2689 C   0  0  1  0  0  0  0  0  0  0  0  0
  -11.1811    6.5188    4.8388 C   0  0  3  0  0  0  0  0  0  0  0  0
  -13.0716    0.2091    4.3131 C   0  0  0  0  0  0  0  0  0  0  0  0
  -11.8190    7.5159    2.3268 O   0  0  0  0  0  0  0  0  0  0  0  0
  -13.8850    1.2773    4.7288 C   0  0  0  0  0  0  0  0  0  0  0  0
  -12.4353   -0.5504    5.2869 C   0  0  0  0  0  0  0  0  0  0  0  0
  -12.8541   -0.1196    2.8567 C   0  0  0  0  0  0  0  0  0  0  0  0
  -10.4955    5.2554    4.3020 C   0  0  0  0  0  0  0  0  0  0  0  0
  -12.7206    6.3412    4.7783 C   0  0  0  0  0  0  0  0  0  0  0  0
  -10.5386    5.2494   -0.1387 C   0  0  0  0  0  0  0  0  0  0  0  0
  -11.1836    4.6714    3.0922 C   0  0  0  0  0  0  0  0  0  0  0  0
  -13.3263    5.7014    3.5091 C   0  0  0  0  0  0  0  0  0  0  0  0
  -14.5687    3.5355    2.3692 O   0  0  0  0  0  0  0  0  0  0  0  0
  -10.5989    1.7024    0.0332 C   0  0  0  0  0  0  0  0  0  0  0  0
  -10.2147    2.4588   -2.2408 C   0  0  0  0  0  0  0  0  0  0  0  0
  -11.0858    3.7260   -2.0140 C   0  0  0  0  0  0  0  0  0  0  0  0
  -11.3874    2.9926    0.2336 C   0  0  0  0  0  0  0  0  0  0  0  0
  -10.2764   -0.2614   -2.9055 O   0  0  0  0  0  0  0  0  0  0  0  0
  -13.7240    1.1897   -0.4958 O   0  0  0  0  0  0  0  0  0  0  0  0
   -9.6624    7.7488    0.7390 N   0  0  0  0  0  0  0  0  0  0  0  0
  -11.8007   -1.3235    7.9365 Br  0  0  0  0  0  0  0  0  0  0  0  0
  -14.9827    3.2296    6.4473 Br  0  0  0  0  0  0  0  0  0  0  0  0
  -13.4672    1.2834    8.3221 O   0  0  0  0  0  0  0  0  0  0  0  0
   -9.4389    5.3679    0.7241 C   0  0  0  0  0  0  0  0  0  0  0  0
  -11.3003    6.3743   -0.3952 C   0  0  0  0  0  0  0  0  0  0  0  0
  -14.4122   -4.0555   -3.7999 N   0  0  0  0  0  0  0  0  0  0  0  0
  -10.5897   11.2905    5.7097 C   0  0  0  0  0  0  0  0  0  0  0  0
  -10.8011    7.5878    0.0144 C   0  0  0  0  0  0  0  0  0  0  0  0
   -9.0914    6.6189    1.1937 C   0  0  0  0  0  0  0  0  0  0  0  0
  -13.2065   -1.0173   -2.2071 C   0  0  0  0  0  0  0  0  0  0  0  0
  -11.4173   11.7600    3.0665 C   0  0  0  0  0  0  0  0  0  0  0  0
  -13.1652   -3.9586   -3.0521 C   0  0  0  0  0  0  0  0  0  0  0  0
  -12.8835   -1.4902   -3.6214 C   0  0  0  0  0  0  0  0  0  0  0  0
  -12.2539   -2.8831   -3.6489 C   0  0  0  0  0  0  0  0  0  0  0  0
  -11.0342   12.5564    5.2984 C   0  0  0  0  0  0  0  0  0  0  0  0
  -11.4644   12.7891    3.9869 C   0  0  0  0  0  0  0  0  0  0  0  0
  -11.1946    9.6237    1.6586 H   0  0  0  0  0  0  0  0  0  0  0  0
  -10.3385    8.6181    6.1771 H   0  0  0  0  0  0  0  0  0  0  0  0
   -9.0231    8.7752    4.9765 H   0  0  0  0  0  0  0  0  0  0  0  0
  -11.7575    2.1832    2.6927 H   0  0  0  0  0  0  0  0  0  0  0  0
  -12.0826   -1.2160    0.8098 H   0  0  0  0  0  0  0  0  0  0  0  0
  -14.4316    1.1038    2.0130 H   0  0  0  0  0  0  0  0  0  0  0  0
  -11.4949   -1.8412   -1.1803 H   0  0  0  0  0  0  0  0  0  0  0  0
  -10.8729    6.5510    5.8912 H   0  0  0  0  0  0  0  0  0  0  0  0
  -14.4630    1.8549    4.0186 H   0  0  0  0  0  0  0  0  0  0  0  0
  -11.8352   -1.4094    4.9945 H   0  0  0  0  0  0  0  0  0  0  0  0
  -13.3277   -1.0767    2.6198 H   0  0  0  0  0  0  0  0  0  0  0  0
  -11.7677   -0.2418    2.7015 H   0  0  0  0  0  0  0  0  0  0  0  0
   -9.4293    5.4154    4.0904 H   0  0  0  0  0  0  0  0  0  0  0  0
  -10.5436    4.4648    5.0626 H   0  0  0  0  0  0  0  0  0  0  0  0
  -12.9705    5.6436    5.5824 H   0  0  0  0  0  0  0  0  0  0  0  0
  -13.2039    7.2969    4.9965 H   0  0  0  0  0  0  0  0  0  0  0  0
  -11.0984    5.3943    2.3024 H   0  0  0  0  0  0  0  0  0  0  0  0
  -10.6186    3.7803    2.8317 H   0  0  0  0  0  0  0  0  0  0  0  0
  -14.3949    5.5322    3.6533 H   0  0  0  0  0  0  0  0  0  0  0  0
  -13.3514    6.3294    2.6154 H   0  0  0  0  0  0  0  0  0  0  0  0
  -10.8596    0.8890    0.7062 H   0  0  0  0  0  0  0  0  0  0  0  0
   -9.5516    1.8879    0.2979 H   0  0  0  0  0  0  0  0  0  0  0  0
   -9.1874    2.6899   -1.9261 H   0  0  0  0  0  0  0  0  0  0  0  0
  -10.2292    2.1789   -3.2891 H   0  0  0  0  0  0  0  0  0  0  0  0
  -12.1473    3.5186   -2.2117 H   0  0  0  0  0  0  0  0  0  0  0  0
  -10.7667    4.5689   -2.6259 H   0  0  0  0  0  0  0  0  0  0  0  0
  -12.4594    2.9022    0.0545 H   0  0  0  0  0  0  0  0  0  0  0  0
  -11.2107    3.3062    1.2235 H   0  0  0  0  0  0  0  0  0  0  0  0
  -13.0066    0.6162    8.8569 H   0  0  0  0  0  0  0  0  0  0  0  0
   -8.9795    4.4842    1.1556 H   0  0  0  0  0  0  0  0  0  0  0  0
  -12.3126    6.3014   -0.7804 H   0  0  0  0  0  0  0  0  0  0  0  0
  -15.0402   -4.7165   -3.3496 H   0  0  0  0  0  0  0  0  0  0  0  0
  -14.8992   -3.1592   -3.7883 H   0  0  0  0  0  0  0  0  0  0  0  0
  -10.2585   11.1290    6.7292 H   0  0  0  0  0  0  0  0  0  0  0  0
  -11.4488    8.4585   -0.0428 H   0  0  0  0  0  0  0  0  0  0  0  0
   -8.4498    6.7280    2.0672 H   0  0  0  0  0  0  0  0  0  0  0  0
  -13.9281   -1.7021   -1.7393 H   0  0  0  0  0  0  0  0  0  0  0  0
  -13.7501   -0.0778   -2.3199 H   0  0  0  0  0  0  0  0  0  0  0  0
  -11.7763   11.9048    2.0494 H   0  0  0  0  0  0  0  0  0  0  0  0
  -12.6511   -4.9235   -3.0675 H   0  0  0  0  0  0  0  0  0  0  0  0
  -13.3845   -3.7442   -2.0002 H   0  0  0  0  0  0  0  0  0  0  0  0
  -13.8049   -1.4756   -4.2151 H   0  0  0  0  0  0  0  0  0  0  0  0
  -12.2336   -0.7666   -4.1209 H   0  0  0  0  0  0  0  0  0  0  0  0
  -11.9993   -3.1387   -4.6838 H   0  0  0  0  0  0  0  0  0  0  0  0
  -11.3036   -2.8758   -3.1022 H   0  0  0  0  0  0  0  0  0  0  0  0
  -11.0468   13.3733    6.0118 H   0  0  0  0  0  0  0  0  0  0  0  0
  -11.8328   13.7649    3.6842 H   0  0  0  0  0  0  0  0  0  0  0  0
  2  1  1  0  0  0  0
  3  1  1  0  0  0  0
  3 55  1  0  0  0  0
  4  6  1  0  0  0  0
  6 30  1  0  0  0  0
  7  5  1  0  0  0  0
  8 15  1  0  0  0  0
  9  2  1  0  0  0  0
  9 56  1  0  0  0  0
  9 57  1  0  0  0  0
 10  4  1  0  0  0  0
 10 58  1  0  0  0  0
 11  8  1  0  0  0  0
 11 59  1  0  0  0  0
 12 17  1  0  0  0  0
 12 16  2  0  0  0  0
 13 34  1  0  0  0  0
 13 35  1  0  0  0  0
 14  9  1  0  0  0  0
 15 10  1  0  0  0  0
 15 25  1  0  0  0  0
 15 60  1  1  0  0  0
 16 24  1  0  0  0  0
 17 23  2  0  0  0  0
 18  3  1  0  0  0  0
 18 14  2  0  0  0  0
 19 48  1  0  0  0  0
 19 61  1  1  0  0  0
 19 11  1  0  0  0  0
 19  5  1  0  0  0  0
 20  2  1  0  0  0  0
 20 62  1  0  0  0  0
 21 25  1  0  0  0  0
 22  1  2  0  0  0  0
 23 21  1  0  0  0  0
 23 63  1  0  0  0  0
 24 21  2  0  0  0  0
 24 64  1  0  0  0  0
 25 65  1  0  0  0  0
 25 66  1  0  0  0  0
 26 20  1  0  0  0  0
 26 67  1  0  0  0  0
 26 68  1  0  0  0  0
 27 20  1  0  0  0  0
 27 69  1  0  0  0  0
 27 70  1  0  0  0  0
 28 13  1  0  0  0  0
 29 26  1  0  0  0  0
 29  6  1  0  0  0  0
 29 71  1  0  0  0  0
 29 72  1  0  0  0  0
 30 27  1  0  0  0  0
 30 73  1  0  0  0  0
 30 74  1  0  0  0  0
 31  4  2  0  0  0  0
 32  7  1  0  0  0  0
 32 75  1  0  0  0  0
 32 76  1  0  0  0  0
 33  7  1  0  0  0  0
 33 77  1  0  0  0  0
 33 78  1  0  0  0  0
 34 33  1  0  0  0  0
 34 79  1  0  0  0  0
 34 80  1  0  0  0  0
 35 32  1  0  0  0  0
 35 81  1  0  0  0  0
 35 82  1  0  0  0  0
 36  5  2  0  0  0  0
 37  8  2  0  0  0  0
 38 47  1  0  0  0  0
 39 16  1  0  0  0  0
 40 17  1  0  0  0  0
 41 12  1  0  0  0  0
 41 83  1  0  0  0  0
 42 28  1  0  0  0  0
 42 84  1  0  0  0  0
 43 28  2  0  0  0  0
 43 85  1  0  0  0  0
 44 50  1  0  0  0  0
 44 86  1  0  0  0  0
 44 87  1  0  0  0  0
 45 14  1  0  0  0  0
 45 88  1  0  0  0  0
 46 43  1  0  0  0  0
 46 38  2  0  0  0  0
 46 89  1  0  0  0  0
 47 42  2  0  0  0  0
 47 90  1  0  0  0  0
 48 91  1  0  0  0  0
 48 92  1  0  0  0  0
 49 18  1  0  0  0  0
 49 93  1  0  0  0  0
 50 52  1  0  0  0  0
 50 94  1  0  0  0  0
 50 95  1  0  0  0  0
 51 48  1  0  0  0  0
 51 96  1  0  0  0  0
 51 97  1  0  0  0  0
 52 51  1  0  0  0  0
 52 98  1  0  0  0  0
 52 99  1  0  0  0  0
 53 45  2  0  0  0  0
 53100  1  0  0  0  0
 54 49  2  0  0  0  0
 54 53  1  0  0  0  0
 54101  1  0  0  0  0
M  END
>  <DRUGBANK_ID>
DB04869

>  <COMMON_NAME>
Olcegepant

>  <CAS_NUMBER>
204697-65-4

>  <UNII>
WOA5J8TX6M

>  <SYNONYMS>
Olcegepant

$$$$
