
 OpenBabel10282417183D

 25 25  0  0  0  0  0  0  0  0999 V2000
    0.9233    0.0122    0.0597 O   0  0  0  0  0  0  0  0  0  0  0  0
    1.7935    4.5249   -4.4033 O   0  0  0  0  0  0  0  0  0  0  0  0
    2.4701    1.9857    1.5212 N   0  0  0  0  0  0  0  0  0  0  0  0
    0.4762    1.3723    0.1428 C   0  0  3  0  0  0  0  0  0  0  0  0
    0.9953    1.9632    1.4799 C   0  0  0  0  0  0  0  0  0  0  0  0
    2.9448    2.6247    2.7364 C   0  0  0  0  0  0  0  0  0  0  0  0
    1.5317    3.7345   -3.3238 C   0  0  0  0  0  0  0  0  0  0  0  0
    0.8908    2.1837   -1.0772 C   0  0  0  0  0  0  0  0  0  0  0  0
    1.7534    2.3604   -3.3507 C   0  0  0  0  0  0  0  0  0  0  0  0
    1.0204    4.3474   -2.1942 C   0  0  0  0  0  0  0  0  0  0  0  0
    1.4299    1.5889   -2.2284 C   0  0  0  0  0  0  0  0  0  0  0  0
    0.6942    3.5777   -1.0800 C   0  0  0  0  0  0  0  0  0  0  0  0
    1.8901    0.0681   -0.0237 H   0  0  0  0  0  0  0  0  0  0  0  0
    2.0850    3.9606   -5.1355 H   0  0  0  0  0  0  0  0  0  0  0  0
    2.8224    1.0317    1.4929 H   0  0  0  0  0  0  0  0  0  0  0  0
   -0.6196    1.3393    0.1657 H   0  0  0  0  0  0  0  0  0  0  0  0
    0.5994    2.9750    1.6243 H   0  0  0  0  0  0  0  0  0  0  0  0
    0.6255    1.3467    2.3079 H   0  0  0  0  0  0  0  0  0  0  0  0
    2.6120    2.0764    3.6224 H   0  0  0  0  0  0  0  0  0  0  0  0
    4.0385    2.6366    2.7313 H   0  0  0  0  0  0  0  0  0  0  0  0
    2.6011    3.6618    2.7994 H   0  0  0  0  0  0  0  0  0  0  0  0
    2.1654    1.8729   -4.2267 H   0  0  0  0  0  0  0  0  0  0  0  0
    0.8638    5.4225   -2.1755 H   0  0  0  0  0  0  0  0  0  0  0  0
    1.5992    0.5143   -2.2699 H   0  0  0  0  0  0  0  0  0  0  0  0
    0.2853    4.0861   -0.2124 H   0  0  0  0  0  0  0  0  0  0  0  0
  1  4  1  0  0  0  0
  1 13  1  0  0  0  0
  2  7  1  0  0  0  0
  2 14  1  0  0  0  0
  3  5  1  0  0  0  0
  3  6  1  0  0  0  0
  3 15  1  0  0  0  0
  4  5  1  0  0  0  0
  4  8  1  0  0  0  0
  4 16  1  0  0  0  0
  5 17  1  0  0  0  0
  5 18  1  0  0  0  0
  6 19  1  0  0  0  0
  6 20  1  0  0  0  0
  6 21  1  0  0  0  0
  7  9  1  0  0  0  0
  7 10  2  0  0  0  0
  8 11  1  0  0  0  0
  8 12  2  0  0  0  0
  9 11  2  0  0  0  0
  9 22  1  0  0  0  0
 10 12  1  0  0  0  0
 10 23  1  0  0  0  0
 11 24  1  0  0  0  0
 12 25  1  0  0  0  0
M  END
>  <DRUGBANK_ID>
DB09203

>  <COMMON_NAME>
Synephrine

>  <CAS_NUMBER>
94-07-5

>  <UNII>
PEG5DP7434

>  <SYNONYMS>
(Â±)-Synephrine; Oxedrine; p-synephrine

$$$$
