
 OpenBabel10282417153D

 59 61  0  0  1  0  0  0  0  0999 V2000
    1.0481   -0.2304   -0.1639 O   0  0  0  0  0  0  0  0  0  0  0  0
    2.3619    2.4156    0.3508 N   0  0  0  0  0  0  0  0  0  0  0  0
   -3.6257   -4.1848    2.0853 C   0  0  3  0  0  0  0  0  0  0  0  0
   -2.1144   -4.5176    1.6902 C   0  0  3  0  0  0  0  0  0  0  0  0
   -4.4809   -3.4645    0.9369 C   0  0  0  0  0  0  0  0  0  0  0  0
   -4.3120   -5.3885    2.8034 C   0  0  0  0  0  0  0  0  0  0  0  0
   -1.2984   -3.2757    1.3466 C   0  0  0  0  0  0  0  0  0  0  0  0
   -1.9340   -5.6318    0.6264 C   0  0  0  0  0  0  0  0  0  0  0  0
   -4.6054   -4.0754   -0.4717 C   0  0  0  0  0  0  0  0  0  0  0  0
   -0.2176   -2.8484    2.1363 C   0  0  0  0  0  0  0  0  0  0  0  0
   -1.5490   -2.6022    0.1501 C   0  0  0  0  0  0  0  0  0  0  0  0
   -3.7754   -6.6961    2.7546 C   0  0  0  0  0  0  0  0  0  0  0  0
   -5.4939   -5.2597    3.5264 C   0  0  0  0  0  0  0  0  0  0  0  0
   -0.6863   -6.1116    0.2193 C   0  0  0  0  0  0  0  0  0  0  0  0
   -3.0392   -6.3306    0.1044 C   0  0  0  0  0  0  0  0  0  0  0  0
    0.6206   -1.8177    1.6843 C   0  0  0  0  0  0  0  0  0  0  0  0
   -0.7443   -1.5779   -0.2844 C   0  0  0  0  0  0  0  0  0  0  0  0
    0.3615   -1.2138    0.4559 C   0  0  0  0  0  0  0  0  0  0  0  0
   -4.5145   -7.8353    3.0195 C   0  0  0  0  0  0  0  0  0  0  0  0
   -6.1139   -6.4052    4.0618 C   0  0  0  0  0  0  0  0  0  0  0  0
   -0.6274   -7.1667   -0.7030 C   0  0  0  0  0  0  0  0  0  0  0  0
   -3.0139   -7.3453   -0.8106 C   0  0  0  0  0  0  0  0  0  0  0  0
   -5.6794   -7.6911    3.7279 C   0  0  0  0  0  0  0  0  0  0  0  0
   -1.7714   -7.7648   -1.2445 C   0  0  0  0  0  0  0  0  0  0  0  0
    2.4356   -0.1078    0.0747 C   0  0  0  0  0  0  0  0  0  0  0  0
    2.8486    1.2722   -0.4622 C   0  0  0  0  0  0  0  0  0  0  0  0
    2.8821    3.6677   -0.2002 C   0  0  0  0  0  0  0  0  0  0  0  0
    0.8945    2.4959    0.3827 C   0  0  0  0  0  0  0  0  0  0  0  0
   -3.5639   -3.4161    2.8759 H   0  0  0  0  0  0  0  0  0  0  0  0
   -1.6661   -4.9164    2.6168 H   0  0  0  0  0  0  0  0  0  0  0  0
   -5.4990   -3.2807    1.2925 H   0  0  0  0  0  0  0  0  0  0  0  0
   -4.0616   -2.4598    0.7936 H   0  0  0  0  0  0  0  0  0  0  0  0
   -5.2407   -4.9651   -0.4575 H   0  0  0  0  0  0  0  0  0  0  0  0
   -5.0553   -3.4035   -1.2052 H   0  0  0  0  0  0  0  0  0  0  0  0
   -3.6383   -4.3188   -0.9183 H   0  0  0  0  0  0  0  0  0  0  0  0
    0.0060   -3.3350    3.0850 H   0  0  0  0  0  0  0  0  0  0  0  0
   -2.3499   -2.8797   -0.5122 H   0  0  0  0  0  0  0  0  0  0  0  0
   -2.7809   -6.9107    2.3843 H   0  0  0  0  0  0  0  0  0  0  0  0
   -5.9302   -4.2822    3.7125 H   0  0  0  0  0  0  0  0  0  0  0  0
    0.2273   -5.6913    0.6284 H   0  0  0  0  0  0  0  0  0  0  0  0
   -4.0400   -6.1275    0.4766 H   0  0  0  0  0  0  0  0  0  0  0  0
    1.4568   -1.5140    2.3057 H   0  0  0  0  0  0  0  0  0  0  0  0
   -0.9536   -1.0989   -1.2358 H   0  0  0  0  0  0  0  0  0  0  0  0
   -4.1382   -8.8009    2.6896 H   0  0  0  0  0  0  0  0  0  0  0  0
   -6.9551   -6.3014    4.7384 H   0  0  0  0  0  0  0  0  0  0  0  0
    0.3443   -7.5548   -1.0068 H   0  0  0  0  0  0  0  0  0  0  0  0
   -3.9477   -7.7905   -1.1297 H   0  0  0  0  0  0  0  0  0  0  0  0
   -6.2083   -8.5798    4.0524 H   0  0  0  0  0  0  0  0  0  0  0  0
   -1.7261   -8.5619   -1.9667 H   0  0  0  0  0  0  0  0  0  0  0  0
    2.7087   -0.2006    1.1288 H   0  0  0  0  0  0  0  0  0  0  0  0
    2.9367   -0.8929   -0.5035 H   0  0  0  0  0  0  0  0  0  0  0  0
    3.9447    1.2913   -0.4801 H   0  0  0  0  0  0  0  0  0  0  0  0
    2.4980    1.3771   -1.4987 H   0  0  0  0  0  0  0  0  0  0  0  0
    2.5401    3.8366   -1.2280 H   0  0  0  0  0  0  0  0  0  0  0  0
    2.5569    4.5146    0.4140 H   0  0  0  0  0  0  0  0  0  0  0  0
    3.9764    3.6709   -0.1899 H   0  0  0  0  0  0  0  0  0  0  0  0
    0.4633    2.5366   -0.6251 H   0  0  0  0  0  0  0  0  0  0  0  0
    0.4494    1.6628    0.9310 H   0  0  0  0  0  0  0  0  0  0  0  0
    0.5659    3.3833    0.9338 H   0  0  0  0  0  0  0  0  0  0  0  0
  1 18  1  0  0  0  0
  1 25  1  0  0  0  0
  2 26  1  0  0  0  0
  2 27  1  0  0  0  0
  2 28  1  0  0  0  0
  3  4  1  0  0  0  0
  3  5  1  0  0  0  0
  3  6  1  0  0  0  0
  3 29  1  0  0  0  0
  4  7  1  0  0  0  0
  4  8  1  0  0  0  0
  4 30  1  0  0  0  0
  5  9  1  0  0  0  0
  5 31  1  0  0  0  0
  5 32  1  0  0  0  0
  6 12  2  0  0  0  0
  6 13  1  0  0  0  0
  7 10  2  0  0  0  0
  7 11  1  0  0  0  0
  8 14  2  0  0  0  0
  8 15  1  0  0  0  0
  9 33  1  0  0  0  0
  9 34  1  0  0  0  0
  9 35  1  0  0  0  0
 10 16  1  0  0  0  0
 10 36  1  0  0  0  0
 11 17  2  0  0  0  0
 11 37  1  0  0  0  0
 12 19  1  0  0  0  0
 12 38  1  0  0  0  0
 13 20  2  0  0  0  0
 13 39  1  0  0  0  0
 14 21  1  0  0  0  0
 14 40  1  0  0  0  0
 15 22  2  0  0  0  0
 15 41  1  0  0  0  0
 16 18  2  0  0  0  0
 16 42  1  0  0  0  0
 17 18  1  0  0  0  0
 17 43  1  0  0  0  0
 19 23  2  0  0  0  0
 19 44  1  0  0  0  0
 20 23  1  0  0  0  0
 20 45  1  0  0  0  0
 21 24  2  0  0  0  0
 21 46  1  0  0  0  0
 22 24  1  0  0  0  0
 22 47  1  0  0  0  0
 23 48  1  0  0  0  0
 24 49  1  0  0  0  0
 25 26  1  0  0  0  0
 25 50  1  0  0  0  0
 25 51  1  0  0  0  0
 26 52  1  0  0  0  0
 26 53  1  0  0  0  0
 27 54  1  0  0  0  0
 27 55  1  0  0  0  0
 27 56  1  0  0  0  0
 28 57  1  0  0  0  0
 28 58  1  0  0  0  0
 28 59  1  0  0  0  0
M  END
>  <DRUGBANK_ID>
DB05462

>  <COMMON_NAME>
Chlorotoxin I-131

>  <UNII>
544WOQ7W6W

>  <SYNONYMS>
I(131)-TM-601 (chlorotoxin)

$$$$
