
 OpenBabel10282417103D

 23 24  0  0  0  0  0  0  0  0999 V2000
    1.1233    0.1923    0.0137 C   0  0  0  0  0  0  0  0  0  0  0  0
    0.8105   -1.1722    0.0087 N   0  0  0  0  0  0  0  0  0  0  0  0
    1.6805   -2.2453   -0.0346 N   0  0  0  0  0  0  0  0  0  0  0  0
    2.9648   -2.0531    0.0703 C   0  0  0  0  0  0  0  0  0  0  0  0
    3.8761   -3.1760   -0.0121 C   0  0  0  0  0  0  0  0  0  0  0  0
    5.0257   -3.2283    0.7594 O   0  0  0  0  0  0  0  0  0  0  0  0
    5.6221   -4.4271    0.4606 C   0  0  0  0  0  0  0  0  0  0  0  0
    4.9238   -5.1087   -0.5057 C   0  0  0  0  0  0  0  0  0  0  0  0
    3.8042   -4.3055   -0.8066 C   0  0  0  0  0  0  0  0  0  0  0  0
    6.8212   -4.8090    1.1516 N   0  3  0  0  0  0  0  0  0  0  0  0
    7.2835   -4.0444    2.0053 O   0  5  0  0  0  0  0  0  0  0  0  0
    7.3009   -5.9076    0.8293 O   0  0  0  0  0  0  0  0  0  0  0  0
   -0.6310   -1.3745    0.0171 C   0  0  0  0  0  0  0  0  0  0  0  0
   -1.1118    0.0675    0.0147 C   0  0  0  0  0  0  0  0  0  0  0  0
   -0.0365    0.8938    0.0533 N   0  0  0  0  0  0  0  0  0  0  0  0
    2.2250    0.7259   -0.0256 O   0  0  0  0  0  0  0  0  0  0  0  0
   -2.2740    0.4417   -0.0131 O   0  0  0  0  0  0  0  0  0  0  0  0
    3.4431   -1.0733    0.2005 H   0  0  0  0  0  0  0  0  0  0  0  0
    5.1919   -6.0673   -0.9265 H   0  0  0  0  0  0  0  0  0  0  0  0
    3.0249   -4.5006   -1.5290 H   0  0  0  0  0  0  0  0  0  0  0  0
   -0.9681   -1.8934   -0.8835 H   0  0  0  0  0  0  0  0  0  0  0  0
   -0.9478   -1.8728    0.9367 H   0  0  0  0  0  0  0  0  0  0  0  0
   -0.0785    1.8984    0.0543 H   0  0  0  0  0  0  0  0  0  0  0  0
  1  2  1  0  0  0  0
  1 15  1  0  0  0  0
  1 16  2  0  0  0  0
  2  3  1  0  0  0  0
  2 13  1  0  0  0  0
  3  4  2  0  0  0  0
  4  5  1  0  0  0  0
  4 18  1  0  0  0  0
  5  6  1  0  0  0  0
  5  9  2  0  0  0  0
  6  7  1  0  0  0  0
  7  8  2  0  0  0  0
  7 10  1  0  0  0  0
  8  9  1  0  0  0  0
  8 19  1  0  0  0  0
  9 20  1  0  0  0  0
 10 11  1  0  0  0  0
 10 12  2  0  0  0  0
 13 14  1  0  0  0  0
 13 21  1  0  0  0  0
 13 22  1  0  0  0  0
 14 15  1  0  0  0  0
 14 17  2  0  0  0  0
 15 23  1  0  0  0  0
M  CHG  2  10   1  11  -1
M  END
>  <DRUGBANK_ID>
DB00698

>  <SECONDARY_ACCESSION_NUMBERS>
APRD00191

>  <COMMON_NAME>
Nitrofurantoin

>  <CAS_NUMBER>
67-20-9

>  <UNII>
927AH8112L

>  <SYNONYMS>
1-((5-nitro-2-furanyl)methylene)amino-2,4-imidazolidenedione; 1-((5-nitrofurfurylidene)amino)hydantoin; 5-Nitrofurantoin; N-(5-Nitrofurfurylidene)-1-aminohydantoin; Nitrofurantoin; Nitrofurantoin anhydrous; Nitrofurantoin macrocrystal; Nitrofurantoin macrocrystalline; Nitrofurantoin, macrocrystalline; Nitrofurantoin, macrocrystals; nitrofurantoina; nitrofurantoine; nitrofurantoinum; Nitrofurantoinum anhydrous

$$$$
