P2N
 OpenBabel10282417173D

 42 43  0  0  0  0  0  0  0  0999 V2000
   -0.8530   -3.8855    1.8847 C   0  0  0  0  0  0  0  0  0  0  0  0
   -1.9417   -6.0171    2.1934 C   0  0  0  0  0  0  0  0  0  0  0  0
   -2.5286   -7.9028    2.7165 C   0  0  0  0  0  0  0  0  0  0  0  0
   -3.4477   -9.6152    2.3807 C   0  0  0  0  0  0  0  0  0  0  0  0
   -3.8253   -9.4886    1.1328 C   0  0  0  0  0  0  0  0  0  0  0  0
   -4.1340   -8.1452    1.2551 C   0  0  0  0  0  0  0  0  0  0  0  0
   -3.4832   -6.8403    2.2159 C   0  0  0  0  0  0  0  0  0  0  0  0
   -4.5421   -6.5790    3.4850 C   0  0  0  0  0  0  0  0  0  0  0  0
   -3.7458   -5.4118    3.3860 C   0  0  0  0  0  0  0  0  0  0  0  0
   -4.1768   -4.5538    2.0775 C   0  0  0  0  0  0  0  0  0  0  0  0
   -3.7943   -3.2613    2.5978 C   0  0  0  0  0  0  0  0  0  0  0  0
   -2.4034   -3.2780    2.6131 C   0  0  0  0  0  0  0  0  0  0  0  0
   -2.1594   -3.7960    0.6549 C   0  0  0  0  0  0  0  0  0  0  0  0
   -2.3326   -2.5791   -0.1450 C   0  0  0  0  0  0  0  0  0  0  0  0
   -1.4034   -1.8579   -0.8249 C   0  0  0  0  0  0  0  0  0  0  0  0
   -1.7156   -0.5379   -1.2251 C   0  0  0  0  0  0  0  0  0  0  0  0
   -0.9567   -0.1508    0.0929 C   0  0  0  0  0  0  0  0  0  0  0  0
   -1.0216   -1.9406    1.2757 O   0  0  0  0  0  0  0  0  0  0  0  0
    0.2110   -3.1733    1.4278 O   0  0  0  0  0  0  0  0  0  0  0  0
   -3.9651   -8.9729    3.6904 O   0  0  0  0  0  0  0  0  0  0  0  0
   -3.1299   -9.9069    0.0415 O   0  0  0  0  0  0  0  0  0  0  0  0
   -3.3687   -7.1445    0.0797 Cl  0  0  0  0  0  0  0  0  0  0  0  0
   -2.6580   -5.5256    4.0229 O   0  0  0  0  0  0  0  0  0  0  0  0
   -3.8318  -10.9887    2.0018 H   0  0  0  0  0  0  0  0  0  0  0  0
   -4.4078   -6.7321    4.5831 H   0  0  0  0  0  0  0  0  0  0  0  0
   -5.5947   -6.4101    3.2497 H   0  0  0  0  0  0  0  0  0  0  0  0
   -5.2365   -4.6275    1.9713 H   0  0  0  0  0  0  0  0  0  0  0  0
   -3.8516   -4.7997    1.0271 H   0  0  0  0  0  0  0  0  0  0  0  0
   -4.0190   -3.1596    3.6225 H   0  0  0  0  0  0  0  0  0  0  0  0
   -4.0040   -2.4611    1.9416 H   0  0  0  0  0  0  0  0  0  0  0  0
   -1.8102   -4.0405    3.3128 H   0  0  0  0  0  0  0  0  0  0  0  0
   -1.8031   -2.3659    2.9571 H   0  0  0  0  0  0  0  0  0  0  0  0
   -2.0773   -4.8478    0.3803 H   0  0  0  0  0  0  0  0  0  0  0  0
   -0.8422   -4.4232    0.4027 H   0  0  0  0  0  0  0  0  0  0  0  0
   -3.2635   -2.1212    0.1077 H   0  0  0  0  0  0  0  0  0  0  0  0
   -0.2699   -1.9540   -0.6967 H   0  0  0  0  0  0  0  0  0  0  0  0
   -2.7888   -0.3364   -1.2258 H   0  0  0  0  0  0  0  0  0  0  0  0
   -1.3014   -0.4470   -2.2439 H   0  0  0  0  0  0  0  0  0  0  0  0
   -1.5142    0.8712    0.5557 H   0  0  0  0  0  0  0  0  0  0  0  0
   -1.3239    1.1083   -0.8427 H   0  0  0  0  0  0  0  0  0  0  0  0
   -4.5810  -10.1174    4.1344 H   0  0  0  0  0  0  0  0  0  0  0  0
   -3.0920  -10.8366   -0.2113 H   0  0  0  0  0  0  0  0  0  0  0  0
  1  2  1  0  0  0  0
  1 18  1  0  0  0  0
  1 19  2  0  0  0  0
  2  3  2  0  0  0  0
  2  7  1  0  0  0  0
  3  4  1  0  0  0  0
  3 20  1  0  0  0  0
  4  5  2  0  0  0  0
  4 24  1  0  0  0  0
  5  6  1  0  0  0  0
  5 21  1  0  0  0  0
  6  7  2  0  0  0  0
  6 22  1  0  0  0  0
  7  8  1  0  0  0  0
  8  9  1  0  0  0  0
  8 25  1  0  0  0  0
  8 26  1  0  0  0  0
  9 10  1  0  0  0  0
  9 23  2  0  0  0  0
 10 11  1  0  0  0  0
 10 27  1  0  0  0  0
 10 28  1  0  0  0  0
 11 12  1  0  0  0  0
 11 29  1  0  0  0  0
 11 30  1  0  0  0  0
 12 13  1  0  0  0  0
 12 31  1  0  0  0  0
 12 32  1  0  0  0  0
 13 14  1  0  0  0  0
 13 33  1  0  0  0  0
 13 34  1  0  0  0  0
 14 15  2  0  0  0  0
 14 35  1  0  0  0  0
 15 16  1  0  0  0  0
 15 36  1  0  0  0  0
 16 17  1  0  0  0  0
 16 37  1  0  0  0  0
 16 38  1  0  0  0  0
 17 18  1  0  0  0  0
 17 39  1  0  0  0  0
 17 40  1  0  0  0  0
 20 41  1  0  0  0  0
 21 42  1  0  0  0  0
M  END
>  <DRUGBANK_ID>
DB08346

>  <COMMON_NAME>
(5Z)-13-CHLORO-14,16-DIHYDROXY-3,4,7,8,9,10-HEXAHYDRO-1H-2-BENZOXACYCLOTETRADECINE-1,11(12H)-DIONE

$$$$
