
 OpenBabel10282417183D

111117  0  0  0  0  0  0  0  0999 V2000
    6.1831   -3.6471    3.2303 O   0  0  0  0  0  0  0  0  0  0  0  0
    5.8584   -4.9384    2.6888 C   0  0  2  0  0  0  0  0  0  0  0  0
    6.8616   -5.3579    1.7822 O   0  0  0  0  0  0  0  0  0  0  0  0
    6.5113   -6.3021    0.7487 C   0  0  2  0  0  0  0  0  0  0  0  0
    5.0301   -6.2184    0.1263 C   0  0  2  0  0  0  0  0  0  0  0  0
    3.9350   -6.0551    1.2679 C   0  0  2  0  0  0  0  0  0  0  0  0
    4.4705   -5.0193    2.1156 C   0  0  0  0  0  0  0  0  0  0  0  0
    4.8591   -8.4788   -0.4766 C   0  0  2  0  0  0  0  0  0  0  0  0
    4.6253   -9.6197   -1.2526 O   0  0  0  0  0  0  0  0  0  0  0  0
    4.9334  -10.7746   -0.4227 C   0  0  2  0  0  0  0  0  0  0  0  0
    3.9818  -10.8720    0.7914 C   0  0  0  0  0  0  0  0  0  0  0  0
    4.1308   -9.7608    1.7419 C   0  0  0  0  0  0  0  0  0  0  0  0
    4.0717   -8.6243    0.7923 C   0  0  0  0  0  0  0  0  0  0  0  0
    3.6104   -6.9018    2.3782 O   0  0  0  0  0  0  0  0  0  0  0  0
    6.9542   -7.4528    1.5746 C   0  0  0  0  0  0  0  0  0  0  0  0
    6.3771  -10.7907    0.1317 C   0  0  0  0  0  0  0  0  0  0  0  0
    3.1497  -11.7505    0.9701 O   0  0  0  0  0  0  0  0  0  0  0  0
   13.0481    2.3027    0.6870 C   0  0  0  0  0  0  0  0  0  0  0  0
   13.7886    2.8894   -0.3361 C   0  0  0  0  0  0  0  0  0  0  0  0
   13.1420    3.5501   -1.3826 C   0  0  0  0  0  0  0  0  0  0  0  0
   11.6521    2.3757    0.6582 C   0  0  0  0  0  0  0  0  0  0  0  0
   10.9979    3.0379   -0.3851 C   0  0  0  0  0  0  0  0  0  0  0  0
   10.8884    1.7617    1.7566 C   0  0  0  0  0  0  0  0  0  0  0  0
   11.4597    1.1689    2.6649 O   0  0  0  0  0  0  0  0  0  0  0  0
    9.5249    3.1243   -0.3895 C   0  0  0  0  0  0  0  0  0  0  0  0
    8.8916    3.6763   -1.2843 O   0  0  0  0  0  0  0  0  0  0  0  0
   11.7518    3.6259   -1.4056 C   0  0  0  0  0  0  0  0  0  0  0  0
   11.1291    4.2812   -2.4274 O   0  0  0  0  0  0  0  0  0  0  0  0
    9.4288    1.9220    1.7756 C   0  0  0  0  0  0  0  0  0  0  0  0
    8.7666    2.5737    0.7376 C   0  0  0  0  0  0  0  0  0  0  0  0
    8.7267    1.4644    2.8882 C   0  0  0  0  0  0  0  0  0  0  0  0
    7.3794    2.7338    0.7829 C   0  0  0  0  0  0  0  0  0  0  0  0
    6.6669    3.2692   -0.2626 O   0  0  0  0  0  0  0  0  0  0  0  0
    7.3561    1.7282    3.0115 C   0  0  0  0  0  0  0  0  0  0  0  0
    6.6599    2.3144    1.9107 C   0  0  0  0  0  0  0  0  0  0  0  0
    4.4496    2.0925    3.1776 C   0  0  0  0  0  0  0  0  0  0  0  0
    5.1491    2.2742    1.8221 C   0  0  2  0  0  0  0  0  0  0  0  0
    6.6430    1.1143    4.2330 C   0  0  2  0  0  0  0  0  0  0  0  0
    5.1230    1.0546    4.1083 C   0  0  2  0  0  0  0  0  0  0  0  0
    5.3075   -0.0084    3.3169 O   0  0  0  0  0  0  0  0  0  0  0  0
    4.1914    0.2982    5.1183 C   0  0  0  0  0  0  0  0  0  0  0  0
    2.7275   -0.0355    4.6493 C   0  0  0  0  0  0  0  0  0  0  0  0
    7.2116    1.3584    6.5356 O   0  0  0  0  0  0  0  0  0  0  0  0
    6.7974    1.8491    5.4410 C   0  0  0  0  0  0  0  0  0  0  0  0
    6.2695    3.0535    5.2179 O   0  0  0  0  0  0  0  0  0  0  0  0
    6.1712    3.8521    6.3529 C   0  0  0  0  0  0  0  0  0  0  0  0
    4.8477   -0.0147    0.9013 C   0  0  2  0  0  0  0  0  0  0  0  0
    3.9398   -0.5730    1.9033 O   0  0  0  0  0  0  0  0  0  0  0  0
    4.3719   -1.8132    2.6541 C   0  0  2  0  0  0  0  0  0  0  0  0
    5.9070   -2.3273    2.6385 C   0  0  2  0  0  0  0  0  0  0  0  0
    6.6242   -1.8296    1.2912 C   0  0  2  0  0  0  0  0  0  0  0  0
    6.3230   -0.4122    0.9703 C   0  0  0  0  0  0  0  0  0  0  0  0
    6.5201   -2.3879   -0.0991 N   0  0  0  0  0  0  0  0  0  0  0  0
    3.5162   -2.5794    1.8343 C   0  0  0  0  0  0  0  0  0  0  0  0
    4.6532    1.3920    0.8057 O   0  0  0  0  0  0  0  0  0  0  0  0
    7.0573   -3.6643    0.1220 C   0  0  0  0  0  0  0  0  0  0  0  0
    5.2017   -2.6480   -0.7017 C   0  0  0  0  0  0  0  0  0  0  0  0
    4.6417   -7.1576   -0.9302 O   0  0  0  0  0  0  0  0  0  0  0  0
    5.9293   -5.6251    3.5369 H   0  0  0  0  0  0  0  0  0  0  0  0
    7.2167   -6.2054   -0.0968 H   0  0  0  0  0  0  0  0  0  0  0  0
    4.9848   -5.2927   -0.4660 H   0  0  0  0  0  0  0  0  0  0  0  0
    2.9858   -5.7955    0.7716 H   0  0  0  0  0  0  0  0  0  0  0  0
    3.7405   -4.8702    2.9348 H   0  0  0  0  0  0  0  0  0  0  0  0
    4.4227   -4.3485    1.2924 H   0  0  0  0  0  0  0  0  0  0  0  0
    5.9334   -8.4608   -0.4205 H   0  0  0  0  0  0  0  0  0  0  0  0
    4.7732  -11.6399   -1.0506 H   0  0  0  0  0  0  0  0  0  0  0  0
    5.0947   -9.7628    2.2678 H   0  0  0  0  0  0  0  0  0  0  0  0
    3.3736   -9.6656    2.5273 H   0  0  0  0  0  0  0  0  0  0  0  0
    4.7029   -8.0150    1.3772 H   0  0  0  0  0  0  0  0  0  0  0  0
    3.0372   -8.2590    0.6616 H   0  0  0  0  0  0  0  0  0  0  0  0
    4.4276   -7.0354    2.8973 H   0  0  0  0  0  0  0  0  0  0  0  0
    6.7710   -8.3785    1.1265 H   0  0  0  0  0  0  0  0  0  0  0  0
    8.0265   -7.3848    1.7611 H   0  0  0  0  0  0  0  0  0  0  0  0
    6.4406   -7.4387    2.5334 H   0  0  0  0  0  0  0  0  0  0  0  0
    6.5660  -11.6828    0.7262 H   0  0  0  0  0  0  0  0  0  0  0  0
    7.1292  -10.6143   -0.6380 H   0  0  0  0  0  0  0  0  0  0  0  0
    6.5721  -10.0300    0.8748 H   0  0  0  0  0  0  0  0  0  0  0  0
   13.5577    1.7931    1.5044 H   0  0  0  0  0  0  0  0  0  0  0  0
   14.8736    2.8299   -0.3164 H   0  0  0  0  0  0  0  0  0  0  0  0
   13.7346    4.0008   -2.1723 H   0  0  0  0  0  0  0  0  0  0  0  0
   11.7600    4.6331   -3.0715 H   0  0  0  0  0  0  0  0  0  0  0  0
    9.2312    0.8521    3.6378 H   0  0  0  0  0  0  0  0  0  0  0  0
    7.2946    3.5626   -0.9639 H   0  0  0  0  0  0  0  0  0  0  0  0
    3.4151    1.8191    2.9315 H   0  0  0  0  0  0  0  0  0  0  0  0
    4.4240    3.0392    3.7012 H   0  0  0  0  0  0  0  0  0  0  0  0
    4.8175    3.2497    1.4533 H   0  0  0  0  0  0  0  0  0  0  0  0
    7.0879    0.1007    4.3623 H   0  0  0  0  0  0  0  0  0  0  0  0
    4.4130    0.0270    2.9293 H   0  0  0  0  0  0  0  0  0  0  0  0
    4.6462   -0.6843    5.3616 H   0  0  0  0  0  0  0  0  0  0  0  0
    4.1385    0.8695    6.0328 H   0  0  0  0  0  0  0  0  0  0  0  0
    2.5887   -0.7844    3.8626 H   0  0  0  0  0  0  0  0  0  0  0  0
    2.1595   -0.4597    5.4790 H   0  0  0  0  0  0  0  0  0  0  0  0
    2.2128    0.8370    4.2550 H   0  0  0  0  0  0  0  0  0  0  0  0
    5.5830    3.3405    7.1182 H   0  0  0  0  0  0  0  0  0  0  0  0
    7.1911    4.0612    6.6622 H   0  0  0  0  0  0  0  0  0  0  0  0
    5.6621    4.7588    6.0360 H   0  0  0  0  0  0  0  0  0  0  0  0
    4.4223   -0.3194   -0.0390 H   0  0  0  0  0  0  0  0  0  0  0  0
    3.9941   -1.9593    3.6985 H   0  0  0  0  0  0  0  0  0  0  0  0
    6.4368   -1.7754    3.4484 H   0  0  0  0  0  0  0  0  0  0  0  0
    7.7022   -1.8643    1.5735 H   0  0  0  0  0  0  0  0  0  0  0  0
    6.8704   -0.0724    0.0825 H   0  0  0  0  0  0  0  0  0  0  0  0
    6.8623    0.0479    1.7603 H   0  0  0  0  0  0  0  0  0  0  0  0
    3.8354   -3.3404    2.4276 H   0  0  0  0  0  0  0  0  0  0  0  0
    2.4655   -2.6198    1.6624 H   0  0  0  0  0  0  0  0  0  0  0  0
    3.9461   -2.2901    0.9283 H   0  0  0  0  0  0  0  0  0  0  0  0
    6.3046   -3.9052    0.8364 H   0  0  0  0  0  0  0  0  0  0  0  0
    6.9118   -4.3299   -0.7104 H   0  0  0  0  0  0  0  0  0  0  0  0
    8.0349   -3.7548    0.6045 H   0  0  0  0  0  0  0  0  0  0  0  0
    4.6284   -3.3002   -0.0775 H   0  0  0  0  0  0  0  0  0  0  0  0
    4.6145   -1.7815   -0.9639 H   0  0  0  0  0  0  0  0  0  0  0  0
    5.1450   -3.3068   -1.5654 H   0  0  0  0  0  0  0  0  0  0  0  0
  2 59  1  1  0  0  0
  2  1  1  0  0  0  0
  3  2  1  0  0  0  0
  3  4  1  0  0  0  0
  4  5  1  0  0  0  0
  4 15  1  0  0  0  0
  4 60  1  6  0  0  0
  5  6  1  0  0  0  0
  5 58  1  0  0  0  0
  5 61  1  6  0  0  0
  6  7  1  0  0  0  0
  6 14  1  0  0  0  0
  6 62  1  6  0  0  0
  7  2  1  0  0  0  0
  7 63  1  0  0  0  0
  7 64  1  0  0  0  0
  8 65  1  1  0  0  0
  8 58  1  0  0  0  0
  9  8  1  0  0  0  0
  9 10  1  0  0  0  0
 10 11  1  0  0  0  0
 10 16  1  0  0  0  0
 10 66  1  6  0  0  0
 11 12  1  0  0  0  0
 11 17  2  0  0  0  0
 12 13  1  0  0  0  0
 12 67  1  0  0  0  0
 12 68  1  0  0  0  0
 13  8  1  0  0  0  0
 13 69  1  0  0  0  0
 13 70  1  0  0  0  0
 14 71  1  0  0  0  0
 15 72  1  0  0  0  0
 15 73  1  0  0  0  0
 15 74  1  0  0  0  0
 16 75  1  0  0  0  0
 16 76  1  0  0  0  0
 16 77  1  0  0  0  0
 18 19  2  0  0  0  0
 18 21  1  0  0  0  0
 18 78  1  0  0  0  0
 19 20  1  0  0  0  0
 19 79  1  0  0  0  0
 20 27  2  0  0  0  0
 20 80  1  0  0  0  0
 21 22  2  0  0  0  0
 22 25  1  0  0  0  0
 23 21  1  0  0  0  0
 23 29  1  0  0  0  0
 23 24  2  0  0  0  0
 25 30  1  0  0  0  0
 25 26  2  0  0  0  0
 27 22  1  0  0  0  0
 27 28  1  0  0  0  0
 28 81  1  0  0  0  0
 30 29  2  0  0  0  0
 30 32  1  0  0  0  0
 31 29  1  0  0  0  0
 31 34  2  0  0  0  0
 31 82  1  0  0  0  0
 32 35  2  0  0  0  0
 32 33  1  0  0  0  0
 33 83  1  0  0  0  0
 34 35  1  0  0  0  0
 35 37  1  0  0  0  0
 36 39  1  0  0  0  0
 36 84  1  0  0  0  0
 36 85  1  0  0  0  0
 37 36  1  0  0  0  0
 37 86  1  6  0  0  0
 37 55  1  0  0  0  0
 38 34  1  0  0  0  0
 38 39  1  0  0  0  0
 38 44  1  0  0  0  0
 38 87  1  1  0  0  0
 39 41  1  0  0  0  0
 39 40  1  6  0  0  0
 40 88  1  0  0  0  0
 41 42  1  0  0  0  0
 41 89  1  0  0  0  0
 41 90  1  0  0  0  0
 42 91  1  0  0  0  0
 42 92  1  0  0  0  0
 42 93  1  0  0  0  0
 44 43  2  0  0  0  0
 44 45  1  0  0  0  0
 45 46  1  0  0  0  0
 46 94  1  0  0  0  0
 46 95  1  0  0  0  0
 46 96  1  0  0  0  0
 47 55  1  0  0  0  0
 47 97  1  6  0  0  0
 48 47  1  0  0  0  0
 48 49  1  0  0  0  0
 49 50  1  0  0  0  0
 49 54  1  0  0  0  0
 49 98  1  1  0  0  0
 50 51  1  0  0  0  0
 50 99  1  1  0  0  0
 50  1  1  0  0  0  0
 51 52  1  0  0  0  0
 51 53  1  0  0  0  0
 51100  1  1  0  0  0
 52 47  1  0  0  0  0
 52101  1  0  0  0  0
 52102  1  0  0  0  0
 53 56  1  0  0  0  0
 53 57  1  0  0  0  0
 54103  1  0  0  0  0
 54104  1  0  0  0  0
 54105  1  0  0  0  0
 56106  1  0  0  0  0
 56107  1  0  0  0  0
 56108  1  0  0  0  0
 57109  1  0  0  0  0
 57110  1  0  0  0  0
 57111  1  0  0  0  0
M  END
>  <DRUGBANK_ID>
DB11617

>  <COMMON_NAME>
Aclarubicin

>  <CAS_NUMBER>
57576-44-0

>  <UNII>
74KXF8I502

>  <SYNONYMS>
Aclacinomycin A; Aclarubicin; aclarubicina

$$$$
