
 OpenBabel10282417203D

 62 63  0  0  0  0  0  0  0  0999 V2000
    1.2218    1.1457    0.0427 C   0  0  0  0  0  0  0  0  0  0  0  0
    2.4226    2.0776   -0.0027 C   0  0  0  0  0  0  0  0  0  0  0  0
    1.2760   -0.2591    0.0398 C   0  0  0  0  0  0  0  0  0  0  0  0
   -0.0815    1.7272    0.1148 C   0  0  0  0  0  0  0  0  0  0  0  0
    2.6348    2.7574   -1.3274 C   0  0  0  0  0  0  0  0  0  0  0  0
    0.0858   -0.9891    0.0101 C   0  0  0  0  0  0  0  0  0  0  0  0
    2.3252   -1.1356    0.1343 O   0  0  0  0  0  0  0  0  0  0  0  0
   -1.3012    0.9880    0.0387 C   0  0  0  0  0  0  0  0  0  0  0  0
   -0.2163    3.0570    0.4272 O   0  0  0  0  0  0  0  0  0  0  0  0
    1.8056    3.9669   -1.5553 C   0  0  0  0  0  0  0  0  0  0  0  0
    3.5983    2.5361   -2.2370 C   0  0  0  0  0  0  0  0  0  0  0  0
   -1.1757   -0.3988    0.0060 C   0  0  0  0  0  0  0  0  0  0  0  0
    3.6250   -0.6200    0.0780 C   0  0  0  0  0  0  0  0  0  0  0  0
   -2.5950    1.7807   -0.0014 C   0  0  0  0  0  0  0  0  0  0  0  0
    1.4869    4.3521   -2.9553 C   0  0  0  0  0  0  0  0  0  0  0  0
    1.4808    4.6256   -0.5848 O   0  0  0  0  0  0  0  0  0  0  0  0
    3.7142    3.3330   -3.5231 C   0  0  0  0  0  0  0  0  0  0  0  0
    4.6222    1.6207   -2.0876 O   0  0  0  0  0  0  0  0  0  0  0  0
   -2.1336   -1.3658    0.0456 O   0  0  0  0  0  0  0  0  0  0  0  0
   -3.9662    1.1528    0.0848 C   0  0  0  0  0  0  0  0  0  0  0  0
   -2.5811    3.0043   -0.1596 O   0  0  0  0  0  0  0  0  0  0  0  0
    2.4382    4.0843   -3.8625 C   0  0  0  0  0  0  0  0  0  0  0  0
    0.2261    5.1012   -3.2015 C   0  0  0  0  0  0  0  0  0  0  0  0
    4.8376    4.3573   -3.3205 C   0  0  0  0  0  0  0  0  0  0  0  0
    4.0238    2.3461   -4.6631 C   0  0  0  0  0  0  0  0  0  0  0  0
   -4.6688    1.4833    1.3867 C   0  0  0  0  0  0  0  0  0  0  0  0
    2.3309    4.5210   -5.1681 O   0  0  0  0  0  0  0  0  0  0  0  0
   -0.1226    5.6678   -4.5632 C   0  0  0  0  0  0  0  0  0  0  0  0
   -0.5580    5.2665   -2.2673 O   0  0  0  0  0  0  0  0  0  0  0  0
   -5.0319    2.9501    1.4640 C   0  0  0  0  0  0  0  0  0  0  0  0
   -1.3317    4.9743   -5.1635 C   0  0  0  0  0  0  0  0  0  0  0  0
   -2.5846    5.2794   -4.3683 C   0  0  0  0  0  0  0  0  0  0  0  0
    2.3738    2.7753    0.8412 H   0  0  0  0  0  0  0  0  0  0  0  0
    3.3592    1.6012    0.2165 H   0  0  0  0  0  0  0  0  0  0  0  0
    0.1359   -2.0787    0.0040 H   0  0  0  0  0  0  0  0  0  0  0  0
    0.5537    3.6430    0.3159 H   0  0  0  0  0  0  0  0  0  0  0  0
    3.7164   -0.1278   -0.8833 H   0  0  0  0  0  0  0  0  0  0  0  0
    3.8204   -0.0005    0.9584 H   0  0  0  0  0  0  0  0  0  0  0  0
    4.3848   -1.4000    0.0883 H   0  0  0  0  0  0  0  0  0  0  0  0
    4.7684    1.4040   -1.1563 H   0  0  0  0  0  0  0  0  0  0  0  0
   -2.9724   -1.0832   -0.3186 H   0  0  0  0  0  0  0  0  0  0  0  0
   -4.5255    1.4988   -0.7940 H   0  0  0  0  0  0  0  0  0  0  0  0
   -4.0050    0.0874    0.0197 H   0  0  0  0  0  0  0  0  0  0  0  0
    5.7907    3.8651   -3.1010 H   0  0  0  0  0  0  0  0  0  0  0  0
    4.9721    4.9822   -4.2077 H   0  0  0  0  0  0  0  0  0  0  0  0
    4.6168    5.0267   -2.4762 H   0  0  0  0  0  0  0  0  0  0  0  0
    3.1977    1.6336   -4.7891 H   0  0  0  0  0  0  0  0  0  0  0  0
    4.1791    2.8495   -5.6199 H   0  0  0  0  0  0  0  0  0  0  0  0
    4.9397    1.7785   -4.4778 H   0  0  0  0  0  0  0  0  0  0  0  0
   -5.5847    0.8823    1.4372 H   0  0  0  0  0  0  0  0  0  0  0  0
   -4.0438    1.1922    2.2392 H   0  0  0  0  0  0  0  0  0  0  0  0
    3.1572    4.4271   -5.6660 H   0  0  0  0  0  0  0  0  0  0  0  0
   -0.2665    6.7447   -4.4349 H   0  0  0  0  0  0  0  0  0  0  0  0
    0.6597    5.6019   -5.3022 H   0  0  0  0  0  0  0  0  0  0  0  0
   -5.6038    3.2408    0.5771 H   0  0  0  0  0  0  0  0  0  0  0  0
   -5.6257    3.1499    2.3566 H   0  0  0  0  0  0  0  0  0  0  0  0
   -4.1388    3.5773    1.5193 H   0  0  0  0  0  0  0  0  0  0  0  0
   -1.4562    5.3336   -6.1917 H   0  0  0  0  0  0  0  0  0  0  0  0
   -1.1681    3.8906   -5.2182 H   0  0  0  0  0  0  0  0  0  0  0  0
   -2.7019    6.3619   -4.2571 H   0  0  0  0  0  0  0  0  0  0  0  0
   -3.4645    4.8683   -4.8633 H   0  0  0  0  0  0  0  0  0  0  0  0
   -2.5436    4.8352   -3.3706 H   0  0  0  0  0  0  0  0  0  0  0  0
  1  2  1  0  0  0  0
  1  3  1  0  0  0  0
  1  4  2  0  0  0  0
  2  5  1  0  0  0  0
  2 33  1  0  0  0  0
  2 34  1  0  0  0  0
  3  6  2  0  0  0  0
  3  7  1  0  0  0  0
  4  8  1  0  0  0  0
  4  9  1  0  0  0  0
  5 10  1  0  0  0  0
  5 11  2  0  0  0  0
  6 12  1  0  0  0  0
  6 35  1  0  0  0  0
  7 13  1  0  0  0  0
  8 14  1  0  0  0  0
  8 12  2  0  0  0  0
  9 36  1  0  0  0  0
 10 15  1  0  0  0  0
 10 16  2  0  0  0  0
 11 17  1  0  0  0  0
 11 18  1  0  0  0  0
 12 19  1  0  0  0  0
 13 37  1  0  0  0  0
 13 38  1  0  0  0  0
 13 39  1  0  0  0  0
 14 20  1  0  0  0  0
 14 21  2  0  0  0  0
 15 22  2  0  0  0  0
 15 23  1  0  0  0  0
 17 24  1  0  0  0  0
 17 25  1  0  0  0  0
 17 22  1  0  0  0  0
 18 40  1  0  0  0  0
 19 41  1  0  0  0  0
 20 26  1  0  0  0  0
 20 42  1  0  0  0  0
 20 43  1  0  0  0  0
 22 27  1  0  0  0  0
 23 28  1  0  0  0  0
 23 29  2  0  0  0  0
 24 44  1  0  0  0  0
 24 45  1  0  0  0  0
 24 46  1  0  0  0  0
 25 47  1  0  0  0  0
 25 48  1  0  0  0  0
 25 49  1  0  0  0  0
 26 30  1  0  0  0  0
 26 50  1  0  0  0  0
 26 51  1  0  0  0  0
 27 52  1  0  0  0  0
 28 31  1  0  0  0  0
 28 53  1  0  0  0  0
 28 54  1  0  0  0  0
 30 55  1  0  0  0  0
 30 56  1  0  0  0  0
 30 57  1  0  0  0  0
 31 32  1  0  0  0  0
 31 58  1  0  0  0  0
 31 59  1  0  0  0  0
 32 60  1  0  0  0  0
 32 61  1  0  0  0  0
 32 62  1  0  0  0  0
M  END
>  <DRUGBANK_ID>
DB13567

>  <COMMON_NAME>
Desaspidin

>  <CAS_NUMBER>
114-43-2

>  <UNII>
KV3495SGKS

>  <SYNONYMS>
Desaspidin; Desaspidina; Desaspidine; Desaspidinum; Rosapin

$$$$
