
 OpenBabel10282417193D

 34 36  0  0  1  0  0  0  0  0999 V2000
    2.4642    0.6791   -0.0082 C   0  0  0  0  0  0  0  0  0  0  0  0
    2.4688   -0.7094   -0.0328 C   0  0  0  0  0  0  0  0  0  0  0  0
    1.2617   -1.4015   -0.0643 C   0  0  0  0  0  0  0  0  0  0  0  0
    0.0303   -0.7189   -0.0364 C   0  0  0  0  0  0  0  0  0  0  0  0
    0.0170    0.6966    0.0219 C   0  0  0  0  0  0  0  0  0  0  0  0
    1.2525    1.3730   -0.0068 C   0  0  0  0  0  0  0  0  0  0  0  0
   -1.2950    1.4995    0.1321 C   0  0  1  0  0  0  0  0  0  0  0  0
   -2.4601    0.6411   -0.4130 C   0  0  0  0  0  0  0  0  0  0  0  0
   -2.4645   -0.7353    0.2702 C   0  0  0  0  0  0  0  0  0  0  0  0
   -1.2396   -1.5428   -0.1419 C   0  0  1  0  0  0  0  0  0  0  0  0
   -1.4124   -2.0398   -1.5090 N   0  0  0  0  0  0  0  0  0  0  0  0
   -1.5599    2.0256    1.5609 C   0  0  0  0  0  0  0  0  0  0  0  0
   -0.6408    2.8641    2.1991 C   0  0  0  0  0  0  0  0  0  0  0  0
   -0.7821    3.2099    3.5486 C   0  0  0  0  0  0  0  0  0  0  0  0
   -1.8365    2.6860    4.3000 C   0  0  0  0  0  0  0  0  0  0  0  0
   -2.8024    1.9143    3.6730 C   0  0  0  0  0  0  0  0  0  0  0  0
   -2.7017    1.6555    2.3023 C   0  0  0  0  0  0  0  0  0  0  0  0
   -4.1171    1.1753    4.5193 Cl  0  0  0  0  0  0  0  0  0  0  0  0
   -1.8722    3.0216    5.9912 Cl  0  0  0  0  0  0  0  0  0  0  0  0
    3.4041    1.2244    0.0087 H   0  0  0  0  0  0  0  0  0  0  0  0
    3.4086   -1.2542   -0.0472 H   0  0  0  0  0  0  0  0  0  0  0  0
    1.2734   -2.4888   -0.1242 H   0  0  0  0  0  0  0  0  0  0  0  0
    1.2900    2.4591   -0.0209 H   0  0  0  0  0  0  0  0  0  0  0  0
   -1.2152    2.3768   -0.5267 H   0  0  0  0  0  0  0  0  0  0  0  0
   -2.3529    0.5170   -1.4980 H   0  0  0  0  0  0  0  0  0  0  0  0
   -3.4229    1.1478   -0.2800 H   0  0  0  0  0  0  0  0  0  0  0  0
   -2.4294   -0.6505    1.3617 H   0  0  0  0  0  0  0  0  0  0  0  0
   -3.3973   -1.2678    0.0541 H   0  0  0  0  0  0  0  0  0  0  0  0
   -1.1627   -2.4052    0.5324 H   0  0  0  0  0  0  0  0  0  0  0  0
   -1.2723   -1.2676   -2.1591 H   0  0  0  0  0  0  0  0  0  0  0  0
   -2.3765   -2.3426   -1.6367 H   0  0  0  0  0  0  0  0  0  0  0  0
    0.2312    3.2469    1.6749 H   0  0  0  0  0  0  0  0  0  0  0  0
   -0.0439    3.8545    4.0114 H   0  0  0  0  0  0  0  0  0  0  0  0
   -3.5174    1.1035    1.8511 H   0  0  0  0  0  0  0  0  0  0  0  0
  1  2  2  0  0  0  0
  1  6  1  0  0  0  0
  1 20  1  0  0  0  0
  2  3  1  0  0  0  0
  2 21  1  0  0  0  0
  3  4  2  0  0  0  0
  3 22  1  0  0  0  0
  4  5  1  0  0  0  0
  4 10  1  0  0  0  0
  5  6  2  0  0  0  0
  5  7  1  0  0  0  0
  6 23  1  0  0  0  0
  7  8  1  0  0  0  0
  7 24  1  6  0  0  0
  7 12  1  0  0  0  0
  8  9  1  0  0  0  0
  8 25  1  0  0  0  0
  8 26  1  0  0  0  0
  9 10  1  0  0  0  0
  9 27  1  0  0  0  0
  9 28  1  0  0  0  0
 10 29  1  1  0  0  0
 10 11  1  0  0  0  0
 11 30  1  0  0  0  0
 11 31  1  0  0  0  0
 12 13  2  0  0  0  0
 12 17  1  0  0  0  0
 13 14  1  0  0  0  0
 13 32  1  0  0  0  0
 14 15  2  0  0  0  0
 14 33  1  0  0  0  0
 15 16  1  0  0  0  0
 15 19  1  0  0  0  0
 16 17  2  0  0  0  0
 16 18  1  0  0  0  0
 17 34  1  0  0  0  0
M  END
>  <DRUGBANK_ID>
DB12305

>  <SECONDARY_ACCESSION_NUMBERS>
DB05954

>  <COMMON_NAME>
Dasotraline

>  <CAS_NUMBER>
675126-05-3

>  <UNII>
4D28EY0L5T

>  <SYNONYMS>
Dasotraline

$$$$
