
 OpenBabel10282417203D

112113  0  0  0  0  0  0  0  0999 V2000
    0.9398   -0.0294    0.0351 C   0  0  0  0  0  0  0  0  0  0  0  0
   -0.4887    0.2399   -2.0625 C   0  0  0  0  0  0  0  0  0  0  0  0
    3.1212    6.0146   -1.6088 C   0  0  0  0  0  0  0  0  0  0  0  0
    0.3382    3.4154   -7.1051 C   0  0  0  0  0  0  0  0  0  0  0  0
    2.6797   -1.7335   -3.4900 C   0  0  0  0  0  0  0  0  0  0  0  0
    6.6334    3.4994   -2.1318 C   0  0  0  0  0  0  0  0  0  0  0  0
    4.4070    4.4460   -8.3485 C   0  0  0  0  0  0  0  0  0  0  0  0
    3.8889   -1.8602   -6.8573 C   0  0  0  0  0  0  0  0  0  0  0  0
    6.4152   -2.1866   -8.3642 C   0  0  0  0  0  0  0  0  0  0  0  0
    6.3403   -7.6839   -5.4837 C   0  0  0  0  0  0  0  0  0  0  0  0
    6.7059   -7.2894   -4.1968 C   0  0  0  0  0  0  0  0  0  0  0  0
    1.5783    2.9335   -0.1199 C   0  0  0  0  0  0  0  0  0  0  0  0
    1.3365    5.2811   -4.0010 C   0  0  0  0  0  0  0  0  0  0  0  0
    0.7473    0.9381   -5.4389 C   0  0  0  0  0  0  0  0  0  0  0  0
    4.2474    0.5374   -2.3001 C   0  0  0  0  0  0  0  0  0  0  0  0
    5.3681    4.4346   -4.6842 C   0  0  0  0  0  0  0  0  0  0  0  0
    3.7654    1.5988   -7.9450 C   0  0  0  0  0  0  0  0  0  0  0  0
    0.6238    2.1822   -1.0217 C   0  0  0  0  0  0  0  0  0  0  0  0
    2.8126    3.5951   -0.7765 C   0  0  0  0  0  0  0  0  0  0  0  0
    1.7751    4.4121   -2.8710 C   0  0  0  0  0  0  0  0  0  0  0  0
    1.7243    4.7558   -5.3943 C   0  0  0  0  0  0  0  0  0  0  0  0
    1.2545    2.3085   -5.1569 C   0  0  0  0  0  0  0  0  0  0  0  0
    1.8227   -0.1500   -5.3539 C   0  0  0  0  0  0  0  0  0  0  0  0
    3.3646    0.5829   -3.5011 C   0  0  0  0  0  0  0  0  0  0  0  0
    5.6571    1.1257   -2.5202 C   0  0  0  0  0  0  0  0  0  0  0  0
    5.2701    3.0755   -4.0711 C   0  0  0  0  0  0  0  0  0  0  0  0
    5.8490    4.4118   -6.1523 C   0  0  0  0  0  0  0  0  0  0  0  0
    4.6074    2.4431   -7.0586 C   0  0  0  0  0  0  0  0  0  0  0  0
    4.5376    0.3273   -8.2058 C   0  0  0  0  0  0  0  0  0  0  0  0
    6.1221   -6.7281   -6.4659 C   0  0  0  0  0  0  0  0  0  0  0  0
    6.8209   -5.9349   -3.8846 C   0  0  0  0  0  0  0  0  0  0  0  0
    5.8488   -0.2996   -6.1890 C   0  0  0  0  0  0  0  0  0  0  0  0
    6.4955   -1.2010   -5.2062 C   0  0  0  0  0  0  0  0  0  0  0  0
    0.3689    0.8638   -1.0078 C   0  0  0  0  0  0  0  0  0  0  0  0
    2.5298    4.6698   -1.7975 C   0  0  0  0  0  0  0  0  0  0  0  0
    1.1025    3.4492   -5.8384 C   0  0  0  0  0  0  0  0  0  0  0  0
    2.6227   -0.3703   -4.0773 C   0  0  0  0  0  0  0  0  0  0  0  0
    5.8066    2.5792   -2.9503 C   0  0  0  0  0  0  0  0  0  0  0  0
    4.9455    3.7271   -7.1668 C   0  0  0  0  0  0  0  0  0  0  0  0
    4.7466   -0.5572   -6.9464 C   0  0  0  0  0  0  0  0  0  0  0  0
    6.5848   -3.0000   -7.0517 C   0  0  0  0  0  0  0  0  0  0  0  0
    6.6737   -2.5948   -5.7456 C   0  0  0  0  0  0  0  0  0  0  0  0
    6.3081   -5.3776   -6.1753 C   0  0  0  0  0  0  0  0  0  0  0  0
    6.6222   -4.9763   -4.8843 C   0  0  0  0  0  0  0  0  0  0  0  0
    6.2234   -4.4205   -7.2666 C   0  0  0  0  0  0  0  0  0  0  0  0
    6.7546   -3.5572   -4.6002 C   0  0  0  0  0  0  0  0  0  0  0  0
    5.7655   -4.7962   -8.3639 O   0  0  0  0  0  0  0  0  0  0  0  0
    6.9273   -3.1782   -3.4253 O   0  0  0  0  0  0  0  0  0  0  0  0
    1.3833    3.4203   -2.9252 H   0  0  0  0  0  0  0  0  0  0  0  0
    1.8169    2.3608   -4.2566 H   0  0  0  0  0  0  0  0  0  0  0  0
    3.3239    1.5505   -3.9356 H   0  0  0  0  0  0  0  0  0  0  0  0
    4.6524    2.4213   -4.6360 H   0  0  0  0  0  0  0  0  0  0  0  0
    5.0355    1.8946   -6.2493 H   0  0  0  0  0  0  0  0  0  0  0  0
    6.4702    0.5831   -6.3574 H   0  0  0  0  0  0  0  0  0  0  0  0
    0.5904   -1.0574   -0.0764 H   0  0  0  0  0  0  0  0  0  0  0  0
    0.6062    0.3316    1.0131 H   0  0  0  0  0  0  0  0  0  0  0  0
    2.0320   -0.0283   -0.0049 H   0  0  0  0  0  0  0  0  0  0  0  0
   -1.4246    0.7838   -2.2213 H   0  0  0  0  0  0  0  0  0  0  0  0
    0.0861    0.2455   -2.9780 H   0  0  0  0  0  0  0  0  0  0  0  0
   -0.7169   -0.8113   -1.8735 H   0  0  0  0  0  0  0  0  0  0  0  0
    3.7451    6.2679   -2.4714 H   0  0  0  0  0  0  0  0  0  0  0  0
    2.3047    6.7360   -1.5192 H   0  0  0  0  0  0  0  0  0  0  0  0
    3.7364    6.0686   -0.7103 H   0  0  0  0  0  0  0  0  0  0  0  0
    0.7971    2.6936   -7.7883 H   0  0  0  0  0  0  0  0  0  0  0  0
   -0.6848    3.1042   -6.8758 H   0  0  0  0  0  0  0  0  0  0  0  0
    0.3164    4.3872   -7.5940 H   0  0  0  0  0  0  0  0  0  0  0  0
    3.7214   -2.0741   -3.4487 H   0  0  0  0  0  0  0  0  0  0  0  0
    2.2723   -1.6901   -2.4781 H   0  0  0  0  0  0  0  0  0  0  0  0
    2.1112   -2.4545   -4.0751 H   0  0  0  0  0  0  0  0  0  0  0  0
    7.4516    3.8933   -2.7447 H   0  0  0  0  0  0  0  0  0  0  0  0
    6.0001    4.3289   -1.7997 H   0  0  0  0  0  0  0  0  0  0  0  0
    7.0562    3.0074   -1.2592 H   0  0  0  0  0  0  0  0  0  0  0  0
    4.7723    3.9587   -9.2618 H   0  0  0  0  0  0  0  0  0  0  0  0
    3.3126    4.3762   -8.3333 H   0  0  0  0  0  0  0  0  0  0  0  0
    4.6945    5.4921   -8.3674 H   0  0  0  0  0  0  0  0  0  0  0  0
    4.3719   -2.7790   -7.1701 H   0  0  0  0  0  0  0  0  0  0  0  0
    3.6011   -2.1398   -5.8484 H   0  0  0  0  0  0  0  0  0  0  0  0
    3.0583   -1.8626   -7.5661 H   0  0  0  0  0  0  0  0  0  0  0  0
    5.3938   -1.8650   -8.5501 H   0  0  0  0  0  0  0  0  0  0  0  0
    7.0320   -1.2875   -8.4216 H   0  0  0  0  0  0  0  0  0  0  0  0
    6.4612   -2.7672   -9.2854 H   0  0  0  0  0  0  0  0  0  0  0  0
    6.2493   -8.7361   -5.7360 H   0  0  0  0  0  0  0  0  0  0  0  0
    6.9108   -8.0420   -3.4404 H   0  0  0  0  0  0  0  0  0  0  0  0
    1.0035    3.7099    0.3920 H   0  0  0  0  0  0  0  0  0  0  0  0
    1.9558    2.2606    0.6575 H   0  0  0  0  0  0  0  0  0  0  0  0
    0.2457    5.3635   -3.9458 H   0  0  0  0  0  0  0  0  0  0  0  0
    1.7454    6.2866   -3.8712 H   0  0  0  0  0  0  0  0  0  0  0  0
   -0.0562    0.7232   -4.7457 H   0  0  0  0  0  0  0  0  0  0  0  0
    0.2804    0.8979   -6.4250 H   0  0  0  0  0  0  0  0  0  0  0  0
    3.7435    1.0697   -1.5004 H   0  0  0  0  0  0  0  0  0  0  0  0
    4.3359   -0.4829   -1.9226 H   0  0  0  0  0  0  0  0  0  0  0  0
    4.3956    4.9100   -4.6114 H   0  0  0  0  0  0  0  0  0  0  0  0
    6.0244    5.0799   -4.0996 H   0  0  0  0  0  0  0  0  0  0  0  0
    2.8205    1.3681   -7.4694 H   0  0  0  0  0  0  0  0  0  0  0  0
    3.5097    2.0909   -8.8843 H   0  0  0  0  0  0  0  0  0  0  0  0
    0.0707    2.7703   -1.7499 H   0  0  0  0  0  0  0  0  0  0  0  0
    3.4530    3.9828    0.0258 H   0  0  0  0  0  0  0  0  0  0  0  0
    3.4411    2.8606   -1.2669 H   0  0  0  0  0  0  0  0  0  0  0  0
    1.5042    5.5487   -6.1165 H   0  0  0  0  0  0  0  0  0  0  0  0
    2.7970    4.6234   -5.4661 H   0  0  0  0  0  0  0  0  0  0  0  0
    1.3692   -1.0914   -5.6823 H   0  0  0  0  0  0  0  0  0  0  0  0
    2.5443    0.0789   -6.1238 H   0  0  0  0  0  0  0  0  0  0  0  0
    6.2135    0.9628   -1.5911 H   0  0  0  0  0  0  0  0  0  0  0  0
    6.1818    0.5249   -3.2628 H   0  0  0  0  0  0  0  0  0  0  0  0
    5.9902    5.4520   -6.4597 H   0  0  0  0  0  0  0  0  0  0  0  0
    6.8425    3.9421   -6.1815 H   0  0  0  0  0  0  0  0  0  0  0  0
    4.0317   -0.2327   -8.9980 H   0  0  0  0  0  0  0  0  0  0  0  0
    5.5170    0.6040   -8.6394 H   0  0  0  0  0  0  0  0  0  0  0  0
    5.8436   -7.0299   -7.4738 H   0  0  0  0  0  0  0  0  0  0  0  0
    7.0969   -5.6336   -2.8747 H   0  0  0  0  0  0  0  0  0  0  0  0
    5.8564   -1.1950   -4.3135 H   0  0  0  0  0  0  0  0  0  0  0  0
    7.4689   -0.8005   -4.8853 H   0  0  0  0  0  0  0  0  0  0  0  0
  1 55  1  0  0  0  0
  1 56  1  0  0  0  0
  1 57  1  0  0  0  0
  2 58  1  0  0  0  0
  2 59  1  0  0  0  0
  2 60  1  0  0  0  0
  3 61  1  0  0  0  0
  3 62  1  0  0  0  0
  3 63  1  0  0  0  0
  4 64  1  0  0  0  0
  4 65  1  0  0  0  0
  4 66  1  0  0  0  0
  5 67  1  0  0  0  0
  5 68  1  0  0  0  0
  5 69  1  0  0  0  0
  6 70  1  0  0  0  0
  6 71  1  0  0  0  0
  6 72  1  0  0  0  0
  7 73  1  0  0  0  0
  7 74  1  0  0  0  0
  7 75  1  0  0  0  0
  8 76  1  0  0  0  0
  8 77  1  0  0  0  0
  8 78  1  0  0  0  0
  9 79  1  0  0  0  0
  9 80  1  0  0  0  0
  9 81  1  0  0  0  0
 10 82  1  0  0  0  0
 11 10  2  0  0  0  0
 11 83  1  0  0  0  0
 12 84  1  0  0  0  0
 12 85  1  0  0  0  0
 13 86  1  0  0  0  0
 13 87  1  0  0  0  0
 14 88  1  0  0  0  0
 14 89  1  0  0  0  0
 15 90  1  0  0  0  0
 15 91  1  0  0  0  0
 16 92  1  0  0  0  0
 16 93  1  0  0  0  0
 17 94  1  0  0  0  0
 17 95  1  0  0  0  0
 18 12  1  0  0  0  0
 18 96  1  0  0  0  0
 19 12  1  0  0  0  0
 19 97  1  0  0  0  0
 19 98  1  0  0  0  0
 20 13  1  0  0  0  0
 21 13  1  0  0  0  0
 21 99  1  0  0  0  0
 21100  1  0  0  0  0
 22 14  1  0  0  0  0
 23 14  1  0  0  0  0
 23101  1  0  0  0  0
 23102  1  0  0  0  0
 24 15  1  0  0  0  0
 25 15  1  0  0  0  0
 25103  1  0  0  0  0
 25104  1  0  0  0  0
 26 16  1  0  0  0  0
 27 16  1  0  0  0  0
 27105  1  0  0  0  0
 27106  1  0  0  0  0
 28 17  1  0  0  0  0
 29 17  1  0  0  0  0
 29107  1  0  0  0  0
 29108  1  0  0  0  0
 30 10  1  0  0  0  0
 30109  1  0  0  0  0
 31 11  1  0  0  0  0
 31110  1  0  0  0  0
 33 32  1  0  0  0  0
 33111  1  0  0  0  0
 33112  1  0  0  0  0
 34  1  1  0  0  0  0
 34  2  1  0  0  0  0
 34 18  2  0  0  0  0
 35  3  1  0  0  0  0
 35 19  1  0  0  0  0
 35 20  2  0  0  0  0
 36  4  1  0  0  0  0
 36 21  1  0  0  0  0
 36 22  2  0  0  0  0
 37  5  1  0  0  0  0
 37 23  1  0  0  0  0
 37 24  2  0  0  0  0
 38  6  1  0  0  0  0
 38 25  1  0  0  0  0
 38 26  2  0  0  0  0
 39  7  1  0  0  0  0
 39 27  1  0  0  0  0
 39 28  2  0  0  0  0
 40  8  1  0  0  0  0
 40 29  1  0  0  0  0
 40 32  2  0  0  0  0
 41  9  1  0  0  0  0
 42 33  1  0  0  0  0
 42 41  2  0  0  0  0
 43 30  2  0  0  0  0
 44 31  2  0  0  0  0
 44 43  1  0  0  0  0
 45 41  1  0  0  0  0
 45 43  1  0  0  0  0
 46 42  1  0  0  0  0
 46 44  1  0  0  0  0
 47 45  2  0  0  0  0
 48 46  2  0  0  0  0
 49 20  1  0  0  0  0
 50 22  1  0  0  0  0
 51 24  1  0  0  0  0
 52 26  1  0  0  0  0
 53 28  1  0  0  0  0
 54 32  1  0  0  0  0
M  END
>  <DRUGBANK_ID>
DB13075

>  <COMMON_NAME>
Menaquinone 7

>  <CAS_NUMBER>
2124-57-4

>  <UNII>
8427BML8NY

>  <SYNONYMS>
Menaquinone-7

$$$$
