
 OpenBabel10282417163D

 62 65  0  0  0  0  0  0  0  0999 V2000
   -1.5098    0.0849    0.2254 C   0  0  0  0  0  0  0  0  0  0  0  0
   -0.6961    1.3540    0.4460 C   0  0  0  0  0  0  0  0  0  0  0  0
    0.8037    1.2859    0.0948 C   0  0  0  0  0  0  0  0  0  0  0  0
    1.4991    0.0925    0.6348 N   0  0  0  0  0  0  0  0  0  0  0  0
    0.8028   -1.1666    0.3041 C   0  0  2  0  0  0  0  0  0  0  0  0
   -0.7161   -1.1501    0.6671 C   0  0  0  0  0  0  0  0  0  0  0  0
    1.4577   -2.5472    0.4676 C   0  0  0  0  0  0  0  0  0  0  0  0
    0.7234   -3.6884   -0.3166 C   0  0  0  0  0  0  0  0  0  0  0  0
    0.7902   -3.6521   -1.8271 N   0  0  0  0  0  0  0  0  0  0  0  0
    0.1779   -2.7426   -2.4836 C   0  0  0  0  0  0  0  0  0  0  0  0
    0.1478   -2.5943   -4.0629 C   0  0  3  0  0  0  0  0  0  0  0  0
    0.5025   -1.1936   -4.4440 N   0  0  0  0  0  0  0  0  0  0  0  0
    0.6317   -0.8871   -5.8609 C   0  0  0  0  0  0  0  0  0  0  0  0
   -0.7473   -0.7849   -6.5053 C   0  0  0  0  0  0  0  0  0  0  0  0
   -1.6943    0.2746   -6.1878 N   0  0  0  0  0  0  0  0  0  0  0  0
   -3.1378   -0.0645   -6.3411 C   0  0  0  0  0  0  0  0  0  0  0  0
   -3.6671   -1.4016   -5.7799 C   0  0  0  0  0  0  0  0  0  0  0  0
   -4.7143   -1.4711   -4.8643 C   0  0  0  0  0  0  0  0  0  0  0  0
   -5.1157   -3.0592   -4.3887 S   0  0  0  0  0  0  0  0  0  0  0  0
   -3.8691   -3.7399   -5.3465 C   0  0  0  0  0  0  0  0  0  0  0  0
   -3.4997   -5.1015   -5.4300 C   0  0  0  0  0  0  0  0  0  0  0  0
   -2.3742   -5.4714   -6.1750 C   0  0  0  0  0  0  0  0  0  0  0  0
   -1.7118   -4.5298   -6.9242 C   0  0  0  0  0  0  0  0  0  0  0  0
   -2.2294   -3.2459   -7.0100 C   0  0  0  0  0  0  0  0  0  0  0  0
   -3.2266   -2.7644   -6.1129 C   0  0  0  0  0  0  0  0  0  0  0  0
   -0.2406   -4.8983   -7.7368 Cl  0  0  0  0  0  0  0  0  0  0  0  0
   -0.1857   -0.1137   -3.7337 C   0  0  2  0  0  0  0  0  0  0  0  0
    0.1320   -0.3655   -2.3437 C   0  0  0  0  0  0  0  0  0  0  0  0
   -0.4471   -1.6719   -1.8993 N   0  0  0  0  0  0  0  0  0  0  0  0
   -1.9782   -0.0672   -3.5299 Cl  0  0  0  0  0  0  0  0  0  0  0  0
    0.1859    0.8827   -4.0141 H   0  0  0  0  0  0  0  0  0  0  0  0
    0.9894   -3.5235   -4.6916 O   0  0  0  0  0  0  0  0  0  0  0  0
    1.0601   -1.1564   -0.7172 H   0  0  0  0  0  0  0  0  0  0  0  0
   -2.4676    0.1248    0.7566 H   0  0  0  0  0  0  0  0  0  0  0  0
   -1.8756    0.0231   -0.8039 H   0  0  0  0  0  0  0  0  0  0  0  0
   -1.1727    2.1798   -0.0999 H   0  0  0  0  0  0  0  0  0  0  0  0
   -0.7631    1.5752    1.5106 H   0  0  0  0  0  0  0  0  0  0  0  0
    0.9857    1.4232   -0.9814 H   0  0  0  0  0  0  0  0  0  0  0  0
    1.2946    2.1811    0.4818 H   0  0  0  0  0  0  0  0  0  0  0  0
    2.4102    0.0509    0.1625 H   0  0  0  0  0  0  0  0  0  0  0  0
   -0.7947   -1.2295    1.7503 H   0  0  0  0  0  0  0  0  0  0  0  0
   -1.2613   -2.0244    0.2869 H   0  0  0  0  0  0  0  0  0  0  0  0
    2.4877   -2.5063    0.0861 H   0  0  0  0  0  0  0  0  0  0  0  0
    1.5050   -2.7707    1.5350 H   0  0  0  0  0  0  0  0  0  0  0  0
    1.2160   -4.6227   -0.0206 H   0  0  0  0  0  0  0  0  0  0  0  0
   -0.3136   -3.8143    0.0156 H   0  0  0  0  0  0  0  0  0  0  0  0
   -0.8870   -2.8123   -4.3361 H   0  0  0  0  0  0  0  0  0  0  0  0
    1.2134    0.0278   -6.0174 H   0  0  0  0  0  0  0  0  0  0  0  0
    1.2056   -1.6892   -6.3447 H   0  0  0  0  0  0  0  0  0  0  0  0
   -0.6584   -0.8734   -7.5829 H   0  0  0  0  0  0  0  0  0  0  0  0
   -1.1608   -1.6521   -6.0424 H   0  0  0  0  0  0  0  0  0  0  0  0
   -1.6335    0.4398   -5.1903 H   0  0  0  0  0  0  0  0  0  0  0  0
   -3.6478    0.7323   -5.7682 H   0  0  0  0  0  0  0  0  0  0  0  0
   -3.4164    0.0627   -7.3796 H   0  0  0  0  0  0  0  0  0  0  0  0
   -5.2833   -0.6583   -4.4288 H   0  0  0  0  0  0  0  0  0  0  0  0
   -4.0618   -5.8563   -4.8905 H   0  0  0  0  0  0  0  0  0  0  0  0
   -2.0369   -6.5023   -6.1889 H   0  0  0  0  0  0  0  0  0  0  0  0
   -1.7362   -2.5698   -7.6951 H   0  0  0  0  0  0  0  0  0  0  0  0
    1.2235   -0.2947   -2.2555 H   0  0  0  0  0  0  0  0  0  0  0  0
   -0.3228    0.4565   -1.8181 H   0  0  0  0  0  0  0  0  0  0  0  0
   -1.4616   -1.6974   -1.9611 H   0  0  0  0  0  0  0  0  0  0  0  0
    1.7886   -3.5520   -4.1387 H   0  0  0  0  0  0  0  0  0  0  0  0
  1  2  1  0  0  0  0
  1  6  1  0  0  0  0
  1 34  1  0  0  0  0
  1 35  1  0  0  0  0
  2  3  1  0  0  0  0
  2 36  1  0  0  0  0
  2 37  1  0  0  0  0
  3  4  1  0  0  0  0
  3 38  1  0  0  0  0
  3 39  1  0  0  0  0
  4  5  1  0  0  0  0
  4 40  1  0  0  0  0
  5  6  1  0  0  0  0
  5  7  1  0  0  0  0
  5 33  1  6  0  0  0
  6 41  1  0  0  0  0
  6 42  1  0  0  0  0
  7  8  1  0  0  0  0
  7 43  1  0  0  0  0
  7 44  1  0  0  0  0
  8  9  1  0  0  0  0
  8 45  1  0  0  0  0
  8 46  1  0  0  0  0
  9 10  2  0  0  0  0
 10 11  1  0  0  0  0
 10 29  1  0  0  0  0
 11 12  1  0  0  0  0
 11 32  1  0  0  0  0
 11 47  1  0  0  0  0
 12 13  1  0  0  0  0
 12 27  1  0  0  0  0
 13 14  1  0  0  0  0
 13 48  1  0  0  0  0
 13 49  1  0  0  0  0
 14 15  1  0  0  0  0
 14 50  1  0  0  0  0
 14 51  1  0  0  0  0
 15 16  1  0  0  0  0
 15 52  1  0  0  0  0
 16 17  1  0  0  0  0
 16 53  1  0  0  0  0
 16 54  1  0  0  0  0
 17 18  2  0  0  0  0
 17 25  1  0  0  0  0
 18 19  1  0  0  0  0
 18 55  1  0  0  0  0
 19 20  1  0  0  0  0
 20 21  2  0  0  0  0
 20 25  1  0  0  0  0
 21 22  1  0  0  0  0
 21 56  1  0  0  0  0
 22 23  2  0  0  0  0
 22 57  1  0  0  0  0
 23 24  1  0  0  0  0
 23 26  1  0  0  0  0
 24 25  2  0  0  0  0
 24 58  1  0  0  0  0
 27 28  1  0  0  0  0
 27 31  1  6  0  0  0
 27 30  1  0  0  0  0
 28 29  1  0  0  0  0
 28 59  1  0  0  0  0
 28 60  1  0  0  0  0
 29 61  1  0  0  0  0
 32 62  1  0  0  0  0
M  END
>  <DRUGBANK_ID>
DB07521

>  <COMMON_NAME>
(3Z,6S)-6-Chloro-1-(2-{[(5-chloro-1-benzothiophen-3-yl)methyl]amino}ethyl)-3-({2-[(2R)-2-piperidinyl]ethyl}imino)-2-piperazinol

>  <SYNONYMS>
(3S)-3-Chloro-4-[2-[(5-chloro-1-benzothiophen-3-yl)methylamino]ethyl]-6-[2-[(2R)-piperidin-2-yl]ethylamino]-3,5-dihydro-2H-pyrazin-5-ol

$$$$
