
 OpenBabel10282417213D

 49 52  0  0  1  0  0  0  0  0999 V2000
    2.5606   -2.3483    0.9665 C   0  0  2  0  0  0  0  0  0  0  0  0
    4.5937   -2.6419   -0.3029 C   0  0  1  0  0  0  0  0  0  0  0  0
    6.0597   -2.8954   -0.2392 C   0  0  1  0  0  0  0  0  0  0  0  0
    6.5341   -4.1529    0.5452 C   0  0  2  0  0  0  0  0  0  0  0  0
    8.1041   -3.8383    0.2013 C   0  0  1  0  0  0  0  0  0  0  0  0
    4.0568   -2.4420    1.0602 C   0  0  2  0  0  0  0  0  0  0  0  0
    1.4423   -1.6682    0.3193 C   0  0  0  0  0  0  0  0  0  0  0  0
    0.4540   -2.5489    0.9829 C   0  0  0  0  0  0  0  0  0  0  0  0
    1.0811   -3.9897    1.7656 C   0  0  0  0  0  0  0  0  0  0  0  0
    1.2243   -4.1414    2.9521 O   0  0  0  0  0  0  0  0  0  0  0  0
    1.7078   -4.8859    0.7441 C   0  0  0  0  0  0  0  0  0  0  0  0
    2.0659   -3.7413   -0.1048 C   0  0  0  0  0  0  0  0  0  0  0  0
    1.1314   -3.5645   -0.7119 H   0  0  0  0  0  0  0  0  0  0  0  0
    0.9559   -5.5479    0.3331 H   0  0  0  0  0  0  0  0  0  0  0  0
    2.4239   -1.2830   -1.0483 C   0  0  0  0  0  0  0  0  0  0  0  0
    2.0618   -1.8482   -1.9117 H   0  0  0  0  0  0  0  0  0  0  0  0
    4.0822   -1.4719   -1.1262 C   0  0  0  0  0  0  0  0  0  0  0  0
    8.3603   -3.8231   -1.2288 O   0  0  0  0  0  0  0  0  0  0  0  0
    8.2022   -2.4477    0.8247 C   0  0  0  0  0  0  0  0  0  0  0  0
    6.8950   -1.7820    0.4116 C   0  0  0  0  0  0  0  0  0  0  0  0
    5.8663   -5.4529    0.0094 C   0  0  0  0  0  0  0  0  0  0  0  0
    5.9516   -3.9612    2.0343 C   0  0  0  0  0  0  0  0  0  0  0  0
    4.4611   -3.5680    2.0230 C   0  0  0  0  0  0  0  0  0  0  0  0
    4.4498   -1.4944    1.4445 H   0  0  0  0  0  0  0  0  0  0  0  0
    6.2910   -3.0651   -1.2919 H   0  0  0  0  0  0  0  0  0  0  0  0
    4.2612   -3.5357   -0.8081 H   0  0  0  0  0  0  0  0  0  0  0  0
    4.4088   -1.6413   -2.1665 H   0  0  0  0  0  0  0  0  0  0  0  0
    2.2208   -1.4305    2.3099 C   0  0  0  0  0  0  0  0  0  0  0  0
    8.9534   -4.4016    0.5958 H   0  0  0  0  0  0  0  0  0  0  0  0
   -0.2875   -2.3083    1.7589 H   0  0  0  0  0  0  0  0  0  0  0  0
    2.6090   -5.4422    0.9789 H   0  0  0  0  0  0  0  0  0  0  0  0
    2.6437   -3.9330   -1.0056 H   0  0  0  0  0  0  0  0  0  0  0  0
    2.2865   -0.2193   -1.2746 H   0  0  0  0  0  0  0  0  0  0  0  0
    4.6231   -0.5659   -0.8130 H   0  0  0  0  0  0  0  0  0  0  0  0
    8.0392   -3.0048   -1.6527 H   0  0  0  0  0  0  0  0  0  0  0  0
    9.0571   -1.7960    0.6417 H   0  0  0  0  0  0  0  0  0  0  0  0
    8.2279   -2.6463    1.9050 H   0  0  0  0  0  0  0  0  0  0  0  0
    7.0286   -0.9561   -0.2811 H   0  0  0  0  0  0  0  0  0  0  0  0
    6.4453   -1.3862    1.3275 H   0  0  0  0  0  0  0  0  0  0  0  0
    4.7868   -5.3063   -0.1215 H   0  0  0  0  0  0  0  0  0  0  0  0
    6.2309   -5.7933   -0.9590 H   0  0  0  0  0  0  0  0  0  0  0  0
    5.9044   -6.2851    0.7282 H   0  0  0  0  0  0  0  0  0  0  0  0
    6.0142   -4.8925    2.6158 H   0  0  0  0  0  0  0  0  0  0  0  0
    6.4563   -3.2093    2.6454 H   0  0  0  0  0  0  0  0  0  0  0  0
    3.9525   -4.4789    1.7521 H   0  0  0  0  0  0  0  0  0  0  0  0
    4.0901   -3.3392    3.0286 H   0  0  0  0  0  0  0  0  0  0  0  0
    2.8787   -0.5430    2.3485 H   0  0  0  0  0  0  0  0  0  0  0  0
    1.2394   -0.9012    2.3621 H   0  0  0  0  0  0  0  0  0  0  0  0
    2.3068   -1.9847    3.2370 H   0  0  0  0  0  0  0  0  0  0  0  0
  1 28  1  6  0  0  0
  2  6  1  0  0  0  0
  2 26  1  6  0  0  0
  3  2  1  0  0  0  0
  3 25  1  1  0  0  0
  4  3  1  0  0  0  0
  4 21  1  6  0  0  0
  5  4  1  0  0  0  0
  5 29  1  1  0  0  0
  5 18  1  0  0  0  0
  6  1  1  0  0  0  0
  6 24  1  1  0  0  0
  7  1  1  0  0  0  0
  8  7  2  0  0  0  0
  8 30  1  0  0  0  0
  9  8  1  0  0  0  0
 10  9  2  0  0  0  0
 11  9  1  0  0  0  0
 11 12  1  0  0  0  0
 11 31  1  0  0  0  0
 12  1  1  0  0  0  0
 12 32  1  0  0  0  0
 13 12  1  0  0  0  0
 14 11  1  0  0  0  0
 15  7  1  0  0  0  0
 15 33  1  0  0  0  0
 16 15  1  0  0  0  0
 17  2  1  0  0  0  0
 17 15  1  0  0  0  0
 17 34  1  0  0  0  0
 18 35  1  0  0  0  0
 19  5  1  0  0  0  0
 19 20  1  0  0  0  0
 19 36  1  0  0  0  0
 19 37  1  0  0  0  0
 20  3  1  0  0  0  0
 20 38  1  0  0  0  0
 20 39  1  0  0  0  0
 21 40  1  0  0  0  0
 21 41  1  0  0  0  0
 21 42  1  0  0  0  0
 22  4  1  0  0  0  0
 22 23  1  0  0  0  0
 22 43  1  0  0  0  0
 22 44  1  0  0  0  0
 23  6  1  0  0  0  0
 23 45  1  0  0  0  0
 23 46  1  0  0  0  0
 27 17  1  0  0  0  0
 28 47  1  0  0  0  0
 28 48  1  0  0  0  0
 28 49  1  0  0  0  0
M  ISO  4  13   3  14   3  16   3  27   3
M  END
>  <DRUGBANK_ID>
DB14093

>  <COMMON_NAME>
(1,2,6,7-3H)Testosterone

>  <CAS_NUMBER>
67308-98-9

>  <UNII>
P57HP4MCQZ

>  <SYNONYMS>
Testosterone, 1,2,6,7-H-3

$$$$
