
 OpenBabel10282417143D

 53 53  0  0  0  0  0  0  0  0999 V2000
    1.0931   -0.0269   -0.0248 P   0  0  0  0  0  0  0  0  0  0  0  0
    1.5754    5.7293   -0.1436 O   0  0  0  0  0  0  0  0  0  0  0  0
    1.4439    3.3526   -1.5336 O   0  0  0  0  0  0  0  0  0  0  0  0
   -0.7627    4.4729    0.8579 O   0  0  0  0  0  0  0  0  0  0  0  0
   -1.9470    1.6020    1.3555 O   0  0  0  0  0  0  0  0  0  0  0  0
    1.2058   -0.2821    1.5573 O   0  0  0  0  0  0  0  0  0  0  0  0
    1.0623    1.2525   -0.8841 O   0  0  0  0  0  0  0  0  0  0  0  0
    7.5419    1.7484    3.7585 O   0  0  0  0  0  0  0  0  0  0  0  0
   -0.4553   -0.0269   -0.0248 O   0  0  0  0  0  0  0  0  0  0  0  0
    6.8352    6.2130    3.5671 O   0  0  0  0  0  0  0  0  0  0  0  0
    3.2276    3.7448    2.7560 N   0  0  0  0  0  0  0  0  0  0  0  0
    5.2236    4.8298    2.8925 N   0  0  0  0  0  0  0  0  0  0  0  0
    7.2040    3.9801    3.6776 N   0  0  0  0  0  0  0  0  0  0  0  0
    2.1418    4.5366    0.4269 C   0  0  2  0  0  0  0  0  0  0  0  0
    1.2333    3.4285   -0.0634 C   0  0  1  0  0  0  0  0  0  0  0  0
    3.6318    0.7359    2.7532 C   0  0  0  0  0  0  0  0  0  0  0  0
    5.0914    0.9995    2.8805 C   0  0  0  0  0  0  0  0  0  0  0  0
    3.1767    1.4829    1.5307 C   0  0  0  0  0  0  0  0  0  0  0  0
    2.3290    4.6348    1.9738 C   0  0  0  0  0  0  0  0  0  0  0  0
    5.3915    2.5010    3.0409 C   0  0  0  0  0  0  0  0  0  0  0  0
   -0.2866    3.2246    0.3631 C   0  0  1  0  0  0  0  0  0  0  0  0
    3.7092    1.1446    0.1986 C   0  0  0  0  0  0  0  0  0  0  0  0
    4.6169    3.6316    2.8783 C   0  0  0  0  0  0  0  0  0  0  0  0
    2.9231   -0.0269   -0.0248 C   0  0  0  0  0  0  0  0  0  0  0  0
   -0.6504    2.2129    1.5078 C   0  0  0  0  0  0  0  0  0  0  0  0
    6.8016    2.6995    3.4961 C   0  0  0  0  0  0  0  0  0  0  0  0
    6.4610    5.0848    3.3797 C   0  0  0  0  0  0  0  0  0  0  0  0
    2.7332    2.9563    3.1664 H   0  0  0  0  0  0  0  0  0  0  0  0
    4.6318    5.6327    2.7602 H   0  0  0  0  0  0  0  0  0  0  0  0
    8.1044    4.1387    4.0936 H   0  0  0  0  0  0  0  0  0  0  0  0
    1.1251    6.2163    0.5629 H   0  0  0  0  0  0  0  0  0  0  0  0
    2.3916    3.2230   -1.7379 H   0  0  0  0  0  0  0  0  0  0  0  0
   -0.6157    5.0816    0.1194 H   0  0  0  0  0  0  0  0  0  0  0  0
   -2.0447    1.3480    0.4153 H   0  0  0  0  0  0  0  0  0  0  0  0
    0.8249   -1.1722    1.7443 H   0  0  0  0  0  0  0  0  0  0  0  0
    1.7865    1.5589   -1.4398 H   0  0  0  0  0  0  0  0  0  0  0  0
    3.1130    4.4224   -0.0789 H   0  0  0  0  0  0  0  0  0  0  0  0
    1.7074    2.5842    0.3408 H   0  0  0  0  0  0  0  0  0  0  0  0
    3.1080    1.0893    3.6509 H   0  0  0  0  0  0  0  0  0  0  0  0
    3.3843   -0.3303    2.6979 H   0  0  0  0  0  0  0  0  0  0  0  0
    5.4702    0.3743    3.6926 H   0  0  0  0  0  0  0  0  0  0  0  0
    5.5874    0.6041    1.9778 H   0  0  0  0  0  0  0  0  0  0  0  0
    3.5123    2.4701    1.3787 H   0  0  0  0  0  0  0  0  0  0  0  0
    2.1087    1.5727    1.6894 H   0  0  0  0  0  0  0  0  0  0  0  0
    1.3440    4.4547    2.4053 H   0  0  0  0  0  0  0  0  0  0  0  0
    2.6193    5.6592    2.1753 H   0  0  0  0  0  0  0  0  0  0  0  0
   -0.8675    2.9504   -0.5318 H   0  0  0  0  0  0  0  0  0  0  0  0
    4.7884    1.0085    0.1571 H   0  0  0  0  0  0  0  0  0  0  0  0
    3.5166    1.9123   -0.5555 H   0  0  0  0  0  0  0  0  0  0  0  0
    3.2723   -0.8660    0.5948 H   0  0  0  0  0  0  0  0  0  0  0  0
    3.1708   -0.3861   -1.0352 H   0  0  0  0  0  0  0  0  0  0  0  0
    0.0793    1.4419    1.6586 H   0  0  0  0  0  0  0  0  0  0  0  0
   -0.6993    2.6790    2.4870 H   0  0  0  0  0  0  0  0  0  0  0  0
  1  6  1  0  0  0  0
  1  7  1  0  0  0  0
  1  9  2  0  0  0  0
  1 24  1  0  0  0  0
  2 31  1  0  0  0  0
  3 32  1  0  0  0  0
  4 33  1  0  0  0  0
  5 25  1  0  0  0  0
  5 34  1  0  0  0  0
  6 35  1  0  0  0  0
  7 36  1  0  0  0  0
  8 26  2  0  0  0  0
 10 27  2  0  0  0  0
 11 19  1  0  0  0  0
 11 23  1  0  0  0  0
 11 28  1  0  0  0  0
 12 23  1  0  0  0  0
 12 27  1  0  0  0  0
 12 29  1  0  0  0  0
 13 26  1  0  0  0  0
 13 27  1  0  0  0  0
 13 30  1  0  0  0  0
 14 19  1  0  0  0  0
 14 37  1  6  0  0  0
 14 15  1  0  0  0  0
 14  2  1  0  0  0  0
 15 38  1  1  0  0  0
 15 21  1  0  0  0  0
 15  3  1  0  0  0  0
 16 17  1  0  0  0  0
 16 18  1  0  0  0  0
 16 39  1  0  0  0  0
 16 40  1  0  0  0  0
 17 20  1  0  0  0  0
 17 41  1  0  0  0  0
 17 42  1  0  0  0  0
 18 22  1  0  0  0  0
 18 43  1  0  0  0  0
 18 44  1  0  0  0  0
 19 45  1  0  0  0  0
 19 46  1  0  0  0  0
 20 23  2  0  0  0  0
 20 26  1  0  0  0  0
 21 47  1  6  0  0  0
 21 25  1  0  0  0  0
 21  4  1  0  0  0  0
 22 24  1  0  0  0  0
 22 48  1  0  0  0  0
 22 49  1  0  0  0  0
 24 50  1  0  0  0  0
 24 51  1  0  0  0  0
 25 52  1  0  0  0  0
 25 53  1  0  0  0  0
M  END
>  <DRUGBANK_ID>
DB04266

>  <SECONDARY_ACCESSION_NUMBERS>
EXPT01888

>  <COMMON_NAME>
5-(6-D-ribitylamino-2,4-dihydroxypyrimidin-5-yl)-1-pentyl-phosphonic acid

$$$$
