
 OpenBabel10282417243D

 59 60  0  0  1  0  0  0  0  0999 V2000
    1.2319   -0.3001    0.3921 C   0  0  0  0  0  0  0  0  0  0  0  0
   -0.2498    5.7687   -8.5769 C   0  0  0  0  0  0  0  0  0  0  0  0
   -2.6760    6.1882   -8.6698 C   0  0  0  0  0  0  0  0  0  0  0  0
   -6.0319    4.3664   -7.6655 C   0  0  0  0  0  0  0  0  0  0  0  0
    0.7784    0.7729   -0.5160 C   0  0  0  0  0  0  0  0  0  0  0  0
    1.2360    0.4600   -1.9624 C   0  0  0  0  0  0  0  0  0  0  0  0
    0.4963   -0.6101   -2.7232 C   0  0  0  0  0  0  0  0  0  0  0  0
   -1.0149   -0.3086   -2.7998 C   0  0  0  0  0  0  0  0  0  0  0  0
   -3.8916    3.2917   -8.5719 C   0  0  0  0  0  0  0  0  0  0  0  0
   -2.3853    3.0160   -8.3947 C   0  0  0  0  0  0  0  0  0  0  0  0
   -3.9575    4.4746   -6.3507 C   0  0  0  0  0  0  0  0  0  0  0  0
   -2.2246    0.6992   -4.7168 C   0  0  0  0  0  0  0  0  0  0  0  0
   -0.4484    2.8189   -2.0716 C   0  0  0  0  0  0  0  0  0  0  0  0
   -1.4868    5.3570   -8.2627 C   0  0  0  0  0  0  0  0  0  0  0  0
   -4.5911    4.0615   -7.4584 C   0  0  0  0  0  0  0  0  0  0  0  0
   -1.4224    0.9418   -3.6080 C   0  0  0  0  0  0  0  0  0  0  0  0
   -1.7028    4.0497   -7.4958 C   0  0  1  0  0  0  0  0  0  0  0  0
   -1.1211    2.3275   -3.3026 C   0  0  0  0  0  0  0  0  0  0  0  0
   -2.4944    4.2543   -6.1782 C   0  0  2  0  0  0  0  0  0  0  0  0
   -2.6918    1.7759   -5.4535 C   0  0  0  0  0  0  0  0  0  0  0  0
    0.9819    3.4308   -2.2195 C   0  0  0  0  0  0  0  0  0  0  0  0
   -2.2527    3.1002   -5.2394 C   0  0  0  0  0  0  0  0  0  0  0  0
   -1.4879    3.3680   -4.1312 C   0  0  0  0  0  0  0  0  0  0  0  0
   -3.6659    1.4970   -6.3681 O   0  0  0  0  0  0  0  0  0  0  0  0
    1.4396    4.2439   -1.4668 O   0  0  0  0  0  0  0  0  0  0  0  0
    1.7482    2.9598   -3.2439 O   0  0  0  0  0  0  0  0  0  0  0  0
   -1.1254    4.6654   -3.8701 O   0  0  0  0  0  0  0  0  0  0  0  0
   -0.7096    3.6458   -7.2304 H   0  0  0  0  0  0  0  0  0  0  0  0
   -2.1053    5.1862   -5.7417 H   0  0  0  0  0  0  0  0  0  0  0  0
    0.8119   -1.2348    0.0192 H   0  0  0  0  0  0  0  0  0  0  0  0
    0.8386   -0.1017    1.3900 H   0  0  0  0  0  0  0  0  0  0  0  0
    2.3174   -0.3102    0.3812 H   0  0  0  0  0  0  0  0  0  0  0  0
   -0.1044    6.6821   -9.1417 H   0  0  0  0  0  0  0  0  0  0  0  0
    0.6306    5.2074   -8.2835 H   0  0  0  0  0  0  0  0  0  0  0  0
   -3.3139    5.6591   -9.3754 H   0  0  0  0  0  0  0  0  0  0  0  0
   -3.2704    6.4886   -7.8032 H   0  0  0  0  0  0  0  0  0  0  0  0
   -2.3876    7.1032   -9.1867 H   0  0  0  0  0  0  0  0  0  0  0  0
   -6.1392    5.0038   -8.5473 H   0  0  0  0  0  0  0  0  0  0  0  0
   -6.5812    3.4357   -7.8167 H   0  0  0  0  0  0  0  0  0  0  0  0
   -6.4712    4.8935   -6.8115 H   0  0  0  0  0  0  0  0  0  0  0  0
   -0.3081    0.7753   -0.3332 H   0  0  0  0  0  0  0  0  0  0  0  0
    1.1409    1.7595   -0.1817 H   0  0  0  0  0  0  0  0  0  0  0  0
    1.0185    1.2313   -2.6597 H   0  0  0  0  0  0  0  0  0  0  0  0
    2.3253    0.4238   -2.0213 H   0  0  0  0  0  0  0  0  0  0  0  0
    0.8912   -0.6300   -3.7506 H   0  0  0  0  0  0  0  0  0  0  0  0
    0.7200   -1.5766   -2.2719 H   0  0  0  0  0  0  0  0  0  0  0  0
   -1.4673   -1.2060   -3.2514 H   0  0  0  0  0  0  0  0  0  0  0  0
   -1.4659   -0.2552   -1.8042 H   0  0  0  0  0  0  0  0  0  0  0  0
   -4.4173    2.3467   -8.7368 H   0  0  0  0  0  0  0  0  0  0  0  0
   -4.0121    3.8425   -9.5068 H   0  0  0  0  0  0  0  0  0  0  0  0
   -1.8874    2.9558   -9.3679 H   0  0  0  0  0  0  0  0  0  0  0  0
   -2.2170    2.0128   -7.9917 H   0  0  0  0  0  0  0  0  0  0  0  0
   -4.4562    5.0157   -5.5490 H   0  0  0  0  0  0  0  0  0  0  0  0
   -2.5312   -0.3086   -4.9913 H   0  0  0  0  0  0  0  0  0  0  0  0
   -1.0547    3.4787   -1.4421 H   0  0  0  0  0  0  0  0  0  0  0  0
   -0.5665    1.9484   -1.5017 H   0  0  0  0  0  0  0  0  0  0  0  0
   -3.4638    0.6552   -6.8038 H   0  0  0  0  0  0  0  0  0  0  0  0
    2.6925    3.1094   -3.0215 H   0  0  0  0  0  0  0  0  0  0  0  0
   -0.6894    4.8027   -3.0163 H   0  0  0  0  0  0  0  0  0  0  0  0
  1  5  1  0  0  0  0
  1 30  1  0  0  0  0
  1 31  1  0  0  0  0
  1 32  1  0  0  0  0
  2 14  2  0  0  0  0
  2 33  1  0  0  0  0
  2 34  1  0  0  0  0
  3 14  1  0  0  0  0
  3 35  1  0  0  0  0
  3 36  1  0  0  0  0
  3 37  1  0  0  0  0
  4 15  1  0  0  0  0
  4 38  1  0  0  0  0
  4 39  1  0  0  0  0
  4 40  1  0  0  0  0
  5  6  1  0  0  0  0
  5 41  1  0  0  0  0
  5 42  1  0  0  0  0
  6  7  1  0  0  0  0
  6 43  1  0  0  0  0
  6 44  1  0  0  0  0
  7  8  1  0  0  0  0
  7 45  1  0  0  0  0
  7 46  1  0  0  0  0
  8 16  1  0  0  0  0
  8 47  1  0  0  0  0
  8 48  1  0  0  0  0
  9 10  1  0  0  0  0
  9 15  1  0  0  0  0
  9 49  1  0  0  0  0
  9 50  1  0  0  0  0
 10 51  1  0  0  0  0
 10 52  1  0  0  0  0
 11 15  2  0  0  0  0
 11 53  1  0  0  0  0
 12 16  2  0  0  0  0
 12 20  1  0  0  0  0
 12 54  1  0  0  0  0
 13 18  1  0  0  0  0
 13 21  1  0  0  0  0
 13 55  1  0  0  0  0
 13 56  1  0  0  0  0
 16 18  1  0  0  0  0
 17 10  1  0  0  0  0
 17 14  1  0  0  0  0
 17 28  1  1  0  0  0
 17 19  1  0  0  0  0
 18 23  2  0  0  0  0
 19 11  1  0  0  0  0
 19 29  1  1  0  0  0
 19 22  1  0  0  0  0
 20 22  2  0  0  0  0
 20 24  1  0  0  0  0
 21 25  2  0  0  0  0
 21 26  1  0  0  0  0
 22 23  1  0  0  0  0
 23 27  1  0  0  0  0
 24 57  1  0  0  0  0
 26 58  1  0  0  0  0
 27 59  1  0  0  0  0
M  END
>  <DRUGBANK_ID>
DB17825

>  <COMMON_NAME>
Cannabidiolic acid methyl ester

>  <SYNONYMS>
2-{2,4-dihydroxy-3-[(1R,6R)-3-methyl-6-(prop-1-en-2-yl)cyclohex-2-en-1-yl]-6-pentylphenyl}acetic acid; CBDA-ME

$$$$
