
 OpenBabel10282417103D

 60 65  0  0  1  0  0  0  0  0999 V2000
   -2.2449    1.6952   -1.3897 C   0  0  2  0  0  0  0  0  0  0  0  0
   -2.1253    3.6429   -1.9548 C   0  0  2  0  0  0  0  0  0  0  0  0
   -2.5066    2.5738   -2.4422 O   0  0  0  0  0  0  0  0  0  0  0  0
   -5.6088    5.5571   -3.2238 C   0  0  0  0  0  0  0  0  0  0  0  0
   -5.0625    6.8306   -3.8656 C   0  0  0  0  0  0  0  0  0  0  0  0
   -3.5603    7.1374   -3.8617 C   0  0  0  0  0  0  0  0  0  0  0  0
   -4.5997    4.4083   -3.1678 C   0  0  0  0  0  0  0  0  0  0  0  0
   -3.1435    4.8422   -2.7492 C   0  0  1  0  0  0  0  0  0  0  0  0
   -2.5845    6.2415   -3.4743 C   0  0  0  0  0  0  0  0  0  0  0  0
   -1.0202    6.6968   -2.8548 C   0  0  0  0  0  0  0  0  0  0  0  0
   -0.1045    5.3812   -3.0303 C   0  0  2  0  0  0  0  0  0  0  0  0
   -0.6825    4.0912   -2.1995 C   0  0  1  0  0  0  0  0  0  0  0  0
   -0.8496    0.3687   -1.4572 C   0  0  0  0  0  0  0  0  0  0  0  0
   -0.7068    1.6848   -1.8328 C   0  0  1  0  0  0  0  0  0  0  0  0
    0.0240    2.7148   -2.4916 C   0  0  1  0  0  0  0  0  0  0  0  0
    0.1138    2.2697   -3.9563 C   0  0  0  0  0  0  0  0  0  0  0  0
   -1.1317    1.4578   -4.5024 C   0  0  0  0  0  0  0  0  0  0  0  0
   -1.8579    0.8842   -3.2866 C   0  0  2  0  0  0  0  0  0  0  0  0
   -2.0184   -0.5878   -3.3074 O   0  0  0  0  0  0  0  0  0  0  0  0
   -3.0467   -0.9978   -2.4643 C   0  0  0  0  0  0  0  0  0  0  0  0
   -4.1173    0.0212   -2.2802 C   0  0  0  0  0  0  0  0  0  0  0  0
   -3.6665    1.0918   -3.2136 C   0  0  0  0  0  0  0  0  0  0  0  0
   -2.9869   -2.0105   -1.7813 O   0  0  0  0  0  0  0  0  0  0  0  0
    1.4144    5.0261   -2.8206 C   0  0  0  0  0  0  0  0  0  0  0  0
    1.7585    4.0976   -2.0947 O   0  0  0  0  0  0  0  0  0  0  0  0
    2.3950    5.4385   -3.6387 O   0  0  0  0  0  0  0  0  0  0  0  0
    3.4680    4.4324   -3.5165 C   0  0  0  0  0  0  0  0  0  0  0  0
   -5.8429    7.6588   -4.3472 O   0  0  0  0  0  0  0  0  0  0  0  0
   -3.1372    5.6398   -1.4532 C   0  0  0  0  0  0  0  0  0  0  0  0
   -0.4795    4.4723   -1.1775 H   0  0  0  0  0  0  0  0  0  0  0  0
   -0.8879    2.3648   -0.0087 C   0  0  0  0  0  0  0  0  0  0  0  0
    0.8092    2.5858   -1.7388 H   0  0  0  0  0  0  0  0  0  0  0  0
   -2.7525    1.3118   -0.4982 H   0  0  0  0  0  0  0  0  0  0  0  0
   -6.5554    5.3503   -3.7579 H   0  0  0  0  0  0  0  0  0  0  0  0
   -5.9651    5.6577   -2.1933 H   0  0  0  0  0  0  0  0  0  0  0  0
   -3.4207    8.2254   -3.9107 H   0  0  0  0  0  0  0  0  0  0  0  0
   -4.7895    3.7764   -4.0597 H   0  0  0  0  0  0  0  0  0  0  0  0
   -4.8963    3.7620   -2.3452 H   0  0  0  0  0  0  0  0  0  0  0  0
   -0.8226    7.7852   -3.0056 H   0  0  0  0  0  0  0  0  0  0  0  0
   -1.0310    6.8647   -1.7513 H   0  0  0  0  0  0  0  0  0  0  0  0
   -0.1763    5.2811   -4.1001 H   0  0  0  0  0  0  0  0  0  0  0  0
   -0.1807   -0.0283   -2.3063 H   0  0  0  0  0  0  0  0  0  0  0  0
   -0.3281    0.0393   -0.5524 H   0  0  0  0  0  0  0  0  0  0  0  0
    0.2850    3.1254   -4.6154 H   0  0  0  0  0  0  0  0  0  0  0  0
    1.0042    1.6431   -4.0191 H   0  0  0  0  0  0  0  0  0  0  0  0
   -1.7813    2.1212   -5.0875 H   0  0  0  0  0  0  0  0  0  0  0  0
   -0.8376    0.6441   -5.1779 H   0  0  0  0  0  0  0  0  0  0  0  0
   -5.1792   -0.1587   -2.3849 H   0  0  0  0  0  0  0  0  0  0  0  0
   -4.0512    0.3138   -1.2135 H   0  0  0  0  0  0  0  0  0  0  0  0
   -4.0989    1.5751   -4.0916 H   0  0  0  0  0  0  0  0  0  0  0  0
   -4.1162    1.8658   -2.5324 H   0  0  0  0  0  0  0  0  0  0  0  0
    3.7204    4.1690   -2.4631 H   0  0  0  0  0  0  0  0  0  0  0  0
    3.1593    3.4880   -4.0072 H   0  0  0  0  0  0  0  0  0  0  0  0
    4.3745    4.8180   -3.9535 H   0  0  0  0  0  0  0  0  0  0  0  0
   -2.0872    5.6588   -1.5647 H   0  0  0  0  0  0  0  0  0  0  0  0
   -3.3000    6.7206   -1.4709 H   0  0  0  0  0  0  0  0  0  0  0  0
   -2.8350    5.2634   -0.4859 H   0  0  0  0  0  0  0  0  0  0  0  0
   -1.9461    2.6523    0.2998 H   0  0  0  0  0  0  0  0  0  0  0  0
   -0.5735    1.6481    0.7504 H   0  0  0  0  0  0  0  0  0  0  0  0
   -0.4310    3.3286    0.1843 H   0  0  0  0  0  0  0  0  0  0  0  0
  1  2  1  0  0  0  0
  1  3  1  0  0  0  0
  1 33  1  6  0  0  0
  2  3  1  1  0  0  0
  2  8  1  0  0  0  0
  2 12  1  0  0  0  0
  4  5  1  0  0  0  0
  4 34  1  0  0  0  0
  4 35  1  0  0  0  0
  5  6  1  0  0  0  0
  5 28  2  0  0  0  0
  6  9  2  0  0  0  0
  6 36  1  0  0  0  0
  7  4  1  0  0  0  0
  7 37  1  0  0  0  0
  7 38  1  0  0  0  0
  8  7  1  0  0  0  0
  8  9  1  0  0  0  0
  8 29  1  6  0  0  0
  9 10  1  0  0  0  0
 10 11  1  0  0  0  0
 10 39  1  0  0  0  0
 10 40  1  0  0  0  0
 11 12  1  0  0  0  0
 11 41  1  6  0  0  0
 11 24  1  0  0  0  0
 12 15  1  0  0  0  0
 12 30  1  6  0  0  0
 13  1  1  0  0  0  0
 13 42  1  0  0  0  0
 13 43  1  0  0  0  0
 14 15  1  0  0  0  0
 14 13  1  0  0  0  0
 14 31  1  1  0  0  0
 15 16  1  0  0  0  0
 15 32  1  1  0  0  0
 16 17  1  0  0  0  0
 16 44  1  0  0  0  0
 16 45  1  0  0  0  0
 17 18  1  0  0  0  0
 17 46  1  0  0  0  0
 17 47  1  0  0  0  0
 18 14  1  0  0  0  0
 18 19  1  6  0  0  0
 18 22  1  0  0  0  0
 19 20  1  0  0  0  0
 20 21  1  0  0  0  0
 20 23  2  0  0  0  0
 21 22  1  0  0  0  0
 21 48  1  0  0  0  0
 21 49  1  0  0  0  0
 22 50  1  0  0  0  0
 22 51  1  0  0  0  0
 24 25  2  0  0  0  0
 24 26  1  0  0  0  0
 26 27  1  0  0  0  0
 27 52  1  0  0  0  0
 27 53  1  0  0  0  0
 27 54  1  0  0  0  0
 29 55  1  0  0  0  0
 29 56  1  0  0  0  0
 29 57  1  0  0  0  0
 31 58  1  0  0  0  0
 31 59  1  0  0  0  0
 31 60  1  0  0  0  0
M  END
>  <DRUGBANK_ID>
DB00700

>  <SECONDARY_ACCESSION_NUMBERS>
APRD00707

>  <COMMON_NAME>
Eplerenone

>  <CAS_NUMBER>
107724-20-9

>  <UNII>
6995V82D0B

>  <SYNONYMS>
Eplerenona; Eplerenone; Epoxymexrenone

$$$$
