
 OpenBabel10282417233D

 68 67  0  0  1  0  0  0  0  0999 V2000
   -2.6830    4.6543    0.4747 C   0  0  0  0  0  0  0  0  0  0  0  0
   -1.5765    4.1934   -0.4623 C   0  0  0  0  0  0  0  0  0  0  0  0
   -0.5946    5.3136   -0.7929 C   0  0  0  0  0  0  0  0  0  0  0  0
   -0.8462    2.9029   -0.0685 C   0  0  0  0  0  0  0  0  0  0  0  0
   -1.5124    1.5082   -0.2334 C   0  0  2  0  0  0  0  0  0  0  0  0
   -0.9960    0.6387   -1.3374 N   0  0  0  0  0  0  0  0  0  0  0  0
   -0.2175    1.0226   -2.4084 C   0  0  0  0  0  0  0  0  0  0  0  0
    0.0131   -0.0062   -3.4754 C   0  0  0  0  0  0  0  0  0  0  0  0
    0.2475    2.1435   -2.5862 O   0  0  0  0  0  0  0  0  0  0  0  0
   -3.0596    1.4635   -0.2278 C   0  0  0  0  0  0  0  0  0  0  0  0
   -3.6966    1.1243    0.7734 O   0  0  0  0  0  0  0  0  0  0  0  0
   -3.7766    1.8133   -1.3329 N   0  0  0  0  0  0  0  0  0  0  0  0
   -3.2710    2.3929   -2.5736 C   0  0  1  0  0  0  0  0  0  0  0  0
   -3.3482    1.3928   -3.7690 C   0  0  0  0  0  0  0  0  0  0  0  0
   -4.6714    1.4587   -4.5062 C   0  0  0  0  0  0  0  0  0  0  0  0
   -4.5894    2.8100   -5.2642 C   0  0  0  0  0  0  0  0  0  0  0  0
   -5.0542    0.3570   -5.4658 C   0  0  0  0  0  0  0  0  0  0  0  0
   -3.8040    3.8827   -2.7630 C   0  0  0  0  0  0  0  0  0  0  0  0
   -3.0493    4.8004   -3.1195 O   0  0  0  0  0  0  0  0  0  0  0  0
   -5.1427    4.1911   -2.7992 N   0  0  0  0  0  0  0  0  0  0  0  0
   -6.3054    3.2772   -2.8699 C   0  0  1  0  0  0  0  0  0  0  0  0
   -7.3065    3.6691   -1.8215 C   0  0  0  0  0  0  0  0  0  0  0  0
   -7.9099    5.0223   -2.1484 C   0  0  0  0  0  0  0  0  0  0  0  0
   -8.6130    5.1008   -3.4947 C   0  0  0  0  0  0  0  0  0  0  0  0
   -9.5518    4.0002   -3.6684 N   0  0  0  0  0  0  0  0  0  0  0  0
  -10.8170    4.2352   -4.0433 C   0  0  0  0  0  0  0  0  0  0  0  0
  -11.6304    3.1725   -4.0217 N   0  0  0  0  0  0  0  0  0  0  0  0
  -11.2058    5.4207   -4.3383 N   0  0  0  0  0  0  0  0  0  0  0  0
   -7.0922    2.8694   -4.2261 C   0  0  0  0  0  0  0  0  0  0  0  0
   -7.6760    1.8509   -4.4109 O   0  0  0  0  0  0  0  0  0  0  0  0
   -2.2891    4.8411    1.4744 H   0  0  0  0  0  0  0  0  0  0  0  0
   -3.4924    3.9235    0.5512 H   0  0  0  0  0  0  0  0  0  0  0  0
   -3.1444    5.5790    0.1043 H   0  0  0  0  0  0  0  0  0  0  0  0
   -2.0206    4.0240   -1.4084 H   0  0  0  0  0  0  0  0  0  0  0  0
    0.0276    5.5557    0.0677 H   0  0  0  0  0  0  0  0  0  0  0  0
    0.0532    5.0030   -1.6235 H   0  0  0  0  0  0  0  0  0  0  0  0
   -1.1214    6.2132   -1.1318 H   0  0  0  0  0  0  0  0  0  0  0  0
    0.0820    2.8968   -0.6322 H   0  0  0  0  0  0  0  0  0  0  0  0
   -0.4981    3.0116    0.9618 H   0  0  0  0  0  0  0  0  0  0  0  0
   -1.2336    0.9404    0.6668 H   0  0  0  0  0  0  0  0  0  0  0  0
   -1.3557   -0.3095   -1.3331 H   0  0  0  0  0  0  0  0  0  0  0  0
   -0.3769    0.4066   -4.4129 H   0  0  0  0  0  0  0  0  0  0  0  0
    1.0912   -0.1550   -3.5821 H   0  0  0  0  0  0  0  0  0  0  0  0
   -0.4786   -0.9579   -3.2763 H   0  0  0  0  0  0  0  0  0  0  0  0
   -4.7670    1.8244   -1.1350 H   0  0  0  0  0  0  0  0  0  0  0  0
   -2.2005    2.5057   -2.4579 H   0  0  0  0  0  0  0  0  0  0  0  0
   -2.5754    1.6674   -4.4968 H   0  0  0  0  0  0  0  0  0  0  0  0
   -3.1204    0.3756   -3.4354 H   0  0  0  0  0  0  0  0  0  0  0  0
   -5.3833    1.2583   -3.7060 H   0  0  0  0  0  0  0  0  0  0  0  0
   -4.0769    2.7693   -6.2121 H   0  0  0  0  0  0  0  0  0  0  0  0
   -5.4323    3.4710   -5.3887 H   0  0  0  0  0  0  0  0  0  0  0  0
   -3.9324    3.4674   -4.7404 H   0  0  0  0  0  0  0  0  0  0  0  0
   -4.7190   -0.6204   -5.1163 H   0  0  0  0  0  0  0  0  0  0  0  0
   -6.1493    0.2964   -5.5531 H   0  0  0  0  0  0  0  0  0  0  0  0
   -4.6667    0.5823   -6.4549 H   0  0  0  0  0  0  0  0  0  0  0  0
   -5.2363    5.1649   -3.0848 H   0  0  0  0  0  0  0  0  0  0  0  0
   -5.9449    2.3437   -2.4804 H   0  0  0  0  0  0  0  0  0  0  0  0
   -8.0568    2.8734   -1.7524 H   0  0  0  0  0  0  0  0  0  0  0  0
   -6.8002    3.7028   -0.8479 H   0  0  0  0  0  0  0  0  0  0  0  0
   -8.6021    5.2942   -1.3529 H   0  0  0  0  0  0  0  0  0  0  0  0
   -7.1107    5.7729   -2.1570 H   0  0  0  0  0  0  0  0  0  0  0  0
   -9.0909    6.0749   -3.5825 H   0  0  0  0  0  0  0  0  0  0  0  0
   -7.8799    5.1644   -4.3035 H   0  0  0  0  0  0  0  0  0  0  0  0
   -9.2706    3.0274   -3.5726 H   0  0  0  0  0  0  0  0  0  0  0  0
  -12.6051    3.2878   -4.2532 H   0  0  0  0  0  0  0  0  0  0  0  0
  -11.3127    2.2275   -3.8585 H   0  0  0  0  0  0  0  0  0  0  0  0
  -12.1966    5.4172   -4.5484 H   0  0  0  0  0  0  0  0  0  0  0  0
   -7.1864    3.6620   -5.0160 H   0  0  0  0  0  0  0  0  0  0  0  0
  1  2  1  0  0  0  0
  1 31  1  0  0  0  0
  1 32  1  0  0  0  0
  1 33  1  0  0  0  0
  2  3  1  0  0  0  0
  2  4  1  0  0  0  0
  2 34  1  0  0  0  0
  3 35  1  0  0  0  0
  3 36  1  0  0  0  0
  3 37  1  0  0  0  0
  4 38  1  0  0  0  0
  4 39  1  0  0  0  0
  5 10  1  0  0  0  0
  5 40  1  1  0  0  0
  5  6  1  0  0  0  0
  5  4  1  0  0  0  0
  6  7  1  0  0  0  0
  6 41  1  0  0  0  0
  7  8  1  0  0  0  0
  7  9  2  0  0  0  0
  8 42  1  0  0  0  0
  8 43  1  0  0  0  0
  8 44  1  0  0  0  0
 10 11  2  0  0  0  0
 10 12  1  0  0  0  0
 12 45  1  0  0  0  0
 13 12  1  0  0  0  0
 13 14  1  0  0  0  0
 13 18  1  0  0  0  0
 13 46  1  1  0  0  0
 14 15  1  0  0  0  0
 14 47  1  0  0  0  0
 14 48  1  0  0  0  0
 15 16  1  0  0  0  0
 15 17  1  0  0  0  0
 15 49  1  0  0  0  0
 16 50  1  0  0  0  0
 16 51  1  0  0  0  0
 16 52  1  0  0  0  0
 17 53  1  0  0  0  0
 17 54  1  0  0  0  0
 17 55  1  0  0  0  0
 18 19  2  0  0  0  0
 18 20  1  0  0  0  0
 20 56  1  0  0  0  0
 21 20  1  0  0  0  0
 21 22  1  0  0  0  0
 21 29  1  0  0  0  0
 21 57  1  1  0  0  0
 22 23  1  0  0  0  0
 22 58  1  0  0  0  0
 22 59  1  0  0  0  0
 23 24  1  0  0  0  0
 23 60  1  0  0  0  0
 23 61  1  0  0  0  0
 24 25  1  0  0  0  0
 24 62  1  0  0  0  0
 24 63  1  0  0  0  0
 25 26  1  0  0  0  0
 25 64  1  0  0  0  0
 26 27  1  0  0  0  0
 26 28  2  0  0  0  0
 27 65  1  0  0  0  0
 27 66  1  0  0  0  0
 28 67  1  0  0  0  0
 29 30  2  0  0  0  0
 29 68  1  0  0  0  0
M  END
>  <DRUGBANK_ID>
DB16961

>  <COMMON_NAME>
Leupeptin

>  <CAS_NUMBER>
55123-66-5

>  <UNII>
J97339NR3V

>  <SYNONYMS>
Acetyl-l-leucyl-l-leucyl-l-argininal; Acetyl-leucyl-leucyl-argininal; L-leucinamide, n-acetyl-l-leucyl-n-((1s)-4-((aminoiminomethyl)amino)-1-formylbutyl)-; L-leucinamide, n-acetyl-l-leucyl-n-(4-((aminoiminomethyl)amino)-1-formylbutyl)-, (s)-; Leupeptins

$$$$
