
 OpenBabel10282417233D

 29 31  0  0  0  0  0  0  0  0999 V2000
    1.9798   -0.2407   -0.0219 C   0  0  0  0  0  0  0  0  0  0  0  0
    1.3868   -1.4607    0.0366 C   0  0  0  0  0  0  0  0  0  0  0  0
   -0.0765   -1.5007    0.0293 C   0  0  0  0  0  0  0  0  0  0  0  0
   -0.8362   -0.3923    0.0067 C   0  0  0  0  0  0  0  0  0  0  0  0
   -0.1662    0.9314    0.0026 C   0  0  0  0  0  0  0  0  0  0  0  0
    1.2054    0.9033   -0.0357 N   0  0  0  0  0  0  0  0  0  0  0  0
    3.8477   -4.0341    1.3828 C   0  0  0  0  0  0  0  0  0  0  0  0
    3.0788   -2.9366    1.2856 C   0  0  0  0  0  0  0  0  0  0  0  0
    2.1837   -2.6928    0.1425 C   0  0  0  0  0  0  0  0  0  0  0  0
    2.1151   -3.6609   -0.8016 C   0  0  0  0  0  0  0  0  0  0  0  0
    3.7811   -5.0294    0.3763 C   0  0  0  0  0  0  0  0  0  0  0  0
    2.9012   -4.8111   -0.6786 N   0  0  0  0  0  0  0  0  0  0  0  0
    3.0008   -5.9141   -1.4933 C   0  0  0  0  0  0  0  0  0  0  0  0
    3.9380   -6.7305   -0.8993 C   0  0  0  0  0  0  0  0  0  0  0  0
    4.4183   -6.1725    0.2543 N   0  0  0  0  0  0  0  0  0  0  0  0
    3.4605    0.0213   -0.0855 C   0  0  0  0  0  0  0  0  0  0  0  0
   -0.7821    1.9906    0.0257 O   0  0  0  0  0  0  0  0  0  0  0  0
   -2.2527   -0.4534   -0.0162 C   0  0  0  0  0  0  0  0  0  0  0  0
   -3.4066   -0.5608   -0.0418 N   0  0  0  0  0  0  0  0  0  0  0  0
   -0.5384   -2.4858    0.0426 H   0  0  0  0  0  0  0  0  0  0  0  0
    1.6507    1.8150   -0.0554 H   0  0  0  0  0  0  0  0  0  0  0  0
    4.5197   -4.1858    2.2187 H   0  0  0  0  0  0  0  0  0  0  0  0
    3.1233   -2.1769    2.0618 H   0  0  0  0  0  0  0  0  0  0  0  0
    1.4822   -3.5923   -1.6790 H   0  0  0  0  0  0  0  0  0  0  0  0
    2.4212   -6.0334   -2.3970 H   0  0  0  0  0  0  0  0  0  0  0  0
    4.2944   -7.6953   -1.2378 H   0  0  0  0  0  0  0  0  0  0  0  0
    3.6992    0.5430   -1.0178 H   0  0  0  0  0  0  0  0  0  0  0  0
    3.7761    0.6458    0.7569 H   0  0  0  0  0  0  0  0  0  0  0  0
    4.0662   -0.8862   -0.0698 H   0  0  0  0  0  0  0  0  0  0  0  0
  1  2  2  0  0  0  0
  1  6  1  0  0  0  0
  1 16  1  0  0  0  0
  2  3  1  0  0  0  0
  3  4  2  0  0  0  0
  3 20  1  0  0  0  0
  4  5  1  0  0  0  0
  4 18  1  0  0  0  0
  5  6  1  0  0  0  0
  5 17  2  0  0  0  0
  6 21  1  0  0  0  0
  7  8  2  0  0  0  0
  7 22  1  0  0  0  0
  8  9  1  0  0  0  0
  8 23  1  0  0  0  0
  9 10  2  0  0  0  0
  9  2  1  0  0  0  0
 10 24  1  0  0  0  0
 11 12  1  0  0  0  0
 11  7  1  0  0  0  0
 12 13  1  0  0  0  0
 12 10  1  0  0  0  0
 13 14  2  0  0  0  0
 13 25  1  0  0  0  0
 14 15  1  0  0  0  0
 14 26  1  0  0  0  0
 15 11  2  0  0  0  0
 16 27  1  0  0  0  0
 16 28  1  0  0  0  0
 16 29  1  0  0  0  0
 18 19  3  0  0  0  0
M  END
>  <DRUGBANK_ID>
DB16847

>  <COMMON_NAME>
Olprinone

>  <CAS_NUMBER>
106730-54-5

>  <UNII>
4Y8BMI9YGC

>  <SYNONYMS>
Loprinone; Olprinone

$$$$
