
 OpenBabel10282417103D

 42 41  0  0  0  0  0  0  0  0999 V2000
    2.0782   -0.3386    0.3242 C   0  0  0  0  0  0  0  0  0  0  0  0
    2.0827    0.4405    1.7576 C   0  0  0  0  0  0  0  0  0  0  0  0
    2.1472    2.1793    1.7921 C   0  0  0  0  0  0  0  0  0  0  0  0
    1.2346    3.4215    0.9355 C   0  0  0  0  0  0  0  0  0  0  0  0
   -0.3723    3.8576    1.1168 C   0  0  0  0  0  0  0  0  0  0  0  0
   -1.2999    3.8514    2.2741 N   0  0  0  0  0  0  0  0  0  0  0  0
   -1.0545    2.6956    3.1375 C   0  0  0  0  0  0  0  0  0  0  0  0
   -1.3996    1.2455    2.6829 C   0  0  0  0  0  0  0  0  0  0  0  0
   -0.9715    0.5407    1.3001 C   0  0  0  0  0  0  0  0  0  0  0  0
   -2.7864    3.9138    1.9980 C   0  0  0  0  0  0  0  0  0  0  0  0
    0.2406    0.8431    0.8575 O   0  0  0  0  0  0  0  0  0  0  0  0
   -1.5815   -1.1744    1.1128 P   0  0  0  0  0  0  0  0  0  0  0  0
   -1.5815    1.5604   -0.0916 P   0  0  0  0  0  0  0  0  0  0  0  0
   -2.3068   -1.0397    2.5811 O   0  0  0  0  0  0  0  0  0  0  0  0
   -2.8343   -0.6346    0.1830 O   0  0  0  0  0  0  0  0  0  0  0  0
   -2.0976   -2.6256    0.9544 O   0  0  0  0  0  0  0  0  0  0  0  0
   -3.1008    1.7088    0.3291 O   0  0  0  0  0  0  0  0  0  0  0  0
   -0.5000    1.1232   -1.2015 O   0  0  0  0  0  0  0  0  0  0  0  0
   -2.0976    2.4232   -1.2692 O   0  0  0  0  0  0  0  0  0  0  0  0
    1.6577    0.2107   -0.5361 H   0  0  0  0  0  0  0  0  0  0  0  0
    1.4508   -1.2559    0.3615 H   0  0  0  0  0  0  0  0  0  0  0  0
    3.0723   -0.5979   -0.0108 H   0  0  0  0  0  0  0  0  0  0  0  0
    1.1718    0.2223    2.3670 H   0  0  0  0  0  0  0  0  0  0  0  0
    2.6839   -0.1555    2.4517 H   0  0  0  0  0  0  0  0  0  0  0  0
    1.9334    2.4223    2.8357 H   0  0  0  0  0  0  0  0  0  0  0  0
    3.1866    2.3961    1.5628 H   0  0  0  0  0  0  0  0  0  0  0  0
    1.7762    4.3639    1.0463 H   0  0  0  0  0  0  0  0  0  0  0  0
    1.3406    3.1637   -0.1343 H   0  0  0  0  0  0  0  0  0  0  0  0
   -0.7673    4.4101    0.2421 H   0  0  0  0  0  0  0  0  0  0  0  0
   -0.6752    2.9259    0.8368 H   0  0  0  0  0  0  0  0  0  0  0  0
   -0.0123    2.7416    3.4357 H   0  0  0  0  0  0  0  0  0  0  0  0
   -1.6133    2.8790    4.0662 H   0  0  0  0  0  0  0  0  0  0  0  0
   -0.9973    0.6218    3.4919 H   0  0  0  0  0  0  0  0  0  0  0  0
   -2.4933    1.1601    2.7602 H   0  0  0  0  0  0  0  0  0  0  0  0
   -3.3137    2.9587    2.1434 H   0  0  0  0  0  0  0  0  0  0  0  0
   -3.2902    4.5412    2.7458 H   0  0  0  0  0  0  0  0  0  0  0  0
   -3.0807    4.2855    1.0070 H   0  0  0  0  0  0  0  0  0  0  0  0
    0.3692    1.6315    1.3257 H   0  0  0  0  0  0  0  0  0  0  0  0
   -2.1283   -1.7998    3.1618 H   0  0  0  0  0  0  0  0  0  0  0  0
   -2.6638   -0.7328   -0.7829 H   0  0  0  0  0  0  0  0  0  0  0  0
   -3.7524    0.9781    0.1599 H   0  0  0  0  0  0  0  0  0  0  0  0
    0.3256    1.6197   -0.9331 H   0  0  0  0  0  0  0  0  0  0  0  0
  1  2  1  0  0  0  0
  1 20  1  0  0  0  0
  1 21  1  0  0  0  0
  1 22  1  0  0  0  0
  2  3  1  0  0  0  0
  2 23  1  0  0  0  0
  2 24  1  0  0  0  0
  3  4  1  0  0  0  0
  3 25  1  0  0  0  0
  3 26  1  0  0  0  0
  4  5  1  0  0  0  0
  4 27  1  0  0  0  0
  4 28  1  0  0  0  0
  5  6  1  0  0  0  0
  5 29  1  0  0  0  0
  5 30  1  0  0  0  0
  6 10  1  0  0  0  0
  6  7  1  0  0  0  0
  7  8  1  0  0  0  0
  7 31  1  0  0  0  0
  7 32  1  0  0  0  0
  8  9  1  0  0  0  0
  8 33  1  0  0  0  0
  8 34  1  0  0  0  0
  9 11  1  0  0  0  0
  9 12  1  0  0  0  0
  9 13  1  0  0  0  0
 10 35  1  0  0  0  0
 10 36  1  0  0  0  0
 10 37  1  0  0  0  0
 11 38  1  0  0  0  0
 12 14  1  0  0  0  0
 12 15  1  0  0  0  0
 12 16  2  0  0  0  0
 13 17  1  0  0  0  0
 13 18  1  0  0  0  0
 13 19  2  0  0  0  0
 14 39  1  0  0  0  0
 15 40  1  0  0  0  0
 17 41  1  0  0  0  0
 18 42  1  0  0  0  0
M  END
>  <DRUGBANK_ID>
DB00710

>  <SECONDARY_ACCESSION_NUMBERS>
APRD00231; DB04635

>  <COMMON_NAME>
Ibandronate

>  <CAS_NUMBER>
114084-78-5

>  <UNII>
UMD7G2653W

>  <SYNONYMS>
ácido ibandrónico; Ibandronic acid

$$$$
