805
 OpenBabel10282417113D

 44 46  0  0  0  0  0  0  0  0999 V2000
    1.3571    0.3004    0.8809 O   0  0  0  0  0  0  0  0  0  0  0  0
   -1.3637    0.1139   -0.2299 N   0  0  0  0  0  0  0  0  0  0  0  0
   -0.0179   -1.6096   -2.4759 N   0  0  0  0  0  0  0  0  0  0  0  0
    1.7333   -1.8767   -4.0570 N   0  0  0  0  0  0  0  0  0  0  0  0
    2.4853   -2.7455   -4.7665 N   0  0  0  0  0  0  0  0  0  0  0  0
   -0.7418    1.3528    0.2821 C   0  0  0  0  0  0  0  0  0  0  0  0
   -0.6758   -1.0298    0.3975 C   0  0  0  0  0  0  0  0  0  0  0  0
   -1.5260    0.0657   -1.7110 C   0  0  0  0  0  0  0  0  0  0  0  0
    0.7874    1.4057    0.1543 C   0  0  0  0  0  0  0  0  0  0  0  0
    0.8760   -0.9087    0.2960 C   0  0  0  0  0  0  0  0  0  0  0  0
   -0.3189   -0.2204   -2.6637 C   0  0  0  0  0  0  0  0  0  0  0  0
    0.9905   -2.3570   -3.0505 C   0  0  0  0  0  0  0  0  0  0  0  0
    1.0263   -3.6880   -2.6181 C   0  0  0  0  0  0  0  0  0  0  0  0
    1.7377   -4.5789   -3.3907 C   0  0  0  0  0  0  0  0  0  0  0  0
    2.4193   -4.0662   -4.4699 C   0  0  0  0  0  0  0  0  0  0  0  0
    0.2800   -4.1800   -1.4077 C   0  0  0  0  0  0  0  0  0  0  0  0
    3.0079   -4.9549   -5.4498 C   0  0  0  0  0  0  0  0  0  0  0  0
    4.3729   -4.8944   -5.7214 C   0  0  0  0  0  0  0  0  0  0  0  0
    2.1848   -5.8399   -6.1616 C   0  0  0  0  0  0  0  0  0  0  0  0
    4.8862   -5.6035   -6.7995 C   0  0  0  0  0  0  0  0  0  0  0  0
    2.7203   -6.6219   -7.1751 C   0  0  0  0  0  0  0  0  0  0  0  0
    4.0557   -6.4528   -7.5315 C   0  0  0  0  0  0  0  0  0  0  0  0
   -0.0214   -1.8710   -1.5167 H   0  0  0  0  0  0  0  0  0  0  0  0
   -0.9562    1.3838    1.3595 H   0  0  0  0  0  0  0  0  0  0  0  0
   -1.2162    2.2326   -0.1580 H   0  0  0  0  0  0  0  0  0  0  0  0
   -0.9539   -1.0740    1.4594 H   0  0  0  0  0  0  0  0  0  0  0  0
   -1.0775   -1.9691   -0.0057 H   0  0  0  0  0  0  0  0  0  0  0  0
   -2.2580   -0.7353   -1.9068 H   0  0  0  0  0  0  0  0  0  0  0  0
   -2.0242    0.9826   -2.0411 H   0  0  0  0  0  0  0  0  0  0  0  0
    1.1172    1.3948   -0.8883 H   0  0  0  0  0  0  0  0  0  0  0  0
    1.1938    2.3267    0.5745 H   0  0  0  0  0  0  0  0  0  0  0  0
    1.3668   -1.7911    0.7136 H   0  0  0  0  0  0  0  0  0  0  0  0
    1.2512   -0.8445   -0.7206 H   0  0  0  0  0  0  0  0  0  0  0  0
   -0.6031   -0.0505   -3.7048 H   0  0  0  0  0  0  0  0  0  0  0  0
    0.5249    0.4410   -2.4633 H   0  0  0  0  0  0  0  0  0  0  0  0
    1.6940   -5.6410   -3.1956 H   0  0  0  0  0  0  0  0  0  0  0  0
    0.7329   -3.7704   -0.4966 H   0  0  0  0  0  0  0  0  0  0  0  0
   -0.7728   -3.8787   -1.4470 H   0  0  0  0  0  0  0  0  0  0  0  0
    0.3006   -5.2677   -1.3185 H   0  0  0  0  0  0  0  0  0  0  0  0
    5.0224   -4.2684   -5.1126 H   0  0  0  0  0  0  0  0  0  0  0  0
    1.1180   -5.8936   -5.9477 H   0  0  0  0  0  0  0  0  0  0  0  0
    5.9279   -5.4769   -7.0733 H   0  0  0  0  0  0  0  0  0  0  0  0
    2.0882   -7.3303   -7.7003 H   0  0  0  0  0  0  0  0  0  0  0  0
    4.4530   -6.9839   -8.3906 H   0  0  0  0  0  0  0  0  0  0  0  0
  1  9  1  0  0  0  0
  1 10  1  0  0  0  0
  2  6  1  0  0  0  0
  2  7  1  0  0  0  0
  2  8  1  0  0  0  0
  3 11  1  0  0  0  0
  3 12  1  0  0  0  0
  3 23  1  0  0  0  0
  4  5  1  0  0  0  0
  4 12  2  0  0  0  0
  5 15  2  0  0  0  0
  6  9  1  0  0  0  0
  6 24  1  0  0  0  0
  6 25  1  0  0  0  0
  7 10  1  0  0  0  0
  7 26  1  0  0  0  0
  7 27  1  0  0  0  0
  8 11  1  0  0  0  0
  8 28  1  0  0  0  0
  8 29  1  0  0  0  0
  9 30  1  0  0  0  0
  9 31  1  0  0  0  0
 10 32  1  0  0  0  0
 10 33  1  0  0  0  0
 11 34  1  0  0  0  0
 11 35  1  0  0  0  0
 12 13  1  0  0  0  0
 13 14  2  0  0  0  0
 13 16  1  0  0  0  0
 14 15  1  0  0  0  0
 14 36  1  0  0  0  0
 15 17  1  0  0  0  0
 16 37  1  0  0  0  0
 16 38  1  0  0  0  0
 16 39  1  0  0  0  0
 17 18  2  0  0  0  0
 17 19  1  0  0  0  0
 18 20  1  0  0  0  0
 18 40  1  0  0  0  0
 19 21  2  0  0  0  0
 19 41  1  0  0  0  0
 20 22  2  0  0  0  0
 20 42  1  0  0  0  0
 21 22  1  0  0  0  0
 21 43  1  0  0  0  0
 22 44  1  0  0  0  0
M  END
>  <DRUGBANK_ID>
DB00805

>  <SECONDARY_ACCESSION_NUMBERS>
APRD00735

>  <COMMON_NAME>
Minaprine

>  <CAS_NUMBER>
25905-77-5

>  <UNII>
00U7GX0NLM

>  <SYNONYMS>
4-(2-((4-Methyl-6-phenyl-3-pyridazinyl)amino)ethyl)morpholine; 4-Methyl-3-(2-morpholinoethylamino)-6-phenylpyridazin; Minaprina; Minaprine; Minaprinum; N-(4-Methyl-6-phenyl-3-pyridazinyl)-4-morpholineethanamine

$$$$
