
 OpenBabel10282417123D

 30 30  0  0  1  0  0  0  0  0999 V2000
    0.3619    0.4997    2.4305 N   0  0  0  0  0  0  0  0  0  0  0  0
    0.2768    1.0607    1.0645 C   0  0  1  0  0  0  0  0  0  0  0  0
   -1.0922    1.2742    0.3638 C   0  0  2  0  0  0  0  0  0  0  0  0
   -1.7676    0.0431    0.1934 O   0  0  0  0  0  0  0  0  0  0  0  0
   -0.9438    1.8797   -0.9444 O   0  0  0  0  0  0  0  0  0  0  0  0
   -0.1848    3.1240   -0.9604 C   0  0  2  0  0  0  0  0  0  0  0  0
   -0.0559    3.6102   -2.4162 C   0  0  0  0  0  0  0  0  0  0  0  0
   -1.3448    3.8310   -2.9929 O   0  0  0  0  0  0  0  0  0  0  0  0
    1.1801    2.8268   -0.3038 C   0  0  1  0  0  0  0  0  0  0  0  0
    2.1578    3.8263   -0.2435 O   0  0  0  0  0  0  0  0  0  0  0  0
    3.6858    3.2895   -0.1120 P   0  0  0  0  0  0  0  0  0  0  0  0
    3.8875    2.6748   -1.5658 O   0  0  0  0  0  0  0  0  0  0  0  0
    4.3737    4.7211   -0.0703 O   0  0  0  0  0  0  0  0  0  0  0  0
    4.0671    2.3626    0.9697 O   0  0  0  0  0  0  0  0  0  0  0  0
    0.8649    2.4571    1.1364 C   0  0  2  0  0  0  0  0  0  0  0  0
    1.9408    2.4257    2.0642 O   0  0  0  0  0  0  0  0  0  0  0  0
    1.0674    1.1081    2.8989 H   0  0  0  0  0  0  0  0  0  0  0  0
    0.8988   -0.3696    2.3944 H   0  0  0  0  0  0  0  0  0  0  0  0
    0.9139    0.4170    0.4361 H   0  0  0  0  0  0  0  0  0  0  0  0
   -1.7207    1.9306    0.9761 H   0  0  0  0  0  0  0  0  0  0  0  0
   -1.0969   -0.6146   -0.0457 H   0  0  0  0  0  0  0  0  0  0  0  0
   -0.7627    3.8798   -0.4110 H   0  0  0  0  0  0  0  0  0  0  0  0
    0.4887    4.5584   -2.4689 H   0  0  0  0  0  0  0  0  0  0  0  0
    0.4579    2.8774   -3.0458 H   0  0  0  0  0  0  0  0  0  0  0  0
   -1.8322    2.9881   -2.9200 H   0  0  0  0  0  0  0  0  0  0  0  0
    1.5906    1.9854   -0.8762 H   0  0  0  0  0  0  0  0  0  0  0  0
    3.5895    1.7438   -1.5394 H   0  0  0  0  0  0  0  0  0  0  0  0
    3.7626    5.3202    0.3981 H   0  0  0  0  0  0  0  0  0  0  0  0
    0.1689    3.1872    1.5631 H   0  0  0  0  0  0  0  0  0  0  0  0
    2.3664    3.2964    2.1184 H   0  0  0  0  0  0  0  0  0  0  0  0
  1 17  1  0  0  0  0
  1 18  1  0  0  0  0
  2  3  1  0  0  0  0
  2 15  1  0  0  0  0
  2 19  1  6  0  0  0
  2  1  1  0  0  0  0
  3  4  1  0  0  0  0
  3  5  1  0  0  0  0
  3 20  1  1  0  0  0
  4 21  1  0  0  0  0
  5  6  1  0  0  0  0
  6  7  1  0  0  0  0
  6  9  1  0  0  0  0
  6 22  1  1  0  0  0
  7  8  1  0  0  0  0
  7 23  1  0  0  0  0
  7 24  1  0  0  0  0
  8 25  1  0  0  0  0
  9 15  1  0  0  0  0
  9 26  1  6  0  0  0
  9 10  1  0  0  0  0
 10 11  1  0  0  0  0
 11 12  1  0  0  0  0
 11 13  1  0  0  0  0
 11 14  2  0  0  0  0
 12 27  1  0  0  0  0
 13 28  1  0  0  0  0
 15 29  1  1  0  0  0
 15 16  1  0  0  0  0
 16 30  1  0  0  0  0
M  END
>  <DRUGBANK_ID>
DB02865

>  <SECONDARY_ACCESSION_NUMBERS>
EXPT01634

>  <COMMON_NAME>
Glucosamine 4-Phosphate

$$$$
