
 OpenBabel10282417143D

 46 47  0  0  0  0  0  0  0  0999 V2000
    1.1033    0.0214    0.4293 O   0  0  0  0  0  0  0  0  0  0  0  0
    2.0896   -2.1381   -1.8180 N   0  0  0  0  0  0  0  0  0  0  0  0
    0.7052   -1.8693   -1.3953 C   0  0  0  0  0  0  0  0  0  0  0  0
    2.3258   -3.1162   -2.8702 C   0  0  0  0  0  0  0  0  0  0  0  0
    2.8535   -0.9263   -2.1098 C   0  0  0  0  0  0  0  0  0  0  0  0
    0.4622   -1.2140    0.0344 C   0  0  0  0  0  0  0  0  0  0  0  0
    2.0212   -2.5340   -4.2370 C   0  0  0  0  0  0  0  0  0  0  0  0
    2.4592    0.2486   -2.9782 C   0  0  0  0  0  0  0  0  0  0  0  0
    5.2317    0.1180    0.0672 C   0  0  0  0  0  0  0  0  0  0  0  0
    6.7130    0.0994   -0.3053 C   0  0  0  0  0  0  0  0  0  0  0  0
    2.4552    0.0307    0.7522 C   0  0  0  0  0  0  0  0  0  0  0  0
    7.1673    0.7706   -1.5891 C   0  0  0  0  0  0  0  0  0  0  0  0
    4.6059   -1.0830    0.4497 C   0  0  0  0  0  0  0  0  0  0  0  0
    4.4428    1.2816    0.1022 C   0  0  0  0  0  0  0  0  0  0  0  0
    3.2471   -1.1256    0.8447 C   0  0  0  0  0  0  0  0  0  0  0  0
    3.0813    1.2528    0.4598 C   0  0  0  0  0  0  0  0  0  0  0  0
    6.9769    2.1385   -1.7810 C   0  0  0  0  0  0  0  0  0  0  0  0
    7.9081    0.0751   -2.5717 C   0  0  0  0  0  0  0  0  0  0  0  0
    7.3565    2.7898   -2.9463 C   0  0  0  0  0  0  0  0  0  0  0  0
    8.3891    0.7527   -3.6992 C   0  0  0  0  0  0  0  0  0  0  0  0
    8.0798    2.0887   -3.9144 C   0  0  0  0  0  0  0  0  0  0  0  0
    0.1576   -2.8253   -1.3617 H   0  0  0  0  0  0  0  0  0  0  0  0
    0.1924   -1.2753   -2.1591 H   0  0  0  0  0  0  0  0  0  0  0  0
    3.3940   -3.3848   -2.8335 H   0  0  0  0  0  0  0  0  0  0  0  0
    1.7920   -4.0559   -2.6935 H   0  0  0  0  0  0  0  0  0  0  0  0
    2.7338   -0.4074   -1.2186 H   0  0  0  0  0  0  0  0  0  0  0  0
    3.9218   -1.1528   -2.1738 H   0  0  0  0  0  0  0  0  0  0  0  0
    0.5774   -1.9500    0.8350 H   0  0  0  0  0  0  0  0  0  0  0  0
   -0.6087   -0.9596    0.0343 H   0  0  0  0  0  0  0  0  0  0  0  0
    2.7481   -1.7577   -4.4844 H   0  0  0  0  0  0  0  0  0  0  0  0
    2.1170   -3.2718   -5.0292 H   0  0  0  0  0  0  0  0  0  0  0  0
    1.0199   -2.0937   -4.2528 H   0  0  0  0  0  0  0  0  0  0  0  0
    1.3817    0.4165   -2.9683 H   0  0  0  0  0  0  0  0  0  0  0  0
    2.9192    1.1483   -2.5445 H   0  0  0  0  0  0  0  0  0  0  0  0
    2.8412    0.1715   -3.9902 H   0  0  0  0  0  0  0  0  0  0  0  0
    7.2508    0.5738    0.5246 H   0  0  0  0  0  0  0  0  0  0  0  0
    7.0650   -0.9419   -0.3181 H   0  0  0  0  0  0  0  0  0  0  0  0
    5.1087   -2.0310    0.2517 H   0  0  0  0  0  0  0  0  0  0  0  0
    4.8101    2.2297   -0.2676 H   0  0  0  0  0  0  0  0  0  0  0  0
    2.7855   -2.1080    0.8935 H   0  0  0  0  0  0  0  0  0  0  0  0
    2.4841    2.1449    0.2750 H   0  0  0  0  0  0  0  0  0  0  0  0
    6.5368    2.7483   -0.9940 H   0  0  0  0  0  0  0  0  0  0  0  0
    8.1397   -0.9785   -2.4550 H   0  0  0  0  0  0  0  0  0  0  0  0
    7.1157    3.8353   -3.0835 H   0  0  0  0  0  0  0  0  0  0  0  0
    9.0208    0.2300   -4.4224 H   0  0  0  0  0  0  0  0  0  0  0  0
    8.4088    2.6052   -4.8084 H   0  0  0  0  0  0  0  0  0  0  0  0
  1  6  1  0  0  0  0
  1 11  1  0  0  0  0
  2  3  1  0  0  0  0
  2  4  1  0  0  0  0
  2  5  1  0  0  0  0
  3  6  1  0  0  0  0
  3 22  1  0  0  0  0
  3 23  1  0  0  0  0
  4  7  1  0  0  0  0
  4 24  1  0  0  0  0
  4 25  1  0  0  0  0
  5  8  1  0  0  0  0
  5 26  1  0  0  0  0
  5 27  1  0  0  0  0
  6 28  1  0  0  0  0
  6 29  1  0  0  0  0
  7 30  1  0  0  0  0
  7 31  1  0  0  0  0
  7 32  1  0  0  0  0
  8 33  1  0  0  0  0
  8 34  1  0  0  0  0
  8 35  1  0  0  0  0
  9 10  1  0  0  0  0
  9 13  2  0  0  0  0
  9 14  1  0  0  0  0
 10 12  1  0  0  0  0
 10 36  1  0  0  0  0
 10 37  1  0  0  0  0
 11 15  2  0  0  0  0
 11 16  1  0  0  0  0
 12 17  2  0  0  0  0
 12 18  1  0  0  0  0
 13 15  1  0  0  0  0
 13 38  1  0  0  0  0
 14 16  2  0  0  0  0
 14 39  1  0  0  0  0
 15 40  1  0  0  0  0
 16 41  1  0  0  0  0
 17 19  1  0  0  0  0
 17 42  1  0  0  0  0
 18 20  2  0  0  0  0
 18 43  1  0  0  0  0
 19 21  2  0  0  0  0
 19 44  1  0  0  0  0
 20 21  1  0  0  0  0
 20 45  1  0  0  0  0
 21 46  1  0  0  0  0
M  END
>  <DRUGBANK_ID>
DB04905

>  <COMMON_NAME>
Tesmilifene

>  <CAS_NUMBER>
98774-23-3

>  <UNII>
I43T3ID6G2

>  <SYNONYMS>
N,N-diethyl-2-((4-phenylmethyl)phenoxy)ethanamine; Tesmilifene

$$$$
