
 OpenBabel10282417133D

143142  0  0  1  0  0  0  0  0999 V2000
   -9.1443    6.9442  -12.0859 C   0  0  0  0  0  0  0  0  0  0  0  0
  -24.1617   15.1464    4.1541 C   0  0  0  0  0  0  0  0  0  0  0  0
  -10.9495   11.6051   -0.1126 C   0  0  0  0  0  0  0  0  0  0  0  0
  -10.4271    9.5607   -1.2934 C   0  0  0  0  0  0  0  0  0  0  0  0
   -8.5366   10.2983   -0.5824 C   0  0  0  0  0  0  0  0  0  0  0  0
  -10.0337    7.4498  -10.9619 C   0  0  0  0  0  0  0  0  0  0  0  0
  -23.1755   15.7348    5.1498 C   0  0  0  0  0  0  0  0  0  0  0  0
   -9.6307    6.8033   -9.6361 C   0  0  0  0  0  0  0  0  0  0  0  0
  -22.2920   14.6330    5.7363 C   0  0  0  0  0  0  0  0  0  0  0  0
   -8.1781    7.1360   -9.2800 C   0  0  0  0  0  0  0  0  0  0  0  0
  -21.4903   13.9231    4.6396 C   0  0  0  0  0  0  0  0  0  0  0  0
   -7.9872    8.6533   -9.1770 C   0  0  0  0  0  0  0  0  0  0  0  0
  -20.6015   14.9209    3.8888 C   0  0  0  0  0  0  0  0  0  0  0  0
   -8.8895    9.2154   -8.0741 C   0  0  0  0  0  0  0  0  0  0  0  0
  -19.6049   15.5657    4.8564 C   0  0  0  0  0  0  0  0  0  0  0  0
   -8.5206    8.5613   -6.7426 C   0  0  0  0  0  0  0  0  0  0  0  0
  -18.7227   14.4827    5.4841 C   0  0  0  0  0  0  0  0  0  0  0  0
   -7.0461    8.8474   -6.4549 C   0  0  0  0  0  0  0  0  0  0  0  0
  -17.9605   13.7415    4.3816 C   0  0  0  0  0  0  0  0  0  0  0  0
   -6.8461   10.3675   -6.3754 C   0  0  0  0  0  0  0  0  0  0  0  0
  -17.0848   14.7354    3.6135 C   0  0  0  0  0  0  0  0  0  0  0  0
   -7.6943   10.9019   -5.2235 C   0  0  0  0  0  0  0  0  0  0  0  0
  -16.0945   15.3879    4.5814 C   0  0  0  0  0  0  0  0  0  0  0  0
   -7.1830   10.1608   -3.9904 C   0  0  0  0  0  0  0  0  0  0  0  0
  -15.2235   14.3007    5.2175 C   0  0  0  0  0  0  0  0  0  0  0  0
   -5.6727   10.3939   -3.8191 C   0  0  0  0  0  0  0  0  0  0  0  0
  -14.4638   13.5549    4.1161 C   0  0  0  0  0  0  0  0  0  0  0  0
   -5.2540   11.8834   -3.9462 C   0  0  0  0  0  0  0  0  0  0  0  0
  -13.5842   14.5485    3.3555 C   0  0  0  0  0  0  0  0  0  0  0  0
   -5.9186   12.6032   -2.8677 C   0  0  0  0  0  0  0  0  0  0  0  0
  -12.6222   15.2147    4.3447 C   0  0  0  0  0  0  0  0  0  0  0  0
   -5.3597   12.0172   -1.5948 C   0  0  0  0  0  0  0  0  0  0  0  0
  -11.7437   14.1479    5.0047 C   0  0  0  0  0  0  0  0  0  0  0  0
   -4.1778   12.4454   -0.8067 C   0  0  0  0  0  0  0  0  0  0  0  0
  -10.9176   13.4557    3.9375 C   0  0  0  0  0  0  0  0  0  0  0  0
   -4.2819   13.9835   -0.5680 C   0  0  0  0  0  0  0  0  0  0  0  0
  -10.1136   14.5126    3.1749 C   0  0  0  0  0  0  0  0  0  0  0  0
   -9.6204   11.9627   -2.1731 C   0  0  0  0  0  0  0  0  0  0  0  0
   -8.8397   13.3440   -1.8683 C   0  0  0  0  0  0  0  0  0  0  0  0
   -7.3600   15.0238    1.4965 C   0  0  0  0  0  0  0  0  0  0  0  0
   -7.7184   12.6403    2.8914 C   0  0  0  0  0  0  0  0  0  0  0  0
   -7.2025   14.1177    2.7642 C   0  0  2  0  0  0  0  0  0  0  0  0
   -5.1089   14.6126    0.6072 C   0  0  0  0  0  0  0  0  0  0  0  0
   -9.0634   15.1534    4.0648 C   0  0  0  0  0  0  0  0  0  0  0  0
   -9.8579   10.9225   -1.0148 N   0  3  0  0  0  0  0  0  0  0  0  0
   -4.6167   15.0162    1.6111 O   0  0  0  0  0  0  0  0  0  0  0  0
   -9.3813   15.9038    4.9777 O   0  0  0  0  0  0  0  0  0  0  0  0
   -6.6655   11.3103    0.2753 O   0  0  0  0  0  0  0  0  0  0  0  0
   -9.0822   12.8347    0.6510 O   0  0  0  0  0  0  0  0  0  0  0  0
   -6.4643   14.6927    0.3887 O   0  0  0  0  0  0  0  0  0  0  0  0
   -7.4762   13.2688   -1.2827 O   0  0  0  0  0  0  0  0  0  0  0  0
   -7.7333   11.7130    1.7970 O   0  0  0  0  0  0  0  0  0  0  0  0
   -7.7619   14.8524    3.8841 O   0  0  0  0  0  0  0  0  0  0  0  0
   -7.6047   12.4909    0.2572 P   0  0  3  0  0  0  0  0  0  0  0  0
   -6.1364   14.0545    2.9809 H   0  0  0  0  0  0  0  0  0  0  0  0
   -8.0893    7.1845  -11.9178 H   0  0  0  0  0  0  0  0  0  0  0  0
   -9.4221    7.4017  -13.0354 H   0  0  0  0  0  0  0  0  0  0  0  0
   -9.2320    5.8568  -12.1649 H   0  0  0  0  0  0  0  0  0  0  0  0
  -24.7876   14.3998    4.6514 H   0  0  0  0  0  0  0  0  0  0  0  0
  -24.7941   15.9255    3.7283 H   0  0  0  0  0  0  0  0  0  0  0  0
  -23.6577   14.6565    3.3145 H   0  0  0  0  0  0  0  0  0  0  0  0
  -11.9097   11.4882   -0.6075 H   0  0  0  0  0  0  0  0  0  0  0  0
  -10.9326   11.1785    0.8948 H   0  0  0  0  0  0  0  0  0  0  0  0
  -10.8682   12.7048   -0.0914 H   0  0  0  0  0  0  0  0  0  0  0  0
   -9.7407    9.0210   -1.9555 H   0  0  0  0  0  0  0  0  0  0  0  0
  -10.4454    9.0575   -0.3041 H   0  0  0  0  0  0  0  0  0  0  0  0
  -11.4038    9.6577   -1.7231 H   0  0  0  0  0  0  0  0  0  0  0  0
   -8.1664    9.3574   -1.0118 H   0  0  0  0  0  0  0  0  0  0  0  0
   -7.8432   10.8875   -1.1556 H   0  0  0  0  0  0  0  0  0  0  0  0
   -8.5398   10.1547    0.5014 H   0  0  0  0  0  0  0  0  0  0  0  0
   -9.9722    8.5434  -10.9066 H   0  0  0  0  0  0  0  0  0  0  0  0
  -11.0826    7.2288  -11.1752 H   0  0  0  0  0  0  0  0  0  0  0  0
  -23.7071   16.2483    5.9554 H   0  0  0  0  0  0  0  0  0  0  0  0
  -22.5729   16.5084    4.6589 H   0  0  0  0  0  0  0  0  0  0  0  0
  -10.3150    7.1360   -8.8456 H   0  0  0  0  0  0  0  0  0  0  0  0
   -9.7580    5.7182   -9.6834 H   0  0  0  0  0  0  0  0  0  0  0  0
  -22.9000   13.9025    6.2778 H   0  0  0  0  0  0  0  0  0  0  0  0
  -21.6248   15.0650    6.4924 H   0  0  0  0  0  0  0  0  0  0  0  0
   -7.9029    6.6255   -8.3507 H   0  0  0  0  0  0  0  0  0  0  0  0
   -7.4767    6.7246  -10.0091 H   0  0  0  0  0  0  0  0  0  0  0  0
  -22.1434   13.4063    3.9326 H   0  0  0  0  0  0  0  0  0  0  0  0
  -20.9039   13.1112    5.0823 H   0  0  0  0  0  0  0  0  0  0  0  0
   -6.9300    8.8782   -9.0027 H   0  0  0  0  0  0  0  0  0  0  0  0
   -8.1920    9.1663  -10.1188 H   0  0  0  0  0  0  0  0  0  0  0  0
  -21.1838   15.6975    3.3868 H   0  0  0  0  0  0  0  0  0  0  0  0
  -20.0978   14.4126    3.0603 H   0  0  0  0  0  0  0  0  0  0  0  0
   -8.7962   10.3053   -8.0392 H   0  0  0  0  0  0  0  0  0  0  0  0
   -9.9506    9.0643   -8.2813 H   0  0  0  0  0  0  0  0  0  0  0  0
  -20.1029   16.1390    5.6423 H   0  0  0  0  0  0  0  0  0  0  0  0
  -19.0164   16.3231    4.3292 H   0  0  0  0  0  0  0  0  0  0  0  0
   -9.1885    8.9206   -5.9535 H   0  0  0  0  0  0  0  0  0  0  0  0
   -8.6971    7.4834   -6.7349 H   0  0  0  0  0  0  0  0  0  0  0  0
  -19.2987   13.7697    6.0790 H   0  0  0  0  0  0  0  0  0  0  0  0
  -18.0535   14.9334    6.2225 H   0  0  0  0  0  0  0  0  0  0  0  0
   -6.7417    8.3111   -5.5522 H   0  0  0  0  0  0  0  0  0  0  0  0
   -6.3620    8.4236   -7.1904 H   0  0  0  0  0  0  0  0  0  0  0  0
  -18.6263   13.2224    3.6877 H   0  0  0  0  0  0  0  0  0  0  0  0
  -17.3807   12.9239    4.8190 H   0  0  0  0  0  0  0  0  0  0  0  0
   -5.7845   10.5845   -6.2382 H   0  0  0  0  0  0  0  0  0  0  0  0
   -7.0737   10.8953   -7.3014 H   0  0  0  0  0  0  0  0  0  0  0  0
  -17.6703   15.5070    3.1072 H   0  0  0  0  0  0  0  0  0  0  0  0
  -16.5863   14.2257    2.7846 H   0  0  0  0  0  0  0  0  0  0  0  0
   -7.6099   11.9907   -5.1471 H   0  0  0  0  0  0  0  0  0  0  0  0
   -8.7702   10.7557   -5.3733 H   0  0  0  0  0  0  0  0  0  0  0  0
  -16.5911   15.9683    5.3633 H   0  0  0  0  0  0  0  0  0  0  0  0
  -15.5065   16.1445    4.0547 H   0  0  0  0  0  0  0  0  0  0  0  0
   -7.7027   10.4168   -3.0898 H   0  0  0  0  0  0  0  0  0  0  0  0
   -7.4243    9.0946   -4.0093 H   0  0  0  0  0  0  0  0  0  0  0  0
  -15.8019   13.5910    5.8135 H   0  0  0  0  0  0  0  0  0  0  0  0
  -14.5583   14.7487    5.9603 H   0  0  0  0  0  0  0  0  0  0  0  0
   -5.4188    9.9266   -2.8670 H   0  0  0  0  0  0  0  0  0  0  0  0
   -5.0758    9.8290   -4.5237 H   0  0  0  0  0  0  0  0  0  0  0  0
  -15.1297   13.0387    3.4199 H   0  0  0  0  0  0  0  0  0  0  0  0
  -13.8862   12.7361    4.5523 H   0  0  0  0  0  0  0  0  0  0  0  0
   -4.1928   12.0547   -3.7941 H   0  0  0  0  0  0  0  0  0  0  0  0
   -5.5742   12.3822   -4.8630 H   0  0  0  0  0  0  0  0  0  0  0  0
  -14.1684   15.3153    2.8382 H   0  0  0  0  0  0  0  0  0  0  0  0
  -13.0697   14.0376    2.5360 H   0  0  0  0  0  0  0  0  0  0  0  0
   -5.8933   13.6964   -2.9140 H   0  0  0  0  0  0  0  0  0  0  0  0
   -6.9802   12.3667   -3.0095 H   0  0  0  0  0  0  0  0  0  0  0  0
  -13.1323   15.7934    5.1160 H   0  0  0  0  0  0  0  0  0  0  0  0
  -12.0505   15.9885    3.8295 H   0  0  0  0  0  0  0  0  0  0  0  0
   -5.8846   12.5851   -0.9137 H   0  0  0  0  0  0  0  0  0  0  0  0
   -5.6670   10.9796   -1.4401 H   0  0  0  0  0  0  0  0  0  0  0  0
  -12.3210   13.4079    5.5660 H   0  0  0  0  0  0  0  0  0  0  0  0
  -11.1017   14.5958    5.7635 H   0  0  0  0  0  0  0  0  0  0  0  0
   -4.2125   11.9139    0.1616 H   0  0  0  0  0  0  0  0  0  0  0  0
   -3.3204   12.0910   -1.3682 H   0  0  0  0  0  0  0  0  0  0  0  0
  -11.5490   12.8899    3.2371 H   0  0  0  0  0  0  0  0  0  0  0  0
  -10.2906   12.6911    4.4080 H   0  0  0  0  0  0  0  0  0  0  0  0
   -3.2630   14.2853   -0.3553 H   0  0  0  0  0  0  0  0  0  0  0  0
   -4.5963   14.4850   -1.4864 H   0  0  0  0  0  0  0  0  0  0  0  0
  -10.7083   15.3054    2.7189 H   0  0  0  0  0  0  0  0  0  0  0  0
   -9.7449   14.0607    2.2777 H   0  0  0  0  0  0  0  0  0  0  0  0
  -10.6014   12.1514   -2.6122 H   0  0  0  0  0  0  0  0  0  0  0  0
   -9.0661   11.4492   -2.9242 H   0  0  0  0  0  0  0  0  0  0  0  0
   -9.4455   14.0350   -1.2674 H   0  0  0  0  0  0  0  0  0  0  0  0
   -8.7176   13.8577   -2.8301 H   0  0  0  0  0  0  0  0  0  0  0  0
   -7.3120   16.0980    1.7053 H   0  0  0  0  0  0  0  0  0  0  0  0
   -8.3826   14.9373    1.1039 H   0  0  0  0  0  0  0  0  0  0  0  0
   -7.3648   12.1570    3.8097 H   0  0  0  0  0  0  0  0  0  0  0  0
   -8.7617   12.6806    3.1253 H   0  0  0  0  0  0  0  0  0  0  0  0
   -9.3063   12.1699    1.3329 H   0  0  0  0  0  0  0  0  0  0  0  0
  1 56  1  0  0  0  0
  1 57  1  0  0  0  0
  1 58  1  0  0  0  0
  2 59  1  0  0  0  0
  2 60  1  0  0  0  0
  2 61  1  0  0  0  0
  3 62  1  0  0  0  0
  3 63  1  0  0  0  0
  3 64  1  0  0  0  0
  4 65  1  0  0  0  0
  4 66  1  0  0  0  0
  4 67  1  0  0  0  0
  5 68  1  0  0  0  0
  5 69  1  0  0  0  0
  5 70  1  0  0  0  0
  6  1  1  0  0  0  0
  6 71  1  0  0  0  0
  6 72  1  0  0  0  0
  7  2  1  0  0  0  0
  7 73  1  0  0  0  0
  7 74  1  0  0  0  0
  8  6  1  0  0  0  0
  8 75  1  0  0  0  0
  8 76  1  0  0  0  0
  9  7  1  0  0  0  0
  9 77  1  0  0  0  0
  9 78  1  0  0  0  0
 10  8  1  0  0  0  0
 10 79  1  0  0  0  0
 10 80  1  0  0  0  0
 11  9  1  0  0  0  0
 11 81  1  0  0  0  0
 11 82  1  0  0  0  0
 12 10  1  0  0  0  0
 12 83  1  0  0  0  0
 12 84  1  0  0  0  0
 13 11  1  0  0  0  0
 13 85  1  0  0  0  0
 13 86  1  0  0  0  0
 14 12  1  0  0  0  0
 14 87  1  0  0  0  0
 14 88  1  0  0  0  0
 15 13  1  0  0  0  0
 15 89  1  0  0  0  0
 15 90  1  0  0  0  0
 16 14  1  0  0  0  0
 16 91  1  0  0  0  0
 16 92  1  0  0  0  0
 17 15  1  0  0  0  0
 17 93  1  0  0  0  0
 17 94  1  0  0  0  0
 18 16  1  0  0  0  0
 18 95  1  0  0  0  0
 18 96  1  0  0  0  0
 19 17  1  0  0  0  0
 19 97  1  0  0  0  0
 19 98  1  0  0  0  0
 20 18  1  0  0  0  0
 20 99  1  0  0  0  0
 20100  1  0  0  0  0
 21 19  1  0  0  0  0
 21101  1  0  0  0  0
 21102  1  0  0  0  0
 22 20  1  0  0  0  0
 22103  1  0  0  0  0
 22104  1  0  0  0  0
 23 21  1  0  0  0  0
 23105  1  0  0  0  0
 23106  1  0  0  0  0
 24 22  1  0  0  0  0
 24107  1  0  0  0  0
 24108  1  0  0  0  0
 25 23  1  0  0  0  0
 25109  1  0  0  0  0
 25110  1  0  0  0  0
 26 24  1  0  0  0  0
 26111  1  0  0  0  0
 26112  1  0  0  0  0
 27 25  1  0  0  0  0
 27113  1  0  0  0  0
 27114  1  0  0  0  0
 28 26  1  0  0  0  0
 28115  1  0  0  0  0
 28116  1  0  0  0  0
 29 27  1  0  0  0  0
 29117  1  0  0  0  0
 29118  1  0  0  0  0
 30 28  1  0  0  0  0
 30119  1  0  0  0  0
 30120  1  0  0  0  0
 31 29  1  0  0  0  0
 31121  1  0  0  0  0
 31122  1  0  0  0  0
 32 30  1  0  0  0  0
 32123  1  0  0  0  0
 32124  1  0  0  0  0
 33 31  1  0  0  0  0
 33125  1  0  0  0  0
 33126  1  0  0  0  0
 34 32  1  0  0  0  0
 34127  1  0  0  0  0
 34128  1  0  0  0  0
 35 33  1  0  0  0  0
 35129  1  0  0  0  0
 35130  1  0  0  0  0
 36 34  1  0  0  0  0
 36131  1  0  0  0  0
 36132  1  0  0  0  0
 37 35  1  0  0  0  0
 37133  1  0  0  0  0
 37134  1  0  0  0  0
 38135  1  0  0  0  0
 38136  1  0  0  0  0
 39 38  1  0  0  0  0
 39137  1  0  0  0  0
 39138  1  0  0  0  0
 40139  1  0  0  0  0
 40140  1  0  0  0  0
 41141  1  0  0  0  0
 41142  1  0  0  0  0
 42 53  1  0  0  0  0
 42 55  1  1  0  0  0
 42 41  1  0  0  0  0
 42 40  1  0  0  0  0
 43 36  1  0  0  0  0
 44 37  1  0  0  0  0
 45  3  1  0  0  0  0
 45  4  1  0  0  0  0
 45  5  1  0  0  0  0
 45 38  1  0  0  0  0
 46 43  2  0  0  0  0
 47 44  2  0  0  0  0
 49143  1  0  0  0  0
 50 40  1  0  0  0  0
 50 43  1  0  0  0  0
 51 39  1  0  0  0  0
 52 41  1  0  0  0  0
 53 44  1  0  0  0  0
 54 48  2  0  0  0  0
 54 49  1  0  0  0  0
 54 51  1  0  0  0  0
 54 52  1  0  0  0  0
M  CHG  1  45   1
M  END
>  <DRUGBANK_ID>
DB04178

>  <SECONDARY_ACCESSION_NUMBERS>
EXPT02512

>  <COMMON_NAME>
Di-Stearoyl-3-Sn-Phosphatidylcholine

$$$$
