
 OpenBabel10282417133D

 79 81  0  0  1  0  0  0  0  0999 V2000
   -0.4450   -1.0787    3.9080 C   0  0  2  0  0  0  0  0  0  0  0  0
   -0.5047    0.2518    3.3777 O   0  0  0  0  0  0  0  0  0  0  0  0
   -1.1798   -2.0239    2.9686 C   0  0  1  0  0  0  0  0  0  0  0  0
   -1.0368    0.1788    2.0557 C   0  0  1  0  0  0  0  0  0  0  0  0
   -1.0608   -1.2972    1.6526 C   0  0  1  0  0  0  0  0  0  0  0  0
   -0.6122   -3.3285    2.9228 O   0  0  0  0  0  0  0  0  0  0  0  0
   -1.8768    1.7309   -6.8085 C   0  0  0  0  0  0  0  0  0  0  0  0
   -0.7062    2.6525   -6.4731 C   0  0  0  0  0  0  0  0  0  0  0  0
   -1.4602    0.3370   -7.0075 N   0  0  0  0  0  0  0  0  0  0  0  0
   -1.8741   -0.6508   -6.1551 C   0  0  0  0  0  0  0  0  0  0  0  0
   -2.5695   -0.3512   -5.1903 O   0  0  0  0  0  0  0  0  0  0  0  0
    0.4745    2.7564   -7.8571 S   0  0  0  0  0  0  0  0  0  0  0  0
   -0.5907   -2.7178   -5.2870 C   0  0  0  0  0  0  0  0  0  0  0  0
   -1.4155   -2.0851   -6.4314 C   0  0  0  0  0  0  0  0  0  0  0  0
   -1.2721   -2.8594   -4.0163 N   0  0  0  0  0  0  0  0  0  0  0  0
   -1.3793   -5.1167   -3.9124 O   0  0  0  0  0  0  0  0  0  0  0  0
   -1.7510   -4.0187   -3.4541 C   0  0  0  0  0  0  0  0  0  0  0  0
   -3.6348   -1.9072   -0.9457 C   0  0  0  0  0  0  0  0  0  0  0  0
   -3.6365   -1.9667   -3.4460 C   0  0  0  0  0  0  0  0  0  0  0  0
   -3.8656   -2.7897   -2.1766 C   0  0  0  0  0  0  0  0  0  0  0  0
   -5.2825   -3.3372   -1.9298 C   0  0  0  0  0  0  0  0  0  0  0  0
   -2.8293   -3.9668   -2.2784 C   0  0  1  0  0  0  0  0  0  0  0  0
   -3.6059   -5.1666   -2.4974 O   0  0  0  0  0  0  0  0  0  0  0  0
   -4.5699   -0.8112   -0.8659 O   0  0  0  0  0  0  0  0  0  0  0  0
   -3.6860    1.4180   -1.3216 O   0  0  0  0  0  0  0  0  0  0  0  0
   -3.1402    0.3604    0.8160 O   0  0  0  0  0  0  0  0  0  0  0  0
   -5.9154    1.1159   -2.0280 O   0  0  0  0  0  0  0  0  0  0  0  0
   -5.6570   -0.9364   -2.9166 O   0  0  0  0  0  0  0  0  0  0  0  0
   -1.4578    1.8062   -0.1035 O   0  0  0  0  0  0  0  0  0  0  0  0
   -1.4316    0.9313   -2.1381 O   0  0  0  0  0  0  0  0  0  0  0  0
   -4.6715    0.2408   -2.1191 P   0  0  3  0  0  0  0  0  0  0  0  0
   -2.2859    0.6458   -0.6611 P   0  0  3  0  0  0  0  0  0  0  0  0
   -2.4356    0.8262    1.9802 C   0  0  0  0  0  0  0  0  0  0  0  0
    0.1119   -1.6759    0.9236 O   0  0  0  0  0  0  0  0  0  0  0  0
   -0.9451   -1.0084    5.2510 N   0  0  0  0  0  0  0  0  0  0  0  0
   -2.2358   -0.7945    5.6467 C   0  0  0  0  0  0  0  0  0  0  0  0
   -0.1401   -0.9072    6.3526 C   0  0  0  0  0  0  0  0  0  0  0  0
   -2.1330   -0.4993    6.9937 C   0  0  0  0  0  0  0  0  0  0  0  0
   -3.3570   -0.8187    4.9057 N   0  0  0  0  0  0  0  0  0  0  0  0
   -0.8244   -0.5915    7.4281 N   0  0  0  0  0  0  0  0  0  0  0  0
   -3.3210   -0.1581    7.6541 C   0  0  0  0  0  0  0  0  0  0  0  0
   -4.4368   -0.5043    5.6503 C   0  0  0  0  0  0  0  0  0  0  0  0
   -4.4805   -0.1718    6.9579 N   0  0  0  0  0  0  0  0  0  0  0  0
   -3.3412    0.1922    8.9830 N   0  0  0  0  0  0  0  0  0  0  0  0
    0.6161   -1.3517    3.9494 H   0  0  0  0  0  0  0  0  0  0  0  0
   -2.2393   -2.1296    3.2106 H   0  0  0  0  0  0  0  0  0  0  0  0
   -0.3093    0.7149    1.4399 H   0  0  0  0  0  0  0  0  0  0  0  0
   -1.8898   -1.5673    1.0100 H   0  0  0  0  0  0  0  0  0  0  0  0
    0.2246   -3.2812    2.4256 H   0  0  0  0  0  0  0  0  0  0  0  0
   -2.4013    2.0589   -7.7122 H   0  0  0  0  0  0  0  0  0  0  0  0
   -2.6042    1.7969   -5.9885 H   0  0  0  0  0  0  0  0  0  0  0  0
   -1.0760    3.6618   -6.2647 H   0  0  0  0  0  0  0  0  0  0  0  0
   -0.1811    2.2948   -5.5808 H   0  0  0  0  0  0  0  0  0  0  0  0
   -0.8796    0.1222   -7.8069 H   0  0  0  0  0  0  0  0  0  0  0  0
    0.7982    1.4574   -7.9021 H   0  0  0  0  0  0  0  0  0  0  0  0
    0.2486   -2.0581   -5.0575 H   0  0  0  0  0  0  0  0  0  0  0  0
   -0.2212   -3.6999   -5.5863 H   0  0  0  0  0  0  0  0  0  0  0  0
   -0.7895   -2.0855   -7.3311 H   0  0  0  0  0  0  0  0  0  0  0  0
   -2.3047   -2.6877   -6.6570 H   0  0  0  0  0  0  0  0  0  0  0  0
   -1.4281   -1.9682   -3.5986 H   0  0  0  0  0  0  0  0  0  0  0  0
   -2.6073   -1.5544   -0.9954 H   0  0  0  0  0  0  0  0  0  0  0  0
   -3.7068   -2.4468    0.0070 H   0  0  0  0  0  0  0  0  0  0  0  0
   -2.8334   -1.2752   -3.1738 H   0  0  0  0  0  0  0  0  0  0  0  0
   -3.5508   -2.6105   -4.3126 H   0  0  0  0  0  0  0  0  0  0  0  0
   -4.2293   -1.2200   -3.9555 H   0  0  0  0  0  0  0  0  0  0  0  0
   -5.2435   -4.0430   -1.0907 H   0  0  0  0  0  0  0  0  0  0  0  0
   -6.0214   -2.6011   -1.5982 H   0  0  0  0  0  0  0  0  0  0  0  0
   -5.6669   -3.8124   -2.8280 H   0  0  0  0  0  0  0  0  0  0  0  0
   -2.3114   -4.1119   -1.3247 H   0  0  0  0  0  0  0  0  0  0  0  0
   -4.0441   -5.0578   -3.3641 H   0  0  0  0  0  0  0  0  0  0  0  0
   -6.4815   -0.4393   -3.1110 H   0  0  0  0  0  0  0  0  0  0  0  0
   -1.7807    0.5189   -2.9451 H   0  0  0  0  0  0  0  0  0  0  0  0
   -3.0414    0.6186    2.8606 H   0  0  0  0  0  0  0  0  0  0  0  0
   -2.3640    1.9236    1.9578 H   0  0  0  0  0  0  0  0  0  0  0  0
    0.9038   -1.3830    1.4084 H   0  0  0  0  0  0  0  0  0  0  0  0
    0.9334   -1.0375    6.2985 H   0  0  0  0  0  0  0  0  0  0  0  0
   -5.3931   -0.5172    5.1327 H   0  0  0  0  0  0  0  0  0  0  0  0
   -2.4630    0.2289    9.4815 H   0  0  0  0  0  0  0  0  0  0  0  0
   -4.2177    0.4498    9.4032 H   0  0  0  0  0  0  0  0  0  0  0  0
  1 45  1  1  0  0  0
  1 35  1  0  0  0  0
  2  1  1  0  0  0  0
  3  1  1  0  0  0  0
  3  6  1  0  0  0  0
  3 46  1  1  0  0  0
  4  2  1  0  0  0  0
  4 47  1  6  0  0  0
  4 33  1  0  0  0  0
  5  3  1  0  0  0  0
  5  4  1  0  0  0  0
  5 34  1  0  0  0  0
  5 48  1  6  0  0  0
  6 49  1  0  0  0  0
  7  8  1  0  0  0  0
  7 50  1  0  0  0  0
  7 51  1  0  0  0  0
  8 12  1  0  0  0  0
  8 52  1  0  0  0  0
  8 53  1  0  0  0  0
  9  7  1  0  0  0  0
  9 54  1  0  0  0  0
 10  9  1  0  0  0  0
 10 11  2  0  0  0  0
 12 55  1  0  0  0  0
 13 15  1  0  0  0  0
 13 56  1  0  0  0  0
 13 57  1  0  0  0  0
 14 10  1  0  0  0  0
 14 13  1  0  0  0  0
 14 58  1  0  0  0  0
 14 59  1  0  0  0  0
 15 60  1  0  0  0  0
 17 15  1  0  0  0  0
 17 16  2  0  0  0  0
 18 24  1  0  0  0  0
 18 61  1  0  0  0  0
 18 62  1  0  0  0  0
 19 63  1  0  0  0  0
 19 64  1  0  0  0  0
 19 65  1  0  0  0  0
 20 18  1  0  0  0  0
 20 19  1  0  0  0  0
 20 21  1  0  0  0  0
 21 66  1  0  0  0  0
 21 67  1  0  0  0  0
 21 68  1  0  0  0  0
 22 23  1  0  0  0  0
 22 69  1  1  0  0  0
 22 20  1  0  0  0  0
 22 17  1  0  0  0  0
 23 70  1  0  0  0  0
 24 31  1  0  0  0  0
 25 32  1  0  0  0  0
 28 71  1  0  0  0  0
 30 72  1  0  0  0  0
 31 25  1  0  0  0  0
 31 27  2  0  0  0  0
 31 28  1  0  0  0  0
 32 26  1  0  0  0  0
 32 29  2  0  0  0  0
 32 30  1  0  0  0  0
 33 26  1  0  0  0  0
 33 73  1  0  0  0  0
 33 74  1  0  0  0  0
 34 75  1  0  0  0  0
 36 35  1  0  0  0  0
 37 35  1  0  0  0  0
 37 76  1  0  0  0  0
 38 36  2  0  0  0  0
 39 36  1  0  0  0  0
 40 37  2  0  0  0  0
 40 38  1  0  0  0  0
 41 38  1  0  0  0  0
 42 39  2  0  0  0  0
 42 77  1  0  0  0  0
 43 41  2  0  0  0  0
 43 42  1  0  0  0  0
 44 41  1  0  0  0  0
 44 78  1  0  0  0  0
 44 79  1  0  0  0  0
M  END
>  <DRUGBANK_ID>
DB03170

>  <SECONDARY_ACCESSION_NUMBERS>
EXPT00980

>  <COMMON_NAME>
Dephospho Coenzyme A

$$$$
