CDB
 OpenBabel10282417163D

 55 57  0  0  0  0  0  0  0  0999 V2000
    1.2490    0.0440   -0.1100 N   0  3  0  0  0  0  0  0  0  0  0  0
    0.5553    1.2041   -0.0160 C   0  0  0  0  0  0  0  0  0  0  0  0
   -0.8376    1.1417    0.0194 C   0  0  0  0  0  0  0  0  0  0  0  0
   -1.4655   -0.0994    0.0101 C   0  0  0  0  0  0  0  0  0  0  0  0
   -0.7068   -1.2645    0.0094 C   0  0  0  0  0  0  0  0  0  0  0  0
    0.6710   -1.1663   -0.0436 C   0  0  0  0  0  0  0  0  0  0  0  0
    1.2966    2.5188    0.0044 C   0  0  0  0  0  0  0  0  0  0  0  0
    2.2146    2.6332    1.2474 C   0  0  0  0  0  0  0  0  0  0  0  0
    2.1024    2.6206   -1.0950 F   0  0  0  0  0  0  0  0  0  0  0  0
    0.4726    3.5974   -0.0290 F   0  0  0  0  0  0  0  0  0  0  0  0
    3.3137    1.5863    1.1881 N   0  0  0  0  0  0  0  0  0  0  0  0
    4.6009    1.9484    1.1389 C   0  0  0  0  0  0  0  0  0  0  0  0
    5.1121    2.9606    2.0936 C   0  0  0  0  0  0  0  0  0  0  0  0
    6.4849    3.2076    2.0517 N   0  0  0  0  0  0  0  0  0  0  0  0
    7.2640    2.6945    1.0104 C   0  0  0  0  0  0  0  0  0  0  0  0
    6.7248    1.8244    0.1439 C   0  0  0  0  0  0  0  0  0  0  0  0
    5.4498    1.3295    0.3252 N   0  3  0  0  0  0  0  0  0  0  0  0
    4.3203    3.4881    2.8847 O   0  0  0  0  0  0  0  0  0  0  0  0
    8.7213    3.0375    0.8799 C   0  0  0  0  0  0  0  0  0  0  0  0
    7.0894    3.9981    3.1435 C   0  0  0  0  0  0  0  0  0  0  0  0
    8.1047    3.1453    3.9368 C   0  0  0  0  0  0  0  0  0  0  0  0
    9.3916    3.6445    4.0068 N   0  0  0  0  0  0  0  0  0  0  0  0
    7.7768    2.0482    4.3853 O   0  0  0  0  0  0  0  0  0  0  0  0
   10.5026    2.9000    4.6159 C   0  0  0  0  0  0  0  0  0  0  0  0
   11.6007    2.5533    3.6302 C   0  0  0  0  0  0  0  0  0  0  0  0
   12.3381    3.5673    3.0282 C   0  0  0  0  0  0  0  0  0  0  0  0
   13.1619    3.2723    1.9428 C   0  0  0  0  0  0  0  0  0  0  0  0
   13.2519    1.9457    1.5220 C   0  0  0  0  0  0  0  0  0  0  0  0
   11.8098    1.2446    3.3246 N   0  0  0  0  0  0  0  0  0  0  0  0
   12.2291    4.8283    3.4700 F   0  0  0  0  0  0  0  0  0  0  0  0
   12.6798    0.9732    2.3238 C   0  0  0  0  0  0  0  0  0  0  0  0
   13.9860    4.3317    1.2810 C   0  0  0  0  0  0  0  0  0  0  0  0
    2.2496    0.0722   -0.2973 H   0  0  0  0  0  0  0  0  0  0  0  0
   -1.4371    2.0527    0.0281 H   0  0  0  0  0  0  0  0  0  0  0  0
   -2.5540   -0.1574    0.0016 H   0  0  0  0  0  0  0  0  0  0  0  0
   -1.1895   -2.2397    0.0198 H   0  0  0  0  0  0  0  0  0  0  0  0
    1.3271   -2.0325   -0.0540 H   0  0  0  0  0  0  0  0  0  0  0  0
    2.6608    3.6329    1.2166 H   0  0  0  0  0  0  0  0  0  0  0  0
    1.6557    2.5197    2.1812 H   0  0  0  0  0  0  0  0  0  0  0  0
    3.1671    0.6574    1.5722 H   0  0  0  0  0  0  0  0  0  0  0  0
    7.2818    1.4615   -0.7205 H   0  0  0  0  0  0  0  0  0  0  0  0
    5.1780    0.5352   -0.2375 H   0  0  0  0  0  0  0  0  0  0  0  0
    9.3234    2.1281    0.9895 H   0  0  0  0  0  0  0  0  0  0  0  0
    8.9419    3.5182   -0.0749 H   0  0  0  0  0  0  0  0  0  0  0  0
    9.0694    3.7382    1.6293 H   0  0  0  0  0  0  0  0  0  0  0  0
    7.5238    4.9033    2.7121 H   0  0  0  0  0  0  0  0  0  0  0  0
    6.3165    4.3094    3.8552 H   0  0  0  0  0  0  0  0  0  0  0  0
    9.6332    4.5269    3.5693 H   0  0  0  0  0  0  0  0  0  0  0  0
   10.9136    3.5301    5.4098 H   0  0  0  0  0  0  0  0  0  0  0  0
   10.1178    1.9815    5.0673 H   0  0  0  0  0  0  0  0  0  0  0  0
   13.8067    1.6668    0.6311 H   0  0  0  0  0  0  0  0  0  0  0  0
   12.9394   -0.0751    2.1918 H   0  0  0  0  0  0  0  0  0  0  0  0
   15.0455    4.0571    1.3336 H   0  0  0  0  0  0  0  0  0  0  0  0
   13.6946    4.4542    0.2344 H   0  0  0  0  0  0  0  0  0  0  0  0
   13.8754    5.2964    1.7856 H   0  0  0  0  0  0  0  0  0  0  0  0
  1  2  2  0  0  0  0
  1  6  1  0  0  0  0
  1 33  1  0  0  0  0
  2  3  1  0  0  0  0
  2  7  1  0  0  0  0
  3  4  2  0  0  0  0
  3 34  1  0  0  0  0
  4  5  1  0  0  0  0
  4 35  1  0  0  0  0
  5  6  2  0  0  0  0
  5 36  1  0  0  0  0
  6 37  1  0  0  0  0
  7  8  1  0  0  0  0
  7  9  1  0  0  0  0
  7 10  1  0  0  0  0
  8 11  1  0  0  0  0
  8 38  1  0  0  0  0
  8 39  1  0  0  0  0
 11 12  1  0  0  0  0
 11 40  1  0  0  0  0
 12 13  1  0  0  0  0
 12 17  2  0  0  0  0
 13 14  1  0  0  0  0
 13 18  2  0  0  0  0
 14 15  1  0  0  0  0
 14 20  1  0  0  0  0
 15 16  2  0  0  0  0
 15 19  1  0  0  0  0
 16 17  1  0  0  0  0
 16 41  1  0  0  0  0
 17 42  1  0  0  0  0
 19 43  1  0  0  0  0
 19 44  1  0  0  0  0
 19 45  1  0  0  0  0
 20 21  1  0  0  0  0
 20 46  1  0  0  0  0
 20 47  1  0  0  0  0
 21 22  1  0  0  0  0
 21 23  2  0  0  0  0
 22 24  1  0  0  0  0
 22 48  1  0  0  0  0
 24 25  1  0  0  0  0
 24 49  1  0  0  0  0
 24 50  1  0  0  0  0
 25 26  2  0  0  0  0
 25 29  1  0  0  0  0
 26 27  1  0  0  0  0
 26 30  1  0  0  0  0
 27 28  2  0  0  0  0
 27 32  1  0  0  0  0
 28 31  1  0  0  0  0
 28 51  1  0  0  0  0
 29 31  2  0  0  0  0
 31 52  1  0  0  0  0
 32 53  1  0  0  0  0
 32 54  1  0  0  0  0
 32 55  1  0  0  0  0
M  CHG  2   1   1  17   1
M  END
>  <DRUGBANK_ID>
DB07549

>  <COMMON_NAME>
2-(6-CHLORO-3-{[2,2-DIFLUORO-2-(2-PYRIDINYL)ETHYL]AMINO}-2-OXO-1(2H)-PYRAZINYL)-N-[(2-FLUORO-3-METHYL-6-PYRIDINYL)METHYL]ACETAMIDE

$$$$
