
 OpenBabel10282417233D

 50 53  0  0  0  0  0  0  0  0999 V2000
    2.6415   -0.0593   -0.0176 C   0  0  0  0  0  0  0  0  0  0  0  0
    1.1576   -0.0446   -0.0527 C   0  0  0  0  0  0  0  0  0  0  0  0
    0.5368    1.2004   -0.1013 C   0  0  0  0  0  0  0  0  0  0  0  0
   -0.8296    1.3160   -0.1096 C   0  0  0  0  0  0  0  0  0  0  0  0
   -1.5629    0.1205   -0.1522 C   0  0  0  0  0  0  0  0  0  0  0  0
   -0.9704   -1.1453   -0.0779 C   0  0  0  0  0  0  0  0  0  0  0  0
    0.4079   -1.2243   -0.0231 C   0  0  0  0  0  0  0  0  0  0  0  0
   -1.3059    2.5881    0.1720 N   0  0  0  0  0  0  0  0  0  0  0  0
   -1.4525    3.6075   -0.8798 C   0  0  0  0  0  0  0  0  0  0  0  0
   -1.7492    4.9720   -0.1924 C   0  0  0  0  0  0  0  0  0  0  0  0
   -2.8875    5.0071    0.7528 N   0  0  0  0  0  0  0  0  0  0  0  0
   -4.2552    4.9510    0.1611 C   0  0  0  0  0  0  0  0  0  0  0  0
   -4.8549    3.7257   -0.6170 C   0  0  0  0  0  0  0  0  0  0  0  0
   -5.1976    2.4734    0.2032 C   0  0  0  0  0  0  0  0  0  0  0  0
   -4.9736    1.2078   -0.3576 C   0  0  0  0  0  0  0  0  0  0  0  0
   -4.8373    0.1071    0.5030 C   0  0  0  0  0  0  0  0  0  0  0  0
   -4.7890    0.2792    1.8913 C   0  0  0  0  0  0  0  0  0  0  0  0
   -4.4649   -0.7618    2.7813 C   0  0  0  0  0  0  0  0  0  0  0  0
   -4.3636   -0.5347    4.1510 C   0  0  0  0  0  0  0  0  0  0  0  0
   -4.4508    0.7683    4.6285 C   0  0  0  0  0  0  0  0  0  0  0  0
   -4.7286    1.8049    3.7345 C   0  0  0  0  0  0  0  0  0  0  0  0
   -4.9971    1.5913    2.3833 C   0  0  0  0  0  0  0  0  0  0  0  0
   -5.2960    2.6219    1.5548 N   0  0  0  0  0  0  0  0  0  0  0  0
   -2.6322    3.9842    1.7850 C   0  0  0  0  0  0  0  0  0  0  0  0
   -2.3393    2.6056    1.1852 C   0  0  0  0  0  0  0  0  0  0  0  0
    2.9867   -0.5746    0.8795 H   0  0  0  0  0  0  0  0  0  0  0  0
    3.0044   -0.5418   -0.9254 H   0  0  0  0  0  0  0  0  0  0  0  0
    3.0277    0.9660    0.0060 H   0  0  0  0  0  0  0  0  0  0  0  0
    1.1087    2.1199   -0.0295 H   0  0  0  0  0  0  0  0  0  0  0  0
   -2.6289    0.1439   -0.2202 H   0  0  0  0  0  0  0  0  0  0  0  0
   -1.5796   -2.0473   -0.0437 H   0  0  0  0  0  0  0  0  0  0  0  0
    0.8943   -2.1934    0.0382 H   0  0  0  0  0  0  0  0  0  0  0  0
   -0.5359    3.6912   -1.4716 H   0  0  0  0  0  0  0  0  0  0  0  0
   -2.2424    3.3584   -1.5931 H   0  0  0  0  0  0  0  0  0  0  0  0
   -0.8522    5.2053    0.4041 H   0  0  0  0  0  0  0  0  0  0  0  0
   -1.8347    5.7870   -0.9154 H   0  0  0  0  0  0  0  0  0  0  0  0
   -4.9693    5.2055    0.9567 H   0  0  0  0  0  0  0  0  0  0  0  0
   -4.3069    5.8100   -0.5231 H   0  0  0  0  0  0  0  0  0  0  0  0
   -5.7653    4.0386   -1.1411 H   0  0  0  0  0  0  0  0  0  0  0  0
   -4.1655    3.4686   -1.4253 H   0  0  0  0  0  0  0  0  0  0  0  0
   -4.6545    1.1075   -1.3955 H   0  0  0  0  0  0  0  0  0  0  0  0
   -4.5525   -0.8625    0.0820 H   0  0  0  0  0  0  0  0  0  0  0  0
   -4.2847   -1.7711    2.4062 H   0  0  0  0  0  0  0  0  0  0  0  0
   -4.2050   -1.3581    4.8412 H   0  0  0  0  0  0  0  0  0  0  0  0
   -4.3133    0.9761    5.6863 H   0  0  0  0  0  0  0  0  0  0  0  0
   -4.6919    2.8308    4.1097 H   0  0  0  0  0  0  0  0  0  0  0  0
   -1.7753    4.2731    2.4072 H   0  0  0  0  0  0  0  0  0  0  0  0
   -3.4720    3.9719    2.4836 H   0  0  0  0  0  0  0  0  0  0  0  0
   -3.1587    2.3278    0.5884 H   0  0  0  0  0  0  0  0  0  0  0  0
   -2.2239    1.8379    1.9546 H   0  0  0  0  0  0  0  0  0  0  0  0
  1  2  1  0  0  0  0
  1 26  1  0  0  0  0
  1 27  1  0  0  0  0
  1 28  1  0  0  0  0
  2  3  2  0  0  0  0
  2  7  1  0  0  0  0
  3  4  1  0  0  0  0
  3 29  1  0  0  0  0
  4  5  2  0  0  0  0
  4  8  1  0  0  0  0
  5  6  1  0  0  0  0
  5 30  1  0  0  0  0
  6  7  2  0  0  0  0
  6 31  1  0  0  0  0
  7 32  1  0  0  0  0
  8  9  1  0  0  0  0
  8 25  1  0  0  0  0
  9 10  1  0  0  0  0
  9 33  1  0  0  0  0
  9 34  1  0  0  0  0
 10 11  1  0  0  0  0
 10 35  1  0  0  0  0
 10 36  1  0  0  0  0
 11 12  1  0  0  0  0
 11 24  1  0  0  0  0
 12 13  1  0  0  0  0
 12 37  1  0  0  0  0
 12 38  1  0  0  0  0
 13 14  1  0  0  0  0
 13 39  1  0  0  0  0
 13 40  1  0  0  0  0
 14 15  2  0  0  0  0
 14 23  1  0  0  0  0
 15 16  1  0  0  0  0
 15 41  1  0  0  0  0
 16 17  2  0  0  0  0
 16 42  1  0  0  0  0
 17 18  1  0  0  0  0
 17 22  1  0  0  0  0
 18 19  2  0  0  0  0
 18 43  1  0  0  0  0
 19 20  1  0  0  0  0
 19 44  1  0  0  0  0
 20 21  2  0  0  0  0
 20 45  1  0  0  0  0
 21 22  1  0  0  0  0
 21 46  1  0  0  0  0
 22 23  2  0  0  0  0
 24 25  1  0  0  0  0
 24 47  1  0  0  0  0
 24 48  1  0  0  0  0
 25 49  1  0  0  0  0
 25 50  1  0  0  0  0
M  END
>  <DRUGBANK_ID>
DB16122

>  <COMMON_NAME>
Centhaquine

>  <CAS_NUMBER>
57961-90-7

>  <UNII>
QD4VI0J9T5

>  <SYNONYMS>
Centhaquine; Compound-7173

$$$$
