
 OpenBabel10282417153D

 36 36  0  0  0  0  0  0  0  0999 V2000
    1.0691   -0.1551    0.1632 C   0  0  0  0  0  0  0  0  0  0  0  0
    0.5945   -0.7265   -1.1837 C   0  0  0  0  0  0  0  0  0  0  0  0
    1.1377   -2.1533   -1.3217 C   0  0  0  0  0  0  0  0  0  0  0  0
   -0.9083   -0.5713   -1.2269 C   0  0  0  0  0  0  0  0  0  0  0  0
   -1.6290   -1.7187   -0.9214 C   0  0  0  0  0  0  0  0  0  0  0  0
   -2.9186   -1.6325   -0.4505 C   0  0  0  0  0  0  0  0  0  0  0  0
   -3.7015   -0.5601   -0.7922 C   0  0  0  0  0  0  0  0  0  0  0  0
   -3.0347    0.6407   -1.0689 C   0  0  0  0  0  0  0  0  0  0  0  0
   -1.6228    0.6431   -1.2811 C   0  0  0  0  0  0  0  0  0  0  0  0
   -0.8794    2.2407   -1.6522 S   0  0  0  0  0  0  0  0  0  0  0  0
   -1.5473    2.6922   -2.8700 O   0  0  0  0  0  0  0  0  0  0  0  0
   -0.9585    3.0067   -0.4332 O   0  0  0  0  0  0  0  0  0  0  0  0
    0.8359    2.0982   -2.0831 C   0  0  0  0  0  0  0  0  0  0  0  0
   -5.1822   -0.7631   -0.9173 C   0  0  0  0  0  0  0  0  0  0  0  0
   -5.9200    0.2209   -0.9358 O   0  0  0  0  0  0  0  0  0  0  0  0
   -5.7512   -2.0704   -1.0567 N   0  0  0  0  0  0  0  0  0  0  0  0
   -5.3150   -3.3719   -1.3170 C   0  0  0  0  0  0  0  0  0  0  0  0
   -6.0880   -4.3870   -1.1470 N   0  0  0  0  0  0  0  0  0  0  0  0
   -4.0851   -3.6680   -1.7770 N   0  0  0  0  0  0  0  0  0  0  0  0
    0.7312   -0.7733    1.0010 H   0  0  0  0  0  0  0  0  0  0  0  0
    0.6702    0.8429    0.3775 H   0  0  0  0  0  0  0  0  0  0  0  0
    2.1595   -0.0902    0.1847 H   0  0  0  0  0  0  0  0  0  0  0  0
    1.0224   -0.2338   -2.0492 H   0  0  0  0  0  0  0  0  0  0  0  0
    0.8342   -2.7856   -0.4804 H   0  0  0  0  0  0  0  0  0  0  0  0
    0.7845   -2.6092   -2.2539 H   0  0  0  0  0  0  0  0  0  0  0  0
    2.2301   -2.1389   -1.3428 H   0  0  0  0  0  0  0  0  0  0  0  0
   -1.1894   -2.7100   -0.9710 H   0  0  0  0  0  0  0  0  0  0  0  0
   -3.3338   -2.4901    0.0611 H   0  0  0  0  0  0  0  0  0  0  0  0
   -3.5999    1.5743   -1.0624 H   0  0  0  0  0  0  0  0  0  0  0  0
    1.4363    1.7392   -1.2526 H   0  0  0  0  0  0  0  0  0  0  0  0
    0.9424    1.4687   -2.9676 H   0  0  0  0  0  0  0  0  0  0  0  0
    1.2402    3.0818   -2.3152 H   0  0  0  0  0  0  0  0  0  0  0  0
   -6.7593   -1.9994   -0.9953 H   0  0  0  0  0  0  0  0  0  0  0  0
   -7.0394   -4.1488   -0.8854 H   0  0  0  0  0  0  0  0  0  0  0  0
   -3.5178   -2.9167   -2.1336 H   0  0  0  0  0  0  0  0  0  0  0  0
   -3.5858   -4.3361   -1.1952 H   0  0  0  0  0  0  0  0  0  0  0  0
  1  2  1  0  0  0  0
  1 20  1  0  0  0  0
  1 21  1  0  0  0  0
  1 22  1  0  0  0  0
  2  3  1  0  0  0  0
  2  4  1  0  0  0  0
  2 23  1  0  0  0  0
  3 24  1  0  0  0  0
  3 25  1  0  0  0  0
  3 26  1  0  0  0  0
  4  5  2  0  0  0  0
  4  9  1  0  0  0  0
  5  6  1  0  0  0  0
  5 27  1  0  0  0  0
  6  7  2  0  0  0  0
  6 28  1  0  0  0  0
  7  8  1  0  0  0  0
  7 14  1  0  0  0  0
  8  9  2  0  0  0  0
  8 29  1  0  0  0  0
  9 10  1  0  0  0  0
 10 11  2  0  0  0  0
 10 12  2  0  0  0  0
 10 13  1  0  0  0  0
 13 30  1  0  0  0  0
 13 31  1  0  0  0  0
 13 32  1  0  0  0  0
 14 15  2  0  0  0  0
 14 16  1  0  0  0  0
 16 17  1  0  0  0  0
 16 33  1  0  0  0  0
 17 18  2  0  0  0  0
 17 19  1  0  0  0  0
 18 34  1  0  0  0  0
 19 35  1  0  0  0  0
 19 36  1  0  0  0  0
M  END
>  <DRUGBANK_ID>
DB06468

>  <COMMON_NAME>
Cariporide

>  <CAS_NUMBER>
159138-80-4

>  <UNII>
7E3392891K

>  <SYNONYMS>
Cariporide

$$$$
