
 OpenBabel10282417123D

 75 82  0  0  0  0  0  0  0  0999 V2000
   -1.1920   -0.4252   -1.5320 C   0  0  0  0  0  0  0  0  0  0  0  0
    2.3517   -2.3942    9.1904 C   0  0  0  0  0  0  0  0  0  0  0  0
   -3.1127   -2.7731   -0.8179 C   0  0  0  0  0  0  0  0  0  0  0  0
   -0.4145   -5.9145    8.7312 C   0  0  0  0  0  0  0  0  0  0  0  0
   -5.4913    1.4505    1.1078 C   0  0  0  0  0  0  0  0  0  0  0  0
    2.6326    1.9983    7.0908 C   0  0  0  0  0  0  0  0  0  0  0  0
   -0.6632   -0.8601   -0.3565 C   0  0  0  0  0  0  0  0  0  0  0  0
    1.5459   -3.4861    9.0947 C   0  0  0  0  0  0  0  0  0  0  0  0
   -2.9486    3.1921    1.7192 C   0  0  0  0  0  0  0  0  0  0  0  0
    0.9288    3.5423    4.9494 C   0  0  0  0  0  0  0  0  0  0  0  0
   -2.8778    4.3003    2.7570 C   0  0  0  0  0  0  0  0  0  0  0  0
    1.1931    3.5355    3.4526 C   0  0  0  0  0  0  0  0  0  0  0  0
   -5.0010   -1.3706    3.3416 C   0  0  0  0  0  0  0  0  0  0  0  0
   -0.2471   -0.0085    2.4210 C   0  0  0  0  0  0  0  0  0  0  0  0
    0.8832   -1.2846    7.3992 C   0  0  0  0  0  0  0  0  0  0  0  0
   -1.3516    2.0538    3.8554 C   0  0  0  0  0  0  0  0  0  0  0  0
   -2.6478   -2.1866    0.5051 C   0  0  0  0  0  0  0  0  0  0  0  0
   -0.4707   -4.5787    8.0082 C   0  0  0  0  0  0  0  0  0  0  0  0
   -4.3847    1.1347    2.1008 C   0  0  0  0  0  0  0  0  0  0  0  0
    1.3959    1.4902    6.3678 C   0  0  0  0  0  0  0  0  0  0  0  0
   -1.5793   -1.3373    0.7586 C   0  0  0  0  0  0  0  0  0  0  0  0
    0.3709   -3.4813    8.1304 C   0  0  0  0  0  0  0  0  0  0  0  0
   -3.2486    1.8709    2.4084 C   0  0  0  0  0  0  0  0  0  0  0  0
    0.6147    2.1298    5.4148 C   0  0  0  0  0  0  0  0  0  0  0  0
   -3.3329   -2.4103    2.1370 C   0  0  0  0  0  0  0  0  0  0  0  0
   -4.2071   -0.2785    3.1748 C   0  0  0  0  0  0  0  0  0  0  0  0
   -1.6351   -4.0121    6.7813 C   0  0  0  0  0  0  0  0  0  0  0  0
    0.5698   -0.0832    6.5223 C   0  0  0  0  0  0  0  0  0  0  0  0
   -1.3867   -0.9474    2.0601 C   0  0  0  0  0  0  0  0  0  0  0  0
    0.0955   -2.3923    7.3423 C   0  0  0  0  0  0  0  0  0  0  0  0
   -2.4084    1.3535    3.3621 C   0  0  0  0  0  0  0  0  0  0  0  0
   -0.4534    1.4307    4.9115 C   0  0  0  0  0  0  0  0  0  0  0  0
   -1.7760    3.9887    3.7567 C   0  0  0  0  0  0  0  0  0  0  0  0
   -0.0382    3.0237    2.7230 C   0  0  0  0  0  0  0  0  0  0  0  0
   -2.1971   -1.0380    4.9576 Co  0  0  3  0  0  0  0  0  0  0  0  0
   -2.2276   -1.4112    3.0235 N   0  0  0  0  0  0  0  0  0  0  0  0
   -0.9746   -2.4334    6.5035 N   0  0  0  0  0  0  0  0  0  0  0  0
   -2.7158    0.1618    3.9415 N   0  0  0  0  0  0  0  0  0  0  0  0
   -0.6990    0.1733    5.3690 N   0  0  0  0  0  0  0  0  0  0  0  0
   -0.6888    4.8877    3.9182 O   0  0  0  0  0  0  0  0  0  0  0  0
   -1.8279    2.9236    4.4480 O   0  0  0  0  0  0  0  0  0  0  0  0
   -0.6960    3.8503    1.7741 O   0  0  0  0  0  0  0  0  0  0  0  0
   -0.4790    1.8559    2.9622 O   0  0  0  0  0  0  0  0  0  0  0  0
   -2.2528   -0.4190   -1.6716 H   0  0  0  0  0  0  0  0  0  0  0  0
   -0.5471   -0.0893   -2.3170 H   0  0  0  0  0  0  0  0  0  0  0  0
    3.1788   -2.3975    9.8692 H   0  0  0  0  0  0  0  0  0  0  0  0
    2.1584   -1.5321    8.5869 H   0  0  0  0  0  0  0  0  0  0  0  0
   -3.0766   -3.8413   -0.7668 H   0  0  0  0  0  0  0  0  0  0  0  0
   -4.1166   -2.4592   -1.0140 H   0  0  0  0  0  0  0  0  0  0  0  0
   -2.4722   -2.4317   -1.6041 H   0  0  0  0  0  0  0  0  0  0  0  0
   -1.3206   -6.0607    9.2813 H   0  0  0  0  0  0  0  0  0  0  0  0
   -0.3001   -6.7025    8.0164 H   0  0  0  0  0  0  0  0  0  0  0  0
    0.4167   -5.9207    9.4050 H   0  0  0  0  0  0  0  0  0  0  0  0
   -5.5428    0.6748    0.3726 H   0  0  0  0  0  0  0  0  0  0  0  0
   -6.4262    1.5150    1.6242 H   0  0  0  0  0  0  0  0  0  0  0  0
   -5.2840    2.3839    0.6276 H   0  0  0  0  0  0  0  0  0  0  0  0
    2.4504    2.0085    8.1451 H   0  0  0  0  0  0  0  0  0  0  0  0
    3.4600    1.3540    6.8782 H   0  0  0  0  0  0  0  0  0  0  0  0
    2.8581    2.9899    6.7582 H   0  0  0  0  0  0  0  0  0  0  0  0
    0.3976   -0.8663   -0.2168 H   0  0  0  0  0  0  0  0  0  0  0  0
    1.7392   -4.3482    9.6982 H   0  0  0  0  0  0  0  0  0  0  0  0
   -2.0116    3.1225    1.2072 H   0  0  0  0  0  0  0  0  0  0  0  0
   -3.7242    3.4114    1.0155 H   0  0  0  0  0  0  0  0  0  0  0  0
    0.0971    4.1810    5.1619 H   0  0  0  0  0  0  0  0  0  0  0  0
    1.7956    3.9025    5.4630 H   0  0  0  0  0  0  0  0  0  0  0  0
   -2.6666    5.2303    2.2718 H   0  0  0  0  0  0  0  0  0  0  0  0
   -3.8148    4.3699    3.2690 H   0  0  0  0  0  0  0  0  0  0  0  0
    1.4142    4.5298    3.1249 H   0  0  0  0  0  0  0  0  0  0  0  0
    2.0248    2.8967    3.2401 H   0  0  0  0  0  0  0  0  0  0  0  0
   -5.8995   -1.4712    2.7693 H   0  0  0  0  0  0  0  0  0  0  0  0
    0.4106    0.3525    1.6581 H   0  0  0  0  0  0  0  0  0  0  0  0
    1.7234   -1.2590    8.0613 H   0  0  0  0  0  0  0  0  0  0  0  0
   -1.1527    3.0433    3.5001 H   0  0  0  0  0  0  0  0  0  0  0  0
   -0.6479    5.7258    3.3742 H   0  0  0  0  0  0  0  0  0  0  0  0
   -0.3492    4.7692    1.5859 H   0  0  0  0  0  0  0  0  0  0  0  0
  1 44  1  0  0  0  0
  1 45  1  0  0  0  0
  2 46  1  0  0  0  0
  2 47  1  0  0  0  0
  3 48  1  0  0  0  0
  3 49  1  0  0  0  0
  3 50  1  0  0  0  0
  4 51  1  0  0  0  0
  4 52  1  0  0  0  0
  4 53  1  0  0  0  0
  5 54  1  0  0  0  0
  5 55  1  0  0  0  0
  5 56  1  0  0  0  0
  6 57  1  0  0  0  0
  6 58  1  0  0  0  0
  6 59  1  0  0  0  0
  7  1  2  0  0  0  0
  7 60  1  0  0  0  0
  8  2  2  0  0  0  0
  8 61  1  0  0  0  0
  9 62  1  0  0  0  0
  9 63  1  0  0  0  0
 10 64  1  0  0  0  0
 10 65  1  0  0  0  0
 11  9  1  0  0  0  0
 11 66  1  0  0  0  0
 11 67  1  0  0  0  0
 12 10  1  0  0  0  0
 12 68  1  0  0  0  0
 12 69  1  0  0  0  0
 13 70  1  0  0  0  0
 14 71  1  0  0  0  0
 15 72  1  0  0  0  0
 16 73  1  0  0  0  0
 17  3  1  0  0  0  0
 18  4  1  0  0  0  0
 19  5  1  0  0  0  0
 20  6  1  0  0  0  0
 21  7  1  0  0  0  0
 21 17  1  0  0  0  0
 22  8  1  0  0  0  0
 22 18  2  0  0  0  0
 23  9  1  0  0  0  0
 23 19  2  0  0  0  0
 24 10  1  0  0  0  0
 24 20  1  0  0  0  0
 25 13  1  0  0  0  0
 25 17  2  0  0  0  0
 26 13  2  0  0  0  0
 26 19  1  0  0  0  0
 27 14  2  0  0  0  0
 27 18  1  0  0  0  0
 28 15  1  0  0  0  0
 28 20  2  0  0  0  0
 29 14  1  0  0  0  0
 29 21  2  0  0  0  0
 30 15  2  0  0  0  0
 30 22  1  0  0  0  0
 31 16  2  0  0  0  0
 31 23  1  0  0  0  0
 32 16  1  0  0  0  0
 32 24  2  0  0  0  0
 33 11  1  0  0  0  0
 34 12  1  0  0  0  0
 36 25  1  0  0  0  0
 36 29  1  0  0  0  0
 36 35  1  0  0  0  0
 37 27  1  0  0  0  0
 37 30  1  0  0  0  0
 37 35  1  0  0  0  0
 38 26  1  0  0  0  0
 38 31  1  0  0  0  0
 38 35  1  0  0  0  0
 39 28  1  0  0  0  0
 39 32  1  0  0  0  0
 39 35  1  0  0  0  0
 40 33  1  0  0  0  0
 40 74  1  0  0  0  0
 41 33  2  0  0  0  0
 42 34  1  0  0  0  0
 42 75  1  0  0  0  0
 43 34  2  0  0  0  0
M  END
>  <DRUGBANK_ID>
DB02110

>  <SECONDARY_ACCESSION_NUMBERS>
EXPT00984

>  <COMMON_NAME>
Protoporphyrin Ix Containing Co

$$$$
