WAC
 OpenBabel10282417123D

 57 60  0  0  0  0  0  0  0  0999 V2000
    3.4695   -0.1420    0.0079 C   0  0  0  0  0  0  0  0  0  0  0  0
    2.5116   -1.1644   -0.0662 C   0  0  0  0  0  0  0  0  0  0  0  0
    1.1738   -0.7682   -0.2608 C   0  0  0  0  0  0  0  0  0  0  0  0
    0.8604    0.5752   -0.5419 C   0  0  0  0  0  0  0  0  0  0  0  0
    1.7803    1.5597   -0.1724 C   0  0  0  0  0  0  0  0  0  0  0  0
    3.0969    1.1982    0.0413 C   0  0  0  0  0  0  0  0  0  0  0  0
   -0.0530   -1.4416   -0.1907 N   0  0  0  0  0  0  0  0  0  0  0  0
   -1.0368   -0.4141   -0.3703 C   0  0  0  0  0  0  0  0  0  0  0  0
   -0.4931    0.6830   -0.9644 C   0  0  0  0  0  0  0  0  0  0  0  0
   -2.0403    0.1180    0.5939 C   0  0  1  0  0  0  0  0  0  0  0  0
   -3.3698    0.4901    0.4216 N   0  0  2  0  0  0  0  0  0  0  0  0
   -3.0192    1.5931   -0.7065 C   0  0  0  0  0  0  0  0  0  0  0  0
   -1.3864    1.8777   -1.0641 C   0  0  0  0  0  0  0  0  0  0  0  0
   -1.8894    1.8040    1.3461 C   0  0  0  0  0  0  0  0  0  0  0  0
   -0.8637    1.4474    2.2626 C   0  0  0  0  0  0  0  0  0  0  0  0
   -1.7256    0.3953    2.9371 C   0  0  0  0  0  0  0  0  0  0  0  0
   -3.3847    0.3398    2.1774 C   0  0  0  0  0  0  0  0  0  0  0  0
   -0.1055   -2.9326   -0.1135 C   0  0  0  0  0  0  0  0  0  0  0  0
   -0.7532   -3.6954    1.0720 C   0  0  0  0  0  0  0  0  0  0  0  0
   -2.2309   -3.3910    1.2292 C   0  0  0  0  0  0  0  0  0  0  0  0
   -2.9804   -3.6195   -0.0230 N   0  0  0  0  0  0  0  0  0  0  0  0
   -4.6719   -3.3835   -0.1173 S   0  0  0  0  0  0  0  0  0  0  0  0
   -4.7902   -1.6454   -0.2349 C   0  0  0  0  0  0  0  0  0  0  0  0
   -4.1526   -1.1542   -1.5322 C   0  0  0  0  0  0  0  0  0  0  0  0
   -6.1278   -0.9466   -0.0678 C   0  0  0  0  0  0  0  0  0  0  0  0
   -5.1143   -3.9208   -1.3542 O   0  0  0  0  0  0  0  0  0  0  0  0
   -5.2274   -3.7901    1.1845 O   0  0  0  0  0  0  0  0  0  0  0  0
   -0.9289    3.0185   -1.1313 O   0  0  0  0  0  0  0  0  0  0  0  0
   -2.2519   -0.8173    1.0583 H   0  0  0  0  0  0  0  0  0  0  0  0
    4.5257   -0.3889    0.0662 H   0  0  0  0  0  0  0  0  0  0  0  0
    2.8254   -2.2030    0.0102 H   0  0  0  0  0  0  0  0  0  0  0  0
    1.4410    2.5855   -0.0720 H   0  0  0  0  0  0  0  0  0  0  0  0
    3.8233    1.9906    0.1768 H   0  0  0  0  0  0  0  0  0  0  0  0
   -3.2595    1.2047   -1.6991 H   0  0  0  0  0  0  0  0  0  0  0  0
   -3.6335    2.4830   -0.5703 H   0  0  0  0  0  0  0  0  0  0  0  0
   -1.7152    2.7467    0.8279 H   0  0  0  0  0  0  0  0  0  0  0  0
   -2.8369    2.2243    1.8077 H   0  0  0  0  0  0  0  0  0  0  0  0
   -0.2484    2.2695    2.6201 H   0  0  0  0  0  0  0  0  0  0  0  0
   -0.1582    0.9608    1.6158 H   0  0  0  0  0  0  0  0  0  0  0  0
   -1.7450    0.4805    4.0135 H   0  0  0  0  0  0  0  0  0  0  0  0
   -1.1938   -0.5499    2.6954 H   0  0  0  0  0  0  0  0  0  0  0  0
   -4.0928    1.0317    2.6333 H   0  0  0  0  0  0  0  0  0  0  0  0
   -3.7153   -0.6854    2.4330 H   0  0  0  0  0  0  0  0  0  0  0  0
   -0.5112   -3.2954   -1.0643 H   0  0  0  0  0  0  0  0  0  0  0  0
    0.9338   -3.3042   -0.1297 H   0  0  0  0  0  0  0  0  0  0  0  0
   -0.6354   -4.7879    0.9578 H   0  0  0  0  0  0  0  0  0  0  0  0
   -0.2183   -3.4509    2.0018 H   0  0  0  0  0  0  0  0  0  0  0  0
   -2.6780   -3.9319    2.0642 H   0  0  0  0  0  0  0  0  0  0  0  0
   -2.2286   -2.3795    1.5648 H   0  0  0  0  0  0  0  0  0  0  0  0
   -2.5404   -3.3496   -0.9053 H   0  0  0  0  0  0  0  0  0  0  0  0
   -4.2855   -1.4114    0.6898 H   0  0  0  0  0  0  0  0  0  0  0  0
   -4.5299   -1.6094   -2.4408 H   0  0  0  0  0  0  0  0  0  0  0  0
   -4.4275   -0.1137   -1.6692 H   0  0  0  0  0  0  0  0  0  0  0  0
   -3.0663   -1.2752   -1.5453 H   0  0  0  0  0  0  0  0  0  0  0  0
   -6.6280   -1.2414    0.8550 H   0  0  0  0  0  0  0  0  0  0  0  0
   -5.9851    0.1471    0.0018 H   0  0  0  0  0  0  0  0  0  0  0  0
   -6.7629   -1.1287   -0.9329 H   0  0  0  0  0  0  0  0  0  0  0  0
  1  2  2  0  0  0  0
  1  6  1  0  0  0  0
  1 30  1  0  0  0  0
  2  3  1  0  0  0  0
  2 31  1  0  0  0  0
  3  4  2  0  0  0  0
  3  7  1  0  0  0  0
  4  5  1  0  0  0  0
  4  9  1  0  0  0  0
  5  6  2  0  0  0  0
  5 32  1  0  0  0  0
  6 33  1  0  0  0  0
  7  8  1  0  0  0  0
  7 18  1  0  0  0  0
  8  9  2  0  0  0  0
  8 10  1  0  0  0  0
  9 13  1  0  0  0  0
 10 11  1  0  0  0  0
 10 14  1  0  0  0  0
 10 29  1  6  0  0  0
 11 12  1  1  0  0  0
 11 17  1  0  0  0  0
 12 13  1  0  0  0  0
 12 34  1  0  0  0  0
 12 35  1  0  0  0  0
 13 28  2  0  0  0  0
 14 15  1  0  0  0  0
 14 36  1  0  0  0  0
 14 37  1  0  0  0  0
 15 16  1  0  0  0  0
 15 38  1  0  0  0  0
 15 39  1  0  0  0  0
 16 17  1  0  0  0  0
 16 40  1  0  0  0  0
 16 41  1  0  0  0  0
 17 42  1  0  0  0  0
 17 43  1  0  0  0  0
 18 19  1  0  0  0  0
 18 44  1  0  0  0  0
 18 45  1  0  0  0  0
 19 20  1  0  0  0  0
 19 46  1  0  0  0  0
 19 47  1  0  0  0  0
 20 21  1  0  0  0  0
 20 48  1  0  0  0  0
 20 49  1  0  0  0  0
 21 22  1  0  0  0  0
 21 50  1  0  0  0  0
 22 23  1  0  0  0  0
 22 26  2  0  0  0  0
 22 27  2  0  0  0  0
 23 24  1  0  0  0  0
 23 25  1  0  0  0  0
 23 51  1  0  0  0  0
 24 52  1  0  0  0  0
 24 53  1  0  0  0  0
 24 54  1  0  0  0  0
 25 55  1  0  0  0  0
 25 56  1  0  0  0  0
 25 57  1  0  0  0  0
M  END
>  <DRUGBANK_ID>
DB01967

>  <SECONDARY_ACCESSION_NUMBERS>
EXPT03238

>  <COMMON_NAME>
N-{3-[(7ar,12as,12bs)-7-Oxo-1,3,4,6,7,7a,12a,12b-Octahydroindolo[2,3-a]Quinolizin-12(2h)-Yl]Propyl}Propane-2-Sulfonamide

$$$$
