
 OpenBabel10282417143D

 57 60  0  0  0  0  0  0  0  0999 V2000
    2.9774   -1.6829   14.8573 C   0  0  0  0  0  0  0  0  0  0  0  0
   -4.2013    7.1320    5.8112 C   0  0  0  0  0  0  0  0  0  0  0  0
   -1.6458    0.7200   14.2461 C   0  0  0  0  0  0  0  0  0  0  0  0
   -3.7703    5.3065    9.8722 C   0  0  0  0  0  0  0  0  0  0  0  0
   -3.9224    3.7980    9.7671 C   0  0  0  0  0  0  0  0  0  0  0  0
   -0.3043    0.8963    9.2399 C   0  0  0  0  0  0  0  0  0  0  0  0
   -0.9422    6.3137    7.7335 C   0  0  0  0  0  0  0  0  0  0  0  0
   -1.9804    8.4116    7.1564 C   0  0  0  0  0  0  0  0  0  0  0  0
   -0.0066    6.9998    8.5147 C   0  0  0  0  0  0  0  0  0  0  0  0
   -1.0637    9.0937    7.9554 C   0  0  0  0  0  0  0  0  0  0  0  0
    0.2724    0.1389   10.2768 C   0  0  0  0  0  0  0  0  0  0  0  0
   -4.3920    5.8982    8.6290 C   0  0  0  0  0  0  0  0  0  0  0  0
   -2.0919    2.4976    8.4445 C   0  0  0  0  0  0  0  0  0  0  0  0
   -1.6140    1.9861   10.8734 C   0  0  0  0  0  0  0  0  0  0  0  0
    1.6845   -0.4239   13.0170 C   0  0  0  0  0  0  0  0  0  0  0  0
   -0.1743   -1.5694   13.3001 C   0  0  0  0  0  0  0  0  0  0  0  0
    1.7923   -1.3108   14.0671 C   0  0  0  0  0  0  0  0  0  0  0  0
   -3.1428    6.2215    6.4393 C   0  0  1  0  0  0  0  0  0  0  0  0
   -1.3318    1.7990    9.5185 C   0  0  0  0  0  0  0  0  0  0  0  0
   -1.9868    7.0047    7.0902 C   0  0  0  0  0  0  0  0  0  0  0  0
   -3.1762    3.3051    8.5587 C   0  0  0  0  0  0  0  0  0  0  0  0
   -0.0898    8.3809    8.6346 C   0  0  0  0  0  0  0  0  0  0  0  0
   -0.2247    0.2232   11.5929 C   0  0  0  0  0  0  0  0  0  0  0  0
   -1.2011    1.1517   11.9108 C   0  0  0  0  0  0  0  0  0  0  0  0
   -3.7068    3.9556    7.3054 C   0  0  0  0  0  0  0  0  0  0  0  0
    0.7894    9.0370    9.4022 F   0  0  0  0  0  0  0  0  0  0  0  0
    0.6059   -1.9674   14.2760 N   0  0  0  0  0  0  0  0  0  0  0  0
    0.3954   -0.5592   12.5703 N   0  0  0  0  0  0  0  0  0  0  0  0
   -3.7708    5.3352    7.4351 N   0  0  0  0  0  0  0  0  0  0  0  0
   -3.9780    3.3272    6.2847 O   0  0  0  0  0  0  0  0  0  0  0  0
   -1.8214    1.4959   13.0784 O   0  0  0  0  0  0  0  0  0  0  0  0
   -1.7319    2.2787    7.4337 H   0  0  0  0  0  0  0  0  0  0  0  0
   -2.7097    5.5973    5.6461 H   0  0  0  0  0  0  0  0  0  0  0  0
    2.7835   -1.6056   15.9306 H   0  0  0  0  0  0  0  0  0  0  0  0
    3.8385   -1.0601   14.6026 H   0  0  0  0  0  0  0  0  0  0  0  0
    3.2213   -2.7234   14.6219 H   0  0  0  0  0  0  0  0  0  0  0  0
   -4.6583    7.7892    6.5620 H   0  0  0  0  0  0  0  0  0  0  0  0
   -3.7582    7.7705    5.0396 H   0  0  0  0  0  0  0  0  0  0  0  0
   -5.0084    6.5524    5.3577 H   0  0  0  0  0  0  0  0  0  0  0  0
   -2.0388   -0.2852   14.0919 H   0  0  0  0  0  0  0  0  0  0  0  0
   -0.6022    0.7581   14.5627 H   0  0  0  0  0  0  0  0  0  0  0  0
   -2.2420    1.1283   15.0651 H   0  0  0  0  0  0  0  0  0  0  0  0
   -4.2698    5.6761   10.7716 H   0  0  0  0  0  0  0  0  0  0  0  0
   -2.7120    5.5906    9.9453 H   0  0  0  0  0  0  0  0  0  0  0  0
   -3.6558    3.3803   10.7207 H   0  0  0  0  0  0  0  0  0  0  0  0
   -4.9722    3.5031    9.6743 H   0  0  0  0  0  0  0  0  0  0  0  0
    0.0790    0.7734    8.2282 H   0  0  0  0  0  0  0  0  0  0  0  0
   -0.8736    5.2302    7.6642 H   0  0  0  0  0  0  0  0  0  0  0  0
   -2.7031    9.0109    6.6101 H   0  0  0  0  0  0  0  0  0  0  0  0
    0.7703    6.4630    9.0493 H   0  0  0  0  0  0  0  0  0  0  0  0
   -1.1214   10.1725    8.0584 H   0  0  0  0  0  0  0  0  0  0  0  0
    1.0762   -0.5567   10.0411 H   0  0  0  0  0  0  0  0  0  0  0  0
   -5.4544    5.6226    8.5927 H   0  0  0  0  0  0  0  0  0  0  0  0
   -4.3304    6.9881    8.6416 H   0  0  0  0  0  0  0  0  0  0  0  0
   -2.1174    2.8689   11.2164 H   0  0  0  0  0  0  0  0  0  0  0  0
    2.3816    0.2753   12.5760 H   0  0  0  0  0  0  0  0  0  0  0  0
   -1.1774   -1.9276   13.1107 H   0  0  0  0  0  0  0  0  0  0  0  0
  1 34  1  0  0  0  0
  1 35  1  0  0  0  0
  1 36  1  0  0  0  0
  2 37  1  0  0  0  0
  2 38  1  0  0  0  0
  2 39  1  0  0  0  0
  3 40  1  0  0  0  0
  3 41  1  0  0  0  0
  3 42  1  0  0  0  0
  4 43  1  0  0  0  0
  4 44  1  0  0  0  0
  5  4  1  0  0  0  0
  5 45  1  0  0  0  0
  5 46  1  0  0  0  0
  6 47  1  0  0  0  0
  7 48  1  0  0  0  0
  8 49  1  0  0  0  0
  9  7  1  0  0  0  0
  9 50  1  0  0  0  0
 10  8  2  0  0  0  0
 10 51  1  0  0  0  0
 11  6  2  0  0  0  0
 11 52  1  0  0  0  0
 12  4  1  0  0  0  0
 12 53  1  0  0  0  0
 12 54  1  0  0  0  0
 14 55  1  0  0  0  0
 15 56  1  0  0  0  0
 16 57  1  0  0  0  0
 17  1  1  0  0  0  0
 17 15  2  0  0  0  0
 18  2  1  0  0  0  0
 18 33  1  6  0  0  0
 19  6  1  0  0  0  0
 19 13  1  0  0  0  0
 19 14  2  0  0  0  0
 20  7  2  0  0  0  0
 20  8  1  0  0  0  0
 20 18  1  0  0  0  0
 21  5  1  0  0  0  0
 21 13  2  0  0  0  0
 22  9  2  0  0  0  0
 22 10  1  0  0  0  0
 23 11  1  0  0  0  0
 24 14  1  0  0  0  0
 24 23  2  0  0  0  0
 25 21  1  0  0  0  0
 26 22  1  0  0  0  0
 27 16  2  0  0  0  0
 27 17  1  0  0  0  0
 28 15  1  0  0  0  0
 28 16  1  0  0  0  0
 28 23  1  0  0  0  0
 29 12  1  0  0  0  0
 29 18  1  0  0  0  0
 29 25  1  0  0  0  0
 30 25  2  0  0  0  0
 31  3  1  0  0  0  0
 31 24  1  0  0  0  0
 32 13  1  0  0  0  0
M  END
>  <DRUGBANK_ID>
DB05171

>  <COMMON_NAME>
E-2012

>  <CAS_NUMBER>
870843-42-8

>  <UNII>
3LSD4Y5F0F

$$$$
