1097
 OpenBabel10282417113D

 28 29  0  0  0  0  0  0  0  0999 V2000
    1.0638   -0.0594   -0.0525 F   0  0  0  0  0  0  0  0  0  0  0  0
    2.7909   -1.3467   -0.3966 F   0  0  0  0  0  0  0  0  0  0  0  0
    2.8069    0.7142   -1.0887 F   0  0  0  0  0  0  0  0  0  0  0  0
    1.8349    5.2609    3.2543 O   0  0  0  0  0  0  0  0  0  0  0  0
    4.4406    3.5823    6.5558 O   0  0  0  0  0  0  0  0  0  0  0  0
    4.2915    2.0345    4.9145 N   0  0  0  0  0  0  0  0  0  0  0  0
    2.8235    6.1970    3.4984 N   0  0  0  0  0  0  0  0  0  0  0  0
    4.0771    1.4888    3.6240 C   0  0  0  0  0  0  0  0  0  0  0  0
    3.0205    0.3827    1.2483 C   0  0  0  0  0  0  0  0  0  0  0  0
    3.2763    4.2860    4.6657 C   0  0  0  0  0  0  0  0  0  0  0  0
    4.0983    0.1050    3.4243 C   0  0  0  0  0  0  0  0  0  0  0  0
    3.7392    2.2806    2.5360 C   0  0  0  0  0  0  0  0  0  0  0  0
    3.6011   -0.4432    2.2211 C   0  0  0  0  0  0  0  0  0  0  0  0
    3.0590    1.7519    1.4503 C   0  0  0  0  0  0  0  0  0  0  0  0
    4.0246    3.3033    5.4242 C   0  0  0  0  0  0  0  0  0  0  0  0
    2.0733    4.1387    3.9907 C   0  0  0  0  0  0  0  0  0  0  0  0
    2.4248   -0.0870   -0.0510 C   0  0  0  0  0  0  0  0  0  0  0  0
    3.6470    5.6219    4.3785 C   0  0  0  0  0  0  0  0  0  0  0  0
    1.1543    3.0038    3.7351 C   0  0  0  0  0  0  0  0  0  0  0  0
    4.6274    1.4069    5.6373 H   0  0  0  0  0  0  0  0  0  0  0  0
    4.4798   -0.5679    4.1895 H   0  0  0  0  0  0  0  0  0  0  0  0
    3.8578    3.3543    2.5369 H   0  0  0  0  0  0  0  0  0  0  0  0
    3.6500   -1.5183    2.0566 H   0  0  0  0  0  0  0  0  0  0  0  0
    2.5309    2.4275    0.7762 H   0  0  0  0  0  0  0  0  0  0  0  0
    4.5127    6.1782    4.7142 H   0  0  0  0  0  0  0  0  0  0  0  0
    0.1451    3.1733    4.1000 H   0  0  0  0  0  0  0  0  0  0  0  0
    1.0708    2.8385    2.6555 H   0  0  0  0  0  0  0  0  0  0  0  0
    1.5254    2.0790    4.1878 H   0  0  0  0  0  0  0  0  0  0  0  0
  1 17  1  0  0  0  0
  2 17  1  0  0  0  0
  3 17  1  0  0  0  0
  4  7  1  0  0  0  0
  4 16  1  0  0  0  0
  5 15  2  0  0  0  0
  6  8  1  0  0  0  0
  6 15  1  0  0  0  0
  6 20  1  0  0  0  0
  7 18  2  0  0  0  0
  8 11  2  0  0  0  0
  8 12  1  0  0  0  0
  9 13  2  0  0  0  0
  9 14  1  0  0  0  0
  9 17  1  0  0  0  0
 10 15  1  0  0  0  0
 10 16  2  0  0  0  0
 10 18  1  0  0  0  0
 11 13  1  0  0  0  0
 11 21  1  0  0  0  0
 12 14  2  0  0  0  0
 12 22  1  0  0  0  0
 13 23  1  0  0  0  0
 14 24  1  0  0  0  0
 16 19  1  0  0  0  0
 18 25  1  0  0  0  0
 19 26  1  0  0  0  0
 19 27  1  0  0  0  0
 19 28  1  0  0  0  0
M  END
>  <DRUGBANK_ID>
DB01097

>  <SECONDARY_ACCESSION_NUMBERS>
APRD00205

>  <COMMON_NAME>
Leflunomide

>  <CAS_NUMBER>
75706-12-6

>  <UNII>
G162GK9U4W

>  <SYNONYMS>
4-ISOXAZOLECARBOXAMIDE, 5-METHYL-N-(4-(TRIFLUOROMETHYL)PHENYL)-; 5-Methyl-N-(4-(trifluoromethyl)phenyl)-4-isoxazolecarboxamide; 5-Methylisoxazole-4-carboxylic acid (4-trifluoromethyl)anilide; alpha,alpha,alpha-Trifluoro-5-methyl-4-isoxazolecarboxy-p-toluidide; Leflunomida; Leflunomide; LÃ©flunomide; Leflunomidum; N-(4-(TRIFLUOROMETHYL)PHENYL) 5 METHYLISOXAZOLE-4-CARBOXAMIDE; N-[4-(trifluoromethyl)phenyl] 5 methylisoxazole-4-carboxamide

$$$$
