745
 OpenBabel10282417133D

 40 43  0  0  0  0  0  0  0  0999 V2000
    2.9960   -2.5304   -0.6587 C   0  0  0  0  0  0  0  0  0  0  0  0
    2.0461   -3.2314    0.1080 C   0  0  0  0  0  0  0  0  0  0  0  0
    1.2886   -4.3081   -0.4004 C   0  0  0  0  0  0  0  0  0  0  0  0
    1.4643   -4.7102   -1.7375 C   0  0  0  0  0  0  0  0  0  0  0  0
    2.3800   -4.0001   -2.5296 C   0  0  0  0  0  0  0  0  0  0  0  0
    3.1373   -2.9403   -1.9955 C   0  0  0  0  0  0  0  0  0  0  0  0
    0.3560   -4.9884    0.3941 C   0  0  0  0  0  0  0  0  0  0  0  0
   -0.3630   -6.0783   -0.1092 C   0  0  0  0  0  0  0  0  0  0  0  0
   -0.1869   -6.5046   -1.4314 C   0  0  0  0  0  0  0  0  0  0  0  0
    0.7225   -5.8036   -2.2391 C   0  0  0  0  0  0  0  0  0  0  0  0
   -0.9598   -7.6884   -1.9449 C   0  0  0  0  0  0  0  0  0  0  0  0
   -0.8574   -8.1507   -3.1574 N   0  0  0  0  0  0  0  0  0  0  0  0
   -1.8313   -8.3688   -1.1611 N   0  0  0  0  0  0  0  0  0  0  0  0
    3.6726   -1.2948   -0.0753 C   0  0  1  0  0  0  0  0  0  0  0  0
    4.7569   -1.3797    0.9942 C   0  0  2  0  0  0  0  0  0  0  0  0
    4.7709   -0.4514    2.2042 C   0  0  0  0  0  0  0  0  0  0  0  0
    3.8321   -0.6351    3.2367 C   0  0  0  0  0  0  0  0  0  0  0  0
    3.9432    0.0198    4.4704 C   0  0  0  0  0  0  0  0  0  0  0  0
    5.0071    0.8822    4.7073 C   0  0  0  0  0  0  0  0  0  0  0  0
    5.9413    1.1044    3.7001 C   0  0  0  0  0  0  0  0  0  0  0  0
    5.8025    0.4742    2.4523 C   0  0  0  0  0  0  0  0  0  0  0  0
    5.0959   -0.9154   -0.3971 C   0  0  0  0  0  0  0  0  0  0  0  0
    2.9820   -0.4601    0.0287 H   0  0  0  0  0  0  0  0  0  0  0  0
    5.1364   -2.3715    1.2375 H   0  0  0  0  0  0  0  0  0  0  0  0
    1.8718   -2.8996    1.1300 H   0  0  0  0  0  0  0  0  0  0  0  0
    2.4992   -4.2560   -3.5819 H   0  0  0  0  0  0  0  0  0  0  0  0
    3.8190   -2.4109   -2.6583 H   0  0  0  0  0  0  0  0  0  0  0  0
    0.1857   -4.6827    1.4245 H   0  0  0  0  0  0  0  0  0  0  0  0
   -1.0484   -6.5791    0.5645 H   0  0  0  0  0  0  0  0  0  0  0  0
    0.8895   -6.0984   -3.2702 H   0  0  0  0  0  0  0  0  0  0  0  0
   -0.1976   -7.6292   -3.7271 H   0  0  0  0  0  0  0  0  0  0  0  0
   -2.0491   -8.1501   -0.2027 H   0  0  0  0  0  0  0  0  0  0  0  0
   -2.3188   -9.1450   -1.5913 H   0  0  0  0  0  0  0  0  0  0  0  0
    3.0246   -1.3498    3.0981 H   0  0  0  0  0  0  0  0  0  0  0  0
    3.2235   -0.1822    5.2598 H   0  0  0  0  0  0  0  0  0  0  0  0
    5.1157    1.3657    5.6756 H   0  0  0  0  0  0  0  0  0  0  0  0
    6.8031    1.7378    3.8998 H   0  0  0  0  0  0  0  0  0  0  0  0
    6.5490    0.6758    1.6875 H   0  0  0  0  0  0  0  0  0  0  0  0
    5.7421   -1.5783   -0.9633 H   0  0  0  0  0  0  0  0  0  0  0  0
    5.2697    0.1337   -0.6083 H   0  0  0  0  0  0  0  0  0  0  0  0
  1  2  2  0  0  0  0
  1  6  1  0  0  0  0
  2  3  1  0  0  0  0
  2 25  1  0  0  0  0
  3  4  1  0  0  0  0
  3  7  2  0  0  0  0
  4  5  1  0  0  0  0
  4 10  2  0  0  0  0
  5  6  2  0  0  0  0
  5 26  1  0  0  0  0
  6 27  1  0  0  0  0
  7  8  1  0  0  0  0
  7 28  1  0  0  0  0
  8  9  2  0  0  0  0
  8 29  1  0  0  0  0
  9 10  1  0  0  0  0
  9 11  1  0  0  0  0
 10 30  1  0  0  0  0
 11 12  2  0  0  0  0
 11 13  1  0  0  0  0
 12 31  1  0  0  0  0
 13 32  1  0  0  0  0
 13 33  1  0  0  0  0
 14 15  1  0  0  0  0
 14 22  1  0  0  0  0
 14 23  1  1  0  0  0
 14  1  1  0  0  0  0
 15 16  1  0  0  0  0
 15 22  1  0  0  0  0
 15 24  1  1  0  0  0
 16 17  1  0  0  0  0
 16 21  2  0  0  0  0
 17 18  2  0  0  0  0
 17 34  1  0  0  0  0
 18 19  1  0  0  0  0
 18 35  1  0  0  0  0
 19 20  2  0  0  0  0
 19 36  1  0  0  0  0
 20 21  1  0  0  0  0
 20 37  1  0  0  0  0
 21 38  1  0  0  0  0
 22 39  1  0  0  0  0
 22 40  1  0  0  0  0
M  END
>  <DRUGBANK_ID>
DB03476

>  <SECONDARY_ACCESSION_NUMBERS>
EXPT00296

>  <COMMON_NAME>
Trans-6-(2-Phenylcyclopropyl)-Naphthalene-2-Carboxamidine

$$$$
