1362
 OpenBabel10282417113D

 60 60  0  0  1  0  0  0  0  0999 V2000
   -1.4240    1.5849   -2.1755 I   0  0  0  0  0  0  0  0  0  0  0  0
    2.5295    0.6544   -2.2224 I   0  0  0  0  0  0  0  0  0  0  0  0
   -0.8518   -3.5419   -0.0347 I   0  0  0  0  0  0  0  0  0  0  0  0
    1.6668    5.1992   -1.8401 O   0  0  0  0  0  0  0  0  0  0  0  0
    4.8125    3.4721   -1.3444 O   0  0  0  0  0  0  0  0  0  0  0  0
   -1.3268    3.6334    1.0732 O   0  0  0  0  0  0  0  0  0  0  0  0
    6.1372   -0.7836    1.6531 O   0  0  0  0  0  0  0  0  0  0  0  0
   -5.8672    2.1328   -0.8375 O   0  0  0  0  0  0  0  0  0  0  0  0
    2.0418   -3.2654    0.0807 O   0  0  0  0  0  0  0  0  0  0  0  0
   -3.2660   -1.9568    0.3753 O   0  0  0  0  0  0  0  0  0  0  0  0
    4.2259    2.3644    1.6042 O   0  0  0  0  0  0  0  0  0  0  0  0
   -2.8553    4.2758   -1.3874 O   0  0  0  0  0  0  0  0  0  0  0  0
    0.6533    3.0062    0.0521 N   0  0  0  0  0  0  0  0  0  0  0  0
    3.5443   -1.7429    0.3690 N   0  0  0  0  0  0  0  0  0  0  0  0
   -3.9145    0.1153    0.3155 N   0  0  0  0  0  0  0  0  0  0  0  0
    2.0115    3.4913   -0.0768 C   0  0  0  0  0  0  0  0  0  0  0  0
    0.3953    1.4821    0.1084 C   0  0  0  0  0  0  0  0  0  0  0  0
    2.4544    4.1185   -1.4096 C   0  0  3  0  0  0  0  0  0  0  0  0
   -0.9219    0.9575    0.0717 C   0  0  0  0  0  0  0  0  0  0  0  0
    1.3136    0.4093   -0.1225 C   0  0  0  0  0  0  0  0  0  0  0  0
   -1.3578   -0.4237    0.2105 C   0  0  0  0  0  0  0  0  0  0  0  0
    1.0580   -1.0190    0.0493 C   0  0  0  0  0  0  0  0  0  0  0  0
   -0.3170   -1.4101    0.1802 C   0  0  0  0  0  0  0  0  0  0  0  0
    3.9141    4.5722   -1.3510 C   0  0  0  0  0  0  0  0  0  0  0  0
   -0.2999    3.9618    0.5157 C   0  0  0  0  0  0  0  0  0  0  0  0
    2.2117   -2.0680    0.1394 C   0  0  0  0  0  0  0  0  0  0  0  0
   -2.8682   -0.7904    0.2958 C   0  0  0  0  0  0  0  0  0  0  0  0
    4.1687   -0.4513    0.3744 C   0  0  0  0  0  0  0  0  0  0  0  0
   -3.9036    1.5775    0.4510 C   0  0  0  0  0  0  0  0  0  0  0  0
    4.9560   -0.0113    1.5953 C   0  0  3  0  0  0  0  0  0  0  0  0
   -4.4360    2.3027   -0.8286 C   0  0  3  0  0  0  0  0  0  0  0  0
   -0.0649    5.4933    0.3315 C   0  0  0  0  0  0  0  0  0  0  0  0
    5.3374    1.4878    1.5128 C   0  0  0  0  0  0  0  0  0  0  0  0
   -4.1547    3.8354   -0.9991 C   0  0  0  0  0  0  0  0  0  0  0  0
    0.7976    4.8141   -2.0614 H   0  0  0  0  0  0  0  0  0  0  0  0
    4.6849    2.9921   -0.5134 H   0  0  0  0  0  0  0  0  0  0  0  0
    5.8629   -1.7048    1.5034 H   0  0  0  0  0  0  0  0  0  0  0  0
   -6.0226    1.1720   -0.8604 H   0  0  0  0  0  0  0  0  0  0  0  0
    3.5372    1.9255    1.1039 H   0  0  0  0  0  0  0  0  0  0  0  0
   -2.2475    4.0397   -0.6708 H   0  0  0  0  0  0  0  0  0  0  0  0
    4.1243   -2.5699    0.2124 H   0  0  0  0  0  0  0  0  0  0  0  0
   -4.8057   -0.3723    0.4370 H   0  0  0  0  0  0  0  0  0  0  0  0
    2.2494    4.1247    0.7925 H   0  0  0  0  0  0  0  0  0  0  0  0
    2.5925    2.6050   -0.0063 H   0  0  0  0  0  0  0  0  0  0  0  0
    2.3382    3.3883   -2.1993 H   0  0  0  0  0  0  0  0  0  0  0  0
    4.1361    5.1755   -2.2347 H   0  0  0  0  0  0  0  0  0  0  0  0
    4.1005    5.2007   -0.4721 H   0  0  0  0  0  0  0  0  0  0  0  0
    4.7649   -0.3946   -0.5394 H   0  0  0  0  0  0  0  0  0  0  0  0
    3.3617    0.2362    0.3796 H   0  0  0  0  0  0  0  0  0  0  0  0
   -4.5269    1.8206    1.3190 H   0  0  0  0  0  0  0  0  0  0  0  0
   -2.9009    1.8223    0.7520 H   0  0  0  0  0  0  0  0  0  0  0  0
    4.3298   -0.1778    2.4788 H   0  0  0  0  0  0  0  0  0  0  0  0
   -4.1150    1.7773   -1.7296 H   0  0  0  0  0  0  0  0  0  0  0  0
    0.6063    5.8947    1.0908 H   0  0  0  0  0  0  0  0  0  0  0  0
    0.2430    5.8885   -0.6261 H   0  0  0  0  0  0  0  0  0  0  0  0
   -1.0448    5.9796    0.4035 H   0  0  0  0  0  0  0  0  0  0  0  0
    6.0029    1.7662    2.3263 H   0  0  0  0  0  0  0  0  0  0  0  0
    5.8441    1.7132    0.5694 H   0  0  0  0  0  0  0  0  0  0  0  0
   -4.7991    4.2084   -1.8030 H   0  0  0  0  0  0  0  0  0  0  0  0
   -4.4233    4.3787   -0.0926 H   0  0  0  0  0  0  0  0  0  0  0  0
  1 19  1  0  0  0  0
  2 20  1  0  0  0  0
  3 23  1  0  0  0  0
  4 18  1  0  0  0  0
  4 35  1  0  0  0  0
  5 24  1  0  0  0  0
  5 36  1  0  0  0  0
  6 25  2  0  0  0  0
  7 30  1  0  0  0  0
  7 37  1  0  0  0  0
  8 31  1  0  0  0  0
  8 38  1  0  0  0  0
  9 26  2  0  0  0  0
 10 27  2  0  0  0  0
 11 33  1  0  0  0  0
 11 39  1  0  0  0  0
 12 34  1  0  0  0  0
 12 40  1  0  0  0  0
 13 16  1  0  0  0  0
 13 17  1  0  0  0  0
 13 25  1  0  0  0  0
 14 26  1  0  0  0  0
 14 28  1  0  0  0  0
 14 41  1  0  0  0  0
 15 27  1  0  0  0  0
 15 29  1  0  0  0  0
 15 42  1  0  0  0  0
 16 18  1  0  0  0  0
 16 43  1  0  0  0  0
 16 44  1  0  0  0  0
 17 19  2  0  0  0  0
 17 20  1  0  0  0  0
 18 24  1  0  0  0  0
 18 45  1  0  0  0  0
 19 21  1  0  0  0  0
 20 22  2  0  0  0  0
 21 23  2  0  0  0  0
 21 27  1  0  0  0  0
 22 23  1  0  0  0  0
 22 26  1  0  0  0  0
 24 46  1  0  0  0  0
 24 47  1  0  0  0  0
 25 32  1  0  0  0  0
 28 30  1  0  0  0  0
 28 48  1  0  0  0  0
 28 49  1  0  0  0  0
 29 31  1  0  0  0  0
 29 50  1  0  0  0  0
 29 51  1  0  0  0  0
 30 33  1  0  0  0  0
 30 52  1  0  0  0  0
 31 34  1  0  0  0  0
 31 53  1  0  0  0  0
 32 54  1  0  0  0  0
 32 55  1  0  0  0  0
 32 56  1  0  0  0  0
 33 57  1  0  0  0  0
 33 58  1  0  0  0  0
 34 59  1  0  0  0  0
 34 60  1  0  0  0  0
M  END
>  <DRUGBANK_ID>
DB01362

>  <COMMON_NAME>
Iohexol

>  <CAS_NUMBER>
66108-95-0

>  <UNII>
4419T9MX03

>  <SYNONYMS>
Iohexol; Iohexolum; N,N'-Bis(2,3-dihydroxypropyl)-5-(N-(2,3-dihydroxypropyl)acetamido)-2,4,6-triiodoisophthalamide

$$$$
