
 OpenBabel10282417123D

 39 41  0  0  0  0  0  0  0  0999 V2000
    0.8233    0.2209   -0.0351 C   0  0  0  0  0  0  0  0  0  0  0  0
    0.4583    0.0872   -1.4339 N   0  0  0  0  0  0  0  0  0  0  0  0
    0.1626   -1.0513   -2.1906 C   0  0  0  0  0  0  0  0  0  0  0  0
    0.1939   -2.5106   -1.7526 C   0  0  0  0  0  0  0  0  0  0  0  0
    1.5872   -3.0763   -1.4475 C   0  0  0  0  0  0  0  0  0  0  0  0
    2.2399   -2.4282   -0.2508 C   0  0  0  0  0  0  0  0  0  0  0  0
    1.4556   -2.5571    0.9276 O   0  0  0  0  0  0  0  0  0  0  0  0
   -0.2348   -0.6056   -3.4582 C   0  0  0  0  0  0  0  0  0  0  0  0
   -0.7037   -1.4703   -4.5954 C   0  0  0  0  0  0  0  0  0  0  0  0
    0.2969   -2.4069   -4.9864 O   0  0  0  0  0  0  0  0  0  0  0  0
   -0.1399    0.8198   -3.4567 C   0  0  0  0  0  0  0  0  0  0  0  0
    0.3229    1.2067   -2.2232 C   0  0  0  0  0  0  0  0  0  0  0  0
    0.5699    2.5802   -1.8798 C   0  0  0  0  0  0  0  0  0  0  0  0
    1.1836    2.9475   -0.8728 O   0  0  0  0  0  0  0  0  0  0  0  0
    0.0264    3.6005   -2.8331 C   0  0  0  0  0  0  0  0  0  0  0  0
   -0.4562    3.2766   -4.0542 C   0  0  0  0  0  0  0  0  0  0  0  0
   -0.9286    4.0314   -5.1123 N   0  0  0  0  0  0  0  0  0  0  0  0
   -0.7144    5.4035   -5.4777 C   0  0  0  0  0  0  0  0  0  0  0  0
   -2.0895    4.8938   -5.0954 C   0  0  0  0  0  0  0  0  0  0  0  0
   -0.4230    1.7924   -4.4918 C   0  0  0  0  0  0  0  0  0  0  0  0
   -0.6344    1.4548   -5.6570 O   0  0  0  0  0  0  0  0  0  0  0  0
    0.4091   -0.6024    0.5265 H   0  0  0  0  0  0  0  0  0  0  0  0
    0.3844    1.1132    0.4068 H   0  0  0  0  0  0  0  0  0  0  0  0
    1.9120    0.3184    0.0445 H   0  0  0  0  0  0  0  0  0  0  0  0
   -0.5175   -2.6750   -0.9373 H   0  0  0  0  0  0  0  0  0  0  0  0
   -0.2019   -3.1372   -2.5662 H   0  0  0  0  0  0  0  0  0  0  0  0
    1.5084   -4.1521   -1.2509 H   0  0  0  0  0  0  0  0  0  0  0  0
    2.2394   -2.9445   -2.3193 H   0  0  0  0  0  0  0  0  0  0  0  0
    3.2338   -2.8061   -0.0206 H   0  0  0  0  0  0  0  0  0  0  0  0
    2.4252   -1.3959   -0.5192 H   0  0  0  0  0  0  0  0  0  0  0  0
    0.5090   -2.4868    0.7140 H   0  0  0  0  0  0  0  0  0  0  0  0
   -1.5910   -2.0360   -4.2890 H   0  0  0  0  0  0  0  0  0  0  0  0
   -0.9826   -0.8934   -5.4779 H   0  0  0  0  0  0  0  0  0  0  0  0
    1.0783   -1.8761   -5.2149 H   0  0  0  0  0  0  0  0  0  0  0  0
    0.0905    4.6106   -2.4514 H   0  0  0  0  0  0  0  0  0  0  0  0
   -0.3018    6.1558   -4.8237 H   0  0  0  0  0  0  0  0  0  0  0  0
   -0.4465    5.4711   -6.5263 H   0  0  0  0  0  0  0  0  0  0  0  0
   -2.7918    4.6229   -5.8747 H   0  0  0  0  0  0  0  0  0  0  0  0
   -2.5028    5.3015   -4.1842 H   0  0  0  0  0  0  0  0  0  0  0  0
  1  2  1  0  0  0  0
  1 22  1  0  0  0  0
  1 23  1  0  0  0  0
  1 24  1  0  0  0  0
  2  3  1  0  0  0  0
  2 12  1  0  0  0  0
  3  4  1  0  0  0  0
  3  8  2  0  0  0  0
  4  5  1  0  0  0  0
  4 25  1  0  0  0  0
  4 26  1  0  0  0  0
  5  6  1  0  0  0  0
  5 27  1  0  0  0  0
  5 28  1  0  0  0  0
  6  7  1  0  0  0  0
  6 29  1  0  0  0  0
  6 30  1  0  0  0  0
  7 31  1  0  0  0  0
  8  9  1  0  0  0  0
  8 11  1  0  0  0  0
  9 10  1  0  0  0  0
  9 32  1  0  0  0  0
  9 33  1  0  0  0  0
 10 34  1  0  0  0  0
 11 12  2  0  0  0  0
 11 20  1  0  0  0  0
 12 13  1  0  0  0  0
 13 14  2  0  0  0  0
 13 15  1  0  0  0  0
 15 16  2  0  0  0  0
 15 35  1  0  0  0  0
 16 17  1  0  0  0  0
 16 20  1  0  0  0  0
 17 18  1  0  0  0  0
 17 19  1  0  0  0  0
 18 19  1  0  0  0  0
 18 36  1  0  0  0  0
 18 37  1  0  0  0  0
 19 38  1  0  0  0  0
 19 39  1  0  0  0  0
 20 21  2  0  0  0  0
M  END
>  <DRUGBANK_ID>
DB02395

>  <SECONDARY_ACCESSION_NUMBERS>
EXPT01312

>  <COMMON_NAME>
3-Hydroxymethyl-5-Aziridinyl-1methyl-2-[1h-Indole-4,7-Dione]-Propanol

$$$$
