935
 OpenBabel10282417113D

 43 44  0  0  0  0  0  0  0  0999 V2000
    2.4096    0.8633    0.0045 O   0  0  0  0  0  0  0  0  0  0  0  0
   -1.0079    4.1326    1.6203 N   0  0  0  0  0  0  0  0  0  0  0  0
   -2.9927    3.2838    2.2505 N   0  0  0  0  0  0  0  0  0  0  0  0
    1.6775   -1.9598   -0.0294 C   0  0  0  0  0  0  0  0  0  0  0  0
    0.6829   -0.7837   -0.0036 C   0  0  0  0  0  0  0  0  0  0  0  0
   -1.2428    1.3414   -0.0402 C   0  0  0  0  0  0  0  0  0  0  0  0
    1.0774    0.5553   -0.0473 C   0  0  0  0  0  0  0  0  0  0  0  0
    0.1495    1.6008   -0.1504 C   0  0  0  0  0  0  0  0  0  0  0  0
   -1.6757   -0.0042    0.0082 C   0  0  0  0  0  0  0  0  0  0  0  0
   -0.7075   -1.0348    0.0043 C   0  0  0  0  0  0  0  0  0  0  0  0
    1.4487   -2.8693    1.1926 C   0  0  0  0  0  0  0  0  0  0  0  0
    1.4599   -2.7597   -1.3300 C   0  0  0  0  0  0  0  0  0  0  0  0
    3.1703   -1.5567   -0.0054 C   0  0  0  0  0  0  0  0  0  0  0  0
   -2.2128    2.5136    0.0308 C   0  0  0  0  0  0  0  0  0  0  0  0
   -2.0769    3.3260    1.3132 C   0  0  0  0  0  0  0  0  0  0  0  0
    0.7100    2.9742   -0.3877 C   0  0  0  0  0  0  0  0  0  0  0  0
   -3.1220   -0.4440    0.0247 C   0  0  0  0  0  0  0  0  0  0  0  0
   -0.9786    4.3715    3.0255 C   0  0  0  0  0  0  0  0  0  0  0  0
   -2.4705    4.2300    3.2954 C   0  0  0  0  0  0  0  0  0  0  0  0
    2.5815    1.8112    0.0478 H   0  0  0  0  0  0  0  0  0  0  0  0
   -0.2617    4.4381    1.0369 H   0  0  0  0  0  0  0  0  0  0  0  0
   -1.0623   -2.0666    0.0077 H   0  0  0  0  0  0  0  0  0  0  0  0
    0.4471   -3.3104    1.2048 H   0  0  0  0  0  0  0  0  0  0  0  0
    2.1663   -3.6976    1.2010 H   0  0  0  0  0  0  0  0  0  0  0  0
    1.5745   -2.3080    2.1264 H   0  0  0  0  0  0  0  0  0  0  0  0
    1.5918   -2.1174   -2.2100 H   0  0  0  0  0  0  0  0  0  0  0  0
    2.1769   -3.5842   -1.4080 H   0  0  0  0  0  0  0  0  0  0  0  0
    0.4565   -3.1939   -1.3890 H   0  0  0  0  0  0  0  0  0  0  0  0
    3.4296   -0.9485   -0.8819 H   0  0  0  0  0  0  0  0  0  0  0  0
    3.4124   -0.9992    0.9090 H   0  0  0  0  0  0  0  0  0  0  0  0
    3.8389   -2.4204   -0.0290 H   0  0  0  0  0  0  0  0  0  0  0  0
   -2.0817    3.1446   -0.8534 H   0  0  0  0  0  0  0  0  0  0  0  0
   -3.2531    2.1896   -0.0219 H   0  0  0  0  0  0  0  0  0  0  0  0
    1.2304    3.3037    0.5214 H   0  0  0  0  0  0  0  0  0  0  0  0
    1.4242    2.9748   -1.2142 H   0  0  0  0  0  0  0  0  0  0  0  0
   -0.0465    3.6959   -0.6874 H   0  0  0  0  0  0  0  0  0  0  0  0
   -3.3434   -1.0330   -0.8734 H   0  0  0  0  0  0  0  0  0  0  0  0
   -3.3239   -1.0585    0.9088 H   0  0  0  0  0  0  0  0  0  0  0  0
   -3.8438    0.3710    0.0431 H   0  0  0  0  0  0  0  0  0  0  0  0
   -0.5618    5.3513    3.2668 H   0  0  0  0  0  0  0  0  0  0  0  0
   -0.3963    3.5887    3.5269 H   0  0  0  0  0  0  0  0  0  0  0  0
   -2.6684    3.8531    4.2984 H   0  0  0  0  0  0  0  0  0  0  0  0
   -2.9636    5.2000    3.1587 H   0  0  0  0  0  0  0  0  0  0  0  0
  1  7  1  0  0  0  0
  1 20  1  0  0  0  0
  2 15  1  0  0  0  0
  2 18  1  0  0  0  0
  2 21  1  0  0  0  0
  3 15  2  0  0  0  0
  3 19  1  0  0  0  0
  4  5  1  0  0  0  0
  4 11  1  0  0  0  0
  4 12  1  0  0  0  0
  4 13  1  0  0  0  0
  5  7  2  0  0  0  0
  5 10  1  0  0  0  0
  6  8  2  0  0  0  0
  6  9  1  0  0  0  0
  6 14  1  0  0  0  0
  7  8  1  0  0  0  0
  8 16  1  0  0  0  0
  9 10  2  0  0  0  0
  9 17  1  0  0  0  0
 10 22  1  0  0  0  0
 11 23  1  0  0  0  0
 11 24  1  0  0  0  0
 11 25  1  0  0  0  0
 12 26  1  0  0  0  0
 12 27  1  0  0  0  0
 12 28  1  0  0  0  0
 13 29  1  0  0  0  0
 13 30  1  0  0  0  0
 13 31  1  0  0  0  0
 14 15  1  0  0  0  0
 14 32  1  0  0  0  0
 14 33  1  0  0  0  0
 16 34  1  0  0  0  0
 16 35  1  0  0  0  0
 16 36  1  0  0  0  0
 17 37  1  0  0  0  0
 17 38  1  0  0  0  0
 17 39  1  0  0  0  0
 18 19  1  0  0  0  0
 18 40  1  0  0  0  0
 18 41  1  0  0  0  0
 19 42  1  0  0  0  0
 19 43  1  0  0  0  0
M  END
>  <DRUGBANK_ID>
DB00935

>  <SECONDARY_ACCESSION_NUMBERS>
APRD01158

>  <COMMON_NAME>
Oxymetazoline

>  <CAS_NUMBER>
1491-59-4

>  <UNII>
8VLN5B44ZY

>  <SYNONYMS>
2-(4-tert-butyl-2,6-dimethyl-3-hydroxybenzyl)-2-imidazoline; 3-[(4,5-dihydro-1H-imidazol-2-yl)methyl]-6-(1,1-dimethylethyl)-2,4-dimethylphenol; 6-t-butyl-3-(2-imidazolin-2-ylmethyl)-2,4-dimethylphenol; 6-tert-butyl-3-(2-imidazolin-2-ylmethyl)-2,4-dimethylphenol; Oximetazolinum; Oxymetazolina; Oxymetazoline; Oxym√©tazoline; Oxymetazolinum; Oxymethazoline; Oxymetozoline

$$$$
