
 OpenBabel10282417153D

136142  0  0  0  0  0  0  0  0999 V2000
    0.8559    0.1938    0.1048 O   0  0  0  0  0  0  0  0  0  0  0  0
    0.7056   -4.1893    2.4168 O   0  0  0  0  0  0  0  0  0  0  0  0
   -3.6769    4.1614    3.7745 O   0  0  0  0  0  0  0  0  0  0  0  0
    2.9719    0.1423   -1.3769 O   0  0  0  0  0  0  0  0  0  0  0  0
   -1.1147   -4.6062    0.9848 O   0  0  0  0  0  0  0  0  0  0  0  0
   -1.2130    2.0707    4.9373 O   0  0  0  0  0  0  0  0  0  0  0  0
    0.5983    6.4057    5.2146 O   0  0  0  0  0  0  0  0  0  0  0  0
    1.5479    3.4262    5.4328 O   0  0  0  0  0  0  0  0  0  0  0  0
    0.1961    4.1434    2.9939 O   0  0  0  0  0  0  0  0  0  0  0  0
   -2.4240    3.2154    1.3827 O   0  0  0  0  0  0  0  0  0  0  0  0
   -3.2275    0.9988    4.4075 O   0  0  0  0  0  0  0  0  0  0  0  0
   -0.6413    0.4013    2.8750 O   0  0  0  0  0  0  0  0  0  0  0  0
    1.0627    3.1800    1.2173 O   0  0  0  0  0  0  0  0  0  0  0  0
   -2.2739    4.2471    4.6666 O   0  0  0  0  0  0  0  0  0  0  0  0
    2.0768    1.5603    4.6325 O   0  0  0  0  0  0  0  0  0  0  0  0
    0.5576   -0.6458    1.3820 C   0  0  2  0  0  0  0  0  0  0  0  0
    1.2287   -1.8889    1.3451 C   0  0  2  0  0  0  0  0  0  0  0  0
   -1.0380   -0.8282    1.4313 C   0  0  1  0  0  0  0  0  0  0  0  0
   -1.9706   -1.3202    3.0018 C   0  0  1  0  0  0  0  0  0  0  0  0
    0.5243   -2.6904    2.5962 C   0  0  1  0  0  0  0  0  0  0  0  0
   -3.9235   -0.9208    3.6646 C   0  0  2  0  0  0  0  0  0  0  0  0
    2.8198   -0.6687    0.9763 C   0  0  2  0  0  0  0  0  0  0  0  0
   -1.1226   -2.5838    2.9601 C   0  0  0  0  0  0  0  0  0  0  0  0
    1.5354   -0.1305    2.4399 C   0  0  0  0  0  0  0  0  0  0  0  0
    2.9440   -0.4691    2.3605 C   0  0  0  0  0  0  0  0  0  0  0  0
   -1.0689    0.4440    0.8490 C   0  0  0  0  0  0  0  0  0  0  0  0
    0.0273   -2.6780    0.1604 C   0  0  0  0  0  0  0  0  0  0  0  0
   -3.9134    0.0218    1.7216 C   0  0  0  0  0  0  0  0  0  0  0  0
   -5.1424    0.5065    4.9194 C   0  0  0  0  0  0  0  0  0  0  0  0
   -2.9014    0.8278    1.0345 C   0  0  0  0  0  0  0  0  0  0  0  0
   -3.4409   -1.6561    4.7871 C   0  0  0  0  0  0  0  0  0  0  0  0
   -5.0820    1.4260    2.7254 C   0  0  0  0  0  0  0  0  0  0  0  0
    2.9037   -0.7188   -0.5163 C   0  0  0  0  0  0  0  0  0  0  0  0
   -5.6918    2.5035    5.0853 C   0  0  0  0  0  0  0  0  0  0  0  0
   -4.7847    2.7010    4.0723 C   0  0  2  0  0  0  0  0  0  0  0  0
    2.0996   -1.8515   -0.7099 C   0  0  0  0  0  0  0  0  0  0  0  0
   -0.1362   -4.9739    1.6305 C   0  0  0  0  0  0  0  0  0  0  0  0
   -1.6908    3.3898    3.3642 C   0  0  2  0  0  0  0  0  0  0  0  0
    0.1669   -6.4122    1.5250 C   0  0  0  0  0  0  0  0  0  0  0  0
   -0.4839    5.3688    3.3254 C   0  0  0  0  0  0  0  0  0  0  0  0
   -0.1917    5.4296    5.0190 C   0  0  1  0  0  0  0  0  0  0  0  0
    1.1356   -7.0453    2.4422 C   0  0  0  0  0  0  0  0  0  0  0  0
   -1.1510    2.6140    6.5975 C   0  0  1  0  0  0  0  0  0  0  0  0
   -0.5255   -7.1595    0.6283 C   0  0  0  0  0  0  0  0  0  0  0  0
    0.0967    4.0363    6.3388 C   0  0  1  0  0  0  0  0  0  0  0  0
   -2.9742    3.1018    6.9755 C   0  0  0  0  0  0  0  0  0  0  0  0
   -0.3584   -8.6455    0.5278 C   0  0  0  0  0  0  0  0  0  0  0  0
    1.1006    2.9861    3.6023 C   0  0  2  0  0  0  0  0  0  0  0  0
    1.6769    5.7663    4.6288 C   0  0  0  0  0  0  0  0  0  0  0  0
   -0.3366    1.8879    3.5191 C   0  0  0  0  0  0  0  0  0  0  0  0
   -2.5023    2.0479    4.0473 C   0  0  1  0  0  0  0  0  0  0  0  0
   -1.8726    4.8038    3.3328 C   0  0  1  0  0  0  0  0  0  0  0  0
   -3.2216    3.2236    2.6121 C   0  0  1  0  0  0  0  0  0  0  0  0
   -2.0774    5.3454    5.6509 C   0  0  0  0  0  0  0  0  0  0  0  0
   -1.0149    2.0659    1.6080 C   0  0  2  0  0  0  0  0  0  0  0  0
   -0.3789    3.1919    1.9835 C   0  0  1  0  0  0  0  0  0  0  0  0
   -0.4254    3.5007    4.2948 C   0  0  2  0  0  0  0  0  0  0  0  0
   -3.1699    0.6391    3.2803 C   0  0  0  0  0  0  0  0  0  0  0  0
    0.5414    1.8205    5.1946 C   0  0  1  0  0  0  0  0  0  0  0  0
   -0.5604    0.4009    4.9131 C   0  0  1  0  0  0  0  0  0  0  0  0
   -2.1189    0.7362    6.0437 C   0  0  0  0  0  0  0  0  0  0  0  0
   -2.5488    6.2346    3.9464 C   0  0  0  0  0  0  0  0  0  0  0  0
   -1.6080   -0.9203    0.5379 H   0  0  0  0  0  0  0  0  0  0  0  0
   -1.2353   -0.9732    3.7880 H   0  0  0  0  0  0  0  0  0  0  0  0
    1.7111    0.6107    0.0602 H   0  0  0  0  0  0  0  0  0  0  0  0
    1.5607    2.5144    1.6848 H   0  0  0  0  0  0  0  0  0  0  0  0
    2.1610    1.4829    3.6503 H   0  0  0  0  0  0  0  0  0  0  0  0
    1.0911   -2.3913    3.4689 H   0  0  0  0  0  0  0  0  0  0  0  0
    4.0190   -0.2705    0.8866 H   0  0  0  0  0  0  0  0  0  0  0  0
   -1.6821   -3.0907    2.2104 H   0  0  0  0  0  0  0  0  0  0  0  0
   -1.1770   -2.9527    3.9609 H   0  0  0  0  0  0  0  0  0  0  0  0
    1.5681    0.9197    2.2699 H   0  0  0  0  0  0  0  0  0  0  0  0
    1.2796   -0.5415    3.3902 H   0  0  0  0  0  0  0  0  0  0  0  0
    3.5433    0.1772    2.9961 H   0  0  0  0  0  0  0  0  0  0  0  0
    3.1656   -1.5035    2.4959 H   0  0  0  0  0  0  0  0  0  0  0  0
   -0.4439    1.2227    0.0758 H   0  0  0  0  0  0  0  0  0  0  0  0
    0.1471    1.0682    1.4955 H   0  0  0  0  0  0  0  0  0  0  0  0
   -1.0473   -2.5547    0.3693 H   0  0  0  0  0  0  0  0  0  0  0  0
   -0.0723   -2.3448   -0.8709 H   0  0  0  0  0  0  0  0  0  0  0  0
    0.3221   -3.6881   -0.0511 H   0  0  0  0  0  0  0  0  0  0  0  0
   -6.1934    0.9929    5.6999 H   0  0  0  0  0  0  0  0  0  0  0  0
   -6.3149    0.3946    4.6185 H   0  0  0  0  0  0  0  0  0  0  0  0
   -3.5012    1.9275    1.2587 H   0  0  0  0  0  0  0  0  0  0  0  0
   -2.6116   -1.1447    5.1810 H   0  0  0  0  0  0  0  0  0  0  0  0
   -4.4614   -1.4429    4.9695 H   0  0  0  0  0  0  0  0  0  0  0  0
   -3.1078   -2.5708    4.4099 H   0  0  0  0  0  0  0  0  0  0  0  0
   -5.4884    2.0844    2.1278 H   0  0  0  0  0  0  0  0  0  0  0  0
   -5.7092    0.6955    3.2737 H   0  0  0  0  0  0  0  0  0  0  0  0
   -5.3707    3.3299    5.9134 H   0  0  0  0  0  0  0  0  0  0  0  0
   -6.2347    3.1880    4.3773 H   0  0  0  0  0  0  0  0  0  0  0  0
   -4.3919    2.2613    5.1379 H   0  0  0  0  0  0  0  0  0  0  0  0
    2.4043   -2.5874    0.0585 H   0  0  0  0  0  0  0  0  0  0  0  0
    1.1825   -1.3737   -0.3902 H   0  0  0  0  0  0  0  0  0  0  0  0
    1.5104   -1.9689   -1.5505 H   0  0  0  0  0  0  0  0  0  0  0  0
   -1.9700    2.4862    2.6434 H   0  0  0  0  0  0  0  0  0  0  0  0
    0.1865    5.5581    2.3775 H   0  0  0  0  0  0  0  0  0  0  0  0
   -0.8937    5.5876    2.2934 H   0  0  0  0  0  0  0  0  0  0  0  0
   -1.0295    5.7361    4.6687 H   0  0  0  0  0  0  0  0  0  0  0  0
    0.6235   -7.7873    3.0659 H   0  0  0  0  0  0  0  0  0  0  0  0
    1.9138   -7.5571    1.8655 H   0  0  0  0  0  0  0  0  0  0  0  0
    1.6099   -6.3207    3.0929 H   0  0  0  0  0  0  0  0  0  0  0  0
   -0.8463    1.5615    7.0954 H   0  0  0  0  0  0  0  0  0  0  0  0
   -1.2549   -6.7066   -0.0536 H   0  0  0  0  0  0  0  0  0  0  0  0
   -0.1909    4.3649    7.3696 H   0  0  0  0  0  0  0  0  0  0  0  0
   -3.7547    2.2362    7.0719 H   0  0  0  0  0  0  0  0  0  0  0  0
   -2.7730    3.5206    7.8865 H   0  0  0  0  0  0  0  0  0  0  0  0
   -3.4581    3.5682    6.0796 H   0  0  0  0  0  0  0  0  0  0  0  0
   -1.2952   -9.1663    0.7412 H   0  0  0  0  0  0  0  0  0  0  0  0
   -0.0033   -8.9368   -0.4620 H   0  0  0  0  0  0  0  0  0  0  0  0
    0.3757   -9.0080    1.2502 H   0  0  0  0  0  0  0  0  0  0  0  0
    2.0048    3.0280    3.1132 H   0  0  0  0  0  0  0  0  0  0  0  0
    1.9329    5.0610    5.3684 H   0  0  0  0  0  0  0  0  0  0  0  0
    1.7129    5.3712    3.5736 H   0  0  0  0  0  0  0  0  0  0  0  0
    2.2576    6.5782    4.6538 H   0  0  0  0  0  0  0  0  0  0  0  0
   -1.1941    1.6216    3.1112 H   0  0  0  0  0  0  0  0  0  0  0  0
    0.5374    0.8170    3.7959 H   0  0  0  0  0  0  0  0  0  0  0  0
   -2.2285    2.9328    5.1553 H   0  0  0  0  0  0  0  0  0  0  0  0
   -2.5019    4.9453    2.3883 H   0  0  0  0  0  0  0  0  0  0  0  0
   -3.2245    2.7660    4.0294 H   0  0  0  0  0  0  0  0  0  0  0  0
   -1.5535    6.1759    6.0874 H   0  0  0  0  0  0  0  0  0  0  0  0
   -3.0566    5.2404    6.0960 H   0  0  0  0  0  0  0  0  0  0  0  0
   -1.6300    4.3479    6.1821 H   0  0  0  0  0  0  0  0  0  0  0  0
   -1.4591    2.1179    0.5489 H   0  0  0  0  0  0  0  0  0  0  0  0
   -0.7208    4.1487    1.2314 H   0  0  0  0  0  0  0  0  0  0  0  0
    0.5499    4.2157    4.4723 H   0  0  0  0  0  0  0  0  0  0  0  0
   -3.3481    1.4340    2.7636 H   0  0  0  0  0  0  0  0  0  0  0  0
   -2.2480    0.3359    3.0730 H   0  0  0  0  0  0  0  0  0  0  0  0
   -4.5739    0.0477    2.9841 H   0  0  0  0  0  0  0  0  0  0  0  0
    0.0820    2.7029    5.4594 H   0  0  0  0  0  0  0  0  0  0  0  0
    0.0181   -0.0190    5.8089 H   0  0  0  0  0  0  0  0  0  0  0  0
   -2.7524    0.0054    6.0068 H   0  0  0  0  0  0  0  0  0  0  0  0
   -2.5100    1.6971    6.1990 H   0  0  0  0  0  0  0  0  0  0  0  0
   -3.0247    1.5865    5.7594 H   0  0  0  0  0  0  0  0  0  0  0  0
   -1.5104    6.9111    4.0017 H   0  0  0  0  0  0  0  0  0  0  0  0
   -2.1994    6.3880    2.5799 H   0  0  0  0  0  0  0  0  0  0  0  0
   -3.5549    6.2376    3.8957 H   0  0  0  0  0  0  0  0  0  0  0  0
  1 65  1  0  0  0  0
  2 37  1  0  0  0  0
  4 33  2  0  0  0  0
  5 37  2  0  0  0  0
  6 38  1  0  0  0  0
  6 43  1  0  0  0  0
  7 49  1  0  0  0  0
  9 48  1  0  0  0  0
  9 52  1  0  0  0  0
 11 58  1  0  0  0  0
 12 55  1  0  0  0  0
 12 60  1  0  0  0  0
 13 66  1  0  0  0  0
 14 62  1  0  0  0  0
 15 67  1  0  0  0  0
 16  1  1  6  0  0  0
 16 17  1  0  0  0  0
 16 18  1  0  0  0  0
 16 24  1  0  0  0  0
 17 20  1  0  0  0  0
 17 22  1  0  0  0  0
 17 27  1  6  0  0  0
 18 19  1  0  0  0  0
 18 26  1  0  0  0  0
 18 63  1  6  0  0  0
 19 21  1  0  0  0  0
 19 23  1  0  0  0  0
 19 64  1  1  0  0  0
 20  2  1  0  0  0  0
 20 23  1  0  0  0  0
 20 68  1  1  0  0  0
 21 28  1  0  0  0  0
 21 29  1  0  0  0  0
 21 31  1  6  0  0  0
 22 25  1  0  0  0  0
 22 69  1  1  0  0  0
 22 33  1  0  0  0  0
 23 70  1  0  0  0  0
 23 71  1  0  0  0  0
 24 25  1  0  0  0  0
 24 72  1  0  0  0  0
 24 73  1  0  0  0  0
 25 74  1  0  0  0  0
 25 75  1  0  0  0  0
 26 30  1  0  0  0  0
 26 76  1  0  0  0  0
 26 77  1  0  0  0  0
 27 78  1  0  0  0  0
 27 79  1  0  0  0  0
 27 80  1  0  0  0  0
 28 30  2  0  0  0  0
 28 32  1  0  0  0  0
 29 34  1  0  0  0  0
 29 81  1  0  0  0  0
 29 82  1  0  0  0  0
 30 83  1  0  0  0  0
 31 84  1  0  0  0  0
 31 85  1  0  0  0  0
 31 86  1  0  0  0  0
 32 35  1  0  0  0  0
 32 87  1  0  0  0  0
 32 88  1  0  0  0  0
 33 36  1  0  0  0  0
 34 35  1  0  0  0  0
 34 89  1  0  0  0  0
 34 90  1  0  0  0  0
 35  3  1  0  0  0  0
 35 91  1  1  0  0  0
 36 92  1  0  0  0  0
 36 93  1  0  0  0  0
 36 94  1  0  0  0  0
 37 39  1  0  0  0  0
 38  3  1  0  0  0  0
 38 40  1  0  0  0  0
 38 95  1  6  0  0  0
 39 42  1  0  0  0  0
 39 44  2  0  0  0  0
 40 41  1  0  0  0  0
 40 96  1  0  0  0  0
 40 97  1  0  0  0  0
 41  7  1  0  0  0  0
 41 45  1  0  0  0  0
 41 98  1  1  0  0  0
 42 99  1  0  0  0  0
 42100  1  0  0  0  0
 42101  1  0  0  0  0
 43 45  1  0  0  0  0
 43 46  1  0  0  0  0
 43102  1  1  0  0  0
 44 47  1  0  0  0  0
 44103  1  0  0  0  0
 45  8  1  0  0  0  0
 45104  1  1  0  0  0
 46105  1  0  0  0  0
 46106  1  0  0  0  0
 46107  1  0  0  0  0
 47108  1  0  0  0  0
 47109  1  0  0  0  0
 47110  1  0  0  0  0
 48  8  1  0  0  0  0
 48 50  1  0  0  0  0
 48111  1  6  0  0  0
 49112  1  0  0  0  0
 49113  1  0  0  0  0
 49114  1  0  0  0  0
 50 51  1  0  0  0  0
 50115  1  0  0  0  0
 50116  1  0  0  0  0
 51 11  1  0  0  0  0
 51 53  1  0  0  0  0
 51117  1  1  0  0  0
 52 53  1  0  0  0  0
 52 54  1  0  0  0  0
 52118  1  6  0  0  0
 53 10  1  0  0  0  0
 53119  1  6  0  0  0
 54120  1  0  0  0  0
 54121  1  0  0  0  0
 54122  1  0  0  0  0
 55 10  1  0  0  0  0
 55 56  1  0  0  0  0
 55123  1  6  0  0  0
 56 13  1  0  0  0  0
 56 57  1  0  0  0  0
 56124  1  6  0  0  0
 57 59  1  0  0  0  0
 57125  1  1  0  0  0
 57 14  1  0  0  0  0
 58126  1  0  0  0  0
 58127  1  0  0  0  0
 58128  1  0  0  0  0
 59 15  1  0  0  0  0
 59 60  1  0  0  0  0
 59129  1  1  0  0  0
 60 61  1  0  0  0  0
 60130  1  1  0  0  0
 61131  1  0  0  0  0
 61132  1  0  0  0  0
 61133  1  0  0  0  0
 62134  1  0  0  0  0
 62135  1  0  0  0  0
 62136  1  0  0  0  0
M  END
>  <DRUGBANK_ID>
DB06569

>  <COMMON_NAME>
P-57AS3

>  <CAS_NUMBER>
384329-61-7

>  <UNII>
870A6Q6XVJ

$$$$
