
 OpenBabel10282417223D

 73 76  0  0  0  0  0  0  0  0999 V2000
   -0.9791    0.8872   -2.5524 C   0  0  1  0  0  0  0  0  0  0  0  0
   -0.5092    0.3109   -4.2283 C   0  0  1  0  0  0  0  0  0  0  0  0
   -2.6625    0.1514   -1.7523 C   0  0  1  0  0  0  0  0  0  0  0  0
   -0.5975    2.0250   -1.6433 C   0  0  0  0  0  0  0  0  0  0  0  0
   -0.6485   -1.4463   -4.3419 C   0  0  1  0  0  0  0  0  0  0  0  0
    0.6987    0.4760   -5.2718 C   0  0  0  0  0  0  0  0  0  0  0  0
   -2.4480    0.5601    0.0396 C   0  0  2  0  0  0  0  0  0  0  0  0
   -2.9185   -1.7261   -1.8238 C   0  0  2  0  0  0  0  0  0  0  0  0
   -1.0940    1.4978    0.0942 C   0  0  1  0  0  0  0  0  0  0  0  0
   -0.2672   -2.0024   -5.7236 C   0  0  2  0  0  0  0  0  0  0  0  0
   -2.4923   -1.6828   -3.6686 C   0  0  0  0  0  0  0  0  0  0  0  0
    0.8493   -2.4191   -3.4945 C   0  0  0  0  0  0  0  0  0  0  0  0
    0.9595   -1.0006   -5.9040 C   0  0  2  0  0  0  0  0  0  0  0  0
   -3.2226    1.6313    0.1032 C   0  0  0  0  0  0  0  0  0  0  0  0
   -2.4038    2.7309    0.0817 C   0  0  0  0  0  0  0  0  0  0  0  0
   -2.8824   -1.1096    1.0414 C   0  0  0  0  0  0  0  0  0  0  0  0
   -3.3255   -3.1293   -0.7981 O   0  0  0  0  0  0  0  0  0  0  0  0
   -0.2599    0.9317    0.9688 F   0  0  0  0  0  0  0  0  0  0  0  0
   -1.6881   -2.5221   -5.8234 C   0  0  0  0  0  0  0  0  0  0  0  0
    2.2792   -1.5055   -5.3416 C   0  0  0  0  0  0  0  0  0  0  0  0
   -4.1240    1.6147    1.0692 C   0  0  0  0  0  0  0  0  0  0  0  0
   -2.7642    3.6187    1.0383 C   0  0  0  0  0  0  0  0  0  0  0  0
   -1.9327   -4.0579   -4.9255 C   0  0  0  0  0  0  0  0  0  0  0  0
   -2.5826   -1.7417   -6.2022 O   0  0  0  0  0  0  0  0  0  0  0  0
   -3.6026    2.7725    1.8424 C   0  0  0  0  0  0  0  0  0  0  0  0
   -2.5796   -4.6047   -3.7819 O   0  0  0  0  0  0  0  0  0  0  0  0
   -3.7567    2.9792    3.0228 O   0  0  0  0  0  0  0  0  0  0  0  0
   -2.7500   -3.7652   -2.7772 C   0  0  0  0  0  0  0  0  0  0  0  0
   -1.0588   -3.0399   -2.2877 C   0  0  0  0  0  0  0  0  0  0  0  0
   -3.9350   -3.3530   -2.7429 O   0  0  0  0  0  0  0  0  0  0  0  0
   -0.6185   -1.3944   -2.1072 C   0  0  0  0  0  0  0  0  0  0  0  0
   -0.8681   -0.9174   -0.7717 C   0  0  0  0  0  0  0  0  0  0  0  0
   -0.0173   -1.0754    0.3272 C   0  0  0  0  0  0  0  0  0  0  0  0
    1.2612   -0.3098    0.0019 C   0  0  0  0  0  0  0  0  0  0  0  0
   -1.3455    0.9020   -4.5829 H   0  0  0  0  0  0  0  0  0  0  0  0
    0.0091    0.5454   -2.0350 H   0  0  0  0  0  0  0  0  0  0  0  0
   -3.5731    0.3443   -2.3728 H   0  0  0  0  0  0  0  0  0  0  0  0
   -1.2568    2.6834   -2.2110 H   0  0  0  0  0  0  0  0  0  0  0  0
    0.4883    2.2287   -1.6936 H   0  0  0  0  0  0  0  0  0  0  0  0
    0.7193    1.0606   -6.2148 H   0  0  0  0  0  0  0  0  0  0  0  0
    1.4724    1.0739   -4.7720 H   0  0  0  0  0  0  0  0  0  0  0  0
   -2.1143   -2.2042   -1.2248 H   0  0  0  0  0  0  0  0  0  0  0  0
   -0.8104    2.2504    0.8689 H   0  0  0  0  0  0  0  0  0  0  0  0
   -0.5091   -1.8707   -6.7990 H   0  0  0  0  0  0  0  0  0  0  0  0
   -2.7789   -2.5008   -4.2469 H   0  0  0  0  0  0  0  0  0  0  0  0
   -3.5251   -1.5138   -4.0358 H   0  0  0  0  0  0  0  0  0  0  0  0
    1.8916   -2.3086   -3.6401 H   0  0  0  0  0  0  0  0  0  0  0  0
    1.1495   -2.1459   -2.4560 H   0  0  0  0  0  0  0  0  0  0  0  0
    0.7636   -3.5247   -3.4422 H   0  0  0  0  0  0  0  0  0  0  0  0
    1.2560   -1.0961   -6.9565 H   0  0  0  0  0  0  0  0  0  0  0  0
   -1.3965    3.3184   -0.2460 H   0  0  0  0  0  0  0  0  0  0  0  0
   -2.0401   -1.7924    1.5255 H   0  0  0  0  0  0  0  0  0  0  0  0
   -3.8859   -1.6088    0.8876 H   0  0  0  0  0  0  0  0  0  0  0  0
   -2.6126   -2.0737    0.4768 H   0  0  0  0  0  0  0  0  0  0  0  0
   -2.6135   -3.8590   -0.6017 H   0  0  0  0  0  0  0  0  0  0  0  0
    2.1941   -2.6017   -5.2293 H   0  0  0  0  0  0  0  0  0  0  0  0
    3.1529   -1.4895   -5.9663 H   0  0  0  0  0  0  0  0  0  0  0  0
    2.5238   -0.9043   -4.4379 H   0  0  0  0  0  0  0  0  0  0  0  0
   -4.5083    0.7045    1.4915 H   0  0  0  0  0  0  0  0  0  0  0  0
   -2.2664    4.5719    1.1926 H   0  0  0  0  0  0  0  0  0  0  0  0
   -2.5837   -4.5506   -5.6088 H   0  0  0  0  0  0  0  0  0  0  0  0
   -0.9376   -4.4075   -4.6646 H   0  0  0  0  0  0  0  0  0  0  0  0
   -0.3348   -3.2529   -1.4841 H   0  0  0  0  0  0  0  0  0  0  0  0
   -0.8164   -3.1764   -3.2816 H   0  0  0  0  0  0  0  0  0  0  0  0
    0.2996   -0.8723   -2.5631 H   0  0  0  0  0  0  0  0  0  0  0  0
   -1.2955   -0.8497   -2.7206 H   0  0  0  0  0  0  0  0  0  0  0  0
   -1.0038    0.0613   -0.9277 H   0  0  0  0  0  0  0  0  0  0  0  0
   -1.8593   -0.9988   -0.4607 H   0  0  0  0  0  0  0  0  0  0  0  0
   -0.5614   -0.7566    1.2399 H   0  0  0  0  0  0  0  0  0  0  0  0
   -0.0689   -2.1340    0.3399 H   0  0  0  0  0  0  0  0  0  0  0  0
    1.2776    0.8022   -0.1070 H   0  0  0  0  0  0  0  0  0  0  0  0
    1.8623   -0.5088    0.8628 H   0  0  0  0  0  0  0  0  0  0  0  0
    1.6690   -0.5629   -0.9693 H   0  0  0  0  0  0  0  0  0  0  0  0
  1  2  1  0  0  0  0
  1  3  1  0  0  0  0
  1  4  1  0  0  0  0
  1 36  1  6  0  0  0
  2  5  1  0  0  0  0
  2  6  1  0  0  0  0
  2 35  1  1  0  0  0
  3  7  1  0  0  0  0
  3  8  1  0  0  0  0
  3 37  1  1  0  0  0
  4  9  1  0  0  0  0
  4 38  1  0  0  0  0
  4 39  1  0  0  0  0
  5 10  1  0  0  0  0
  5 11  1  0  0  0  0
  5 12  1  6  0  0  0
  6 13  1  0  0  0  0
  6 40  1  0  0  0  0
  6 41  1  0  0  0  0
  7 14  1  0  0  0  0
  7 15  1  0  0  0  0
  7 16  1  1  0  0  0
  8 11  1  0  0  0  0
  8 17  1  0  0  0  0
  8 42  1  1  0  0  0
  9 14  1  0  0  0  0
  9 43  1  1  0  0  0
  9 18  1  0  0  0  0
 10 13  1  0  0  0  0
 10 44  1  1  0  0  0
 10 19  1  0  0  0  0
 11 45  1  0  0  0  0
 11 46  1  0  0  0  0
 12 47  1  0  0  0  0
 12 48  1  0  0  0  0
 12 49  1  0  0  0  0
 13 50  1  6  0  0  0
 13 20  1  0  0  0  0
 14 21  2  0  0  0  0
 15 22  2  0  0  0  0
 15 51  1  0  0  0  0
 16 52  1  0  0  0  0
 16 53  1  0  0  0  0
 16 54  1  0  0  0  0
 17 55  1  0  0  0  0
 19 23  1  0  0  0  0
 19 24  2  0  0  0  0
 20 56  1  0  0  0  0
 20 57  1  0  0  0  0
 20 58  1  0  0  0  0
 21 25  1  0  0  0  0
 21 59  1  0  0  0  0
 22 25  1  0  0  0  0
 22 60  1  0  0  0  0
 23 26  1  0  0  0  0
 23 61  1  0  0  0  0
 23 62  1  0  0  0  0
 25 27  2  0  0  0  0
 26 28  1  0  0  0  0
 28 29  1  0  0  0  0
 28 30  2  0  0  0  0
 29 31  1  0  0  0  0
 29 63  1  0  0  0  0
 29 64  1  0  0  0  0
 31 32  1  0  0  0  0
 31 65  1  0  0  0  0
 31 66  1  0  0  0  0
 32 33  1  0  0  0  0
 32 67  1  0  0  0  0
 32 68  1  0  0  0  0
 33 34  1  0  0  0  0
 33 69  1  0  0  0  0
 33 70  1  0  0  0  0
 34 71  1  0  0  0  0
 34 72  1  0  0  0  0
 34 73  1  0  0  0  0
M  END
>  <DRUGBANK_ID>
DB15821

>  <COMMON_NAME>
Fluocortolone caproate

>  <CAS_NUMBER>
303-40-2

>  <UNII>
90893P8662

>  <SYNONYMS>
Fluocortolone 21-caproate; Fluocortolone 21-hexanoate; Fluocortolone caproate; Fluocortolone hexanoate

$$$$
