PMA
 OpenBabel10282417123D

 24 24  0  0  0  0  0  0  0  0999 V2000
    1.4149   -0.2671    0.0553 C   0  0  0  0  0  0  0  0  0  0  0  0
    0.5339   -1.3584   -0.0158 C   0  0  0  0  0  0  0  0  0  0  0  0
    0.8530    1.0402    0.0386 C   0  0  0  0  0  0  0  0  0  0  0  0
   -1.4320    0.2060   -0.0297 C   0  0  0  0  0  0  0  0  0  0  0  0
   -0.5484    1.2875    0.0865 C   0  0  0  0  0  0  0  0  0  0  0  0
   -0.8721   -1.0987   -0.0413 C   0  0  0  0  0  0  0  0  0  0  0  0
   -2.9094    0.3816   -0.2761 C   0  0  0  0  0  0  0  0  0  0  0  0
   -0.9592    2.6969    0.3813 C   0  0  0  0  0  0  0  0  0  0  0  0
    2.9091   -0.3222    0.2284 C   0  0  0  0  0  0  0  0  0  0  0  0
    0.9072   -2.8094   -0.1108 C   0  0  0  0  0  0  0  0  0  0  0  0
    3.6617    0.6165    0.0376 O   0  0  0  0  0  0  0  0  0  0  0  0
    3.3883   -1.4820    0.7023 O   0  0  0  0  0  0  0  0  0  0  0  0
    0.1279   -3.7266    0.0797 O   0  0  0  0  0  0  0  0  0  0  0  0
    2.1685   -3.0664   -0.4828 O   0  0  0  0  0  0  0  0  0  0  0  0
   -3.5158    1.3862   -0.6273 O   0  0  0  0  0  0  0  0  0  0  0  0
   -3.6026   -0.7663   -0.1977 O   0  0  0  0  0  0  0  0  0  0  0  0
   -0.2237    3.6662    0.3216 O   0  0  0  0  0  0  0  0  0  0  0  0
   -2.2087    2.8053    0.8507 O   0  0  0  0  0  0  0  0  0  0  0  0
    1.5287    1.9006    0.0116 H   0  0  0  0  0  0  0  0  0  0  0  0
   -1.5516   -1.9532   -0.0736 H   0  0  0  0  0  0  0  0  0  0  0  0
    4.3401   -1.5324    0.4683 H   0  0  0  0  0  0  0  0  0  0  0  0
    2.3872   -3.9719   -0.1739 H   0  0  0  0  0  0  0  0  0  0  0  0
   -4.5149   -0.4733   -0.4263 H   0  0  0  0  0  0  0  0  0  0  0  0
   -2.4938    3.7402    0.7732 H   0  0  0  0  0  0  0  0  0  0  0  0
  1  2  2  0  0  0  0
  1  3  1  0  0  0  0
  1  9  1  0  0  0  0
  2  6  1  0  0  0  0
  2 10  1  0  0  0  0
  3  5  2  0  0  0  0
  3 19  1  0  0  0  0
  4  5  1  0  0  0  0
  4  6  2  0  0  0  0
  4  7  1  0  0  0  0
  5  8  1  0  0  0  0
  6 20  1  0  0  0  0
  7 15  2  0  0  0  0
  7 16  1  0  0  0  0
  8 17  2  0  0  0  0
  8 18  1  0  0  0  0
  9 11  2  0  0  0  0
  9 12  1  0  0  0  0
 10 13  2  0  0  0  0
 10 14  1  0  0  0  0
 12 21  1  0  0  0  0
 14 22  1  0  0  0  0
 16 23  1  0  0  0  0
 18 24  1  0  0  0  0
M  END
>  <DRUGBANK_ID>
DB02749

>  <SECONDARY_ACCESSION_NUMBERS>
EXPT02613

>  <COMMON_NAME>
Pyromellitic Acid

>  <CAS_NUMBER>
89-05-4

>  <UNII>
D9UXG2U6ZU

$$$$
