
 OpenBabel10282417233D

 39 38  0  0  0  0  0  0  0  0999 V2000
    1.1010   -0.1351    0.0492 C   0  0  0  0  0  0  0  0  0  0  0  0
    0.5207   -0.8288    1.3178 C   0  0  0  0  0  0  0  0  0  0  0  0
    0.6766    1.3732   -0.0890 C   0  0  0  0  0  0  0  0  0  0  0  0
    0.6273   -1.0120   -1.1579 C   0  0  0  0  0  0  0  0  0  0  0  0
    2.4996   -0.2335    0.3074 O   0  0  0  0  0  0  0  0  0  0  0  0
    0.9514   -0.0719    2.5568 C   0  0  0  0  0  0  0  0  0  0  0  0
    1.0179    2.1908   -1.3227 C   0  0  0  0  0  0  0  0  0  0  0  0
    1.4764   -1.3109   -2.1670 O   0  0  0  0  0  0  0  0  0  0  0  0
   -0.5282   -1.4358   -1.2231 O   0  0  0  0  0  0  0  0  0  0  0  0
    0.0302    0.5336    3.3272 O   0  0  0  0  0  0  0  0  0  0  0  0
    2.1443    0.1006    2.8078 O   0  0  0  0  0  0  0  0  0  0  0  0
    0.0778    2.4109   -2.2689 O   0  0  0  0  0  0  0  0  0  0  0  0
    2.1302    2.7130   -1.4526 O   0  0  0  0  0  0  0  0  0  0  0  0
    2.9088   -1.3050   -2.0324 C   0  0  0  0  0  0  0  0  0  0  0  0
   -1.3894    0.3770    3.1893 C   0  0  0  0  0  0  0  0  0  0  0  0
   -1.3513    2.4208   -2.0484 C   0  0  0  0  0  0  0  0  0  0  0  0
    3.4406    0.1029   -2.1752 C   0  0  0  0  0  0  0  0  0  0  0  0
   -1.9091    1.1015    1.9697 C   0  0  0  0  0  0  0  0  0  0  0  0
   -1.8935    1.0146   -2.0517 C   0  0  0  0  0  0  0  0  0  0  0  0
   -0.5480   -1.0280    1.2647 H   0  0  0  0  0  0  0  0  0  0  0  0
    0.9524   -1.8369    1.4100 H   0  0  0  0  0  0  0  0  0  0  0  0
   -0.3818    1.5122    0.0326 H   0  0  0  0  0  0  0  0  0  0  0  0
    1.0940    1.9431    0.7518 H   0  0  0  0  0  0  0  0  0  0  0  0
    2.7752    0.4399    0.9613 H   0  0  0  0  0  0  0  0  0  0  0  0
    3.1988   -1.8158   -1.1072 H   0  0  0  0  0  0  0  0  0  0  0  0
    3.3149   -1.9139   -2.8440 H   0  0  0  0  0  0  0  0  0  0  0  0
   -1.6446   -0.6858    3.1903 H   0  0  0  0  0  0  0  0  0  0  0  0
   -1.8311    0.8334    4.0786 H   0  0  0  0  0  0  0  0  0  0  0  0
   -1.5944    2.9639   -1.1285 H   0  0  0  0  0  0  0  0  0  0  0  0
   -1.8006    2.9741   -2.8806 H   0  0  0  0  0  0  0  0  0  0  0  0
    3.0283    0.7515   -1.4227 H   0  0  0  0  0  0  0  0  0  0  0  0
    4.5170    0.1634   -2.0294 H   0  0  0  0  0  0  0  0  0  0  0  0
    3.1242    0.5539   -3.1173 H   0  0  0  0  0  0  0  0  0  0  0  0
   -1.5849    0.5903    1.0733 H   0  0  0  0  0  0  0  0  0  0  0  0
   -2.9946    1.0876    1.9031 H   0  0  0  0  0  0  0  0  0  0  0  0
   -1.5304    2.1285    1.9232 H   0  0  0  0  0  0  0  0  0  0  0  0
   -1.5393    0.4944   -1.1732 H   0  0  0  0  0  0  0  0  0  0  0  0
   -2.9800    0.9757   -1.9846 H   0  0  0  0  0  0  0  0  0  0  0  0
   -1.5385    0.4610   -2.9260 H   0  0  0  0  0  0  0  0  0  0  0  0
  1  2  1  0  0  0  0
  1  3  1  0  0  0  0
  1  4  1  0  0  0  0
  1  5  1  0  0  0  0
  2  6  1  0  0  0  0
  2 20  1  0  0  0  0
  2 21  1  0  0  0  0
  3  7  1  0  0  0  0
  3 22  1  0  0  0  0
  3 23  1  0  0  0  0
  4  8  1  0  0  0  0
  4  9  2  0  0  0  0
  5 24  1  0  0  0  0
  6 10  1  0  0  0  0
  6 11  2  0  0  0  0
  7 12  1  0  0  0  0
  7 13  2  0  0  0  0
  8 14  1  0  0  0  0
 10 15  1  0  0  0  0
 12 16  1  0  0  0  0
 14 17  1  0  0  0  0
 14 25  1  0  0  0  0
 14 26  1  0  0  0  0
 15 18  1  0  0  0  0
 15 27  1  0  0  0  0
 15 28  1  0  0  0  0
 16 19  1  0  0  0  0
 16 29  1  0  0  0  0
 16 30  1  0  0  0  0
 17 31  1  0  0  0  0
 17 32  1  0  0  0  0
 17 33  1  0  0  0  0
 18 34  1  0  0  0  0
 18 35  1  0  0  0  0
 18 36  1  0  0  0  0
 19 37  1  0  0  0  0
 19 38  1  0  0  0  0
 19 39  1  0  0  0  0
M  END
>  <DRUGBANK_ID>
DB16827

>  <COMMON_NAME>
Triethyl citrate

>  <CAS_NUMBER>
77-93-0

>  <UNII>
8Z96QXD6UM

>  <SYNONYMS>
Citric acid ethyl ester; Citric acid triethyl ester

$$$$
