
 OpenBabel10282417203D

 49 50  0  0  0  0  0  0  0  0999 V2000
    0.7015    0.3389   -0.1355 C   0  0  0  0  0  0  0  0  0  0  0  0
    0.3566   -0.4848   -1.3639 C   0  0  0  0  0  0  0  0  0  0  0  0
    0.9061   -1.9199   -1.3498 N   0  3  0  0  0  0  0  0  0  0  0  0
    0.1175   -2.7247   -0.3183 C   0  0  0  0  0  0  0  0  0  0  0  0
    0.4564   -2.6567   -2.6473 C   0  0  0  0  0  0  0  0  0  0  0  0
    2.5017   -2.0328   -1.3034 C   0  0  3  0  0  0  0  0  0  0  0  0
    3.1068   -1.3195   -2.5355 C   0  0  0  0  0  0  0  0  0  0  0  0
    3.2219   -1.4880   -0.0476 C   0  0  0  0  0  0  0  0  0  0  0  0
    2.7893   -2.0915    1.2962 C   0  0  0  0  0  0  0  0  0  0  0  0
    3.2001   -3.5583    1.3165 C   0  0  0  0  0  0  0  0  0  0  0  0
    4.5386   -3.8372    1.5616 C   0  0  0  0  0  0  0  0  0  0  0  0
    4.9761   -5.1478    1.7082 C   0  0  0  0  0  0  0  0  0  0  0  0
    4.0909   -6.2022    1.4877 C   0  0  0  0  0  0  0  0  0  0  0  0
    2.7695   -5.9534    1.1823 C   0  0  0  0  0  0  0  0  0  0  0  0
    2.3095   -4.6363    1.1449 C   0  0  0  0  0  0  0  0  0  0  0  0
    3.1513   -1.2829    2.5398 C   0  0  0  0  0  0  0  0  0  0  0  0
    3.0425    0.1181    2.5600 C   0  0  0  0  0  0  0  0  0  0  0  0
    3.1610    0.8278    3.7515 C   0  0  0  0  0  0  0  0  0  0  0  0
    3.3900    0.1494    4.9417 C   0  0  0  0  0  0  0  0  0  0  0  0
    3.4765   -1.2370    4.9494 C   0  0  0  0  0  0  0  0  0  0  0  0
    3.3582   -1.9428    3.7608 C   0  0  0  0  0  0  0  0  0  0  0  0
    0.5375   -0.1893    0.8070 H   0  0  0  0  0  0  0  0  0  0  0  0
    0.1053    1.2534   -0.0995 H   0  0  0  0  0  0  0  0  0  0  0  0
    1.7248    0.6997   -0.1866 H   0  0  0  0  0  0  0  0  0  0  0  0
   -0.7316   -0.5725   -1.4346 H   0  0  0  0  0  0  0  0  0  0  0  0
    0.7186    0.0035   -2.2703 H   0  0  0  0  0  0  0  0  0  0  0  0
   -0.9511   -2.6462   -0.5348 H   0  0  0  0  0  0  0  0  0  0  0  0
    0.4075   -3.7639   -0.4369 H   0  0  0  0  0  0  0  0  0  0  0  0
    0.2140   -2.3397    0.6846 H   0  0  0  0  0  0  0  0  0  0  0  0
    0.7908   -2.1079   -3.5229 H   0  0  0  0  0  0  0  0  0  0  0  0
    0.8812   -3.6689   -2.6177 H   0  0  0  0  0  0  0  0  0  0  0  0
   -0.6362   -2.7176   -2.6457 H   0  0  0  0  0  0  0  0  0  0  0  0
    2.7240   -3.1025   -1.3961 H   0  0  0  0  0  0  0  0  0  0  0  0
    2.8207   -0.2644   -2.5809 H   0  0  0  0  0  0  0  0  0  0  0  0
    4.2020   -1.3484   -2.5107 H   0  0  0  0  0  0  0  0  0  0  0  0
    2.8167   -1.7972   -3.4742 H   0  0  0  0  0  0  0  0  0  0  0  0
    4.3008   -1.6762   -0.1710 H   0  0  0  0  0  0  0  0  0  0  0  0
    3.2133   -0.4015   -0.0580 H   0  0  0  0  0  0  0  0  0  0  0  0
    1.7243   -2.0401    1.4143 H   0  0  0  0  0  0  0  0  0  0  0  0
    5.2367   -3.0195    1.7426 H   0  0  0  0  0  0  0  0  0  0  0  0
    5.9918   -5.3269    2.0259 H   0  0  0  0  0  0  0  0  0  0  0  0
    4.4412   -7.2266    1.5956 H   0  0  0  0  0  0  0  0  0  0  0  0
    2.0696   -6.7763    1.0322 H   0  0  0  0  0  0  0  0  0  0  0  0
    1.2473   -4.5258    1.0414 H   0  0  0  0  0  0  0  0  0  0  0  0
    2.8171    0.6963    1.6733 H   0  0  0  0  0  0  0  0  0  0  0  0
    3.0463    1.9090    3.7496 H   0  0  0  0  0  0  0  0  0  0  0  0
    3.4866    0.6994    5.8717 H   0  0  0  0  0  0  0  0  0  0  0  0
    3.6080   -1.7827    5.8783 H   0  0  0  0  0  0  0  0  0  0  0  0
    3.4013   -3.0289    3.8173 H   0  0  0  0  0  0  0  0  0  0  0  0
  1  2  1  0  0  0  0
  1 22  1  0  0  0  0
  1 23  1  0  0  0  0
  1 24  1  0  0  0  0
  2  3  1  0  0  0  0
  2 25  1  0  0  0  0
  2 26  1  0  0  0  0
  3  4  1  0  0  0  0
  3  5  1  0  0  0  0
  3  6  1  0  0  0  0
  4 27  1  0  0  0  0
  4 28  1  0  0  0  0
  4 29  1  0  0  0  0
  5 30  1  0  0  0  0
  5 31  1  0  0  0  0
  5 32  1  0  0  0  0
  6  7  1  0  0  0  0
  6  8  1  0  0  0  0
  6 33  1  0  0  0  0
  7 34  1  0  0  0  0
  7 35  1  0  0  0  0
  7 36  1  0  0  0  0
  8  9  1  0  0  0  0
  8 37  1  0  0  0  0
  8 38  1  0  0  0  0
  9 10  1  0  0  0  0
  9 16  1  0  0  0  0
  9 39  1  0  0  0  0
 10 11  2  0  0  0  0
 10 15  1  0  0  0  0
 11 12  1  0  0  0  0
 11 40  1  0  0  0  0
 12 13  2  0  0  0  0
 12 41  1  0  0  0  0
 13 14  1  0  0  0  0
 13 42  1  0  0  0  0
 14 15  2  0  0  0  0
 14 43  1  0  0  0  0
 15 44  1  0  0  0  0
 16 17  2  0  0  0  0
 16 21  1  0  0  0  0
 17 18  1  0  0  0  0
 17 45  1  0  0  0  0
 18 19  2  0  0  0  0
 18 46  1  0  0  0  0
 19 20  1  0  0  0  0
 19 47  1  0  0  0  0
 20 21  2  0  0  0  0
 20 48  1  0  0  0  0
 21 49  1  0  0  0  0
M  CHG  1   3   1
M  END
>  <DRUGBANK_ID>
DB13505

>  <COMMON_NAME>
Emepronium

>  <CAS_NUMBER>
27892-33-7

>  <UNII>
04QQ8SWA4U

$$$$
