
 OpenBabel10282417203D

 50 52  0  0  0  0  0  0  0  0999 V2000
    1.3790   -0.2358   -0.0315 C   0  0  0  0  0  0  0  0  0  0  0  0
    0.5047   -1.3197   -0.0139 C   0  0  0  0  0  0  0  0  0  0  0  0
   -0.8733   -1.1088   -0.0429 C   0  0  0  0  0  0  0  0  0  0  0  0
   -1.3808    0.1870   -0.0350 C   0  0  0  0  0  0  0  0  0  0  0  0
   -0.5086    1.2769    0.0223 C   0  0  0  0  0  0  0  0  0  0  0  0
    0.8732    1.0605   -0.0648 C   0  0  0  0  0  0  0  0  0  0  0  0
   -1.0450    2.6451    0.3422 C   0  0  0  0  0  0  0  0  0  0  0  0
   -0.5322    3.1005    1.6929 C   0  0  0  0  0  0  0  0  0  0  0  0
    0.2159    4.2457    1.6677 N   0  0  0  0  0  0  0  0  0  0  0  0
   -0.7295    2.4953    2.7447 O   0  0  0  0  0  0  0  0  0  0  0  0
    0.8626    4.6969    2.9080 C   0  0  1  0  0  0  0  0  0  0  0  0
    2.0359    3.8621    3.4705 C   0  0  2  0  0  0  0  0  0  0  0  0
    1.9150    5.7713    2.6903 C   0  0  0  0  0  0  0  0  0  0  0  0
    2.8437    5.0880    3.4085 N   0  0  0  0  0  0  0  0  0  0  0  0
    2.0040    6.7569    1.9840 O   0  0  0  0  0  0  0  0  0  0  0  0
    2.9788    2.7257    2.4088 S   0  0  0  0  0  0  0  0  0  0  0  0
    4.2283    5.0452    2.9789 C   0  0  2  0  0  0  0  0  0  0  0  0
    4.5869    3.5508    2.8453 C   0  0  0  0  0  0  0  0  0  0  0  0
    5.2567    5.8015    3.8347 C   0  0  0  0  0  0  0  0  0  0  0  0
    4.9628    6.2172    5.0843 O   0  0  0  0  0  0  0  0  0  0  0  0
    6.4089    5.9371    3.4160 O   0  0  0  0  0  0  0  0  0  0  0  0
    3.6739    6.1713    5.7212 C   0  0  0  0  0  0  0  0  0  0  0  0
    2.6447    6.9628    5.1012 O   0  0  0  0  0  0  0  0  0  0  0  0
    2.9360    8.2715    4.8991 C   0  0  0  0  0  0  0  0  0  0  0  0
    3.9214    8.8350    5.3506 O   0  0  0  0  0  0  0  0  0  0  0  0
    1.9056    8.9604    4.0424 C   0  0  0  0  0  0  0  0  0  0  0  0
    5.5590    3.2608    1.7047 C   0  0  0  0  0  0  0  0  0  0  0  0
    5.0892    2.9428    4.1617 C   0  0  0  0  0  0  0  0  0  0  0  0
    1.8861    3.5024    4.4937 H   0  0  0  0  0  0  0  0  0  0  0  0
    0.1173    4.9855    3.6619 H   0  0  0  0  0  0  0  0  0  0  0  0
    4.2707    5.5366    1.9950 H   0  0  0  0  0  0  0  0  0  0  0  0
    2.4527   -0.3968    0.0199 H   0  0  0  0  0  0  0  0  0  0  0  0
    0.8979   -2.3309    0.0223 H   0  0  0  0  0  0  0  0  0  0  0  0
   -1.5557   -1.9533   -0.0282 H   0  0  0  0  0  0  0  0  0  0  0  0
   -2.4567    0.3427   -0.0250 H   0  0  0  0  0  0  0  0  0  0  0  0
    1.5660    1.8978   -0.0903 H   0  0  0  0  0  0  0  0  0  0  0  0
   -0.7802    3.3512   -0.4509 H   0  0  0  0  0  0  0  0  0  0  0  0
   -2.1375    2.6350    0.4238 H   0  0  0  0  0  0  0  0  0  0  0  0
    0.3996    4.7318    0.7956 H   0  0  0  0  0  0  0  0  0  0  0  0
    3.3554    5.1221    5.7779 H   0  0  0  0  0  0  0  0  0  0  0  0
    3.7815    6.4846    6.7635 H   0  0  0  0  0  0  0  0  0  0  0  0
    1.9889    8.6924    2.9914 H   0  0  0  0  0  0  0  0  0  0  0  0
    0.8940    8.7618    4.4039 H   0  0  0  0  0  0  0  0  0  0  0  0
    2.0879   10.0364    4.0785 H   0  0  0  0  0  0  0  0  0  0  0  0
    6.5433    3.6962    1.9024 H   0  0  0  0  0  0  0  0  0  0  0  0
    5.7012    2.1814    1.5731 H   0  0  0  0  0  0  0  0  0  0  0  0
    5.2013    3.6702    0.7525 H   0  0  0  0  0  0  0  0  0  0  0  0
    5.2079    1.8576    4.0893 H   0  0  0  0  0  0  0  0  0  0  0  0
    6.0679    3.3541    4.4342 H   0  0  0  0  0  0  0  0  0  0  0  0
    4.4100    3.1519    4.9956 H   0  0  0  0  0  0  0  0  0  0  0  0
  1  2  1  0  0  0  0
  1 32  1  0  0  0  0
  2  3  2  0  0  0  0
  2 33  1  0  0  0  0
  3  4  1  0  0  0  0
  3 34  1  0  0  0  0
  4  5  2  0  0  0  0
  4 35  1  0  0  0  0
  5  6  1  0  0  0  0
  5  7  1  0  0  0  0
  6  1  2  0  0  0  0
  6 36  1  0  0  0  0
  7  8  1  0  0  0  0
  7 37  1  0  0  0  0
  7 38  1  0  0  0  0
  8  9  1  0  0  0  0
  8 10  2  0  0  0  0
  9 39  1  0  0  0  0
 11  9  1  0  0  0  0
 11 12  1  0  0  0  0
 11 13  1  0  0  0  0
 11 30  1  1  0  0  0
 12 16  1  0  0  0  0
 12 29  1  1  0  0  0
 13 14  1  0  0  0  0
 13 15  2  0  0  0  0
 14 12  1  0  0  0  0
 14 17  1  0  0  0  0
 16 18  1  0  0  0  0
 17 18  1  0  0  0  0
 17 31  1  6  0  0  0
 17 19  1  0  0  0  0
 19 20  1  0  0  0  0
 19 21  2  0  0  0  0
 20 22  1  0  0  0  0
 22 23  1  0  0  0  0
 22 40  1  0  0  0  0
 22 41  1  0  0  0  0
 23 24  1  0  0  0  0
 24 25  2  0  0  0  0
 24 26  1  0  0  0  0
 26 42  1  0  0  0  0
 26 43  1  0  0  0  0
 26 44  1  0  0  0  0
 27 18  1  0  0  0  0
 27 45  1  0  0  0  0
 27 46  1  0  0  0  0
 27 47  1  0  0  0  0
 28 18  1  0  0  0  0
 28 48  1  0  0  0  0
 28 49  1  0  0  0  0
 28 50  1  0  0  0  0
M  END
>  <DRUGBANK_ID>
DB13739

>  <COMMON_NAME>
Penamecillin

>  <CAS_NUMBER>
983-85-7

>  <UNII>
H0P1YE5581

>  <SYNONYMS>
Acetoxymethyl benzylpenicillanate; Benzylpenicillin acetoxymethyl ester; Penamecilina; Penamecillin; Pénamécilline; Penamecillinum

$$$$
