
 OpenBabel10282417153D

 48 51  0  0  1  0  0  0  0  0999 V2000
    0.9613   -4.9334   -1.6679 C   0  0  0  0  0  0  0  0  0  0  0  0
    0.5504   -4.0352   -0.4402 C   0  0  2  0  0  0  0  0  0  0  0  0
    0.3576   -5.0984    0.6282 C   0  0  0  0  0  0  0  0  0  0  0  0
   -0.7989   -6.0235    0.2740 C   0  0  0  0  0  0  0  0  0  0  0  0
   -2.0611   -5.2552    0.4527 C   0  0  2  0  0  0  0  0  0  0  0  0
   -3.2835   -6.1694    0.1889 C   0  0  0  0  0  0  0  0  0  0  0  0
   -3.2694   -7.5942    0.2290 C   0  0  0  0  0  0  0  0  0  0  0  0
   -4.3885   -8.4242   -0.1013 C   0  0  0  0  0  0  0  0  0  0  0  0
   -5.6067   -7.8081   -0.4509 C   0  0  0  0  0  0  0  0  0  0  0  0
   -5.6119   -6.3806   -0.4369 C   0  0  0  0  0  0  0  0  0  0  0  0
   -4.4899   -5.5627   -0.1197 C   0  0  0  0  0  0  0  0  0  0  0  0
   -4.6025   -4.0457   -0.1902 C   0  0  0  0  0  0  0  0  0  0  0  0
   -3.3245   -3.2106    0.1917 C   0  0  0  0  0  0  0  0  0  0  0  0
   -2.0676   -3.8666   -0.5047 C   0  0  1  0  0  0  0  0  0  0  0  0
   -0.5630   -3.0292   -0.8047 C   0  0  2  0  0  0  0  0  0  0  0  0
    0.5030   -1.8667   -1.6584 C   0  0  0  0  0  0  0  0  0  0  0  0
    1.8974   -2.3524   -1.2281 C   0  0  0  0  0  0  0  0  0  0  0  0
    1.6582   -3.0468   -0.1093 C   0  0  0  0  0  0  0  0  0  0  0  0
   -6.9133   -8.4946   -0.8416 C   0  0  0  0  0  0  0  0  0  0  0  0
   -7.1539   -9.7206   -0.9276 O   0  0  0  0  0  0  0  0  0  0  0  0
   -8.0216   -7.7842   -1.1540 N   0  0  0  0  0  0  0  0  0  0  0  0
   -4.0301   -9.7546   -0.0230 O   0  0  0  0  0  0  0  0  0  0  0  0
   -5.0018  -10.7399   -0.3212 C   0  0  0  0  0  0  0  0  0  0  0  0
    0.5876   -5.9559   -1.6149 H   0  0  0  0  0  0  0  0  0  0  0  0
    2.0385   -5.1194   -1.6483 H   0  0  0  0  0  0  0  0  0  0  0  0
    0.5913   -4.5876   -2.6330 H   0  0  0  0  0  0  0  0  0  0  0  0
    1.2618   -5.7207    0.6443 H   0  0  0  0  0  0  0  0  0  0  0  0
    0.2642   -4.6982    1.6431 H   0  0  0  0  0  0  0  0  0  0  0  0
   -0.8797   -6.3952   -0.7522 H   0  0  0  0  0  0  0  0  0  0  0  0
   -0.7064   -6.9300    0.8797 H   0  0  0  0  0  0  0  0  0  0  0  0
   -2.1042   -5.0021    1.5300 H   0  0  0  0  0  0  0  0  0  0  0  0
   -2.3554   -8.1270    0.4994 H   0  0  0  0  0  0  0  0  0  0  0  0
   -6.5177   -5.8497   -0.6998 H   0  0  0  0  0  0  0  0  0  0  0  0
   -5.4494   -3.7509    0.4429 H   0  0  0  0  0  0  0  0  0  0  0  0
   -4.8503   -3.7964   -1.2266 H   0  0  0  0  0  0  0  0  0  0  0  0
   -3.2515   -3.2577    1.2967 H   0  0  0  0  0  0  0  0  0  0  0  0
   -3.4803   -2.1558   -0.0419 H   0  0  0  0  0  0  0  0  0  0  0  0
   -2.3747   -4.1802   -1.5020 H   0  0  0  0  0  0  0  0  0  0  0  0
   -0.8987   -2.1676   -0.2108 H   0  0  0  0  0  0  0  0  0  0  0  0
    0.5546   -1.7067   -2.7467 H   0  0  0  0  0  0  0  0  0  0  0  0
    0.5430   -0.8568   -1.1781 H   0  0  0  0  0  0  0  0  0  0  0  0
    2.8235   -1.8003   -1.3779 H   0  0  0  0  0  0  0  0  0  0  0  0
    1.2895   -2.3424    0.6717 H   0  0  0  0  0  0  0  0  0  0  0  0
   -8.1385   -6.7857   -1.1702 H   0  0  0  0  0  0  0  0  0  0  0  0
   -8.8130   -8.3738   -1.3850 H   0  0  0  0  0  0  0  0  0  0  0  0
   -5.8097  -10.6766    0.4154 H   0  0  0  0  0  0  0  0  0  0  0  0
   -5.2934  -10.6516   -1.3736 H   0  0  0  0  0  0  0  0  0  0  0  0
   -4.6041  -11.7525   -0.2208 H   0  0  0  0  0  0  0  0  0  0  0  0
  1 24  1  0  0  0  0
  1 25  1  0  0  0  0
  1 26  1  0  0  0  0
  2  1  1  6  0  0  0
  2  3  1  0  0  0  0
  2 15  1  0  0  0  0
  2 18  1  0  0  0  0
  3  4  1  0  0  0  0
  3 27  1  0  0  0  0
  3 28  1  0  0  0  0
  4 29  1  0  0  0  0
  4 30  1  0  0  0  0
  5  4  1  0  0  0  0
  5  6  1  0  0  0  0
  5 14  1  0  0  0  0
  5 31  1  1  0  0  0
  6  7  2  0  0  0  0
  6 11  1  0  0  0  0
  7  8  1  0  0  0  0
  7 32  1  0  0  0  0
  8  9  2  0  0  0  0
  8 22  1  0  0  0  0
  9 10  1  0  0  0  0
  9 19  1  0  0  0  0
 10 11  2  0  0  0  0
 10 33  1  0  0  0  0
 11 12  1  0  0  0  0
 12 13  1  0  0  0  0
 12 34  1  0  0  0  0
 12 35  1  0  0  0  0
 13 36  1  0  0  0  0
 13 37  1  0  0  0  0
 14 13  1  0  0  0  0
 14 15  1  0  0  0  0
 14 38  1  6  0  0  0
 15 16  1  0  0  0  0
 15 39  1  1  0  0  0
 16 17  1  0  0  0  0
 16 40  1  0  0  0  0
 16 41  1  0  0  0  0
 17 18  2  0  0  0  0
 17 42  1  0  0  0  0
 18 43  1  0  0  0  0
 19 20  2  0  0  0  0
 19 21  1  0  0  0  0
 21 44  1  0  0  0  0
 21 45  1  0  0  0  0
 22 23  1  0  0  0  0
 23 46  1  0  0  0  0
 23 47  1  0  0  0  0
 23 48  1  0  0  0  0
M  END
>  <DRUGBANK_ID>
DB05959

>  <COMMON_NAME>
ENMD-1198

>  <CAS_NUMBER>
864668-87-1

>  <UNII>
760O4GJB9O

$$$$
