
 OpenBabel10282417133D

 19 19  0  0  0  0  0  0  0  0999 V2000
    0.9339   -0.0281   -0.0696 O   0  0  0  0  0  0  0  0  0  0  0  0
    0.4339    1.0882    0.7987 B   0  0  0  0  0  0  0  0  0  0  0  0
    1.4087    1.9881    1.4988 O   0  0  0  0  0  0  0  0  0  0  0  0
   -1.1391    1.3189    0.9783 C   0  0  0  0  0  0  0  0  0  0  0  0
   -1.9291    0.2756    1.2032 C   0  0  0  0  0  0  0  0  0  0  0  0
   -3.2552    0.4564    1.5140 C   0  0  0  0  0  0  0  0  0  0  0  0
   -3.8146    1.7041    1.5099 C   0  0  0  0  0  0  0  0  0  0  0  0
   -2.9844    2.7195    1.3557 C   0  0  0  0  0  0  0  0  0  0  0  0
   -1.6512    2.6033    0.8962 C   0  0  0  0  0  0  0  0  0  0  0  0
   -5.3114    1.9112    1.6739 C   0  0  0  0  0  0  0  0  0  0  0  0
   -5.8518    3.2243    1.6638 O   0  0  0  0  0  0  0  0  0  0  0  0
   -6.0793    0.9091    1.8200 O   0  0  0  0  0  0  0  0  0  0  0  0
    1.9339   -0.0281   -0.0696 H   0  0  0  0  0  0  0  0  0  0  0  0
    2.3419    1.7045    1.2782 H   0  0  0  0  0  0  0  0  0  0  0  0
   -1.5293   -0.7150    1.1419 H   0  0  0  0  0  0  0  0  0  0  0  0
   -3.8588   -0.3913    1.7629 H   0  0  0  0  0  0  0  0  0  0  0  0
   -3.3450    3.6980    1.5950 H   0  0  0  0  0  0  0  0  0  0  0  0
   -1.0895    3.4325    0.5194 H   0  0  0  0  0  0  0  0  0  0  0  0
   -5.2476    4.0128    1.5489 H   0  0  0  0  0  0  0  0  0  0  0  0
  1  2  1  0  0  0  0
  1 13  1  0  0  0  0
  2  3  1  0  0  0  0
  2  4  1  0  0  0  0
  3 14  1  0  0  0  0
  4  5  2  0  0  0  0
  4  9  1  0  0  0  0
  5  6  1  0  0  0  0
  5 15  1  0  0  0  0
  6  7  2  0  0  0  0
  6 16  1  0  0  0  0
  7  8  1  0  0  0  0
  7 10  1  0  0  0  0
  8  9  2  0  0  0  0
  8 17  1  0  0  0  0
  9 18  1  0  0  0  0
 10 11  1  0  0  0  0
 10 12  2  0  0  0  0
 11 19  1  0  0  0  0
M  END
>  <DRUGBANK_ID>
DB03140

>  <SECONDARY_ACCESSION_NUMBERS>
EXPT00208

>  <COMMON_NAME>
4-Carboxyphenylboronic Acid

>  <UNII>
XQQ1T11DYK

$$$$
