
 OpenBabel10282417193D

 43 44  0  0  1  0  0  0  0  0999 V2000
    0.9925    0.0652   -0.0534 C   0  0  0  0  0  0  0  0  0  0  0  0
    0.5189    1.2050   -0.9659 C   0  0  1  0  0  0  0  0  0  0  0  0
    1.1770    1.2072   -2.2962 C   0  0  0  0  0  0  0  0  0  0  0  0
    1.3342   -0.0053   -2.9606 C   0  0  0  0  0  0  0  0  0  0  0  0
    1.7439   -0.0082   -4.2708 C   0  0  0  0  0  0  0  0  0  0  0  0
    1.9562    1.2028   -4.9315 C   0  0  0  0  0  0  0  0  0  0  0  0
    2.3317    1.2035   -6.2689 C   0  0  0  0  0  0  0  0  0  0  0  0
    2.5444    2.4054   -6.9421 C   0  0  0  0  0  0  0  0  0  0  0  0
    2.3612    3.6191   -6.2757 C   0  0  0  0  0  0  0  0  0  0  0  0
    1.9754    3.6396   -4.9395 C   0  0  0  0  0  0  0  0  0  0  0  0
    1.7802    2.4373   -4.2617 C   0  0  0  0  0  0  0  0  0  0  0  0
    1.3955    2.4336   -2.9331 C   0  0  0  0  0  0  0  0  0  0  0  0
    2.9313    2.2691   -8.2465 O   0  0  0  0  0  0  0  0  0  0  0  0
    3.1792    3.4813   -8.9460 C   0  0  0  0  0  0  0  0  0  0  0  0
   -0.9772    1.3113   -1.3058 C   0  0  0  0  0  0  0  0  0  0  0  0
   -1.5186    2.3942   -1.5119 O   0  0  0  0  0  0  0  0  0  0  0  0
   -1.6453    0.1330   -1.2534 O   0  0  0  0  0  0  0  0  0  0  0  0
   -3.0743    0.2888   -1.2515 C   0  0  0  0  0  0  0  0  0  0  0  0
   -3.5756    0.3361    0.1808 C   0  0  0  0  0  0  0  0  0  0  0  0
   -3.1940    1.8096    1.1465 S   0  0  0  0  0  0  0  0  0  0  0  0
   -3.5599    2.9813    0.3610 O   0  0  0  0  0  0  0  0  0  0  0  0
   -3.8060    1.6092    2.4396 O   0  0  0  0  0  0  0  0  0  0  0  0
   -1.4453    1.8712    1.5064 C   0  0  0  0  0  0  0  0  0  0  0  0
    0.6404   -0.9157   -0.3820 H   0  0  0  0  0  0  0  0  0  0  0  0
    0.6645    0.1813    0.9819 H   0  0  0  0  0  0  0  0  0  0  0  0
    2.0902    0.0419   -0.0243 H   0  0  0  0  0  0  0  0  0  0  0  0
    0.8194    2.1287   -0.4472 H   0  0  0  0  0  0  0  0  0  0  0  0
    1.0805   -0.9456   -2.4801 H   0  0  0  0  0  0  0  0  0  0  0  0
    1.8648   -0.9664   -4.7630 H   0  0  0  0  0  0  0  0  0  0  0  0
    2.4589    0.2597   -6.7914 H   0  0  0  0  0  0  0  0  0  0  0  0
    2.5116    4.5722   -6.7675 H   0  0  0  0  0  0  0  0  0  0  0  0
    1.8343    4.5960   -4.4405 H   0  0  0  0  0  0  0  0  0  0  0  0
    1.1924    3.3698   -2.4092 H   0  0  0  0  0  0  0  0  0  0  0  0
    2.2674    4.0843   -9.0167 H   0  0  0  0  0  0  0  0  0  0  0  0
    3.9916    4.0475   -8.4770 H   0  0  0  0  0  0  0  0  0  0  0  0
    3.4921    3.2264   -9.9611 H   0  0  0  0  0  0  0  0  0  0  0  0
   -3.4266    1.1315   -1.8612 H   0  0  0  0  0  0  0  0  0  0  0  0
   -3.4813   -0.6067   -1.7448 H   0  0  0  0  0  0  0  0  0  0  0  0
   -4.6718    0.2913    0.1628 H   0  0  0  0  0  0  0  0  0  0  0  0
   -3.2102   -0.5263    0.7459 H   0  0  0  0  0  0  0  0  0  0  0  0
   -1.1258    0.9179    1.9265 H   0  0  0  0  0  0  0  0  0  0  0  0
   -0.8511    2.1181    0.6592 H   0  0  0  0  0  0  0  0  0  0  0  0
   -1.2178    2.7077    2.1645 H   0  0  0  0  0  0  0  0  0  0  0  0
  1 24  1  0  0  0  0
  1 25  1  0  0  0  0
  1 26  1  0  0  0  0
  2  1  1  0  0  0  0
  2  3  1  0  0  0  0
  2 15  1  0  0  0  0
  2 27  1  1  0  0  0
  3  4  2  0  0  0  0
  3 12  1  0  0  0  0
  4  5  1  0  0  0  0
  4 28  1  0  0  0  0
  5  6  2  0  0  0  0
  5 29  1  0  0  0  0
  6  7  1  0  0  0  0
  6 11  1  0  0  0  0
  7  8  2  0  0  0  0
  7 30  1  0  0  0  0
  8  9  1  0  0  0  0
  8 13  1  0  0  0  0
  9 10  2  0  0  0  0
  9 31  1  0  0  0  0
 10 11  1  0  0  0  0
 10 32  1  0  0  0  0
 11 12  2  0  0  0  0
 12 33  1  0  0  0  0
 13 14  1  0  0  0  0
 14 34  1  0  0  0  0
 14 35  1  0  0  0  0
 14 36  1  0  0  0  0
 15 16  2  0  0  0  0
 15 17  1  0  0  0  0
 17 18  1  0  0  0  0
 18 19  1  0  0  0  0
 18 37  1  0  0  0  0
 18 38  1  0  0  0  0
 19 20  1  0  0  0  0
 19 39  1  0  0  0  0
 19 40  1  0  0  0  0
 20 21  2  0  0  0  0
 20 22  2  0  0  0  0
 20 23  1  0  0  0  0
 23 41  1  0  0  0  0
 23 42  1  0  0  0  0
 23 43  1  0  0  0  0
M  END
>  <DRUGBANK_ID>
DB12398

>  <SECONDARY_ACCESSION_NUMBERS>
DB05844

>  <COMMON_NAME>
Naproxen etemesil

>  <CAS_NUMBER>
385800-16-8

>  <UNII>
214269U36R

>  <SYNONYMS>
Naproxen etemesil

$$$$
