
 OpenBabel10282417183D

 70 72  0  0  1  0  0  0  0  0999 V2000
    0.9840    0.0227   -0.0562 C   0  0  0  0  0  0  0  0  0  0  0  0
    0.4769    1.2676    0.6640 C   0  0  1  0  0  0  0  0  0  0  0  0
    1.3119    2.4675    0.2124 C   0  0  0  0  0  0  0  0  0  0  0  0
    2.4033    2.8940    0.9181 C   0  0  0  0  0  0  0  0  0  0  0  0
    3.1080    4.1334    0.4650 C   0  0  0  0  0  0  0  0  0  0  0  0
    1.7480    4.6731    0.2018 C   0  0  2  0  0  0  0  0  0  0  0  0
    1.2022    3.4539   -0.9830 C   0  0  2  0  0  0  0  0  0  0  0  0
    0.0373    4.0891   -1.7313 C   0  0  0  0  0  0  0  0  0  0  0  0
   -0.0481    5.4896   -1.2933 C   0  0  0  0  0  0  0  0  0  0  0  0
   -0.4100    5.1729    0.1351 C   0  0  0  0  0  0  0  0  0  0  0  0
    0.6021    4.8537    1.2596 C   0  0  0  0  0  0  0  0  0  0  0  0
    0.5932    4.3574    2.5791 C   0  0  0  0  0  0  0  0  0  0  0  0
   -0.4668    3.6367    3.4510 C   0  0  0  0  0  0  0  0  0  0  0  0
   -0.4813    3.2684    4.7776 C   0  0  0  0  0  0  0  0  0  0  0  0
   -1.7952    3.0201    5.5195 C   0  0  0  0  0  0  0  0  0  0  0  0
   -1.9096    4.0892    6.6245 C   0  0  2  0  0  0  0  0  0  0  0  0
   -0.5620    4.2208    7.3606 C   0  0  0  0  0  0  0  0  0  0  0  0
    0.5865    4.5853    6.4166 C   0  0  1  0  0  0  0  0  0  0  0  0
    0.7135    3.4706    5.4509 C   0  0  0  0  0  0  0  0  0  0  0  0
    1.7991    2.7276    5.0724 C   0  0  0  0  0  0  0  0  0  0  0  0
    0.2811    5.8207    5.7508 O   0  0  0  0  0  0  0  0  0  0  0  0
   -2.9365    3.7389    7.5493 O   0  0  0  0  0  0  0  0  0  0  0  0
    1.5968    2.5291   -2.1551 C   0  0  0  0  0  0  0  0  0  0  0  0
   -0.9499    1.4115    0.7804 O   0  0  0  0  0  0  0  0  0  0  0  0
   -1.8007    1.2069   -0.3270 C   0  0  0  0  0  0  0  0  0  0  0  0
   -2.3216    2.4090   -1.1346 C   0  0  0  0  0  0  0  0  0  0  0  0
   -2.2422    2.3354   -2.3732 O   0  0  0  0  0  0  0  0  0  0  0  0
   -2.7313    3.6210   -0.5827 N   0  0  0  0  0  0  0  0  0  0  0  0
   -3.1941    4.1032    0.7799 C   0  0  0  0  0  0  0  0  0  0  0  0
   -2.3253    4.8954    1.8176 C   0  0  0  0  0  0  0  0  0  0  0  0
   -1.6216    6.5247    1.9913 C   0  0  0  0  0  0  0  0  0  0  0  0
   -2.6479    7.4114    1.9870 F   0  0  0  0  0  0  0  0  0  0  0  0
   -0.9556    6.6906    3.1751 F   0  0  0  0  0  0  0  0  0  0  0  0
   -0.7540    7.1036    1.0951 F   0  0  0  0  0  0  0  0  0  0  0  0
   -2.9172    4.6940    3.0473 F   0  0  0  0  0  0  0  0  0  0  0  0
   -1.4318    3.8889    1.6844 F   0  0  0  0  0  0  0  0  0  0  0  0
    0.6932    0.0332   -1.1066 H   0  0  0  0  0  0  0  0  0  0  0  0
    0.5932   -0.8962    0.3876 H   0  0  0  0  0  0  0  0  0  0  0  0
    2.0815   -0.0191   -0.0207 H   0  0  0  0  0  0  0  0  0  0  0  0
    0.7620    1.0948    1.7192 H   0  0  0  0  0  0  0  0  0  0  0  0
    2.5941    2.5570    1.9310 H   0  0  0  0  0  0  0  0  0  0  0  0
    3.4525    5.0522   -0.0455 H   0  0  0  0  0  0  0  0  0  0  0  0
    3.5058    3.6635   -0.4534 H   0  0  0  0  0  0  0  0  0  0  0  0
    1.8444    5.7745    0.0326 H   0  0  0  0  0  0  0  0  0  0  0  0
   -0.5297    3.9934   -2.6658 H   0  0  0  0  0  0  0  0  0  0  0  0
   -0.5670    3.3367   -1.2986 H   0  0  0  0  0  0  0  0  0  0  0  0
   -0.8277    6.0890   -1.7674 H   0  0  0  0  0  0  0  0  0  0  0  0
    0.8942    5.9907   -1.5387 H   0  0  0  0  0  0  0  0  0  0  0  0
   -1.3544    5.6853    0.1537 H   0  0  0  0  0  0  0  0  0  0  0  0
   -0.7687    4.1715    0.1181 H   0  0  0  0  0  0  0  0  0  0  0  0
    1.5544    4.3283    3.0828 H   0  0  0  0  0  0  0  0  0  0  0  0
   -1.3803    3.1402    3.1530 H   0  0  0  0  0  0  0  0  0  0  0  0
   -2.7006    3.0964    4.8934 H   0  0  0  0  0  0  0  0  0  0  0  0
   -1.8403    2.0063    5.9392 H   0  0  0  0  0  0  0  0  0  0  0  0
   -2.2081    5.0481    6.1764 H   0  0  0  0  0  0  0  0  0  0  0  0
   -0.6397    4.9708    8.1486 H   0  0  0  0  0  0  0  0  0  0  0  0
   -0.3450    3.2546    7.8349 H   0  0  0  0  0  0  0  0  0  0  0  0
    1.5319    4.7306    6.9331 H   0  0  0  0  0  0  0  0  0  0  0  0
    2.7741    2.9104    5.4607 H   0  0  0  0  0  0  0  0  0  0  0  0
    1.6851    2.0160    4.2536 H   0  0  0  0  0  0  0  0  0  0  0  0
   -0.4715    5.6998    5.1404 H   0  0  0  0  0  0  0  0  0  0  0  0
   -2.9034    4.3954    8.2678 H   0  0  0  0  0  0  0  0  0  0  0  0
    0.6660    1.9991   -2.4962 H   0  0  0  0  0  0  0  0  0  0  0  0
    1.9007    3.0623   -3.0560 H   0  0  0  0  0  0  0  0  0  0  0  0
    2.2367    1.6759   -1.9363 H   0  0  0  0  0  0  0  0  0  0  0  0
   -1.3414    0.4987   -1.0338 H   0  0  0  0  0  0  0  0  0  0  0  0
   -2.7279    0.7276   -0.0046 H   0  0  0  0  0  0  0  0  0  0  0  0
   -2.5312    4.3634   -1.2403 H   0  0  0  0  0  0  0  0  0  0  0  0
   -4.1074    4.6353    0.6395 H   0  0  0  0  0  0  0  0  0  0  0  0
   -3.3327    3.1210    1.2754 H   0  0  0  0  0  0  0  0  0  0  0  0
  1 37  1  0  0  0  0
  1 38  1  0  0  0  0
  1 39  1  0  0  0  0
  2  1  1  0  0  0  0
  2 24  1  0  0  0  0
  2 40  1  1  0  0  0
  2  3  1  0  0  0  0
  3  4  2  0  0  0  0
  3  7  1  0  0  0  0
  4  5  1  0  0  0  0
  4 41  1  0  0  0  0
  5 42  1  0  0  0  0
  5 43  1  0  0  0  0
  6  5  1  0  0  0  0
  6  7  1  0  0  0  0
  6 11  1  0  0  0  0
  6 44  1  1  0  0  0
  7  8  1  0  0  0  0
  7 23  1  6  0  0  0
  8  9  1  0  0  0  0
  8 45  1  0  0  0  0
  8 46  1  0  0  0  0
  9 10  1  0  0  0  0
  9 47  1  0  0  0  0
  9 48  1  0  0  0  0
 10 11  1  0  0  0  0
 10 49  1  0  0  0  0
 10 50  1  0  0  0  0
 11 12  2  0  0  0  0
 12 13  1  0  0  0  0
 12 51  1  0  0  0  0
 13 14  2  0  0  0  0
 13 52  1  0  0  0  0
 14 15  1  0  0  0  0
 14 19  1  0  0  0  0
 15 16  1  0  0  0  0
 15 53  1  0  0  0  0
 15 54  1  0  0  0  0
 16 17  1  0  0  0  0
 16 55  1  6  0  0  0
 16 22  1  0  0  0  0
 17 18  1  0  0  0  0
 17 56  1  0  0  0  0
 17 57  1  0  0  0  0
 18 19  1  0  0  0  0
 18 21  1  0  0  0  0
 18 58  1  1  0  0  0
 19 20  2  0  0  0  0
 20 59  1  0  0  0  0
 20 60  1  0  0  0  0
 21 61  1  0  0  0  0
 22 62  1  0  0  0  0
 23 63  1  0  0  0  0
 23 64  1  0  0  0  0
 23 65  1  0  0  0  0
 24 25  1  0  0  0  0
 25 26  1  0  0  0  0
 25 66  1  0  0  0  0
 25 67  1  0  0  0  0
 26 27  2  0  0  0  0
 26 28  1  0  0  0  0
 28 29  1  0  0  0  0
 28 68  1  0  0  0  0
 29 30  1  0  0  0  0
 29 69  1  0  0  0  0
 29 70  1  0  0  0  0
 30 31  1  0  0  0  0
 30 35  1  0  0  0  0
 30 36  1  0  0  0  0
 31 32  1  0  0  0  0
 31 33  1  0  0  0  0
 31 34  1  0  0  0  0
M  END
>  <DRUGBANK_ID>
DB11786

>  <COMMON_NAME>
Pefcalcitol

>  <CAS_NUMBER>
381212-03-9

>  <UNII>
KT5224XSHW

>  <SYNONYMS>
Pefcalcitol

$$$$
