
 OpenBabel10282417193D

 65 69  0  0  0  0  0  0  0  0999 V2000
    0.2314    0.7461   -0.0344 C   0  0  0  0  0  0  0  0  0  0  0  0
    0.1598   -0.6299   -0.0314 C   0  0  0  0  0  0  0  0  0  0  0  0
    1.4245   -1.1563   -0.0556 N   0  0  0  0  0  0  0  0  0  0  0  0
    2.2786   -0.1001   -0.2516 C   0  0  0  0  0  0  0  0  0  0  0  0
    1.6097    1.0586   -0.1531 C   0  0  0  0  0  0  0  0  0  0  0  0
    3.6821   -0.3705   -0.2132 C   0  0  0  0  0  0  0  0  0  0  0  0
    4.3516   -0.9791   -1.2734 C   0  0  0  0  0  0  0  0  0  0  0  0
    5.7363   -1.1750   -1.2681 C   0  0  0  0  0  0  0  0  0  0  0  0
    6.4658   -0.8611   -0.1350 C   0  0  0  0  0  0  0  0  0  0  0  0
    8.1059   -0.4627   -0.6310 C   0  0  0  0  0  0  0  0  0  0  0  0
    8.7884    0.9361   -0.4762 N   0  0  0  0  0  0  0  0  0  0  0  0
    8.3502    1.1754    0.8638 C   0  0  0  0  0  0  0  0  0  0  0  0
    6.9286    1.6615    0.6071 C   0  0  0  0  0  0  0  0  0  0  0  0
    6.3158    2.7614   -0.0611 N   0  0  0  0  0  0  0  0  0  0  0  0
    7.0043    2.8302   -1.3477 C   0  0  0  0  0  0  0  0  0  0  0  0
    8.4820    2.2858   -1.2176 C   0  0  0  0  0  0  0  0  0  0  0  0
    6.2089    3.7486    0.9739 C   0  0  0  0  0  0  0  0  0  0  0  0
    7.5213    3.9207    1.7265 C   0  0  0  0  0  0  0  0  0  0  0  0
    5.6285   -0.4087    1.0583 C   0  0  0  0  0  0  0  0  0  0  0  0
    4.2850   -0.0363    0.9523 C   0  0  0  0  0  0  0  0  0  0  0  0
   -0.9222   -1.4115   -0.0044 N   0  0  0  0  0  0  0  0  0  0  0  0
   -2.0237   -0.6538   -0.0181 C   0  0  0  0  0  0  0  0  0  0  0  0
   -2.1205    0.6936    0.0446 N   0  0  0  0  0  0  0  0  0  0  0  0
   -0.9823    1.4372    0.0799 C   0  0  0  0  0  0  0  0  0  0  0  0
   -1.1183    2.7979    0.2232 N   0  0  0  0  0  0  0  0  0  0  0  0
   -0.0231    3.7425    0.3097 C   0  0  1  0  0  0  0  0  0  0  0  0
   -0.0009    4.7011   -0.8541 C   0  0  0  0  0  0  0  0  0  0  0  0
   -1.1937    5.2640   -1.3154 C   0  0  0  0  0  0  0  0  0  0  0  0
   -1.1778    6.2573   -2.2837 C   0  0  0  0  0  0  0  0  0  0  0  0
    0.0357    6.7156   -2.7884 C   0  0  0  0  0  0  0  0  0  0  0  0
    1.2362    6.1728   -2.3336 C   0  0  0  0  0  0  0  0  0  0  0  0
    1.2196    5.1294   -1.4094 C   0  0  0  0  0  0  0  0  0  0  0  0
   -0.0214    4.4777    1.6408 C   0  0  0  0  0  0  0  0  0  0  0  0
    1.6858   -2.0941    0.0407 H   0  0  0  0  0  0  0  0  0  0  0  0
    2.1264    2.0188   -0.1751 H   0  0  0  0  0  0  0  0  0  0  0  0
    3.7940   -1.2184   -2.1671 H   0  0  0  0  0  0  0  0  0  0  0  0
    6.2456   -1.3891   -2.1990 H   0  0  0  0  0  0  0  0  0  0  0  0
    8.7137   -1.1144    0.0234 H   0  0  0  0  0  0  0  0  0  0  0  0
    8.3345   -0.8432   -1.6333 H   0  0  0  0  0  0  0  0  0  0  0  0
    8.3036    0.2363    1.4460 H   0  0  0  0  0  0  0  0  0  0  0  0
    8.9956    1.7641    1.5093 H   0  0  0  0  0  0  0  0  0  0  0  0
    6.4997    1.0615   -0.1672 H   0  0  0  0  0  0  0  0  0  0  0  0
    6.5635    1.6001    1.6045 H   0  0  0  0  0  0  0  0  0  0  0  0
    6.5236    2.1451   -2.0740 H   0  0  0  0  0  0  0  0  0  0  0  0
    6.8624    3.8261   -1.7779 H   0  0  0  0  0  0  0  0  0  0  0  0
    8.9553    3.0697   -0.5949 H   0  0  0  0  0  0  0  0  0  0  0  0
    9.0245    2.4140   -2.1592 H   0  0  0  0  0  0  0  0  0  0  0  0
    5.7793    4.6598    0.5856 H   0  0  0  0  0  0  0  0  0  0  0  0
    5.4697    3.3422    1.6981 H   0  0  0  0  0  0  0  0  0  0  0  0
    8.3253    4.1301    1.0223 H   0  0  0  0  0  0  0  0  0  0  0  0
    7.4744    4.6719    2.4969 H   0  0  0  0  0  0  0  0  0  0  0  0
    7.7837    3.0235    2.3010 H   0  0  0  0  0  0  0  0  0  0  0  0
    5.9079    0.1081    1.9811 H   0  0  0  0  0  0  0  0  0  0  0  0
    3.7774    0.6126    1.6907 H   0  0  0  0  0  0  0  0  0  0  0  0
   -2.9490   -1.2147   -0.0899 H   0  0  0  0  0  0  0  0  0  0  0  0
   -2.0732    3.1194    0.2734 H   0  0  0  0  0  0  0  0  0  0  0  0
    0.9312    3.2544    0.3155 H   0  0  0  0  0  0  0  0  0  0  0  0
   -2.1442    4.9353   -0.9076 H   0  0  0  0  0  0  0  0  0  0  0  0
   -2.1174    6.6855   -2.6160 H   0  0  0  0  0  0  0  0  0  0  0  0
    0.0426    7.4974   -3.5410 H   0  0  0  0  0  0  0  0  0  0  0  0
    2.1820    6.5766   -2.6859 H   0  0  0  0  0  0  0  0  0  0  0  0
    2.1643    4.6746   -1.1119 H   0  0  0  0  0  0  0  0  0  0  0  0
    0.0015    3.7645    2.4717 H   0  0  0  0  0  0  0  0  0  0  0  0
    0.8792    5.1010    1.7197 H   0  0  0  0  0  0  0  0  0  0  0  0
   -0.8940    5.1242    1.7521 H   0  0  0  0  0  0  0  0  0  0  0  0
  2  1  2  0  0  0  0
  3  2  1  0  0  0  0
  3  4  1  0  0  0  0
  3 34  1  0  0  0  0
  4  5  2  0  0  0  0
  5  1  1  0  0  0  0
  5 35  1  0  0  0  0
  6  4  1  0  0  0  0
  7  6  1  0  0  0  0
  7 36  1  0  0  0  0
  8  7  2  0  0  0  0
  8 37  1  0  0  0  0
  9  8  1  0  0  0  0
  9 19  2  0  0  0  0
 10  9  1  0  0  0  0
 10 38  1  0  0  0  0
 10 39  1  0  0  0  0
 11 10  1  0  0  0  0
 12 11  1  0  0  0  0
 12 40  1  0  0  0  0
 12 41  1  0  0  0  0
 13 12  1  0  0  0  0
 13 42  1  0  0  0  0
 13 43  1  0  0  0  0
 14 13  1  0  0  0  0
 14 15  1  0  0  0  0
 15 16  1  0  0  0  0
 15 44  1  0  0  0  0
 15 45  1  0  0  0  0
 16 11  1  0  0  0  0
 16 46  1  0  0  0  0
 16 47  1  0  0  0  0
 17 14  1  0  0  0  0
 17 48  1  0  0  0  0
 17 49  1  0  0  0  0
 18 17  1  0  0  0  0
 18 50  1  0  0  0  0
 18 51  1  0  0  0  0
 18 52  1  0  0  0  0
 19 20  1  0  0  0  0
 19 53  1  0  0  0  0
 20  6  2  0  0  0  0
 20 54  1  0  0  0  0
 21  2  1  0  0  0  0
 22 21  2  0  0  0  0
 22 55  1  0  0  0  0
 23 22  1  0  0  0  0
 23 24  2  0  0  0  0
 24  1  1  0  0  0  0
 25 24  1  0  0  0  0
 25 56  1  0  0  0  0
 26 25  1  0  0  0  0
 26 33  1  0  0  0  0
 26 57  1  6  0  0  0
 27 26  1  0  0  0  0
 28 27  2  0  0  0  0
 28 58  1  0  0  0  0
 29 28  1  0  0  0  0
 29 59  1  0  0  0  0
 30 29  2  0  0  0  0
 30 60  1  0  0  0  0
 31 30  1  0  0  0  0
 31 32  2  0  0  0  0
 31 61  1  0  0  0  0
 32 27  1  0  0  0  0
 32 62  1  0  0  0  0
 33 63  1  0  0  0  0
 33 64  1  0  0  0  0
 33 65  1  0  0  0  0
M  END
>  <DRUGBANK_ID>
DB12558

>  <COMMON_NAME>
AEE-788

>  <CAS_NUMBER>
497839-62-0

>  <UNII>
F9JLR95I3I

$$$$
