
 OpenBabel10282417213D

 44 45  0  0  0  0  0  0  0  0999 V2000
    1.2744    0.2989    0.1606 C   0  0  0  0  0  0  0  0  0  0  0  0
    1.3139   -1.8588   -0.8730 C   0  0  0  0  0  0  0  0  0  0  0  0
   -2.2165   -3.1753   -3.8922 C   0  0  0  0  0  0  0  0  0  0  0  0
   -1.1851   -2.5621   -2.0544 C   0  0  0  0  0  0  0  0  0  0  0  0
    2.8508   -3.9526   -4.3500 C   0  0  0  0  0  0  0  0  0  0  0  0
    3.0558   -2.6743   -3.8057 C   0  0  0  0  0  0  0  0  0  0  0  0
    0.6351   -3.2867   -5.0134 C   0  0  0  0  0  0  0  0  0  0  0  0
   -0.0386    0.1777   -3.5887 C   0  0  0  0  0  0  0  0  0  0  0  0
   -0.9250   -0.0551   -0.8427 C   0  0  0  0  0  0  0  0  0  0  0  0
    1.6436   -4.2425   -4.9754 C   0  0  0  0  0  0  0  0  0  0  0  0
    0.7792   -2.0694   -4.3368 C   0  0  0  0  0  0  0  0  0  0  0  0
    2.0339   -1.7037   -3.8024 C   0  0  0  0  0  0  0  0  0  0  0  0
   -0.4861   -1.2545   -4.1004 C   0  0  1  0  0  0  0  0  0  0  0  0
    1.0726    0.1887   -2.4945 C   0  0  1  0  0  0  0  0  0  0  0  0
    0.6651   -0.3728   -1.0678 C   0  0  0  0  0  0  0  0  0  0  0  0
    2.2207   -0.5197   -3.0897 N   0  0  0  0  0  0  0  0  0  0  0  0
   -1.5862   -1.9982   -3.3248 N   0  0  0  0  0  0  0  0  0  0  0  0
    1.3589   -5.5585   -5.5541 N   0  0  0  0  0  0  0  0  0  0  0  0
   -1.2211    1.3405   -0.7944 O   0  0  0  0  0  0  0  0  0  0  0  0
    0.2322   -5.7773   -5.9866 O   0  0  0  0  0  0  0  0  0  0  0  0
    2.2971   -6.3898   -5.5641 O   0  0  0  0  0  0  0  0  0  0  0  0
   -0.9277   -1.0407   -5.0849 H   0  0  0  0  0  0  0  0  0  0  0  0
    1.3835    1.2323   -2.3397 H   0  0  0  0  0  0  0  0  0  0  0  0
    0.8949   -0.2432    1.0442 H   0  0  0  0  0  0  0  0  0  0  0  0
    0.9741    1.3386    0.2615 H   0  0  0  0  0  0  0  0  0  0  0  0
    2.3609    0.2318    0.1695 H   0  0  0  0  0  0  0  0  0  0  0  0
    0.8696   -2.4139   -0.0433 H   0  0  0  0  0  0  0  0  0  0  0  0
    1.2338   -2.5384   -1.7283 H   0  0  0  0  0  0  0  0  0  0  0  0
    2.4029   -1.8121   -0.7439 H   0  0  0  0  0  0  0  0  0  0  0  0
   -1.5331   -4.0355   -3.8763 H   0  0  0  0  0  0  0  0  0  0  0  0
   -3.0358   -3.4709   -3.2186 H   0  0  0  0  0  0  0  0  0  0  0  0
   -2.6168   -3.0154   -4.8836 H   0  0  0  0  0  0  0  0  0  0  0  0
   -0.6573   -3.5198   -2.0341 H   0  0  0  0  0  0  0  0  0  0  0  0
   -0.4562   -1.8824   -1.8082 H   0  0  0  0  0  0  0  0  0  0  0  0
   -1.9350   -2.5113   -1.2591 H   0  0  0  0  0  0  0  0  0  0  0  0
    3.6301   -4.7071   -4.2616 H   0  0  0  0  0  0  0  0  0  0  0  0
    3.9902   -2.4765   -3.2836 H   0  0  0  0  0  0  0  0  0  0  0  0
   -0.3134   -3.5138   -5.4860 H   0  0  0  0  0  0  0  0  0  0  0  0
   -0.8942    0.8004   -3.3105 H   0  0  0  0  0  0  0  0  0  0  0  0
    0.3923    0.7199   -4.4521 H   0  0  0  0  0  0  0  0  0  0  0  0
   -1.5916   -0.3400   -1.6548 H   0  0  0  0  0  0  0  0  0  0  0  0
   -1.3288   -0.5673    0.0392 H   0  0  0  0  0  0  0  0  0  0  0  0
    3.1597   -0.2074   -2.8678 H   0  0  0  0  0  0  0  0  0  0  0  0
   -1.0834    1.6468    0.1122 H   0  0  0  0  0  0  0  0  0  0  0  0
  1 24  1  0  0  0  0
  1 25  1  0  0  0  0
  1 26  1  0  0  0  0
  2 27  1  0  0  0  0
  2 28  1  0  0  0  0
  2 29  1  0  0  0  0
  3 30  1  0  0  0  0
  3 31  1  0  0  0  0
  3 32  1  0  0  0  0
  4 33  1  0  0  0  0
  4 34  1  0  0  0  0
  4 35  1  0  0  0  0
  5 36  1  0  0  0  0
  6  5  2  0  0  0  0
  6 37  1  0  0  0  0
  7 38  1  0  0  0  0
  8 39  1  0  0  0  0
  8 40  1  0  0  0  0
  9 41  1  0  0  0  0
  9 42  1  0  0  0  0
 10  5  1  0  0  0  0
 10  7  2  0  0  0  0
 11  7  1  0  0  0  0
 12  6  1  0  0  0  0
 12 11  2  0  0  0  0
 13  8  1  0  0  0  0
 13 11  1  0  0  0  0
 13 17  1  0  0  0  0
 13 22  1  6  0  0  0
 14  8  1  0  0  0  0
 14 15  1  0  0  0  0
 14 16  1  0  0  0  0
 14 23  1  1  0  0  0
 15  1  1  0  0  0  0
 15  2  1  0  0  0  0
 15  9  1  0  0  0  0
 16 12  1  0  0  0  0
 16 43  1  0  0  0  0
 17  3  1  0  0  0  0
 17  4  1  0  0  0  0
 18 10  1  0  0  0  0
 19  9  1  0  0  0  0
 19 44  1  0  0  0  0
 20 18  2  0  0  0  0
 21 18  2  0  0  0  0
M  END
>  <DRUGBANK_ID>
DB13938

>  <COMMON_NAME>
S-40503

>  <CAS_NUMBER>
404920-28-1

>  <UNII>
TBF49WHM83

>  <SYNONYMS>
2-(4-(Dimethylamino)-6-nitro-1,2,3,4-tetrahydroquinolin-2-yl)-2-methylpropan-1-ol

$$$$
