
 OpenBabel10282417133D

  5  4  0  0  0  0  0  0  0  0999 V2000
    1.2132   -0.1203   -0.0764 S   0  5  0  0  0  0  0  0  0  0  0  0
    3.2326   -0.0978   -0.0110 S   0  0  0  0  0  0  0  0  0  0  0  0
    3.8279   -0.7348   -1.8633 S   0  0  0  0  0  0  0  0  0  0  0  0
    5.8731   -0.7050   -1.7767 S   0  0  0  0  0  0  0  0  0  0  0  0
    6.4810   -1.3316   -3.5989 S   0  5  0  0  0  0  0  0  0  0  0  0
  1  2  1  0  0  0  0
  2  3  1  0  0  0  0
  3  4  1  0  0  0  0
  4  5  1  0  0  0  0
M  CHG  2   1  -1   5  -1
M  END
>  <DRUGBANK_ID>
DB02956

>  <SECONDARY_ACCESSION_NUMBERS>
EXPT02669

>  <COMMON_NAME>
Pentasulfide-Sulfur

$$$$
