
 OpenBabel10282417103D

278284  0  0  0  0  0  0  0  0999 V2000
    1.3440   -0.2250    0.0360 C   0  0  0  0  0  0  0  0  0  0  0  0
   -0.8560   -1.0420    0.0030 C   0  0  0  0  0  0  0  0  0  0  0  0
   -0.7794   -1.4730    4.6340 C   0  0  0  0  0  0  0  0  0  0  0  0
   -0.9237   -3.8131    4.5256 C   0  0  0  0  0  0  0  0  0  0  0  0
    0.8920    1.0800   -0.0700 C   0  0  0  0  0  0  0  0  0  0  0  0
   -1.3730    0.2230   -0.0410 C   0  0  0  0  0  0  0  0  0  0  0  0
   -1.6731   -1.3400    3.5842 C   0  0  0  0  0  0  0  0  0  0  0  0
   -1.8562   -3.7543    3.5273 C   0  0  0  0  0  0  0  0  0  0  0  0
   -0.5090    1.2150    0.0750 C   0  0  0  0  0  0  0  0  0  0  0  0
    0.0471   -5.4220   -4.9212 C   0  0  0  0  0  0  0  0  0  0  0  0
   -1.4545   -5.4159   -4.6855 C   0  0  0  0  0  0  0  0  0  0  0  0
   -1.7625   -4.6655   -3.4001 C   0  0  0  0  0  0  0  0  0  0  0  0
   -2.3850   -2.7342   -3.0243 C   0  0  0  0  0  0  0  0  0  0  0  0
    2.5254   -2.2608   -1.9017 C   0  0  0  0  0  0  0  0  0  0  0  0
   -2.0533   -5.7914   -2.8124 C   0  0  0  0  0  0  0  0  0  0  0  0
   -1.3321   -6.1009   -1.2259 C   0  0  0  0  0  0  0  0  0  0  0  0
   -2.0960   -6.0501    0.0873 C   0  0  0  0  0  0  0  0  0  0  0  0
    1.0454   -2.6695   -0.0580 C   0  0  0  0  0  0  0  0  0  0  0  0
    0.7467   -2.7689    6.0709 C   0  0  0  0  0  0  0  0  0  0  0  0
    0.5020   -1.2510   -0.0040 C   0  0  0  0  0  0  0  0  0  0  0  0
   -0.3628   -2.6677    5.0369 C   0  0  0  0  0  0  0  0  0  0  0  0
   -2.2981   -2.5519    3.2064 C   0  0  0  0  0  0  0  0  0  0  0  0
    0.7815   -9.8086   -3.6650 O   0  0  0  0  0  0  0  0  0  0  0  0
    3.0935   -8.8741   -0.9714 O   0  0  0  0  0  0  0  0  0  0  0  0
    1.3778   -4.8567   -1.7846 O   0  0  0  0  0  0  0  0  0  0  0  0
    4.8152   -3.4312   -1.1374 O   0  0  0  0  0  0  0  0  0  0  0  0
    0.2353   -5.9851   -3.4001 O   0  0  0  0  0  0  0  0  0  0  0  0
    0.6198   -0.7854   -1.6801 O   0  0  0  0  0  0  0  0  0  0  0  0
   -4.0478   -6.6391   -1.7352 O   0  0  0  0  0  0  0  0  0  0  0  0
    2.2439    0.2631    2.9206 O   0  0  0  0  0  0  0  0  0  0  0  0
    1.8402   -5.2974    2.0376 O   0  0  0  0  0  0  0  0  0  0  0  0
    4.3988   -2.3597    6.1055 O   0  0  0  0  0  0  0  0  0  0  0  0
   -3.7294   -4.3131    0.5021 O   0  0  0  0  0  0  0  0  0  0  0  0
    2.9071   -7.5504   -5.2918 C   0  0  0  0  0  0  0  0  0  0  0  0
    3.3649   -6.1518   -4.7788 C   0  0  0  0  0  0  0  0  0  0  0  0
    4.1410   -6.4858   -3.5350 C   0  0  0  0  0  0  0  0  0  0  0  0
    2.6580   -6.9845    0.8825 C   0  0  0  0  0  0  0  0  0  0  0  0
    3.7496   -2.8452    2.9456 C   0  0  0  0  0  0  0  0  0  0  0  0
   -3.4829   -2.4696    2.4280 O   0  0  0  0  0  0  0  0  0  0  0  0
    1.2000   -8.6125   -3.7621 C   0  0  0  0  0  0  0  0  0  0  0  0
    3.0734   -7.7001   -1.4577 C   0  0  0  0  0  0  0  0  0  0  0  0
    0.4322   -5.3578   -2.4700 C   0  0  0  0  0  0  0  0  0  0  0  0
    1.1451   -1.7633   -2.2989 C   0  0  0  0  0  0  0  0  0  0  0  0
   -2.8094   -6.8043   -1.9682 C   0  0  0  0  0  0  0  0  0  0  0  0
   -2.5007   -4.6150    0.3827 C   0  0  0  0  0  0  0  0  0  0  0  0
    2.6763   -8.3408   -4.0011 C   0  0  3  0  0  0  0  0  0  0  0  0
    2.8382   -6.5049   -0.5485 C   0  0  3  0  0  0  0  0  0  0  0  0
    2.4353   -3.7162   -1.4727 C   0  0  3  0  0  0  0  0  0  0  0  0
   -0.0875   -5.2346   -1.1219 C   0  0  3  0  0  0  0  0  0  0  0  0
    2.4991   -2.1061    2.4977 C   0  0  3  0  0  0  0  0  0  0  0  0
    0.5564   -3.4459    1.1538 C   0  0  3  0  0  0  0  0  0  0  0  0
    2.0831   -2.4709    5.4109 C   0  0  3  0  0  0  0  0  0  0  0  0
    3.8156   -4.2137   -1.0756 C   0  0  0  0  0  0  0  0  0  0  0  0
    0.6764   -5.2855   -2.4351 C   0  0  0  0  0  0  0  0  0  0  0  0
    2.2640   -0.9109    3.4068 C   0  0  0  0  0  0  0  0  0  0  0  0
    1.0998   -4.8644    1.0998 C   0  0  0  0  0  0  0  0  0  0  0  0
    3.1926   -2.5722    6.4449 C   0  0  0  0  0  0  0  0  0  0  0  0
    1.3440   -0.2250    0.0360 C   0  0  0  0  0  0  0  0  0  0  0  0
   -0.8560   -1.0420    0.0030 C   0  0  0  0  0  0  0  0  0  0  0  0
   -0.7794   -1.4730    4.6340 C   0  0  0  0  0  0  0  0  0  0  0  0
   -0.9237   -3.8131    4.5256 C   0  0  0  0  0  0  0  0  0  0  0  0
    0.8920    1.0800   -0.0700 C   0  0  0  0  0  0  0  0  0  0  0  0
   -1.3730    0.2230   -0.0410 C   0  0  0  0  0  0  0  0  0  0  0  0
   -1.6731   -1.3400    3.5842 C   0  0  0  0  0  0  0  0  0  0  0  0
   -1.8562   -3.7543    3.5273 C   0  0  0  0  0  0  0  0  0  0  0  0
   -0.5090    1.2150    0.0750 C   0  0  0  0  0  0  0  0  0  0  0  0
    0.7402   -6.1082   -3.7554 C   0  0  3  0  0  0  0  0  0  0  0  0
    0.0471   -5.4220   -4.9212 C   0  0  0  0  0  0  0  0  0  0  0  0
   -1.4545   -5.4159   -4.6855 C   0  0  0  0  0  0  0  0  0  0  0  0
   -1.7625   -4.6655   -3.4001 C   0  0  0  0  0  0  0  0  0  0  0  0
    2.5254   -2.2608   -1.9017 C   0  0  0  0  0  0  0  0  0  0  0  0
   -2.0533   -5.7914   -2.8124 C   0  0  0  0  0  0  0  0  0  0  0  0
   -1.3321   -6.1009   -1.2259 C   0  0  0  0  0  0  0  0  0  0  0  0
   -2.0960   -6.0501    0.0873 C   0  0  0  0  0  0  0  0  0  0  0  0
    1.0454   -2.6695   -0.0580 C   0  0  0  0  0  0  0  0  0  0  0  0
    0.7467   -2.7689    6.0709 C   0  0  0  0  0  0  0  0  0  0  0  0
   -2.7500   -1.8891   -4.1958 N   0  0  0  0  0  0  0  0  0  0  0  0
    1.3430   -3.0111    2.5692 N   0  0  0  0  0  0  0  0  0  0  0  0
    0.2562   -7.4917   -3.6432 N   0  0  0  0  0  0  0  0  0  0  0  0
   -0.9595   -5.2118   -2.0196 N   0  0  0  0  0  0  0  0  0  0  0  0
    0.5020   -1.2510   -0.0040 C   0  0  0  0  0  0  0  0  0  0  0  0
   -0.3628   -2.6677    5.0369 C   0  0  0  0  0  0  0  0  0  0  0  0
   -2.2981   -2.5519    3.2064 C   0  0  0  0  0  0  0  0  0  0  0  0
    2.9071   -7.5504   -5.2918 C   0  0  0  0  0  0  0  0  0  0  0  0
    3.3649   -6.1518   -4.7788 C   0  0  0  0  0  0  0  0  0  0  0  0
    4.1410   -6.4858   -3.5350 C   0  0  0  0  0  0  0  0  0  0  0  0
    2.6580   -6.9845    0.8825 C   0  0  0  0  0  0  0  0  0  0  0  0
    3.7496   -2.8452    2.9456 C   0  0  0  0  0  0  0  0  0  0  0  0
    0.7815   -9.8086   -3.6650 O   0  0  0  0  0  0  0  0  0  0  0  0
    3.0935   -8.8741   -0.9714 O   0  0  0  0  0  0  0  0  0  0  0  0
    1.3778   -4.8567   -1.7846 O   0  0  0  0  0  0  0  0  0  0  0  0
    4.8152   -3.4312   -1.1374 O   0  0  0  0  0  0  0  0  0  0  0  0
    0.2353   -5.9851   -3.4001 O   0  0  0  0  0  0  0  0  0  0  0  0
    0.6198   -0.7854   -1.6801 O   0  0  0  0  0  0  0  0  0  0  0  0
   -4.0478   -6.6391   -1.7352 O   0  0  0  0  0  0  0  0  0  0  0  0
    1.8402   -5.2974    2.0376 O   0  0  0  0  0  0  0  0  0  0  0  0
    2.2439    0.2631    2.9206 O   0  0  0  0  0  0  0  0  0  0  0  0
    4.3988   -2.3597    6.1055 O   0  0  0  0  0  0  0  0  0  0  0  0
   -3.7294   -4.3131    0.5021 O   0  0  0  0  0  0  0  0  0  0  0  0
    1.2000   -8.6125   -3.7621 C   0  0  0  0  0  0  0  0  0  0  0  0
    3.0734   -7.7001   -1.4577 C   0  0  0  0  0  0  0  0  0  0  0  0
    0.4322   -5.3578   -2.4700 C   0  0  0  0  0  0  0  0  0  0  0  0
    1.1451   -1.7633   -2.2989 C   0  0  0  0  0  0  0  0  0  0  0  0
   -2.8094   -6.8043   -1.9682 C   0  0  0  0  0  0  0  0  0  0  0  0
    0.0501   -2.5977   -5.6149 C   0  0  0  0  0  0  0  0  0  0  0  0
   -2.5007   -4.6150    0.3827 C   0  0  0  0  0  0  0  0  0  0  0  0
    3.2775   -7.4980   -2.8993 N   0  0  0  0  0  0  0  0  0  0  0  0
    3.9944   -5.5999   -0.6200 N   0  0  0  0  0  0  0  0  0  0  0  0
    1.9252   -4.5255   -2.5889 N   0  0  0  0  0  0  0  0  0  0  0  0
    0.7689   -5.7355   -0.0372 N   0  0  0  0  0  0  0  0  0  0  0  0
    2.0598   -1.1130    4.8485 N   0  0  0  0  0  0  0  0  0  0  0  0
    2.8704   -2.9158    7.8374 N   0  0  0  0  0  0  0  0  0  0  0  0
   -3.4829   -2.4696    2.4280 O   0  0  0  0  0  0  0  0  0  0  0  0
    0.4178   -2.4134   -3.3986 N   0  0  0  0  0  0  0  0  0  0  0  0
   -2.1083   -7.9748   -1.4212 N   0  0  0  0  0  0  0  0  0  0  0  0
   -1.4709   -3.5765    0.5305 N   0  0  0  0  0  0  0  0  0  0  0  0
    2.3780   -5.5613    1.9651 S   0  0  0  0  0  0  0  0  0  0  0  0
    4.0296   -4.2684    1.8630 S   0  0  0  0  0  0  0  0  0  0  0  0
    0.7402   -6.1082   -3.7554 C   0  0  3  0  0  0  0  0  0  0  0  0
    3.8156   -4.2137   -1.0756 C   0  0  0  0  0  0  0  0  0  0  0  0
    0.6764   -5.2855   -2.4351 C   0  0  0  0  0  0  0  0  0  0  0  0
    1.0998   -4.8644    1.0998 C   0  0  0  0  0  0  0  0  0  0  0  0
    2.2640   -0.9109    3.4068 C   0  0  0  0  0  0  0  0  0  0  0  0
    3.1926   -2.5722    6.4449 C   0  0  0  0  0  0  0  0  0  0  0  0
    2.6763   -8.3408   -4.0011 C   0  0  3  0  0  0  0  0  0  0  0  0
    2.8382   -6.5049   -0.5485 C   0  0  3  0  0  0  0  0  0  0  0  0
    2.4353   -3.7162   -1.4727 C   0  0  3  0  0  0  0  0  0  0  0  0
   -0.0875   -5.2346   -1.1219 C   0  0  3  0  0  0  0  0  0  0  0  0
    2.4991   -2.1061    2.4977 C   0  0  3  0  0  0  0  0  0  0  0  0
    0.5564   -3.4459    1.1538 C   0  0  3  0  0  0  0  0  0  0  0  0
    2.0831   -2.4709    5.4109 C   0  0  3  0  0  0  0  0  0  0  0  0
    1.3430   -3.0111    2.5692 N   0  0  0  0  0  0  0  0  0  0  0  0
    1.6632   -2.9275   -5.6295 N   0  0  0  0  0  0  0  0  0  0  0  0
    0.3307   -1.1761   -5.5481 N   0  0  0  0  0  0  0  0  0  0  0  0
   -1.0987   -3.1930   -4.7168 N   0  0  0  0  0  0  0  0  0  0  0  0
    0.2562   -7.4917   -3.6432 N   0  0  0  0  0  0  0  0  0  0  0  0
   -0.9595   -5.2118   -2.0196 N   0  0  0  0  0  0  0  0  0  0  0  0
    3.2775   -7.4980   -2.8993 N   0  0  0  0  0  0  0  0  0  0  0  0
    2.3780   -5.5613    1.9651 S   0  0  0  0  0  0  0  0  0  0  0  0
    4.0296   -4.2684    1.8630 S   0  0  0  0  0  0  0  0  0  0  0  0
    3.9944   -5.5999   -0.6200 N   0  0  0  0  0  0  0  0  0  0  0  0
    1.9252   -4.5255   -2.5889 N   0  0  0  0  0  0  0  0  0  0  0  0
    0.7689   -5.7355   -0.0372 N   0  0  0  0  0  0  0  0  0  0  0  0
    2.0598   -1.1130    4.8485 N   0  0  0  0  0  0  0  0  0  0  0  0
    2.8704   -2.9158    7.8374 N   0  0  0  0  0  0  0  0  0  0  0  0
    0.4178   -2.4134   -3.3986 N   0  0  0  0  0  0  0  0  0  0  0  0
   -2.1083   -7.9748   -1.4212 N   0  0  0  0  0  0  0  0  0  0  0  0
   -1.4709   -3.5765    0.5305 N   0  0  0  0  0  0  0  0  0  0  0  0
    2.3915   -0.4099    0.1523 H   0  0  0  0  0  0  0  0  0  0  0  0
   -1.5185   -1.8813    0.0435 H   0  0  0  0  0  0  0  0  0  0  0  0
   -0.4179   -0.5964    5.1298 H   0  0  0  0  0  0  0  0  0  0  0  0
   -0.6265   -4.7647    4.9142 H   0  0  0  0  0  0  0  0  0  0  0  0
    1.5432    1.9107   -0.2456 H   0  0  0  0  0  0  0  0  0  0  0  0
   -2.4212    0.3997   -0.1629 H   0  0  0  0  0  0  0  0  0  0  0  0
   -1.8728   -0.4056    3.1026 H   0  0  0  0  0  0  0  0  0  0  0  0
   -2.2088   -4.6352    3.0327 H   0  0  0  0  0  0  0  0  0  0  0  0
   -0.8953    2.1885    0.2939 H   0  0  0  0  0  0  0  0  0  0  0  0
    0.3994   -4.4150   -5.0030 H   0  0  0  0  0  0  0  0  0  0  0  0
    0.2639   -5.9503   -5.8261 H   0  0  0  0  0  0  0  0  0  0  0  0
   -1.9424   -4.9329   -5.5062 H   0  0  0  0  0  0  0  0  0  0  0  0
   -1.8068   -6.4230   -4.6038 H   0  0  0  0  0  0  0  0  0  0  0  0
   -2.8196   -4.6612   -3.2341 H   0  0  0  0  0  0  0  0  0  0  0  0
   -1.2746   -5.1486   -2.5794 H   0  0  0  0  0  0  0  0  0  0  0  0
   -2.7101   -2.1258   -2.1677 H   0  0  0  0  0  0  0  0  0  0  0  0
   -1.5054   -2.6392   -2.4069 H   0  0  0  0  0  0  0  0  0  0  0  0
    2.8967   -1.6718   -1.0893 H   0  0  0  0  0  0  0  0  0  0  0  0
    3.1891   -2.1755   -2.7367 H   0  0  0  0  0  0  0  0  0  0  0  0
   -2.7212   -5.0143   -3.1205 H   0  0  0  0  0  0  0  0  0  0  0  0
   -1.6492   -6.2775   -3.6758 H   0  0  0  0  0  0  0  0  0  0  0  0
   -1.9555   -5.7364   -2.0155 H   0  0  0  0  0  0  0  0  0  0  0  0
   -1.0472   -7.1111   -1.4339 H   0  0  0  0  0  0  0  0  0  0  0  0
   -2.9721   -6.6599    0.0141 H   0  0  0  0  0  0  0  0  0  0  0  0
   -1.4726   -6.4146    0.8768 H   0  0  0  0  0  0  0  0  0  0  0  0
    0.7025   -3.1491   -0.9510 H   0  0  0  0  0  0  0  0  0  0  0  0
    2.1150   -2.6420   -0.0562 H   0  0  0  0  0  0  0  0  0  0  0  0
    0.7636   -3.7574    6.4803 H   0  0  0  0  0  0  0  0  0  0  0  0
    0.5700   -2.0615    6.8540 H   0  0  0  0  0  0  0  0  0  0  0  0
    2.0388   -7.5041   -5.9153 H   0  0  0  0  0  0  0  0  0  0  0  0
    3.6677   -8.0071   -5.8900 H   0  0  0  0  0  0  0  0  0  0  0  0
    2.5509   -5.4806   -4.6006 H   0  0  0  0  0  0  0  0  0  0  0  0
    3.9857   -5.6620   -5.4996 H   0  0  0  0  0  0  0  0  0  0  0  0
    5.1374   -6.8261   -3.7257 H   0  0  0  0  0  0  0  0  0  0  0  0
    4.2598   -5.6268   -2.9081 H   0  0  0  0  0  0  0  0  0  0  0  0
    1.8164   -7.6433    0.9346 H   0  0  0  0  0  0  0  0  0  0  0  0
    3.5382   -7.5048    1.1978 H   0  0  0  0  0  0  0  0  0  0  0  0
    3.6227   -3.1828    3.9530 H   0  0  0  0  0  0  0  0  0  0  0  0
    4.5911   -2.1864    2.8935 H   0  0  0  0  0  0  0  0  0  0  0  0
   -3.9524   -3.3050    2.1422 H   0  0  0  0  0  0  0  0  0  0  0  0
    3.1635   -9.2920   -4.0528 H   0  0  0  0  0  0  0  0  0  0  0  0
    1.9580   -5.9846   -0.8638 H   0  0  0  0  0  0  0  0  0  0  0  0
    1.7716   -3.8015   -0.6378 H   0  0  0  0  0  0  0  0  0  0  0  0
   -0.3724   -4.2244   -0.9139 H   0  0  0  0  0  0  0  0  0  0  0  0
    2.6260   -1.7685    1.4903 H   0  0  0  0  0  0  0  0  0  0  0  0
    0.8993   -2.9664    2.0468 H   0  0  0  0  0  0  0  0  0  0  0  0
    2.2597   -3.1783    4.6278 H   0  0  0  0  0  0  0  0  0  0  0  0
    2.3915   -0.4099    0.1523 H   0  0  0  0  0  0  0  0  0  0  0  0
   -1.5185   -1.8813    0.0435 H   0  0  0  0  0  0  0  0  0  0  0  0
   -0.4179   -0.5964    5.1298 H   0  0  0  0  0  0  0  0  0  0  0  0
   -0.6265   -4.7647    4.9142 H   0  0  0  0  0  0  0  0  0  0  0  0
    1.5432    1.9107   -0.2456 H   0  0  0  0  0  0  0  0  0  0  0  0
   -2.4212    0.3997   -0.1629 H   0  0  0  0  0  0  0  0  0  0  0  0
   -1.8728   -0.4056    3.1026 H   0  0  0  0  0  0  0  0  0  0  0  0
   -2.2088   -4.6352    3.0327 H   0  0  0  0  0  0  0  0  0  0  0  0
   -0.8953    2.1885    0.2939 H   0  0  0  0  0  0  0  0  0  0  0  0
    1.7973   -6.1125   -3.9214 H   0  0  0  0  0  0  0  0  0  0  0  0
    0.3994   -4.4150   -5.0030 H   0  0  0  0  0  0  0  0  0  0  0  0
    0.2639   -5.9503   -5.8261 H   0  0  0  0  0  0  0  0  0  0  0  0
   -1.9424   -4.9329   -5.5062 H   0  0  0  0  0  0  0  0  0  0  0  0
   -1.8068   -6.4230   -4.6038 H   0  0  0  0  0  0  0  0  0  0  0  0
   -2.8196   -4.6612   -3.2341 H   0  0  0  0  0  0  0  0  0  0  0  0
   -1.2746   -5.1486   -2.5794 H   0  0  0  0  0  0  0  0  0  0  0  0
    2.8967   -1.6718   -1.0893 H   0  0  0  0  0  0  0  0  0  0  0  0
    3.1891   -2.1755   -2.7367 H   0  0  0  0  0  0  0  0  0  0  0  0
   -2.7212   -5.0143   -3.1205 H   0  0  0  0  0  0  0  0  0  0  0  0
   -1.6492   -6.2775   -3.6758 H   0  0  0  0  0  0  0  0  0  0  0  0
   -1.9555   -5.7364   -2.0155 H   0  0  0  0  0  0  0  0  0  0  0  0
   -1.0472   -7.1111   -1.4339 H   0  0  0  0  0  0  0  0  0  0  0  0
   -2.9721   -6.6599    0.0141 H   0  0  0  0  0  0  0  0  0  0  0  0
   -1.4726   -6.4146    0.8768 H   0  0  0  0  0  0  0  0  0  0  0  0
    0.7025   -3.1491   -0.9510 H   0  0  0  0  0  0  0  0  0  0  0  0
    2.1150   -2.6420   -0.0562 H   0  0  0  0  0  0  0  0  0  0  0  0
    0.7636   -3.7574    6.4803 H   0  0  0  0  0  0  0  0  0  0  0  0
    0.5700   -2.0615    6.8540 H   0  0  0  0  0  0  0  0  0  0  0  0
   -2.0061   -1.2509   -4.5058 H   0  0  0  0  0  0  0  0  0  0  0  0
   -2.6062   -2.5467   -4.9883 H   0  0  0  0  0  0  0  0  0  0  0  0
    0.5039   -2.5152    2.2686 H   0  0  0  0  0  0  0  0  0  0  0  0
    1.5008   -3.8132    1.9591 H   0  0  0  0  0  0  0  0  0  0  0  0
   -0.7345   -7.6740   -3.4828 H   0  0  0  0  0  0  0  0  0  0  0  0
   -1.1662   -4.7082   -1.1570 H   0  0  0  0  0  0  0  0  0  0  0  0
    2.0388   -7.5041   -5.9153 H   0  0  0  0  0  0  0  0  0  0  0  0
    3.6677   -8.0071   -5.8900 H   0  0  0  0  0  0  0  0  0  0  0  0
    2.5509   -5.4806   -4.6006 H   0  0  0  0  0  0  0  0  0  0  0  0
    3.9857   -5.6620   -5.4996 H   0  0  0  0  0  0  0  0  0  0  0  0
    5.1374   -6.8261   -3.7257 H   0  0  0  0  0  0  0  0  0  0  0  0
    4.2598   -5.6268   -2.9081 H   0  0  0  0  0  0  0  0  0  0  0  0
    1.8164   -7.6433    0.9346 H   0  0  0  0  0  0  0  0  0  0  0  0
    3.5382   -7.5048    1.1978 H   0  0  0  0  0  0  0  0  0  0  0  0
    3.6227   -3.1828    3.9530 H   0  0  0  0  0  0  0  0  0  0  0  0
    4.5911   -2.1864    2.8935 H   0  0  0  0  0  0  0  0  0  0  0  0
    4.9206   -5.9337   -0.3535 H   0  0  0  0  0  0  0  0  0  0  0  0
    2.4378   -4.5596   -3.4701 H   0  0  0  0  0  0  0  0  0  0  0  0
    1.1336   -6.6874   -0.0734 H   0  0  0  0  0  0  0  0  0  0  0  0
    1.9020   -0.3109    5.4586 H   0  0  0  0  0  0  0  0  0  0  0  0
    1.9024   -3.0864    8.1097 H   0  0  0  0  0  0  0  0  0  0  0  0
   -3.9524   -3.3050    2.1422 H   0  0  0  0  0  0  0  0  0  0  0  0
    0.8394   -3.1983   -3.8951 H   0  0  0  0  0  0  0  0  0  0  0  0
   -0.5085   -2.0796   -3.6650 H   0  0  0  0  0  0  0  0  0  0  0  0
   -1.1144   -8.1073   -1.6082 H   0  0  0  0  0  0  0  0  0  0  0  0
   -2.6157   -8.6544   -0.8546 H   0  0  0  0  0  0  0  0  0  0  0  0
   -0.4847   -3.8188    0.4347 H   0  0  0  0  0  0  0  0  0  0  0  0
   -1.7425   -2.6135    0.7288 H   0  0  0  0  0  0  0  0  0  0  0  0
    1.7973   -6.1125   -3.9214 H   0  0  0  0  0  0  0  0  0  0  0  0
    3.1635   -9.2920   -4.0528 H   0  0  0  0  0  0  0  0  0  0  0  0
    1.9580   -5.9846   -0.8638 H   0  0  0  0  0  0  0  0  0  0  0  0
    1.7716   -3.8015   -0.6378 H   0  0  0  0  0  0  0  0  0  0  0  0
   -0.3724   -4.2244   -0.9139 H   0  0  0  0  0  0  0  0  0  0  0  0
    2.6260   -1.7685    1.4903 H   0  0  0  0  0  0  0  0  0  0  0  0
    0.8993   -2.9664    2.0468 H   0  0  0  0  0  0  0  0  0  0  0  0
    2.2597   -3.1783    4.6278 H   0  0  0  0  0  0  0  0  0  0  0  0
    0.5039   -2.5152    2.2686 H   0  0  0  0  0  0  0  0  0  0  0  0
    1.5008   -3.8132    1.9591 H   0  0  0  0  0  0  0  0  0  0  0  0
    2.3629   -2.3290   -5.1346 H   0  0  0  0  0  0  0  0  0  0  0  0
    2.0542   -3.8326   -5.4401 H   0  0  0  0  0  0  0  0  0  0  0  0
   -0.1700   -0.6313   -4.8487 H   0  0  0  0  0  0  0  0  0  0  0  0
    1.2477   -1.0651   -5.0747 H   0  0  0  0  0  0  0  0  0  0  0  0
   -0.7345   -7.6740   -3.4828 H   0  0  0  0  0  0  0  0  0  0  0  0
   -1.1662   -4.7082   -1.1570 H   0  0  0  0  0  0  0  0  0  0  0  0
    4.9206   -5.9337   -0.3535 H   0  0  0  0  0  0  0  0  0  0  0  0
    2.4378   -4.5596   -3.4701 H   0  0  0  0  0  0  0  0  0  0  0  0
    1.1336   -6.6874   -0.0734 H   0  0  0  0  0  0  0  0  0  0  0  0
    1.9020   -0.3109    5.4586 H   0  0  0  0  0  0  0  0  0  0  0  0
    1.9024   -3.0864    8.1097 H   0  0  0  0  0  0  0  0  0  0  0  0
    0.8394   -3.1983   -3.8951 H   0  0  0  0  0  0  0  0  0  0  0  0
   -0.5085   -2.0796   -3.6650 H   0  0  0  0  0  0  0  0  0  0  0  0
   -1.1144   -8.1073   -1.6082 H   0  0  0  0  0  0  0  0  0  0  0  0
   -2.6157   -8.6544   -0.8546 H   0  0  0  0  0  0  0  0  0  0  0  0
   -0.4847   -3.8188    0.4347 H   0  0  0  0  0  0  0  0  0  0  0  0
   -1.7425   -2.6135    0.7288 H   0  0  0  0  0  0  0  0  0  0  0  0
  1 20  2  0  0  0  0
  1  5  1  0  0  0  0
  1149  1  0  0  0  0
  2 20  1  0  0  0  0
  2  6  2  0  0  0  0
  2150  1  0  0  0  0
  3 21  2  0  0  0  0
  3  7  1  0  0  0  0
  3151  1  0  0  0  0
  4 21  1  0  0  0  0
  4  8  2  0  0  0  0
  4152  1  0  0  0  0
  5  9  2  0  0  0  0
  5153  1  0  0  0  0
  6  9  1  0  0  0  0
  6154  1  0  0  0  0
  7 22  2  0  0  0  0
  7155  1  0  0  0  0
  8 22  1  0  0  0  0
  8156  1  0  0  0  0
  9157  1  0  0  0  0
 10 67  1  0  0  0  0
 10 11  1  0  0  0  0
 10158  1  0  0  0  0
 10159  1  0  0  0  0
 11 12  1  0  0  0  0
 11160  1  0  0  0  0
 11161  1  0  0  0  0
 12 13  1  0  0  0  0
 12162  1  0  0  0  0
 12163  1  0  0  0  0
 13 77  1  0  0  0  0
 13164  1  0  0  0  0
 13165  1  0  0  0  0
 14 48  1  0  0  0  0
 14 43  1  0  0  0  0
 14166  1  0  0  0  0
 14167  1  0  0  0  0
 15 80  1  0  0  0  0
 15 44  1  0  0  0  0
 15168  1  0  0  0  0
 15169  1  0  0  0  0
 16 49  1  0  0  0  0
 16 17  1  0  0  0  0
 16170  1  0  0  0  0
 16171  1  0  0  0  0
 17 45  1  0  0  0  0
 17172  1  0  0  0  0
 17173  1  0  0  0  0
 18 51  1  0  0  0  0
 18 20  1  0  0  0  0
 18174  1  0  0  0  0
 18175  1  0  0  0  0
 19 52  1  0  0  0  0
 19 21  1  0  0  0  0
 19176  1  0  0  0  0
 19177  1  0  0  0  0
 22 39  1  0  0  0  0
 23 40  2  0  0  0  0
 24 41  2  0  0  0  0
 25 42  2  0  0  0  0
 26 53  2  0  0  0  0
 27 54  2  0  0  0  0
 28 43  2  0  0  0  0
 29 44  2  0  0  0  0
 30 55  2  0  0  0  0
 31 56  2  0  0  0  0
 32 57  2  0  0  0  0
 33 45  2  0  0  0  0
 34 46  1  0  0  0  0
 34 35  1  0  0  0  0
 34178  1  0  0  0  0
 34179  1  0  0  0  0
 35 36  1  0  0  0  0
 35180  1  0  0  0  0
 35181  1  0  0  0  0
 36107  1  0  0  0  0
 36182  1  0  0  0  0
 36183  1  0  0  0  0
 37117  1  0  0  0  0
 37 47  1  0  0  0  0
 37184  1  0  0  0  0
 37185  1  0  0  0  0
 38118  1  0  0  0  0
 38 50  1  0  0  0  0
 38186  1  0  0  0  0
 38187  1  0  0  0  0
 39188  1  0  0  0  0
 40 79  1  0  0  0  0
 40 46  1  0  0  0  0
 41107  1  0  0  0  0
 41 47  1  0  0  0  0
 42 80  1  0  0  0  0
 42 67  1  0  0  0  0
 43114  1  0  0  0  0
 44115  1  0  0  0  0
 45116  1  0  0  0  0
 46107  1  0  0  0  0
 46189  1  0  0  0  0
 47108  1  0  0  0  0
 47190  1  0  0  0  0
 48109  1  0  0  0  0
 48 53  1  0  0  0  0
 48191  1  0  0  0  0
 49110  1  0  0  0  0
 49 54  1  0  0  0  0
 49192  1  0  0  0  0
 50 78  1  0  0  0  0
 50 55  1  0  0  0  0
 50193  1  0  0  0  0
 51112  1  0  0  0  0
 51 56  1  0  0  0  0
 51194  1  0  0  0  0
 52111  1  0  0  0  0
 52 57  1  0  0  0  0
 52195  1  0  0  0  0
 53108  1  0  0  0  0
 54109  1  0  0  0  0
 55111  1  0  0  0  0
 56110  1  0  0  0  0
 57112  1  0  0  0  0
 58 81  2  0  0  0  0
 58 62  1  0  0  0  0
 58196  1  0  0  0  0
 59 81  1  0  0  0  0
 59 63  2  0  0  0  0
 59197  1  0  0  0  0
 60 82  2  0  0  0  0
 60 64  1  0  0  0  0
 60198  1  0  0  0  0
 61 82  1  0  0  0  0
 61 65  2  0  0  0  0
 61199  1  0  0  0  0
 62 66  2  0  0  0  0
 62200  1  0  0  0  0
 63 66  1  0  0  0  0
 63201  1  0  0  0  0
 64 83  2  0  0  0  0
 64202  1  0  0  0  0
 65 83  1  0  0  0  0
 65203  1  0  0  0  0
 66204  1  0  0  0  0
 67 79  1  0  0  0  0
 67205  1  0  0  0  0
 68119  1  0  0  0  0
 68 69  1  0  0  0  0
 68206  1  0  0  0  0
 68207  1  0  0  0  0
 69 70  1  0  0  0  0
 69208  1  0  0  0  0
 69209  1  0  0  0  0
 70135  1  0  0  0  0
 70210  1  0  0  0  0
 70211  1  0  0  0  0
 71127  1  0  0  0  0
 71103  1  0  0  0  0
 71212  1  0  0  0  0
 71213  1  0  0  0  0
 72137  1  0  0  0  0
 72104  1  0  0  0  0
 72214  1  0  0  0  0
 72215  1  0  0  0  0
 73128  1  0  0  0  0
 73 74  1  0  0  0  0
 73216  1  0  0  0  0
 73217  1  0  0  0  0
 74106  1  0  0  0  0
 74218  1  0  0  0  0
 74219  1  0  0  0  0
 75130  1  0  0  0  0
 75 81  1  0  0  0  0
 75220  1  0  0  0  0
 75221  1  0  0  0  0
 76131  1  0  0  0  0
 76 82  1  0  0  0  0
 76222  1  0  0  0  0
 76223  1  0  0  0  0
 77224  1  0  0  0  0
 77225  1  0  0  0  0
 78226  1  0  0  0  0
 78227  1  0  0  0  0
 79228  1  0  0  0  0
 80229  1  0  0  0  0
 83113  1  0  0  0  0
 84125  1  0  0  0  0
 84 85  1  0  0  0  0
 84230  1  0  0  0  0
 84231  1  0  0  0  0
 85 86  1  0  0  0  0
 85232  1  0  0  0  0
 85233  1  0  0  0  0
 86138  1  0  0  0  0
 86234  1  0  0  0  0
 86235  1  0  0  0  0
 87139  1  0  0  0  0
 87126  1  0  0  0  0
 87236  1  0  0  0  0
 87237  1  0  0  0  0
 88140  1  0  0  0  0
 88129  1  0  0  0  0
 88238  1  0  0  0  0
 88239  1  0  0  0  0
 89100  2  0  0  0  0
 90101  2  0  0  0  0
 91102  2  0  0  0  0
 92120  2  0  0  0  0
 93121  2  0  0  0  0
 94103  2  0  0  0  0
 95104  2  0  0  0  0
 96122  2  0  0  0  0
 97123  2  0  0  0  0
 98124  2  0  0  0  0
 99106  2  0  0  0  0
100136  1  0  0  0  0
100125  1  0  0  0  0
101138  1  0  0  0  0
101126  1  0  0  0  0
102137  1  0  0  0  0
102119  1  0  0  0  0
103146  1  0  0  0  0
104147  1  0  0  0  0
105135  2  0  0  0  0
105133  1  0  0  0  0
105134  1  0  0  0  0
106148  1  0  0  0  0
108240  1  0  0  0  0
109241  1  0  0  0  0
110242  1  0  0  0  0
111243  1  0  0  0  0
112244  1  0  0  0  0
113245  1  0  0  0  0
114246  1  0  0  0  0
114247  1  0  0  0  0
115248  1  0  0  0  0
115249  1  0  0  0  0
116250  1  0  0  0  0
116251  1  0  0  0  0
117118  1  0  0  0  0
119136  1  0  0  0  0
119252  1  0  0  0  0
120141  1  0  0  0  0
120127  1  0  0  0  0
121142  1  0  0  0  0
121128  1  0  0  0  0
122143  1  0  0  0  0
122130  1  0  0  0  0
123144  1  0  0  0  0
123129  1  0  0  0  0
124145  1  0  0  0  0
124131  1  0  0  0  0
125138  1  0  0  0  0
125253  1  0  0  0  0
126141  1  0  0  0  0
126254  1  0  0  0  0
127142  1  0  0  0  0
127255  1  0  0  0  0
128143  1  0  0  0  0
128256  1  0  0  0  0
129132  1  0  0  0  0
129257  1  0  0  0  0
130145  1  0  0  0  0
130258  1  0  0  0  0
131144  1  0  0  0  0
131259  1  0  0  0  0
132260  1  0  0  0  0
132261  1  0  0  0  0
133262  1  0  0  0  0
133263  1  0  0  0  0
134264  1  0  0  0  0
134265  1  0  0  0  0
136266  1  0  0  0  0
137267  1  0  0  0  0
139140  1  0  0  0  0
141268  1  0  0  0  0
142269  1  0  0  0  0
143270  1  0  0  0  0
144271  1  0  0  0  0
145272  1  0  0  0  0
146273  1  0  0  0  0
146274  1  0  0  0  0
147275  1  0  0  0  0
147276  1  0  0  0  0
148277  1  0  0  0  0
148278  1  0  0  0  0
M  END
>  <DRUGBANK_ID>
DB00067

>  <SECONDARY_ACCESSION_NUMBERS>
BTD00110; BIOD00110; DB09392

>  <COMMON_NAME>
Vasopressin

>  <CAS_NUMBER>
11000-17-2

>  <UNII>
Y87Y826H08

>  <SYNONYMS>
Vasopressin, unspecified; Vasopressina

$$$$
