
 OpenBabel10282417233D

 22 23  0  0  0  0  0  0  0  0999 V2000
    1.0110    0.0741    0.0063 C   0  0  0  0  0  0  0  0  0  0  0  0
    0.5909    1.1022    1.0060 C   0  0  0  0  0  0  0  0  0  0  0  0
    0.8531    2.4050    0.8361 C   0  0  0  0  0  0  0  0  0  0  0  0
    0.5258    3.4149    1.8582 C   0  0  0  0  0  0  0  0  0  0  0  0
    0.8089    4.5970    1.6872 O   0  0  0  0  0  0  0  0  0  0  0  0
   -0.1230    2.9621    3.0990 C   0  0  0  0  0  0  0  0  0  0  0  0
   -0.4292    3.8643    4.1237 C   0  0  0  0  0  0  0  0  0  0  0  0
   -0.1501    5.2029    4.0560 O   0  0  0  0  0  0  0  0  0  0  0  0
   -1.0467    3.4178    5.2918 C   0  0  0  0  0  0  0  0  0  0  0  0
   -1.3632    2.0680    5.4476 C   0  0  0  0  0  0  0  0  0  0  0  0
   -1.0576    1.1639    4.4353 C   0  0  0  0  0  0  0  0  0  0  0  0
   -0.4354    1.6122    3.2638 C   0  0  0  0  0  0  0  0  0  0  0  0
   -0.1084    0.6250    2.2228 C   0  0  0  0  0  0  0  0  0  0  0  0
   -0.4044   -0.5559    2.3725 O   0  0  0  0  0  0  0  0  0  0  0  0
    0.6426    0.3291   -0.9915 H   0  0  0  0  0  0  0  0  0  0  0  0
    0.6398   -0.9265    0.2467 H   0  0  0  0  0  0  0  0  0  0  0  0
    2.1041    0.0181   -0.0178 H   0  0  0  0  0  0  0  0  0  0  0  0
    1.3550    2.7747   -0.0519 H   0  0  0  0  0  0  0  0  0  0  0  0
    0.2827    5.3927    3.1931 H   0  0  0  0  0  0  0  0  0  0  0  0
   -1.2826    4.1241    6.0836 H   0  0  0  0  0  0  0  0  0  0  0  0
   -1.8453    1.7174    6.3567 H   0  0  0  0  0  0  0  0  0  0  0  0
   -1.3007    0.1093    4.5591 H   0  0  0  0  0  0  0  0  0  0  0  0
  1  2  1  0  0  0  0
  1 15  1  0  0  0  0
  1 16  1  0  0  0  0
  1 17  1  0  0  0  0
  2  3  2  0  0  0  0
  2 13  1  0  0  0  0
  3  4  1  0  0  0  0
  3 18  1  0  0  0  0
  4  5  2  0  0  0  0
  4  6  1  0  0  0  0
  6  7  2  0  0  0  0
  6 12  1  0  0  0  0
  7  8  1  0  0  0  0
  7  9  1  0  0  0  0
  8 19  1  0  0  0  0
  9 10  2  0  0  0  0
  9 20  1  0  0  0  0
 10 11  1  0  0  0  0
 10 21  1  0  0  0  0
 11 12  2  0  0  0  0
 11 22  1  0  0  0  0
 12 13  1  0  0  0  0
 13 14  2  0  0  0  0
M  END
>  <DRUGBANK_ID>
DB17048

>  <COMMON_NAME>
Plumbagin

>  <CAS_NUMBER>
481-42-5

>  <UNII>
YAS4TBQ4OQ

>  <SYNONYMS>
5-hydroxy-2-methyl-1,4-naphthalenedione

$$$$
