577
 OpenBabel10282417103D

 43 44  0  0  1  0  0  0  0  0999 V2000
    1.0432   -0.1453   -0.0511 O   0  0  0  0  0  0  0  0  0  0  0  0
    2.4565    2.4535    0.0289 O   0  0  0  0  0  0  0  0  0  0  0  0
    1.0008   -2.0826    1.1380 O   0  0  0  0  0  0  0  0  0  0  0  0
   -0.8267    4.0696   -5.4316 O   0  0  0  0  0  0  0  0  0  0  0  0
    0.5267    2.6563   -1.3336 N   0  0  0  0  0  0  0  0  0  0  0  0
   -1.5828    0.1673    1.3087 N   0  0  0  0  0  0  0  0  0  0  0  0
    0.5126    5.0586   -1.7420 N   0  0  0  0  0  0  0  0  0  0  0  0
   -0.1782    2.0181   -3.3714 N   0  0  0  0  0  0  0  0  0  0  0  0
   -0.2172    5.7052   -3.9188 N   0  0  0  0  0  0  0  0  0  0  0  0
    0.4068    7.2504   -2.3401 N   0  0  0  0  0  0  0  0  0  0  0  0
   -1.7223   -0.9782   -0.8995 C   0  0  0  0  0  0  0  0  0  0  0  0
   -1.1417   -1.0223    0.5334 C   0  0  1  0  0  0  0  0  0  0  0  0
   -1.2059   -2.1534   -1.7299 C   0  0  0  0  0  0  0  0  0  0  0  0
   -3.2546   -0.9654   -0.9325 C   0  0  0  0  0  0  0  0  0  0  0  0
    0.4136   -1.1653    0.5806 C   0  0  0  0  0  0  0  0  0  0  0  0
    0.3274    3.7757   -2.0647 C   0  0  0  0  0  0  0  0  0  0  0  0
    1.0311    2.5844    0.0204 C   0  0  0  0  0  0  0  0  0  0  0  0
    2.4846   -0.0424   -0.0041 C   0  0  0  0  0  0  0  0  0  0  0  0
   -0.1164    3.3804   -3.2991 C   0  0  0  0  0  0  0  0  0  0  0  0
    2.9564    1.2841   -0.6385 C   0  0  0  0  0  0  0  0  0  0  0  0
    0.2411    1.6215   -2.1915 C   0  0  0  0  0  0  0  0  0  0  0  0
   -0.4197    4.3808   -4.3121 C   0  0  0  0  0  0  0  0  0  0  0  0
    0.2198    5.9718   -2.7204 C   0  0  0  0  0  0  0  0  0  0  0  0
   -2.6054    0.1754    1.3306 H   0  0  0  0  0  0  0  0  0  0  0  0
   -1.3103    0.0452    2.2843 H   0  0  0  0  0  0  0  0  0  0  0  0
    0.8948    5.3704   -0.8600 H   0  0  0  0  0  0  0  0  0  0  0  0
    0.7526    7.5320   -1.4381 H   0  0  0  0  0  0  0  0  0  0  0  0
    0.1972    7.9679   -3.0224 H   0  0  0  0  0  0  0  0  0  0  0  0
   -1.4249   -0.0533   -1.3877 H   0  0  0  0  0  0  0  0  0  0  0  0
   -1.5428   -1.9098    1.0367 H   0  0  0  0  0  0  0  0  0  0  0  0
   -1.5379   -3.1023   -1.2969 H   0  0  0  0  0  0  0  0  0  0  0  0
   -1.5725   -2.0965   -2.7595 H   0  0  0  0  0  0  0  0  0  0  0  0
   -0.1125   -2.1640   -1.7765 H   0  0  0  0  0  0  0  0  0  0  0  0
   -3.6642   -0.0885   -0.4216 H   0  0  0  0  0  0  0  0  0  0  0  0
   -3.6151   -0.9170   -1.9664 H   0  0  0  0  0  0  0  0  0  0  0  0
   -3.6637   -1.8642   -0.4638 H   0  0  0  0  0  0  0  0  0  0  0  0
    0.5383    1.8077    0.5980 H   0  0  0  0  0  0  0  0  0  0  0  0
    0.7694    3.5115    0.5409 H   0  0  0  0  0  0  0  0  0  0  0  0
    2.8078   -0.0675    1.0394 H   0  0  0  0  0  0  0  0  0  0  0  0
    2.9059   -0.8755   -0.5722 H   0  0  0  0  0  0  0  0  0  0  0  0
    4.0503    1.3428   -0.6007 H   0  0  0  0  0  0  0  0  0  0  0  0
    2.7098    1.3425   -1.7037 H   0  0  0  0  0  0  0  0  0  0  0  0
    0.3895    0.5830   -1.9586 H   0  0  0  0  0  0  0  0  0  0  0  0
  1 15  1  0  0  0  0
  1 18  1  0  0  0  0
  2 17  1  0  0  0  0
  2 20  1  0  0  0  0
  3 15  2  0  0  0  0
  4 22  2  0  0  0  0
  5 16  1  0  0  0  0
  5 17  1  0  0  0  0
  5 21  1  0  0  0  0
  6 24  1  0  0  0  0
  6 25  1  0  0  0  0
  7 16  1  0  0  0  0
  7 23  1  0  0  0  0
  7 26  1  0  0  0  0
  8 19  1  0  0  0  0
  8 21  2  0  0  0  0
  9 22  1  0  0  0  0
  9 23  2  0  0  0  0
 10 23  1  0  0  0  0
 10 27  1  0  0  0  0
 10 28  1  0  0  0  0
 11 12  1  0  0  0  0
 11 13  1  0  0  0  0
 11 14  1  0  0  0  0
 11 29  1  0  0  0  0
 12  6  1  0  0  0  0
 12 15  1  0  0  0  0
 12 30  1  1  0  0  0
 13 31  1  0  0  0  0
 13 32  1  0  0  0  0
 13 33  1  0  0  0  0
 14 34  1  0  0  0  0
 14 35  1  0  0  0  0
 14 36  1  0  0  0  0
 16 19  2  0  0  0  0
 17 37  1  0  0  0  0
 17 38  1  0  0  0  0
 18 20  1  0  0  0  0
 18 39  1  0  0  0  0
 18 40  1  0  0  0  0
 19 22  1  0  0  0  0
 20 41  1  0  0  0  0
 20 42  1  0  0  0  0
 21 43  1  0  0  0  0
M  END
>  <DRUGBANK_ID>
DB00577

>  <SECONDARY_ACCESSION_NUMBERS>
APRD00697

>  <COMMON_NAME>
Valaciclovir

>  <CAS_NUMBER>
124832-26-4

>  <UNII>
MZ1IW7Q79D

>  <SYNONYMS>
L-Valine ester with 9-((2-hydroxyethoxy)methyl)guanine; L-Valine, 2-((2-amino-1,6-dihydro-6-oxo-9H-purin-9-yl)methoxy)ethyl ester; Valaciclovir; Valaciclovirum; Valacyclovir

$$$$
