
 OpenBabel10282417153D

 52 54  0  0  0  0  0  0  0  0999 V2000
    2.4163   -7.1583    2.4160 Cl  0  0  0  0  0  0  0  0  0  0  0  0
    2.1426   -5.4607    2.4369 C   0  0  0  0  0  0  0  0  0  0  0  0
    1.7424   -4.8214    3.6020 C   0  0  0  0  0  0  0  0  0  0  0  0
    1.5408   -3.4398    3.6016 C   0  0  0  0  0  0  0  0  0  0  0  0
    1.7615   -2.6960    2.4415 C   0  0  0  0  0  0  0  0  0  0  0  0
    2.1848   -3.3302    1.2676 C   0  0  0  0  0  0  0  0  0  0  0  0
    2.3545   -4.7268    1.2778 C   0  0  0  0  0  0  0  0  0  0  0  0
    2.5318   -2.5027    0.0506 C   0  0  2  0  0  0  0  0  0  0  0  0
    1.9769   -1.5558    0.0618 H   0  0  0  0  0  0  0  0  0  0  0  0
    2.1960   -3.2484   -1.2514 C   0  0  0  0  0  0  0  0  0  0  0  0
    2.5516   -2.5122   -2.4637 N   0  0  0  0  0  0  0  0  0  0  0  0
    2.1836   -3.2948   -3.6532 C   0  0  0  0  0  0  0  0  0  0  0  0
    0.6757   -3.5857   -3.7535 C   0  0  0  0  0  0  0  0  0  0  0  0
   -0.0345   -2.3218   -3.7760 N   0  0  0  0  0  0  0  0  0  0  0  0
   -0.9459   -2.0378   -4.7661 C   0  0  0  0  0  0  0  0  0  0  0  0
   -1.8206   -3.0093   -5.2523 C   0  0  0  0  0  0  0  0  0  0  0  0
   -2.7406   -2.7116   -6.2507 C   0  0  0  0  0  0  0  0  0  0  0  0
   -2.8021   -1.4247   -6.7694 C   0  0  0  0  0  0  0  0  0  0  0  0
   -1.9565   -0.4224   -6.2828 C   0  0  0  0  0  0  0  0  0  0  0  0
   -0.9866   -0.7593   -5.3241 C   0  0  0  0  0  0  0  0  0  0  0  0
   -2.1766    0.9741   -6.6565 C   0  0  0  0  0  0  0  0  0  0  0  0
   -3.4015    1.5892   -6.3351 C   0  0  0  0  0  0  0  0  0  0  0  0
   -3.6084    2.9452   -6.5735 C   0  0  0  0  0  0  0  0  0  0  0  0
   -2.5764    3.7141   -7.1037 C   0  0  0  0  0  0  0  0  0  0  0  0
   -1.3355    3.1266   -7.3825 C   0  0  0  0  0  0  0  0  0  0  0  0
   -1.1612    1.7475   -7.2246 C   0  0  0  0  0  0  0  0  0  0  0  0
   -0.1492    3.9435   -7.7180 C   0  0  0  0  0  0  0  0  0  0  0  0
    0.9841    3.5185   -7.8901 O   0  0  0  0  0  0  0  0  0  0  0  0
   -0.4149    5.2603   -7.7307 O   0  0  0  0  0  0  0  0  0  0  0  0
    3.9208   -2.1981    0.1285 O   0  0  0  0  0  0  0  0  0  0  0  0
    1.5975   -5.3921    4.5132 H   0  0  0  0  0  0  0  0  0  0  0  0
    1.2324   -2.9370    4.5140 H   0  0  0  0  0  0  0  0  0  0  0  0
    1.6252   -1.6155    2.4626 H   0  0  0  0  0  0  0  0  0  0  0  0
    2.6758   -5.2658    0.3922 H   0  0  0  0  0  0  0  0  0  0  0  0
    2.7454   -4.1930   -1.3088 H   0  0  0  0  0  0  0  0  0  0  0  0
    1.1257   -3.4777   -1.2095 H   0  0  0  0  0  0  0  0  0  0  0  0
    2.0681   -1.6160   -2.4849 H   0  0  0  0  0  0  0  0  0  0  0  0
    2.4963   -2.7225   -4.5344 H   0  0  0  0  0  0  0  0  0  0  0  0
    2.7471   -4.2345   -3.6719 H   0  0  0  0  0  0  0  0  0  0  0  0
    0.5045   -4.1826   -4.6543 H   0  0  0  0  0  0  0  0  0  0  0  0
    0.3174   -4.1945   -2.9162 H   0  0  0  0  0  0  0  0  0  0  0  0
    0.0791   -1.6627   -3.0162 H   0  0  0  0  0  0  0  0  0  0  0  0
   -1.8144   -4.0072   -4.8246 H   0  0  0  0  0  0  0  0  0  0  0  0
   -3.4313   -3.4737   -6.5941 H   0  0  0  0  0  0  0  0  0  0  0  0
   -3.5315   -1.1920   -7.5405 H   0  0  0  0  0  0  0  0  0  0  0  0
   -0.2645   -0.0119   -4.9965 H   0  0  0  0  0  0  0  0  0  0  0  0
   -4.1952    1.0083   -5.8657 H   0  0  0  0  0  0  0  0  0  0  0  0
   -4.5548    3.4065   -6.3041 H   0  0  0  0  0  0  0  0  0  0  0  0
   -2.7363    4.7760   -7.2686 H   0  0  0  0  0  0  0  0  0  0  0  0
   -0.2188    1.2788   -7.5038 H   0  0  0  0  0  0  0  0  0  0  0  0
    0.4529    5.6890   -7.8817 H   0  0  0  0  0  0  0  0  0  0  0  0
    4.3981   -3.0349    0.0014 H   0  0  0  0  0  0  0  0  0  0  0  0
  1  2  1  0  0  0  0
  2  3  1  0  0  0  0
  2  7  2  0  0  0  0
  3  4  2  0  0  0  0
  3 31  1  0  0  0  0
  4  5  1  0  0  0  0
  4 32  1  0  0  0  0
  5  6  2  0  0  0  0
  5 33  1  0  0  0  0
  6  7  1  0  0  0  0
  7 34  1  0  0  0  0
  8 10  1  0  0  0  0
  8 30  1  0  0  0  0
  8  9  1  1  0  0  0
  8  6  1  0  0  0  0
 10 11  1  0  0  0  0
 10 35  1  0  0  0  0
 10 36  1  0  0  0  0
 11 12  1  0  0  0  0
 11 37  1  0  0  0  0
 12 13  1  0  0  0  0
 12 38  1  0  0  0  0
 12 39  1  0  0  0  0
 13 14  1  0  0  0  0
 13 40  1  0  0  0  0
 13 41  1  0  0  0  0
 14 15  1  0  0  0  0
 14 42  1  0  0  0  0
 15 16  1  0  0  0  0
 15 20  2  0  0  0  0
 16 17  2  0  0  0  0
 16 43  1  0  0  0  0
 17 18  1  0  0  0  0
 17 44  1  0  0  0  0
 18 19  2  0  0  0  0
 18 45  1  0  0  0  0
 19 20  1  0  0  0  0
 19 21  1  0  0  0  0
 20 46  1  0  0  0  0
 21 22  1  0  0  0  0
 21 26  2  0  0  0  0
 22 23  2  0  0  0  0
 22 47  1  0  0  0  0
 23 24  1  0  0  0  0
 23 48  1  0  0  0  0
 24 25  2  0  0  0  0
 24 49  1  0  0  0  0
 25 26  1  0  0  0  0
 25 27  1  0  0  0  0
 26 50  1  0  0  0  0
 27 28  2  0  0  0  0
 27 29  1  0  0  0  0
 29 51  1  0  0  0  0
 30 52  1  0  0  0  0
M  END
>  <DRUGBANK_ID>
DB06190

>  <COMMON_NAME>
Solabegron

>  <CAS_NUMBER>
252920-94-8

>  <UNII>
55P6YH9O6N

>  <SYNONYMS>
Solabegron

$$$$
