041
 OpenBabel10282417163D

 30 32  0  0  0  0  0  0  0  0999 V2000
   -2.0986    0.6724    0.0012 C   0  0  0  0  0  0  0  0  0  0  0  0
   -0.8904    1.4063    0.0110 C   0  0  0  0  0  0  0  0  0  0  0  0
    0.2912    0.6420    0.0177 C   0  0  0  0  0  0  0  0  0  0  0  0
    0.3104   -0.7472   -0.0042 C   0  0  0  0  0  0  0  0  0  0  0  0
   -0.9019   -1.4511   -0.0056 C   0  0  0  0  0  0  0  0  0  0  0  0
   -2.0931   -0.7231    0.0002 C   0  0  0  0  0  0  0  0  0  0  0  0
    1.6090    1.0499    0.0491 O   0  0  0  0  0  0  0  0  0  0  0  0
    2.3381   -0.1135    0.0217 C   0  0  0  0  0  0  0  0  0  0  0  0
    1.6070   -1.2093   -0.0257 N   0  0  0  0  0  0  0  0  0  0  0  0
    3.7955    0.0208   -0.0274 C   0  0  0  0  0  0  0  0  0  0  0  0
    4.5236    0.6340    1.0081 C   0  0  0  0  0  0  0  0  0  0  0  0
    5.9270    0.7267    0.9530 C   0  0  0  0  0  0  0  0  0  0  0  0
    6.5990    0.2974   -0.1872 C   0  0  0  0  0  0  0  0  0  0  0  0
    5.8856   -0.3158   -1.2132 C   0  0  0  0  0  0  0  0  0  0  0  0
    4.5066   -0.5046   -1.1146 C   0  0  0  0  0  0  0  0  0  0  0  0
   -3.2575   -1.4392    0.0035 O   0  0  0  0  0  0  0  0  0  0  0  0
    6.5191   -0.7267   -2.3217 F   0  0  0  0  0  0  0  0  0  0  0  0
    7.9479    0.4624   -0.3271 O   0  0  0  0  0  0  0  0  0  0  0  0
   -0.9174    2.8731    0.0134 C   0  0  0  0  0  0  0  0  0  0  0  0
    0.1507    3.6871    0.0144 C   0  0  0  0  0  0  0  0  0  0  0  0
   -3.0481    1.2051   -0.0033 H   0  0  0  0  0  0  0  0  0  0  0  0
   -0.9098   -2.5345   -0.0090 H   0  0  0  0  0  0  0  0  0  0  0  0
    4.0043    1.0236    1.8819 H   0  0  0  0  0  0  0  0  0  0  0  0
    6.4716    1.1299    1.8025 H   0  0  0  0  0  0  0  0  0  0  0  0
    3.9977   -1.0517   -1.9028 H   0  0  0  0  0  0  0  0  0  0  0  0
   -4.0180   -0.8346    0.0085 H   0  0  0  0  0  0  0  0  0  0  0  0
    8.3016    0.9690    0.4214 H   0  0  0  0  0  0  0  0  0  0  0  0
   -1.9031    3.3355    0.0109 H   0  0  0  0  0  0  0  0  0  0  0  0
    0.0294    4.7634    0.0159 H   0  0  0  0  0  0  0  0  0  0  0  0
    1.1670    3.3194    0.0115 H   0  0  0  0  0  0  0  0  0  0  0  0
  1  2  2  0  0  0  0
  1  6  1  0  0  0  0
  1 21  1  0  0  0  0
  2  3  1  0  0  0  0
  2 19  1  0  0  0  0
  3  4  2  0  0  0  0
  3  7  1  0  0  0  0
  4  5  1  0  0  0  0
  4  9  1  0  0  0  0
  5  6  2  0  0  0  0
  5 22  1  0  0  0  0
  6 16  1  0  0  0  0
  7  8  1  0  0  0  0
  8  9  2  0  0  0  0
  8 10  1  0  0  0  0
 10 11  2  0  0  0  0
 10 15  1  0  0  0  0
 11 12  1  0  0  0  0
 11 23  1  0  0  0  0
 12 13  2  0  0  0  0
 12 24  1  0  0  0  0
 13 14  1  0  0  0  0
 13 18  1  0  0  0  0
 14 15  2  0  0  0  0
 14 17  1  0  0  0  0
 15 25  1  0  0  0  0
 16 26  1  0  0  0  0
 18 27  1  0  0  0  0
 19 20  2  0  0  0  0
 19 28  1  0  0  0  0
 20 29  1  0  0  0  0
 20 30  1  0  0  0  0
M  END
>  <DRUGBANK_ID>
DB06832

>  <COMMON_NAME>
Prinaberel

>  <CAS_NUMBER>
524684-52-4

>  <UNII>
A9C8MNF7CA

>  <SYNONYMS>
Prinaberel

$$$$
