
 OpenBabel10282417123D

  9  8  0  0  0  0  0  0  0  0999 V2000
    0.9906    0.0080   -0.0804 C   0  0  0  0  0  0  0  0  0  0  0  0
    0.5058   -1.0920   -0.9820 C   0  0  0  0  0  0  0  0  0  0  0  0
   -0.2724   -2.0438   -0.3986 N   0  0  0  0  0  0  0  0  0  0  0  0
    0.7831   -1.1477   -2.1749 O   0  0  0  0  0  0  0  0  0  0  0  0
    0.6361   -0.1208    0.9458 H   0  0  0  0  0  0  0  0  0  0  0  0
    0.6256    0.9668   -0.4589 H   0  0  0  0  0  0  0  0  0  0  0  0
    2.0841    0.0095   -0.0751 H   0  0  0  0  0  0  0  0  0  0  0  0
   -0.6098   -2.7942   -0.9881 H   0  0  0  0  0  0  0  0  0  0  0  0
   -0.5285   -2.0425    0.5781 H   0  0  0  0  0  0  0  0  0  0  0  0
  1  2  1  0  0  0  0
  1  5  1  0  0  0  0
  1  6  1  0  0  0  0
  1  7  1  0  0  0  0
  2  3  1  0  0  0  0
  2  4  2  0  0  0  0
  3  8  1  0  0  0  0
  3  9  1  0  0  0  0
M  END
>  <DRUGBANK_ID>
DB02736

>  <SECONDARY_ACCESSION_NUMBERS>
EXPT00414

>  <COMMON_NAME>
Acetamide

>  <CAS_NUMBER>
60-35-5

>  <UNII>
8XOE1JSO29

$$$$
