
 OpenBabel10282417153D

 83 87  0  0  0  0  0  0  0  0999 V2000
    0.9192    0.0936   -0.2052 C   0  0  0  0  0  0  0  0  0  0  0  0
    0.2100   -8.0525    7.4297 C   0  0  0  0  0  0  0  0  0  0  0  0
   -1.0323   -7.3281    5.4744 C   0  0  0  0  0  0  0  0  0  0  0  0
   -7.3780    0.2269    0.5464 C   0  0  0  0  0  0  0  0  0  0  0  0
   -5.8934   -1.6203    0.2941 C   0  0  0  0  0  0  0  0  0  0  0  0
   -3.8132   -5.1393    3.4726 C   0  0  0  0  0  0  0  0  0  0  0  0
   -4.1766   -6.0848    2.3606 C   0  0  0  0  0  0  0  0  0  0  0  0
   -0.7590   -3.7656    2.3077 C   0  0  0  0  0  0  0  0  0  0  0  0
   -1.5097   -2.8748    1.4255 C   0  0  0  0  0  0  0  0  0  0  0  0
    1.8682   -3.7683    5.3923 C   0  0  0  0  0  0  0  0  0  0  0  0
   -2.7738    0.8145    2.2711 C   0  0  0  0  0  0  0  0  0  0  0  0
    1.7981   -2.7097    4.4336 C   0  0  0  0  0  0  0  0  0  0  0  0
   -1.4498    0.3906    2.5494 C   0  0  0  0  0  0  0  0  0  0  0  0
   -2.4128   -5.1431    3.0493 C   0  0  0  0  0  0  0  0  0  0  0  0
    0.1858   -4.7958    4.3293 C   0  0  0  0  0  0  0  0  0  0  0  0
   -3.2819   -1.2580    1.5056 C   0  0  0  0  0  0  0  0  0  0  0  0
    1.1333   -2.0630    0.8845 C   0  0  0  0  0  0  0  0  0  0  0  0
   -4.5117   -4.6634    0.3376 C   0  0  0  0  0  0  0  0  0  0  0  0
   -1.5693   -3.1418   -1.0520 C   0  0  0  0  0  0  0  0  0  0  0  0
    0.5461   -1.3907   -0.4027 C   0  0  1  0  0  0  0  0  0  0  0  0
    0.1243   -3.7094    3.4161 C   0  0  0  0  0  0  0  0  0  0  0  0
   -1.9748   -1.6231    1.8977 C   0  0  0  0  0  0  0  0  0  0  0  0
    1.0069   -4.8436    5.3876 C   0  0  0  0  0  0  0  0  0  0  0  0
   -3.7277   -0.0041    1.7066 C   0  0  0  0  0  0  0  0  0  0  0  0
   -3.6575   -5.6025    0.9659 C   0  0  1  0  0  0  0  0  0  0  0  0
    0.8557   -2.5971    3.4389 C   0  0  0  0  0  0  0  0  0  0  0  0
   -0.9517   -0.8801    2.3778 C   0  0  0  0  0  0  0  0  0  0  0  0
   -1.3299   -4.6941   -0.0064 C   0  0  0  0  0  0  0  0  0  0  0  0
    0.9957   -5.9623    6.3868 C   0  0  0  0  0  0  0  0  0  0  0  0
   -5.0807    0.5067    1.3752 C   0  0  0  0  0  0  0  0  0  0  0  0
    1.4373   -0.4298    2.8512 C   0  0  0  0  0  0  0  0  0  0  0  0
    0.5851   -1.5093    2.3523 C   0  0  0  0  0  0  0  0  0  0  0  0
   -5.1785   -4.0039   -0.3921 N   0  0  0  0  0  0  0  0  0  0  0  0
   -0.8903   -1.5992   -0.7905 N   0  0  0  0  0  0  0  0  0  0  0  0
    0.9532    0.6144    3.5122 N   0  0  0  0  0  0  0  0  0  0  0  0
    2.8021   -0.4612    2.8656 N   0  0  0  0  0  0  0  0  0  0  0  0
    2.0400    1.2730    3.7738 N   0  0  0  0  0  0  0  0  0  0  0  0
    3.1753    0.6191    3.5403 N   0  0  0  0  0  0  0  0  0  0  0  0
    0.0723   -7.0509    6.3865 N   0  0  0  0  0  0  0  0  0  0  0  0
   -6.0513   -0.2789    0.7519 N   0  0  0  0  0  0  0  0  0  0  0  0
   -2.3890   -5.0956    1.2709 N   0  0  0  0  0  0  0  0  0  0  0  0
   -0.1599   -5.1303    0.0047 O   0  0  0  0  0  0  0  0  0  0  0  0
    1.8667   -5.8691    7.2551 O   0  0  0  0  0  0  0  0  0  0  0  0
   -5.3058    1.6666    1.7217 O   0  0  0  0  0  0  0  0  0  0  0  0
    1.0719   -1.7594   -1.2815 H   0  0  0  0  0  0  0  0  0  0  0  0
   -3.4388   -6.3781    0.2417 H   0  0  0  0  0  0  0  0  0  0  0  0
    0.5238    0.5251    0.7166 H   0  0  0  0  0  0  0  0  0  0  0  0
    0.5706    0.7464   -0.9994 H   0  0  0  0  0  0  0  0  0  0  0  0
    2.0131    0.1661   -0.1187 H   0  0  0  0  0  0  0  0  0  0  0  0
   -0.7243   -8.0943    8.0009 H   0  0  0  0  0  0  0  0  0  0  0  0
    0.3790   -9.0256    6.9558 H   0  0  0  0  0  0  0  0  0  0  0  0
    1.0337   -7.8377    8.1083 H   0  0  0  0  0  0  0  0  0  0  0  0
   -1.7408   -6.4966    5.5276 H   0  0  0  0  0  0  0  0  0  0  0  0
   -0.6332   -7.4953    4.4686 H   0  0  0  0  0  0  0  0  0  0  0  0
   -1.5895   -8.2373    5.7249 H   0  0  0  0  0  0  0  0  0  0  0  0
   -7.5869    0.1808   -0.5269 H   0  0  0  0  0  0  0  0  0  0  0  0
   -8.0707   -0.4357    1.0770 H   0  0  0  0  0  0  0  0  0  0  0  0
   -7.4752    1.2435    0.9121 H   0  0  0  0  0  0  0  0  0  0  0  0
   -5.1147   -1.6085   -0.4789 H   0  0  0  0  0  0  0  0  0  0  0  0
   -5.6717   -2.2215    1.1832 H   0  0  0  0  0  0  0  0  0  0  0  0
   -6.7954   -2.0472   -0.1521 H   0  0  0  0  0  0  0  0  0  0  0  0
   -4.1976   -4.1016    3.4793 H   0  0  0  0  0  0  0  0  0  0  0  0
   -3.7659   -5.4692    4.5323 H   0  0  0  0  0  0  0  0  0  0  0  0
   -5.2316   -6.2588    2.4115 H   0  0  0  0  0  0  0  0  0  0  0  0
   -3.5932   -6.9959    2.5842 H   0  0  0  0  0  0  0  0  0  0  0  0
   -0.5338   -4.7933    2.0101 H   0  0  0  0  0  0  0  0  0  0  0  0
   -1.6280   -3.4707    2.8118 H   0  0  0  0  0  0  0  0  0  0  0  0
   -0.7621   -2.7514    0.7402 H   0  0  0  0  0  0  0  0  0  0  0  0
   -2.4209   -3.2079    0.9369 H   0  0  0  0  0  0  0  0  0  0  0  0
    2.6398   -3.6953    6.1390 H   0  0  0  0  0  0  0  0  0  0  0  0
   -2.9849    1.8501    2.4834 H   0  0  0  0  0  0  0  0  0  0  0  0
    2.5466   -1.9518    4.5189 H   0  0  0  0  0  0  0  0  0  0  0  0
   -0.8399    1.2126    2.8430 H   0  0  0  0  0  0  0  0  0  0  0  0
   -2.1771   -4.3421    3.8433 H   0  0  0  0  0  0  0  0  0  0  0  0
   -1.8596   -6.0229    3.3100 H   0  0  0  0  0  0  0  0  0  0  0  0
   -0.4206   -5.6455    4.2062 H   0  0  0  0  0  0  0  0  0  0  0  0
   -3.8115   -1.9790    0.9120 H   0  0  0  0  0  0  0  0  0  0  0  0
    1.0054   -3.1419    0.7213 H   0  0  0  0  0  0  0  0  0  0  0  0
    2.2271   -2.0273    0.8750 H   0  0  0  0  0  0  0  0  0  0  0  0
   -2.6316   -2.8864   -1.0772 H   0  0  0  0  0  0  0  0  0  0  0  0
   -1.1600   -3.3343   -2.0374 H   0  0  0  0  0  0  0  0  0  0  0  0
   -1.4622   -1.0320   -0.1503 H   0  0  0  0  0  0  0  0  0  0  0  0
    1.9550    2.2211    4.1090 H   0  0  0  0  0  0  0  0  0  0  0  0
  1 47  1  0  0  0  0
  1 48  1  0  0  0  0
  1 49  1  0  0  0  0
  2 50  1  0  0  0  0
  2 51  1  0  0  0  0
  2 52  1  0  0  0  0
  3 53  1  0  0  0  0
  3 54  1  0  0  0  0
  3 55  1  0  0  0  0
  4 56  1  0  0  0  0
  4 57  1  0  0  0  0
  4 58  1  0  0  0  0
  5 59  1  0  0  0  0
  5 60  1  0  0  0  0
  5 61  1  0  0  0  0
  6 62  1  0  0  0  0
  6 63  1  0  0  0  0
  7  6  1  0  0  0  0
  7 64  1  0  0  0  0
  7 65  1  0  0  0  0
  8 66  1  0  0  0  0
  8 67  1  0  0  0  0
  9  8  1  0  0  0  0
  9 68  1  0  0  0  0
  9 69  1  0  0  0  0
 10 70  1  0  0  0  0
 11 71  1  0  0  0  0
 12 10  1  0  0  0  0
 12 72  1  0  0  0  0
 13 11  1  0  0  0  0
 13 73  1  0  0  0  0
 14  6  1  0  0  0  0
 14 74  1  0  0  0  0
 14 75  1  0  0  0  0
 15 76  1  0  0  0  0
 16 77  1  0  0  0  0
 17 78  1  0  0  0  0
 17 79  1  0  0  0  0
 19 80  1  0  0  0  0
 19 81  1  0  0  0  0
 20  1  1  0  0  0  0
 20 17  1  0  0  0  0
 20 34  1  0  0  0  0
 20 45  1  6  0  0  0
 21  8  1  0  0  0  0
 21 15  2  0  0  0  0
 22  9  1  0  0  0  0
 22 16  2  0  0  0  0
 23 10  2  0  0  0  0
 23 15  1  0  0  0  0
 24 11  2  0  0  0  0
 24 16  1  0  0  0  0
 25  7  1  0  0  0  0
 25 18  1  0  0  0  0
 25 41  1  0  0  0  0
 25 46  1  6  0  0  0
 26 12  2  0  0  0  0
 26 21  1  0  0  0  0
 27 13  2  0  0  0  0
 27 22  1  0  0  0  0
 28 19  1  0  0  0  0
 29 23  1  0  0  0  0
 30 24  1  0  0  0  0
 32 17  1  0  0  0  0
 32 26  1  0  0  0  0
 32 27  1  0  0  0  0
 32 31  1  0  0  0  0
 33 18  3  0  0  0  0
 34 19  1  0  0  0  0
 34 82  1  0  0  0  0
 35 31  2  0  0  0  0
 36 31  1  0  0  0  0
 37 35  1  0  0  0  0
 37 83  1  0  0  0  0
 38 36  2  0  0  0  0
 38 37  1  0  0  0  0
 39  2  1  0  0  0  0
 39  3  1  0  0  0  0
 39 29  1  0  0  0  0
 40  4  1  0  0  0  0
 40  5  1  0  0  0  0
 40 30  1  0  0  0  0
 41 14  1  0  0  0  0
 41 28  1  0  0  0  0
 42 28  2  0  0  0  0
 43 29  2  0  0  0  0
 44 30  2  0  0  0  0
M  END
>  <DRUGBANK_ID>
DB06011

>  <COMMON_NAME>
AMG-222

>  <CAS_NUMBER>
913978-37-7

>  <UNII>
GH23A7L3EL

$$$$
