
 OpenBabel10282417193D

 90 93  0  0  0  0  0  0  0  0999 V2000
   -3.2401   -1.9921    6.6992 C   0  0  0  0  0  0  0  0  0  0  0  0
   -3.3276   -3.3249    6.8353 C   0  0  0  0  0  0  0  0  0  0  0  0
   -3.2471   -4.1660    5.7721 N   0  0  0  0  0  0  0  0  0  0  0  0
   -3.1135   -3.5879    4.5446 C   0  0  0  0  0  0  0  0  0  0  0  0
   -3.0426   -2.2828    4.3552 N   0  0  0  0  0  0  0  0  0  0  0  0
   -3.1042   -1.4922    5.4292 C   0  0  0  0  0  0  0  0  0  0  0  0
   -2.8899   -0.1429    5.2630 N   0  0  0  0  0  0  0  0  0  0  0  0
   -3.0309   -4.4131    3.4291 N   0  0  0  0  0  0  0  0  0  0  0  0
   -2.6061   -3.9196    2.1192 C   0  0  0  0  0  0  0  0  0  0  0  0
   -1.2551   -4.4337    1.5645 C   0  0  1  0  0  0  0  0  0  0  0  0
   -0.0579   -4.0939    2.4515 C   0  0  0  0  0  0  0  0  0  0  0  0
   -0.0240   -4.9475    3.7127 C   0  0  0  0  0  0  0  0  0  0  0  0
   -0.1076   -6.4599    3.4108 C   0  0  1  0  0  0  0  0  0  0  0  0
   -1.2407   -6.8342    2.4285 C   0  0  0  0  0  0  0  0  0  0  0  0
   -1.2803   -5.9258    1.2020 C   0  0  0  0  0  0  0  0  0  0  0  0
    1.1939   -6.9626    2.7840 C   0  0  0  0  0  0  0  0  0  0  0  0
    2.3602   -6.7298    3.6264 N   0  0  0  0  0  0  0  0  0  0  0  0
    3.5857   -7.0903    2.9126 C   0  0  0  0  0  0  0  0  0  0  0  0
    3.8398   -6.2872    1.6285 C   0  0  0  0  0  0  0  0  0  0  0  0
    3.8624   -4.7873    1.8657 C   0  0  0  0  0  0  0  0  0  0  0  0
    4.8998   -4.3875    2.8129 N   0  0  0  0  0  0  0  0  0  0  0  0
    4.9274   -2.9420    3.0645 C   0  0  0  0  0  0  0  0  0  0  0  0
    3.5765   -2.2295    2.8626 C   0  0  0  0  0  0  0  0  0  0  0  0
    3.6802   -0.7280    3.0339 C   0  0  0  0  0  0  0  0  0  0  0  0
    4.7498   -0.1635    2.1067 C   0  0  0  0  0  0  0  0  0  0  0  0
    6.1028   -0.8247    2.3511 C   0  0  0  0  0  0  0  0  0  0  0  0
    6.0267   -2.3383    2.1859 C   0  0  0  0  0  0  0  0  0  0  0  0
   -3.2846   -3.7592    8.1639 N   0  0  0  0  0  0  0  0  0  0  0  0
   -4.3966   -3.6556    9.1031 C   0  0  0  0  0  0  0  0  0  0  0  0
   -3.8664   -3.7644   10.5722 C   0  0  0  0  0  0  0  0  0  0  0  0
   -2.8795   -4.8173   10.9098 N   0  0  0  0  0  0  0  0  0  0  0  0
   -1.6404   -4.5828   10.0968 C   0  0  0  0  0  0  0  0  0  0  0  0
   -1.9434   -4.1097    8.6468 C   0  0  0  0  0  0  0  0  0  0  0  0
   -3.4777   -6.1790   10.8405 C   0  0  0  0  0  0  0  0  0  0  0  0
   -4.1330   -6.6514    9.5205 C   0  0  0  0  0  0  0  0  0  0  0  0
   -2.8501   -6.6922    8.2161 P   0  0  0  0  0  0  0  0  0  0  0  0
   -2.0692   -7.7752    8.9690 O   0  0  0  0  0  0  0  0  0  0  0  0
   -3.8490   -7.5036    7.1979 O   0  0  0  0  0  0  0  0  0  0  0  0
   -1.6373   -6.7306    6.9830 O   0  0  0  0  0  0  0  0  0  0  0  0
   -3.2206   -1.3592    7.5722 H   0  0  0  0  0  0  0  0  0  0  0  0
   -3.0373    0.0782    4.2810 H   0  0  0  0  0  0  0  0  0  0  0  0
   -3.4012    0.4339    5.9185 H   0  0  0  0  0  0  0  0  0  0  0  0
   -2.9022   -5.3689    3.7044 H   0  0  0  0  0  0  0  0  0  0  0  0
   -3.3760   -4.2147    1.3968 H   0  0  0  0  0  0  0  0  0  0  0  0
   -2.5730   -2.8256    2.0830 H   0  0  0  0  0  0  0  0  0  0  0  0
   -1.0883   -3.8989    0.6145 H   0  0  0  0  0  0  0  0  0  0  0  0
    0.8562   -4.2595    1.8698 H   0  0  0  0  0  0  0  0  0  0  0  0
   -0.0449   -3.0273    2.7045 H   0  0  0  0  0  0  0  0  0  0  0  0
    0.8611   -4.6845    4.2997 H   0  0  0  0  0  0  0  0  0  0  0  0
   -0.8338   -4.6735    4.3814 H   0  0  0  0  0  0  0  0  0  0  0  0
   -0.2756   -6.9924    4.3546 H   0  0  0  0  0  0  0  0  0  0  0  0
   -1.1283   -7.8747    2.0987 H   0  0  0  0  0  0  0  0  0  0  0  0
   -2.2080   -6.8347    2.9284 H   0  0  0  0  0  0  0  0  0  0  0  0
   -2.1604   -6.1526    0.5899 H   0  0  0  0  0  0  0  0  0  0  0  0
   -0.4197   -6.1558    0.5568 H   0  0  0  0  0  0  0  0  0  0  0  0
    1.1134   -8.0317    2.5629 H   0  0  0  0  0  0  0  0  0  0  0  0
    1.3051   -6.4486    1.8281 H   0  0  0  0  0  0  0  0  0  0  0  0
    2.4069   -5.7470    3.8887 H   0  0  0  0  0  0  0  0  0  0  0  0
    4.4175   -6.9440    3.6083 H   0  0  0  0  0  0  0  0  0  0  0  0
    3.5629   -8.1586    2.6838 H   0  0  0  0  0  0  0  0  0  0  0  0
    4.7793   -6.6066    1.1707 H   0  0  0  0  0  0  0  0  0  0  0  0
    3.0660   -6.4964    0.8788 H   0  0  0  0  0  0  0  0  0  0  0  0
    3.9863   -4.2752    0.9049 H   0  0  0  0  0  0  0  0  0  0  0  0
    2.8866   -4.5021    2.2609 H   0  0  0  0  0  0  0  0  0  0  0  0
    4.7600   -4.8696    3.7002 H   0  0  0  0  0  0  0  0  0  0  0  0
    5.2278   -2.8048    4.1129 H   0  0  0  0  0  0  0  0  0  0  0  0
    3.2013   -2.3931    1.8442 H   0  0  0  0  0  0  0  0  0  0  0  0
    2.8283   -2.6331    3.5557 H   0  0  0  0  0  0  0  0  0  0  0  0
    2.7088   -0.2786    2.7989 H   0  0  0  0  0  0  0  0  0  0  0  0
    3.9110   -0.4920    4.0777 H   0  0  0  0  0  0  0  0  0  0  0  0
    4.4520   -0.3255    1.0624 H   0  0  0  0  0  0  0  0  0  0  0  0
    4.8286    0.9169    2.2571 H   0  0  0  0  0  0  0  0  0  0  0  0
    6.8441   -0.4216    1.6534 H   0  0  0  0  0  0  0  0  0  0  0  0
    6.4467   -0.5870    3.3649 H   0  0  0  0  0  0  0  0  0  0  0  0
    6.9988   -2.7802    2.4427 H   0  0  0  0  0  0  0  0  0  0  0  0
    5.8408   -2.5780    1.1311 H   0  0  0  0  0  0  0  0  0  0  0  0
   -4.9587   -2.7293    8.9735 H   0  0  0  0  0  0  0  0  0  0  0  0
   -5.1401   -4.4255    8.8836 H   0  0  0  0  0  0  0  0  0  0  0  0
   -3.3524   -2.8199   10.7745 H   0  0  0  0  0  0  0  0  0  0  0  0
   -4.6972   -3.8349   11.2782 H   0  0  0  0  0  0  0  0  0  0  0  0
   -0.9610   -3.8595   10.5445 H   0  0  0  0  0  0  0  0  0  0  0  0
   -1.0536   -5.5272   10.0571 H   0  0  0  0  0  0  0  0  0  0  0  0
   -2.3931   -5.0118    8.6722 H   0  0  0  0  0  0  0  0  0  0  0  0
   -1.2174   -4.4147    7.8751 H   0  0  0  0  0  0  0  0  0  0  0  0
   -2.7290   -6.9267   11.1503 H   0  0  0  0  0  0  0  0  0  0  0  0
   -4.2407   -6.2605   11.6281 H   0  0  0  0  0  0  0  0  0  0  0  0
   -4.4266   -7.7016    9.6758 H   0  0  0  0  0  0  0  0  0  0  0  0
   -5.0851   -6.1834    9.2951 H   0  0  0  0  0  0  0  0  0  0  0  0
   -4.7811   -7.5917    7.4575 H   0  0  0  0  0  0  0  0  0  0  0  0
   -0.8774   -7.2085    7.3689 H   0  0  0  0  0  0  0  0  0  0  0  0
  1  2  2  0  0  0  0
  1  6  1  0  0  0  0
  1 40  1  0  0  0  0
  2  3  1  0  0  0  0
  2 28  1  0  0  0  0
  3  4  2  0  0  0  0
  4  5  1  0  0  0  0
  4  8  1  0  0  0  0
  5  6  2  0  0  0  0
  6  7  1  0  0  0  0
  7 41  1  0  0  0  0
  7 42  1  0  0  0  0
  8  9  1  0  0  0  0
  8 43  1  0  0  0  0
  9 44  1  0  0  0  0
  9 45  1  0  0  0  0
 10 11  1  0  0  0  0
 10 15  1  0  0  0  0
 10 46  1  6  0  0  0
 10  9  1  0  0  0  0
 11 12  1  0  0  0  0
 11 47  1  0  0  0  0
 11 48  1  0  0  0  0
 12 13  1  0  0  0  0
 12 49  1  0  0  0  0
 12 50  1  0  0  0  0
 13 14  1  0  0  0  0
 13 16  1  0  0  0  0
 13 51  1  1  0  0  0
 14 15  1  0  0  0  0
 14 52  1  0  0  0  0
 14 53  1  0  0  0  0
 15 54  1  0  0  0  0
 15 55  1  0  0  0  0
 16 17  1  0  0  0  0
 16 56  1  0  0  0  0
 16 57  1  0  0  0  0
 17 18  1  0  0  0  0
 17 58  1  0  0  0  0
 18 19  1  0  0  0  0
 18 59  1  0  0  0  0
 18 60  1  0  0  0  0
 19 20  1  0  0  0  0
 19 61  1  0  0  0  0
 19 62  1  0  0  0  0
 20 21  1  0  0  0  0
 20 63  1  0  0  0  0
 20 64  1  0  0  0  0
 21 22  1  0  0  0  0
 21 65  1  0  0  0  0
 22 23  1  0  0  0  0
 22 27  1  0  0  0  0
 22 66  1  0  0  0  0
 23 24  1  0  0  0  0
 23 67  1  0  0  0  0
 23 68  1  0  0  0  0
 24 25  1  0  0  0  0
 24 69  1  0  0  0  0
 24 70  1  0  0  0  0
 25 26  1  0  0  0  0
 25 71  1  0  0  0  0
 25 72  1  0  0  0  0
 26 27  1  0  0  0  0
 26 73  1  0  0  0  0
 26 74  1  0  0  0  0
 27 75  1  0  0  0  0
 27 76  1  0  0  0  0
 28 29  1  0  0  0  0
 28 33  1  0  0  0  0
 29 30  1  0  0  0  0
 29 77  1  0  0  0  0
 29 78  1  0  0  0  0
 30 31  1  0  0  0  0
 30 79  1  0  0  0  0
 30 80  1  0  0  0  0
 31 32  1  0  0  0  0
 31 34  1  0  0  0  0
 32 33  1  0  0  0  0
 32 81  1  0  0  0  0
 32 82  1  0  0  0  0
 33 83  1  0  0  0  0
 33 84  1  0  0  0  0
 34 35  1  0  0  0  0
 34 85  1  0  0  0  0
 34 86  1  0  0  0  0
 35 36  1  0  0  0  0
 35 87  1  0  0  0  0
 35 88  1  0  0  0  0
 36 37  2  0  0  0  0
 36 38  1  0  0  0  0
 36 39  1  0  0  0  0
 38 89  1  0  0  0  0
 39 90  1  0  0  0  0
M  END
>  <DRUGBANK_ID>
DB11970

>  <COMMON_NAME>
Burixafor

>  <CAS_NUMBER>
1191448-17-5

>  <UNII>
2G17Y0Q20G

>  <SYNONYMS>
Burixafor

$$$$
