
 OpenBabel10282417233D

 17 16  0  0  0  0  0  0  0  0999 V2000
    0.9076   -0.0784   -0.0553 C   0  0  0  0  0  0  0  0  0  0  0  0
    0.4255    1.2385    0.5750 C   0  0  0  0  0  0  0  0  0  0  0  0
    0.9190    2.4379   -0.2491 C   0  0  0  0  0  0  0  0  0  0  0  0
   -1.1110    1.2430    0.5998 C   0  0  0  0  0  0  0  0  0  0  0  0
    0.8954    1.3126    1.9727 N   0  0  0  0  0  0  0  0  0  0  0  0
    2.3440    1.4477    1.9393 O   0  0  0  0  0  0  0  0  0  0  0  0
    0.5156   -0.1934   -1.0716 H   0  0  0  0  0  0  0  0  0  0  0  0
    0.5717   -0.9435    0.5294 H   0  0  0  0  0  0  0  0  0  0  0  0
    2.0002   -0.1259   -0.1221 H   0  0  0  0  0  0  0  0  0  0  0  0
    0.5496    2.3812   -1.2787 H   0  0  0  0  0  0  0  0  0  0  0  0
    0.5728    3.3852    0.1797 H   0  0  0  0  0  0  0  0  0  0  0  0
    2.0131    2.4749   -0.3014 H   0  0  0  0  0  0  0  0  0  0  0  0
   -1.5075    0.4046    1.1846 H   0  0  0  0  0  0  0  0  0  0  0  0
   -1.5039    2.1695    1.0348 H   0  0  0  0  0  0  0  0  0  0  0  0
   -1.5174    1.1572   -0.4148 H   0  0  0  0  0  0  0  0  0  0  0  0
    0.6099    2.2043    2.3904 H   0  0  0  0  0  0  0  0  0  0  0  0
    2.6396    0.5143    1.9224 H   0  0  0  0  0  0  0  0  0  0  0  0
  1  2  1  0  0  0  0
  1  7  1  0  0  0  0
  1  8  1  0  0  0  0
  1  9  1  0  0  0  0
  2  3  1  0  0  0  0
  2  4  1  0  0  0  0
  2  5  1  0  0  0  0
  3 10  1  0  0  0  0
  3 11  1  0  0  0  0
  3 12  1  0  0  0  0
  4 13  1  0  0  0  0
  4 14  1  0  0  0  0
  4 15  1  0  0  0  0
  5  6  1  0  0  0  0
  5 16  1  0  0  0  0
  6 17  1  0  0  0  0
M  END
>  <DRUGBANK_ID>
DB16957

>  <COMMON_NAME>
N-T-Butylhydroxylamine

>  <CAS_NUMBER>
16649-50-6

>  <UNII>
BQ5JE2DA91

>  <SYNONYMS>
2-hydroxylamino-2-methylpropane; N-hydroxy-2-methyl-2-propanamine; N-hydroxy-tert-butylamine; N-tert-Butylhydroxylamine

$$$$
