
 OpenBabel10282417173D

119128  0  0  0  0  0  0  0  0999 V2000
  -18.4636    4.2644    9.4579 C   0  0  0  0  0  0  0  0  0  0  0  0
  -18.2549    4.3340    8.0858 C   0  0  0  0  0  0  0  0  0  0  0  0
  -18.0263    5.7070    7.7663 C   0  0  0  0  0  0  0  0  0  0  0  0
  -17.9800    6.4675    8.9610 C   0  0  0  0  0  0  0  0  0  0  0  0
  -18.1925    5.5828   10.1597 C   0  0  0  0  0  0  0  0  0  0  0  0
  -17.9515    6.2856    6.5262 C   0  0  0  0  0  0  0  0  0  0  0  0
  -17.7870    7.6565    6.4922 C   0  0  0  0  0  0  0  0  0  0  0  0
  -17.7045    8.4178    7.6885 C   0  0  0  0  0  0  0  0  0  0  0  0
  -17.7992    7.8236    8.9422 C   0  0  0  0  0  0  0  0  0  0  0  0
  -19.0148    3.1221    9.9734 C   0  0  0  0  0  0  0  0  0  0  0  0
  -19.0661    1.9439    9.1873 C   0  0  0  0  0  0  0  0  0  0  0  0
  -18.6953    2.0014    7.8458 C   0  0  0  0  0  0  0  0  0  0  0  0
  -18.3839    3.2208    7.2679 C   0  0  0  0  0  0  0  0  0  0  0  0
  -17.0974    5.5676   10.9763 F   0  0  0  0  0  0  0  0  0  0  0  0
  -19.2307    5.9754   10.9488 F   0  0  0  0  0  0  0  0  0  0  0  0
  -16.5108   10.5652    8.0624 C   0  0  0  0  0  0  0  0  0  0  0  0
  -17.6317    9.8540    7.6121 C   0  0  0  0  0  0  0  0  0  0  0  0
  -18.7592   10.5203    7.1072 C   0  0  0  0  0  0  0  0  0  0  0  0
  -18.7072   11.8963    6.9961 C   0  0  0  0  0  0  0  0  0  0  0  0
  -17.4582   12.4308    6.9309 C   0  0  0  0  0  0  0  0  0  0  0  0
  -16.3676   11.9115    7.6929 C   0  0  0  0  0  0  0  0  0  0  0  0
  -19.5409   12.8856    6.5807 N   0  0  0  0  0  0  0  0  0  0  0  0
  -19.3161   12.8263    5.2771 C   0  0  0  0  0  0  0  0  0  0  0  0
  -17.7160   12.9578    5.5440 N   0  0  0  0  0  0  0  0  0  0  0  0
  -20.6274   11.8394    4.5731 C   0  0  2  0  0  0  0  0  0  0  0  0
  -20.9308   11.5433    3.0332 C   0  0  1  0  0  0  0  0  0  0  0  0
  -22.2480   10.6167    2.7565 C   0  0  0  0  0  0  0  0  0  0  0  0
  -23.4477   11.5037    3.1280 C   0  0  0  0  0  0  0  0  0  0  0  0
  -22.7000   12.7693    3.5798 C   0  0  1  0  0  0  0  0  0  0  0  0
  -21.9959   12.5785    4.8612 N   0  0  0  0  0  0  0  0  0  0  0  0
  -22.6015   12.6784    6.1180 C   0  0  0  0  0  0  0  0  0  0  0  0
  -22.1146   12.1026    7.0972 O   0  0  0  0  0  0  0  0  0  0  0  0
  -23.9088   13.5895    6.3583 C   0  0  2  0  0  0  0  0  0  0  0  0
  -24.9207   12.8557    7.3165 C   0  0  0  0  0  0  0  0  0  0  0  0
  -24.6285   14.0330    5.1604 N   0  0  0  0  0  0  0  0  0  0  0  0
  -24.9145   13.3968    8.7558 C   0  0  0  0  0  0  0  0  0  0  0  0
  -26.3766   12.8936    6.8168 C   0  0  0  0  0  0  0  0  0  0  0  0
  -24.6484   15.3478    4.7340 C   0  0  0  0  0  0  0  0  0  0  0  0
  -25.2502   15.5486    3.5134 O   0  0  0  0  0  0  0  0  0  0  0  0
  -24.1596   16.2546    5.3418 O   0  0  0  0  0  0  0  0  0  0  0  0
  -25.8497   14.5319    2.6986 C   0  0  0  0  0  0  0  0  0  0  0  0
  -21.5492   12.8644    2.5974 C   0  0  0  0  0  0  0  0  0  0  0  0
  -19.2202   -1.4441   10.2529 N   0  0  0  0  0  0  0  0  0  0  0  0
  -20.2050   -0.8782   11.0163 C   0  0  0  0  0  0  0  0  0  0  0  0
  -20.4409    0.3404   10.5784 N   0  0  0  0  0  0  0  0  0  0  0  0
  -19.4208    0.6221    9.6806 C   0  0  0  0  0  0  0  0  0  0  0  0
  -18.5637   -0.4653    9.5721 C   0  0  0  0  0  0  0  0  0  0  0  0
  -20.7312   -1.7023   12.1522 C   0  0  2  0  0  0  0  0  0  0  0  0
  -22.1170   -2.1135   11.7152 C   0  0  0  0  0  0  0  0  0  0  0  0
  -22.7190   -2.5864   12.9930 C   0  0  0  0  0  0  0  0  0  0  0  0
  -22.0595   -1.8202   14.1380 C   0  0  0  0  0  0  0  0  0  0  0  0
  -20.9094   -1.1263   13.4962 N   0  0  0  0  0  0  0  0  0  0  0  0
  -20.0602   -0.3710   14.3225 C   0  0  0  0  0  0  0  0  0  0  0  0
  -20.4968    0.0910   15.3868 O   0  0  0  0  0  0  0  0  0  0  0  0
  -18.6169    0.0548   13.8922 C   0  0  2  0  0  0  0  0  0  0  0  0
  -18.6974    1.4461   13.1674 C   0  0  0  0  0  0  0  0  0  0  0  0
  -18.2188    2.7106   13.8797 C   0  0  0  0  0  0  0  0  0  0  0  0
  -17.7649    1.3319   12.0097 C   0  0  0  0  0  0  0  0  0  0  0  0
  -18.0237   -1.0910   13.0827 N   0  0  0  0  0  0  0  0  0  0  0  0
  -16.7347   -1.5339   13.0367 C   0  0  0  0  0  0  0  0  0  0  0  0
  -16.3375   -2.4073   12.0470 O   0  0  0  0  0  0  0  0  0  0  0  0
  -15.8937   -1.1284   13.8457 O   0  0  0  0  0  0  0  0  0  0  0  0
  -16.9506   -3.1478   10.9495 C   0  0  0  0  0  0  0  0  0  0  0  0
  -22.8959   -4.1093   13.0361 C   0  0  0  0  0  0  0  0  0  0  0  0
  -24.0787   -3.1638   12.9549 C   0  0  0  0  0  0  0  0  0  0  0  0
  -18.0446    5.6943    5.6244 H   0  0  0  0  0  0  0  0  0  0  0  0
  -17.7381    8.1476    5.5236 H   0  0  0  0  0  0  0  0  0  0  0  0
  -17.7750    8.4132    9.8551 H   0  0  0  0  0  0  0  0  0  0  0  0
  -19.2758    3.2057   11.0241 H   0  0  0  0  0  0  0  0  0  0  0  0
  -18.7219    1.0939    7.2479 H   0  0  0  0  0  0  0  0  0  0  0  0
  -18.2813    3.2742    6.1937 H   0  0  0  0  0  0  0  0  0  0  0  0
  -15.7291   10.0405    8.6232 H   0  0  0  0  0  0  0  0  0  0  0  0
  -19.6326    9.9958    6.7550 H   0  0  0  0  0  0  0  0  0  0  0  0
  -15.5272   12.4854    8.0940 H   0  0  0  0  0  0  0  0  0  0  0  0
  -17.3583   13.9040    5.5574 H   0  0  0  0  0  0  0  0  0  0  0  0
  -20.6659   10.8935    5.1281 H   0  0  0  0  0  0  0  0  0  0  0  0
  -20.0932   11.1716    2.4481 H   0  0  0  0  0  0  0  0  0  0  0  0
  -22.2944    9.6599    3.2856 H   0  0  0  0  0  0  0  0  0  0  0  0
  -22.3469   10.3873    1.6796 H   0  0  0  0  0  0  0  0  0  0  0  0
  -24.0745   11.6930    2.2357 H   0  0  0  0  0  0  0  0  0  0  0  0
  -24.1282   11.0467    3.8606 H   0  0  0  0  0  0  0  0  0  0  0  0
  -23.2998   13.6559    3.5049 H   0  0  0  0  0  0  0  0  0  0  0  0
  -23.5291   14.4852    6.8693 H   0  0  0  0  0  0  0  0  0  0  0  0
  -24.6333   11.7997    7.3759 H   0  0  0  0  0  0  0  0  0  0  0  0
  -25.0354   13.3151    4.5974 H   0  0  0  0  0  0  0  0  0  0  0  0
  -25.3094   14.4181    8.8121 H   0  0  0  0  0  0  0  0  0  0  0  0
  -25.5567   12.7706    9.3901 H   0  0  0  0  0  0  0  0  0  0  0  0
  -23.9133   13.3869    9.1946 H   0  0  0  0  0  0  0  0  0  0  0  0
  -26.4618   12.4996    5.7998 H   0  0  0  0  0  0  0  0  0  0  0  0
  -27.0238   12.2726    7.4419 H   0  0  0  0  0  0  0  0  0  0  0  0
  -26.7717   13.9171    6.8285 H   0  0  0  0  0  0  0  0  0  0  0  0
  -25.0977   13.8267    2.3397 H   0  0  0  0  0  0  0  0  0  0  0  0
  -26.6455   14.0165    3.2420 H   0  0  0  0  0  0  0  0  0  0  0  0
  -26.2790   15.0142    1.8158 H   0  0  0  0  0  0  0  0  0  0  0  0
  -21.9062   12.9099    1.5617 H   0  0  0  0  0  0  0  0  0  0  0  0
  -20.9287   13.7308    2.8219 H   0  0  0  0  0  0  0  0  0  0  0  0
  -18.8093   -2.2711   10.6164 H   0  0  0  0  0  0  0  0  0  0  0  0
  -17.5100   -0.5411    9.2930 H   0  0  0  0  0  0  0  0  0  0  0  0
  -20.1409   -2.6250   12.3208 H   0  0  0  0  0  0  0  0  0  0  0  0
  -22.6492   -1.2643   11.2727 H   0  0  0  0  0  0  0  0  0  0  0  0
  -22.0655   -2.8991   10.9504 H   0  0  0  0  0  0  0  0  0  0  0  0
  -22.6907   -1.0906   14.6586 H   0  0  0  0  0  0  0  0  0  0  0  0
  -21.6817   -2.5435   14.8698 H   0  0  0  0  0  0  0  0  0  0  0  0
  -17.9669    0.1996   14.7597 H   0  0  0  0  0  0  0  0  0  0  0  0
  -19.7396    1.6529   12.8529 H   0  0  0  0  0  0  0  0  0  0  0  0
  -17.1298    2.6779   13.9799 H   0  0  0  0  0  0  0  0  0  0  0  0
  -18.4354    3.6054   13.2677 H   0  0  0  0  0  0  0  0  0  0  0  0
  -18.6828    2.8567   14.8521 H   0  0  0  0  0  0  0  0  0  0  0  0
  -18.1275    0.4958   11.4866 H   0  0  0  0  0  0  0  0  0  0  0  0
  -17.7890    2.1634   11.3613 H   0  0  0  0  0  0  0  0  0  0  0  0
  -16.7093    1.1704   12.1725 H   0  0  0  0  0  0  0  0  0  0  0  0
  -18.4544   -1.1418   12.2040 H   0  0  0  0  0  0  0  0  0  0  0  0
  -17.8763   -3.6484   11.2567 H   0  0  0  0  0  0  0  0  0  0  0  0
  -17.0461   -2.4842   10.0885 H   0  0  0  0  0  0  0  0  0  0  0  0
  -16.2995   -3.9283   10.5387 H   0  0  0  0  0  0  0  0  0  0  0  0
  -23.3467   -4.9459   13.5607 H   0  0  0  0  0  0  0  0  0  0  0  0
  -22.3663   -4.5845   12.2092 H   0  0  0  0  0  0  0  0  0  0  0  0
  -24.6948   -3.0763   13.8455 H   0  0  0  0  0  0  0  0  0  0  0  0
  -24.6411   -3.2153   12.0318 H   0  0  0  0  0  0  0  0  0  0  0  0
  1  2  1  0  0  0  0
  1  5  1  0  0  0  0
  1 10  2  0  0  0  0
  2  3  1  0  0  0  0
  2 13  2  0  0  0  0
  3  4  1  0  0  0  0
  3  6  2  0  0  0  0
  4  5  1  0  0  0  0
  4  9  2  0  0  0  0
  5 14  1  0  0  0  0
  5 15  1  0  0  0  0
  6  7  1  0  0  0  0
  6 66  1  0  0  0  0
  7  8  2  0  0  0  0
  7 67  1  0  0  0  0
  8  9  1  0  0  0  0
  9 68  1  0  0  0  0
 10 11  1  0  0  0  0
 10 69  1  0  0  0  0
 11 12  2  0  0  0  0
 12 13  1  0  0  0  0
 12 70  1  0  0  0  0
 13 71  1  0  0  0  0
 16 17  2  0  0  0  0
 16 21  1  0  0  0  0
 16 72  1  0  0  0  0
 17 18  1  0  0  0  0
 17  8  1  0  0  0  0
 18 19  2  0  0  0  0
 18 73  1  0  0  0  0
 19 20  1  0  0  0  0
 19 22  1  0  0  0  0
 20 21  2  0  0  0  0
 20 24  1  0  0  0  0
 21 74  1  0  0  0  0
 22 23  2  0  0  0  0
 23 24  1  0  0  0  0
 24 75  1  0  0  0  0
 25 26  1  0  0  0  0
 25 30  1  0  0  0  0
 25 76  1  1  0  0  0
 25 23  1  0  0  0  0
 26 27  1  0  0  0  0
 26 42  1  0  0  0  0
 26 77  1  6  0  0  0
 27 28  1  0  0  0  0
 27 78  1  0  0  0  0
 27 79  1  0  0  0  0
 28 29  1  0  0  0  0
 28 80  1  0  0  0  0
 28 81  1  0  0  0  0
 29 30  1  0  0  0  0
 29 42  1  0  0  0  0
 29 82  1  6  0  0  0
 30 31  1  0  0  0  0
 31 32  2  0  0  0  0
 33 35  1  0  0  0  0
 33 83  1  1  0  0  0
 33 34  1  0  0  0  0
 33 31  1  0  0  0  0
 34 36  1  0  0  0  0
 34 37  1  0  0  0  0
 34 84  1  0  0  0  0
 35 38  1  0  0  0  0
 35 85  1  0  0  0  0
 36 86  1  0  0  0  0
 36 87  1  0  0  0  0
 36 88  1  0  0  0  0
 37 89  1  0  0  0  0
 37 90  1  0  0  0  0
 37 91  1  0  0  0  0
 38 39  1  0  0  0  0
 38 40  2  0  0  0  0
 39 41  1  0  0  0  0
 41 92  1  0  0  0  0
 41 93  1  0  0  0  0
 41 94  1  0  0  0  0
 42 95  1  0  0  0  0
 42 96  1  0  0  0  0
 43 44  1  0  0  0  0
 43 47  1  0  0  0  0
 43 97  1  0  0  0  0
 44 45  2  0  0  0  0
 45 46  1  0  0  0  0
 46 47  2  0  0  0  0
 46 11  1  0  0  0  0
 47 98  1  0  0  0  0
 48 44  1  0  0  0  0
 48 49  1  0  0  0  0
 48 52  1  0  0  0  0
 48 99  1  1  0  0  0
 49 50  1  0  0  0  0
 49100  1  0  0  0  0
 49101  1  0  0  0  0
 50 51  1  0  0  0  0
 50 65  1  0  0  0  0
 51 52  1  0  0  0  0
 51102  1  0  0  0  0
 51103  1  0  0  0  0
 52 53  1  0  0  0  0
 53 54  2  0  0  0  0
 55 59  1  0  0  0  0
 55104  1  1  0  0  0
 55 56  1  0  0  0  0
 55 53  1  0  0  0  0
 56 57  1  0  0  0  0
 56 58  1  0  0  0  0
 56105  1  0  0  0  0
 57106  1  0  0  0  0
 57107  1  0  0  0  0
 57108  1  0  0  0  0
 58109  1  0  0  0  0
 58110  1  0  0  0  0
 58111  1  0  0  0  0
 59 60  1  0  0  0  0
 59112  1  0  0  0  0
 60 61  1  0  0  0  0
 60 62  2  0  0  0  0
 61 63  1  0  0  0  0
 63113  1  0  0  0  0
 63114  1  0  0  0  0
 63115  1  0  0  0  0
 64 50  1  0  0  0  0
 64116  1  0  0  0  0
 64117  1  0  0  0  0
 65 64  1  0  0  0  0
 65118  1  0  0  0  0
 65119  1  0  0  0  0
M  END
>  <DRUGBANK_ID>
DB09027

>  <COMMON_NAME>
Ledipasvir

>  <CAS_NUMBER>
1256388-51-8

>  <UNII>
013TE6E4WV

>  <SYNONYMS>
Ledipasvir; Lédipasvir; Ledipasvirum

$$$$
