981
 OpenBabel10282417113D

 41 43  0  0  1  0  0  0  0  0999 V2000
    1.0661   -0.0093    0.1628 O   0  0  0  0  0  0  0  0  0  0  0  0
    3.0796    0.4613   -0.7887 O   0  0  0  0  0  0  0  0  0  0  0  0
   -4.2398   -3.5863    3.6506 N   0  0  0  0  0  0  0  0  0  0  0  0
   -1.9275   -2.5900    4.0217 N   0  0  0  0  0  0  0  0  0  0  0  0
    3.1569   -0.8649    1.0186 N   0  0  0  0  0  0  0  0  0  0  0  0
   -2.8845   -2.5355    1.7693 C   0  0  1  0  0  0  0  0  0  0  0  0
   -2.8722   -3.3485    3.1637 C   0  0  2  0  0  0  0  0  0  0  0  0
   -4.2854   -3.1746    1.3738 C   0  0  0  0  0  0  0  0  0  0  0  0
   -1.4781   -2.0017    1.8493 C   0  0  0  0  0  0  0  0  0  0  0  0
   -5.0483   -3.7968    2.4892 C   0  0  0  0  0  0  0  0  0  0  0  0
   -1.1617   -1.7938    3.1918 C   0  0  0  0  0  0  0  0  0  0  0  0
   -3.0853   -1.9731    0.2849 C   0  0  0  0  0  0  0  0  0  0  0  0
   -4.4132   -4.7636    4.4980 C   0  0  0  0  0  0  0  0  0  0  0  0
   -0.5977   -1.5297    0.8700 C   0  0  0  0  0  0  0  0  0  0  0  0
   -2.0540   -2.3813    5.4446 C   0  0  0  0  0  0  0  0  0  0  0  0
   -0.1650   -0.8854    3.5321 C   0  0  0  0  0  0  0  0  0  0  0  0
    0.2763   -0.5143    1.2035 C   0  0  0  0  0  0  0  0  0  0  0  0
    0.4512   -0.1262    2.5271 C   0  0  0  0  0  0  0  0  0  0  0  0
    2.4639   -0.1158    0.0928 C   0  0  0  0  0  0  0  0  0  0  0  0
    2.7218   -1.7621    2.0656 C   0  0  0  0  0  0  0  0  0  0  0  0
   -2.3885   -4.3306    3.0054 H   0  0  0  0  0  0  0  0  0  0  0  0
    4.1533   -0.7360    0.9164 H   0  0  0  0  0  0  0  0  0  0  0  0
   -4.2024   -3.9364    0.5849 H   0  0  0  0  0  0  0  0  0  0  0  0
   -5.0198   -2.4026    1.0911 H   0  0  0  0  0  0  0  0  0  0  0  0
   -5.2355   -4.8433    2.2202 H   0  0  0  0  0  0  0  0  0  0  0  0
   -6.0245   -3.3095    2.6009 H   0  0  0  0  0  0  0  0  0  0  0  0
   -2.9698   -2.7506   -0.4914 H   0  0  0  0  0  0  0  0  0  0  0  0
   -3.9789   -1.3493    0.1679 H   0  0  0  0  0  0  0  0  0  0  0  0
   -2.4524   -1.1598   -0.0769 H   0  0  0  0  0  0  0  0  0  0  0  0
   -4.1784   -5.6951    3.9672 H   0  0  0  0  0  0  0  0  0  0  0  0
   -3.8154   -4.7364    5.4068 H   0  0  0  0  0  0  0  0  0  0  0  0
   -5.4647   -4.8232    4.8129 H   0  0  0  0  0  0  0  0  0  0  0  0
   -0.6574   -1.8224   -0.1765 H   0  0  0  0  0  0  0  0  0  0  0  0
   -1.1018   -2.5844    5.9503 H   0  0  0  0  0  0  0  0  0  0  0  0
   -2.3543   -1.3547    5.6804 H   0  0  0  0  0  0  0  0  0  0  0  0
   -2.7876   -3.0400    5.9108 H   0  0  0  0  0  0  0  0  0  0  0  0
    0.1784   -0.7843    4.5552 H   0  0  0  0  0  0  0  0  0  0  0  0
    1.2294    0.5919    2.7651 H   0  0  0  0  0  0  0  0  0  0  0  0
    3.3312   -2.6605    2.0791 H   0  0  0  0  0  0  0  0  0  0  0  0
    2.8099   -1.2395    3.0245 H   0  0  0  0  0  0  0  0  0  0  0  0
    1.7180   -2.1315    1.9021 H   0  0  0  0  0  0  0  0  0  0  0  0
  1 17  1  0  0  0  0
  1 19  1  0  0  0  0
  2 19  2  0  0  0  0
  3  7  1  0  0  0  0
  3 10  1  0  0  0  0
  3 13  1  0  0  0  0
  4  7  1  0  0  0  0
  4 11  1  0  0  0  0
  4 15  1  0  0  0  0
  5 19  1  0  0  0  0
  5 20  1  0  0  0  0
  5 22  1  0  0  0  0
  6  7  1  0  0  0  0
  6  8  1  0  0  0  0
  6  9  1  0  0  0  0
  6 12  1  6  0  0  0
  7 21  1  6  0  0  0
  8 10  1  0  0  0  0
  8 23  1  0  0  0  0
  8 24  1  0  0  0  0
  9 11  2  0  0  0  0
  9 14  1  0  0  0  0
 10 25  1  0  0  0  0
 10 26  1  0  0  0  0
 11 16  1  0  0  0  0
 12 27  1  0  0  0  0
 12 28  1  0  0  0  0
 12 29  1  0  0  0  0
 13 30  1  0  0  0  0
 13 31  1  0  0  0  0
 13 32  1  0  0  0  0
 14 17  2  0  0  0  0
 14 33  1  0  0  0  0
 15 34  1  0  0  0  0
 15 35  1  0  0  0  0
 15 36  1  0  0  0  0
 16 18  2  0  0  0  0
 16 37  1  0  0  0  0
 17 18  1  0  0  0  0
 18 38  1  0  0  0  0
 20 39  1  0  0  0  0
 20 40  1  0  0  0  0
 20 41  1  0  0  0  0
M  END
>  <DRUGBANK_ID>
DB00981

>  <SECONDARY_ACCESSION_NUMBERS>
APRD00406

>  <COMMON_NAME>
Physostigmine

>  <CAS_NUMBER>
57-47-6

>  <UNII>
9U1VM840SP

>  <SYNONYMS>
Eserine; Physostigmine; Physostol

$$$$
