
 OpenBabel10282417133D

 28 29  0  0  0  0  0  0  0  0999 V2000
    1.0381    2.3249   -0.5793 N   0  0  0  0  0  0  0  0  0  0  0  0
   -1.4451    0.2547    1.4823 C   0  0  0  0  0  0  0  0  0  0  0  0
    0.6004    1.2611    0.3607 C   0  0  1  0  0  0  0  0  0  0  0  0
   -0.9375    1.1878    0.4163 C   0  0  0  0  0  0  0  0  0  0  0  0
   -1.2949   -1.1171    1.5216 C   0  0  0  0  0  0  0  0  0  0  0  0
   -1.7679   -1.5874    2.7079 N   0  0  0  0  0  0  0  0  0  0  0  0
   -2.3628   -0.5698    3.4023 C   0  0  0  0  0  0  0  0  0  0  0  0
   -2.1882    0.5991    2.6570 C   0  0  0  0  0  0  0  0  0  0  0  0
   -2.7249    1.7980    3.1617 C   0  0  0  0  0  0  0  0  0  0  0  0
   -3.0327   -0.6069    4.6264 C   0  0  0  0  0  0  0  0  0  0  0  0
   -3.5473    0.5968    5.1117 C   0  0  0  0  0  0  0  0  0  0  0  0
    2.5809   -0.1538    0.0817 O   0  0  0  0  0  0  0  0  0  0  0  0
    1.3609   -0.0243   -0.0096 C   0  0  0  0  0  0  0  0  0  0  0  0
    0.6475   -1.0228   -0.5457 O   0  0  0  0  0  0  0  0  0  0  0  0
   -3.3961    1.7733    4.3836 C   0  0  0  0  0  0  0  0  0  0  0  0
   -3.9003    2.9592    4.8356 O   0  0  0  0  0  0  0  0  0  0  0  0
    0.7581    2.0554   -1.5231 H   0  0  0  0  0  0  0  0  0  0  0  0
    2.0621    2.3118   -0.5868 H   0  0  0  0  0  0  0  0  0  0  0  0
    0.9506    1.5334    1.3652 H   0  0  0  0  0  0  0  0  0  0  0  0
   -1.3133    2.2001    0.6347 H   0  0  0  0  0  0  0  0  0  0  0  0
   -1.3645    0.9178   -0.5568 H   0  0  0  0  0  0  0  0  0  0  0  0
   -0.8594   -1.8184    0.8316 H   0  0  0  0  0  0  0  0  0  0  0  0
   -1.7079   -2.5493    3.0095 H   0  0  0  0  0  0  0  0  0  0  0  0
   -2.6312    2.7282    2.6108 H   0  0  0  0  0  0  0  0  0  0  0  0
   -3.1502   -1.5363    5.1735 H   0  0  0  0  0  0  0  0  0  0  0  0
   -4.0664    0.5888    6.0643 H   0  0  0  0  0  0  0  0  0  0  0  0
    1.2500   -1.7965   -0.5234 H   0  0  0  0  0  0  0  0  0  0  0  0
   -4.3381    2.8061    5.6877 H   0  0  0  0  0  0  0  0  0  0  0  0
  1 17  1  0  0  0  0
  1 18  1  0  0  0  0
  2  8  1  0  0  0  0
  2  4  1  0  0  0  0
  2  5  2  0  0  0  0
  3 19  1  1  0  0  0
  3 13  1  0  0  0  0
  3  1  1  0  0  0  0
  4  3  1  0  0  0  0
  4 20  1  0  0  0  0
  4 21  1  0  0  0  0
  5  6  1  0  0  0  0
  5 22  1  0  0  0  0
  6  7  1  0  0  0  0
  6 23  1  0  0  0  0
  7  8  2  0  0  0  0
  7 10  1  0  0  0  0
  8  9  1  0  0  0  0
  9 15  2  0  0  0  0
  9 24  1  0  0  0  0
 10 11  2  0  0  0  0
 10 25  1  0  0  0  0
 11 15  1  0  0  0  0
 11 26  1  0  0  0  0
 13 12  2  0  0  0  0
 14 13  1  0  0  0  0
 14 27  1  0  0  0  0
 15 16  1  0  0  0  0
 16 28  1  0  0  0  0
M  END
>  <DRUGBANK_ID>
DB02959

>  <SECONDARY_ACCESSION_NUMBERS>
EXPT01780

>  <COMMON_NAME>
Oxitriptan

>  <CAS_NUMBER>
4350-09-8

>  <UNII>
C1LJO185Q9

>  <SYNONYMS>
5-hydroxy-L-tryptophan; 5-hydroxytryptophan L-form; L-5 Hydroxytrytophan; L-5-HTP; L-5-hydroxytryptophan; Oxitriptan; Oxitriptano; Oxitriptanum

$$$$
