
 OpenBabel10282417103D

 24 24  0  0  0  0  0  0  0  0999 V2000
    1.0034   -0.0924   -0.0833 C   0  0  3  0  0  0  0  0  0  0  0  0
    0.6101    1.0328   -1.0279 C   0  0  0  0  0  0  0  0  0  0  0  0
    0.4563   -1.5140   -0.4477 C   0  0  3  0  0  0  0  0  0  0  0  0
    1.0152   -2.5680    0.4176 N   0  0  0  0  0  0  0  0  0  0  0  0
    0.6184    0.2840    1.2454 O   0  0  0  0  0  0  0  0  0  0  0  0
   -0.2473    0.8578   -2.1243 C   0  0  0  0  0  0  0  0  0  0  0  0
    1.0999    2.3269   -0.7867 C   0  0  0  0  0  0  0  0  0  0  0  0
   -1.0711   -1.6475   -0.3359 C   0  0  0  0  0  0  0  0  0  0  0  0
    0.6695    3.4062   -1.5609 C   0  0  0  0  0  0  0  0  0  0  0  0
   -0.7171    1.9365   -2.8660 C   0  0  0  0  0  0  0  0  0  0  0  0
   -0.2536    3.2154   -2.5858 C   0  0  0  0  0  0  0  0  0  0  0  0
    2.1010   -0.1416   -0.0775 H   0  0  0  0  0  0  0  0  0  0  0  0
    0.7712   -1.7393   -1.4748 H   0  0  0  0  0  0  0  0  0  0  0  0
    0.7418   -3.4831    0.0639 H   0  0  0  0  0  0  0  0  0  0  0  0
    2.0329   -2.5315    0.4018 H   0  0  0  0  0  0  0  0  0  0  0  0
   -0.3490    0.2195    1.2923 H   0  0  0  0  0  0  0  0  0  0  0  0
   -0.5957   -0.1230   -2.4330 H   0  0  0  0  0  0  0  0  0  0  0  0
    1.8128    2.4948    0.0189 H   0  0  0  0  0  0  0  0  0  0  0  0
   -1.6243   -0.8883   -0.8912 H   0  0  0  0  0  0  0  0  0  0  0  0
   -1.3978   -2.6137   -0.7347 H   0  0  0  0  0  0  0  0  0  0  0  0
   -1.4128   -1.5669    0.6997 H   0  0  0  0  0  0  0  0  0  0  0  0
    1.0435    4.4050   -1.3496 H   0  0  0  0  0  0  0  0  0  0  0  0
   -1.4445    1.7693   -3.6548 H   0  0  0  0  0  0  0  0  0  0  0  0
   -0.6037    4.0544   -3.1774 H   0  0  0  0  0  0  0  0  0  0  0  0
  1 12  1  0  0  0  0
  2  1  1  0  0  0  0
  3  1  1  0  0  0  0
  3 13  1  0  0  0  0
  4  3  1  0  0  0  0
  4 14  1  0  0  0  0
  4 15  1  0  0  0  0
  5  1  1  0  0  0  0
  5 16  1  0  0  0  0
  6  2  1  0  0  0  0
  6 17  1  0  0  0  0
  7  2  2  0  0  0  0
  7 18  1  0  0  0  0
  8  3  1  0  0  0  0
  8 19  1  0  0  0  0
  8 20  1  0  0  0  0
  8 21  1  0  0  0  0
  9  7  1  0  0  0  0
  9 22  1  0  0  0  0
 10  6  2  0  0  0  0
 10 23  1  0  0  0  0
 11 10  1  0  0  0  0
 11  9  2  0  0  0  0
 11 24  1  0  0  0  0
M  END
>  <DRUGBANK_ID>
DB00397

>  <SECONDARY_ACCESSION_NUMBERS>
APRD00457; DB09441

>  <COMMON_NAME>
Phenylpropanolamine

>  <CAS_NUMBER>
14838-15-4

>  <UNII>
33RU150WUN

>  <SYNONYMS>
(+-)-Norephedrine; (+-)-Phenylpropanolamine; Fenilpropanolamina; Norephedrine; Phenylpropanolamin; Phenylpropanolamina; Phenylpropanolamine; Ph√©nylpropanolamine; Phenylpropanolaminum; PPA

$$$$
