
 OpenBabel10282417223D

 19 18  0  0  0  0  0  0  0  0999 V2000
    0.9890    0.1869    0.0623 C   0  0  0  0  0  0  0  0  0  0  0  0
    0.1823   -1.0010   -0.4683 C   0  0  3  0  0  0  0  0  0  0  0  0
    0.2612    1.4823    0.4855 C   0  0  0  0  0  0  0  0  0  0  0  0
    2.2137    0.1764    0.1913 O   0  0  0  0  0  0  0  0  0  0  0  0
   -0.6587   -1.7169    0.6048 C   0  0  0  0  0  0  0  0  0  0  0  0
   -0.6362   -0.6247   -1.7007 C   0  0  0  0  0  0  0  0  0  0  0  0
    1.0809    2.3322    1.1308 O   0  0  0  0  0  0  0  0  0  0  0  0
   -0.9137    1.7099    0.2728 O   0  0  0  0  0  0  0  0  0  0  0  0
   -1.7480   -0.8612    1.2291 C   0  0  0  0  0  0  0  0  0  0  0  0
    0.9271   -1.7372   -0.8101 H   0  0  0  0  0  0  0  0  0  0  0  0
   -1.1320   -2.6018    0.1574 H   0  0  0  0  0  0  0  0  0  0  0  0
   -0.0038   -2.0876    1.4027 H   0  0  0  0  0  0  0  0  0  0  0  0
    0.0098   -0.2132   -2.4827 H   0  0  0  0  0  0  0  0  0  0  0  0
   -1.1526   -1.5000   -2.1096 H   0  0  0  0  0  0  0  0  0  0  0  0
   -1.3963    0.1278   -1.4825 H   0  0  0  0  0  0  0  0  0  0  0  0
    2.0087    2.0089    1.1025 H   0  0  0  0  0  0  0  0  0  0  0  0
   -2.3853   -0.4068    0.4649 H   0  0  0  0  0  0  0  0  0  0  0  0
   -2.3908   -1.4459    1.8902 H   0  0  0  0  0  0  0  0  0  0  0  0
   -1.3032   -0.0778    1.8466 H   0  0  0  0  0  0  0  0  0  0  0  0
  1  2  1  0  0  0  0
  1  3  1  0  0  0  0
  1  4  2  0  0  0  0
  2  5  1  0  0  0  0
  2  6  1  0  0  0  0
  2 10  1  0  0  0  0
  3  7  1  0  0  0  0
  3  8  2  0  0  0  0
  5  9  1  0  0  0  0
  5 11  1  0  0  0  0
  5 12  1  0  0  0  0
  6 13  1  0  0  0  0
  6 14  1  0  0  0  0
  6 15  1  0  0  0  0
  7 16  1  0  0  0  0
  9 17  1  0  0  0  0
  9 18  1  0  0  0  0
  9 19  1  0  0  0  0
M  END
>  <DRUGBANK_ID>
DB15831

>  <COMMON_NAME>
alpha-Keto-beta-methylvaleric acid

>  <CAS_NUMBER>
1460-34-0

>  <UNII>
787T50HCIV

$$$$
