
 OpenBabel10282417143D

 71 70  0  0  0  0  0  0  0  0999 V2000
    1.1066    0.0813    0.7804 C   0  0  0  0  0  0  0  0  0  0  0  0
    0.6295   -0.0769   -0.6206 C   0  0  0  0  0  0  0  0  0  0  0  0
    1.1561   -1.4902   -1.0755 C   0  0  0  0  0  0  0  0  0  0  0  0
    0.3440   -2.7066   -0.7425 C   0  0  0  0  0  0  0  0  0  0  0  0
   -1.1430   -2.5097   -1.0078 C   0  0  0  0  0  0  0  0  0  0  0  0
   -1.5267   -2.5175   -2.4478 C   0  0  0  0  0  0  0  0  0  0  0  0
   -1.0015   -3.8597   -3.0768 C   0  0  0  0  0  0  0  0  0  0  0  0
   -1.8438   -5.0376   -2.9293 C   0  0  0  0  0  0  0  0  0  0  0  0
   -3.2803   -4.7556   -3.4056 C   0  0  0  0  0  0  0  0  0  0  0  0
   -3.6678   -4.3870   -4.8767 C   0  0  0  0  0  0  0  0  0  0  0  0
   -3.0986   -5.2704   -5.9935 N   0  3  0  0  0  0  0  0  0  0  0  0
   -3.4961   -6.6934   -5.5755 C   0  0  0  0  0  0  0  0  0  0  0  0
   -3.7505   -4.9923   -7.3556 C   0  0  0  0  0  0  0  0  0  0  0  0
   -1.5964   -5.1357   -6.2709 C   0  0  0  0  0  0  0  0  0  0  0  0
   -1.1113   -3.8151   -6.9569 C   0  0  0  0  0  0  0  0  0  0  0  0
   -1.5096   -2.4002   -6.4991 C   0  0  0  0  0  0  0  0  0  0  0  0
   -1.0220   -2.1272   -5.1551 C   0  0  0  0  0  0  0  0  0  0  0  0
    0.5066   -2.3744   -4.8812 C   0  0  0  0  0  0  0  0  0  0  0  0
    1.2482   -1.1545   -5.3089 C   0  0  0  0  0  0  0  0  0  0  0  0
    0.7684    0.1413   -4.6679 C   0  0  0  0  0  0  0  0  0  0  0  0
    1.1828    0.2631   -3.2314 C   0  0  0  0  0  0  0  0  0  0  0  0
    2.6592   -0.1138   -2.8318 C   0  0  0  0  0  0  0  0  0  0  0  0
    3.4556    1.1175   -3.0870 C   0  0  0  0  0  0  0  0  0  0  0  0
    0.7863   -0.8117    1.3116 H   0  0  0  0  0  0  0  0  0  0  0  0
    0.7137    0.9899    1.2157 H   0  0  0  0  0  0  0  0  0  0  0  0
    2.1989    0.1388    0.7277 H   0  0  0  0  0  0  0  0  0  0  0  0
   -0.4335    0.1177   -0.7746 H   0  0  0  0  0  0  0  0  0  0  0  0
    1.1044    0.8120   -1.0722 H   0  0  0  0  0  0  0  0  0  0  0  0
    1.2969   -1.6665   -2.1356 H   0  0  0  0  0  0  0  0  0  0  0  0
    2.1520   -1.6725   -0.6668 H   0  0  0  0  0  0  0  0  0  0  0  0
    0.8294   -3.4919   -1.3371 H   0  0  0  0  0  0  0  0  0  0  0  0
    0.5422   -2.9871    0.2654 H   0  0  0  0  0  0  0  0  0  0  0  0
   -1.6802   -3.3521   -0.5594 H   0  0  0  0  0  0  0  0  0  0  0  0
   -1.5010   -1.5949   -0.5543 H   0  0  0  0  0  0  0  0  0  0  0  0
   -2.6220   -2.3739   -2.5556 H   0  0  0  0  0  0  0  0  0  0  0  0
   -1.1872   -1.5641   -2.8724 H   0  0  0  0  0  0  0  0  0  0  0  0
   -0.7990   -3.9446   -4.1243 H   0  0  0  0  0  0  0  0  0  0  0  0
    0.0313   -4.0896   -2.7486 H   0  0  0  0  0  0  0  0  0  0  0  0
   -1.3725   -5.8672   -3.4756 H   0  0  0  0  0  0  0  0  0  0  0  0
   -1.7811   -5.3209   -1.8751 H   0  0  0  0  0  0  0  0  0  0  0  0
   -3.8661   -5.6086   -3.0790 H   0  0  0  0  0  0  0  0  0  0  0  0
   -3.6689   -3.9332   -2.8038 H   0  0  0  0  0  0  0  0  0  0  0  0
   -4.7611   -4.5128   -4.9318 H   0  0  0  0  0  0  0  0  0  0  0  0
   -3.5388   -3.3440   -5.1421 H   0  0  0  0  0  0  0  0  0  0  0  0
   -4.5914   -6.7157   -5.5003 H   0  0  0  0  0  0  0  0  0  0  0  0
   -3.1341   -7.4121   -6.3069 H   0  0  0  0  0  0  0  0  0  0  0  0
   -3.0644   -6.9163   -4.5983 H   0  0  0  0  0  0  0  0  0  0  0  0
   -3.4703   -3.9928   -7.6925 H   0  0  0  0  0  0  0  0  0  0  0  0
   -3.3565   -5.7352   -8.0619 H   0  0  0  0  0  0  0  0  0  0  0  0
   -4.8326   -5.0594   -7.2722 H   0  0  0  0  0  0  0  0  0  0  0  0
   -1.0399   -5.4308   -5.3887 H   0  0  0  0  0  0  0  0  0  0  0  0
   -1.3566   -5.9412   -6.9836 H   0  0  0  0  0  0  0  0  0  0  0  0
   -0.0226   -3.8736   -6.9288 H   0  0  0  0  0  0  0  0  0  0  0  0
   -1.3406   -3.8515   -8.0169 H   0  0  0  0  0  0  0  0  0  0  0  0
   -1.1043   -1.6063   -7.1322 H   0  0  0  0  0  0  0  0  0  0  0  0
   -2.5979   -2.2438   -6.5078 H   0  0  0  0  0  0  0  0  0  0  0  0
   -1.3367   -1.1136   -4.8371 H   0  0  0  0  0  0  0  0  0  0  0  0
   -1.7796   -2.6479   -4.6070 H   0  0  0  0  0  0  0  0  0  0  0  0
    0.8322   -2.6021   -3.8582 H   0  0  0  0  0  0  0  0  0  0  0  0
    0.9115   -3.2714   -5.3946 H   0  0  0  0  0  0  0  0  0  0  0  0
    2.3049   -1.3069   -5.1337 H   0  0  0  0  0  0  0  0  0  0  0  0
    1.0834   -1.0780   -6.3888 H   0  0  0  0  0  0  0  0  0  0  0  0
    1.1029    1.0030   -5.1966 H   0  0  0  0  0  0  0  0  0  0  0  0
   -0.3212    0.2673   -4.6170 H   0  0  0  0  0  0  0  0  0  0  0  0
    0.9634    1.2926   -2.9415 H   0  0  0  0  0  0  0  0  0  0  0  0
    0.3717   -0.2919   -2.7744 H   0  0  0  0  0  0  0  0  0  0  0  0
    2.8767   -0.2473   -1.7573 H   0  0  0  0  0  0  0  0  0  0  0  0
    3.0627   -1.0279   -3.2712 H   0  0  0  0  0  0  0  0  0  0  0  0
    3.1018    1.8657   -2.3699 H   0  0  0  0  0  0  0  0  0  0  0  0
    4.5086    0.9291   -2.9284 H   0  0  0  0  0  0  0  0  0  0  0  0
    3.2314    1.4164   -4.1081 H   0  0  0  0  0  0  0  0  0  0  0  0
  1  2  1  0  0  0  0
  1 24  1  0  0  0  0
  1 25  1  0  0  0  0
  1 26  1  0  0  0  0
  2  3  1  0  0  0  0
  2 27  1  0  0  0  0
  2 28  1  0  0  0  0
  3  4  1  0  0  0  0
  3 29  1  0  0  0  0
  3 30  1  0  0  0  0
  4  5  1  0  0  0  0
  4 31  1  0  0  0  0
  4 32  1  0  0  0  0
  5  6  1  0  0  0  0
  5 33  1  0  0  0  0
  5 34  1  0  0  0  0
  6  7  1  0  0  0  0
  6 35  1  0  0  0  0
  6 36  1  0  0  0  0
  7  8  1  0  0  0  0
  7 37  1  0  0  0  0
  7 38  1  0  0  0  0
  8  9  1  0  0  0  0
  8 39  1  0  0  0  0
  8 40  1  0  0  0  0
  9 10  1  0  0  0  0
  9 41  1  0  0  0  0
  9 42  1  0  0  0  0
 10 11  1  0  0  0  0
 10 43  1  0  0  0  0
 10 44  1  0  0  0  0
 11 12  1  0  0  0  0
 11 13  1  0  0  0  0
 11 14  1  0  0  0  0
 12 45  1  0  0  0  0
 12 46  1  0  0  0  0
 12 47  1  0  0  0  0
 13 48  1  0  0  0  0
 13 49  1  0  0  0  0
 13 50  1  0  0  0  0
 14 15  1  0  0  0  0
 14 51  1  0  0  0  0
 14 52  1  0  0  0  0
 15 16  1  0  0  0  0
 15 53  1  0  0  0  0
 15 54  1  0  0  0  0
 16 17  1  0  0  0  0
 16 55  1  0  0  0  0
 16 56  1  0  0  0  0
 17 18  1  0  0  0  0
 17 57  1  0  0  0  0
 17 58  1  0  0  0  0
 18 19  1  0  0  0  0
 18 59  1  0  0  0  0
 18 60  1  0  0  0  0
 19 20  1  0  0  0  0
 19 61  1  0  0  0  0
 19 62  1  0  0  0  0
 20 21  1  0  0  0  0
 20 63  1  0  0  0  0
 20 64  1  0  0  0  0
 21 22  1  0  0  0  0
 21 65  1  0  0  0  0
 21 66  1  0  0  0  0
 22 23  1  0  0  0  0
 22 67  1  0  0  0  0
 22 68  1  0  0  0  0
 23 69  1  0  0  0  0
 23 70  1  0  0  0  0
 23 71  1  0  0  0  0
M  CHG  1  11   1
M  END
>  <DRUGBANK_ID>
DB04221

>  <SECONDARY_ACCESSION_NUMBERS>
EXPT00009; DB11287

>  <COMMON_NAME>
Didecyldimethylammonium

>  <CAS_NUMBER>
20256-56-8

>  <UNII>
Z7F472XQPA

>  <SYNONYMS>
Didecyl-dimethyl-ammonium; Didecyldimethylammonium cation; Didecyldimethylammonium ion; Didecyldimonium

$$$$
