MNS
 OpenBabel10282417123D

 31 32  0  0  0  0  0  0  0  0999 V2000
    1.2540   -1.4765   -0.0068 C   0  0  0  0  0  0  0  0  0  0  0  0
    2.4960   -0.8345   -0.0430 C   0  0  0  0  0  0  0  0  0  0  0  0
    2.5391    0.5321   -0.0163 C   0  0  0  0  0  0  0  0  0  0  0  0
    1.3483    1.2386    0.0352 C   0  0  0  0  0  0  0  0  0  0  0  0
    0.0413    0.6801    0.0143 C   0  0  0  0  0  0  0  0  0  0  0  0
   -1.1991    1.4511   -0.0058 C   0  0  0  0  0  0  0  0  0  0  0  0
   -2.3957    0.6967   -0.0103 C   0  0  0  0  0  0  0  0  0  0  0  0
   -2.4233   -0.6923   -0.0009 C   0  0  0  0  0  0  0  0  0  0  0  0
   -1.2370   -1.4013    0.0144 C   0  0  0  0  0  0  0  0  0  0  0  0
    0.0165   -0.7532    0.0104 C   0  0  0  0  0  0  0  0  0  0  0  0
   -1.2775    2.8533   -0.0361 N   0  0  0  0  0  0  0  0  0  0  0  0
   -2.5286    3.6071   -0.0756 C   0  0  0  0  0  0  0  0  0  0  0  0
   -0.1178    3.7339   -0.0503 C   0  0  0  0  0  0  0  0  0  0  0  0
    1.2521   -3.2502    0.0593 S   0  0  0  0  0  0  0  0  0  0  0  0
    0.7621   -3.6558    1.3527 O   0  0  0  0  0  0  0  0  0  0  0  0
    0.6981   -3.7552   -1.1787 O   0  0  0  0  0  0  0  0  0  0  0  0
    2.8801   -3.7044    0.0588 N   0  0  0  0  0  0  0  0  0  0  0  0
    3.4381   -1.3656   -0.0889 H   0  0  0  0  0  0  0  0  0  0  0  0
    3.4743    1.0843   -0.0337 H   0  0  0  0  0  0  0  0  0  0  0  0
    1.5401    2.2904    0.0932 H   0  0  0  0  0  0  0  0  0  0  0  0
   -3.3750    1.1583   -0.0247 H   0  0  0  0  0  0  0  0  0  0  0  0
   -3.3750   -1.2193   -0.0137 H   0  0  0  0  0  0  0  0  0  0  0  0
   -1.3283   -2.4857    0.0189 H   0  0  0  0  0  0  0  0  0  0  0  0
   -2.5747    4.2702    0.7958 H   0  0  0  0  0  0  0  0  0  0  0  0
   -2.5475    4.2281   -0.9787 H   0  0  0  0  0  0  0  0  0  0  0  0
   -3.4489    3.0298   -0.0768 H   0  0  0  0  0  0  0  0  0  0  0  0
    0.4406    3.6338    0.8877 H   0  0  0  0  0  0  0  0  0  0  0  0
    0.4903    3.5528   -0.9446 H   0  0  0  0  0  0  0  0  0  0  0  0
   -0.3802    4.7952   -0.1022 H   0  0  0  0  0  0  0  0  0  0  0  0
    3.3350   -3.4185    0.9256 H   0  0  0  0  0  0  0  0  0  0  0  0
    2.9199   -4.7200   -0.0505 H   0  0  0  0  0  0  0  0  0  0  0  0
  1  2  2  0  0  0  0
  1 10  1  0  0  0  0
  1 14  1  0  0  0  0
  2  3  1  0  0  0  0
  2 18  1  0  0  0  0
  3  4  2  0  0  0  0
  3 19  1  0  0  0  0
  4  5  1  0  0  0  0
  4 20  1  0  0  0  0
  5  6  2  0  0  0  0
  5 10  1  0  0  0  0
  6  7  1  0  0  0  0
  6 11  1  0  0  0  0
  7  8  2  0  0  0  0
  7 21  1  0  0  0  0
  8  9  1  0  0  0  0
  8 22  1  0  0  0  0
  9 10  2  0  0  0  0
  9 23  1  0  0  0  0
 11 12  1  0  0  0  0
 11 13  1  0  0  0  0
 12 24  1  0  0  0  0
 12 25  1  0  0  0  0
 12 26  1  0  0  0  0
 13 27  1  0  0  0  0
 13 28  1  0  0  0  0
 13 29  1  0  0  0  0
 14 15  2  0  0  0  0
 14 16  2  0  0  0  0
 14 17  1  0  0  0  0
 17 30  1  0  0  0  0
 17 31  1  0  0  0  0
M  END
>  <DRUGBANK_ID>
DB02866

>  <SECONDARY_ACCESSION_NUMBERS>
EXPT02203

>  <COMMON_NAME>
Dansylamide

>  <UNII>
ZUZ5S5875E

$$$$
