
 OpenBabel10282417113D

 45 47  0  0  1  0  0  0  0  0999 V2000
    1.7572    0.8022   -0.9571 S   0  0  0  0  0  0  0  0  0  0  0  0
    2.2140    0.7544    2.7259 S   0  0  0  0  0  0  0  0  0  0  0  0
   -2.0967    2.0255   -1.7781 O   0  0  0  0  0  0  0  0  0  0  0  0
   -2.6866   -0.4366    0.3625 O   0  0  0  0  0  0  0  0  0  0  0  0
    1.4871   -3.7526    1.5055 O   0  0  0  0  0  0  0  0  0  0  0  0
   -2.2266   -2.9012   -0.3492 O   0  0  0  0  0  0  0  0  0  0  0  0
   -0.6008    4.4216    1.6661 O   0  0  0  0  0  0  0  0  0  0  0  0
   -0.4531   -4.1573    0.0050 O   0  0  0  0  0  0  0  0  0  0  0  0
    3.1174   -2.8965    2.8570 O   0  0  0  0  0  0  0  0  0  0  0  0
   -0.6297   -0.5593   -0.7086 N   0  0  0  0  0  0  0  0  0  0  0  0
   -1.1881    2.6953    0.3413 N   0  0  0  0  0  0  0  0  0  0  0  0
    1.2434   -3.8566    3.7199 N   0  0  0  0  0  0  0  0  0  0  0  0
   -1.2093    1.5672   -0.7019 C   0  0  2  0  0  0  0  0  0  0  0  0
    0.0154    0.6375   -1.2332 C   0  0  1  0  0  0  0  0  0  0  0  0
   -1.7321    0.0659   -0.2203 C   0  0  0  0  0  0  0  0  0  0  0  0
   -0.0439   -1.7759   -0.3723 C   0  0  0  0  0  0  0  0  0  0  0  0
    1.2999   -1.8980   -0.1937 C   0  0  0  0  0  0  0  0  0  0  0  0
    2.3025   -0.8058   -0.4352 C   0  0  0  0  0  0  0  0  0  0  0  0
    2.0404   -3.1706    0.2999 C   0  0  0  0  0  0  0  0  0  0  0  0
   -0.2621    3.4006    1.0681 C   0  0  0  0  0  0  0  0  0  0  0  0
   -0.8991   -3.0337   -0.1773 C   0  0  0  0  0  0  0  0  0  0  0  0
   -3.4240    2.3941   -1.3933 C   0  0  0  0  0  0  0  0  0  0  0  0
    1.0969    2.8321    1.2116 C   0  0  0  0  0  0  0  0  0  0  0  0
    0.9141    1.5271    1.9434 C   0  0  0  0  0  0  0  0  0  0  0  0
   -0.2470    0.7879    2.1524 C   0  0  0  0  0  0  0  0  0  0  0  0
    2.0699   -3.5029    2.6919 C   0  0  0  0  0  0  0  0  0  0  0  0
   -0.0108   -0.5505    2.4795 C   0  0  0  0  0  0  0  0  0  0  0  0
    1.2443   -0.6171    2.9969 C   0  0  0  0  0  0  0  0  0  0  0  0
   -0.0635    0.6788   -2.3207 H   0  0  0  0  0  0  0  0  0  0  0  0
   -2.5804   -1.9928   -0.3502 H   0  0  0  0  0  0  0  0  0  0  0  0
   -2.0797    3.1233    0.5635 H   0  0  0  0  0  0  0  0  0  0  0  0
    0.4593   -4.4744    3.5720 H   0  0  0  0  0  0  0  0  0  0  0  0
    1.3245   -3.3880    4.6143 H   0  0  0  0  0  0  0  0  0  0  0  0
    2.9562   -1.1127   -1.2517 H   0  0  0  0  0  0  0  0  0  0  0  0
    2.9709   -0.7044    0.4322 H   0  0  0  0  0  0  0  0  0  0  0  0
    1.9757   -3.9146   -0.5007 H   0  0  0  0  0  0  0  0  0  0  0  0
    3.1143   -2.9848    0.4338 H   0  0  0  0  0  0  0  0  0  0  0  0
   -3.9429    1.5621   -0.9084 H   0  0  0  0  0  0  0  0  0  0  0  0
   -3.4200    3.2542   -0.7178 H   0  0  0  0  0  0  0  0  0  0  0  0
   -3.9667    2.7009   -2.2857 H   0  0  0  0  0  0  0  0  0  0  0  0
    1.4453    2.8348    0.1813 H   0  0  0  0  0  0  0  0  0  0  0  0
    1.8047    3.4952    1.7110 H   0  0  0  0  0  0  0  0  0  0  0  0
   -1.2462    1.1113    1.9193 H   0  0  0  0  0  0  0  0  0  0  0  0
   -0.7391   -1.3578    2.4472 H   0  0  0  0  0  0  0  0  0  0  0  0
    1.6409   -1.4330    3.5417 H   0  0  0  0  0  0  0  0  0  0  0  0
  1 14  1  0  0  0  0
  1 18  1  0  0  0  0
  2 24  1  0  0  0  0
  2 28  1  0  0  0  0
  3 22  1  0  0  0  0
  4 15  2  0  0  0  0
  5 19  1  0  0  0  0
  5 26  1  0  0  0  0
  6 21  1  0  0  0  0
  6 30  1  0  0  0  0
  7 20  2  0  0  0  0
  8 21  2  0  0  0  0
  9 26  2  0  0  0  0
 10 14  1  0  0  0  0
 10 15  1  0  0  0  0
 10 16  1  0  0  0  0
 11 20  1  0  0  0  0
 11 31  1  0  0  0  0
 12 26  1  0  0  0  0
 12 32  1  0  0  0  0
 12 33  1  0  0  0  0
 13 14  1  0  0  0  0
 13 15  1  0  0  0  0
 13 11  1  0  0  0  0
 13  3  1  6  0  0  0
 14 29  1  6  0  0  0
 16 17  2  0  0  0  0
 16 21  1  0  0  0  0
 17 18  1  0  0  0  0
 17 19  1  0  0  0  0
 18 34  1  0  0  0  0
 18 35  1  0  0  0  0
 19 36  1  0  0  0  0
 19 37  1  0  0  0  0
 20 23  1  0  0  0  0
 22 38  1  0  0  0  0
 22 39  1  0  0  0  0
 22 40  1  0  0  0  0
 23 24  1  0  0  0  0
 23 41  1  0  0  0  0
 23 42  1  0  0  0  0
 24 25  2  0  0  0  0
 25 27  1  0  0  0  0
 25 43  1  0  0  0  0
 27 28  2  0  0  0  0
 27 44  1  0  0  0  0
 28 45  1  0  0  0  0
M  END
>  <DRUGBANK_ID>
DB01331

>  <SECONDARY_ACCESSION_NUMBERS>
EXPT00897

>  <COMMON_NAME>
Cefoxitin

>  <CAS_NUMBER>
35607-66-0

>  <UNII>
6OEV9DX57Y

>  <SYNONYMS>
(6R,7S)-4-[(carbamoyloxy)methyl]-7-methoxy-8-oxo-7-[(thiophen-2-enyl)acetamido]-5-thia-1-azabicyclo[4.2.0]oct-2-ene-2-carboxylic acid; Cefoxitin; Cefoxitina; Cefoxitine; Cefoxitinum; Ceftoxitin; Cephoxitin; CFX; Rephoxitin

$$$$
