
 OpenBabel10282417213D

 16 15  0  0  0  0  0  0  0  0999 V2000
    0.9243    0.0129    0.0544 C   0  0  3  0  0  0  0  0  0  0  0  0
    0.4909    0.2831   -1.2815 O   0  0  0  0  0  0  0  0  0  0  0  0
    0.4201   -1.3871    0.4232 C   0  0  0  0  0  0  0  0  0  0  0  0
    0.4122    1.1303    0.9542 C   0  0  0  0  0  0  0  0  0  0  0  0
    0.9108   -1.9146    1.7648 C   0  0  0  0  0  0  0  0  0  0  0  0
    0.3249   -1.2165    2.8516 O   0  0  0  0  0  0  0  0  0  0  0  0
    2.0199    0.0188    0.0448 H   0  0  0  0  0  0  0  0  0  0  0  0
    0.7621    1.1905   -1.5036 H   0  0  0  0  0  0  0  0  0  0  0  0
   -0.6771   -1.3945    0.3966 H   0  0  0  0  0  0  0  0  0  0  0  0
    0.7423   -2.0853   -0.3612 H   0  0  0  0  0  0  0  0  0  0  0  0
    0.8701    1.1034    1.9442 H   0  0  0  0  0  0  0  0  0  0  0  0
    0.6405    2.1112    0.5243 H   0  0  0  0  0  0  0  0  0  0  0  0
   -0.6762    1.0770    1.0640 H   0  0  0  0  0  0  0  0  0  0  0  0
    0.6175   -2.9641    1.8702 H   0  0  0  0  0  0  0  0  0  0  0  0
    2.0020   -1.8657    1.8429 H   0  0  0  0  0  0  0  0  0  0  0  0
    0.9365   -0.5075    3.1146 H   0  0  0  0  0  0  0  0  0  0  0  0
  1  2  1  0  0  0  0
  1  3  1  0  0  0  0
  1  4  1  0  0  0  0
  1  7  1  0  0  0  0
  2  8  1  0  0  0  0
  3  5  1  0  0  0  0
  3  9  1  0  0  0  0
  3 10  1  0  0  0  0
  4 11  1  0  0  0  0
  4 12  1  0  0  0  0
  4 13  1  0  0  0  0
  5  6  1  0  0  0  0
  5 14  1  0  0  0  0
  5 15  1  0  0  0  0
  6 16  1  0  0  0  0
M  END
>  <DRUGBANK_ID>
DB14110

>  <COMMON_NAME>
Butylene glycol

>  <CAS_NUMBER>
107-88-0

>  <UNII>
3XUS85K0RA

>  <SYNONYMS>
(RS)-1,3-Butandiol; 1,3 Butylene glycol; 1,3-Butandiol; 1,3-Butanediol; 1,3-Butylene glycol; 1,3-Butylenglykol; BD; beta-Butylene glycol; Butane-1,3-diol; Methyltrimethylene glycol

$$$$
