
 OpenBabel10282417183D

 48 48  0  0  0  0  0  0  0  0999 V2000
    0.2803   -1.1901    0.1656 C   0  0  0  0  0  0  0  0  0  0  0  0
    1.0107    0.0015    0.0372 C   0  0  0  0  0  0  0  0  0  0  0  0
    2.3769    0.0678   -0.0640 O   0  0  0  0  0  0  0  0  0  0  0  0
    3.0417   -1.1908   -0.0407 C   0  0  0  0  0  0  0  0  0  0  0  0
   -2.9741   -2.5098    1.4485 N   0  0  0  0  0  0  0  0  0  0  0  0
   -1.8148   -2.5154    0.5904 C   0  0  0  0  0  0  0  0  0  0  0  0
   -1.0857   -1.1663    0.4462 C   0  0  0  0  0  0  0  0  0  0  0  0
   -1.7133    0.1150    0.4374 C   0  0  0  0  0  0  0  0  0  0  0  0
   -1.0235    1.2936    0.1545 C   0  0  0  0  0  0  0  0  0  0  0  0
    0.3456    1.2329    0.0333 C   0  0  0  0  0  0  0  0  0  0  0  0
    1.0220    2.4171   -0.0450 O   0  0  0  0  0  0  0  0  0  0  0  0
   -5.0665   -2.5742    2.1506 O   0  0  0  0  0  0  0  0  0  0  0  0
   -4.3284   -2.5485    1.1796 C   0  0  0  0  0  0  0  0  0  0  0  0
   -4.9725   -2.6133   -0.2461 C   0  0  0  0  0  0  0  0  0  0  0  0
   -4.8368   -1.4012   -1.1817 C   0  0  0  0  0  0  0  0  0  0  0  0
   -3.4147   -1.2834   -1.6276 C   0  0  0  0  0  0  0  0  0  0  0  0
   -2.7914   -2.4981   -2.3212 C   0  0  0  0  0  0  0  0  0  0  0  0
   -3.2954   -2.5347   -3.7203 C   0  0  0  0  0  0  0  0  0  0  0  0
   -2.8122   -1.2737   -4.4252 C   0  0  0  0  0  0  0  0  0  0  0  0
   -1.2805   -1.1639   -4.4294 C   0  0  0  0  0  0  0  0  0  0  0  0
   -0.6778   -2.3913   -5.0901 C   0  0  0  0  0  0  0  0  0  0  0  0
    0.7599   -2.1589    0.0759 H   0  0  0  0  0  0  0  0  0  0  0  0
    2.8067   -1.7554    0.8702 H   0  0  0  0  0  0  0  0  0  0  0  0
    2.7893   -1.7693   -0.9363 H   0  0  0  0  0  0  0  0  0  0  0  0
    4.1166   -1.0044   -0.0458 H   0  0  0  0  0  0  0  0  0  0  0  0
   -2.7671   -2.4823    2.4377 H   0  0  0  0  0  0  0  0  0  0  0  0
   -2.2054   -2.8863   -0.3244 H   0  0  0  0  0  0  0  0  0  0  0  0
   -1.1267   -3.3437    0.7982 H   0  0  0  0  0  0  0  0  0  0  0  0
   -2.7908    0.2365    0.5573 H   0  0  0  0  0  0  0  0  0  0  0  0
   -1.5493    2.2415    0.0666 H   0  0  0  0  0  0  0  0  0  0  0  0
    1.9647    2.1811    0.0293 H   0  0  0  0  0  0  0  0  0  0  0  0
   -4.6720   -3.5414   -0.7395 H   0  0  0  0  0  0  0  0  0  0  0  0
   -6.0521   -2.7276   -0.0873 H   0  0  0  0  0  0  0  0  0  0  0  0
   -5.4827   -1.4503   -2.0627 H   0  0  0  0  0  0  0  0  0  0  0  0
   -5.1035   -0.4869   -0.6355 H   0  0  0  0  0  0  0  0  0  0  0  0
   -3.1253   -0.3161   -2.0452 H   0  0  0  0  0  0  0  0  0  0  0  0
   -3.0005   -1.2029   -0.6741 H   0  0  0  0  0  0  0  0  0  0  0  0
   -1.6922   -2.4526   -2.2606 H   0  0  0  0  0  0  0  0  0  0  0  0
   -3.0297   -3.4709   -1.8783 H   0  0  0  0  0  0  0  0  0  0  0  0
   -2.9521   -3.4568   -4.1957 H   0  0  0  0  0  0  0  0  0  0  0  0
   -4.3857   -2.5989   -3.6840 H   0  0  0  0  0  0  0  0  0  0  0  0
   -3.2178   -1.2711   -5.4346 H   0  0  0  0  0  0  0  0  0  0  0  0
   -3.2238   -0.3742   -3.9547 H   0  0  0  0  0  0  0  0  0  0  0  0
   -0.9908   -0.2534   -4.9588 H   0  0  0  0  0  0  0  0  0  0  0  0
   -0.8595   -1.0474   -3.4201 H   0  0  0  0  0  0  0  0  0  0  0  0
   -1.1126   -2.5136   -6.0858 H   0  0  0  0  0  0  0  0  0  0  0  0
    0.4052   -2.3019   -5.1716 H   0  0  0  0  0  0  0  0  0  0  0  0
   -0.8784   -3.3056   -4.5200 H   0  0  0  0  0  0  0  0  0  0  0  0
  1  2  1  0  0  0  0
  1  7  2  0  0  0  0
  1 22  1  0  0  0  0
  2  3  1  0  0  0  0
  2 10  2  0  0  0  0
  3  4  1  0  0  0  0
  4 23  1  0  0  0  0
  4 24  1  0  0  0  0
  4 25  1  0  0  0  0
  5  6  1  0  0  0  0
  5 13  1  0  0  0  0
  5 26  1  0  0  0  0
  6  7  1  0  0  0  0
  6 27  1  0  0  0  0
  6 28  1  0  0  0  0
  7  8  1  0  0  0  0
  8  9  2  0  0  0  0
  8 29  1  0  0  0  0
  9 10  1  0  0  0  0
  9 30  1  0  0  0  0
 10 11  1  0  0  0  0
 11 31  1  0  0  0  0
 12 13  2  0  0  0  0
 13 14  1  0  0  0  0
 14 15  1  0  0  0  0
 14 32  1  0  0  0  0
 14 33  1  0  0  0  0
 15 16  1  0  0  0  0
 15 34  1  0  0  0  0
 15 35  1  0  0  0  0
 16 17  1  0  0  0  0
 16 36  1  0  0  0  0
 16 37  1  0  0  0  0
 17 18  1  0  0  0  0
 17 38  1  0  0  0  0
 17 39  1  0  0  0  0
 18 19  1  0  0  0  0
 18 40  1  0  0  0  0
 18 41  1  0  0  0  0
 19 20  1  0  0  0  0
 19 42  1  0  0  0  0
 19 43  1  0  0  0  0
 20 21  1  0  0  0  0
 20 44  1  0  0  0  0
 20 45  1  0  0  0  0
 21 46  1  0  0  0  0
 21 47  1  0  0  0  0
 21 48  1  0  0  0  0
M  END
>  <DRUGBANK_ID>
DB11324

>  <COMMON_NAME>
Nonivamide

>  <CAS_NUMBER>
2444-46-4

>  <UNII>
S846B891OR

>  <SYNONYMS>
Hydroxymethoxybenzyl pelargonamide; N-Nonanoyl vanillylamide; N-Vanillylnonamide; N-Vanillylpelargonamide; Nonivamide; Pelargonyl vanillylamide; Pseudocapsaicin; Vanillyl-N-nonylamide

$$$$
