
 OpenBabel10282417113D

111116  0  0  0  0  0  0  0  0999 V2000
    1.7836   -6.6912    0.1967 C   0  0  2  0  0  0  0  0  0  0  0  0
    0.5995   -7.2938   -0.5961 C   0  0  0  0  0  0  0  0  0  0  0  0
    0.5547   -6.4821   -1.8591 C   0  0  1  0  0  0  0  0  0  0  0  0
   -0.6931   -2.2888   -0.5447 C   0  0  1  0  0  0  0  0  0  0  0  0
   -0.9461   -2.2812    1.5494 C   0  0  0  0  0  0  0  0  0  0  0  0
    2.4141   -5.4738    1.4872 C   0  0  1  0  0  0  0  0  0  0  0  0
   -0.6176   -4.7285   -2.7996 C   0  0  0  0  0  0  0  0  0  0  0  0
   -0.6664   -3.1460   -2.9625 C   0  0  1  0  0  0  0  0  0  0  0  0
    1.2074   -3.6639    2.1310 C   0  0  1  0  0  0  0  0  0  0  0  0
   -0.1034   -5.3596   -1.0799 C   0  0  1  0  0  0  0  0  0  0  0  0
    1.2768   -4.7681    0.5003 C   0  0  1  0  0  0  0  0  0  0  0  0
    2.2326   -4.0938    0.6099 H   0  0  0  0  0  0  0  0  0  0  0  0
    0.3175   -2.0883   -1.5068 C   0  0  0  0  0  0  0  0  0  0  0  0
    0.9813   -2.1322    1.9897 C   0  0  2  0  0  0  0  0  0  0  0  0
    0.3325   -1.5336    2.9775 O   0  0  0  0  0  0  0  0  0  0  0  0
    2.7483   -5.0915    3.2359 O   0  0  0  0  0  0  0  0  0  0  0  0
   -1.9206   -6.0487   -1.5502 C   0  0  0  0  0  0  0  0  0  0  0  0
   -1.1599   -2.5951   -1.6290 C   0  0  0  0  0  0  0  0  0  0  0  0
   -2.4521   -3.1669   -0.8003 C   0  0  0  0  0  0  0  0  0  0  0  0
    2.9026   -0.1438    0.9697 C   0  0  0  0  0  0  0  0  0  0  0  0
    1.7930   -1.4679    0.1875 C   0  0  0  0  0  0  0  0  0  0  0  0
    3.7577   -1.2882    0.4206 C   0  0  0  0  0  0  0  0  0  0  0  0
    0.5522   -0.6128   -0.4583 O   0  0  0  0  0  0  0  0  0  0  0  0
    0.7211    0.6838    0.2530 C   0  0  0  0  0  0  0  0  0  0  0  0
   -0.0414   -3.5844   -0.7608 H   0  0  0  0  0  0  0  0  0  0  0  0
    0.3022    0.5971    1.6779 C   0  0  1  0  0  0  0  0  0  0  0  0
    1.2057    1.6911   -0.2355 O   0  0  0  0  0  0  0  0  0  0  0  0
    1.3977    0.7341    2.6919 C   0  0  1  0  0  0  0  0  0  0  0  0
   -0.9228    1.1338    1.9892 O   0  0  0  0  0  0  0  0  0  0  0  0
    1.9397    2.0060    2.3714 N   0  0  0  0  0  0  0  0  0  0  0  0
    1.3168    0.2249    4.1123 C   0  0  0  0  0  0  0  0  0  0  0  0
    1.6281   -1.1223    4.7229 C   0  0  0  0  0  0  0  0  0  0  0  0
    0.4397    0.9368    4.7537 C   0  0  0  0  0  0  0  0  0  0  0  0
    1.1642   -1.5808    5.9096 C   0  0  0  0  0  0  0  0  0  0  0  0
    0.6178    0.5502    6.0166 C   0  0  0  0  0  0  0  0  0  0  0  0
    0.8659   -0.5948    6.6891 C   0  0  0  0  0  0  0  0  0  0  0  0
    2.2016    2.9459    3.2759 C   0  0  0  0  0  0  0  0  0  0  0  0
    2.3602    4.0901    2.9024 O   0  0  0  0  0  0  0  0  0  0  0  0
    2.1568    2.4972    4.5606 O   0  0  0  0  0  0  0  0  0  0  0  0
    1.7909    3.3515    5.6974 C   0  0  0  0  0  0  0  0  0  0  0  0
    3.1658    3.8224    5.9028 C   0  0  0  0  0  0  0  0  0  0  0  0
    0.6904    4.3248    5.3631 C   0  0  0  0  0  0  0  0  0  0  0  0
    1.3520    2.8224    7.1114 C   0  0  0  0  0  0  0  0  0  0  0  0
   -2.0948   -2.9207   -4.0489 O   0  0  0  0  0  0  0  0  0  0  0  0
   -1.1699   -5.3978   -3.7356 O   0  0  0  0  0  0  0  0  0  0  0  0
    1.6145   -5.6087   -2.2300 O   0  0  0  0  0  0  0  0  0  0  0  0
    0.1720   -4.3701    2.5658 O   0  0  0  0  0  0  0  0  0  0  0  0
   -0.3876   -4.1684    1.3769 C   0  0  0  0  0  0  0  0  0  0  0  0
    0.4663   -2.5989    0.4229 C   0  0  0  0  0  0  0  0  0  0  0  0
   -1.4475   -4.7538    1.2361 O   0  0  0  0  0  0  0  0  0  0  0  0
    1.9400   -2.9053   -0.8645 C   0  0  0  0  0  0  0  0  0  0  0  0
    2.1353   -1.4096   -1.9847 C   0  0  0  0  0  0  0  0  0  0  0  0
    0.8100   -0.1080   -2.2901 C   0  0  0  0  0  0  0  0  0  0  0  0
   -0.8622   -0.9575    0.2856 C   0  0  0  0  0  0  0  0  0  0  0  0
   -0.8360   -0.0011   -1.3731 C   0  0  0  0  0  0  0  0  0  0  0  0
    3.8558   -4.2083    4.1146 C   0  0  0  0  0  0  0  0  0  0  0  0
    3.8915   -4.0435    5.3602 O   0  0  0  0  0  0  0  0  0  0  0  0
    4.9410   -3.4841    3.3679 C   0  0  0  0  0  0  0  0  0  0  0  0
    3.3750   -6.5298    1.2323 C   0  0  0  0  0  0  0  0  0  0  0  0
    2.1513   -7.4602    1.3391 O   0  0  0  0  0  0  0  0  0  0  0  0
    2.4516   -6.9299   -0.7269 H   0  0  0  0  0  0  0  0  0  0  0  0
    0.3800   -8.3644   -0.7688 H   0  0  0  0  0  0  0  0  0  0  0  0
   -0.2834   -7.1131    0.0047 H   0  0  0  0  0  0  0  0  0  0  0  0
    0.3220   -7.0202   -2.8499 H   0  0  0  0  0  0  0  0  0  0  0  0
   -1.4741   -1.4983    2.1081 H   0  0  0  0  0  0  0  0  0  0  0  0
   -1.6557   -2.9283    1.1787 H   0  0  0  0  0  0  0  0  0  0  0  0
   -1.9487   -3.2921   -2.7774 H   0  0  0  0  0  0  0  0  0  0  0  0
    1.5771   -3.5785    3.1680 H   0  0  0  0  0  0  0  0  0  0  0  0
    1.1764   -1.1372    2.9781 H   0  0  0  0  0  0  0  0  0  0  0  0
   -2.2397   -6.5806   -2.6421 H   0  0  0  0  0  0  0  0  0  0  0  0
   -2.3274   -6.9389   -1.0852 H   0  0  0  0  0  0  0  0  0  0  0  0
   -2.7301   -5.2925   -1.8261 H   0  0  0  0  0  0  0  0  0  0  0  0
   -2.4130   -4.2202   -0.4993 H   0  0  0  0  0  0  0  0  0  0  0  0
   -2.7926   -2.6585    0.0970 H   0  0  0  0  0  0  0  0  0  0  0  0
   -3.2823   -2.9423   -1.4128 H   0  0  0  0  0  0  0  0  0  0  0  0
    3.1196    0.6909    1.6602 H   0  0  0  0  0  0  0  0  0  0  0  0
    3.6676   -0.6433    2.0912 H   0  0  0  0  0  0  0  0  0  0  0  0
    3.2623    0.6109    0.1702 H   0  0  0  0  0  0  0  0  0  0  0  0
    4.0206   -2.0849    1.1076 H   0  0  0  0  0  0  0  0  0  0  0  0
    4.3020   -1.0840   -0.4673 H   0  0  0  0  0  0  0  0  0  0  0  0
    4.6136   -0.1928    0.9413 H   0  0  0  0  0  0  0  0  0  0  0  0
    0.0939   -0.3783    1.6613 H   0  0  0  0  0  0  0  0  0  0  0  0
    2.1234   -0.0378    2.5898 H   0  0  0  0  0  0  0  0  0  0  0  0
   -0.6601    2.0364    1.8155 H   0  0  0  0  0  0  0  0  0  0  0  0
    2.1400    2.2125    1.3720 H   0  0  0  0  0  0  0  0  0  0  0  0
    1.7167   -2.0502    4.1818 H   0  0  0  0  0  0  0  0  0  0  0  0
    0.2092    1.9128    4.3419 H   0  0  0  0  0  0  0  0  0  0  0  0
    1.1600   -2.5992    6.2023 H   0  0  0  0  0  0  0  0  0  0  0  0
    1.0023    1.1440    6.7223 H   0  0  0  0  0  0  0  0  0  0  0  0
    0.7993   -0.5539    7.7517 H   0  0  0  0  0  0  0  0  0  0  0  0
    3.4834    4.2859    4.9749 H   0  0  0  0  0  0  0  0  0  0  0  0
    3.1666    4.4908    6.7396 H   0  0  0  0  0  0  0  0  0  0  0  0
    3.7992    2.9308    6.0666 H   0  0  0  0  0  0  0  0  0  0  0  0
   -0.3016    3.8509    5.2550 H   0  0  0  0  0  0  0  0  0  0  0  0
    0.6325    5.0295    6.1895 H   0  0  0  0  0  0  0  0  0  0  0  0
    0.9041    4.8440    4.4423 H   0  0  0  0  0  0  0  0  0  0  0  0
    0.2498    2.4972    7.0652 H   0  0  0  0  0  0  0  0  0  0  0  0
    2.1089    2.0489    7.4398 H   0  0  0  0  0  0  0  0  0  0  0  0
    1.2866    3.4445    7.9872 H   0  0  0  0  0  0  0  0  0  0  0  0
   -3.0671   -2.9859   -3.6318 H   0  0  0  0  0  0  0  0  0  0  0  0
    1.6434   -5.6428   -3.2027 H   0  0  0  0  0  0  0  0  0  0  0  0
    2.9197   -3.1741   -0.3744 H   0  0  0  0  0  0  0  0  0  0  0  0
    3.1945   -1.0849   -1.9285 H   0  0  0  0  0  0  0  0  0  0  0  0
    1.2868    0.9314   -2.2631 H   0  0  0  0  0  0  0  0  0  0  0  0
   -1.9547   -0.8897    0.5997 H   0  0  0  0  0  0  0  0  0  0  0  0
   -1.4831    0.8738   -1.3251 H   0  0  0  0  0  0  0  0  0  0  0  0
    5.5130   -4.2200    2.8298 H   0  0  0  0  0  0  0  0  0  0  0  0
    4.4518   -2.7419    2.7737 H   0  0  0  0  0  0  0  0  0  0  0  0
    5.6725   -2.8992    3.9912 H   0  0  0  0  0  0  0  0  0  0  0  0
    4.2010   -6.7078    1.8799 H   0  0  0  0  0  0  0  0  0  0  0  0
    3.7466   -6.0470    0.3202 H   0  0  0  0  0  0  0  0  0  0  0  0
  1  2  1  0  0  0  0
  1 60  1  0  0  0  0
  1 61  1  1  0  0  0
  2  3  1  0  0  0  0
  2 62  1  0  0  0  0
  2 63  1  0  0  0  0
  3 10  1  0  0  0  0
  3 64  1  6  0  0  0
  3 46  1  0  0  0  0
  4  5  1  0  0  0  0
  4 25  1  6  0  0  0
  5 14  1  0  0  0  0
  5 65  1  0  0  0  0
  5 66  1  0  0  0  0
  6  1  1  0  0  0  0
  6 11  1  0  0  0  0
  6 59  1  0  0  0  0
  6 16  1  1  0  0  0
  7  8  1  0  0  0  0
  7 45  2  0  0  0  0
  8 13  1  0  0  0  0
  8 44  1  0  0  0  0
  8 67  1  1  0  0  0
  9 68  1  1  0  0  0
  9 47  1  0  0  0  0
 10  7  1  0  0  0  0
 10 17  1  6  0  0  0
 11 10  1  0  0  0  0
 11  9  1  0  0  0  0
 11 12  1  1  0  0  0
 13 18  2  0  0  0  0
 14  9  1  0  0  0  0
 14 15  1  1  0  0  0
 15 69  1  0  0  0  0
 16 56  1  0  0  0  0
 17 70  1  0  0  0  0
 17 71  1  0  0  0  0
 17 72  1  0  0  0  0
 18  4  1  0  0  0  0
 18 19  1  0  0  0  0
 19 73  1  0  0  0  0
 19 74  1  0  0  0  0
 19 75  1  0  0  0  0
 20 76  1  0  0  0  0
 20 77  1  0  0  0  0
 20 78  1  0  0  0  0
 21 13  1  0  0  0  0
 21 14  1  0  0  0  0
 21 20  1  0  0  0  0
 21 22  1  0  0  0  0
 22 79  1  0  0  0  0
 22 80  1  0  0  0  0
 22 81  1  0  0  0  0
 23  4  1  0  0  0  0
 24 23  1  0  0  0  0
 24 26  1  0  0  0  0
 24 27  2  0  0  0  0
 26 28  1  0  0  0  0
 26 29  1  0  0  0  0
 26 82  1  1  0  0  0
 28 30  1  0  0  0  0
 28 31  1  0  0  0  0
 28 83  1  6  0  0  0
 29 84  1  0  0  0  0
 30 37  1  0  0  0  0
 30 85  1  0  0  0  0
 32 31  1  0  0  0  0
 32 86  1  0  0  0  0
 33 31  2  0  0  0  0
 33 87  1  0  0  0  0
 34 32  2  0  0  0  0
 34 88  1  0  0  0  0
 35 33  1  0  0  0  0
 35 89  1  0  0  0  0
 36 34  1  0  0  0  0
 36 35  2  0  0  0  0
 36 90  1  0  0  0  0
 37 38  2  0  0  0  0
 37 39  1  0  0  0  0
 39 40  1  0  0  0  0
 40 41  1  0  0  0  0
 40 42  1  0  0  0  0
 40 43  1  0  0  0  0
 41 91  1  0  0  0  0
 41 92  1  0  0  0  0
 41 93  1  0  0  0  0
 42 94  1  0  0  0  0
 42 95  1  0  0  0  0
 42 96  1  0  0  0  0
 43 97  1  0  0  0  0
 43 98  1  0  0  0  0
 43 99  1  0  0  0  0
 44100  1  0  0  0  0
 46101  1  0  0  0  0
 47 48  1  0  0  0  0
 48 49  1  0  0  0  0
 48 50  2  0  0  0  0
 49 51  2  0  0  0  0
 51102  1  0  0  0  0
 52 51  1  0  0  0  0
 52103  1  0  0  0  0
 53 52  2  0  0  0  0
 53104  1  0  0  0  0
 54 49  1  0  0  0  0
 54105  1  0  0  0  0
 55 53  1  0  0  0  0
 55 54  2  0  0  0  0
 55106  1  0  0  0  0
 56 57  2  0  0  0  0
 56 58  1  0  0  0  0
 58107  1  0  0  0  0
 58108  1  0  0  0  0
 58109  1  0  0  0  0
 59 60  1  0  0  0  0
 59110  1  0  0  0  0
 59111  1  0  0  0  0
M  END
>  <DRUGBANK_ID>
DB01248

>  <SECONDARY_ACCESSION_NUMBERS>
APRD00932

>  <COMMON_NAME>
Docetaxel

>  <CAS_NUMBER>
114977-28-5

>  <UNII>
699121PHCA

>  <SYNONYMS>
Docetaxel; Docetaxel anhydrous; N-Debenzoyl-N-(tert-butoxycarbonyl)-10-deacetylpaclitaxel; N-Debenzoyl-N-(tert-butoxycarbonyl)-10-deacetyltaxol; TXL

$$$$
