
 OpenBabel10282417123D

 12 11  0  0  0  0  0  0  0  0999 V2000
    0.7645    0.0782   -0.0063 O   0  0  0  0  0  0  0  0  0  0  0  0
    0.1799   -1.1212   -0.1499 C   0  0  0  0  0  0  0  0  0  0  0  0
    0.8345   -2.1423   -0.2721 O   0  0  0  0  0  0  0  0  0  0  0  0
   -1.2876   -1.0678   -0.1435 C   0  0  0  0  0  0  0  0  0  0  0  0
   -2.0032    0.0613   -0.0084 C   0  0  0  0  0  0  0  0  0  0  0  0
   -3.4753   -0.0295   -0.0192 C   0  0  0  0  0  0  0  0  0  0  0  0
   -4.0889    1.1612    0.1233 O   0  0  0  0  0  0  0  0  0  0  0  0
   -4.0917   -1.0754   -0.1444 O   0  0  0  0  0  0  0  0  0  0  0  0
    1.7261   -0.1196   -0.0300 H   0  0  0  0  0  0  0  0  0  0  0  0
   -1.7654   -2.0372   -0.2595 H   0  0  0  0  0  0  0  0  0  0  0  0
   -1.5300    1.0259    0.1071 H   0  0  0  0  0  0  0  0  0  0  0  0
   -3.5275    1.9511    0.2178 H   0  0  0  0  0  0  0  0  0  0  0  0
  1  2  1  0  0  0  0
  1  9  1  0  0  0  0
  2  3  2  0  0  0  0
  2  4  1  0  0  0  0
  4  5  2  0  0  0  0
  4 10  1  0  0  0  0
  5  6  1  0  0  0  0
  5 11  1  0  0  0  0
  6  7  1  0  0  0  0
  6  8  2  0  0  0  0
  7 12  1  0  0  0  0
M  END
>  <DRUGBANK_ID>
DB01677

>  <SECONDARY_ACCESSION_NUMBERS>
EXPT01460; EXPT01511

>  <COMMON_NAME>
Fumaric acid

>  <CAS_NUMBER>
110-17-8

>  <UNII>
88XHZ13131

>  <SYNONYMS>
(2E)-2-butenedioic acid; (E)-2-butenedioic acid; Fumaric acid; Fumaricum acidum; Fumars√§ure; trans-1,2-ethylenedicarboxylic acid; trans-but-2-enedioic acid; trans-Butenedioic acid

$$$$
