
 OpenBabel10282417103D

 51 52  0  0  0  0  0  0  0  0999 V2000
   -0.0009    0.9017   -0.3840 C   0  0  0  0  0  0  0  0  0  0  0  0
    0.6719   -0.4321   -0.2578 C   0  0  0  0  0  0  0  0  0  0  0  0
   -0.8056   -0.3452   -0.6268 C   0  0  0  0  0  0  0  0  0  0  0  0
   -0.2714   -4.0708    3.1795 N   0  0  0  0  0  0  0  0  0  0  0  0
    2.5656   -0.9855    3.2648 O   0  0  0  0  0  0  0  0  0  0  0  0
    1.7265   -3.2350    4.5107 C   0  0  3  0  0  0  0  0  0  0  0  0
    1.4646   -0.1866    3.1714 C   0  0  0  0  0  0  0  0  0  0  0  0
    0.1750   -3.3149    4.4208 C   0  0  0  0  0  0  0  0  0  0  0  0
    2.5083   -2.4763    3.3590 C   0  0  0  0  0  0  0  0  0  0  0  0
   -1.1616    1.1635    2.8779 C   0  0  0  0  0  0  0  0  0  0  0  0
    1.3468    1.1827    3.0473 C   0  0  0  0  0  0  0  0  0  0  0  0
    0.2314   -0.7479    3.1348 C   0  0  0  0  0  0  0  0  0  0  0  0
    0.0445    1.8660    2.8743 C   0  0  0  0  0  0  0  0  0  0  0  0
   -0.9664   -0.0601    3.3801 C   0  0  0  0  0  0  0  0  0  0  0  0
    2.1241   -4.6229    4.5066 O   0  0  0  0  0  0  0  0  0  0  0  0
   -1.8882   -0.7944    0.2748 C   0  0  0  0  0  0  0  0  0  0  0  0
   -3.1110   -0.0835    0.2511 O   0  0  0  0  0  0  0  0  0  0  0  0
   -1.7171   -3.9544    2.8067 C   0  0  0  0  0  0  0  0  0  0  0  0
   -2.5984    1.4408    2.3669 C   0  0  0  0  0  0  0  0  0  0  0  0
   -3.0235    1.2194    0.8456 C   0  0  0  0  0  0  0  0  0  0  0  0
   -2.0443   -2.5287    2.7388 C   0  0  0  0  0  0  0  0  0  0  0  0
   -2.0793   -4.3592    1.3727 C   0  0  0  0  0  0  0  0  0  0  0  0
   -0.1036    1.4809    0.5167 H   0  0  0  0  0  0  0  0  0  0  0  0
    0.1454    1.5331   -1.2446 H   0  0  0  0  0  0  0  0  0  0  0  0
    1.3923   -0.7159   -1.0133 H   0  0  0  0  0  0  0  0  0  0  0  0
    1.0374   -0.7071    0.7205 H   0  0  0  0  0  0  0  0  0  0  0  0
   -1.0339   -0.6456   -1.6360 H   0  0  0  0  0  0  0  0  0  0  0  0
    0.2761   -3.7486    2.3769 H   0  0  0  0  0  0  0  0  0  0  0  0
    2.0203   -2.7974    5.4723 H   0  0  0  0  0  0  0  0  0  0  0  0
   -0.2730   -3.8044    5.2877 H   0  0  0  0  0  0  0  0  0  0  0  0
   -0.1577   -2.2948    4.5801 H   0  0  0  0  0  0  0  0  0  0  0  0
    2.2655   -2.9184    2.3800 H   0  0  0  0  0  0  0  0  0  0  0  0
    3.5598   -2.7854    3.4945 H   0  0  0  0  0  0  0  0  0  0  0  0
    2.2571    1.7719    2.9581 H   0  0  0  0  0  0  0  0  0  0  0  0
    0.2695   -1.7426    2.7588 H   0  0  0  0  0  0  0  0  0  0  0  0
    0.0133    2.9326    2.7248 H   0  0  0  0  0  0  0  0  0  0  0  0
   -1.9020   -0.5272    3.6494 H   0  0  0  0  0  0  0  0  0  0  0  0
    1.4780   -5.0635    3.9101 H   0  0  0  0  0  0  0  0  0  0  0  0
   -2.1065   -1.8482    0.0807 H   0  0  0  0  0  0  0  0  0  0  0  0
   -1.5567   -0.6599    1.2674 H   0  0  0  0  0  0  0  0  0  0  0  0
   -2.3761   -4.3621    3.5713 H   0  0  0  0  0  0  0  0  0  0  0  0
   -2.8435    2.4724    2.6147 H   0  0  0  0  0  0  0  0  0  0  0  0
   -3.3107    0.8231    2.9515 H   0  0  0  0  0  0  0  0  0  0  0  0
   -2.4000    1.8167    0.1897 H   0  0  0  0  0  0  0  0  0  0  0  0
   -4.0528    1.5905    0.7400 H   0  0  0  0  0  0  0  0  0  0  0  0
   -1.3040   -2.1903    2.0234 H   0  0  0  0  0  0  0  0  0  0  0  0
   -3.0133   -2.1758    2.3841 H   0  0  0  0  0  0  0  0  0  0  0  0
   -1.9267   -2.2044    3.7568 H   0  0  0  0  0  0  0  0  0  0  0  0
   -2.1179   -5.4317    1.2482 H   0  0  0  0  0  0  0  0  0  0  0  0
   -3.0648   -3.9362    1.1016 H   0  0  0  0  0  0  0  0  0  0  0  0
   -1.3835   -3.9273    0.6354 H   0  0  0  0  0  0  0  0  0  0  0  0
  1 23  1  0  0  0  0
  1 24  1  0  0  0  0
  2  1  1  0  0  0  0
  2 25  1  0  0  0  0
  2 26  1  0  0  0  0
  3  1  1  0  0  0  0
  3  2  1  0  0  0  0
  3 27  1  0  0  0  0
  4  8  1  0  0  0  0
  4 28  1  0  0  0  0
  5  7  1  0  0  0  0
  6  9  1  0  0  0  0
  6 29  1  0  0  0  0
  7 12  1  0  0  0  0
  8  6  1  0  0  0  0
  8 30  1  0  0  0  0
  8 31  1  0  0  0  0
  9  5  1  0  0  0  0
  9 32  1  0  0  0  0
  9 33  1  0  0  0  0
 10 19  1  0  0  0  0
 11 13  1  0  0  0  0
 11  7  2  0  0  0  0
 11 34  1  0  0  0  0
 12 14  2  0  0  0  0
 12 35  1  0  0  0  0
 13 10  2  0  0  0  0
 13 36  1  0  0  0  0
 14 10  1  0  0  0  0
 14 37  1  0  0  0  0
 15  6  1  0  0  0  0
 15 38  1  0  0  0  0
 16  3  1  0  0  0  0
 16 39  1  0  0  0  0
 16 40  1  0  0  0  0
 17 16  1  0  0  0  0
 18  4  1  0  0  0  0
 18 41  1  0  0  0  0
 19 20  1  0  0  0  0
 19 42  1  0  0  0  0
 19 43  1  0  0  0  0
 20 17  1  0  0  0  0
 20 44  1  0  0  0  0
 20 45  1  0  0  0  0
 21 18  1  0  0  0  0
 21 46  1  0  0  0  0
 21 47  1  0  0  0  0
 21 48  1  0  0  0  0
 22 18  1  0  0  0  0
 22 49  1  0  0  0  0
 22 50  1  0  0  0  0
 22 51  1  0  0  0  0
M  END
>  <DRUGBANK_ID>
DB00195

>  <SECONDARY_ACCESSION_NUMBERS>
APRD00245

>  <COMMON_NAME>
Betaxolol

>  <CAS_NUMBER>
63659-18-7

>  <UNII>
O0ZR1R6RZ2

>  <SYNONYMS>
1-(4-(2-(cyclopropylmethoxy)ethyl)phenoxy)-3-((1-methylethyl)amino)-2-propanol; 1-(isopropylamino)-3-[p-(cyclopropylmethoxyethyl)phenoxy]-2-propanol; Betaxolol; BÃ©taxolol; Betaxololum

$$$$
