
 OpenBabel10282417203D

 29 31  0  0  0  0  0  0  0  0999 V2000
    3.6953    1.0892    0.0236 C   0  0  0  0  0  0  0  0  0  0  0  0
    2.4762    1.7630    0.0275 C   0  0  0  0  0  0  0  0  0  0  0  0
    3.7163   -0.3033    0.0039 C   0  0  0  0  0  0  0  0  0  0  0  0
   -2.4815    1.7850   -0.0387 C   0  0  0  0  0  0  0  0  0  0  0  0
   -3.7208   -0.2873   -0.0113 C   0  0  0  0  0  0  0  0  0  0  0  0
   -3.7080    1.1113   -0.0432 C   0  0  0  0  0  0  0  0  0  0  0  0
    1.2715    1.0422    0.0077 C   0  0  0  0  0  0  0  0  0  0  0  0
   -1.2773    1.0598   -0.0161 C   0  0  0  0  0  0  0  0  0  0  0  0
    2.5163   -1.0211   -0.0119 C   0  0  0  0  0  0  0  0  0  0  0  0
   -2.5212   -1.0005    0.0160 C   0  0  0  0  0  0  0  0  0  0  0  0
    1.2792   -0.3556   -0.0077 C   0  0  0  0  0  0  0  0  0  0  0  0
   -1.2871   -0.3334   -0.0007 C   0  0  0  0  0  0  0  0  0  0  0  0
    0.0004    1.7929    0.0052 C   0  0  0  0  0  0  0  0  0  0  0  0
   -0.0149   -1.0880   -0.0052 C   0  0  0  0  0  0  0  0  0  0  0  0
   -5.0058    1.8324   -0.0751 C   0  0  0  0  0  0  0  0  0  0  0  0
    2.5764   -2.3853   -0.0297 O   0  0  0  0  0  0  0  0  0  0  0  0
   -2.6376   -2.3649    0.0678 O   0  0  0  0  0  0  0  0  0  0  0  0
    0.0040    3.0182    0.0256 O   0  0  0  0  0  0  0  0  0  0  0  0
   -0.0875   -2.3130   -0.0049 O   0  0  0  0  0  0  0  0  0  0  0  0
   -6.1068    1.3125   -0.0801 O   0  0  0  0  0  0  0  0  0  0  0  0
   -4.8590    3.1685   -0.1008 O   0  0  0  0  0  0  0  0  0  0  0  0
    4.6274    1.6501    0.0368 H   0  0  0  0  0  0  0  0  0  0  0  0
    2.4678    2.8525    0.0491 H   0  0  0  0  0  0  0  0  0  0  0  0
    4.6755   -0.8146    0.0047 H   0  0  0  0  0  0  0  0  0  0  0  0
   -2.4557    2.8741   -0.0518 H   0  0  0  0  0  0  0  0  0  0  0  0
   -4.6636   -0.8315   -0.0065 H   0  0  0  0  0  0  0  0  0  0  0  0
    3.4973   -2.6910   -0.0225 H   0  0  0  0  0  0  0  0  0  0  0  0
   -1.7327   -2.7568    0.0823 H   0  0  0  0  0  0  0  0  0  0  0  0
   -5.7730    3.5250   -0.1202 H   0  0  0  0  0  0  0  0  0  0  0  0
  1 22  1  0  0  0  0
  2  1  2  0  0  0  0
  2 23  1  0  0  0  0
  3  1  1  0  0  0  0
  3 24  1  0  0  0  0
  4 25  1  0  0  0  0
  5 26  1  0  0  0  0
  6  4  2  0  0  0  0
  6  5  1  0  0  0  0
  7  2  1  0  0  0  0
  8  4  1  0  0  0  0
  9  3  2  0  0  0  0
 10  5  2  0  0  0  0
 11  7  2  0  0  0  0
 11  9  1  0  0  0  0
 12  8  2  0  0  0  0
 12 10  1  0  0  0  0
 13  7  1  0  0  0  0
 13  8  1  0  0  0  0
 14 11  1  0  0  0  0
 14 12  1  0  0  0  0
 15  6  1  0  0  0  0
 16  9  1  0  0  0  0
 16 27  1  0  0  0  0
 17 10  1  0  0  0  0
 17 28  1  0  0  0  0
 18 13  2  0  0  0  0
 19 14  2  0  0  0  0
 20 15  2  0  0  0  0
 21 15  1  0  0  0  0
 21 29  1  0  0  0  0
M  END
>  <DRUGBANK_ID>
DB13174

>  <COMMON_NAME>
Rhein

>  <CAS_NUMBER>
478-43-3

>  <UNII>
YM64C2P6UX

$$$$
