1194
 OpenBabel10282417113D

 44 45  0  0  1  0  0  0  0  0999 V2000
   -1.0113    1.5431   -0.6270 S   0  0  0  0  0  0  0  0  0  0  0  0
    1.8619    1.4111   -0.3547 S   0  0  0  0  0  0  0  0  0  0  0  0
    4.3815    0.0735   -0.0435 S   0  0  0  0  0  0  0  0  0  0  0  0
   -1.2251    1.9988   -1.9902 O   0  0  0  0  0  0  0  0  0  0  0  0
   -0.4681    2.3611    0.3646 O   0  0  0  0  0  0  0  0  0  0  0  0
   -0.9718    3.1761    2.6009 O   0  0  0  0  0  0  0  0  0  0  0  0
    4.8894    0.6395   -1.2684 O   0  0  0  0  0  0  0  0  0  0  0  0
    4.6162    0.6367    1.2636 O   0  0  0  0  0  0  0  0  0  0  0  0
   -2.2642    0.6144    0.0100 N   0  0  0  0  0  0  0  0  0  0  0  0
   -0.8340   -2.1818    1.2679 N   0  0  0  0  0  0  0  0  0  0  0  0
    4.8722   -1.5319   -0.0084 N   0  0  0  0  0  0  0  0  0  0  0  0
   -0.8279   -1.5865   -0.1010 C   0  0  1  0  0  0  0  0  0  0  0  0
   -2.2238   -0.8523   -0.1519 C   0  0  0  0  0  0  0  0  0  0  0  0
    0.4307   -0.7604   -0.4410 C   0  0  0  0  0  0  0  0  0  0  0  0
    0.3803    0.5752   -0.6461 C   0  0  0  0  0  0  0  0  0  0  0  0
   -2.9527    1.0154    1.2707 C   0  0  0  0  0  0  0  0  0  0  0  0
    1.8116   -1.0690   -0.7292 C   0  0  0  0  0  0  0  0  0  0  0  0
   -2.1120    0.9022    2.5556 C   0  0  0  0  0  0  0  0  0  0  0  0
    2.6639   -0.0450   -0.3247 C   0  0  0  0  0  0  0  0  0  0  0  0
    0.1669   -3.1790    1.6121 C   0  0  0  0  0  0  0  0  0  0  0  0
   -0.8211    1.7184    2.6999 C   0  0  0  0  0  0  0  0  0  0  0  0
    1.4717   -2.4813    1.8603 C   0  0  0  0  0  0  0  0  0  0  0  0
   -1.7162    3.8551    1.5472 C   0  0  0  0  0  0  0  0  0  0  0  0
   -0.8319   -1.4618    1.9829 H   0  0  0  0  0  0  0  0  0  0  0  0
    4.5295   -2.0126   -0.8382 H   0  0  0  0  0  0  0  0  0  0  0  0
    5.8869   -1.5605    0.0565 H   0  0  0  0  0  0  0  0  0  0  0  0
   -0.9049   -2.3669   -0.8579 H   0  0  0  0  0  0  0  0  0  0  0  0
   -2.8327   -1.2609    0.6747 H   0  0  0  0  0  0  0  0  0  0  0  0
   -2.7922   -1.1313   -1.0399 H   0  0  0  0  0  0  0  0  0  0  0  0
   -3.4854    1.9477    1.1271 H   0  0  0  0  0  0  0  0  0  0  0  0
   -3.8275    0.3596    1.4048 H   0  0  0  0  0  0  0  0  0  0  0  0
    2.2073   -2.0680   -0.8348 H   0  0  0  0  0  0  0  0  0  0  0  0
   -2.7399    1.1648    3.4097 H   0  0  0  0  0  0  0  0  0  0  0  0
   -1.8883   -0.1569    2.7152 H   0  0  0  0  0  0  0  0  0  0  0  0
   -0.1067   -3.7280    2.5139 H   0  0  0  0  0  0  0  0  0  0  0  0
    0.2350   -3.8751    0.7704 H   0  0  0  0  0  0  0  0  0  0  0  0
   -0.3575    1.5147    3.6837 H   0  0  0  0  0  0  0  0  0  0  0  0
   -0.0203    1.2527    2.0951 H   0  0  0  0  0  0  0  0  0  0  0  0
    1.4801   -1.5596    2.4553 H   0  0  0  0  0  0  0  0  0  0  0  0
    2.4059   -3.0369    1.8178 H   0  0  0  0  0  0  0  0  0  0  0  0
    1.5485   -2.0920    0.9078 H   0  0  0  0  0  0  0  0  0  0  0  0
   -1.3186    3.9491    0.5193 H   0  0  0  0  0  0  0  0  0  0  0  0
   -2.7107    3.4615    1.4602 H   0  0  0  0  0  0  0  0  0  0  0  0
   -1.8020    4.9200    1.7222 H   0  0  0  0  0  0  0  0  0  0  0  0
  1  4  2  0  0  0  0
  1  5  2  0  0  0  0
  1  9  1  0  0  0  0
  1 15  1  0  0  0  0
  2 15  1  0  0  0  0
  2 19  1  0  0  0  0
  3  7  2  0  0  0  0
  3  8  2  0  0  0  0
  3 11  1  0  0  0  0
  3 19  1  0  0  0  0
  6 21  1  0  0  0  0
  6 23  1  0  0  0  0
  9 13  1  0  0  0  0
  9 16  1  0  0  0  0
 10 20  1  0  0  0  0
 10 24  1  0  0  0  0
 11 25  1  0  0  0  0
 11 26  1  0  0  0  0
 12 10  1  0  0  0  0
 12 13  1  0  0  0  0
 12 14  1  0  0  0  0
 12 27  1  6  0  0  0
 13 28  1  0  0  0  0
 13 29  1  0  0  0  0
 14 15  2  0  0  0  0
 14 17  1  0  0  0  0
 16 18  1  0  0  0  0
 16 30  1  0  0  0  0
 16 31  1  0  0  0  0
 17 19  2  0  0  0  0
 17 32  1  0  0  0  0
 18 21  1  0  0  0  0
 18 33  1  0  0  0  0
 18 34  1  0  0  0  0
 20 22  1  0  0  0  0
 20 35  1  0  0  0  0
 20 36  1  0  0  0  0
 21 37  1  0  0  0  0
 21 38  1  0  0  0  0
 22 39  1  0  0  0  0
 22 40  1  0  0  0  0
 22 41  1  0  0  0  0
 23 42  1  0  0  0  0
 23 43  1  0  0  0  0
 23 44  1  0  0  0  0
M  END
>  <DRUGBANK_ID>
DB01194

>  <SECONDARY_ACCESSION_NUMBERS>
APRD00475

>  <COMMON_NAME>
Brinzolamide

>  <CAS_NUMBER>
138890-62-7

>  <UNII>
9451Z89515

>  <SYNONYMS>
Brinzolamida; Brinzolamide

$$$$
