
 OpenBabel10282417123D

 17 18  0  0  0  0  0  0  0  0999 V2000
    1.1168    0.0870   -0.0060 N   0  0  0  0  0  0  0  0  0  0  0  0
    0.4216    1.2858   -0.3821 C   0  0  3  0  0  0  0  0  0  0  0  0
   -0.8597    1.2618    0.3310 N   0  0  0  0  0  0  0  0  0  0  0  0
   -0.7872    2.3212    1.0603 C   0  0  0  0  0  0  0  0  0  0  0  0
   -1.6989    2.7509    2.1169 C   0  0  0  0  0  0  0  0  0  0  0  0
   -1.4955    3.9614    2.6558 C   0  0  0  0  0  0  0  0  0  0  0  0
   -0.4335    4.8465    2.2183 C   0  0  0  0  0  0  0  0  0  0  0  0
    0.4940    4.4918    1.3142 C   0  0  0  0  0  0  0  0  0  0  0  0
    0.3986    3.1368    0.7339 C   0  0  0  0  0  0  0  0  0  0  0  0
    1.1891    2.5126   -0.0670 N   0  0  0  0  0  0  0  0  0  0  0  0
    0.6971   -0.6685   -0.5438 H   0  0  0  0  0  0  0  0  0  0  0  0
    2.0909    0.1509   -0.2696 H   0  0  0  0  0  0  0  0  0  0  0  0
    0.2378    1.2826   -1.4638 H   0  0  0  0  0  0  0  0  0  0  0  0
   -2.4708    2.0649    2.4326 H   0  0  0  0  0  0  0  0  0  0  0  0
   -2.1497    4.3124    3.4497 H   0  0  0  0  0  0  0  0  0  0  0  0
   -0.4101    5.8359    2.6725 H   0  0  0  0  0  0  0  0  0  0  0  0
    1.2777    5.1594    0.9815 H   0  0  0  0  0  0  0  0  0  0  0  0
  1  2  1  0  0  0  0
  1 11  1  0  0  0  0
  1 12  1  0  0  0  0
  2  3  1  0  0  0  0
  2 10  1  0  0  0  0
  2 13  1  0  0  0  0
  3  4  2  0  0  0  0
  4  5  1  0  0  0  0
  4  9  1  0  0  0  0
  5  6  2  0  0  0  0
  5 14  1  0  0  0  0
  6  7  1  0  0  0  0
  6 15  1  0  0  0  0
  7  8  2  0  0  0  0
  7 16  1  0  0  0  0
  8  9  1  0  0  0  0
  8 17  1  0  0  0  0
  9 10  2  0  0  0  0
M  END
>  <DRUGBANK_ID>
DB01665

>  <SECONDARY_ACCESSION_NUMBERS>
EXPT00097

>  <COMMON_NAME>
2H-Benzimidazol-2-amine

>  <SYNONYMS>
2H-Benzoimidazol-2-ylamine

$$$$
