
 OpenBabel10282417213D

 62 65  0  0  0  0  0  0  0  0999 V2000
    1.3360   -0.6968    2.4415 C   0  0  1  0  0  0  0  0  0  0  0  0
    4.9294    1.2858    0.4317 C   0  0  1  0  0  0  0  0  0  0  0  0
    0.3266   -0.9939    1.1660 C   0  0  0  0  0  0  0  0  0  0  0  0
    3.5014    1.7960    0.4455 C   0  0  2  0  0  0  0  0  0  0  0  0
    5.2463    2.8694   -0.2980 C   0  0  2  0  0  0  0  0  0  0  0  0
    2.4227    0.8129    0.7367 C   0  0  1  0  0  0  0  0  0  0  0  0
    2.4705    0.3649    2.1716 C   0  0  2  0  0  0  0  0  0  0  0  0
    2.0380   -1.9985    2.3388 C   0  0  0  0  0  0  0  0  0  0  0  0
    5.0674    0.8406    2.0507 C   0  0  0  0  0  0  0  0  0  0  0  0
    3.9420   -0.0805    2.5689 C   0  0  2  0  0  0  0  0  0  0  0  0
    5.1225    3.5996    0.9852 C   0  0  1  0  0  0  0  0  0  0  0  0
    3.6976    3.0771    1.3226 C   0  0  0  0  0  0  0  0  0  0  0  0
    1.0909    1.4112    0.3442 C   0  0  0  0  0  0  0  0  0  0  0  0
   -0.0104    0.3292    0.3896 C   0  0  2  0  0  0  0  0  0  0  0  0
    0.2794   -2.3306    0.6546 C   0  0  0  0  0  0  0  0  0  0  0  0
    5.4385    2.4280   -1.7267 C   0  0  0  0  0  0  0  0  0  0  0  0
    1.4056   -3.1059    2.7330 C   0  0  0  0  0  0  0  0  0  0  0  0
    0.9237   -3.5533    1.4548 C   0  0  0  0  0  0  0  0  0  0  0  0
    5.6424    3.3642   -4.3860 C   0  0  0  0  0  0  0  0  0  0  0  0
    4.2844    2.5332   -2.7239 C   0  0  0  0  0  0  0  0  0  0  0  0
    6.4669    1.7922   -2.0304 O   0  0  0  0  0  0  0  0  0  0  0  0
    4.7939    2.3602   -4.0424 O   0  0  0  0  0  0  0  0  0  0  0  0
    5.7643    4.4236   -3.7682 O   0  0  0  0  0  0  0  0  0  0  0  0
    1.0648   -4.7594    1.1375 O   0  0  0  0  0  0  0  0  0  0  0  0
    6.3032    3.8147   -0.7646 O   0  0  0  0  0  0  0  0  0  0  0  0
    1.0179   -0.5797    3.9642 C   0  0  0  0  0  0  0  0  0  0  0  0
    5.1533   -0.0420   -0.3478 C   0  0  0  0  0  0  0  0  0  0  0  0
   -1.1172    0.9621    0.8786 F   0  0  0  0  0  0  0  0  0  0  0  0
    4.3903   -1.3695    2.1540 O   0  0  0  0  0  0  0  0  0  0  0  0
    6.5321    3.1465    1.5851 C   0  0  0  0  0  0  0  0  0  0  0  0
    6.3830    3.0189   -5.6274 C   0  0  0  0  0  0  0  0  0  0  0  0
    2.5421   -0.0411    0.0684 H   0  0  0  0  0  0  0  0  0  0  0  0
    3.2388    2.0931   -0.5686 H   0  0  0  0  0  0  0  0  0  0  0  0
    2.2504    1.2648    2.7760 H   0  0  0  0  0  0  0  0  0  0  0  0
    2.4572   -2.0086    1.3176 H   0  0  0  0  0  0  0  0  0  0  0  0
    6.0089    0.2908    2.1944 H   0  0  0  0  0  0  0  0  0  0  0  0
    5.1041    1.6593    2.7741 H   0  0  0  0  0  0  0  0  0  0  0  0
    3.9554   -0.1517    3.6635 H   0  0  0  0  0  0  0  0  0  0  0  0
    5.0908    4.6902    1.0971 H   0  0  0  0  0  0  0  0  0  0  0  0
    2.9504    3.8044    0.9886 H   0  0  0  0  0  0  0  0  0  0  0  0
    3.5680    2.9441    2.3969 H   0  0  0  0  0  0  0  0  0  0  0  0
    1.1641    1.7788   -0.6942 H   0  0  0  0  0  0  0  0  0  0  0  0
    0.8934    2.3298    0.9211 H   0  0  0  0  0  0  0  0  0  0  0  0
   -0.2228    0.0859   -0.6567 H   0  0  0  0  0  0  0  0  0  0  0  0
    0.0398   -2.7106   -0.3403 H   0  0  0  0  0  0  0  0  0  0  0  0
    0.5782   -3.0765    3.4278 H   0  0  0  0  0  0  0  0  0  0  0  0
    3.5917    1.7015   -2.5505 H   0  0  0  0  0  0  0  0  0  0  0  0
    3.7089    3.4608   -2.6402 H   0  0  0  0  0  0  0  0  0  0  0  0
    6.0879    4.7602   -0.5679 H   0  0  0  0  0  0  0  0  0  0  0  0
    1.0176    0.4416    4.3630 H   0  0  0  0  0  0  0  0  0  0  0  0
    0.1091   -1.0871    4.2918 H   0  0  0  0  0  0  0  0  0  0  0  0
    1.8550   -1.0538    4.5145 H   0  0  0  0  0  0  0  0  0  0  0  0
    4.2984   -0.7079   -0.2656 H   0  0  0  0  0  0  0  0  0  0  0  0
    5.2914   -0.0110   -1.4231 H   0  0  0  0  0  0  0  0  0  0  0  0
    5.9908   -0.6079    0.0858 H   0  0  0  0  0  0  0  0  0  0  0  0
    4.0740   -1.5574    1.2618 H   0  0  0  0  0  0  0  0  0  0  0  0
    6.6250    3.2261    2.6578 H   0  0  0  0  0  0  0  0  0  0  0  0
    6.8393    2.1303    1.2777 H   0  0  0  0  0  0  0  0  0  0  0  0
    7.3518    3.7109    1.1145 H   0  0  0  0  0  0  0  0  0  0  0  0
    7.0025    2.1317   -5.4697 H   0  0  0  0  0  0  0  0  0  0  0  0
    5.6658    2.8558   -6.4341 H   0  0  0  0  0  0  0  0  0  0  0  0
    7.0303    3.8591   -5.8886 H   0  0  0  0  0  0  0  0  0  0  0  0
  1 26  1  6  0  0  0
  2  9  1  0  0  0  0
  2 27  1  6  0  0  0
  3  1  1  0  0  0  0
  4  6  1  0  0  0  0
  4 33  1  1  0  0  0
  4  2  1  0  0  0  0
  5  2  1  0  0  0  0
  5 11  1  0  0  0  0
  5 25  1  1  0  0  0
  5 16  1  0  0  0  0
  6  7  1  0  0  0  0
  6 32  1  6  0  0  0
  7  1  1  0  0  0  0
  7 34  1  1  0  0  0
  8  1  1  0  0  0  0
  8 35  1  0  0  0  0
  9 10  1  0  0  0  0
  9 36  1  0  0  0  0
  9 37  1  0  0  0  0
 10  7  1  0  0  0  0
 10 29  1  0  0  0  0
 10 38  1  1  0  0  0
 11 12  1  0  0  0  0
 11 39  1  6  0  0  0
 11 30  1  0  0  0  0
 12  4  1  0  0  0  0
 12 40  1  0  0  0  0
 12 41  1  0  0  0  0
 13  6  1  0  0  0  0
 13 14  1  0  0  0  0
 13 42  1  0  0  0  0
 13 43  1  0  0  0  0
 14  3  1  0  0  0  0
 14 44  1  6  0  0  0
 14 28  1  0  0  0  0
 15  3  2  0  0  0  0
 15 45  1  0  0  0  0
 17  8  2  0  0  0  0
 17 46  1  0  0  0  0
 18 17  1  0  0  0  0
 18 15  1  0  0  0  0
 19 22  1  0  0  0  0
 20 16  1  0  0  0  0
 20 47  1  0  0  0  0
 20 48  1  0  0  0  0
 21 16  2  0  0  0  0
 22 20  1  0  0  0  0
 23 19  2  0  0  0  0
 24 18  2  0  0  0  0
 25 49  1  0  0  0  0
 26 50  1  0  0  0  0
 26 51  1  0  0  0  0
 26 52  1  0  0  0  0
 27 53  1  0  0  0  0
 27 54  1  0  0  0  0
 27 55  1  0  0  0  0
 29 56  1  0  0  0  0
 30 57  1  0  0  0  0
 30 58  1  0  0  0  0
 30 59  1  0  0  0  0
 31 19  1  0  0  0  0
 31 60  1  0  0  0  0
 31 61  1  0  0  0  0
 31 62  1  0  0  0  0
M  END
>  <DRUGBANK_ID>
DB14657

>  <SECONDARY_ACCESSION_NUMBERS>
DBSALT001420

>  <COMMON_NAME>
Paramethasone acetate

>  <CAS_NUMBER>
1597-82-6

>  <UNII>
8X50N88ZDP

>  <SYNONYMS>
Haldrone; Paramethasone 21-acetate; Paramethasone acetate

$$$$
