
 OpenBabel10282417173D

 69 69  0  0  0  0  0  0  0  0999 V2000
    1.0981   -0.0724    0.3308 C   0  0  0  0  0  0  0  0  0  0  0  0
    2.9246   -1.2806   -7.3659 C   0  0  0  0  0  0  0  0  0  0  0  0
   -1.1676    4.9742   -1.9317 C   0  0  0  0  0  0  0  0  0  0  0  0
    2.0196    1.2986   -3.0273 C   0  0  0  0  0  0  0  0  0  0  0  0
   -2.3109   -1.0359   -7.0494 C   0  0  0  0  0  0  0  0  0  0  0  0
    0.5801    1.2434    0.9103 C   0  0  0  0  0  0  0  0  0  0  0  0
    2.7011   -2.4286   -6.3793 C   0  0  0  0  0  0  0  0  0  0  0  0
   -1.7566    3.8488   -1.0794 C   0  0  0  0  0  0  0  0  0  0  0  0
    1.2990    0.8303   -4.2380 C   0  0  0  0  0  0  0  0  0  0  0  0
    0.9298    2.4778    0.0854 C   0  0  0  0  0  0  0  0  0  0  0  0
    3.2979   -2.1947   -4.9898 C   0  0  0  0  0  0  0  0  0  0  0  0
    0.2047    2.4574   -1.2608 C   0  0  0  0  0  0  0  0  0  0  0  0
    2.9279   -0.8803   -4.3697 C   0  0  0  0  0  0  0  0  0  0  0  0
   -1.7534    2.1258   -3.0196 C   0  0  0  0  0  0  0  0  0  0  0  0
    0.5535   -1.5650   -3.3410 C   0  0  0  0  0  0  0  0  0  0  0  0
   -1.9451    0.6496   -5.0860 C   0  0  0  0  0  0  0  0  0  0  0  0
   -1.5014   -1.8114   -4.7666 C   0  0  0  0  0  0  0  0  0  0  0  0
   -1.6102   -0.3880   -2.8084 C   0  0  0  0  0  0  0  0  0  0  0  0
   -1.2957    2.4633   -1.5093 C   0  0  3  0  0  0  0  0  0  0  0  0
    1.4186   -0.6818   -4.2806 C   0  0  3  0  0  0  0  0  0  0  0  0
   -1.4613   -0.6657   -5.8243 C   0  0  3  0  0  0  0  0  0  0  0  0
   -0.2636   -0.5022   -6.6772 N   0  0  0  0  0  0  0  0  0  0  0  0
   -1.6133    0.7857   -3.6343 N   0  0  0  0  0  0  0  0  0  0  0  0
   -0.9213   -1.5015   -3.4529 N   0  0  0  0  0  0  0  0  0  0  0  0
    0.5953   -0.3198   -0.6010 H   0  0  0  0  0  0  0  0  0  0  0  0
    0.8768   -0.9013    1.0062 H   0  0  0  0  0  0  0  0  0  0  0  0
    2.1757   -0.0520    0.1351 H   0  0  0  0  0  0  0  0  0  0  0  0
    3.9942   -1.1321   -7.5319 H   0  0  0  0  0  0  0  0  0  0  0  0
    2.4480   -1.5026   -8.3254 H   0  0  0  0  0  0  0  0  0  0  0  0
    2.5140   -0.3208   -7.0322 H   0  0  0  0  0  0  0  0  0  0  0  0
   -1.4470    4.8658   -2.9831 H   0  0  0  0  0  0  0  0  0  0  0  0
   -1.5232    5.9376   -1.5695 H   0  0  0  0  0  0  0  0  0  0  0  0
   -0.0734    5.0218   -1.8935 H   0  0  0  0  0  0  0  0  0  0  0  0
    3.0928    1.2235   -2.9644 H   0  0  0  0  0  0  0  0  0  0  0  0
    1.7992    2.3519   -2.9622 H   0  0  0  0  0  0  0  0  0  0  0  0
    1.6849    0.6388   -2.2281 H   0  0  0  0  0  0  0  0  0  0  0  0
   -2.1724   -0.2986   -7.8601 H   0  0  0  0  0  0  0  0  0  0  0  0
   -1.9770   -2.0065   -7.4619 H   0  0  0  0  0  0  0  0  0  0  0  0
   -3.3705   -1.0957   -6.8345 H   0  0  0  0  0  0  0  0  0  0  0  0
   -0.5082    1.1849    0.9867 H   0  0  0  0  0  0  0  0  0  0  0  0
    0.9837    1.3601    1.9182 H   0  0  0  0  0  0  0  0  0  0  0  0
    3.1384   -3.3415   -6.7845 H   0  0  0  0  0  0  0  0  0  0  0  0
    1.6332   -2.6557   -6.2888 H   0  0  0  0  0  0  0  0  0  0  0  0
   -2.8465    3.8730   -1.1093 H   0  0  0  0  0  0  0  0  0  0  0  0
   -1.4560    3.9994   -0.0351 H   0  0  0  0  0  0  0  0  0  0  0  0
    1.6888    1.3317   -5.1306 H   0  0  0  0  0  0  0  0  0  0  0  0
    0.3015    1.1709   -4.2196 H   0  0  0  0  0  0  0  0  0  0  0  0
    0.7418    3.4068    0.6350 H   0  0  0  0  0  0  0  0  0  0  0  0
    2.0184    2.4707   -0.1068 H   0  0  0  0  0  0  0  0  0  0  0  0
    4.3886   -2.2124   -5.0492 H   0  0  0  0  0  0  0  0  0  0  0  0
    2.9737   -2.9801   -4.3048 H   0  0  0  0  0  0  0  0  0  0  0  0
    0.6908    3.2234   -1.8644 H   0  0  0  0  0  0  0  0  0  0  0  0
    0.3791    1.4734   -1.6050 H   0  0  0  0  0  0  0  0  0  0  0  0
    3.3328   -0.0797   -5.0149 H   0  0  0  0  0  0  0  0  0  0  0  0
    3.4177   -0.7596   -3.4052 H   0  0  0  0  0  0  0  0  0  0  0  0
   -2.8048    2.4175   -3.0966 H   0  0  0  0  0  0  0  0  0  0  0  0
   -1.1903    2.8017   -3.6776 H   0  0  0  0  0  0  0  0  0  0  0  0
    0.8680   -1.4950   -2.2997 H   0  0  0  0  0  0  0  0  0  0  0  0
    0.7982   -2.6104   -3.5909 H   0  0  0  0  0  0  0  0  0  0  0  0
   -1.4865    1.4944   -5.6152 H   0  0  0  0  0  0  0  0  0  0  0  0
   -3.0260    0.7423   -5.2278 H   0  0  0  0  0  0  0  0  0  0  0  0
   -2.5642   -2.0424   -4.5900 H   0  0  0  0  0  0  0  0  0  0  0  0
   -1.0856   -2.7539   -5.1470 H   0  0  0  0  0  0  0  0  0  0  0  0
   -2.6365   -0.6791   -2.5448 H   0  0  0  0  0  0  0  0  0  0  0  0
   -1.1268   -0.2031   -1.8484 H   0  0  0  0  0  0  0  0  0  0  0  0
   -1.7472    1.7051   -0.8644 H   0  0  0  0  0  0  0  0  0  0  0  0
    1.0901   -1.0261   -5.2040 H   0  0  0  0  0  0  0  0  0  0  0  0
    0.2143   -1.4186   -6.7542 H   0  0  0  0  0  0  0  0  0  0  0  0
    0.3708    0.2021   -6.3844 H   0  0  0  0  0  0  0  0  0  0  0  0
  1 25  1  0  0  0  0
  1 26  1  0  0  0  0
  1 27  1  0  0  0  0
  2 28  1  0  0  0  0
  2 29  1  0  0  0  0
  2 30  1  0  0  0  0
  3 31  1  0  0  0  0
  3 32  1  0  0  0  0
  3 33  1  0  0  0  0
  4 34  1  0  0  0  0
  4 35  1  0  0  0  0
  4 36  1  0  0  0  0
  5 37  1  0  0  0  0
  5 38  1  0  0  0  0
  5 39  1  0  0  0  0
  6  1  1  0  0  0  0
  6 40  1  0  0  0  0
  6 41  1  0  0  0  0
  7  2  1  0  0  0  0
  7 42  1  0  0  0  0
  7 43  1  0  0  0  0
  8  3  1  0  0  0  0
  8 44  1  0  0  0  0
  8 45  1  0  0  0  0
  9  4  1  0  0  0  0
  9 46  1  0  0  0  0
  9 47  1  0  0  0  0
 10  6  1  0  0  0  0
 10 48  1  0  0  0  0
 10 49  1  0  0  0  0
 11  7  1  0  0  0  0
 11 50  1  0  0  0  0
 11 51  1  0  0  0  0
 12 10  1  0  0  0  0
 12 52  1  0  0  0  0
 12 53  1  0  0  0  0
 13 11  1  0  0  0  0
 13 54  1  0  0  0  0
 13 55  1  0  0  0  0
 14 56  1  0  0  0  0
 14 57  1  0  0  0  0
 15 58  1  0  0  0  0
 15 59  1  0  0  0  0
 16 60  1  0  0  0  0
 16 61  1  0  0  0  0
 17 62  1  0  0  0  0
 17 63  1  0  0  0  0
 18 64  1  0  0  0  0
 18 65  1  0  0  0  0
 19  8  1  0  0  0  0
 19 12  1  0  0  0  0
 19 14  1  0  0  0  0
 19 66  1  0  0  0  0
 20  9  1  0  0  0  0
 20 13  1  0  0  0  0
 20 15  1  0  0  0  0
 20 67  1  0  0  0  0
 21  5  1  0  0  0  0
 21 16  1  0  0  0  0
 21 17  1  0  0  0  0
 22 21  1  0  0  0  0
 22 68  1  0  0  0  0
 22 69  1  0  0  0  0
 23 14  1  0  0  0  0
 23 16  1  0  0  0  0
 23 18  1  0  0  0  0
 24 15  1  0  0  0  0
 24 17  1  0  0  0  0
 24 18  1  0  0  0  0
M  END
>  <DRUGBANK_ID>
DB08958

>  <COMMON_NAME>
Hexetidine

>  <CAS_NUMBER>
141-94-6

>  <UNII>
852A84Y8LS

>  <SYNONYMS>
Esetidina; Hexetidina; Hexetidine; Hex√©tidine; Hexetidinum

$$$$
