
 OpenBabel10282417203D

 66 70  0  0  0  0  0  0  0  0999 V2000
    0.8415   -0.9446    0.4584 C   0  0  0  0  0  0  0  0  0  0  0  0
    0.2252   -0.6933    1.7732 C   0  0  0  0  0  0  0  0  0  0  0  0
    0.9467    0.2805    2.6729 C   0  0  0  0  0  0  0  0  0  0  0  0
   -1.1576   -0.3694    1.5996 O   0  0  0  0  0  0  0  0  0  0  0  0
   -1.7661    0.8624    1.4762 C   0  0  0  0  0  0  0  0  0  0  0  0
   -1.2495    2.0120    0.8960 C   0  0  0  0  0  0  0  0  0  0  0  0
   -2.0195    3.0284    0.2963 C   0  0  0  0  0  0  0  0  0  0  0  0
   -3.2706    3.1436    0.8473 C   0  0  0  0  0  0  0  0  0  0  0  0
   -3.7296    2.2271    1.8099 C   0  0  0  0  0  0  0  0  0  0  0  0
   -2.9885    1.0258    2.0339 C   0  0  0  0  0  0  0  0  0  0  0  0
   -3.4439    0.1527    3.0198 C   0  0  0  0  0  0  0  0  0  0  0  0
   -4.4721    0.4821    3.7931 N   0  0  0  0  0  0  0  0  0  0  0  0
   -5.0891    1.6435    3.5185 C   0  0  0  0  0  0  0  0  0  0  0  0
   -4.7857    2.5100    2.5352 N   0  0  0  0  0  0  0  0  0  0  0  0
   -2.7688   -1.0723    3.2384 N   0  0  0  0  0  0  0  0  0  0  0  0
   -2.9960   -1.9423    4.2943 C   0  0  0  0  0  0  0  0  0  0  0  0
   -4.2261   -2.5875    4.4039 C   0  0  0  0  0  0  0  0  0  0  0  0
   -4.5038   -3.2647    5.5786 C   0  0  0  0  0  0  0  0  0  0  0  0
   -3.6403   -3.3707    6.6302 N   0  0  0  0  0  0  0  0  0  0  0  0
   -2.4494   -2.7753    6.4383 C   0  0  0  0  0  0  0  0  0  0  0  0
   -2.0802   -2.0854    5.3215 C   0  0  0  0  0  0  0  0  0  0  0  0
   -0.8257   -1.5640    5.4032 O   0  0  0  0  0  0  0  0  0  0  0  0
   -0.4483   -1.9765    6.7349 C   0  0  0  0  0  0  0  0  0  0  0  0
   -1.4623   -2.7567    7.4026 O   0  0  0  0  0  0  0  0  0  0  0  0
   -5.3557   -2.6056    3.0905 Cl  0  0  0  0  0  0  0  0  0  0  0  0
   -1.6486    3.9675   -0.6582 O   0  0  0  0  0  0  0  0  0  0  0  0
   -0.7161    3.8019   -1.7877 C   0  0  0  0  0  0  0  0  0  0  0  0
    0.6946    3.4423   -1.3655 C   0  0  0  0  0  0  0  0  0  0  0  0
    0.6651    2.0880   -0.8839 N   0  0  0  0  0  0  0  0  0  0  0  0
    1.9836    1.5509   -0.5939 C   0  0  0  0  0  0  0  0  0  0  0  0
    2.3611    0.5949   -1.7626 C   0  0  0  0  0  0  0  0  0  0  0  0
    1.2418   -0.2287   -2.3839 N   0  0  0  0  0  0  0  0  0  0  0  0
    0.0161    0.4897   -2.6868 C   0  0  0  0  0  0  0  0  0  0  0  0
   -0.4066    1.1878   -1.4563 C   0  0  0  0  0  0  0  0  0  0  0  0
    1.1031   -1.6151   -2.4227 C   0  0  0  0  0  0  0  0  0  0  0  0
    0.0488   -2.1776   -2.7065 O   0  0  0  0  0  0  0  0  0  0  0  0
    2.2912   -2.4437   -2.0478 C   0  0  0  0  0  0  0  0  0  0  0  0
    0.6661   -0.0317   -0.0109 H   0  0  0  0  0  0  0  0  0  0  0  0
    0.2844   -1.6449   -0.1604 H   0  0  0  0  0  0  0  0  0  0  0  0
    1.9224   -1.0764    0.4386 H   0  0  0  0  0  0  0  0  0  0  0  0
    0.3019   -1.6943    2.2103 H   0  0  0  0  0  0  0  0  0  0  0  0
    0.6901    1.3230    2.4946 H   0  0  0  0  0  0  0  0  0  0  0  0
    0.6288    0.0713    3.6926 H   0  0  0  0  0  0  0  0  0  0  0  0
    2.0324    0.1972    2.5933 H   0  0  0  0  0  0  0  0  0  0  0  0
   -0.1919    2.0649    0.9098 H   0  0  0  0  0  0  0  0  0  0  0  0
   -3.8671    4.0283    0.6218 H   0  0  0  0  0  0  0  0  0  0  0  0
   -5.9109    1.9059    4.1605 H   0  0  0  0  0  0  0  0  0  0  0  0
   -1.8547   -1.1500    2.8187 H   0  0  0  0  0  0  0  0  0  0  0  0
   -5.4724   -3.7398    5.6923 H   0  0  0  0  0  0  0  0  0  0  0  0
    0.4768   -2.5652    6.6727 H   0  0  0  0  0  0  0  0  0  0  0  0
   -0.2244   -1.0786    7.3267 H   0  0  0  0  0  0  0  0  0  0  0  0
   -1.0854    3.1196   -2.5731 H   0  0  0  0  0  0  0  0  0  0  0  0
   -0.6585    4.7268   -2.3700 H   0  0  0  0  0  0  0  0  0  0  0  0
    1.4288    3.4897   -2.1779 H   0  0  0  0  0  0  0  0  0  0  0  0
    1.0190    4.1414   -0.5818 H   0  0  0  0  0  0  0  0  0  0  0  0
    2.7469    2.3189   -0.3806 H   0  0  0  0  0  0  0  0  0  0  0  0
    1.9999    1.1075    0.4126 H   0  0  0  0  0  0  0  0  0  0  0  0
    2.6810    1.2718   -2.5545 H   0  0  0  0  0  0  0  0  0  0  0  0
    3.1822   -0.0459   -1.4465 H   0  0  0  0  0  0  0  0  0  0  0  0
    0.1680    1.2137   -3.4816 H   0  0  0  0  0  0  0  0  0  0  0  0
   -0.8315   -0.1585   -2.9474 H   0  0  0  0  0  0  0  0  0  0  0  0
   -0.7886    0.4107   -0.7885 H   0  0  0  0  0  0  0  0  0  0  0  0
   -1.3899    1.6340   -1.6221 H   0  0  0  0  0  0  0  0  0  0  0  0
    3.1540   -2.1093   -2.6169 H   0  0  0  0  0  0  0  0  0  0  0  0
    2.4916   -2.4000   -0.9793 H   0  0  0  0  0  0  0  0  0  0  0  0
    2.0706   -3.4883   -2.2871 H   0  0  0  0  0  0  0  0  0  0  0  0
  1  2  1  0  0  0  0
  1 38  1  0  0  0  0
  1 39  1  0  0  0  0
  1 40  1  0  0  0  0
  2  3  1  0  0  0  0
  2  4  1  0  0  0  0
  2 41  1  0  0  0  0
  3 42  1  0  0  0  0
  3 43  1  0  0  0  0
  3 44  1  0  0  0  0
  4  5  1  0  0  0  0
  5  6  1  0  0  0  0
  5 10  2  0  0  0  0
  6  7  2  0  0  0  0
  6 45  1  0  0  0  0
  7  8  1  0  0  0  0
  7 26  1  0  0  0  0
  8  9  2  0  0  0  0
  8 46  1  0  0  0  0
  9 10  1  0  0  0  0
  9 14  1  0  0  0  0
 10 11  1  0  0  0  0
 11 12  2  0  0  0  0
 11 15  1  0  0  0  0
 12 13  1  0  0  0  0
 13 14  2  0  0  0  0
 13 47  1  0  0  0  0
 15 16  1  0  0  0  0
 15 48  1  0  0  0  0
 16 17  2  0  0  0  0
 16 21  1  0  0  0  0
 17 18  1  0  0  0  0
 17 25  1  0  0  0  0
 18 19  2  0  0  0  0
 18 49  1  0  0  0  0
 19 20  1  0  0  0  0
 20 21  2  0  0  0  0
 20 24  1  0  0  0  0
 21 22  1  0  0  0  0
 22 23  1  0  0  0  0
 23 24  1  0  0  0  0
 23 50  1  0  0  0  0
 23 51  1  0  0  0  0
 26 27  1  0  0  0  0
 27 28  1  0  0  0  0
 27 52  1  0  0  0  0
 27 53  1  0  0  0  0
 28 29  1  0  0  0  0
 28 54  1  0  0  0  0
 28 55  1  0  0  0  0
 29 30  1  0  0  0  0
 29 34  1  0  0  0  0
 30 31  1  0  0  0  0
 30 56  1  0  0  0  0
 30 57  1  0  0  0  0
 31 32  1  0  0  0  0
 31 58  1  0  0  0  0
 31 59  1  0  0  0  0
 32 33  1  0  0  0  0
 32 35  1  0  0  0  0
 33 34  1  0  0  0  0
 33 60  1  0  0  0  0
 33 61  1  0  0  0  0
 34 62  1  0  0  0  0
 34 63  1  0  0  0  0
 35 36  2  0  0  0  0
 35 37  1  0  0  0  0
 37 64  1  0  0  0  0
 37 65  1  0  0  0  0
 37 66  1  0  0  0  0
M  END
>  <DRUGBANK_ID>
DB13088

>  <COMMON_NAME>
AZD-0424

>  <CAS_NUMBER>
692054-06-1

>  <UNII>
642PS51324

$$$$
