158
 OpenBabel10282417103D

 51 53  0  0  1  0  0  0  0  0999 V2000
    0.9496   -0.1387   -0.0120 O   0  0  0  0  0  0  0  0  0  0  0  0
   -2.9288   -2.4763   -0.2161 O   0  0  0  0  0  0  0  0  0  0  0  0
    1.0883    1.2815   -1.7198 O   0  0  0  0  0  0  0  0  0  0  0  0
   -2.5471    4.6652   -0.2481 O   0  0  0  0  0  0  0  0  0  0  0  0
   -1.4429    3.4732   -1.7877 O   0  0  0  0  0  0  0  0  0  0  0  0
   -4.1968    5.6834    7.5000 O   0  0  0  0  0  0  0  0  0  0  0  0
   -1.7883   -0.6456   -0.8679 N   0  0  0  0  0  0  0  0  0  0  0  0
   -4.6708    1.4988    4.5054 N   0  0  0  0  0  0  0  0  0  0  0  0
   -4.1265    2.9822    7.0057 N   0  0  0  0  0  0  0  0  0  0  0  0
   -1.8901    3.4824    9.8874 N   0  0  0  0  0  0  0  0  0  0  0  0
   -2.4209    1.4857    8.7221 N   0  0  0  0  0  0  0  0  0  0  0  0
   -2.7445    5.5866    9.2563 N   0  0  0  0  0  0  0  0  0  0  0  0
   -1.3016    5.3866   10.9988 N   0  0  0  0  0  0  0  0  0  0  0  0
   -1.1276    0.6894   -0.8679 C   0  0  1  0  0  0  0  0  0  0  0  0
   -1.3778    1.5042    0.3915 C   0  0  0  0  0  0  0  0  0  0  0  0
   -1.0095    2.9616    0.5253 C   0  0  0  0  0  0  0  0  0  0  0  0
   -2.6628   -1.2920   -0.0215 C   0  0  0  0  0  0  0  0  0  0  0  0
   -3.3023   -0.6209    1.1361 C   0  0  0  0  0  0  0  0  0  0  0  0
    0.3916    0.6094   -0.9952 C   0  0  0  0  0  0  0  0  0  0  0  0
   -4.2300    0.7880    3.4109 C   0  0  0  0  0  0  0  0  0  0  0  0
   -4.8286    0.9349    5.8363 C   0  0  0  0  0  0  0  0  0  0  0  0
   -4.0315    0.5637    1.0049 C   0  0  0  0  0  0  0  0  0  0  0  0
   -3.1872   -1.1845    2.3948 C   0  0  0  0  0  0  0  0  0  0  0  0
   -4.3133    1.3450    2.1381 C   0  0  0  0  0  0  0  0  0  0  0  0
   -3.7676   -0.5323    3.4851 C   0  0  0  0  0  0  0  0  0  0  0  0
   -3.9803    1.6436    6.8642 C   0  0  0  0  0  0  0  0  0  0  0  0
   -1.6484    3.7292   -0.6138 C   0  0  0  0  0  0  0  0  0  0  0  0
   -3.4007    3.5427    8.0144 C   0  0  0  0  0  0  0  0  0  0  0  0
   -2.5716    2.8225    8.8709 C   0  0  0  0  0  0  0  0  0  0  0  0
   -3.1309    0.9221    7.7057 C   0  0  0  0  0  0  0  0  0  0  0  0
   -3.4807    5.0116    8.2374 C   0  0  0  0  0  0  0  0  0  0  0  0
   -2.0152    4.8243   10.0047 C   0  0  0  0  0  0  0  0  0  0  0  0
    1.9078    0.0530   -0.0760 H   0  0  0  0  0  0  0  0  0  0  0  0
   -2.6831    4.8034    0.7065 H   0  0  0  0  0  0  0  0  0  0  0  0
   -1.5591   -1.2290   -1.6676 H   0  0  0  0  0  0  0  0  0  0  0  0
   -4.8613    2.4955    4.4284 H   0  0  0  0  0  0  0  0  0  0  0  0
   -1.3171    2.9135   10.4881 H   0  0  0  0  0  0  0  0  0  0  0  0
   -0.6829    4.8955   11.6235 H   0  0  0  0  0  0  0  0  0  0  0  0
   -1.3671    6.3950   11.0892 H   0  0  0  0  0  0  0  0  0  0  0  0
   -1.5284    1.1653   -1.7656 H   0  0  0  0  0  0  0  0  0  0  0  0
   -2.4264    1.6534    0.3649 H   0  0  0  0  0  0  0  0  0  0  0  0
   -1.0926    0.9381    1.2890 H   0  0  0  0  0  0  0  0  0  0  0  0
   -1.4518    3.2940    1.4768 H   0  0  0  0  0  0  0  0  0  0  0  0
    0.0654    3.1136    0.5754 H   0  0  0  0  0  0  0  0  0  0  0  0
   -5.8807    1.0130    6.1289 H   0  0  0  0  0  0  0  0  0  0  0  0
   -4.5980   -0.1294    5.8748 H   0  0  0  0  0  0  0  0  0  0  0  0
   -4.1898    0.9874    0.0132 H   0  0  0  0  0  0  0  0  0  0  0  0
   -2.6816   -2.1345    2.5432 H   0  0  0  0  0  0  0  0  0  0  0  0
   -4.5910    2.3897    2.0024 H   0  0  0  0  0  0  0  0  0  0  0  0
   -3.8382   -1.1089    4.3959 H   0  0  0  0  0  0  0  0  0  0  0  0
   -2.9997   -0.1512    7.5948 H   0  0  0  0  0  0  0  0  0  0  0  0
  1 19  1  0  0  0  0
  1 33  1  0  0  0  0
  2 17  2  0  0  0  0
  3 19  2  0  0  0  0
  4 27  1  0  0  0  0
  4 34  1  0  0  0  0
  5 27  2  0  0  0  0
  6 31  2  0  0  0  0
  7 17  1  0  0  0  0
  7 35  1  0  0  0  0
  8 20  1  0  0  0  0
  8 21  1  0  0  0  0
  8 36  1  0  0  0  0
  9 26  1  0  0  0  0
  9 28  2  0  0  0  0
 10 29  1  0  0  0  0
 10 32  1  0  0  0  0
 10 37  1  0  0  0  0
 11 29  2  0  0  0  0
 11 30  1  0  0  0  0
 12 31  1  0  0  0  0
 12 32  2  0  0  0  0
 13 32  1  0  0  0  0
 13 38  1  0  0  0  0
 13 39  1  0  0  0  0
 14  7  1  0  0  0  0
 14 15  1  0  0  0  0
 14 19  1  0  0  0  0
 14 40  1  6  0  0  0
 15 16  1  0  0  0  0
 15 41  1  0  0  0  0
 15 42  1  0  0  0  0
 16 27  1  0  0  0  0
 16 43  1  0  0  0  0
 16 44  1  0  0  0  0
 17 18  1  0  0  0  0
 18 22  2  0  0  0  0
 18 23  1  0  0  0  0
 20 24  2  0  0  0  0
 20 25  1  0  0  0  0
 21 26  1  0  0  0  0
 21 45  1  0  0  0  0
 21 46  1  0  0  0  0
 22 24  1  0  0  0  0
 22 47  1  0  0  0  0
 23 25  2  0  0  0  0
 23 48  1  0  0  0  0
 24 49  1  0  0  0  0
 25 50  1  0  0  0  0
 26 30  2  0  0  0  0
 28 29  1  0  0  0  0
 28 31  1  0  0  0  0
 30 51  1  0  0  0  0
M  END
>  <DRUGBANK_ID>
DB00158

>  <SECONDARY_ACCESSION_NUMBERS>
NUTR00025

>  <COMMON_NAME>
Folic acid

>  <CAS_NUMBER>
59-30-3

>  <UNII>
935E97BOY8

>  <SYNONYMS>
Acide folique; ácido fólico; Acidum folicum; Folacin; Folate; Folic acid; Folsäure; N-[(4-{[(2-amino-4-oxo-1,4-dihydropteridin-6-yl)methyl]amino}phenyl)carbonyl]-L-glutamic acid; N-pteroyl-L-glutamic acid; PGA; PteGlu; Pteroyl-L-glutamate; Pteroyl-L-glutamic acid; Pteroyl-L-monoglutamic acid; Pteroylglutamic acid; Vitamin B9; Vitamin Bc; Vitamin M

$$$$
