
 OpenBabel10282417153D

 39 42  0  0  0  0  0  0  0  0999 V2000
    1.8812    1.5517    0.0218 C   0  0  0  0  0  0  0  0  0  0  0  0
    0.6138    0.7512   -0.0329 C   0  0  0  0  0  0  0  0  0  0  0  0
   -0.6373    1.4216   -0.0621 C   0  0  0  0  0  0  0  0  0  0  0  0
   -1.8302    0.7028    0.0086 C   0  0  0  0  0  0  0  0  0  0  0  0
   -1.6983   -0.6803    0.1674 C   0  0  0  0  0  0  0  0  0  0  0  0
   -0.4963   -1.3608    0.0592 C   0  0  0  0  0  0  0  0  0  0  0  0
    0.6844   -0.6558   -0.0347 C   0  0  0  0  0  0  0  0  0  0  0  0
    1.8747   -1.3572    0.1496 N   0  0  0  0  0  0  0  0  0  0  0  0
   -3.2021    1.3674   -0.0128 C   0  0  0  0  0  0  0  0  0  0  0  0
   -4.0699    0.8699   -1.0816 N   0  0  0  0  0  0  0  0  0  0  0  0
   -4.5495   -0.4002   -1.2145 C   0  0  0  0  0  0  0  0  0  0  0  0
   -5.1594   -0.4416   -2.4429 C   0  0  0  0  0  0  0  0  0  0  0  0
   -5.5975   -1.7140   -2.8047 C   0  0  0  0  0  0  0  0  0  0  0  0
   -5.3032   -2.8008   -2.0189 N   0  0  0  0  0  0  0  0  0  0  0  0
   -4.6775   -2.5987   -0.8637 C   0  0  0  0  0  0  0  0  0  0  0  0
   -4.3993   -1.4144   -0.3559 N   0  0  0  0  0  0  0  0  0  0  0  0
   -4.2341   -3.6618   -0.1231 N   0  0  0  0  0  0  0  0  0  0  0  0
   -6.5080   -1.9665   -3.8892 C   0  0  0  0  0  0  0  0  0  0  0  0
   -7.7597   -2.5487   -3.9112 C   0  0  0  0  0  0  0  0  0  0  0  0
   -8.1618   -2.5897   -5.2636 C   0  0  0  0  0  0  0  0  0  0  0  0
   -7.1155   -2.0636   -5.9858 C   0  0  0  0  0  0  0  0  0  0  0  0
   -6.1055   -1.6737   -5.1584 O   0  0  0  0  0  0  0  0  0  0  0  0
   -5.2074    0.8445   -2.9340 N   0  0  0  0  0  0  0  0  0  0  0  0
   -4.5345    1.6443   -2.0924 N   0  0  0  0  0  0  0  0  0  0  0  0
    2.4289    1.3046    0.9376 H   0  0  0  0  0  0  0  0  0  0  0  0
    2.5005    1.3194   -0.8498 H   0  0  0  0  0  0  0  0  0  0  0  0
    1.6841    2.6265    0.0274 H   0  0  0  0  0  0  0  0  0  0  0  0
   -0.6618    2.5097   -0.0961 H   0  0  0  0  0  0  0  0  0  0  0  0
   -2.5301   -1.3048    0.4280 H   0  0  0  0  0  0  0  0  0  0  0  0
   -0.5093   -2.4462    0.1015 H   0  0  0  0  0  0  0  0  0  0  0  0
    1.8469   -2.3541   -0.0371 H   0  0  0  0  0  0  0  0  0  0  0  0
    2.7372   -0.8974   -0.1073 H   0  0  0  0  0  0  0  0  0  0  0  0
   -3.7239    1.1696    0.9320 H   0  0  0  0  0  0  0  0  0  0  0  0
   -3.1193    2.4553   -0.1223 H   0  0  0  0  0  0  0  0  0  0  0  0
   -3.6637   -3.4578    0.6810 H   0  0  0  0  0  0  0  0  0  0  0  0
   -4.4318   -4.5970   -0.4213 H   0  0  0  0  0  0  0  0  0  0  0  0
   -8.3033   -2.8945   -3.0428 H   0  0  0  0  0  0  0  0  0  0  0  0
   -9.0933   -2.9676   -5.6605 H   0  0  0  0  0  0  0  0  0  0  0  0
   -6.9469   -1.9046   -7.0418 H   0  0  0  0  0  0  0  0  0  0  0  0
  1  2  1  0  0  0  0
  1 25  1  0  0  0  0
  1 26  1  0  0  0  0
  1 27  1  0  0  0  0
  2  3  2  0  0  0  0
  2  7  1  0  0  0  0
  3  4  1  0  0  0  0
  3 28  1  0  0  0  0
  4  5  2  0  0  0  0
  4  9  1  0  0  0  0
  5  6  1  0  0  0  0
  5 29  1  0  0  0  0
  6  7  2  0  0  0  0
  6 30  1  0  0  0  0
  7  8  1  0  0  0  0
  8 31  1  0  0  0  0
  8 32  1  0  0  0  0
  9 10  1  0  0  0  0
  9 33  1  0  0  0  0
  9 34  1  0  0  0  0
 10 11  1  0  0  0  0
 10 24  1  0  0  0  0
 11 12  1  0  0  0  0
 11 16  2  0  0  0  0
 12 13  2  0  0  0  0
 12 23  1  0  0  0  0
 13 14  1  0  0  0  0
 13 18  1  0  0  0  0
 14 15  2  0  0  0  0
 15 16  1  0  0  0  0
 15 17  1  0  0  0  0
 17 35  1  0  0  0  0
 17 36  1  0  0  0  0
 18 19  2  0  0  0  0
 18 22  1  0  0  0  0
 19 20  1  0  0  0  0
 19 37  1  0  0  0  0
 20 21  2  0  0  0  0
 20 38  1  0  0  0  0
 21 22  1  0  0  0  0
 21 39  1  0  0  0  0
 23 24  2  0  0  0  0
M  END
>  <DRUGBANK_ID>
DB06625

>  <COMMON_NAME>
Vipadenant

>  <CAS_NUMBER>
442908-10-3

>  <UNII>
LDR3USH1NJ

>  <SYNONYMS>
Vipadenant

$$$$
