GW3
 OpenBabel10282417163D

 39 41  0  0  0  0  0  0  0  0999 V2000
   -1.1698    0.7711    0.0109 C   0  0  0  0  0  0  0  0  0  0  0  0
   -0.5179   -0.4665    0.0166 C   0  0  0  0  0  0  0  0  0  0  0  0
   -1.3693   -1.5869    0.0056 C   0  0  0  0  0  0  0  0  0  0  0  0
   -2.7078   -1.4788   -0.0008 N   0  0  0  0  0  0  0  0  0  0  0  0
   -3.2170   -0.2514   -0.0005 C   0  0  0  0  0  0  0  0  0  0  0  0
   -2.5082    0.8783    0.0030 N   0  0  0  0  0  0  0  0  0  0  0  0
   -0.9187   -2.8854    0.0272 N   0  0  0  0  0  0  0  0  0  0  0  0
   -0.4123    1.9355    0.0097 C   0  0  0  0  0  0  0  0  0  0  0  0
    0.9926    1.9388    0.0152 C   0  0  0  0  0  0  0  0  0  0  0  0
    1.6490    0.7024    0.0126 C   0  0  0  0  0  0  0  0  0  0  0  0
    0.9238   -0.5039    0.0114 C   0  0  0  0  0  0  0  0  0  0  0  0
    1.8892   -1.5451   -0.0188 C   0  0  0  0  0  0  0  0  0  0  0  0
    3.1228   -0.9833   -0.1429 C   0  0  0  0  0  0  0  0  0  0  0  0
    2.9963    0.3704   -0.0053 N   0  0  0  0  0  0  0  0  0  0  0  0
   -4.5814   -0.1398   -0.0035 N   0  0  0  0  0  0  0  0  0  0  0  0
    4.1547    1.2707   -0.0015 C   0  0  0  0  0  0  0  0  0  0  0  0
    5.0310    1.0813    1.2651 C   0  0  0  0  0  0  0  0  0  0  0  0
    5.6875   -0.2915    1.4084 C   0  0  0  0  0  0  0  0  0  0  0  0
    4.9928    1.1195   -1.2899 C   0  0  0  0  0  0  0  0  0  0  0  0
    4.1784    1.3660   -2.5503 C   0  0  0  0  0  0  0  0  0  0  0  0
    0.0497   -3.1200   -0.0143 H   0  0  0  0  0  0  0  0  0  0  0  0
   -1.6016   -3.6240   -0.0015 H   0  0  0  0  0  0  0  0  0  0  0  0
   -0.9333    2.8921    0.0013 H   0  0  0  0  0  0  0  0  0  0  0  0
    1.5318    2.8811    0.0060 H   0  0  0  0  0  0  0  0  0  0  0  0
    1.7708   -2.6134   -0.0210 H   0  0  0  0  0  0  0  0  0  0  0  0
    4.0762   -1.4702   -0.2811 H   0  0  0  0  0  0  0  0  0  0  0  0
   -4.9790    0.7805    0.0012 H   0  0  0  0  0  0  0  0  0  0  0  0
   -5.1233   -0.9850   -0.0001 H   0  0  0  0  0  0  0  0  0  0  0  0
    3.7620    2.2950    0.0273 H   0  0  0  0  0  0  0  0  0  0  0  0
    5.8274    1.8363    1.2578 H   0  0  0  0  0  0  0  0  0  0  0  0
    4.4252    1.2716    2.1595 H   0  0  0  0  0  0  0  0  0  0  0  0
    6.2670   -0.5583    0.5195 H   0  0  0  0  0  0  0  0  0  0  0  0
    6.3599   -0.3239    2.2674 H   0  0  0  0  0  0  0  0  0  0  0  0
    4.9436   -1.0706    1.5898 H   0  0  0  0  0  0  0  0  0  0  0  0
    5.8385    1.8171   -1.2624 H   0  0  0  0  0  0  0  0  0  0  0  0
    5.4224    0.1145   -1.3641 H   0  0  0  0  0  0  0  0  0  0  0  0
    3.7818    2.3845   -2.5624 H   0  0  0  0  0  0  0  0  0  0  0  0
    4.8048    1.2198   -3.4345 H   0  0  0  0  0  0  0  0  0  0  0  0
    3.3400    0.6668   -2.6269 H   0  0  0  0  0  0  0  0  0  0  0  0
  1  2  2  0  0  0  0
  1  6  1  0  0  0  0
  1  8  1  0  0  0  0
  2  3  1  0  0  0  0
  2 11  1  0  0  0  0
  3  4  2  0  0  0  0
  3  7  1  0  0  0  0
  4  5  1  0  0  0  0
  5  6  2  0  0  0  0
  5 15  1  0  0  0  0
  7 21  1  0  0  0  0
  7 22  1  0  0  0  0
  8  9  2  0  0  0  0
  8 23  1  0  0  0  0
  9 10  1  0  0  0  0
  9 24  1  0  0  0  0
 10 11  2  0  0  0  0
 10 14  1  0  0  0  0
 11 12  1  0  0  0  0
 12 13  2  0  0  0  0
 12 25  1  0  0  0  0
 13 14  1  0  0  0  0
 13 26  1  0  0  0  0
 14 16  1  0  0  0  0
 15 27  1  0  0  0  0
 15 28  1  0  0  0  0
 16 17  1  0  0  0  0
 16 19  1  0  0  0  0
 16 29  1  0  0  0  0
 17 18  1  0  0  0  0
 17 30  1  0  0  0  0
 17 31  1  0  0  0  0
 18 32  1  0  0  0  0
 18 33  1  0  0  0  0
 18 34  1  0  0  0  0
 19 20  1  0  0  0  0
 19 35  1  0  0  0  0
 19 36  1  0  0  0  0
 20 37  1  0  0  0  0
 20 38  1  0  0  0  0
 20 39  1  0  0  0  0
M  END
>  <DRUGBANK_ID>
DB07862

>  <COMMON_NAME>
7-(1-ETHYL-PROPYL)-7H-PYRROLO-[3,2-F]QUINAZOLINE-1,3-DIAMINE

$$$$
