866
 OpenBabel10282417113D

 41 41  0  0  1  0  0  0  0  0999 V2000
    1.1527   -0.1629   -0.1834 O   0  0  0  0  0  0  0  0  0  0  0  0
    1.5624    1.4938    2.2199 O   0  0  0  0  0  0  0  0  0  0  0  0
   -1.5991    3.0107    1.2704 N   0  0  0  0  0  0  0  0  0  0  0  0
    0.3603    1.5944    1.4591 C   0  0  3  0  0  0  0  0  0  0  0  0
   -0.1493    3.0603    1.3972 C   0  0  0  0  0  0  0  0  0  0  0  0
   -2.2480    4.3127    1.2886 C   0  0  0  0  0  0  0  0  0  0  0  0
    0.2805    0.9273    0.0494 C   0  0  0  0  0  0  0  0  0  0  0  0
   -1.8917    5.1513    0.0626 C   0  0  0  0  0  0  0  0  0  0  0  0
   -3.7445    4.0108    1.3009 C   0  0  0  0  0  0  0  0  0  0  0  0
    2.5072    0.0375   -0.2461 C   0  0  0  0  0  0  0  0  0  0  0  0
    3.2440    1.2489   -0.2375 C   0  0  0  0  0  0  0  0  0  0  0  0
    2.7312    2.6748   -0.3446 C   0  0  0  0  0  0  0  0  0  0  0  0
    3.1842   -1.1928   -0.1203 C   0  0  0  0  0  0  0  0  0  0  0  0
    4.6328    1.1625   -0.0312 C   0  0  0  0  0  0  0  0  0  0  0  0
    4.5564   -1.2361    0.1089 C   0  0  0  0  0  0  0  0  0  0  0  0
    5.2806   -0.0549    0.1473 C   0  0  0  0  0  0  0  0  0  0  0  0
    2.9655    3.5475    0.8686 C   0  0  0  0  0  0  0  0  0  0  0  0
    3.3757    4.8278    0.8275 C   0  0  0  0  0  0  0  0  0  0  0  0
    2.2249    0.9550    1.7612 H   0  0  0  0  0  0  0  0  0  0  0  0
   -1.8555    2.5153    0.4191 H   0  0  0  0  0  0  0  0  0  0  0  0
   -0.3220    1.0406    2.1026 H   0  0  0  0  0  0  0  0  0  0  0  0
    0.1727    3.6325    2.2769 H   0  0  0  0  0  0  0  0  0  0  0  0
    0.2574    3.5992    0.5341 H   0  0  0  0  0  0  0  0  0  0  0  0
   -1.9860    4.8532    2.2058 H   0  0  0  0  0  0  0  0  0  0  0  0
    0.2949    1.5859   -0.8267 H   0  0  0  0  0  0  0  0  0  0  0  0
   -0.7448    0.5396   -0.0269 H   0  0  0  0  0  0  0  0  0  0  0  0
   -2.1194    4.6123   -0.8644 H   0  0  0  0  0  0  0  0  0  0  0  0
   -2.4593    6.0862    0.0612 H   0  0  0  0  0  0  0  0  0  0  0  0
   -0.8300    5.4178    0.0441 H   0  0  0  0  0  0  0  0  0  0  0  0
   -4.0158    3.4062    2.1747 H   0  0  0  0  0  0  0  0  0  0  0  0
   -4.3252    4.9356    1.3331 H   0  0  0  0  0  0  0  0  0  0  0  0
   -4.0435    3.4517    0.4051 H   0  0  0  0  0  0  0  0  0  0  0  0
    3.1474    3.1333   -1.2456 H   0  0  0  0  0  0  0  0  0  0  0  0
    1.6776    2.7080   -0.5537 H   0  0  0  0  0  0  0  0  0  0  0  0
    2.6240   -2.1289   -0.1316 H   0  0  0  0  0  0  0  0  0  0  0  0
    5.2113    2.0807    0.0569 H   0  0  0  0  0  0  0  0  0  0  0  0
    5.0524   -2.1838    0.2980 H   0  0  0  0  0  0  0  0  0  0  0  0
    6.3494   -0.0669    0.3340 H   0  0  0  0  0  0  0  0  0  0  0  0
    2.7227    3.2042    1.8675 H   0  0  0  0  0  0  0  0  0  0  0  0
    3.4282    5.3879    1.7540 H   0  0  0  0  0  0  0  0  0  0  0  0
    3.6134    5.2984   -0.1098 H   0  0  0  0  0  0  0  0  0  0  0  0
  1  7  1  0  0  0  0
  1 10  1  0  0  0  0
  2  4  1  0  0  0  0
  2 19  1  0  0  0  0
  3  5  1  0  0  0  0
  3  6  1  0  0  0  0
  3 20  1  0  0  0  0
  4  5  1  0  0  0  0
  4  7  1  0  0  0  0
  4 21  1  0  0  0  0
  5 22  1  0  0  0  0
  5 23  1  0  0  0  0
  6  8  1  0  0  0  0
  6  9  1  0  0  0  0
  6 24  1  0  0  0  0
  7 25  1  0  0  0  0
  7 26  1  0  0  0  0
  8 27  1  0  0  0  0
  8 28  1  0  0  0  0
  8 29  1  0  0  0  0
  9 30  1  0  0  0  0
  9 31  1  0  0  0  0
  9 32  1  0  0  0  0
 10 11  1  0  0  0  0
 10 13  2  0  0  0  0
 11 12  1  0  0  0  0
 11 14  2  0  0  0  0
 12 17  1  0  0  0  0
 12 33  1  0  0  0  0
 12 34  1  0  0  0  0
 13 15  1  0  0  0  0
 13 35  1  0  0  0  0
 14 16  1  0  0  0  0
 14 36  1  0  0  0  0
 15 16  2  0  0  0  0
 15 37  1  0  0  0  0
 16 38  1  0  0  0  0
 17 18  2  0  0  0  0
 17 39  1  0  0  0  0
 18 40  1  0  0  0  0
 18 41  1  0  0  0  0
M  END
>  <DRUGBANK_ID>
DB00866

>  <SECONDARY_ACCESSION_NUMBERS>
APRD00736

>  <COMMON_NAME>
Alprenolol

>  <CAS_NUMBER>
13655-52-2

>  <UNII>
877K5MQ27W

>  <SYNONYMS>
(RS)-1-(2-allylphenoxy)-3-(isopropylamino)propan-2-ol; 1-(2-Allylphenoxy)-3-isopropylamino-2-propanol; 1-(o-Allylphenoxy)-3-(isopropylamino)-2-propanol; Alfeprol; Alprenolol; Alpr√©nolol; Alprenololum; Aprenololo

$$$$
