
 OpenBabel10282417223D

 51 53  0  0  0  0  0  0  0  0999 V2000
    1.0623   -0.0559    0.0705 C   0  0  0  0  0  0  0  0  0  0  0  0
    0.5296   -1.2983   -0.6694 C   0  0  0  0  0  0  0  0  0  0  0  0
    1.0674   -2.5492    0.0356 C   0  0  0  0  0  0  0  0  0  0  0  0
   -1.0058   -1.2885   -0.6879 C   0  0  0  0  0  0  0  0  0  0  0  0
    0.8809   -1.2857   -2.1376 C   0  0  0  0  0  0  0  0  0  0  0  0
    1.0062   -0.0737   -2.7956 C   0  0  0  0  0  0  0  0  0  0  0  0
    1.0469   -0.0124   -4.1719 C   0  0  0  0  0  0  0  0  0  0  0  0
    1.1070   -1.1335   -4.9622 C   0  0  0  0  0  0  0  0  0  0  0  0
    1.0922   -2.3717   -4.2851 C   0  0  0  0  0  0  0  0  0  0  0  0
    0.9190   -2.4491   -2.8988 C   0  0  0  0  0  0  0  0  0  0  0  0
    1.6081   -0.9370   -6.6713 S   0  0  0  0  0  0  0  0  0  0  0  0
    2.7881   -1.7632   -6.7018 O   0  0  0  0  0  0  0  0  0  0  0  0
    0.6475   -1.3300   -7.6372 O   0  0  0  0  0  0  0  0  0  0  0  0
    2.3620    0.5326   -7.0671 N   0  0  0  0  0  0  0  0  0  0  0  0
    2.6957    1.5843   -6.1649 C   0  0  0  0  0  0  0  0  0  0  0  0
    3.4200    1.5518   -4.9413 C   0  0  0  0  0  0  0  0  0  0  0  0
    3.1942    2.7068   -4.1032 C   0  0  0  0  0  0  0  0  0  0  0  0
    2.5031    3.8596   -4.5495 C   0  0  0  0  0  0  0  0  0  0  0  0
    2.1951    5.1945   -3.4992 Cl  0  0  0  0  0  0  0  0  0  0  0  0
    2.0112    3.9225   -5.8400 C   0  0  0  0  0  0  0  0  0  0  0  0
    2.0549    2.7706   -6.6097 C   0  0  0  0  0  0  0  0  0  0  0  0
    4.1032    0.3178   -4.2606 C   0  0  0  0  0  0  0  0  0  0  0  0
    4.1731    0.3650   -3.0281 O   0  0  0  0  0  0  0  0  0  0  0  0
    4.5696   -1.0076   -4.9335 C   0  0  0  0  0  0  0  0  0  0  0  0
    5.1535   -1.0475   -6.2109 C   0  0  0  0  0  0  0  0  0  0  0  0
    5.1155   -2.2608   -7.0057 C   0  0  0  0  0  0  0  0  0  0  0  0
    4.4279   -3.4261   -6.5772 N   0  3  0  0  0  0  0  0  0  0  0  0
    4.0649   -4.3346   -7.4088 O   0  5  0  0  0  0  0  0  0  0  0  0
    3.9524   -3.4324   -5.2641 C   0  0  0  0  0  0  0  0  0  0  0  0
    4.0826   -2.2541   -4.4234 C   0  0  0  0  0  0  0  0  0  0  0  0
    0.7509   -0.0572    1.1166 H   0  0  0  0  0  0  0  0  0  0  0  0
    0.6820    0.8818   -0.3498 H   0  0  0  0  0  0  0  0  0  0  0  0
    2.1584   -0.0143    0.0231 H   0  0  0  0  0  0  0  0  0  0  0  0
    0.7527   -2.5713    1.0811 H   0  0  0  0  0  0  0  0  0  0  0  0
    0.6997   -3.4758   -0.4154 H   0  0  0  0  0  0  0  0  0  0  0  0
    2.1636   -2.5769   -0.0078 H   0  0  0  0  0  0  0  0  0  0  0  0
   -1.3849   -0.4005   -1.2144 H   0  0  0  0  0  0  0  0  0  0  0  0
   -1.3976   -2.1596   -1.2308 H   0  0  0  0  0  0  0  0  0  0  0  0
   -1.4169   -1.2940    0.3207 H   0  0  0  0  0  0  0  0  0  0  0  0
    1.0673    0.8748   -2.2754 H   0  0  0  0  0  0  0  0  0  0  0  0
    1.1624    0.9731   -4.5612 H   0  0  0  0  0  0  0  0  0  0  0  0
    1.3763   -3.3209   -4.7241 H   0  0  0  0  0  0  0  0  0  0  0  0
    0.8798   -3.4336   -2.4356 H   0  0  0  0  0  0  0  0  0  0  0  0
    3.0663    0.4186   -7.8053 H   0  0  0  0  0  0  0  0  0  0  0  0
    3.4709    2.6923   -3.0451 H   0  0  0  0  0  0  0  0  0  0  0  0
    1.5484    4.8248   -6.2359 H   0  0  0  0  0  0  0  0  0  0  0  0
    1.4936    2.7583   -7.5478 H   0  0  0  0  0  0  0  0  0  0  0  0
    5.3477   -0.1042   -6.7168 H   0  0  0  0  0  0  0  0  0  0  0  0
    5.2131   -2.2558   -8.0889 H   0  0  0  0  0  0  0  0  0  0  0  0
    3.1929   -4.2157   -5.1468 H   0  0  0  0  0  0  0  0  0  0  0  0
    3.5181   -2.2212   -3.4890 H   0  0  0  0  0  0  0  0  0  0  0  0
  1  2  1  0  0  0  0
  1 31  1  0  0  0  0
  1 32  1  0  0  0  0
  1 33  1  0  0  0  0
  2  3  1  0  0  0  0
  2  4  1  0  0  0  0
  2  5  1  0  0  0  0
  3 34  1  0  0  0  0
  3 35  1  0  0  0  0
  3 36  1  0  0  0  0
  4 37  1  0  0  0  0
  4 38  1  0  0  0  0
  4 39  1  0  0  0  0
  5  6  2  0  0  0  0
  5 10  1  0  0  0  0
  6  7  1  0  0  0  0
  6 40  1  0  0  0  0
  7  8  2  0  0  0  0
  7 41  1  0  0  0  0
  8  9  1  0  0  0  0
  8 11  1  0  0  0  0
  9 10  2  0  0  0  0
  9 42  1  0  0  0  0
 10 43  1  0  0  0  0
 11 12  2  0  0  0  0
 11 13  2  0  0  0  0
 11 14  1  0  0  0  0
 14 15  1  0  0  0  0
 14 44  1  0  0  0  0
 15 16  2  0  0  0  0
 15 21  1  0  0  0  0
 16 17  1  0  0  0  0
 16 22  1  0  0  0  0
 17 18  2  0  0  0  0
 17 45  1  0  0  0  0
 18 19  1  0  0  0  0
 18 20  1  0  0  0  0
 20 21  2  0  0  0  0
 20 46  1  0  0  0  0
 21 47  1  0  0  0  0
 22 23  2  0  0  0  0
 22 24  1  0  0  0  0
 24 25  2  0  0  0  0
 24 30  1  0  0  0  0
 25 26  1  0  0  0  0
 25 48  1  0  0  0  0
 26 27  2  0  0  0  0
 26 49  1  0  0  0  0
 27 28  1  0  0  0  0
 27 29  1  0  0  0  0
 29 30  2  0  0  0  0
 29 50  1  0  0  0  0
 30 51  1  0  0  0  0
M  CHG  2  27   1  28  -1
M  END
>  <DRUGBANK_ID>
DB15250

>  <SECONDARY_ACCESSION_NUMBERS>
DB05005

>  <COMMON_NAME>
Vercirnon

>  <CAS_NUMBER>
698394-73-9

>  <UNII>
MWI54OUA12

>  <SYNONYMS>
Vercirnon

$$$$
