
 OpenBabel10282417203D

 51 53  0  0  0  0  0  0  0  0999 V2000
    1.1026    0.0024   -0.0399 C   0  0  0  0  0  0  0  0  0  0  0  0
    0.8043    4.6333  -12.9794 C   0  0  0  0  0  0  0  0  0  0  0  0
   -4.9792    5.0648   -6.3784 C   0  0  0  0  0  0  0  0  0  0  0  0
   -4.2579    4.3208   -5.2594 C   0  0  0  0  0  0  0  0  0  0  0  0
   -4.3197    4.8091   -7.7293 C   0  0  0  0  0  0  0  0  0  0  0  0
   -2.7584    4.6303   -5.2393 C   0  0  0  0  0  0  0  0  0  0  0  0
   -2.8244    5.1067   -7.6797 C   0  0  0  0  0  0  0  0  0  0  0  0
   -1.3598    1.9605   -4.7159 C   0  0  0  0  0  0  0  0  0  0  0  0
    0.7933    2.9190   -5.2753 C   0  0  0  0  0  0  0  0  0  0  0  0
   -0.1996    3.9924   -8.8912 C   0  0  0  0  0  0  0  0  0  0  0  0
   -0.9756    1.7173   -8.7076 C   0  0  0  0  0  0  0  0  0  0  0  0
   -0.8901    1.6469   -3.4531 C   0  0  0  0  0  0  0  0  0  0  0  0
    1.2871    2.5508   -4.0199 C   0  0  0  0  0  0  0  0  0  0  0  0
   -0.2142    3.8489  -10.2550 C   0  0  0  0  0  0  0  0  0  0  0  0
   -0.8160    1.5345  -10.0906 C   0  0  0  0  0  0  0  0  0  0  0  0
    0.5660    0.2628   -1.4162 C   0  0  0  0  0  0  0  0  0  0  0  0
    0.3170    3.2422  -13.2838 C   0  0  0  0  0  0  0  0  0  0  0  0
   -2.1418    4.2726   -6.5892 C   0  0  0  0  0  0  0  0  0  0  0  0
   -0.5530    2.6834   -5.5922 C   0  0  0  0  0  0  0  0  0  0  0  0
   -0.7259    2.9731   -8.1268 C   0  0  0  0  0  0  0  0  0  0  0  0
    0.4390    1.9042   -3.1177 C   0  0  0  0  0  0  0  0  0  0  0  0
   -0.4249    2.6266  -10.8650 C   0  0  0  0  0  0  0  0  0  0  0  0
   -1.1695    3.3231   -6.7687 C   0  0  0  0  0  0  0  0  0  0  0  0
   -0.0968   -0.5574   -2.0189 O   0  0  0  0  0  0  0  0  0  0  0  0
    0.3911    2.8087  -14.4324 O   0  0  0  0  0  0  0  0  0  0  0  0
    0.9465    1.5356   -1.8583 O   0  0  0  0  0  0  0  0  0  0  0  0
   -0.2711    2.4653  -12.2701 O   0  0  0  0  0  0  0  0  0  0  0  0
    0.7614   -0.9936    0.2638 H   0  0  0  0  0  0  0  0  0  0  0  0
    0.7094    0.7260    0.6766 H   0  0  0  0  0  0  0  0  0  0  0  0
    2.1933    0.0004   -0.0523 H   0  0  0  0  0  0  0  0  0  0  0  0
    1.7839    4.7758  -13.4358 H   0  0  0  0  0  0  0  0  0  0  0  0
    0.0811    5.3624  -13.3578 H   0  0  0  0  0  0  0  0  0  0  0  0
    1.0468    4.8611  -11.9557 H   0  0  0  0  0  0  0  0  0  0  0  0
   -6.0279    4.7524   -6.4161 H   0  0  0  0  0  0  0  0  0  0  0  0
   -4.9677    6.1401   -6.1626 H   0  0  0  0  0  0  0  0  0  0  0  0
   -4.4120    3.2416   -5.3934 H   0  0  0  0  0  0  0  0  0  0  0  0
   -4.6988    4.5872   -4.2936 H   0  0  0  0  0  0  0  0  0  0  0  0
   -4.4670    3.7627   -8.0240 H   0  0  0  0  0  0  0  0  0  0  0  0
   -4.7999    5.4289   -8.4953 H   0  0  0  0  0  0  0  0  0  0  0  0
   -2.3282    4.0962   -4.3954 H   0  0  0  0  0  0  0  0  0  0  0  0
   -2.5762    5.6867   -5.0140 H   0  0  0  0  0  0  0  0  0  0  0  0
   -2.6692    6.1730   -7.4570 H   0  0  0  0  0  0  0  0  0  0  0  0
   -2.4285    4.9629   -8.6842 H   0  0  0  0  0  0  0  0  0  0  0  0
   -2.3941    1.7469   -4.9715 H   0  0  0  0  0  0  0  0  0  0  0  0
    1.4469    3.4139   -5.9919 H   0  0  0  0  0  0  0  0  0  0  0  0
    0.0238    4.9691   -8.4727 H   0  0  0  0  0  0  0  0  0  0  0  0
   -1.3286    0.8959   -8.0876 H   0  0  0  0  0  0  0  0  0  0  0  0
   -1.5794    1.2023   -2.7439 H   0  0  0  0  0  0  0  0  0  0  0  0
    2.3131    2.7902   -3.7570 H   0  0  0  0  0  0  0  0  0  0  0  0
   -0.1957    4.7848  -10.7756 H   0  0  0  0  0  0  0  0  0  0  0  0
   -1.0691    0.5766  -10.5411 H   0  0  0  0  0  0  0  0  0  0  0  0
  1 28  1  0  0  0  0
  1 29  1  0  0  0  0
  1 30  1  0  0  0  0
  2 31  1  0  0  0  0
  2 32  1  0  0  0  0
  2 33  1  0  0  0  0
  3 34  1  0  0  0  0
  3 35  1  0  0  0  0
  4  3  1  0  0  0  0
  4 36  1  0  0  0  0
  4 37  1  0  0  0  0
  5  3  1  0  0  0  0
  5 38  1  0  0  0  0
  5 39  1  0  0  0  0
  6  4  1  0  0  0  0
  6 40  1  0  0  0  0
  6 41  1  0  0  0  0
  7  5  1  0  0  0  0
  7 42  1  0  0  0  0
  7 43  1  0  0  0  0
  8 44  1  0  0  0  0
  9 45  1  0  0  0  0
 10 46  1  0  0  0  0
 11 47  1  0  0  0  0
 12  8  1  0  0  0  0
 12 48  1  0  0  0  0
 13  9  2  0  0  0  0
 13 49  1  0  0  0  0
 14 10  1  0  0  0  0
 14 50  1  0  0  0  0
 15 11  2  0  0  0  0
 15 51  1  0  0  0  0
 16  1  1  0  0  0  0
 17  2  1  0  0  0  0
 18  6  1  0  0  0  0
 18  7  1  0  0  0  0
 19  8  2  0  0  0  0
 19  9  1  0  0  0  0
 20 10  2  0  0  0  0
 20 11  1  0  0  0  0
 21 12  2  0  0  0  0
 21 13  1  0  0  0  0
 22 14  2  0  0  0  0
 22 15  1  0  0  0  0
 23 18  2  0  0  0  0
 23 19  1  0  0  0  0
 23 20  1  0  0  0  0
 24 16  2  0  0  0  0
 25 17  2  0  0  0  0
 26 16  1  0  0  0  0
 26 21  1  0  0  0  0
 27 17  1  0  0  0  0
 27 22  1  0  0  0  0
M  END
>  <DRUGBANK_ID>
DB13472

>  <COMMON_NAME>
Cyclofenil

>  <CAS_NUMBER>
2624-43-3

>  <UNII>
J468V64WZ1

>  <SYNONYMS>
Cyclofenil

$$$$
