1214
 OpenBabel10282417113D

 49 49  0  0  1  0  0  0  0  0999 V2000
    1.0825    0.1320   -0.0447 O   0  0  0  0  0  0  0  0  0  0  0  0
    1.9400   -2.2760   -1.7770 O   0  0  0  0  0  0  0  0  0  0  0  0
    6.7190   -0.0980   -0.1601 O   0  0  0  0  0  0  0  0  0  0  0  0
    7.3040   -2.4119   -0.1357 O   0  0  0  0  0  0  0  0  0  0  0  0
   -1.5927   -3.0484   -1.3364 N   0  0  0  0  0  0  0  0  0  0  0  0
    0.5955   -1.9005   -1.4614 C   0  0  3  0  0  0  0  0  0  0  0  0
   -0.1485   -3.2316   -1.3952 C   0  0  0  0  0  0  0  0  0  0  0  0
   -2.2968   -4.3284   -1.3237 C   0  0  0  0  0  0  0  0  0  0  0  0
    0.3970   -1.1238   -0.1249 C   0  0  0  0  0  0  0  0  0  0  0  0
    2.4401    0.0987    0.1167 C   0  0  0  0  0  0  0  0  0  0  0  0
    3.1606    1.2867   -0.0207 C   0  0  0  0  0  0  0  0  0  0  0  0
    4.5954    1.2299   -0.0764 C   0  0  0  0  0  0  0  0  0  0  0  0
    4.4882   -1.2009    0.0764 C   0  0  0  0  0  0  0  0  0  0  0  0
    5.2600   -0.0444   -0.0680 C   0  0  0  0  0  0  0  0  0  0  0  0
   -1.9549   -5.1504   -0.0801 C   0  0  0  0  0  0  0  0  0  0  0  0
   -3.7885   -4.0119   -1.3463 C   0  0  0  0  0  0  0  0  0  0  0  0
    3.1246   -1.0833    0.3107 C   0  0  0  0  0  0  0  0  0  0  0  0
    2.3850    2.5868   -0.0510 C   0  0  0  0  0  0  0  0  0  0  0  0
    5.3711    2.5217   -0.1364 C   0  0  0  0  0  0  0  0  0  0  0  0
    4.9213   -2.6230   -0.0448 C   0  0  0  0  0  0  0  0  0  0  0  0
    7.5867   -1.2157   -0.1567 C   0  0  0  0  0  0  0  0  0  0  0  0
    9.0354   -0.9206   -0.1776 C   0  0  0  0  0  0  0  0  0  0  0  0
    2.4413   -1.4562   -1.9297 H   0  0  0  0  0  0  0  0  0  0  0  0
   -1.8536   -2.5193   -0.5065 H   0  0  0  0  0  0  0  0  0  0  0  0
    0.2491   -1.2891   -2.2985 H   0  0  0  0  0  0  0  0  0  0  0  0
    0.1276   -3.8460   -2.2622 H   0  0  0  0  0  0  0  0  0  0  0  0
    0.2298   -3.7688   -0.5153 H   0  0  0  0  0  0  0  0  0  0  0  0
   -2.0439   -4.8938   -2.2288 H   0  0  0  0  0  0  0  0  0  0  0  0
    0.6034   -1.7321    0.7670 H   0  0  0  0  0  0  0  0  0  0  0  0
   -0.6635   -0.8626   -0.0358 H   0  0  0  0  0  0  0  0  0  0  0  0
   -2.1721   -4.5871    0.8348 H   0  0  0  0  0  0  0  0  0  0  0  0
   -2.5312   -6.0784   -0.0623 H   0  0  0  0  0  0  0  0  0  0  0  0
   -0.8988   -5.4373   -0.0527 H   0  0  0  0  0  0  0  0  0  0  0  0
   -4.0551   -3.4276   -2.2344 H   0  0  0  0  0  0  0  0  0  0  0  0
   -4.3727   -4.9361   -1.3605 H   0  0  0  0  0  0  0  0  0  0  0  0
   -4.0860   -3.4348   -0.4625 H   0  0  0  0  0  0  0  0  0  0  0  0
    2.5929   -2.0133    0.4842 H   0  0  0  0  0  0  0  0  0  0  0  0
    2.6206    3.1769    0.8404 H   0  0  0  0  0  0  0  0  0  0  0  0
    2.6076    3.1585   -0.9562 H   0  0  0  0  0  0  0  0  0  0  0  0
    1.2980    2.4410   -0.0385 H   0  0  0  0  0  0  0  0  0  0  0  0
    6.0210    2.6069    0.7380 H   0  0  0  0  0  0  0  0  0  0  0  0
    5.9535    2.5839   -1.0584 H   0  0  0  0  0  0  0  0  0  0  0  0
    4.7235    3.4065   -0.1188 H   0  0  0  0  0  0  0  0  0  0  0  0
    5.4157   -2.7602   -1.0133 H   0  0  0  0  0  0  0  0  0  0  0  0
    5.4963   -2.8779    0.8474 H   0  0  0  0  0  0  0  0  0  0  0  0
    4.1039   -3.3482   -0.0740 H   0  0  0  0  0  0  0  0  0  0  0  0
    9.3244   -0.4232   -1.0991 H   0  0  0  0  0  0  0  0  0  0  0  0
    9.3494   -0.4284    0.7395 H   0  0  0  0  0  0  0  0  0  0  0  0
    9.5280   -1.9095   -0.1858 H   0  0  0  0  0  0  0  0  0  0  0  0
  1  9  1  0  0  0  0
  1 10  1  0  0  0  0
  2  6  1  0  0  0  0
  2 23  1  0  0  0  0
  3 14  1  0  0  0  0
  3 21  1  0  0  0  0
  4 21  2  0  0  0  0
  5  7  1  0  0  0  0
  5  8  1  0  0  0  0
  5 24  1  0  0  0  0
  6  7  1  0  0  0  0
  6  9  1  0  0  0  0
  6 25  1  0  0  0  0
  7 26  1  0  0  0  0
  7 27  1  0  0  0  0
  8 15  1  0  0  0  0
  8 16  1  0  0  0  0
  8 28  1  0  0  0  0
  9 29  1  0  0  0  0
  9 30  1  0  0  0  0
 10 11  2  0  0  0  0
 10 17  1  0  0  0  0
 11 12  1  0  0  0  0
 11 18  1  0  0  0  0
 12 14  2  0  0  0  0
 12 19  1  0  0  0  0
 13 14  1  0  0  0  0
 13 17  2  0  0  0  0
 13 20  1  0  0  0  0
 15 31  1  0  0  0  0
 15 32  1  0  0  0  0
 15 33  1  0  0  0  0
 16 34  1  0  0  0  0
 16 35  1  0  0  0  0
 16 36  1  0  0  0  0
 17 37  1  0  0  0  0
 18 38  1  0  0  0  0
 18 39  1  0  0  0  0
 18 40  1  0  0  0  0
 19 41  1  0  0  0  0
 19 42  1  0  0  0  0
 19 43  1  0  0  0  0
 20 44  1  0  0  0  0
 20 45  1  0  0  0  0
 20 46  1  0  0  0  0
 21 22  1  0  0  0  0
 22 47  1  0  0  0  0
 22 48  1  0  0  0  0
 22 49  1  0  0  0  0
M  END
>  <DRUGBANK_ID>
DB01214

>  <SECONDARY_ACCESSION_NUMBERS>
APRD00668

>  <COMMON_NAME>
Metipranolol

>  <CAS_NUMBER>
22664-55-7

>  <UNII>
X39AL81KEB

>  <SYNONYMS>
(Â±)-metipranolol; Acetic acid 4-(2-hydroxy-3-isopropylamino-propoxy)-2,3,6-trimethyl-phenyl ester; Metipranolol; Metipranololum

$$$$
