
 OpenBabel10282417143D

 57 59  0  0  0  0  0  0  0  0999 V2000
   -0.1355   -1.1244    0.3548 N   0  0  0  0  0  0  0  0  0  0  0  0
    0.7146   -0.0370    0.3139 C   0  0  0  0  0  0  0  0  0  0  0  0
   -1.5155   -0.7533    0.1361 C   0  0  1  0  0  0  0  0  0  0  0  0
   -0.1213    1.2325    0.4017 C   0  0  1  0  0  0  0  0  0  0  0  0
   -1.5187    0.7703   -0.0664 C   0  0  0  0  0  0  0  0  0  0  0  0
    1.2402    2.1959    2.2535 C   0  0  0  0  0  0  0  0  0  0  0  0
    1.4759    3.3614    2.5370 O   0  0  0  0  0  0  0  0  0  0  0  0
    2.1430    1.1853    2.2937 O   0  0  0  0  0  0  0  0  0  0  0  0
   -0.1267    1.7033    1.8331 C   0  0  0  0  0  0  0  0  0  0  0  0
   -2.2141   -1.5203   -1.0213 C   0  0  0  0  0  0  0  0  0  0  0  0
   -1.3925   -1.9904   -2.1290 O   0  0  0  0  0  0  0  0  0  0  0  0
   -0.1773    0.0003   -2.5890 C   0  0  0  0  0  0  0  0  0  0  0  0
   -0.9615   -1.0423   -3.0073 C   0  0  0  0  0  0  0  0  0  0  0  0
   -1.1349   -1.1401   -4.3671 C   0  0  0  0  0  0  0  0  0  0  0  0
   -0.7487   -0.0675   -5.1880 C   0  0  0  0  0  0  0  0  0  0  0  0
   -0.1445    1.0738   -4.6526 C   0  0  0  0  0  0  0  0  0  0  0  0
    0.1441    1.1099   -3.3125 C   0  0  0  0  0  0  0  0  0  0  0  0
    2.0433    3.7493   -5.8103 C   0  0  0  0  0  0  0  0  0  0  0  0
    1.3521    4.3633   -6.8255 C   0  0  0  0  0  0  0  0  0  0  0  0
   -0.0088    4.0738   -6.8933 C   0  0  0  0  0  0  0  0  0  0  0  0
   -0.5237    2.9832   -6.1880 C   0  0  0  0  0  0  0  0  0  0  0  0
    0.3294    2.1692   -5.4502 C   0  0  0  0  0  0  0  0  0  0  0  0
    1.6501    2.5418   -5.2925 C   0  0  0  0  0  0  0  0  0  0  0  0
    2.0661    5.2826   -7.7585 C   0  0  0  0  0  0  0  0  0  0  0  0
    1.4442    6.0252   -8.6139 N   0  0  0  0  0  0  0  0  0  0  0  0
    3.4705    5.3780   -7.8289 N   0  0  0  0  0  0  0  0  0  0  0  0
    4.6185    4.7934   -7.2399 C   0  0  0  0  0  0  0  0  0  0  0  0
    5.7015    5.3378   -7.2428 O   0  0  0  0  0  0  0  0  0  0  0  0
    4.3855    3.5830   -6.6660 O   0  0  0  0  0  0  0  0  0  0  0  0
    5.1260    3.1366   -5.5073 C   0  0  0  0  0  0  0  0  0  0  0  0
    1.9031   -0.1002    0.0430 O   0  0  0  0  0  0  0  0  0  0  0  0
    3.4951    1.5610    2.5603 C   0  0  0  0  0  0  0  0  0  0  0  0
   -2.0319   -0.9599    1.0799 H   0  0  0  0  0  0  0  0  0  0  0  0
    0.2481   -2.0101    0.0346 H   0  0  0  0  0  0  0  0  0  0  0  0
    0.2651    2.0019   -0.2808 H   0  0  0  0  0  0  0  0  0  0  0  0
   -2.3506    1.2627    0.4465 H   0  0  0  0  0  0  0  0  0  0  0  0
   -1.6982    1.0407   -1.1128 H   0  0  0  0  0  0  0  0  0  0  0  0
   -0.8293    2.5391    1.9191 H   0  0  0  0  0  0  0  0  0  0  0  0
   -0.4647    0.9133    2.5101 H   0  0  0  0  0  0  0  0  0  0  0  0
   -2.6264   -2.4357   -0.5753 H   0  0  0  0  0  0  0  0  0  0  0  0
   -3.0878   -0.9624   -1.3880 H   0  0  0  0  0  0  0  0  0  0  0  0
    0.2654   -0.0298   -1.6461 H   0  0  0  0  0  0  0  0  0  0  0  0
   -1.5251   -2.0470   -4.8081 H   0  0  0  0  0  0  0  0  0  0  0  0
   -0.8892   -0.1222   -6.2607 H   0  0  0  0  0  0  0  0  0  0  0  0
    0.6695    1.9322   -2.8232 H   0  0  0  0  0  0  0  0  0  0  0  0
    2.9052    4.2270   -5.3806 H   0  0  0  0  0  0  0  0  0  0  0  0
   -0.7059    4.7074   -7.4259 H   0  0  0  0  0  0  0  0  0  0  0  0
   -1.5880    2.7716   -6.1935 H   0  0  0  0  0  0  0  0  0  0  0  0
    2.3315    1.9585   -4.6731 H   0  0  0  0  0  0  0  0  0  0  0  0
    0.4309    5.8828   -8.5765 H   0  0  0  0  0  0  0  0  0  0  0  0
    3.7371    6.1331   -8.4499 H   0  0  0  0  0  0  0  0  0  0  0  0
    5.8755    2.4187   -5.8258 H   0  0  0  0  0  0  0  0  0  0  0  0
    5.5234    3.9498   -4.8908 H   0  0  0  0  0  0  0  0  0  0  0  0
    4.4308    2.5868   -4.8553 H   0  0  0  0  0  0  0  0  0  0  0  0
    3.8433    2.3398    1.8729 H   0  0  0  0  0  0  0  0  0  0  0  0
    3.5708    1.8901    3.5978 H   0  0  0  0  0  0  0  0  0  0  0  0
    4.1343    0.6815    2.4248 H   0  0  0  0  0  0  0  0  0  0  0  0
  1 34  1  0  0  0  0
  2  1  1  0  0  0  0
  3  1  1  0  0  0  0
  3 33  1  1  0  0  0
  3 10  1  0  0  0  0
  4  2  1  0  0  0  0
  4  9  1  0  0  0  0
  4 35  1  6  0  0  0
  5  3  1  0  0  0  0
  5  4  1  0  0  0  0
  5 36  1  0  0  0  0
  5 37  1  0  0  0  0
  7  6  2  0  0  0  0
  8  6  1  0  0  0  0
  9  6  1  0  0  0  0
  9 38  1  0  0  0  0
  9 39  1  0  0  0  0
 10 40  1  0  0  0  0
 10 41  1  0  0  0  0
 11 10  1  0  0  0  0
 12 42  1  0  0  0  0
 13 11  1  0  0  0  0
 13 12  1  0  0  0  0
 14 13  2  0  0  0  0
 14 43  1  0  0  0  0
 15 14  1  0  0  0  0
 15 44  1  0  0  0  0
 16 15  2  0  0  0  0
 17 12  2  0  0  0  0
 17 16  1  0  0  0  0
 17 45  1  0  0  0  0
 18 46  1  0  0  0  0
 19 18  1  0  0  0  0
 20 19  2  0  0  0  0
 20 47  1  0  0  0  0
 21 20  1  0  0  0  0
 21 48  1  0  0  0  0
 22 16  1  0  0  0  0
 22 21  2  0  0  0  0
 23 18  2  0  0  0  0
 23 22  1  0  0  0  0
 23 49  1  0  0  0  0
 24 19  1  0  0  0  0
 25 24  2  0  0  0  0
 25 50  1  0  0  0  0
 26 24  1  0  0  0  0
 26 51  1  0  0  0  0
 27 26  1  0  0  0  0
 28 27  2  0  0  0  0
 29 27  1  0  0  0  0
 30 29  1  0  0  0  0
 30 52  1  0  0  0  0
 30 53  1  0  0  0  0
 30 54  1  0  0  0  0
 31  2  2  0  0  0  0
 32  8  1  0  0  0  0
 32 55  1  0  0  0  0
 32 56  1  0  0  0  0
 32 57  1  0  0  0  0
M  END
>  <DRUGBANK_ID>
DB04863

>  <COMMON_NAME>
Lefradafiban

>  <CAS_NUMBER>
149503-79-7

>  <UNII>
0R4888YXR5

>  <SYNONYMS>
Léfradafiban; Lefradafiban; Lefradafibán; Lefradafibanum

$$$$
