
 OpenBabel10282417123D

 73 78  0  0  0  0  0  0  0  0999 V2000
    0.9581   -0.0821   -0.0388 P   0  0  3  0  0  0  0  0  0  0  0  0
    2.5892   -1.6513    1.6519 P   0  0  3  0  0  0  0  0  0  0  0  0
   -0.1452    2.6335   -1.8060 O   0  0  0  0  0  0  0  0  0  0  0  0
    5.4443   -2.7889    0.3940 O   0  0  0  0  0  0  0  0  0  0  0  0
   -1.9465    3.5439   -4.8157 O   0  0  0  0  0  0  0  0  0  0  0  0
   -2.4638    1.2425   -3.6240 O   0  0  0  0  0  0  0  0  0  0  0  0
    6.3083   -2.9306   -2.5807 O   0  0  0  0  0  0  0  0  0  0  0  0
    5.3957   -5.2583   -1.9936 O   0  0  0  0  0  0  0  0  0  0  0  0
    0.8315   -0.6969   -1.5547 O   0  0  0  0  0  0  0  0  0  0  0  0
    3.8761   -0.6984    0.8949 O   0  0  0  0  0  0  0  0  0  0  0  0
    0.9581   -1.2590    1.2292 O   0  0  0  0  0  0  0  0  0  0  0  0
   -0.7719   -0.0821   -0.0388 O   0  0  0  0  0  0  0  0  0  0  0  0
    2.5065   -0.0821   -0.0388 O   0  0  0  0  0  0  0  0  0  0  0  0
    2.1995   -1.2404    3.0727 O   0  5  0  0  0  0  0  0  0  0  0  0
    4.0490   -2.0024    2.0302 O   0  0  0  0  0  0  0  0  0  0  0  0
    0.0213   -6.1253    2.6652 O   0  0  0  0  0  0  0  0  0  0  0  0
    0.0206    4.8436   -2.6348 N   0  0  0  0  0  0  0  0  0  0  0  0
    4.3169   -4.8409    1.0792 N   0  3  0  0  0  0  0  0  0  0  0  0
    0.5278    7.0209   -2.5460 N   0  0  0  0  0  0  0  0  0  0  0  0
    2.1600    3.8867   -3.3007 N   0  0  0  0  0  0  0  0  0  0  0  0
    3.8265    5.5747   -3.5672 N   0  0  0  0  0  0  0  0  0  0  0  0
    3.6248    7.7833   -3.3136 N   0  0  0  0  0  0  0  0  0  0  0  0
    0.0593   -4.5761    1.0451 N   0  0  0  0  0  0  0  0  0  0  0  0
   -0.8757    3.0118   -4.0415 C   0  0  2  0  0  0  0  0  0  0  0  0
   -1.0597    1.5397   -3.7425 C   0  0  1  0  0  0  0  0  0  0  0  0
   -0.7737    3.6318   -2.6479 C   0  0  1  0  0  0  0  0  0  0  0  0
   -0.3687    1.3364   -2.4062 C   0  0  1  0  0  0  0  0  0  0  0  0
    5.0432   -2.8474   -1.9302 C   0  0  1  0  0  0  0  0  0  0  0  0
    4.6859   -4.2107   -1.3341 C   0  0  2  0  0  0  0  0  0  0  0  0
    5.2687   -1.9593   -0.7224 C   0  0  1  0  0  0  0  0  0  0  0  0
    5.1764   -4.1169    0.1000 C   0  0  1  0  0  0  0  0  0  0  0  0
    0.9088    0.4561   -2.4792 C   0  0  0  0  0  0  0  0  0  0  0  0
    4.1328   -1.0824   -0.5544 C   0  0  0  0  0  0  0  0  0  0  0  0
    1.3444    4.9315   -2.9658 C   0  0  0  0  0  0  0  0  0  0  0  0
   -0.4249    6.1204   -2.3837 C   0  0  0  0  0  0  0  0  0  0  0  0
    1.6131    6.2843   -2.9023 C   0  0  0  0  0  0  0  0  0  0  0  0
    2.9646   -4.7288    1.0923 C   0  0  0  0  0  0  0  0  0  0  0  0
    4.9268   -5.6657    1.9592 C   0  0  0  0  0  0  0  0  0  0  0  0
    3.0017    6.6303   -3.2462 C   0  0  0  0  0  0  0  0  0  0  0  0
    2.1717   -5.4890    1.9446 C   0  0  0  0  0  0  0  0  0  0  0  0
    4.1883   -6.4668    2.8203 C   0  0  0  0  0  0  0  0  0  0  0  0
    3.3904    4.2396   -3.5838 C   0  0  0  0  0  0  0  0  0  0  0  0
    2.7999   -6.3836    2.8108 C   0  0  0  0  0  0  0  0  0  0  0  0
    5.0595    6.0975   -3.8503 C   0  0  0  0  0  0  0  0  0  0  0  0
    0.6793   -5.4240    1.9380 C   0  0  0  0  0  0  0  0  0  0  0  0
    4.9095    7.4589   -3.6836 C   0  0  0  0  0  0  0  0  0  0  0  0
    0.4748   -3.8687    0.4681 H   0  0  0  0  0  0  0  0  0  0  0  0
   -0.9502   -4.5214    1.1419 H   0  0  0  0  0  0  0  0  0  0  0  0
   -2.7747    3.1407   -4.4919 H   0  0  0  0  0  0  0  0  0  0  0  0
   -2.8181    1.6554   -2.8157 H   0  0  0  0  0  0  0  0  0  0  0  0
    6.9725   -2.6717   -1.9111 H   0  0  0  0  0  0  0  0  0  0  0  0
    6.2722   -4.8688   -2.2095 H   0  0  0  0  0  0  0  0  0  0  0  0
   -1.0288   -0.5985    0.7544 H   0  0  0  0  0  0  0  0  0  0  0  0
    0.0513    3.1406   -4.6062 H   0  0  0  0  0  0  0  0  0  0  0  0
   -0.6612    0.8897   -4.5238 H   0  0  0  0  0  0  0  0  0  0  0  0
   -1.7657    3.8733   -2.2406 H   0  0  0  0  0  0  0  0  0  0  0  0
   -1.1084    0.8720   -1.7730 H   0  0  0  0  0  0  0  0  0  0  0  0
    4.2764   -2.5147   -2.6547 H   0  0  0  0  0  0  0  0  0  0  0  0
    3.6129   -4.4178   -1.4153 H   0  0  0  0  0  0  0  0  0  0  0  0
    6.1195   -1.2842   -0.7814 H   0  0  0  0  0  0  0  0  0  0  0  0
    6.1749   -4.5429    0.1873 H   0  0  0  0  0  0  0  0  0  0  0  0
    1.8070    1.0503   -2.2442 H   0  0  0  0  0  0  0  0  0  0  0  0
    1.0576    0.0450   -3.4791 H   0  0  0  0  0  0  0  0  0  0  0  0
    3.2463   -1.6073   -0.9828 H   0  0  0  0  0  0  0  0  0  0  0  0
    4.2704   -0.1529   -1.1601 H   0  0  0  0  0  0  0  0  0  0  0  0
   -1.4449    6.3465   -2.0948 H   0  0  0  0  0  0  0  0  0  0  0  0
    2.5374   -4.0220    0.3986 H   0  0  0  0  0  0  0  0  0  0  0  0
    6.0119   -5.6915    1.9527 H   0  0  0  0  0  0  0  0  0  0  0  0
    4.6943   -7.1458    3.5015 H   0  0  0  0  0  0  0  0  0  0  0  0
    4.1214    3.4621   -3.8551 H   0  0  0  0  0  0  0  0  0  0  0  0
    2.2165   -7.0051    3.4897 H   0  0  0  0  0  0  0  0  0  0  0  0
    5.9053    5.4874   -4.1318 H   0  0  0  0  0  0  0  0  0  0  0  0
    5.6624    8.2265   -3.8109 H   0  0  0  0  0  0  0  0  0  0  0  0
  1  9  1  0  0  0  0
  1 11  1  0  0  0  0
  1 12  1  0  0  0  0
  1 13  2  0  0  0  0
  2 10  1  0  0  0  0
  2 11  1  0  0  0  0
  2 14  1  0  0  0  0
  2 15  2  0  0  0  0
  3 26  1  0  0  0  0
  3 27  1  0  0  0  0
  4 30  1  0  0  0  0
  4 31  1  0  0  0  0
  5 49  1  0  0  0  0
  6 50  1  0  0  0  0
  7 51  1  0  0  0  0
  8 52  1  0  0  0  0
  9 32  1  0  0  0  0
 10 33  1  0  0  0  0
 12 53  1  0  0  0  0
 16 45  2  0  0  0  0
 17 34  1  0  0  0  0
 17 35  1  0  0  0  0
 18 37  1  0  0  0  0
 18 38  2  0  0  0  0
 19 35  2  0  0  0  0
 19 36  1  0  0  0  0
 20 34  1  0  0  0  0
 20 42  2  0  0  0  0
 21 39  1  0  0  0  0
 21 42  1  0  0  0  0
 21 44  1  0  0  0  0
 22 39  2  0  0  0  0
 22 46  1  0  0  0  0
 23 45  1  0  0  0  0
 23 47  1  0  0  0  0
 23 48  1  0  0  0  0
 24  5  1  0  0  0  0
 24 25  1  0  0  0  0
 24 26  1  0  0  0  0
 24 54  1  6  0  0  0
 25  6  1  0  0  0  0
 25 27  1  0  0  0  0
 25 55  1  6  0  0  0
 26 56  1  1  0  0  0
 26 17  1  0  0  0  0
 27 32  1  0  0  0  0
 27 57  1  1  0  0  0
 28  7  1  0  0  0  0
 28 29  1  0  0  0  0
 28 30  1  0  0  0  0
 28 58  1  6  0  0  0
 29  8  1  0  0  0  0
 29 31  1  0  0  0  0
 29 59  1  6  0  0  0
 30 33  1  0  0  0  0
 30 60  1  6  0  0  0
 31 61  1  1  0  0  0
 31 18  1  0  0  0  0
 32 62  1  0  0  0  0
 32 63  1  0  0  0  0
 33 64  1  0  0  0  0
 33 65  1  0  0  0  0
 34 36  2  0  0  0  0
 35 66  1  0  0  0  0
 36 39  1  0  0  0  0
 37 40  2  0  0  0  0
 37 67  1  0  0  0  0
 38 41  1  0  0  0  0
 38 68  1  0  0  0  0
 40 43  1  0  0  0  0
 40 45  1  0  0  0  0
 41 43  2  0  0  0  0
 41 69  1  0  0  0  0
 42 70  1  0  0  0  0
 43 71  1  0  0  0  0
 44 46  2  0  0  0  0
 44 72  1  0  0  0  0
 46 73  1  0  0  0  0
M  CHG  2  14  -1  18   1
M  END
>  <DRUGBANK_ID>
DB02483

>  <SECONDARY_ACCESSION_NUMBERS>
EXPT01343

>  <COMMON_NAME>
Etheno-NAD

$$$$
