
 OpenBabel10282417113D

 31 32  0  0  0  0  0  0  0  0999 V2000
    1.4036    0.0015   -0.0131 C   0  0  0  0  0  0  0  0  0  0  0  0
    0.6845    1.2050   -0.0109 C   0  0  0  0  0  0  0  0  0  0  0  0
   -0.7080    1.0908   -0.0190 C   0  0  0  0  0  0  0  0  0  0  0  0
   -1.3834   -0.0802   -0.0018 N   0  0  0  0  0  0  0  0  0  0  0  0
   -0.6432   -1.2073    0.0027 C   0  0  0  0  0  0  0  0  0  0  0  0
    0.7377   -1.2182   -0.0078 C   0  0  0  0  0  0  0  0  0  0  0  0
    0.2862    4.7261   -1.0923 C   0  0  0  0  0  0  0  0  0  0  0  0
    0.9589    3.4111   -1.2129 C   0  0  0  0  0  0  0  0  0  0  0  0
    0.7342    5.7384   -0.2443 C   0  0  0  0  0  0  0  0  0  0  0  0
   -0.8410    4.9809   -1.8610 C   0  0  0  0  0  0  0  0  0  0  0  0
    1.1516    2.9888   -2.3573 O   0  0  0  0  0  0  0  0  0  0  0  0
   -0.0052    6.9091   -0.1119 C   0  0  0  0  0  0  0  0  0  0  0  0
   -1.5540    6.1338   -1.7873 N   0  0  0  0  0  0  0  0  0  0  0  0
   -1.1236    7.0674   -0.9099 C   0  0  0  0  0  0  0  0  0  0  0  0
    1.3548    2.5870    0.0479 C   0  0  0  0  0  0  0  0  0  0  0  0
    0.9417    3.2190    1.3933 C   0  0  0  0  0  0  0  0  0  0  0  0
    2.8948    2.4750    0.0346 C   0  0  0  0  0  0  0  0  0  0  0  0
    2.4892   -0.0214   -0.0150 H   0  0  0  0  0  0  0  0  0  0  0  0
   -1.3520    1.9669   -0.0230 H   0  0  0  0  0  0  0  0  0  0  0  0
   -1.2066   -2.1345    0.0150 H   0  0  0  0  0  0  0  0  0  0  0  0
    1.2909   -2.1502   -0.0096 H   0  0  0  0  0  0  0  0  0  0  0  0
    1.6544    5.6447    0.3199 H   0  0  0  0  0  0  0  0  0  0  0  0
   -1.2234    4.2503   -2.5706 H   0  0  0  0  0  0  0  0  0  0  0  0
    0.2950    7.6798    0.5899 H   0  0  0  0  0  0  0  0  0  0  0  0
   -1.7084    7.9822   -0.8732 H   0  0  0  0  0  0  0  0  0  0  0  0
    1.1504    2.5540    2.2375 H   0  0  0  0  0  0  0  0  0  0  0  0
    1.5004    4.1314    1.6080 H   0  0  0  0  0  0  0  0  0  0  0  0
   -0.1264    3.4660    1.4190 H   0  0  0  0  0  0  0  0  0  0  0  0
    3.2576    1.9214    0.9101 H   0  0  0  0  0  0  0  0  0  0  0  0
    3.2536    1.9534   -0.8622 H   0  0  0  0  0  0  0  0  0  0  0  0
    3.3742    3.4584    0.0445 H   0  0  0  0  0  0  0  0  0  0  0  0
  1  6  1  0  0  0  0
  1 18  1  0  0  0  0
  2  1  2  0  0  0  0
  2  3  1  0  0  0  0
  3  4  2  0  0  0  0
  3 19  1  0  0  0  0
  4  5  1  0  0  0  0
  5 20  1  0  0  0  0
  6  5  2  0  0  0  0
  6 21  1  0  0  0  0
  7  8  1  0  0  0  0
  7  9  1  0  0  0  0
  7 10  2  0  0  0  0
  8 15  1  0  0  0  0
  8 11  2  0  0  0  0
  9 12  2  0  0  0  0
  9 22  1  0  0  0  0
 10 13  1  0  0  0  0
 10 23  1  0  0  0  0
 12 14  1  0  0  0  0
 12 24  1  0  0  0  0
 13 14  2  0  0  0  0
 14 25  1  0  0  0  0
 15  2  1  0  0  0  0
 15 16  1  0  0  0  0
 15 17  1  0  0  0  0
 16 26  1  0  0  0  0
 16 27  1  0  0  0  0
 16 28  1  0  0  0  0
 17 29  1  0  0  0  0
 17 30  1  0  0  0  0
 17 31  1  0  0  0  0
M  END
>  <DRUGBANK_ID>
DB01011

>  <SECONDARY_ACCESSION_NUMBERS>
APRD01111; EXPT02271

>  <COMMON_NAME>
Metyrapone

>  <CAS_NUMBER>
54-36-4

>  <UNII>
ZS9KD92H6V

>  <SYNONYMS>
Metirapona; MÃ©tyrapone; Metyrapone; Metyraponum

$$$$
