
 OpenBabel10282417193D

 77 79  0  0  0  0  0  0  0  0999 V2000
    0.2663    0.4273   -2.2050 C   0  0  0  0  0  0  0  0  0  0  0  0
   -0.8094    0.9892   -1.6971 N   0  0  0  0  0  0  0  0  0  0  0  0
   -2.1132    0.4266   -1.8727 C   0  0  0  0  0  0  0  0  0  0  0  0
   -2.5668    0.5208   -0.5109 C   0  0  0  0  0  0  0  0  0  0  0  0
   -2.6538    1.9816    0.1647 O   0  0  0  0  0  0  0  0  0  0  0  0
   -3.7883    3.0478    0.1340 C   0  0  2  0  0  0  0  0  0  0  0  0
   -5.3249    2.5192    0.3923 C   0  0  1  0  0  0  0  0  0  0  0  0
   -4.8870    1.2598   -0.2054 C   0  0  0  0  0  0  0  0  0  0  0  0
   -4.2867    0.2603    1.0373 N   0  0  0  0  0  0  0  0  0  0  0  0
   -5.4194   -0.5682    1.2027 C   0  0  0  0  0  0  0  0  0  0  0  0
   -6.2863    0.4079    1.9484 C   0  0  0  0  0  0  0  0  0  0  0  0
   -6.5078    1.7401    1.1605 C   0  0  0  0  0  0  0  0  0  0  0  0
   -2.9421    0.1830    1.8705 C   0  0  0  0  0  0  0  0  0  0  0  0
   -2.0313    0.9874    2.1106 O   0  0  0  0  0  0  0  0  0  0  0  0
   -2.4314   -1.1230    1.8912 N   0  0  0  0  0  0  0  0  0  0  0  0
   -3.1570   -2.0588    2.6132 C   0  0  0  0  0  0  0  0  0  0  0  0
   -3.2363   -3.4718    2.0621 C   0  0  2  0  0  0  0  0  0  0  0  0
   -3.4930   -4.2635    3.3470 C   0  0  0  0  0  0  0  0  0  0  0  0
   -2.2418   -4.9967    3.8396 C   0  0  2  0  0  0  0  0  0  0  0  0
   -2.5799   -6.4746    3.8430 C   0  0  0  0  0  0  0  0  0  0  0  0
   -3.5436   -6.7450    4.8587 O   0  0  0  0  0  0  0  0  0  0  0  0
   -3.0615   -6.3934    6.1558 C   0  0  0  0  0  0  0  0  0  0  0  0
   -2.7739   -4.9017    6.2771 C   0  0  0  0  0  0  0  0  0  0  0  0
   -1.7905   -4.4839    5.2015 C   0  0  0  0  0  0  0  0  0  0  0  0
   -2.0987   -3.9461    1.2569 N   0  0  0  0  0  0  0  0  0  0  0  0
   -2.0144   -3.3585   -0.0716 C   0  0  0  0  0  0  0  0  0  0  0  0
   -5.9261    3.2765   -0.1283 H   0  0  0  0  0  0  0  0  0  0  0  0
   -3.5886    3.6700   -1.3370 C   0  0  0  0  0  0  0  0  0  0  0  0
   -2.4986    3.2038   -2.0875 C   0  0  0  0  0  0  0  0  0  0  0  0
   -2.4542    3.0173   -3.4814 C   0  0  0  0  0  0  0  0  0  0  0  0
   -3.3928    3.6625   -4.2042 C   0  0  0  0  0  0  0  0  0  0  0  0
   -4.3082    4.4524   -3.5075 C   0  0  0  0  0  0  0  0  0  0  0  0
   -4.4540    4.4275   -2.0884 C   0  0  0  0  0  0  0  0  0  0  0  0
   -1.4532    1.9197   -4.3912 Cl  0  0  0  0  0  0  0  0  0  0  0  0
    0.2099   -0.7090   -2.7329 O   0  0  0  0  0  0  0  0  0  0  0  0
    1.3778    1.1726   -2.1425 O   0  0  0  0  0  0  0  0  0  0  0  0
    1.4120    2.5000   -1.5611 C   0  0  0  0  0  0  0  0  0  0  0  0
   -0.6680    1.6354   -0.9146 H   0  0  0  0  0  0  0  0  0  0  0  0
   -2.8846    0.9263   -2.4567 H   0  0  0  0  0  0  0  0  0  0  0  0
   -2.1292   -0.6100   -2.2158 H   0  0  0  0  0  0  0  0  0  0  0  0
   -3.4358   -0.1518   -0.6142 H   0  0  0  0  0  0  0  0  0  0  0  0
   -1.8102   -0.0518    0.0239 H   0  0  0  0  0  0  0  0  0  0  0  0
   -3.5748    3.8394    0.8780 H   0  0  0  0  0  0  0  0  0  0  0  0
   -5.6358    0.7283   -0.8020 H   0  0  0  0  0  0  0  0  0  0  0  0
   -4.2917    1.4630   -1.0873 H   0  0  0  0  0  0  0  0  0  0  0  0
   -5.4161   -1.5616    1.6128 H   0  0  0  0  0  0  0  0  0  0  0  0
   -5.7439   -0.8182    0.1841 H   0  0  0  0  0  0  0  0  0  0  0  0
   -5.7828    0.6800    2.8815 H   0  0  0  0  0  0  0  0  0  0  0  0
   -7.2191   -0.1068    2.1747 H   0  0  0  0  0  0  0  0  0  0  0  0
   -7.1383    2.3997    1.7539 H   0  0  0  0  0  0  0  0  0  0  0  0
   -7.1916    1.4173    0.3359 H   0  0  0  0  0  0  0  0  0  0  0  0
   -1.4183   -1.1584    2.0423 H   0  0  0  0  0  0  0  0  0  0  0  0
   -2.9133   -1.9164    3.6675 H   0  0  0  0  0  0  0  0  0  0  0  0
   -4.1489   -1.7066    2.6170 H   0  0  0  0  0  0  0  0  0  0  0  0
   -4.1405   -3.5769    1.4446 H   0  0  0  0  0  0  0  0  0  0  0  0
   -3.8588   -3.5880    4.1371 H   0  0  0  0  0  0  0  0  0  0  0  0
   -4.3552   -4.9231    3.2002 H   0  0  0  0  0  0  0  0  0  0  0  0
   -1.3745   -4.8700    3.1956 H   0  0  0  0  0  0  0  0  0  0  0  0
   -3.0107   -6.7574    2.8724 H   0  0  0  0  0  0  0  0  0  0  0  0
   -1.6820   -7.0787    3.9911 H   0  0  0  0  0  0  0  0  0  0  0  0
   -2.1580   -6.9759    6.3624 H   0  0  0  0  0  0  0  0  0  0  0  0
   -3.8294   -6.6756    6.8783 H   0  0  0  0  0  0  0  0  0  0  0  0
   -2.3670   -4.6608    7.2628 H   0  0  0  0  0  0  0  0  0  0  0  0
   -3.7056   -4.3349    6.1628 H   0  0  0  0  0  0  0  0  0  0  0  0
   -0.8042   -4.9123    5.4179 H   0  0  0  0  0  0  0  0  0  0  0  0
   -1.6589   -3.3941    5.1883 H   0  0  0  0  0  0  0  0  0  0  0  0
   -1.2349   -3.6923    1.7327 H   0  0  0  0  0  0  0  0  0  0  0  0
   -1.8579   -2.2843   -0.0376 H   0  0  0  0  0  0  0  0  0  0  0  0
   -1.1353   -3.7659   -0.5794 H   0  0  0  0  0  0  0  0  0  0  0  0
   -2.9014   -3.5678   -0.6721 H   0  0  0  0  0  0  0  0  0  0  0  0
   -1.7426    2.8280   -1.4552 H   0  0  0  0  0  0  0  0  0  0  0  0
   -3.3530    3.5584   -5.2834 H   0  0  0  0  0  0  0  0  0  0  0  0
   -4.9449    5.0780   -4.1128 H   0  0  0  0  0  0  0  0  0  0  0  0
   -5.2481    4.9886   -1.6138 H   0  0  0  0  0  0  0  0  0  0  0  0
    0.7393    3.2121   -2.0572 H   0  0  0  0  0  0  0  0  0  0  0  0
    1.2025    2.4598   -0.4865 H   0  0  0  0  0  0  0  0  0  0  0  0
    2.4352    2.8530   -1.6937 H   0  0  0  0  0  0  0  0  0  0  0  0
  1  2  1  0  0  0  0
  1 35  2  0  0  0  0
  1 36  1  0  0  0  0
  2  3  1  0  0  0  0
  2 38  1  0  0  0  0
  3  4  1  0  0  0  0
  3 39  1  0  0  0  0
  3 40  1  0  0  0  0
  4  5  1  0  0  0  0
  4 41  1  0  0  0  0
  4 42  1  0  0  0  0
  6 28  1  0  0  0  0
  6 43  1  1  0  0  0
  6  7  1  0  0  0  0
  6  5  1  0  0  0  0
  7  8  1  0  0  0  0
  7 12  1  0  0  0  0
  7 27  1  6  0  0  0
  8 44  1  0  0  0  0
  8 45  1  0  0  0  0
  9  8  1  0  0  0  0
  9 10  1  0  0  0  0
  9 13  1  0  0  0  0
 10 46  1  0  0  0  0
 10 47  1  0  0  0  0
 11 10  1  0  0  0  0
 11 48  1  0  0  0  0
 11 49  1  0  0  0  0
 12 11  1  0  0  0  0
 12 50  1  0  0  0  0
 12 51  1  0  0  0  0
 13 14  2  0  0  0  0
 13 15  1  0  0  0  0
 15 16  1  0  0  0  0
 15 52  1  0  0  0  0
 16 53  1  0  0  0  0
 16 54  1  0  0  0  0
 17 25  1  0  0  0  0
 17 55  1  6  0  0  0
 17 18  1  0  0  0  0
 17 16  1  0  0  0  0
 18 56  1  0  0  0  0
 18 57  1  0  0  0  0
 19 24  1  0  0  0  0
 19 58  1  6  0  0  0
 19 18  1  0  0  0  0
 20 19  1  0  0  0  0
 20 21  1  0  0  0  0
 20 59  1  0  0  0  0
 20 60  1  0  0  0  0
 22 21  1  0  0  0  0
 22 61  1  0  0  0  0
 22 62  1  0  0  0  0
 23 22  1  0  0  0  0
 23 63  1  0  0  0  0
 23 64  1  0  0  0  0
 24 23  1  0  0  0  0
 24 65  1  0  0  0  0
 24 66  1  0  0  0  0
 25 26  1  0  0  0  0
 25 67  1  0  0  0  0
 26 68  1  0  0  0  0
 26 69  1  0  0  0  0
 26 70  1  0  0  0  0
 28 29  1  0  0  0  0
 28 33  2  0  0  0  0
 29 30  2  0  0  0  0
 29 71  1  0  0  0  0
 30 31  1  0  0  0  0
 30 34  1  0  0  0  0
 31 32  2  0  0  0  0
 31 72  1  0  0  0  0
 32 33  1  0  0  0  0
 32 73  1  0  0  0  0
 33 74  1  0  0  0  0
 36 37  1  0  0  0  0
 37 75  1  0  0  0  0
 37 76  1  0  0  0  0
 37 77  1  0  0  0  0
M  END
>  <DRUGBANK_ID>
DB12416

>  <COMMON_NAME>
VTP-27999

>  <CAS_NUMBER>
942142-51-0

>  <UNII>
254XY8NV84

$$$$
