
 OpenBabel10282417143D

 12 11  0  0  0  0  0  0  0  0999 V2000
    0.9570    0.0821    0.0065 C   0  0  0  0  0  0  0  0  0  0  0  0
    0.4489   -0.8607    1.0842 C   0  0  3  0  0  0  0  0  0  0  0  0
    0.9415   -0.4274    2.4667 C   0  0  0  0  0  0  0  0  0  0  0  0
   -0.9748   -0.8923    1.0033 O   0  0  0  0  0  0  0  0  0  0  0  0
    0.2392   -0.1021    3.4131 O   0  0  0  0  0  0  0  0  0  0  0  0
    2.2860   -0.4156    2.5759 O   0  0  0  0  0  0  0  0  0  0  0  0
    0.5985    1.1021    0.1861 H   0  0  0  0  0  0  0  0  0  0  0  0
    0.5791   -0.2196   -0.9761 H   0  0  0  0  0  0  0  0  0  0  0  0
    2.0500    0.1056   -0.0297 H   0  0  0  0  0  0  0  0  0  0  0  0
    0.8021   -1.8811    0.9023 H   0  0  0  0  0  0  0  0  0  0  0  0
   -1.2959   -0.0254    1.3127 H   0  0  0  0  0  0  0  0  0  0  0  0
    2.4615   -0.1181    3.4939 H   0  0  0  0  0  0  0  0  0  0  0  0
  1  7  1  0  0  0  0
  1  8  1  0  0  0  0
  1  9  1  0  0  0  0
  2  1  1  0  0  0  0
  2 10  1  0  0  0  0
  3  2  1  0  0  0  0
  4  2  1  0  0  0  0
  4 11  1  0  0  0  0
  5  3  2  0  0  0  0
  6  3  1  0  0  0  0
  6 12  1  0  0  0  0
M  END
>  <DRUGBANK_ID>
DB04398

>  <SECONDARY_ACCESSION_NUMBERS>
EXPT01996; DB09294

>  <COMMON_NAME>
Lactic acid

>  <CAS_NUMBER>
50-21-5

>  <UNII>
3B8D35Y7S4

>  <SYNONYMS>
(±)-2-hydroxypropanoic acid; 2-Hydroxypropanoic acid; 2-Hydroxypropionic acid; ácido láctico; Acidum lacticum; DL- lactic acid; DL-Lactic Acid; DL-Milchsäure; Lactic acid; Lacticum acidum; Milchsäure; Milk acid; rac-lactic acid; α-hydroxypropanoic acid; α-hydroxypropionic acid

$$$$
