708
 OpenBabel10282417103D

 57 59  0  0  0  0  0  0  0  0999 V2000
   -0.7717   -0.0271    0.9371 S   0  0  0  0  0  0  0  0  0  0  0  0
   -2.8785    1.3226   -4.7166 O   0  0  0  0  0  0  0  0  0  0  0  0
   -5.7760    0.5807   -0.0079 O   0  0  0  0  0  0  0  0  0  0  0  0
   -2.2331    2.2855   -1.1027 N   0  0  0  0  0  0  0  0  0  0  0  0
   -5.7972    0.1669   -2.3044 N   0  0  0  0  0  0  0  0  0  0  0  0
   -4.4510    0.8836   -2.5543 C   0  0  0  0  0  0  0  0  0  0  0  0
   -4.5753    2.3744   -2.0079 C   0  0  0  0  0  0  0  0  0  0  0  0
   -3.3440    0.1887   -1.7511 C   0  0  0  0  0  0  0  0  0  0  0  0
   -3.2685    3.1453   -1.6592 C   0  0  0  0  0  0  0  0  0  0  0  0
   -2.0852    1.0206   -1.8413 C   0  0  0  0  0  0  0  0  0  0  0  0
   -4.0665    0.7732   -4.1373 C   0  0  0  0  0  0  0  0  0  0  0  0
   -0.9383    2.9827   -1.0963 C   0  0  0  0  0  0  0  0  0  0  0  0
   -6.4014   -0.4975   -3.4188 C   0  0  0  0  0  0  0  0  0  0  0  0
   -6.3465    0.0919   -1.0140 C   0  0  0  0  0  0  0  0  0  0  0  0
   -0.1500    2.6461    0.1752 C   0  0  0  0  0  0  0  0  0  0  0  0
   -7.6497   -0.6377   -0.7402 C   0  0  0  0  0  0  0  0  0  0  0  0
   -5.8119   -1.6279   -3.9950 C   0  0  0  0  0  0  0  0  0  0  0  0
   -7.5355    0.0349   -4.0297 C   0  0  0  0  0  0  0  0  0  0  0  0
    0.2713    1.2069    0.3148 C   0  0  0  0  0  0  0  0  0  0  0  0
   -2.9064    2.7201   -4.6799 C   0  0  0  0  0  0  0  0  0  0  0  0
   -8.8825    0.0229   -1.3140 C   0  0  0  0  0  0  0  0  0  0  0  0
   -6.3754   -2.2259   -5.1250 C   0  0  0  0  0  0  0  0  0  0  0  0
   -8.2230   -0.6982   -4.9989 C   0  0  0  0  0  0  0  0  0  0  0  0
    1.5179    0.6685    0.0732 C   0  0  0  0  0  0  0  0  0  0  0  0
   -7.6179   -1.8028   -5.5842 C   0  0  0  0  0  0  0  0  0  0  0  0
    1.4936   -0.7552    0.0459 C   0  0  0  0  0  0  0  0  0  0  0  0
    0.2218   -1.2486    0.2407 C   0  0  0  0  0  0  0  0  0  0  0  0
   -5.2074    2.9488   -2.6968 H   0  0  0  0  0  0  0  0  0  0  0  0
   -5.1356    2.3939   -1.0695 H   0  0  0  0  0  0  0  0  0  0  0  0
   -3.6064    0.0578   -0.6929 H   0  0  0  0  0  0  0  0  0  0  0  0
   -3.1629   -0.8288   -2.1181 H   0  0  0  0  0  0  0  0  0  0  0  0
   -2.8027    3.7113   -2.4688 H   0  0  0  0  0  0  0  0  0  0  0  0
   -3.5327    3.9942   -1.0124 H   0  0  0  0  0  0  0  0  0  0  0  0
   -1.2755    0.4032   -1.4805 H   0  0  0  0  0  0  0  0  0  0  0  0
   -1.7594    1.1911   -2.8615 H   0  0  0  0  0  0  0  0  0  0  0  0
   -3.9176   -0.2809   -4.3701 H   0  0  0  0  0  0  0  0  0  0  0  0
   -4.9055    1.1476   -4.7304 H   0  0  0  0  0  0  0  0  0  0  0  0
   -1.0887    4.0737   -1.0992 H   0  0  0  0  0  0  0  0  0  0  0  0
   -0.3717    2.7787   -2.0183 H   0  0  0  0  0  0  0  0  0  0  0  0
   -0.7316    2.9657    1.0449 H   0  0  0  0  0  0  0  0  0  0  0  0
    0.7530    3.2675    0.1433 H   0  0  0  0  0  0  0  0  0  0  0  0
   -7.5526   -1.6836   -1.0425 H   0  0  0  0  0  0  0  0  0  0  0  0
   -7.7853   -0.6442    0.3521 H   0  0  0  0  0  0  0  0  0  0  0  0
   -4.8694   -2.0142   -3.6152 H   0  0  0  0  0  0  0  0  0  0  0  0
   -7.9495    0.9842   -3.6956 H   0  0  0  0  0  0  0  0  0  0  0  0
   -3.5845    3.2132   -5.3707 H   0  0  0  0  0  0  0  0  0  0  0  0
   -3.4129    2.9151   -3.7864 H   0  0  0  0  0  0  0  0  0  0  0  0
   -1.9067    3.1511   -4.5932 H   0  0  0  0  0  0  0  0  0  0  0  0
   -8.9698   -0.1708   -2.3689 H   0  0  0  0  0  0  0  0  0  0  0  0
   -9.8026   -0.4115   -0.9225 H   0  0  0  0  0  0  0  0  0  0  0  0
   -8.8761    1.1069   -1.1631 H   0  0  0  0  0  0  0  0  0  0  0  0
   -5.8548   -3.0364   -5.6274 H   0  0  0  0  0  0  0  0  0  0  0  0
   -9.2334   -0.4128   -5.2811 H   0  0  0  0  0  0  0  0  0  0  0  0
    2.3856    1.2783   -0.1362 H   0  0  0  0  0  0  0  0  0  0  0  0
   -8.1091   -2.3225   -6.4020 H   0  0  0  0  0  0  0  0  0  0  0  0
    2.3491   -1.3787   -0.1727 H   0  0  0  0  0  0  0  0  0  0  0  0
   -0.1259   -2.2687    0.1311 H   0  0  0  0  0  0  0  0  0  0  0  0
  1 19  1  0  0  0  0
  1 27  1  0  0  0  0
  2 11  1  0  0  0  0
  2 20  1  0  0  0  0
  3 14  2  0  0  0  0
  4  9  1  0  0  0  0
  4 10  1  0  0  0  0
  4 12  1  0  0  0  0
  5  6  1  0  0  0  0
  5 13  1  0  0  0  0
  5 14  1  0  0  0  0
  6  7  1  0  0  0  0
  6  8  1  0  0  0  0
  6 11  1  0  0  0  0
  7  9  1  0  0  0  0
  7 28  1  0  0  0  0
  7 29  1  0  0  0  0
  8 10  1  0  0  0  0
  8 30  1  0  0  0  0
  8 31  1  0  0  0  0
  9 32  1  0  0  0  0
  9 33  1  0  0  0  0
 10 34  1  0  0  0  0
 10 35  1  0  0  0  0
 11 36  1  0  0  0  0
 11 37  1  0  0  0  0
 12 15  1  0  0  0  0
 12 38  1  0  0  0  0
 12 39  1  0  0  0  0
 13 17  2  0  0  0  0
 13 18  1  0  0  0  0
 14 16  1  0  0  0  0
 15 19  1  0  0  0  0
 15 40  1  0  0  0  0
 15 41  1  0  0  0  0
 16 21  1  0  0  0  0
 16 42  1  0  0  0  0
 16 43  1  0  0  0  0
 17 22  1  0  0  0  0
 17 44  1  0  0  0  0
 18 23  2  0  0  0  0
 18 45  1  0  0  0  0
 19 24  2  0  0  0  0
 20 46  1  0  0  0  0
 20 47  1  0  0  0  0
 20 48  1  0  0  0  0
 21 49  1  0  0  0  0
 21 50  1  0  0  0  0
 21 51  1  0  0  0  0
 22 25  2  0  0  0  0
 22 52  1  0  0  0  0
 23 25  1  0  0  0  0
 23 53  1  0  0  0  0
 24 26  1  0  0  0  0
 24 54  1  0  0  0  0
 25 55  1  0  0  0  0
 26 27  2  0  0  0  0
 26 56  1  0  0  0  0
 27 57  1  0  0  0  0
M  END
>  <DRUGBANK_ID>
DB00708

>  <SECONDARY_ACCESSION_NUMBERS>
APRD00671; DB05563

>  <COMMON_NAME>
Sufentanil

>  <CAS_NUMBER>
56030-54-7

>  <UNII>
AFE2YW0IIZ

>  <SYNONYMS>
N-(4-(Methoxymethyl)-1-(2-(2-thienyl)ethyl)-4-piperidinyl)-N-phenylpropanamide; N-(4-(Methoxymethyl)-1-(2-(2-thienyl)ethyl)-4-piperidyl)propionanilide; Sufentanil; Sufentanilo; Sufentanilum; Sufentanyl

$$$$
