
 OpenBabel10282417173D

 26 26  0  0  1  0  0  0  0  0999 V2000
    1.6717    1.2303    0.0220 C   0  0  0  0  0  0  0  0  0  0  0  0
    1.6040   -1.1608   -0.2362 C   0  0  0  0  0  0  0  0  0  0  0  0
    0.2725    1.2509    0.0061 C   0  0  0  0  0  0  0  0  0  0  0  0
    0.2197   -1.1561   -0.1446 C   0  0  0  0  0  0  0  0  0  0  0  0
    4.3580   -0.7547    1.3444 C   0  0  0  0  0  0  0  0  0  0  0  0
    4.4896   -0.7067   -1.2187 C   0  0  0  0  0  0  0  0  0  0  0  0
    2.3537    0.0098   -0.0498 C   0  0  0  0  0  0  0  0  0  0  0  0
    3.8749   -0.0610    0.0455 C   0  0  1  0  0  0  0  0  0  0  0  0
   -0.4443    0.0549   -0.0300 C   0  0  0  0  0  0  0  0  0  0  0  0
    4.0187   -2.2199    1.4599 C   0  0  0  0  0  0  0  0  0  0  0  0
   -2.1614    0.0649    0.0282 Cl  0  0  0  0  0  0  0  0  0  0  0  0
    4.0788   -0.0081   -2.4404 N   0  0  0  0  0  0  0  0  0  0  0  0
    4.7402   -3.1486    1.1249 O   0  0  0  0  0  0  0  0  0  0  0  0
    2.7649   -2.4537    1.8859 O   0  0  0  0  0  0  0  0  0  0  0  0
    4.2579    0.9703    0.0963 H   0  0  0  0  0  0  0  0  0  0  0  0
    2.2177    2.1711    0.0698 H   0  0  0  0  0  0  0  0  0  0  0  0
    2.0998   -2.1110   -0.4098 H   0  0  0  0  0  0  0  0  0  0  0  0
   -0.2536    2.2007    0.0317 H   0  0  0  0  0  0  0  0  0  0  0  0
   -0.3167   -2.0995   -0.1623 H   0  0  0  0  0  0  0  0  0  0  0  0
    5.4522   -0.6866    1.4051 H   0  0  0  0  0  0  0  0  0  0  0  0
    3.9757   -0.2389    2.2339 H   0  0  0  0  0  0  0  0  0  0  0  0
    5.5824   -0.6840   -1.1544 H   0  0  0  0  0  0  0  0  0  0  0  0
    4.1927   -1.7572   -1.3031 H   0  0  0  0  0  0  0  0  0  0  0  0
    4.3879   -0.5355   -3.2549 H   0  0  0  0  0  0  0  0  0  0  0  0
    3.0573    0.0053   -2.4923 H   0  0  0  0  0  0  0  0  0  0  0  0
    2.5568   -3.3733    1.6171 H   0  0  0  0  0  0  0  0  0  0  0  0
  1 16  1  0  0  0  0
  2 17  1  0  0  0  0
  3  1  1  0  0  0  0
  3 18  1  0  0  0  0
  4  2  2  0  0  0  0
  4 19  1  0  0  0  0
  5 20  1  0  0  0  0
  5 21  1  0  0  0  0
  6 22  1  0  0  0  0
  6 23  1  0  0  0  0
  7  1  2  0  0  0  0
  7  2  1  0  0  0  0
  8  5  1  0  0  0  0
  8  6  1  0  0  0  0
  8  7  1  0  0  0  0
  8 15  1  1  0  0  0
  9  3  2  0  0  0  0
  9  4  1  0  0  0  0
 10  5  1  0  0  0  0
 11  9  1  0  0  0  0
 12  6  1  0  0  0  0
 12 24  1  0  0  0  0
 12 25  1  0  0  0  0
 13 10  2  0  0  0  0
 14 10  1  0  0  0  0
 14 26  1  0  0  0  0
M  END
>  <DRUGBANK_ID>
DB08891

>  <COMMON_NAME>
Arbaclofen

>  <CAS_NUMBER>
69308-37-8

>  <UNII>
NYU6UTW25B

>  <SYNONYMS>
(R)-4-amino-3-(4-chlorophenyl)butanÂ­oic acid; (R)-Baclofen; Arbaclofen

$$$$
