
 OpenBabel10282417193D

 64 67  0  0  1  0  0  0  0  0999 V2000
   -2.1769   -0.1749   -0.1048 C   0  0  0  0  0  0  0  0  0  0  0  0
   -1.1383   -0.0811    0.9811 C   0  0  1  0  0  0  0  0  0  0  0  0
   -0.1269   -1.2419    0.7187 C   0  0  0  0  0  0  0  0  0  0  0  0
    0.8763   -1.0543   -0.3639 N   0  0  0  0  0  0  0  0  0  0  0  0
    1.6280    0.1608   -0.0458 C   0  0  0  0  0  0  0  0  0  0  0  0
    0.6972    1.3703    0.1943 C   0  0  0  0  0  0  0  0  0  0  0  0
   -0.4543    1.2377    1.1017 N   0  0  0  0  0  0  0  0  0  0  0  0
    0.5154   -1.2636   -1.8163 C   0  0  0  0  0  0  0  0  0  0  0  0
   -0.2947   -0.2218   -2.6401 C   0  0  0  0  0  0  0  0  0  0  0  0
    0.1446    1.1063   -2.7270 C   0  0  0  0  0  0  0  0  0  0  0  0
   -0.8034    2.1488   -2.6257 C   0  0  0  0  0  0  0  0  0  0  0  0
   -2.1694    1.8834   -2.7960 C   0  0  0  0  0  0  0  0  0  0  0  0
   -2.5767    0.5659   -3.0672 C   0  0  0  0  0  0  0  0  0  0  0  0
   -1.6451   -0.4884   -2.9915 C   0  0  0  0  0  0  0  0  0  0  0  0
   -3.1309    3.0163   -2.9794 C   0  0  0  0  0  0  0  0  0  0  0  0
   -3.6234    3.0723   -4.4220 C   0  0  0  0  0  0  0  0  0  0  0  0
   -4.8494    3.1348   -4.6526 O   0  0  0  0  0  0  0  0  0  0  0  0
   -2.6750    3.2037   -5.4336 N   0  0  0  0  0  0  0  0  0  0  0  0
   -2.9915    3.9668   -6.6173 C   0  0  0  0  0  0  0  0  0  0  0  0
   -3.0186    3.0848   -7.8544 C   0  0  0  0  0  0  0  0  0  0  0  0
   -1.7303    2.2612   -8.0007 C   0  0  3  0  0  0  0  0  0  0  0  0
   -1.4571    1.4797   -6.7357 C   0  0  0  0  0  0  0  0  0  0  0  0
   -1.4306    2.4461   -5.5696 C   0  0  0  0  0  0  0  0  0  0  0  0
   -1.9017    1.3649   -9.1252 N   0  0  0  0  0  0  0  0  0  0  0  0
   -1.0057    1.3161  -10.1705 C   0  0  0  0  0  0  0  0  0  0  0  0
    0.3641    1.1087   -9.9778 C   0  0  0  0  0  0  0  0  0  0  0  0
    1.2341    1.0009  -11.0679 C   0  0  0  0  0  0  0  0  0  0  0  0
    0.7348    1.0894  -12.3646 C   0  0  0  0  0  0  0  0  0  0  0  0
   -0.6274    1.2767  -12.5558 C   0  0  0  0  0  0  0  0  0  0  0  0
   -1.4899    1.4169  -11.4756 C   0  0  0  0  0  0  0  0  0  0  0  0
   -1.1232    1.2927  -13.8001 F   0  0  0  0  0  0  0  0  0  0  0  0
   -2.9579    0.5797   -0.1821 H   0  0  0  0  0  0  0  0  0  0  0  0
   -1.5609    0.0111   -0.9312 H   0  0  0  0  0  0  0  0  0  0  0  0
   -2.5891   -1.1827   -0.2594 H   0  0  0  0  0  0  0  0  0  0  0  0
   -1.7029   -0.2274    1.9029 H   0  0  0  0  0  0  0  0  0  0  0  0
    0.4271   -1.3323    1.6656 H   0  0  0  0  0  0  0  0  0  0  0  0
   -0.6419   -2.2000    0.6000 H   0  0  0  0  0  0  0  0  0  0  0  0
    2.2021   -0.0002    0.8783 H   0  0  0  0  0  0  0  0  0  0  0  0
    2.3901    0.3442   -0.8144 H   0  0  0  0  0  0  0  0  0  0  0  0
    1.2809    2.2886    0.3230 H   0  0  0  0  0  0  0  0  0  0  0  0
    0.1774    1.5770   -0.6972 H   0  0  0  0  0  0  0  0  0  0  0  0
   -0.1118    1.3519    2.0475 H   0  0  0  0  0  0  0  0  0  0  0  0
    1.4532   -1.4186   -2.3648 H   0  0  0  0  0  0  0  0  0  0  0  0
   -0.0116   -2.2245   -1.8753 H   0  0  0  0  0  0  0  0  0  0  0  0
    1.1875    1.3569   -2.5424 H   0  0  0  0  0  0  0  0  0  0  0  0
   -0.4719    3.1611   -2.3897 H   0  0  0  0  0  0  0  0  0  0  0  0
   -3.6336    0.3577   -3.2300 H   0  0  0  0  0  0  0  0  0  0  0  0
   -2.0541   -1.4935   -2.9022 H   0  0  0  0  0  0  0  0  0  0  0  0
   -3.9783    2.9122   -2.2863 H   0  0  0  0  0  0  0  0  0  0  0  0
   -2.6750    3.9890   -2.7429 H   0  0  0  0  0  0  0  0  0  0  0  0
   -2.1905    4.7101   -6.7090 H   0  0  0  0  0  0  0  0  0  0  0  0
   -3.9310    4.5122   -6.4922 H   0  0  0  0  0  0  0  0  0  0  0  0
   -3.1467    3.7122   -8.7412 H   0  0  0  0  0  0  0  0  0  0  0  0
   -3.8828    2.4106   -7.7984 H   0  0  0  0  0  0  0  0  0  0  0  0
   -0.8878    2.9450   -8.1693 H   0  0  0  0  0  0  0  0  0  0  0  0
   -2.2233    0.7097   -6.5647 H   0  0  0  0  0  0  0  0  0  0  0  0
   -0.4959    0.9515   -6.7826 H   0  0  0  0  0  0  0  0  0  0  0  0
   -1.2401    1.7797   -4.7692 H   0  0  0  0  0  0  0  0  0  0  0  0
   -0.6008    3.1570   -5.6181 H   0  0  0  0  0  0  0  0  0  0  0  0
   -2.6136    0.6430   -9.0750 H   0  0  0  0  0  0  0  0  0  0  0  0
    0.7626    0.9966   -8.9732 H   0  0  0  0  0  0  0  0  0  0  0  0
    2.2932    0.8234  -10.9026 H   0  0  0  0  0  0  0  0  0  0  0  0
    1.3916    1.0054  -13.2236 H   0  0  0  0  0  0  0  0  0  0  0  0
   -2.5396    1.6250  -11.6580 H   0  0  0  0  0  0  0  0  0  0  0  0
  1 32  1  0  0  0  0
  1 33  1  0  0  0  0
  1 34  1  0  0  0  0
  2  1  1  0  0  0  0
  2  3  1  0  0  0  0
  2  7  1  0  0  0  0
  2 35  1  1  0  0  0
  3  4  1  0  0  0  0
  3 36  1  0  0  0  0
  3 37  1  0  0  0  0
  4  5  1  0  0  0  0
  4  8  1  0  0  0  0
  5  6  1  0  0  0  0
  5 38  1  0  0  0  0
  5 39  1  0  0  0  0
  6  7  1  0  0  0  0
  6 40  1  0  0  0  0
  6 41  1  0  0  0  0
  7 42  1  0  0  0  0
  8  9  1  0  0  0  0
  8 43  1  0  0  0  0
  8 44  1  0  0  0  0
  9 10  2  0  0  0  0
  9 14  1  0  0  0  0
 10 11  1  0  0  0  0
 10 45  1  0  0  0  0
 11 12  2  0  0  0  0
 11 46  1  0  0  0  0
 12 13  1  0  0  0  0
 12 15  1  0  0  0  0
 13 14  2  0  0  0  0
 13 47  1  0  0  0  0
 14 48  1  0  0  0  0
 15 16  1  0  0  0  0
 15 49  1  0  0  0  0
 15 50  1  0  0  0  0
 16 17  2  0  0  0  0
 16 18  1  0  0  0  0
 18 19  1  0  0  0  0
 18 23  1  0  0  0  0
 19 20  1  0  0  0  0
 19 51  1  0  0  0  0
 19 52  1  0  0  0  0
 20 21  1  0  0  0  0
 20 53  1  0  0  0  0
 20 54  1  0  0  0  0
 21 22  1  0  0  0  0
 21 24  1  0  0  0  0
 21 55  1  0  0  0  0
 22 23  1  0  0  0  0
 22 56  1  0  0  0  0
 22 57  1  0  0  0  0
 23 58  1  0  0  0  0
 23 59  1  0  0  0  0
 24 25  1  0  0  0  0
 24 60  1  0  0  0  0
 25 26  2  0  0  0  0
 25 30  1  0  0  0  0
 26 27  1  0  0  0  0
 26 61  1  0  0  0  0
 27 28  2  0  0  0  0
 27 62  1  0  0  0  0
 28 29  1  0  0  0  0
 28 63  1  0  0  0  0
 29 30  2  0  0  0  0
 29 31  1  0  0  0  0
 30 64  1  0  0  0  0
M  END
>  <DRUGBANK_ID>
DB12567

>  <COMMON_NAME>
Camicinal

>  <CAS_NUMBER>
923565-21-3

>  <UNII>
3C8348951H

>  <SYNONYMS>
Camicinal

$$$$
