
 OpenBabel10282417193D

 52 53  0  0  0  0  0  0  0  0999 V2000
    1.1537    5.2074    2.9429 C   0  0  0  0  0  0  0  0  0  0  0  0
    1.5232    6.4455    3.4374 C   0  0  0  0  0  0  0  0  0  0  0  0
    1.1425    7.6211    2.7748 C   0  0  0  0  0  0  0  0  0  0  0  0
    0.4215    7.5700    1.5790 C   0  0  0  0  0  0  0  0  0  0  0  0
    0.1293    6.3292    1.0624 C   0  0  0  0  0  0  0  0  0  0  0  0
    0.4363    5.1672    1.7545 C   0  0  0  0  0  0  0  0  0  0  0  0
    0.0182    3.9137    1.0971 C   0  0  0  0  0  0  0  0  0  0  0  0
   -1.5142    3.5150    1.1578 C   0  0  2  0  0  0  0  0  0  0  0  0
   -1.8296    2.5027    0.0057 C   0  0  1  0  0  0  0  0  0  0  0  0
   -0.6149    1.6041   -0.3181 C   0  0  0  0  0  0  0  0  0  0  0  0
   -0.1985    0.7100    0.8419 C   0  0  0  0  0  0  0  0  0  0  0  0
    0.3891   -1.4988    1.6105 C   0  0  0  0  0  0  0  0  0  0  0  0
    0.0286   -0.6348    0.5733 C   0  0  0  0  0  0  0  0  0  0  0  0
   -0.0459    1.1077    2.1844 C   0  0  0  0  0  0  0  0  0  0  0  0
    0.4043    0.3053    3.2018 C   0  0  0  0  0  0  0  0  0  0  0  0
    0.5984   -1.0222    2.9059 C   0  0  0  0  0  0  0  0  0  0  0  0
    0.5439   -2.8547    1.4667 O   0  0  0  0  0  0  0  0  0  0  0  0
    0.3110   -3.3339    0.1498 C   0  0  0  0  0  0  0  0  0  0  0  0
    0.9454   -1.8208    3.9460 O   0  0  0  0  0  0  0  0  0  0  0  0
   -3.0167    1.5367    0.2311 C   0  0  0  0  0  0  0  0  0  0  0  0
   -4.2405    2.1907    0.4821 O   0  0  0  0  0  0  0  0  0  0  0  0
   -2.4289    4.7469    1.1883 C   0  0  0  0  0  0  0  0  0  0  0  0
   -3.8006    4.4175    1.2777 O   0  0  0  0  0  0  0  0  0  0  0  0
   -0.0994    8.5193    0.7595 O   0  0  0  0  0  0  0  0  0  0  0  0
    0.1411    9.8647    1.0612 C   0  0  0  0  0  0  0  0  0  0  0  0
    1.5641    8.7397    3.4275 O   0  0  0  0  0  0  0  0  0  0  0  0
    1.4540    4.3008    3.4637 H   0  0  0  0  0  0  0  0  0  0  0  0
    2.1127    6.5083    4.3481 H   0  0  0  0  0  0  0  0  0  0  0  0
   -0.3774    6.2569    0.1003 H   0  0  0  0  0  0  0  0  0  0  0  0
    0.3342    4.0096    0.0536 H   0  0  0  0  0  0  0  0  0  0  0  0
    0.7215    3.1719    1.4773 H   0  0  0  0  0  0  0  0  0  0  0  0
   -1.7794    3.0193    2.0991 H   0  0  0  0  0  0  0  0  0  0  0  0
   -2.0646    3.1113   -0.8802 H   0  0  0  0  0  0  0  0  0  0  0  0
   -0.8730    1.0060   -1.2050 H   0  0  0  0  0  0  0  0  0  0  0  0
    0.2495    2.1780   -0.6736 H   0  0  0  0  0  0  0  0  0  0  0  0
   -0.1331   -0.9738   -0.4429 H   0  0  0  0  0  0  0  0  0  0  0  0
   -0.2780    2.0836    2.5841 H   0  0  0  0  0  0  0  0  0  0  0  0
    0.5461    0.7064    4.1951 H   0  0  0  0  0  0  0  0  0  0  0  0
   -0.7234   -3.1450   -0.1634 H   0  0  0  0  0  0  0  0  0  0  0  0
    1.0225   -2.8897   -0.5559 H   0  0  0  0  0  0  0  0  0  0  0  0
    0.4712   -4.4114    0.1612 H   0  0  0  0  0  0  0  0  0  0  0  0
    0.9357   -2.7218    3.5720 H   0  0  0  0  0  0  0  0  0  0  0  0
   -3.1639    0.9338   -0.6735 H   0  0  0  0  0  0  0  0  0  0  0  0
   -2.8310    0.8380    1.0526 H   0  0  0  0  0  0  0  0  0  0  0  0
   -4.1817    2.5451    1.3965 H   0  0  0  0  0  0  0  0  0  0  0  0
   -2.2109    5.3347    2.0863 H   0  0  0  0  0  0  0  0  0  0  0  0
   -2.2920    5.3607    0.2991 H   0  0  0  0  0  0  0  0  0  0  0  0
   -4.0634    4.0837    0.3937 H   0  0  0  0  0  0  0  0  0  0  0  0
   -0.3254   10.1192    2.0161 H   0  0  0  0  0  0  0  0  0  0  0  0
    1.2170   10.0529    1.0407 H   0  0  0  0  0  0  0  0  0  0  0  0
   -0.3243   10.4771    0.2876 H   0  0  0  0  0  0  0  0  0  0  0  0
    1.2833    9.5286    2.9581 H   0  0  0  0  0  0  0  0  0  0  0  0
  1  2  2  0  0  0  0
  1  6  1  0  0  0  0
  1 27  1  0  0  0  0
  2  3  1  0  0  0  0
  2 28  1  0  0  0  0
  3  4  2  0  0  0  0
  3 26  1  0  0  0  0
  4  5  1  0  0  0  0
  4 24  1  0  0  0  0
  5  6  2  0  0  0  0
  5 29  1  0  0  0  0
  6  7  1  0  0  0  0
  7 30  1  0  0  0  0
  7 31  1  0  0  0  0
  8 22  1  0  0  0  0
  8 32  1  1  0  0  0
  8  9  1  0  0  0  0
  8  7  1  0  0  0  0
  9 10  1  0  0  0  0
  9 20  1  0  0  0  0
  9 33  1  6  0  0  0
 10 11  1  0  0  0  0
 10 34  1  0  0  0  0
 10 35  1  0  0  0  0
 11 14  1  0  0  0  0
 12 13  1  0  0  0  0
 12 16  2  0  0  0  0
 12 17  1  0  0  0  0
 13 11  2  0  0  0  0
 13 36  1  0  0  0  0
 14 15  2  0  0  0  0
 14 37  1  0  0  0  0
 15 16  1  0  0  0  0
 15 38  1  0  0  0  0
 16 19  1  0  0  0  0
 17 18  1  0  0  0  0
 18 39  1  0  0  0  0
 18 40  1  0  0  0  0
 18 41  1  0  0  0  0
 19 42  1  0  0  0  0
 20 21  1  0  0  0  0
 20 43  1  0  0  0  0
 20 44  1  0  0  0  0
 21 45  1  0  0  0  0
 22 23  1  0  0  0  0
 22 46  1  0  0  0  0
 22 47  1  0  0  0  0
 23 48  1  0  0  0  0
 24 25  1  0  0  0  0
 25 49  1  0  0  0  0
 25 50  1  0  0  0  0
 25 51  1  0  0  0  0
 26 52  1  0  0  0  0
M  END
>  <DRUGBANK_ID>
DB12179

>  <COMMON_NAME>
Secoisolariciresinol

>  <CAS_NUMBER>
29388-59-8

>  <UNII>
M8QRJ7JEJH

$$$$
