
 OpenBabel10282417123D

 32 31  0  0  0  0  0  0  0  0999 V2000
    0.9150    0.1787    0.1163 O   0  0  0  0  0  0  0  0  0  0  0  0
    2.1228    0.0762    0.1107 C   0  0  0  0  0  0  0  0  0  0  0  0
    2.9181    1.1037    0.5189 O   0  0  0  0  0  0  0  0  0  0  0  0
    2.8960   -1.1501   -0.4291 C   0  0  1  0  0  0  0  0  0  0  0  0
    2.5838   -2.3697    0.3155 N   0  0  0  0  0  0  0  0  0  0  0  0
    2.5510   -1.3618   -1.9128 C   0  0  0  0  0  0  0  0  0  0  0  0
    2.9801   -0.1618   -2.7399 C   0  0  0  0  0  0  0  0  0  0  0  0
    4.4573    0.1069   -2.5324 C   0  0  0  0  0  0  0  0  0  0  0  0
    5.2500   -0.8321   -3.2513 N   0  0  0  0  0  0  0  0  0  0  0  0
    6.0908   -0.6950   -4.2978 C   0  0  0  0  0  0  0  0  0  0  0  0
    6.7564   -1.6876   -4.8066 N   0  0  0  0  0  0  0  0  0  0  0  0
    6.2934    0.5139   -4.8781 N   0  0  0  0  0  0  0  0  0  0  0  0
    6.6121   -3.0350   -4.2551 C   0  0  0  0  0  0  0  0  0  0  0  0
    5.8029    1.8523   -4.7115 C   0  0  0  0  0  0  0  0  0  0  0  0
    3.8822    0.9734    0.4997 H   0  0  0  0  0  0  0  0  0  0  0  0
    3.9663   -1.0039   -0.2732 H   0  0  0  0  0  0  0  0  0  0  0  0
    3.1259   -3.1440   -0.0676 H   0  0  0  0  0  0  0  0  0  0  0  0
    2.8677   -2.2577    1.2863 H   0  0  0  0  0  0  0  0  0  0  0  0
    3.0503   -2.2576   -2.3054 H   0  0  0  0  0  0  0  0  0  0  0  0
    1.4742   -1.5175   -2.0493 H   0  0  0  0  0  0  0  0  0  0  0  0
    2.7447   -0.3085   -3.8027 H   0  0  0  0  0  0  0  0  0  0  0  0
    2.4132    0.7253   -2.4313 H   0  0  0  0  0  0  0  0  0  0  0  0
    4.5843    1.1435   -2.7291 H   0  0  0  0  0  0  0  0  0  0  0  0
    4.8044    0.1013   -1.5021 H   0  0  0  0  0  0  0  0  0  0  0  0
    5.1716   -1.7814   -2.9132 H   0  0  0  0  0  0  0  0  0  0  0  0
    6.9524    0.4274   -5.6449 H   0  0  0  0  0  0  0  0  0  0  0  0
    6.9257   -3.0809   -3.2055 H   0  0  0  0  0  0  0  0  0  0  0  0
    5.5830   -3.4026   -4.3441 H   0  0  0  0  0  0  0  0  0  0  0  0
    7.2476   -3.7389   -4.8049 H   0  0  0  0  0  0  0  0  0  0  0  0
    6.6242    2.5206   -4.4429 H   0  0  0  0  0  0  0  0  0  0  0  0
    5.3059    2.1896   -5.6218 H   0  0  0  0  0  0  0  0  0  0  0  0
    5.0540    2.0592   -3.9696 H   0  0  0  0  0  0  0  0  0  0  0  0
  2  1  2  0  0  0  0
  3  2  1  0  0  0  0
  3 15  1  0  0  0  0
  4  2  1  0  0  0  0
  4  5  1  0  0  0  0
  4 16  1  1  0  0  0
  5 17  1  0  0  0  0
  5 18  1  0  0  0  0
  6  4  1  0  0  0  0
  6 19  1  0  0  0  0
  6 20  1  0  0  0  0
  7  6  1  0  0  0  0
  7  8  1  0  0  0  0
  7 21  1  0  0  0  0
  7 22  1  0  0  0  0
  8 23  1  0  0  0  0
  8 24  1  0  0  0  0
  9  8  1  0  0  0  0
  9 25  1  0  0  0  0
 10  9  1  0  0  0  0
 11 10  2  0  0  0  0
 11 13  1  0  0  0  0
 12 10  1  0  0  0  0
 12 14  1  0  0  0  0
 12 26  1  0  0  0  0
 13 27  1  0  0  0  0
 13 28  1  0  0  0  0
 13 29  1  0  0  0  0
 14 30  1  0  0  0  0
 14 31  1  0  0  0  0
 14 32  1  0  0  0  0
M  END
>  <DRUGBANK_ID>
DB02302

>  <SECONDARY_ACCESSION_NUMBERS>
EXPT00132

>  <COMMON_NAME>
Symmetric dimethylarginine

>  <CAS_NUMBER>
30344-00-4

>  <UNII>
49787G1ULV

>  <SYNONYMS>
(S)-2-amino-5-(N',N''-dimethylguanidino)pentanoic acid; Guanidino-N(1),N(2)-dimethylarginine; N(G1),N(G2)-Dimethylarginine; N3,N4-dimethyl-L-arginine; N3,N4-dimethylarginine; NG,N'G-dimethylarginine; SDMA

$$$$
