
 OpenBabel10282417143D

 58 61  0  0  0  0  0  0  0  0999 V2000
   -3.0961   -0.5815    0.0010 F   0  0  0  0  0  0  0  0  0  0  0  0
    1.5981   -1.2398    0.0050 O   0  0  0  0  0  0  0  0  0  0  0  0
    1.4090    7.1823   -0.2601 O   0  0  0  0  0  0  0  0  0  0  0  0
    3.7253    8.2817   -2.1330 O   0  0  0  0  0  0  0  0  0  0  0  0
    7.1486    8.4704    2.4056 O   0  0  0  0  0  0  0  0  0  0  0  0
    3.7242    4.1821   -1.4227 N   0  0  0  0  0  0  0  0  0  0  0  0
    2.6529   -0.3897    0.0758 N   0  0  0  0  0  0  0  0  0  0  0  0
    3.2364    1.8759    0.1769 C   0  0  0  0  0  0  0  0  0  0  0  0
    3.3324    3.2295    0.8491 C   0  0  0  0  0  0  0  0  0  0  0  0
    3.8957    1.8565   -1.2133 C   0  0  0  0  0  0  0  0  0  0  0  0
    3.1132    4.3398   -0.1124 C   0  0  0  0  0  0  0  0  0  0  0  0
    3.4037    2.9564   -2.0836 C   0  0  0  0  0  0  0  0  0  0  0  0
    3.2312    5.1733   -2.3395 C   0  0  0  0  0  0  0  0  0  0  0  0
    2.1558    0.8635    0.1359 C   0  0  0  0  0  0  0  0  0  0  0  0
    1.5941    5.3182   -2.3936 C   0  0  0  0  0  0  0  0  0  0  0  0
    0.7544    0.8424    0.0398 C   0  0  0  0  0  0  0  0  0  0  0  0
    0.4602   -0.5177    0.0056 C   0  0  0  0  0  0  0  0  0  0  0  0
    0.8700    5.9932   -1.0546 C   0  0  0  0  0  0  0  0  0  0  0  0
   -0.2993    1.7602   -0.0063 C   0  0  0  0  0  0  0  0  0  0  0  0
   -0.8068   -1.0677   -0.0159 C   0  0  0  0  0  0  0  0  0  0  0  0
   -1.6016    1.2430   -0.0130 C   0  0  0  0  0  0  0  0  0  0  0  0
   -1.8342   -0.1369   -0.0090 C   0  0  0  0  0  0  0  0  0  0  0  0
    2.7195    7.5419    0.0635 C   0  0  0  0  0  0  0  0  0  0  0  0
    3.7892    7.8404   -0.8189 C   0  0  0  0  0  0  0  0  0  0  0  0
    3.0443    7.7892    1.4035 C   0  0  0  0  0  0  0  0  0  0  0  0
    5.1297    7.7408   -0.4317 C   0  0  0  0  0  0  0  0  0  0  0  0
    4.3881    8.0917    1.7849 C   0  0  0  0  0  0  0  0  0  0  0  0
    5.4506    7.9310    0.8832 C   0  0  0  0  0  0  0  0  0  0  0  0
    6.8868    8.0890    1.2973 C   0  0  0  0  0  0  0  0  0  0  0  0
    2.5695    7.8388   -2.7573 C   0  0  0  0  0  0  0  0  0  0  0  0
    7.9799    7.7621    0.2766 C   0  0  0  0  0  0  0  0  0  0  0  0
    3.8302    1.3690    0.9367 H   0  0  0  0  0  0  0  0  0  0  0  0
    2.6898    3.3778    1.7256 H   0  0  0  0  0  0  0  0  0  0  0  0
    4.3698    3.3528    1.1963 H   0  0  0  0  0  0  0  0  0  0  0  0
    4.9759    1.9368   -1.0949 H   0  0  0  0  0  0  0  0  0  0  0  0
    3.6590    0.9662   -1.8005 H   0  0  0  0  0  0  0  0  0  0  0  0
    2.0522    4.3115   -0.2110 H   0  0  0  0  0  0  0  0  0  0  0  0
    3.4257    5.2633    0.3775 H   0  0  0  0  0  0  0  0  0  0  0  0
    3.9107    2.9384   -3.0585 H   0  0  0  0  0  0  0  0  0  0  0  0
    2.3295    2.8792   -2.2713 H   0  0  0  0  0  0  0  0  0  0  0  0
    3.8059    5.9806   -1.9344 H   0  0  0  0  0  0  0  0  0  0  0  0
    3.7090    5.1305   -3.3380 H   0  0  0  0  0  0  0  0  0  0  0  0
    1.2777    5.9471   -3.2517 H   0  0  0  0  0  0  0  0  0  0  0  0
    1.1124    4.3899   -2.7437 H   0  0  0  0  0  0  0  0  0  0  0  0
   -0.1386    6.3101   -1.3791 H   0  0  0  0  0  0  0  0  0  0  0  0
    0.5781    5.2191   -0.3348 H   0  0  0  0  0  0  0  0  0  0  0  0
   -0.1146    2.8273   -0.0069 H   0  0  0  0  0  0  0  0  0  0  0  0
   -0.9690   -2.1371   -0.0171 H   0  0  0  0  0  0  0  0  0  0  0  0
   -2.4503    1.9195   -0.0074 H   0  0  0  0  0  0  0  0  0  0  0  0
    2.2778    7.7817    2.1756 H   0  0  0  0  0  0  0  0  0  0  0  0
    5.8771    7.5750   -1.2053 H   0  0  0  0  0  0  0  0  0  0  0  0
    4.6052    8.4474    2.7896 H   0  0  0  0  0  0  0  0  0  0  0  0
    2.3254    7.0629   -2.1153 H   0  0  0  0  0  0  0  0  0  0  0  0
    1.6420    8.3876   -2.6465 H   0  0  0  0  0  0  0  0  0  0  0  0
    2.7563    7.3114   -3.6981 H   0  0  0  0  0  0  0  0  0  0  0  0
    7.9422    6.7084   -0.0145 H   0  0  0  0  0  0  0  0  0  0  0  0
    7.9082    8.4032   -0.6066 H   0  0  0  0  0  0  0  0  0  0  0  0
    8.9566    7.9484    0.7353 H   0  0  0  0  0  0  0  0  0  0  0  0
  1 22  1  0  0  0  0
  2  7  1  0  0  0  0
  2 17  1  0  0  0  0
  3 18  1  0  0  0  0
  3 23  1  0  0  0  0
  4 24  1  0  0  0  0
  4 30  1  0  0  0  0
  5 29  2  0  0  0  0
  6 11  1  0  0  0  0
  6 12  1  0  0  0  0
  6 13  1  0  0  0  0
  7 14  2  0  0  0  0
  8  9  1  0  0  0  0
  8 10  1  0  0  0  0
  8 14  1  0  0  0  0
  8 32  1  0  0  0  0
  9 11  1  0  0  0  0
  9 33  1  0  0  0  0
  9 34  1  0  0  0  0
 10 12  1  0  0  0  0
 10 35  1  0  0  0  0
 10 36  1  0  0  0  0
 11 37  1  0  0  0  0
 11 38  1  0  0  0  0
 12 39  1  0  0  0  0
 12 40  1  0  0  0  0
 13 15  1  0  0  0  0
 13 41  1  0  0  0  0
 13 42  1  0  0  0  0
 14 16  1  0  0  0  0
 15 18  1  0  0  0  0
 15 43  1  0  0  0  0
 15 44  1  0  0  0  0
 16 17  2  0  0  0  0
 16 19  1  0  0  0  0
 17 20  1  0  0  0  0
 18 45  1  0  0  0  0
 18 46  1  0  0  0  0
 19 21  2  0  0  0  0
 19 47  1  0  0  0  0
 20 22  2  0  0  0  0
 20 48  1  0  0  0  0
 21 22  1  0  0  0  0
 21 49  1  0  0  0  0
 23 24  2  0  0  0  0
 23 25  1  0  0  0  0
 24 26  1  0  0  0  0
 25 27  2  0  0  0  0
 25 50  1  0  0  0  0
 26 28  2  0  0  0  0
 26 51  1  0  0  0  0
 27 28  1  0  0  0  0
 27 52  1  0  0  0  0
 28 29  1  0  0  0  0
 29 31  1  0  0  0  0
 30 53  1  0  0  0  0
 30 54  1  0  0  0  0
 30 55  1  0  0  0  0
 31 56  1  0  0  0  0
 31 57  1  0  0  0  0
 31 58  1  0  0  0  0
M  END
>  <DRUGBANK_ID>
DB04946

>  <COMMON_NAME>
Iloperidone

>  <CAS_NUMBER>
133454-47-4

>  <UNII>
VPO7KJ050N

>  <SYNONYMS>
1-[4-[3-[4-(6-fluoro-1,2-benzisoxazol-3-yl)-1- piperidinyl]propoxy]-3-methoxyphenyl]ethanone; 4'-(3-(4-(6-fluoro-1,2-benzisoxazol-3-yl)piperidino)propoxy)-3'-methoxyacetophenone; Iloperidona; Ilop√©ridone; Iloperidone; Iloperidonum

$$$$
