
 OpenBabel10282417183D

197197  0  0  0  0  0  0  0  0999 V2000
    7.2815    5.9877   -2.7307 C   0  0  2  0  0  0  0  0  0  0  0  0
    9.1923    6.8626   -2.1699 C   0  0  0  0  0  0  0  0  0  0  0  0
   10.8841    7.5361   -2.4680 N   0  0  0  0  0  0  0  0  0  0  0  0
   11.2729    8.0054   -3.7303 C   0  0  2  0  0  0  0  0  0  0  0  0
   12.1454    7.1090   -4.3229 C   0  0  0  0  0  0  0  0  0  0  0  0
   13.8539    6.9109   -4.3134 N   0  0  0  0  0  0  0  0  0  0  0  0
   14.8115    5.6596   -4.8440 C   0  0  2  0  0  0  0  0  0  0  0  0
   14.5508    5.6438   -6.4179 C   0  0  0  0  0  0  0  0  0  0  0  0
   13.2261    5.5988   -7.0091 N   0  0  0  0  0  0  0  0  0  0  0  0
   11.9847    5.2878   -6.1686 C   0  0  2  0  0  0  0  0  0  0  0  0
   10.8508    5.9679   -6.6107 C   0  0  0  0  0  0  0  0  0  0  0  0
    9.6238    5.5200   -6.7854 N   0  0  0  0  0  0  0  0  0  0  0  0
    8.6107    6.4516   -7.1595 C   0  0  2  0  0  0  0  0  0  0  0  0
    7.8749    6.8868   -0.8298 C   0  0  0  0  0  0  0  0  0  0  0  0
   11.7888    9.1765   -4.4445 C   0  0  0  0  0  0  0  0  0  0  0  0
   13.1856    9.5581   -4.2292 C   0  0  0  0  0  0  0  0  0  0  0  0
   11.7549    9.1027   -5.9512 C   0  0  0  0  0  0  0  0  0  0  0  0
   14.5717    4.0294   -4.0243 C   0  0  0  0  0  0  0  0  0  0  0  0
   12.3391    5.1329   -4.7066 C   0  0  0  0  0  0  0  0  0  0  0  0
    8.9905    7.9273   -7.0098 C   0  0  0  0  0  0  0  0  0  0  0  0
    7.9094    5.3103   -0.2104 C   0  0  0  0  0  0  0  0  0  0  0  0
    9.2661    4.8097   -0.2210 C   0  0  0  0  0  0  0  0  0  0  0  0
    6.8295    5.3144    0.6768 C   0  0  0  0  0  0  0  0  0  0  0  0
    9.8880    7.2520   -0.9808 O   0  0  0  0  0  0  0  0  0  0  0  0
   15.5558    5.6302   -7.1282 O   0  0  0  0  0  0  0  0  0  0  0  0
   11.2718    7.0818   -6.5833 O   0  0  0  0  0  0  0  0  0  0  0  0
   14.5893    7.7037   -3.4102 C   0  0  0  0  0  0  0  0  0  0  0  0
   11.0825    6.3828   -4.5179 O   0  0  0  0  0  0  0  0  0  0  0  0
   13.0621    3.2217   -4.3784 C   0  0  0  0  0  0  0  0  0  0  0  0
   12.7783    3.0937   -5.8670 C   0  0  0  0  0  0  0  0  0  0  0  0
   12.4408    2.2051   -3.6356 C   0  0  0  0  0  0  0  0  0  0  0  0
    7.6481    6.0879   -6.2224 C   0  0  0  0  0  0  0  0  0  0  0  0
    0.1445    8.0667   -7.9729 N   0  0  0  0  0  0  0  0  0  0  0  0
    0.8323    8.6598   -9.0479 C   0  0  0  0  0  0  0  0  0  0  0  0
    1.2225    7.8877  -10.3245 C   0  0  1  0  0  0  0  0  0  0  0  0
    3.4065    5.5060   -4.0667 C   0  0  0  0  0  0  0  0  0  0  0  0
    4.9249    5.3208   -2.8941 N   0  0  0  0  0  0  0  0  0  0  0  0
    2.1874    6.6543  -10.4214 N   0  0  0  0  0  0  0  0  0  0  0  0
    3.4508    6.8299  -10.0318 C   0  0  0  0  0  0  0  0  0  0  0  0
    3.8156    8.2174   -9.5765 C   0  0  1  0  0  0  0  0  0  0  0  0
    4.1161    8.4468   -8.2068 N   0  0  0  0  0  0  0  0  0  0  0  0
    5.6557    4.7890   -5.2948 C   0  0  1  0  0  0  0  0  0  0  0  0
    4.7506    6.0936   -5.7615 C   0  0  0  0  0  0  0  0  0  0  0  0
    4.8291    7.4144   -5.7371 N   0  0  0  0  0  0  0  0  0  0  0  0
    3.7292    8.4220   -5.6617 C   0  0  2  0  0  0  0  0  0  0  0  0
    3.2475    8.4279   -7.0676 C   0  0  0  0  0  0  0  0  0  0  0  0
    6.7654    5.0294   -6.1868 N   0  0  0  0  0  0  0  0  0  0  0  0
   -0.1200    6.6149   -7.7267 C   0  0  2  0  0  0  0  0  0  0  0  0
    2.7974    4.5626   -5.8285 C   0  0  0  0  0  0  0  0  0  0  0  0
    1.9125    5.3843   -6.9571 N   0  0  0  0  0  0  0  0  0  0  0  0
    0.6168    5.7034   -6.7929 C   0  0  0  0  0  0  0  0  0  0  0  0
   -0.0215    5.8636   -9.1592 C   0  0  0  0  0  0  0  0  0  0  0  0
   -0.1274    7.6063  -10.7188 C   0  0  1  0  0  0  0  0  0  0  0  0
    4.2162    9.8070   -5.4164 C   0  0  0  0  0  0  0  0  0  0  0  0
    5.6294    9.9212   -5.0014 C   0  0  0  0  0  0  0  0  0  0  0  0
    6.7193    9.3969   -6.0607 C   0  0  0  0  0  0  0  0  0  0  0  0
    6.2698   11.1503   -4.6745 C   0  0  0  0  0  0  0  0  0  0  0  0
    4.9796    8.4053  -10.5159 C   0  0  0  0  0  0  0  0  0  0  0  0
    4.4594    8.3285  -11.9249 C   0  0  0  0  0  0  0  0  0  0  0  0
    4.1159    5.8020   -9.9010 O   0  0  0  0  0  0  0  0  0  0  0  0
    1.7992    5.0839  -10.2010 C   0  0  0  0  0  0  0  0  0  0  0  0
    1.1825    9.8440   -9.0399 O   0  0  0  0  0  0  0  0  0  0  0  0
   -0.0273    5.0798   -5.9566 O   0  0  0  0  0  0  0  0  0  0  0  0
    2.6244    6.5270   -3.9594 O   0  0  0  0  0  0  0  0  0  0  0  0
    3.5922    6.2262   -5.9702 O   0  0  0  0  0  0  0  0  0  0  0  0
    2.0591    8.2067   -7.0932 O   0  0  0  0  0  0  0  0  0  0  0  0
    8.0750    6.9237   -5.4236 O   0  0  0  0  0  0  0  0  0  0  0  0
   -0.1250    6.6762  -12.4202 C   0  0  2  0  0  0  0  0  0  0  0  0
   -1.3218    6.9341   -9.2006 O   0  0  0  0  0  0  0  0  0  0  0  0
    0.6205    5.3966  -12.3372 C   0  0  0  0  0  0  0  0  0  0  0  0
    0.5470    7.5516  -13.3649 C   0  0  0  0  0  0  0  0  0  0  0  0
    0.7827    6.7123  -14.5507 C   0  0  0  0  0  0  0  0  0  0  0  0
    0.1683    7.0026  -15.6809 C   0  0  0  0  0  0  0  0  0  0  0  0
    2.6642    6.0566   -7.9203 C   0  0  0  0  0  0  0  0  0  0  0  0
    3.3284    4.0634   -3.3495 C   0  0  0  0  0  0  0  0  0  0  0  0
    7.0763    3.9373   -6.9904 C   0  0  0  0  0  0  0  0  0  0  0  0
    5.4451    8.6901   -8.0648 C   0  0  0  0  0  0  0  0  0  0  0  0
    6.0420    7.3259  -10.3538 C   0  0  0  0  0  0  0  0  0  0  0  0
    5.8801    7.7664   -5.0592 C   0  0  0  0  0  0  0  0  0  0  0  0
   -1.4425    6.3902  -10.7284 C   0  0  0  0  0  0  0  0  0  0  0  0
    6.2127    4.5985   -3.9679 C   0  0  0  0  0  0  0  0  0  0  0  0
    5.9822    6.4739   -3.6584 C   0  0  0  0  0  0  0  0  0  0  0  0
    5.0949    7.4739   -3.0847 C   0  0  0  0  0  0  0  0  0  0  0  0
    6.2294    6.6761   -1.6615 C   0  0  0  0  0  0  0  0  0  0  0  0
    1.5153    8.5234  -11.1460 H   0  0  0  0  0  0  0  0  0  0  0  0
    0.4077    6.2481  -16.8709 C   0  0  0  0  0  0  0  0  0  0  0  0
   -0.1517    6.6033  -18.0277 C   0  0  0  0  0  0  0  0  0  0  0  0
    7.8428    7.2924   -3.1400 H   0  0  0  0  0  0  0  0  0  0  0  0
   11.9545    7.8043   -1.9283 H   0  0  0  0  0  0  0  0  0  0  0  0
   10.2764    7.7303   -4.0748 H   0  0  0  0  0  0  0  0  0  0  0  0
   15.8381    5.8712   -4.5571 H   0  0  0  0  0  0  0  0  0  0  0  0
   13.1416    5.1713   -7.9331 H   0  0  0  0  0  0  0  0  0  0  0  0
   11.3406    4.4352   -6.0994 H   0  0  0  0  0  0  0  0  0  0  0  0
    9.4420    4.5401   -6.7276 H   0  0  0  0  0  0  0  0  0  0  0  0
    8.2147    6.3661   -8.1111 H   0  0  0  0  0  0  0  0  0  0  0  0
    8.4807    7.5264   -0.0900 H   0  0  0  0  0  0  0  0  0  0  0  0
    7.2391    7.7280   -0.5447 H   0  0  0  0  0  0  0  0  0  0  0  0
   11.1380    9.9032   -4.0814 H   0  0  0  0  0  0  0  0  0  0  0  0
   13.7665    8.8392   -4.8185 H   0  0  0  0  0  0  0  0  0  0  0  0
   13.5590   10.4220   -4.7011 H   0  0  0  0  0  0  0  0  0  0  0  0
   13.3556    9.6861   -3.1575 H   0  0  0  0  0  0  0  0  0  0  0  0
   10.7363    8.9938   -6.1833 H   0  0  0  0  0  0  0  0  0  0  0  0
   11.9701    9.9838   -6.4880 H   0  0  0  0  0  0  0  0  0  0  0  0
   12.4485    8.3617   -6.4129 H   0  0  0  0  0  0  0  0  0  0  0  0
   15.1663    3.3212   -4.5480 H   0  0  0  0  0  0  0  0  0  0  0  0
   14.5128    4.2672   -2.9529 H   0  0  0  0  0  0  0  0  0  0  0  0
   13.3005    4.9327   -4.6723 H   0  0  0  0  0  0  0  0  0  0  0  0
   12.8543    5.5876   -3.8395 H   0  0  0  0  0  0  0  0  0  0  0  0
   11.5413    4.9708   -3.7510 H   0  0  0  0  0  0  0  0  0  0  0  0
    9.7886    7.7829   -6.3901 H   0  0  0  0  0  0  0  0  0  0  0  0
    9.1924    8.1696   -7.9905 H   0  0  0  0  0  0  0  0  0  0  0  0
    8.8169    8.8396   -6.4302 H   0  0  0  0  0  0  0  0  0  0  0  0
    7.3921    4.5333   -1.1300 H   0  0  0  0  0  0  0  0  0  0  0  0
    9.6691    5.3160    0.6255 H   0  0  0  0  0  0  0  0  0  0  0  0
    9.0754    3.7635   -0.1344 H   0  0  0  0  0  0  0  0  0  0  0  0
    9.8952    4.9771   -1.1174 H   0  0  0  0  0  0  0  0  0  0  0  0
    5.9384    5.8257    0.3576 H   0  0  0  0  0  0  0  0  0  0  0  0
    6.6512    4.2718    0.6872 H   0  0  0  0  0  0  0  0  0  0  0  0
    7.2606    5.8548    1.4674 H   0  0  0  0  0  0  0  0  0  0  0  0
   15.0658    7.3099   -2.5446 H   0  0  0  0  0  0  0  0  0  0  0  0
   15.2489    8.2918   -4.0598 H   0  0  0  0  0  0  0  0  0  0  0  0
   13.7562    8.1382   -2.9323 H   0  0  0  0  0  0  0  0  0  0  0  0
   12.3784    3.7717   -3.7304 H   0  0  0  0  0  0  0  0  0  0  0  0
   13.5303    2.7226   -6.4725 H   0  0  0  0  0  0  0  0  0  0  0  0
   11.7596    2.9102   -6.2747 H   0  0  0  0  0  0  0  0  0  0  0  0
   13.2245    3.9708   -6.2167 H   0  0  0  0  0  0  0  0  0  0  0  0
   12.6105    2.5736   -2.6206 H   0  0  0  0  0  0  0  0  0  0  0  0
   11.3867    2.2692   -3.9699 H   0  0  0  0  0  0  0  0  0  0  0  0
   13.1342    1.5816   -4.1220 H   0  0  0  0  0  0  0  0  0  0  0  0
    0.2288    8.5264   -7.0830 H   0  0  0  0  0  0  0  0  0  0  0  0
    3.0553    8.9385   -9.7705 H   0  0  0  0  0  0  0  0  0  0  0  0
    5.1299    3.8306   -5.3706 H   0  0  0  0  0  0  0  0  0  0  0  0
    2.8654    8.2297   -4.9877 H   0  0  0  0  0  0  0  0  0  0  0  0
   -1.1886    6.5094   -7.4594 H   0  0  0  0  0  0  0  0  0  0  0  0
    2.3909    3.5661   -6.0388 H   0  0  0  0  0  0  0  0  0  0  0  0
    3.7211    4.4371   -6.5034 H   0  0  0  0  0  0  0  0  0  0  0  0
    0.8796    6.3239   -9.2562 H   0  0  0  0  0  0  0  0  0  0  0  0
   -0.2240    4.7815   -8.9032 H   0  0  0  0  0  0  0  0  0  0  0  0
   -0.8261    8.4088  -11.2574 H   0  0  0  0  0  0  0  0  0  0  0  0
    4.2019   10.3087   -6.3557 H   0  0  0  0  0  0  0  0  0  0  0  0
    3.5942   10.2857   -4.6791 H   0  0  0  0  0  0  0  0  0  0  0  0
    5.5521    9.5314   -3.9886 H   0  0  0  0  0  0  0  0  0  0  0  0
    6.8800    9.7398   -7.0175 H   0  0  0  0  0  0  0  0  0  0  0  0
    7.6310    9.1981   -5.4829 H   0  0  0  0  0  0  0  0  0  0  0  0
    6.5042    8.1590   -6.6153 H   0  0  0  0  0  0  0  0  0  0  0  0
    5.6469   11.6158   -3.9441 H   0  0  0  0  0  0  0  0  0  0  0  0
    7.2744   10.9255   -4.2918 H   0  0  0  0  0  0  0  0  0  0  0  0
    6.2921   11.5967   -5.6470 H   0  0  0  0  0  0  0  0  0  0  0  0
    5.4059    9.3838  -10.3285 H   0  0  0  0  0  0  0  0  0  0  0  0
    3.6936    9.0855  -12.0765 H   0  0  0  0  0  0  0  0  0  0  0  0
    5.2827    8.4688  -12.6086 H   0  0  0  0  0  0  0  0  0  0  0  0
    4.0191    7.3453  -12.1264 H   0  0  0  0  0  0  0  0  0  0  0  0
    0.8063    4.7107  -10.0844 H   0  0  0  0  0  0  0  0  0  0  0  0
    1.6667    4.6747  -11.1050 H   0  0  0  0  0  0  0  0  0  0  0  0
    2.4291    4.2786  -10.0235 H   0  0  0  0  0  0  0  0  0  0  0  0
   -1.1036    6.2554  -12.7476 H   0  0  0  0  0  0  0  0  0  0  0  0
   -1.4191    5.6258   -9.4818 H   0  0  0  0  0  0  0  0  0  0  0  0
    0.1923    4.4239  -11.7325 H   0  0  0  0  0  0  0  0  0  0  0  0
    1.3375    4.9863  -12.9984 H   0  0  0  0  0  0  0  0  0  0  0  0
    1.3812    6.0270  -11.9075 H   0  0  0  0  0  0  0  0  0  0  0  0
   -0.1830    8.3409  -13.4418 H   0  0  0  0  0  0  0  0  0  0  0  0
    1.4663    7.8663  -12.8874 H   0  0  0  0  0  0  0  0  0  0  0  0
    1.4186    5.8319  -14.4879 H   0  0  0  0  0  0  0  0  0  0  0  0
   -0.4870    7.8673  -15.6663 H   0  0  0  0  0  0  0  0  0  0  0  0
    3.5520    6.6100   -7.7281 H   0  0  0  0  0  0  0  0  0  0  0  0
    3.1347    5.2936   -8.4502 H   0  0  0  0  0  0  0  0  0  0  0  0
    2.1321    6.8080   -8.4405 H   0  0  0  0  0  0  0  0  0  0  0  0
    2.0091    3.9417   -4.1702 H   0  0  0  0  0  0  0  0  0  0  0  0
    3.0770    2.9125   -4.1081 H   0  0  0  0  0  0  0  0  0  0  0  0
    2.0806    3.4224   -2.8873 H   0  0  0  0  0  0  0  0  0  0  0  0
    7.3655    3.0936   -6.3670 H   0  0  0  0  0  0  0  0  0  0  0  0
    6.2443    3.7169   -7.6343 H   0  0  0  0  0  0  0  0  0  0  0  0
    7.9041    4.2397   -7.5961 H   0  0  0  0  0  0  0  0  0  0  0  0
    6.1909    7.8969   -8.0886 H   0  0  0  0  0  0  0  0  0  0  0  0
    5.8316    9.6286   -8.4062 H   0  0  0  0  0  0  0  0  0  0  0  0
    5.2598    8.8713   -7.0836 H   0  0  0  0  0  0  0  0  0  0  0  0
    5.7027    6.3251  -10.5142 H   0  0  0  0  0  0  0  0  0  0  0  0
    6.8799    7.4768  -10.9849 H   0  0  0  0  0  0  0  0  0  0  0  0
    6.4682    7.2159   -9.3967 H   0  0  0  0  0  0  0  0  0  0  0  0
    6.8049    7.9452   -5.2559 H   0  0  0  0  0  0  0  0  0  0  0  0
    6.4002    8.2542   -4.2255 H   0  0  0  0  0  0  0  0  0  0  0  0
    6.3003    6.8825   -5.2219 H   0  0  0  0  0  0  0  0  0  0  0  0
   -1.6383    7.8812  -10.2280 H   0  0  0  0  0  0  0  0  0  0  0  0
   -0.7980    5.6994  -11.1202 H   0  0  0  0  0  0  0  0  0  0  0  0
   -2.4652    6.2196  -10.4872 H   0  0  0  0  0  0  0  0  0  0  0  0
    5.7888    4.0024   -3.0279 H   0  0  0  0  0  0  0  0  0  0  0  0
    7.0769    4.1285   -3.5763 H   0  0  0  0  0  0  0  0  0  0  0  0
    7.2378    6.4087   -4.2039 H   0  0  0  0  0  0  0  0  0  0  0  0
    4.1587    7.3369   -2.7332 H   0  0  0  0  0  0  0  0  0  0  0  0
    5.5444    8.4047   -2.8293 H   0  0  0  0  0  0  0  0  0  0  0  0
    4.5859    7.2548   -3.9282 H   0  0  0  0  0  0  0  0  0  0  0  0
    7.6045    5.7451   -1.5662 H   0  0  0  0  0  0  0  0  0  0  0  0
    6.8156    7.8133   -1.9939 H   0  0  0  0  0  0  0  0  0  0  0  0
    5.4510    6.2349   -1.1223 H   0  0  0  0  0  0  0  0  0  0  0  0
    1.0717    5.3842  -16.8407 H   0  0  0  0  0  0  0  0  0  0  0  0
    0.0349    6.0463  -18.9385 H   0  0  0  0  0  0  0  0  0  0  0  0
   -0.8086    7.4635  -18.0824 H   0  0  0  0  0  0  0  0  0  0  0  0
  1 37  1  0  0  0  0
  1  2  1  0  0  0  0
  1 88  1  6  0  0  0
  1 14  1  0  0  0  0
  2 24  2  0  0  0  0
  2  3  1  0  0  0  0
  3  4  1  0  0  0  0
  3 89  1  0  0  0  0
  4 15  1  0  0  0  0
  4  5  1  0  0  0  0
  4 90  1  6  0  0  0
  5 28  2  0  0  0  0
  5  6  1  0  0  0  0
  6 27  1  0  0  0  0
  6  7  1  0  0  0  0
  7 18  1  0  0  0  0
  7  8  1  0  0  0  0
  7 91  1  1  0  0  0
  8 25  2  0  0  0  0
  8  9  1  0  0  0  0
  9 10  1  0  0  0  0
  9 92  1  0  0  0  0
 10 11  1  0  0  0  0
 10 93  1  6  0  0  0
 10 19  1  0  0  0  0
 11 12  1  0  0  0  0
 11 26  2  0  0  0  0
 12 13  1  0  0  0  0
 12 94  1  0  0  0  0
 13 95  1  6  0  0  0
 13 20  1  0  0  0  0
 14 21  1  0  0  0  0
 14 96  1  0  0  0  0
 14 97  1  0  0  0  0
 15 16  1  0  0  0  0
 15 17  1  0  0  0  0
 15 98  1  0  0  0  0
 16 99  1  0  0  0  0
 16100  1  0  0  0  0
 16101  1  0  0  0  0
 17102  1  0  0  0  0
 17103  1  0  0  0  0
 17104  1  0  0  0  0
 18 29  1  0  0  0  0
 18105  1  0  0  0  0
 18106  1  0  0  0  0
 19107  1  0  0  0  0
 19108  1  0  0  0  0
 19109  1  0  0  0  0
 20110  1  0  0  0  0
 20111  1  0  0  0  0
 20112  1  0  0  0  0
 21 22  1  0  0  0  0
 21 23  1  0  0  0  0
 21113  1  0  0  0  0
 22114  1  0  0  0  0
 22115  1  0  0  0  0
 22116  1  0  0  0  0
 23117  1  0  0  0  0
 23118  1  0  0  0  0
 23119  1  0  0  0  0
 27120  1  0  0  0  0
 27121  1  0  0  0  0
 27122  1  0  0  0  0
 29 30  1  0  0  0  0
 29 31  1  0  0  0  0
 29123  1  0  0  0  0
 30124  1  0  0  0  0
 30125  1  0  0  0  0
 30126  1  0  0  0  0
 31127  1  0  0  0  0
 31128  1  0  0  0  0
 31129  1  0  0  0  0
 32 67  2  0  0  0  0
 32 13  1  0  0  0  0
 33130  1  0  0  0  0
 34 62  2  0  0  0  0
 34 33  1  0  0  0  0
 34 35  1  0  0  0  0
 35 85  1  6  0  0  0
 35 53  1  0  0  0  0
 36 64  2  0  0  0  0
 36 49  1  0  0  0  0
 36 37  1  0  0  0  0
 37 75  1  0  0  0  0
 38 61  1  0  0  0  0
 38 35  1  0  0  0  0
 38 39  1  0  0  0  0
 39 60  2  0  0  0  0
 40 39  1  0  0  0  0
 40 41  1  0  0  0  0
 40131  1  6  0  0  0
 40 58  1  0  0  0  0
 41 77  1  0  0  0  0
 42 81  1  0  0  0  0
 42 43  1  0  0  0  0
 42132  1  6  0  0  0
 43 65  2  0  0  0  0
 43 44  1  0  0  0  0
 44 79  1  0  0  0  0
 44 45  1  0  0  0  0
 45 46  1  0  0  0  0
 45133  1  1  0  0  0
 45 54  1  0  0  0  0
 46 66  2  0  0  0  0
 46 41  1  0  0  0  0
 47 76  1  0  0  0  0
 47 42  1  0  0  0  0
 47 32  1  0  0  0  0
 48 33  1  0  0  0  0
 48 51  1  0  0  0  0
 48134  1  1  0  0  0
 48 52  1  0  0  0  0
 49 50  1  0  0  0  0
 49135  1  0  0  0  0
 49136  1  0  0  0  0
 50 74  1  0  0  0  0
 50 51  1  0  0  0  0
 51 63  2  0  0  0  0
 52 80  1  0  0  0  0
 52137  1  0  0  0  0
 52138  1  0  0  0  0
 53 69  1  0  0  0  0
 53139  1  6  0  0  0
 54 55  1  0  0  0  0
 54140  1  0  0  0  0
 54141  1  0  0  0  0
 55 56  1  0  0  0  0
 55 57  1  0  0  0  0
 55142  1  0  0  0  0
 56143  1  0  0  0  0
 56144  1  0  0  0  0
 56145  1  0  0  0  0
 57146  1  0  0  0  0
 57147  1  0  0  0  0
 57148  1  0  0  0  0
 58 78  1  0  0  0  0
 58 59  1  0  0  0  0
 58149  1  0  0  0  0
 59150  1  0  0  0  0
 59151  1  0  0  0  0
 59152  1  0  0  0  0
 61153  1  0  0  0  0
 61154  1  0  0  0  0
 61155  1  0  0  0  0
 68 71  1  0  0  0  0
 68156  1  6  0  0  0
 68 70  1  0  0  0  0
 68 53  1  0  0  0  0
 69157  1  0  0  0  0
 70158  1  0  0  0  0
 70159  1  0  0  0  0
 70160  1  0  0  0  0
 71 72  1  0  0  0  0
 71161  1  0  0  0  0
 71162  1  0  0  0  0
 72 73  2  0  0  0  0
 72163  1  0  0  0  0
 73 86  1  0  0  0  0
 73164  1  0  0  0  0
 74165  1  0  0  0  0
 74166  1  0  0  0  0
 74167  1  0  0  0  0
 75168  1  0  0  0  0
 75169  1  0  0  0  0
 75170  1  0  0  0  0
 76171  1  0  0  0  0
 76172  1  0  0  0  0
 76173  1  0  0  0  0
 77174  1  0  0  0  0
 77175  1  0  0  0  0
 77176  1  0  0  0  0
 78177  1  0  0  0  0
 78178  1  0  0  0  0
 78179  1  0  0  0  0
 79180  1  0  0  0  0
 79181  1  0  0  0  0
 79182  1  0  0  0  0
 80183  1  0  0  0  0
 80184  1  0  0  0  0
 80185  1  0  0  0  0
 81 82  1  0  0  0  0
 81186  1  0  0  0  0
 81187  1  0  0  0  0
 82 83  1  0  0  0  0
 82 84  1  0  0  0  0
 82188  1  0  0  0  0
 83189  1  0  0  0  0
 83190  1  0  0  0  0
 83191  1  0  0  0  0
 84192  1  0  0  0  0
 84193  1  0  0  0  0
 84194  1  0  0  0  0
 86 87  2  0  0  0  0
 86195  1  0  0  0  0
 87196  1  0  0  0  0
 87197  1  0  0  0  0
M  END
>  <DRUGBANK_ID>
DB11693

>  <SECONDARY_ACCESSION_NUMBERS>
DB04906

>  <COMMON_NAME>
Voclosporin

>  <CAS_NUMBER>
515814-01-4

>  <UNII>
2PN063X6B1

>  <SYNONYMS>
Voclosporin

$$$$
