
 OpenBabel10282417123D

 18 17  0  0  0  0  0  0  0  0999 V2000
    1.1055   -0.1041    0.0738 C   0  0  0  0  0  0  0  0  0  0  0  0
    0.5039    1.6174   -2.6458 C   0  0  0  0  0  0  0  0  0  0  0  0
    0.6244    1.3589   -0.0150 C   0  0  1  0  0  0  0  0  0  0  0  0
    1.0085    2.1386   -1.2930 C   0  0  2  0  0  0  0  0  0  0  0  0
   -0.7823    1.4509    0.2457 O   0  0  0  0  0  0  0  0  0  0  0  0
    0.5938    3.5081   -1.1597 O   0  0  0  0  0  0  0  0  0  0  0  0
    0.2949   -1.3277   -1.0202 S   0  0  0  0  0  0  0  0  0  0  0  0
   -1.3120    1.5934   -2.8882 S   0  0  0  0  0  0  0  0  0  0  0  0
    1.0881    1.8922    0.8250 H   0  0  0  0  0  0  0  0  0  0  0  0
    2.1048    2.1687   -1.3380 H   0  0  0  0  0  0  0  0  0  0  0  0
    0.8667   -0.4686    1.0776 H   0  0  0  0  0  0  0  0  0  0  0  0
    2.1918   -0.1612   -0.0528 H   0  0  0  0  0  0  0  0  0  0  0  0
    0.8811    2.2782   -3.4310 H   0  0  0  0  0  0  0  0  0  0  0  0
    0.9280    0.6401   -2.8656 H   0  0  0  0  0  0  0  0  0  0  0  0
   -1.2231    0.7956   -0.3002 H   0  0  0  0  0  0  0  0  0  0  0  0
   -0.3844    3.4946   -1.1575 H   0  0  0  0  0  0  0  0  0  0  0  0
    1.0311   -1.1388   -2.1284 H   0  0  0  0  0  0  0  0  0  0  0  0
   -1.6341    0.5611   -2.0945 H   0  0  0  0  0  0  0  0  0  0  0  0
  1 11  1  0  0  0  0
  1 12  1  0  0  0  0
  2 13  1  0  0  0  0
  2 14  1  0  0  0  0
  3  1  1  0  0  0  0
  3  5  1  0  0  0  0
  3  9  1  1  0  0  0
  4  2  1  0  0  0  0
  4  3  1  0  0  0  0
  4  6  1  0  0  0  0
  4 10  1  6  0  0  0
  5 15  1  0  0  0  0
  6 16  1  0  0  0  0
  7  1  1  0  0  0  0
  7 17  1  0  0  0  0
  8  2  1  0  0  0  0
  8 18  1  0  0  0  0
M  END
>  <DRUGBANK_ID>
DB01692

>  <SECONDARY_ACCESSION_NUMBERS>
EXPT01292

>  <COMMON_NAME>
Dithioerythritol

>  <CAS_NUMBER>
6892-68-8

>  <UNII>
R4SVL81GQI

>  <SYNONYMS>
(2R,3S)-1,4-dimercaptobutane-2,3-diol; (2R*,3S*)-1,4-dimercapto-2,3-butanediol; 1,4-dithioerythritol; DTE; erythro-1,4-Dimercapto-2,3-butanediol

$$$$
