
 OpenBabel10282417153D

 36 36  0  0  0  0  0  0  0  0999 V2000
   -1.0498    0.5312    0.1734 N   0  0  0  0  0  0  0  0  0  0  0  0
   -2.2548    1.0873    0.5605 C   0  0  0  0  0  0  0  0  0  0  0  0
   -2.3852    2.5790    0.8923 C   0  0  0  0  0  0  0  0  0  0  0  0
   -3.7448    3.1163    1.4493 C   0  0  0  0  0  0  0  0  0  0  0  0
   -3.5445    3.6725    2.8829 C   0  0  0  0  0  0  0  0  0  0  0  0
   -2.5225    4.7965    2.9924 C   0  0  0  0  0  0  0  0  0  0  0  0
   -4.2038    4.2313    0.4952 C   0  0  0  0  0  0  0  0  0  0  0  0
   -4.9085    2.1031    1.5228 C   0  0  0  0  0  0  0  0  0  0  0  0
   -1.4226    3.3180    0.6934 O   0  0  0  0  0  0  0  0  0  0  0  0
   -3.2552    0.3971    0.7232 O   0  0  0  0  0  0  0  0  0  0  0  0
   -0.8998   -0.8891   -0.2088 C   0  0  2  0  0  0  0  0  0  0  0  0
   -1.8738   -1.9676    0.3208 C   0  0  0  0  0  0  0  0  0  0  0  0
   -1.5776   -2.9766    0.9409 O   0  0  0  0  0  0  0  0  0  0  0  0
   -3.1465   -1.7711   -0.0926 O   0  0  0  0  0  0  0  0  0  0  0  0
    0.5477   -1.1478    0.2300 C   0  0  0  0  0  0  0  0  0  0  0  0
    1.2710    0.1468   -0.1402 C   0  0  0  0  0  0  0  0  0  0  0  0
    0.2169    1.2370    0.0256 C   0  0  0  0  0  0  0  0  0  0  0  0
   -4.5050    4.0533    3.2587 H   0  0  0  0  0  0  0  0  0  0  0  0
   -3.2506    2.8596    3.5600 H   0  0  0  0  0  0  0  0  0  0  0  0
   -2.7876    5.6406    2.3508 H   0  0  0  0  0  0  0  0  0  0  0  0
   -2.4626    5.1658    4.0183 H   0  0  0  0  0  0  0  0  0  0  0  0
   -1.5222    4.4542    2.7207 H   0  0  0  0  0  0  0  0  0  0  0  0
   -4.3590    3.8374   -0.5150 H   0  0  0  0  0  0  0  0  0  0  0  0
   -5.1441    4.6763    0.8393 H   0  0  0  0  0  0  0  0  0  0  0  0
   -3.4642    5.0318    0.4074 H   0  0  0  0  0  0  0  0  0  0  0  0
   -5.1330    1.6861    0.5328 H   0  0  0  0  0  0  0  0  0  0  0  0
   -4.6863    1.2833    2.2177 H   0  0  0  0  0  0  0  0  0  0  0  0
   -5.8375    2.5583    1.8801 H   0  0  0  0  0  0  0  0  0  0  0  0
   -0.9480   -0.9421   -1.3036 H   0  0  0  0  0  0  0  0  0  0  0  0
   -3.7203   -1.7996    0.7045 H   0  0  0  0  0  0  0  0  0  0  0  0
    0.6029   -1.2997    1.3168 H   0  0  0  0  0  0  0  0  0  0  0  0
    0.9949   -2.0219   -0.2516 H   0  0  0  0  0  0  0  0  0  0  0  0
    2.1461    0.3335    0.4915 H   0  0  0  0  0  0  0  0  0  0  0  0
    1.6180    0.1074   -1.1790 H   0  0  0  0  0  0  0  0  0  0  0  0
    0.4188    1.8493    0.9072 H   0  0  0  0  0  0  0  0  0  0  0  0
    0.1725    1.8763   -0.8643 H   0  0  0  0  0  0  0  0  0  0  0  0
  2  1  1  0  0  0  0
  3  2  1  0  0  0  0
  4  3  1  0  0  0  0
  5  4  1  0  0  0  0
  5 18  1  0  0  0  0
  5 19  1  0  0  0  0
  6  5  1  0  0  0  0
  6 20  1  0  0  0  0
  6 21  1  0  0  0  0
  6 22  1  0  0  0  0
  7  4  1  0  0  0  0
  7 23  1  0  0  0  0
  7 24  1  0  0  0  0
  7 25  1  0  0  0  0
  8  4  1  0  0  0  0
  8 26  1  0  0  0  0
  8 27  1  0  0  0  0
  8 28  1  0  0  0  0
  9  3  2  0  0  0  0
 10  2  2  0  0  0  0
 11  1  1  0  0  0  0
 11 29  1  6  0  0  0
 11 12  1  0  0  0  0
 13 12  2  0  0  0  0
 14 12  1  0  0  0  0
 14 30  1  0  0  0  0
 15 11  1  0  0  0  0
 15 31  1  0  0  0  0
 15 32  1  0  0  0  0
 16 15  1  0  0  0  0
 16 17  1  0  0  0  0
 16 33  1  0  0  0  0
 16 34  1  0  0  0  0
 17  1  1  0  0  0  0
 17 35  1  0  0  0  0
 17 36  1  0  0  0  0
M  END
>  <DRUGBANK_ID>
DB05814

>  <COMMON_NAME>
GPI-1485

>  <CAS_NUMBER>
186268-78-0

>  <UNII>
0709BVY57W

$$$$
