
 OpenBabel10282417173D

 24 25  0  0  0  0  0  0  0  0999 V2000
    0.9643    1.4199    0.0031 C   0  0  0  0  0  0  0  0  0  0  0  0
   -0.2118    0.6636   -0.0048 C   0  0  0  0  0  0  0  0  0  0  0  0
   -0.2162   -0.7309    0.0017 C   0  0  0  0  0  0  0  0  0  0  0  0
    1.0192   -1.4080    0.0244 C   0  0  0  0  0  0  0  0  0  0  0  0
    2.2057   -0.6695   -0.0052 C   0  0  0  0  0  0  0  0  0  0  0  0
    2.1754    0.7228   -0.0185 C   0  0  0  0  0  0  0  0  0  0  0  0
   -1.5807   -1.1576   -0.0406 C   0  0  0  0  0  0  0  0  0  0  0  0
   -1.5225    1.0753   -0.0332 N   0  0  0  0  0  0  0  0  0  0  0  0
   -2.3428   -0.0103   -0.1559 C   0  0  0  0  0  0  0  0  0  0  0  0
   -2.0821   -2.5738   -0.0219 C   0  0  0  0  0  0  0  0  0  0  0  0
   -2.9731   -2.8921    1.1915 C   0  0  0  0  0  0  0  0  0  0  0  0
   -4.2151   -2.1130    1.2202 N   0  0  0  0  0  0  0  0  0  0  0  0
    0.9422    2.5039   -0.0041 H   0  0  0  0  0  0  0  0  0  0  0  0
    1.0540   -2.4928    0.0281 H   0  0  0  0  0  0  0  0  0  0  0  0
    3.1582   -1.1922   -0.0291 H   0  0  0  0  0  0  0  0  0  0  0  0
    3.1088    1.2786   -0.0540 H   0  0  0  0  0  0  0  0  0  0  0  0
   -1.8290    2.0350   -0.0227 H   0  0  0  0  0  0  0  0  0  0  0  0
   -3.4094    0.1263   -0.2808 H   0  0  0  0  0  0  0  0  0  0  0  0
   -2.6170   -2.7841   -0.9558 H   0  0  0  0  0  0  0  0  0  0  0  0
   -1.2290   -3.2649    0.0020 H   0  0  0  0  0  0  0  0  0  0  0  0
   -3.2376   -3.9544    1.1728 H   0  0  0  0  0  0  0  0  0  0  0  0
   -2.4173   -2.7063    2.1181 H   0  0  0  0  0  0  0  0  0  0  0  0
   -4.7306   -2.3194    2.0720 H   0  0  0  0  0  0  0  0  0  0  0  0
   -3.9563   -1.1299    1.3052 H   0  0  0  0  0  0  0  0  0  0  0  0
  1  6  1  0  0  0  0
  1 13  1  0  0  0  0
  2  1  2  0  0  0  0
  2  8  1  0  0  0  0
  3  2  1  0  0  0  0
  3  7  1  0  0  0  0
  3  4  2  0  0  0  0
  4  5  1  0  0  0  0
  4 14  1  0  0  0  0
  5  6  2  0  0  0  0
  5 15  1  0  0  0  0
  6 16  1  0  0  0  0
  7  9  2  0  0  0  0
  7 10  1  0  0  0  0
  8  9  1  0  0  0  0
  8 17  1  0  0  0  0
  9 18  1  0  0  0  0
 10 11  1  0  0  0  0
 10 19  1  0  0  0  0
 10 20  1  0  0  0  0
 11 12  1  0  0  0  0
 11 21  1  0  0  0  0
 11 22  1  0  0  0  0
 12 23  1  0  0  0  0
 12 24  1  0  0  0  0
M  END
>  <DRUGBANK_ID>
DB08653

>  <COMMON_NAME>
Tryptamine

>  <CAS_NUMBER>
61-54-1

>  <UNII>
422ZU9N5TV

>  <SYNONYMS>
1H-indole-3-ethanamine; 2-(3-indolyl)ethylamine; 3-(2-Aminoethyl)indole; Tryptamine

$$$$
