
 OpenBabel10282417233D

 40 43  0  0  0  0  0  0  0  0999 V2000
    1.0464   -0.0459    0.0009 O   0  5  0  0  0  0  0  0  0  0  0  0
    2.2825    0.0656   -0.0127 N   0  3  0  0  0  0  0  0  0  0  0  0
    2.9083    1.0210   -0.4866 O   0  0  0  0  0  0  0  0  0  0  0  0
    3.0652   -1.0261    0.5615 C   0  0  0  0  0  0  0  0  0  0  0  0
    2.6888   -2.3484    0.3180 C   0  0  0  0  0  0  0  0  0  0  0  0
    3.5230   -3.3853    0.7604 C   0  0  0  0  0  0  0  0  0  0  0  0
    4.7156   -3.1139    1.4567 C   0  0  0  0  0  0  0  0  0  0  0  0
    5.0811   -1.7759    1.6692 C   0  0  0  0  0  0  0  0  0  0  0  0
    4.2420   -0.7297    1.2588 C   0  0  0  0  0  0  0  0  0  0  0  0
    5.5523   -4.2231    1.9314 C   0  0  0  0  0  0  0  0  0  0  0  0
    6.0780   -5.1709    1.1782 N   0  0  0  0  0  0  0  0  0  0  0  0
    6.6873   -6.0462    2.0415 C   0  0  0  0  0  0  0  0  0  0  0  0
    6.5595   -5.6361    3.3610 C   0  0  0  0  0  0  0  0  0  0  0  0
    5.8427   -4.4611    3.2651 N   0  0  0  0  0  0  0  0  0  0  0  0
    7.0731   -6.2498    4.5899 C   0  0  0  0  0  0  0  0  0  0  0  0
    8.4513   -6.4398    4.7403 C   0  0  0  0  0  0  0  0  0  0  0  0
    8.9148   -7.1947    5.8065 C   0  0  0  0  0  0  0  0  0  0  0  0
    8.1079   -7.7637    6.7240 N   0  0  0  0  0  0  0  0  0  0  0  0
    6.7815   -7.5665    6.5672 C   0  0  0  0  0  0  0  0  0  0  0  0
    6.2210   -6.8185    5.5376 C   0  0  0  0  0  0  0  0  0  0  0  0
    7.3842   -7.2498    1.6291 C   0  0  0  0  0  0  0  0  0  0  0  0
    8.5103   -7.1654    0.8017 C   0  0  0  0  0  0  0  0  0  0  0  0
    9.2514   -8.3151    0.5138 C   0  0  0  0  0  0  0  0  0  0  0  0
    8.8717   -9.5356    1.0642 C   0  0  0  0  0  0  0  0  0  0  0  0
    9.5736  -10.6389    0.7746 F   0  0  0  0  0  0  0  0  0  0  0  0
    7.7669   -9.6316    1.9000 C   0  0  0  0  0  0  0  0  0  0  0  0
    6.9979   -8.4957    2.1487 C   0  0  0  0  0  0  0  0  0  0  0  0
    1.7767   -2.5807   -0.2291 H   0  0  0  0  0  0  0  0  0  0  0  0
    3.2509   -4.4168    0.5385 H   0  0  0  0  0  0  0  0  0  0  0  0
    6.0462   -1.5332    2.1092 H   0  0  0  0  0  0  0  0  0  0  0  0
    4.5207    0.3021    1.4640 H   0  0  0  0  0  0  0  0  0  0  0  0
    5.5536   -3.8770    4.0364 H   0  0  0  0  0  0  0  0  0  0  0  0
    9.1576   -6.0508    4.0142 H   0  0  0  0  0  0  0  0  0  0  0  0
    9.9768   -7.3837    5.9394 H   0  0  0  0  0  0  0  0  0  0  0  0
    6.1588   -8.0665    7.3049 H   0  0  0  0  0  0  0  0  0  0  0  0
    5.1426   -6.7464    5.4574 H   0  0  0  0  0  0  0  0  0  0  0  0
    8.8220   -6.2051    0.3976 H   0  0  0  0  0  0  0  0  0  0  0  0
   10.1289   -8.2657   -0.1226 H   0  0  0  0  0  0  0  0  0  0  0  0
    7.5160  -10.5818    2.3597 H   0  0  0  0  0  0  0  0  0  0  0  0
    6.1079   -8.5803    2.7676 H   0  0  0  0  0  0  0  0  0  0  0  0
  1  2  1  0  0  0  0
  2  3  2  0  0  0  0
  2  4  1  0  0  0  0
  4  5  2  0  0  0  0
  4  9  1  0  0  0  0
  5  6  1  0  0  0  0
  5 28  1  0  0  0  0
  6  7  2  0  0  0  0
  6 29  1  0  0  0  0
  7  8  1  0  0  0  0
  7 10  1  0  0  0  0
  8  9  2  0  0  0  0
  8 30  1  0  0  0  0
  9 31  1  0  0  0  0
 10 11  2  0  0  0  0
 10 14  1  0  0  0  0
 11 12  1  0  0  0  0
 12 13  2  0  0  0  0
 12 21  1  0  0  0  0
 13 14  1  0  0  0  0
 13 15  1  0  0  0  0
 14 32  1  0  0  0  0
 15 16  2  0  0  0  0
 15 20  1  0  0  0  0
 16 17  1  0  0  0  0
 16 33  1  0  0  0  0
 17 18  2  0  0  0  0
 17 34  1  0  0  0  0
 18 19  1  0  0  0  0
 19 20  2  0  0  0  0
 19 35  1  0  0  0  0
 20 36  1  0  0  0  0
 21 22  2  0  0  0  0
 21 27  1  0  0  0  0
 22 23  1  0  0  0  0
 22 37  1  0  0  0  0
 23 24  2  0  0  0  0
 23 38  1  0  0  0  0
 24 25  1  0  0  0  0
 24 26  1  0  0  0  0
 26 27  2  0  0  0  0
 26 39  1  0  0  0  0
 27 40  1  0  0  0  0
M  CHG  2   1  -1   2   1
M  END
>  <DRUGBANK_ID>
DB17040

>  <COMMON_NAME>
PD-169316

>  <CAS_NUMBER>
152121-53-4

>  <UNII>
GX3Y2V80CV

>  <SYNONYMS>
2-(4-nitrophenyl)-4-(4-fluorophenyl)-5-(4-pyridinyl)-1h-imidazole; Pyridine, 4-(4-(4-fluorophenyl)-2-(4-nitrophenyl)-1h-imidazol-5-yl)-; Pyridine, 4-(5-(4-fluorophenyl)-2-(4-nitrophenyl)-1h-imidazol-4-yl)-

$$$$
