
 OpenBabel10282417143D

 32 31  0  0  0  0  0  0  0  0999 V2000
    1.0791   -0.0766   -0.1600 C   0  0  0  0  0  0  0  0  0  0  0  0
    0.5616   -0.8696    1.0291 C   0  0  0  0  0  0  0  0  0  0  0  0
    1.0588   -0.3229    2.3674 C   0  0  0  0  0  0  0  0  0  0  0  0
    0.5170    1.0506    2.7117 C   0  0  0  0  0  0  0  0  0  0  0  0
   -0.2124    1.2695    3.6728 O   0  0  0  0  0  0  0  0  0  0  0  0
    0.9515    1.9914    1.8416 O   0  0  0  0  0  0  0  0  0  0  0  0
    0.3521    3.2896    1.9455 C   0  0  0  0  0  0  0  0  0  0  0  0
   -1.0849    3.3167    1.8968 O   0  0  0  0  0  0  0  0  0  0  0  0
   -1.6437    2.9303    0.7203 C   0  0  0  0  0  0  0  0  0  0  0  0
   -1.0005    2.6247   -0.2768 O   0  0  0  0  0  0  0  0  0  0  0  0
   -3.1786    2.9337    0.7727 C   0  0  0  0  0  0  0  0  0  0  0  0
   -3.6918    2.0131    1.8862 C   0  0  0  0  0  0  0  0  0  0  0  0
   -3.6977    4.3580    0.9980 C   0  0  0  0  0  0  0  0  0  0  0  0
   -3.7223    2.4204   -0.5733 C   0  0  0  0  0  0  0  0  0  0  0  0
    0.7112    0.9464   -0.1474 H   0  0  0  0  0  0  0  0  0  0  0  0
    0.7365   -0.5082   -1.1028 H   0  0  0  0  0  0  0  0  0  0  0  0
    2.1722   -0.0384   -0.1565 H   0  0  0  0  0  0  0  0  0  0  0  0
   -0.5344   -0.8883    1.0136 H   0  0  0  0  0  0  0  0  0  0  0  0
    0.9001   -1.9081    0.9201 H   0  0  0  0  0  0  0  0  0  0  0  0
    0.7281   -1.0062    3.1605 H   0  0  0  0  0  0  0  0  0  0  0  0
    2.1535   -0.3073    2.4093 H   0  0  0  0  0  0  0  0  0  0  0  0
    0.6812    3.7488    2.8840 H   0  0  0  0  0  0  0  0  0  0  0  0
    0.7572    3.9159    1.1389 H   0  0  0  0  0  0  0  0  0  0  0  0
   -3.3560    2.3463    2.8738 H   0  0  0  0  0  0  0  0  0  0  0  0
   -4.7887    1.9927    1.9008 H   0  0  0  0  0  0  0  0  0  0  0  0
   -3.3402    0.9853    1.7453 H   0  0  0  0  0  0  0  0  0  0  0  0
   -3.3478    5.0355    0.2117 H   0  0  0  0  0  0  0  0  0  0  0  0
   -4.7943    4.3798    0.9960 H   0  0  0  0  0  0  0  0  0  0  0  0
   -3.3606    4.7623    1.9584 H   0  0  0  0  0  0  0  0  0  0  0  0
   -3.3819    3.0503   -1.4036 H   0  0  0  0  0  0  0  0  0  0  0  0
   -3.3781    1.3992   -0.7751 H   0  0  0  0  0  0  0  0  0  0  0  0
   -4.8178    2.4136   -0.5873 H   0  0  0  0  0  0  0  0  0  0  0  0
  1  2  1  0  0  0  0
  1 15  1  0  0  0  0
  1 16  1  0  0  0  0
  1 17  1  0  0  0  0
  2  3  1  0  0  0  0
  2 18  1  0  0  0  0
  2 19  1  0  0  0  0
  3  4  1  0  0  0  0
  3 20  1  0  0  0  0
  3 21  1  0  0  0  0
  4  5  2  0  0  0  0
  4  6  1  0  0  0  0
  6  7  1  0  0  0  0
  7  8  1  0  0  0  0
  7 22  1  0  0  0  0
  7 23  1  0  0  0  0
  8  9  1  0  0  0  0
  9 10  2  0  0  0  0
  9 11  1  0  0  0  0
 11 12  1  0  0  0  0
 11 13  1  0  0  0  0
 11 14  1  0  0  0  0
 12 24  1  0  0  0  0
 12 25  1  0  0  0  0
 12 26  1  0  0  0  0
 13 27  1  0  0  0  0
 13 28  1  0  0  0  0
 13 29  1  0  0  0  0
 14 30  1  0  0  0  0
 14 31  1  0  0  0  0
 14 32  1  0  0  0  0
M  END
>  <DRUGBANK_ID>
DB05103

>  <COMMON_NAME>
AN-9

>  <CAS_NUMBER>
122110-53-6

>  <UNII>
55VNK5440P

>  <SYNONYMS>
Pivaloyloxymethyl butyrate; Pivaloyloxymethylbutyrate; Pivanex

$$$$
