
 OpenBabel10282417193D

 39 41  0  0  0  0  0  0  0  0999 V2000
    1.0254   -0.1077   -0.1163 C   0  0  0  0  0  0  0  0  0  0  0  0
    0.4613   -0.4877    1.2597 C   0  0  0  0  0  0  0  0  0  0  0  0
   -0.8055   10.1901   -0.5764 C   0  0  0  0  0  0  0  0  0  0  0  0
   -2.1684    9.9050   -0.3649 C   0  0  0  0  0  0  0  0  0  0  0  0
    0.1838    9.2349   -0.3155 C   0  0  0  0  0  0  0  0  0  0  0  0
   -2.5660    8.6608    0.1207 C   0  0  0  0  0  0  0  0  0  0  0  0
   -0.5262    2.2431    1.1030 C   0  0  0  0  0  0  0  0  0  0  0  0
    0.9219    2.9879    2.8767 C   0  0  0  0  0  0  0  0  0  0  0  0
   -0.7380    3.5500    0.7024 C   0  0  0  0  0  0  0  0  0  0  0  0
    0.7135    4.3086    2.4769 C   0  0  0  0  0  0  0  0  0  0  0  0
    0.6071    6.8206    0.5607 C   0  0  0  0  0  0  0  0  0  0  0  0
    0.3773    1.9344    2.1311 C   0  0  0  0  0  0  0  0  0  0  0  0
   -0.2144    8.0080    0.1784 C   0  0  0  0  0  0  0  0  0  0  0  0
   -0.1127    4.5820    1.3871 C   0  0  0  0  0  0  0  0  0  0  0  0
    0.8488    0.5072    2.3763 C   0  0  3  0  0  0  0  0  0  0  0  0
   -1.5690    7.7447    0.3908 C   0  0  0  0  0  0  0  0  0  0  0  0
   -1.6918    6.3956    0.9385 C   0  0  0  0  0  0  0  0  0  0  0  0
    0.4081   -0.0097    3.7326 C   0  0  0  0  0  0  0  0  0  0  0  0
   -0.4024    5.8972    1.0322 N   0  0  0  0  0  0  0  0  0  0  0  0
   -2.7515    5.8860    1.2720 O   0  0  0  0  0  0  0  0  0  0  0  0
    1.1500   -0.3198    4.6532 O   0  0  0  0  0  0  0  0  0  0  0  0
   -0.9305   -0.0836    3.8729 O   0  0  0  0  0  0  0  0  0  0  0  0
    0.7382    0.8889   -0.4597 H   0  0  0  0  0  0  0  0  0  0  0  0
    0.6573   -0.7988   -0.8785 H   0  0  0  0  0  0  0  0  0  0  0  0
    2.1175   -0.1180   -0.1077 H   0  0  0  0  0  0  0  0  0  0  0  0
   -0.6315   -0.5775    1.2042 H   0  0  0  0  0  0  0  0  0  0  0  0
    0.8251   -1.4903    1.5136 H   0  0  0  0  0  0  0  0  0  0  0  0
   -0.5184   11.1723   -0.9457 H   0  0  0  0  0  0  0  0  0  0  0  0
   -2.9171   10.6645   -0.5769 H   0  0  0  0  0  0  0  0  0  0  0  0
    1.2308    9.4606   -0.4890 H   0  0  0  0  0  0  0  0  0  0  0  0
   -3.6097    8.4169    0.2895 H   0  0  0  0  0  0  0  0  0  0  0  0
   -1.0453    1.4711    0.5422 H   0  0  0  0  0  0  0  0  0  0  0  0
    1.5065    2.7890    3.7730 H   0  0  0  0  0  0  0  0  0  0  0  0
   -1.3604    3.7426   -0.1675 H   0  0  0  0  0  0  0  0  0  0  0  0
    1.1514    5.1167    3.0536 H   0  0  0  0  0  0  0  0  0  0  0  0
    1.3136    7.0501    1.3617 H   0  0  0  0  0  0  0  0  0  0  0  0
    1.1146    6.3956   -0.3132 H   0  0  0  0  0  0  0  0  0  0  0  0
    1.9497    0.5319    2.3981 H   0  0  0  0  0  0  0  0  0  0  0  0
   -1.0828   -0.3572    4.8005 H   0  0  0  0  0  0  0  0  0  0  0  0
  1 23  1  0  0  0  0
  1 24  1  0  0  0  0
  1 25  1  0  0  0  0
  2  1  1  0  0  0  0
  2 26  1  0  0  0  0
  2 27  1  0  0  0  0
  3 28  1  0  0  0  0
  4  3  2  0  0  0  0
  4 29  1  0  0  0  0
  5  3  1  0  0  0  0
  5 30  1  0  0  0  0
  6  4  1  0  0  0  0
  6 31  1  0  0  0  0
  7 32  1  0  0  0  0
  8 33  1  0  0  0  0
  9  7  1  0  0  0  0
  9 34  1  0  0  0  0
 10  8  2  0  0  0  0
 10 35  1  0  0  0  0
 11 36  1  0  0  0  0
 11 37  1  0  0  0  0
 12  7  2  0  0  0  0
 12  8  1  0  0  0  0
 13  5  2  0  0  0  0
 13 11  1  0  0  0  0
 14  9  2  0  0  0  0
 14 10  1  0  0  0  0
 15  2  1  0  0  0  0
 15 12  1  0  0  0  0
 15 38  1  0  0  0  0
 16  6  2  0  0  0  0
 16 13  1  0  0  0  0
 17 16  1  0  0  0  0
 18 15  1  0  0  0  0
 19 11  1  0  0  0  0
 19 14  1  0  0  0  0
 19 17  1  0  0  0  0
 20 17  2  0  0  0  0
 21 18  2  0  0  0  0
 22 18  1  0  0  0  0
 22 39  1  0  0  0  0
M  END
>  <DRUGBANK_ID>
DB12545

>  <COMMON_NAME>
Indobufen

>  <CAS_NUMBER>
63610-08-2

>  <UNII>
6T9949G4LZ

>  <SYNONYMS>
Indobufen

$$$$
