474
 OpenBabel10282417163D

 62 65  0  0  0  0  0  0  0  0999 V2000
    3.2256   -0.1308    1.6183 C   0  0  1  0  0  0  0  0  0  0  0  0
    2.6413   -1.3946    2.3267 C   0  0  1  0  0  0  0  0  0  0  0  0
    3.6251   -2.2670    3.1576 C   0  0  0  0  0  0  0  0  0  0  0  0
    3.0101   -3.1036    4.0867 N   0  0  0  0  0  0  0  0  0  0  0  0
    4.7662    0.0309    1.8012 C   0  0  0  0  0  0  0  0  0  0  0  0
    1.3986   -1.0349    3.0664 N   0  0  0  0  0  0  0  0  0  0  0  0
    4.8280   -2.3994    2.9252 O   0  0  0  0  0  0  0  0  0  0  0  0
    5.5789   -0.0744    0.8860 O   0  0  0  0  0  0  0  0  0  0  0  0
    5.3618    0.2989    3.0039 N   0  0  0  0  0  0  0  0  0  0  0  0
    4.6973    0.2806    4.2738 C   0  0  0  0  0  0  0  0  0  0  0  0
    6.8146    0.0956    2.9707 C   0  0  0  0  0  0  0  0  0  0  0  0
    3.7002   -3.3252    5.3614 C   0  0  0  0  0  0  0  0  0  0  0  0
    4.1940   -4.7580    5.3634 C   0  0  0  0  0  0  0  0  0  0  0  0
    3.2602   -5.4803    4.4220 C   0  0  0  0  0  0  0  0  0  0  0  0
    2.7041   -4.4005    3.5043 C   0  0  0  0  0  0  0  0  0  0  0  0
    5.4745   -4.8493    4.9506 F   0  0  0  0  0  0  0  0  0  0  0  0
    5.0521   -0.0793   -1.6155 C   0  0  1  0  0  0  0  0  0  0  0  0
    4.5044    1.2649   -0.9887 C   0  0  0  0  0  0  0  0  0  0  0  0
    3.0253    1.1771   -0.6578 C   0  0  0  0  0  0  0  0  0  0  0  0
    2.6690   -0.0948    0.1407 C   0  0  1  0  0  0  0  0  0  0  0  0
    3.0339   -1.3454   -0.6731 C   0  0  0  0  0  0  0  0  0  0  0  0
    4.5305   -1.4152   -0.9549 C   0  0  0  0  0  0  0  0  0  0  0  0
    3.6489    0.0937   -5.7002 C   0  0  0  0  0  0  0  0  0  0  0  0
    4.4799    1.1289   -5.1841 C   0  0  0  0  0  0  0  0  0  0  0  0
    4.9769    1.0305   -3.9363 C   0  0  0  0  0  0  0  0  0  0  0  0
    4.6507   -0.1058   -3.0782 C   0  0  0  0  0  0  0  0  0  0  0  0
    3.9205   -1.0989   -3.6184 C   0  0  0  0  0  0  0  0  0  0  0  0
    3.4039   -0.9953   -4.8800 N   0  0  0  0  0  0  0  0  0  0  0  0
    2.5806   -1.8688   -5.4919 N   0  0  0  0  0  0  0  0  0  0  0  0
    2.4152   -1.2895   -6.6761 C   0  0  0  0  0  0  0  0  0  0  0  0
    3.0433   -0.0893   -6.8520 N   0  0  0  0  0  0  0  0  0  0  0  0
    4.1288   -5.2951    6.6024 F   0  0  0  0  0  0  0  0  0  0  0  0
    2.2568   -2.1102    1.5989 H   0  0  0  0  0  0  0  0  0  0  0  0
    2.8017    0.7760    2.0766 H   0  0  0  0  0  0  0  0  0  0  0  0
    1.5687   -0.0868    0.2054 H   0  0  0  0  0  0  0  0  0  0  0  0
    6.1499   -0.0705   -1.5571 H   0  0  0  0  0  0  0  0  0  0  0  0
    1.0736   -1.8563    3.5758 H   0  0  0  0  0  0  0  0  0  0  0  0
    1.5896   -0.3146    3.7565 H   0  0  0  0  0  0  0  0  0  0  0  0
    5.0062   -0.6236    4.7988 H   0  0  0  0  0  0  0  0  0  0  0  0
    4.9867    1.1601    4.8412 H   0  0  0  0  0  0  0  0  0  0  0  0
    3.6170    0.2749    4.1519 H   0  0  0  0  0  0  0  0  0  0  0  0
    7.0459   -0.8542    2.4593 H   0  0  0  0  0  0  0  0  0  0  0  0
    7.2692    0.8958    2.3727 H   0  0  0  0  0  0  0  0  0  0  0  0
    7.2429    0.0618    3.9677 H   0  0  0  0  0  0  0  0  0  0  0  0
    4.5082   -2.6112    5.5452 H   0  0  0  0  0  0  0  0  0  0  0  0
    2.9361   -3.1903    6.1332 H   0  0  0  0  0  0  0  0  0  0  0  0
    2.4421   -5.9572    4.9685 H   0  0  0  0  0  0  0  0  0  0  0  0
    3.7864   -6.2506    3.8493 H   0  0  0  0  0  0  0  0  0  0  0  0
    1.6152   -4.4601    3.4360 H   0  0  0  0  0  0  0  0  0  0  0  0
    3.1137   -4.4964    2.4897 H   0  0  0  0  0  0  0  0  0  0  0  0
    5.0297    1.6077   -0.0928 H   0  0  0  0  0  0  0  0  0  0  0  0
    4.6969    2.1300   -1.6315 H   0  0  0  0  0  0  0  0  0  0  0  0
    2.7063    2.0730   -0.1118 H   0  0  0  0  0  0  0  0  0  0  0  0
    2.4710    1.1943   -1.6072 H   0  0  0  0  0  0  0  0  0  0  0  0
    2.7312   -2.2835   -0.2052 H   0  0  0  0  0  0  0  0  0  0  0  0
    2.4336   -1.3251   -1.5872 H   0  0  0  0  0  0  0  0  0  0  0  0
    4.7928   -2.2848   -1.5692 H   0  0  0  0  0  0  0  0  0  0  0  0
    5.0292   -1.7375   -0.0388 H   0  0  0  0  0  0  0  0  0  0  0  0
    4.7119    1.9803   -5.8090 H   0  0  0  0  0  0  0  0  0  0  0  0
    5.6258    1.8087   -3.5396 H   0  0  0  0  0  0  0  0  0  0  0  0
    3.6092   -2.0077   -3.1292 H   0  0  0  0  0  0  0  0  0  0  0  0
    1.8144   -1.7710   -7.4325 H   0  0  0  0  0  0  0  0  0  0  0  0
  1  5  1  0  0  0  0
  1 34  1  1  0  0  0
  1  2  1  0  0  0  0
  2  6  1  0  0  0  0
  2 33  1  6  0  0  0
  2  3  1  0  0  0  0
  3  7  2  0  0  0  0
  3  4  1  0  0  0  0
  4 15  1  0  0  0  0
  4 12  1  0  0  0  0
  5  8  2  0  0  0  0
  5  9  1  0  0  0  0
  6 37  1  0  0  0  0
  6 38  1  0  0  0  0
  9 10  1  0  0  0  0
  9 11  1  0  0  0  0
 10 39  1  0  0  0  0
 10 40  1  0  0  0  0
 10 41  1  0  0  0  0
 11 42  1  0  0  0  0
 11 43  1  0  0  0  0
 11 44  1  0  0  0  0
 12 13  1  0  0  0  0
 12 45  1  0  0  0  0
 12 46  1  0  0  0  0
 13 14  1  0  0  0  0
 13 32  1  0  0  0  0
 13 16  1  0  0  0  0
 14 15  1  0  0  0  0
 14 47  1  0  0  0  0
 14 48  1  0  0  0  0
 15 49  1  0  0  0  0
 15 50  1  0  0  0  0
 17 18  1  0  0  0  0
 17 22  1  0  0  0  0
 17 26  1  0  0  0  0
 17 36  1  1  0  0  0
 18 19  1  0  0  0  0
 18 51  1  0  0  0  0
 18 52  1  0  0  0  0
 19 20  1  0  0  0  0
 19 53  1  0  0  0  0
 19 54  1  0  0  0  0
 20 21  1  0  0  0  0
 20 35  1  1  0  0  0
 20  1  1  0  0  0  0
 21 22  1  0  0  0  0
 21 55  1  0  0  0  0
 21 56  1  0  0  0  0
 22 57  1  0  0  0  0
 22 58  1  0  0  0  0
 23 28  1  0  0  0  0
 23 31  2  0  0  0  0
 23 24  1  0  0  0  0
 24 25  2  0  0  0  0
 24 59  1  0  0  0  0
 25 26  1  0  0  0  0
 25 60  1  0  0  0  0
 26 27  2  0  0  0  0
 27 28  1  0  0  0  0
 27 61  1  0  0  0  0
 28 29  1  0  0  0  0
 29 30  2  0  0  0  0
 30 31  1  0  0  0  0
 30 62  1  0  0  0  0
M  END
>  <DRUGBANK_ID>
DB07092

>  <COMMON_NAME>
(2S,3S)-3-AMINO-4-(3,3-DIFLUOROPYRROLIDIN-1-YL)-N,N-DIMETHYL-4-OXO-2-(TRANS-4-[1,2,4]TRIAZOLO[1,5-A]PYRIDIN-6-YLCYCLOHEXYL)BUTANAMIDE

$$$$
