
 OpenBabel10282417143D

 69 71  0  0  1  0  0  0  0  0999 V2000
    1.0002   -0.3927    0.0200 O   0  0  0  0  0  0  0  0  0  0  0  0
    0.8959   -3.8742    1.8412 O   0  0  0  0  0  0  0  0  0  0  0  0
    0.8037    5.0341   -1.5205 O   0  0  0  0  0  0  0  0  0  0  0  0
    1.0059    4.7316    0.7069 O   0  0  0  0  0  0  0  0  0  0  0  0
   -2.1268    4.5727    6.4208 O   0  0  0  0  0  0  0  0  0  0  0  0
    2.9704   -0.9457    0.9875 N   0  0  0  0  0  0  0  0  0  0  0  0
    2.6096    2.2739   -0.4484 N   0  0  0  0  0  0  0  0  0  0  0  0
    1.4973   -2.4962    3.4627 N   0  0  0  0  0  0  0  0  0  0  0  0
    0.1624    4.6843    5.2660 N   0  0  0  0  0  0  0  0  0  0  0  0
   -1.5345    3.3294    6.1606 N   0  0  0  0  0  0  0  0  0  0  0  0
    2.6884    0.4360   -2.3480 C   0  0  0  0  0  0  0  0  0  0  0  0
    2.9073    0.8503   -0.8197 C   0  0  2  0  0  0  0  0  0  0  0  0
    3.9148    0.8229   -3.1923 C   0  0  0  0  0  0  0  0  0  0  0  0
    1.4548    1.0622   -2.9988 C   0  0  0  0  0  0  0  0  0  0  0  0
    3.6812    0.6054   -4.6937 C   0  0  0  0  0  0  0  0  0  0  0  0
    1.2139    1.0061   -4.4863 C   0  0  0  0  0  0  0  0  0  0  0  0
    2.7944   -2.4081    1.2121 C   0  0  1  0  0  0  0  0  0  0  0  0
    2.4853    1.3730   -5.2352 C   0  0  0  0  0  0  0  0  0  0  0  0
    4.2945   -0.8851    1.5901 C   0  0  0  0  0  0  0  0  0  0  0  0
    4.2944   -2.4276    1.5820 C   0  0  0  0  0  0  0  0  0  0  0  0
    2.2128   -0.1834    0.1218 C   0  0  0  0  0  0  0  0  0  0  0  0
    1.6648   -2.9560    2.1712 C   0  0  0  0  0  0  0  0  0  0  0  0
    1.2095    2.7423   -0.6407 C   0  0  0  0  0  0  0  0  0  0  0  0
    1.0084    4.2310   -0.4364 C   0  0  0  0  0  0  0  0  0  0  0  0
    2.2753   -1.4904    4.1141 C   0  0  0  0  0  0  0  0  0  0  0  0
    1.5679   -0.2024    4.3831 C   0  0  0  0  0  0  0  0  0  0  0  0
    0.4114   -0.2291    5.1558 C   0  0  0  0  0  0  0  0  0  0  0  0
    2.0978    1.0396    3.9904 C   0  0  0  0  0  0  0  0  0  0  0  0
    0.8326    4.6785   -2.9318 C   0  0  0  0  0  0  0  0  0  0  0  0
   -0.2024    0.9575    5.5423 C   0  0  0  0  0  0  0  0  0  0  0  0
    1.5155    2.2314    4.4262 C   0  0  0  0  0  0  0  0  0  0  0  0
    0.3379    2.1984    5.1759 C   0  0  0  0  0  0  0  0  0  0  0  0
    2.2466    4.4214   -3.4067 C   0  0  0  0  0  0  0  0  0  0  0  0
   -0.3840    3.4579    5.5579 C   0  0  0  0  0  0  0  0  0  0  0  0
   -2.9475    4.3058    6.8750 H   0  0  0  0  0  0  0  0  0  0  0  0
    3.2573    2.8859   -0.9430 H   0  0  0  0  0  0  0  0  0  0  0  0
    0.7282   -2.9254    3.9642 H   0  0  0  0  0  0  0  0  0  0  0  0
   -0.4926    5.4547    5.3500 H   0  0  0  0  0  0  0  0  0  0  0  0
    0.8593    4.7907    4.5426 H   0  0  0  0  0  0  0  0  0  0  0  0
    2.5573   -0.6518   -2.4007 H   0  0  0  0  0  0  0  0  0  0  0  0
    3.9839    0.7267   -0.6303 H   0  0  0  0  0  0  0  0  0  0  0  0
    4.1824    1.8721   -3.0101 H   0  0  0  0  0  0  0  0  0  0  0  0
    4.7748    0.2254   -2.8725 H   0  0  0  0  0  0  0  0  0  0  0  0
    0.5350    0.8366   -2.4500 H   0  0  0  0  0  0  0  0  0  0  0  0
    1.6815    2.1075   -2.9502 H   0  0  0  0  0  0  0  0  0  0  0  0
    4.5751    0.9211   -5.2393 H   0  0  0  0  0  0  0  0  0  0  0  0
    3.5176   -0.4585   -4.8836 H   0  0  0  0  0  0  0  0  0  0  0  0
    0.4330    1.7469   -4.7271 H   0  0  0  0  0  0  0  0  0  0  0  0
    0.8343    0.0256   -4.7694 H   0  0  0  0  0  0  0  0  0  0  0  0
    2.6797   -2.9291    0.2467 H   0  0  0  0  0  0  0  0  0  0  0  0
    2.7182    2.4331   -5.1392 H   0  0  0  0  0  0  0  0  0  0  0  0
    2.3341    1.2151   -6.3058 H   0  0  0  0  0  0  0  0  0  0  0  0
    5.1058   -0.3699    1.0820 H   0  0  0  0  0  0  0  0  0  0  0  0
    4.3110   -0.4291    2.5867 H   0  0  0  0  0  0  0  0  0  0  0  0
    4.5498   -2.9551    2.5092 H   0  0  0  0  0  0  0  0  0  0  0  0
    4.9508   -2.8165    0.7937 H   0  0  0  0  0  0  0  0  0  0  0  0
    0.7985    2.6401   -1.6190 H   0  0  0  0  0  0  0  0  0  0  0  0
    0.5059    2.1592   -0.0453 H   0  0  0  0  0  0  0  0  0  0  0  0
    2.7485   -1.8895    5.0156 H   0  0  0  0  0  0  0  0  0  0  0  0
    3.0807   -1.2962    3.4644 H   0  0  0  0  0  0  0  0  0  0  0  0
   -0.0117   -1.1810    5.4619 H   0  0  0  0  0  0  0  0  0  0  0  0
    2.9695    1.1178    3.3456 H   0  0  0  0  0  0  0  0  0  0  0  0
    0.1313    3.8638   -3.1567 H   0  0  0  0  0  0  0  0  0  0  0  0
    0.4603    5.5393   -3.5022 H   0  0  0  0  0  0  0  0  0  0  0  0
   -1.1035    0.8961    6.1449 H   0  0  0  0  0  0  0  0  0  0  0  0
    2.0031    3.1649    4.1669 H   0  0  0  0  0  0  0  0  0  0  0  0
    2.7520    3.6555   -2.8242 H   0  0  0  0  0  0  0  0  0  0  0  0
    2.2167    4.1354   -4.4566 H   0  0  0  0  0  0  0  0  0  0  0  0
    2.8891    5.2946   -3.3110 H   0  0  0  0  0  0  0  0  0  0  0  0
  1 21  2  0  0  0  0
  2 22  2  0  0  0  0
  3 24  1  0  0  0  0
  3 29  1  0  0  0  0
  4 24  2  0  0  0  0
  5 10  1  0  0  0  0
  5 35  1  0  0  0  0
  6 17  1  0  0  0  0
  6 19  1  0  0  0  0
  6 21  1  0  0  0  0
  7 23  1  0  0  0  0
  7 36  1  0  0  0  0
  8 22  1  0  0  0  0
  8 25  1  0  0  0  0
  8 37  1  0  0  0  0
  9 34  1  0  0  0  0
  9 38  1  0  0  0  0
  9 39  1  0  0  0  0
 10 34  2  0  0  0  0
 11 13  1  0  0  0  0
 11 14  1  0  0  0  0
 11 40  1  0  0  0  0
 12 21  1  0  0  0  0
 12 41  1  1  0  0  0
 12 11  1  0  0  0  0
 12  7  1  0  0  0  0
 13 15  1  0  0  0  0
 13 42  1  0  0  0  0
 13 43  1  0  0  0  0
 14 16  1  0  0  0  0
 14 44  1  0  0  0  0
 14 45  1  0  0  0  0
 15 18  1  0  0  0  0
 15 46  1  0  0  0  0
 15 47  1  0  0  0  0
 16 18  1  0  0  0  0
 16 48  1  0  0  0  0
 16 49  1  0  0  0  0
 17 20  1  0  0  0  0
 17 22  1  0  0  0  0
 17 50  1  6  0  0  0
 18 51  1  0  0  0  0
 18 52  1  0  0  0  0
 19 20  1  0  0  0  0
 19 53  1  0  0  0  0
 19 54  1  0  0  0  0
 20 55  1  0  0  0  0
 20 56  1  0  0  0  0
 23 24  1  0  0  0  0
 23 57  1  0  0  0  0
 23 58  1  0  0  0  0
 25 26  1  0  0  0  0
 25 59  1  0  0  0  0
 25 60  1  0  0  0  0
 26 27  2  0  0  0  0
 26 28  1  0  0  0  0
 27 30  1  0  0  0  0
 27 61  1  0  0  0  0
 28 31  2  0  0  0  0
 28 62  1  0  0  0  0
 29 33  1  0  0  0  0
 29 63  1  0  0  0  0
 29 64  1  0  0  0  0
 30 32  2  0  0  0  0
 30 65  1  0  0  0  0
 31 32  1  0  0  0  0
 31 66  1  0  0  0  0
 32 34  1  0  0  0  0
 33 67  1  0  0  0  0
 33 68  1  0  0  0  0
 33 69  1  0  0  0  0
M  END
>  <DRUGBANK_ID>
DB04898

>  <COMMON_NAME>
Ximelagatran

>  <CAS_NUMBER>
192939-46-1

>  <UNII>
49HFB70472

>  <SYNONYMS>
ethyl 2-[[(1R)-1-cyclohexyl-2- [(2S)-2-[[4-(N'-hydroxycarbamimidoyl) phenyl]methylcarbamoyl]azetidin-1-yl]- 2-oxo-ethyl]amino]acetate; Ximelagatran; Ximélagatran; Ximelagatrán; Ximelagatranum

$$$$
