
 OpenBabel10282417213D

 83 82  0  0  0  0  0  0  0  0999 V2000
    0.6735   -0.2326    0.1735 C   0  0  0  0  0  0  0  0  0  0  0  0
    1.8375    0.1731   -2.5214 C   0  0  0  0  0  0  0  0  0  0  0  0
    0.0753   -1.2510    2.8521 C   0  0  0  0  0  0  0  0  0  0  0  0
   -0.0881   -1.3290   -0.0109 O   0  0  0  0  0  0  0  0  0  0  0  0
    1.7347   -1.4177   -2.5355 O   0  0  0  0  0  0  0  0  0  0  0  0
    0.6624   -2.4402    2.7091 O   0  0  0  0  0  0  0  0  0  0  0  0
    0.1332    0.8801    0.1777 O   0  0  0  0  0  0  0  0  0  0  0  0
    0.2617   -0.2031    2.2837 O   0  0  0  0  0  0  0  0  0  0  0  0
    0.5962    0.5918   -2.3883 O   0  0  0  0  0  0  0  0  0  0  0  0
    0.5708   -2.5694    0.0490 C   0  0  3  0  0  0  0  0  0  0  0  0
    2.1761   -0.4384    0.5464 C   0  0  3  0  0  0  0  0  0  0  0  0
   -0.7656   -1.1953    4.0105 C   0  0  3  0  0  0  0  0  0  0  0  0
    3.5964    1.0000   -2.0755 C   0  0  3  0  0  0  0  0  0  0  0  0
    1.0112   -2.8132   -1.6155 C   0  0  0  0  0  0  0  0  0  0  0  0
    1.4172   -2.6526    1.5687 C   0  0  0  0  0  0  0  0  0  0  0  0
    3.3002   -1.8615    0.2014 C   0  0  0  0  0  0  0  0  0  0  0  0
    2.5035    0.3444   -0.5738 C   0  0  0  0  0  0  0  0  0  0  0  0
   -1.7199   -2.3523    3.9530 C   0  0  0  0  0  0  0  0  0  0  0  0
    4.7134    0.9503   -0.3898 C   0  0  0  0  0  0  0  0  0  0  0  0
    0.2198   -1.1514    5.1617 C   0  0  0  0  0  0  0  0  0  0  0  0
    4.5166    0.7714   -3.1622 C   0  0  0  0  0  0  0  0  0  0  0  0
    2.0870    2.1545   -0.8672 C   0  0  0  0  0  0  0  0  0  0  0  0
    1.1915    0.0364    5.0725 C   0  0  0  0  0  0  0  0  0  0  0  0
    3.4621    0.8636   -4.2492 C   0  0  0  0  0  0  0  0  0  0  0  0
    2.8471    3.1126    0.0517 C   0  0  0  0  0  0  0  0  0  0  0  0
    2.5695    2.1515   -4.2226 C   0  0  0  0  0  0  0  0  0  0  0  0
    0.4490    1.3667    5.0100 C   0  0  0  0  0  0  0  0  0  0  0  0
    3.4209   -2.4411   -1.1463 C   0  0  0  0  0  0  0  0  0  0  0  0
   -1.0217   -3.7029    4.0241 C   0  0  0  0  0  0  0  0  0  0  0  0
    5.5544   -0.2287   -0.0710 C   0  0  0  0  0  0  0  0  0  0  0  0
    4.3656    3.4891   -0.1229 C   0  0  0  0  0  0  0  0  0  0  0  0
    3.4745    3.3586   -4.1068 C   0  0  0  0  0  0  0  0  0  0  0  0
   -0.4459    1.5207    6.2253 C   0  0  0  0  0  0  0  0  0  0  0  0
   -0.1279   -3.3891    0.2461 H   0  0  0  0  0  0  0  0  0  0  0  0
    2.5152    0.1681    1.3860 H   0  0  0  0  0  0  0  0  0  0  0  0
   -1.3308   -0.2635    3.8896 H   0  0  0  0  0  0  0  0  0  0  0  0
    3.7336    2.1075   -1.9711 H   0  0  0  0  0  0  0  0  0  0  0  0
    1.7162   -3.7236   -1.5139 H   0  0  0  0  0  0  0  0  0  0  0  0
    0.4213   -3.1343   -2.4527 H   0  0  0  0  0  0  0  0  0  0  0  0
    1.9945   -3.5954    1.6758 H   0  0  0  0  0  0  0  0  0  0  0  0
    2.1488   -1.8808    1.8703 H   0  0  0  0  0  0  0  0  0  0  0  0
    4.2216   -2.0653    0.7039 H   0  0  0  0  0  0  0  0  0  0  0  0
    2.9808   -2.7458    0.6276 H   0  0  0  0  0  0  0  0  0  0  0  0
    3.4557   -0.1163   -0.6801 H   0  0  0  0  0  0  0  0  0  0  0  0
    2.8258   -0.3906   -1.3850 H   0  0  0  0  0  0  0  0  0  0  0  0
   -2.3798   -2.2237    4.8064 H   0  0  0  0  0  0  0  0  0  0  0  0
   -2.3118   -2.2849    3.0284 H   0  0  0  0  0  0  0  0  0  0  0  0
    5.6307    1.4533   -0.3837 H   0  0  0  0  0  0  0  0  0  0  0  0
    4.1270    1.1804    0.5886 H   0  0  0  0  0  0  0  0  0  0  0  0
   -0.3730   -1.1214    6.0703 H   0  0  0  0  0  0  0  0  0  0  0  0
    0.8316   -2.0569    5.2041 H   0  0  0  0  0  0  0  0  0  0  0  0
    5.2607    1.5702   -3.0488 H   0  0  0  0  0  0  0  0  0  0  0  0
    4.9193   -0.2004   -2.9229 H   0  0  0  0  0  0  0  0  0  0  0  0
    2.2773    2.7404   -1.8112 H   0  0  0  0  0  0  0  0  0  0  0  0
    1.0101    2.2787   -1.1108 H   0  0  0  0  0  0  0  0  0  0  0  0
    1.8475    0.0064    5.9463 H   0  0  0  0  0  0  0  0  0  0  0  0
    1.8532   -0.0559    4.1979 H   0  0  0  0  0  0  0  0  0  0  0  0
    3.9814    0.7360   -5.1717 H   0  0  0  0  0  0  0  0  0  0  0  0
    2.7994   -0.0071   -4.2206 H   0  0  0  0  0  0  0  0  0  0  0  0
    2.3861    4.0989   -0.0450 H   0  0  0  0  0  0  0  0  0  0  0  0
    2.6185    2.6550    1.0049 H   0  0  0  0  0  0  0  0  0  0  0  0
    1.9162    2.1704   -5.0901 H   0  0  0  0  0  0  0  0  0  0  0  0
    1.7932    2.1944   -3.4489 H   0  0  0  0  0  0  0  0  0  0  0  0
    1.1685    2.1873    4.9551 H   0  0  0  0  0  0  0  0  0  0  0  0
   -0.1572    1.4412    4.1008 H   0  0  0  0  0  0  0  0  0  0  0  0
    3.5449   -2.2326   -2.2194 H   0  0  0  0  0  0  0  0  0  0  0  0
    3.5373   -3.5050   -1.0379 H   0  0  0  0  0  0  0  0  0  0  0  0
    2.4526   -2.0499   -1.0027 H   0  0  0  0  0  0  0  0  0  0  0  0
   -0.3298   -3.7372    4.8698 H   0  0  0  0  0  0  0  0  0  0  0  0
   -1.7340   -4.5089    4.0775 H   0  0  0  0  0  0  0  0  0  0  0  0
   -0.4573   -3.9494    3.1230 H   0  0  0  0  0  0  0  0  0  0  0  0
    6.0778   -0.5583   -0.9417 H   0  0  0  0  0  0  0  0  0  0  0  0
    5.9040   -0.3699    0.9655 H   0  0  0  0  0  0  0  0  0  0  0  0
    4.8900   -0.9713   -0.0772 H   0  0  0  0  0  0  0  0  0  0  0  0
    4.6582    3.8319   -1.1220 H   0  0  0  0  0  0  0  0  0  0  0  0
    4.7447    3.8705    0.8211 H   0  0  0  0  0  0  0  0  0  0  0  0
    5.2143    2.8600   -0.1287 H   0  0  0  0  0  0  0  0  0  0  0  0
    4.1674    3.3041   -4.9395 H   0  0  0  0  0  0  0  0  0  0  0  0
    2.9105    4.2861   -4.0810 H   0  0  0  0  0  0  0  0  0  0  0  0
    4.1035    3.3900   -3.2129 H   0  0  0  0  0  0  0  0  0  0  0  0
    0.1583    1.4792    7.1359 H   0  0  0  0  0  0  0  0  0  0  0  0
   -0.9884    2.4638    6.1849 H   0  0  0  0  0  0  0  0  0  0  0  0
   -1.1987    0.7279    6.2830 H   0  0  0  0  0  0  0  0  0  0  0  0
  2  5  1  0  0  0  0
  3  6  1  0  0  0  0
  4  1  1  0  0  0  0
  5 14  1  0  0  0  0
  6 15  1  0  0  0  0
  7  1  2  0  0  0  0
  8  3  2  0  0  0  0
  9  2  2  0  0  0  0
 10  4  1  0  0  0  0
 10 34  1  0  0  0  0
 11  1  1  0  0  0  0
 11 35  1  0  0  0  0
 12  3  1  0  0  0  0
 12 36  1  0  0  0  0
 13  2  1  0  0  0  0
 13 37  1  0  0  0  0
 14 10  1  0  0  0  0
 14 38  1  0  0  0  0
 14 39  1  0  0  0  0
 15 10  1  0  0  0  0
 15 40  1  0  0  0  0
 15 41  1  0  0  0  0
 16 11  1  0  0  0  0
 16 42  1  0  0  0  0
 16 43  1  0  0  0  0
 17 11  1  0  0  0  0
 17 44  1  0  0  0  0
 17 45  1  0  0  0  0
 18 12  1  0  0  0  0
 18 46  1  0  0  0  0
 18 47  1  0  0  0  0
 19 13  1  0  0  0  0
 19 48  1  0  0  0  0
 19 49  1  0  0  0  0
 20 12  1  0  0  0  0
 20 50  1  0  0  0  0
 20 51  1  0  0  0  0
 21 13  1  0  0  0  0
 21 52  1  0  0  0  0
 21 53  1  0  0  0  0
 22 17  1  0  0  0  0
 22 54  1  0  0  0  0
 22 55  1  0  0  0  0
 23 20  1  0  0  0  0
 23 56  1  0  0  0  0
 23 57  1  0  0  0  0
 24 21  1  0  0  0  0
 24 58  1  0  0  0  0
 24 59  1  0  0  0  0
 25 22  1  0  0  0  0
 25 60  1  0  0  0  0
 25 61  1  0  0  0  0
 26 24  1  0  0  0  0
 26 62  1  0  0  0  0
 26 63  1  0  0  0  0
 27 23  1  0  0  0  0
 27 64  1  0  0  0  0
 27 65  1  0  0  0  0
 28 16  1  0  0  0  0
 28 66  1  0  0  0  0
 28 67  1  0  0  0  0
 28 68  1  0  0  0  0
 29 18  1  0  0  0  0
 29 69  1  0  0  0  0
 29 70  1  0  0  0  0
 29 71  1  0  0  0  0
 30 19  1  0  0  0  0
 30 72  1  0  0  0  0
 30 73  1  0  0  0  0
 30 74  1  0  0  0  0
 31 25  1  0  0  0  0
 31 75  1  0  0  0  0
 31 76  1  0  0  0  0
 31 77  1  0  0  0  0
 32 26  1  0  0  0  0
 32 78  1  0  0  0  0
 32 79  1  0  0  0  0
 32 80  1  0  0  0  0
 33 27  1  0  0  0  0
 33 81  1  0  0  0  0
 33 82  1  0  0  0  0
 33 83  1  0  0  0  0
M  END
>  <DRUGBANK_ID>
DB14102

>  <COMMON_NAME>
Triethylhexanoin

>  <CAS_NUMBER>
7360-38-5

>  <UNII>
7K3W1BIU6K

$$$$
