
 OpenBabel10282417243D

 79 82  0  0  0  0  0  0  0  0999 V2000
    5.8049    8.8253    1.1910 C   0  0  0  0  0  0  0  0  0  0  0  0
    4.8107    8.5920    0.1314 N   0  0  0  0  0  0  0  0  0  0  0  0
    4.0552    9.3942   -0.6367 C   0  0  0  0  0  0  0  0  0  0  0  0
    4.0060   10.6901   -0.3420 N   0  0  0  0  0  0  0  0  0  0  0  0
    3.2176   11.4460   -1.2181 C   0  0  0  0  0  0  0  0  0  0  0  0
    1.8399   11.2266   -1.3178 C   0  0  0  0  0  0  0  0  0  0  0  0
    0.9922   10.2149   -0.1906 Cl  0  0  0  0  0  0  0  0  0  0  0  0
    1.0945   11.9269   -2.2453 C   0  0  0  0  0  0  0  0  0  0  0  0
    1.7202   12.7994   -3.1270 C   0  0  0  0  0  0  0  0  0  0  0  0
    3.1064   13.0117   -3.0718 C   0  0  0  0  0  0  0  0  0  0  0  0
    3.6930   13.9136   -4.1104 C   0  0  0  0  0  0  0  0  0  0  0  0
    4.5679   14.9144   -3.5652 N   0  0  0  0  0  0  0  0  0  0  0  0
    5.9161   15.0479   -3.7488 C   0  0  0  0  0  0  0  0  0  0  0  0
    6.4913   15.9239   -3.0980 O   0  0  0  0  0  0  0  0  0  0  0  0
    6.6635   14.1406   -4.7656 C   0  0  0  0  0  0  0  0  0  0  0  0
    6.6544   12.6493   -4.4125 C   0  0  0  0  0  0  0  0  0  0  0  0
    6.0952   14.3471   -6.1730 C   0  0  0  0  0  0  0  0  0  0  0  0
    8.1538   14.5174   -4.7851 C   0  0  0  0  0  0  0  0  0  0  0  0
    3.8449   12.3323   -2.0905 C   0  0  0  0  0  0  0  0  0  0  0  0
    5.5059   12.6208   -1.6853 Cl  0  0  0  0  0  0  0  0  0  0  0  0
    3.3153    8.7333   -1.5543 N   0  0  0  0  0  0  0  0  0  0  0  0
    3.3219    7.4144   -1.2327 C   0  0  0  0  0  0  0  0  0  0  0  0
    2.7227    6.1023   -1.7261 C   0  0  0  0  0  0  0  0  0  0  0  0
    2.9019    4.7971   -1.1408 C   0  0  0  0  0  0  0  0  0  0  0  0
    2.6446    3.3652   -1.6673 C   0  0  0  0  0  0  0  0  0  0  0  0
    1.9313    3.2909   -2.6716 O   0  0  0  0  0  0  0  0  0  0  0  0
    3.1810    2.1127   -1.1810 N   0  0  0  0  0  0  0  0  0  0  0  0
    4.3017    1.7322   -0.2240 C   0  0  1  0  0  0  0  0  0  0  0  0
    5.7518    2.6961   -0.8488 C   0  0  0  0  0  0  0  0  0  0  0  0
    5.8534    4.4536   -0.1963 C   0  0  0  0  0  0  0  0  0  0  0  0
    4.8946    4.7987    1.7099 C   0  0  1  0  0  0  0  0  0  0  0  0
    3.3822    3.6032    2.0699 C   0  0  0  0  0  0  0  0  0  0  0  0
    3.6513    1.9542    1.5176 C   0  0  0  0  0  0  0  0  0  0  0  0
    5.7222    5.3036    2.9017 C   0  0  0  0  0  0  0  0  0  0  0  0
    6.3721    6.4373    2.5761 F   0  0  0  0  0  0  0  0  0  0  0  0
    4.9000    5.5722    3.9343 F   0  0  0  0  0  0  0  0  0  0  0  0
    6.6486    4.4511    3.3530 F   0  0  0  0  0  0  0  0  0  0  0  0
    3.7453    4.9641   -0.1253 C   0  0  0  0  0  0  0  0  0  0  0  0
    4.4200    3.5261    0.4331 O   0  0  0  0  0  0  0  0  0  0  0  0
    5.9932    3.0548    1.4293 C   0  0  0  0  0  0  0  0  0  0  0  0
    7.5698    3.8110    1.1114 C   0  0  0  0  0  0  0  0  0  0  0  0
    7.5329    5.1696    0.9254 F   0  0  0  0  0  0  0  0  0  0  0  0
    8.4376    3.6738    2.1288 F   0  0  0  0  0  0  0  0  0  0  0  0
    4.5969    6.2507    0.1172 C   0  0  0  0  0  0  0  0  0  0  0  0
    4.2477    7.4241   -0.2402 C   0  0  0  0  0  0  0  0  0  0  0  0
    5.4917    8.3762    2.1461 H   0  0  0  0  0  0  0  0  0  0  0  0
    6.7737    8.3722    0.9216 H   0  0  0  0  0  0  0  0  0  0  0  0
    5.9741    9.8878    1.3852 H   0  0  0  0  0  0  0  0  0  0  0  0
    4.8226   11.1615    0.0339 H   0  0  0  0  0  0  0  0  0  0  0  0
    0.0189   11.8118   -2.2529 H   0  0  0  0  0  0  0  0  0  0  0  0
    1.1047   13.3453   -3.8385 H   0  0  0  0  0  0  0  0  0  0  0  0
    4.1707   13.2702   -4.8369 H   0  0  0  0  0  0  0  0  0  0  0  0
    2.9257   14.4492   -4.6814 H   0  0  0  0  0  0  0  0  0  0  0  0
    4.1804   15.5400   -2.8667 H   0  0  0  0  0  0  0  0  0  0  0  0
    5.6596   12.2257   -4.3063 H   0  0  0  0  0  0  0  0  0  0  0  0
    7.1428   12.0241   -5.1613 H   0  0  0  0  0  0  0  0  0  0  0  0
    7.2129   12.4932   -3.4857 H   0  0  0  0  0  0  0  0  0  0  0  0
    6.2107   15.3862   -6.4902 H   0  0  0  0  0  0  0  0  0  0  0  0
    6.5954   13.6837   -6.8830 H   0  0  0  0  0  0  0  0  0  0  0  0
    5.0311   14.1326   -6.2655 H   0  0  0  0  0  0  0  0  0  0  0  0
    8.3039   15.5529   -5.0991 H   0  0  0  0  0  0  0  0  0  0  0  0
    8.6066   14.3943   -3.7929 H   0  0  0  0  0  0  0  0  0  0  0  0
    8.6970   13.8631   -5.4770 H   0  0  0  0  0  0  0  0  0  0  0  0
    2.1817    6.1637   -2.6578 H   0  0  0  0  0  0  0  0  0  0  0  0
    2.8550    1.3127   -1.7054 H   0  0  0  0  0  0  0  0  0  0  0  0
    4.6466    0.6930   -0.2771 H   0  0  0  0  0  0  0  0  0  0  0  0
    6.6813    2.2189   -0.5596 H   0  0  0  0  0  0  0  0  0  0  0  0
    5.7420    2.7383   -1.9486 H   0  0  0  0  0  0  0  0  0  0  0  0
    6.4922    5.2051   -0.6956 H   0  0  0  0  0  0  0  0  0  0  0  0
    5.2493    4.5834   -1.1690 H   0  0  0  0  0  0  0  0  0  0  0  0
    4.1199    5.6161    1.8424 H   0  0  0  0  0  0  0  0  0  0  0  0
    2.9536    3.7677    3.0598 H   0  0  0  0  0  0  0  0  0  0  0  0
    2.4920    3.8664    1.4147 H   0  0  0  0  0  0  0  0  0  0  0  0
    2.7531    1.3419    1.6418 H   0  0  0  0  0  0  0  0  0  0  0  0
    4.3724    1.5887    2.2519 H   0  0  0  0  0  0  0  0  0  0  0  0
    5.6689    3.0706    2.4793 H   0  0  0  0  0  0  0  0  0  0  0  0
    6.1531    1.9762    1.3501 H   0  0  0  0  0  0  0  0  0  0  0  0
    8.0264    3.3947    0.2088 H   0  0  0  0  0  0  0  0  0  0  0  0
    5.5774    6.3156    0.6155 H   0  0  0  0  0  0  0  0  0  0  0  0
  1  2  1  0  0  0  0
  1 46  1  0  0  0  0
  1 47  1  0  0  0  0
  1 48  1  0  0  0  0
  2  3  1  0  0  0  0
  2 45  1  0  0  0  0
  3  4  1  0  0  0  0
  3 21  2  0  0  0  0
  4  5  1  0  0  0  0
  4 49  1  0  0  0  0
  5  6  2  0  0  0  0
  5 19  1  0  0  0  0
  6  7  1  0  0  0  0
  6  8  1  0  0  0  0
  8  9  2  0  0  0  0
  8 50  1  0  0  0  0
  9 10  1  0  0  0  0
  9 51  1  0  0  0  0
 10 11  1  0  0  0  0
 10 19  2  0  0  0  0
 11 12  1  0  0  0  0
 11 52  1  0  0  0  0
 11 53  1  0  0  0  0
 12 13  1  0  0  0  0
 12 54  1  0  0  0  0
 13 14  2  0  0  0  0
 13 15  1  0  0  0  0
 15 16  1  0  0  0  0
 15 17  1  0  0  0  0
 15 18  1  0  0  0  0
 16 55  1  0  0  0  0
 16 56  1  0  0  0  0
 16 57  1  0  0  0  0
 17 58  1  0  0  0  0
 17 59  1  0  0  0  0
 17 60  1  0  0  0  0
 18 61  1  0  0  0  0
 18 62  1  0  0  0  0
 18 63  1  0  0  0  0
 19 20  1  0  0  0  0
 21 22  1  0  0  0  0
 22 23  2  0  0  0  0
 22 45  1  0  0  0  0
 23 24  1  0  0  0  0
 23 64  1  0  0  0  0
 24 25  1  0  0  0  0
 24 38  2  0  0  0  0
 25 26  2  0  0  0  0
 25 27  1  0  0  0  0
 27 65  1  0  0  0  0
 28 29  1  0  0  0  0
 28 33  1  0  0  0  0
 28 66  1  6  0  0  0
 28 27  1  0  0  0  0
 29 30  1  0  0  0  0
 29 67  1  0  0  0  0
 29 68  1  0  0  0  0
 30 69  1  0  0  0  0
 30 70  1  0  0  0  0
 31 30  1  0  0  0  0
 31 32  1  0  0  0  0
 31 34  1  0  0  0  0
 31 71  1  6  0  0  0
 32 33  1  0  0  0  0
 32 72  1  0  0  0  0
 32 73  1  0  0  0  0
 33 74  1  0  0  0  0
 33 75  1  0  0  0  0
 34 35  1  0  0  0  0
 34 36  1  0  0  0  0
 34 37  1  0  0  0  0
 38 39  1  0  0  0  0
 38 44  1  0  0  0  0
 39 40  1  0  0  0  0
 40 41  1  0  0  0  0
 40 76  1  0  0  0  0
 40 77  1  0  0  0  0
 41 42  1  0  0  0  0
 41 43  1  0  0  0  0
 41 78  1  0  0  0  0
 44 45  2  0  0  0  0
 44 79  1  0  0  0  0
M  END
>  <DRUGBANK_ID>
DB18126

>  <COMMON_NAME>
Vipoglanstat

>  <CAS_NUMBER>
1360622-01-0

>  <UNII>
FN57BDR4DA

>  <SYNONYMS>
2-{2,6-Dichloro-3-[(2,2-dimethyl-propionylamino)-methyl]-phenylamino}-6-(2,2-difluoroethoxy)-1-methyl-1H-benzoimidazole-5-carboxylic acid (trans-4-trifluoromethylcyclohexyl)-amide

$$$$
