
 OpenBabel10282417153D

 57 60  0  0  0  0  0  0  0  0999 V2000
    2.4984    0.0023   -0.0142 C   0  0  0  0  0  0  0  0  0  0  0  0
    0.9996   -0.0038   -0.0052 C   0  0  0  0  0  0  0  0  0  0  0  0
    0.2762    1.1961   -0.0013 C   0  0  0  0  0  0  0  0  0  0  0  0
   -1.1184    1.1789   -0.0030 C   0  0  0  0  0  0  0  0  0  0  0  0
   -1.7994   -0.0412   -0.0087 C   0  0  0  0  0  0  0  0  0  0  0  0
   -1.0803   -1.2467   -0.0139 C   0  0  0  0  0  0  0  0  0  0  0  0
    0.3130   -1.2268   -0.0083 C   0  0  0  0  0  0  0  0  0  0  0  0
   -1.8220   -2.5295    0.0054 C   0  0  0  0  0  0  0  0  0  0  0  0
   -1.2834   -3.6976   -0.1572 N   0  0  0  0  0  0  0  0  0  0  0  0
   -2.0563   -4.8373   -0.0617 N   0  0  0  0  0  0  0  0  0  0  0  0
   -3.4312   -5.0625   -0.3656 C   0  0  0  0  0  0  0  0  0  0  0  0
   -4.1401   -4.2580   -1.2844 C   0  0  0  0  0  0  0  0  0  0  0  0
   -5.5602   -4.2829   -1.4097 C   0  0  0  0  0  0  0  0  0  0  0  0
   -6.1762   -5.2821   -0.6942 N   0  0  0  0  0  0  0  0  0  0  0  0
   -5.4132   -6.0874    0.1623 C   0  0  0  0  0  0  0  0  0  0  0  0
   -4.0703   -6.0101    0.3379 N   0  0  0  0  0  0  0  0  0  0  0  0
   -6.0063   -6.7510    1.2619 O   0  0  0  0  0  0  0  0  0  0  0  0
   -7.4273   -6.6658    1.4418 C   0  0  0  0  0  0  0  0  0  0  0  0
   -8.0108   -5.4458    2.1637 C   0  0  0  0  0  0  0  0  0  0  0  0
   -7.5190   -4.1782    1.6501 C   0  0  0  0  0  0  0  0  0  0  0  0
   -6.1577   -3.8714    1.7774 C   0  0  0  0  0  0  0  0  0  0  0  0
   -5.6443   -2.8233    1.1532 C   0  0  0  0  0  0  0  0  0  0  0  0
   -6.5550   -1.9416    0.6169 C   0  0  0  0  0  0  0  0  0  0  0  0
   -7.9515   -2.2421    0.6855 C   0  0  0  0  0  0  0  0  0  0  0  0
   -8.4484   -3.3654    1.1042 N   0  0  0  0  0  0  0  0  0  0  0  0
   -6.1580   -3.1575   -2.1255 N   0  0  0  0  0  0  0  0  0  0  0  0
   -5.9036   -3.1708   -3.5675 C   0  0  0  0  0  0  0  0  0  0  0  0
   -5.4300   -1.7390   -3.9747 C   0  0  0  0  0  0  0  0  0  0  0  0
   -6.3598   -0.6599   -3.7619 O   0  0  0  0  0  0  0  0  0  0  0  0
   -6.6510   -0.6297   -2.3927 C   0  0  0  0  0  0  0  0  0  0  0  0
   -7.2346   -2.0393   -2.0285 C   0  0  0  0  0  0  0  0  0  0  0  0
    2.8824   -0.5224    0.8662 H   0  0  0  0  0  0  0  0  0  0  0  0
    2.8651   -0.4906   -0.9199 H   0  0  0  0  0  0  0  0  0  0  0  0
    2.8945    1.0226   -0.0001 H   0  0  0  0  0  0  0  0  0  0  0  0
    0.7971    2.1521    0.0036 H   0  0  0  0  0  0  0  0  0  0  0  0
   -1.6680    2.1182    0.0014 H   0  0  0  0  0  0  0  0  0  0  0  0
   -2.8865   -0.0325   -0.0095 H   0  0  0  0  0  0  0  0  0  0  0  0
    0.8656   -2.1632    0.0031 H   0  0  0  0  0  0  0  0  0  0  0  0
   -2.8891   -2.4073    0.1750 H   0  0  0  0  0  0  0  0  0  0  0  0
   -1.5795   -5.6810    0.2634 H   0  0  0  0  0  0  0  0  0  0  0  0
   -3.5581   -3.5340   -1.8330 H   0  0  0  0  0  0  0  0  0  0  0  0
   -7.9135   -6.8622    0.4871 H   0  0  0  0  0  0  0  0  0  0  0  0
   -7.7068   -7.4880    2.1162 H   0  0  0  0  0  0  0  0  0  0  0  0
   -9.1084   -5.4674    2.0942 H   0  0  0  0  0  0  0  0  0  0  0  0
   -7.7540   -5.3726    3.2241 H   0  0  0  0  0  0  0  0  0  0  0  0
   -5.4648   -4.6200    2.1719 H   0  0  0  0  0  0  0  0  0  0  0  0
   -4.6167   -2.7839    0.8191 H   0  0  0  0  0  0  0  0  0  0  0  0
   -6.0630   -1.2979   -0.0856 H   0  0  0  0  0  0  0  0  0  0  0  0
   -8.7336   -1.6800    0.1444 H   0  0  0  0  0  0  0  0  0  0  0  0
   -6.8603   -3.4135   -4.0536 H   0  0  0  0  0  0  0  0  0  0  0  0
   -5.1653   -3.9134   -3.8629 H   0  0  0  0  0  0  0  0  0  0  0  0
   -4.5268   -1.4957   -3.4021 H   0  0  0  0  0  0  0  0  0  0  0  0
   -5.2453   -1.7141   -5.0378 H   0  0  0  0  0  0  0  0  0  0  0  0
   -7.3448    0.1976   -2.1329 H   0  0  0  0  0  0  0  0  0  0  0  0
   -5.7444   -0.3665   -1.8156 H   0  0  0  0  0  0  0  0  0  0  0  0
   -8.1816   -2.2891   -2.5238 H   0  0  0  0  0  0  0  0  0  0  0  0
   -7.5947   -1.6069   -1.1521 H   0  0  0  0  0  0  0  0  0  0  0  0
  1  2  1  0  0  0  0
  1 32  1  0  0  0  0
  1 33  1  0  0  0  0
  1 34  1  0  0  0  0
  2  3  2  0  0  0  0
  2  7  1  0  0  0  0
  3  4  1  0  0  0  0
  3 35  1  0  0  0  0
  4  5  2  0  0  0  0
  4 36  1  0  0  0  0
  5  6  1  0  0  0  0
  5 37  1  0  0  0  0
  6  7  2  0  0  0  0
  6  8  1  0  0  0  0
  7 38  1  0  0  0  0
  8  9  2  0  0  0  0
  8 39  1  0  0  0  0
  9 10  1  0  0  0  0
 10 11  1  0  0  0  0
 10 40  1  0  0  0  0
 11 12  2  0  0  0  0
 11 16  1  0  0  0  0
 12 13  1  0  0  0  0
 12 41  1  0  0  0  0
 13 14  2  0  0  0  0
 13 26  1  0  0  0  0
 14 15  1  0  0  0  0
 15 16  2  0  0  0  0
 15 17  1  0  0  0  0
 17 18  1  0  0  0  0
 18 19  1  0  0  0  0
 18 42  1  0  0  0  0
 18 43  1  0  0  0  0
 19 20  1  0  0  0  0
 19 44  1  0  0  0  0
 19 45  1  0  0  0  0
 20 21  2  0  0  0  0
 20 25  1  0  0  0  0
 21 22  1  0  0  0  0
 21 46  1  0  0  0  0
 22 23  2  0  0  0  0
 22 47  1  0  0  0  0
 23 24  1  0  0  0  0
 23 48  1  0  0  0  0
 24 25  2  0  0  0  0
 24 49  1  0  0  0  0
 26 27  1  0  0  0  0
 26 31  1  0  0  0  0
 27 28  1  0  0  0  0
 27 50  1  0  0  0  0
 27 51  1  0  0  0  0
 28 29  1  0  0  0  0
 28 52  1  0  0  0  0
 28 53  1  0  0  0  0
 29 30  1  0  0  0  0
 30 31  1  0  0  0  0
 30 54  1  0  0  0  0
 30 55  1  0  0  0  0
 31 56  1  0  0  0  0
 31 57  1  0  0  0  0
M  END
>  <DRUGBANK_ID>
DB05611

>  <COMMON_NAME>
Apilimod

>  <CAS_NUMBER>
541550-19-0

>  <UNII>
GFW2K84S4L

>  <SYNONYMS>
Apilimod

$$$$
