
 OpenBabel10282417223D

 47 50  0  0  0  0  0  0  0  0999 V2000
    1.2350    0.9580   -0.0198 N   0  0  0  0  0  0  0  0  0  0  0  0
    0.0862    1.6515   -0.0438 C   0  0  0  0  0  0  0  0  0  0  0  0
   -1.1302    1.1195   -0.0181 N   0  0  0  0  0  0  0  0  0  0  0  0
   -1.2067   -0.2082   -0.0012 C   0  0  0  0  0  0  0  0  0  0  0  0
   -0.1031   -1.0765   -0.0011 C   0  0  0  0  0  0  0  0  0  0  0  0
    1.1292   -0.3902   -0.0056 C   0  0  0  0  0  0  0  0  0  0  0  0
    2.3573   -1.0201   -0.0534 N   0  0  0  0  0  0  0  0  0  0  0  0
   -0.1426   -2.5291   -0.0019 N   0  0  0  0  0  0  0  0  0  0  0  0
   -2.5036   -0.6033    0.1814 N   0  0  0  0  0  0  0  0  0  0  0  0
    0.0882    3.1047    0.0612 C   0  0  0  0  0  0  0  0  0  0  0  0
    0.3694    5.1626   -0.4231 N   0  0  0  0  0  0  0  0  0  0  0  0
   -0.2927    5.1906    0.7805 C   0  0  0  0  0  0  0  0  0  0  0  0
   -0.5034    3.8558    1.1122 C   0  0  0  0  0  0  0  0  0  0  0  0
    0.5278    3.9120   -0.9105 N   0  0  0  0  0  0  0  0  0  0  0  0
   -0.6672    6.2699    1.5069 N   0  0  0  0  0  0  0  0  0  0  0  0
   -1.3137    5.9211    2.6558 C   0  0  0  0  0  0  0  0  0  0  0  0
   -1.5890    4.6269    3.0770 C   0  0  0  0  0  0  0  0  0  0  0  0
   -1.1870    3.5550    2.2999 C   0  0  0  0  0  0  0  0  0  0  0  0
    0.8464    6.2950   -1.2080 C   0  0  0  0  0  0  0  0  0  0  0  0
    2.3454    6.2714   -1.3977 C   0  0  0  0  0  0  0  0  0  0  0  0
    2.9856    5.2370   -2.0972 C   0  0  0  0  0  0  0  0  0  0  0  0
    4.3690    5.1822   -2.2157 C   0  0  0  0  0  0  0  0  0  0  0  0
    5.1445    6.2044   -1.6827 C   0  0  0  0  0  0  0  0  0  0  0  0
    4.5292    7.2721   -1.0295 C   0  0  0  0  0  0  0  0  0  0  0  0
    3.1397    7.3045   -0.8800 C   0  0  0  0  0  0  0  0  0  0  0  0
   -2.2331    4.4053    4.2300 F   0  0  0  0  0  0  0  0  0  0  0  0
    2.2817    4.2757   -2.7083 F   0  0  0  0  0  0  0  0  0  0  0  0
   -1.1802   -3.4626   -0.0011 C   0  0  0  0  0  0  0  0  0  0  0  0
   -0.9850   -4.6612   -0.0167 O   0  0  0  0  0  0  0  0  0  0  0  0
   -2.4048   -2.9102    0.0031 O   0  0  0  0  0  0  0  0  0  0  0  0
   -3.6873   -3.5651    0.0107 C   0  0  0  0  0  0  0  0  0  0  0  0
    2.5148   -1.9959    0.1090 H   0  0  0  0  0  0  0  0  0  0  0  0
    3.1466   -0.3822    0.0103 H   0  0  0  0  0  0  0  0  0  0  0  0
    0.7569   -2.9896   -0.0253 H   0  0  0  0  0  0  0  0  0  0  0  0
   -2.6508   -1.5311   -0.1686 H   0  0  0  0  0  0  0  0  0  0  0  0
   -3.2435    0.0500   -0.0163 H   0  0  0  0  0  0  0  0  0  0  0  0
   -1.6309    6.7532    3.2789 H   0  0  0  0  0  0  0  0  0  0  0  0
   -1.3950    2.5329    2.5951 H   0  0  0  0  0  0  0  0  0  0  0  0
    0.3373    6.2742   -2.1785 H   0  0  0  0  0  0  0  0  0  0  0  0
    0.5364    7.2132   -0.6952 H   0  0  0  0  0  0  0  0  0  0  0  0
    4.8211    4.3413   -2.7321 H   0  0  0  0  0  0  0  0  0  0  0  0
    6.2250    6.1735   -1.7861 H   0  0  0  0  0  0  0  0  0  0  0  0
    5.1352    8.0804   -0.6283 H   0  0  0  0  0  0  0  0  0  0  0  0
    2.6848    8.1448   -0.3592 H   0  0  0  0  0  0  0  0  0  0  0  0
   -3.8373   -4.1283   -0.9088 H   0  0  0  0  0  0  0  0  0  0  0  0
   -3.8344   -4.1387    0.9245 H   0  0  0  0  0  0  0  0  0  0  0  0
   -4.4308   -2.7506    0.0157 H   0  0  0  0  0  0  0  0  0  0  0  0
  1  2  1  0  0  0  0
  1  6  2  0  0  0  0
  2  3  2  0  0  0  0
  2 10  1  0  0  0  0
  3  4  1  0  0  0  0
  4  5  2  0  0  0  0
  4  9  1  0  0  0  0
  5  6  1  0  0  0  0
  5  8  1  0  0  0  0
  6  7  1  0  0  0  0
  7 32  1  0  0  0  0
  7 33  1  0  0  0  0
  8 28  1  0  0  0  0
  8 34  1  0  0  0  0
  9 35  1  0  0  0  0
  9 36  1  0  0  0  0
 10 14  2  0  0  0  0
 11 12  1  0  0  0  0
 11 14  1  0  0  0  0
 12 13  2  0  0  0  0
 12 15  1  0  0  0  0
 13 10  1  0  0  0  0
 13 18  1  0  0  0  0
 15 16  2  0  0  0  0
 16 17  1  0  0  0  0
 16 37  1  0  0  0  0
 17 18  2  0  0  0  0
 17 26  1  0  0  0  0
 18 38  1  0  0  0  0
 19 11  1  0  0  0  0
 19 20  1  0  0  0  0
 19 39  1  0  0  0  0
 19 40  1  0  0  0  0
 20 21  1  0  0  0  0
 20 25  2  0  0  0  0
 21 22  2  0  0  0  0
 21 27  1  0  0  0  0
 22 23  1  0  0  0  0
 22 41  1  0  0  0  0
 23 24  2  0  0  0  0
 23 42  1  0  0  0  0
 24 25  1  0  0  0  0
 24 43  1  0  0  0  0
 25 44  1  0  0  0  0
 28 29  2  0  0  0  0
 28 30  1  0  0  0  0
 30 31  1  0  0  0  0
 31 45  1  0  0  0  0
 31 46  1  0  0  0  0
 31 47  1  0  0  0  0
M  END
>  <DRUGBANK_ID>
DB15456

>  <COMMON_NAME>
Vericiguat

>  <CAS_NUMBER>
1350653-20-1

>  <UNII>
LV66ADM269

>  <SYNONYMS>
Vericiguat; VÃ©riciguat; Vericiguatum

$$$$
