
 OpenBabel10282417203D

 60 63  0  0  0  0  0  0  0  0999 V2000
    0.1040   -7.5882    1.9244 C   0  0  0  0  0  0  0  0  0  0  0  0
    0.3600   -7.7406    0.4367 C   0  0  0  0  0  0  0  0  0  0  0  0
    0.1931   -6.6635   -0.4605 C   0  0  0  0  0  0  0  0  0  0  0  0
    1.0255   -6.5361   -1.5986 C   0  0  0  0  0  0  0  0  0  0  0  0
    1.5744   -7.7215   -2.0886 C   0  0  0  0  0  0  0  0  0  0  0  0
    1.3869   -8.9197   -1.3854 C   0  0  0  0  0  0  0  0  0  0  0  0
    0.8591   -8.9175   -0.0885 C   0  0  0  0  0  0  0  0  0  0  0  0
    2.3028   -7.8022   -3.2453 O   0  0  0  0  0  0  0  0  0  0  0  0
    1.4755   -5.1949   -2.1754 C   0  0  0  0  0  0  0  0  0  0  0  0
    2.0132   -5.1790   -3.2867 O   0  0  0  0  0  0  0  0  0  0  0  0
    1.4218   -3.9916   -1.4738 N   0  0  0  0  0  0  0  0  0  0  0  0
    1.0568   -3.7556   -0.0821 C   0  0  1  0  0  0  0  0  0  0  0  0
    1.7048   -4.7795    0.8460 C   0  0  0  0  0  0  0  0  0  0  0  0
    3.1854   -4.7620    0.8694 C   0  0  0  0  0  0  0  0  0  0  0  0
    3.5369   -3.4530    1.4619 C   0  0  2  0  0  0  0  0  0  0  0  0
    2.9979   -2.2851    0.6427 C   0  0  0  0  0  0  0  0  0  0  0  0
    1.4703   -2.3824    0.4683 C   0  0  0  0  0  0  0  0  0  0  0  0
    4.9536   -3.5110    1.6537 N   0  0  0  0  0  0  0  0  0  0  0  0
    5.5914   -3.5351    2.8645 C   0  0  0  0  0  0  0  0  0  0  0  0
    6.7405   -3.9735    2.9671 O   0  0  0  0  0  0  0  0  0  0  0  0
    4.9120   -2.9446    4.0208 C   0  0  0  0  0  0  0  0  0  0  0  0
    5.2643   -1.7240    4.6061 C   0  0  0  0  0  0  0  0  0  0  0  0
    4.5529   -1.2455    5.6730 N   0  0  0  0  0  0  0  0  0  0  0  0
    3.4928   -1.9701    6.1304 C   0  0  0  0  0  0  0  0  0  0  0  0
    3.0869   -3.1607    5.5706 C   0  0  0  0  0  0  0  0  0  0  0  0
    3.8228   -3.6717    4.5278 C   0  0  0  0  0  0  0  0  0  0  0  0
    2.0048   -3.8153    6.0070 F   0  0  0  0  0  0  0  0  0  0  0  0
    6.3031   -0.8763    4.2483 O   0  0  0  0  0  0  0  0  0  0  0  0
    7.0339   -1.0981    3.1031 C   0  0  0  0  0  0  0  0  0  0  0  0
    8.3812   -1.4498    3.2252 C   0  0  0  0  0  0  0  0  0  0  0  0
    9.0841   -1.8564    2.0894 C   0  0  0  0  0  0  0  0  0  0  0  0
    8.4540   -1.9275    0.8510 C   0  0  0  0  0  0  0  0  0  0  0  0
    7.1292   -1.5315    0.7173 C   0  0  0  0  0  0  0  0  0  0  0  0
    6.4378   -1.0474    1.8357 C   0  0  0  0  0  0  0  0  0  0  0  0
    9.1066   -2.4010   -0.2200 F   0  0  0  0  0  0  0  0  0  0  0  0
   10.3668   -2.2286    2.2054 F   0  0  0  0  0  0  0  0  0  0  0  0
   -0.8459   -8.0415    2.1964 H   0  0  0  0  0  0  0  0  0  0  0  0
    0.9105   -8.0355    2.5294 H   0  0  0  0  0  0  0  0  0  0  0  0
    0.0777   -6.5384    2.2462 H   0  0  0  0  0  0  0  0  0  0  0  0
   -0.3345   -5.8022   -0.0730 H   0  0  0  0  0  0  0  0  0  0  0  0
    1.6946   -9.8588   -1.8324 H   0  0  0  0  0  0  0  0  0  0  0  0
    0.8239   -9.8308    0.4986 H   0  0  0  0  0  0  0  0  0  0  0  0
    2.3979   -6.8974   -3.6188 H   0  0  0  0  0  0  0  0  0  0  0  0
    1.6576   -3.1817   -2.0441 H   0  0  0  0  0  0  0  0  0  0  0  0
   -0.0386   -3.7970   -0.0645 H   0  0  0  0  0  0  0  0  0  0  0  0
    1.2357   -4.7553    1.8328 H   0  0  0  0  0  0  0  0  0  0  0  0
    1.6836   -5.7806    0.5221 H   0  0  0  0  0  0  0  0  0  0  0  0
    3.5306   -5.6160    1.4728 H   0  0  0  0  0  0  0  0  0  0  0  0
    3.6146   -4.9093   -0.1321 H   0  0  0  0  0  0  0  0  0  0  0  0
    3.0080   -3.4003    2.4078 H   0  0  0  0  0  0  0  0  0  0  0  0
    3.2324   -1.3556    1.1663 H   0  0  0  0  0  0  0  0  0  0  0  0
    3.4728   -2.2651   -0.3410 H   0  0  0  0  0  0  0  0  0  0  0  0
    1.0958   -1.5567   -0.1444 H   0  0  0  0  0  0  0  0  0  0  0  0
    0.9947   -2.2722    1.4581 H   0  0  0  0  0  0  0  0  0  0  0  0
    5.5088   -3.8896    0.8898 H   0  0  0  0  0  0  0  0  0  0  0  0
    2.9623   -1.5668    6.9880 H   0  0  0  0  0  0  0  0  0  0  0  0
    3.5183   -4.6097    4.0733 H   0  0  0  0  0  0  0  0  0  0  0  0
    8.8655   -1.4980    4.1945 H   0  0  0  0  0  0  0  0  0  0  0  0
    6.6162   -1.6919   -0.2270 H   0  0  0  0  0  0  0  0  0  0  0  0
    5.3804   -0.8175    1.7460 H   0  0  0  0  0  0  0  0  0  0  0  0
  1  2  1  0  0  0  0
  1 37  1  0  0  0  0
  1 38  1  0  0  0  0
  1 39  1  0  0  0  0
  2  3  2  0  0  0  0
  2  7  1  0  0  0  0
  3  4  1  0  0  0  0
  3 40  1  0  0  0  0
  4  5  2  0  0  0  0
  4  9  1  0  0  0  0
  5  6  1  0  0  0  0
  5  8  1  0  0  0  0
  6  7  2  0  0  0  0
  6 41  1  0  0  0  0
  7 42  1  0  0  0  0
  8 43  1  0  0  0  0
  9 10  2  0  0  0  0
  9 11  1  0  0  0  0
 11 44  1  0  0  0  0
 12 13  1  0  0  0  0
 12 17  1  0  0  0  0
 12 45  1  1  0  0  0
 12 11  1  0  0  0  0
 13 14  1  0  0  0  0
 13 46  1  0  0  0  0
 13 47  1  0  0  0  0
 14 15  1  0  0  0  0
 14 48  1  0  0  0  0
 14 49  1  0  0  0  0
 15 16  1  0  0  0  0
 15 50  1  1  0  0  0
 15 18  1  0  0  0  0
 16 17  1  0  0  0  0
 16 51  1  0  0  0  0
 16 52  1  0  0  0  0
 17 53  1  0  0  0  0
 17 54  1  0  0  0  0
 18 19  1  0  0  0  0
 18 55  1  0  0  0  0
 19 20  2  0  0  0  0
 19 21  1  0  0  0  0
 21 22  2  0  0  0  0
 21 26  1  0  0  0  0
 22 23  1  0  0  0  0
 22 28  1  0  0  0  0
 23 24  2  0  0  0  0
 24 25  1  0  0  0  0
 24 56  1  0  0  0  0
 25 26  2  0  0  0  0
 25 27  1  0  0  0  0
 26 57  1  0  0  0  0
 28 29  1  0  0  0  0
 29 30  2  0  0  0  0
 29 34  1  0  0  0  0
 30 31  1  0  0  0  0
 30 58  1  0  0  0  0
 31 32  2  0  0  0  0
 31 36  1  0  0  0  0
 32 33  1  0  0  0  0
 32 35  1  0  0  0  0
 33 34  2  0  0  0  0
 33 59  1  0  0  0  0
 34 60  1  0  0  0  0
M  END
>  <DRUGBANK_ID>
DB12837

>  <COMMON_NAME>
UK-500001

>  <CAS_NUMBER>
582332-31-8

>  <UNII>
YOG0PR3Q8J

$$$$
