
 OpenBabel10282417183D

 53 54  0  0  0  0  0  0  0  0999 V2000
    0.6126    0.0533   -0.0664 C   0  0  0  0  0  0  0  0  0  0  0  0
    1.8548    2.9934    0.6613 C   0  0  0  0  0  0  0  0  0  0  0  0
    0.9706    4.1661    2.6367 C   0  0  0  0  0  0  0  0  0  0  0  0
    4.1094    5.5143   -0.0269 C   0  0  0  0  0  0  0  0  0  0  0  0
    5.2395    7.2644    1.1794 C   0  0  0  0  0  0  0  0  0  0  0  0
    0.3942   -0.7293   -1.3264 C   0  0  0  0  0  0  0  0  0  0  0  0
    4.4080    1.6545    0.9638 C   0  0  0  0  0  0  0  0  0  0  0  0
    6.1737    2.0262   -1.1445 C   0  0  0  0  0  0  0  0  0  0  0  0
    4.3871   -1.1077   -2.1221 C   0  0  0  0  0  0  0  0  0  0  0  0
    3.5175    3.8659    2.5305 C   0  0  0  0  0  0  0  0  0  0  0  0
    6.6414    5.2836    0.4894 C   0  0  0  0  0  0  0  0  0  0  0  0
    2.1620    4.0533    1.6977 C   0  0  0  0  0  0  0  0  0  0  0  0
    5.4444    6.1897    0.1000 C   0  0  0  0  0  0  0  0  0  0  0  0
    4.4730    0.7478   -0.0809 C   0  0  0  0  0  0  0  0  0  0  0  0
    3.4005   -1.2383   -1.2109 C   0  0  0  0  0  0  0  0  0  0  0  0
    5.3605    0.8863   -1.1424 C   0  0  0  0  0  0  0  0  0  0  0  0
    5.1225    2.8230    0.9381 C   0  0  0  0  0  0  0  0  0  0  0  0
    6.0489    3.0167   -0.1194 C   0  0  0  0  0  0  0  0  0  0  0  0
    3.6058   -0.4277   -0.0034 C   0  0  0  0  0  0  0  0  0  0  0  0
    2.3921   -2.3077   -1.3041 C   0  0  0  0  0  0  0  0  0  0  0  0
    5.3412   -0.1009   -2.1387 N   0  0  0  0  0  0  0  0  0  0  0  0
    3.0655   -0.6984    1.0812 O   0  0  0  0  0  0  0  0  0  0  0  0
    2.7599   -3.4680   -1.4668 O   0  0  0  0  0  0  0  0  0  0  0  0
    1.0602   -2.0189   -1.2717 O   0  0  0  0  0  0  0  0  0  0  0  0
    4.8387    3.7579    1.8957 O   0  0  0  0  0  0  0  0  0  0  0  0
    6.8131    4.1402   -0.3557 O   0  0  0  0  0  0  0  0  0  0  0  0
    0.6030   -0.5799    0.8270 H   0  0  0  0  0  0  0  0  0  0  0  0
   -0.0391    0.9146    0.0759 H   0  0  0  0  0  0  0  0  0  0  0  0
    1.5845    0.5011   -0.1977 H   0  0  0  0  0  0  0  0  0  0  0  0
    1.7834    2.0387    1.1788 H   0  0  0  0  0  0  0  0  0  0  0  0
    0.9019    3.1549    0.1481 H   0  0  0  0  0  0  0  0  0  0  0  0
    2.5964    2.9683   -0.1380 H   0  0  0  0  0  0  0  0  0  0  0  0
    1.0268    5.0997    3.2036 H   0  0  0  0  0  0  0  0  0  0  0  0
    0.0375    4.1874    2.0599 H   0  0  0  0  0  0  0  0  0  0  0  0
    0.9414    3.3168    3.3194 H   0  0  0  0  0  0  0  0  0  0  0  0
    3.8236    5.4467    1.0046 H   0  0  0  0  0  0  0  0  0  0  0  0
    3.3013    6.0983   -0.4657 H   0  0  0  0  0  0  0  0  0  0  0  0
    4.1085    4.5475   -0.5217 H   0  0  0  0  0  0  0  0  0  0  0  0
    6.0277    8.0116    1.1430 H   0  0  0  0  0  0  0  0  0  0  0  0
    4.2682    7.7609    1.0512 H   0  0  0  0  0  0  0  0  0  0  0  0
    5.2212    6.8219    2.1878 H   0  0  0  0  0  0  0  0  0  0  0  0
   -0.6817   -0.9133   -1.4342 H   0  0  0  0  0  0  0  0  0  0  0  0
    0.7342   -0.1741   -2.2052 H   0  0  0  0  0  0  0  0  0  0  0  0
    3.7020    1.4794    1.7625 H   0  0  0  0  0  0  0  0  0  0  0  0
    6.9032    2.1717   -1.9415 H   0  0  0  0  0  0  0  0  0  0  0  0
    4.4914   -1.8280   -2.9300 H   0  0  0  0  0  0  0  0  0  0  0  0
    3.4238    3.0786    3.2827 H   0  0  0  0  0  0  0  0  0  0  0  0
    3.6175    4.7969    3.1112 H   0  0  0  0  0  0  0  0  0  0  0  0
    6.6959    5.0004    1.5480 H   0  0  0  0  0  0  0  0  0  0  0  0
    7.5389    5.9025    0.3552 H   0  0  0  0  0  0  0  0  0  0  0  0
    2.1056    4.9981    1.1525 H   0  0  0  0  0  0  0  0  0  0  0  0
    5.6231    6.6205   -0.8851 H   0  0  0  0  0  0  0  0  0  0  0  0
    6.1122   -0.1645   -2.7959 H   0  0  0  0  0  0  0  0  0  0  0  0
  1 27  1  0  0  0  0
  1 28  1  0  0  0  0
  1 29  1  0  0  0  0
  2 30  1  0  0  0  0
  2 31  1  0  0  0  0
  2 32  1  0  0  0  0
  3 33  1  0  0  0  0
  3 34  1  0  0  0  0
  3 35  1  0  0  0  0
  4 36  1  0  0  0  0
  4 37  1  0  0  0  0
  4 38  1  0  0  0  0
  5 39  1  0  0  0  0
  5 40  1  0  0  0  0
  5 41  1  0  0  0  0
  6  1  1  0  0  0  0
  6 42  1  0  0  0  0
  6 43  1  0  0  0  0
  7 44  1  0  0  0  0
  8 45  1  0  0  0  0
  9 46  1  0  0  0  0
 10 47  1  0  0  0  0
 10 48  1  0  0  0  0
 11 49  1  0  0  0  0
 11 50  1  0  0  0  0
 12  2  1  0  0  0  0
 12  3  1  0  0  0  0
 12 10  1  0  0  0  0
 12 51  1  0  0  0  0
 13  4  1  0  0  0  0
 13  5  1  0  0  0  0
 13 11  1  0  0  0  0
 13 52  1  0  0  0  0
 14  7  2  0  0  0  0
 15  9  2  0  0  0  0
 16  8  2  0  0  0  0
 16 14  1  0  0  0  0
 17  7  1  0  0  0  0
 18  8  1  0  0  0  0
 18 17  2  0  0  0  0
 19 14  1  0  0  0  0
 19 15  1  0  0  0  0
 20 15  1  0  0  0  0
 21  9  1  0  0  0  0
 21 16  1  0  0  0  0
 21 53  1  0  0  0  0
 22 19  2  0  0  0  0
 23 20  2  0  0  0  0
 24  6  1  0  0  0  0
 24 20  1  0  0  0  0
 25 10  1  0  0  0  0
 25 17  1  0  0  0  0
 26 11  1  0  0  0  0
 26 18  1  0  0  0  0
M  END
>  <DRUGBANK_ID>
DB11378

>  <COMMON_NAME>
Buquinolate

>  <CAS_NUMBER>
5486-03-3

>  <UNII>
MFL71K7PU4

>  <SYNONYMS>
Buquinolate; Buquinolato; Buquinolatum

$$$$
