FR7
 OpenBabel10282417133D

 39 40  0  0  0  0  0  0  0  0999 V2000
   -1.1757    0.0250   -0.1558 C   0  0  0  0  0  0  0  0  0  0  0  0
   -0.3214   -1.0432   -0.0641 N   0  0  0  0  0  0  0  0  0  0  0  0
    0.9427   -0.5405    0.0517 C   0  0  0  0  0  0  0  0  0  0  0  0
    0.9494    0.7666    0.0093 N   0  0  0  0  0  0  0  0  0  0  0  0
   -0.3755    1.1569   -0.0691 C   0  0  0  0  0  0  0  0  0  0  0  0
   -0.7765    2.5661   -0.0305 C   0  0  0  0  0  0  0  0  0  0  0  0
    0.0197    3.5062    0.0061 O   0  0  0  0  0  0  0  0  0  0  0  0
   -2.1189    2.8272   -0.0345 N   0  0  0  0  0  0  0  0  0  0  0  0
   -0.6898   -2.4606   -0.0093 C   0  0  1  0  0  0  0  0  0  0  0  0
   -0.1927   -3.2104   -1.2652 C   0  0  1  0  0  0  0  0  0  0  0  0
    1.2336   -3.2452   -1.3163 O   0  0  0  0  0  0  0  0  0  0  0  0
   -0.1955   -3.1322    1.2954 C   0  0  0  0  0  0  0  0  0  0  0  0
   -0.7539   -2.4797    2.5623 C   0  0  0  0  0  0  0  0  0  0  0  0
   -2.2682   -2.5133    2.5965 C   0  0  0  0  0  0  0  0  0  0  0  0
   -2.9147   -3.7665    2.5524 C   0  0  0  0  0  0  0  0  0  0  0  0
   -4.3040   -3.8558    2.5039 C   0  0  0  0  0  0  0  0  0  0  0  0
   -5.0715   -2.6950    2.4946 C   0  0  0  0  0  0  0  0  0  0  0  0
   -4.4546   -1.4440    2.5554 C   0  0  0  0  0  0  0  0  0  0  0  0
   -3.0576   -1.3453    2.6335 C   0  0  0  0  0  0  0  0  0  0  0  0
   -5.4788   -0.0491    2.5390 Cl  0  0  0  0  0  0  0  0  0  0  0  0
   -2.3265    0.2167    2.8271 Cl  0  0  0  0  0  0  0  0  0  0  0  0
   -0.6594   -4.6626   -1.2840 C   0  0  0  0  0  0  0  0  0  0  0  0
   -1.7883   -2.4871   -0.0367 H   0  0  0  0  0  0  0  0  0  0  0  0
   -0.5554   -2.7072   -2.1699 H   0  0  0  0  0  0  0  0  0  0  0  0
   -2.2489   -0.0949   -0.1939 H   0  0  0  0  0  0  0  0  0  0  0  0
    1.8222   -1.1596    0.1725 H   0  0  0  0  0  0  0  0  0  0  0  0
   -2.8251    2.1114    0.0245 H   0  0  0  0  0  0  0  0  0  0  0  0
   -2.3921    3.7978    0.0261 H   0  0  0  0  0  0  0  0  0  0  0  0
    1.5428   -2.3522   -1.5537 H   0  0  0  0  0  0  0  0  0  0  0  0
   -0.4777   -4.1898    1.3088 H   0  0  0  0  0  0  0  0  0  0  0  0
    0.9002   -3.1199    1.3373 H   0  0  0  0  0  0  0  0  0  0  0  0
   -0.3692   -3.0045    3.4444 H   0  0  0  0  0  0  0  0  0  0  0  0
   -0.3550   -1.4655    2.6273 H   0  0  0  0  0  0  0  0  0  0  0  0
   -2.3365   -4.6909    2.5584 H   0  0  0  0  0  0  0  0  0  0  0  0
   -4.7880   -4.8299    2.4795 H   0  0  0  0  0  0  0  0  0  0  0  0
   -6.1555   -2.7689    2.4661 H   0  0  0  0  0  0  0  0  0  0  0  0
   -1.7499   -4.7341   -1.2485 H   0  0  0  0  0  0  0  0  0  0  0  0
   -0.2912   -5.1668   -2.1820 H   0  0  0  0  0  0  0  0  0  0  0  0
   -0.2423   -5.2322   -0.4468 H   0  0  0  0  0  0  0  0  0  0  0  0
  1  2  1  0  0  0  0
  1  5  2  0  0  0  0
  1 25  1  0  0  0  0
  2  3  1  0  0  0  0
  3  4  2  0  0  0  0
  3 26  1  0  0  0  0
  4  5  1  0  0  0  0
  5  6  1  0  0  0  0
  6  7  2  0  0  0  0
  6  8  1  0  0  0  0
  8 27  1  0  0  0  0
  8 28  1  0  0  0  0
  9  2  1  0  0  0  0
  9 10  1  0  0  0  0
  9 12  1  0  0  0  0
  9 23  1  6  0  0  0
 10 11  1  0  0  0  0
 10 22  1  0  0  0  0
 10 24  1  6  0  0  0
 11 29  1  0  0  0  0
 12 13  1  0  0  0  0
 12 30  1  0  0  0  0
 12 31  1  0  0  0  0
 13 14  1  0  0  0  0
 13 32  1  0  0  0  0
 13 33  1  0  0  0  0
 14 15  2  0  0  0  0
 14 19  1  0  0  0  0
 15 16  1  0  0  0  0
 15 34  1  0  0  0  0
 16 17  2  0  0  0  0
 16 35  1  0  0  0  0
 17 18  1  0  0  0  0
 17 36  1  0  0  0  0
 18 19  2  0  0  0  0
 18 20  1  0  0  0  0
 19 21  1  0  0  0  0
 22 37  1  0  0  0  0
 22 38  1  0  0  0  0
 22 39  1  0  0  0  0
M  END
>  <DRUGBANK_ID>
DB03370

>  <SECONDARY_ACCESSION_NUMBERS>
EXPT01486

>  <COMMON_NAME>
FR239087

$$$$
