
 OpenBabel10282417143D

 79 82  0  0  0  0  0  0  0  0999 V2000
   -3.3637   -0.9820   10.0995 C   0  0  0  0  0  0  0  0  0  0  0  0
   -5.3055    4.1259    0.0409 C   0  0  0  0  0  0  0  0  0  0  0  0
   -4.4507   10.6167    7.9059 C   0  0  0  0  0  0  0  0  0  0  0  0
   -0.2665    6.2316    1.7096 C   0  0  0  0  0  0  0  0  0  0  0  0
   -2.2657   -1.7400    9.6861 C   0  0  0  0  0  0  0  0  0  0  0  0
   -3.2895    0.3955   10.0864 C   0  0  0  0  0  0  0  0  0  0  0  0
   -4.9687    2.8282    0.4368 C   0  0  0  0  0  0  0  0  0  0  0  0
   -4.7737    5.2315    0.6906 C   0  0  0  0  0  0  0  0  0  0  0  0
   -3.9231    9.3323    7.8820 C   0  0  0  0  0  0  0  0  0  0  0  0
   -5.1807   11.0913    6.8169 C   0  0  0  0  0  0  0  0  0  0  0  0
    0.8240    6.7205    2.4053 C   0  0  0  0  0  0  0  0  0  0  0  0
   -0.7987    5.0928    2.2197 C   0  0  0  0  0  0  0  0  0  0  0  0
   -1.1063   -1.1264    9.2016 C   0  0  0  0  0  0  0  0  0  0  0  0
   -2.1143    0.9960    9.6669 C   0  0  0  0  0  0  0  0  0  0  0  0
   -4.1335    2.6235    1.5128 C   0  0  0  0  0  0  0  0  0  0  0  0
   -3.9678    5.0207    1.7909 C   0  0  0  0  0  0  0  0  0  0  0  0
   -4.1364    8.5216    6.7716 C   0  0  0  0  0  0  0  0  0  0  0  0
   -5.4136   10.2703    5.7146 C   0  0  0  0  0  0  0  0  0  0  0  0
    1.2219    6.2306    3.6831 C   0  0  0  0  0  0  0  0  0  0  0  0
   -0.3613    4.6030    3.4772 C   0  0  0  0  0  0  0  0  0  0  0  0
    0.2255    0.9379    8.6326 C   0  0  0  0  0  0  0  0  0  0  0  0
   -0.0210    1.7602    7.3436 C   0  0  0  0  0  0  0  0  0  0  0  0
   -0.5470    3.8919    8.6128 C   0  0  0  0  0  0  0  0  0  0  0  0
    0.7937    4.5484    8.2470 C   0  0  0  0  0  0  0  0  0  0  0  0
   -2.9187    3.4009    3.4722 C   0  0  0  0  0  0  0  0  0  0  0  0
   -4.9755    8.2197    4.3568 C   0  0  0  0  0  0  0  0  0  0  0  0
   -1.0189    0.2626    9.1693 C   0  0  0  0  0  0  0  0  0  0  0  0
   -3.7379    3.7170    2.2661 C   0  0  0  0  0  0  0  0  0  0  0  0
   -4.8507    8.9912    5.6553 C   0  0  0  0  0  0  0  0  0  0  0  0
   -1.0586    2.8808    7.5667 C   0  0  1  0  0  0  0  0  0  0  0  0
    0.5561    5.2091    4.2842 C   0  0  0  0  0  0  0  0  0  0  0  0
   -3.1428    4.3978    4.6906 C   0  0  1  0  0  0  0  0  0  0  0  0
   -2.8603    3.5900    5.9740 C   0  0  0  0  0  0  0  0  0  0  0  0
   -2.9940    6.9644    4.4800 C   0  0  0  0  0  0  0  0  0  0  0  0
   -1.5365    3.5470    6.3824 N   0  0  0  0  0  0  0  0  0  0  0  0
   -2.4815    5.7422    4.7501 N   0  0  0  0  0  0  0  0  0  0  0  0
   -3.7324    2.8856    6.4782 O   0  0  0  0  0  0  0  0  0  0  0  0
   -2.2770    7.9799    4.4605 O   0  0  0  0  0  0  0  0  0  0  0  0
   -0.4639    6.4302    6.9228 O   0  0  0  0  0  0  0  0  0  0  0  0
    2.0732    6.3558    6.8071 O   0  0  0  0  0  0  0  0  0  0  0  0
   -4.3267    6.9478    4.3502 O   0  0  0  0  0  0  0  0  0  0  0  0
    0.7168    4.6908    5.5539 O   0  0  0  0  0  0  0  0  0  0  0  0
    0.7731    5.6995    6.8536 S   0  0  0  0  0  0  0  0  0  0  0  0
   -4.2735   -1.4591   10.4456 H   0  0  0  0  0  0  0  0  0  0  0  0
   -5.9735    4.2722   -0.7973 H   0  0  0  0  0  0  0  0  0  0  0  0
   -4.2953   11.2447    8.7770 H   0  0  0  0  0  0  0  0  0  0  0  0
   -0.6510    6.6299    0.7711 H   0  0  0  0  0  0  0  0  0  0  0  0
   -2.3147   -2.8217    9.7460 H   0  0  0  0  0  0  0  0  0  0  0  0
   -4.1183    1.0223   10.4053 H   0  0  0  0  0  0  0  0  0  0  0  0
   -5.3713    1.9627   -0.0720 H   0  0  0  0  0  0  0  0  0  0  0  0
   -4.9822    6.2467    0.3630 H   0  0  0  0  0  0  0  0  0  0  0  0
   -3.3224    8.9613    8.7079 H   0  0  0  0  0  0  0  0  0  0  0  0
   -5.5546   12.1103    6.8164 H   0  0  0  0  0  0  0  0  0  0  0  0
    1.4166    7.4789    1.9198 H   0  0  0  0  0  0  0  0  0  0  0  0
   -1.5601    4.6226    1.6071 H   0  0  0  0  0  0  0  0  0  0  0  0
   -0.2752   -1.7409    8.8643 H   0  0  0  0  0  0  0  0  0  0  0  0
   -2.1305    2.0777    9.7151 H   0  0  0  0  0  0  0  0  0  0  0  0
   -3.7873    1.6263    1.7816 H   0  0  0  0  0  0  0  0  0  0  0  0
   -3.4752    5.8916    2.2151 H   0  0  0  0  0  0  0  0  0  0  0  0
   -3.6889    7.5317    6.7895 H   0  0  0  0  0  0  0  0  0  0  0  0
   -6.0195   10.6363    4.8892 H   0  0  0  0  0  0  0  0  0  0  0  0
    2.0847    6.6311    4.1834 H   0  0  0  0  0  0  0  0  0  0  0  0
   -0.8036    3.7704    3.9840 H   0  0  0  0  0  0  0  0  0  0  0  0
    0.6488    1.5578    9.4328 H   0  0  0  0  0  0  0  0  0  0  0  0
    1.0088    0.1951    8.4278 H   0  0  0  0  0  0  0  0  0  0  0  0
    0.9368    2.1757    7.0044 H   0  0  0  0  0  0  0  0  0  0  0  0
   -0.3442    1.0962    6.5350 H   0  0  0  0  0  0  0  0  0  0  0  0
   -1.3171    4.6398    8.8323 H   0  0  0  0  0  0  0  0  0  0  0  0
   -0.3943    3.3819    9.5778 H   0  0  0  0  0  0  0  0  0  0  0  0
    1.0938    5.1604    9.1086 H   0  0  0  0  0  0  0  0  0  0  0  0
    1.5990    3.8238    8.1084 H   0  0  0  0  0  0  0  0  0  0  0  0
   -1.9736    3.1786    2.9718 H   0  0  0  0  0  0  0  0  0  0  0  0
   -3.0373    2.3709    3.8400 H   0  0  0  0  0  0  0  0  0  0  0  0
   -4.6154    8.8199    3.5091 H   0  0  0  0  0  0  0  0  0  0  0  0
   -6.0356    8.0098    4.1835 H   0  0  0  0  0  0  0  0  0  0  0  0
   -1.9703    2.4064    7.8906 H   0  0  0  0  0  0  0  0  0  0  0  0
   -4.2131    4.6081    4.6884 H   0  0  0  0  0  0  0  0  0  0  0  0
   -0.8697    4.0742    5.8654 H   0  0  0  0  0  0  0  0  0  0  0  0
   -1.5823    5.8994    5.1930 H   0  0  0  0  0  0  0  0  0  0  0  0
  1  5  2  0  0  0  0
  1  6  1  0  0  0  0
  1 44  1  0  0  0  0
  2  7  2  0  0  0  0
  2  8  1  0  0  0  0
  2 45  1  0  0  0  0
  3  9  2  0  0  0  0
  3 10  1  0  0  0  0
  3 46  1  0  0  0  0
  4 11  2  0  0  0  0
  4 12  1  0  0  0  0
  4 47  1  0  0  0  0
  5 13  1  0  0  0  0
  5 48  1  0  0  0  0
  6 14  2  0  0  0  0
  6 49  1  0  0  0  0
  7 15  1  0  0  0  0
  7 50  1  0  0  0  0
  8 16  2  0  0  0  0
  8 51  1  0  0  0  0
  9 17  1  0  0  0  0
  9 52  1  0  0  0  0
 10 18  2  0  0  0  0
 10 53  1  0  0  0  0
 11 19  1  0  0  0  0
 11 54  1  0  0  0  0
 12 20  2  0  0  0  0
 12 55  1  0  0  0  0
 13 27  2  0  0  0  0
 13 56  1  0  0  0  0
 14 27  1  0  0  0  0
 14 57  1  0  0  0  0
 15 28  2  0  0  0  0
 15 58  1  0  0  0  0
 16 28  1  0  0  0  0
 16 59  1  0  0  0  0
 17 29  2  0  0  0  0
 17 60  1  0  0  0  0
 18 29  1  0  0  0  0
 18 61  1  0  0  0  0
 19 31  2  0  0  0  0
 19 62  1  0  0  0  0
 20 31  1  0  0  0  0
 20 63  1  0  0  0  0
 21 22  1  0  0  0  0
 21 27  1  0  0  0  0
 21 64  1  0  0  0  0
 21 65  1  0  0  0  0
 22 66  1  0  0  0  0
 22 67  1  0  0  0  0
 23 24  1  0  0  0  0
 23 30  1  0  0  0  0
 23 68  1  0  0  0  0
 23 69  1  0  0  0  0
 24 43  1  0  0  0  0
 24 70  1  0  0  0  0
 24 71  1  0  0  0  0
 25 28  1  0  0  0  0
 25 72  1  0  0  0  0
 25 73  1  0  0  0  0
 26 29  1  0  0  0  0
 26 41  1  0  0  0  0
 26 74  1  0  0  0  0
 26 75  1  0  0  0  0
 30 22  1  0  0  0  0
 30 35  1  0  0  0  0
 30 76  1  1  0  0  0
 31 42  1  0  0  0  0
 32 36  1  0  0  0  0
 32 77  1  1  0  0  0
 32 33  1  0  0  0  0
 32 25  1  0  0  0  0
 33 35  1  0  0  0  0
 33 37  2  0  0  0  0
 34 36  1  0  0  0  0
 34 38  2  0  0  0  0
 34 41  1  0  0  0  0
 35 78  1  0  0  0  0
 36 79  1  0  0  0  0
 39 43  2  0  0  0  0
 40 43  2  0  0  0  0
 42 43  1  0  0  0  0
M  END
>  <DRUGBANK_ID>
DB04502

>  <SECONDARY_ACCESSION_NUMBERS>
EXPT03235

>  <COMMON_NAME>
WRR-204

>  <SYNONYMS>
Phenyl (3S)-3-({N-[(benzyloxy)carbonyl]-L-phenylalanyl}amino)-5-phenyl-1-pentanesulfonate

$$$$
