1226
 OpenBabel10282417113D

154159  0  0  1  0  0  0  0  0999 V2000
    1.3430    0.1004    0.2147 O   0  0  0  0  0  0  0  0  0  0  0  0
   -0.9895    1.8490   -7.1247 O   0  0  0  0  0  0  0  0  0  0  0  0
    6.6742   -0.5926   -7.5357 O   0  0  0  0  0  0  0  0  0  0  0  0
   -2.8406    1.7331    1.8285 O   0  0  0  0  0  0  0  0  0  0  0  0
    5.2510   -3.2146   -7.4823 O   0  0  0  0  0  0  0  0  0  0  0  0
   -2.8065    4.5811    1.2273 O   0  0  0  0  0  0  0  0  0  0  0  0
    0.8548    5.7372   -2.6252 O   0  0  0  0  0  0  0  0  0  0  0  0
   -5.6531   -3.4245   -5.9419 O   0  0  0  0  0  0  0  0  0  0  0  0
    4.9956    4.7498   -0.2671 O   0  0  0  0  0  0  0  0  0  0  0  0
   -1.0522   -4.2898   -4.8583 O   0  0  0  0  0  0  0  0  0  0  0  0
    2.5633    6.1630   -0.3896 O   0  0  0  0  0  0  0  0  0  0  0  0
   -3.2054   -4.8220   -6.4344 O   0  0  0  0  0  0  0  0  0  0  0  0
    3.0481   -0.3763    1.6192 O   0  0  0  0  0  0  0  0  0  0  0  0
    1.1412    1.7056   -6.5341 O   0  0  0  0  0  0  0  0  0  0  0  0
    2.7442    1.2480   -3.0784 N   0  3  3  0  0  0  0  0  0  0  0  0
   -3.1386    1.2265   -4.3523 N   0  3  3  0  0  0  0  0  0  0  0  0
    4.1138    1.2731   -3.7946 C   0  0  1  0  0  0  0  0  0  0  0  0
   -2.8823    0.6618   -2.8630 C   0  0  1  0  0  0  0  0  0  0  0  0
    2.4994   -0.0993   -2.8676 C   0  0  0  0  0  0  0  0  0  0  0  0
   -2.3822    2.7578   -4.4588 C   0  0  0  0  0  0  0  0  0  0  0  0
    2.1190    2.1046   -1.7061 C   0  0  0  0  0  0  0  0  0  0  0  0
   -2.9097    0.0844   -5.6131 C   0  0  0  0  0  0  0  0  0  0  0  0
    4.4296    0.1092   -4.8264 C   0  0  0  0  0  0  0  0  0  0  0  0
   -2.9366    1.7301   -1.7889 C   0  0  0  0  0  0  0  0  0  0  0  0
    2.8702   -1.4952   -3.9871 C   0  0  0  0  0  0  0  0  0  0  0  0
   -2.8210    3.7136   -3.4372 C   0  0  0  0  0  0  0  0  0  0  0  0
    1.8076    1.5220   -4.0824 C   0  0  0  0  0  0  0  0  0  0  0  0
   -4.6125    1.4712   -4.4405 C   0  0  0  0  0  0  0  0  0  0  0  0
    4.1145    2.6363   -4.5328 C   0  0  0  0  0  0  0  0  0  0  0  0
   -3.6281   -0.6903   -2.5144 C   0  0  0  0  0  0  0  0  0  0  0  0
    3.8732   -1.1440   -4.8862 C   0  0  0  0  0  0  0  0  0  0  0  0
   -2.8166    3.0911   -2.0918 C   0  0  0  0  0  0  0  0  0  0  0  0
    0.6061    1.9480   -1.3207 C   0  0  0  0  0  0  0  0  0  0  0  0
   -3.1619    0.5162   -7.0054 C   0  0  0  0  0  0  0  0  0  0  0  0
    5.4050    0.1610   -5.7693 C   0  0  0  0  0  0  0  0  0  0  0  0
   -2.8911    1.3468   -0.4392 C   0  0  0  0  0  0  0  0  0  0  0  0
    3.7809    3.7781   -3.5927 C   0  0  0  0  0  0  0  0  0  0  0  0
   -3.5399   -1.9163   -3.4117 C   0  0  0  0  0  0  0  0  0  0  0  0
    4.0757   -2.2667   -5.7183 C   0  0  0  0  0  0  0  0  0  0  0  0
   -2.7306    4.0192   -1.0797 C   0  0  0  0  0  0  0  0  0  0  0  0
    0.3000    0.5781   -0.7492 C   0  0  0  0  0  0  0  0  0  0  0  0
   -2.4532    1.7937   -7.3455 C   0  0  0  0  0  0  0  0  0  0  0  0
    5.6756   -0.9287   -6.6719 C   0  0  0  0  0  0  0  0  0  0  0  0
   -2.8360    2.2910    0.5798 C   0  0  0  0  0  0  0  0  0  0  0  0
    5.0041   -2.1677   -6.6574 C   0  0  0  0  0  0  0  0  0  0  0  0
   -2.7843    3.6447    0.2465 C   0  0  0  0  0  0  0  0  0  0  0  0
    4.5994    3.8773   -2.4656 C   0  0  0  0  0  0  0  0  0  0  0  0
   -2.3724   -2.6924   -3.5442 C   0  0  0  0  0  0  0  0  0  0  0  0
    2.5756    4.5293   -3.6470 C   0  0  0  0  0  0  0  0  0  0  0  0
   -4.6241   -2.2582   -4.2262 C   0  0  0  0  0  0  0  0  0  0  0  0
    2.1677    5.3075   -2.5480 C   0  0  0  0  0  0  0  0  0  0  0  0
   -4.5000   -3.2474   -5.2180 C   0  0  0  0  0  0  0  0  0  0  0  0
    4.2466    4.6949   -1.4017 C   0  0  0  0  0  0  0  0  0  0  0  0
   -2.2009   -3.6182   -4.5804 C   0  0  0  0  0  0  0  0  0  0  0  0
    3.0303    5.4159   -1.4318 C   0  0  0  0  0  0  0  0  0  0  0  0
   -3.2733   -3.9116   -5.4175 C   0  0  0  0  0  0  0  0  0  0  0  0
    2.6526   -0.2084    0.4248 C   0  0  0  0  0  0  0  0  0  0  0  0
   -0.0165    1.3977   -6.2861 C   0  0  0  0  0  0  0  0  0  0  0  0
    6.9643   -1.6136   -8.4683 C   0  0  0  0  0  0  0  0  0  0  0  0
   -2.9619    2.6568    2.9038 C   0  0  0  0  0  0  0  0  0  0  0  0
    4.4932   -4.4203   -7.3551 C   0  0  0  0  0  0  0  0  0  0  0  0
   -2.8475    5.9412    0.8370 C   0  0  0  0  0  0  0  0  0  0  0  0
    3.6929   -0.4488   -0.6363 C   0  0  0  0  0  0  0  0  0  0  0  0
   -0.4041    0.7726   -4.9107 C   0  0  0  0  0  0  0  0  0  0  0  0
    3.1440   -1.8595   -1.5983 C   0  0  0  0  0  0  0  0  0  0  0  0
   -0.4786   -0.7231   -4.2925 C   0  0  0  0  0  0  0  0  0  0  0  0
    0.4533    6.6998   -1.6459 C   0  0  0  0  0  0  0  0  0  0  0  0
   -5.6605   -4.5304   -6.8426 C   0  0  0  0  0  0  0  0  0  0  0  0
    6.2493    4.0965   -0.2110 C   0  0  0  0  0  0  0  0  0  0  0  0
    0.1634   -3.9751   -4.2644 C   0  0  0  0  0  0  0  0  0  0  0  0
    3.4225    6.4920    0.6831 C   0  0  0  0  0  0  0  0  0  0  0  0
   -2.0468   -5.6093   -6.6509 C   0  0  0  0  0  0  0  0  0  0  0  0
    1.3172   -1.9809   -2.3059 C   0  0  0  0  0  0  0  0  0  0  0  0
    0.6490   -1.3336   -3.5084 C   0  0  0  0  0  0  0  0  0  0  0  0
    4.8454    1.1532   -2.9936 H   0  0  0  0  0  0  0  0  0  0  0  0
   -1.8186    0.5345   -2.7639 H   0  0  0  0  0  0  0  0  0  0  0  0
    2.3547   -0.2289   -1.8315 H   0  0  0  0  0  0  0  0  0  0  0  0
    1.4790    0.0181   -2.5836 H   0  0  0  0  0  0  0  0  0  0  0  0
   -1.3049    2.7821   -4.2905 H   0  0  0  0  0  0  0  0  0  0  0  0
   -2.4634    3.1920   -5.4305 H   0  0  0  0  0  0  0  0  0  0  0  0
    2.1797    3.1089   -1.9790 H   0  0  0  0  0  0  0  0  0  0  0  0
    2.7126    1.9579   -0.8152 H   0  0  0  0  0  0  0  0  0  0  0  0
   -3.2701   -0.8688   -5.3321 H   0  0  0  0  0  0  0  0  0  0  0  0
   -1.9034   -0.2298   -5.8015 H   0  0  0  0  0  0  0  0  0  0  0  0
    3.0802   -2.5145   -3.5664 H   0  0  0  0  0  0  0  0  0  0  0  0
    2.1499   -1.9451   -4.7251 H   0  0  0  0  0  0  0  0  0  0  0  0
   -2.0746    4.5310   -3.4710 H   0  0  0  0  0  0  0  0  0  0  0  0
   -3.7864    4.1189   -3.7177 H   0  0  0  0  0  0  0  0  0  0  0  0
    0.9709    1.2016   -3.5413 H   0  0  0  0  0  0  0  0  0  0  0  0
    1.5664    2.5354   -4.2815 H   0  0  0  0  0  0  0  0  0  0  0  0
    2.0360    0.8815   -4.9218 H   0  0  0  0  0  0  0  0  0  0  0  0
   -4.7833    1.9293   -5.4078 H   0  0  0  0  0  0  0  0  0  0  0  0
   -5.1044    0.5059   -4.3698 H   0  0  0  0  0  0  0  0  0  0  0  0
   -4.9068    2.1179   -3.6214 H   0  0  0  0  0  0  0  0  0  0  0  0
    5.0867    2.7910   -4.9738 H   0  0  0  0  0  0  0  0  0  0  0  0
    3.4027    2.6016   -5.3703 H   0  0  0  0  0  0  0  0  0  0  0  0
   -3.2904   -1.0618   -1.5408 H   0  0  0  0  0  0  0  0  0  0  0  0
   -4.6777   -0.4200   -2.3690 H   0  0  0  0  0  0  0  0  0  0  0  0
   -0.0525    2.2238   -2.1566 H   0  0  0  0  0  0  0  0  0  0  0  0
    0.3533    2.6985   -0.5578 H   0  0  0  0  0  0  0  0  0  0  0  0
   -4.2362    0.5359   -7.1499 H   0  0  0  0  0  0  0  0  0  0  0  0
   -2.7315   -0.2600   -7.6568 H   0  0  0  0  0  0  0  0  0  0  0  0
    6.0138    1.0489   -5.8266 H   0  0  0  0  0  0  0  0  0  0  0  0
   -2.8455    0.3007   -0.1308 H   0  0  0  0  0  0  0  0  0  0  0  0
    3.4918   -3.1863   -5.5763 H   0  0  0  0  0  0  0  0  0  0  0  0
   -2.6607    5.0603   -1.3775 H   0  0  0  0  0  0  0  0  0  0  0  0
    0.0729   -0.0685   -1.5808 H   0  0  0  0  0  0  0  0  0  0  0  0
   -0.6776    0.4103   -0.2905 H   0  0  0  0  0  0  0  0  0  0  0  0
   -2.9873    2.6209   -6.8928 H   0  0  0  0  0  0  0  0  0  0  0  0
   -2.5882    2.0220   -8.3994 H   0  0  0  0  0  0  0  0  0  0  0  0
    5.4611    3.2192   -2.3876 H   0  0  0  0  0  0  0  0  0  0  0  0
   -1.5383   -2.5183   -2.8778 H   0  0  0  0  0  0  0  0  0  0  0  0
    1.8399    4.3767   -4.4386 H   0  0  0  0  0  0  0  0  0  0  0  0
   -5.5586   -1.7031   -4.1604 H   0  0  0  0  0  0  0  0  0  0  0  0
    7.3477   -2.5006   -7.9482 H   0  0  0  0  0  0  0  0  0  0  0  0
    6.0822   -1.8327   -9.0850 H   0  0  0  0  0  0  0  0  0  0  0  0
    7.7435   -1.2421   -9.1194 H   0  0  0  0  0  0  0  0  0  0  0  0
   -2.0651    3.2838    2.9593 H   0  0  0  0  0  0  0  0  0  0  0  0
   -3.8814    3.2460    2.8009 H   0  0  0  0  0  0  0  0  0  0  0  0
   -3.0320    2.1073    3.8415 H   0  0  0  0  0  0  0  0  0  0  0  0
    4.6554   -4.8977   -6.3801 H   0  0  0  0  0  0  0  0  0  0  0  0
    3.4230   -4.2455   -7.5268 H   0  0  0  0  0  0  0  0  0  0  0  0
    4.8486   -5.1030   -8.1279 H   0  0  0  0  0  0  0  0  0  0  0  0
   -1.9160    6.2072    0.3286 H   0  0  0  0  0  0  0  0  0  0  0  0
   -3.7204    6.1519    0.2070 H   0  0  0  0  0  0  0  0  0  0  0  0
   -2.9274    6.5297    1.7476 H   0  0  0  0  0  0  0  0  0  0  0  0
    3.8286    0.5248   -1.1820 H   0  0  0  0  0  0  0  0  0  0  0  0
    4.7794   -0.4217   -0.4185 H   0  0  0  0  0  0  0  0  0  0  0  0
   -1.3499    1.1195   -5.0840 H   0  0  0  0  0  0  0  0  0  0  0  0
   -0.4265    1.4298   -4.0493 H   0  0  0  0  0  0  0  0  0  0  0  0
    3.9563   -1.5679   -2.3550 H   0  0  0  0  0  0  0  0  0  0  0  0
    3.6100   -2.8252   -1.3987 H   0  0  0  0  0  0  0  0  0  0  0  0
   -0.7266   -1.3751   -5.1154 H   0  0  0  0  0  0  0  0  0  0  0  0
   -1.1758   -0.7413   -3.5075 H   0  0  0  0  0  0  0  0  0  0  0  0
    0.3281    6.2215   -0.6661 H   0  0  0  0  0  0  0  0  0  0  0  0
    1.1571    7.5388   -1.6176 H   0  0  0  0  0  0  0  0  0  0  0  0
   -0.5227    7.1097   -1.9137 H   0  0  0  0  0  0  0  0  0  0  0  0
   -4.9935   -4.3249   -7.6885 H   0  0  0  0  0  0  0  0  0  0  0  0
   -5.4087   -5.4664   -6.3266 H   0  0  0  0  0  0  0  0  0  0  0  0
   -6.6618   -4.6502   -7.2528 H   0  0  0  0  0  0  0  0  0  0  0  0
    6.0916    3.0173   -0.1317 H   0  0  0  0  0  0  0  0  0  0  0  0
    6.8807    4.3529   -1.0669 H   0  0  0  0  0  0  0  0  0  0  0  0
    6.7502    4.4403    0.6964 H   0  0  0  0  0  0  0  0  0  0  0  0
    0.4310   -3.0379   -4.7081 H   0  0  0  0  0  0  0  0  0  0  0  0
    0.0845   -4.0013   -3.1784 H   0  0  0  0  0  0  0  0  0  0  0  0
    0.9799   -4.6200   -4.5901 H   0  0  0  0  0  0  0  0  0  0  0  0
    3.5633    5.6090    1.3126 H   0  0  0  0  0  0  0  0  0  0  0  0
    4.3621    6.9235    0.3233 H   0  0  0  0  0  0  0  0  0  0  0  0
    2.9224    7.2485    1.2878 H   0  0  0  0  0  0  0  0  0  0  0  0
   -1.2535   -4.9742   -7.0610 H   0  0  0  0  0  0  0  0  0  0  0  0
   -1.7420   -6.1478   -5.7454 H   0  0  0  0  0  0  0  0  0  0  0  0
   -2.2825   -6.3679   -7.3952 H   0  0  0  0  0  0  0  0  0  0  0  0
    0.6221   -2.2196   -1.5166 H   0  0  0  0  0  0  0  0  0  0  0  0
    1.1314   -0.8440   -4.3881 H   0  0  0  0  0  0  0  0  0  0  0  0
  1 41  1  0  0  0  0
  1 57  1  0  0  0  0
  2 42  1  0  0  0  0
  2 58  1  0  0  0  0
  3 43  1  0  0  0  0
  3 59  1  0  0  0  0
  4 44  1  0  0  0  0
  4 60  1  0  0  0  0
  5 45  1  0  0  0  0
  5 61  1  0  0  0  0
  6 46  1  0  0  0  0
  6 62  1  0  0  0  0
  7 51  1  0  0  0  0
  7 67  1  0  0  0  0
  8 52  1  0  0  0  0
  8 68  1  0  0  0  0
  9 53  1  0  0  0  0
  9 69  1  0  0  0  0
 10 54  1  0  0  0  0
 10 70  1  0  0  0  0
 11 55  1  0  0  0  0
 11 71  1  0  0  0  0
 12 56  1  0  0  0  0
 12 72  1  0  0  0  0
 13 57  2  0  0  0  0
 14 58  2  0  0  0  0
 15 17  1  0  0  0  0
 15 19  1  0  0  0  0
 15 21  1  0  0  0  0
 15 27  1  0  0  0  0
 16 18  1  0  0  0  0
 16 20  1  0  0  0  0
 16 22  1  0  0  0  0
 16 28  1  0  0  0  0
 17 23  1  0  0  0  0
 17 29  1  0  0  0  0
 17 75  1  1  0  0  0
 18 24  1  0  0  0  0
 18 30  1  0  0  0  0
 18 76  1  6  0  0  0
 19 25  1  0  0  0  0
 19 77  1  0  0  0  0
 19 78  1  0  0  0  0
 20 26  1  0  0  0  0
 20 79  1  0  0  0  0
 20 80  1  0  0  0  0
 21 33  1  0  0  0  0
 21 81  1  0  0  0  0
 21 82  1  0  0  0  0
 22 34  1  0  0  0  0
 22 83  1  0  0  0  0
 22 84  1  0  0  0  0
 23 31  1  0  0  0  0
 23 35  2  0  0  0  0
 24 32  1  0  0  0  0
 24 36  2  0  0  0  0
 25 31  1  0  0  0  0
 25 85  1  0  0  0  0
 25 86  1  0  0  0  0
 26 32  1  0  0  0  0
 26 87  1  0  0  0  0
 26 88  1  0  0  0  0
 27 89  1  0  0  0  0
 27 90  1  0  0  0  0
 27 91  1  0  0  0  0
 28 92  1  0  0  0  0
 28 93  1  0  0  0  0
 28 94  1  0  0  0  0
 29 37  1  0  0  0  0
 29 95  1  0  0  0  0
 29 96  1  0  0  0  0
 30 38  1  0  0  0  0
 30 97  1  0  0  0  0
 30 98  1  0  0  0  0
 31 39  2  0  0  0  0
 32 40  2  0  0  0  0
 33 41  1  0  0  0  0
 33 99  1  0  0  0  0
 33100  1  0  0  0  0
 34 42  1  0  0  0  0
 34101  1  0  0  0  0
 34102  1  0  0  0  0
 35 43  1  0  0  0  0
 35103  1  0  0  0  0
 36 44  1  0  0  0  0
 36104  1  0  0  0  0
 37 47  2  0  0  0  0
 37 49  1  0  0  0  0
 38 48  2  0  0  0  0
 38 50  1  0  0  0  0
 39 45  1  0  0  0  0
 39105  1  0  0  0  0
 40 46  1  0  0  0  0
 40106  1  0  0  0  0
 41107  1  0  0  0  0
 41108  1  0  0  0  0
 42109  1  0  0  0  0
 42110  1  0  0  0  0
 43 45  2  0  0  0  0
 44 46  2  0  0  0  0
 47 53  1  0  0  0  0
 47111  1  0  0  0  0
 48 54  1  0  0  0  0
 48112  1  0  0  0  0
 49 51  2  0  0  0  0
 49113  1  0  0  0  0
 50 52  2  0  0  0  0
 50114  1  0  0  0  0
 51 55  1  0  0  0  0
 52 56  1  0  0  0  0
 53 55  2  0  0  0  0
 54 56  2  0  0  0  0
 57 63  1  0  0  0  0
 58 64  1  0  0  0  0
 59115  1  0  0  0  0
 59116  1  0  0  0  0
 59117  1  0  0  0  0
 60118  1  0  0  0  0
 60119  1  0  0  0  0
 60120  1  0  0  0  0
 61121  1  0  0  0  0
 61122  1  0  0  0  0
 61123  1  0  0  0  0
 62124  1  0  0  0  0
 62125  1  0  0  0  0
 62126  1  0  0  0  0
 63 65  1  0  0  0  0
 63127  1  0  0  0  0
 63128  1  0  0  0  0
 64 66  1  0  0  0  0
 64129  1  0  0  0  0
 64130  1  0  0  0  0
 65 73  1  0  0  0  0
 65131  1  0  0  0  0
 65132  1  0  0  0  0
 66 74  1  0  0  0  0
 66133  1  0  0  0  0
 66134  1  0  0  0  0
 67135  1  0  0  0  0
 67136  1  0  0  0  0
 67137  1  0  0  0  0
 68138  1  0  0  0  0
 68139  1  0  0  0  0
 68140  1  0  0  0  0
 69141  1  0  0  0  0
 69142  1  0  0  0  0
 69143  1  0  0  0  0
 70144  1  0  0  0  0
 70145  1  0  0  0  0
 70146  1  0  0  0  0
 71147  1  0  0  0  0
 71148  1  0  0  0  0
 71149  1  0  0  0  0
 72150  1  0  0  0  0
 72151  1  0  0  0  0
 72152  1  0  0  0  0
 73 74  2  0  0  0  0
 73153  1  0  0  0  0
 74154  1  0  0  0  0
M  CHG  2  15   1  16   1
M  END
>  <DRUGBANK_ID>
DB01226

>  <SECONDARY_ACCESSION_NUMBERS>
APRD01119

>  <COMMON_NAME>
Mivacurium

>  <CAS_NUMBER>
133814-19-4

>  <UNII>
77D66S9Q93

>  <SYNONYMS>
Mivacurium

$$$$
