
 OpenBabel10282417193D

 56 58  0  0  0  0  0  0  0  0999 V2000
   -4.1454    0.1082   -7.0629 C   0  0  0  0  0  0  0  0  0  0  0  0
   -3.8899   -1.0116   -6.2846 C   0  0  0  0  0  0  0  0  0  0  0  0
   -3.4465   -0.8749   -4.9594 C   0  0  0  0  0  0  0  0  0  0  0  0
   -3.1762    0.3820   -4.3859 C   0  0  0  0  0  0  0  0  0  0  0  0
   -3.3869    1.4795   -5.2433 C   0  0  0  0  0  0  0  0  0  0  0  0
   -3.9239    1.3597   -6.5271 C   0  0  0  0  0  0  0  0  0  0  0  0
   -2.7773    0.5283   -2.9891 N   0  0  0  0  0  0  0  0  0  0  0  0
   -2.4509    1.7335   -2.3317 C   0  0  0  0  0  0  0  0  0  0  0  0
   -2.1737    1.8390   -1.1410 O   0  0  0  0  0  0  0  0  0  0  0  0
   -2.5012    2.8178   -3.1370 O   0  0  0  0  0  0  0  0  0  0  0  0
   -2.4594    4.1162   -2.5664 C   0  0  0  0  0  0  0  0  0  0  0  0
   -3.5809    4.3524   -1.5531 C   0  0  1  0  0  0  0  0  0  0  0  0
   -4.0330    5.7926   -1.6599 C   0  0  0  0  0  0  0  0  0  0  0  0
   -4.7804    6.0476   -2.9710 C   0  0  0  0  0  0  0  0  0  0  0  0
   -6.0805    5.2287   -3.0040 C   0  0  1  0  0  0  0  0  0  0  0  0
   -5.6440    3.7517   -2.9465 C   0  0  0  0  0  0  0  0  0  0  0  0
   -4.8362    3.4552   -1.6778 C   0  0  0  0  0  0  0  0  0  0  0  0
   -7.0960    5.5216   -1.8698 C   0  0  0  0  0  0  0  0  0  0  0  0
   -7.6338    6.8421   -1.8568 O   0  0  0  0  0  0  0  0  0  0  0  0
   -6.7431    7.8840   -1.4959 C   0  0  0  0  0  0  0  0  0  0  0  0
   -5.9266    7.8263   -0.2033 C   0  0  0  0  0  0  0  0  0  0  0  0
   -4.7261    8.0695   -0.0785 O   0  0  0  0  0  0  0  0  0  0  0  0
   -6.6463    7.4654    0.8714 O   0  0  0  0  0  0  0  0  0  0  0  0
   -2.6875   -0.6493   -2.1810 C   0  0  0  0  0  0  0  0  0  0  0  0
   -1.7041   -1.6012   -2.4731 C   0  0  0  0  0  0  0  0  0  0  0  0
   -1.4949   -2.6896   -1.6268 C   0  0  0  0  0  0  0  0  0  0  0  0
   -2.2437   -2.8141   -0.4595 C   0  0  0  0  0  0  0  0  0  0  0  0
   -3.2003   -1.8564   -0.1300 C   0  0  0  0  0  0  0  0  0  0  0  0
   -3.4501   -0.7943   -1.0079 C   0  0  0  0  0  0  0  0  0  0  0  0
   -2.0047   -4.1781    0.5612 Cl  0  0  0  0  0  0  0  0  0  0  0  0
   -4.5034    0.0115   -8.0822 H   0  0  0  0  0  0  0  0  0  0  0  0
   -4.0527   -2.0028   -6.6984 H   0  0  0  0  0  0  0  0  0  0  0  0
   -3.3166   -1.8008   -4.4086 H   0  0  0  0  0  0  0  0  0  0  0  0
   -3.1603    2.5027   -4.9895 H   0  0  0  0  0  0  0  0  0  0  0  0
   -4.1535    2.2613   -7.0898 H   0  0  0  0  0  0  0  0  0  0  0  0
   -1.4721    4.3213   -2.1446 H   0  0  0  0  0  0  0  0  0  0  0  0
   -2.5379    4.8039   -3.4148 H   0  0  0  0  0  0  0  0  0  0  0  0
   -3.1551    4.2134   -0.5502 H   0  0  0  0  0  0  0  0  0  0  0  0
   -4.6967    5.9075   -0.8064 H   0  0  0  0  0  0  0  0  0  0  0  0
   -3.2112    6.5020   -1.5307 H   0  0  0  0  0  0  0  0  0  0  0  0
   -4.8984    7.1093   -3.1467 H   0  0  0  0  0  0  0  0  0  0  0  0
   -4.1825    5.7764   -3.8466 H   0  0  0  0  0  0  0  0  0  0  0  0
   -6.5780    5.4191   -3.9636 H   0  0  0  0  0  0  0  0  0  0  0  0
   -6.5055    3.0798   -3.0035 H   0  0  0  0  0  0  0  0  0  0  0  0
   -5.0256    3.5373   -3.8261 H   0  0  0  0  0  0  0  0  0  0  0  0
   -4.6033    2.3938   -1.6430 H   0  0  0  0  0  0  0  0  0  0  0  0
   -5.4619    3.6022   -0.7887 H   0  0  0  0  0  0  0  0  0  0  0  0
   -7.9479    4.8391   -2.0059 H   0  0  0  0  0  0  0  0  0  0  0  0
   -6.7169    5.2803   -0.8734 H   0  0  0  0  0  0  0  0  0  0  0  0
   -6.0929    8.0880   -2.3375 H   0  0  0  0  0  0  0  0  0  0  0  0
   -7.3100    8.8143   -1.4456 H   0  0  0  0  0  0  0  0  0  0  0  0
   -5.9901    7.4303    1.5984 H   0  0  0  0  0  0  0  0  0  0  0  0
   -1.0853   -1.4853   -3.3586 H   0  0  0  0  0  0  0  0  0  0  0  0
   -0.7315   -3.4196   -1.8770 H   0  0  0  0  0  0  0  0  0  0  0  0
   -3.7420   -1.9249    0.8104 H   0  0  0  0  0  0  0  0  0  0  0  0
   -4.2402   -0.0866   -0.7633 H   0  0  0  0  0  0  0  0  0  0  0  0
  1  2  2  0  0  0  0
  1  6  1  0  0  0  0
  1 31  1  0  0  0  0
  2  3  1  0  0  0  0
  2 32  1  0  0  0  0
  3  4  2  0  0  0  0
  3 33  1  0  0  0  0
  4  5  1  0  0  0  0
  4  7  1  0  0  0  0
  5  6  2  0  0  0  0
  5 34  1  0  0  0  0
  6 35  1  0  0  0  0
  7  8  1  0  0  0  0
  7 24  1  0  0  0  0
  8  9  2  0  0  0  0
  8 10  1  0  0  0  0
 10 11  1  0  0  0  0
 11 36  1  0  0  0  0
 11 37  1  0  0  0  0
 12 13  1  0  0  0  0
 12 17  1  0  0  0  0
 12 38  1  1  0  0  0
 12 11  1  0  0  0  0
 13 14  1  0  0  0  0
 13 39  1  0  0  0  0
 13 40  1  0  0  0  0
 14 15  1  0  0  0  0
 14 41  1  0  0  0  0
 14 42  1  0  0  0  0
 15 16  1  0  0  0  0
 15 18  1  0  0  0  0
 15 43  1  6  0  0  0
 16 17  1  0  0  0  0
 16 44  1  0  0  0  0
 16 45  1  0  0  0  0
 17 46  1  0  0  0  0
 17 47  1  0  0  0  0
 18 19  1  0  0  0  0
 18 48  1  0  0  0  0
 18 49  1  0  0  0  0
 19 20  1  0  0  0  0
 20 21  1  0  0  0  0
 20 50  1  0  0  0  0
 20 51  1  0  0  0  0
 21 22  2  0  0  0  0
 21 23  1  0  0  0  0
 23 52  1  0  0  0  0
 24 25  2  0  0  0  0
 24 29  1  0  0  0  0
 25 26  1  0  0  0  0
 25 53  1  0  0  0  0
 26 27  2  0  0  0  0
 26 54  1  0  0  0  0
 27 28  1  0  0  0  0
 27 30  1  0  0  0  0
 28 29  2  0  0  0  0
 28 55  1  0  0  0  0
 29 56  1  0  0  0  0
M  END
>  <DRUGBANK_ID>
DB12462

>  <COMMON_NAME>
Ralinepag

>  <CAS_NUMBER>
1187856-49-0

>  <UNII>
CQY12ZJN6E

>  <SYNONYMS>
2-{[(1r,4r)-4-(((4-chlorophenyl)(phenyl)carbamoyloxy)methyl)cyclohexy]methoxy} acetic acid; Ralinepag

$$$$
