
 OpenBabel10282417213D

  4  3  0  0  0  0  0  0  0  0999 V2000
    1.0200    0.0506   -0.0561 N   0  0  0  0  0  0  0  0  0  0  0  0
    0.3989   -0.9695   -0.3977 O   0  5  0  0  0  0  0  0  0  0  0  0
    0.3989    1.0707    0.2855 O   0  0  0  0  0  0  0  0  0  0  0  0
    2.2622    0.0507   -0.0561 O   0  0  0  0  0  0  0  0  0  0  0  0
  2  1  1  0  0  0  0
  3  1  2  0  0  0  0
  4  1  2  0  0  0  0
M  CHG  1   2  -1
M  END
>  <DRUGBANK_ID>
DB14049

>  <COMMON_NAME>
Nitrate

>  <CAS_NUMBER>
14797-55-8

>  <UNII>
T93E9Y2844

>  <SYNONYMS>
Nitrate ion; Nitrates

$$$$
