
 OpenBabel10282417143D

 19 18  0  0  0  0  0  0  0  0999 V2000
    1.0325    0.1607   -0.0219 C   0  0  0  0  0  0  0  0  0  0  0  0
    0.5395    1.5915   -0.0976 C   0  0  0  0  0  0  0  0  0  0  0  0
   -0.2678    1.9768   -0.9398 O   0  0  0  0  0  0  0  0  0  0  0  0
    0.5235   -0.6134    1.2232 N   0  3  0  0  0  0  0  0  0  0  0  0
    1.0323    0.0383    2.5003 C   0  0  0  0  0  0  0  0  0  0  0  0
   -1.0045   -0.6350    1.2144 C   0  0  0  0  0  0  0  0  0  0  0  0
    1.0364   -2.0493    1.1649 C   0  0  0  0  0  0  0  0  0  0  0  0
    0.6875   -0.3887   -0.9055 H   0  0  0  0  0  0  0  0  0  0  0  0
    2.1268    0.1514    0.0055 H   0  0  0  0  0  0  0  0  0  0  0  0
    0.8951    2.2693    0.6947 H   0  0  0  0  0  0  0  0  0  0  0  0
    0.6437    1.0580    2.5552 H   0  0  0  0  0  0  0  0  0  0  0  0
    0.6742   -0.5410    3.3549 H   0  0  0  0  0  0  0  0  0  0  0  0
    2.1260    0.0476    2.4666 H   0  0  0  0  0  0  0  0  0  0  0  0
   -1.3364   -1.1261    0.2948 H   0  0  0  0  0  0  0  0  0  0  0  0
   -1.3438   -1.1900    2.0933 H   0  0  0  0  0  0  0  0  0  0  0  0
   -1.3707    0.3939    1.2570 H   0  0  0  0  0  0  0  0  0  0  0  0
    0.6597   -2.5189    0.2518 H   0  0  0  0  0  0  0  0  0  0  0  0
    2.1302   -2.0260    1.1624 H   0  0  0  0  0  0  0  0  0  0  0  0
    0.6687   -2.5810    2.0480 H   0  0  0  0  0  0  0  0  0  0  0  0
  1  4  1  0  0  0  0
  1  2  1  0  0  0  0
  1  8  1  0  0  0  0
  1  9  1  0  0  0  0
  2  3  2  0  0  0  0
  2 10  1  0  0  0  0
  4  5  1  0  0  0  0
  4  6  1  0  0  0  0
  4  7  1  0  0  0  0
  5 11  1  0  0  0  0
  5 12  1  0  0  0  0
  5 13  1  0  0  0  0
  6 14  1  0  0  0  0
  6 15  1  0  0  0  0
  6 16  1  0  0  0  0
  7 17  1  0  0  0  0
  7 18  1  0  0  0  0
  7 19  1  0  0  0  0
M  CHG  1   4   1
M  END
>  <DRUGBANK_ID>
DB04401

>  <SECONDARY_ACCESSION_NUMBERS>
EXPT00767

>  <COMMON_NAME>
Betaine aldehyde

>  <CAS_NUMBER>
7418-61-3

>  <UNII>
DEI7V5X7RB

>  <SYNONYMS>
Glycine betaine aldehyde

$$$$
