
 OpenBabel10282417203D

 49 50  0  0  1  0  0  0  0  0999 V2000
    1.2581    0.0422   -0.0453 C   0  0  0  0  0  0  0  0  0  0  0  0
    0.5170    1.3895   -0.2693 C   0  0  0  0  0  0  0  0  0  0  0  0
    0.8853    2.8572    0.2233 C   0  0  1  0  0  0  0  0  0  0  0  0
    1.2773    3.1640    1.6550 N   0  0  0  0  0  0  0  0  0  0  0  0
    0.1881    2.6287    2.5881 C   0  0  0  0  0  0  0  0  0  0  0  0
   -0.1009    1.1649    2.3257 C   0  0  0  0  0  0  0  0  0  0  0  0
   -0.9875    1.0214    0.6924 S   0  0  0  0  0  0  0  0  0  0  0  0
    1.3700    4.9506    2.0279 S   0  0  0  0  0  0  0  0  0  0  0  0
    0.0668    5.4875    1.6819 O   0  0  0  0  0  0  0  0  0  0  0  0
    1.8617    5.0503    3.3844 O   0  0  0  0  0  0  0  0  0  0  0  0
    2.5444    5.7696    0.9660 C   0  0  0  0  0  0  0  0  0  0  0  0
    2.0562    6.1648   -0.2563 C   0  0  0  0  0  0  0  0  0  0  0  0
    2.8926    6.6235   -1.2640 C   0  0  0  0  0  0  0  0  0  0  0  0
    4.2052    6.9359   -1.0484 C   0  0  0  0  0  0  0  0  0  0  0  0
    4.5797    6.9378    0.3019 C   0  0  0  0  0  0  0  0  0  0  0  0
    3.7881    6.2868    1.3048 C   0  0  0  0  0  0  0  0  0  0  0  0
    5.0801    7.3184   -2.0202 O   0  0  0  0  0  0  0  0  0  0  0  0
    4.8562    7.1520   -3.4658 C   0  0  0  0  0  0  0  0  0  0  0  0
    3.8122    6.2229   -3.9322 C   0  0  0  0  0  0  0  0  0  0  0  0
    2.8290    5.5253   -4.1588 C   0  0  0  0  0  0  0  0  0  0  0  0
    1.5580    4.7977   -4.1406 C   0  0  0  0  0  0  0  0  0  0  0  0
    1.8018    3.4110   -3.9204 O   0  0  0  0  0  0  0  0  0  0  0  0
    1.8807    3.4187   -0.7353 C   0  0  0  0  0  0  0  0  0  0  0  0
    1.4507    4.1684   -1.6051 O   0  0  0  0  0  0  0  0  0  0  0  0
    3.1747    3.0553   -0.7460 N   0  0  0  0  0  0  0  0  0  0  0  0
    3.6724    2.0152    0.0367 O   0  0  0  0  0  0  0  0  0  0  0  0
    0.4724    1.5211   -1.8140 C   0  0  0  0  0  0  0  0  0  0  0  0
    0.9008   -0.6708   -0.8061 H   0  0  0  0  0  0  0  0  0  0  0  0
    1.0370   -0.5133    0.8746 H   0  0  0  0  0  0  0  0  0  0  0  0
    2.3378    0.0788   -0.1243 H   0  0  0  0  0  0  0  0  0  0  0  0
   -0.0314    3.4584    0.0511 H   0  0  0  0  0  0  0  0  0  0  0  0
    0.5548    2.7339    3.6119 H   0  0  0  0  0  0  0  0  0  0  0  0
   -0.7435    3.1954    2.4753 H   0  0  0  0  0  0  0  0  0  0  0  0
    0.8728    0.6581    2.3470 H   0  0  0  0  0  0  0  0  0  0  0  0
   -0.7117    0.6967    3.0944 H   0  0  0  0  0  0  0  0  0  0  0  0
    1.0180    5.9832   -0.5218 H   0  0  0  0  0  0  0  0  0  0  0  0
    2.4104    6.7249   -2.2139 H   0  0  0  0  0  0  0  0  0  0  0  0
    5.4534    7.5142    0.6016 H   0  0  0  0  0  0  0  0  0  0  0  0
    4.1242    6.2667    2.3379 H   0  0  0  0  0  0  0  0  0  0  0  0
    5.8092    6.7948   -3.8766 H   0  0  0  0  0  0  0  0  0  0  0  0
    4.7028    8.1542   -3.8906 H   0  0  0  0  0  0  0  0  0  0  0  0
    0.8599    5.2283   -3.3973 H   0  0  0  0  0  0  0  0  0  0  0  0
    1.0291    4.8544   -5.0832 H   0  0  0  0  0  0  0  0  0  0  0  0
    2.4710    3.3680   -3.2165 H   0  0  0  0  0  0  0  0  0  0  0  0
    3.7903    3.4377   -1.4589 H   0  0  0  0  0  0  0  0  0  0  0  0
    2.9848    1.8616    0.7114 H   0  0  0  0  0  0  0  0  0  0  0  0
    1.5264    1.5451   -2.1529 H   0  0  0  0  0  0  0  0  0  0  0  0
    0.0228    0.7211   -2.3911 H   0  0  0  0  0  0  0  0  0  0  0  0
   -0.0031    2.4571   -2.1241 H   0  0  0  0  0  0  0  0  0  0  0  0
  1  2  1  0  0  0  0
  1 28  1  0  0  0  0
  1 29  1  0  0  0  0
  1 30  1  0  0  0  0
  2  3  1  0  0  0  0
  2  7  1  0  0  0  0
  2 27  1  0  0  0  0
  3  4  1  0  0  0  0
  3 23  1  0  0  0  0
  3 31  1  6  0  0  0
  4  5  1  0  0  0  0
  4  8  1  0  0  0  0
  5  6  1  0  0  0  0
  5 32  1  0  0  0  0
  5 33  1  0  0  0  0
  6  7  1  0  0  0  0
  6 34  1  0  0  0  0
  6 35  1  0  0  0  0
  8  9  2  0  0  0  0
  8 10  2  0  0  0  0
  8 11  1  0  0  0  0
 11 12  2  0  0  0  0
 11 16  1  0  0  0  0
 12 13  1  0  0  0  0
 12 36  1  0  0  0  0
 13 14  2  0  0  0  0
 13 37  1  0  0  0  0
 14 15  1  0  0  0  0
 14 17  1  0  0  0  0
 15 16  2  0  0  0  0
 15 38  1  0  0  0  0
 16 39  1  0  0  0  0
 17 18  1  0  0  0  0
 18 19  1  0  0  0  0
 18 40  1  0  0  0  0
 18 41  1  0  0  0  0
 19 20  3  0  0  0  0
 20 21  1  0  0  0  0
 21 22  1  0  0  0  0
 21 42  1  0  0  0  0
 21 43  1  0  0  0  0
 22 44  1  0  0  0  0
 23 24  2  0  0  0  0
 23 25  1  0  0  0  0
 25 26  1  0  0  0  0
 25 45  1  0  0  0  0
 26 46  1  0  0  0  0
 27 47  1  0  0  0  0
 27 48  1  0  0  0  0
 27 49  1  0  0  0  0
M  END
>  <DRUGBANK_ID>
DB13020

>  <COMMON_NAME>
Apratastat

>  <CAS_NUMBER>
287405-51-0

>  <UNII>
C6BZ5263BJ

>  <SYNONYMS>
Apratastat

$$$$
