
 OpenBabel10282417133D

 76 83  0  0  0  0  0  0  0  0999 V2000
    1.0002   -0.0217   -0.0976 C   0  0  0  0  0  0  0  0  0  0  0  0
   -8.3889    1.5580   -5.8080 C   0  0  0  0  0  0  0  0  0  0  0  0
   -1.4184    1.9148    0.2374 C   0  0  0  0  0  0  0  0  0  0  0  0
   -3.3711   -3.0407    2.7986 C   0  0  0  0  0  0  0  0  0  0  0  0
   -6.3229   -1.1764   -8.7252 C   0  0  0  0  0  0  0  0  0  0  0  0
   -1.8344   -5.9399   -6.7646 C   0  0  0  0  0  0  0  0  0  0  0  0
    0.3200   -0.2344   -1.2564 C   0  0  0  0  0  0  0  0  0  0  0  0
   -7.7908    0.7611   -6.7343 C   0  0  0  0  0  0  0  0  0  0  0  0
   -1.9656   -5.2642    1.0802 C   0  0  0  0  0  0  0  0  0  0  0  0
   -1.0726   -6.5432   -3.7766 C   0  0  0  0  0  0  0  0  0  0  0  0
   -2.5753   -6.6110    0.7269 C   0  0  0  0  0  0  0  0  0  0  0  0
    0.0856   -5.9076   -3.0250 C   0  0  0  0  0  0  0  0  0  0  0  0
   -1.1994   -2.3083   -2.6717 C   0  0  0  0  0  0  0  0  0  0  0  0
   -7.0990    0.2557   -4.0092 C   0  0  0  0  0  0  0  0  0  0  0  0
   -2.3965   -4.8465   -1.7813 C   0  0  0  0  0  0  0  0  0  0  0  0
   -1.9246    0.7403   -0.5840 C   0  0  0  0  0  0  0  0  0  0  0  0
   -3.4119   -3.1890    1.2864 C   0  0  0  0  0  0  0  0  0  0  0  0
   -6.1868   -1.1468   -7.2116 C   0  0  0  0  0  0  0  0  0  0  0  0
   -2.3678   -5.2385   -5.5261 C   0  0  0  0  0  0  0  0  0  0  0  0
   -1.2000   -0.2344   -1.2564 C   0  0  0  0  0  0  0  0  0  0  0  0
   -6.8143   -0.3167   -6.2926 C   0  0  0  0  0  0  0  0  0  0  0  0
   -2.8139   -4.1522    0.4851 C   0  0  0  0  0  0  0  0  0  0  0  0
   -2.0602   -5.4648   -4.1914 C   0  0  0  0  0  0  0  0  0  0  0  0
   -3.6049    0.2550   -0.9354 C   0  0  0  0  0  0  0  0  0  0  0  0
   -4.2406   -2.1710    0.0785 C   0  0  0  0  0  0  0  0  0  0  0  0
   -1.9162   -1.1979   -1.9210 C   0  0  0  0  0  0  0  0  0  0  0  0
   -6.5142   -0.5122   -4.9679 C   0  0  0  0  0  0  0  0  0  0  0  0
   -3.0224   -4.0562   -0.8678 C   0  0  0  0  0  0  0  0  0  0  0  0
   -2.6869   -4.6720   -3.2631 C   0  0  0  0  0  0  0  0  0  0  0  0
   -2.6238   -6.7644   -0.7846 C   0  0  0  0  0  0  0  0  0  0  0  0
   -0.4411   -5.1997   -1.7873 C   0  0  0  0  0  0  0  0  0  0  0  0
   -5.1790   -2.1694   -6.1529 C   0  0  0  0  0  0  0  0  0  0  0  0
   -3.5523   -3.9098   -5.4087 C   0  0  0  0  0  0  0  0  0  0  0  0
   -4.3140   -3.1632   -6.4917 C   0  0  0  0  0  0  0  0  0  0  0  0
   -3.2755   -1.1474   -1.9001 N   0  0  0  0  0  0  0  0  0  0  0  0
   -3.7804   -3.0357   -1.3520 N   0  0  0  0  0  0  0  0  0  0  0  0
   -5.6251   -1.4828   -4.6248 N   0  0  0  0  0  0  0  0  0  0  0  0
   -3.5712   -3.7282   -3.6846 N   0  0  0  0  0  0  0  0  0  0  0  0
   -1.9324   -7.8341   -1.4122 O   0  0  0  0  0  0  0  0  0  0  0  0
   -3.2833   -5.9352   -1.4866 O   0  0  0  0  0  0  0  0  0  0  0  0
    0.0096   -5.5921   -0.4991 O   0  0  0  0  0  0  0  0  0  0  0  0
   -1.2850   -4.2568   -1.9053 O   0  0  0  0  0  0  0  0  0  0  0  0
   -4.1227   -3.5032   -7.8571 O   0  0  0  0  0  0  0  0  0  0  0  0
   -4.5327   -2.3464   -2.7406 Zn  0  0  3  0  0  0  0  0  0  0  0  0
    0.4652    0.1456    0.8138 H   0  0  0  0  0  0  0  0  0  0  0  0
    2.0702   -0.0217   -0.0976 H   0  0  0  0  0  0  0  0  0  0  0  0
   -9.0763    2.3168   -6.1190 H   0  0  0  0  0  0  0  0  0  0  0  0
   -8.1719    1.4260   -4.7686 H   0  0  0  0  0  0  0  0  0  0  0  0
   -1.7693    2.8291   -0.1936 H   0  0  0  0  0  0  0  0  0  0  0  0
   -1.7810    1.8311    1.2406 H   0  0  0  0  0  0  0  0  0  0  0  0
   -0.3484    1.9109    0.2435 H   0  0  0  0  0  0  0  0  0  0  0  0
   -2.9390   -2.0953    3.0527 H   0  0  0  0  0  0  0  0  0  0  0  0
   -4.3658   -3.0947    3.1892 H   0  0  0  0  0  0  0  0  0  0  0  0
   -2.7798   -3.8274    3.2183 H   0  0  0  0  0  0  0  0  0  0  0  0
   -5.3690   -0.9906   -9.1728 H   0  0  0  0  0  0  0  0  0  0  0  0
   -6.6800   -2.1372   -9.0324 H   0  0  0  0  0  0  0  0  0  0  0  0
   -7.0157   -0.4224   -9.0358 H   0  0  0  0  0  0  0  0  0  0  0  0
   -2.6458   -6.3925   -7.2955 H   0  0  0  0  0  0  0  0  0  0  0  0
   -1.3482   -5.2267   -7.3969 H   0  0  0  0  0  0  0  0  0  0  0  0
   -1.1338   -6.6944   -6.4733 H   0  0  0  0  0  0  0  0  0  0  0  0
    0.8550   -0.4017   -2.1678 H   0  0  0  0  0  0  0  0  0  0  0  0
   -8.0077    0.8931   -7.7737 H   0  0  0  0  0  0  0  0  0  0  0  0
   -0.9733   -5.2069    0.6838 H   0  0  0  0  0  0  0  0  0  0  0  0
   -1.9314   -5.1562    2.1442 H   0  0  0  0  0  0  0  0  0  0  0  0
   -1.5635   -7.2515   -3.1424 H   0  0  0  0  0  0  0  0  0  0  0  0
   -0.7018   -7.0415   -4.6479 H   0  0  0  0  0  0  0  0  0  0  0  0
   -1.9781   -7.3938    1.1458 H   0  0  0  0  0  0  0  0  0  0  0  0
   -3.5675   -6.6683    1.1233 H   0  0  0  0  0  0  0  0  0  0  0  0
    0.7808   -6.6667   -2.7330 H   0  0  0  0  0  0  0  0  0  0  0  0
    0.5765   -5.1992   -3.6592 H   0  0  0  0  0  0  0  0  0  0  0  0
   -0.1300   -2.3419   -2.6840 H   0  0  0  0  0  0  0  0  0  0  0  0
   -7.7975    1.0174   -4.2861 H   0  0  0  0  0  0  0  0  0  0  0  0
   -1.6998   -5.5908   -1.4567 H   0  0  0  0  0  0  0  0  0  0  0  0
   -1.4136   -8.4866   -0.8599 H   0  0  0  0  0  0  0  0  0  0  0  0
    0.6736   -6.3340   -0.4063 H   0  0  0  0  0  0  0  0  0  0  0  0
   -4.6238   -3.0120   -8.5696 H   0  0  0  0  0  0  0  0  0  0  0  0
  1 45  1  0  0  0  0
  1 46  1  0  0  0  0
  2 47  1  0  0  0  0
  2 48  1  0  0  0  0
  3 49  1  0  0  0  0
  3 50  1  0  0  0  0
  3 51  1  0  0  0  0
  4 52  1  0  0  0  0
  4 53  1  0  0  0  0
  4 54  1  0  0  0  0
  5 55  1  0  0  0  0
  5 56  1  0  0  0  0
  5 57  1  0  0  0  0
  6 58  1  0  0  0  0
  6 59  1  0  0  0  0
  6 60  1  0  0  0  0
  7  1  2  0  0  0  0
  7 61  1  0  0  0  0
  8  2  2  0  0  0  0
  8 62  1  0  0  0  0
  9 63  1  0  0  0  0
  9 64  1  0  0  0  0
 10 65  1  0  0  0  0
 10 66  1  0  0  0  0
 11  9  1  0  0  0  0
 11 67  1  0  0  0  0
 11 68  1  0  0  0  0
 12 10  1  0  0  0  0
 12 69  1  0  0  0  0
 12 70  1  0  0  0  0
 13 71  1  0  0  0  0
 14 72  1  0  0  0  0
 15 73  1  0  0  0  0
 16  3  1  0  0  0  0
 17  4  1  0  0  0  0
 18  5  1  0  0  0  0
 19  6  1  0  0  0  0
 20  7  1  0  0  0  0
 20 16  1  0  0  0  0
 21  8  1  0  0  0  0
 21 18  2  0  0  0  0
 22  9  1  0  0  0  0
 22 17  2  0  0  0  0
 23 10  1  0  0  0  0
 23 19  1  0  0  0  0
 24 14  1  0  0  0  0
 24 16  2  0  0  0  0
 25 13  2  0  0  0  0
 25 17  1  0  0  0  0
 26 13  1  0  0  0  0
 26 20  2  0  0  0  0
 27 14  2  0  0  0  0
 27 21  1  0  0  0  0
 28 15  2  0  0  0  0
 28 22  1  0  0  0  0
 29 15  1  0  0  0  0
 29 23  2  0  0  0  0
 30 11  1  0  0  0  0
 31 12  1  0  0  0  0
 32 18  1  0  0  0  0
 33 19  2  0  0  0  0
 34 32  2  0  0  0  0
 34 33  1  0  0  0  0
 35 24  1  0  0  0  0
 35 26  1  0  0  0  0
 36 25  1  0  0  0  0
 36 28  1  0  0  0  0
 37 27  1  0  0  0  0
 37 32  1  0  0  0  0
 38 29  1  0  0  0  0
 38 33  1  0  0  0  0
 39 30  1  0  0  0  0
 39 74  1  0  0  0  0
 40 30  2  0  0  0  0
 41 31  1  0  0  0  0
 41 75  1  0  0  0  0
 42 31  2  0  0  0  0
 43 34  1  0  0  0  0
 43 76  1  0  0  0  0
 44 35  1  0  0  0  0
 44 36  1  0  0  0  0
 44 37  1  0  0  0  0
 44 38  1  0  0  0  0
M  END
>  <DRUGBANK_ID>
DB02920

>  <SECONDARY_ACCESSION_NUMBERS>
EXPT03285

>  <COMMON_NAME>
Zn(Ii)-(20-Oxo-Protoporphyrin Ix)

$$$$
