
 OpenBabel10282417143D

 74 75  0  0  0  0  0  0  0  0999 V2000
    0.9584   -0.0482    0.0771 P   0  0  0  0  0  0  0  0  0  0  0  0
    0.9257   -0.4856    1.9571 C   0  0  0  0  0  0  0  0  0  0  0  0
    2.0600   -0.6298    2.7410 O   0  0  0  0  0  0  0  0  0  0  0  0
    1.6875   -0.5171    4.0653 C   0  0  0  0  0  0  0  0  0  0  0  0
    0.2994   -0.4385    4.1255 C   0  0  0  0  0  0  0  0  0  0  0  0
   -0.1871   -0.4384    2.7873 C   0  0  0  0  0  0  0  0  0  0  0  0
    2.6253   -0.2308    5.2466 C   0  0  0  0  0  0  0  0  0  0  0  0
    2.5269   -1.1737    6.2633 N   0  0  0  0  0  0  0  0  0  0  0  0
    3.3798   -0.9003    7.2022 C   0  0  0  0  0  0  0  0  0  0  0  0
    4.3610    0.4371    6.9647 S   0  0  0  0  0  0  0  0  0  0  0  0
    3.4831    0.8701    5.5510 C   0  0  0  0  0  0  0  0  0  0  0  0
    3.4442    2.3421    5.3170 C   0  0  0  0  0  0  0  0  0  0  0  0
    4.7077    3.3520    5.0726 C   0  0  0  0  0  0  0  0  0  0  0  0
    5.6959    3.3748    3.8539 C   0  0  0  0  0  0  0  0  0  0  0  0
    4.0809    4.7769    5.0767 C   0  0  0  0  0  0  0  0  0  0  0  0
    5.5790    3.1585    6.2950 C   0  0  0  0  0  0  0  0  0  0  0  0
    2.3526    2.8926    5.5205 O   0  0  0  0  0  0  0  0  0  0  0  0
    3.5335   -1.6011    8.3167 N   0  0  0  0  0  0  0  0  0  0  0  0
    0.9005    1.5664   -0.3999 N   0  0  0  0  0  0  0  0  0  0  0  0
    0.1809    2.7522    0.1310 C   0  0  0  0  0  0  0  0  0  0  0  0
    0.8881    3.1761    1.3365 C   0  0  0  0  0  0  0  0  0  0  0  0
    1.3933    4.2870    1.5799 O   0  0  0  0  0  0  0  0  0  0  0  0
    0.9145    2.0960    2.1053 O   0  0  0  0  0  0  0  0  0  0  0  0
    1.8226    2.3184    3.0941 C   0  0  0  0  0  0  0  0  0  0  0  0
    3.2083    2.2390    2.4920 C   0  0  0  0  0  0  0  0  0  0  0  0
    0.3234    3.9747   -0.7961 C   0  0  0  0  0  0  0  0  0  0  0  0
   -1.2623    2.5514    0.6811 C   0  0  0  0  0  0  0  0  0  0  0  0
   -0.8216   -0.0482    0.0771 N   0  0  0  0  0  0  0  0  0  0  0  0
   -1.3667    0.2338   -1.3963 C   0  0  0  0  0  0  0  0  0  0  0  0
   -0.8995   -0.8261   -2.3970 C   0  0  0  0  0  0  0  0  0  0  0  0
   -1.6536   -1.4143   -3.1467 O   0  0  0  0  0  0  0  0  0  0  0  0
    0.4651   -0.9257   -2.4210 O   0  0  0  0  0  0  0  0  0  0  0  0
    0.9988   -1.8073   -3.4193 C   0  0  0  0  0  0  0  0  0  0  0  0
    0.6028   -3.2349   -3.0982 C   0  0  0  0  0  0  0  0  0  0  0  0
   -2.9016    0.1975   -1.3058 C   0  0  0  0  0  0  0  0  0  0  0  0
   -1.0187    1.5333   -2.2183 C   0  0  0  0  0  0  0  0  0  0  0  0
    2.5067   -0.0482    0.0771 O   0  0  0  0  0  0  0  0  0  0  0  0
   -0.2845   -0.1704    4.9966 H   0  0  0  0  0  0  0  0  0  0  0  0
   -1.1998   -0.1984    2.4905 H   0  0  0  0  0  0  0  0  0  0  0  0
    5.2492    3.7224    2.9119 H   0  0  0  0  0  0  0  0  0  0  0  0
    6.4998    4.1092    4.0230 H   0  0  0  0  0  0  0  0  0  0  0  0
    6.1749    2.4098    3.6605 H   0  0  0  0  0  0  0  0  0  0  0  0
    3.3411    4.8896    5.8752 H   0  0  0  0  0  0  0  0  0  0  0  0
    4.8257    5.5629    5.2242 H   0  0  0  0  0  0  0  0  0  0  0  0
    3.5575    4.9722    4.1288 H   0  0  0  0  0  0  0  0  0  0  0  0
    4.9404    3.1105    7.1805 H   0  0  0  0  0  0  0  0  0  0  0  0
    6.1360    2.2216    6.1739 H   0  0  0  0  0  0  0  0  0  0  0  0
    6.3102    3.9488    6.4440 H   0  0  0  0  0  0  0  0  0  0  0  0
    4.2601   -1.3460    8.9706 H   0  0  0  0  0  0  0  0  0  0  0  0
    3.0280   -2.4635    8.4398 H   0  0  0  0  0  0  0  0  0  0  0  0
    1.8452    1.8075   -0.7003 H   0  0  0  0  0  0  0  0  0  0  0  0
    1.4440    3.1772    3.6429 H   0  0  0  0  0  0  0  0  0  0  0  0
    1.6960    1.5441    3.7990 H   0  0  0  0  0  0  0  0  0  0  0  0
    3.4301    3.1138    1.8850 H   0  0  0  0  0  0  0  0  0  0  0  0
    3.9636    2.1547    3.2337 H   0  0  0  0  0  0  0  0  0  0  0  0
    3.4055    1.3358    1.9176 H   0  0  0  0  0  0  0  0  0  0  0  0
   -0.0950    3.8811   -1.7947 H   0  0  0  0  0  0  0  0  0  0  0  0
   -0.1774    4.8272   -0.3230 H   0  0  0  0  0  0  0  0  0  0  0  0
    1.3794    4.2432   -0.9394 H   0  0  0  0  0  0  0  0  0  0  0  0
   -2.0139    2.3036   -0.0505 H   0  0  0  0  0  0  0  0  0  0  0  0
   -1.3149    1.7578    1.4341 H   0  0  0  0  0  0  0  0  0  0  0  0
   -1.6481    3.4368    1.1807 H   0  0  0  0  0  0  0  0  0  0  0  0
   -1.1350   -0.9909    0.2998 H   0  0  0  0  0  0  0  0  0  0  0  0
    0.6732   -1.4896   -4.4171 H   0  0  0  0  0  0  0  0  0  0  0  0
    2.0914   -1.7143   -3.3920 H   0  0  0  0  0  0  0  0  0  0  0  0
   -0.4825   -3.3628   -3.0866 H   0  0  0  0  0  0  0  0  0  0  0  0
    1.0074   -3.9309   -3.8324 H   0  0  0  0  0  0  0  0  0  0  0  0
    0.9483   -3.4999   -2.0945 H   0  0  0  0  0  0  0  0  0  0  0  0
   -3.3095    0.8860   -0.5600 H   0  0  0  0  0  0  0  0  0  0  0  0
   -3.3422    0.4940   -2.2663 H   0  0  0  0  0  0  0  0  0  0  0  0
   -3.2619   -0.8024   -1.0602 H   0  0  0  0  0  0  0  0  0  0  0  0
   -1.3870    2.4400   -1.7572 H   0  0  0  0  0  0  0  0  0  0  0  0
    0.0488    1.6347   -2.4555 H   0  0  0  0  0  0  0  0  0  0  0  0
   -1.4983    1.5875   -3.1982 H   0  0  0  0  0  0  0  0  0  0  0  0
  1  2  1  0  0  0  0
  1 19  1  0  0  0  0
  1 28  1  0  0  0  0
  1 37  2  0  0  0  0
  2  6  2  0  0  0  0
  3  2  1  0  0  0  0
  3  4  1  0  0  0  0
  4  7  1  0  0  0  0
  5  4  2  0  0  0  0
  5 38  1  0  0  0  0
  6  5  1  0  0  0  0
  6 39  1  0  0  0  0
  7 11  2  0  0  0  0
  8  7  1  0  0  0  0
  9  8  2  0  0  0  0
  9 18  1  0  0  0  0
 10  9  1  0  0  0  0
 10 11  1  0  0  0  0
 11 12  1  0  0  0  0
 12 13  1  0  0  0  0
 12 17  2  0  0  0  0
 13 14  1  0  0  0  0
 13 15  1  0  0  0  0
 13 16  1  0  0  0  0
 14 40  1  0  0  0  0
 14 41  1  0  0  0  0
 14 42  1  0  0  0  0
 15 43  1  0  0  0  0
 15 44  1  0  0  0  0
 15 45  1  0  0  0  0
 16 46  1  0  0  0  0
 16 47  1  0  0  0  0
 16 48  1  0  0  0  0
 18 49  1  0  0  0  0
 18 50  1  0  0  0  0
 19 20  1  0  0  0  0
 19 51  1  0  0  0  0
 20 26  1  0  0  0  0
 20 27  1  0  0  0  0
 21 20  1  0  0  0  0
 21 22  2  0  0  0  0
 21 23  1  0  0  0  0
 23 24  1  0  0  0  0
 24 25  1  0  0  0  0
 24 52  1  0  0  0  0
 24 53  1  0  0  0  0
 25 54  1  0  0  0  0
 25 55  1  0  0  0  0
 25 56  1  0  0  0  0
 26 57  1  0  0  0  0
 26 58  1  0  0  0  0
 26 59  1  0  0  0  0
 27 60  1  0  0  0  0
 27 61  1  0  0  0  0
 27 62  1  0  0  0  0
 28 29  1  0  0  0  0
 28 63  1  0  0  0  0
 29 35  1  0  0  0  0
 29 36  1  0  0  0  0
 30 29  1  0  0  0  0
 30 31  2  0  0  0  0
 30 32  1  0  0  0  0
 32 33  1  0  0  0  0
 33 34  1  0  0  0  0
 33 64  1  0  0  0  0
 33 65  1  0  0  0  0
 34 66  1  0  0  0  0
 34 67  1  0  0  0  0
 34 68  1  0  0  0  0
 35 69  1  0  0  0  0
 35 70  1  0  0  0  0
 35 71  1  0  0  0  0
 36 72  1  0  0  0  0
 36 73  1  0  0  0  0
 36 74  1  0  0  0  0
M  END
>  <DRUGBANK_ID>
DB05053

>  <COMMON_NAME>
MB-07803

>  <CAS_NUMBER>
882757-24-6

>  <UNII>
GG81XF45C2

$$$$
