4826
 OpenBabel10282417143D

 42 44  0  0  1  0  0  0  0  0999 V2000
   -1.0196   -0.0253    0.1595 S   0  0  0  0  0  0  0  0  0  0  0  0
   -2.6739    5.8055    0.8836 N   0  0  0  0  0  0  0  0  0  0  0  0
   -0.8843    3.1723   -1.2491 N   0  0  0  0  0  0  0  0  0  0  0  0
   -2.3298    3.5741   -1.0934 C   0  0  0  0  0  0  0  0  0  0  0  0
   -2.6693    5.0352   -1.4640 C   0  0  0  0  0  0  0  0  0  0  0  0
   -2.8859    3.3769    0.3293 C   0  0  0  0  0  0  0  0  0  0  0  0
   -2.1236    6.0457   -0.4604 C   0  0  0  0  0  0  0  0  0  0  0  0
   -2.3706    4.4397    1.3147 C   0  0  0  0  0  0  0  0  0  0  0  0
   -0.1180    2.6353   -0.0923 C   0  0  0  0  0  0  0  0  0  0  0  0
   -0.4202    2.8636   -2.5422 C   0  0  0  0  0  0  0  0  0  0  0  0
   -2.0703    6.7458    1.8351 C   0  0  0  0  0  0  0  0  0  0  0  0
    0.2002    1.1761    0.0550 C   0  0  0  0  0  0  0  0  0  0  0  0
    0.1713    1.6414   -2.8936 C   0  0  0  0  0  0  0  0  0  0  0  0
   -0.5084    3.7808   -3.5970 C   0  0  0  0  0  0  0  0  0  0  0  0
    1.4656    0.6260    0.1033 C   0  0  0  0  0  0  0  0  0  0  0  0
    0.6517    1.3354   -4.1686 C   0  0  0  0  0  0  0  0  0  0  0  0
   -0.1029    3.4688   -4.9044 C   0  0  0  0  0  0  0  0  0  0  0  0
    0.4996    2.2554   -5.1887 C   0  0  0  0  0  0  0  0  0  0  0  0
    1.4314   -0.7922    0.0708 C   0  0  0  0  0  0  0  0  0  0  0  0
    0.1426   -1.2783    0.0661 C   0  0  0  0  0  0  0  0  0  0  0  0
   -2.9113    2.9236   -1.7623 H   0  0  0  0  0  0  0  0  0  0  0  0
   -3.7650    5.1380   -1.4889 H   0  0  0  0  0  0  0  0  0  0  0  0
   -2.3646    5.3236   -2.4660 H   0  0  0  0  0  0  0  0  0  0  0  0
   -3.9823    3.4423    0.2931 H   0  0  0  0  0  0  0  0  0  0  0  0
   -2.6763    2.3704    0.6995 H   0  0  0  0  0  0  0  0  0  0  0  0
   -2.4182    7.0511   -0.7865 H   0  0  0  0  0  0  0  0  0  0  0  0
   -1.0263    6.0121   -0.4634 H   0  0  0  0  0  0  0  0  0  0  0  0
   -1.2888    4.3944    1.4527 H   0  0  0  0  0  0  0  0  0  0  0  0
   -2.8019    4.2309    2.2996 H   0  0  0  0  0  0  0  0  0  0  0  0
   -0.5818    2.8481    0.8626 H   0  0  0  0  0  0  0  0  0  0  0  0
    0.8158    3.2112   -0.0483 H   0  0  0  0  0  0  0  0  0  0  0  0
   -2.4449    6.5608    2.8479 H   0  0  0  0  0  0  0  0  0  0  0  0
   -0.9759    6.6602    1.8595 H   0  0  0  0  0  0  0  0  0  0  0  0
   -2.3292    7.7758    1.5746 H   0  0  0  0  0  0  0  0  0  0  0  0
    0.2628    0.8209   -2.2027 H   0  0  0  0  0  0  0  0  0  0  0  0
   -0.8441    4.7906   -3.4279 H   0  0  0  0  0  0  0  0  0  0  0  0
    2.3637    1.2311    0.0661 H   0  0  0  0  0  0  0  0  0  0  0  0
    1.1151    0.3705   -4.3456 H   0  0  0  0  0  0  0  0  0  0  0  0
   -0.2519    4.1981   -5.6970 H   0  0  0  0  0  0  0  0  0  0  0  0
    0.8518    2.0219   -6.1862 H   0  0  0  0  0  0  0  0  0  0  0  0
    2.3112   -1.4193    0.0228 H   0  0  0  0  0  0  0  0  0  0  0  0
   -0.1762   -2.3096    0.0164 H   0  0  0  0  0  0  0  0  0  0  0  0
  1 12  1  0  0  0  0
  1 20  1  0  0  0  0
  2  7  1  0  0  0  0
  2  8  1  0  0  0  0
  2 11  1  0  0  0  0
  3  4  1  0  0  0  0
  3  9  1  0  0  0  0
  3 10  1  0  0  0  0
  4  5  1  0  0  0  0
  4  6  1  0  0  0  0
  4 21  1  0  0  0  0
  5  7  1  0  0  0  0
  5 22  1  0  0  0  0
  5 23  1  0  0  0  0
  6  8  1  0  0  0  0
  6 24  1  0  0  0  0
  6 25  1  0  0  0  0
  7 26  1  0  0  0  0
  7 27  1  0  0  0  0
  8 28  1  0  0  0  0
  8 29  1  0  0  0  0
  9 12  1  0  0  0  0
  9 30  1  0  0  0  0
  9 31  1  0  0  0  0
 10 13  2  0  0  0  0
 10 14  1  0  0  0  0
 11 32  1  0  0  0  0
 11 33  1  0  0  0  0
 11 34  1  0  0  0  0
 12 15  2  0  0  0  0
 13 16  1  0  0  0  0
 13 35  1  0  0  0  0
 14 17  2  0  0  0  0
 14 36  1  0  0  0  0
 15 19  1  0  0  0  0
 15 37  1  0  0  0  0
 16 18  2  0  0  0  0
 16 38  1  0  0  0  0
 17 18  1  0  0  0  0
 17 39  1  0  0  0  0
 18 40  1  0  0  0  0
 19 20  2  0  0  0  0
 19 41  1  0  0  0  0
 20 42  1  0  0  0  0
M  END
>  <DRUGBANK_ID>
DB04826

>  <COMMON_NAME>
Thenalidine

>  <CAS_NUMBER>
86-12-4

>  <UNII>
6U94N2D00F

>  <SYNONYMS>
1-Methyl-4-amino-N-phenyl-N-(2-thenyl)piperidine; 1-Methyl-4-N-2-thenylanilinopiperidine; Tenalidina; Thenalidine; Thenalidinum; Thenophenopiperidine

$$$$
