GP8
 OpenBabel10282417133D

 44 46  0  0  0  0  0  0  0  0999 V2000
    1.0941    0.3821   -0.5126 N   0  0  0  0  0  0  0  0  0  0  0  0
   -0.8131    1.8785   -0.4028 N   0  0  0  0  0  0  0  0  0  0  0  0
    0.4097    1.5710   -0.3676 C   0  0  0  0  0  0  0  0  0  0  0  0
    1.2439    2.7423   -0.0877 C   0  0  0  0  0  0  0  0  0  0  0  0
    2.5083    2.9822   -0.5596 C   0  0  0  0  0  0  0  0  0  0  0  0
    3.0914    4.2220   -0.2421 C   0  0  0  0  0  0  0  0  0  0  0  0
    2.3936    5.1598    0.5462 C   0  0  0  0  0  0  0  0  0  0  0  0
    1.0548    4.9898    0.6856 C   0  0  0  0  0  0  0  0  0  0  0  0
    0.5443    3.7415    0.5421 C   0  0  0  0  0  0  0  0  0  0  0  0
    2.9898    6.2351    1.2215 N   0  0  0  0  0  0  0  0  0  0  0  0
    2.5492    7.0373    2.2502 C   0  0  0  0  0  0  0  0  0  0  0  0
    3.1829    8.0833    2.4480 O   0  0  0  0  0  0  0  0  0  0  0  0
    1.4380    6.8014    3.0374 N   0  0  0  0  0  0  0  0  0  0  0  0
    0.7205    5.6128    3.4051 C   0  0  0  0  0  0  0  0  0  0  0  0
    1.3756    4.3949    3.5338 C   0  0  0  0  0  0  0  0  0  0  0  0
    0.6782    3.1513    3.4306 C   0  0  0  0  0  0  0  0  0  0  0  0
   -0.7133    3.0483    3.2303 C   0  0  0  0  0  0  0  0  0  0  0  0
   -1.3969    4.3014    3.2204 C   0  0  0  0  0  0  0  0  0  0  0  0
   -0.6905    5.5663    3.3071 C   0  0  0  0  0  0  0  0  0  0  0  0
   -1.3900    1.9033    2.6519 O   0  0  0  0  0  0  0  0  0  0  0  0
   -0.8091    0.6249    2.4436 C   0  0  0  0  0  0  0  0  0  0  0  0
    0.1667    0.1452    3.2924 C   0  0  0  0  0  0  0  0  0  0  0  0
    0.8676   -1.0449    3.0199 C   0  0  0  0  0  0  0  0  0  0  0  0
    0.5669   -1.8582    1.9303 C   0  0  0  0  0  0  0  0  0  0  0  0
   -0.5085   -1.5178    1.1423 C   0  0  0  0  0  0  0  0  0  0  0  0
   -1.1784   -0.2904    1.3952 C   0  0  0  0  0  0  0  0  0  0  0  0
    0.5792   -0.4790   -0.5365 H   0  0  0  0  0  0  0  0  0  0  0  0
    1.9256    0.2939    0.0666 H   0  0  0  0  0  0  0  0  0  0  0  0
   -1.6101    1.2560   -0.4525 H   0  0  0  0  0  0  0  0  0  0  0  0
    2.9823    2.2312   -1.1829 H   0  0  0  0  0  0  0  0  0  0  0  0
    4.0672    4.4405   -0.6531 H   0  0  0  0  0  0  0  0  0  0  0  0
    0.4069    5.7532    1.0735 H   0  0  0  0  0  0  0  0  0  0  0  0
   -0.4235    3.5257    0.9619 H   0  0  0  0  0  0  0  0  0  0  0  0
    3.8879    6.5291    0.8602 H   0  0  0  0  0  0  0  0  0  0  0  0
    1.1928    7.6292    3.5736 H   0  0  0  0  0  0  0  0  0  0  0  0
    2.4595    4.3819    3.4295 H   0  0  0  0  0  0  0  0  0  0  0  0
    1.3331    2.3199    3.2068 H   0  0  0  0  0  0  0  0  0  0  0  0
   -2.4468    4.3431    2.9200 H   0  0  0  0  0  0  0  0  0  0  0  0
   -1.2254    6.4732    3.0008 H   0  0  0  0  0  0  0  0  0  0  0  0
    0.4394    0.7168    4.1671 H   0  0  0  0  0  0  0  0  0  0  0  0
    1.6854   -1.3185    3.6747 H   0  0  0  0  0  0  0  0  0  0  0  0
    1.1859   -2.7159    1.6784 H   0  0  0  0  0  0  0  0  0  0  0  0
   -0.7279   -2.1015    0.2405 H   0  0  0  0  0  0  0  0  0  0  0  0
   -1.8712   -0.0809    0.5887 H   0  0  0  0  0  0  0  0  0  0  0  0
  1  3  1  0  0  0  0
  1 27  1  0  0  0  0
  1 28  1  0  0  0  0
  2  3  2  0  0  0  0
  2 29  1  0  0  0  0
  3  4  1  0  0  0  0
  4  5  2  0  0  0  0
  4  9  1  0  0  0  0
  5  6  1  0  0  0  0
  5 30  1  0  0  0  0
  6  7  2  0  0  0  0
  6 31  1  0  0  0  0
  7  8  1  0  0  0  0
  7 10  1  0  0  0  0
  8  9  2  0  0  0  0
  8 32  1  0  0  0  0
  9 33  1  0  0  0  0
 10 11  1  0  0  0  0
 10 34  1  0  0  0  0
 11 12  2  0  0  0  0
 11 13  1  0  0  0  0
 13 14  1  0  0  0  0
 13 35  1  0  0  0  0
 14 15  2  0  0  0  0
 14 19  1  0  0  0  0
 15 16  1  0  0  0  0
 15 36  1  0  0  0  0
 16 17  2  0  0  0  0
 16 37  1  0  0  0  0
 17 18  1  0  0  0  0
 17 20  1  0  0  0  0
 18 19  2  0  0  0  0
 18 38  1  0  0  0  0
 19 39  1  0  0  0  0
 20 21  1  0  0  0  0
 21 22  2  0  0  0  0
 21 26  1  0  0  0  0
 22 23  1  0  0  0  0
 22 40  1  0  0  0  0
 23 24  2  0  0  0  0
 23 41  1  0  0  0  0
 24 25  1  0  0  0  0
 24 42  1  0  0  0  0
 25 26  2  0  0  0  0
 25 43  1  0  0  0  0
 26 44  1  0  0  0  0
M  END
>  <DRUGBANK_ID>
DB03337

>  <SECONDARY_ACCESSION_NUMBERS>
EXPT01636

>  <COMMON_NAME>
1-(2-Amidinophenyl)-3-(Phenoxyphenyl)Urea

$$$$
