
 OpenBabel10282417213D

 64 66  0  0  0  0  0  0  0  0999 V2000
    1.9353    7.4429   -2.0935 N   0  0  0  0  0  0  0  0  0  0  0  0
    1.8174    6.2425   -1.3954 C   0  0  0  0  0  0  0  0  0  0  0  0
    0.7454    7.9173   -2.8535 C   0  0  1  0  0  0  0  0  0  0  0  0
    3.0826    8.3379   -1.9960 C   0  0  0  0  0  0  0  0  0  0  0  0
    2.7169    9.7960   -2.0736 C   0  0  0  0  0  0  0  0  0  0  0  0
    1.7502   10.2110   -2.9915 C   0  0  0  0  0  0  0  0  0  0  0  0
    1.0579    9.1256   -3.7748 C   0  0  0  0  0  0  0  0  0  0  0  0
    2.6683    5.5323    0.7893 N   0  0  0  0  0  0  0  0  0  0  0  0
    0.1765    6.8099   -3.7427 C   0  0  0  0  0  0  0  0  0  0  0  0
    3.0425    5.6944   -0.6290 C   0  0  1  0  0  0  0  0  0  0  0  0
    3.6407    3.5165    1.8212 C   0  0  0  0  0  0  0  0  0  0  0  0
    1.4845   11.5780   -3.1409 C   0  0  0  0  0  0  0  0  0  0  0  0
    3.3632   10.7377   -1.2667 C   0  0  0  0  0  0  0  0  0  0  0  0
    2.1394   12.5322   -2.3353 C   0  0  0  0  0  0  0  0  0  0  0  0
    3.0734   12.1000   -1.3735 C   0  0  0  0  0  0  0  0  0  0  0  0
    3.8002    5.0200    1.5784 C   0  0  2  0  0  0  0  0  0  0  0  0
    0.7645    5.5981   -1.4119 O   0  0  0  0  0  0  0  0  0  0  0  0
   -0.9919    6.4395   -3.7815 O   0  0  0  0  0  0  0  0  0  0  0  0
    4.4204    2.6432    1.4555 O   0  0  0  0  0  0  0  0  0  0  0  0
    3.9182    5.7621    2.9080 C   0  0  0  0  0  0  0  0  0  0  0  0
    1.0877    6.2771   -4.5880 O   0  0  0  0  0  0  0  0  0  0  0  0
    2.5434    3.1988    2.5369 O   0  0  0  0  0  0  0  0  0  0  0  0
    5.1747    5.3123    3.6569 C   0  0  0  0  0  0  0  0  0  0  0  0
    1.7630   13.8322   -2.5932 O   0  0  0  0  0  0  0  0  0  0  0  0
    3.6648   13.0382   -0.5767 O   0  0  0  0  0  0  0  0  0  0  0  0
    6.4353    5.6036    2.8787 C   0  0  0  0  0  0  0  0  0  0  0  0
    3.4936    4.3827   -1.2699 C   0  0  0  0  0  0  0  0  0  0  0  0
    2.3797   14.8638   -1.8244 C   0  0  0  0  0  0  0  0  0  0  0  0
    4.5954   12.6351    0.4101 C   0  0  0  0  0  0  0  0  0  0  0  0
    6.7769    6.9284    2.5763 C   0  0  0  0  0  0  0  0  0  0  0  0
    7.2667    4.5657    2.4381 C   0  0  0  0  0  0  0  0  0  0  0  0
    7.9510    7.2156    1.8862 C   0  0  0  0  0  0  0  0  0  0  0  0
    8.4715    4.8594    1.8002 C   0  0  0  0  0  0  0  0  0  0  0  0
    8.8045    6.1817    1.5098 C   0  0  0  0  0  0  0  0  0  0  0  0
   -0.0133    8.2014   -2.1120 H   0  0  0  0  0  0  0  0  0  0  0  0
    3.6141    8.1880   -1.0564 H   0  0  0  0  0  0  0  0  0  0  0  0
    3.7575    8.0854   -2.8214 H   0  0  0  0  0  0  0  0  0  0  0  0
    1.7264    8.8208   -4.5928 H   0  0  0  0  0  0  0  0  0  0  0  0
    0.1360    9.4968   -4.2358 H   0  0  0  0  0  0  0  0  0  0  0  0
    2.3221    6.4133    1.1645 H   0  0  0  0  0  0  0  0  0  0  0  0
    3.8882    6.3769   -0.6813 H   0  0  0  0  0  0  0  0  0  0  0  0
    0.7546   11.9140   -3.8757 H   0  0  0  0  0  0  0  0  0  0  0  0
    4.0908   10.3819   -0.5457 H   0  0  0  0  0  0  0  0  0  0  0  0
    4.7303    5.1792    1.0215 H   0  0  0  0  0  0  0  0  0  0  0  0
    3.9586    6.8436    2.7223 H   0  0  0  0  0  0  0  0  0  0  0  0
    3.0357    5.5865    3.5340 H   0  0  0  0  0  0  0  0  0  0  0  0
    0.5968    5.5550   -5.0332 H   0  0  0  0  0  0  0  0  0  0  0  0
    2.5269    2.2217    2.5583 H   0  0  0  0  0  0  0  0  0  0  0  0
    5.2344    5.8324    4.6186 H   0  0  0  0  0  0  0  0  0  0  0  0
    5.1114    4.2431    3.8939 H   0  0  0  0  0  0  0  0  0  0  0  0
    3.7348    4.5318   -2.3254 H   0  0  0  0  0  0  0  0  0  0  0  0
    4.4037    3.9978   -0.7986 H   0  0  0  0  0  0  0  0  0  0  0  0
    2.7202    3.6123   -1.1930 H   0  0  0  0  0  0  0  0  0  0  0  0
    2.1245   14.7682   -0.7624 H   0  0  0  0  0  0  0  0  0  0  0  0
    3.4638   14.8865   -1.9892 H   0  0  0  0  0  0  0  0  0  0  0  0
    1.9937   15.8327   -2.1513 H   0  0  0  0  0  0  0  0  0  0  0  0
    4.1241   11.9808    1.1494 H   0  0  0  0  0  0  0  0  0  0  0  0
    5.4695   12.1661   -0.0502 H   0  0  0  0  0  0  0  0  0  0  0  0
    4.9327   13.5379    0.9276 H   0  0  0  0  0  0  0  0  0  0  0  0
    6.1240    7.7438    2.8771 H   0  0  0  0  0  0  0  0  0  0  0  0
    6.9834    3.5236    2.5812 H   0  0  0  0  0  0  0  0  0  0  0  0
    8.2094    8.2472    1.6663 H   0  0  0  0  0  0  0  0  0  0  0  0
    9.1559    4.0560    1.5398 H   0  0  0  0  0  0  0  0  0  0  0  0
    9.7309    6.4053    0.9887 H   0  0  0  0  0  0  0  0  0  0  0  0
  2  1  1  0  0  0  0
  3  1  1  0  0  0  0
  3  9  1  0  0  0  0
  3 35  1  1  0  0  0
  4  1  1  0  0  0  0
  4 36  1  0  0  0  0
  4 37  1  0  0  0  0
  5  4  1  0  0  0  0
  6  5  1  0  0  0  0
  6  7  1  0  0  0  0
  7  3  1  0  0  0  0
  7 38  1  0  0  0  0
  7 39  1  0  0  0  0
  8 10  1  0  0  0  0
  8 40  1  0  0  0  0
 10  2  1  0  0  0  0
 10 27  1  0  0  0  0
 10 41  1  6  0  0  0
 12  6  2  0  0  0  0
 12 14  1  0  0  0  0
 12 42  1  0  0  0  0
 13  5  2  0  0  0  0
 13 43  1  0  0  0  0
 14 15  2  0  0  0  0
 15 13  1  0  0  0  0
 16 44  1  6  0  0  0
 16  8  1  0  0  0  0
 16 11  1  0  0  0  0
 17  2  2  0  0  0  0
 18  9  2  0  0  0  0
 19 11  2  0  0  0  0
 20 16  1  0  0  0  0
 20 45  1  0  0  0  0
 20 46  1  0  0  0  0
 21  9  1  0  0  0  0
 21 47  1  0  0  0  0
 22 11  1  0  0  0  0
 22 48  1  0  0  0  0
 23 20  1  0  0  0  0
 23 49  1  0  0  0  0
 23 50  1  0  0  0  0
 24 14  1  0  0  0  0
 25 15  1  0  0  0  0
 26 23  1  0  0  0  0
 27 51  1  0  0  0  0
 27 52  1  0  0  0  0
 27 53  1  0  0  0  0
 28 24  1  0  0  0  0
 28 54  1  0  0  0  0
 28 55  1  0  0  0  0
 28 56  1  0  0  0  0
 29 25  1  0  0  0  0
 29 57  1  0  0  0  0
 29 58  1  0  0  0  0
 29 59  1  0  0  0  0
 30 26  1  0  0  0  0
 30 60  1  0  0  0  0
 31 26  2  0  0  0  0
 31 61  1  0  0  0  0
 32 30  2  0  0  0  0
 32 62  1  0  0  0  0
 33 31  1  0  0  0  0
 33 63  1  0  0  0  0
 34 33  2  0  0  0  0
 34 32  1  0  0  0  0
 34 64  1  0  0  0  0
M  END
>  <DRUGBANK_ID>
DB14210

>  <COMMON_NAME>
Moexiprilat

>  <CAS_NUMBER>
103775-14-0

>  <UNII>
H3753190JS

>  <SYNONYMS>
Moexiprilat

$$$$
