
 OpenBabel10282417153D

 42 43  0  0  0  0  0  0  0  0999 V2000
    2.5350    1.0888   -0.0012 C   0  0  0  0  0  0  0  0  0  0  0  0
    1.1987    0.3890   -0.0025 C   0  0  0  0  0  0  0  0  0  0  0  0
    1.2175   -1.0168    0.0075 C   0  0  0  0  0  0  0  0  0  0  0  0
    0.0456   -1.7772    0.0107 C   0  0  0  0  0  0  0  0  0  0  0  0
   -1.1615   -1.0906    0.0407 C   0  0  0  0  0  0  0  0  0  0  0  0
   -1.2274    0.3029    0.0730 C   0  0  0  0  0  0  0  0  0  0  0  0
   -2.6286    0.8335    0.1032 C   0  0  0  0  0  0  0  0  0  0  0  0
   -0.0405    1.0764   -0.0038 C   0  0  0  0  0  0  0  0  0  0  0  0
   -0.0677    2.6011   -0.0660 C   0  0  0  0  0  0  0  0  0  0  0  0
   -0.7340    3.1711   -1.3041 C   0  0  0  0  0  0  0  0  0  0  0  0
   -0.0903    3.9034   -2.1943 N   0  0  0  0  0  0  0  0  0  0  0  0
   -1.1798    4.3317   -3.1361 C   0  0  0  0  0  0  0  0  0  0  0  0
   -2.3366    3.3651   -2.9227 C   0  0  0  0  0  0  0  0  0  0  0  0
   -2.0514    2.9662   -1.5832 N   0  0  0  0  0  0  0  0  0  0  0  0
    0.0189   -3.3017   -0.0063 C   0  0  0  0  0  0  0  0  0  0  0  0
   -0.7235   -3.8088    1.2488 C   0  0  0  0  0  0  0  0  0  0  0  0
   -0.7200   -3.7897   -1.2710 C   0  0  0  0  0  0  0  0  0  0  0  0
    1.4350   -3.8990   -0.0089 C   0  0  0  0  0  0  0  0  0  0  0  0
    2.6465    1.7092   -0.8947 H   0  0  0  0  0  0  0  0  0  0  0  0
    2.6417    1.6977    0.9019 H   0  0  0  0  0  0  0  0  0  0  0  0
    3.3677    0.3743   -0.0014 H   0  0  0  0  0  0  0  0  0  0  0  0
    2.1873   -1.5069    0.0037 H   0  0  0  0  0  0  0  0  0  0  0  0
   -2.0967   -1.6481    0.0322 H   0  0  0  0  0  0  0  0  0  0  0  0
   -2.7110    1.7019    0.7603 H   0  0  0  0  0  0  0  0  0  0  0  0
   -2.9430    1.0289   -0.9223 H   0  0  0  0  0  0  0  0  0  0  0  0
   -3.3555    0.0969    0.4610 H   0  0  0  0  0  0  0  0  0  0  0  0
   -0.5726    2.9819    0.8285 H   0  0  0  0  0  0  0  0  0  0  0  0
    0.9456    3.0148   -0.0315 H   0  0  0  0  0  0  0  0  0  0  0  0
   -0.8365    4.3320   -4.1728 H   0  0  0  0  0  0  0  0  0  0  0  0
   -1.4928    5.3454   -2.8578 H   0  0  0  0  0  0  0  0  0  0  0  0
   -3.3292    3.8039   -3.0329 H   0  0  0  0  0  0  0  0  0  0  0  0
   -2.2510    2.4901   -3.5789 H   0  0  0  0  0  0  0  0  0  0  0  0
   -2.7455    3.0878   -0.8556 H   0  0  0  0  0  0  0  0  0  0  0  0
   -1.7660   -3.4696    1.2834 H   0  0  0  0  0  0  0  0  0  0  0  0
   -0.7448   -4.9025    1.2797 H   0  0  0  0  0  0  0  0  0  0  0  0
   -0.2393   -3.4488    2.1644 H   0  0  0  0  0  0  0  0  0  0  0  0
   -0.2312   -3.4221   -2.1812 H   0  0  0  0  0  0  0  0  0  0  0  0
   -0.7436   -4.8834   -1.3150 H   0  0  0  0  0  0  0  0  0  0  0  0
   -1.7613   -3.4470   -1.3054 H   0  0  0  0  0  0  0  0  0  0  0  0
    1.9967   -3.5750   -0.8938 H   0  0  0  0  0  0  0  0  0  0  0  0
    1.9948   -3.5852    0.8809 H   0  0  0  0  0  0  0  0  0  0  0  0
    1.4112   -4.9917   -0.0153 H   0  0  0  0  0  0  0  0  0  0  0  0
  1  2  1  0  0  0  0
  1 19  1  0  0  0  0
  1 20  1  0  0  0  0
  1 21  1  0  0  0  0
  2  3  2  0  0  0  0
  2  8  1  0  0  0  0
  3  4  1  0  0  0  0
  3 22  1  0  0  0  0
  4  5  2  0  0  0  0
  4 15  1  0  0  0  0
  5  6  1  0  0  0  0
  5 23  1  0  0  0  0
  6  7  1  0  0  0  0
  6  8  2  0  0  0  0
  7 24  1  0  0  0  0
  7 25  1  0  0  0  0
  7 26  1  0  0  0  0
  8  9  1  0  0  0  0
  9 10  1  0  0  0  0
  9 27  1  0  0  0  0
  9 28  1  0  0  0  0
 10 11  2  0  0  0  0
 10 14  1  0  0  0  0
 11 12  1  0  0  0  0
 12 13  1  0  0  0  0
 12 29  1  0  0  0  0
 12 30  1  0  0  0  0
 13 14  1  0  0  0  0
 13 31  1  0  0  0  0
 13 32  1  0  0  0  0
 14 33  1  0  0  0  0
 15 16  1  0  0  0  0
 15 17  1  0  0  0  0
 15 18  1  0  0  0  0
 16 34  1  0  0  0  0
 16 35  1  0  0  0  0
 16 36  1  0  0  0  0
 17 37  1  0  0  0  0
 17 38  1  0  0  0  0
 17 39  1  0  0  0  0
 18 40  1  0  0  0  0
 18 41  1  0  0  0  0
 18 42  1  0  0  0  0
M  END
>  <DRUGBANK_ID>
DB06694

>  <COMMON_NAME>
Xylometazoline

>  <CAS_NUMBER>
526-36-3

>  <UNII>
WPY40FTH8K

>  <SYNONYMS>
Xylometazoline; Xylometazolinum; Xylomethazoline

$$$$
