
 OpenBabel10282417113D

 57 60  0  0  0  0  0  0  0  0999 V2000
    0.3001   -4.8116   -2.9995 C   0  0  0  0  0  0  0  0  0  0  0  0
    3.9249   -3.9507   -2.5711 C   0  0  0  0  0  0  0  0  0  0  0  0
   -0.1447   -5.3896   -0.5833 C   0  0  2  0  0  0  0  0  0  0  0  0
    0.8462   -3.1755    0.3424 C   0  0  0  0  0  0  0  0  0  0  0  0
    0.2388   -5.8880   -1.9738 C   0  0  0  0  0  0  0  0  0  0  0  0
    4.1925   -4.8736    0.3042 C   0  0  2  0  0  0  0  0  0  0  0  0
    1.9237   -4.0991    0.7692 C   0  0  1  0  0  0  0  0  0  0  0  0
    5.2162   -4.9569   -1.9994 C   0  0  1  0  0  0  0  0  0  0  0  0
    5.5739   -5.0108   -0.2997 C   0  0  0  0  0  0  0  0  0  0  0  0
    4.5042   -4.0610    1.5419 C   0  0  0  0  0  0  0  0  0  0  0  0
    6.5472   -5.3640    0.7065 C   0  0  0  0  0  0  0  0  0  0  0  0
    4.8475   -4.7439    2.6274 C   0  0  0  0  0  0  0  0  0  0  0  0
    2.6657   -4.2802   -1.7142 C   0  0  2  0  0  0  0  0  0  0  0  0
    2.6832   -5.3520   -1.8379 H   0  0  0  0  0  0  0  0  0  0  0  0
    3.0855   -3.9530   -0.2458 C   0  0  1  0  0  0  0  0  0  0  0  0
    3.4320   -2.9030   -0.2663 H   0  0  0  0  0  0  0  0  0  0  0  0
    0.1845   -3.8125   -0.8721 C   0  0  2  0  0  0  0  0  0  0  0  0
   -1.0699   -2.8915   -1.1620 C   0  0  0  0  0  0  0  0  0  0  0  0
    1.1548   -3.8071   -2.1492 C   0  0  1  0  0  0  0  0  0  0  0  0
    1.1848   -2.8234   -2.6264 H   0  0  0  0  0  0  0  0  0  0  0  0
    7.1195   -4.1657    3.0107 O   0  0  0  0  0  0  0  0  0  0  0  0
    6.2651   -4.7119    2.2479 C   0  0  0  0  0  0  0  0  0  0  0  0
    3.7727   -6.4062    0.2085 C   0  0  0  0  0  0  0  0  0  0  0  0
   -1.3161   -4.8677    0.1044 O   0  0  0  0  0  0  0  0  0  0  0  0
   -0.8971   -6.7054   -0.0286 C   0  0  0  0  0  0  0  0  0  0  0  0
    2.0658   -3.8830    2.1666 O   0  0  0  0  0  0  0  0  0  0  0  0
   -1.5121   -6.8129    1.0492 O   0  0  0  0  0  0  0  0  0  0  0  0
   -0.7766   -8.0350   -0.8198 C   0  0  0  0  0  0  0  0  0  0  0  0
   -1.2264   -8.1226   -2.1615 O   0  0  0  0  0  0  0  0  0  0  0  0
    5.8380   -5.8579   -3.1282 C   0  0  0  0  0  0  0  0  0  0  0  0
    0.6325   -5.2788   -3.9357 H   0  0  0  0  0  0  0  0  0  0  0  0
   -0.7180   -4.4639   -3.2539 H   0  0  0  0  0  0  0  0  0  0  0  0
    3.7022   -4.2168   -3.6166 H   0  0  0  0  0  0  0  0  0  0  0  0
    4.0725   -2.8630   -2.5506 H   0  0  0  0  0  0  0  0  0  0  0  0
    0.1766   -3.0273    1.1949 H   0  0  0  0  0  0  0  0  0  0  0  0
    1.2090   -2.1577    0.1382 H   0  0  0  0  0  0  0  0  0  0  0  0
    0.2556   -6.8595   -2.4493 H   0  0  0  0  0  0  0  0  0  0  0  0
    1.2483   -6.1320   -1.6882 H   0  0  0  0  0  0  0  0  0  0  0  0
    1.6704   -5.1532    0.7678 H   0  0  0  0  0  0  0  0  0  0  0  0
    4.4903   -5.7510   -1.9283 H   0  0  0  0  0  0  0  0  0  0  0  0
    5.0437   -3.1191    1.3086 H   0  0  0  0  0  0  0  0  0  0  0  0
    6.4209   -6.3050    1.3523 H   0  0  0  0  0  0  0  0  0  0  0  0
    4.3846   -5.7197    2.7573 H   0  0  0  0  0  0  0  0  0  0  0  0
   -1.5462   -3.0971   -2.1180 H   0  0  0  0  0  0  0  0  0  0  0  0
   -1.8676   -2.9874   -0.4123 H   0  0  0  0  0  0  0  0  0  0  0  0
   -0.7956   -1.8369   -1.1157 H   0  0  0  0  0  0  0  0  0  0  0  0
    4.0458   -7.0049    1.0697 H   0  0  0  0  0  0  0  0  0  0  0  0
    2.7258   -6.5632   -0.0426 H   0  0  0  0  0  0  0  0  0  0  0  0
    4.2681   -6.9447   -0.6229 H   0  0  0  0  0  0  0  0  0  0  0  0
   -0.9967   -4.5206    0.9762 H   0  0  0  0  0  0  0  0  0  0  0  0
    1.3307   -4.3679    2.5944 H   0  0  0  0  0  0  0  0  0  0  0  0
    0.2748   -8.3513   -0.7516 H   0  0  0  0  0  0  0  0  0  0  0  0
   -1.3767   -8.7664   -0.2860 H   0  0  0  0  0  0  0  0  0  0  0  0
   -1.9650   -7.4986   -2.2743 H   0  0  0  0  0  0  0  0  0  0  0  0
    6.8676   -5.6600   -3.4135 H   0  0  0  0  0  0  0  0  0  0  0  0
    5.7462   -6.9259   -2.8513 H   0  0  0  0  0  0  0  0  0  0  0  0
    5.2248   -5.7956   -4.0466 H   0  0  0  0  0  0  0  0  0  0  0  0
  1 31  1  0  0  0  0
  1 32  1  0  0  0  0
  2  8  1  0  0  0  0
  2 33  1  0  0  0  0
  2 34  1  0  0  0  0
  3  5  1  0  0  0  0
  3 25  1  6  0  0  0
  3 24  1  0  0  0  0
  4  7  1  0  0  0  0
  4 35  1  0  0  0  0
  4 36  1  0  0  0  0
  5  1  1  0  0  0  0
  5 37  1  0  0  0  0
  5 38  1  0  0  0  0
  6  9  1  0  0  0  0
  6 10  1  0  0  0  0
  6 23  1  6  0  0  0
  7 39  1  6  0  0  0
  7 26  1  0  0  0  0
  8  9  1  0  0  0  0
  8 30  1  0  0  0  0
  8 40  1  6  0  0  0
  9 11  2  0  0  0  0
 10 12  2  0  0  0  0
 10 41  1  0  0  0  0
 11 22  1  0  0  0  0
 11 42  1  0  0  0  0
 12 22  1  0  0  0  0
 12 43  1  0  0  0  0
 13 15  1  0  0  0  0
 13  2  1  0  0  0  0
 13 14  1  1  0  0  0
 15  6  1  0  0  0  0
 15  7  1  0  0  0  0
 15 16  1  6  0  0  0
 17  3  1  0  0  0  0
 17  4  1  0  0  0  0
 17 18  1  6  0  0  0
 18 44  1  0  0  0  0
 18 45  1  0  0  0  0
 18 46  1  0  0  0  0
 19 13  1  0  0  0  0
 19 17  1  0  0  0  0
 19  1  1  0  0  0  0
 19 20  1  1  0  0  0
 22 21  2  0  0  0  0
 23 47  1  0  0  0  0
 23 48  1  0  0  0  0
 23 49  1  0  0  0  0
 24 50  1  0  0  0  0
 26 51  1  0  0  0  0
 27 25  2  0  0  0  0
 28 25  1  0  0  0  0
 28 52  1  0  0  0  0
 28 53  1  0  0  0  0
 29 28  1  0  0  0  0
 29 54  1  0  0  0  0
 30 55  1  0  0  0  0
 30 56  1  0  0  0  0
 30 57  1  0  0  0  0
M  END
>  <DRUGBANK_ID>
DB00959

>  <SECONDARY_ACCESSION_NUMBERS>
APRD00342

>  <COMMON_NAME>
Methylprednisolone

>  <CAS_NUMBER>
83-43-2

>  <UNII>
X4W7ZR7023

>  <SYNONYMS>
(6α,11β)-11,17,21-trihydroxy-6-methylpregna-1,4-diene-3,20-dione; 1-dehydro-6α-methylhydrocortisone; 6α-methyl-11β,17α,21-triol-1,4-pregnadiene-3,20-dione; delta(1)-6alpha-Methylhydrocortisone; Methylprednisolon; Methylprednisolone; Methylprednisolonum; Metilprednisolona

$$$$
