BR3
 OpenBabel10282417163D

 29 30  0  0  0  0  0  0  0  0999 V2000
    1.1477    1.3859    0.0790 C   0  0  0  0  0  0  0  0  0  0  0  0
   -0.0531    0.6670    0.0468 C   0  0  0  0  0  0  0  0  0  0  0  0
   -1.2392    1.3709    0.1283 O   0  0  0  0  0  0  0  0  0  0  0  0
   -2.4052    0.6257   -0.3387 C   0  0  2  0  0  0  0  0  0  0  0  0
   -3.7337    1.4033   -0.1272 C   0  0  0  0  0  0  0  0  0  0  0  0
   -4.2896    2.2618   -1.6448 P   0  0  1  0  0  0  0  0  0  0  0  0
   -2.8772    2.6252   -2.1006 O   0  5  0  0  0  0  0  0  0  0  0  0
   -5.0246    1.0095   -2.1385 O   0  0  0  0  0  0  0  0  0  0  0  0
   -2.4515   -0.6999    0.4140 C   0  0  0  0  0  0  0  0  0  0  0  0
   -1.2707   -1.5347   -0.0478 C   0  0  0  0  0  0  0  0  0  0  0  0
   -0.0075   -0.7279   -0.0089 C   0  0  0  0  0  0  0  0  0  0  0  0
    1.2267   -1.3951   -0.0630 C   0  0  0  0  0  0  0  0  0  0  0  0
    2.4307   -0.6843   -0.0305 C   0  0  0  0  0  0  0  0  0  0  0  0
    2.3817    0.7117    0.0390 C   0  0  0  0  0  0  0  0  0  0  0  0
    3.7371   -1.4215   -0.0679 C   0  0  0  0  0  0  0  0  0  0  0  0
   -2.2719    0.4253   -1.4101 H   0  0  0  0  0  0  0  0  0  0  0  0
   -4.7088    2.9091   -2.7891 H   0  0  0  0  0  0  0  0  0  0  0  0
    1.1247    2.4703    0.1206 H   0  0  0  0  0  0  0  0  0  0  0  0
   -4.5372    0.7133    0.1571 H   0  0  0  0  0  0  0  0  0  0  0  0
   -3.6365    2.1367    0.6801 H   0  0  0  0  0  0  0  0  0  0  0  0
   -2.3765   -0.5162    1.4939 H   0  0  0  0  0  0  0  0  0  0  0  0
   -3.3784   -1.2461    0.2182 H   0  0  0  0  0  0  0  0  0  0  0  0
   -1.1770   -2.4182    0.5910 H   0  0  0  0  0  0  0  0  0  0  0  0
   -1.4312   -1.8719   -1.0793 H   0  0  0  0  0  0  0  0  0  0  0  0
    1.2370   -2.4791   -0.1263 H   0  0  0  0  0  0  0  0  0  0  0  0
    3.3044    1.2894    0.0582 H   0  0  0  0  0  0  0  0  0  0  0  0
    4.3181   -1.1314   -0.9486 H   0  0  0  0  0  0  0  0  0  0  0  0
    4.3176   -1.2155    0.8370 H   0  0  0  0  0  0  0  0  0  0  0  0
    3.5817   -2.5057   -0.1176 H   0  0  0  0  0  0  0  0  0  0  0  0
  1  2  2  0  0  0  0
  1 14  1  0  0  0  0
  1 18  1  0  0  0  0
  2  3  1  0  0  0  0
  2 11  1  0  0  0  0
  3  4  1  0  0  0  0
  4  9  1  0  0  0  0
  4 16  1  6  0  0  0
  4  5  1  0  0  0  0
  5  6  1  0  0  0  0
  5 19  1  0  0  0  0
  5 20  1  0  0  0  0
  6  7  1  0  0  0  0
  6  8  2  0  0  0  0
  6 17  1  1  0  0  0
  9 10  1  0  0  0  0
  9 21  1  0  0  0  0
  9 22  1  0  0  0  0
 10 11  1  0  0  0  0
 10 23  1  0  0  0  0
 10 24  1  0  0  0  0
 11 12  2  0  0  0  0
 12 13  1  0  0  0  0
 12 25  1  0  0  0  0
 13 14  2  0  0  0  0
 13 15  1  0  0  0  0
 14 26  1  0  0  0  0
 15 27  1  0  0  0  0
 15 28  1  0  0  0  0
 15 29  1  0  0  0  0
M  CHG  1   7  -1
M  END
>  <DRUGBANK_ID>
DB07487

>  <COMMON_NAME>
(6-METHYL-3,4-DIHYDRO-2H-CHROMEN-2-YL)METHYLPHOSPHINATE

$$$$
