
 OpenBabel10282417123D

 23 22  0  0  1  0  0  0  0  0999 V2000
    0.8243    0.1439    0.0583 C   0  0  0  0  0  0  0  0  0  0  0  0
    0.8765    1.8273    0.6259 P   0  0  1  0  0  0  0  0  0  0  0  0
    1.9122    1.5791    1.8519 O   0  0  0  0  0  0  0  0  0  0  0  0
    1.4981    2.6232   -0.4847 O   0  0  0  0  0  0  0  0  0  0  0  0
   -0.2361    2.9149    1.4818 C   0  0  0  0  0  0  0  0  0  0  0  0
   -1.3281    2.5789    2.4752 C   0  0  0  0  0  0  0  0  0  0  0  0
   -0.8975    1.6397    3.5986 C   0  0  1  0  0  0  0  0  0  0  0  0
    0.2055    2.1984    4.3812 N   0  0  0  0  0  0  0  0  0  0  0  0
   -2.1041    1.3620    4.5146 C   0  0  0  0  0  0  0  0  0  0  0  0
   -2.4837    0.0669    4.5465 O   0  0  0  0  0  0  0  0  0  0  0  0
   -2.7029    2.2202    5.1751 O   0  0  0  0  0  0  0  0  0  0  0  0
    0.4304    0.0253   -0.9571 H   0  0  0  0  0  0  0  0  0  0  0  0
    0.4515   -0.6610    0.6978 H   0  0  0  0  0  0  0  0  0  0  0  0
    1.8983   -0.0950   -0.0656 H   0  0  0  0  0  0  0  0  0  0  0  0
    1.6269    0.9300    2.5234 H   0  0  0  0  0  0  0  0  0  0  0  0
    0.4695    3.5541    2.0396 H   0  0  0  0  0  0  0  0  0  0  0  0
   -0.6573    3.6271    0.7626 H   0  0  0  0  0  0  0  0  0  0  0  0
   -1.6807    3.5272    2.9212 H   0  0  0  0  0  0  0  0  0  0  0  0
   -2.1962    2.1760    1.9433 H   0  0  0  0  0  0  0  0  0  0  0  0
   -0.5678    0.7009    3.1463 H   0  0  0  0  0  0  0  0  0  0  0  0
    0.5229    1.5922    5.1328 H   0  0  0  0  0  0  0  0  0  0  0  0
    0.9990    2.5287    3.8351 H   0  0  0  0  0  0  0  0  0  0  0  0
   -1.9539   -0.5464    4.0050 H   0  0  0  0  0  0  0  0  0  0  0  0
  1 12  1  0  0  0  0
  1 13  1  0  0  0  0
  1 14  1  0  0  0  0
  2  1  1  0  0  0  0
  2  3  1  0  0  0  0
  2  4  2  6  0  0  0
  2  5  1  0  0  0  0
  3 15  1  0  0  0  0
  5  6  1  0  0  0  0
  5 16  1  0  0  0  0
  5 17  1  0  0  0  0
  6  7  1  0  0  0  0
  6 18  1  0  0  0  0
  6 19  1  0  0  0  0
  7  8  1  0  0  0  0
  7  9  1  0  0  0  0
  7 20  1  6  0  0  0
  8 21  1  0  0  0  0
  8 22  1  0  0  0  0
  9 10  1  0  0  0  0
  9 11  2  0  0  0  0
 10 23  1  0  0  0  0
M  END
>  <DRUGBANK_ID>
DB02663

>  <SECONDARY_ACCESSION_NUMBERS>
EXPT02645

>  <COMMON_NAME>
2-Amino-4-(Hydroxymethyl-Phosphinyl)Butanoic Acid

>  <CAS_NUMBER>
51276-47-2

>  <UNII>
M758GI0FEX

$$$$
