
 OpenBabel10282417173D

 21 22  0  0  0  0  0  0  0  0999 V2000
    1.1143   -1.3539    0.0293 C   0  0  0  0  0  0  0  0  0  0  0  0
    2.2657   -0.5846   -0.0128 C   0  0  0  0  0  0  0  0  0  0  0  0
    2.1685    0.7935   -0.0297 C   0  0  0  0  0  0  0  0  0  0  0  0
    0.9193    1.4304   -0.0010 C   0  0  0  0  0  0  0  0  0  0  0  0
   -0.2356    0.6276    0.0099 C   0  0  0  0  0  0  0  0  0  0  0  0
   -1.5730    0.9644    0.0059 N   0  0  0  0  0  0  0  0  0  0  0  0
   -2.3517   -0.1720   -0.0362 C   0  0  0  0  0  0  0  0  0  0  0  0
   -1.5081   -1.2632   -0.0026 C   0  0  0  0  0  0  0  0  0  0  0  0
   -0.1674   -0.7679    0.0191 C   0  0  0  0  0  0  0  0  0  0  0  0
   -1.9560   -2.5487   -0.0182 O   0  0  0  0  0  0  0  0  0  0  0  0
   -0.9083   -3.8107    0.0292 S   0  0  0  0  0  0  0  0  0  0  0  0
   -0.1524   -3.8727   -1.2011 O   0  0  0  0  0  0  0  0  0  0  0  0
   -0.2366   -3.8406    1.3175 O   0  0  0  0  0  0  0  0  0  0  0  0
   -1.7980   -5.1506    0.0165 O   0  0  0  0  0  0  0  0  0  0  0  0
    1.2712   -2.4218    0.0498 H   0  0  0  0  0  0  0  0  0  0  0  0
    3.2235   -1.0959   -0.0372 H   0  0  0  0  0  0  0  0  0  0  0  0
    3.0850    1.3744   -0.0676 H   0  0  0  0  0  0  0  0  0  0  0  0
    0.8662    2.5140   -0.0050 H   0  0  0  0  0  0  0  0  0  0  0  0
   -1.9238    1.9141    0.0057 H   0  0  0  0  0  0  0  0  0  0  0  0
   -3.4300   -0.0870   -0.0857 H   0  0  0  0  0  0  0  0  0  0  0  0
   -1.1463   -5.8860    0.0367 H   0  0  0  0  0  0  0  0  0  0  0  0
  1  2  1  0  0  0  0
  1  9  2  0  0  0  0
  1 15  1  0  0  0  0
  2  3  2  0  0  0  0
  2 16  1  0  0  0  0
  3  4  1  0  0  0  0
  3 17  1  0  0  0  0
  4  5  2  0  0  0  0
  4 18  1  0  0  0  0
  5  6  1  0  0  0  0
  5  9  1  0  0  0  0
  6  7  1  0  0  0  0
  6 19  1  0  0  0  0
  7  8  2  0  0  0  0
  7 20  1  0  0  0  0
  8  9  1  0  0  0  0
  8 10  1  0  0  0  0
 10 11  1  0  0  0  0
 12 11  2  0  0  0  0
 13 11  2  0  0  0  0
 14 11  1  0  0  0  0
 14 21  1  0  0  0  0
M  END
>  <DRUGBANK_ID>
DB07992

>  <COMMON_NAME>
Indoxyl sulfate

>  <CAS_NUMBER>
487-94-5

>  <UNII>
KT0QA88913

>  <SYNONYMS>
3-indolyl hydrogen sulfate; 3-indolyl sulfate; 3-Indoxyl sulfate; 3-Indoxylsulfuric acid; Indican; Indol-3-yl hydrogen sulfate; Indol-3-yl sulfate; Indoxyl sulfic acid; Indoxyl sulphate; Indoxyl-3-sulphate; Indoxylsulfuric acid

$$$$
