
 OpenBabel10282417133D

 96 97  0  0  0  0  0  0  0  0999 V2000
    2.3819    4.8901   -5.0131 O   0  0  0  0  0  0  0  0  0  0  0  0
    3.0449    6.8578   -1.7343 O   0  0  0  0  0  0  0  0  0  0  0  0
    5.2184    5.0919   -5.4051 O   0  0  0  0  0  0  0  0  0  0  0  0
    6.6450    6.2192   -3.3358 O   0  0  0  0  0  0  0  0  0  0  0  0
    2.3357    4.9742   -1.1188 O   0  0  0  0  0  0  0  0  0  0  0  0
    6.0586    7.7892   -0.2869 O   0  0  0  0  0  0  0  0  0  0  0  0
    0.4251    1.3724   -4.2851 O   0  0  0  0  0  0  0  0  0  0  0  0
    2.9050    4.0517    1.3972 O   0  0  0  0  0  0  0  0  0  0  0  0
    2.3300    3.1713   -1.8418 N   0  0  0  0  0  0  0  0  0  0  0  0
    5.7389    5.6262    0.0319 N   0  0  0  0  0  0  0  0  0  0  0  0
   -0.1698    1.4347   -2.1145 N   0  0  0  0  0  0  0  0  0  0  0  0
    4.7740    3.9354    2.6218 N   0  0  0  0  0  0  0  0  0  0  0  0
    4.5459    5.6458   -4.2781 C   0  0  2  0  0  0  0  0  0  0  0  0
    5.2631    6.0206   -3.0272 C   0  0  2  0  0  0  0  0  0  0  0  0
    3.1962    4.9981   -3.8358 C   0  0  2  0  0  0  0  0  0  0  0  0
    4.4971    6.9523   -2.0381 C   0  0  2  0  0  0  0  0  0  0  0  0
    3.1232    0.9421   -2.7165 C   0  0  2  0  0  0  0  0  0  0  0  0
    5.8281    2.9339    0.1353 C   0  0  2  0  0  0  0  0  0  0  0  0
    2.1453    2.1290   -2.7583 C   0  0  1  0  0  0  0  0  0  0  0  0
    5.0234    4.3595    0.2098 C   0  0  1  0  0  0  0  0  0  0  0  0
    2.6790    4.4001   -2.1656 C   0  0  0  0  0  0  0  0  0  0  0  0
    5.4284    6.7950   -0.6786 C   0  0  0  0  0  0  0  0  0  0  0  0
    3.0971    0.4649   -1.3236 C   0  0  0  0  0  0  0  0  0  0  0  0
    6.5577    2.6126   -1.1667 C   0  0  0  0  0  0  0  0  0  0  0  0
    4.5900    1.0644   -2.8898 C   0  0  0  0  0  0  0  0  0  0  0  0
    4.7214    1.9236    0.4056 C   0  0  0  0  0  0  0  0  0  0  0  0
    0.7307    1.6980   -3.0702 C   0  0  0  0  0  0  0  0  0  0  0  0
    4.1131    4.2293    1.4549 C   0  0  0  0  0  0  0  0  0  0  0  0
    2.2128   -0.6721   -1.2574 C   0  0  0  0  0  0  0  0  0  0  0  0
    5.9569    3.3911   -2.2480 C   0  0  0  0  0  0  0  0  0  0  0  0
    1.7705    3.6650   -5.3031 C   0  0  0  0  0  0  0  0  0  0  0  0
    1.7203    6.6944   -2.5448 C   0  0  0  0  0  0  0  0  0  0  0  0
    2.9942    2.8357   -5.7093 C   0  0  0  0  0  0  0  0  0  0  0  0
    1.7445    7.7038   -3.5876 C   0  0  0  0  0  0  0  0  0  0  0  0
    0.1220    1.4163   -0.6963 C   0  0  0  0  0  0  0  0  0  0  0  0
    6.2001    3.9366    2.8156 C   0  0  0  0  0  0  0  0  0  0  0  0
    3.2920    2.4817   -6.9900 C   0  0  0  0  0  0  0  0  0  0  0  0
    4.1572    2.8252   -4.9393 C   0  0  0  0  0  0  0  0  0  0  0  0
    1.8111    7.5764   -4.9889 C   0  0  0  0  0  0  0  0  0  0  0  0
    1.7953    8.8914   -2.9377 C   0  0  0  0  0  0  0  0  0  0  0  0
    4.6398    2.1668   -7.3912 C   0  0  0  0  0  0  0  0  0  0  0  0
    5.5009    2.5745   -5.3270 C   0  0  0  0  0  0  0  0  0  0  0  0
    1.6350    8.6786   -5.7548 C   0  0  0  0  0  0  0  0  0  0  0  0
    1.4957    9.9659   -3.6784 C   0  0  0  0  0  0  0  0  0  0  0  0
    5.7511    2.1655   -6.5646 C   0  0  0  0  0  0  0  0  0  0  0  0
    1.4036    9.8597   -5.0733 C   0  0  0  0  0  0  0  0  0  0  0  0
    1.8153    3.3116   -0.9610 H   0  0  0  0  0  0  0  0  0  0  0  0
    6.3295    5.8644    0.8158 H   0  0  0  0  0  0  0  0  0  0  0  0
   -0.8012    0.7260   -2.4699 H   0  0  0  0  0  0  0  0  0  0  0  0
    4.1640    3.4960    3.3028 H   0  0  0  0  0  0  0  0  0  0  0  0
    4.5229    4.6843   -5.9804 H   0  0  0  0  0  0  0  0  0  0  0  0
    6.8872    5.5044   -3.9751 H   0  0  0  0  0  0  0  0  0  0  0  0
    4.4320    6.6332   -4.7228 H   0  0  0  0  0  0  0  0  0  0  0  0
    5.2301    5.2261   -2.3603 H   0  0  0  0  0  0  0  0  0  0  0  0
    3.0480    6.0146   -3.6767 H   0  0  0  0  0  0  0  0  0  0  0  0
    4.6569    7.9547   -2.4348 H   0  0  0  0  0  0  0  0  0  0  0  0
    2.8268    0.2661   -3.5105 H   0  0  0  0  0  0  0  0  0  0  0  0
    6.5703    2.6613    0.8769 H   0  0  0  0  0  0  0  0  0  0  0  0
    2.3895    2.7095   -3.5764 H   0  0  0  0  0  0  0  0  0  0  0  0
    4.3000    4.3968   -0.5690 H   0  0  0  0  0  0  0  0  0  0  0  0
    4.0724    0.1226   -1.0047 H   0  0  0  0  0  0  0  0  0  0  0  0
    2.7443    1.2150   -0.6274 H   0  0  0  0  0  0  0  0  0  0  0  0
    7.6084    2.8794   -1.2364 H   0  0  0  0  0  0  0  0  0  0  0  0
    6.5444    1.5350   -1.3559 H   0  0  0  0  0  0  0  0  0  0  0  0
    5.4590    0.4229   -2.7140 H   0  0  0  0  0  0  0  0  0  0  0  0
    4.7724    1.1872   -3.9128 H   0  0  0  0  0  0  0  0  0  0  0  0
    4.7204    1.8126   -2.1576 H   0  0  0  0  0  0  0  0  0  0  0  0
    5.0333    0.8890    0.3224 H   0  0  0  0  0  0  0  0  0  0  0  0
    4.1199    1.9302    1.3210 H   0  0  0  0  0  0  0  0  0  0  0  0
    4.0139    2.2842   -0.3205 H   0  0  0  0  0  0  0  0  0  0  0  0
    2.7436   -1.4668   -1.7576 H   0  0  0  0  0  0  0  0  0  0  0  0
    2.0528   -0.7818   -0.1904 H   0  0  0  0  0  0  0  0  0  0  0  0
    1.3289   -0.4308   -1.8302 H   0  0  0  0  0  0  0  0  0  0  0  0
    6.6392    4.1525   -2.5574 H   0  0  0  0  0  0  0  0  0  0  0  0
    5.8550    2.8624   -3.1384 H   0  0  0  0  0  0  0  0  0  0  0  0
    4.9052    3.6192   -2.0713 H   0  0  0  0  0  0  0  0  0  0  0  0
    1.0988    3.5550   -4.4415 H   0  0  0  0  0  0  0  0  0  0  0  0
    1.0214    3.7405   -6.0962 H   0  0  0  0  0  0  0  0  0  0  0  0
    1.3951    5.7527   -3.0537 H   0  0  0  0  0  0  0  0  0  0  0  0
    0.8467    6.6943   -1.8705 H   0  0  0  0  0  0  0  0  0  0  0  0
   -0.5384    2.0129   -0.0806 H   0  0  0  0  0  0  0  0  0  0  0  0
    0.1606    0.3843   -0.3588 H   0  0  0  0  0  0  0  0  0  0  0  0
    1.0833    1.8317   -0.5153 H   0  0  0  0  0  0  0  0  0  0  0  0
    6.4097    4.7266    3.5197 H   0  0  0  0  0  0  0  0  0  0  0  0
    6.5246    2.9499    3.1592 H   0  0  0  0  0  0  0  0  0  0  0  0
    6.7703    4.1820    1.9186 H   0  0  0  0  0  0  0  0  0  0  0  0
    2.5141    2.6038   -7.7269 H   0  0  0  0  0  0  0  0  0  0  0  0
    4.0998    3.1752   -3.9289 H   0  0  0  0  0  0  0  0  0  0  0  0
    2.0396    6.6994   -5.5766 H   0  0  0  0  0  0  0  0  0  0  0  0
    1.9699    8.8881   -1.8602 H   0  0  0  0  0  0  0  0  0  0  0  0
    4.8546    2.0605   -8.4373 H   0  0  0  0  0  0  0  0  0  0  0  0
    6.3730    2.8065   -4.7204 H   0  0  0  0  0  0  0  0  0  0  0  0
    1.6327    8.5580   -6.8339 H   0  0  0  0  0  0  0  0  0  0  0  0
    1.2810   10.8454   -3.1039 H   0  0  0  0  0  0  0  0  0  0  0  0
    6.7970    2.0231   -6.8081 H   0  0  0  0  0  0  0  0  0  0  0  0
    1.1495   10.7342   -5.6368 H   0  0  0  0  0  0  0  0  0  0  0  0
  1 31  1  0  0  0  0
  2 32  1  0  0  0  0
  3 51  1  0  0  0  0
  4 52  1  0  0  0  0
  5 21  2  0  0  0  0
  6 22  2  0  0  0  0
  7 27  2  0  0  0  0
  8 28  2  0  0  0  0
  9 21  1  0  0  0  0
  9 47  1  0  0  0  0
 10 22  1  0  0  0  0
 10 48  1  0  0  0  0
 11 27  1  0  0  0  0
 11 35  1  0  0  0  0
 11 49  1  0  0  0  0
 12 28  1  0  0  0  0
 12 36  1  0  0  0  0
 12 50  1  0  0  0  0
 13 53  1  6  0  0  0
 13 14  1  0  0  0  0
 13  3  1  0  0  0  0
 14  4  1  0  0  0  0
 14 16  1  0  0  0  0
 14 54  1  1  0  0  0
 15 21  1  0  0  0  0
 15 55  1  1  0  0  0
 15 13  1  0  0  0  0
 15  1  1  0  0  0  0
 16  2  1  0  0  0  0
 16 22  1  0  0  0  0
 16 56  1  6  0  0  0
 17 25  1  0  0  0  0
 17 57  1  6  0  0  0
 17 23  1  0  0  0  0
 17 19  1  0  0  0  0
 18 26  1  0  0  0  0
 18 58  1  1  0  0  0
 18 24  1  0  0  0  0
 18 20  1  0  0  0  0
 19  9  1  0  0  0  0
 19 27  1  0  0  0  0
 19 59  1  6  0  0  0
 20 10  1  0  0  0  0
 20 28  1  0  0  0  0
 20 60  1  6  0  0  0
 23 29  1  0  0  0  0
 23 61  1  0  0  0  0
 23 62  1  0  0  0  0
 24 30  1  0  0  0  0
 24 63  1  0  0  0  0
 24 64  1  0  0  0  0
 25 65  1  0  0  0  0
 25 66  1  0  0  0  0
 25 67  1  0  0  0  0
 26 68  1  0  0  0  0
 26 69  1  0  0  0  0
 26 70  1  0  0  0  0
 29 71  1  0  0  0  0
 29 72  1  0  0  0  0
 29 73  1  0  0  0  0
 30 74  1  0  0  0  0
 30 75  1  0  0  0  0
 30 76  1  0  0  0  0
 31 33  1  0  0  0  0
 31 77  1  0  0  0  0
 31 78  1  0  0  0  0
 32 34  1  0  0  0  0
 32 79  1  0  0  0  0
 32 80  1  0  0  0  0
 33 37  2  0  0  0  0
 33 38  1  0  0  0  0
 34 39  2  0  0  0  0
 34 40  1  0  0  0  0
 35 81  1  0  0  0  0
 35 82  1  0  0  0  0
 35 83  1  0  0  0  0
 36 84  1  0  0  0  0
 36 85  1  0  0  0  0
 36 86  1  0  0  0  0
 37 41  1  0  0  0  0
 37 87  1  0  0  0  0
 38 42  2  0  0  0  0
 38 88  1  0  0  0  0
 39 43  1  0  0  0  0
 39 89  1  0  0  0  0
 40 44  2  0  0  0  0
 40 90  1  0  0  0  0
 41 45  2  0  0  0  0
 41 91  1  0  0  0  0
 42 45  1  0  0  0  0
 42 92  1  0  0  0  0
 43 46  2  0  0  0  0
 43 93  1  0  0  0  0
 44 46  1  0  0  0  0
 44 94  1  0  0  0  0
 45 95  1  0  0  0  0
 46 96  1  0  0  0  0
M  END
>  <DRUGBANK_ID>
DB03908

>  <SECONDARY_ACCESSION_NUMBERS>
EXPT00665

>  <COMMON_NAME>
N,N-[2,5-O-[Dibenzyl]-glucaryl]-DI-[isoleucyl-amido-methane]

>  <SYNONYMS>
Inhibitor Bea322

$$$$
