SB4
 OpenBabel10282417143D

 44 47  0  0  0  0  0  0  0  0999 V2000
   -0.6995    1.2861    0.2127 C   0  0  0  0  0  0  0  0  0  0  0  0
    0.7425    1.2309   -0.3007 C   0  0  0  0  0  0  0  0  0  0  0  0
    1.4292    0.0218    0.1403 N   0  0  0  0  0  0  0  0  0  0  0  0
    0.7909   -1.1636   -0.4158 C   0  0  0  0  0  0  0  0  0  0  0  0
   -0.6308   -1.1998    0.0720 C   0  0  0  0  0  0  0  0  0  0  0  0
   -1.4927    0.0306   -0.1856 C   0  0  0  0  0  0  0  0  0  0  0  0
   -4.9238   -1.4907    3.9292 C   0  0  0  0  0  0  0  0  0  0  0  0
   -5.6950   -2.2055    4.8374 C   0  0  0  0  0  0  0  0  0  0  0  0
   -6.9666   -2.6151    4.4633 C   0  0  0  0  0  0  0  0  0  0  0  0
   -7.4635   -2.3565    3.1870 C   0  0  0  0  0  0  0  0  0  0  0  0
   -6.6844   -1.6515    2.2670 C   0  0  0  0  0  0  0  0  0  0  0  0
   -5.4193   -1.1972    2.6456 C   0  0  0  0  0  0  0  0  0  0  0  0
   -7.7281   -3.2708    5.3479 F   0  0  0  0  0  0  0  0  0  0  0  0
   -3.2357   -3.4338    1.4412 C   0  0  0  0  0  0  0  0  0  0  0  0
   -2.6930   -2.2333    1.8320 C   0  0  0  0  0  0  0  0  0  0  0  0
   -1.6268   -2.1344    2.6436 N   0  0  0  0  0  0  0  0  0  0  0  0
   -0.9805   -3.2695    2.9276 C   0  0  0  0  0  0  0  0  0  0  0  0
   -1.4214   -4.4861    2.5914 N   0  0  0  0  0  0  0  0  0  0  0  0
   -2.5650   -4.5414    1.8873 C   0  0  0  0  0  0  0  0  0  0  0  0
    0.2378   -3.1750    3.5239 N   0  0  0  0  0  0  0  0  0  0  0  0
   -2.7926   -0.0269    0.5073 N   0  0  0  0  0  0  0  0  0  0  0  0
   -3.7876    0.9141    0.3367 C   0  0  0  0  0  0  0  0  0  0  0  0
   -4.8736    0.6244    1.0192 N   0  0  0  0  0  0  0  0  0  0  0  0
   -4.5587   -0.5161    1.7019 C   0  0  0  0  0  0  0  0  0  0  0  0
   -3.2913   -0.9752    1.3891 C   0  0  0  0  0  0  0  0  0  0  0  0
   -1.1859    2.1869   -0.1814 H   0  0  0  0  0  0  0  0  0  0  0  0
   -0.6985    1.3874    1.3066 H   0  0  0  0  0  0  0  0  0  0  0  0
    0.7561    1.2783   -1.3952 H   0  0  0  0  0  0  0  0  0  0  0  0
    1.2874    2.1023    0.0738 H   0  0  0  0  0  0  0  0  0  0  0  0
    2.4125    0.0388   -0.1212 H   0  0  0  0  0  0  0  0  0  0  0  0
    1.2964   -2.0566   -0.0256 H   0  0  0  0  0  0  0  0  0  0  0  0
    0.8421   -1.1943   -1.5060 H   0  0  0  0  0  0  0  0  0  0  0  0
   -0.4855   -1.2312    1.1444 H   0  0  0  0  0  0  0  0  0  0  0  0
   -1.1264   -2.1111   -0.2764 H   0  0  0  0  0  0  0  0  0  0  0  0
   -1.7291    0.0776   -1.2586 H   0  0  0  0  0  0  0  0  0  0  0  0
   -3.9188   -1.1804    4.2146 H   0  0  0  0  0  0  0  0  0  0  0  0
   -5.3085   -2.4362    5.8240 H   0  0  0  0  0  0  0  0  0  0  0  0
   -8.4557   -2.7041    2.9200 H   0  0  0  0  0  0  0  0  0  0  0  0
   -7.0535   -1.4735    1.2596 H   0  0  0  0  0  0  0  0  0  0  0  0
   -4.1314   -3.4958    0.8424 H   0  0  0  0  0  0  0  0  0  0  0  0
   -2.9345   -5.5378    1.6702 H   0  0  0  0  0  0  0  0  0  0  0  0
    0.7179   -4.0247    3.7657 H   0  0  0  0  0  0  0  0  0  0  0  0
    0.6246   -2.2580    3.6767 H   0  0  0  0  0  0  0  0  0  0  0  0
   -3.6670    1.7907   -0.2889 H   0  0  0  0  0  0  0  0  0  0  0  0
  1  2  1  0  0  0  0
  1  6  1  0  0  0  0
  1 26  1  0  0  0  0
  1 27  1  0  0  0  0
  2  3  1  0  0  0  0
  2 28  1  0  0  0  0
  2 29  1  0  0  0  0
  3  4  1  0  0  0  0
  3 30  1  0  0  0  0
  4  5  1  0  0  0  0
  4 31  1  0  0  0  0
  4 32  1  0  0  0  0
  5  6  1  0  0  0  0
  5 33  1  0  0  0  0
  5 34  1  0  0  0  0
  6 21  1  0  0  0  0
  6 35  1  0  0  0  0
  7  8  2  0  0  0  0
  7 12  1  0  0  0  0
  7 36  1  0  0  0  0
  8  9  1  0  0  0  0
  8 37  1  0  0  0  0
  9 10  2  0  0  0  0
  9 13  1  0  0  0  0
 10 11  1  0  0  0  0
 10 38  1  0  0  0  0
 11 12  2  0  0  0  0
 11 39  1  0  0  0  0
 12 24  1  0  0  0  0
 14 15  1  0  0  0  0
 14 19  2  0  0  0  0
 14 40  1  0  0  0  0
 15 16  2  0  0  0  0
 15 25  1  0  0  0  0
 16 17  1  0  0  0  0
 17 18  2  0  0  0  0
 17 20  1  0  0  0  0
 18 19  1  0  0  0  0
 19 41  1  0  0  0  0
 20 42  1  0  0  0  0
 20 43  1  0  0  0  0
 21 22  1  0  0  0  0
 21 25  1  0  0  0  0
 22 23  2  0  0  0  0
 22 44  1  0  0  0  0
 23 24  1  0  0  0  0
 24 25  2  0  0  0  0
M  END
>  <DRUGBANK_ID>
DB04338

>  <SECONDARY_ACCESSION_NUMBERS>
EXPT02849

>  <COMMON_NAME>
SB220025

>  <UNII>
MX95H97VRG

$$$$
