
 OpenBabel10282417173D

102102  0  0  0  0  0  0  0  0999 V2000
   -0.2623    1.1936    1.2979 C   0  0  0  0  0  0  0  0  0  0  0  0
   -2.4678    1.3158    0.4566 C   0  0  0  0  0  0  0  0  0  0  0  0
   -4.2982    3.2477    2.5493 C   0  0  0  0  0  0  0  0  0  0  0  0
   -6.2267    1.6565    3.0499 C   0  0  0  0  0  0  0  0  0  0  0  0
   -4.7146   -0.1631    1.9215 C   0  0  0  0  0  0  0  0  0  0  0  0
   -3.6518   -1.6530    0.9860 C   0  0  0  0  0  0  0  0  0  0  0  0
   -5.6343    2.9729   -2.8103 C   0  0  0  0  0  0  0  0  0  0  0  0
   -3.8397    1.9113   -3.4739 C   0  0  0  0  0  0  0  0  0  0  0  0
   -3.5218   -0.4331   -2.5584 C   0  0  0  0  0  0  0  0  0  0  0  0
   -5.3568   -1.7798   -2.8718 C   0  0  0  0  0  0  0  0  0  0  0  0
   -7.2814   -0.7055   -1.0857 C   0  0  0  0  0  0  0  0  0  0  0  0
   -6.7930    1.5119   -0.9746 C   0  0  0  0  0  0  0  0  0  0  0  0
   -0.9643    2.2387   -3.3763 C   0  0  0  0  0  0  0  0  0  0  0  0
   -6.3467   -4.1928   -0.9562 C   0  0  0  0  0  0  0  0  0  0  0  0
   -8.5866    3.7637   -0.3666 C   0  0  0  0  0  0  0  0  0  0  0  0
   -1.1679    0.6238    0.2371 C   0  0  0  0  0  0  0  0  0  0  0  0
   -5.5576    2.6938    1.9106 C   0  0  0  0  0  0  0  0  0  0  0  0
   -5.0395   -1.2136    1.0145 C   0  0  0  0  0  0  0  0  0  0  0  0
   -4.2682    2.6541   -2.2483 C   0  0  0  0  0  0  0  0  0  0  0  0
   -4.0716   -1.6766   -2.1171 C   0  0  0  0  0  0  0  0  0  0  0  0
   -7.3370    0.4504   -0.1757 C   0  0  0  0  0  0  0  0  0  0  0  0
   -0.7364    0.6192   -1.2322 C   0  0  1  0  0  0  0  0  0  0  0  0
   -6.3889    3.7890    1.1398 C   0  0  1  0  0  0  0  0  0  0  0  0
   -6.0289   -2.3732    1.1319 C   0  0  1  0  0  0  0  0  0  0  0  0
   -3.3829    3.7372   -1.6604 C   0  0  3  0  0  0  0  0  0  0  0  0
   -3.1307   -2.7754   -1.6700 C   0  0  3  0  0  0  0  0  0  0  0  0
   -8.4917    0.5559    0.6923 C   0  0  3  0  0  0  0  0  0  0  0  0
   -1.7982    3.2026   -1.3118 C   0  0  0  0  0  0  0  0  0  0  0  0
   -3.9533   -3.8292   -0.4125 C   0  0  0  0  0  0  0  0  0  0  0  0
   -8.4262    2.0547    1.3933 C   0  0  0  0  0  0  0  0  0  0  0  0
   -1.0758   -0.9850   -1.9347 C   0  0  0  0  0  0  0  0  0  0  0  0
   -5.4600    4.4850   -0.1838 C   0  0  0  0  0  0  0  0  0  0  0  0
   -7.7624   -1.9725    1.1376 C   0  0  0  0  0  0  0  0  0  0  0  0
   -1.2831    2.0164   -1.9644 N   0  0  0  0  0  0  0  0  0  0  0  0
   -5.4281   -3.4897   -0.0762 N   0  0  0  0  0  0  0  0  0  0  0  0
   -7.8281    3.1750    0.7491 N   0  0  0  0  0  0  0  0  0  0  0  0
   -1.1590    3.7519   -0.4000 O   0  0  0  0  0  0  0  0  0  0  0  0
   -3.2496   -4.3923    0.4437 O   0  0  0  0  0  0  0  0  0  0  0  0
   -8.8736    2.2021    2.5783 O   0  0  0  0  0  0  0  0  0  0  0  0
   -0.9302   -1.1711   -3.1752 O   0  0  0  0  0  0  0  0  0  0  0  0
   -6.0180    5.2433   -1.0549 O   0  0  0  0  0  0  0  0  0  0  0  0
   -8.5665   -2.7277    0.5905 O   0  0  0  0  0  0  0  0  0  0  0  0
   -1.8215   -1.9264   -1.1659 O   0  0  0  0  0  0  0  0  0  0  0  0
   -4.1315    4.1150   -0.3354 O   0  0  0  0  0  0  0  0  0  0  0  0
   -8.2008   -0.6982    1.5930 O   0  0  0  0  0  0  0  0  0  0  0  0
    0.3585    0.6724   -1.2698 H   0  0  0  0  0  0  0  0  0  0  0  0
   -6.5676    4.6307    1.8147 H   0  0  0  0  0  0  0  0  0  0  0  0
   -5.8321   -2.8065    2.1161 H   0  0  0  0  0  0  0  0  0  0  0  0
   -3.3030    4.5797   -2.3495 H   0  0  0  0  0  0  0  0  0  0  0  0
   -2.8122   -3.3734   -2.5167 H   0  0  0  0  0  0  0  0  0  0  0  0
   -9.3861    0.4502    0.0672 H   0  0  0  0  0  0  0  0  0  0  0  0
    0.0061    2.2203    1.0716 H   0  0  0  0  0  0  0  0  0  0  0  0
    0.6041    0.5516    1.4125 H   0  0  0  0  0  0  0  0  0  0  0  0
   -0.7920    1.1984    2.2667 H   0  0  0  0  0  0  0  0  0  0  0  0
   -2.6001    2.3840    0.4680 H   0  0  0  0  0  0  0  0  0  0  0  0
   -3.2142    0.9151   -0.2202 H   0  0  0  0  0  0  0  0  0  0  0  0
   -2.6270    1.1544    1.5102 H   0  0  0  0  0  0  0  0  0  0  0  0
   -4.5440    3.6117    3.5375 H   0  0  0  0  0  0  0  0  0  0  0  0
   -3.5511    2.4580    2.6640 H   0  0  0  0  0  0  0  0  0  0  0  0
   -3.8299    4.0286    1.9518 H   0  0  0  0  0  0  0  0  0  0  0  0
   -6.7584    0.7714    2.6379 H   0  0  0  0  0  0  0  0  0  0  0  0
   -5.4343    1.1802    3.6609 H   0  0  0  0  0  0  0  0  0  0  0  0
   -6.9785    1.9887    3.7453 H   0  0  0  0  0  0  0  0  0  0  0  0
   -4.2760   -0.3628    2.8820 H   0  0  0  0  0  0  0  0  0  0  0  0
   -4.0699    0.4736    1.3847 H   0  0  0  0  0  0  0  0  0  0  0  0
   -5.4412    0.5230    1.7344 H   0  0  0  0  0  0  0  0  0  0  0  0
   -3.8050   -2.1358    0.1199 H   0  0  0  0  0  0  0  0  0  0  0  0
   -2.9521   -0.9697    0.5686 H   0  0  0  0  0  0  0  0  0  0  0  0
   -3.3082   -2.2910    1.7735 H   0  0  0  0  0  0  0  0  0  0  0  0
   -5.5868    3.5111   -3.7432 H   0  0  0  0  0  0  0  0  0  0  0  0
   -6.1299    2.0207   -3.0752 H   0  0  0  0  0  0  0  0  0  0  0  0
   -6.2974    3.4758   -2.1485 H   0  0  0  0  0  0  0  0  0  0  0  0
   -2.9373    1.4139   -3.2347 H   0  0  0  0  0  0  0  0  0  0  0  0
   -4.5774    1.1428   -3.7491 H   0  0  0  0  0  0  0  0  0  0  0  0
   -3.7283    2.4514   -4.3968 H   0  0  0  0  0  0  0  0  0  0  0  0
   -3.2943   -0.4549   -3.6200 H   0  0  0  0  0  0  0  0  0  0  0  0
   -4.3032    0.2433   -2.2306 H   0  0  0  0  0  0  0  0  0  0  0  0
   -2.7849    0.0122   -1.9331 H   0  0  0  0  0  0  0  0  0  0  0  0
   -5.9908   -2.2759   -2.1904 H   0  0  0  0  0  0  0  0  0  0  0  0
   -5.7950   -0.7729   -3.0467 H   0  0  0  0  0  0  0  0  0  0  0  0
   -5.4359   -2.2444   -3.8308 H   0  0  0  0  0  0  0  0  0  0  0  0
   -7.9576   -0.7931   -1.9194 H   0  0  0  0  0  0  0  0  0  0  0  0
   -6.2785   -0.5783   -1.3995 H   0  0  0  0  0  0  0  0  0  0  0  0
   -7.1295   -1.6741   -0.6962 H   0  0  0  0  0  0  0  0  0  0  0  0
   -6.3823    2.3338   -0.4493 H   0  0  0  0  0  0  0  0  0  0  0  0
   -5.8534    1.1211   -1.3224 H   0  0  0  0  0  0  0  0  0  0  0  0
   -7.4966    1.7825   -1.7442 H   0  0  0  0  0  0  0  0  0  0  0  0
   -1.8166    2.6818   -3.8915 H   0  0  0  0  0  0  0  0  0  0  0  0
   -0.2496    3.0426   -3.5255 H   0  0  0  0  0  0  0  0  0  0  0  0
   -0.7252    1.2995   -3.8727 H   0  0  0  0  0  0  0  0  0  0  0  0
   -7.0484   -4.8042   -0.4011 H   0  0  0  0  0  0  0  0  0  0  0  0
   -6.9657   -3.5314   -1.5573 H   0  0  0  0  0  0  0  0  0  0  0  0
   -5.7549   -4.7914   -1.6575 H   0  0  0  0  0  0  0  0  0  0  0  0
   -8.7207    4.8334   -0.2171 H   0  0  0  0  0  0  0  0  0  0  0  0
   -8.0928    3.6426   -1.3310 H   0  0  0  0  0  0  0  0  0  0  0  0
   -9.5490    3.2534   -0.4625 H   0  0  0  0  0  0  0  0  0  0  0  0
   -1.2674   -0.4118    0.5566 H   0  0  0  0  0  0  0  0  0  0  0  0
   -5.1233    2.1634    1.0521 H   0  0  0  0  0  0  0  0  0  0  0  0
   -5.2181   -0.6584    0.1067 H   0  0  0  0  0  0  0  0  0  0  0  0
   -4.3298    2.0112   -1.3663 H   0  0  0  0  0  0  0  0  0  0  0  0
   -4.3371   -1.2278   -1.1993 H   0  0  0  0  0  0  0  0  0  0  0  0
   -6.5930    0.3957    0.5597 H   0  0  0  0  0  0  0  0  0  0  0  0
  1 52  1  0  0  0  0
  1 53  1  0  0  0  0
  1 54  1  0  0  0  0
  2 55  1  0  0  0  0
  2 56  1  0  0  0  0
  2 57  1  0  0  0  0
  3 58  1  0  0  0  0
  3 59  1  0  0  0  0
  3 60  1  0  0  0  0
  4 61  1  0  0  0  0
  4 62  1  0  0  0  0
  4 63  1  0  0  0  0
  5 64  1  0  0  0  0
  5 65  1  0  0  0  0
  5 66  1  0  0  0  0
  6 67  1  0  0  0  0
  6 68  1  0  0  0  0
  6 69  1  0  0  0  0
  7 70  1  0  0  0  0
  7 71  1  0  0  0  0
  7 72  1  0  0  0  0
  8 73  1  0  0  0  0
  8 74  1  0  0  0  0
  8 75  1  0  0  0  0
  9 76  1  0  0  0  0
  9 77  1  0  0  0  0
  9 78  1  0  0  0  0
 10 79  1  0  0  0  0
 10 80  1  0  0  0  0
 10 81  1  0  0  0  0
 11 82  1  0  0  0  0
 11 83  1  0  0  0  0
 11 84  1  0  0  0  0
 12 85  1  0  0  0  0
 12 86  1  0  0  0  0
 12 87  1  0  0  0  0
 13 88  1  0  0  0  0
 13 89  1  0  0  0  0
 13 90  1  0  0  0  0
 14 91  1  0  0  0  0
 14 92  1  0  0  0  0
 14 93  1  0  0  0  0
 15 94  1  0  0  0  0
 15 95  1  0  0  0  0
 15 96  1  0  0  0  0
 16  1  1  0  0  0  0
 16  2  1  0  0  0  0
 16 97  1  0  0  0  0
 17  3  1  0  0  0  0
 17  4  1  0  0  0  0
 17 98  1  0  0  0  0
 18  5  1  0  0  0  0
 18  6  1  0  0  0  0
 18 99  1  0  0  0  0
 19  7  1  0  0  0  0
 19  8  1  0  0  0  0
 19100  1  0  0  0  0
 20  9  1  0  0  0  0
 20 10  1  0  0  0  0
 20101  1  0  0  0  0
 21 11  1  0  0  0  0
 21 12  1  0  0  0  0
 21102  1  0  0  0  0
 22 46  1  1  0  0  0
 22 16  1  0  0  0  0
 23 47  1  1  0  0  0
 23 17  1  0  0  0  0
 24 48  1  1  0  0  0
 24 18  1  0  0  0  0
 25 19  1  0  0  0  0
 26 20  1  0  0  0  0
 27 21  1  0  0  0  0
 28 25  1  0  0  0  0
 29 26  1  0  0  0  0
 30 27  1  0  0  0  0
 31 22  1  0  0  0  0
 32 23  1  0  0  0  0
 33 24  1  0  0  0  0
 34 13  1  0  0  0  0
 34 22  1  0  0  0  0
 34 28  1  0  0  0  0
 35 14  1  0  0  0  0
 35 24  1  0  0  0  0
 35 29  1  0  0  0  0
 36 15  1  0  0  0  0
 36 23  1  0  0  0  0
 36 30  1  0  0  0  0
 37 28  2  0  0  0  0
 38 29  2  0  0  0  0
 39 30  2  0  0  0  0
 40 31  2  0  0  0  0
 41 32  2  0  0  0  0
 42 33  2  0  0  0  0
 43 26  1  0  0  0  0
 43 31  1  0  0  0  0
 44 25  1  0  0  0  0
 44 32  1  0  0  0  0
 45 27  1  0  0  0  0
 45 33  1  0  0  0  0
 49 25  1  0  0  0  0
 50 26  1  0  0  0  0
 51 27  1  0  0  0  0
M  END
>  <DRUGBANK_ID>
DB08965

>  <COMMON_NAME>
Fusafungine

>  <CAS_NUMBER>
1393-87-9

>  <UNII>
65DD690W0C

>  <SYNONYMS>
Fusafungina; Fusafungine

$$$$
