
 OpenBabel10282417213D

 37 41  0  0  0  0  0  0  0  0999 V2000
    0.1061   -0.0448    0.5110 C   0  0  0  0  0  0  0  0  0  0  0  0
    2.4020   -0.5163    0.6648 C   0  0  0  0  0  0  0  0  0  0  0  0
    1.3759   -0.2950   -0.2405 C   0  0  0  0  0  0  0  0  0  0  0  0
   -0.9212   -1.1168    0.2663 C   0  0  0  0  0  0  0  0  0  0  0  0
   -0.3981    1.3589    0.3018 C   0  0  0  0  0  0  0  0  0  0  0  0
    1.8364   -0.4907    2.0156 C   0  0  0  0  0  0  0  0  0  0  0  0
   -1.6681    1.5800   -0.2379 C   0  0  0  0  0  0  0  0  0  0  0  0
   -2.1776   -0.7813   -0.2463 C   0  0  0  0  0  0  0  0  0  0  0  0
    0.5214   -0.1586    1.8911 O   0  0  0  0  0  0  0  0  0  0  0  0
    3.7086   -0.7204    0.2518 C   0  0  0  0  0  0  0  0  0  0  0  0
   -2.5287    0.5318   -0.5251 O   0  0  0  0  0  0  0  0  0  0  0  0
    1.6099   -0.3100   -1.6114 C   0  0  0  0  0  0  0  0  0  0  0  0
    3.9670   -0.7293   -1.1336 C   0  0  0  0  0  0  0  0  0  0  0  0
    2.9168   -0.5397   -2.0653 C   0  0  0  0  0  0  0  0  0  0  0  0
   -3.0985   -1.8225   -0.5117 C   0  0  0  0  0  0  0  0  0  0  0  0
   -2.0650    2.9120   -0.5125 C   0  0  0  0  0  0  0  0  0  0  0  0
   -1.2062    3.9993   -0.2286 C   0  0  0  0  0  0  0  0  0  0  0  0
   -2.7589   -3.1737   -0.2669 C   0  0  0  0  0  0  0  0  0  0  0  0
   -0.5944   -2.4727    0.5053 C   0  0  0  0  0  0  0  0  0  0  0  0
    0.4479    2.4563    0.5817 C   0  0  0  0  0  0  0  0  0  0  0  0
   -1.5013   -3.4913    0.2402 C   0  0  0  0  0  0  0  0  0  0  0  0
    0.0509    3.7623    0.3205 C   0  0  0  0  0  0  0  0  0  0  0  0
    2.3936   -0.7471    3.0624 O   0  0  0  0  0  0  0  0  0  0  0  0
    1.4075    5.2922    0.7713 I   0  0  0  0  0  0  0  0  0  0  0  0
   -0.9020   -5.4576    0.6186 I   0  0  0  0  0  0  0  0  0  0  0  0
   -1.5560    5.3038   -0.4691 O   0  0  0  0  0  0  0  0  0  0  0  0
   -3.6643   -4.1715   -0.5288 O   0  0  0  0  0  0  0  0  0  0  0  0
    4.9702   -0.9296    1.4108 Cl  0  0  0  0  0  0  0  0  0  0  0  0
    0.3003   -0.0481   -2.7107 Cl  0  0  0  0  0  0  0  0  0  0  0  0
    5.5919   -0.9701   -1.7064 Cl  0  0  0  0  0  0  0  0  0  0  0  0
    3.2305   -0.5929   -3.7751 Cl  0  0  0  0  0  0  0  0  0  0  0  0
   -5.0106   -1.3756   -1.2894 I   0  0  0  0  0  0  0  0  0  0  0  0
   -3.9429    3.3162   -1.3802 I   0  0  0  0  0  0  0  0  0  0  0  0
    0.3873   -2.7328    0.8976 H   0  0  0  0  0  0  0  0  0  0  0  0
    1.4375    2.2854    1.0011 H   0  0  0  0  0  0  0  0  0  0  0  0
   -2.4595    5.3393   -0.8261 H   0  0  0  0  0  0  0  0  0  0  0  0
   -3.2681   -5.0302   -0.2898 H   0  0  0  0  0  0  0  0  0  0  0  0
  2  3  2  0  0  0  0
  3  1  1  0  0  0  0
  4  1  1  0  0  0  0
  5  1  1  0  0  0  0
  6  9  1  0  0  0  0
  6  2  1  0  0  0  0
  7  5  2  0  0  0  0
  8  4  1  0  0  0  0
  9  1  1  0  0  0  0
 10  2  1  0  0  0  0
 11  7  1  0  0  0  0
 11  8  1  0  0  0  0
 12  3  1  0  0  0  0
 13 14  1  0  0  0  0
 13 10  2  0  0  0  0
 14 12  2  0  0  0  0
 15  8  2  0  0  0  0
 16  7  1  0  0  0  0
 16 17  2  0  0  0  0
 17 22  1  0  0  0  0
 18 21  2  0  0  0  0
 18 15  1  0  0  0  0
 19  4  2  0  0  0  0
 19 34  1  0  0  0  0
 20  5  1  0  0  0  0
 20 35  1  0  0  0  0
 21 19  1  0  0  0  0
 22 20  2  0  0  0  0
 23  6  2  0  0  0  0
 24 22  1  0  0  0  0
 25 21  1  0  0  0  0
 26 17  1  0  0  0  0
 26 36  1  0  0  0  0
 27 18  1  0  0  0  0
 27 37  1  0  0  0  0
 28 10  1  0  0  0  0
 29 12  1  0  0  0  0
 30 13  1  0  0  0  0
 31 14  1  0  0  0  0
 32 15  1  0  0  0  0
 33 16  1  0  0  0  0
M  END
>  <DRUGBANK_ID>
DB14214

>  <COMMON_NAME>
Rose bengal lactone

>  <CAS_NUMBER>
4159-77-7

>  <UNII>
BIU7Q7W2SH

>  <SYNONYMS>
Solvent Red 141

$$$$
