
 OpenBabel10282417193D

 26 27  0  0  0  0  0  0  0  0999 V2000
   -0.7688    1.2194    0.0012 C   0  0  0  0  0  0  0  0  0  0  0  0
    0.4110    5.5127   -0.3124 C   0  0  0  0  0  0  0  0  0  0  0  0
    2.3278    2.4045   -1.2687 C   0  0  0  0  0  0  0  0  0  0  0  0
   -1.4374    0.0477   -0.0025 C   0  0  0  0  0  0  0  0  0  0  0  0
    1.5408    2.3649    0.0372 C   0  0  3  0  0  0  0  0  0  0  0  0
    1.7054    4.7214   -0.3177 C   0  0  3  0  0  0  0  0  0  0  0  0
   -0.6703   -1.2326    0.0075 C   0  0  0  0  0  0  0  0  0  0  0  0
    1.2362   -0.0182    0.0296 C   0  0  0  0  0  0  0  0  0  0  0  0
   -2.7761   -0.0394   -0.0151 F   0  0  0  0  0  0  0  0  0  0  0  0
   -1.2163   -2.4092    0.0054 N   0  0  0  0  0  0  0  0  0  0  0  0
    0.6922   -1.2003    0.0170 N   0  0  0  0  0  0  0  0  0  0  0  0
    0.6072    1.2240    0.0275 N   0  0  0  0  0  0  0  0  0  0  0  0
    0.1602    6.0016    1.0164 O   0  0  0  0  0  0  0  0  0  0  0  0
    2.5817   -0.0034    0.0398 O   0  0  0  0  0  0  0  0  0  0  0  0
    1.3324    3.6653    0.5959 O   0  0  0  0  0  0  0  0  0  0  0  0
    2.1475    4.0599   -1.9249 S   0  0  0  0  0  0  0  0  0  0  0  0
   -1.2719    2.1725   -0.0052 H   0  0  0  0  0  0  0  0  0  0  0  0
    0.4196    6.3533   -1.0017 H   0  0  0  0  0  0  0  0  0  0  0  0
   -0.4150    4.8318   -0.5483 H   0  0  0  0  0  0  0  0  0  0  0  0
    3.3730    2.1845   -1.0499 H   0  0  0  0  0  0  0  0  0  0  0  0
    1.9657    1.6911   -2.0215 H   0  0  0  0  0  0  0  0  0  0  0  0
    2.0680    2.0265    0.9147 H   0  0  0  0  0  0  0  0  0  0  0  0
    2.5424    5.3410    0.0560 H   0  0  0  0  0  0  0  0  0  0  0  0
   -2.2331   -2.3022    0.0001 H   0  0  0  0  0  0  0  0  0  0  0  0
    0.2631    5.2324    1.6150 H   0  0  0  0  0  0  0  0  0  0  0  0
    2.9109   -0.9175    0.0263 H   0  0  0  0  0  0  0  0  0  0  0  0
  1 17  1  0  0  0  0
  2 18  1  0  0  0  0
  2 19  1  0  0  0  0
  3 20  1  0  0  0  0
  3 21  1  0  0  0  0
  4  1  2  0  0  0  0
  5  3  1  0  0  0  0
  5 22  1  0  0  0  0
  6  2  1  0  0  0  0
  6 23  1  0  0  0  0
  7  4  1  0  0  0  0
  9  4  1  0  0  0  0
 10  7  2  0  0  0  0
 10 24  1  0  0  0  0
 11  7  1  0  0  0  0
 11  8  2  0  0  0  0
 12  1  1  0  0  0  0
 12  5  1  0  0  0  0
 12  8  1  0  0  0  0
 13  2  1  0  0  0  0
 13 25  1  0  0  0  0
 14  8  1  0  0  0  0
 14 26  1  0  0  0  0
 15  5  1  0  0  0  0
 15  6  1  0  0  0  0
 16  3  1  0  0  0  0
 16  6  1  0  0  0  0
M  END
>  <DRUGBANK_ID>
DB12753

>  <COMMON_NAME>
Racivir

>  <CAS_NUMBER>
143491-54-7

>  <SYNONYMS>
(+/-)-Emtricitabine; Emtricitabine, (+/-)-; RCV

$$$$
