
 OpenBabel10282417193D

 42 44  0  0  0  0  0  0  0  0999 V2000
    1.1255   -0.0847    0.4590 C   0  0  0  0  0  0  0  0  0  0  0  0
    0.2842   -1.1956    0.5639 C   0  0  0  0  0  0  0  0  0  0  0  0
   -1.0706   -1.0090    0.6878 C   0  0  0  0  0  0  0  0  0  0  0  0
   -1.5744    0.3104    0.7510 C   0  0  0  0  0  0  0  0  0  0  0  0
   -0.7159    1.4117    0.6167 C   0  0  0  0  0  0  0  0  0  0  0  0
    0.6212    1.2276    0.3770 C   0  0  0  0  0  0  0  0  0  0  0  0
    1.4656    2.3838   -0.1063 C   0  0  0  0  0  0  0  0  0  0  0  0
    1.2665    2.8013   -1.4619 O   0  0  0  0  0  0  0  0  0  0  0  0
    1.6038    1.9062   -2.5412 C   0  0  3  0  0  0  0  0  0  0  0  0
    3.1528    1.5371   -2.6307 C   0  0  0  0  0  0  0  0  0  0  0  0
    3.7945    0.7907   -1.5480 N   0  0  0  0  0  0  0  0  0  0  0  0
    4.4464    1.3489   -0.4673 C   0  0  0  0  0  0  0  0  0  0  0  0
    4.4937    0.3387    0.4675 C   0  0  0  0  0  0  0  0  0  0  0  0
    4.2503   -0.8643   -0.1328 N   0  0  0  0  0  0  0  0  0  0  0  0
    3.8478   -0.5646   -1.3513 C   0  0  0  0  0  0  0  0  0  0  0  0
    0.5975    0.7657   -2.7089 C   0  0  0  0  0  0  0  0  0  0  0  0
    1.0931   -0.5089   -3.0002 C   0  0  0  0  0  0  0  0  0  0  0  0
    0.3392   -1.6553   -2.8339 C   0  0  0  0  0  0  0  0  0  0  0  0
   -1.0129   -1.5428   -2.5969 C   0  0  0  0  0  0  0  0  0  0  0  0
   -1.5895   -0.2848   -2.4205 C   0  0  0  0  0  0  0  0  0  0  0  0
   -0.7940    0.8733   -2.5131 C   0  0  0  0  0  0  0  0  0  0  0  0
   -1.6068    2.3998   -2.3788 Cl  0  0  0  0  0  0  0  0  0  0  0  0
   -1.9299   -2.9954   -2.6193 Cl  0  0  0  0  0  0  0  0  0  0  0  0
   -2.0311   -2.1707    0.6582 C   0  0  0  0  0  0  0  0  0  0  0  0
   -2.6755   -2.3501    1.8378 F   0  0  0  0  0  0  0  0  0  0  0  0
   -3.0155   -1.9974   -0.2657 F   0  0  0  0  0  0  0  0  0  0  0  0
   -1.4317   -3.3608    0.3673 F   0  0  0  0  0  0  0  0  0  0  0  0
    2.1571   -0.2933    0.3786 H   0  0  0  0  0  0  0  0  0  0  0  0
    0.7316   -2.1900    0.4443 H   0  0  0  0  0  0  0  0  0  0  0  0
   -2.6386    0.4826    0.7666 H   0  0  0  0  0  0  0  0  0  0  0  0
   -1.1352    2.4189    0.5647 H   0  0  0  0  0  0  0  0  0  0  0  0
    1.2891    3.2562    0.5330 H   0  0  0  0  0  0  0  0  0  0  0  0
    2.5011    2.1955    0.0519 H   0  0  0  0  0  0  0  0  0  0  0  0
    1.4328    2.5177   -3.4438 H   0  0  0  0  0  0  0  0  0  0  0  0
    3.3439    0.9675   -3.5489 H   0  0  0  0  0  0  0  0  0  0  0  0
    3.7261    2.4657   -2.7336 H   0  0  0  0  0  0  0  0  0  0  0  0
    4.5652    2.4186   -0.3601 H   0  0  0  0  0  0  0  0  0  0  0  0
    4.5949    0.4229    1.5445 H   0  0  0  0  0  0  0  0  0  0  0  0
    3.4867   -1.3111   -2.0419 H   0  0  0  0  0  0  0  0  0  0  0  0
    2.1048   -0.6574   -3.3397 H   0  0  0  0  0  0  0  0  0  0  0  0
    0.8281   -2.6241   -2.8723 H   0  0  0  0  0  0  0  0  0  0  0  0
   -2.6328   -0.2048   -2.1200 H   0  0  0  0  0  0  0  0  0  0  0  0
  1  2  2  0  0  0  0
  1  6  1  0  0  0  0
  1 28  1  0  0  0  0
  2  3  1  0  0  0  0
  2 29  1  0  0  0  0
  3  4  2  0  0  0  0
  3 24  1  0  0  0  0
  4  5  1  0  0  0  0
  4 30  1  0  0  0  0
  5  6  2  0  0  0  0
  5 31  1  0  0  0  0
  6  7  1  0  0  0  0
  7  8  1  0  0  0  0
  7 32  1  0  0  0  0
  7 33  1  0  0  0  0
  8  9  1  0  0  0  0
  9 10  1  0  0  0  0
  9 16  1  0  0  0  0
  9 34  1  0  0  0  0
 10 11  1  0  0  0  0
 10 35  1  0  0  0  0
 10 36  1  0  0  0  0
 11 12  1  0  0  0  0
 11 15  1  0  0  0  0
 12 13  2  0  0  0  0
 12 37  1  0  0  0  0
 13 14  1  0  0  0  0
 13 38  1  0  0  0  0
 14 15  2  0  0  0  0
 15 39  1  0  0  0  0
 16 17  2  0  0  0  0
 16 21  1  0  0  0  0
 17 18  1  0  0  0  0
 17 40  1  0  0  0  0
 18 19  2  0  0  0  0
 18 41  1  0  0  0  0
 19 20  1  0  0  0  0
 19 23  1  0  0  0  0
 20 21  2  0  0  0  0
 20 42  1  0  0  0  0
 21 22  1  0  0  0  0
 24 25  1  0  0  0  0
 24 26  1  0  0  0  0
 24 27  1  0  0  0  0
M  END
>  <DRUGBANK_ID>
DB11985

>  <COMMON_NAME>
Dapaconazole

>  <CAS_NUMBER>
1269726-67-1

>  <UNII>
H2976538CX

>  <SYNONYMS>
Dapaconazole

$$$$
