
 OpenBabel10282417213D

131130  0  0  0  0  0  0  0  0999 V2000
   -4.7651   14.8549    4.5061 C   0  0  0  0  0  0  0  0  0  0  0  0
   -4.0947   13.8995    5.4652 C   0  0  0  0  0  0  0  0  0  0  0  0
   -4.5705   14.1289    6.8696 C   0  0  0  0  0  0  0  0  0  0  0  0
   -5.2281   13.2101    7.5825 C   0  0  0  0  0  0  0  0  0  0  0  0
   -5.5625   11.8743    7.0334 C   0  0  0  0  0  0  0  0  0  0  0  0
   -4.9806   10.7869    7.8667 C   0  0  0  0  0  0  0  0  0  0  0  0
   -5.7464    9.8234    8.3701 C   0  0  0  0  0  0  0  0  0  0  0  0
   -7.2016    9.8453    8.1255 C   0  0  0  0  0  0  0  0  0  0  0  0
   -7.6400    8.5982    7.4536 C   0  0  0  0  0  0  0  0  0  0  0  0
   -8.5405    7.8305    8.0503 C   0  0  0  0  0  0  0  0  0  0  0  0
   -8.9214    8.1673    9.4301 C   0  0  0  0  0  0  0  0  0  0  0  0
  -10.2833    8.6350    9.6530 C   0  0  0  0  0  0  0  0  0  0  0  0
  -10.6918    8.4293   10.9295 C   0  0  0  0  0  0  0  0  0  0  0  0
   -9.9068    7.4011   12.0377 C   0  0  0  0  0  0  0  0  0  0  0  0
  -10.7846    7.0875   13.3223 C   0  0  0  0  0  0  0  0  0  0  0  0
  -11.3374    6.0062   14.0174 C   0  0  0  0  0  0  0  0  0  0  0  0
  -11.5661    4.3959   13.8366 C   0  0  0  0  0  0  0  0  0  0  0  0
  -11.2585    3.0653   14.4432 C   0  0  0  0  0  0  0  0  0  0  0  0
  -12.1952    3.0820   15.5940 C   0  0  0  0  0  0  0  0  0  0  0  0
  -13.7083    2.9020   15.2693 C   0  0  0  0  0  0  0  0  0  0  0  0
  -14.1831    1.6792   14.4463 C   0  0  0  0  0  0  0  0  0  0  0  0
  -14.8571    0.8332   15.0346 O   0  0  0  0  0  0  0  0  0  0  0  0
  -13.9561    1.4748   13.1150 O   0  0  0  0  0  0  0  0  0  0  0  0
  -13.4289    2.3701   12.1005 C   0  0  2  0  0  0  0  0  0  0  0  0
  -12.3504    2.3082   12.1551 H   0  0  0  0  0  0  0  0  0  0  0  0
  -13.9565    3.7819   12.3777 C   0  0  0  0  0  0  0  0  0  0  0  0
  -12.9343    5.0606   12.0154 O   0  0  0  0  0  0  0  0  0  0  0  0
  -11.5696    5.2160   11.4818 C   0  0  0  0  0  0  0  0  0  0  0  0
  -10.5036    4.6488   11.7557 O   0  0  0  0  0  0  0  0  0  0  0  0
  -11.4537    6.0741   10.3462 C   0  0  0  0  0  0  0  0  0  0  0  0
  -11.3477    5.8179    8.9136 C   0  0  0  0  0  0  0  0  0  0  0  0
  -12.6379    6.2958    8.4669 C   0  0  0  0  0  0  0  0  0  0  0  0
  -13.3616    7.5218    9.0519 C   0  0  0  0  0  0  0  0  0  0  0  0
  -14.1098    8.2321    8.3244 C   0  0  0  0  0  0  0  0  0  0  0  0
  -14.2200    7.6981    6.9706 C   0  0  0  0  0  0  0  0  0  0  0  0
  -15.6166    7.4844    6.6383 C   0  0  0  0  0  0  0  0  0  0  0  0
  -16.0849    8.1323    5.5916 C   0  0  0  0  0  0  0  0  0  0  0  0
  -15.1622    9.0158    4.8518 C   0  0  0  0  0  0  0  0  0  0  0  0
  -15.0715    8.5729    3.4510 C   0  0  0  0  0  0  0  0  0  0  0  0
  -15.4063    9.4104    2.4771 C   0  0  0  0  0  0  0  0  0  0  0  0
  -15.8902   10.7801    2.7861 C   0  0  0  0  0  0  0  0  0  0  0  0
  -15.0555   11.8051    2.1166 C   0  0  0  0  0  0  0  0  0  0  0  0
  -15.5905   12.6967    1.2828 C   0  0  0  0  0  0  0  0  0  0  0  0
  -17.0404   12.6875    0.9432 C   0  0  0  0  0  0  0  0  0  0  0  0
  -17.6761   13.9995    1.2302 C   0  0  0  0  0  0  0  0  0  0  0  0
  -18.3076   14.7155    0.2937 C   0  0  0  0  0  0  0  0  0  0  0  0
  -18.4234   14.2871   -1.1399 C   0  0  0  0  0  0  0  0  0  0  0  0
  -19.8686   14.0733   -1.5264 C   0  0  0  0  0  0  0  0  0  0  0  0
  -13.6306    1.8191   10.6234 C   0  0  0  0  0  0  0  0  0  0  0  0
  -13.4411    2.7302    9.5486 O   0  0  0  0  0  0  0  0  0  0  0  0
  -14.3440    4.0899    9.4783 P   0  0  3  0  0  0  0  0  0  0  0  0
  -15.5661    3.2786    9.7189 O   0  0  0  0  0  0  0  0  0  0  0  0
  -12.8516    4.1404   10.0430 O   0  0  0  0  0  0  0  0  0  0  0  0
  -14.4581    5.4312   10.5074 O   0  0  0  0  0  0  0  0  0  0  0  0
  -15.4572    6.0522   11.3744 C   0  0  0  0  0  0  0  0  0  0  0  0
  -16.7322    5.5486   10.8333 C   0  0  1  0  0  0  0  0  0  0  0  0
  -16.5846    4.5095   10.6686 H   0  0  0  0  0  0  0  0  0  0  0  0
  -17.8400    5.3814   11.7670 C   0  0  0  0  0  0  0  0  0  0  0  0
  -19.0629    5.5943   11.5190 O   0  0  0  0  0  0  0  0  0  0  0  0
  -17.4667    4.7022   12.8676 O   0  0  0  0  0  0  0  0  0  0  0  0
  -16.9228    6.1689    9.5173 N   0  0  0  0  0  0  0  0  0  0  0  0
   -5.8572   14.7657    4.5553 H   0  0  0  0  0  0  0  0  0  0  0  0
   -4.4557   14.6178    3.4844 H   0  0  0  0  0  0  0  0  0  0  0  0
   -4.4850   15.8852    4.7336 H   0  0  0  0  0  0  0  0  0  0  0  0
   -4.3050   12.8998    5.0850 H   0  0  0  0  0  0  0  0  0  0  0  0
   -3.0069   13.9850    5.4407 H   0  0  0  0  0  0  0  0  0  0  0  0
   -4.3786   15.0965    7.3242 H   0  0  0  0  0  0  0  0  0  0  0  0
   -5.5869   13.4393    8.5867 H   0  0  0  0  0  0  0  0  0  0  0  0
   -6.6445   11.9042    6.9267 H   0  0  0  0  0  0  0  0  0  0  0  0
   -5.2367   11.6535    6.0220 H   0  0  0  0  0  0  0  0  0  0  0  0
   -3.9092   10.7610    8.0300 H   0  0  0  0  0  0  0  0  0  0  0  0
   -5.3295    9.0350    8.9944 H   0  0  0  0  0  0  0  0  0  0  0  0
   -7.5973   10.1338    9.0954 H   0  0  0  0  0  0  0  0  0  0  0  0
   -7.6555   10.6225    7.5238 H   0  0  0  0  0  0  0  0  0  0  0  0
   -7.2511    8.3277    6.4785 H   0  0  0  0  0  0  0  0  0  0  0  0
   -8.8653    6.9003    7.5965 H   0  0  0  0  0  0  0  0  0  0  0  0
   -8.6357    7.2850    9.9814 H   0  0  0  0  0  0  0  0  0  0  0  0
   -8.3972    8.9504    9.9626 H   0  0  0  0  0  0  0  0  0  0  0  0
  -10.8859    9.0744    8.8385 H   0  0  0  0  0  0  0  0  0  0  0  0
  -11.7620    8.6406   10.9966 H   0  0  0  0  0  0  0  0  0  0  0  0
   -9.4938    6.4651   11.6200 H   0  0  0  0  0  0  0  0  0  0  0  0
   -8.8910    7.7625   12.1946 H   0  0  0  0  0  0  0  0  0  0  0  0
  -11.0970    8.0833   13.6560 H   0  0  0  0  0  0  0  0  0  0  0  0
  -12.0943    6.3268   14.7632 H   0  0  0  0  0  0  0  0  0  0  0  0
  -12.6349    4.4692   13.9543 H   0  0  0  0  0  0  0  0  0  0  0  0
  -11.5315    3.8636   12.9083 H   0  0  0  0  0  0  0  0  0  0  0  0
  -11.5356    2.1727   13.8352 H   0  0  0  0  0  0  0  0  0  0  0  0
  -10.1735    2.9956   14.4519 H   0  0  0  0  0  0  0  0  0  0  0  0
  -11.8533    2.3161   16.2642 H   0  0  0  0  0  0  0  0  0  0  0  0
  -12.0764    4.0823   16.0347 H   0  0  0  0  0  0  0  0  0  0  0  0
  -14.1552    2.7913   16.2626 H   0  0  0  0  0  0  0  0  0  0  0  0
  -14.2564    3.8308   15.0396 H   0  0  0  0  0  0  0  0  0  0  0  0
  -14.9712    3.8827   11.9732 H   0  0  0  0  0  0  0  0  0  0  0  0
  -14.2890    3.9873   13.3678 H   0  0  0  0  0  0  0  0  0  0  0  0
  -12.0941    6.8400   10.7159 H   0  0  0  0  0  0  0  0  0  0  0  0
  -10.4104    6.2317   10.3105 H   0  0  0  0  0  0  0  0  0  0  0  0
  -10.6329    6.4353    8.3919 H   0  0  0  0  0  0  0  0  0  0  0  0
  -11.0646    4.7770    8.7257 H   0  0  0  0  0  0  0  0  0  0  0  0
  -12.7736    5.8196    7.5076 H   0  0  0  0  0  0  0  0  0  0  0  0
  -13.2668    5.6632    8.9503 H   0  0  0  0  0  0  0  0  0  0  0  0
  -13.4996    7.7201   10.1345 H   0  0  0  0  0  0  0  0  0  0  0  0
  -14.6642    9.1094    8.6985 H   0  0  0  0  0  0  0  0  0  0  0  0
  -13.4707    8.2681    6.4351 H   0  0  0  0  0  0  0  0  0  0  0  0
  -13.8824    6.7040    6.7340 H   0  0  0  0  0  0  0  0  0  0  0  0
  -16.2320    6.7950    7.1953 H   0  0  0  0  0  0  0  0  0  0  0  0
  -17.1251    8.0250    5.3288 H   0  0  0  0  0  0  0  0  0  0  0  0
  -15.5036   10.0093    5.1141 H   0  0  0  0  0  0  0  0  0  0  0  0
  -14.1156    9.0952    5.1308 H   0  0  0  0  0  0  0  0  0  0  0  0
  -14.7111    7.5689    3.2398 H   0  0  0  0  0  0  0  0  0  0  0  0
  -15.3712    9.0769    1.4471 H   0  0  0  0  0  0  0  0  0  0  0  0
  -16.9488   10.7455    2.5495 H   0  0  0  0  0  0  0  0  0  0  0  0
  -15.9022   11.1015    3.8243 H   0  0  0  0  0  0  0  0  0  0  0  0
  -13.9937   11.8377    2.3519 H   0  0  0  0  0  0  0  0  0  0  0  0
  -14.9525   13.4305    0.7991 H   0  0  0  0  0  0  0  0  0  0  0  0
  -17.0850   12.3405   -0.0851 H   0  0  0  0  0  0  0  0  0  0  0  0
  -17.6615   11.9652    1.4686 H   0  0  0  0  0  0  0  0  0  0  0  0
  -17.6563   14.3444    2.2648 H   0  0  0  0  0  0  0  0  0  0  0  0
  -18.7742   15.6535    0.5837 H   0  0  0  0  0  0  0  0  0  0  0  0
  -17.9341   15.0295   -1.7737 H   0  0  0  0  0  0  0  0  0  0  0  0
  -17.9130   13.3497   -1.3606 H   0  0  0  0  0  0  0  0  0  0  0  0
  -20.4240   15.0116   -1.4706 H   0  0  0  0  0  0  0  0  0  0  0  0
  -19.9166   13.6909   -2.5498 H   0  0  0  0  0  0  0  0  0  0  0  0
  -20.3498   13.3376   -0.8705 H   0  0  0  0  0  0  0  0  0  0  0  0
  -12.9044    1.0268   10.4090 H   0  0  0  0  0  0  0  0  0  0  0  0
  -14.6242    1.4431   10.4625 H   0  0  0  0  0  0  0  0  0  0  0  0
  -12.6216    3.8004   10.9149 H   0  0  0  0  0  0  0  0  0  0  0  0
  -15.2848    5.8335   12.4419 H   0  0  0  0  0  0  0  0  0  0  0  0
  -15.4323    7.1630   11.4006 H   0  0  0  0  0  0  0  0  0  0  0  0
  -18.2927    4.4413   13.3208 H   0  0  0  0  0  0  0  0  0  0  0  0
  -15.9892    6.2465    9.0988 H   0  0  0  0  0  0  0  0  0  0  0  0
  -17.4345    5.5070    8.9386 H   0  0  0  0  0  0  0  0  0  0  0  0
  1  2  1  0  0  0  0
  1 62  1  0  0  0  0
  1 63  1  0  0  0  0
  1 64  1  0  0  0  0
  2  3  1  0  0  0  0
  2 65  1  0  0  0  0
  2 66  1  0  0  0  0
  3  4  2  0  0  0  0
  3 67  1  0  0  0  0
  4  5  1  0  0  0  0
  4 68  1  0  0  0  0
  5  6  1  0  0  0  0
  5 69  1  0  0  0  0
  5 70  1  0  0  0  0
  6  7  2  0  0  0  0
  6 71  1  0  0  0  0
  7  8  1  0  0  0  0
  7 72  1  0  0  0  0
  8  9  1  0  0  0  0
  8 73  1  0  0  0  0
  8 74  1  0  0  0  0
  9 10  2  0  0  0  0
  9 75  1  0  0  0  0
 10 11  1  0  0  0  0
 10 76  1  0  0  0  0
 11 12  1  0  0  0  0
 11 77  1  0  0  0  0
 11 78  1  0  0  0  0
 12 13  2  0  0  0  0
 12 79  1  0  0  0  0
 13 14  1  0  0  0  0
 13 80  1  0  0  0  0
 14 15  1  0  0  0  0
 14 81  1  0  0  0  0
 14 82  1  0  0  0  0
 15 16  2  0  0  0  0
 15 83  1  0  0  0  0
 16 17  1  0  0  0  0
 16 84  1  0  0  0  0
 17 18  1  0  0  0  0
 17 85  1  0  0  0  0
 17 86  1  0  0  0  0
 18 19  1  0  0  0  0
 18 87  1  0  0  0  0
 18 88  1  0  0  0  0
 19 20  1  0  0  0  0
 19 89  1  0  0  0  0
 19 90  1  0  0  0  0
 20 21  1  0  0  0  0
 20 91  1  0  0  0  0
 20 92  1  0  0  0  0
 21 22  2  0  0  0  0
 21 23  1  0  0  0  0
 24 26  1  0  0  0  0
 24 49  1  0  0  0  0
 24 25  1  1  0  0  0
 24 23  1  0  0  0  0
 26 27  1  0  0  0  0
 26 93  1  0  0  0  0
 26 94  1  0  0  0  0
 27 28  1  0  0  0  0
 28 29  2  0  0  0  0
 28 30  1  0  0  0  0
 30 31  1  0  0  0  0
 30 95  1  0  0  0  0
 30 96  1  0  0  0  0
 31 32  1  0  0  0  0
 31 97  1  0  0  0  0
 31 98  1  0  0  0  0
 32 33  1  0  0  0  0
 32 99  1  0  0  0  0
 32100  1  0  0  0  0
 33 34  2  0  0  0  0
 33101  1  0  0  0  0
 34 35  1  0  0  0  0
 34102  1  0  0  0  0
 35 36  1  0  0  0  0
 35103  1  0  0  0  0
 35104  1  0  0  0  0
 36 37  2  0  0  0  0
 36105  1  0  0  0  0
 37 38  1  0  0  0  0
 37106  1  0  0  0  0
 38 39  1  0  0  0  0
 38107  1  0  0  0  0
 38108  1  0  0  0  0
 39 40  2  0  0  0  0
 39109  1  0  0  0  0
 40 41  1  0  0  0  0
 40110  1  0  0  0  0
 41 42  1  0  0  0  0
 41111  1  0  0  0  0
 41112  1  0  0  0  0
 42 43  2  0  0  0  0
 42113  1  0  0  0  0
 43 44  1  0  0  0  0
 43114  1  0  0  0  0
 44 45  1  0  0  0  0
 44115  1  0  0  0  0
 44116  1  0  0  0  0
 45 46  2  0  0  0  0
 45117  1  0  0  0  0
 46 47  1  0  0  0  0
 46118  1  0  0  0  0
 47 48  1  0  0  0  0
 47119  1  0  0  0  0
 47120  1  0  0  0  0
 48121  1  0  0  0  0
 48122  1  0  0  0  0
 48123  1  0  0  0  0
 49 50  1  0  0  0  0
 49124  1  0  0  0  0
 49125  1  0  0  0  0
 50 51  1  0  0  0  0
 51 52  2  0  0  0  0
 51 53  1  0  0  0  0
 51 54  1  0  0  0  0
 53126  1  0  0  0  0
 54 55  1  0  0  0  0
 55 56  1  0  0  0  0
 55127  1  0  0  0  0
 55128  1  0  0  0  0
 56 57  1  6  0  0  0
 56 58  1  0  0  0  0
 56 61  1  0  0  0  0
 58 59  2  0  0  0  0
 58 60  1  0  0  0  0
 60129  1  0  0  0  0
 61130  1  0  0  0  0
 61131  1  0  0  0  0
M  END
>  <DRUGBANK_ID>
DB14096

>  <COMMON_NAME>
1,2-icosapentoyl-sn-glycero-3-phosphoserine

>  <UNII>
C3019D8IIA

$$$$
