I06
 OpenBabel10282417133D

 34 36  0  0  0  0  0  0  0  0999 V2000
   -2.4453   -0.6645   -0.0717 C   0  0  0  0  0  0  0  0  0  0  0  0
   -1.2320   -1.3278   -0.0733 C   0  0  0  0  0  0  0  0  0  0  0  0
   -0.0472   -0.5935   -0.1800 C   0  0  0  0  0  0  0  0  0  0  0  0
   -0.0460    0.7718    0.0281 C   0  0  0  0  0  0  0  0  0  0  0  0
   -1.2672    1.4394    0.0843 C   0  0  0  0  0  0  0  0  0  0  0  0
   -2.4495    0.7236   -0.1261 C   0  0  0  0  0  0  0  0  0  0  0  0
    1.1922   -1.2588   -0.6109 C   0  0  0  0  0  0  0  0  0  0  0  0
    1.1356   -2.3215   -1.2050 O   0  0  0  0  0  0  0  0  0  0  0  0
    2.3617   -0.6267   -0.2242 N   0  0  0  0  0  0  0  0  0  0  0  0
    2.3891    0.7435    0.0743 N   0  0  0  0  0  0  0  0  0  0  0  0
    1.2340    1.5089    0.0644 C   0  0  0  0  0  0  0  0  0  0  0  0
    1.2602    2.7255    0.0805 O   0  0  0  0  0  0  0  0  0  0  0  0
    3.6255   -1.3502   -0.1576 C   0  0  0  0  0  0  0  0  0  0  0  0
    3.8000   -2.2416    1.1159 C   0  0  0  0  0  0  0  0  0  0  0  0
    2.7785   -3.3476    1.3355 C   0  0  0  0  0  0  0  0  0  0  0  0
    3.1134   -4.7005    1.2504 C   0  0  0  0  0  0  0  0  0  0  0  0
    1.4361   -3.0505    1.5731 C   0  0  0  0  0  0  0  0  0  0  0  0
    2.1158   -5.6688    1.0615 C   0  0  0  0  0  0  0  0  0  0  0  0
    0.4386   -4.0060    1.3558 C   0  0  0  0  0  0  0  0  0  0  0  0
    0.7778   -5.3012    1.0115 C   0  0  0  0  0  0  0  0  0  0  0  0
   -3.3685   -1.2361   -0.1026 H   0  0  0  0  0  0  0  0  0  0  0  0
   -1.2266   -2.4106   -0.0804 H   0  0  0  0  0  0  0  0  0  0  0  0
   -1.2997    2.5161    0.2203 H   0  0  0  0  0  0  0  0  0  0  0  0
   -3.3704    1.2472   -0.3629 H   0  0  0  0  0  0  0  0  0  0  0  0
    3.2461    1.2581   -0.1099 H   0  0  0  0  0  0  0  0  0  0  0  0
    3.6962   -1.9687   -1.0607 H   0  0  0  0  0  0  0  0  0  0  0  0
    4.4477   -0.6235   -0.2047 H   0  0  0  0  0  0  0  0  0  0  0  0
    4.7959   -2.6986    1.0354 H   0  0  0  0  0  0  0  0  0  0  0  0
    3.8184   -1.6019    2.0043 H   0  0  0  0  0  0  0  0  0  0  0  0
    4.1499   -5.0162    1.3126 H   0  0  0  0  0  0  0  0  0  0  0  0
    1.1425   -2.0305    1.7979 H   0  0  0  0  0  0  0  0  0  0  0  0
    2.3812   -6.7122    0.9268 H   0  0  0  0  0  0  0  0  0  0  0  0
   -0.6081   -3.7279    1.3933 H   0  0  0  0  0  0  0  0  0  0  0  0
    0.0018   -6.0134    0.7460 H   0  0  0  0  0  0  0  0  0  0  0  0
  1  2  2  0  0  0  0
  1  6  1  0  0  0  0
  1 21  1  0  0  0  0
  2  3  1  0  0  0  0
  2 22  1  0  0  0  0
  3  4  2  0  0  0  0
  3  7  1  0  0  0  0
  4  5  1  0  0  0  0
  4 11  1  0  0  0  0
  5  6  2  0  0  0  0
  5 23  1  0  0  0  0
  6 24  1  0  0  0  0
  7  8  2  0  0  0  0
  7  9  1  0  0  0  0
  9 10  1  0  0  0  0
  9 13  1  0  0  0  0
 10 11  1  0  0  0  0
 10 25  1  0  0  0  0
 11 12  2  0  0  0  0
 13 14  1  0  0  0  0
 13 26  1  0  0  0  0
 13 27  1  0  0  0  0
 14 15  1  0  0  0  0
 14 28  1  0  0  0  0
 14 29  1  0  0  0  0
 15 16  2  0  0  0  0
 15 17  1  0  0  0  0
 16 18  1  0  0  0  0
 16 30  1  0  0  0  0
 17 19  2  0  0  0  0
 17 31  1  0  0  0  0
 18 20  2  0  0  0  0
 18 32  1  0  0  0  0
 19 20  1  0  0  0  0
 19 33  1  0  0  0  0
 20 34  1  0  0  0  0
M  END
>  <DRUGBANK_ID>
DB03421

>  <SECONDARY_ACCESSION_NUMBERS>
EXPT01806

>  <COMMON_NAME>
2-Phenethyl-2,3-Dihydro-Phthalazine-1,4-Dione

$$$$
