
 OpenBabel10282417203D

 44 45  0  0  0  0  0  0  0  0999 V2000
   -1.5447   -1.7478    0.0107 C   0  0  0  0  0  0  0  0  0  0  0  0
    5.5613   -4.0513    4.8118 C   0  0  0  0  0  0  0  0  0  0  0  0
    1.8687   -0.4340    0.0195 C   0  0  0  0  0  0  0  0  0  0  0  0
    5.4401   -0.3953    4.7554 C   0  0  0  0  0  0  0  0  0  0  0  0
    0.2642    3.0126    0.0118 C   0  0  0  0  0  0  0  0  0  0  0  0
    1.6625   -0.7875    4.5914 C   0  0  0  0  0  0  0  0  0  0  0  0
    3.0182    1.7844    0.1376 C   0  0  0  0  0  0  0  0  0  0  0  0
    3.7383    1.4223    4.6679 C   0  0  0  0  0  0  0  0  0  0  0  0
   -0.4163   -0.7566    0.0017 C   0  0  0  0  0  0  0  0  0  0  0  0
    4.9983   -2.6594    4.7651 C   0  0  0  0  0  0  0  0  0  0  0  0
    1.7523    0.9576    0.0796 C   0  0  0  0  0  0  0  0  0  0  0  0
    4.0882   -0.0488    4.6710 C   0  0  0  0  0  0  0  0  0  0  0  0
    0.4480    1.5140    0.0485 C   0  0  0  0  0  0  0  0  0  0  0  0
    3.1372   -1.0994    4.6503 C   0  0  0  0  0  0  0  0  0  0  0  0
   -0.6452    0.6267    0.0151 C   0  0  0  0  0  0  0  0  0  0  0  0
    3.6184   -2.4223    4.6878 C   0  0  0  0  0  0  0  0  0  0  0  0
    0.8268   -1.2905   -0.0094 N   0  0  0  0  0  0  0  0  0  0  0  0
    5.9086   -1.6594    4.8057 N   0  0  0  0  0  0  0  0  0  0  0  0
    0.7407    3.6367    1.1916 O   0  0  0  0  0  0  0  0  0  0  0  0
    1.2588   -0.0564    5.7413 O   0  0  0  0  0  0  0  0  0  0  0  0
   -1.9502    1.0323   -0.0038 O   0  0  0  0  0  0  0  0  0  0  0  0
    2.8052   -3.5208    4.6725 O   0  0  0  0  0  0  0  0  0  0  0  0
    4.0704    1.4678    1.6071 S   0  0  0  0  0  0  0  0  0  0  0  0
    2.8890    2.0610    3.1836 S   0  0  0  0  0  0  0  0  0  0  0  0
   -1.4908   -2.3821   -0.8795 H   0  0  0  0  0  0  0  0  0  0  0  0
   -1.4675   -2.3796    0.9016 H   0  0  0  0  0  0  0  0  0  0  0  0
   -2.5310   -1.2759    0.0256 H   0  0  0  0  0  0  0  0  0  0  0  0
    6.2296   -4.2092    3.9593 H   0  0  0  0  0  0  0  0  0  0  0  0
    6.1285   -4.1888    5.7378 H   0  0  0  0  0  0  0  0  0  0  0  0
    4.7909   -4.8264    4.7767 H   0  0  0  0  0  0  0  0  0  0  0  0
    2.8421   -0.9203   -0.0054 H   0  0  0  0  0  0  0  0  0  0  0  0
    6.2198    0.3628    4.7937 H   0  0  0  0  0  0  0  0  0  0  0  0
    0.7836    3.4323   -0.8565 H   0  0  0  0  0  0  0  0  0  0  0  0
   -0.7760    3.3196   -0.0890 H   0  0  0  0  0  0  0  0  0  0  0  0
    1.4203   -0.2227    3.6890 H   0  0  0  0  0  0  0  0  0  0  0  0
    1.0278   -1.6718    4.5504 H   0  0  0  0  0  0  0  0  0  0  0  0
    3.6173    1.5617   -0.7537 H   0  0  0  0  0  0  0  0  0  0  0  0
    2.8290    2.8589    0.0926 H   0  0  0  0  0  0  0  0  0  0  0  0
    4.6385    2.0357    4.7931 H   0  0  0  0  0  0  0  0  0  0  0  0
    3.1230    1.6440    5.5471 H   0  0  0  0  0  0  0  0  0  0  0  0
    0.5246    3.0619    1.9479 H   0  0  0  0  0  0  0  0  0  0  0  0
    1.5526   -0.5646    6.5174 H   0  0  0  0  0  0  0  0  0  0  0  0
   -2.0426    1.9955   -0.0040 H   0  0  0  0  0  0  0  0  0  0  0  0
    1.8836   -3.2940    4.4834 H   0  0  0  0  0  0  0  0  0  0  0  0
  1 25  1  0  0  0  0
  1 26  1  0  0  0  0
  1 27  1  0  0  0  0
  2 28  1  0  0  0  0
  2 29  1  0  0  0  0
  2 30  1  0  0  0  0
  3 31  1  0  0  0  0
  4 32  1  0  0  0  0
  5 33  1  0  0  0  0
  5 34  1  0  0  0  0
  6 35  1  0  0  0  0
  6 36  1  0  0  0  0
  7 37  1  0  0  0  0
  7 38  1  0  0  0  0
  8 39  1  0  0  0  0
  8 40  1  0  0  0  0
  9  1  1  0  0  0  0
 10  2  1  0  0  0  0
 11  3  1  0  0  0  0
 11  7  1  0  0  0  0
 12  4  1  0  0  0  0
 12  8  1  0  0  0  0
 13  5  1  0  0  0  0
 13 11  2  0  0  0  0
 14  6  1  0  0  0  0
 14 12  2  0  0  0  0
 15  9  2  0  0  0  0
 15 13  1  0  0  0  0
 16 10  2  0  0  0  0
 16 14  1  0  0  0  0
 17  3  2  0  0  0  0
 17  9  1  0  0  0  0
 18  4  2  0  0  0  0
 18 10  1  0  0  0  0
 19  5  1  0  0  0  0
 19 41  1  0  0  0  0
 20  6  1  0  0  0  0
 20 42  1  0  0  0  0
 21 15  1  0  0  0  0
 21 43  1  0  0  0  0
 22 16  1  0  0  0  0
 22 44  1  0  0  0  0
 23  7  1  0  0  0  0
 24  8  1  0  0  0  0
 24 23  1  0  0  0  0
M  END
>  <DRUGBANK_ID>
DB13084

>  <COMMON_NAME>
Pyritinol

>  <CAS_NUMBER>
1098-97-1

>  <UNII>
AK5Q5FZH2R

>  <SYNONYMS>
Pyritinol

$$$$
