
 OpenBabel10282417233D

 75 79  0  0  0  0  0  0  0  0999 V2000
    0.7896    0.0091    0.0753 C   0  0  0  0  0  0  0  0  0  0  0  0
    0.3741   -0.8649   -0.9864 O   0  0  0  0  0  0  0  0  0  0  0  0
    0.8602   -0.7239   -2.2762 C   0  0  0  0  0  0  0  0  0  0  0  0
    2.1816   -0.3710   -2.5782 C   0  0  0  0  0  0  0  0  0  0  0  0
    3.1289   -0.0506   -1.5724 N   0  0  0  0  0  0  0  0  0  0  0  0
    4.4587    0.2947   -1.7958 C   0  0  0  0  0  0  0  0  0  0  0  0
    5.3999   -0.5908   -1.4295 N   0  0  0  0  0  0  0  0  0  0  0  0
    6.6668   -0.3088   -1.7829 C   0  0  0  0  0  0  0  0  0  0  0  0
    7.0222    0.8269   -2.4664 C   0  0  0  0  0  0  0  0  0  0  0  0
    5.9904    1.7037   -2.7280 C   0  0  0  0  0  0  0  0  0  0  0  0
    4.7107    1.4524   -2.4111 N   0  0  0  0  0  0  0  0  0  0  0  0
    6.2804    2.9063   -3.4140 N   0  0  0  0  0  0  0  0  0  0  0  0
    6.9199    2.9827   -4.6214 C   0  0  0  0  0  0  0  0  0  0  0  0
    7.1220    4.3199   -4.8763 C   0  0  0  0  0  0  0  0  0  0  0  0
    7.7723    4.9044   -6.0832 C   0  0  0  0  0  0  0  0  0  0  0  0
    6.8386    5.7783   -6.7937 N   0  0  0  0  0  0  0  0  0  0  0  0
    7.4882    6.4362   -7.9157 C   0  0  0  0  0  0  0  0  0  0  0  0
    5.6118    5.1020   -7.2078 C   0  0  0  0  0  0  0  0  0  0  0  0
    6.5517    4.9984   -3.7527 C   0  0  0  0  0  0  0  0  0  0  0  0
    6.0250    4.1249   -2.8784 N   0  0  0  0  0  0  0  0  0  0  0  0
    6.5720    6.4452   -3.5257 C   0  0  0  0  0  0  0  0  0  0  0  0
    7.3124    6.9759   -2.4688 C   0  0  0  0  0  0  0  0  0  0  0  0
    7.5014    8.3587   -2.3701 C   0  0  0  0  0  0  0  0  0  0  0  0
    6.9897    9.2154   -3.3464 C   0  0  0  0  0  0  0  0  0  0  0  0
    6.2751    8.6939   -4.4156 C   0  0  0  0  0  0  0  0  0  0  0  0
    6.0037    7.3276   -4.4548 C   0  0  0  0  0  0  0  0  0  0  0  0
    2.5140   -0.2930   -3.9388 C   0  0  0  0  0  0  0  0  0  0  0  0
    1.6106   -0.6319   -5.0004 C   0  0  0  0  0  0  0  0  0  0  0  0
    2.1342   -0.1102   -6.2303 N   0  0  0  0  0  0  0  0  0  0  0  0
    1.4327    0.6820   -7.0954 C   0  0  0  0  0  0  0  0  0  0  0  0
    1.7334    0.8454   -8.2445 O   0  0  0  0  0  0  0  0  0  0  0  0
    0.1013    1.0354   -6.5895 C   0  0  0  0  0  0  0  0  0  0  0  0
   -0.4670    1.3260   -5.4063 C   0  0  0  0  0  0  0  0  0  0  0  0
    0.2308   -1.1409   -4.7468 C   0  0  0  0  0  0  0  0  0  0  0  0
   -0.0785   -1.0787   -3.3416 C   0  0  0  0  0  0  0  0  0  0  0  0
   -0.8099   -1.4827   -5.7510 N   0  0  0  0  0  0  0  0  0  0  0  0
   -0.3766   -2.4104   -6.8335 C   0  0  0  0  0  0  0  0  0  0  0  0
   -0.5498   -1.8455   -8.2812 C   0  0  0  0  0  0  0  0  0  0  0  0
   -1.8017   -1.1971   -8.6219 O   0  0  0  0  0  0  0  0  0  0  0  0
   -2.2851   -0.2138   -7.7029 C   0  0  0  0  0  0  0  0  0  0  0  0
   -2.2714   -0.8049   -6.2206 C   0  0  0  0  0  0  0  0  0  0  0  0
    0.3307   -0.3588    1.0022 H   0  0  0  0  0  0  0  0  0  0  0  0
    0.4469    1.0321   -0.0980 H   0  0  0  0  0  0  0  0  0  0  0  0
    1.8543    0.0108    0.3146 H   0  0  0  0  0  0  0  0  0  0  0  0
    3.1332   -0.7565   -0.8461 H   0  0  0  0  0  0  0  0  0  0  0  0
    7.4094   -1.0463   -1.4892 H   0  0  0  0  0  0  0  0  0  0  0  0
    8.0521    1.0426   -2.7128 H   0  0  0  0  0  0  0  0  0  0  0  0
    7.1305    2.1009   -5.2101 H   0  0  0  0  0  0  0  0  0  0  0  0
    8.6542    5.4677   -5.7502 H   0  0  0  0  0  0  0  0  0  0  0  0
    8.1228    4.1057   -6.7470 H   0  0  0  0  0  0  0  0  0  0  0  0
    7.8065    5.7096   -8.6682 H   0  0  0  0  0  0  0  0  0  0  0  0
    6.8086    7.1570   -8.3831 H   0  0  0  0  0  0  0  0  0  0  0  0
    8.3636    7.0047   -7.5810 H   0  0  0  0  0  0  0  0  0  0  0  0
    5.8190    4.2854   -7.9021 H   0  0  0  0  0  0  0  0  0  0  0  0
    5.0616    4.6983   -6.3493 H   0  0  0  0  0  0  0  0  0  0  0  0
    4.9236    5.8153   -7.6736 H   0  0  0  0  0  0  0  0  0  0  0  0
    7.7610    6.3122   -1.7351 H   0  0  0  0  0  0  0  0  0  0  0  0
    8.0752    8.7667   -1.5438 H   0  0  0  0  0  0  0  0  0  0  0  0
    7.1394   10.2885   -3.2728 H   0  0  0  0  0  0  0  0  0  0  0  0
    5.9409    9.3347   -5.2278 H   0  0  0  0  0  0  0  0  0  0  0  0
    5.3815    6.9539   -5.2607 H   0  0  0  0  0  0  0  0  0  0  0  0
    3.4905    0.1240   -4.2012 H   0  0  0  0  0  0  0  0  0  0  0  0
    3.0914    0.2271   -6.2838 H   0  0  0  0  0  0  0  0  0  0  0  0
   -0.3365    0.2873   -7.2083 H   0  0  0  0  0  0  0  0  0  0  0  0
   -1.3048    0.7235   -5.0948 H   0  0  0  0  0  0  0  0  0  0  0  0
   -0.0142    1.4791   -4.4396 H   0  0  0  0  0  0  0  0  0  0  0  0
   -1.1122   -1.1892   -3.0262 H   0  0  0  0  0  0  0  0  0  0  0  0
   -1.0103   -3.3029   -6.7583 H   0  0  0  0  0  0  0  0  0  0  0  0
    0.6542   -2.7545   -6.6798 H   0  0  0  0  0  0  0  0  0  0  0  0
    0.2989   -1.2154   -8.5626 H   0  0  0  0  0  0  0  0  0  0  0  0
   -0.4674   -2.6859   -8.9804 H   0  0  0  0  0  0  0  0  0  0  0  0
   -3.2846    0.1472   -7.9937 H   0  0  0  0  0  0  0  0  0  0  0  0
   -1.7921    0.7611   -7.8880 H   0  0  0  0  0  0  0  0  0  0  0  0
   -3.0451   -1.5792   -6.1749 H   0  0  0  0  0  0  0  0  0  0  0  0
   -2.7176   -0.0274   -5.5817 H   0  0  0  0  0  0  0  0  0  0  0  0
  1  2  1  0  0  0  0
  1 42  1  0  0  0  0
  1 43  1  0  0  0  0
  1 44  1  0  0  0  0
  2  3  1  0  0  0  0
  3  4  2  0  0  0  0
  3 35  1  0  0  0  0
  4  5  1  0  0  0  0
  4 27  1  0  0  0  0
  5  6  1  0  0  0  0
  5 45  1  0  0  0  0
  6  7  2  0  0  0  0
  6 11  1  0  0  0  0
  7  8  1  0  0  0  0
  8  9  2  0  0  0  0
  8 46  1  0  0  0  0
  9 10  1  0  0  0  0
  9 47  1  0  0  0  0
 10 11  2  0  0  0  0
 10 12  1  0  0  0  0
 12 13  1  0  0  0  0
 12 20  1  0  0  0  0
 13 14  2  0  0  0  0
 13 48  1  0  0  0  0
 14 15  1  0  0  0  0
 14 19  1  0  0  0  0
 15 16  1  0  0  0  0
 15 49  1  0  0  0  0
 15 50  1  0  0  0  0
 16 17  1  0  0  0  0
 16 18  1  0  0  0  0
 17 51  1  0  0  0  0
 17 52  1  0  0  0  0
 17 53  1  0  0  0  0
 18 54  1  0  0  0  0
 18 55  1  0  0  0  0
 18 56  1  0  0  0  0
 19 20  2  0  0  0  0
 19 21  1  0  0  0  0
 21 22  2  0  0  0  0
 21 26  1  0  0  0  0
 22 23  1  0  0  0  0
 22 57  1  0  0  0  0
 23 24  2  0  0  0  0
 23 58  1  0  0  0  0
 24 25  1  0  0  0  0
 24 59  1  0  0  0  0
 25 26  2  0  0  0  0
 25 60  1  0  0  0  0
 26 61  1  0  0  0  0
 27 28  2  0  0  0  0
 27 62  1  0  0  0  0
 28 29  1  0  0  0  0
 28 34  1  0  0  0  0
 29 30  1  0  0  0  0
 29 63  1  0  0  0  0
 30 31  2  0  0  0  0
 30 32  1  0  0  0  0
 32 33  2  0  0  0  0
 32 64  1  0  0  0  0
 33 65  1  0  0  0  0
 33 66  1  0  0  0  0
 34 35  2  0  0  0  0
 34 36  1  0  0  0  0
 35 67  1  0  0  0  0
 36 37  1  0  0  0  0
 36 41  1  0  0  0  0
 37 38  1  0  0  0  0
 37 68  1  0  0  0  0
 37 69  1  0  0  0  0
 38 39  1  0  0  0  0
 38 70  1  0  0  0  0
 38 71  1  0  0  0  0
 39 40  1  0  0  0  0
 40 41  1  0  0  0  0
 40 72  1  0  0  0  0
 40 73  1  0  0  0  0
 41 74  1  0  0  0  0
 41 75  1  0  0  0  0
M  END
>  <DRUGBANK_ID>
DB16216

>  <COMMON_NAME>
Lazertinib

>  <CAS_NUMBER>
1903008-80-9

>  <UNII>
4A2Y23XK11

>  <SYNONYMS>
Lazertinib

$$$$
