
 OpenBabel10282417233D

 47 49  0  0  1  0  0  0  0  0999 V2000
    0.9096    0.0453   -0.1164 C   0  0  0  0  0  0  0  0  0  0  0  0
    0.3977    0.7547   -1.2497 O   0  0  0  0  0  0  0  0  0  0  0  0
    0.6979    2.1249   -1.1399 N   0  0  0  0  0  0  0  0  0  0  0  0
    0.3472    2.7774   -2.2120 C   0  0  0  0  0  0  0  0  0  0  0  0
    0.5466    4.2642   -2.2972 C   0  0  0  0  0  0  0  0  0  0  0  0
    0.6022    4.4910   -3.8196 C   0  0  1  0  0  0  0  0  0  0  0  0
    1.8926    5.2471   -4.1336 C   0  0  0  0  0  0  0  0  0  0  0  0
    3.0657    4.5169   -3.7847 O   0  0  0  0  0  0  0  0  0  0  0  0
    0.3866    3.1509   -4.4342 N   0  0  0  0  0  0  0  0  0  0  0  0
   -0.2892    2.2585   -3.4758 C   0  0  0  0  0  0  0  0  0  0  0  0
    0.5675    2.7166   -5.7635 C   0  0  0  0  0  0  0  0  0  0  0  0
    0.1842    1.6045   -6.1506 O   0  0  0  0  0  0  0  0  0  0  0  0
    1.2946    3.5510   -6.7663 C   0  0  0  0  0  0  0  0  0  0  0  0
    2.6345    3.8298   -6.5342 C   0  0  0  0  0  0  0  0  0  0  0  0
    3.2638    4.8634   -7.2280 C   0  0  0  0  0  0  0  0  0  0  0  0
    2.7070    5.3995   -8.3930 C   0  0  0  0  0  0  0  0  0  0  0  0
    1.4639    4.8902   -8.7969 C   0  0  0  0  0  0  0  0  0  0  0  0
    0.7269    4.0255   -7.9557 C   0  0  0  0  0  0  0  0  0  0  0  0
    3.4889    6.3497   -9.2089 C   0  0  0  0  0  0  0  0  0  0  0  0
    4.7846    6.0121   -9.6671 C   0  0  0  0  0  0  0  0  0  0  0  0
    5.4487    4.6979   -9.3411 C   0  0  0  0  0  0  0  0  0  0  0  0
    5.5134    6.9261  -10.4475 C   0  0  0  0  0  0  0  0  0  0  0  0
    4.9710    8.1595  -10.7975 C   0  0  0  0  0  0  0  0  0  0  0  0
    3.6922    8.4974  -10.3678 C   0  0  0  0  0  0  0  0  0  0  0  0
    2.9718    7.6165   -9.5512 C   0  0  0  0  0  0  0  0  0  0  0  0
    0.5767   -0.9960   -0.1871 H   0  0  0  0  0  0  0  0  0  0  0  0
    0.5305    0.4567    0.8257 H   0  0  0  0  0  0  0  0  0  0  0  0
    2.0049    0.0488   -0.1133 H   0  0  0  0  0  0  0  0  0  0  0  0
   -0.2974    4.7960   -1.8518 H   0  0  0  0  0  0  0  0  0  0  0  0
    1.4513    4.5645   -1.7622 H   0  0  0  0  0  0  0  0  0  0  0  0
   -0.2441    5.1159   -4.1360 H   0  0  0  0  0  0  0  0  0  0  0  0
    1.9018    5.5154   -5.1836 H   0  0  0  0  0  0  0  0  0  0  0  0
    1.9423    6.2159   -3.6351 H   0  0  0  0  0  0  0  0  0  0  0  0
    3.0796    4.3453   -2.8292 H   0  0  0  0  0  0  0  0  0  0  0  0
   -0.1521    1.1974   -3.6726 H   0  0  0  0  0  0  0  0  0  0  0  0
   -1.3556    2.5203   -3.4403 H   0  0  0  0  0  0  0  0  0  0  0  0
    3.1562    3.3579   -5.7086 H   0  0  0  0  0  0  0  0  0  0  0  0
    4.2291    5.2175   -6.8663 H   0  0  0  0  0  0  0  0  0  0  0  0
    1.0759    5.1532   -9.7806 H   0  0  0  0  0  0  0  0  0  0  0  0
   -0.2727    3.7220   -8.2544 H   0  0  0  0  0  0  0  0  0  0  0  0
    5.7252    4.1736  -10.2569 H   0  0  0  0  0  0  0  0  0  0  0  0
    6.3279    4.8810   -8.7155 H   0  0  0  0  0  0  0  0  0  0  0  0
    4.8140    3.9966   -8.8002 H   0  0  0  0  0  0  0  0  0  0  0  0
    6.5112    6.6646  -10.7934 H   0  0  0  0  0  0  0  0  0  0  0  0
    5.5501    8.8545  -11.4003 H   0  0  0  0  0  0  0  0  0  0  0  0
    3.2566    9.4468  -10.6710 H   0  0  0  0  0  0  0  0  0  0  0  0
    2.0034    7.9378   -9.1714 H   0  0  0  0  0  0  0  0  0  0  0  0
  1  2  1  0  0  0  0
  1 26  1  0  0  0  0
  1 27  1  0  0  0  0
  1 28  1  0  0  0  0
  2  3  1  0  0  0  0
  3  4  2  0  0  0  0
  4  5  1  0  0  0  0
  4 10  1  0  0  0  0
  5 29  1  0  0  0  0
  5 30  1  0  0  0  0
  6  5  1  0  0  0  0
  6  9  1  0  0  0  0
  6 31  1  6  0  0  0
  6  7  1  0  0  0  0
  7  8  1  0  0  0  0
  7 32  1  0  0  0  0
  7 33  1  0  0  0  0
  8 34  1  0  0  0  0
  9 10  1  0  0  0  0
  9 11  1  0  0  0  0
 10 35  1  0  0  0  0
 10 36  1  0  0  0  0
 11 12  2  0  0  0  0
 11 13  1  0  0  0  0
 13 14  2  0  0  0  0
 13 18  1  0  0  0  0
 14 15  1  0  0  0  0
 14 37  1  0  0  0  0
 15 16  2  0  0  0  0
 15 38  1  0  0  0  0
 16 17  1  0  0  0  0
 16 19  1  0  0  0  0
 17 18  2  0  0  0  0
 17 39  1  0  0  0  0
 18 40  1  0  0  0  0
 19 20  2  0  0  0  0
 19 25  1  0  0  0  0
 20 21  1  0  0  0  0
 20 22  1  0  0  0  0
 21 41  1  0  0  0  0
 21 42  1  0  0  0  0
 21 43  1  0  0  0  0
 22 23  2  0  0  0  0
 22 44  1  0  0  0  0
 23 24  1  0  0  0  0
 23 45  1  0  0  0  0
 24 25  2  0  0  0  0
 24 46  1  0  0  0  0
 25 47  1  0  0  0  0
M  END
>  <DRUGBANK_ID>
DB16259

>  <COMMON_NAME>
Nolasiban

>  <CAS_NUMBER>
1477482-19-1

>  <UNII>
3765U8A1EC

>  <SYNONYMS>
Erlosiban; Nolasiban

$$$$
