
 OpenBabel10282417123D

 30 30  0  0  1  0  0  0  0  0999 V2000
    0.9556   -0.4573    0.5997 C   0  0  0  0  0  0  0  0  0  0  0  0
    0.7368    0.6792   -3.0092 C   0  0  0  0  0  0  0  0  0  0  0  0
    0.7962   -0.8107   -3.3331 C   0  0  1  0  0  0  0  0  0  0  0  0
   -0.2911   -0.9681    0.5270 C   0  0  0  0  0  0  0  0  0  0  0  0
    0.9685    0.9427    0.0840 C   0  0  2  0  0  0  0  0  0  0  0  0
   -0.8063   -2.5479    0.3969 C   0  0  1  0  0  0  0  0  0  0  0  0
    0.2743   -1.3773   -2.1174 C   0  0  0  0  0  0  0  0  0  0  0  0
   -0.2989   -3.7496   -0.7785 C   0  0  0  0  0  0  0  0  0  0  0  0
   -0.0827   -1.3582   -4.3906 N   0  0  0  0  0  0  0  0  0  0  0  0
   -0.3092   -3.1918    1.6424 N   0  0  0  0  0  0  0  0  0  0  0  0
   -0.4263    1.3396    0.1548 N   0  0  0  0  0  0  0  0  0  0  0  0
   -0.9408   -1.3328   -1.8562 O   0  0  0  0  0  0  0  0  0  0  0  0
    1.3145   -1.9652   -1.4844 O   0  0  0  0  0  0  0  0  0  0  0  0
    0.6668   -4.4869   -0.5762 O   0  0  0  0  0  0  0  0  0  0  0  0
   -0.8008   -3.7283   -2.0370 O   0  0  0  0  0  0  0  0  0  0  0  0
   -1.2126    0.0682    0.2037 O   0  0  0  0  0  0  0  0  0  0  0  0
    1.8140    1.2474   -1.5611 S   0  0  0  0  0  0  0  0  0  0  0  0
    1.8157   -1.1933   -3.4495 H   0  0  0  0  0  0  0  0  0  0  0  0
    1.5771    1.5498    0.7639 H   0  0  0  0  0  0  0  0  0  0  0  0
   -1.9025   -2.5772    0.3559 H   0  0  0  0  0  0  0  0  0  0  0  0
    1.8826   -0.9724    0.7942 H   0  0  0  0  0  0  0  0  0  0  0  0
   -0.2862    1.0450   -2.8709 H   0  0  0  0  0  0  0  0  0  0  0  0
    1.1352    1.1599   -3.9076 H   0  0  0  0  0  0  0  0  0  0  0  0
   -0.0962   -2.3783   -4.2568 H   0  0  0  0  0  0  0  0  0  0  0  0
   -1.0461   -1.1242   -4.1047 H   0  0  0  0  0  0  0  0  0  0  0  0
   -0.5728   -4.1808    1.5952 H   0  0  0  0  0  0  0  0  0  0  0  0
    0.7108   -3.2352    1.5693 H   0  0  0  0  0  0  0  0  0  0  0  0
   -0.6975    1.7673   -0.7263 H   0  0  0  0  0  0  0  0  0  0  0  0
    1.2319   -2.2881   -0.5686 H   0  0  0  0  0  0  0  0  0  0  0  0
   -0.0994   -4.0974   -2.6304 H   0  0  0  0  0  0  0  0  0  0  0  0
  1 21  1  0  0  0  0
  2 22  1  0  0  0  0
  2 23  1  0  0  0  0
  3  2  1  0  0  0  0
  3  9  1  0  0  0  0
  3 18  1  6  0  0  0
  4  1  2  0  0  0  0
  5  1  1  0  0  0  0
  5 17  1  0  0  0  0
  5 19  1  1  0  0  0
  6  4  1  0  0  0  0
  6 10  1  0  0  0  0
  6 20  1  1  0  0  0
  7  3  1  0  0  0  0
  8  6  1  0  0  0  0
  9 24  1  0  0  0  0
  9 25  1  0  0  0  0
 10 26  1  0  0  0  0
 10 27  1  0  0  0  0
 11  5  1  0  0  0  0
 11 28  1  0  0  0  0
 12  7  2  0  0  0  0
 13  7  1  0  0  0  0
 13 29  1  0  0  0  0
 14  8  2  0  0  0  0
 15  8  1  0  0  0  0
 15 30  1  0  0  0  0
 16  4  1  0  0  0  0
 16 11  1  0  0  0  0
 17  2  1  0  0  0  0
M  END
>  <DRUGBANK_ID>
DB01974

>  <SECONDARY_ACCESSION_NUMBERS>
EXPT00029

>  <COMMON_NAME>
2-Amino-3-[5-(Amino-Carboxy-Methyl)-2,3-Dihydro-Isoxazol-3-Ylsulfanyl]-Propionic Acid

$$$$
