
 OpenBabel10282417203D

 33 33  0  0  0  0  0  0  0  0999 V2000
    1.3626    0.3678   -0.6836 C   0  0  0  0  0  0  0  0  0  0  0  0
   -0.8438   -0.2610   -1.7836 C   0  0  0  0  0  0  0  0  0  0  0  0
    4.1458   -0.8448   -0.5540 C   0  0  0  0  0  0  0  0  0  0  0  0
    3.1972   -2.9117   -1.2791 C   0  0  0  0  0  0  0  0  0  0  0  0
    3.1696   -0.8260    0.5071 C   0  0  0  0  0  0  0  0  0  0  0  0
    2.0487   -2.7700   -0.4042 C   0  0  0  0  0  0  0  0  0  0  0  0
    0.9017    1.2799   -2.4406 C   0  0  0  0  0  0  0  0  0  0  0  0
    0.2918    2.5652   -1.5317 C   0  0  0  0  0  0  0  0  0  0  0  0
   -0.3055    0.1565    1.2275 C   0  0  0  0  0  0  0  0  0  0  0  0
    4.2020   -1.9385   -1.3865 C   0  0  0  0  0  0  0  0  0  0  0  0
    1.9752   -1.7055    0.5286 C   0  0  0  0  0  0  0  0  0  0  0  0
    0.3246    1.7858    1.3330 C   0  0  0  0  0  0  0  0  0  0  0  0
    5.5458   -2.1135   -2.4607 Cl  0  0  0  0  0  0  0  0  0  0  0  0
    0.6334   -0.0298   -1.8344 N   0  0  0  0  0  0  0  0  0  0  0  0
    0.9212    2.1442    2.3947 O   0  0  0  0  0  0  0  0  0  0  0  0
    0.3856    2.6758    0.1702 O   0  0  0  0  0  0  0  0  0  0  0  0
    0.5425   -1.3270    1.0974 O   0  0  0  0  0  0  0  0  0  0  0  0
    1.3894    0.1448    0.3435 H   0  0  0  0  0  0  0  0  0  0  0  0
    0.6573    1.0435   -0.4223 H   0  0  0  0  0  0  0  0  0  0  0  0
    2.2946    0.9433   -0.7196 H   0  0  0  0  0  0  0  0  0  0  0  0
   -1.4549    0.6117   -1.4917 H   0  0  0  0  0  0  0  0  0  0  0  0
   -1.2085   -0.5075   -2.7829 H   0  0  0  0  0  0  0  0  0  0  0  0
   -1.1729   -1.0955   -1.1385 H   0  0  0  0  0  0  0  0  0  0  0  0
    4.7873    0.0242   -0.7711 H   0  0  0  0  0  0  0  0  0  0  0  0
    3.2967   -3.7874   -1.9201 H   0  0  0  0  0  0  0  0  0  0  0  0
    3.2233    0.1141    1.0660 H   0  0  0  0  0  0  0  0  0  0  0  0
    1.2315   -3.4718   -0.5486 H   0  0  0  0  0  0  0  0  0  0  0  0
    2.0119    1.3360   -2.4942 H   0  0  0  0  0  0  0  0  0  0  0  0
    0.5897    1.2390   -3.4746 H   0  0  0  0  0  0  0  0  0  0  0  0
    0.8358    3.4415   -1.8932 H   0  0  0  0  0  0  0  0  0  0  0  0
   -0.7777    2.6159   -1.6856 H   0  0  0  0  0  0  0  0  0  0  0  0
   -1.2099   -0.0118    1.8479 H   0  0  0  0  0  0  0  0  0  0  0  0
   -0.8949    0.2782    0.3207 H   0  0  0  0  0  0  0  0  0  0  0  0
  1 18  1  0  0  0  0
  1 19  1  0  0  0  0
  1 20  1  0  0  0  0
  2 21  1  0  0  0  0
  2 22  1  0  0  0  0
  2 23  1  0  0  0  0
  3 24  1  0  0  0  0
  4 25  1  0  0  0  0
  5  3  1  0  0  0  0
  5 26  1  0  0  0  0
  6  4  2  0  0  0  0
  6 27  1  0  0  0  0
  7 28  1  0  0  0  0
  7 29  1  0  0  0  0
  8  7  1  0  0  0  0
  8 30  1  0  0  0  0
  8 31  1  0  0  0  0
  9 32  1  0  0  0  0
  9 33  1  0  0  0  0
 10  3  2  0  0  0  0
 10  4  1  0  0  0  0
 11  5  2  0  0  0  0
 11  6  1  0  0  0  0
 12  9  1  0  0  0  0
 13 10  1  0  0  0  0
 14  1  1  0  0  0  0
 14  2  1  0  0  0  0
 14  7  1  0  0  0  0
 15 12  2  0  0  0  0
 16  8  1  0  0  0  0
 16 12  1  0  0  0  0
 17  9  1  0  0  0  0
 17 11  1  0  0  0  0
M  END
>  <DRUGBANK_ID>
DB13758

>  <COMMON_NAME>
Meclofenoxate

>  <CAS_NUMBER>
51-68-3

>  <UNII>
C76QQ2I0RG

>  <SYNONYMS>
Meclofenoxate

$$$$
