S60
 OpenBabel10282417173D

 25 27  0  0  0  0  0  0  0  0999 V2000
   -3.2490    0.7805   -0.0905 C   0  0  0  0  0  0  0  0  0  0  0  0
   -4.3911    1.4955   -0.2093 N   0  0  0  0  0  0  0  0  0  0  0  0
   -2.1260    1.3858    0.1030 N   0  0  0  0  0  0  0  0  0  0  0  0
   -0.9433    0.6282    0.1721 C   0  0  0  0  0  0  0  0  0  0  0  0
    0.2501    1.3364    0.2872 C   0  0  0  0  0  0  0  0  0  0  0  0
    1.4703    0.6747    0.1346 C   0  0  0  0  0  0  0  0  0  0  0  0
    2.7143    1.2269    0.0366 N   0  0  0  0  0  0  0  0  0  0  0  0
    3.5395    0.2268   -0.1670 C   0  0  0  0  0  0  0  0  0  0  0  0
    4.9974    0.3988   -0.4066 C   0  0  0  0  0  0  0  0  0  0  0  0
    2.8605   -0.9793   -0.1218 N   0  0  0  0  0  0  0  0  0  0  0  0
    1.5079   -0.7126    0.0338 C   0  0  0  0  0  0  0  0  0  0  0  0
    0.3255   -1.4882    0.0851 C   0  0  0  0  0  0  0  0  0  0  0  0
   -0.9042   -0.7664    0.0781 C   0  0  0  0  0  0  0  0  0  0  0  0
   -2.2294   -1.4200   -0.0808 C   0  0  0  0  0  0  0  0  0  0  0  0
   -2.3518   -2.6428   -0.1450 O   0  0  0  0  0  0  0  0  0  0  0  0
   -3.3221   -0.5789   -0.1798 N   0  0  0  0  0  0  0  0  0  0  0  0
   -4.3161    2.5060   -0.1603 H   0  0  0  0  0  0  0  0  0  0  0  0
   -5.3082    1.1033   -0.3513 H   0  0  0  0  0  0  0  0  0  0  0  0
    0.2415    2.4100    0.4185 H   0  0  0  0  0  0  0  0  0  0  0  0
    5.1627    1.0049   -1.3065 H   0  0  0  0  0  0  0  0  0  0  0  0
    5.4452    0.9468    0.4307 H   0  0  0  0  0  0  0  0  0  0  0  0
    5.5302   -0.5464   -0.5271 H   0  0  0  0  0  0  0  0  0  0  0  0
    3.2892   -1.8868   -0.2439 H   0  0  0  0  0  0  0  0  0  0  0  0
    0.3459   -2.5751    0.0780 H   0  0  0  0  0  0  0  0  0  0  0  0
   -4.2186   -1.0166   -0.3150 H   0  0  0  0  0  0  0  0  0  0  0  0
  1  2  1  0  0  0  0
  1  3  2  0  0  0  0
  1 16  1  0  0  0  0
  2 17  1  0  0  0  0
  2 18  1  0  0  0  0
  3  4  1  0  0  0  0
  4  5  2  0  0  0  0
  4 13  1  0  0  0  0
  5  6  1  0  0  0  0
  5 19  1  0  0  0  0
  6  7  1  0  0  0  0
  6 11  2  0  0  0  0
  7  8  2  0  0  0  0
  8  9  1  0  0  0  0
  8 10  1  0  0  0  0
  9 20  1  0  0  0  0
  9 21  1  0  0  0  0
  9 22  1  0  0  0  0
 10 11  1  0  0  0  0
 10 23  1  0  0  0  0
 11 12  1  0  0  0  0
 12 13  2  0  0  0  0
 12 24  1  0  0  0  0
 13 14  1  0  0  0  0
 14 15  2  0  0  0  0
 14 16  1  0  0  0  0
 16 25  1  0  0  0  0
M  END
>  <DRUGBANK_ID>
DB08511

>  <COMMON_NAME>
6-amino-2-methyl-1,7-dihydro-8H-imidazo[4,5-g]quinazolin-8-one

$$$$
