
 OpenBabel10282417213D

 33 34  0  0  0  0  0  0  0  0999 V2000
    5.0580    2.1528    2.5208 N   0  0  0  0  0  0  0  0  0  0  0  0
    5.9176    2.1345    4.5134 C   0  0  0  0  0  0  0  0  0  0  0  0
    5.4056    1.3088    3.5297 C   0  0  0  0  0  0  0  0  0  0  0  0
    5.8896    3.4495    4.1449 N   0  0  0  0  0  0  0  0  0  0  0  0
    5.5732    3.3788    2.8948 C   0  0  0  0  0  0  0  0  0  0  0  0
    0.5782    4.5794    0.8193 P   0  0  0  0  0  0  0  0  0  0  0  0
    6.4648    1.5555    5.6467 C   0  0  0  0  0  0  0  0  0  0  0  0
    5.3564   -0.0366    3.5594 N   0  0  0  0  0  0  0  0  0  0  0  0
    6.5012    0.2080    5.7150 N   0  0  0  0  0  0  0  0  0  0  0  0
    4.2901    1.8467    1.3185 C   0  0  0  0  0  0  0  0  0  0  0  0
    5.9539   -0.4880    4.6850 C   0  0  0  0  0  0  0  0  0  0  0  0
    1.6237    3.7530   -0.4349 C   0  0  0  0  0  0  0  0  0  0  0  0
    2.2877    2.5457    0.0322 O   0  0  0  0  0  0  0  0  0  0  0  0
    7.0217    2.3451    6.6291 N   0  0  0  0  0  0  0  0  0  0  0  0
    3.0624    2.7593    1.2231 C   0  0  2  0  0  0  0  0  0  0  0  0
    3.5749    4.1813    1.2819 C   0  0  0  0  0  0  0  0  0  0  0  0
    0.5804    3.3589    1.8751 O   0  0  0  0  0  0  0  0  0  0  0  0
    1.3909    5.8458    1.0192 O   0  0  0  0  0  0  0  0  0  0  0  0
   -0.4101    5.3606    2.0050 O   0  0  0  0  0  0  0  0  0  0  0  0
    5.6364    4.2475    2.2430 H   0  0  0  0  0  0  0  0  0  0  0  0
    4.9374    2.0060    0.4509 H   0  0  0  0  0  0  0  0  0  0  0  0
    3.9930    0.7909    1.3177 H   0  0  0  0  0  0  0  0  0  0  0  0
    6.0201   -1.5696    4.7709 H   0  0  0  0  0  0  0  0  0  0  0  0
    2.3614    4.4093   -0.9119 H   0  0  0  0  0  0  0  0  0  0  0  0
    0.9562    3.4552   -1.2511 H   0  0  0  0  0  0  0  0  0  0  0  0
    6.9970    3.3500    6.4794 H   0  0  0  0  0  0  0  0  0  0  0  0
    7.5024    1.9262    7.3994 H   0  0  0  0  0  0  0  0  0  0  0  0
    2.4489    2.4988    2.0923 H   0  0  0  0  0  0  0  0  0  0  0  0
    2.9862    4.9519    0.8918 H   0  0  0  0  0  0  0  0  0  0  0  0
    3.6749    4.5194    2.3122 H   0  0  0  0  0  0  0  0  0  0  0  0
    4.4178    4.3092    0.5999 H   0  0  0  0  0  0  0  0  0  0  0  0
   -0.2090    2.7926    1.7375 H   0  0  0  0  0  0  0  0  0  0  0  0
    0.2136    5.9998    2.4127 H   0  0  0  0  0  0  0  0  0  0  0  0
  3  1  1  0  0  0  0
  3  2  2  0  0  0  0
  4  2  1  0  0  0  0
  5  1  1  0  0  0  0
  5  4  2  0  0  0  0
  5 20  1  0  0  0  0
  6 17  1  0  0  0  0
  6 18  2  0  0  0  0
  6 19  1  0  0  0  0
  7  2  1  0  0  0  0
  8  3  1  0  0  0  0
  9  7  2  0  0  0  0
 10  1  1  0  0  0  0
 10 21  1  0  0  0  0
 10 22  1  0  0  0  0
 11  8  2  0  0  0  0
 11  9  1  0  0  0  0
 11 23  1  0  0  0  0
 12  6  1  0  0  0  0
 12 24  1  0  0  0  0
 12 25  1  0  0  0  0
 13 12  1  0  0  0  0
 14  7  1  0  0  0  0
 14 26  1  0  0  0  0
 14 27  1  0  0  0  0
 15 16  1  0  0  0  0
 15 28  1  1  0  0  0
 15 13  1  0  0  0  0
 15 10  1  0  0  0  0
 16 29  1  0  0  0  0
 16 30  1  0  0  0  0
 16 31  1  0  0  0  0
 17 32  1  0  0  0  0
 19 33  1  0  0  0  0
M  END
>  <DRUGBANK_ID>
DB14126

>  <COMMON_NAME>
Tenofovir

>  <CAS_NUMBER>
147127-20-6

>  <UNII>
W4HFE001U5

>  <SYNONYMS>
(R)-PMPA; Anhydrous tenofovir; Tenofovir; Tenofovir (anh.); Tenofovir (anhydrous); Tenofovir anhydrous

$$$$
