446202
 OpenBabel10282417123D

 61 65  0  0  1  0  0  0  0  0999 V2000
    0.9561    0.0653   -0.0617 P   0  0  3  0  0  0  0  0  0  0  0  0
   -0.0685    3.4268   -1.5124 O   0  0  0  0  0  0  0  0  0  0  0  0
   -2.3302    4.0582   -4.2562 O   0  0  0  0  0  0  0  0  0  0  0  0
   -2.6473    1.8785   -2.7375 O   0  0  0  0  0  0  0  0  0  0  0  0
    0.8050   -0.0399   -1.6971 O   0  0  0  0  0  0  0  0  0  0  0  0
    0.9632   -1.4892    0.6005 O   0  0  0  0  0  0  0  0  0  0  0  0
   -0.7739    0.0653   -0.0617 O   0  0  0  0  0  0  0  0  0  0  0  0
    2.5044    0.0653   -0.0617 O   0  0  0  0  0  0  0  0  0  0  0  0
    3.2030   -1.4117    1.4429 O   0  0  0  0  0  0  0  0  0  0  0  0
    0.0190    5.4763   -2.5678 N   0  0  0  0  0  0  0  0  0  0  0  0
    0.6919    7.5855   -2.6581 N   0  0  0  0  0  0  0  0  0  0  0  0
    1.9526    4.3409   -3.5007 N   0  0  0  0  0  0  0  0  0  0  0  0
    3.6707    5.9240   -4.1392 N   0  0  0  0  0  0  0  0  0  0  0  0
    3.4564    8.2471   -3.8665 N   0  0  0  0  0  0  0  0  0  0  0  0
    3.2501   -4.3365   -2.0180 N   0  0  0  0  0  0  0  0  0  0  0  0
    1.3632   -3.0553    3.3649 N   0  0  0  0  0  0  0  0  0  0  0  0
   -1.1533    3.5662   -3.6283 C   0  0  2  0  0  0  0  0  0  0  0  0
   -1.2953    2.1389   -3.1445 C   0  0  1  0  0  0  0  0  0  0  0  0
   -0.8112    4.3248   -2.3446 C   0  0  1  0  0  0  0  0  0  0  0  0
   -0.3414    2.0970   -1.9619 C   0  0  1  0  0  0  0  0  0  0  0  0
    0.9304    1.2855   -2.2694 C   0  0  0  0  0  0  0  0  0  0  0  0
    1.2739    5.4302   -3.1010 C   0  0  0  0  0  0  0  0  0  0  0  0
   -0.2864    6.7791   -2.2998 C   0  0  0  0  0  0  0  0  0  0  0  0
    1.6721    6.7497   -3.1651 C   0  0  0  0  0  0  0  0  0  0  0  0
    2.9373    6.9836   -3.7203 C   0  0  0  0  0  0  0  0  0  0  0  0
    1.3925   -4.3827    1.1943 C   0  0  0  0  0  0  0  0  0  0  0  0
    1.9879   -3.2723    2.0383 C   0  0  1  0  0  0  0  0  0  0  0  0
    2.1339   -4.6338   -0.0967 C   0  0  0  0  0  0  0  0  0  0  0  0
    3.1505    4.6861   -4.0039 C   0  0  0  0  0  0  0  0  0  0  0  0
    2.3827   -5.9097   -0.7002 C   0  0  0  0  0  0  0  0  0  0  0  0
    2.0892   -1.9529    1.3077 C   0  0  0  0  0  0  0  0  0  0  0  0
    3.0604   -5.6861   -1.9006 C   0  0  0  0  0  0  0  0  0  0  0  0
    2.6820   -3.6975   -0.9563 C   0  0  0  0  0  0  0  0  0  0  0  0
    2.0786   -7.2383   -0.3438 C   0  0  0  0  0  0  0  0  0  0  0  0
    3.4371   -6.7106   -2.7697 C   0  0  0  0  0  0  0  0  0  0  0  0
    2.4467   -8.2789   -1.2040 C   0  0  0  0  0  0  0  0  0  0  0  0
    3.1132   -8.0153   -2.3989 C   0  0  0  0  0  0  0  0  0  0  0  0
   -3.0967    3.6991   -3.7709 H   0  0  0  0  0  0  0  0  0  0  0  0
   -2.8637    2.3982   -1.9448 H   0  0  0  0  0  0  0  0  0  0  0  0
   -1.0456   -0.6699   -0.6481 H   0  0  0  0  0  0  0  0  0  0  0  0
    2.9125    9.0336   -3.5417 H   0  0  0  0  0  0  0  0  0  0  0  0
    4.3782    8.3454   -4.2570 H   0  0  0  0  0  0  0  0  0  0  0  0
    3.7234   -3.8712   -2.7799 H   0  0  0  0  0  0  0  0  0  0  0  0
    1.4739   -3.9117    3.9079 H   0  0  0  0  0  0  0  0  0  0  0  0
    1.9464   -2.3680    3.8578 H   0  0  0  0  0  0  0  0  0  0  0  0
   -0.3337    3.6065   -4.3510 H   0  0  0  0  0  0  0  0  0  0  0  0
   -1.0497    1.3960   -3.9089 H   0  0  0  0  0  0  0  0  0  0  0  0
   -1.7155    4.6387   -1.8065 H   0  0  0  0  0  0  0  0  0  0  0  0
   -0.8939    1.7141   -1.1245 H   0  0  0  0  0  0  0  0  0  0  0  0
    1.8326    1.7760   -1.8784 H   0  0  0  0  0  0  0  0  0  0  0  0
    1.0887    1.1669   -3.3456 H   0  0  0  0  0  0  0  0  0  0  0  0
   -1.2239    7.0886   -1.8530 H   0  0  0  0  0  0  0  0  0  0  0  0
    1.4097   -5.3004    1.7990 H   0  0  0  0  0  0  0  0  0  0  0  0
    0.3464   -4.1570    0.9732 H   0  0  0  0  0  0  0  0  0  0  0  0
    3.0305   -3.5732    2.2548 H   0  0  0  0  0  0  0  0  0  0  0  0
    3.7701    3.8642   -4.3510 H   0  0  0  0  0  0  0  0  0  0  0  0
    2.7483   -2.6197   -0.9342 H   0  0  0  0  0  0  0  0  0  0  0  0
    1.5576   -7.4577    0.5829 H   0  0  0  0  0  0  0  0  0  0  0  0
    3.9549   -6.4996   -3.6991 H   0  0  0  0  0  0  0  0  0  0  0  0
    2.2047   -9.3038   -0.9370 H   0  0  0  0  0  0  0  0  0  0  0  0
    3.3878   -8.8356   -3.0562 H   0  0  0  0  0  0  0  0  0  0  0  0
  1  5  1  0  0  0  0
  1  6  1  0  0  0  0
  1  7  1  0  0  0  0
  1  8  2  0  0  0  0
  2 19  1  0  0  0  0
  2 20  1  0  0  0  0
  3 38  1  0  0  0  0
  4 39  1  0  0  0  0
  5 21  1  0  0  0  0
  6 31  1  0  0  0  0
  7 40  1  0  0  0  0
  9 31  2  0  0  0  0
 10 22  1  0  0  0  0
 10 23  1  0  0  0  0
 11 23  2  0  0  0  0
 11 24  1  0  0  0  0
 12 22  2  0  0  0  0
 12 29  1  0  0  0  0
 13 25  1  0  0  0  0
 13 29  2  0  0  0  0
 14 25  1  0  0  0  0
 14 41  1  0  0  0  0
 14 42  1  0  0  0  0
 15 32  1  0  0  0  0
 15 33  1  0  0  0  0
 15 43  1  0  0  0  0
 16 44  1  0  0  0  0
 16 45  1  0  0  0  0
 17  3  1  0  0  0  0
 17 18  1  0  0  0  0
 17 19  1  0  0  0  0
 17 46  1  6  0  0  0
 18  4  1  0  0  0  0
 18 20  1  0  0  0  0
 18 47  1  6  0  0  0
 19 48  1  1  0  0  0
 19 10  1  0  0  0  0
 20 21  1  0  0  0  0
 20 49  1  1  0  0  0
 21 50  1  0  0  0  0
 21 51  1  0  0  0  0
 22 24  1  0  0  0  0
 23 52  1  0  0  0  0
 24 25  2  0  0  0  0
 26 27  1  0  0  0  0
 26 28  1  0  0  0  0
 26 53  1  0  0  0  0
 26 54  1  0  0  0  0
 27 16  1  0  0  0  0
 27 31  1  0  0  0  0
 27 55  1  1  0  0  0
 28 30  1  0  0  0  0
 28 33  2  0  0  0  0
 29 56  1  0  0  0  0
 30 32  1  0  0  0  0
 30 34  2  0  0  0  0
 32 35  2  0  0  0  0
 33 57  1  0  0  0  0
 34 36  1  0  0  0  0
 34 58  1  0  0  0  0
 35 37  1  0  0  0  0
 35 59  1  0  0  0  0
 36 37  2  0  0  0  0
 36 60  1  0  0  0  0
 37 61  1  0  0  0  0
M  END
>  <DRUGBANK_ID>
DB01831

>  <SECONDARY_ACCESSION_NUMBERS>
EXPT03138

>  <COMMON_NAME>
Tryptophanyl-5'amp

$$$$
