
 OpenBabel10282417233D

 42 43  0  0  1  0  0  0  0  0999 V2000
   -4.4516    2.7791    4.8680 C   0  0  0  0  0  0  0  0  0  0  0  0
   -4.4346    1.3947    4.9399 C   0  0  0  0  0  0  0  0  0  0  0  0
   -4.3858    0.6331    3.7678 C   0  0  0  0  0  0  0  0  0  0  0  0
   -4.3444    1.2518    2.5115 C   0  0  0  0  0  0  0  0  0  0  0  0
   -4.3461    2.6687    2.4586 C   0  0  0  0  0  0  0  0  0  0  0  0
   -4.4006    3.4212    3.6360 C   0  0  0  0  0  0  0  0  0  0  0  0
   -4.4384    4.7899    3.6337 O   0  0  0  0  0  0  0  0  0  0  0  0
   -4.5394    3.4886    6.0323 O   0  0  0  0  0  0  0  0  0  0  0  0
   -4.5572    0.4625    1.2272 C   0  0  0  0  0  0  0  0  0  0  0  0
   -4.1853   -1.0475    1.1190 C   0  0  2  0  0  0  0  0  0  0  0  0
   -3.3025   -1.3844   -0.1001 C   0  0  0  0  0  0  0  0  0  0  0  0
   -5.4119   -1.8399    1.1041 O   0  0  0  0  0  0  0  0  0  0  0  0
   -2.6370   -0.6130   -0.7779 O   0  0  0  0  0  0  0  0  0  0  0  0
   -6.2284   -1.6036    0.0406 C   0  0  0  0  0  0  0  0  0  0  0  0
   -5.9789   -0.8405   -0.8843 O   0  0  0  0  0  0  0  0  0  0  0  0
   -7.5228   -2.3087    0.0922 C   0  0  0  0  0  0  0  0  0  0  0  0
   -3.2650   -2.7143   -0.3634 O   0  0  0  0  0  0  0  0  0  0  0  0
   -7.9369   -3.1516    1.0492 C   0  0  0  0  0  0  0  0  0  0  0  0
   -9.2422   -3.8405    0.9948 C   0  0  0  0  0  0  0  0  0  0  0  0
  -10.0154   -3.9362    2.1626 C   0  0  0  0  0  0  0  0  0  0  0  0
  -11.2370   -4.6203    2.1600 C   0  0  0  0  0  0  0  0  0  0  0  0
  -11.6831   -5.2249    0.9951 C   0  0  0  0  0  0  0  0  0  0  0  0
  -10.9305   -5.1445   -0.1724 C   0  0  0  0  0  0  0  0  0  0  0  0
   -9.7128   -4.4587   -0.1803 C   0  0  0  0  0  0  0  0  0  0  0  0
  -11.4246   -5.7607   -1.2904 O   0  0  0  0  0  0  0  0  0  0  0  0
  -12.8685   -5.9029    1.0236 O   0  0  0  0  0  0  0  0  0  0  0  0
   -4.4920    0.9074    5.9079 H   0  0  0  0  0  0  0  0  0  0  0  0
   -4.4370   -0.4475    3.8601 H   0  0  0  0  0  0  0  0  0  0  0  0
   -4.3550    3.1697    1.4927 H   0  0  0  0  0  0  0  0  0  0  0  0
   -4.3921    5.1039    2.7143 H   0  0  0  0  0  0  0  0  0  0  0  0
   -4.5528    4.4276    5.7643 H   0  0  0  0  0  0  0  0  0  0  0  0
   -5.6472    0.5289    1.1381 H   0  0  0  0  0  0  0  0  0  0  0  0
   -4.1421    1.0220    0.3820 H   0  0  0  0  0  0  0  0  0  0  0  0
   -3.5970   -1.3788    1.9850 H   0  0  0  0  0  0  0  0  0  0  0  0
   -8.1620   -2.0649   -0.7517 H   0  0  0  0  0  0  0  0  0  0  0  0
   -2.7185   -2.8009   -1.1738 H   0  0  0  0  0  0  0  0  0  0  0  0
   -7.3164   -3.3545    1.9187 H   0  0  0  0  0  0  0  0  0  0  0  0
   -9.6823   -3.4729    3.0887 H   0  0  0  0  0  0  0  0  0  0  0  0
  -11.8373   -4.6847    3.0625 H   0  0  0  0  0  0  0  0  0  0  0  0
   -9.1200   -4.4141   -1.0888 H   0  0  0  0  0  0  0  0  0  0  0  0
  -10.8043   -5.6169   -2.0258 H   0  0  0  0  0  0  0  0  0  0  0  0
  -12.9876   -6.2611    0.1227 H   0  0  0  0  0  0  0  0  0  0  0  0
  1  2  2  0  0  0  0
  1  8  1  0  0  0  0
  2  3  1  0  0  0  0
  2 27  1  0  0  0  0
  3  4  2  0  0  0  0
  3 28  1  0  0  0  0
  4  9  1  0  0  0  0
  4  5  1  0  0  0  0
  5  6  2  0  0  0  0
  5 29  1  0  0  0  0
  6  7  1  0  0  0  0
  6  1  1  0  0  0  0
  7 30  1  0  0  0  0
  8 31  1  0  0  0  0
  9 32  1  0  0  0  0
  9 33  1  0  0  0  0
 10 12  1  0  0  0  0
 10 34  1  1  0  0  0
 10 11  1  0  0  0  0
 10  9  1  0  0  0  0
 11 13  2  0  0  0  0
 11 17  1  0  0  0  0
 12 14  1  0  0  0  0
 14 15  2  0  0  0  0
 14 16  1  0  0  0  0
 16 18  2  0  0  0  0
 16 35  1  0  0  0  0
 17 36  1  0  0  0  0
 18 19  1  0  0  0  0
 18 37  1  0  0  0  0
 19 20  2  0  0  0  0
 20 21  1  0  0  0  0
 20 38  1  0  0  0  0
 21 22  2  0  0  0  0
 21 39  1  0  0  0  0
 22 23  1  0  0  0  0
 22 26  1  0  0  0  0
 23 24  2  0  0  0  0
 23 25  1  0  0  0  0
 24 19  1  0  0  0  0
 24 40  1  0  0  0  0
 25 41  1  0  0  0  0
 26 42  1  0  0  0  0
M  END
>  <DRUGBANK_ID>
DB16865

>  <COMMON_NAME>
Rosmarinic acid

>  <CAS_NUMBER>
20283-92-5

>  <UNII>
MQE6XG29YI

>  <SYNONYMS>
Labiatenic acid; Labiatic acid; Rosemary acid

$$$$
