
 OpenBabel10282417213D

 58 60  0  0  1  0  0  0  0  0999 V2000
    0.8607    0.0885   -0.0713 C   0  0  0  0  0  0  0  0  0  0  0  0
    0.4178   -0.4126    1.1988 O   0  0  0  0  0  0  0  0  0  0  0  0
    0.8656   -1.6816    1.4715 C   0  0  0  0  0  0  0  0  0  0  0  0
    2.1518   -2.1325    1.1652 C   0  0  0  0  0  0  0  0  0  0  0  0
    3.1291   -1.2050    0.9390 O   0  0  0  0  0  0  0  0  0  0  0  0
    4.4886   -1.6234    0.8160 C   0  0  0  0  0  0  0  0  0  0  0  0
    5.2071   -1.8801    2.1512 C   0  0  0  0  0  0  0  0  0  0  0  0
    4.7184   -3.0584    2.9703 C   0  0  0  0  0  0  0  0  0  0  0  0
    4.9159   -4.2027    2.2588 F   0  0  0  0  0  0  0  0  0  0  0  0
    2.4119   -3.4853    1.2555 C   0  0  0  0  0  0  0  0  0  0  0  0
    1.6258   -4.3236    2.0348 C   0  0  0  0  0  0  0  0  0  0  0  0
    2.2401   -5.5909    2.5474 C   0  0  0  0  0  0  0  0  0  0  0  0
    1.3051   -6.6134    3.1633 C   0  0  0  0  0  0  0  0  0  0  0  0
   -0.0803   -6.2510    3.2426 N   0  0  3  0  0  0  0  0  0  0  0  0
   -0.9939   -7.2882    3.6791 C   0  0  0  0  0  0  0  0  0  0  0  0
   -2.1695   -7.3629    2.6978 C   0  0  1  0  0  0  0  0  0  0  0  0
   -3.2267   -8.3689    3.1767 C   0  0  0  0  0  0  0  0  0  0  0  0
   -4.3978   -8.5138    2.1919 C   0  0  0  0  0  0  0  0  0  0  0  0
   -3.9212   -8.9810    0.8137 C   0  0  0  0  0  0  0  0  0  0  0  0
   -5.4732   -9.4312    2.7420 C   0  0  0  0  0  0  0  0  0  0  0  0
   -2.7599   -5.9577    2.4853 C   0  0  2  0  0  0  0  0  0  0  0  0
   -3.7554   -5.8840    1.4705 O   0  0  0  0  0  0  0  0  0  0  0  0
   -1.6912   -5.0127    2.0194 C   0  0  0  0  0  0  0  0  0  0  0  0
   -0.5814   -4.8933    3.0498 C   0  0  2  0  0  0  0  0  0  0  0  0
    0.3716   -3.8882    2.4418 C   0  0  0  0  0  0  0  0  0  0  0  0
   -0.0168   -2.5640    2.1103 C   0  0  0  0  0  0  0  0  0  0  0  0
    0.4100    1.0705   -0.2345 H   0  0  0  0  0  0  0  0  0  0  0  0
    0.5524   -0.5778   -0.8853 H   0  0  0  0  0  0  0  0  0  0  0  0
    1.9381    0.2620   -0.1190 H   0  0  0  0  0  0  0  0  0  0  0  0
    4.5935   -2.4355    0.0891 H   0  0  0  0  0  0  0  0  0  0  0  0
    4.9961   -0.7686    0.3501 H   0  0  0  0  0  0  0  0  0  0  0  0
    6.2645   -2.0551    1.9261 H   0  0  0  0  0  0  0  0  0  0  0  0
    5.1252   -0.9868    2.7769 H   0  0  0  0  0  0  0  0  0  0  0  0
    5.2581   -3.1824    3.9081 H   0  0  0  0  0  0  0  0  0  0  0  0
    3.6688   -2.9513    3.2505 H   0  0  0  0  0  0  0  0  0  0  0  0
    3.3415   -3.8940    0.8756 H   0  0  0  0  0  0  0  0  0  0  0  0
    2.9609   -5.3112    3.3279 H   0  0  0  0  0  0  0  0  0  0  0  0
    2.8042   -6.0601    1.7341 H   0  0  0  0  0  0  0  0  0  0  0  0
    1.6778   -6.8874    4.1587 H   0  0  0  0  0  0  0  0  0  0  0  0
    1.3979   -7.5242    2.5559 H   0  0  0  0  0  0  0  0  0  0  0  0
   -1.3280   -7.1022    4.7061 H   0  0  0  0  0  0  0  0  0  0  0  0
   -0.4947   -8.2691    3.6954 H   0  0  0  0  0  0  0  0  0  0  0  0
   -1.7521   -7.7282    1.7498 H   0  0  0  0  0  0  0  0  0  0  0  0
   -2.7571   -9.3494    3.3332 H   0  0  0  0  0  0  0  0  0  0  0  0
   -3.6033   -8.0481    4.1570 H   0  0  0  0  0  0  0  0  0  0  0  0
   -4.9107   -7.5565    2.0909 H   0  0  0  0  0  0  0  0  0  0  0  0
   -3.4678   -9.9743    0.8777 H   0  0  0  0  0  0  0  0  0  0  0  0
   -4.7531   -9.0130    0.1057 H   0  0  0  0  0  0  0  0  0  0  0  0
   -3.1732   -8.3147    0.3731 H   0  0  0  0  0  0  0  0  0  0  0  0
   -5.8370   -9.0499    3.7022 H   0  0  0  0  0  0  0  0  0  0  0  0
   -6.3227   -9.4547    2.0515 H   0  0  0  0  0  0  0  0  0  0  0  0
   -5.0967  -10.4458    2.8809 H   0  0  0  0  0  0  0  0  0  0  0  0
   -3.2064   -5.6010    3.4205 H   0  0  0  0  0  0  0  0  0  0  0  0
   -3.3633   -6.2257    0.6488 H   0  0  0  0  0  0  0  0  0  0  0  0
   -1.2795   -5.3752    1.0614 H   0  0  0  0  0  0  0  0  0  0  0  0
   -2.1597   -4.0528    1.7795 H   0  0  0  0  0  0  0  0  0  0  0  0
   -0.9548   -4.5028    4.0057 H   0  0  0  0  0  0  0  0  0  0  0  0
   -1.0283   -2.2158    2.3313 H   0  0  0  0  0  0  0  0  0  0  0  0
  1  2  1  0  0  0  0
  1 27  1  0  0  0  0
  1 28  1  0  0  0  0
  1 29  1  0  0  0  0
  2  3  1  0  0  0  0
  3  4  2  0  0  0  0
  3 26  1  0  0  0  0
  4  5  1  0  0  0  0
  4 10  1  0  0  0  0
  5  6  1  0  0  0  0
  6  7  1  0  0  0  0
  6 30  1  0  0  0  0
  6 31  1  0  0  0  0
  7  8  1  0  0  0  0
  7 32  1  0  0  0  0
  7 33  1  0  0  0  0
  8  9  1  0  0  0  0
  8 34  1  0  0  0  0
  8 35  1  0  0  0  0
 10 11  2  0  0  0  0
 10 36  1  0  0  0  0
 11 12  1  0  0  0  0
 11 25  1  0  0  0  0
 12 13  1  0  0  0  0
 12 37  1  0  0  0  0
 12 38  1  0  0  0  0
 13 14  1  0  0  0  0
 13 39  1  0  0  0  0
 13 40  1  0  0  0  0
 14 15  1  0  0  0  0
 15 41  1  0  0  0  0
 15 42  1  0  0  0  0
 16 15  1  0  0  0  0
 16 17  1  0  0  0  0
 16 21  1  0  0  0  0
 16 43  1  6  0  0  0
 17 18  1  0  0  0  0
 17 44  1  0  0  0  0
 17 45  1  0  0  0  0
 18 19  1  0  0  0  0
 18 20  1  0  0  0  0
 18 46  1  0  0  0  0
 19 47  1  0  0  0  0
 19 48  1  0  0  0  0
 19 49  1  0  0  0  0
 20 50  1  0  0  0  0
 20 51  1  0  0  0  0
 20 52  1  0  0  0  0
 21 22  1  0  0  0  0
 21 23  1  0  0  0  0
 21 53  1  1  0  0  0
 22 54  1  0  0  0  0
 23 55  1  0  0  0  0
 23 56  1  0  0  0  0
 24 23  1  0  0  0  0
 24 14  1  0  0  0  0
 24 25  1  0  0  0  0
 24 57  1  1  0  0  0
 25 26  2  0  0  0  0
 26 58  1  0  0  0  0
M  ISO  1   9  18
M  END
>  <DRUGBANK_ID>
DB14945

>  <COMMON_NAME>
Florbenazine F-18

>  <CAS_NUMBER>
956903-29-0

>  <UNII>
KM31LBX59H

>  <SYNONYMS>
18F-AV-133

$$$$
