
 OpenBabel10282417153D

204209  0  0  0  0  0  0  0  0999 V2000
   -6.4200    8.9644   -1.4464 C   0  0  0  0  0  0  0  0  0  0  0  0
   -6.7991    7.8158   -1.6870 O   0  0  0  0  0  0  0  0  0  0  0  0
   -7.0767   10.4387   -2.0192 C   0  0  2  0  0  0  0  0  0  0  0  0
   -7.9765   10.4347   -3.2680 N   0  0  0  0  0  0  0  0  0  0  0  0
   -5.8210   11.1856   -2.2669 C   0  0  0  0  0  0  0  0  0  0  0  0
   -5.3032    8.9968   -0.6489 N   0  0  0  0  0  0  0  0  0  0  0  0
   -8.8841   10.9217   -4.2184 C   0  0  0  0  0  0  0  0  0  0  0  0
   -9.7689    8.3509   -5.5197 N   0  0  0  0  0  0  0  0  0  0  0  0
   -9.3019    9.7920   -5.5567 C   0  0  1  0  0  0  0  0  0  0  0  0
   -9.2872   12.1105   -4.2432 O   0  0  0  0  0  0  0  0  0  0  0  0
  -10.6353    8.0012   -6.6195 C   0  0  0  0  0  0  0  0  0  0  0  0
  -10.4870   10.3897   -6.2874 C   0  0  0  0  0  0  0  0  0  0  0  0
  -10.9951    9.3198   -7.2537 C   0  0  0  0  0  0  0  0  0  0  0  0
   -9.3916    7.3340   -4.7032 C   0  0  0  0  0  0  0  0  0  0  0  0
   -9.8147    6.1659   -4.7604 O   0  0  0  0  0  0  0  0  0  0  0  0
   -8.5195    7.7732   -3.6174 C   0  0  1  0  0  0  0  0  0  0  0  0
   -7.1431    8.4662   -4.4126 N   0  0  0  0  0  0  0  0  0  0  0  0
   -9.3636    9.1818    0.9046 N   0  0  0  0  0  0  0  0  0  0  0  0
   -9.0164    7.8920    0.3047 C   0  0  0  0  0  0  0  0  0  0  0  0
   -9.3658    8.6330   -2.6127 C   0  0  0  0  0  0  0  0  0  0  0  0
  -10.0315    7.3065   -0.7103 C   0  0  0  0  0  0  0  0  0  0  0  0
  -10.5217    8.2563   -1.7720 C   0  0  0  0  0  0  0  0  0  0  0  0
   -8.3620    9.6649    1.8716 C   0  0  0  0  0  0  0  0  0  0  0  0
   -7.0401   10.0758    1.2763 C   0  0  0  0  0  0  0  0  0  0  0  0
   -8.9026   10.8937    2.5586 C   0  0  0  0  0  0  0  0  0  0  0  0
   -6.4527    9.6289   -4.9673 C   0  0  0  0  0  0  0  0  0  0  0  0
   -4.9483    9.8180   -5.0190 C   0  0  2  0  0  0  0  0  0  0  0  0
   -6.9550   10.6678   -5.4031 O   0  0  0  0  0  0  0  0  0  0  0  0
   -4.0393    8.8059   -4.5012 C   0  0  0  0  0  0  0  0  0  0  0  0
   -4.3371   11.1410   -4.5851 N   0  0  0  0  0  0  0  0  0  0  0  0
   -4.6458    7.7577   -3.6459 C   0  0  0  0  0  0  0  0  0  0  0  0
   -5.1501    6.5576   -4.4365 C   0  0  0  0  0  0  0  0  0  0  0  0
   -3.8553    7.4234   -2.4311 C   0  0  0  0  0  0  0  0  0  0  0  0
   -4.3139   12.3432   -5.1777 C   0  0  0  0  0  0  0  0  0  0  0  0
   -4.1200   13.3637   -4.5049 O   0  0  0  0  0  0  0  0  0  0  0  0
   -4.6689   12.3217   -6.6019 C   0  0  2  0  0  0  0  0  0  0  0  0
   -4.0288   11.1736   -7.3082 N   0  0  0  0  0  0  0  0  0  0  0  0
   -6.6858   15.7441   -9.1259 N   0  0  0  0  0  0  0  0  0  0  0  0
   -7.0862   14.6630   -8.2405 C   0  0  0  0  0  0  0  0  0  0  0  0
   -4.3550   13.6872   -7.1616 C   0  0  0  0  0  0  0  0  0  0  0  0
   -6.3559   13.4493   -8.6822 C   0  0  0  0  0  0  0  0  0  0  0  0
   -4.8560   13.6238   -8.5491 C   0  0  0  0  0  0  0  0  0  0  0  0
   -7.4529   16.4793   -9.9381 C   0  0  0  0  0  0  0  0  0  0  0  0
   -6.9674   17.3981  -10.6129 O   0  0  0  0  0  0  0  0  0  0  0  0
   -8.7521   16.1694  -10.0018 N   0  0  0  0  0  0  0  0  0  0  0  0
   -2.7091   11.1098   -7.6655 C   0  0  0  0  0  0  0  0  0  0  0  0
   -2.2585    9.8222   -8.3670 C   0  0  2  0  0  0  0  0  0  0  0  0
   -1.9432   12.0611   -7.5538 O   0  0  0  0  0  0  0  0  0  0  0  0
   -2.5017    9.7309   -9.8722 C   0  0  0  0  0  0  0  0  0  0  0  0
   -3.7703   10.3261  -10.4119 C   0  0  0  0  0  0  0  0  0  0  0  0
   -2.7206    8.6004   -7.7307 N   0  0  0  0  0  0  0  0  0  0  0  0
   -6.1194   11.5986  -11.2907 C   0  0  0  0  0  0  0  0  0  0  0  0
   -4.9102    9.5842  -10.7289 C   0  0  0  0  0  0  0  0  0  0  0  0
   -3.7945   11.6983  -10.6417 C   0  0  0  0  0  0  0  0  0  0  0  0
   -6.0878   10.2249  -11.1378 C   0  0  0  0  0  0  0  0  0  0  0  0
   -4.9528   12.3314  -11.1196 C   0  0  0  0  0  0  0  0  0  0  0  0
   -7.3418   12.1718  -11.5127 O   0  0  0  0  0  0  0  0  0  0  0  0
   -1.7493    7.7370   -7.2646 C   0  0  0  0  0  0  0  0  0  0  0  0
   -2.2725    6.5391   -6.5429 C   0  0  1  0  0  0  0  0  0  0  0  0
   -0.5525    8.0085   -7.2425 O   0  0  0  0  0  0  0  0  0  0  0  0
   -1.8038    5.1681   -6.8381 N   0  0  0  0  0  0  0  0  0  0  0  0
   -1.6957    6.8822   -5.2001 C   0  0  0  0  0  0  0  0  0  0  0  0
   -1.7826    7.9730   -4.3583 O   0  0  0  0  0  0  0  0  0  0  0  0
   -1.2362    4.2073   -6.0076 C   0  0  0  0  0  0  0  0  0  0  0  0
   -0.6687    3.2758   -6.5955 O   0  0  0  0  0  0  0  0  0  0  0  0
   -1.1342    4.3017   -4.3946 C   0  0  2  0  0  0  0  0  0  0  0  0
   -0.6019    3.0717   -3.8084 N   0  0  0  0  0  0  0  0  0  0  0  0
   -2.3873    4.5912   -3.5470 C   0  0  0  0  0  0  0  0  0  0  0  0
   -2.7517    4.3070    0.1090 N   0  0  0  0  0  0  0  0  0  0  0  0
   -2.7642    4.0904   -1.2072 C   0  0  0  0  0  0  0  0  0  0  0  0
   -2.0907    5.4087    0.5267 C   0  0  0  0  0  0  0  0  0  0  0  0
   -1.4256    6.2967   -0.3005 C   0  0  0  0  0  0  0  0  0  0  0  0
   -2.0727    4.8602   -2.1099 C   0  0  0  0  0  0  0  0  0  0  0  0
   -1.3671    5.9870   -1.6471 C   0  0  0  0  0  0  0  0  0  0  0  0
   -1.4776    2.0284   -3.6451 C   0  0  0  0  0  0  0  0  0  0  0  0
   -1.1448    0.8156   -2.7549 C   0  0  1  0  0  0  0  0  0  0  0  0
   -2.5454    2.0780   -4.2594 O   0  0  0  0  0  0  0  0  0  0  0  0
   -1.9183    0.7042   -1.4593 C   0  0  0  0  0  0  0  0  0  0  0  0
   -1.2798   -0.3671   -3.6045 N   0  0  0  0  0  0  0  0  0  0  0  0
   -3.4063    0.6621   -1.5881 C   0  0  0  0  0  0  0  0  0  0  0  0
   -4.0674    0.4504   -2.8059 C   0  0  0  0  0  0  0  0  0  0  0  0
   -4.1734    0.9238   -0.4613 C   0  0  0  0  0  0  0  0  0  0  0  0
   -5.5595    0.9885   -0.5877 C   0  0  0  0  0  0  0  0  0  0  0  0
   -5.4301    0.5249   -2.9466 C   0  0  0  0  0  0  0  0  0  0  0  0
   -6.1782    0.7817   -1.8246 C   0  0  0  0  0  0  0  0  0  0  0  0
   -7.8791    0.8579   -1.9903 Cl  0  0  0  0  0  0  0  0  0  0  0  0
   -0.3346   -1.0838   -4.2349 C   0  0  0  0  0  0  0  0  0  0  0  0
   -0.6872   -2.0129   -4.9597 O   0  0  0  0  0  0  0  0  0  0  0  0
    1.1100   -0.8082   -3.9052 C   0  0  2  0  0  0  0  0  0  0  0  0
    1.3705   -1.3772   -2.5753 N   0  0  0  0  0  0  0  0  0  0  0  0
    1.4876    0.6727   -4.0721 C   0  0  0  0  0  0  0  0  0  0  0  0
    5.1293    0.4248   -3.3896 C   0  0  0  0  0  0  0  0  0  0  0  0
    5.3816    1.6249   -2.6878 C   0  0  0  0  0  0  0  0  0  0  0  0
    6.1298   -0.5041   -3.6411 C   0  0  0  0  0  0  0  0  0  0  0  0
    6.6804    1.8755   -2.2625 C   0  0  0  0  0  0  0  0  0  0  0  0
    4.3431    2.5273   -2.4345 C   0  0  0  0  0  0  0  0  0  0  0  0
    3.8686    0.1561   -3.8531 C   0  0  0  0  0  0  0  0  0  0  0  0
    2.8408    1.0413   -3.5922 C   0  0  0  0  0  0  0  0  0  0  0  0
    3.0637    2.2239   -2.8640 C   0  0  0  0  0  0  0  0  0  0  0  0
    7.6910    0.9507   -2.5305 C   0  0  0  0  0  0  0  0  0  0  0  0
    7.4169   -0.2360   -3.2116 C   0  0  0  0  0  0  0  0  0  0  0  0
    1.8211   -2.6421   -2.3186 C   0  0  0  0  0  0  0  0  0  0  0  0
    1.9124   -3.0344   -1.1580 O   0  0  0  0  0  0  0  0  0  0  0  0
    2.2218   -3.4959   -3.4910 C   0  0  0  0  0  0  0  0  0  0  0  0
   -7.7067   10.8821   -1.2713 H   0  0  0  0  0  0  0  0  0  0  0  0
   -7.7629    9.5433   -3.6342 H   0  0  0  0  0  0  0  0  0  0  0  0
   -5.9807   12.0225   -2.9343 H   0  0  0  0  0  0  0  0  0  0  0  0
   -5.2912   11.4909   -1.3689 H   0  0  0  0  0  0  0  0  0  0  0  0
   -5.1446   10.4397   -2.6783 H   0  0  0  0  0  0  0  0  0  0  0  0
   -5.0830    8.1188   -0.1748 H   0  0  0  0  0  0  0  0  0  0  0  0
   -4.9546    9.8352   -0.2183 H   0  0  0  0  0  0  0  0  0  0  0  0
   -8.4960    9.7556   -6.3100 H   0  0  0  0  0  0  0  0  0  0  0  0
  -11.4982    7.4535   -6.2239 H   0  0  0  0  0  0  0  0  0  0  0  0
  -10.1156    7.3305   -7.3218 H   0  0  0  0  0  0  0  0  0  0  0  0
  -11.2439   10.5906   -5.5274 H   0  0  0  0  0  0  0  0  0  0  0  0
  -10.2205   11.3148   -6.7985 H   0  0  0  0  0  0  0  0  0  0  0  0
  -12.0747    9.4012   -7.3967 H   0  0  0  0  0  0  0  0  0  0  0  0
  -10.5116    9.4070   -8.2321 H   0  0  0  0  0  0  0  0  0  0  0  0
   -8.1283    6.8696   -3.1296 H   0  0  0  0  0  0  0  0  0  0  0  0
   -6.8370    7.6292   -4.8451 H   0  0  0  0  0  0  0  0  0  0  0  0
   -9.4853    9.8858    0.1746 H   0  0  0  0  0  0  0  0  0  0  0  0
   -8.7507    7.1216    1.0314 H   0  0  0  0  0  0  0  0  0  0  0  0
   -8.0895    8.0653   -0.1904 H   0  0  0  0  0  0  0  0  0  0  0  0
   -8.7116    9.0116   -1.8520 H   0  0  0  0  0  0  0  0  0  0  0  0
   -9.8579    9.4480   -3.1179 H   0  0  0  0  0  0  0  0  0  0  0  0
  -10.9014    6.9277   -0.1849 H   0  0  0  0  0  0  0  0  0  0  0  0
   -9.5391    6.4806   -1.2396 H   0  0  0  0  0  0  0  0  0  0  0  0
  -10.8807    9.1972   -1.3116 H   0  0  0  0  0  0  0  0  0  0  0  0
  -11.3107    7.9144   -2.4401 H   0  0  0  0  0  0  0  0  0  0  0  0
   -8.1555    8.8724    2.5969 H   0  0  0  0  0  0  0  0  0  0  0  0
   -7.1404   10.8374    0.5040 H   0  0  0  0  0  0  0  0  0  0  0  0
   -6.2981   10.4637    1.9766 H   0  0  0  0  0  0  0  0  0  0  0  0
   -6.6312    9.1496    0.9220 H   0  0  0  0  0  0  0  0  0  0  0  0
   -9.8339   10.6552    3.0698 H   0  0  0  0  0  0  0  0  0  0  0  0
   -8.1712   11.2542    3.2894 H   0  0  0  0  0  0  0  0  0  0  0  0
   -9.0793   11.6996    1.8354 H   0  0  0  0  0  0  0  0  0  0  0  0
   -4.9092    9.7332   -6.0883 H   0  0  0  0  0  0  0  0  0  0  0  0
   -3.6399    8.3873   -5.4108 H   0  0  0  0  0  0  0  0  0  0  0  0
   -3.2810    9.3540   -3.9318 H   0  0  0  0  0  0  0  0  0  0  0  0
   -4.0088   11.3119   -3.6427 H   0  0  0  0  0  0  0  0  0  0  0  0
   -5.4519    8.2821   -3.2161 H   0  0  0  0  0  0  0  0  0  0  0  0
   -4.4290    5.8354   -4.7640 H   0  0  0  0  0  0  0  0  0  0  0  0
   -5.9007    6.0351   -3.8374 H   0  0  0  0  0  0  0  0  0  0  0  0
   -5.5351    6.8523   -5.4189 H   0  0  0  0  0  0  0  0  0  0  0  0
   -3.4000    8.2779   -1.9216 H   0  0  0  0  0  0  0  0  0  0  0  0
   -4.4077    6.7866   -1.7362 H   0  0  0  0  0  0  0  0  0  0  0  0
   -3.0329    6.8902   -2.7996 H   0  0  0  0  0  0  0  0  0  0  0  0
   -5.7458   12.1338   -6.6212 H   0  0  0  0  0  0  0  0  0  0  0  0
   -4.6393   10.4557   -7.6729 H   0  0  0  0  0  0  0  0  0  0  0  0
   -5.7007   15.9839   -9.1893 H   0  0  0  0  0  0  0  0  0  0  0  0
   -8.1455   14.4315   -8.3172 H   0  0  0  0  0  0  0  0  0  0  0  0
   -6.8492   14.9266   -7.2129 H   0  0  0  0  0  0  0  0  0  0  0  0
   -4.8067   14.5156   -6.6132 H   0  0  0  0  0  0  0  0  0  0  0  0
   -3.2777   13.8643   -7.1545 H   0  0  0  0  0  0  0  0  0  0  0  0
   -6.6092   13.3746   -9.7183 H   0  0  0  0  0  0  0  0  0  0  0  0
   -6.7360   12.5125   -8.2561 H   0  0  0  0  0  0  0  0  0  0  0  0
   -4.4022   14.3925   -9.1739 H   0  0  0  0  0  0  0  0  0  0  0  0
   -4.4523   12.6962   -8.8760 H   0  0  0  0  0  0  0  0  0  0  0  0
   -9.1784   15.4518   -9.4403 H   0  0  0  0  0  0  0  0  0  0  0  0
   -9.3603   16.7958  -10.5037 H   0  0  0  0  0  0  0  0  0  0  0  0
   -1.1718    9.8508   -8.2260 H   0  0  0  0  0  0  0  0  0  0  0  0
   -1.6659   10.2429  -10.3604 H   0  0  0  0  0  0  0  0  0  0  0  0
   -2.4411    8.6847  -10.1965 H   0  0  0  0  0  0  0  0  0  0  0  0
   -3.7009    8.3455   -7.7673 H   0  0  0  0  0  0  0  0  0  0  0  0
   -4.8953    8.5009  -10.6900 H   0  0  0  0  0  0  0  0  0  0  0  0
   -2.9647   12.3099  -10.2639 H   0  0  0  0  0  0  0  0  0  0  0  0
   -6.9909    9.6635  -11.3515 H   0  0  0  0  0  0  0  0  0  0  0  0
   -4.9653   13.4211  -11.1410 H   0  0  0  0  0  0  0  0  0  0  0  0
   -7.3048   13.1399  -11.3998 H   0  0  0  0  0  0  0  0  0  0  0  0
   -3.3718    6.5087   -6.6124 H   0  0  0  0  0  0  0  0  0  0  0  0
   -1.7856    4.8973   -7.8168 H   0  0  0  0  0  0  0  0  0  0  0  0
   -2.3928    6.2538   -4.7683 H   0  0  0  0  0  0  0  0  0  0  0  0
   -0.6712    6.5749   -5.1013 H   0  0  0  0  0  0  0  0  0  0  0  0
   -1.5922    8.7858   -4.8398 H   0  0  0  0  0  0  0  0  0  0  0  0
   -0.3222    5.0089   -4.1756 H   0  0  0  0  0  0  0  0  0  0  0  0
    0.3845    3.0556   -3.6142 H   0  0  0  0  0  0  0  0  0  0  0  0
   -3.0803    5.3716   -3.7168 H   0  0  0  0  0  0  0  0  0  0  0  0
   -3.1917    3.8883   -3.7509 H   0  0  0  0  0  0  0  0  0  0  0  0
   -3.4031    3.2995   -1.5816 H   0  0  0  0  0  0  0  0  0  0  0  0
   -2.1369    5.5727    1.5944 H   0  0  0  0  0  0  0  0  0  0  0  0
   -1.0161    7.2261    0.0803 H   0  0  0  0  0  0  0  0  0  0  0  0
   -0.9604    6.7373   -2.3310 H   0  0  0  0  0  0  0  0  0  0  0  0
   -0.1606    0.8681   -2.3180 H   0  0  0  0  0  0  0  0  0  0  0  0
   -1.5682   -0.1993   -0.9397 H   0  0  0  0  0  0  0  0  0  0  0  0
   -1.6151    1.5531   -0.8272 H   0  0  0  0  0  0  0  0  0  0  0  0
   -2.1815   -0.6462   -3.9625 H   0  0  0  0  0  0  0  0  0  0  0  0
   -3.5778    0.3249   -3.7555 H   0  0  0  0  0  0  0  0  0  0  0  0
   -3.6923    1.1393    0.4927 H   0  0  0  0  0  0  0  0  0  0  0  0
   -6.1537    1.2260    0.2848 H   0  0  0  0  0  0  0  0  0  0  0  0
   -5.8452    0.4124   -3.9435 H   0  0  0  0  0  0  0  0  0  0  0  0
    1.6670   -1.3677   -4.6554 H   0  0  0  0  0  0  0  0  0  0  0  0
    1.0681   -0.8938   -1.7373 H   0  0  0  0  0  0  0  0  0  0  0  0
    1.2664    1.0371   -5.0790 H   0  0  0  0  0  0  0  0  0  0  0  0
    0.9299    1.3217   -3.4480 H   0  0  0  0  0  0  0  0  0  0  0  0
    5.9120   -1.4282   -4.1726 H   0  0  0  0  0  0  0  0  0  0  0  0
    6.9102    2.7886   -1.7230 H   0  0  0  0  0  0  0  0  0  0  0  0
    4.5207    3.4593   -1.9047 H   0  0  0  0  0  0  0  0  0  0  0  0
    3.6720   -0.7616   -4.3951 H   0  0  0  0  0  0  0  0  0  0  0  0
    2.2601    2.9099   -2.6044 H   0  0  0  0  0  0  0  0  0  0  0  0
    8.7028    1.1584   -2.2024 H   0  0  0  0  0  0  0  0  0  0  0  0
    8.2035   -0.9545   -3.4133 H   0  0  0  0  0  0  0  0  0  0  0  0
    1.3623   -3.6719   -4.1427 H   0  0  0  0  0  0  0  0  0  0  0  0
    3.0256   -3.0094   -4.0492 H   0  0  0  0  0  0  0  0  0  0  0  0
    2.5922   -4.4604   -3.1373 H   0  0  0  0  0  0  0  0  0  0  0  0
  1  2  2  0  0  0  0
  1  6  1  0  0  0  0
  3  5  1  0  0  0  0
  3105  1  1  0  0  0
  3  4  1  0  0  0  0
  3  1  1  0  0  0  0
  4  7  1  0  0  0  0
  4106  1  0  0  0  0
  5107  1  0  0  0  0
  5108  1  0  0  0  0
  5109  1  0  0  0  0
  6110  1  0  0  0  0
  6111  1  0  0  0  0
  7 10  2  0  0  0  0
  8  9  1  0  0  0  0
  8 11  1  0  0  0  0
  8 14  1  0  0  0  0
  9  7  1  0  0  0  0
  9 12  1  0  0  0  0
  9112  1  6  0  0  0
 11 13  1  0  0  0  0
 11113  1  0  0  0  0
 11114  1  0  0  0  0
 12 13  1  0  0  0  0
 12115  1  0  0  0  0
 12116  1  0  0  0  0
 13117  1  0  0  0  0
 13118  1  0  0  0  0
 14 15  2  0  0  0  0
 16 14  1  0  0  0  0
 16 17  1  0  0  0  0
 16 20  1  0  0  0  0
 16119  1  1  0  0  0
 17 26  1  0  0  0  0
 17120  1  0  0  0  0
 18 19  1  0  0  0  0
 18 23  1  0  0  0  0
 18121  1  0  0  0  0
 19 21  1  0  0  0  0
 19122  1  0  0  0  0
 19123  1  0  0  0  0
 20 22  1  0  0  0  0
 20124  1  0  0  0  0
 20125  1  0  0  0  0
 21 22  1  0  0  0  0
 21126  1  0  0  0  0
 21127  1  0  0  0  0
 22128  1  0  0  0  0
 22129  1  0  0  0  0
 23 24  1  0  0  0  0
 23 25  1  0  0  0  0
 23130  1  0  0  0  0
 24131  1  0  0  0  0
 24132  1  0  0  0  0
 24133  1  0  0  0  0
 25134  1  0  0  0  0
 25135  1  0  0  0  0
 25136  1  0  0  0  0
 26 28  2  0  0  0  0
 27 30  1  0  0  0  0
 27137  1  6  0  0  0
 27 29  1  0  0  0  0
 27 26  1  0  0  0  0
 29 31  1  0  0  0  0
 29138  1  0  0  0  0
 29139  1  0  0  0  0
 30 34  1  0  0  0  0
 30140  1  0  0  0  0
 31 32  1  0  0  0  0
 31 33  1  0  0  0  0
 31141  1  0  0  0  0
 32142  1  0  0  0  0
 32143  1  0  0  0  0
 32144  1  0  0  0  0
 33145  1  0  0  0  0
 33146  1  0  0  0  0
 33147  1  0  0  0  0
 34 35  2  0  0  0  0
 36 40  1  0  0  0  0
 36148  1  6  0  0  0
 36 37  1  0  0  0  0
 36 34  1  0  0  0  0
 37 46  1  0  0  0  0
 37149  1  0  0  0  0
 38 39  1  0  0  0  0
 38 43  1  0  0  0  0
 38150  1  0  0  0  0
 39 41  1  0  0  0  0
 39151  1  0  0  0  0
 39152  1  0  0  0  0
 40 42  1  0  0  0  0
 40153  1  0  0  0  0
 40154  1  0  0  0  0
 41 42  1  0  0  0  0
 41155  1  0  0  0  0
 41156  1  0  0  0  0
 42157  1  0  0  0  0
 42158  1  0  0  0  0
 43 44  2  0  0  0  0
 43 45  1  0  0  0  0
 45159  1  0  0  0  0
 45160  1  0  0  0  0
 46 48  2  0  0  0  0
 47 51  1  0  0  0  0
 47161  1  1  0  0  0
 47 49  1  0  0  0  0
 47 46  1  0  0  0  0
 49 50  1  0  0  0  0
 49162  1  0  0  0  0
 49163  1  0  0  0  0
 50 53  2  0  0  0  0
 50 54  1  0  0  0  0
 51 58  1  0  0  0  0
 51164  1  0  0  0  0
 52 56  1  0  0  0  0
 52 57  1  0  0  0  0
 52 55  2  0  0  0  0
 53 55  1  0  0  0  0
 53165  1  0  0  0  0
 54 56  2  0  0  0  0
 54166  1  0  0  0  0
 55167  1  0  0  0  0
 56168  1  0  0  0  0
 57169  1  0  0  0  0
 58 60  2  0  0  0  0
 59 58  1  0  0  0  0
 59 61  1  0  0  0  0
 59 62  1  0  0  0  0
 59170  1  1  0  0  0
 61 64  1  0  0  0  0
 61171  1  0  0  0  0
 62 63  1  0  0  0  0
 62172  1  0  0  0  0
 62173  1  0  0  0  0
 63174  1  0  0  0  0
 64 65  2  0  0  0  0
 66 68  1  0  0  0  0
 66175  1  1  0  0  0
 66 67  1  0  0  0  0
 66 64  1  0  0  0  0
 67 75  1  0  0  0  0
 67176  1  0  0  0  0
 68 73  1  0  0  0  0
 68177  1  0  0  0  0
 68178  1  0  0  0  0
 69 70  2  0  0  0  0
 69 71  1  0  0  0  0
 70 73  1  0  0  0  0
 70179  1  0  0  0  0
 71 72  2  0  0  0  0
 71180  1  0  0  0  0
 72 74  1  0  0  0  0
 72181  1  0  0  0  0
 73 74  2  0  0  0  0
 74182  1  0  0  0  0
 75 77  2  0  0  0  0
 76 75  1  0  0  0  0
 76 78  1  0  0  0  0
 76 79  1  0  0  0  0
 76183  1  1  0  0  0
 78 80  1  0  0  0  0
 78184  1  0  0  0  0
 78185  1  0  0  0  0
 79 87  1  0  0  0  0
 79186  1  0  0  0  0
 80 81  2  0  0  0  0
 80 82  1  0  0  0  0
 81 84  1  0  0  0  0
 81187  1  0  0  0  0
 82 83  2  0  0  0  0
 82188  1  0  0  0  0
 83 85  1  0  0  0  0
 83189  1  0  0  0  0
 84 85  2  0  0  0  0
 84190  1  0  0  0  0
 85 86  1  0  0  0  0
 87 88  2  0  0  0  0
 89 91  1  0  0  0  0
 89191  1  6  0  0  0
 89 90  1  0  0  0  0
 89 87  1  0  0  0  0
 90102  1  0  0  0  0
 90192  1  0  0  0  0
 91 98  1  0  0  0  0
 91193  1  0  0  0  0
 91194  1  0  0  0  0
 92 93  2  0  0  0  0
 92 94  1  0  0  0  0
 92 97  1  0  0  0  0
 93 95  1  0  0  0  0
 93 96  1  0  0  0  0
 94101  2  0  0  0  0
 94195  1  0  0  0  0
 95100  2  0  0  0  0
 95196  1  0  0  0  0
 96 99  2  0  0  0  0
 96197  1  0  0  0  0
 97 98  2  0  0  0  0
 97198  1  0  0  0  0
 98 99  1  0  0  0  0
 99199  1  0  0  0  0
100101  1  0  0  0  0
100200  1  0  0  0  0
101201  1  0  0  0  0
102103  2  0  0  0  0
102104  1  0  0  0  0
104202  1  0  0  0  0
104203  1  0  0  0  0
104204  1  0  0  0  0
M  END
>  <DRUGBANK_ID>
DB05624

>  <COMMON_NAME>
Teverelix

>  <CAS_NUMBER>
151272-78-5

>  <UNII>
D19V7048JK

>  <SYNONYMS>
Antarelix; Teverelix

$$$$
