MIA
 OpenBabel10282417173D

 56 58  0  0  0  0  0  0  0  0999 V2000
    0.5487    0.0430   -0.3323 O   0  0  0  0  0  0  0  0  0  0  0  0
    0.8797    0.8598   -1.6669 P   0  0  0  0  0  0  0  0  0  0  0  0
    1.2534    2.2612   -1.3927 O   0  0  0  0  0  0  0  0  0  0  0  0
    2.1156   -0.0934   -1.9854 O   0  0  0  0  0  0  0  0  0  0  0  0
   -0.2791    0.5558   -2.7397 O   0  0  0  0  0  0  0  0  0  0  0  0
   -0.3390   -0.3835   -3.8259 C   0  0  0  0  0  0  0  0  0  0  0  0
    0.9738   -1.1019   -4.1179 C   0  0  1  0  0  0  0  0  0  0  0  0
    1.1516   -1.9910   -2.9824 O   0  0  0  0  0  0  0  0  0  0  0  0
    1.1879   -1.9485   -5.3763 C   0  0  1  0  0  0  0  0  0  0  0  0
    2.5018   -1.6821   -5.9163 O   0  0  0  0  0  0  0  0  0  0  0  0
    1.1652   -3.3914   -4.8819 C   0  0  1  0  0  0  0  0  0  0  0  0
    1.9959   -4.2657   -5.6373 O   0  0  0  0  0  0  0  0  0  0  0  0
    1.6483   -3.2469   -3.4460 C   0  0  2  0  0  0  0  0  0  0  0  0
    1.1642   -4.2588   -2.5469 N   0  0  0  0  0  0  0  0  0  0  0  0
   -0.1408   -4.4893   -2.2237 C   0  0  0  0  0  0  0  0  0  0  0  0
   -0.2518   -5.5145   -1.4180 N   0  0  0  0  0  0  0  0  0  0  0  0
    1.0412   -5.9453   -1.1757 C   0  0  0  0  0  0  0  0  0  0  0  0
    1.5781   -7.0027   -0.4128 C   0  0  0  0  0  0  0  0  0  0  0  0
    0.8128   -7.9211    0.2758 N   0  0  0  0  0  0  0  0  0  0  0  0
    2.9475   -7.1243   -0.3710 N   0  0  0  0  0  0  0  0  0  0  0  0
    3.7122   -6.2421   -1.0634 C   0  0  0  0  0  0  0  0  0  0  0  0
    3.2685   -5.2217   -1.8299 N   0  0  0  0  0  0  0  0  0  0  0  0
    1.9361   -5.1413   -1.8469 C   0  0  0  0  0  0  0  0  0  0  0  0
    5.4995   -6.3286   -1.0558 S   0  0  0  0  0  0  0  0  0  0  0  0
    5.8805   -7.7631   -0.0291 C   0  0  0  0  0  0  0  0  0  0  0  0
   -0.6411   -7.9035    0.3074 C   0  0  0  0  0  0  0  0  0  0  0  0
   -1.2216   -9.2019   -0.2498 C   0  0  0  0  0  0  0  0  0  0  0  0
   -0.8773  -10.4286    0.6031 C   0  0  0  0  0  0  0  0  0  0  0  0
   -1.3961  -10.2718    2.0328 C   0  0  0  0  0  0  0  0  0  0  0  0
   -1.4618  -11.6901   -0.0266 C   0  0  0  0  0  0  0  0  0  0  0  0
    1.7631   -0.3447   -4.1155 H   0  0  0  0  0  0  0  0  0  0  0  0
    0.4728   -1.7460   -6.1777 H   0  0  0  0  0  0  0  0  0  0  0  0
    0.1389   -3.7694   -4.9260 H   0  0  0  0  0  0  0  0  0  0  0  0
    2.7405   -3.2096   -3.3790 H   0  0  0  0  0  0  0  0  0  0  0  0
    1.3857    0.0703    0.1805 H   0  0  0  0  0  0  0  0  0  0  0  0
    1.7660   -1.0066   -1.8593 H   0  0  0  0  0  0  0  0  0  0  0  0
   -1.1254   -1.0971   -3.5556 H   0  0  0  0  0  0  0  0  0  0  0  0
   -0.6822    0.1549   -4.7176 H   0  0  0  0  0  0  0  0  0  0  0  0
    3.1648   -1.6564   -5.2019 H   0  0  0  0  0  0  0  0  0  0  0  0
    2.8729   -3.8465   -5.7356 H   0  0  0  0  0  0  0  0  0  0  0  0
   -0.9678   -3.8995   -2.5990 H   0  0  0  0  0  0  0  0  0  0  0  0
    1.3220   -8.6200    0.7980 H   0  0  0  0  0  0  0  0  0  0  0  0
    5.5353   -7.6255    0.9975 H   0  0  0  0  0  0  0  0  0  0  0  0
    5.4741   -8.6836   -0.4531 H   0  0  0  0  0  0  0  0  0  0  0  0
    6.9729   -7.8657   -0.0003 H   0  0  0  0  0  0  0  0  0  0  0  0
   -0.9788   -7.7134    1.3296 H   0  0  0  0  0  0  0  0  0  0  0  0
   -1.0979   -7.1040   -0.2680 H   0  0  0  0  0  0  0  0  0  0  0  0
   -2.3137   -9.0960   -0.3126 H   0  0  0  0  0  0  0  0  0  0  0  0
   -0.8692   -9.3477   -1.2801 H   0  0  0  0  0  0  0  0  0  0  0  0
    0.2121  -10.5471    0.6340 H   0  0  0  0  0  0  0  0  0  0  0  0
   -2.4850  -10.1521    2.0409 H   0  0  0  0  0  0  0  0  0  0  0  0
   -1.1365  -11.1441    2.6378 H   0  0  0  0  0  0  0  0  0  0  0  0
   -0.9591   -9.4026    2.5325 H   0  0  0  0  0  0  0  0  0  0  0  0
   -1.0840  -11.8305   -1.0448 H   0  0  0  0  0  0  0  0  0  0  0  0
   -1.1838  -12.5711    0.5603 H   0  0  0  0  0  0  0  0  0  0  0  0
   -2.5549  -11.6406   -0.0719 H   0  0  0  0  0  0  0  0  0  0  0  0
  1  2  1  0  0  0  0
  1 35  1  0  0  0  0
  2  3  2  0  0  0  0
  2  4  1  0  0  0  0
  2  5  1  0  0  0  0
  4 36  1  0  0  0  0
  5  6  1  0  0  0  0
  6 37  1  0  0  0  0
  6 38  1  0  0  0  0
  7  6  1  0  0  0  0
  7  8  1  0  0  0  0
  7  9  1  0  0  0  0
  7 31  1  1  0  0  0
  8 13  1  0  0  0  0
  9 10  1  0  0  0  0
  9 11  1  0  0  0  0
  9 32  1  6  0  0  0
 10 39  1  0  0  0  0
 11 12  1  0  0  0  0
 11 13  1  0  0  0  0
 11 33  1  6  0  0  0
 12 40  1  0  0  0  0
 13 34  1  1  0  0  0
 13 14  1  0  0  0  0
 14 15  1  0  0  0  0
 14 23  1  0  0  0  0
 15 16  2  0  0  0  0
 15 41  1  0  0  0  0
 16 17  1  0  0  0  0
 17 18  1  0  0  0  0
 17 23  2  0  0  0  0
 18 19  1  0  0  0  0
 18 20  2  0  0  0  0
 19 26  1  0  0  0  0
 19 42  1  0  0  0  0
 20 21  1  0  0  0  0
 21 22  2  0  0  0  0
 21 24  1  0  0  0  0
 22 23  1  0  0  0  0
 24 25  1  0  0  0  0
 25 43  1  0  0  0  0
 25 44  1  0  0  0  0
 25 45  1  0  0  0  0
 26 27  1  0  0  0  0
 26 46  1  0  0  0  0
 26 47  1  0  0  0  0
 27 28  1  0  0  0  0
 27 48  1  0  0  0  0
 27 49  1  0  0  0  0
 28 29  1  0  0  0  0
 28 30  1  0  0  0  0
 28 50  1  0  0  0  0
 29 51  1  0  0  0  0
 29 52  1  0  0  0  0
 29 53  1  0  0  0  0
 30 54  1  0  0  0  0
 30 55  1  0  0  0  0
 30 56  1  0  0  0  0
M  END
>  <DRUGBANK_ID>
DB08185

>  <COMMON_NAME>
2-METHYLTHIO-N6-ISOPENTENYL-ADENOSINE-5'-MONOPHOSPHATE

$$$$
