028
 OpenBabel10282417163D

 34 33  0  0  0  0  0  0  0  0999 V2000
    1.1257    0.1601   -0.1341 C   0  0  0  0  0  0  0  0  0  0  0  0
    0.7173   -1.1906   -0.7018 C   0  0  0  0  0  0  0  0  0  0  0  0
    1.2267   -2.3186    0.1988 C   0  0  0  0  0  0  0  0  0  0  0  0
    0.6954   -2.1549    1.6261 C   0  0  0  0  0  0  0  0  0  0  0  0
   -0.8248   -2.1790    1.6427 C   0  0  0  0  0  0  0  0  0  0  0  0
   -1.3518   -3.4908    1.0741 C   0  0  0  0  0  0  0  0  0  0  0  0
   -0.9357   -4.7695    1.8820 C   0  0  0  0  0  0  0  0  0  0  0  0
   -1.3221   -6.1252    0.5688 P   0  0  0  0  0  0  0  0  0  0  0  0
   -1.8793   -5.6680   -0.7518 O   0  0  0  0  0  0  0  0  0  0  0  0
    0.1281   -6.8069    0.3753 O   0  0  0  0  0  0  0  0  0  0  0  0
   -2.1070   -7.4057    1.1024 O   0  0  0  0  0  0  0  0  0  0  0  0
   -1.5457   -4.6103    3.6000 P   0  0  0  0  0  0  0  0  0  0  0  0
   -2.1224   -4.4597    5.2241 O   0  0  0  0  0  0  0  0  0  0  0  0
   -2.3704   -6.0152    3.4865 O   0  0  0  0  0  0  0  0  0  0  0  0
   -2.6454   -3.6120    3.2357 O   0  0  0  0  0  0  0  0  0  0  0  0
    0.5167   -4.9458    1.9751 O   0  0  0  0  0  0  0  0  0  0  0  0
    0.6984    0.3395    0.8584 H   0  0  0  0  0  0  0  0  0  0  0  0
    0.7760    0.9728   -0.7698 H   0  0  0  0  0  0  0  0  0  0  0  0
    2.2146    0.2063   -0.0420 H   0  0  0  0  0  0  0  0  0  0  0  0
   -0.3741   -1.2301   -0.8089 H   0  0  0  0  0  0  0  0  0  0  0  0
    1.1129   -1.3184   -1.7126 H   0  0  0  0  0  0  0  0  0  0  0  0
    0.9369   -3.2859   -0.2319 H   0  0  0  0  0  0  0  0  0  0  0  0
    2.3196   -2.3332    0.2183 H   0  0  0  0  0  0  0  0  0  0  0  0
    1.1109   -2.9150    2.2874 H   0  0  0  0  0  0  0  0  0  0  0  0
    1.0468   -1.2308    2.0873 H   0  0  0  0  0  0  0  0  0  0  0  0
   -1.1617   -1.9726    2.6603 H   0  0  0  0  0  0  0  0  0  0  0  0
   -1.2577   -1.3620    1.0542 H   0  0  0  0  0  0  0  0  0  0  0  0
   -2.4504   -3.4589    1.0091 H   0  0  0  0  0  0  0  0  0  0  0  0
   -1.0533   -3.5759    0.0272 H   0  0  0  0  0  0  0  0  0  0  0  0
    0.8200   -6.2347    0.7776 H   0  0  0  0  0  0  0  0  0  0  0  0
   -2.2256   -7.9922    0.3177 H   0  0  0  0  0  0  0  0  0  0  0  0
   -2.3975   -5.3434    5.5336 H   0  0  0  0  0  0  0  0  0  0  0  0
   -3.1819   -5.8965    2.9331 H   0  0  0  0  0  0  0  0  0  0  0  0
    0.7111   -5.4870    2.7643 H   0  0  0  0  0  0  0  0  0  0  0  0
  1  2  1  0  0  0  0
  1 17  1  0  0  0  0
  1 18  1  0  0  0  0
  1 19  1  0  0  0  0
  2  3  1  0  0  0  0
  2 20  1  0  0  0  0
  2 21  1  0  0  0  0
  3  4  1  0  0  0  0
  3 22  1  0  0  0  0
  3 23  1  0  0  0  0
  4  5  1  0  0  0  0
  4 24  1  0  0  0  0
  4 25  1  0  0  0  0
  5  6  1  0  0  0  0
  5 26  1  0  0  0  0
  5 27  1  0  0  0  0
  6  7  1  0  0  0  0
  6 28  1  0  0  0  0
  6 29  1  0  0  0  0
  7 12  1  0  0  0  0
  7  8  1  0  0  0  0
  7 16  1  0  0  0  0
  8  9  2  0  0  0  0
  8 10  1  0  0  0  0
  8 11  1  0  0  0  0
 10 30  1  0  0  0  0
 11 31  1  0  0  0  0
 12 15  2  0  0  0  0
 12 14  1  0  0  0  0
 12 13  1  0  0  0  0
 13 32  1  0  0  0  0
 14 33  1  0  0  0  0
 16 34  1  0  0  0  0
M  END
>  <DRUGBANK_ID>
DB06830

>  <COMMON_NAME>
(1-HYDROXYHEPTANE-1,1-DIYL)BIS(PHOSPHONIC ACID)

$$$$
