
 OpenBabel10282417223D

 22 22  0  0  0  0  0  0  0  0999 V2000
    1.0649   -0.0926   -0.0871 O   0  0  0  0  0  0  0  0  0  0  0  0
    0.4556    0.6170   -1.0757 C   0  0  0  0  0  0  0  0  0  0  0  0
    0.7160    0.5119   -2.4437 C   0  0  0  0  0  0  0  0  0  0  0  0
   -0.0764    1.2177   -3.3751 C   0  0  0  0  0  0  0  0  0  0  0  0
   -1.1836    1.9572   -2.9380 C   0  0  0  0  0  0  0  0  0  0  0  0
   -1.9240    2.7590   -3.8359 N   0  0  0  0  0  0  0  0  0  0  0  0
   -2.9457    3.6412   -3.6338 C   0  0  0  0  0  0  0  0  0  0  0  0
   -3.4204    4.2817   -4.5748 O   0  0  0  0  0  0  0  0  0  0  0  0
   -3.4740    3.8067   -2.4024 N   0  0  0  0  0  0  0  0  0  0  0  0
   -1.5057    1.8737   -1.5905 C   0  0  0  0  0  0  0  0  0  0  0  0
   -0.6439    1.3349   -0.6522 C   0  0  0  0  0  0  0  0  0  0  0  0
    2.4760   -0.0590   -0.0964 C   0  0  0  0  0  0  0  0  0  0  0  0
    2.9187   -0.7267    0.9921 F   0  0  0  0  0  0  0  0  0  0  0  0
    2.9745   -0.6660   -1.1914 F   0  0  0  0  0  0  0  0  0  0  0  0
    2.9285    1.2098   -0.0283 F   0  0  0  0  0  0  0  0  0  0  0  0
    1.5030   -0.1396   -2.8141 H   0  0  0  0  0  0  0  0  0  0  0  0
    0.1675    1.1275   -4.4330 H   0  0  0  0  0  0  0  0  0  0  0  0
   -1.6284    2.7601   -4.8064 H   0  0  0  0  0  0  0  0  0  0  0  0
   -2.8573    3.8428   -1.6068 H   0  0  0  0  0  0  0  0  0  0  0  0
   -4.2059    4.5013   -2.3412 H   0  0  0  0  0  0  0  0  0  0  0  0
   -2.4799    2.1378   -1.2160 H   0  0  0  0  0  0  0  0  0  0  0  0
   -0.8918    1.4280    0.4006 H   0  0  0  0  0  0  0  0  0  0  0  0
  1  2  1  0  0  0  0
  1 12  1  0  0  0  0
  2  3  1  0  0  0  0
  2 11  2  0  0  0  0
  3  4  2  0  0  0  0
  3 16  1  0  0  0  0
  4  5  1  0  0  0  0
  4 17  1  0  0  0  0
  5  6  1  0  0  0  0
  6  7  1  0  0  0  0
  6 18  1  0  0  0  0
  7  8  2  0  0  0  0
  7  9  1  0  0  0  0
  9 19  1  0  0  0  0
  9 20  1  0  0  0  0
 10  5  2  0  0  0  0
 10 21  1  0  0  0  0
 11 10  1  0  0  0  0
 11 22  1  0  0  0  0
 12 13  1  0  0  0  0
 12 14  1  0  0  0  0
 12 15  1  0  0  0  0
M  END
>  <DRUGBANK_ID>
DB15610

>  <COMMON_NAME>
(4-(trifluoromethoxy)phenyl)urea

>  <CAS_NUMBER>
82971-90-2

>  <UNII>
SQP4E8O29W

$$$$
