
 OpenBabel10282417123D

 38 38  0  0  1  0  0  0  0  0999 V2000
    1.0500   -0.0186   -0.3049 C   0  0  0  0  0  0  0  0  0  0  0  0
    0.5594    1.1743    0.4725 C   0  0  1  0  0  0  0  0  0  0  0  0
    1.0643    2.5281    0.1717 N   0  0  0  0  0  0  0  0  0  0  0  0
    0.6681    3.5294    1.1753 C   0  0  0  0  0  0  0  0  0  0  0  0
    1.2977    3.4240    2.5799 C   0  0  0  0  0  0  0  0  0  0  0  0
    1.2857    2.2422    3.3892 C   0  0  0  0  0  0  0  0  0  0  0  0
    0.5035    1.1550    3.1316 O   0  0  0  0  0  0  0  0  0  0  0  0
    1.8175    2.1416    4.6619 C   0  0  0  0  0  0  0  0  0  0  0  0
    1.8183    0.7866    5.3396 C   0  0  0  0  0  0  0  0  0  0  0  0
    2.2323    3.2406    5.2991 N   0  0  0  0  0  0  0  0  0  0  0  0
    2.1022    4.4234    4.6241 C   0  0  0  0  0  0  0  0  0  0  0  0
    1.6796    4.5956    3.2820 C   0  0  0  0  0  0  0  0  0  0  0  0
    1.3256    6.0229    2.8234 C   0  0  0  0  0  0  0  0  0  0  0  0
    0.3239    6.7186    3.6144 O   0  0  0  0  0  0  0  0  0  0  0  0
   -1.2196    5.9374    3.6090 P   0  0  0  0  0  0  0  0  0  0  0  0
   -0.5947    4.5698    4.1669 O   0  0  0  0  0  0  0  0  0  0  0  0
   -1.4485    6.6427    5.0650 O   0  0  0  0  0  0  0  0  0  0  0  0
   -2.6011    5.2383    3.6041 O   0  0  0  0  0  0  0  0  0  0  0  0
   -1.0122    1.1567    0.6090 C   0  0  0  0  0  0  0  0  0  0  0  0
   -1.6028    1.0806    1.8271 O   0  0  0  0  0  0  0  0  0  0  0  0
   -1.7569    1.3455   -0.3702 O   0  0  0  0  0  0  0  0  0  0  0  0
    0.7068   -0.0264   -1.3330 H   0  0  0  0  0  0  0  0  0  0  0  0
    0.6808   -0.9132    0.2192 H   0  0  0  0  0  0  0  0  0  0  0  0
    2.1454   -0.0687   -0.2591 H   0  0  0  0  0  0  0  0  0  0  0  0
    1.1499    0.9339    1.3328 H   0  0  0  0  0  0  0  0  0  0  0  0
    2.0847    2.5183    0.1249 H   0  0  0  0  0  0  0  0  0  0  0  0
    0.9663    4.4728    0.7095 H   0  0  0  0  0  0  0  0  0  0  0  0
   -0.4256    3.6012    1.2532 H   0  0  0  0  0  0  0  0  0  0  0  0
   -0.0602    1.5409    2.4638 H   0  0  0  0  0  0  0  0  0  0  0  0
    2.8332    0.5461    5.6509 H   0  0  0  0  0  0  0  0  0  0  0  0
    1.1147    0.7588    6.1750 H   0  0  0  0  0  0  0  0  0  0  0  0
    1.5255   -0.0414    4.6716 H   0  0  0  0  0  0  0  0  0  0  0  0
    2.2301    5.2895    5.2693 H   0  0  0  0  0  0  0  0  0  0  0  0
    2.2436    6.6168    2.8422 H   0  0  0  0  0  0  0  0  0  0  0  0
    0.9555    6.0588    1.7992 H   0  0  0  0  0  0  0  0  0  0  0  0
   -0.9013    3.8952    3.5337 H   0  0  0  0  0  0  0  0  0  0  0  0
   -0.7795    7.3240    5.2390 H   0  0  0  0  0  0  0  0  0  0  0  0
   -1.3676    0.7653    2.7376 H   0  0  0  0  0  0  0  0  0  0  0  0
  1 22  1  0  0  0  0
  1 23  1  0  0  0  0
  1 24  1  0  0  0  0
  2  1  1  0  0  0  0
  2  3  1  0  0  0  0
  2 19  1  0  0  0  0
  2 25  1  1  0  0  0
  3  4  1  0  0  0  0
  3 26  1  0  0  0  0
  4  5  1  0  0  0  0
  4 27  1  0  0  0  0
  4 28  1  0  0  0  0
  5  6  2  0  0  0  0
  5 12  1  0  0  0  0
  6  7  1  0  0  0  0
  6  8  1  0  0  0  0
  7 29  1  0  0  0  0
  8  9  1  0  0  0  0
  8 10  2  0  0  0  0
  9 30  1  0  0  0  0
  9 31  1  0  0  0  0
  9 32  1  0  0  0  0
 10 11  1  0  0  0  0
 11 12  2  0  0  0  0
 11 33  1  0  0  0  0
 12 13  1  0  0  0  0
 13 14  1  0  0  0  0
 13 34  1  0  0  0  0
 13 35  1  0  0  0  0
 14 15  1  0  0  0  0
 15 16  1  0  0  0  0
 15 17  1  0  0  0  0
 15 18  2  0  0  0  0
 16 36  1  0  0  0  0
 17 37  1  0  0  0  0
 19 20  1  0  0  0  0
 19 21  2  0  0  0  0
 20 38  1  0  0  0  0
M  END
>  <DRUGBANK_ID>
DB01993

>  <SECONDARY_ACCESSION_NUMBERS>
EXPT02531

>  <COMMON_NAME>
N-(5'-Phosphopyridoxyl)-D-Alanine

$$$$
