
 OpenBabel10282417183D

 14 13  0  0  0  0  0  0  0  0999 V2000
    0.9883    0.0265    0.0975 O   0  0  0  0  0  0  0  0  0  0  0  0
    0.4989   -1.0240   -0.7344 C   0  0  0  0  0  0  0  0  0  0  0  0
    0.9852   -0.8243   -2.1720 C   0  0  0  0  0  0  0  0  0  0  0  0
    2.4180   -0.8495   -2.1777 O   0  0  0  0  0  0  0  0  0  0  0  0
    0.4569   -1.9168   -3.1061 C   0  0  0  0  0  0  0  0  0  0  0  0
   -0.9632   -1.9171   -3.1865 O   0  0  0  0  0  0  0  0  0  0  0  0
    1.9417   -0.1340    0.2219 H   0  0  0  0  0  0  0  0  0  0  0  0
    0.8576   -1.9747   -0.3251 H   0  0  0  0  0  0  0  0  0  0  0  0
   -0.5932   -1.0085   -0.6762 H   0  0  0  0  0  0  0  0  0  0  0  0
    0.6658    0.1607   -2.5328 H   0  0  0  0  0  0  0  0  0  0  0  0
    2.7088   -0.0160   -1.7635 H   0  0  0  0  0  0  0  0  0  0  0  0
    0.8485   -1.7593   -4.1173 H   0  0  0  0  0  0  0  0  0  0  0  0
    0.8021   -2.9082   -2.7915 H   0  0  0  0  0  0  0  0  0  0  0  0
   -1.3205   -2.2056   -2.3285 H   0  0  0  0  0  0  0  0  0  0  0  0
  1  2  1  0  0  0  0
  1  7  1  0  0  0  0
  2  3  1  0  0  0  0
  2  8  1  0  0  0  0
  2  9  1  0  0  0  0
  3  4  1  0  0  0  0
  3  5  1  0  0  0  0
  3 10  1  0  0  0  0
  4 11  1  0  0  0  0
  5  6  1  0  0  0  0
  5 12  1  0  0  0  0
  5 13  1  0  0  0  0
  6 14  1  0  0  0  0
M  END
>  <DRUGBANK_ID>
DB09462

>  <SECONDARY_ACCESSION_NUMBERS>
EXPT01027; DB04077

>  <COMMON_NAME>
Glycerin

>  <CAS_NUMBER>
56-81-5

>  <UNII>
PDC6A3C0OX

>  <SYNONYMS>
1,2,3-propanetriol; 1,2,3-trihydroxypropane; Glycerin; Glycerin, anhydrous; Glycerin,anhydrous; Glycerine; glycérine; Glycerinum; Glycerol; glycérol; Glyzerin; Monoctanoin component D; Ölsüß; Propanetriol; Trihydroxypropane

$$$$
