
 OpenBabel10282417183D

 44 46  0  0  0  0  0  0  0  0999 V2000
   -0.8870    0.3009    1.6830 C   0  0  0  0  0  0  0  0  0  0  0  0
   -2.9292   -0.3758   -1.4208 C   0  0  0  0  0  0  0  0  0  0  0  0
    4.3695    2.0229    6.6745 C   0  0  0  0  0  0  0  0  0  0  0  0
    3.0805    2.5132    6.4520 C   0  0  0  0  0  0  0  0  0  0  0  0
    4.9281    1.1206    5.7774 C   0  0  0  0  0  0  0  0  0  0  0  0
    1.5218   -3.5616    2.9681 C   0  0  0  0  0  0  0  0  0  0  0  0
    2.3131   -3.1666    4.0450 C   0  0  0  0  0  0  0  0  0  0  0  0
    0.6959   -1.1825   -0.7645 C   0  0  0  0  0  0  0  0  0  0  0  0
    2.3098    2.0358    5.3809 C   0  0  0  0  0  0  0  0  0  0  0  0
    4.1951    0.7186    4.6607 C   0  0  0  0  0  0  0  0  0  0  0  0
    0.8927   -2.6103    2.1461 C   0  0  0  0  0  0  0  0  0  0  0  0
    2.5079   -1.8161    4.2865 C   0  0  0  0  0  0  0  0  0  0  0  0
    1.1052    0.0228    0.1330 C   0  0  0  0  0  0  0  0  0  0  0  0
   -0.8081   -1.4612   -0.9371 C   0  0  0  0  0  0  0  0  0  0  0  0
    2.8596    1.1219    4.4796 C   0  0  0  0  0  0  0  0  0  0  0  0
    1.1076   -1.2518    2.3642 C   0  0  0  0  0  0  0  0  0  0  0  0
    1.9479   -0.8809    3.4175 C   0  0  0  0  0  0  0  0  0  0  0  0
    1.3059    1.1411    2.4808 C   0  0  0  0  0  0  0  0  0  0  0  0
    0.6209   -0.0070    1.6188 C   0  0  2  0  0  0  0  0  0  0  0  0
   -1.4797   -0.2877   -1.4944 N   0  0  0  0  0  0  0  0  0  0  0  0
    2.0785    0.5123    3.4718 N   0  0  0  0  0  0  0  0  0  0  0  0
    1.1744    2.3371    2.2936 O   0  0  0  0  0  0  0  0  0  0  0  0
   -1.5027   -0.3813    1.1179 H   0  0  0  0  0  0  0  0  0  0  0  0
   -1.1012    1.2948    1.2630 H   0  0  0  0  0  0  0  0  0  0  0  0
   -1.3012    0.2453    2.6896 H   0  0  0  0  0  0  0  0  0  0  0  0
   -3.2888   -0.3793   -0.3862 H   0  0  0  0  0  0  0  0  0  0  0  0
   -3.3623    0.5014   -1.9129 H   0  0  0  0  0  0  0  0  0  0  0  0
   -3.2956   -1.2667   -1.9353 H   0  0  0  0  0  0  0  0  0  0  0  0
    4.9413    2.3495    7.5401 H   0  0  0  0  0  0  0  0  0  0  0  0
    2.6693    3.2591    7.1280 H   0  0  0  0  0  0  0  0  0  0  0  0
    5.9292    0.7296    5.9406 H   0  0  0  0  0  0  0  0  0  0  0  0
    1.3897   -4.6240    2.7761 H   0  0  0  0  0  0  0  0  0  0  0  0
    2.7762   -3.9014    4.6989 H   0  0  0  0  0  0  0  0  0  0  0  0
    1.1269   -1.0441   -1.7638 H   0  0  0  0  0  0  0  0  0  0  0  0
    1.1822   -2.0869   -0.3883 H   0  0  0  0  0  0  0  0  0  0  0  0
    1.2688    2.3373    5.3019 H   0  0  0  0  0  0  0  0  0  0  0  0
    4.6656    0.0607    3.9333 H   0  0  0  0  0  0  0  0  0  0  0  0
    0.2716   -2.9801    1.3395 H   0  0  0  0  0  0  0  0  0  0  0  0
    3.0957   -1.5229    5.1489 H   0  0  0  0  0  0  0  0  0  0  0  0
    0.7574    0.9484   -0.3487 H   0  0  0  0  0  0  0  0  0  0  0  0
    2.2010    0.1048    0.1002 H   0  0  0  0  0  0  0  0  0  0  0  0
   -0.9552   -2.3159   -1.6056 H   0  0  0  0  0  0  0  0  0  0  0  0
   -1.2350   -1.8101    0.0084 H   0  0  0  0  0  0  0  0  0  0  0  0
   -1.1867    0.5671   -1.0238 H   0  0  0  0  0  0  0  0  0  0  0  0
  1 23  1  0  0  0  0
  1 24  1  0  0  0  0
  1 25  1  0  0  0  0
  2 26  1  0  0  0  0
  2 27  1  0  0  0  0
  2 28  1  0  0  0  0
  3 29  1  0  0  0  0
  4  3  2  0  0  0  0
  4 30  1  0  0  0  0
  5  3  1  0  0  0  0
  5 31  1  0  0  0  0
  6 32  1  0  0  0  0
  7  6  2  0  0  0  0
  7 33  1  0  0  0  0
  8 34  1  0  0  0  0
  8 35  1  0  0  0  0
  9  4  1  0  0  0  0
  9 36  1  0  0  0  0
 10  5  2  0  0  0  0
 10 37  1  0  0  0  0
 11  6  1  0  0  0  0
 11 38  1  0  0  0  0
 12  7  1  0  0  0  0
 12 39  1  0  0  0  0
 13  8  1  0  0  0  0
 13 40  1  0  0  0  0
 13 41  1  0  0  0  0
 14  8  1  0  0  0  0
 14 42  1  0  0  0  0
 14 43  1  0  0  0  0
 15  9  2  0  0  0  0
 15 10  1  0  0  0  0
 16 11  2  0  0  0  0
 17 12  2  0  0  0  0
 17 16  1  0  0  0  0
 19 16  1  0  0  0  0
 19 18  1  0  0  0  0
 19 13  1  6  0  0  0
 19  1  1  0  0  0  0
 20  2  1  0  0  0  0
 20 14  1  0  0  0  0
 20 44  1  0  0  0  0
 21 15  1  0  0  0  0
 21 17  1  0  0  0  0
 21 18  1  0  0  0  0
 22 18  2  0  0  0  0
M  END
>  <DRUGBANK_ID>
DB09188

>  <COMMON_NAME>
Amedalin

>  <CAS_NUMBER>
22136-26-1

>  <UNII>
M49EDJ159O

>  <SYNONYMS>
3-methyl-3-(3-(methylamino)propyl)-1-phenyl-2-indolinone

$$$$
