VGI
 OpenBabel10282417173D

 41 44  0  0  0  0  0  0  0  0999 V2000
    0.9828   -1.2105   -0.0445 C   0  0  0  0  0  0  0  0  0  0  0  0
    0.3030    0.0043   -0.0229 C   0  0  0  0  0  0  0  0  0  0  0  0
   -1.5871    0.0122   -0.0107 Br  0  0  0  0  0  0  0  0  0  0  0  0
    1.0009    1.2122   -0.0071 C   0  0  0  0  0  0  0  0  0  0  0  0
    2.3948    1.2085    0.0157 C   0  0  0  0  0  0  0  0  0  0  0  0
    3.0829   -0.0032    0.0333 C   0  0  0  0  0  0  0  0  0  0  0  0
    2.3787   -1.2162   -0.0194 C   0  0  0  0  0  0  0  0  0  0  0  0
    3.0983   -2.4438   -0.0441 N   0  0  0  0  0  0  0  0  0  0  0  0
    2.8886   -3.3261   -1.1078 C   0  0  0  0  0  0  0  0  0  0  0  0
    2.0394   -3.1766   -1.9927 O   0  0  0  0  0  0  0  0  0  0  0  0
    3.9467   -2.6934    1.0258 C   0  0  0  0  0  0  0  0  0  0  0  0
    4.0660   -1.9685    2.0226 O   0  0  0  0  0  0  0  0  0  0  0  0
    4.7343   -3.9301    0.9791 C   0  0  0  0  0  0  0  0  0  0  0  0
    5.5513   -4.1876    2.0834 C   0  0  0  0  0  0  0  0  0  0  0  0
    6.3401   -5.2983    2.0789 C   0  0  0  0  0  0  0  0  0  0  0  0
    6.2896   -6.1411    0.9805 C   0  0  0  0  0  0  0  0  0  0  0  0
    5.5197   -5.9294   -0.1996 C   0  0  0  0  0  0  0  0  0  0  0  0
    4.6819   -4.7797   -0.1450 C   0  0  0  0  0  0  0  0  0  0  0  0
    3.7947   -4.5011   -1.1920 C   0  0  0  0  0  0  0  0  0  0  0  0
    3.7508   -5.3165   -2.3253 C   0  0  0  0  0  0  0  0  0  0  0  0
    4.6077   -6.4140   -2.4240 C   0  0  0  0  0  0  0  0  0  0  0  0
    5.5124   -6.7548   -1.3879 C   0  0  0  0  0  0  0  0  0  0  0  0
    6.2766   -7.9020   -1.6084 N   0  0  0  0  0  0  0  0  0  0  0  0
    7.3680   -8.4372   -0.8019 C   0  0  0  0  0  0  0  0  0  0  0  0
    6.9638   -9.7663   -0.1681 C   0  0  0  0  0  0  0  0  0  0  0  0
    7.0015  -10.7901   -1.1552 O   0  0  0  0  0  0  0  0  0  0  0  0
    0.4336   -2.1478   -0.0517 H   0  0  0  0  0  0  0  0  0  0  0  0
    0.4683    2.1588   -0.0103 H   0  0  0  0  0  0  0  0  0  0  0  0
    2.9457    2.1453    0.0173 H   0  0  0  0  0  0  0  0  0  0  0  0
    4.1708    0.0041    0.0577 H   0  0  0  0  0  0  0  0  0  0  0  0
    5.5680   -3.5367    2.9526 H   0  0  0  0  0  0  0  0  0  0  0  0
    6.9917   -5.5474    2.9107 H   0  0  0  0  0  0  0  0  0  0  0  0
    6.8858   -7.0068    1.1762 H   0  0  0  0  0  0  0  0  0  0  0  0
    3.0574   -5.0963   -3.1384 H   0  0  0  0  0  0  0  0  0  0  0  0
    4.5543   -7.0099   -3.3369 H   0  0  0  0  0  0  0  0  0  0  0  0
    6.2315   -8.2882   -2.5481 H   0  0  0  0  0  0  0  0  0  0  0  0
    8.2738   -8.5280   -1.4071 H   0  0  0  0  0  0  0  0  0  0  0  0
    7.7094   -7.7869   -0.0253 H   0  0  0  0  0  0  0  0  0  0  0  0
    7.6610  -10.0299    0.6338 H   0  0  0  0  0  0  0  0  0  0  0  0
    5.9561   -9.7309    0.2636 H   0  0  0  0  0  0  0  0  0  0  0  0
    6.4217  -10.4789   -1.8717 H   0  0  0  0  0  0  0  0  0  0  0  0
  1  2  1  0  0  0  0
  1  7  2  0  0  0  0
  1 27  1  0  0  0  0
  2  3  1  0  0  0  0
  2  4  2  0  0  0  0
  4  5  1  0  0  0  0
  4 28  1  0  0  0  0
  5  6  2  0  0  0  0
  5 29  1  0  0  0  0
  6  7  1  0  0  0  0
  6 30  1  0  0  0  0
  7  8  1  0  0  0  0
  8  9  1  0  0  0  0
  8 11  1  0  0  0  0
  9 10  2  0  0  0  0
  9 19  1  0  0  0  0
 11 12  2  0  0  0  0
 11 13  1  0  0  0  0
 13 14  2  0  0  0  0
 13 18  1  0  0  0  0
 14 15  1  0  0  0  0
 14 31  1  0  0  0  0
 15 16  2  0  0  0  0
 15 32  1  0  0  0  0
 16 17  1  0  0  0  0
 16 33  1  0  0  0  0
 17 18  2  0  0  0  0
 17 22  1  0  0  0  0
 18 19  1  0  0  0  0
 19 20  2  0  0  0  0
 20 21  1  0  0  0  0
 20 34  1  0  0  0  0
 21 22  2  0  0  0  0
 21 35  1  0  0  0  0
 22 23  1  0  0  0  0
 23 24  1  0  0  0  0
 23 36  1  0  0  0  0
 24 25  1  0  0  0  0
 24 37  1  0  0  0  0
 24 38  1  0  0  0  0
 25 26  1  0  0  0  0
 25 39  1  0  0  0  0
 25 40  1  0  0  0  0
 26 41  1  0  0  0  0
M  END
>  <DRUGBANK_ID>
DB08701

>  <COMMON_NAME>
2-(3-BROMOPHENYL)-6-[(2-HYDROXYETHYL)AMINO]-1H-BENZO[DE]ISOQUINOLINE-1,3(2H)-DIONE

$$$$
