1541
 OpenBabel10282417113D

 47 50  0  0  1  0  0  0  0  0999 V2000
    0.6751   -3.2233    7.8523 O   0  0  0  0  0  0  0  0  0  0  0  0
   -6.3400   -8.1536    1.2895 O   0  0  0  0  0  0  0  0  0  0  0  0
   -0.9645   -4.3588    5.0663 C   0  0  2  0  0  0  0  0  0  0  0  0
    0.4787   -4.3549    5.3569 C   0  0  2  0  0  0  0  0  0  0  0  0
   -1.6171   -4.5966    3.7806 C   0  0  1  0  0  0  0  0  0  0  0  0
   -1.2238   -5.8001    2.9755 C   0  0  2  0  0  0  0  0  0  0  0  0
    0.9571   -5.7003    4.6047 C   0  0  0  0  0  0  0  0  0  0  0  0
   -0.0671   -4.1399    7.0643 C   0  0  2  0  0  0  0  0  0  0  0  0
    0.3631   -5.8863    3.0395 C   0  0  0  0  0  0  0  0  0  0  0  0
   -1.4743   -3.0333    5.6630 C   0  0  0  0  0  0  0  0  0  0  0  0
   -2.4277   -6.0827    1.6010 C   0  0  1  0  0  0  0  0  0  0  0  0
   -2.9951   -4.8746    4.3760 C   0  0  0  0  0  0  0  0  0  0  0  0
   -1.5755   -3.5170    7.0505 C   0  0  0  0  0  0  0  0  0  0  0  0
    1.1071   -3.2257    4.4764 C   0  0  0  0  0  0  0  0  0  0  0  0
   -3.7524   -5.6847    3.4456 C   0  0  0  0  0  0  0  0  0  0  0  0
   -3.2982   -6.8763    2.5522 C   0  0  0  0  0  0  0  0  0  0  0  0
   -1.5691   -7.1595    0.8520 C   0  0  0  0  0  0  0  0  0  0  0  0
   -4.1047   -5.3274    1.0727 C   0  0  0  0  0  0  0  0  0  0  0  0
   -4.0293   -7.8605    1.9272 C   0  0  0  0  0  0  0  0  0  0  0  0
   -5.3583   -5.9539    1.3291 C   0  0  0  0  0  0  0  0  0  0  0  0
   -5.3499   -7.3898    1.5489 C   0  0  0  0  0  0  0  0  0  0  0  0
   -1.2561   -5.2715    5.6460 H   0  0  0  0  0  0  0  0  0  0  0  0
   -1.4813   -3.7120    3.1468 H   0  0  0  0  0  0  0  0  0  0  0  0
   -1.3890   -6.6980    3.6034 H   0  0  0  0  0  0  0  0  0  0  0  0
    0.0364   -2.6732    8.3560 H   0  0  0  0  0  0  0  0  0  0  0  0
    2.0561   -5.6801    4.5029 H   0  0  0  0  0  0  0  0  0  0  0  0
    0.7365   -6.6083    5.1802 H   0  0  0  0  0  0  0  0  0  0  0  0
   -0.1699   -5.1041    7.5888 H   0  0  0  0  0  0  0  0  0  0  0  0
    0.8184   -5.1403    2.3782 H   0  0  0  0  0  0  0  0  0  0  0  0
    0.7336   -6.8617    2.6875 H   0  0  0  0  0  0  0  0  0  0  0  0
   -2.3431   -2.5797    5.1965 H   0  0  0  0  0  0  0  0  0  0  0  0
   -0.7437   -2.2234    5.6903 H   0  0  0  0  0  0  0  0  0  0  0  0
   -3.5127   -3.9074    4.4800 H   0  0  0  0  0  0  0  0  0  0  0  0
   -3.0682   -5.4219    5.3103 H   0  0  0  0  0  0  0  0  0  0  0  0
   -2.3960   -4.2544    7.1246 H   0  0  0  0  0  0  0  0  0  0  0  0
   -1.8441   -2.6853    7.7128 H   0  0  0  0  0  0  0  0  0  0  0  0
    0.7269   -3.3251    3.4454 H   0  0  0  0  0  0  0  0  0  0  0  0
    0.8762   -2.1937    4.7305 H   0  0  0  0  0  0  0  0  0  0  0  0
    2.1897   -3.3222    4.3632 H   0  0  0  0  0  0  0  0  0  0  0  0
   -3.5840   -4.7767    2.8422 H   0  0  0  0  0  0  0  0  0  0  0  0
   -4.7656   -5.7578    3.7662 H   0  0  0  0  0  0  0  0  0  0  0  0
   -1.5117   -8.0689    1.4853 H   0  0  0  0  0  0  0  0  0  0  0  0
   -1.8664   -7.4578   -0.1493 H   0  0  0  0  0  0  0  0  0  0  0  0
   -0.5115   -6.8717    0.8126 H   0  0  0  0  0  0  0  0  0  0  0  0
   -4.3497   -4.2766    1.4065 H   0  0  0  0  0  0  0  0  0  0  0  0
   -3.6726   -8.3709    1.0141 H   0  0  0  0  0  0  0  0  0  0  0  0
   -6.2558   -5.5150    1.8402 H   0  0  0  0  0  0  0  0  0  0  0  0
  1 25  1  0  0  0  0
  2 21  2  0  0  0  0
  3  4  1  0  0  0  0
  3  5  1  0  0  0  0
  3 10  1  0  0  0  0
  3 22  1  1  0  0  0
  4  7  1  0  0  0  0
  4  8  1  0  0  0  0
  4 14  1  6  0  0  0
  5  6  1  0  0  0  0
  5 12  1  0  0  0  0
  5 23  1  6  0  0  0
  6  9  1  0  0  0  0
  6 11  1  0  0  0  0
  6 24  1  1  0  0  0
  7  9  1  0  0  0  0
  7 26  1  0  0  0  0
  7 27  1  0  0  0  0
  8  1  1  0  0  0  0
  8 13  1  0  0  0  0
  8 28  1  1  0  0  0
  9 29  1  0  0  0  0
  9 30  1  0  0  0  0
 10 13  1  0  0  0  0
 10 31  1  0  0  0  0
 10 32  1  0  0  0  0
 11 16  1  0  0  0  0
 11 17  1  1  0  0  0
 11 18  1  0  0  0  0
 12 15  1  0  0  0  0
 12 33  1  0  0  0  0
 12 34  1  0  0  0  0
 13 35  1  0  0  0  0
 13 36  1  0  0  0  0
 14 37  1  0  0  0  0
 14 38  1  0  0  0  0
 14 39  1  0  0  0  0
 15 16  1  0  0  0  0
 15 40  1  0  0  0  0
 15 41  1  0  0  0  0
 16 19  2  0  0  0  0
 17 42  1  0  0  0  0
 17 43  1  0  0  0  0
 17 44  1  0  0  0  0
 18 20  2  0  0  0  0
 18 45  1  0  0  0  0
 19 21  1  0  0  0  0
 19 46  1  0  0  0  0
 20 21  1  0  0  0  0
 20 47  1  0  0  0  0
M  END
>  <DRUGBANK_ID>
DB01541

>  <COMMON_NAME>
Boldenone

>  <CAS_NUMBER>
846-48-0

>  <UNII>
5H7I2IP58X

>  <SYNONYMS>
1,2-Dehydrotestosterone; 1,2-Didehydrotestosterone; 1,4-Androstadien-17beta-ol-3-one; 1,4-Androstadien-17β-ol-3-one; 17beta-Boldenone; 17β-hydroxyandrosta-1,4-dien-3-one; Boldenona; Boldenone; Boldenonum

$$$$
