
 OpenBabel10282417143D

 43 45  0  0  1  0  0  0  0  0999 V2000
    1.0493   -0.2809    0.0832 C   0  0  0  0  0  0  0  0  0  0  0  0
   -2.1877   -7.5428   -1.2291 C   0  0  0  0  0  0  0  0  0  0  0  0
    0.5292   -5.1574    0.8886 C   0  0  0  0  0  0  0  0  0  0  0  0
    0.3089   -1.2831   -0.8703 C   0  0  2  0  0  0  0  0  0  0  0  0
   -1.2072   -1.3706   -0.7057 C   0  0  2  0  0  0  0  0  0  0  0  0
   -0.1698   -6.9957    0.3673 C   0  0  0  0  0  0  0  0  0  0  0  0
   -1.5144   -2.8978   -0.7475 C   0  0  2  0  0  0  0  0  0  0  0  0
   -0.7966   -8.2454    0.4913 C   0  0  0  0  0  0  0  0  0  0  0  0
   -0.6699   -6.0901   -0.5770 C   0  0  0  0  0  0  0  0  0  0  0  0
   -0.2188   -3.6199   -1.0557 C   0  0  2  0  0  0  0  0  0  0  0  0
   -1.9262   -0.5765   -1.7150 N   0  0  0  0  0  0  0  0  0  0  0  0
   -0.4319   -9.1232    1.4935 N   0  0  0  0  0  0  0  0  0  0  0  0
   -1.8290   -8.5034   -0.3332 N   0  0  0  0  0  0  0  0  0  0  0  0
   -1.6677   -6.3065   -1.4206 N   0  0  0  0  0  0  0  0  0  0  0  0
    0.7814   -6.4300    1.1340 N   0  0  0  0  0  0  0  0  0  0  0  0
   -0.0124   -4.9019   -0.3302 N   0  0  0  0  0  0  0  0  0  0  0  0
   -2.4415   -3.2514   -1.7660 O   0  0  0  0  0  0  0  0  0  0  0  0
    2.5070   -2.5698    0.5653 O   0  0  0  0  0  0  0  0  0  0  0  0
    3.9001   -2.9444    2.3886 O   0  0  0  0  0  0  0  0  0  0  0  0
    3.6881   -4.4576    0.5774 O   0  0  0  0  0  0  0  0  0  0  0  0
    0.8058   -0.9590    3.7667 O   0  0  0  0  0  0  0  0  0  0  0  0
   -0.7425   -2.1618    2.0928 O   0  0  0  0  0  0  0  0  0  0  0  0
    1.2587   -0.5859    1.4689 O   0  0  0  0  0  0  0  0  0  0  0  0
    0.8099   -2.6462   -0.7964 O   0  0  0  0  0  0  0  0  0  0  0  0
    1.6611   -3.0054    2.7057 O   0  0  0  0  0  0  0  0  0  0  0  0
    2.7307   -3.7718    1.5826 P   0  0  0  0  0  0  0  0  0  0  0  0
    0.6652   -1.7672    2.3824 P   0  0  3  0  0  0  0  0  0  0  0  0
    0.5376   -0.9118   -1.8856 H   0  0  0  0  0  0  0  0  0  0  0  0
   -1.4913   -0.9438    0.2606 H   0  0  0  0  0  0  0  0  0  0  0  0
   -1.9183   -3.2205    0.2155 H   0  0  0  0  0  0  0  0  0  0  0  0
   -0.0912   -3.8813   -2.1120 H   0  0  0  0  0  0  0  0  0  0  0  0
    0.5913    0.7221   -0.0032 H   0  0  0  0  0  0  0  0  0  0  0  0
    2.0680   -0.1142   -0.3002 H   0  0  0  0  0  0  0  0  0  0  0  0
   -3.0090   -7.7894   -1.8865 H   0  0  0  0  0  0  0  0  0  0  0  0
    0.5897   -4.4635    1.6734 H   0  0  0  0  0  0  0  0  0  0  0  0
   -1.8162    0.4227   -1.5394 H   0  0  0  0  0  0  0  0  0  0  0  0
   -2.9244   -0.7607   -1.6486 H   0  0  0  0  0  0  0  0  0  0  0  0
    0.3564   -8.8744    2.0781 H   0  0  0  0  0  0  0  0  0  0  0  0
   -0.8425  -10.0421    1.5369 H   0  0  0  0  0  0  0  0  0  0  0  0
   -3.2518   -2.7518   -1.6078 H   0  0  0  0  0  0  0  0  0  0  0  0
    2.0070   -2.9756   -0.1807 H   0  0  0  0  0  0  0  0  0  0  0  0
    3.6366   -2.0114    2.4822 H   0  0  0  0  0  0  0  0  0  0  0  0
    1.6711   -0.5077    3.8015 H   0  0  0  0  0  0  0  0  0  0  0  0
  1 32  1  0  0  0  0
  1 33  1  0  0  0  0
  2 34  1  0  0  0  0
  3 35  1  0  0  0  0
  4  1  1  0  0  0  0
  4 28  1  6  0  0  0
  5  4  1  0  0  0  0
  5 29  1  1  0  0  0
  5 11  1  0  0  0  0
  7  5  1  0  0  0  0
  7 30  1  1  0  0  0
  7 17  1  0  0  0  0
  8  6  2  0  0  0  0
  9  6  1  0  0  0  0
 10  7  1  0  0  0  0
 10 16  1  0  0  0  0
 10 31  1  6  0  0  0
 11 36  1  0  0  0  0
 11 37  1  0  0  0  0
 12  8  1  0  0  0  0
 12 38  1  0  0  0  0
 12 39  1  0  0  0  0
 13  2  2  0  0  0  0
 13  8  1  0  0  0  0
 14  2  1  0  0  0  0
 14  9  2  0  0  0  0
 15  3  2  0  0  0  0
 15  6  1  0  0  0  0
 16  3  1  0  0  0  0
 16  9  1  0  0  0  0
 17 40  1  0  0  0  0
 18 41  1  0  0  0  0
 19 42  1  0  0  0  0
 21 43  1  0  0  0  0
 23  1  1  0  0  0  0
 24  4  1  0  0  0  0
 24 10  1  0  0  0  0
 26 18  1  0  0  0  0
 26 19  1  0  0  0  0
 26 20  2  0  0  0  0
 26 25  1  0  0  0  0
 27 21  1  0  0  0  0
 27 22  2  0  0  0  0
 27 23  1  0  0  0  0
 27 25  1  0  0  0  0
M  END
>  <DRUGBANK_ID>
DB04366

>  <SECONDARY_ACCESSION_NUMBERS>
EXPT00161

>  <COMMON_NAME>
3'-Deoxy 3'-Amino Adenosine-5'-Diphosphate

$$$$
