
 OpenBabel10282417203D

 52 53  0  0  1  0  0  0  0  0999 V2000
    1.0194   -0.0914    0.1044 C   0  0  0  0  0  0  0  0  0  0  0  0
    0.4762    0.0827    1.5407 C   0  0  2  0  0  0  0  0  0  0  0  0
    0.4659    1.5622    1.9335 C   0  0  0  0  0  0  0  0  0  0  0  0
    2.0543    1.8761    2.6884 S   0  0  0  0  0  0  0  0  0  0  0  0
    2.2027    0.1965    3.0906 C   0  0  0  0  0  0  0  0  0  0  0  0
    1.3658   -0.6554    2.5485 N   0  0  0  0  0  0  0  0  0  0  0  0
    3.3310   -0.0192    4.0492 C   0  0  0  0  0  0  0  0  0  0  0  0
    3.1370    0.2034    5.4192 C   0  0  0  0  0  0  0  0  0  0  0  0
    4.1243   -0.1908    6.3389 C   0  0  0  0  0  0  0  0  0  0  0  0
    5.2931   -0.8726    5.9100 C   0  0  0  0  0  0  0  0  0  0  0  0
    5.5612   -1.0404    4.5137 C   0  0  0  0  0  0  0  0  0  0  0  0
    4.5882   -0.4942    3.5843 C   0  0  0  0  0  0  0  0  0  0  0  0
    4.6218   -0.8103    2.2392 O   0  0  0  0  0  0  0  0  0  0  0  0
    6.3499   -2.2210    4.2091 O   0  0  0  0  0  0  0  0  0  0  0  0
    6.3513   -2.9242    2.8748 C   0  0  0  0  0  0  0  0  0  0  0  0
    5.1026   -3.7684    2.1993 C   0  0  0  0  0  0  0  0  0  0  0  0
    3.7658   -3.4002    2.6080 O   0  0  0  0  0  0  0  0  0  0  0  0
    3.5852   -2.9766    3.9724 C   0  0  0  0  0  0  0  0  0  0  0  0
    4.0470   -3.5623    5.3358 C   0  0  0  0  0  0  0  0  0  0  0  0
    4.7738   -4.7777    5.6188 O   0  0  0  0  0  0  0  0  0  0  0  0
    4.8409   -5.4978    4.4076 C   0  0  0  0  0  0  0  0  0  0  0  0
    3.5253   -6.0879    3.7570 C   0  0  0  0  0  0  0  0  0  0  0  0
    2.2897   -5.3467    3.7906 O   0  0  0  0  0  0  0  0  0  0  0  0
    1.6964   -5.1381    5.0787 C   0  0  0  0  0  0  0  0  0  0  0  0
   -0.9727   -0.4386    1.5415 C   0  0  0  0  0  0  0  0  0  0  0  0
   -1.6244   -0.8209    0.5216 O   0  0  0  0  0  0  0  0  0  0  0  0
   -1.6189   -0.3882    2.7132 O   0  0  0  0  0  0  0  0  0  0  0  0
    0.6355    0.7081   -0.5467 H   0  0  0  0  0  0  0  0  0  0  0  0
    0.6946   -1.0325   -0.3587 H   0  0  0  0  0  0  0  0  0  0  0  0
    2.1094   -0.0650    0.0637 H   0  0  0  0  0  0  0  0  0  0  0  0
    0.3903    2.2467    1.0905 H   0  0  0  0  0  0  0  0  0  0  0  0
   -0.3016    1.7942    2.6736 H   0  0  0  0  0  0  0  0  0  0  0  0
    2.2230    0.6832    5.7690 H   0  0  0  0  0  0  0  0  0  0  0  0
    3.9427   -0.0166    7.4023 H   0  0  0  0  0  0  0  0  0  0  0  0
    5.8630   -1.4037    6.6833 H   0  0  0  0  0  0  0  0  0  0  0  0
    4.4357   -1.7683    2.1527 H   0  0  0  0  0  0  0  0  0  0  0  0
    6.6513   -2.1641    2.1702 H   0  0  0  0  0  0  0  0  0  0  0  0
    7.1639   -3.6691    2.9502 H   0  0  0  0  0  0  0  0  0  0  0  0
    5.1397   -3.8787    1.1077 H   0  0  0  0  0  0  0  0  0  0  0  0
    5.2164   -4.8547    2.3102 H   0  0  0  0  0  0  0  0  0  0  0  0
    4.4123   -2.4294    3.9688 H   0  0  0  0  0  0  0  0  0  0  0  0
    2.6864   -2.3536    4.1131 H   0  0  0  0  0  0  0  0  0  0  0  0
    3.7000   -3.0826    6.2620 H   0  0  0  0  0  0  0  0  0  0  0  0
    3.2278   -4.0435    5.0164 H   0  0  0  0  0  0  0  0  0  0  0  0
    5.1793   -4.6355    3.9296 H   0  0  0  0  0  0  0  0  0  0  0  0
    5.7477   -6.0735    4.1865 H   0  0  0  0  0  0  0  0  0  0  0  0
    3.7048   -6.2895    2.6831 H   0  0  0  0  0  0  0  0  0  0  0  0
    3.3219   -7.0372    4.2280 H   0  0  0  0  0  0  0  0  0  0  0  0
    1.5546   -6.0594    5.6038 H   0  0  0  0  0  0  0  0  0  0  0  0
    2.3279   -4.8264    5.9171 H   0  0  0  0  0  0  0  0  0  0  0  0
    1.0841   -4.2208    5.0309 H   0  0  0  0  0  0  0  0  0  0  0  0
   -2.5234   -0.7342    2.5428 H   0  0  0  0  0  0  0  0  0  0  0  0
  1 28  1  0  0  0  0
  1 29  1  0  0  0  0
  1 30  1  0  0  0  0
  2  1  1  0  0  0  0
  2  3  1  0  0  0  0
  2  6  1  0  0  0  0
  2 25  1  1  0  0  0
  3  4  1  0  0  0  0
  3 31  1  0  0  0  0
  3 32  1  0  0  0  0
  4  5  1  0  0  0  0
  5  6  2  0  0  0  0
  5  7  1  0  0  0  0
  7  8  2  0  0  0  0
  7 12  1  0  0  0  0
  8  9  1  0  0  0  0
  8 33  1  0  0  0  0
  9 10  2  0  0  0  0
  9 34  1  0  0  0  0
 10 11  1  0  0  0  0
 10 35  1  0  0  0  0
 11 12  2  0  0  0  0
 11 14  1  0  0  0  0
 12 13  1  0  0  0  0
 13 36  1  0  0  0  0
 14 15  1  0  0  0  0
 15 16  1  0  0  0  0
 15 37  1  0  0  0  0
 15 38  1  0  0  0  0
 16 17  1  0  0  0  0
 16 39  1  0  0  0  0
 16 40  1  0  0  0  0
 17 18  1  0  0  0  0
 18 19  1  0  0  0  0
 18 41  1  0  0  0  0
 18 42  1  0  0  0  0
 19 20  1  0  0  0  0
 19 43  1  0  0  0  0
 19 44  1  0  0  0  0
 20 21  1  0  0  0  0
 21 22  1  0  0  0  0
 21 45  1  0  0  0  0
 21 46  1  0  0  0  0
 22 23  1  0  0  0  0
 22 47  1  0  0  0  0
 22 48  1  0  0  0  0
 23 24  1  0  0  0  0
 24 49  1  0  0  0  0
 24 50  1  0  0  0  0
 24 51  1  0  0  0  0
 25 26  2  0  0  0  0
 25 27  1  0  0  0  0
 27 52  1  0  0  0  0
M  END
>  <DRUGBANK_ID>
DB13120

>  <COMMON_NAME>
Deferitazole

>  <CAS_NUMBER>
945635-15-4

>  <UNII>
4D8DC53Y1L

>  <SYNONYMS>
Deferitazole

$$$$
