
 OpenBabel10282417193D

 35 37  0  0  1  0  0  0  0  0999 V2000
    2.3346   -0.7136   -0.5038 C   0  0  0  0  0  0  0  0  0  0  0  0
    2.1326    0.6491   -0.2772 C   0  0  0  0  0  0  0  0  0  0  0  0
    0.7343    0.7732   -0.1515 C   0  0  0  0  0  0  0  0  0  0  0  0
    0.1611   -0.4707   -0.1427 C   0  0  0  0  0  0  0  0  0  0  0  0
    1.1567   -1.3887   -0.2650 N   0  0  0  0  0  0  0  0  0  0  0  0
   -1.2348   -0.6787   -0.0278 C   0  0  0  0  0  0  0  0  0  0  0  0
   -1.7889   -1.7774    0.0247 O   0  0  0  0  0  0  0  0  0  0  0  0
   -1.9193    0.5076   -0.0091 N   0  0  0  0  0  0  0  0  0  0  0  0
   -1.2856    1.7338   -0.0016 C   0  0  0  0  0  0  0  0  0  0  0  0
   -0.0066    1.9470   -0.0242 N   0  0  0  0  0  0  0  0  0  0  0  0
    3.1636    1.7351   -0.1231 C   0  0  0  0  0  0  0  0  0  0  0  0
    3.9919    1.5872    1.0953 N   0  0  0  0  0  0  0  0  0  0  0  0
    3.2387    1.7677    2.3447 C   0  0  0  0  0  0  0  0  0  0  0  0
    3.6674    0.6332    3.2907 C   0  0  1  0  0  0  0  0  0  0  0  0
    4.0803   -0.4762    2.3405 C   0  0  2  0  0  0  0  0  0  0  0  0
    4.7155    0.3081    1.1757 C   0  0  0  0  0  0  0  0  0  0  0  0
    2.8995   -1.2067    2.0461 O   0  0  0  0  0  0  0  0  0  0  0  0
    4.8412    0.9639    4.1909 C   0  0  0  0  0  0  0  0  0  0  0  0
    4.5648    2.1088    4.9761 O   0  0  0  0  0  0  0  0  0  0  0  0
    3.2421   -1.2967   -0.5831 H   0  0  0  0  0  0  0  0  0  0  0  0
    1.0685   -2.3891   -0.1187 H   0  0  0  0  0  0  0  0  0  0  0  0
   -2.9244    0.4420    0.0047 H   0  0  0  0  0  0  0  0  0  0  0  0
   -1.9870    2.5811    0.0262 H   0  0  0  0  0  0  0  0  0  0  0  0
    3.8202    1.7427   -1.0005 H   0  0  0  0  0  0  0  0  0  0  0  0
    2.6842    2.7228   -0.0973 H   0  0  0  0  0  0  0  0  0  0  0  0
    3.4133    2.7654    2.7556 H   0  0  0  0  0  0  0  0  0  0  0  0
    2.1559    1.7096    2.1850 H   0  0  0  0  0  0  0  0  0  0  0  0
    2.8027    0.3444    3.9029 H   0  0  0  0  0  0  0  0  0  0  0  0
    4.7813   -1.2068    2.7484 H   0  0  0  0  0  0  0  0  0  0  0  0
    5.7588    0.5357    1.4317 H   0  0  0  0  0  0  0  0  0  0  0  0
    4.7812   -0.2112    0.2190 H   0  0  0  0  0  0  0  0  0  0  0  0
    2.2284   -0.5351    1.8173 H   0  0  0  0  0  0  0  0  0  0  0  0
    5.0117    0.1201    4.8692 H   0  0  0  0  0  0  0  0  0  0  0  0
    5.7662    1.1250    3.6295 H   0  0  0  0  0  0  0  0  0  0  0  0
    4.5384    2.8703    4.3714 H   0  0  0  0  0  0  0  0  0  0  0  0
  1  2  2  0  0  0  0
  1  5  1  0  0  0  0
  1 20  1  0  0  0  0
  2  3  1  0  0  0  0
  2 11  1  0  0  0  0
  3  4  2  0  0  0  0
  3 10  1  0  0  0  0
  4  5  1  0  0  0  0
  4  6  1  0  0  0  0
  5 21  1  0  0  0  0
  6  7  2  0  0  0  0
  6  8  1  0  0  0  0
  8  9  1  0  0  0  0
  8 22  1  0  0  0  0
  9 10  2  0  0  0  0
  9 23  1  0  0  0  0
 11 12  1  0  0  0  0
 11 24  1  0  0  0  0
 11 25  1  0  0  0  0
 12 13  1  0  0  0  0
 12 16  1  0  0  0  0
 13 14  1  0  0  0  0
 13 26  1  0  0  0  0
 13 27  1  0  0  0  0
 14 15  1  0  0  0  0
 14 28  1  1  0  0  0
 14 18  1  0  0  0  0
 15 16  1  0  0  0  0
 15 17  1  0  0  0  0
 15 29  1  1  0  0  0
 16 30  1  0  0  0  0
 16 31  1  0  0  0  0
 17 32  1  0  0  0  0
 18 19  1  0  0  0  0
 18 33  1  0  0  0  0
 18 34  1  0  0  0  0
 19 35  1  0  0  0  0
M  END
>  <DRUGBANK_ID>
DB12353

>  <SECONDARY_ACCESSION_NUMBERS>
DB05568

>  <COMMON_NAME>
Ulodesine

>  <CAS_NUMBER>
548486-59-5

>  <UNII>
JNG8L9460Y

>  <SYNONYMS>
4H-PYRROLO(3,2-D)PYRIMIDIN-4-ONE, 1,5-DIHYDRO-7-(((3R,4R)-3-HYDROXY-4-(HYDROXYMETHYL)-1-PYRROLIDINYL)METHYL)-; 7-(((3R,4R)-3-HYDROXY-4-(HYDROXYMETHYL)PYRROLIDIN-1-YL)METHYL(-1,5-DIHYDRO-4H-PYRROLO(3,2-D)PYRIMIDIN-4-ONE; 7-(((3R,4R)-3-HYDROXY-4-(HYDROXYMETHYL)PYRROLIDIN-1-YL)METHYL)-3,5-DIHYDRO-4H-PYRROLO(3,2-D)PYRIMIDIN-4-ONE; DADME-IMMUCILLIN H; Ulodesine

$$$$
