637
 OpenBabel10282417103D

 65 69  0  0  0  0  0  0  0  0999 V2000
    2.6167    0.0033   -0.2413 F   0  0  0  0  0  0  0  0  0  0  0  0
   -8.2431   -3.3392   -0.0770 O   0  0  0  0  0  0  0  0  0  0  0  0
   -2.9557    1.0790    0.7275 N   0  0  0  0  0  0  0  0  0  0  0  0
   -3.0601   -3.1501   -1.2151 N   0  0  0  0  0  0  0  0  0  0  0  0
   -3.5549   -0.9925   -1.9205 N   0  0  0  0  0  0  0  0  0  0  0  0
   -4.4675   -2.5784   -3.1448 N   0  0  0  0  0  0  0  0  0  0  0  0
   -2.1225   -2.5590   -0.1914 C   0  0  0  0  0  0  0  0  0  0  0  0
   -2.9808   -2.1220    1.4858 C   0  0  0  0  0  0  0  0  0  0  0  0
   -1.2654   -1.1335   -1.1970 C   0  0  0  0  0  0  0  0  0  0  0  0
   -3.5208   -0.3580    1.8522 C   0  0  0  0  0  0  0  0  0  0  0  0
   -1.9326    0.7342   -0.9926 C   0  0  0  0  0  0  0  0  0  0  0  0
   -3.9562    2.0678    0.6317 C   0  0  0  0  0  0  0  0  0  0  0  0
   -4.9805    1.6016   -0.3500 C   0  0  0  0  0  0  0  0  0  0  0  0
   -3.6228   -2.3401   -2.1681 C   0  0  0  0  0  0  0  0  0  0  0  0
   -5.9251    0.2124   -0.2215 C   0  0  0  0  0  0  0  0  0  0  0  0
   -4.6108   -0.2992   -2.7227 C   0  0  0  0  0  0  0  0  0  0  0  0
   -3.0659   -0.7121   -0.2595 C   0  0  0  0  0  0  0  0  0  0  0  0
   -5.1429   -1.3769   -3.4211 C   0  0  0  0  0  0  0  0  0  0  0  0
   -5.3338    0.9957   -2.9005 C   0  0  0  0  0  0  0  0  0  0  0  0
   -1.3429   -0.2838    0.8554 C   0  0  0  0  0  0  0  0  0  0  0  0
   -5.6307   -1.2724   -0.2907 C   0  0  0  0  0  0  0  0  0  0  0  0
   -7.2520    0.3809   -0.1233 C   0  0  0  0  0  0  0  0  0  0  0  0
   -6.2654   -1.0942   -4.2513 C   0  0  0  0  0  0  0  0  0  0  0  0
   -6.5301    1.2004   -3.5641 C   0  0  0  0  0  0  0  0  0  0  0  0
   -6.9377    0.1599   -4.3266 C   0  0  0  0  0  0  0  0  0  0  0  0
   -6.3230   -2.4316   -0.3883 C   0  0  0  0  0  0  0  0  0  0  0  0
   -8.0262   -0.7990    0.0424 C   0  0  0  0  0  0  0  0  0  0  0  0
   -0.6190    1.0953    0.8295 C   0  0  0  0  0  0  0  0  0  0  0  0
   -0.4585   -1.2595    1.2718 C   0  0  0  0  0  0  0  0  0  0  0  0
   -7.5826   -2.1642   -0.1473 C   0  0  0  0  0  0  0  0  0  0  0  0
    0.7102    1.1879    0.4251 C   0  0  0  0  0  0  0  0  0  0  0  0
    0.8654   -1.2022    0.7935 C   0  0  0  0  0  0  0  0  0  0  0  0
    1.4242    0.0103    0.3596 C   0  0  0  0  0  0  0  0  0  0  0  0
   -9.5888   -3.0860    0.1366 C   0  0  0  0  0  0  0  0  0  0  0  0
   -2.8188   -4.0854   -1.5331 H   0  0  0  0  0  0  0  0  0  0  0  0
   -1.4648   -3.3934    0.0871 H   0  0  0  0  0  0  0  0  0  0  0  0
   -3.7972   -2.8559    1.6573 H   0  0  0  0  0  0  0  0  0  0  0  0
   -2.3357   -2.2989    2.3620 H   0  0  0  0  0  0  0  0  0  0  0  0
   -0.3204   -0.8616   -0.8427 H   0  0  0  0  0  0  0  0  0  0  0  0
   -0.7717   -1.5721   -2.0599 H   0  0  0  0  0  0  0  0  0  0  0  0
   -4.5217   -0.7910    1.5805 H   0  0  0  0  0  0  0  0  0  0  0  0
   -4.2043   -0.0089    2.6619 H   0  0  0  0  0  0  0  0  0  0  0  0
   -1.2141    1.4878   -1.2607 H   0  0  0  0  0  0  0  0  0  0  0  0
   -2.5095    0.7828   -1.9172 H   0  0  0  0  0  0  0  0  0  0  0  0
   -4.4405    2.3045    1.5706 H   0  0  0  0  0  0  0  0  0  0  0  0
   -3.3963    2.9363    0.2456 H   0  0  0  0  0  0  0  0  0  0  0  0
   -5.5749    2.4954   -0.5823 H   0  0  0  0  0  0  0  0  0  0  0  0
   -4.2490    1.6097   -1.1814 H   0  0  0  0  0  0  0  0  0  0  0  0
   -3.9493   -0.4999    0.1719 H   0  0  0  0  0  0  0  0  0  0  0  0
   -3.5296    0.1338   -0.6969 H   0  0  0  0  0  0  0  0  0  0  0  0
   -5.1517    1.9721   -2.4640 H   0  0  0  0  0  0  0  0  0  0  0  0
   -4.7082   -1.8138   -0.2123 H   0  0  0  0  0  0  0  0  0  0  0  0
   -7.6490    1.3846   -0.1391 H   0  0  0  0  0  0  0  0  0  0  0  0
   -6.6192   -1.9022   -4.8643 H   0  0  0  0  0  0  0  0  0  0  0  0
   -7.0383    2.1724   -3.4942 H   0  0  0  0  0  0  0  0  0  0  0  0
   -7.7498    0.3472   -5.0167 H   0  0  0  0  0  0  0  0  0  0  0  0
   -5.8384   -3.4097   -0.5238 H   0  0  0  0  0  0  0  0  0  0  0  0
   -9.0232   -0.6311    0.3990 H   0  0  0  0  0  0  0  0  0  0  0  0
   -1.1320    2.0695    0.6156 H   0  0  0  0  0  0  0  0  0  0  0  0
   -0.7735   -2.2655    1.4191 H   0  0  0  0  0  0  0  0  0  0  0  0
    1.0432    2.1134   -0.0502 H   0  0  0  0  0  0  0  0  0  0  0  0
    1.1839   -2.1438    0.3115 H   0  0  0  0  0  0  0  0  0  0  0  0
   -9.6836   -2.6375    1.1277 H   0  0  0  0  0  0  0  0  0  0  0  0
   -9.9600   -2.4364   -0.6618 H   0  0  0  0  0  0  0  0  0  0  0  0
  -10.0840   -4.0462    0.1013 H   0  0  0  0  0  0  0  0  0  0  0  0
  1 33  1  0  0  0  0
  2 30  1  0  0  0  0
  2 34  1  0  0  0  0
  3 10  1  0  0  0  0
  3 11  1  0  0  0  0
  3 12  1  0  0  0  0
  4  7  1  0  0  0  0
  4 14  1  0  0  0  0
  4 35  1  0  0  0  0
  5 14  1  0  0  0  0
  5 16  1  0  0  0  0
  5 17  1  0  0  0  0
  6 14  2  0  0  0  0
  6 18  1  0  0  0  0
  7  8  1  0  0  0  0
  7  9  1  0  0  0  0
  7 36  1  0  0  0  0
  8 10  1  0  0  0  0
  8 37  1  0  0  0  0
  8 38  1  0  0  0  0
  9 11  1  0  0  0  0
  9 39  1  0  0  0  0
  9 40  1  0  0  0  0
 10 41  1  0  0  0  0
 10 42  1  0  0  0  0
 11 43  1  0  0  0  0
 11 44  1  0  0  0  0
 12 13  1  0  0  0  0
 12 45  1  0  0  0  0
 12 46  1  0  0  0  0
 13 15  1  0  0  0  0
 13 47  1  0  0  0  0
 13 48  1  0  0  0  0
 15 21  2  0  0  0  0
 15 22  1  0  0  0  0
 16 18  1  0  0  0  0
 16 19  2  0  0  0  0
 17 20  1  0  0  0  0
 17 49  1  0  0  0  0
 17 50  1  0  0  0  0
 18 23  2  0  0  0  0
 19 24  1  0  0  0  0
 19 51  1  0  0  0  0
 20 28  2  0  0  0  0
 20 29  1  0  0  0  0
 21 26  1  0  0  0  0
 21 52  1  0  0  0  0
 22 27  2  0  0  0  0
 22 53  1  0  0  0  0
 23 25  1  0  0  0  0
 23 54  1  0  0  0  0
 24 25  2  0  0  0  0
 24 55  1  0  0  0  0
 25 56  1  0  0  0  0
 26 30  2  0  0  0  0
 26 57  1  0  0  0  0
 27 30  1  0  0  0  0
 27 58  1  0  0  0  0
 28 31  1  0  0  0  0
 28 59  1  0  0  0  0
 29 32  2  0  0  0  0
 29 60  1  0  0  0  0
 31 33  2  0  0  0  0
 31 61  1  0  0  0  0
 32 33  1  0  0  0  0
 32 62  1  0  0  0  0
 34 63  1  0  0  0  0
 34 64  1  0  0  0  0
 34 65  1  0  0  0  0
M  END
>  <DRUGBANK_ID>
DB00637

>  <SECONDARY_ACCESSION_NUMBERS>
APRD00585

>  <COMMON_NAME>
Astemizole

>  <CAS_NUMBER>
68844-77-9

>  <UNII>
7HU6337315

>  <SYNONYMS>
1-(p-Fluorobenzyl)-2-((1-(2-(p-methoxyphenyl)ethyl)piperid-4-yl)amino)benzimidazole; 1-(p-Fluorobenzyl)-2-((1-(p-methoxyphenethyl)-4-piperidyl)amino)benzimidazole; Astemizol; Ast√©mizole; Astemizole; Astemizolum

$$$$
