
 OpenBabel10282417193D

 76 79  0  0  0  0  0  0  0  0999 V2000
    1.0002   -0.0915   -0.0762 C   0  0  0  0  0  0  0  0  0  0  0  0
    0.5041   -1.4759    0.2929 C   0  0  0  0  0  0  0  0  0  0  0  0
    0.9989   -1.9046    1.6819 C   0  0  0  0  0  0  0  0  0  0  0  0
    0.5094   -0.9808    2.7985 C   0  0  0  0  0  0  0  0  0  0  0  0
   -0.9749   -1.0033    2.8388 C   0  0  0  0  0  0  0  0  0  0  0  0
   -1.6646   -2.1353    2.8061 N   0  0  0  0  0  0  0  0  0  0  0  0
   -2.9409   -1.8070    3.1425 C   0  0  0  0  0  0  0  0  0  0  0  0
   -3.0489   -0.4266    3.2062 C   0  0  0  0  0  0  0  0  0  0  0  0
   -1.7852    0.0902    3.0761 N   0  0  0  0  0  0  0  0  0  0  0  0
   -1.3958    1.3969    3.4566 C   0  0  0  0  0  0  0  0  0  0  0  0
   -1.8266    1.8591    4.6983 C   0  0  0  0  0  0  0  0  0  0  0  0
   -1.3167    3.0517    5.2033 C   0  0  0  0  0  0  0  0  0  0  0  0
   -0.3698    3.7878    4.4864 C   0  0  0  0  0  0  0  0  0  0  0  0
    0.0597    3.3197    3.2434 C   0  0  0  0  0  0  0  0  0  0  0  0
   -0.5030    2.1603    2.7055 C   0  0  0  0  0  0  0  0  0  0  0  0
    0.1381    5.0109    4.8641 O   0  0  0  0  0  0  0  0  0  0  0  0
   -0.1902    5.5360    6.0908 C   0  0  0  0  0  0  0  0  0  0  0  0
    0.0978    4.8623    7.2807 C   0  0  0  0  0  0  0  0  0  0  0  0
   -0.1680    5.4681    8.5076 C   0  0  0  0  0  0  0  0  0  0  0  0
   -0.6540    6.7734    8.5406 C   0  0  0  0  0  0  0  0  0  0  0  0
   -0.8962    7.4692    7.3559 C   0  0  0  0  0  0  0  0  0  0  0  0
   -0.7036    6.8342    6.1260 C   0  0  0  0  0  0  0  0  0  0  0  0
   -0.9697    7.5242   10.0555 Cl  0  0  0  0  0  0  0  0  0  0  0  0
   -4.0565   -2.7549    3.1868 C   0  0  0  0  0  0  0  0  0  0  0  0
   -5.2180   -2.2294    2.7022 C   0  0  0  0  0  0  0  0  0  0  0  0
   -6.1938   -3.0964    2.2304 C   0  0  0  0  0  0  0  0  0  0  0  0
   -6.4265   -4.3830    2.5038 C   0  0  0  0  0  0  0  0  0  0  0  0
   -5.3377   -4.9134    3.1968 C   0  0  0  0  0  0  0  0  0  0  0  0
   -4.1597   -4.0941    3.5133 C   0  0  0  0  0  0  0  0  0  0  0  0
   -7.4885   -5.1152    2.0253 O   0  0  0  0  0  0  0  0  0  0  0  0
   -8.4496   -4.7614    0.9548 C   0  0  0  0  0  0  0  0  0  0  0  0
   -9.1601   -3.3914    0.8735 C   0  0  0  0  0  0  0  0  0  0  0  0
   -8.2953   -2.1535    0.5727 C   0  0  0  0  0  0  0  0  0  0  0  0
   -7.3559   -2.1718   -0.6174 N   0  0  0  0  0  0  0  0  0  0  0  0
   -6.5398   -0.9484   -0.8162 C   0  0  0  0  0  0  0  0  0  0  0  0
   -5.3063   -0.8955    0.0384 C   0  0  0  0  0  0  0  0  0  0  0  0
   -6.6534   -3.3837   -1.1786 C   0  0  0  0  0  0  0  0  0  0  0  0
   -5.5487   -4.2552   -0.4922 C   0  0  0  0  0  0  0  0  0  0  0  0
    0.6497    0.6440    0.6353 H   0  0  0  0  0  0  0  0  0  0  0  0
    0.6254    0.2192   -1.0531 H   0  0  0  0  0  0  0  0  0  0  0  0
    2.0914   -0.0490   -0.0655 H   0  0  0  0  0  0  0  0  0  0  0  0
   -0.5928   -1.4900    0.2489 H   0  0  0  0  0  0  0  0  0  0  0  0
    0.8502   -2.1967   -0.4533 H   0  0  0  0  0  0  0  0  0  0  0  0
    0.6533   -2.9284    1.8776 H   0  0  0  0  0  0  0  0  0  0  0  0
    2.0929   -1.9333    1.6991 H   0  0  0  0  0  0  0  0  0  0  0  0
    0.8644   -1.3412    3.7705 H   0  0  0  0  0  0  0  0  0  0  0  0
    0.9339    0.0172    2.6804 H   0  0  0  0  0  0  0  0  0  0  0  0
   -3.8944    0.2443    3.3241 H   0  0  0  0  0  0  0  0  0  0  0  0
   -2.5121    1.2809    5.3122 H   0  0  0  0  0  0  0  0  0  0  0  0
   -1.6674    3.3659    6.1789 H   0  0  0  0  0  0  0  0  0  0  0  0
    0.8212    3.8585    2.6814 H   0  0  0  0  0  0  0  0  0  0  0  0
   -0.2632    1.9023    1.6855 H   0  0  0  0  0  0  0  0  0  0  0  0
    0.5087    3.8569    7.2566 H   0  0  0  0  0  0  0  0  0  0  0  0
    0.0248    4.9236    9.4274 H   0  0  0  0  0  0  0  0  0  0  0  0
   -1.2234    8.5052    7.3854 H   0  0  0  0  0  0  0  0  0  0  0  0
   -0.9463    7.3559    5.2034 H   0  0  0  0  0  0  0  0  0  0  0  0
   -5.2072   -1.2013    2.4522 H   0  0  0  0  0  0  0  0  0  0  0  0
   -6.4524   -2.8152    1.2343 H   0  0  0  0  0  0  0  0  0  0  0  0
   -5.3214   -5.9714    3.3975 H   0  0  0  0  0  0  0  0  0  0  0  0
   -3.3403   -4.5449    4.0717 H   0  0  0  0  0  0  0  0  0  0  0  0
   -8.0752   -5.0668   -0.0247 H   0  0  0  0  0  0  0  0  0  0  0  0
   -9.2684   -5.4929    1.0628 H   0  0  0  0  0  0  0  0  0  0  0  0
   -9.9676   -3.3951    0.1246 H   0  0  0  0  0  0  0  0  0  0  0  0
   -9.6661   -3.2599    1.8418 H   0  0  0  0  0  0  0  0  0  0  0  0
   -8.9168   -1.2472    0.5370 H   0  0  0  0  0  0  0  0  0  0  0  0
   -7.8795   -1.9130    1.5589 H   0  0  0  0  0  0  0  0  0  0  0  0
   -6.2260   -0.8534   -1.8570 H   0  0  0  0  0  0  0  0  0  0  0  0
   -7.1256   -0.0561   -0.5657 H   0  0  0  0  0  0  0  0  0  0  0  0
   -4.7323   -1.8201    0.0304 H   0  0  0  0  0  0  0  0  0  0  0  0
   -4.5794   -0.0958   -0.0960 H   0  0  0  0  0  0  0  0  0  0  0  0
   -5.7732   -0.6679    0.9780 H   0  0  0  0  0  0  0  0  0  0  0  0
   -7.4290   -4.0692   -1.5217 H   0  0  0  0  0  0  0  0  0  0  0  0
   -6.1912   -3.0700   -2.1218 H   0  0  0  0  0  0  0  0  0  0  0  0
   -5.9593   -4.8265    0.3198 H   0  0  0  0  0  0  0  0  0  0  0  0
   -5.1589   -5.0662   -1.1179 H   0  0  0  0  0  0  0  0  0  0  0  0
   -4.6696   -3.7249   -0.1167 H   0  0  0  0  0  0  0  0  0  0  0  0
  1  2  1  0  0  0  0
  1 39  1  0  0  0  0
  1 40  1  0  0  0  0
  1 41  1  0  0  0  0
  2  3  1  0  0  0  0
  2 42  1  0  0  0  0
  2 43  1  0  0  0  0
  3  4  1  0  0  0  0
  3 44  1  0  0  0  0
  3 45  1  0  0  0  0
  4  5  1  0  0  0  0
  4 46  1  0  0  0  0
  4 47  1  0  0  0  0
  5  6  2  0  0  0  0
  5  9  1  0  0  0  0
  6  7  1  0  0  0  0
  7  8  2  0  0  0  0
  7 24  1  0  0  0  0
  8  9  1  0  0  0  0
  8 48  1  0  0  0  0
  9 10  1  0  0  0  0
 10 11  2  0  0  0  0
 10 15  1  0  0  0  0
 11 12  1  0  0  0  0
 11 49  1  0  0  0  0
 12 13  2  0  0  0  0
 12 50  1  0  0  0  0
 13 14  1  0  0  0  0
 13 16  1  0  0  0  0
 14 15  2  0  0  0  0
 14 51  1  0  0  0  0
 15 52  1  0  0  0  0
 16 17  1  0  0  0  0
 17 18  2  0  0  0  0
 17 22  1  0  0  0  0
 18 19  1  0  0  0  0
 18 53  1  0  0  0  0
 19 20  2  0  0  0  0
 19 54  1  0  0  0  0
 20 21  1  0  0  0  0
 20 23  1  0  0  0  0
 21 22  2  0  0  0  0
 21 55  1  0  0  0  0
 22 56  1  0  0  0  0
 24 25  2  0  0  0  0
 24 29  1  0  0  0  0
 25 26  1  0  0  0  0
 25 57  1  0  0  0  0
 26 27  2  0  0  0  0
 26 58  1  0  0  0  0
 27 28  1  0  0  0  0
 27 30  1  0  0  0  0
 28 29  2  0  0  0  0
 28 59  1  0  0  0  0
 29 60  1  0  0  0  0
 30 31  1  0  0  0  0
 31 32  1  0  0  0  0
 31 61  1  0  0  0  0
 31 62  1  0  0  0  0
 32 33  1  0  0  0  0
 32 63  1  0  0  0  0
 32 64  1  0  0  0  0
 33 34  1  0  0  0  0
 33 65  1  0  0  0  0
 33 66  1  0  0  0  0
 34 35  1  0  0  0  0
 34 37  1  0  0  0  0
 35 36  1  0  0  0  0
 35 67  1  0  0  0  0
 35 68  1  0  0  0  0
 36 69  1  0  0  0  0
 36 70  1  0  0  0  0
 36 71  1  0  0  0  0
 37 38  1  0  0  0  0
 37 72  1  0  0  0  0
 37 73  1  0  0  0  0
 38 74  1  0  0  0  0
 38 75  1  0  0  0  0
 38 76  1  0  0  0  0
M  END
>  <DRUGBANK_ID>
DB12689

>  <COMMON_NAME>
Azeliragon

>  <CAS_NUMBER>
603148-36-3

>  <UNII>
LPU25F15UQ

>  <SYNONYMS>
Azeliragon

$$$$
