
 OpenBabel10282417123D

 57 59  0  0  0  0  0  0  0  0999 V2000
   -3.1315    6.1125    0.5844 S   0  0  0  0  0  0  0  0  0  0  0  0
   -7.1877    0.7020   -0.2853 O   0  0  0  0  0  0  0  0  0  0  0  0
   -2.1656    2.3669    0.1023 O   0  0  0  0  0  0  0  0  0  0  0  0
   -5.2588    4.3852    1.7109 O   0  0  0  0  0  0  0  0  0  0  0  0
   -2.9263    7.0580   -3.2074 O   0  0  0  0  0  0  0  0  0  0  0  0
   -5.7619    3.3499   -0.2280 N   0  0  0  0  0  0  0  0  0  0  0  0
   -2.6500    3.8616   -1.4141 N   0  0  0  0  0  0  0  0  0  0  0  0
   -3.5128    8.2691   -0.7160 N   0  0  0  0  0  0  0  0  0  0  0  0
   -5.6073    2.9821   -4.6954 N   0  0  0  0  0  0  0  0  0  0  0  0
   -3.4563    2.3188   -3.9903 N   0  0  0  0  0  0  0  0  0  0  0  0
   -4.9338    0.7768   -4.4520 N   0  0  0  0  0  0  0  0  0  0  0  0
   -4.6034    2.4282   -0.1747 C   0  0  1  0  0  0  0  0  0  0  0  0
   -5.0218    1.2928   -1.1280 C   0  0  0  0  0  0  0  0  0  0  0  0
   -6.5345    1.4208   -1.3145 C   0  0  2  0  0  0  0  0  0  0  0  0
   -6.8266    2.8928   -1.1275 C   0  0  0  0  0  0  0  0  0  0  0  0
   -3.0989    2.9580   -0.4690 C   0  0  0  0  0  0  0  0  0  0  0  0
   -5.8842    4.3879    0.6787 C   0  0  0  0  0  0  0  0  0  0  0  0
   -3.2465    4.8912   -2.3254 C   0  0  1  0  0  0  0  0  0  0  0  0
   -4.7230    4.6568   -2.3549 C   0  0  0  0  0  0  0  0  0  0  0  0
   -6.7402    5.5862    0.2393 C   0  0  0  0  0  0  0  0  0  0  0  0
   -5.6809    5.1410   -3.4054 C   0  0  0  0  0  0  0  0  0  0  0  0
   -3.0380    6.3987   -2.1643 C   0  0  0  0  0  0  0  0  0  0  0  0
   -5.3837    4.4494   -4.7242 C   0  0  0  0  0  0  0  0  0  0  0  0
   -3.2349    6.9953   -0.8647 C   0  0  0  0  0  0  0  0  0  0  0  0
   -3.9249    7.3750    1.4135 C   0  0  0  0  0  0  0  0  0  0  0  0
   -3.8033    8.5058    0.6114 C   0  0  0  0  0  0  0  0  0  0  0  0
   -4.4920    7.4075    2.6937 C   0  0  0  0  0  0  0  0  0  0  0  0
   -3.9643    9.7571    1.2075 C   0  0  0  0  0  0  0  0  0  0  0  0
   -4.7213    2.1033   -4.4015 C   0  0  0  0  0  0  0  0  0  0  0  0
   -4.6781    8.6677    3.2583 C   0  0  0  0  0  0  0  0  0  0  0  0
   -4.3512    9.8224    2.5477 C   0  0  0  0  0  0  0  0  0  0  0  0
   -1.6341    3.9169   -1.3677 H   0  0  0  0  0  0  0  0  0  0  0  0
   -3.1341    1.8290   -3.1614 H   0  0  0  0  0  0  0  0  0  0  0  0
   -3.3806    3.2862   -3.8060 H   0  0  0  0  0  0  0  0  0  0  0  0
   -5.7939    0.4307   -4.8475 H   0  0  0  0  0  0  0  0  0  0  0  0
   -4.3848    0.1395   -3.8915 H   0  0  0  0  0  0  0  0  0  0  0  0
   -6.9549    1.1637    0.5416 H   0  0  0  0  0  0  0  0  0  0  0  0
   -4.5699    2.0150    0.8407 H   0  0  0  0  0  0  0  0  0  0  0  0
   -4.7104    0.2991   -0.7937 H   0  0  0  0  0  0  0  0  0  0  0  0
   -4.5419    1.4329   -2.0725 H   0  0  0  0  0  0  0  0  0  0  0  0
   -6.8790    1.0650   -2.2941 H   0  0  0  0  0  0  0  0  0  0  0  0
   -6.7576    3.3413   -2.1055 H   0  0  0  0  0  0  0  0  0  0  0  0
   -7.8116    3.1585   -0.7400 H   0  0  0  0  0  0  0  0  0  0  0  0
   -2.7489    4.7262   -3.2836 H   0  0  0  0  0  0  0  0  0  0  0  0
   -4.8405    3.5874   -2.3336 H   0  0  0  0  0  0  0  0  0  0  0  0
   -5.0478    5.0811   -1.4290 H   0  0  0  0  0  0  0  0  0  0  0  0
   -6.6189    5.8724   -0.8092 H   0  0  0  0  0  0  0  0  0  0  0  0
   -7.7911    5.3926    0.4152 H   0  0  0  0  0  0  0  0  0  0  0  0
   -6.4320    6.4754    0.7950 H   0  0  0  0  0  0  0  0  0  0  0  0
   -6.7222    4.9264   -3.1187 H   0  0  0  0  0  0  0  0  0  0  0  0
   -5.6502    6.2325   -3.4365 H   0  0  0  0  0  0  0  0  0  0  0  0
   -6.0795    4.8766   -5.4515 H   0  0  0  0  0  0  0  0  0  0  0  0
   -4.3736    4.7178   -5.0397 H   0  0  0  0  0  0  0  0  0  0  0  0
   -4.7127    6.4973    3.2478 H   0  0  0  0  0  0  0  0  0  0  0  0
   -3.7270   10.6400    0.6283 H   0  0  0  0  0  0  0  0  0  0  0  0
   -5.0237    8.7438    4.2867 H   0  0  0  0  0  0  0  0  0  0  0  0
   -4.3994   10.7910    3.0334 H   0  0  0  0  0  0  0  0  0  0  0  0
  1 24  1  0  0  0  0
  1 25  1  0  0  0  0
  2 37  1  0  0  0  0
  3 16  2  0  0  0  0
  4 17  2  0  0  0  0
  5 22  2  0  0  0  0
  6 12  1  0  0  0  0
  6 15  1  0  0  0  0
  6 17  1  0  0  0  0
  7 16  1  0  0  0  0
  7 32  1  0  0  0  0
  8 24  2  0  0  0  0
  8 26  1  0  0  0  0
  9 23  1  0  0  0  0
  9 29  2  0  0  0  0
 10 29  1  0  0  0  0
 10 33  1  0  0  0  0
 10 34  1  0  0  0  0
 11 29  1  0  0  0  0
 11 35  1  0  0  0  0
 11 36  1  0  0  0  0
 12 13  1  0  0  0  0
 12 38  1  1  0  0  0
 12 16  1  0  0  0  0
 13 14  1  0  0  0  0
 13 39  1  0  0  0  0
 13 40  1  0  0  0  0
 14  2  1  0  0  0  0
 14 15  1  0  0  0  0
 14 41  1  6  0  0  0
 15 42  1  0  0  0  0
 15 43  1  0  0  0  0
 17 20  1  0  0  0  0
 18  7  1  0  0  0  0
 18 19  1  0  0  0  0
 18 22  1  0  0  0  0
 18 44  1  6  0  0  0
 19 21  1  0  0  0  0
 19 45  1  0  0  0  0
 19 46  1  0  0  0  0
 20 47  1  0  0  0  0
 20 48  1  0  0  0  0
 20 49  1  0  0  0  0
 21 23  1  0  0  0  0
 21 50  1  0  0  0  0
 21 51  1  0  0  0  0
 22 24  1  0  0  0  0
 23 52  1  0  0  0  0
 23 53  1  0  0  0  0
 25 26  1  0  0  0  0
 25 27  2  0  0  0  0
 26 28  2  0  0  0  0
 27 30  1  0  0  0  0
 27 54  1  0  0  0  0
 28 31  1  0  0  0  0
 28 55  1  0  0  0  0
 30 31  2  0  0  0  0
 30 56  1  0  0  0  0
 31 57  1  0  0  0  0
M  END
>  <DRUGBANK_ID>
DB02812

>  <SECONDARY_ACCESSION_NUMBERS>
EXPT00391

>  <COMMON_NAME>
RWJ-56423

>  <SYNONYMS>
(2S,4R)-1-acetyl-N-[(2S)-1-(1,3-benzothiazol-2-yl)-5-(diaminomethylideneamino)-1-oxopentan-2-yl]-4-hydroxypyrrolidine-2-carboxamide

$$$$
