
 OpenBabel10282417103D

144148  0  0  0  0  0  0  0  0999 V2000
    2.1083   -4.2287   -7.4705 C   0  0  2  0  0  0  0  0  0  0  0  0
    3.0263   -5.2624   -8.1415 C   0  0  2  0  0  0  0  0  0  0  0  0
   -0.5867   -4.0224  -10.1946 C   0  0  2  0  0  0  0  0  0  0  0  0
    0.9314   -4.0223   -9.8719 C   0  0  2  0  0  0  0  0  0  0  0  0
   -0.2668   -2.8229   -9.8688 C   0  0  1  0  0  0  0  0  0  0  0  0
    0.6751   -3.5764   -7.9005 C   0  0  2  0  0  0  0  0  0  0  0  0
   -2.7703   -2.9605  -10.5239 C   0  0  1  0  0  0  0  0  0  0  0  0
    0.5418   -4.4255   -6.6230 C   0  0  1  0  0  0  0  0  0  0  0  0
    0.9720   -2.2658   -6.9061 C   0  0  1  0  0  0  0  0  0  0  0  0
   -2.8134   -5.3517   -8.4417 C   0  0  2  0  0  0  0  0  0  0  0  0
   -0.9515   -0.8326   -7.6167 C   0  0  2  0  0  0  0  0  0  0  0  0
    1.8784   -6.9817   -5.2386 S   0  0  0  0  0  0  0  0  0  0  0  0
   -0.9887   -7.8580   -8.6200 S   0  0  0  0  0  0  0  0  0  0  0  0
   -3.4526   -2.0598  -12.5444 S   0  0  0  0  0  0  0  0  0  0  0  0
    2.7825   -4.6923  -10.0927 C   0  0  1  0  0  0  0  0  0  0  0  0
   -2.5069   -4.4280  -10.5350 C   0  0  1  0  0  0  0  0  0  0  0  0
   -0.2284   -4.6993   -4.1887 S   0  0  0  0  0  0  0  0  0  0  0  0
    2.0871   -6.9414   -8.4496 S   0  0  0  0  0  0  0  0  0  0  0  0
    2.4858   -2.0608   -7.6802 C   0  0  1  0  0  0  0  0  0  0  0  0
    1.2730   -1.5412   -8.8690 O   0  0  0  0  0  0  0  0  0  0  0  0
   -0.4524   -2.8079   -6.8457 O   0  0  0  0  0  0  0  0  0  0  0  0
   -2.0876   -7.1191   -5.9725 S   0  0  0  0  0  0  0  0  0  0  0  0
    0.1654    0.2301   -8.9173 S   0  0  0  0  0  0  0  0  0  0  0  0
    1.5833    0.4151   -5.8796 S   0  0  0  0  0  0  0  0  0  0  0  0
   -1.3907   -2.5757   -7.9736 C   0  0  1  0  0  0  0  0  0  0  0  0
   -0.8382   -5.3498   -8.4120 C   0  0  1  0  0  0  0  0  0  0  0  0
   -1.0613   -1.0696   -9.0243 C   0  0  1  0  0  0  0  0  0  0  0  0
    0.7612   -1.8616  -10.3289 C   0  0  1  0  0  0  0  0  0  0  0  0
   -1.0730   -4.1369   -7.6403 C   0  0  2  0  0  0  0  0  0  0  0  0
   -2.2404   -2.0822   -9.2765 C   0  0  2  0  0  0  0  0  0  0  0  0
   -0.7016   -5.4245  -10.4962 O   0  0  0  0  0  0  0  0  0  0  0  0
    1.0538   -4.9780  -11.1545 O   0  0  0  0  0  0  0  0  0  0  0  0
    3.3264   -3.2675   -9.9618 O   0  0  0  0  0  0  0  0  0  0  0  0
   -3.1786   -3.7028   -9.0906 O   0  0  0  0  0  0  0  0  0  0  0  0
    3.1351   -2.0685   -8.9426 C   0  0  2  0  0  0  0  0  0  0  0  0
    1.0293   -0.6542   -7.3472 O   0  0  0  0  0  0  0  0  0  0  0  0
   -3.4173   -1.5844   -7.6954 C   0  0  2  0  0  0  0  0  0  0  0  0
   -0.5578   -1.4170   -6.3394 O   0  0  0  0  0  0  0  0  0  0  0  0
   -4.4716   -4.3051   -7.8411 C   0  0  2  0  0  0  0  0  0  0  0  0
   -4.4940   -2.4642   -8.1480 O   0  0  0  0  0  0  0  0  0  0  0  0
   -2.9614   -3.5156   -7.3178 C   0  0  1  0  0  0  0  0  0  0  0  0
   -2.3142   -2.3158   -6.7644 C   0  0  1  0  0  0  0  0  0  0  0  0
    2.5328   -6.9313   -6.7365 N   0  0  0  0  0  0  0  0  0  0  0  0
   -2.1517   -2.5196  -11.7545 N   0  0  0  0  0  0  0  0  0  0  0  0
   -2.9421   -6.8656   -8.3455 N   0  0  0  0  0  0  0  0  0  0  0  0
    1.6443   -4.5552   -5.3567 O   0  0  0  0  0  0  0  0  0  0  0  0
    2.3594   -5.4407   -6.6199 O   0  0  0  0  0  0  0  0  0  0  0  0
    2.2831   -3.2304   -6.2620 C   0  0  0  0  0  0  0  0  0  0  0  0
    0.2529   -2.0350  -11.9048 C   0  0  0  0  0  0  0  0  0  0  0  0
    2.7465   -0.2727   -9.0600 C   0  0  0  0  0  0  0  0  0  0  0  0
   -2.9533    0.0968   -7.5845 C   0  0  0  0  0  0  0  0  0  0  0  0
   -2.6136   -4.4632   -5.4630 C   0  0  0  0  0  0  0  0  0  0  0  0
    2.8454    0.0902   -7.5214 O   0  0  0  0  0  0  0  0  0  0  0  0
   -1.8461    0.8172   -8.6020 O   0  0  0  0  0  0  0  0  0  0  0  0
   -2.4797   -5.8380   -5.0918 O   0  0  0  0  0  0  0  0  0  0  0  0
    1.1378   -8.4755   -5.4745 O   0  0  0  0  0  0  0  0  0  0  0  0
   -2.7969   -1.8546  -13.9599 O   0  0  0  0  0  0  0  0  0  0  0  0
   -1.2466   -9.1811   -7.8615 O   0  0  0  0  0  0  0  0  0  0  0  0
    1.6200   -8.4499   -7.5198 O   0  0  0  0  0  0  0  0  0  0  0  0
   -1.7999   -3.3682   -3.9012 O   0  0  0  0  0  0  0  0  0  0  0  0
    1.0765    1.1283   -8.1502 O   0  0  0  0  0  0  0  0  0  0  0  0
   -3.5756   -7.3661   -6.0778 O   0  0  0  0  0  0  0  0  0  0  0  0
    0.0177    1.1548   -6.3749 O   0  0  0  0  0  0  0  0  0  0  0  0
    3.1790   -6.6895   -4.7728 O   0  0  0  0  0  0  0  0  0  0  0  0
   -4.1710   -3.2871  -12.3576 O   0  0  0  0  0  0  0  0  0  0  0  0
   -3.8475   -0.8239  -11.9266 O   0  0  0  0  0  0  0  0  0  0  0  0
   -0.9297   -7.5791  -10.0211 O   0  0  0  0  0  0  0  0  0  0  0  0
    0.0573   -7.2930   -7.5969 O   0  0  0  0  0  0  0  0  0  0  0  0
    1.0733   -6.3076   -4.3720 O   0  0  0  0  0  0  0  0  0  0  0  0
    1.2705   -6.8173   -9.6213 O   0  0  0  0  0  0  0  0  0  0  0  0
    3.5148   -7.2720   -8.7384 O   0  0  0  0  0  0  0  0  0  0  0  0
   -0.5983   -5.8428   -5.0715 O   0  0  0  0  0  0  0  0  0  0  0  0
   -0.3632   -5.3001   -2.8922 O   0  0  0  0  0  0  0  0  0  0  0  0
   -1.5155   -6.6405   -7.0916 O   0  0  0  0  0  0  0  0  0  0  0  0
    0.9239   -0.7066   -5.1983 O   0  0  0  0  0  0  0  0  0  0  0  0
    0.0369   -1.6966   -8.2522 O   0  0  0  0  0  0  0  0  0  0  0  0
    0.3191    0.3508  -10.3834 O   0  0  0  0  0  0  0  0  0  0  0  0
    2.3629    0.7620   -4.7757 O   0  0  0  0  0  0  0  0  0  0  0  0
   -1.2011   -8.1872   -5.6509 O   0  0  0  0  0  0  0  0  0  0  0  0
   -0.4778   -1.0767  -12.3505 O   0  0  0  0  0  0  0  0  0  0  0  0
    3.6880   -3.3809   -7.4097 O   0  0  0  0  0  0  0  0  0  0  0  0
    2.2221   -2.8288   -5.0793 O   0  0  0  0  0  0  0  0  0  0  0  0
    1.3733   -2.4487  -12.3438 O   0  0  0  0  0  0  0  0  0  0  0  0
   -2.9134   -0.6580   -9.5880 O   0  0  0  0  0  0  0  0  0  0  0  0
   -2.2169   -5.1167   -6.9948 O   0  0  0  0  0  0  0  0  0  0  0  0
    1.9853   -1.9179  -10.3464 O   0  0  0  0  0  0  0  0  0  0  0  0
    0.6894   -5.0582   -8.4508 O   0  0  0  0  0  0  0  0  0  0  0  0
   -1.7108   -0.6853  -10.7675 O   0  0  0  0  0  0  0  0  0  0  0  0
   -0.9775   -2.4777   -5.2720 O   0  0  0  0  0  0  0  0  0  0  0  0
   -4.5062   -4.3644   -6.4758 O   0  0  0  0  0  0  0  0  0  0  0  0
   -5.3706   -3.5252   -5.8597 C   0  0  0  0  0  0  0  0  0  0  0  0
    1.2513   -5.5681   -7.2653 H   0  0  0  0  0  0  0  0  0  0  0  0
    3.9625   -5.0498   -7.7797 H   0  0  0  0  0  0  0  0  0  0  0  0
   -1.2807   -4.1207   -9.5495 H   0  0  0  0  0  0  0  0  0  0  0  0
    1.4063   -5.0058   -9.7126 H   0  0  0  0  0  0  0  0  0  0  0  0
   -1.0185   -2.7158  -10.5571 H   0  0  0  0  0  0  0  0  0  0  0  0
   -0.0107   -5.2243   -7.3681 H   0  0  0  0  0  0  0  0  0  0  0  0
   -3.6586   -2.4138  -10.2345 H   0  0  0  0  0  0  0  0  0  0  0  0
    0.1822   -4.1126   -5.7607 H   0  0  0  0  0  0  0  0  0  0  0  0
    1.5704   -1.7781   -6.2286 H   0  0  0  0  0  0  0  0  0  0  0  0
   -2.3672   -5.5176   -9.3334 H   0  0  0  0  0  0  0  0  0  0  0  0
   -1.4276   -0.3185   -6.9583 H   0  0  0  0  0  0  0  0  0  0  0  0
    3.5998   -5.2980  -10.1647 H   0  0  0  0  0  0  0  0  0  0  0  0
   -3.4606   -4.8802  -10.5437 H   0  0  0  0  0  0  0  0  0  0  0  0
    3.1523   -1.7896   -6.8036 H   0  0  0  0  0  0  0  0  0  0  0  0
   -0.9604   -3.0144   -8.6125 H   0  0  0  0  0  0  0  0  0  0  0  0
   -0.4633   -6.1721   -8.7757 H   0  0  0  0  0  0  0  0  0  0  0  0
   -1.3226   -0.4273   -9.4974 H   0  0  0  0  0  0  0  0  0  0  0  0
    0.5106   -3.2498  -11.1566 H   0  0  0  0  0  0  0  0  0  0  0  0
   -0.9272   -4.7023   -6.4594 H   0  0  0  0  0  0  0  0  0  0  0  0
   -0.9221   -1.6038  -10.1853 H   0  0  0  0  0  0  0  0  0  0  0  0
    2.1509   -3.1677   -9.0702 H   0  0  0  0  0  0  0  0  0  0  0  0
   -3.6219   -1.7738   -6.1377 H   0  0  0  0  0  0  0  0  0  0  0  0
   -5.0040   -4.5440   -8.6392 H   0  0  0  0  0  0  0  0  0  0  0  0
   -2.2986   -3.8775   -8.4213 H   0  0  0  0  0  0  0  0  0  0  0  0
   -2.3051   -1.3959   -6.3680 H   0  0  0  0  0  0  0  0  0  0  0  0
    3.2963   -7.3380   -7.0321 H   0  0  0  0  0  0  0  0  0  0  0  0
   -1.4070   -3.2048  -12.0562 H   0  0  0  0  0  0  0  0  0  0  0  0
   -3.6654   -7.0157   -8.9748 H   0  0  0  0  0  0  0  0  0  0  0  0
    2.9443   -0.4779  -10.1207 H   0  0  0  0  0  0  0  0  0  0  0  0
    1.9353    0.2202   -9.6192 H   0  0  0  0  0  0  0  0  0  0  0  0
   -3.9242    0.3565   -7.4127 H   0  0  0  0  0  0  0  0  0  0  0  0
   -2.3709    0.6114   -6.7114 H   0  0  0  0  0  0  0  0  0  0  0  0
   -1.5695   -3.9611   -5.3590 H   0  0  0  0  0  0  0  0  0  0  0  0
   -3.4334   -4.1492   -5.1172 H   0  0  0  0  0  0  0  0  0  0  0  0
    0.4987   -8.5050   -6.3736 H   0  0  0  0  0  0  0  0  0  0  0  0
   -2.2012   -1.0761  -14.0105 H   0  0  0  0  0  0  0  0  0  0  0  0
   -1.2008   -8.8868   -6.8942 H   0  0  0  0  0  0  0  0  0  0  0  0
    2.0035   -8.3428   -6.4903 H   0  0  0  0  0  0  0  0  0  0  0  0
   -1.7791   -2.5439   -4.6000 H   0  0  0  0  0  0  0  0  0  0  0  0
    0.5008    1.7581   -8.4683 H   0  0  0  0  0  0  0  0  0  0  0  0
   -3.3955   -7.0724   -5.1403 H   0  0  0  0  0  0  0  0  0  0  0  0
    0.2956    1.8744   -6.9392 H   0  0  0  0  0  0  0  0  0  0  0  0
   -1.2649   -0.8396  -11.8165 H   0  0  0  0  0  0  0  0  0  0  0  0
    3.1887   -3.5729   -8.4593 H   0  0  0  0  0  0  0  0  0  0  0  0
   -2.5226   -1.2391  -10.5862 H   0  0  0  0  0  0  0  0  0  0  0  0
   -1.9047   -3.9718   -6.5482 H   0  0  0  0  0  0  0  0  0  0  0  0
    1.4381   -2.3271   -9.2733 H   0  0  0  0  0  0  0  0  0  0  0  0
    0.2165   -4.9154   -9.1429 H   0  0  0  0  0  0  0  0  0  0  0  0
   -0.5690   -0.4728  -10.7790 H   0  0  0  0  0  0  0  0  0  0  0  0
    0.0036   -1.8779   -5.5920 H   0  0  0  0  0  0  0  0  0  0  0  0
   -5.1791   -2.4865   -6.0825 H   0  0  0  0  0  0  0  0  0  0  0  0
   -6.1137   -4.0166   -6.4116 H   0  0  0  0  0  0  0  0  0  0  0  0
   -5.2708   -3.7486   -4.8095 H   0  0  0  0  0  0  0  0  0  0  0  0
  1 92  1  6  0  0  0
  1 46  1  0  0  0  0
  2  1  1  0  0  0  0
  2 93  1  1  0  0  0
  2 43  1  0  0  0  0
  3 94  1  6  0  0  0
  3 32  1  0  0  0  0
  4 28  1  0  0  0  0
  4 31  1  0  0  0  0
  4 95  1  6  0  0  0
  5  3  1  0  0  0  0
  5 49  1  0  0  0  0
  5 96  1  1  0  0  0
  6 21  1  0  0  0  0
  6  4  1  0  0  0  0
  6 97  1  1  0  0  0
  6 48  1  0  0  0  0
  7 16  1  0  0  0  0
  7 98  1  6  0  0  0
  7 44  1  0  0  0  0
  8 26  1  0  0  0  0
  8 99  1  1  0  0  0
  8 47  1  0  0  0  0
  9  8  1  0  0  0  0
  9 38  1  0  0  0  0
  9 20  1  0  0  0  0
  9100  1  1  0  0  0
 10 29  1  0  0  0  0
 10 39  1  0  0  0  0
 10101  1  6  0  0  0
 10 45  1  0  0  0  0
 11102  1  1  0  0  0
 11 36  1  0  0  0  0
 12 43  1  0  0  0  0
 13 45  1  0  0  0  0
 14 44  1  0  0  0  0
 15  2  1  0  0  0  0
 15 33  1  0  0  0  0
 15103  1  6  0  0  0
 15 32  1  0  0  0  0
 16 31  1  0  0  0  0
 16104  1  6  0  0  0
 17 46  1  0  0  0  0
 18 47  1  0  0  0  0
 19  1  1  0  0  0  0
 19 36  1  0  0  0  0
 19105  1  1  0  0  0
 20  5  1  0  0  0  0
 21 11  1  0  0  0  0
 22 55  1  0  0  0  0
 23 54  1  0  0  0  0
 24 53  1  0  0  0  0
 25106  1  6  0  0  0
 25 38  1  0  0  0  0
 26  3  1  0  0  0  0
 26 85  1  0  0  0  0
 26107  1  6  0  0  0
 27 11  1  0  0  0  0
 27108  1  6  0  0  0
 27 84  1  0  0  0  0
 28 27  1  0  0  0  0
 28 86  1  0  0  0  0
 28109  1  6  0  0  0
 29 25  1  0  0  0  0
 29110  1  1  0  0  0
 29 87  1  0  0  0  0
 30  7  1  0  0  0  0
 30111  1  6  0  0  0
 30 88  1  0  0  0  0
 33 35  1  0  0  0  0
 34 16  1  0  0  0  0
 35 19  1  0  0  0  0
 35112  1  6  0  0  0
 35 50  1  0  0  0  0
 37 25  1  0  0  0  0
 37113  1  1  0  0  0
 37 51  1  0  0  0  0
 39 40  1  0  0  0  0
 39114  1  6  0  0  0
 39 90  1  0  0  0  0
 40 37  1  0  0  0  0
 41 34  1  0  0  0  0
 41115  1  6  0  0  0
 41 52  1  0  0  0  0
 42 41  1  0  0  0  0
 42 89  1  0  0  0  0
 42 30  1  0  0  0  0
 42116  1  1  0  0  0
 43117  1  0  0  0  0
 44118  1  0  0  0  0
 45119  1  0  0  0  0
 50120  1  0  0  0  0
 50121  1  0  0  0  0
 51122  1  0  0  0  0
 51123  1  0  0  0  0
 52124  1  0  0  0  0
 52125  1  0  0  0  0
 53 50  1  0  0  0  0
 54 51  1  0  0  0  0
 55 52  1  0  0  0  0
 56 12  1  0  0  0  0
 56126  1  0  0  0  0
 57 14  1  0  0  0  0
 57127  1  0  0  0  0
 58 13  1  0  0  0  0
 58128  1  0  0  0  0
 59 18  1  0  0  0  0
 59129  1  0  0  0  0
 60 17  1  0  0  0  0
 60130  1  0  0  0  0
 61 23  1  0  0  0  0
 61131  1  0  0  0  0
 62 22  1  0  0  0  0
 62132  1  0  0  0  0
 63 24  1  0  0  0  0
 63133  1  0  0  0  0
 64 12  2  0  0  0  0
 65 14  2  0  0  0  0
 66 14  2  0  0  0  0
 67 13  2  0  0  0  0
 68 13  2  0  0  0  0
 69 12  2  0  0  0  0
 70 18  2  0  0  0  0
 71 18  2  0  0  0  0
 72 17  2  0  0  0  0
 73 17  2  0  0  0  0
 74 22  2  0  0  0  0
 75 24  2  0  0  0  0
 76 23  2  0  0  0  0
 77 23  2  0  0  0  0
 78 24  2  0  0  0  0
 79 22  2  0  0  0  0
 80 49  1  0  0  0  0
 80134  1  0  0  0  0
 81 48  1  0  0  0  0
 81135  1  0  0  0  0
 82 48  2  0  0  0  0
 83 49  2  0  0  0  0
 84136  1  0  0  0  0
 85137  1  0  0  0  0
 86138  1  0  0  0  0
 87139  1  0  0  0  0
 88140  1  0  0  0  0
 89141  1  0  0  0  0
 91 90  1  0  0  0  0
 91142  1  0  0  0  0
 91143  1  0  0  0  0
 91144  1  0  0  0  0
M  END
>  <DRUGBANK_ID>
DB00569

>  <SECONDARY_ACCESSION_NUMBERS>
APRD00500; DB11728

>  <COMMON_NAME>
Fondaparinux

>  <CAS_NUMBER>
104993-28-4

>  <UNII>
J177FOW5JL

>  <SYNONYMS>
Natural heparin pentasaccharide

$$$$
