
 OpenBabel10282417213D

 39 38  0  0  0  0  0  0  0  0999 V2000
    1.1387   -3.2642    0.3977 Mg  0  2  0  0  0  0  0  0  0  0  0  0
   -1.3050    0.0000   -0.1630 O   0  0  0  0  0  0  0  0  0  0  0  0
   -1.3050    0.0000   -0.1630 O   0  0  0  0  0  0  0  0  0  0  0  0
    2.1857    1.4545   -0.2136 O   0  5  0  0  0  0  0  0  0  0  0  0
    2.1857    1.4545   -0.2136 O   0  5  0  0  0  0  0  0  0  0  0  0
   -1.9861    2.8321   -0.5616 O   0  0  0  0  0  0  0  0  0  0  0  0
   -1.9861    2.8321   -0.5616 O   0  0  0  0  0  0  0  0  0  0  0  0
    1.6460    3.0650   -0.6488 O   0  0  0  0  0  0  0  0  0  0  0  0
    1.6460    3.0650   -0.6488 O   0  0  0  0  0  0  0  0  0  0  0  0
    2.1839   -1.4566   -0.2138 O   0  0  0  0  0  0  0  0  0  0  0  0
    2.1839   -1.4566   -0.2138 O   0  0  0  0  0  0  0  0  0  0  0  0
   -0.7062   -2.3772    0.4688 O   0  0  0  0  0  0  0  0  0  0  0  0
   -0.7062   -2.3772    0.4688 O   0  0  0  0  0  0  0  0  0  0  0  0
   -0.3720    1.1970    0.1360 C   0  0  2  0  0  0  0  0  0  0  0  0
   -0.3720    1.1970    0.1360 C   0  0  2  0  0  0  0  0  0  0  0  0
   -0.6540    2.3857   -0.7683 C   0  0  2  0  0  0  0  0  0  0  0  0
   -0.6540    2.3857   -0.7683 C   0  0  2  0  0  0  0  0  0  0  0  0
    1.0250    0.6520   -0.0550 C   0  0  0  0  0  0  0  0  0  0  0  0
    1.0250    0.6520   -0.0550 C   0  0  0  0  0  0  0  0  0  0  0  0
    0.3139    3.5114   -0.4421 C   0  0  0  0  0  0  0  0  0  0  0  0
    0.3139    3.5114   -0.4421 C   0  0  0  0  0  0  0  0  0  0  0  0
    1.0240   -0.6530   -0.0550 C   0  0  0  0  0  0  0  0  0  0  0  0
    1.0240   -0.6530   -0.0550 C   0  0  0  0  0  0  0  0  0  0  0  0
   -0.3720   -1.1970    0.1360 C   0  0  0  0  0  0  0  0  0  0  0  0
   -0.3720   -1.1970    0.1360 C   0  0  0  0  0  0  0  0  0  0  0  0
   -0.5090    1.5405    1.1401 H   0  0  0  0  0  0  0  0  0  0  0  0
   -0.5090    1.5405    1.1401 H   0  0  0  0  0  0  0  0  0  0  0  0
   -2.6229    2.0916   -0.7762 H   0  0  0  0  0  0  0  0  0  0  0  0
   -2.6229    2.0916   -0.7762 H   0  0  0  0  0  0  0  0  0  0  0  0
    1.8315    2.2829   -0.0539 H   0  0  0  0  0  0  0  0  0  0  0  0
    1.8315    2.2829   -0.0539 H   0  0  0  0  0  0  0  0  0  0  0  0
    3.0779   -1.0256   -0.3361 H   0  0  0  0  0  0  0  0  0  0  0  0
    3.0779   -1.0256   -0.3361 H   0  0  0  0  0  0  0  0  0  0  0  0
   -0.5302    2.0938   -1.7902 H   0  0  0  0  0  0  0  0  0  0  0  0
   -0.5302    2.0938   -1.7902 H   0  0  0  0  0  0  0  0  0  0  0  0
    0.1154    4.3482   -1.0787 H   0  0  0  0  0  0  0  0  0  0  0  0
    0.1901    3.8034    0.5798 H   0  0  0  0  0  0  0  0  0  0  0  0
    0.1154    4.3482   -1.0787 H   0  0  0  0  0  0  0  0  0  0  0  0
    0.1901    3.8034    0.5798 H   0  0  0  0  0  0  0  0  0  0  0  0
  2 14  1  0  0  0  0
  2 24  1  0  0  0  0
  3 15  1  0  0  0  0
  3 25  1  0  0  0  0
  4 18  1  0  0  0  0
  5 19  1  0  0  0  0
  6 28  1  0  0  0  0
  7 29  1  0  0  0  0
  8 20  1  0  0  0  0
  8 30  1  0  0  0  0
  9 21  1  0  0  0  0
  9 31  1  0  0  0  0
 10 22  1  0  0  0  0
 10 32  1  0  0  0  0
 11 23  1  0  0  0  0
 11 33  1  0  0  0  0
 12 24  2  0  0  0  0
 13 25  2  0  0  0  0
 14 16  1  0  0  0  0
 14 18  1  0  0  0  0
 14 26  1  1  0  0  0
 15 17  1  0  0  0  0
 15 19  1  0  0  0  0
 15 27  1  1  0  0  0
 16  6  1  0  0  0  0
 16 21  1  0  0  0  0
 16 34  1  6  0  0  0
 17  7  1  0  0  0  0
 17 20  1  0  0  0  0
 17 35  1  6  0  0  0
 18 22  2  0  0  0  0
 19 23  2  0  0  0  0
 20 36  1  0  0  0  0
 20 37  1  0  0  0  0
 21 38  1  0  0  0  0
 21 39  1  0  0  0  0
 22 24  1  0  0  0  0
 23 25  1  0  0  0  0
M  CHG  3   1   2   4  -1   5  -1
M  END
>  <DRUGBANK_ID>
DB14484

>  <SECONDARY_ACCESSION_NUMBERS>
DBSALT002423

>  <COMMON_NAME>
Magnesium ascorbate

>  <CAS_NUMBER>
15431-40-0

>  <UNII>
0N1G678593

>  <SYNONYMS>
Ascorbic acid, magnesium salt; L(+)-ascorbic acid magnesium salt; Vitamin C magnesium salt

$$$$
