
 OpenBabel10282417203D

  3  1  0  0  0  0  0  0  0  0999 V2000
    0.3059    1.3031    1.2727 Mg  0  2  0  0  0  0  0  0  0  0  0  0
    1.5209   -0.8129   -0.9883 O   0  5  0  0  0  0  0  0  0  0  0  0
    2.5959   -0.3344   -0.4770 O   0  5  0  0  0  0  0  0  0  0  0  0
  3  2  1  0  0  0  0
M  CHG  3   1   2   2  -1   3  -1
M  END
>  <DRUGBANK_ID>
DB13486

>  <COMMON_NAME>
Magnesium peroxide

>  <CAS_NUMBER>
14452-57-4

>  <UNII>
X8YVJ0TN96

$$$$
