
 OpenBabel10282417193D

 35 35  0  0  0  0  0  0  0  0999 V2000
    0.7972   -0.0234    0.0339 C   0  0  0  0  0  0  0  0  0  0  0  0
    0.2988   -0.2352    1.4603 C   0  0  0  0  0  0  0  0  0  0  0  0
   -0.2617    0.7023    2.0733 O   0  0  0  0  0  0  0  0  0  0  0  0
    0.3912   -1.4703    2.0672 N   0  0  0  0  0  0  0  0  0  0  0  0
    1.1851   -2.5313    1.6281 C   0  0  0  0  0  0  0  0  0  0  0  0
    2.3938   -2.1769    1.1643 C   0  0  0  0  0  0  0  0  0  0  0  0
    3.3074   -3.1647    0.9400 C   0  0  0  0  0  0  0  0  0  0  0  0
    3.0774   -4.5103    0.7175 C   0  0  0  0  0  0  0  0  0  0  0  0
    1.8782   -4.8874    1.3210 C   0  0  0  0  0  0  0  0  0  0  0  0
    0.9571   -3.8994    1.8234 C   0  0  0  0  0  0  0  0  0  0  0  0
    3.9882   -5.5184   -0.0396 C   0  0  0  0  0  0  0  0  0  0  0  0
    3.6913   -6.7185    0.0635 O   0  0  0  0  0  0  0  0  0  0  0  0
    5.0683   -5.2439   -0.9155 N   0  0  0  0  0  0  0  0  0  0  0  0
    5.7898   -4.0144   -1.3887 C   0  0  0  0  0  0  0  0  0  0  0  0
    7.2041   -3.8941   -0.7826 C   0  0  0  0  0  0  0  0  0  0  0  0
    5.6718   -3.7203   -2.8757 C   0  0  0  0  0  0  0  0  0  0  0  0
    5.1209   -2.8341   -0.8314 C   0  0  0  0  0  0  0  0  0  0  0  0
    0.3693    0.8942   -0.3784 H   0  0  0  0  0  0  0  0  0  0  0  0
    0.5007   -0.8577   -0.6091 H   0  0  0  0  0  0  0  0  0  0  0  0
    1.8806    0.1217   -0.0271 H   0  0  0  0  0  0  0  0  0  0  0  0
    0.0392   -1.5261    3.0155 H   0  0  0  0  0  0  0  0  0  0  0  0
    2.7774   -1.1616    1.1410 H   0  0  0  0  0  0  0  0  0  0  0  0
    4.2186   -2.6366    1.0540 H   0  0  0  0  0  0  0  0  0  0  0  0
    1.6629   -5.9464    1.4592 H   0  0  0  0  0  0  0  0  0  0  0  0
    0.0466   -4.2274    2.3096 H   0  0  0  0  0  0  0  0  0  0  0  0
    5.4544   -6.1114   -1.2842 H   0  0  0  0  0  0  0  0  0  0  0  0
    7.9405   -4.5336   -1.2568 H   0  0  0  0  0  0  0  0  0  0  0  0
    7.5456   -2.8479   -0.8467 H   0  0  0  0  0  0  0  0  0  0  0  0
    7.1873   -4.1266    0.2961 H   0  0  0  0  0  0  0  0  0  0  0  0
    4.6258   -3.8150   -3.1994 H   0  0  0  0  0  0  0  0  0  0  0  0
    5.9482   -2.6683   -3.0590 H   0  0  0  0  0  0  0  0  0  0  0  0
    6.3043   -4.3510   -3.4907 H   0  0  0  0  0  0  0  0  0  0  0  0
    4.0715   -2.8739   -1.1507 H   0  0  0  0  0  0  0  0  0  0  0  0
    5.4160   -3.0493    0.1897 H   0  0  0  0  0  0  0  0  0  0  0  0
    5.4759   -1.8222   -0.9948 H   0  0  0  0  0  0  0  0  0  0  0  0
  1  2  1  0  0  0  0
  1 18  1  0  0  0  0
  1 19  1  0  0  0  0
  1 20  1  0  0  0  0
  2  3  2  0  0  0  0
  2  4  1  0  0  0  0
  4  5  1  0  0  0  0
  4 21  1  0  0  0  0
  5  6  2  0  0  0  0
  5 10  1  0  0  0  0
  6  7  1  0  0  0  0
  6 22  1  0  0  0  0
  7  8  2  0  0  0  0
  7 23  1  0  0  0  0
  8  9  1  0  0  0  0
  8 11  1  0  0  0  0
  9 10  2  0  0  0  0
  9 24  1  0  0  0  0
 10 25  1  0  0  0  0
 11 12  2  0  0  0  0
 11 13  1  0  0  0  0
 13 14  1  0  0  0  0
 13 26  1  0  0  0  0
 14 15  1  0  0  0  0
 14 16  1  0  0  0  0
 14 17  1  0  0  0  0
 15 27  1  0  0  0  0
 15 28  1  0  0  0  0
 15 29  1  0  0  0  0
 16 30  1  0  0  0  0
 16 31  1  0  0  0  0
 16 32  1  0  0  0  0
 17 33  1  0  0  0  0
 17 34  1  0  0  0  0
 17 35  1  0  0  0  0
M  END
>  <DRUGBANK_ID>
DB12311

>  <COMMON_NAME>
CP1-1189

>  <CAS_NUMBER>
183619-38-7

>  <UNII>
9JX1L8VH4Z

$$$$
