
 OpenBabel10282417183D

 85 91  0  0  0  0  0  0  0  0999 V2000
    5.7331    0.6219   -5.9336 O   0  0  0  0  0  0  0  0  0  0  0  0
    4.6947    0.7076   -4.9997 C   0  0  2  0  0  0  0  0  0  0  0  0
    3.7660   -0.2022   -5.2490 N   0  0  0  0  0  0  0  0  0  0  0  0
    3.1524   -0.1757   -3.7721 C   0  0  0  0  0  0  0  0  0  0  0  0
    4.0818   -1.0168   -3.1716 C   0  0  1  0  0  0  0  0  0  0  0  0
    5.0420    0.1890   -3.6055 O   0  0  0  0  0  0  0  0  0  0  0  0
    3.7360   -1.4146   -1.7914 N   0  0  0  0  0  0  0  0  0  0  0  0
    2.9306   -2.4590   -1.2290 C   0  0  0  0  0  0  0  0  0  0  0  0
    3.3241   -2.7635   -0.0773 O   0  0  0  0  0  0  0  0  0  0  0  0
    1.5661   -3.5613   -1.8547 C   0  0  2  0  0  0  0  0  0  0  0  0
    0.3478   -4.1782   -3.1159 C   0  0  0  0  0  0  0  0  0  0  0  0
   -1.0352   -4.8100   -3.0672 C   0  0  2  0  0  0  0  0  0  0  0  0
   -2.7934   -4.5838   -2.9894 C   0  0  0  0  0  0  0  0  0  0  0  0
   -3.1456   -5.9153   -3.0591 C   0  0  0  0  0  0  0  0  0  0  0  0
   -2.2583   -6.9149   -2.6117 C   0  0  0  0  0  0  0  0  0  0  0  0
   -1.1861   -6.5753   -1.6096 C   0  0  0  0  0  0  0  0  0  0  0  0
   -0.8431   -5.1057   -1.5941 C   0  0  1  0  0  0  0  0  0  0  0  0
    0.3472   -4.8587   -0.7352 N   0  0  0  0  0  0  0  0  0  0  0  0
    0.6978   -3.4332   -0.7327 C   0  0  0  0  0  0  0  0  0  0  0  0
    1.5009   -5.8520   -0.9419 C   0  0  0  0  0  0  0  0  0  0  0  0
   -1.4840   -4.2943   -1.2260 H   0  0  0  0  0  0  0  0  0  0  0  0
   -2.2359   -7.8022   -3.6555 C   0  0  0  0  0  0  0  0  0  0  0  0
   -3.3451   -7.5774   -4.4271 N   0  0  0  0  0  0  0  0  0  0  0  0
   -3.9724   -6.4190   -4.0518 C   0  0  0  0  0  0  0  0  0  0  0  0
   -5.1094   -5.7967   -4.5469 C   0  0  0  0  0  0  0  0  0  0  0  0
   -5.2872   -4.5632   -3.9717 C   0  0  0  0  0  0  0  0  0  0  0  0
   -4.1090   -3.9293   -3.3159 C   0  0  0  0  0  0  0  0  0  0  0  0
   -0.8235   -5.6111   -3.8473 H   0  0  0  0  0  0  0  0  0  0  0  0
    3.7481   -1.9981   -4.1561 C   0  0  0  0  0  0  0  0  0  0  0  0
    4.0314   -3.6716   -3.3956 C   0  0  0  0  0  0  0  0  0  0  0  0
    2.0035   -1.6319   -5.4224 C   0  0  0  0  0  0  0  0  0  0  0  0
    2.4876    0.5197   -3.0300 O   0  0  0  0  0  0  0  0  0  0  0  0
    3.5338   -1.1875   -6.4007 C   0  0  1  0  0  0  0  0  0  0  0  0
    3.2050   -3.0967   -5.6305 C   0  0  1  0  0  0  0  0  0  0  0  0
    1.7896   -2.8387   -4.0617 C   0  0  0  0  0  0  0  0  0  0  0  0
    0.1381   -2.3476   -4.4965 C   0  0  0  0  0  0  0  0  0  0  0  0
    3.2447   -4.5074   -6.0905 C   0  0  0  0  0  0  0  0  0  0  0  0
    2.0560    0.1766   -6.4471 C   0  0  0  0  0  0  0  0  0  0  0  0
    2.1904    1.3461   -5.6375 N   0  0  0  0  0  0  0  0  0  0  0  0
    3.5744    1.7905   -5.4250 C   0  0  1  0  0  0  0  0  0  0  0  0
    3.4938    2.8032   -4.3670 C   0  0  0  0  0  0  0  0  0  0  0  0
    2.0719    2.8292   -3.7942 C   0  0  0  0  0  0  0  0  0  0  0  0
    1.2079    1.8376   -4.6016 C   0  0  0  0  0  0  0  0  0  0  0  0
    3.7304    2.0677   -6.4744 H   0  0  0  0  0  0  0  0  0  0  0  0
    0.8367   -0.0176   -6.6953 O   0  0  0  0  0  0  0  0  0  0  0  0
    3.5527   -1.3873   -7.4741 H   0  0  0  0  0  0  0  0  0  0  0  0
    5.5264    1.2672   -6.6315 H   0  0  0  0  0  0  0  0  0  0  0  0
    4.2889   -0.9054   -1.1131 H   0  0  0  0  0  0  0  0  0  0  0  0
    2.1782   -4.4166   -2.0405 H   0  0  0  0  0  0  0  0  0  0  0  0
   -0.3952   -3.4338   -3.1811 H   0  0  0  0  0  0  0  0  0  0  0  0
    0.8837   -4.5743   -4.0334 H   0  0  0  0  0  0  0  0  0  0  0  0
   -1.4484   -6.8485   -0.6032 H   0  0  0  0  0  0  0  0  0  0  0  0
   -0.2826   -7.0948   -1.9472 H   0  0  0  0  0  0  0  0  0  0  0  0
    1.0079   -3.0704    0.2400 H   0  0  0  0  0  0  0  0  0  0  0  0
    0.3639   -2.4645   -1.2083 H   0  0  0  0  0  0  0  0  0  0  0  0
    1.3764   -6.7191   -0.3194 H   0  0  0  0  0  0  0  0  0  0  0  0
    1.6075   -6.2045   -1.9998 H   0  0  0  0  0  0  0  0  0  0  0  0
    2.5104   -5.4504   -0.6849 H   0  0  0  0  0  0  0  0  0  0  0  0
   -1.4665   -8.4999   -3.9342 H   0  0  0  0  0  0  0  0  0  0  0  0
   -3.6113   -8.1013   -5.2410 H   0  0  0  0  0  0  0  0  0  0  0  0
   -5.8082   -6.2704   -5.2292 H   0  0  0  0  0  0  0  0  0  0  0  0
   -6.3088   -4.1354   -4.0246 H   0  0  0  0  0  0  0  0  0  0  0  0
   -4.5963   -3.2530   -2.5642 H   0  0  0  0  0  0  0  0  0  0  0  0
    4.7168   -1.8887   -4.7317 H   0  0  0  0  0  0  0  0  0  0  0  0
    3.0425   -3.9012   -3.2211 H   0  0  0  0  0  0  0  0  0  0  0  0
    3.8069   -4.6672   -3.7932 H   0  0  0  0  0  0  0  0  0  0  0  0
    4.4062   -3.7453   -2.3779 H   0  0  0  0  0  0  0  0  0  0  0  0
    1.8347   -1.7307   -6.6069 H   0  0  0  0  0  0  0  0  0  0  0  0
    1.4701   -2.6655   -5.8600 H   0  0  0  0  0  0  0  0  0  0  0  0
    1.4030   -0.9067   -4.9307 H   0  0  0  0  0  0  0  0  0  0  0  0
    4.2987   -3.3146   -5.3467 H   0  0  0  0  0  0  0  0  0  0  0  0
    2.2425   -2.5137   -3.1398 H   0  0  0  0  0  0  0  0  0  0  0  0
    1.6752   -1.7320   -3.5688 H   0  0  0  0  0  0  0  0  0  0  0  0
   -0.1772   -3.2513   -5.0026 H   0  0  0  0  0  0  0  0  0  0  0  0
   -0.2500   -1.9044   -3.5440 H   0  0  0  0  0  0  0  0  0  0  0  0
   -0.1707   -1.6527   -5.2551 H   0  0  0  0  0  0  0  0  0  0  0  0
    4.0277   -4.5269   -6.8392 H   0  0  0  0  0  0  0  0  0  0  0  0
    3.6501   -5.2466   -5.3605 H   0  0  0  0  0  0  0  0  0  0  0  0
    2.2394   -4.8286   -6.2735 H   0  0  0  0  0  0  0  0  0  0  0  0
    4.2200    2.5189   -3.5982 H   0  0  0  0  0  0  0  0  0  0  0  0
    3.7835    3.7122   -4.8674 H   0  0  0  0  0  0  0  0  0  0  0  0
    2.1406    2.6073   -2.7134 H   0  0  0  0  0  0  0  0  0  0  0  0
    1.6675    3.8272   -3.8716 H   0  0  0  0  0  0  0  0  0  0  0  0
    0.7084    1.0689   -3.9526 H   0  0  0  0  0  0  0  0  0  0  0  0
    0.3521    2.2837   -5.1032 H   0  0  0  0  0  0  0  0  0  0  0  0
  1 47  1  0  0  0  0
  2  1  1  1  0  0  0
  2  3  1  0  0  0  0
  2  6  1  0  0  0  0
  3  4  1  0  0  0  0
  4 32  2  0  0  0  0
  5  4  1  0  0  0  0
  5  6  1  0  0  0  0
  5 29  1  6  0  0  0
  5  7  1  0  0  0  0
  7  8  1  0  0  0  0
  7 48  1  0  0  0  0
  8  9  2  0  0  0  0
 10 11  1  0  0  0  0
 10 19  1  0  0  0  0
 10  8  1  0  0  0  0
 10 49  1  1  0  0  0
 11 50  1  0  0  0  0
 11 51  1  0  0  0  0
 12 11  1  0  0  0  0
 12 13  1  0  0  0  0
 12 28  1  6  0  0  0
 13 14  2  0  0  0  0
 13 27  1  0  0  0  0
 14 15  1  0  0  0  0
 14 24  1  0  0  0  0
 15 22  2  0  0  0  0
 16 15  1  0  0  0  0
 16 52  1  0  0  0  0
 16 53  1  0  0  0  0
 17 12  1  0  0  0  0
 17 16  1  0  0  0  0
 17 18  1  0  0  0  0
 17 21  1  1  0  0  0
 18 20  1  0  0  0  0
 19 18  1  0  0  0  0
 19 54  1  0  0  0  0
 19 55  1  0  0  0  0
 20 56  1  0  0  0  0
 20 57  1  0  0  0  0
 20 58  1  0  0  0  0
 22 23  1  0  0  0  0
 22 59  1  0  0  0  0
 23 60  1  0  0  0  0
 24 23  1  0  0  0  0
 24 25  2  0  0  0  0
 25 61  1  0  0  0  0
 26 25  1  0  0  0  0
 26 62  1  0  0  0  0
 27 26  2  0  0  0  0
 27 63  1  0  0  0  0
 29 30  1  0  0  0  0
 29 31  1  0  0  0  0
 29 64  1  0  0  0  0
 30 65  1  0  0  0  0
 30 66  1  0  0  0  0
 30 67  1  0  0  0  0
 31 68  1  0  0  0  0
 31 69  1  0  0  0  0
 31 70  1  0  0  0  0
 33  3  1  0  0  0  0
 33 38  1  0  0  0  0
 33 46  1  6  0  0  0
 33 34  1  0  0  0  0
 34 35  1  0  0  0  0
 34 37  1  0  0  0  0
 34 71  1  1  0  0  0
 35 36  1  0  0  0  0
 35 72  1  0  0  0  0
 35 73  1  0  0  0  0
 36 74  1  0  0  0  0
 36 75  1  0  0  0  0
 36 76  1  0  0  0  0
 37 77  1  0  0  0  0
 37 78  1  0  0  0  0
 37 79  1  0  0  0  0
 38 45  2  0  0  0  0
 39 38  1  0  0  0  0
 39 43  1  0  0  0  0
 40  2  1  0  0  0  0
 40 39  1  0  0  0  0
 40 41  1  0  0  0  0
 40 44  1  6  0  0  0
 41 42  1  0  0  0  0
 41 80  1  0  0  0  0
 41 81  1  0  0  0  0
 42 82  1  0  0  0  0
 42 83  1  0  0  0  0
 43 42  1  0  0  0  0
 43 84  1  0  0  0  0
 43 85  1  0  0  0  0
M  END
>  <DRUGBANK_ID>
DB11275

>  <COMMON_NAME>
Epicriptine

>  <CAS_NUMBER>
88660-47-3

>  <UNII>
5M64643B5U

>  <SYNONYMS>
dihydro-beta-ergocryptine; Epicriptina; Epicriptine; Epicriptinum; Epicryptine

$$$$
