PB4
 OpenBabel10282417143D

 50 52  0  0  0  0  0  0  0  0999 V2000
    1.1228   -0.7892    0.0147 C   0  0  0  0  0  0  0  0  0  0  0  0
   -0.0973   -1.4338    0.0018 C   0  0  0  0  0  0  0  0  0  0  0  0
   -1.2219   -0.6344   -0.0189 C   0  0  0  0  0  0  0  0  0  0  0  0
   -8.0107   -2.3233    3.8347 C   0  0  0  0  0  0  0  0  0  0  0  0
    6.7403    1.5655   -3.2954 C   0  0  0  0  0  0  0  0  0  0  0  0
   -2.5710   -1.3084   -0.0558 C   0  0  0  0  0  0  0  0  0  0  0  0
   -5.0432   -1.0836   -0.0902 C   0  0  0  0  0  0  0  0  0  0  0  0
   -5.8524   -0.6863    1.1259 C   0  0  0  0  0  0  0  0  0  0  0  0
    2.3715   -1.6359    0.0307 C   0  0  0  0  0  0  0  0  0  0  0  0
    4.8551   -1.7394    0.0230 C   0  0  0  0  0  0  0  0  0  0  0  0
    5.6833   -1.4470   -1.2097 C   0  0  0  0  0  0  0  0  0  0  0  0
    5.8758   -0.1257   -1.6427 C   0  0  0  0  0  0  0  0  0  0  0  0
    7.1396   -0.9006   -3.5377 C   0  0  0  0  0  0  0  0  0  0  0  0
   -5.9522    0.6591    1.5106 C   0  0  0  0  0  0  0  0  0  0  0  0
   -6.6913    1.0230    2.6357 C   0  0  0  0  0  0  0  0  0  0  0  0
   -7.3493    0.0474    3.3748 C   0  0  0  0  0  0  0  0  0  0  0  0
   -6.5506   -1.6565    1.8724 C   0  0  0  0  0  0  0  0  0  0  0  0
   -1.1671    0.7178   -0.0168 N   0  0  0  0  0  0  0  0  0  0  0  0
    0.0789    1.2367    0.0027 C   0  0  0  0  0  0  0  0  0  0  0  0
    1.2462    0.5586    0.0150 N   0  0  0  0  0  0  0  0  0  0  0  0
   -3.7003   -0.5135   -0.0821 N   0  0  0  0  0  0  0  0  0  0  0  0
    3.5962   -0.9980    0.0433 N   0  0  0  0  0  0  0  0  0  0  0  0
    6.5868    0.1566   -2.8153 C   0  0  0  0  0  0  0  0  0  0  0  0
    7.0135   -2.2137   -3.0991 C   0  0  0  0  0  0  0  0  0  0  0  0
    6.2973   -2.4869   -1.9301 C   0  0  0  0  0  0  0  0  0  0  0  0
   -7.2966   -1.2977    3.0069 C   0  0  0  0  0  0  0  0  0  0  0  0
    2.2684   -2.8622    0.0367 O   0  0  0  0  0  0  0  0  0  0  0  0
   -2.6310   -2.5374   -0.0681 O   0  0  0  0  0  0  0  0  0  0  0  0
   -8.0414    0.4168    4.4623 F   0  0  0  0  0  0  0  0  0  0  0  0
    7.8084   -0.6540   -4.6736 F   0  0  0  0  0  0  0  0  0  0  0  0
   -0.1684   -2.5144    0.0046 H   0  0  0  0  0  0  0  0  0  0  0  0
   -7.6080   -2.3308    4.8532 H   0  0  0  0  0  0  0  0  0  0  0  0
   -9.0825   -2.1023    3.8759 H   0  0  0  0  0  0  0  0  0  0  0  0
   -7.8915   -3.3293    3.4200 H   0  0  0  0  0  0  0  0  0  0  0  0
    7.7991    1.8370   -3.3379 H   0  0  0  0  0  0  0  0  0  0  0  0
    6.2930    1.6772   -4.2879 H   0  0  0  0  0  0  0  0  0  0  0  0
    6.2391    2.2700   -2.6229 H   0  0  0  0  0  0  0  0  0  0  0  0
   -5.5598   -0.7356   -0.9926 H   0  0  0  0  0  0  0  0  0  0  0  0
   -4.9844   -2.1763   -0.1564 H   0  0  0  0  0  0  0  0  0  0  0  0
    5.4294   -1.4662    0.9156 H   0  0  0  0  0  0  0  0  0  0  0  0
    4.6516   -2.8148    0.0821 H   0  0  0  0  0  0  0  0  0  0  0  0
    5.4537    0.6949   -1.0687 H   0  0  0  0  0  0  0  0  0  0  0  0
   -5.4457    1.4333    0.9414 H   0  0  0  0  0  0  0  0  0  0  0  0
   -6.7515    2.0611    2.9451 H   0  0  0  0  0  0  0  0  0  0  0  0
   -6.5043   -2.7041    1.5759 H   0  0  0  0  0  0  0  0  0  0  0  0
    0.1500    2.3220    0.0096 H   0  0  0  0  0  0  0  0  0  0  0  0
   -3.5800    0.4923   -0.0793 H   0  0  0  0  0  0  0  0  0  0  0  0
    3.6071    0.0149    0.0412 H   0  0  0  0  0  0  0  0  0  0  0  0
    7.4636   -3.0150   -3.6777 H   0  0  0  0  0  0  0  0  0  0  0  0
    6.2116   -3.5199   -1.5968 H   0  0  0  0  0  0  0  0  0  0  0  0
  1  2  1  0  0  0  0
  1  9  1  0  0  0  0
  1 20  2  0  0  0  0
  2  3  2  0  0  0  0
  2 31  1  0  0  0  0
  3  6  1  0  0  0  0
  3 18  1  0  0  0  0
  4 26  1  0  0  0  0
  4 32  1  0  0  0  0
  4 33  1  0  0  0  0
  4 34  1  0  0  0  0
  5 23  1  0  0  0  0
  5 35  1  0  0  0  0
  5 36  1  0  0  0  0
  5 37  1  0  0  0  0
  6 21  1  0  0  0  0
  6 28  2  0  0  0  0
  7  8  1  0  0  0  0
  7 21  1  0  0  0  0
  7 38  1  0  0  0  0
  7 39  1  0  0  0  0
  8 14  1  0  0  0  0
  8 17  2  0  0  0  0
  9 22  1  0  0  0  0
  9 27  2  0  0  0  0
 10 11  1  0  0  0  0
 10 22  1  0  0  0  0
 10 40  1  0  0  0  0
 10 41  1  0  0  0  0
 11 12  2  0  0  0  0
 11 25  1  0  0  0  0
 12 23  1  0  0  0  0
 12 42  1  0  0  0  0
 13 23  2  0  0  0  0
 13 24  1  0  0  0  0
 13 30  1  0  0  0  0
 14 15  2  0  0  0  0
 14 43  1  0  0  0  0
 15 16  1  0  0  0  0
 15 44  1  0  0  0  0
 16 26  2  0  0  0  0
 16 29  1  0  0  0  0
 17 26  1  0  0  0  0
 17 45  1  0  0  0  0
 18 19  2  0  0  0  0
 19 20  1  0  0  0  0
 19 46  1  0  0  0  0
 21 47  1  0  0  0  0
 22 48  1  0  0  0  0
 24 25  2  0  0  0  0
 24 49  1  0  0  0  0
 25 50  1  0  0  0  0
M  END
>  <DRUGBANK_ID>
DB04760

>  <COMMON_NAME>
PYRIMIDINE-4,6-DICARBOXYLIC ACID BIS-(4-FLUORO-3-METHYL-BENZYLAMIDE)

$$$$
