Terpinen-4-ol
 OpenBabel10282417203D
Mrv0541 01161316072D
 29 29  0  0  0  0  0  0  0  0999 V2000
   -0.4767   -1.4681   -0.0720 C   0  0  0  0  0  0  0  0  0  0  0  0
   -1.4106   -0.5075   -0.0980 C   0  0  0  0  0  0  0  0  0  0  0  0
   -1.1079    0.9380   -0.0740 C   0  0  0  0  0  0  0  0  0  0  0  0
    0.3767    1.3703    0.0406 C   0  0  3  0  0  0  0  0  0  0  0  0
    1.4293    0.2507   -0.1335 C   0  0  0  0  0  0  0  0  0  0  0  0
    0.9818   -1.1961   -0.0866 C   0  0  0  0  0  0  0  0  0  0  0  0
    0.5873    2.0927    1.4075 C   0  0  0  0  0  0  0  0  0  0  0  0
    2.0161    2.6258    1.6002 C   0  0  0  0  0  0  0  0  0  0  0  0
   -0.3786    3.2760    1.5944 C   0  0  0  0  0  0  0  0  0  0  0  0
    0.5938    2.3296   -1.0187 O   0  0  0  0  0  0  0  0  0  0  0  0
   -0.8816   -2.8994   -0.0217 C   0  0  0  0  0  0  0  0  0  0  0  0
   -2.4648   -0.7671   -0.0704 H   0  0  0  0  0  0  0  0  0  0  0  0
   -1.6656    1.2573    0.8097 H   0  0  0  0  0  0  0  0  0  0  0  0
   -1.5945    1.4303   -0.9252 H   0  0  0  0  0  0  0  0  0  0  0  0
    2.0297    0.4133   -1.0379 H   0  0  0  0  0  0  0  0  0  0  0  0
    2.1686    0.3006    0.6685 H   0  0  0  0  0  0  0  0  0  0  0  0
    1.4238   -1.7019   -0.9529 H   0  0  0  0  0  0  0  0  0  0  0  0
    1.4281   -1.6587    0.8047 H   0  0  0  0  0  0  0  0  0  0  0  0
    0.3897    1.3557    2.1989 H   0  0  0  0  0  0  0  0  0  0  0  0
    2.2688    3.3546    0.8253 H   0  0  0  0  0  0  0  0  0  0  0  0
    2.1118    3.1002    2.5801 H   0  0  0  0  0  0  0  0  0  0  0  0
    2.7827    1.8479    1.5774 H   0  0  0  0  0  0  0  0  0  0  0  0
   -1.4336    2.9940    1.5547 H   0  0  0  0  0  0  0  0  0  0  0  0
   -0.2332    3.7325    2.5762 H   0  0  0  0  0  0  0  0  0  0  0  0
   -0.2209    4.0312    0.8193 H   0  0  0  0  0  0  0  0  0  0  0  0
    1.5489    2.4279   -1.1686 H   0  0  0  0  0  0  0  0  0  0  0  0
   -1.4604   -3.0999    0.8851 H   0  0  0  0  0  0  0  0  0  0  0  0
   -1.4763   -3.1430   -0.9053 H   0  0  0  0  0  0  0  0  0  0  0  0
   -0.0007   -3.5482   -0.0111 H   0  0  0  0  0  0  0  0  0  0  0  0
  1  2  2  0  0  0  0
  1  6  1  0  0  0  0
  1 11  1  0  0  0  0
  2  3  1  0  0  0  0
  2 12  1  0  0  0  0
  3  4  1  0  0  0  0
  3 13  1  0  0  0  0
  3 14  1  0  0  0  0
  4  5  1  0  0  0  0
  4  7  1  0  0  0  0
  4 10  1  0  0  0  0
  5  6  1  0  0  0  0
  5 15  1  0  0  0  0
  5 16  1  0  0  0  0
  6 17  1  0  0  0  0
  6 18  1  0  0  0  0
  7  8  1  0  0  0  0
  7  9  1  0  0  0  0
  7 19  1  0  0  0  0
  8 20  1  0  0  0  0
  8 21  1  0  0  0  0
  8 22  1  0  0  0  0
  9 23  1  0  0  0  0
  9 24  1  0  0  0  0
  9 25  1  0  0  0  0
 10 26  1  0  0  0  0
 11 27  1  0  0  0  0
 11 28  1  0  0  0  0
 11 29  1  0  0  0  0
M  END
>  <DRUGBANK_ID>
DB12816

>  <COMMON_NAME>
Terpinen-4-ol

>  <CAS_NUMBER>
562-74-3

>  <UNII>
L65MV77ZG6

$$$$
