NRO
 OpenBabel10282417173D

 37 38  0  0  0  0  0  0  0  0999 V2000
    0.8198    0.1737    0.2080 C   0  0  0  0  0  0  0  0  0  0  0  0
    0.3879    1.0552   -0.9507 C   0  0  0  0  0  0  0  0  0  0  0  0
    0.9262    0.5929   -2.3242 C   0  0  0  0  0  0  0  0  0  0  0  0
    0.4651   -0.7725   -2.7990 C   0  0  0  0  0  0  0  0  0  0  0  0
   -0.3469   -0.9511   -3.8666 C   0  0  0  0  0  0  0  0  0  0  0  0
   -0.9329   -2.1964   -4.2246 C   0  0  0  0  0  0  0  0  0  0  0  0
   -1.3452   -4.0903   -5.2899 C   0  0  0  0  0  0  0  0  0  0  0  0
   -1.4622   -4.9782   -6.4281 C   0  0  0  0  0  0  0  0  0  0  0  0
   -2.7495   -5.4599   -6.7157 C   0  0  0  0  0  0  0  0  0  0  0  0
   -0.3764   -5.4401   -7.1731 C   0  0  0  0  0  0  0  0  0  0  0  0
   -1.8808   -6.7975   -8.5170 C   0  0  0  0  0  0  0  0  0  0  0  0
   -2.9685   -6.3605   -7.7571 C   0  0  0  0  0  0  0  0  0  0  0  0
   -4.3349   -6.8228   -8.0928 C   0  0  0  0  0  0  0  0  0  0  0  0
    1.0895   -1.9308   -2.0927 N   0  3  0  0  0  0  0  0  0  0  0  0
    2.0683   -1.6938   -1.3783 O   0  0  0  0  0  0  0  0  0  0  0  0
    0.6487   -3.0744   -2.2240 O   0  5  0  0  0  0  0  0  0  0  0  0
   -0.8311   -2.8320   -5.4521 O   0  0  0  0  0  0  0  0  0  0  0  0
   -1.6726   -3.0199   -3.3821 C   0  0  0  0  0  0  0  0  0  0  0  0
   -1.8008   -4.2623   -4.0072 C   0  0  0  0  0  0  0  0  0  0  0  0
   -0.5935   -6.3214   -8.2400 C   0  0  0  0  0  0  0  0  0  0  0  0
   -4.6266   -7.5822   -9.0055 O   0  0  0  0  0  0  0  0  0  0  0  0
   -5.2781   -6.2904   -7.2950 O   0  0  0  0  0  0  0  0  0  0  0  0
    0.3470   -0.8091    0.1278 H   0  0  0  0  0  0  0  0  0  0  0  0
    0.5218    0.5746    1.1776 H   0  0  0  0  0  0  0  0  0  0  0  0
    1.9104    0.0709    0.2151 H   0  0  0  0  0  0  0  0  0  0  0  0
   -0.7070    1.1062   -0.9721 H   0  0  0  0  0  0  0  0  0  0  0  0
    0.7466    2.0747   -0.7557 H   0  0  0  0  0  0  0  0  0  0  0  0
    0.5927    1.3530   -3.0470 H   0  0  0  0  0  0  0  0  0  0  0  0
    2.0207    0.6538   -2.3411 H   0  0  0  0  0  0  0  0  0  0  0  0
   -0.6511   -0.0881   -4.4570 H   0  0  0  0  0  0  0  0  0  0  0  0
   -3.5862   -5.1218   -6.1069 H   0  0  0  0  0  0  0  0  0  0  0  0
    0.6397   -5.1498   -6.9133 H   0  0  0  0  0  0  0  0  0  0  0  0
   -2.0318   -7.5090   -9.3264 H   0  0  0  0  0  0  0  0  0  0  0  0
   -1.8971   -2.8020   -2.3472 H   0  0  0  0  0  0  0  0  0  0  0  0
   -2.1937   -5.1757   -3.5897 H   0  0  0  0  0  0  0  0  0  0  0  0
    0.2408   -6.6381   -8.8623 H   0  0  0  0  0  0  0  0  0  0  0  0
   -6.1294   -6.6337   -7.6383 H   0  0  0  0  0  0  0  0  0  0  0  0
  1  2  1  0  0  0  0
  1 23  1  0  0  0  0
  1 24  1  0  0  0  0
  1 25  1  0  0  0  0
  2  3  1  0  0  0  0
  2 26  1  0  0  0  0
  2 27  1  0  0  0  0
  3  4  1  0  0  0  0
  3 28  1  0  0  0  0
  3 29  1  0  0  0  0
  4  5  2  0  0  0  0
  4 14  1  0  0  0  0
  5  6  1  0  0  0  0
  5 30  1  0  0  0  0
  6 17  1  0  0  0  0
  6 18  2  0  0  0  0
  7  8  1  0  0  0  0
  7 17  1  0  0  0  0
  7 19  2  0  0  0  0
  8  9  2  0  0  0  0
  8 10  1  0  0  0  0
  9 12  1  0  0  0  0
  9 31  1  0  0  0  0
 10 20  2  0  0  0  0
 10 32  1  0  0  0  0
 11 12  2  0  0  0  0
 11 20  1  0  0  0  0
 11 33  1  0  0  0  0
 12 13  1  0  0  0  0
 13 21  2  0  0  0  0
 13 22  1  0  0  0  0
 14 15  2  0  0  0  0
 14 16  1  0  0  0  0
 18 19  1  0  0  0  0
 18 34  1  0  0  0  0
 19 35  1  0  0  0  0
 20 36  1  0  0  0  0
 22 37  1  0  0  0  0
M  CHG  2  14   1  16  -1
M  END
>  <DRUGBANK_ID>
DB08302

>  <COMMON_NAME>
3-[5-(2-nitropent-1-en-1-yl)furan-2-yl]benzoic acid

$$$$
