
 OpenBabel10282417143D

126125  0  0  1  0  0  0  0  0999 V2000
   -9.7321  -13.6504  -20.9224 C   0  0  0  0  0  0  0  0  0  0  0  0
   -8.2838  -13.4579  -20.5025 C   0  0  0  0  0  0  0  0  0  0  0  0
   -7.9113  -11.9750  -20.5402 C   0  0  0  0  0  0  0  0  0  0  0  0
   -8.7889  -11.1588  -19.5858 C   0  0  0  0  0  0  0  0  0  0  0  0
   -8.6492  -11.6759  -18.1488 C   0  0  0  0  0  0  0  0  0  0  0  0
   -7.1989  -11.5458  -17.6679 C   0  0  0  0  0  0  0  0  0  0  0  0
   -6.7636  -10.0838  -17.7005 C   0  0  0  0  0  0  0  0  0  0  0  0
   -7.7107   -9.2417  -16.8642 C   0  0  0  0  0  0  0  0  0  0  0  0
   -7.5909   -9.6733  -15.4399 C   0  0  0  0  0  0  0  0  0  0  0  0
   -7.0938   -8.8835  -14.4959 C   0  0  0  0  0  0  0  0  0  0  0  0
   -6.7943   -7.4403  -14.7277 C   0  0  0  0  0  0  0  0  0  0  0  0
   -7.8037   -6.6361  -13.9211 C   0  0  0  0  0  0  0  0  0  0  0  0
   -7.6954   -6.9639  -12.4201 C   0  0  0  0  0  0  0  0  0  0  0  0
   -6.2855   -6.7955  -11.9334 C   0  0  0  0  0  0  0  0  0  0  0  0
   -5.9856   -5.3607  -12.1219 C   0  0  0  0  0  0  0  0  0  0  0  0
   -6.7316   -4.3031  -11.3329 C   0  0  0  0  0  0  0  0  0  0  0  0
   -6.4360   -4.5021   -9.8420 C   0  0  0  0  0  0  0  0  0  0  0  0
   -5.0201   -4.3562   -9.1746 C   0  0  0  0  0  0  0  0  0  0  0  0
   -4.7919   -3.5230   -8.3476 O   0  0  0  0  0  0  0  0  0  0  0  0
   -4.0202   -5.1701   -9.6882 O   0  0  0  0  0  0  0  0  0  0  0  0
   -2.5939   -4.7569   -9.5128 C   0  0  0  0  0  0  0  0  0  0  0  0
   -2.1439   -3.4586  -10.3364 C   0  0  2  0  0  0  0  0  0  0  0  0
   -3.6803   -2.6094  -10.8262 C   0  0  0  0  0  0  0  0  0  0  0  0
   -4.2350   -1.5645  -11.7731 O   0  0  0  0  0  0  0  0  0  0  0  0
   -4.4579   -1.3635  -13.4853 P   0  0  2  0  0  0  0  0  0  0  0  0
   -3.9645    0.2881  -13.3388 O   0  0  0  0  0  0  0  0  0  0  0  0
   -5.9084   -0.8816  -13.5545 O   0  0  0  0  0  0  0  0  0  0  0  0
   -4.9514   -3.0152  -13.6318 O   0  0  0  0  0  0  0  0  0  0  0  0
   -4.0249   -3.8626  -13.3463 C   0  0  0  0  0  0  0  0  0  0  0  0
   -2.6229   -3.5054  -13.0503 C   0  0  2  0  0  0  0  0  0  0  0  0
   -2.8265   -4.6202  -12.1618 O   0  0  0  0  0  0  0  0  0  0  0  0
   -1.9488   -1.9084  -12.5429 C   0  0  0  0  0  0  0  0  0  0  0  0
   -0.8245   -1.6177  -11.6699 O   0  0  0  0  0  0  0  0  0  0  0  0
   -0.8094   -3.9812  -11.4620 O   0  0  0  0  0  0  0  0  0  0  0  0
   -0.4853   -4.9517  -12.5395 C   0  0  0  0  0  0  0  0  0  0  0  0
   -1.1698   -5.9662  -12.7499 O   0  0  0  0  0  0  0  0  0  0  0  0
    0.5988   -4.7373  -13.5765 C   0  0  0  0  0  0  0  0  0  0  0  0
    0.6230   -3.4894  -14.4533 C   0  0  0  0  0  0  0  0  0  0  0  0
    0.9005   -2.3116  -13.5852 C   0  0  0  0  0  0  0  0  0  0  0  0
    1.9471   -2.5607  -12.5103 C   0  0  0  0  0  0  0  0  0  0  0  0
    3.2356   -2.7432  -13.2890 C   0  0  0  0  0  0  0  0  0  0  0  0
    3.4951   -1.4617  -14.0788 C   0  0  0  0  0  0  0  0  0  0  0  0
    3.5497   -0.2775  -13.1283 C   0  0  0  0  0  0  0  0  0  0  0  0
    4.7257   -0.4730  -12.2322 C   0  0  0  0  0  0  0  0  0  0  0  0
    5.7979    0.3090  -12.2864 C   0  0  0  0  0  0  0  0  0  0  0  0
    5.8516    1.5461  -13.1233 C   0  0  0  0  0  0  0  0  0  0  0  0
    5.9511    2.7534  -12.2079 C   0  0  0  0  0  0  0  0  0  0  0  0
    7.2691    2.7303  -11.4374 C   0  0  0  0  0  0  0  0  0  0  0  0
    8.4685    2.6938  -12.3943 C   0  0  0  0  0  0  0  0  0  0  0  0
    8.4848    3.9045  -13.3296 C   0  0  0  0  0  0  0  0  0  0  0  0
    8.5767    5.1903  -12.5256 C   0  0  0  0  0  0  0  0  0  0  0  0
  -10.4277  -13.1258  -20.2591 H   0  0  0  0  0  0  0  0  0  0  0  0
  -10.0069  -14.7049  -20.8935 H   0  0  0  0  0  0  0  0  0  0  0  0
   -9.8777  -13.2632  -21.9350 H   0  0  0  0  0  0  0  0  0  0  0  0
   -8.1310  -13.8805  -19.5023 H   0  0  0  0  0  0  0  0  0  0  0  0
   -7.6175  -14.0218  -21.1605 H   0  0  0  0  0  0  0  0  0  0  0  0
   -6.8501  -11.8586  -20.2882 H   0  0  0  0  0  0  0  0  0  0  0  0
   -8.0089  -11.5825  -21.5568 H   0  0  0  0  0  0  0  0  0  0  0  0
   -8.5278  -10.0976  -19.6635 H   0  0  0  0  0  0  0  0  0  0  0  0
   -9.8398  -11.1862  -19.8857 H   0  0  0  0  0  0  0  0  0  0  0  0
   -9.3486  -11.1394  -17.4998 H   0  0  0  0  0  0  0  0  0  0  0  0
   -8.9732  -12.7144  -18.0501 H   0  0  0  0  0  0  0  0  0  0  0  0
   -7.1059  -11.9644  -16.6612 H   0  0  0  0  0  0  0  0  0  0  0  0
   -6.5097  -12.1421  -18.2711 H   0  0  0  0  0  0  0  0  0  0  0  0
   -5.7296   -9.9844  -17.3479 H   0  0  0  0  0  0  0  0  0  0  0  0
   -6.7530   -9.6871  -18.7213 H   0  0  0  0  0  0  0  0  0  0  0  0
   -7.4525   -8.2060  -17.0630 H   0  0  0  0  0  0  0  0  0  0  0  0
   -8.7590   -9.2932  -17.1630 H   0  0  0  0  0  0  0  0  0  0  0  0
   -7.8703  -10.6863  -15.1561 H   0  0  0  0  0  0  0  0  0  0  0  0
   -6.9797   -9.2939  -13.4941 H   0  0  0  0  0  0  0  0  0  0  0  0
   -5.7438   -7.2486  -14.4930 H   0  0  0  0  0  0  0  0  0  0  0  0
   -6.8752   -7.0996  -15.7568 H   0  0  0  0  0  0  0  0  0  0  0  0
   -7.6468   -5.5746  -14.1581 H   0  0  0  0  0  0  0  0  0  0  0  0
   -8.8296   -6.8258  -14.2493 H   0  0  0  0  0  0  0  0  0  0  0  0
   -8.3645   -6.3072  -11.8639 H   0  0  0  0  0  0  0  0  0  0  0  0
   -8.0073   -7.9788  -12.1876 H   0  0  0  0  0  0  0  0  0  0  0  0
   -6.1079   -7.0767  -10.8964 H   0  0  0  0  0  0  0  0  0  0  0  0
   -5.5321   -7.3599  -12.5045 H   0  0  0  0  0  0  0  0  0  0  0  0
   -4.9587   -5.4029  -11.8007 H   0  0  0  0  0  0  0  0  0  0  0  0
   -6.0596   -5.1124  -13.1845 H   0  0  0  0  0  0  0  0  0  0  0  0
   -6.5076   -3.2793  -11.6744 H   0  0  0  0  0  0  0  0  0  0  0  0
   -7.8077   -4.3695  -11.5588 H   0  0  0  0  0  0  0  0  0  0  0  0
   -7.0590   -3.7487   -9.3493 H   0  0  0  0  0  0  0  0  0  0  0  0
   -6.8098   -5.4826   -9.5630 H   0  0  0  0  0  0  0  0  0  0  0  0
   -2.3602   -4.6707   -8.4495 H   0  0  0  0  0  0  0  0  0  0  0  0
   -1.9980   -5.6020   -9.8821 H   0  0  0  0  0  0  0  0  0  0  0  0
   -1.6024   -2.7446   -9.6999 H   0  0  0  0  0  0  0  0  0  0  0  0
   -4.2438   -3.4799  -10.9732 H   0  0  0  0  0  0  0  0  0  0  0  0
   -4.1523   -2.2446   -9.9256 H   0  0  0  0  0  0  0  0  0  0  0  0
   -4.4360    0.6537  -12.5647 H   0  0  0  0  0  0  0  0  0  0  0  0
   -4.5545   -3.9155  -12.4357 H   0  0  0  0  0  0  0  0  0  0  0  0
   -4.1827   -4.8469  -13.7929 H   0  0  0  0  0  0  0  0  0  0  0  0
   -2.1644   -3.7585  -14.0002 H   0  0  0  0  0  0  0  0  0  0  0  0
   -2.0995   -5.0651  -11.7326 H   0  0  0  0  0  0  0  0  0  0  0  0
   -1.9119   -1.2852  -13.4385 H   0  0  0  0  0  0  0  0  0  0  0  0
   -2.4901   -1.2789  -11.8774 H   0  0  0  0  0  0  0  0  0  0  0  0
   -0.4370   -2.4360  -11.3182 H   0  0  0  0  0  0  0  0  0  0  0  0
    1.5287   -4.9860  -13.0700 H   0  0  0  0  0  0  0  0  0  0  0  0
    0.4821   -5.5403  -14.3219 H   0  0  0  0  0  0  0  0  0  0  0  0
    1.3804   -3.5623  -15.2358 H   0  0  0  0  0  0  0  0  0  0  0  0
   -0.3316   -3.3219  -14.9699 H   0  0  0  0  0  0  0  0  0  0  0  0
    0.9518   -1.3368  -14.0767 H   0  0  0  0  0  0  0  0  0  0  0  0
   -0.0408   -2.2533  -13.1731 H   0  0  0  0  0  0  0  0  0  0  0  0
    1.9681   -1.7535  -11.7709 H   0  0  0  0  0  0  0  0  0  0  0  0
    1.7491   -3.4248  -11.8697 H   0  0  0  0  0  0  0  0  0  0  0  0
    4.0527   -3.0056  -12.6167 H   0  0  0  0  0  0  0  0  0  0  0  0
    3.1583   -3.5849  -13.9832 H   0  0  0  0  0  0  0  0  0  0  0  0
    4.4044   -1.5634  -14.6749 H   0  0  0  0  0  0  0  0  0  0  0  0
    2.7171   -1.2614  -14.8252 H   0  0  0  0  0  0  0  0  0  0  0  0
    3.5622    0.6115  -13.7497 H   0  0  0  0  0  0  0  0  0  0  0  0
    2.6603   -0.1189  -12.5133 H   0  0  0  0  0  0  0  0  0  0  0  0
    4.7440   -1.3221  -11.5504 H   0  0  0  0  0  0  0  0  0  0  0  0
    6.6460    0.0507  -11.6558 H   0  0  0  0  0  0  0  0  0  0  0  0
    6.6667    1.4521  -13.8424 H   0  0  0  0  0  0  0  0  0  0  0  0
    4.9836    1.7165  -13.7542 H   0  0  0  0  0  0  0  0  0  0  0  0
    5.8554    3.6598  -12.8154 H   0  0  0  0  0  0  0  0  0  0  0  0
    5.1030    2.7862  -11.5114 H   0  0  0  0  0  0  0  0  0  0  0  0
    7.3128    3.5950  -10.7713 H   0  0  0  0  0  0  0  0  0  0  0  0
    7.3110    1.8670  -10.7652 H   0  0  0  0  0  0  0  0  0  0  0  0
    9.3937    2.6475  -11.8135 H   0  0  0  0  0  0  0  0  0  0  0  0
    8.4669    1.7752  -12.9938 H   0  0  0  0  0  0  0  0  0  0  0  0
    9.3323    3.8255  -14.0168 H   0  0  0  0  0  0  0  0  0  0  0  0
    7.5917    3.9298  -13.9662 H   0  0  0  0  0  0  0  0  0  0  0  0
    9.4833    5.1794  -11.9135 H   0  0  0  0  0  0  0  0  0  0  0  0
    8.5943    6.0595  -13.1835 H   0  0  0  0  0  0  0  0  0  0  0  0
    7.7198    5.3169  -11.8562 H   0  0  0  0  0  0  0  0  0  0  0  0
  1  2  1  0  0  0  0
  1 52  1  0  0  0  0
  1 53  1  0  0  0  0
  1 54  1  0  0  0  0
  2  3  1  0  0  0  0
  2 55  1  0  0  0  0
  2 56  1  0  0  0  0
  3  4  1  0  0  0  0
  3 57  1  0  0  0  0
  3 58  1  0  0  0  0
  4  5  1  0  0  0  0
  4 59  1  0  0  0  0
  4 60  1  0  0  0  0
  5  6  1  0  0  0  0
  5 61  1  0  0  0  0
  5 62  1  0  0  0  0
  6  7  1  0  0  0  0
  6 63  1  0  0  0  0
  6 64  1  0  0  0  0
  7  8  1  0  0  0  0
  7 65  1  0  0  0  0
  7 66  1  0  0  0  0
  8  9  1  0  0  0  0
  8 67  1  0  0  0  0
  8 68  1  0  0  0  0
  9 10  2  0  0  0  0
  9 69  1  0  0  0  0
 10 11  1  0  0  0  0
 10 70  1  0  0  0  0
 11 12  1  0  0  0  0
 11 71  1  0  0  0  0
 11 72  1  0  0  0  0
 12 13  1  0  0  0  0
 12 73  1  0  0  0  0
 12 74  1  0  0  0  0
 13 14  1  0  0  0  0
 13 75  1  0  0  0  0
 13 76  1  0  0  0  0
 14 15  1  0  0  0  0
 14 77  1  0  0  0  0
 14 78  1  0  0  0  0
 15 16  1  0  0  0  0
 15 79  1  0  0  0  0
 15 80  1  0  0  0  0
 16 17  1  0  0  0  0
 16 81  1  0  0  0  0
 16 82  1  0  0  0  0
 17 18  1  0  0  0  0
 17 83  1  0  0  0  0
 17 84  1  0  0  0  0
 18 19  2  0  0  0  0
 18 20  1  0  0  0  0
 20 21  1  0  0  0  0
 21 85  1  0  0  0  0
 21 86  1  0  0  0  0
 22 34  1  0  0  0  0
 22 87  1  1  0  0  0
 22 23  1  0  0  0  0
 22 21  1  0  0  0  0
 23 24  1  0  0  0  0
 23 88  1  0  0  0  0
 23 89  1  0  0  0  0
 25 27  2  1  0  0  0
 25 28  1  0  0  0  0
 25 26  1  0  0  0  0
 25 24  1  0  0  0  0
 26 90  1  0  0  0  0
 28 29  1  0  0  0  0
 29 91  1  0  0  0  0
 29 92  1  0  0  0  0
 30 32  1  0  0  0  0
 30 93  1  6  0  0  0
 30 31  1  0  0  0  0
 30 29  1  0  0  0  0
 31 94  1  0  0  0  0
 32 33  1  0  0  0  0
 32 95  1  0  0  0  0
 32 96  1  0  0  0  0
 33 97  1  0  0  0  0
 34 35  1  0  0  0  0
 35 36  2  0  0  0  0
 35 37  1  0  0  0  0
 37 38  1  0  0  0  0
 37 98  1  0  0  0  0
 37 99  1  0  0  0  0
 38 39  1  0  0  0  0
 38100  1  0  0  0  0
 38101  1  0  0  0  0
 39 40  1  0  0  0  0
 39102  1  0  0  0  0
 39103  1  0  0  0  0
 40 41  1  0  0  0  0
 40104  1  0  0  0  0
 40105  1  0  0  0  0
 41 42  1  0  0  0  0
 41106  1  0  0  0  0
 41107  1  0  0  0  0
 42 43  1  0  0  0  0
 42108  1  0  0  0  0
 42109  1  0  0  0  0
 43 44  1  0  0  0  0
 43110  1  0  0  0  0
 43111  1  0  0  0  0
 44 45  2  0  0  0  0
 44112  1  0  0  0  0
 45 46  1  0  0  0  0
 45113  1  0  0  0  0
 46 47  1  0  0  0  0
 46114  1  0  0  0  0
 46115  1  0  0  0  0
 47 48  1  0  0  0  0
 47116  1  0  0  0  0
 47117  1  0  0  0  0
 48 49  1  0  0  0  0
 48118  1  0  0  0  0
 48119  1  0  0  0  0
 49 50  1  0  0  0  0
 49120  1  0  0  0  0
 49121  1  0  0  0  0
 50 51  1  0  0  0  0
 50122  1  0  0  0  0
 50123  1  0  0  0  0
 51124  1  0  0  0  0
 51125  1  0  0  0  0
 51126  1  0  0  0  0
M  END
>  <DRUGBANK_ID>
DB04683

>  <COMMON_NAME>
(2R)-3-{[{[(2S)-2,3-DIHYDROXYPROPYL]OXY}(HYDROXY)PHOSPHORYL]OXY}-2-[(9E)-HEXADEC-9-ENOYLOXY]PROPYL (9E)-OCTADEC-9-ENOATE

$$$$
