B82
 OpenBabel10282417163D

 46 47  0  0  0  0  0  0  0  0999 V2000
    0.9132   -0.0441    0.1021 S   0  0  0  0  0  0  0  0  0  0  0  0
    0.3074    1.2640    0.2847 O   0  0  0  0  0  0  0  0  0  0  0  0
    0.5777   -1.0893    1.0356 O   0  0  0  0  0  0  0  0  0  0  0  0
    2.6257    0.1439    0.0866 N   0  0  0  0  0  0  0  0  0  0  0  0
    3.2491    0.3279    1.4411 C   0  0  0  0  0  0  0  0  0  0  0  0
    2.8475    1.6359    2.1067 C   0  0  0  0  0  0  0  0  0  0  0  0
    3.2524    0.9705   -0.9844 C   0  0  0  0  0  0  0  0  0  0  0  0
    2.8618    2.4358   -0.9315 C   0  0  0  0  0  0  0  0  0  0  0  0
    0.4981   -0.5607   -1.5529 C   0  0  0  0  0  0  0  0  0  0  0  0
    0.5591   -1.8927   -1.9543 C   0  0  0  0  0  0  0  0  0  0  0  0
    1.1703   -3.3377   -0.8898 Br  0  0  0  0  0  0  0  0  0  0  0  0
    0.1672   -2.2287   -3.2575 C   0  0  0  0  0  0  0  0  0  0  0  0
   -0.3044   -1.2635   -4.1543 C   0  0  0  0  0  0  0  0  0  0  0  0
   -0.4283    0.0640   -3.7501 C   0  0  0  0  0  0  0  0  0  0  0  0
   -1.0233    1.1294   -4.6204 C   0  0  0  0  0  0  0  0  0  0  0  0
   -1.2053    2.2413   -4.1265 O   0  0  0  0  0  0  0  0  0  0  0  0
   -1.3577    0.8085   -5.9331 N   0  0  0  0  0  0  0  0  0  0  0  0
   -1.7800    1.7831   -6.8713 C   0  0  0  0  0  0  0  0  0  0  0  0
   -2.9249    1.4682   -7.6293 C   0  0  0  0  0  0  0  0  0  0  0  0
   -3.4423    2.3715   -8.5631 C   0  0  0  0  0  0  0  0  0  0  0  0
   -2.8410    3.6135   -8.7274 C   0  0  0  0  0  0  0  0  0  0  0  0
   -1.6833    3.9237   -8.0080 C   0  0  0  0  0  0  0  0  0  0  0  0
   -1.1270    3.0127   -7.0868 C   0  0  0  0  0  0  0  0  0  0  0  0
    0.1575    3.4382   -6.4500 C   0  0  0  0  0  0  0  0  0  0  0  0
    0.5881    4.5747   -6.4493 O   0  0  0  0  0  0  0  0  0  0  0  0
    0.8589    2.4495   -5.8581 O   0  0  0  0  0  0  0  0  0  0  0  0
   -0.0003    0.4126   -2.4525 C   0  0  0  0  0  0  0  0  0  0  0  0
    2.9694   -0.5138    2.0852 H   0  0  0  0  0  0  0  0  0  0  0  0
    4.3430    0.2796    1.3532 H   0  0  0  0  0  0  0  0  0  0  0  0
    1.7725    1.8097    2.0593 H   0  0  0  0  0  0  0  0  0  0  0  0
    3.1504    1.6760    3.1528 H   0  0  0  0  0  0  0  0  0  0  0  0
    3.3444    2.4879    1.6517 H   0  0  0  0  0  0  0  0  0  0  0  0
    4.3455    0.8790   -0.9223 H   0  0  0  0  0  0  0  0  0  0  0  0
    2.9896    0.5503   -1.9610 H   0  0  0  0  0  0  0  0  0  0  0  0
    3.3596    2.9555   -0.1185 H   0  0  0  0  0  0  0  0  0  0  0  0
    3.1690    2.9723   -1.8282 H   0  0  0  0  0  0  0  0  0  0  0  0
    1.7902    2.5784   -0.8110 H   0  0  0  0  0  0  0  0  0  0  0  0
    0.2135   -3.2649   -3.5870 H   0  0  0  0  0  0  0  0  0  0  0  0
   -0.5787   -1.5942   -5.1489 H   0  0  0  0  0  0  0  0  0  0  0  0
   -1.4230   -0.1508   -6.2371 H   0  0  0  0  0  0  0  0  0  0  0  0
   -3.4787    0.5501   -7.4437 H   0  0  0  0  0  0  0  0  0  0  0  0
   -4.3254    2.1167   -9.1465 H   0  0  0  0  0  0  0  0  0  0  0  0
   -3.2717    4.3428   -9.4108 H   0  0  0  0  0  0  0  0  0  0  0  0
   -1.2047    4.8869   -8.1789 H   0  0  0  0  0  0  0  0  0  0  0  0
    1.3687    2.9121   -5.1608 H   0  0  0  0  0  0  0  0  0  0  0  0
   -0.0726    1.4568   -2.1389 H   0  0  0  0  0  0  0  0  0  0  0  0
  1  2  2  0  0  0  0
  1  9  1  0  0  0  0
  3  1  2  0  0  0  0
  4  1  1  0  0  0  0
  4  7  1  0  0  0  0
  5  4  1  0  0  0  0
  5 28  1  0  0  0  0
  5 29  1  0  0  0  0
  6  5  1  0  0  0  0
  6 30  1  0  0  0  0
  6 31  1  0  0  0  0
  6 32  1  0  0  0  0
  7 33  1  0  0  0  0
  7 34  1  0  0  0  0
  8  7  1  0  0  0  0
  8 35  1  0  0  0  0
  8 36  1  0  0  0  0
  8 37  1  0  0  0  0
  9 10  1  0  0  0  0
 10 12  2  0  0  0  0
 10 11  1  0  0  0  0
 12 38  1  0  0  0  0
 13 12  1  0  0  0  0
 13 39  1  0  0  0  0
 14 13  2  0  0  0  0
 15 14  1  0  0  0  0
 15 17  1  0  0  0  0
 16 15  2  0  0  0  0
 17 40  1  0  0  0  0
 18 17  1  0  0  0  0
 18 23  1  0  0  0  0
 19 18  2  0  0  0  0
 19 41  1  0  0  0  0
 20 19  1  0  0  0  0
 20 21  2  0  0  0  0
 20 42  1  0  0  0  0
 21 22  1  0  0  0  0
 21 43  1  0  0  0  0
 22 23  2  0  0  0  0
 22 44  1  0  0  0  0
 23 24  1  0  0  0  0
 24 25  2  0  0  0  0
 24 26  1  0  0  0  0
 26 45  1  0  0  0  0
 27  9  2  0  0  0  0
 27 14  1  0  0  0  0
 27 46  1  0  0  0  0
M  END
>  <DRUGBANK_ID>
DB07429

>  <COMMON_NAME>
2-({[4-bromo-3-(diethylsulfamoyl)phenyl]carbonyl}amino)benzoic acid

$$$$
