
 OpenBabel10282417183D

 50 52  0  0  0  0  0  0  0  0999 V2000
    1.0867    0.4338   -0.1842 C   0  0  0  0  0  0  0  0  0  0  0  0
    0.4869    1.3461    0.3642 O   0  0  0  0  0  0  0  0  0  0  0  0
    0.2747   -0.5691   -0.8638 C   0  0  0  0  0  0  0  0  0  0  0  0
    0.4982   -0.7705   -2.3329 C   0  0  0  0  0  0  0  0  0  0  0  0
    2.4581    0.2012   -0.1844 N   0  0  0  0  0  0  0  0  0  0  0  0
    2.6449   -3.7789    0.4764 N   0  0  0  0  0  0  0  0  0  0  0  0
    3.3086   -1.0280   -0.6114 C   0  0  0  0  0  0  0  0  0  0  0  0
    2.9287   -2.2816   -1.4841 C   0  0  0  0  0  0  0  0  0  0  0  0
    3.9614   -1.6482    0.6378 C   0  0  0  0  0  0  0  0  0  0  0  0
    3.1909    1.2100    0.5412 C   0  0  0  0  0  0  0  0  0  0  0  0
    3.0241   -2.6437    1.3266 C   0  0  0  0  0  0  0  0  0  0  0  0
    2.0979   -3.3580   -0.8030 C   0  0  0  0  0  0  0  0  0  0  0  0
    1.7034   -4.7023    1.1603 C   0  0  0  0  0  0  0  0  0  0  0  0
    0.3510   -4.1505    1.7307 C   0  0  0  0  0  0  0  0  0  0  0  0
   -0.7103   -3.8066    0.7042 C   0  0  0  0  0  0  0  0  0  0  0  0
    2.7465    1.6678    1.7978 C   0  0  0  0  0  0  0  0  0  0  0  0
    4.3817    1.7097    0.0212 C   0  0  0  0  0  0  0  0  0  0  0  0
    3.4826    2.5997    2.5200 C   0  0  0  0  0  0  0  0  0  0  0  0
    5.1441    2.6031    0.7681 C   0  0  0  0  0  0  0  0  0  0  0  0
    4.6865    3.0624    2.0035 C   0  0  0  0  0  0  0  0  0  0  0  0
   -1.6630   -2.3705    0.8008 S   0  0  0  0  0  0  0  0  0  0  0  0
   -1.9606   -2.4426   -0.9068 C   0  0  0  0  0  0  0  0  0  0  0  0
   -1.1798   -4.5496   -0.3656 C   0  0  0  0  0  0  0  0  0  0  0  0
   -1.8070   -3.7320   -1.3524 C   0  0  0  0  0  0  0  0  0  0  0  0
    0.4943   -1.4217   -0.2428 H   0  0  0  0  0  0  0  0  0  0  0  0
   -0.7552   -0.2574   -0.6984 H   0  0  0  0  0  0  0  0  0  0  0  0
    1.5225   -0.5652   -2.6263 H   0  0  0  0  0  0  0  0  0  0  0  0
    0.2136   -1.7884   -2.6289 H   0  0  0  0  0  0  0  0  0  0  0  0
   -0.0958   -0.0683   -2.9120 H   0  0  0  0  0  0  0  0  0  0  0  0
    4.0699   -0.5584   -1.2426 H   0  0  0  0  0  0  0  0  0  0  0  0
    2.5369   -2.0895   -2.4804 H   0  0  0  0  0  0  0  0  0  0  0  0
    3.8827   -2.7726   -1.7355 H   0  0  0  0  0  0  0  0  0  0  0  0
    4.8881   -2.1496    0.3359 H   0  0  0  0  0  0  0  0  0  0  0  0
    4.2530   -0.8921    1.3702 H   0  0  0  0  0  0  0  0  0  0  0  0
    3.5406   -3.0252    2.2143 H   0  0  0  0  0  0  0  0  0  0  0  0
    2.1418   -2.0943    1.6668 H   0  0  0  0  0  0  0  0  0  0  0  0
    1.1001   -3.0011   -0.6660 H   0  0  0  0  0  0  0  0  0  0  0  0
    1.9659   -4.2150   -1.4772 H   0  0  0  0  0  0  0  0  0  0  0  0
    1.5026   -5.5492    0.4896 H   0  0  0  0  0  0  0  0  0  0  0  0
    2.2650   -5.1433    1.9961 H   0  0  0  0  0  0  0  0  0  0  0  0
   -0.0751   -4.9265    2.3724 H   0  0  0  0  0  0  0  0  0  0  0  0
    0.5665   -3.2984    2.3865 H   0  0  0  0  0  0  0  0  0  0  0  0
    1.8263    1.2933    2.2447 H   0  0  0  0  0  0  0  0  0  0  0  0
    4.7054    1.4391   -0.9777 H   0  0  0  0  0  0  0  0  0  0  0  0
    3.1183    2.9429    3.4844 H   0  0  0  0  0  0  0  0  0  0  0  0
    6.0990    2.9410    0.3798 H   0  0  0  0  0  0  0  0  0  0  0  0
    5.2680    3.7880    2.5626 H   0  0  0  0  0  0  0  0  0  0  0  0
   -2.2330   -1.5724   -1.5008 H   0  0  0  0  0  0  0  0  0  0  0  0
   -0.9370   -5.5899   -0.5097 H   0  0  0  0  0  0  0  0  0  0  0  0
   -2.0713   -4.0391   -2.3563 H   0  0  0  0  0  0  0  0  0  0  0  0
  1  5  1  0  0  0  0
  2  1  2  0  0  0  0
  3  1  1  0  0  0  0
  3  4  1  0  0  0  0
  3 25  1  0  0  0  0
  3 26  1  0  0  0  0
  4 27  1  0  0  0  0
  4 28  1  0  0  0  0
  4 29  1  0  0  0  0
  5  7  1  0  0  0  0
  7 30  1  0  0  0  0
  8  7  1  0  0  0  0
  8 31  1  0  0  0  0
  8 32  1  0  0  0  0
  9  7  1  0  0  0  0
  9 33  1  0  0  0  0
  9 34  1  0  0  0  0
 10  5  1  0  0  0  0
 11  6  1  0  0  0  0
 11  9  1  0  0  0  0
 11 35  1  0  0  0  0
 11 36  1  0  0  0  0
 12  6  1  0  0  0  0
 12  8  1  0  0  0  0
 12 37  1  0  0  0  0
 12 38  1  0  0  0  0
 13  6  1  0  0  0  0
 13 39  1  0  0  0  0
 13 40  1  0  0  0  0
 14 13  1  0  0  0  0
 14 41  1  0  0  0  0
 14 42  1  0  0  0  0
 15 14  1  0  0  0  0
 16 10  2  0  0  0  0
 16 43  1  0  0  0  0
 17 10  1  0  0  0  0
 17 44  1  0  0  0  0
 18 16  1  0  0  0  0
 18 45  1  0  0  0  0
 19 17  2  0  0  0  0
 19 46  1  0  0  0  0
 20 18  2  0  0  0  0
 20 19  1  0  0  0  0
 20 47  1  0  0  0  0
 21 15  1  0  0  0  0
 22 21  1  0  0  0  0
 22 48  1  0  0  0  0
 23 15  2  0  0  0  0
 23 49  1  0  0  0  0
 24 22  2  0  0  0  0
 24 23  1  0  0  0  0
 24 50  1  0  0  0  0
M  END
>  <DRUGBANK_ID>
DB09180

>  <COMMON_NAME>
Thienylfentanyl

>  <CAS_NUMBER>
1165-22-6

>  <UNII>
954535Y32Y

>  <SYNONYMS>
Thiofentanyl

$$$$
