
 OpenBabel10282417153D

 40 41  0  0  0  0  0  0  0  0999 V2000
    0.0212    0.5440   -0.0576 C   0  0  0  0  0  0  0  0  0  0  0  0
    0.7887   -0.6860    0.1420 C   0  0  0  0  0  0  0  0  0  0  0  0
   -0.7321   -0.7187    0.0007 C   0  0  0  0  0  0  0  0  0  0  0  0
   -0.1204    1.6933    0.8112 C   0  0  0  0  0  0  0  0  0  0  0  0
   -0.2431    2.6642    0.1116 O   0  0  0  0  0  0  0  0  0  0  0  0
   -0.0606    1.6947    2.1921 O   0  0  0  0  0  0  0  0  0  0  0  0
   -0.3989    5.1355    1.0231 N   0  0  0  0  0  0  0  0  0  0  0  0
   -1.6990    4.3404    1.4348 C   0  0  0  0  0  0  0  0  0  0  0  0
   -1.4878    3.7575    2.8440 C   0  0  0  0  0  0  0  0  0  0  0  0
   -0.1460    2.9908    2.9622 C   0  0  0  0  0  0  0  0  0  0  0  0
    1.0221    3.9898    2.7587 C   0  0  0  0  0  0  0  0  0  0  0  0
    1.0449    4.5730    1.3354 C   0  0  0  0  0  0  0  0  0  0  0  0
    1.8322    3.5421    0.4216 C   0  0  0  0  0  0  0  0  0  0  0  0
    2.1220    5.6842    1.1944 C   0  0  0  0  0  0  0  0  0  0  0  0
   -2.9410    5.2794    1.3643 C   0  0  0  0  0  0  0  0  0  0  0  0
   -2.3817    3.2199    0.5382 C   0  0  0  0  0  0  0  0  0  0  0  0
   -0.4519    6.2964    1.9460 O   0  0  0  0  0  0  0  0  0  0  0  0
    0.0820    0.9344   -1.0822 H   0  0  0  0  0  0  0  0  0  0  0  0
    1.4272   -0.9046   -0.7106 H   0  0  0  0  0  0  0  0  0  0  0  0
    1.2595   -0.7953    1.1066 H   0  0  0  0  0  0  0  0  0  0  0  0
   -1.3553   -0.8921    0.8646 H   0  0  0  0  0  0  0  0  0  0  0  0
   -1.2081   -0.9435   -0.9523 H   0  0  0  0  0  0  0  0  0  0  0  0
   -1.5040    4.5819    3.5774 H   0  0  0  0  0  0  0  0  0  0  0  0
   -2.3171    3.0985    3.1222 H   0  0  0  0  0  0  0  0  0  0  0  0
   -0.0732    2.6860    4.0186 H   0  0  0  0  0  0  0  0  0  0  0  0
    0.9263    4.8189    3.4802 H   0  0  0  0  0  0  0  0  0  0  0  0
    1.9765    3.5064    2.9949 H   0  0  0  0  0  0  0  0  0  0  0  0
    1.5717    3.6512   -0.6382 H   0  0  0  0  0  0  0  0  0  0  0  0
    2.9249    3.5340    0.4843 H   0  0  0  0  0  0  0  0  0  0  0  0
    1.7438    2.5339    0.8019 H   0  0  0  0  0  0  0  0  0  0  0  0
    2.0117    6.5296    1.8657 H   0  0  0  0  0  0  0  0  0  0  0  0
    3.1186    5.2626    1.4126 H   0  0  0  0  0  0  0  0  0  0  0  0
    2.1595    6.0272    0.1506 H   0  0  0  0  0  0  0  0  0  0  0  0
   -3.0659    5.6278    0.3278 H   0  0  0  0  0  0  0  0  0  0  0  0
   -3.8563    4.7185    1.6122 H   0  0  0  0  0  0  0  0  0  0  0  0
   -2.9375    6.1264    2.0427 H   0  0  0  0  0  0  0  0  0  0  0  0
   -2.1152    2.2116    0.8308 H   0  0  0  0  0  0  0  0  0  0  0  0
   -3.4507    3.0548    0.6943 H   0  0  0  0  0  0  0  0  0  0  0  0
   -2.2257    3.4165   -0.5304 H   0  0  0  0  0  0  0  0  0  0  0  0
   -1.1059    6.8858    1.5269 H   0  0  0  0  0  0  0  0  0  0  0  0
  1  2  1  0  0  0  0
  1  3  1  0  0  0  0
  1  4  1  0  0  0  0
  1 18  1  0  0  0  0
  2  3  1  0  0  0  0
  2 19  1  0  0  0  0
  2 20  1  0  0  0  0
  3 21  1  0  0  0  0
  3 22  1  0  0  0  0
  4  5  2  0  0  0  0
  4  6  1  0  0  0  0
  6 10  1  0  0  0  0
  7  8  1  0  0  0  0
  7 12  1  0  0  0  0
  7 17  1  0  0  0  0
  8  9  1  0  0  0  0
  8 15  1  0  0  0  0
  8 16  1  0  0  0  0
  9 10  1  0  0  0  0
  9 23  1  0  0  0  0
  9 24  1  0  0  0  0
 10 11  1  0  0  0  0
 10 25  1  0  0  0  0
 11 12  1  0  0  0  0
 11 26  1  0  0  0  0
 11 27  1  0  0  0  0
 12 13  1  0  0  0  0
 12 14  1  0  0  0  0
 13 28  1  0  0  0  0
 13 29  1  0  0  0  0
 13 30  1  0  0  0  0
 14 31  1  0  0  0  0
 14 32  1  0  0  0  0
 14 33  1  0  0  0  0
 15 34  1  0  0  0  0
 15 35  1  0  0  0  0
 15 36  1  0  0  0  0
 16 37  1  0  0  0  0
 16 38  1  0  0  0  0
 16 39  1  0  0  0  0
 17 40  1  0  0  0  0
M  END
>  <DRUGBANK_ID>
DB05650

>  <COMMON_NAME>
OT-551

>  <CAS_NUMBER>
627085-11-4

>  <UNII>
DZ02S3A31N

$$$$
