277
 OpenBabel10282417163D

 53 54  0  0  0  0  0  0  0  0999 V2000
   -3.2337   -1.7715   -2.3944 C   0  0  0  0  0  0  0  0  0  0  0  0
   -1.9082   -2.2474   -1.8259 C   0  0  0  0  0  0  0  0  0  0  0  0
   -1.6094   -3.6853   -2.2041 C   0  0  2  0  0  0  0  0  0  0  0  0
   -1.5110   -3.7912   -3.7237 C   0  0  0  0  0  0  0  0  0  0  0  0
   -2.7789   -3.3029   -4.4361 C   0  0  0  0  0  0  0  0  0  0  0  0
   -3.2377   -1.9016   -3.9341 C   0  0  2  0  0  0  0  0  0  0  0  0
   -2.5807   -4.7260   -1.5679 C   0  0  1  0  0  0  0  0  0  0  0  0
   -2.4344   -4.7046   -0.0158 C   0  0  1  0  0  0  0  0  0  0  0  0
   -3.7453   -4.3457    0.7615 C   0  0  0  0  0  0  0  0  0  0  0  0
   -3.7847   -3.1770    1.4906 N   0  0  0  0  0  0  0  0  0  0  0  0
   -2.3990   -0.8205   -4.4960 N   0  0  0  0  0  0  0  0  0  0  0  0
   -2.6436    0.4988   -4.0845 C   0  0  0  0  0  0  0  0  0  0  0  0
   -1.3024   -1.1249   -5.4093 C   0  0  0  0  0  0  0  0  0  0  0  0
   -1.6383    1.5127   -4.5496 C   0  0  0  0  0  0  0  0  0  0  0  0
   -3.5730    0.8569   -3.3840 O   0  0  0  0  0  0  0  0  0  0  0  0
   -4.7006   -5.1317    0.7845 O   0  0  0  0  0  0  0  0  0  0  0  0
   -2.0211   -6.0611    0.4195 N   0  0  0  0  0  0  0  0  0  0  0  0
   -4.0738   -4.6847   -1.9288 C   0  0  0  0  0  0  0  0  0  0  0  0
   -3.2750   -1.8655    1.1343 C   0  0  0  0  0  0  0  0  0  0  0  0
   -4.1554   -0.8678    1.8588 C   0  0  2  0  0  0  0  0  0  0  0  0
   -4.5916   -1.6275    3.0874 C   0  0  0  0  0  0  0  0  0  0  0  0
   -4.6798   -3.0738    2.6166 C   0  0  0  0  0  0  0  0  0  0  0  0
   -5.2485   -0.6064    1.0877 F   0  0  0  0  0  0  0  0  0  0  0  0
   -0.5992   -3.8955   -1.8150 H   0  0  0  0  0  0  0  0  0  0  0  0
   -4.2652   -1.7281   -4.2818 H   0  0  0  0  0  0  0  0  0  0  0  0
   -2.2099   -5.6854   -1.9642 H   0  0  0  0  0  0  0  0  0  0  0  0
   -1.6365   -4.0348    0.3155 H   0  0  0  0  0  0  0  0  0  0  0  0
   -3.6526    0.0826    2.0550 H   0  0  0  0  0  0  0  0  0  0  0  0
   -4.1196   -2.2475   -1.9901 H   0  0  0  0  0  0  0  0  0  0  0  0
   -3.3890   -0.7606   -2.0154 H   0  0  0  0  0  0  0  0  0  0  0  0
   -1.1195   -1.5691   -2.1732 H   0  0  0  0  0  0  0  0  0  0  0  0
   -1.8270   -2.1563   -0.7507 H   0  0  0  0  0  0  0  0  0  0  0  0
   -0.6465   -3.1847   -4.0221 H   0  0  0  0  0  0  0  0  0  0  0  0
   -1.2574   -4.8113   -4.0274 H   0  0  0  0  0  0  0  0  0  0  0  0
   -2.6618   -3.3122   -5.5230 H   0  0  0  0  0  0  0  0  0  0  0  0
   -3.5471   -4.0622   -4.3754 H   0  0  0  0  0  0  0  0  0  0  0  0
   -1.4333   -0.5410   -6.3179 H   0  0  0  0  0  0  0  0  0  0  0  0
   -0.3584   -0.9017   -4.9088 H   0  0  0  0  0  0  0  0  0  0  0  0
   -1.2401   -2.1555   -5.7441 H   0  0  0  0  0  0  0  0  0  0  0  0
   -0.6332    1.2424   -4.2158 H   0  0  0  0  0  0  0  0  0  0  0  0
   -1.6936    1.5866   -5.6353 H   0  0  0  0  0  0  0  0  0  0  0  0
   -1.8957    2.4793   -4.1120 H   0  0  0  0  0  0  0  0  0  0  0  0
   -1.1379   -6.3060   -0.0207 H   0  0  0  0  0  0  0  0  0  0  0  0
   -2.7180   -6.7188    0.0579 H   0  0  0  0  0  0  0  0  0  0  0  0
   -4.3403   -4.5696   -2.9626 H   0  0  0  0  0  0  0  0  0  0  0  0
   -4.5725   -5.6075   -1.6347 H   0  0  0  0  0  0  0  0  0  0  0  0
   -4.5886   -3.8800   -1.4096 H   0  0  0  0  0  0  0  0  0  0  0  0
   -3.4134   -1.6778    0.0825 H   0  0  0  0  0  0  0  0  0  0  0  0
   -2.2290   -1.8109    1.4485 H   0  0  0  0  0  0  0  0  0  0  0  0
   -3.8236   -1.5365    3.8616 H   0  0  0  0  0  0  0  0  0  0  0  0
   -5.5486   -1.2737    3.4742 H   0  0  0  0  0  0  0  0  0  0  0  0
   -5.6928   -3.3776    2.3378 H   0  0  0  0  0  0  0  0  0  0  0  0
   -4.3011   -3.7612    3.3796 H   0  0  0  0  0  0  0  0  0  0  0  0
  1  2  1  0  0  0  0
  1  6  1  0  0  0  0
  1 29  1  0  0  0  0
  1 30  1  0  0  0  0
  2  3  1  0  0  0  0
  2 31  1  0  0  0  0
  2 32  1  0  0  0  0
  3  4  1  0  0  0  0
  3 24  1  1  0  0  0
  3  7  1  0  0  0  0
  4  5  1  0  0  0  0
  4 33  1  0  0  0  0
  4 34  1  0  0  0  0
  5  6  1  0  0  0  0
  5 35  1  0  0  0  0
  5 36  1  0  0  0  0
  6 25  1  6  0  0  0
  6 11  1  0  0  0  0
  7 18  1  0  0  0  0
  7 26  1  6  0  0  0
  8  9  1  0  0  0  0
  8 27  1  1  0  0  0
  8 17  1  0  0  0  0
  8  7  1  0  0  0  0
  9 10  1  0  0  0  0
  9 16  2  0  0  0  0
 10 19  1  0  0  0  0
 10 22  1  0  0  0  0
 11 13  1  0  0  0  0
 11 12  1  0  0  0  0
 12 15  2  0  0  0  0
 12 14  1  0  0  0  0
 13 37  1  0  0  0  0
 13 38  1  0  0  0  0
 13 39  1  0  0  0  0
 14 40  1  0  0  0  0
 14 41  1  0  0  0  0
 14 42  1  0  0  0  0
 17 43  1  0  0  0  0
 17 44  1  0  0  0  0
 18 45  1  0  0  0  0
 18 46  1  0  0  0  0
 18 47  1  0  0  0  0
 19 20  1  0  0  0  0
 19 48  1  0  0  0  0
 19 49  1  0  0  0  0
 20 21  1  0  0  0  0
 20 23  1  0  0  0  0
 20 28  1  1  0  0  0
 21 22  1  0  0  0  0
 21 50  1  0  0  0  0
 21 51  1  0  0  0  0
 22 52  1  0  0  0  0
 22 53  1  0  0  0  0
M  END
>  <DRUGBANK_ID>
DB06939

>  <COMMON_NAME>
N-(TRANS-4-{(1S,2S)-2-AMINO-3-[(3S)-3-FLUOROPYRROLIDIN-1-YL]-1-METHYL-3-OXOPROPYL}CYCLOHEXYL)-N-METHYLACETAMIDE

$$$$
