688
 OpenBabel10282417103D

 62 64  0  0  0  0  0  0  0  0999 V2000
    1.3681    1.0928    0.8516 O   0  0  0  0  0  0  0  0  0  0  0  0
    6.4254   -3.4465   -6.4846 O   0  0  0  0  0  0  0  0  0  0  0  0
    0.4825   -1.5322   -1.4505 O   0  0  0  0  0  0  0  0  0  0  0  0
    2.4592   -7.5122   -4.7825 O   0  0  0  0  0  0  0  0  0  0  0  0
    2.6950   -2.5590   -4.7541 O   0  0  0  0  0  0  0  0  0  0  0  0
    5.3311   -1.6451   -5.5859 O   0  0  0  0  0  0  0  0  0  0  0  0
   -0.0398   -2.4234    0.7898 O   0  0  0  0  0  0  0  0  0  0  0  0
   -1.5460    0.5720   -0.2689 N   0  0  0  0  0  0  0  0  0  0  0  0
   -0.8459    1.7566    0.2173 C   0  0  0  0  0  0  0  0  0  0  0  0
   -0.8125   -0.4479    0.4143 C   0  0  0  0  0  0  0  0  0  0  0  0
   -1.5987    0.2049   -1.6893 C   0  0  0  0  0  0  0  0  0  0  0  0
    0.6652    1.9688   -0.0086 C   0  0  0  0  0  0  0  0  0  0  0  0
    0.9872   -0.1588    0.3909 C   0  0  0  0  0  0  0  0  0  0  0  0
    5.0308   -5.1134   -5.7472 C   0  0  0  0  0  0  0  0  0  0  0  0
    2.4663   -5.0197   -4.7842 C   0  0  0  0  0  0  0  0  0  0  0  0
    4.4612   -3.8940   -5.4741 C   0  0  0  0  0  0  0  0  0  0  0  0
    4.3502   -6.3181   -5.5102 C   0  0  0  0  0  0  0  0  0  0  0  0
   -0.2559   -0.2634   -2.2539 C   0  0  0  0  0  0  0  0  0  0  0  0
    3.0378   -6.2822   -5.0102 C   0  0  0  0  0  0  0  0  0  0  0  0
    3.1892   -3.8101   -4.9869 C   0  0  0  0  0  0  0  0  0  0  0  0
    1.1065   -4.9364   -4.2518 C   0  0  0  0  0  0  0  0  0  0  0  0
    6.3895   -4.8685   -6.2738 C   0  0  0  0  0  0  0  0  0  0  0  0
    1.1426   -5.1034   -2.7863 C   0  0  0  0  0  0  0  0  0  0  0  0
    5.4002   -2.8105   -5.8184 C   0  0  0  0  0  0  0  0  0  0  0  0
    0.6462   -4.4252   -0.5811 C   0  0  0  0  0  0  0  0  0  0  0  0
    0.3485   -4.3492   -2.0555 C   0  0  0  0  0  0  0  0  0  0  0  0
    5.0189   -7.6226   -5.8101 C   0  0  0  0  0  0  0  0  0  0  0  0
    1.6316   -3.3192   -0.2495 C   0  0  0  0  0  0  0  0  0  0  0  0
    0.5764   -2.3501   -0.2906 C   0  0  0  0  0  0  0  0  0  0  0  0
   -0.3590   -3.2407   -2.7998 C   0  0  0  0  0  0  0  0  0  0  0  0
    1.1214   -7.6996   -4.3268 C   0  0  0  0  0  0  0  0  0  0  0  0
    1.8054   -2.5685   -4.3852 H   0  0  0  0  0  0  0  0  0  0  0  0
   -0.9379    1.6467    1.3148 H   0  0  0  0  0  0  0  0  0  0  0  0
   -1.3964    2.6163   -0.1082 H   0  0  0  0  0  0  0  0  0  0  0  0
   -1.1447   -0.6027    1.4468 H   0  0  0  0  0  0  0  0  0  0  0  0
   -1.2932   -1.3409   -0.0852 H   0  0  0  0  0  0  0  0  0  0  0  0
   -2.2852   -0.6474   -1.8658 H   0  0  0  0  0  0  0  0  0  0  0  0
   -2.0669    1.0268   -2.2478 H   0  0  0  0  0  0  0  0  0  0  0  0
    0.9842    1.8547   -1.0504 H   0  0  0  0  0  0  0  0  0  0  0  0
    1.0104    2.9376    0.3101 H   0  0  0  0  0  0  0  0  0  0  0  0
    1.6231   -0.8988    0.8982 H   0  0  0  0  0  0  0  0  0  0  0  0
    1.4579   -0.1453   -0.6178 H   0  0  0  0  0  0  0  0  0  0  0  0
   -0.3514   -0.5257   -3.3221 H   0  0  0  0  0  0  0  0  0  0  0  0
    0.4595    0.5592   -2.2965 H   0  0  0  0  0  0  0  0  0  0  0  0
    0.3416   -5.5907   -4.6348 H   0  0  0  0  0  0  0  0  0  0  0  0
    0.7106   -4.0214   -4.6721 H   0  0  0  0  0  0  0  0  0  0  0  0
    7.1610   -5.1041   -5.5375 H   0  0  0  0  0  0  0  0  0  0  0  0
    6.5681   -5.3871   -7.2172 H   0  0  0  0  0  0  0  0  0  0  0  0
    1.8138   -5.7874   -2.2638 H   0  0  0  0  0  0  0  0  0  0  0  0
    1.0831   -5.3469   -0.1996 H   0  0  0  0  0  0  0  0  0  0  0  0
   -0.3276   -4.3656   -0.0556 H   0  0  0  0  0  0  0  0  0  0  0  0
    5.2604   -7.6707   -6.8747 H   0  0  0  0  0  0  0  0  0  0  0  0
    5.9260   -7.7177   -5.2089 H   0  0  0  0  0  0  0  0  0  0  0  0
    4.3807   -8.4800   -5.5811 H   0  0  0  0  0  0  0  0  0  0  0  0
    2.4976   -3.0045   -0.8307 H   0  0  0  0  0  0  0  0  0  0  0  0
    1.9582   -3.3539    0.8093 H   0  0  0  0  0  0  0  0  0  0  0  0
   -1.1928   -2.8010   -2.2583 H   0  0  0  0  0  0  0  0  0  0  0  0
    0.4851   -2.5723   -3.0280 H   0  0  0  0  0  0  0  0  0  0  0  0
   -0.7204   -3.3166   -3.8251 H   0  0  0  0  0  0  0  0  0  0  0  0
    0.9732   -7.3046   -3.3239 H   0  0  0  0  0  0  0  0  0  0  0  0
    0.3954   -7.3314   -5.0575 H   0  0  0  0  0  0  0  0  0  0  0  0
    0.8857   -8.7546   -4.2008 H   0  0  0  0  0  0  0  0  0  0  0  0
  1 12  1  0  0  0  0
  1 13  1  0  0  0  0
  2 22  1  0  0  0  0
  2 24  1  0  0  0  0
  3 18  1  0  0  0  0
  3 29  1  0  0  0  0
  4 19  1  0  0  0  0
  4 31  1  0  0  0  0
  5 20  1  0  0  0  0
  5 32  1  0  0  0  0
  6 24  2  0  0  0  0
  7 29  2  0  0  0  0
  8  9  1  0  0  0  0
  8 10  1  0  0  0  0
  8 11  1  0  0  0  0
  9 12  1  0  0  0  0
  9 33  1  0  0  0  0
  9 34  1  0  0  0  0
 10 13  1  0  0  0  0
 10 35  1  0  0  0  0
 10 36  1  0  0  0  0
 11 18  1  0  0  0  0
 11 37  1  0  0  0  0
 11 38  1  0  0  0  0
 12 39  1  0  0  0  0
 12 40  1  0  0  0  0
 13 41  1  0  0  0  0
 13 42  1  0  0  0  0
 14 16  1  0  0  0  0
 14 17  2  0  0  0  0
 14 22  1  0  0  0  0
 15 19  2  0  0  0  0
 15 20  1  0  0  0  0
 15 21  1  0  0  0  0
 16 20  2  0  0  0  0
 16 24  1  0  0  0  0
 17 19  1  0  0  0  0
 17 27  1  0  0  0  0
 18 43  1  0  0  0  0
 18 44  1  0  0  0  0
 21 23  1  0  0  0  0
 21 45  1  0  0  0  0
 21 46  1  0  0  0  0
 22 47  1  0  0  0  0
 22 48  1  0  0  0  0
 23 26  2  0  0  0  0
 23 49  1  0  0  0  0
 25 26  1  0  0  0  0
 25 28  1  0  0  0  0
 25 50  1  0  0  0  0
 25 51  1  0  0  0  0
 26 30  1  0  0  0  0
 27 52  1  0  0  0  0
 27 53  1  0  0  0  0
 27 54  1  0  0  0  0
 28 29  1  0  0  0  0
 28 55  1  0  0  0  0
 28 56  1  0  0  0  0
 30 57  1  0  0  0  0
 30 58  1  0  0  0  0
 30 59  1  0  0  0  0
 31 60  1  0  0  0  0
 31 61  1  0  0  0  0
 31 62  1  0  0  0  0
M  END
>  <DRUGBANK_ID>
DB00688

>  <SECONDARY_ACCESSION_NUMBERS>
APRD01602

>  <COMMON_NAME>
Mycophenolate mofetil

>  <CAS_NUMBER>
128794-94-5

>  <UNII>
9242ECW6R0

>  <SYNONYMS>
2-morpholinoethyl (E)-6-(4-hydroxy-6-methoxy-7-methyl-3-oxo-5-phthalanyl)-4-methyl-4-hexenoate; Mycophenolate mofetil; Mycophenolic acid morpholinoethyl ester

$$$$
