
 OpenBabel10282417123D

 21 20  0  0  1  0  0  0  0  0999 V2000
    0.7479    2.6842   -0.5407 C   0  0  0  0  0  0  0  0  0  0  0  0
    1.9590   -0.3039    1.1104 C   0  0  0  0  0  0  0  0  0  0  0  0
    1.8552    0.1750   -1.4252 C   0  0  0  0  0  0  0  0  0  0  0  0
    0.3579    1.4816    0.3086 C   0  0  2  0  0  0  0  0  0  0  0  0
    1.0644    0.1209   -0.0715 C   0  0  2  0  0  0  0  0  0  0  0  0
    3.1022   -0.5996   -1.4714 N   0  0  0  0  0  0  0  0  0  0  0  0
   -1.0696    1.4085    0.2839 O   0  0  0  0  0  0  0  0  0  0  0  0
    0.0596   -0.9084   -0.2122 O   0  0  0  0  0  0  0  0  0  0  0  0
    0.6150    1.7374    1.3442 H   0  0  0  0  0  0  0  0  0  0  0  0
    0.5048    2.5102   -1.5954 H   0  0  0  0  0  0  0  0  0  0  0  0
    1.8143    2.9078   -0.4382 H   0  0  0  0  0  0  0  0  0  0  0  0
    0.1795    3.5713   -0.2483 H   0  0  0  0  0  0  0  0  0  0  0  0
    1.4085   -0.2648    2.0577 H   0  0  0  0  0  0  0  0  0  0  0  0
    2.2920   -1.3443    1.0105 H   0  0  0  0  0  0  0  0  0  0  0  0
    2.8350    0.3460    1.2006 H   0  0  0  0  0  0  0  0  0  0  0  0
    1.2081   -0.1876   -2.2342 H   0  0  0  0  0  0  0  0  0  0  0  0
    2.1585    1.1846   -1.6917 H   0  0  0  0  0  0  0  0  0  0  0  0
    3.5745   -0.3811   -2.3518 H   0  0  0  0  0  0  0  0  0  0  0  0
    3.7363   -0.2331   -0.7578 H   0  0  0  0  0  0  0  0  0  0  0  0
   -1.3133    0.8979   -0.5128 H   0  0  0  0  0  0  0  0  0  0  0  0
    0.5337   -1.7294   -0.4460 H   0  0  0  0  0  0  0  0  0  0  0  0
  1 10  1  0  0  0  0
  1 11  1  0  0  0  0
  1 12  1  0  0  0  0
  2 13  1  0  0  0  0
  2 14  1  0  0  0  0
  2 15  1  0  0  0  0
  3 16  1  0  0  0  0
  3 17  1  0  0  0  0
  4  7  1  0  0  0  0
  4  9  1  1  0  0  0
  4  5  1  0  0  0  0
  4  1  1  0  0  0  0
  5  8  1  6  0  0  0
  5  3  1  0  0  0  0
  5  2  1  0  0  0  0
  6  3  1  0  0  0  0
  6 18  1  0  0  0  0
  6 19  1  0  0  0  0
  7 20  1  0  0  0  0
  8 21  1  0  0  0  0
M  END
>  <DRUGBANK_ID>
DB02847

>  <SECONDARY_ACCESSION_NUMBERS>
EXPT03122

>  <COMMON_NAME>
(2s,3r)-1-Amino-2-Methylbutane-2,3-Diol

$$$$
