
 OpenBabel10282417123D

 71 76  0  0  0  0  0  0  0  0999 V2000
    1.0219    0.1989    0.1103 N   0  0  0  0  0  0  0  0  0  0  0  0
    0.3439    0.2038    1.3342 C   0  0  0  0  0  0  0  0  0  0  0  0
    0.6906    1.0972    2.3484 C   0  0  0  0  0  0  0  0  0  0  0  0
   -0.0350    1.1509    3.5702 C   0  0  0  0  0  0  0  0  0  0  0  0
   -1.1613    0.3127    3.8169 C   0  0  0  0  0  0  0  0  0  0  0  0
   -1.7528    0.3396    5.1363 N   0  0  0  0  0  0  0  0  0  0  0  0
   -2.8983   -0.3763    5.6060 C   0  0  0  0  0  0  0  0  0  0  0  0
   -2.8846   -1.7705    5.6959 C   0  0  0  0  0  0  0  0  0  0  0  0
   -4.0904   -2.5287    5.7655 C   0  0  0  0  0  0  0  0  0  0  0  0
   -5.3857   -1.9310    5.6776 C   0  0  0  0  0  0  0  0  0  0  0  0
   -6.5044   -2.8072    5.4178 N   0  0  0  0  0  0  0  0  0  0  0  0
   -7.8974   -2.5191    5.3742 C   0  0  0  0  0  0  0  0  0  0  0  0
   -8.3747   -1.9462    4.2770 N   0  0  0  0  0  0  0  0  0  0  0  0
   -9.5838   -1.3898    4.4269 C   0  0  0  0  0  0  0  0  0  0  0  0
  -10.1262   -0.3641    3.1610 Cl  0  0  0  0  0  0  0  0  0  0  0  0
  -10.3594   -1.4065    5.4894 N   0  0  0  0  0  0  0  0  0  0  0  0
   -9.8509   -2.1066    6.4842 C   0  0  0  0  0  0  0  0  0  0  0  0
  -10.6798   -2.1830    7.6126 N   0  0  0  0  0  0  0  0  0  0  0  0
  -10.4954   -3.0600    8.6829 C   0  0  0  0  0  0  0  0  0  0  0  0
   -9.3450   -2.8801    9.4705 C   0  0  0  0  0  0  0  0  0  0  0  0
   -8.9849   -3.7944   10.4546 C   0  0  0  0  0  0  0  0  0  0  0  0
   -9.8271   -4.8633   10.7362 C   0  0  0  0  0  0  0  0  0  0  0  0
  -11.0142   -5.0260   10.0167 C   0  0  0  0  0  0  0  0  0  0  0  0
  -11.3124   -4.1657    8.9470 C   0  0  0  0  0  0  0  0  0  0  0  0
  -12.6978   -4.5888    7.9108 S   0  0  0  0  0  0  0  0  0  0  0  0
  -12.3765   -6.1021    7.4334 O   0  0  0  0  0  0  0  0  0  0  0  0
  -13.8742   -4.6184    8.7468 O   0  0  0  0  0  0  0  0  0  0  0  0
  -12.6476   -3.7852    6.7053 O   0  0  0  0  0  0  0  0  0  0  0  0
   -8.6543   -2.7361    6.4482 N   0  0  0  0  0  0  0  0  0  0  0  0
   -5.3690   -0.5120    5.6614 C   0  0  0  0  0  0  0  0  0  0  0  0
   -4.1495    0.2410    5.7051 C   0  0  0  0  0  0  0  0  0  0  0  0
   -6.8162    0.5198    5.5417 S   0  0  0  0  0  0  0  0  0  0  0  0
   -7.3685    0.3640    4.0322 O   0  0  0  0  0  0  0  0  0  0  0  0
   -7.7805   -0.0081    6.4951 O   0  0  0  0  0  0  0  0  0  0  0  0
   -6.4303    1.9013    5.6506 O   0  0  0  0  0  0  0  0  0  0  0  0
   -1.5174   -0.5789    2.7683 C   0  0  0  0  0  0  0  0  0  0  0  0
   -0.7547   -0.6483    1.5720 C   0  0  0  0  0  0  0  0  0  0  0  0
   -1.1239   -1.6350    0.5173 C   0  0  0  0  0  0  0  0  0  0  0  0
   -0.5190   -1.7033   -0.5484 O   0  0  0  0  0  0  0  0  0  0  0  0
   -2.2148   -2.5808    0.7451 C   0  0  0  0  0  0  0  0  0  0  0  0
   -2.5642   -3.4935   -0.2449 C   0  0  0  0  0  0  0  0  0  0  0  0
   -3.6560   -4.3392   -0.0558 C   0  0  0  0  0  0  0  0  0  0  0  0
   -4.3922   -4.2895    1.1270 C   0  0  0  0  0  0  0  0  0  0  0  0
   -4.0446   -3.3747    2.1131 C   0  0  0  0  0  0  0  0  0  0  0  0
   -2.9623   -2.5111    1.9006 C   0  0  0  0  0  0  0  0  0  0  0  0
   -2.7950   -1.3344    2.7345 C   0  0  0  0  0  0  0  0  0  0  0  0
   -3.8439   -0.8950    3.1864 O   0  0  0  0  0  0  0  0  0  0  0  0
    2.0657    2.2015    2.0400 S   0  0  0  0  0  0  0  0  0  0  0  0
    3.3031    1.1861    1.7657 O   0  0  0  0  0  0  0  0  0  0  0  0
    1.8114    2.9408    0.8260 O   0  0  0  0  0  0  0  0  0  0  0  0
    2.3725    2.8725    3.2862 O   0  0  0  0  0  0  0  0  0  0  0  0
    0.5622   -0.3109   -0.6532 H   0  0  0  0  0  0  0  0  0  0  0  0
    2.0329    0.0809    0.1021 H   0  0  0  0  0  0  0  0  0  0  0  0
    0.2698    1.8856    4.3172 H   0  0  0  0  0  0  0  0  0  0  0  0
   -1.6612    1.2518    5.5857 H   0  0  0  0  0  0  0  0  0  0  0  0
   -1.9302   -2.2797    5.5666 H   0  0  0  0  0  0  0  0  0  0  0  0
   -3.9667   -3.6124    5.7791 H   0  0  0  0  0  0  0  0  0  0  0  0
   -6.3765   -3.7389    5.8024 H   0  0  0  0  0  0  0  0  0  0  0  0
  -11.6339   -1.9885    7.3160 H   0  0  0  0  0  0  0  0  0  0  0  0
   -8.7209   -2.0021    9.3019 H   0  0  0  0  0  0  0  0  0  0  0  0
   -8.0582   -3.6536   11.0050 H   0  0  0  0  0  0  0  0  0  0  0  0
   -9.5577   -5.5622   11.5241 H   0  0  0  0  0  0  0  0  0  0  0  0
  -11.7023   -5.8218   10.2961 H   0  0  0  0  0  0  0  0  0  0  0  0
  -11.6879   -6.0886    6.7371 H   0  0  0  0  0  0  0  0  0  0  0  0
   -4.2105    1.3263    5.6504 H   0  0  0  0  0  0  0  0  0  0  0  0
   -6.9175   -0.3262    3.5000 H   0  0  0  0  0  0  0  0  0  0  0  0
   -2.0107   -3.5122   -1.1805 H   0  0  0  0  0  0  0  0  0  0  0  0
   -3.9400   -5.0245   -0.8481 H   0  0  0  0  0  0  0  0  0  0  0  0
   -5.2617   -4.9275    1.2620 H   0  0  0  0  0  0  0  0  0  0  0  0
   -4.6604   -3.2864    3.0047 H   0  0  0  0  0  0  0  0  0  0  0  0
    3.6019    0.7900    2.6083 H   0  0  0  0  0  0  0  0  0  0  0  0
  1  2  1  0  0  0  0
  1 52  1  0  0  0  0
  1 53  1  0  0  0  0
  2  3  2  0  0  0  0
  2 37  1  0  0  0  0
  3  4  1  0  0  0  0
  3 48  1  0  0  0  0
  4  5  2  0  0  0  0
  4 54  1  0  0  0  0
  5  6  1  0  0  0  0
  5 36  1  0  0  0  0
  6  7  1  0  0  0  0
  6 55  1  0  0  0  0
  7  8  2  0  0  0  0
  7 31  1  0  0  0  0
  8  9  1  0  0  0  0
  8 56  1  0  0  0  0
  9 10  2  0  0  0  0
  9 57  1  0  0  0  0
 10 11  1  0  0  0  0
 10 30  1  0  0  0  0
 11 12  1  0  0  0  0
 11 58  1  0  0  0  0
 12 13  2  0  0  0  0
 12 29  1  0  0  0  0
 13 14  1  0  0  0  0
 14 15  1  0  0  0  0
 14 16  2  0  0  0  0
 16 17  1  0  0  0  0
 17 18  1  0  0  0  0
 17 29  2  0  0  0  0
 18 19  1  0  0  0  0
 18 59  1  0  0  0  0
 19 20  2  0  0  0  0
 19 24  1  0  0  0  0
 20 21  1  0  0  0  0
 20 60  1  0  0  0  0
 21 22  2  0  0  0  0
 21 61  1  0  0  0  0
 22 23  1  0  0  0  0
 22 62  1  0  0  0  0
 23 24  2  0  0  0  0
 23 63  1  0  0  0  0
 24 25  1  0  0  0  0
 25 26  1  0  0  0  0
 25 27  2  0  0  0  0
 25 28  2  0  0  0  0
 26 64  1  0  0  0  0
 30 31  2  0  0  0  0
 30 32  1  0  0  0  0
 31 65  1  0  0  0  0
 32 33  1  0  0  0  0
 32 34  2  0  0  0  0
 32 35  2  0  0  0  0
 33 66  1  0  0  0  0
 36 37  2  0  0  0  0
 36 46  1  0  0  0  0
 37 38  1  0  0  0  0
 38 39  2  0  0  0  0
 38 40  1  0  0  0  0
 40 41  2  0  0  0  0
 40 45  1  0  0  0  0
 41 42  1  0  0  0  0
 41 67  1  0  0  0  0
 42 43  2  0  0  0  0
 42 68  1  0  0  0  0
 43 44  1  0  0  0  0
 43 69  1  0  0  0  0
 44 45  2  0  0  0  0
 44 70  1  0  0  0  0
 45 46  1  0  0  0  0
 46 47  2  0  0  0  0
 48 49  1  0  0  0  0
 48 50  2  0  0  0  0
 48 51  2  0  0  0  0
 49 71  1  0  0  0  0
M  END
>  <DRUGBANK_ID>
DB02633

>  <SECONDARY_ACCESSION_NUMBERS>
EXPT00841

>  <COMMON_NAME>
Cibacron Blue

>  <CAS_NUMBER>
84166-13-2

$$$$
