
 OpenBabel10282417123D

 22 22  0  0  0  0  0  0  0  0999 V2000
    1.0002    0.0723    0.0691 O   0  0  0  0  0  0  0  0  0  0  0  0
    0.5002   -0.7899    1.1902 B   0  0  0  0  0  0  0  0  0  0  0  0
    1.4749   -1.4849    2.0939 O   0  0  0  0  0  0  0  0  0  0  0  0
   -1.0729   -0.9681    1.4219 C   0  0  0  0  0  0  0  0  0  0  0  0
   -1.7020    0.3887    1.6935 C   0  0  0  0  0  0  0  0  0  0  0  0
   -1.4657    1.3040    0.5032 C   0  0  0  0  0  0  0  0  0  0  0  0
   -2.0457    2.4972    0.5593 C   0  0  0  0  0  0  0  0  0  0  0  0
   -1.8605    3.4130   -0.4481 C   0  0  0  0  0  0  0  0  0  0  0  0
   -1.1527    3.0884   -1.5720 C   0  0  0  0  0  0  0  0  0  0  0  0
   -0.5307    1.9235   -1.5585 C   0  0  0  0  0  0  0  0  0  0  0  0
   -0.7889    0.8867   -0.6309 C   0  0  0  0  0  0  0  0  0  0  0  0
    2.0002    0.0723    0.0691 H   0  0  0  0  0  0  0  0  0  0  0  0
    2.4081   -1.2659    1.8091 H   0  0  0  0  0  0  0  0  0  0  0  0
   -1.5157   -1.3981    0.5479 H   0  0  0  0  0  0  0  0  0  0  0  0
   -1.2392   -1.6125    2.2598 H   0  0  0  0  0  0  0  0  0  0  0  0
   -2.7539    0.2695    1.8485 H   0  0  0  0  0  0  0  0  0  0  0  0
   -1.2591    0.8186    2.5675 H   0  0  0  0  0  0  0  0  0  0  0  0
   -2.6630    2.7478    1.3966 H   0  0  0  0  0  0  0  0  0  0  0  0
   -2.2760    4.3943   -0.3517 H   0  0  0  0  0  0  0  0  0  0  0  0
   -1.1054    3.7430   -2.4171 H   0  0  0  0  0  0  0  0  0  0  0  0
    0.2209    1.7519   -2.3005 H   0  0  0  0  0  0  0  0  0  0  0  0
   -0.4886   -0.1277   -0.7911 H   0  0  0  0  0  0  0  0  0  0  0  0
  1  2  1  0  0  0  0
  1 12  1  0  0  0  0
  2  3  1  0  0  0  0
  2  4  1  0  0  0  0
  3 13  1  0  0  0  0
  4  5  1  0  0  0  0
  4 14  1  0  0  0  0
  4 15  1  0  0  0  0
  5  6  1  0  0  0  0
  5 16  1  0  0  0  0
  5 17  1  0  0  0  0
  6  7  2  0  0  0  0
  6 11  1  0  0  0  0
  7  8  1  0  0  0  0
  7 18  1  0  0  0  0
  8  9  2  0  0  0  0
  8 19  1  0  0  0  0
  9 10  1  0  0  0  0
  9 20  1  0  0  0  0
 10 11  2  0  0  0  0
 10 21  1  0  0  0  0
 11 22  1  0  0  0  0
M  END
>  <DRUGBANK_ID>
DB01963

>  <SECONDARY_ACCESSION_NUMBERS>
EXPT02504

>  <COMMON_NAME>
Phenylethane Boronic Acid

>  <CAS_NUMBER>
34420-17-2

$$$$
