
 OpenBabel10282417113D

113119  0  0  1  0  0  0  0  0999 V2000
    1.5679    0.8333   -0.3383 C   0  0  1  0  0  0  0  0  0  0  0  0
    3.4890   -0.6721    0.6053 C   0  0  1  0  0  0  0  0  0  0  0  0
    5.1953    0.9606    3.0592 C   0  0  0  0  0  0  0  0  0  0  0  0
    4.0601    4.2781    1.7659 C   0  0  0  0  0  0  0  0  0  0  0  0
    2.6753    5.3560    1.0356 C   0  0  1  0  0  0  0  0  0  0  0  0
    0.9580    4.8535   -0.0987 C   0  0  0  0  0  0  0  0  0  0  0  0
    1.4320    4.2591    0.9990 C   0  0  0  0  0  0  0  0  0  0  0  0
    1.6358    3.5281   -0.1875 C   0  0  2  0  0  0  0  0  0  0  0  0
    0.3506    2.8392    0.1063 C   0  0  0  0  0  0  0  0  0  0  0  0
    0.8132    4.4173    2.3381 C   0  0  0  0  0  0  0  0  0  0  0  0
    4.6913   -1.4964    0.6719 C   0  0  0  0  0  0  0  0  0  0  0  0
    2.2214   -1.8749    0.1746 O   0  0  0  0  0  0  0  0  0  0  0  0
    1.5363   -2.6146   -1.2230 C   0  0  0  0  0  0  0  0  0  0  0  0
    1.8544   -2.0848   -2.6748 C   0  0  0  0  0  0  0  0  0  0  0  0
    0.5341   -3.3630   -1.1682 O   0  0  0  0  0  0  0  0  0  0  0  0
    5.0327    4.9436    2.2475 O   0  0  0  0  0  0  0  0  0  0  0  0
    0.7424   -0.4415   -1.0513 O   0  0  0  0  0  0  0  0  0  0  0  0
    2.7148    0.4512   -3.0786 C   0  0  0  0  0  0  0  0  0  0  0  0
    3.4978    1.2110   -3.8806 C   0  0  0  0  0  0  0  0  0  0  0  0
    2.8757    1.7771   -4.9554 C   0  0  0  0  0  0  0  0  0  0  0  0
    1.5830    1.4215   -5.3702 C   0  0  0  0  0  0  0  0  0  0  0  0
    0.7561    0.6459   -4.5824 C   0  0  0  0  0  0  0  0  0  0  0  0
    1.2470    0.2504   -3.3491 C   0  0  0  0  0  0  0  0  0  0  0  0
    0.1656   -0.5692   -2.3445 C   0  0  0  0  0  0  0  0  0  0  0  0
   -0.7333   -1.3637   -2.6931 O   0  0  0  0  0  0  0  0  0  0  0  0
    2.4520    6.0619    2.7647 O   0  0  0  0  0  0  0  0  0  0  0  0
    1.8029    6.3190    5.0029 O   0  0  0  0  0  0  0  0  0  0  0  0
    2.7431    6.2854    4.1813 C   0  0  0  0  0  0  0  0  0  0  0  0
    4.1640    6.3570    4.8163 C   0  0  0  0  0  0  0  0  0  0  0  0
    3.0314    0.7500    1.0366 C   0  0  2  0  0  0  0  0  0  0  0  0
    3.0309    0.5018   -0.1298 H   0  0  0  0  0  0  0  0  0  0  0  0
    3.9358    2.3915    2.2438 C   0  0  2  0  0  0  0  0  0  0  0  0
    3.7080    3.3495    3.9206 C   0  0  0  0  0  0  0  0  0  0  0  0
    0.5997    1.9858   -1.0265 C   0  0  1  0  0  0  0  0  0  0  0  0
    1.3192    2.3002   -2.2495 O   0  0  0  0  0  0  0  0  0  0  0  0
   -1.4420    3.6081   -1.9452 C   0  0  0  0  0  0  0  0  0  0  0  0
   -0.9645    1.7458   -2.2052 C   0  0  0  0  0  0  0  0  0  0  0  0
    5.4803    2.2898    2.4707 C   0  0  1  0  0  0  0  0  0  0  0  0
    6.2864    3.0368    3.4070 O   0  0  0  0  0  0  0  0  0  0  0  0
    4.7425    0.0637    1.8264 C   0  0  1  0  0  0  0  0  0  0  0  0
    4.6291   -1.2902    2.1747 O   0  0  0  0  0  0  0  0  0  0  0  0
   -0.0025    3.4009   -1.3414 C   0  0  0  0  0  0  0  0  0  0  0  0
    2.6571    2.8276   -0.5389 O   0  0  0  0  0  0  0  0  0  0  0  0
   -0.8846   -1.1954    2.2854 C   0  0  0  0  0  0  0  0  0  0  0  0
   -1.8315   -1.6619    1.3329 C   0  0  0  0  0  0  0  0  0  0  0  0
   -2.0451   -1.1074    0.1109 C   0  0  0  0  0  0  0  0  0  0  0  0
   -1.5673    0.1132    0.1313 C   0  0  0  0  0  0  0  0  0  0  0  0
   -0.1197   -0.1485    2.0302 C   0  0  0  0  0  0  0  0  0  0  0  0
   -0.8010    0.5660    1.1471 C   0  0  0  0  0  0  0  0  0  0  0  0
    1.8447    1.8353    2.1951 C   0  0  2  0  0  0  0  0  0  0  0  0
    1.2245    0.1947    2.5554 C   0  0  1  0  0  0  0  0  0  0  0  0
    2.9922    2.5398    0.6111 C   0  0  0  0  0  0  0  0  0  0  0  0
    4.2025    2.3004    0.2841 O   0  0  0  0  0  0  0  0  0  0  0  0
    2.2955    1.8084    3.5453 O   0  0  0  0  0  0  0  0  0  0  0  0
    1.1466   -0.0588    3.9808 N   0  0  0  0  0  0  0  0  0  0  0  0
    0.3940   -1.2113    6.4812 C   0  0  0  0  0  0  0  0  0  0  0  0
    0.1278   -1.4581    7.8171 C   0  0  0  0  0  0  0  0  0  0  0  0
    1.1640   -1.4008    8.7480 C   0  0  0  0  0  0  0  0  0  0  0  0
    2.4894   -1.3051    8.3299 C   0  0  0  0  0  0  0  0  0  0  0  0
    2.7714   -1.1088    6.9856 C   0  0  0  0  0  0  0  0  0  0  0  0
    1.7151   -1.0413    6.0783 C   0  0  0  0  0  0  0  0  0  0  0  0
    1.9886   -0.9084    4.6562 C   0  0  0  0  0  0  0  0  0  0  0  0
    2.9148   -1.5363    4.1716 O   0  0  0  0  0  0  0  0  0  0  0  0
    1.1820    0.3843    0.4948 H   0  0  0  0  0  0  0  0  0  0  0  0
    6.0431    0.6881    3.6800 H   0  0  0  0  0  0  0  0  0  0  0  0
    4.4865    1.1005    3.8833 H   0  0  0  0  0  0  0  0  0  0  0  0
    3.3073    6.2995    0.9021 H   0  0  0  0  0  0  0  0  0  0  0  0
    1.8330    4.0360   -1.3396 H   0  0  0  0  0  0  0  0  0  0  0  0
   -0.5990    3.5132    0.3230 H   0  0  0  0  0  0  0  0  0  0  0  0
    0.1893    2.5339    1.0941 H   0  0  0  0  0  0  0  0  0  0  0  0
    1.4626    4.1007    3.1662 H   0  0  0  0  0  0  0  0  0  0  0  0
    0.5596    5.4619    2.4604 H   0  0  0  0  0  0  0  0  0  0  0  0
   -0.0908    3.8597    2.3760 H   0  0  0  0  0  0  0  0  0  0  0  0
    4.4782   -2.5213    0.4859 H   0  0  0  0  0  0  0  0  0  0  0  0
    4.9948   -0.8320   -0.1929 H   0  0  0  0  0  0  0  0  0  0  0  0
    2.2229   -2.4082   -3.6349 H   0  0  0  0  0  0  0  0  0  0  0  0
    1.0286   -1.7893   -3.4592 H   0  0  0  0  0  0  0  0  0  0  0  0
    2.2627   -1.2317   -2.1944 H   0  0  0  0  0  0  0  0  0  0  0  0
    3.3755    0.0800   -2.2721 H   0  0  0  0  0  0  0  0  0  0  0  0
    4.5398    1.3531   -3.6272 H   0  0  0  0  0  0  0  0  0  0  0  0
    3.4490    2.5051   -5.4935 H   0  0  0  0  0  0  0  0  0  0  0  0
    1.2293    1.7597   -6.3333 H   0  0  0  0  0  0  0  0  0  0  0  0
   -0.2668    0.4422   -4.8915 H   0  0  0  0  0  0  0  0  0  0  0  0
    4.8164    5.5491    4.5442 H   0  0  0  0  0  0  0  0  0  0  0  0
    4.7123    7.2499    4.5416 H   0  0  0  0  0  0  0  0  0  0  0  0
    4.1427    6.2716    5.9380 H   0  0  0  0  0  0  0  0  0  0  0  0
    3.1342    3.0028    4.7808 H   0  0  0  0  0  0  0  0  0  0  0  0
    4.5963    3.6955    4.5092 H   0  0  0  0  0  0  0  0  0  0  0  0
    3.2204    4.2991    3.7637 H   0  0  0  0  0  0  0  0  0  0  0  0
    2.2721    2.2736   -2.0655 H   0  0  0  0  0  0  0  0  0  0  0  0
   -1.1983    3.6270   -3.0212 H   0  0  0  0  0  0  0  0  0  0  0  0
   -2.4025    2.9730   -1.9496 H   0  0  0  0  0  0  0  0  0  0  0  0
   -1.8461    4.2511   -1.2297 H   0  0  0  0  0  0  0  0  0  0  0  0
   -0.6394    1.5513   -3.2217 H   0  0  0  0  0  0  0  0  0  0  0  0
   -1.3202    0.6368   -2.1157 H   0  0  0  0  0  0  0  0  0  0  0  0
   -2.1236    1.5257   -2.3971 H   0  0  0  0  0  0  0  0  0  0  0  0
    5.8697    2.6561    1.5246 H   0  0  0  0  0  0  0  0  0  0  0  0
    7.1094    3.3233    2.9512 H   0  0  0  0  0  0  0  0  0  0  0  0
    5.7479    0.3316    1.3674 H   0  0  0  0  0  0  0  0  0  0  0  0
   -0.8026   -1.5305    3.2881 H   0  0  0  0  0  0  0  0  0  0  0  0
   -2.4658   -2.4579    1.5997 H   0  0  0  0  0  0  0  0  0  0  0  0
   -2.5168   -1.4901   -0.7823 H   0  0  0  0  0  0  0  0  0  0  0  0
   -1.0577    0.4031   -0.7187 H   0  0  0  0  0  0  0  0  0  0  0  0
   -0.1805    1.1862    0.6713 H   0  0  0  0  0  0  0  0  0  0  0  0
    0.9881    2.3797    2.4248 H   0  0  0  0  0  0  0  0  0  0  0  0
    1.9917   -0.5257    2.2806 H   0  0  0  0  0  0  0  0  0  0  0  0
    2.8731    1.0190    3.6153 H   0  0  0  0  0  0  0  0  0  0  0  0
    0.5200    0.5739    4.4498 H   0  0  0  0  0  0  0  0  0  0  0  0
   -0.4125   -1.1571    5.7569 H   0  0  0  0  0  0  0  0  0  0  0  0
   -0.8818   -1.6994    8.1316 H   0  0  0  0  0  0  0  0  0  0  0  0
    0.9436   -1.4126    9.8102 H   0  0  0  0  0  0  0  0  0  0  0  0
    3.2931   -1.3922    9.0545 H   0  0  0  0  0  0  0  0  0  0  0  0
    3.7975   -0.9797    6.6533 H   0  0  0  0  0  0  0  0  0  0  0  0
  1 34  1  0  0  0  0
  1 17  1  0  0  0  0
  1 64  1  1  0  0  0
  2 40  1  0  0  0  0
  2 11  1  0  0  0  0
  2 12  1  6  0  0  0
  3 65  1  0  0  0  0
  3 66  1  0  0  0  0
  4 32  1  0  0  0  0
  4  5  1  0  0  0  0
  5  6  1  0  0  0  0
  5 67  1  6  0  0  0
  5 26  1  0  0  0  0
  6  7  2  0  0  0  0
  7 10  1  0  0  0  0
  8  7  1  0  0  0  0
  8 43  1  0  0  0  0
  8 68  1  6  0  0  0
  9  8  1  0  0  0  0
  9 69  1  0  0  0  0
  9 70  1  0  0  0  0
 10 71  1  0  0  0  0
 10 72  1  0  0  0  0
 10 73  1  0  0  0  0
 11 41  1  0  0  0  0
 11 74  1  0  0  0  0
 11 75  1  0  0  0  0
 13 12  1  0  0  0  0
 14 13  1  0  0  0  0
 14 76  1  0  0  0  0
 14 77  1  0  0  0  0
 14 78  1  0  0  0  0
 15 13  2  0  0  0  0
 16  4  2  0  0  0  0
 18 19  1  0  0  0  0
 18 79  1  0  0  0  0
 19 20  2  0  0  0  0
 19 80  1  0  0  0  0
 20 21  1  0  0  0  0
 20 81  1  0  0  0  0
 21 22  2  0  0  0  0
 21 82  1  0  0  0  0
 22 83  1  0  0  0  0
 23 18  2  0  0  0  0
 23 22  1  0  0  0  0
 23 24  1  0  0  0  0
 24 17  1  0  0  0  0
 24 25  2  0  0  0  0
 26 28  1  0  0  0  0
 28 27  2  0  0  0  0
 28 29  1  0  0  0  0
 29 84  1  0  0  0  0
 29 85  1  0  0  0  0
 29 86  1  0  0  0  0
 30  1  1  0  0  0  0
 30  2  1  0  0  0  0
 30 32  1  0  0  0  0
 30 31  1  6  0  0  0
 32 38  1  0  0  0  0
 32 33  1  1  0  0  0
 33 87  1  0  0  0  0
 33 88  1  0  0  0  0
 33 89  1  0  0  0  0
 34 42  1  0  0  0  0
 34  9  1  0  0  0  0
 34 35  1  6  0  0  0
 35 90  1  0  0  0  0
 36 91  1  0  0  0  0
 36 92  1  0  0  0  0
 36 93  1  0  0  0  0
 37 94  1  0  0  0  0
 37 95  1  0  0  0  0
 37 96  1  0  0  0  0
 38  3  1  0  0  0  0
 38 97  1  6  0  0  0
 38 39  1  0  0  0  0
 39 98  1  0  0  0  0
 40  3  1  0  0  0  0
 40 41  1  0  0  0  0
 40 99  1  6  0  0  0
 42  6  1  0  0  0  0
 42 36  1  0  0  0  0
 42 37  1  0  0  0  0
 44 45  2  0  0  0  0
 44 48  1  0  0  0  0
 44100  1  0  0  0  0
 45 46  1  0  0  0  0
 45101  1  0  0  0  0
 46 47  2  0  0  0  0
 46102  1  0  0  0  0
 47 49  1  0  0  0  0
 47103  1  0  0  0  0
 49 48  2  0  0  0  0
 49104  1  0  0  0  0
 50 54  1  0  0  0  0
 50105  1  1  0  0  0
 51 55  1  0  0  0  0
 51106  1  6  0  0  0
 51 50  1  0  0  0  0
 51 48  1  0  0  0  0
 52 43  1  0  0  0  0
 52 50  1  0  0  0  0
 52 53  2  0  0  0  0
 54107  1  0  0  0  0
 55108  1  0  0  0  0
 56 57  1  0  0  0  0
 56109  1  0  0  0  0
 57 58  2  0  0  0  0
 57110  1  0  0  0  0
 58 59  1  0  0  0  0
 58111  1  0  0  0  0
 59 60  2  0  0  0  0
 59112  1  0  0  0  0
 60113  1  0  0  0  0
 61 56  2  0  0  0  0
 61 60  1  0  0  0  0
 61 62  1  0  0  0  0
 62 55  1  0  0  0  0
 62 63  2  0  0  0  0
M  END
>  <DRUGBANK_ID>
DB01229

>  <SECONDARY_ACCESSION_NUMBERS>
APRD00259; DB05261; DB05927; DB05526; DB05281

>  <COMMON_NAME>
Paclitaxel

>  <CAS_NUMBER>
33069-62-4

>  <UNII>
P88XT4IS4D

>  <SYNONYMS>
5beta,20-Epoxy-1,2-alpha,4,7beta,10beta,13alpha-hexahydroxytax-11-en-9-one 4,10-diacetate 2-benzoate 13-ester with (2R,3S)-N-benzoyl-3-phenylisoserine; ABI-007 COMPONENT PACLITAXEL; BENZENEPROPANOIC ACID, .BETA.-(BENZOYLAMINO)-.ALPHA.-HYDROXY-, (2AR,4S,4AS,6R,9S,11S,12S,12AR,12BS)-6,12B-BIS(ACETYLOXY)-12-(BENZOYLOXY)-2A,3,4,4A,5,6,9,10,11,12,12A,12B-DODECAHYDRO-4,11-DIHYDROXY-4A,8,13,13-TETRAMETHYL-5-OXO-7,11-METHANO-1H-CYCLODECA(3,; liposomal encapsulated paclitaxel; NAB-PACLITAXEL COMPONENT PACLITAXEL; Nanoparticulate paclitaxel; Paclitaxel; paclitaxel protein-bound particles; Paclitaxel protein-bound particles for injection suspension; Taxol A

$$$$
