
 OpenBabel10282417193D

 57 61  0  0  0  0  0  0  0  0999 V2000
    1.6553    1.1197    0.0891 N   0  0  0  0  0  0  0  0  0  0  0  0
    2.4432   -0.0459   -0.0521 C   0  0  0  0  0  0  0  0  0  0  0  0
    1.6669   -1.1119   -0.0881 N   0  0  0  0  0  0  0  0  0  0  0  0
    0.3166    0.7180    0.0356 C   0  0  0  0  0  0  0  0  0  0  0  0
    0.3658   -0.6714   -0.0131 C   0  0  0  0  0  0  0  0  0  0  0  0
   -0.8414   -1.4035   -0.0062 C   0  0  0  0  0  0  0  0  0  0  0  0
   -2.0672   -0.7205    0.0029 C   0  0  0  0  0  0  0  0  0  0  0  0
   -2.0960    0.6708    0.0018 C   0  0  0  0  0  0  0  0  0  0  0  0
   -0.9083    1.4154    0.0206 C   0  0  0  0  0  0  0  0  0  0  0  0
    3.8141   -0.0660   -0.0797 N   0  0  0  0  0  0  0  0  0  0  0  0
    4.6101   -0.6669   -1.1361 C   0  0  0  0  0  0  0  0  0  0  0  0
    5.5039   -1.7836   -0.5644 C   0  0  0  0  0  0  0  0  0  0  0  0
    6.3539   -1.3809    0.6588 C   0  0  0  0  0  0  0  0  0  0  0  0
    5.4846   -0.7820    1.7339 C   0  0  0  0  0  0  0  0  0  0  0  0
    4.5622    0.1916    1.1200 C   0  0  0  0  0  0  0  0  0  0  0  0
    7.0690   -2.4829    1.3275 N   0  0  0  0  0  0  0  0  0  0  0  0
    8.5103   -2.4010    1.4085 C   0  0  0  0  0  0  0  0  0  0  0  0
    6.3372   -3.5114    1.8888 C   0  0  0  0  0  0  0  0  0  0  0  0
    5.5152   -4.1869    1.1473 N   0  0  0  0  0  0  0  0  0  0  0  0
    4.6932   -5.0955    1.7384 C   0  0  0  0  0  0  0  0  0  0  0  0
    4.5920   -5.2879    3.0498 C   0  0  0  0  0  0  0  0  0  0  0  0
    5.5132   -4.5268    3.9117 C   0  0  0  0  0  0  0  0  0  0  0  0
    6.4186   -3.7373    3.2392 N   0  0  0  0  0  0  0  0  0  0  0  0
    5.4567   -4.6082    5.1195 O   0  0  0  0  0  0  0  0  0  0  0  0
    2.0496    2.5520    0.0513 C   0  0  0  0  0  0  0  0  0  0  0  0
    2.8057    3.0739    1.2616 C   0  0  0  0  0  0  0  0  0  0  0  0
    4.1384    2.7582    1.3648 C   0  0  0  0  0  0  0  0  0  0  0  0
    4.7510    2.6063    2.6197 C   0  0  0  0  0  0  0  0  0  0  0  0
    4.2274    3.2819    3.6773 C   0  0  0  0  0  0  0  0  0  0  0  0
    3.1365    4.0945    3.4393 C   0  0  0  0  0  0  0  0  0  0  0  0
    2.3592    3.9122    2.2706 C   0  0  0  0  0  0  0  0  0  0  0  0
    4.8303    3.2117    4.8697 F   0  0  0  0  0  0  0  0  0  0  0  0
   -0.8233   -2.4887   -0.0151 H   0  0  0  0  0  0  0  0  0  0  0  0
   -3.0016   -1.2794    0.0025 H   0  0  0  0  0  0  0  0  0  0  0  0
   -3.0555    1.1869   -0.0058 H   0  0  0  0  0  0  0  0  0  0  0  0
   -0.9591    2.4984    0.0230 H   0  0  0  0  0  0  0  0  0  0  0  0
    5.2449    0.1263   -1.5585 H   0  0  0  0  0  0  0  0  0  0  0  0
    3.9897   -1.0429   -1.9558 H   0  0  0  0  0  0  0  0  0  0  0  0
    6.1633   -2.1698   -1.3459 H   0  0  0  0  0  0  0  0  0  0  0  0
    4.8058   -2.5667   -0.2784 H   0  0  0  0  0  0  0  0  0  0  0  0
    7.0711   -0.6108    0.3247 H   0  0  0  0  0  0  0  0  0  0  0  0
    4.9080   -1.4889    2.3275 H   0  0  0  0  0  0  0  0  0  0  0  0
    6.1383   -0.2474    2.4475 H   0  0  0  0  0  0  0  0  0  0  0  0
    3.8814    0.4763    1.9169 H   0  0  0  0  0  0  0  0  0  0  0  0
    5.3251    0.9033    0.7966 H   0  0  0  0  0  0  0  0  0  0  0  0
    8.8572   -2.3758    2.4459 H   0  0  0  0  0  0  0  0  0  0  0  0
    8.9359   -3.2693    0.9015 H   0  0  0  0  0  0  0  0  0  0  0  0
    8.9065   -1.5063    0.9128 H   0  0  0  0  0  0  0  0  0  0  0  0
    4.0773   -5.6626    1.0473 H   0  0  0  0  0  0  0  0  0  0  0  0
    3.9025   -5.9850    3.5003 H   0  0  0  0  0  0  0  0  0  0  0  0
    7.0305   -3.1900    3.8188 H   0  0  0  0  0  0  0  0  0  0  0  0
    2.6304    2.6780   -0.8703 H   0  0  0  0  0  0  0  0  0  0  0  0
    1.1403    3.1471   -0.0726 H   0  0  0  0  0  0  0  0  0  0  0  0
    4.5797    2.4240    0.4333 H   0  0  0  0  0  0  0  0  0  0  0  0
    5.5832    1.9298    2.8010 H   0  0  0  0  0  0  0  0  0  0  0  0
    2.9025    4.8543    4.1707 H   0  0  0  0  0  0  0  0  0  0  0  0
    1.4414    4.4731    2.1459 H   0  0  0  0  0  0  0  0  0  0  0  0
  1 25  1  0  0  0  0
  1  2  1  0  0  0  0
  2 10  1  0  0  0  0
  2  3  2  0  0  0  0
  3  5  1  0  0  0  0
  4  5  2  0  0  0  0
  4  1  1  0  0  0  0
  5  6  1  0  0  0  0
  6  7  2  0  0  0  0
  6 33  1  0  0  0  0
  7  8  1  0  0  0  0
  7 34  1  0  0  0  0
  8  9  2  0  0  0  0
  8 35  1  0  0  0  0
  9  4  1  0  0  0  0
  9 36  1  0  0  0  0
 10 11  1  0  0  0  0
 10 15  1  0  0  0  0
 11 12  1  0  0  0  0
 11 37  1  0  0  0  0
 11 38  1  0  0  0  0
 12 13  1  0  0  0  0
 12 39  1  0  0  0  0
 12 40  1  0  0  0  0
 13 14  1  0  0  0  0
 13 16  1  0  0  0  0
 13 41  1  0  0  0  0
 14 15  1  0  0  0  0
 14 42  1  0  0  0  0
 14 43  1  0  0  0  0
 15 44  1  0  0  0  0
 15 45  1  0  0  0  0
 16 17  1  0  0  0  0
 16 18  1  0  0  0  0
 17 46  1  0  0  0  0
 17 47  1  0  0  0  0
 17 48  1  0  0  0  0
 18 19  2  0  0  0  0
 18 23  1  0  0  0  0
 19 20  1  0  0  0  0
 20 21  2  0  0  0  0
 20 49  1  0  0  0  0
 21 22  1  0  0  0  0
 21 50  1  0  0  0  0
 22 23  1  0  0  0  0
 22 24  2  0  0  0  0
 23 51  1  0  0  0  0
 25 26  1  0  0  0  0
 25 52  1  0  0  0  0
 25 53  1  0  0  0  0
 26 27  2  0  0  0  0
 27 28  1  0  0  0  0
 27 54  1  0  0  0  0
 28 29  2  0  0  0  0
 28 55  1  0  0  0  0
 29 30  1  0  0  0  0
 29 32  1  0  0  0  0
 30 31  2  0  0  0  0
 30 56  1  0  0  0  0
 31 26  1  0  0  0  0
 31 57  1  0  0  0  0
M  END
>  <DRUGBANK_ID>
DB12523

>  <COMMON_NAME>
Mizolastine

>  <CAS_NUMBER>
108612-45-9

>  <UNII>
244O1F90NA

>  <SYNONYMS>
Mizolastina; Mizolastine; Mizolastinum

$$$$
