XAO
 OpenBabel10282417173D

 46 46  0  0  0  0  0  0  0  0999 V2000
    1.0004   -0.0232   -0.1152 C   0  0  2  0  0  0  0  0  0  0  0  0
    0.6678   -1.0292   -1.1356 N   0  0  0  0  0  0  0  0  0  0  0  0
    0.4917   -0.4976    1.2972 C   0  0  1  0  0  0  0  0  0  0  0  0
    1.2799    0.0910    2.3431 O   0  0  0  0  0  0  0  0  0  0  0  0
   -1.0636   -0.3616    1.4807 C   0  0  1  0  0  0  0  0  0  0  0  0
   -1.7324   -1.3880    0.7196 O   0  0  0  0  0  0  0  0  0  0  0  0
   -1.6174   -0.4869    2.9090 C   0  0  0  0  0  0  0  0  0  0  0  0
   -1.3114    0.6741    3.8660 C   0  0  0  0  0  0  0  0  0  0  0  0
   -2.0768    1.9421    3.4916 C   0  0  0  0  0  0  0  0  0  0  0  0
   -1.7019    0.3495    5.2979 C   0  0  0  0  0  0  0  0  0  0  0  0
    0.5351    1.3805   -0.6150 C   0  0  0  0  0  0  0  0  0  0  0  0
    0.9927    2.5962    0.2381 C   0  0  0  0  0  0  0  0  0  0  0  0
    0.1346    2.7221    1.4771 C   0  0  0  0  0  0  0  0  0  0  0  0
    0.8014    3.9347   -0.5013 C   0  0  0  0  0  0  0  0  0  0  0  0
    0.5218    3.8319    2.4260 C   0  0  0  0  0  0  0  0  0  0  0  0
    1.0625    5.1497    0.4155 C   0  0  0  0  0  0  0  0  0  0  0  0
    0.2490    5.1288    1.7091 C   0  0  0  0  0  0  0  0  0  0  0  0
    2.0961    0.0099   -0.0714 H   0  0  0  0  0  0  0  0  0  0  0  0
    0.7285   -1.5629    1.3914 H   0  0  0  0  0  0  0  0  0  0  0  0
   -1.4296    0.5796    1.0654 H   0  0  0  0  0  0  0  0  0  0  0  0
   -0.3283   -1.0669   -1.3092 H   0  0  0  0  0  0  0  0  0  0  0  0
    1.1011   -0.7962   -2.0270 H   0  0  0  0  0  0  0  0  0  0  0  0
    2.0117    0.6049    1.9601 H   0  0  0  0  0  0  0  0  0  0  0  0
   -1.8052   -1.0856   -0.1837 H   0  0  0  0  0  0  0  0  0  0  0  0
   -2.7115   -0.5801    2.8354 H   0  0  0  0  0  0  0  0  0  0  0  0
   -1.2747   -1.4407    3.3264 H   0  0  0  0  0  0  0  0  0  0  0  0
   -0.2353    0.8633    3.8842 H   0  0  0  0  0  0  0  0  0  0  0  0
   -3.1507    1.8476    3.6509 H   0  0  0  0  0  0  0  0  0  0  0  0
   -1.7170    2.7859    4.0869 H   0  0  0  0  0  0  0  0  0  0  0  0
   -1.9909    2.1874    2.4435 H   0  0  0  0  0  0  0  0  0  0  0  0
   -1.2726   -0.5991    5.6252 H   0  0  0  0  0  0  0  0  0  0  0  0
   -1.3333    1.1423    5.9592 H   0  0  0  0  0  0  0  0  0  0  0  0
   -2.7906    0.3047    5.3945 H   0  0  0  0  0  0  0  0  0  0  0  0
    0.9212    1.5204   -1.6338 H   0  0  0  0  0  0  0  0  0  0  0  0
   -0.5579    1.3936   -0.7233 H   0  0  0  0  0  0  0  0  0  0  0  0
    2.0486    2.4714    0.5067 H   0  0  0  0  0  0  0  0  0  0  0  0
   -0.8859    2.8866    1.1144 H   0  0  0  0  0  0  0  0  0  0  0  0
    0.1433    1.8264    2.0534 H   0  0  0  0  0  0  0  0  0  0  0  0
    1.4603    3.9793   -1.3730 H   0  0  0  0  0  0  0  0  0  0  0  0
   -0.2307    3.9927   -0.8744 H   0  0  0  0  0  0  0  0  0  0  0  0
   -0.0695    3.7888    3.3432 H   0  0  0  0  0  0  0  0  0  0  0  0
    1.5691    3.7316    2.7313 H   0  0  0  0  0  0  0  0  0  0  0  0
    0.8416    6.0734   -0.1238 H   0  0  0  0  0  0  0  0  0  0  0  0
    2.1247    5.1595    0.6860 H   0  0  0  0  0  0  0  0  0  0  0  0
   -0.8258    5.1995    1.4889 H   0  0  0  0  0  0  0  0  0  0  0  0
    0.4971    5.9693    2.3631 H   0  0  0  0  0  0  0  0  0  0  0  0
  1  2  1  0  0  0  0
  1  3  1  0  0  0  0
  1 11  1  0  0  0  0
  1 18  1  1  0  0  0
  2 21  1  0  0  0  0
  2 22  1  0  0  0  0
  3  4  1  0  0  0  0
  3  5  1  0  0  0  0
  3 19  1  1  0  0  0
  4 23  1  0  0  0  0
  5  6  1  0  0  0  0
  5  7  1  0  0  0  0
  5 20  1  6  0  0  0
  6 24  1  0  0  0  0
  7  8  1  0  0  0  0
  7 25  1  0  0  0  0
  7 26  1  0  0  0  0
  8  9  1  0  0  0  0
  8 10  1  0  0  0  0
  8 27  1  0  0  0  0
  9 28  1  0  0  0  0
  9 29  1  0  0  0  0
  9 30  1  0  0  0  0
 10 31  1  0  0  0  0
 10 32  1  0  0  0  0
 10 33  1  0  0  0  0
 11 12  1  0  0  0  0
 11 34  1  0  0  0  0
 11 35  1  0  0  0  0
 12 13  1  0  0  0  0
 12 14  1  0  0  0  0
 12 36  1  0  0  0  0
 13 15  1  0  0  0  0
 13 37  1  0  0  0  0
 13 38  1  0  0  0  0
 14 16  1  0  0  0  0
 14 39  1  0  0  0  0
 14 40  1  0  0  0  0
 15 17  1  0  0  0  0
 15 41  1  0  0  0  0
 15 42  1  0  0  0  0
 16 17  1  0  0  0  0
 16 43  1  0  0  0  0
 16 44  1  0  0  0  0
 17 45  1  0  0  0  0
 17 46  1  0  0  0  0
M  END
>  <DRUGBANK_ID>
DB08740

>  <COMMON_NAME>
CYCLOHEXYLMETHYL-2,3-DIHYDROXY-5-METHYL-HEXYLAMIDE

$$$$
