4BH
 OpenBabel10282417163D

 35 37  0  0  0  0  0  0  0  0999 V2000
    2.4589    0.4846    0.0036 Cl  0  0  0  0  0  0  0  0  0  0  0  0
    0.7409    0.3434   -0.0321 C   0  0  0  0  0  0  0  0  0  0  0  0
    0.1390   -0.9174   -0.0268 C   0  0  0  0  0  0  0  0  0  0  0  0
    0.8663   -2.0749    0.0014 O   0  0  0  0  0  0  0  0  0  0  0  0
   -1.2421   -1.0333   -0.0624 C   0  0  0  0  0  0  0  0  0  0  0  0
   -2.0191    0.1211   -0.1154 C   0  0  0  0  0  0  0  0  0  0  0  0
   -3.3694   -0.0684   -0.2163 O   0  0  0  0  0  0  0  0  0  0  0  0
   -0.0426    1.5017   -0.0483 C   0  0  0  0  0  0  0  0  0  0  0  0
   -1.4392    1.4012   -0.0670 C   0  0  0  0  0  0  0  0  0  0  0  0
   -2.2637    2.6062    0.0184 C   0  0  0  0  0  0  0  0  0  0  0  0
   -2.2845    3.5657   -0.9657 N   0  0  0  0  0  0  0  0  0  0  0  0
   -3.1679    4.5558   -0.7450 N   0  0  0  0  0  0  0  0  0  0  0  0
   -3.7321    4.2195    0.4194 C   0  0  0  0  0  0  0  0  0  0  0  0
   -3.2078    3.0171    0.9407 C   0  0  0  0  0  0  0  0  0  0  0  0
   -3.5357    2.3977    2.1060 N   0  0  0  0  0  0  0  0  0  0  0  0
   -2.5266    2.0894    3.1268 C   0  0  0  0  0  0  0  0  0  0  0  0
   -2.4871    0.5730    3.4115 C   0  0  0  0  0  0  0  0  0  0  0  0
   -4.8719    1.8663    2.4017 C   0  0  0  0  0  0  0  0  0  0  0  0
   -4.7858    0.3459    2.7193 C   0  0  0  0  0  0  0  0  0  0  0  0
   -3.8049    0.0057    3.7739 N   0  0  0  0  0  0  0  0  0  0  0  0
    1.8093   -1.8305   -0.0312 H   0  0  0  0  0  0  0  0  0  0  0  0
   -1.7170   -2.0096   -0.0339 H   0  0  0  0  0  0  0  0  0  0  0  0
   -3.8015    0.7860   -0.0397 H   0  0  0  0  0  0  0  0  0  0  0  0
    0.4383    2.4764   -0.0219 H   0  0  0  0  0  0  0  0  0  0  0  0
   -1.7429    3.5887   -1.8211 H   0  0  0  0  0  0  0  0  0  0  0  0
   -4.4779    4.8751    0.8466 H   0  0  0  0  0  0  0  0  0  0  0  0
   -1.5321    2.4565    2.8496 H   0  0  0  0  0  0  0  0  0  0  0  0
   -2.8071    2.6145    4.0497 H   0  0  0  0  0  0  0  0  0  0  0  0
   -2.1030    0.0370    2.5416 H   0  0  0  0  0  0  0  0  0  0  0  0
   -1.7803    0.3757    4.2239 H   0  0  0  0  0  0  0  0  0  0  0  0
   -5.2680    2.3828    3.2848 H   0  0  0  0  0  0  0  0  0  0  0  0
   -5.5739    2.0364    1.5777 H   0  0  0  0  0  0  0  0  0  0  0  0
   -4.5287   -0.2188    1.8209 H   0  0  0  0  0  0  0  0  0  0  0  0
   -5.7715   -0.0221    3.0224 H   0  0  0  0  0  0  0  0  0  0  0  0
   -4.1099    0.4388    4.6436 H   0  0  0  0  0  0  0  0  0  0  0  0
  1  2  1  0  0  0  0
  2  3  2  0  0  0  0
  2  8  1  0  0  0  0
  3  4  1  0  0  0  0
  3  5  1  0  0  0  0
  4 21  1  0  0  0  0
  5  6  2  0  0  0  0
  5 22  1  0  0  0  0
  6  7  1  0  0  0  0
  6  9  1  0  0  0  0
  7 23  1  0  0  0  0
  8  9  2  0  0  0  0
  8 24  1  0  0  0  0
  9 10  1  0  0  0  0
 10 11  1  0  0  0  0
 10 14  2  0  0  0  0
 11 12  1  0  0  0  0
 11 25  1  0  0  0  0
 12 13  2  0  0  0  0
 13 14  1  0  0  0  0
 13 26  1  0  0  0  0
 14 15  1  0  0  0  0
 15 16  1  0  0  0  0
 15 18  1  0  0  0  0
 16 17  1  0  0  0  0
 16 27  1  0  0  0  0
 16 28  1  0  0  0  0
 17 20  1  0  0  0  0
 17 29  1  0  0  0  0
 17 30  1  0  0  0  0
 18 19  1  0  0  0  0
 18 31  1  0  0  0  0
 18 32  1  0  0  0  0
 19 20  1  0  0  0  0
 19 33  1  0  0  0  0
 19 34  1  0  0  0  0
 20 35  1  0  0  0  0
M  END
>  <DRUGBANK_ID>
DB07100

>  <COMMON_NAME>
4-CHLORO-6-(4-PIPERAZIN-1-YL-1H-PYRAZOL-5-YL)BENZENE-1,3-DIOL

$$$$
