
 OpenBabel10282417243D

 72 75  0  0  1  0  0  0  0  0999 V2000
   -4.5955    2.0604    0.6088 C   0  0  0  0  0  0  0  0  0  0  0  0
   -4.8801    1.5409    1.8730 O   0  0  0  0  0  0  0  0  0  0  0  0
   -4.1149    2.1664    2.9375 C   0  0  0  0  0  0  0  0  0  0  0  0
   -2.5543    2.4976    2.8996 C   0  0  0  0  0  0  0  0  0  0  0  0
   -2.0628    3.4226    1.8399 N   0  0  0  0  0  0  0  0  0  0  0  0
   -0.7302    3.9568    2.1232 C   0  0  0  0  0  0  0  0  0  0  0  0
    0.3361    2.9678    1.7547 C   0  0  0  0  0  0  0  0  0  0  0  0
    0.6561    2.5103    0.2498 C   0  0  0  0  0  0  0  0  0  0  0  0
    0.9593    3.5208   -0.7894 C   0  0  0  0  0  0  0  0  0  0  0  0
    2.3035    4.0193   -0.5224 C   0  0  0  0  0  0  0  0  0  0  0  0
    2.9593    3.6388    0.6274 C   0  0  0  0  0  0  0  0  0  0  0  0
    4.2016    3.9857    0.9915 C   0  0  0  0  0  0  0  0  0  0  0  0
    4.7643    4.8395    0.1476 C   0  0  0  0  0  0  0  0  0  0  0  0
    6.0840    5.3359    0.5846 C   0  0  0  0  0  0  0  0  0  0  0  0
    6.6475    6.0772   -0.5901 C   0  0  0  0  0  0  0  0  0  0  0  0
    5.5515    6.9862   -1.1726 C   0  0  0  0  0  0  0  0  0  0  0  0
    4.6372    6.1291   -1.8765 N   0  0  0  0  0  0  0  0  0  0  0  0
    4.0625    5.2420   -1.0049 C   0  0  0  0  0  0  0  0  0  0  0  0
    2.8526    4.8379   -1.3768 N   0  0  0  0  0  0  0  0  0  0  0  0
   -2.0426    2.9132    0.4471 C   0  0  0  0  0  0  0  0  0  0  0  0
   -1.7687    1.3330    0.2053 C   0  0  0  0  0  0  0  0  0  0  0  0
   -1.8201    0.0135    0.9482 C   0  0  2  0  0  0  0  0  0  0  0  0
   -0.7743   -0.9643    0.3200 N   0  0  0  0  0  0  0  0  0  0  0  0
    0.2695   -1.2461    1.2625 C   0  0  0  0  0  0  0  0  0  0  0  0
   -0.3021   -1.8655    2.2912 N   0  0  0  0  0  0  0  0  0  0  0  0
   -0.3314   -1.1332    3.3962 C   0  0  0  0  0  0  0  0  0  0  0  0
    0.4074   -0.0615    3.6298 N   0  0  0  0  0  0  0  0  0  0  0  0
    1.3747    0.1379    2.7494 C   0  0  0  0  0  0  0  0  0  0  0  0
    2.2602    1.1112    3.1146 C   0  0  0  0  0  0  0  0  0  0  0  0
    3.3982    1.3339    2.3748 C   0  0  0  0  0  0  0  0  0  0  0  0
    3.5004    0.8093    1.0675 C   0  0  0  0  0  0  0  0  0  0  0  0
    2.4860   -0.0377    0.5842 C   0  0  0  0  0  0  0  0  0  0  0  0
    1.4154   -0.4396    1.4676 C   0  0  0  0  0  0  0  0  0  0  0  0
   -3.1948   -0.6004    1.1748 C   0  0  0  0  0  0  0  0  0  0  0  0
   -3.4931   -0.7340    2.5132 O   0  0  0  0  0  0  0  0  0  0  0  0
   -3.9257   -0.9326    0.3065 O   0  0  0  0  0  0  0  0  0  0  0  0
   -4.6042    1.4830   -0.3321 H   0  0  0  0  0  0  0  0  0  0  0  0
   -3.5912    1.8798    0.7659 H   0  0  0  0  0  0  0  0  0  0  0  0
   -4.7374    3.1371    0.4836 H   0  0  0  0  0  0  0  0  0  0  0  0
   -4.6249    3.0960    3.1619 H   0  0  0  0  0  0  0  0  0  0  0  0
   -4.2616    1.4758    3.7761 H   0  0  0  0  0  0  0  0  0  0  0  0
   -2.3430    2.9369    3.8909 H   0  0  0  0  0  0  0  0  0  0  0  0
   -1.9327    1.6073    2.9909 H   0  0  0  0  0  0  0  0  0  0  0  0
   -0.5125    4.8839    1.5850 H   0  0  0  0  0  0  0  0  0  0  0  0
   -0.5979    4.1926    3.1934 H   0  0  0  0  0  0  0  0  0  0  0  0
    1.1951    3.4320    2.2317 H   0  0  0  0  0  0  0  0  0  0  0  0
    0.1133    2.1089    2.3809 H   0  0  0  0  0  0  0  0  0  0  0  0
    1.3690    1.7278    0.3127 H   0  0  0  0  0  0  0  0  0  0  0  0
    0.0507    1.9001   -0.3938 H   0  0  0  0  0  0  0  0  0  0  0  0
    0.8753    3.0095   -1.7629 H   0  0  0  0  0  0  0  0  0  0  0  0
    0.2360    4.3255   -0.7485 H   0  0  0  0  0  0  0  0  0  0  0  0
    2.5118    2.9237    1.2453 H   0  0  0  0  0  0  0  0  0  0  0  0
    4.7509    3.5937    1.8297 H   0  0  0  0  0  0  0  0  0  0  0  0
    6.7209    4.4936    0.8923 H   0  0  0  0  0  0  0  0  0  0  0  0
    5.9322    5.9728    1.4673 H   0  0  0  0  0  0  0  0  0  0  0  0
    6.9398    5.3225   -1.3356 H   0  0  0  0  0  0  0  0  0  0  0  0
    7.5227    6.6292   -0.2675 H   0  0  0  0  0  0  0  0  0  0  0  0
    5.0467    7.5541   -0.3717 H   0  0  0  0  0  0  0  0  0  0  0  0
    5.9636    7.6775   -1.8953 H   0  0  0  0  0  0  0  0  0  0  0  0
    3.9128    6.4570   -2.5058 H   0  0  0  0  0  0  0  0  0  0  0  0
   -2.8775    3.2978   -0.1378 H   0  0  0  0  0  0  0  0  0  0  0  0
   -1.3509    3.5242   -0.1268 H   0  0  0  0  0  0  0  0  0  0  0  0
   -1.5791    1.1458   -0.8588 H   0  0  0  0  0  0  0  0  0  0  0  0
   -0.8884    1.4034    0.7880 H   0  0  0  0  0  0  0  0  0  0  0  0
   -1.4683    0.2227    1.9478 H   0  0  0  0  0  0  0  0  0  0  0  0
   -1.2809   -1.8576    0.4020 H   0  0  0  0  0  0  0  0  0  0  0  0
   -1.2119   -1.2630    4.0064 H   0  0  0  0  0  0  0  0  0  0  0  0
    1.9555    1.8730    3.8451 H   0  0  0  0  0  0  0  0  0  0  0  0
    3.9427    2.2021    2.7365 H   0  0  0  0  0  0  0  0  0  0  0  0
    4.1375    1.3166    0.3255 H   0  0  0  0  0  0  0  0  0  0  0  0
    2.4131   -0.1717   -0.5018 H   0  0  0  0  0  0  0  0  0  0  0  0
   -2.9839   -0.1835    3.1316 H   0  0  0  0  0  0  0  0  0  0  0  0
  1  2  1  0  0  0  0
  1 37  1  0  0  0  0
  1 38  1  0  0  0  0
  1 39  1  0  0  0  0
  2  3  1  0  0  0  0
  3  4  1  0  0  0  0
  3 40  1  0  0  0  0
  3 41  1  0  0  0  0
  4  5  1  0  0  0  0
  4 42  1  0  0  0  0
  4 43  1  0  0  0  0
  5  6  1  0  0  0  0
  5 20  1  0  0  0  0
  6  7  1  0  0  0  0
  6 44  1  0  0  0  0
  6 45  1  0  0  0  0
  7  8  1  0  0  0  0
  7 46  1  0  0  0  0
  7 47  1  0  0  0  0
  8  9  1  0  0  0  0
  8 48  1  0  0  0  0
  8 49  1  0  0  0  0
  9 10  1  0  0  0  0
  9 50  1  0  0  0  0
  9 51  1  0  0  0  0
 10 11  2  0  0  0  0
 10 19  1  0  0  0  0
 11 12  1  0  0  0  0
 11 52  1  0  0  0  0
 12 13  2  0  0  0  0
 12 53  1  0  0  0  0
 13 14  1  0  0  0  0
 13 18  1  0  0  0  0
 14 15  1  0  0  0  0
 14 54  1  0  0  0  0
 14 55  1  0  0  0  0
 15 16  1  0  0  0  0
 15 56  1  0  0  0  0
 15 57  1  0  0  0  0
 16 17  1  0  0  0  0
 16 58  1  0  0  0  0
 16 59  1  0  0  0  0
 17 18  1  0  0  0  0
 17 60  1  0  0  0  0
 18 19  2  0  0  0  0
 20 21  1  0  0  0  0
 20 61  1  0  0  0  0
 20 62  1  0  0  0  0
 21 63  1  0  0  0  0
 21 64  1  0  0  0  0
 22 34  1  0  0  0  0
 22 65  1  1  0  0  0
 22 23  1  0  0  0  0
 22 21  1  0  0  0  0
 23 24  1  0  0  0  0
 23 66  1  0  0  0  0
 24 25  2  0  0  0  0
 24 33  1  0  0  0  0
 25 26  1  0  0  0  0
 26 27  2  0  0  0  0
 26 67  1  0  0  0  0
 27 28  1  0  0  0  0
 28 29  2  0  0  0  0
 28 33  1  0  0  0  0
 29 30  1  0  0  0  0
 29 68  1  0  0  0  0
 30 31  2  0  0  0  0
 30 69  1  0  0  0  0
 31 32  1  0  0  0  0
 31 70  1  0  0  0  0
 32 33  2  0  0  0  0
 32 71  1  0  0  0  0
 34 35  1  0  0  0  0
 34 36  2  0  0  0  0
 35 72  1  0  0  0  0
M  END
>  <DRUGBANK_ID>
DB18444

>  <COMMON_NAME>
Bexotegrast

>  <CAS_NUMBER>
2376257-44-0

>  <UNII>
QCV154PFT4

>  <SYNONYMS>
(2S)-4-(2-METHOXYETHYL-(4-(5,6,7,8-TETRAHYDRO-1,8-NAPHTHYRIDIN-2-YL)BUTYL)AMINO)-2-(QUINAZOLIN-4-YLAMINO)BUTANOIC ACID; (S)-4-[(2-Methoxyethyl)[4-(5,6,7,8-tetrahydro-1,8-naphthyridin-2-yl)butyl]amino]-2-[(quinazolin-4-yl)amino]butanoic acid; Butanoic acid, 4-[(2-methoxyethyl)[4-(5,6,7,8-tetrahydro-1,8-naphthyridin-2-yl)butyl]amino]-2-(4-quinazolinylamino)-, (2S)-

$$$$
