
 OpenBabel10282417163D

 57 60  0  0  0  0  0  0  0  0999 V2000
    0.9752   -0.6639    0.0467 N   0  0  0  0  0  0  0  0  0  0  0  0
    2.1036   -1.5160    0.0232 C   0  0  0  0  0  0  0  0  0  0  0  0
    1.0094    0.7433    0.0218 C   0  0  0  0  0  0  0  0  0  0  0  0
   -0.3414   -1.0907   -0.0074 C   0  0  0  0  0  0  0  0  0  0  0  0
    2.2840   -2.3864   -1.0579 C   0  0  0  0  0  0  0  0  0  0  0  0
    3.0795   -1.3831    1.0122 C   0  0  0  0  0  0  0  0  0  0  0  0
   -0.2859    1.2030   -0.1052 C   0  0  0  0  0  0  0  0  0  0  0  0
    2.2658    1.5337    0.0038 C   0  0  0  0  0  0  0  0  0  0  0  0
   -1.1245    0.0419   -0.0254 C   0  0  0  0  0  0  0  0  0  0  0  0
   -0.7701   -2.5247    0.0201 C   0  0  0  0  0  0  0  0  0  0  0  0
    3.4737   -3.1024   -1.1625 C   0  0  0  0  0  0  0  0  0  0  0  0
    4.2830   -2.0666    0.8742 C   0  0  0  0  0  0  0  0  0  0  0  0
   -0.8677    2.5138   -0.2936 C   0  0  0  0  0  0  0  0  0  0  0  0
    4.4718   -2.9378   -0.2003 C   0  0  0  0  0  0  0  0  0  0  0  0
   -0.5120    3.8275   -0.3893 C   0  0  0  0  0  0  0  0  0  0  0  0
   -1.5245    5.0495   -0.1591 C   0  0  0  0  0  0  0  0  0  0  0  0
   -2.5842    5.5170   -0.9994 N   0  3  0  0  0  0  0  0  0  0  0  0
   -1.8897    5.1067    1.1497 C   0  0  0  0  0  0  0  0  0  0  0  0
   -3.9671    5.4325   -0.5347 C   0  0  0  0  0  0  0  0  0  0  0  0
   -2.0623    6.0938   -2.2446 C   0  0  0  0  0  0  0  0  0  0  0  0
   -2.9133    4.2348    1.2231 C   0  0  0  0  0  0  0  0  0  0  0  0
   -4.0325    4.6139    0.6199 C   0  0  0  0  0  0  0  0  0  0  0  0
   -5.3030    5.7832   -0.8700 C   0  0  0  0  0  0  0  0  0  0  0  0
   -5.0857    3.8993    1.0852 C   0  0  0  0  0  0  0  0  0  0  0  0
   -6.4956    5.2157   -0.1248 C   0  0  0  0  0  0  0  0  0  0  0  0
   -6.3830    4.1719    0.8189 C   0  0  0  0  0  0  0  0  0  0  0  0
   -7.3291    3.4432    1.5062 N   0  0  0  0  0  0  0  0  0  0  0  0
   -8.7588    3.6661    1.4722 C   0  0  0  0  0  0  0  0  0  0  0  0
   -6.9050    2.3139    2.3819 C   0  0  0  0  0  0  0  0  0  0  0  0
    1.5437   -2.4682   -1.8499 H   0  0  0  0  0  0  0  0  0  0  0  0
    2.9143   -0.7418    1.8741 H   0  0  0  0  0  0  0  0  0  0  0  0
    2.2680    2.1686   -0.8857 H   0  0  0  0  0  0  0  0  0  0  0  0
    2.3040    2.1675    0.8943 H   0  0  0  0  0  0  0  0  0  0  0  0
    3.1807    0.9414   -0.0313 H   0  0  0  0  0  0  0  0  0  0  0  0
   -2.2079    0.0202   -0.0346 H   0  0  0  0  0  0  0  0  0  0  0  0
   -0.4341   -3.0626   -0.8715 H   0  0  0  0  0  0  0  0  0  0  0  0
   -0.3836   -3.0366    0.9071 H   0  0  0  0  0  0  0  0  0  0  0  0
   -1.8632   -2.6071    0.0401 H   0  0  0  0  0  0  0  0  0  0  0  0
    3.6388   -3.7607   -2.0119 H   0  0  0  0  0  0  0  0  0  0  0  0
    5.0818   -1.9048    1.5928 H   0  0  0  0  0  0  0  0  0  0  0  0
   -1.9196    2.3065   -0.3432 H   0  0  0  0  0  0  0  0  0  0  0  0
    5.4049   -3.4877   -0.2902 H   0  0  0  0  0  0  0  0  0  0  0  0
    0.5430    4.0896   -0.2567 H   0  0  0  0  0  0  0  0  0  0  0  0
   -2.1517    6.1186    1.5164 H   0  0  0  0  0  0  0  0  0  0  0  0
   -0.9778    6.2283   -2.0868 H   0  0  0  0  0  0  0  0  0  0  0  0
   -2.1860    5.3486   -3.0267 H   0  0  0  0  0  0  0  0  0  0  0  0
   -2.4348    7.0942   -2.4674 H   0  0  0  0  0  0  0  0  0  0  0  0
   -2.8127    3.2179    0.8169 H   0  0  0  0  0  0  0  0  0  0  0  0
   -5.5998    6.4834   -1.6606 H   0  0  0  0  0  0  0  0  0  0  0  0
   -4.8219    3.0750    1.7585 H   0  0  0  0  0  0  0  0  0  0  0  0
   -7.4975    5.6065   -0.3202 H   0  0  0  0  0  0  0  0  0  0  0  0
   -9.2583    2.7575    1.1175 H   0  0  0  0  0  0  0  0  0  0  0  0
   -9.1235    3.8733    2.4862 H   0  0  0  0  0  0  0  0  0  0  0  0
   -9.0506    4.4949    0.8299 H   0  0  0  0  0  0  0  0  0  0  0  0
   -6.3755    1.5487    1.7954 H   0  0  0  0  0  0  0  0  0  0  0  0
   -6.2398    2.6563    3.1892 H   0  0  0  0  0  0  0  0  0  0  0  0
   -7.7434    1.8106    2.8721 H   0  0  0  0  0  0  0  0  0  0  0  0
  1  2  1  0  0  0  0
  1  3  1  0  0  0  0
  1  4  1  0  0  0  0
  2  5  2  0  0  0  0
  2  6  1  0  0  0  0
  3  7  2  0  0  0  0
  3  8  1  0  0  0  0
  4  9  2  0  0  0  0
  4 10  1  0  0  0  0
  5 11  1  0  0  0  0
  5 30  1  0  0  0  0
  6 12  2  0  0  0  0
  6 31  1  0  0  0  0
  7 13  1  0  0  0  0
  7  9  1  0  0  0  0
  8 32  1  0  0  0  0
  8 33  1  0  0  0  0
  8 34  1  0  0  0  0
  9 35  1  0  0  0  0
 10 36  1  0  0  0  0
 10 37  1  0  0  0  0
 10 38  1  0  0  0  0
 11 14  2  0  0  0  0
 11 39  1  0  0  0  0
 12 14  1  0  0  0  0
 12 40  1  0  0  0  0
 13 15  2  0  0  0  0
 13 41  1  0  0  0  0
 14 42  1  0  0  0  0
 15 16  1  0  0  0  0
 15 43  1  0  0  0  0
 16 17  2  0  0  0  0
 16 18  1  0  0  0  0
 17 19  1  0  0  0  0
 17 20  1  0  0  0  0
 18 21  2  0  0  0  0
 18 44  1  0  0  0  0
 19 22  2  0  0  0  0
 19 23  1  0  0  0  0
 20 45  1  0  0  0  0
 20 46  1  0  0  0  0
 20 47  1  0  0  0  0
 21 22  1  0  0  0  0
 21 48  1  0  0  0  0
 22 24  1  0  0  0  0
 23 25  2  0  0  0  0
 23 49  1  0  0  0  0
 24 26  2  0  0  0  0
 24 50  1  0  0  0  0
 25 26  1  0  0  0  0
 25 51  1  0  0  0  0
 26 27  1  0  0  0  0
 27 28  1  0  0  0  0
 27 29  1  0  0  0  0
 28 52  1  0  0  0  0
 28 53  1  0  0  0  0
 28 54  1  0  0  0  0
 29 55  1  0  0  0  0
 29 56  1  0  0  0  0
 29 57  1  0  0  0  0
M  CHG  1  17   1
M  END
>  <DRUGBANK_ID>
DB06816

>  <COMMON_NAME>
Pyrvinium

>  <CAS_NUMBER>
7187-62-4

>  <UNII>
6B9991FLU3

$$$$
