
 OpenBabel10282417203D

 35 35  0  0  0  0  0  0  0  0999 V2000
    0.4594   -0.0501   -0.2411 C   0  0  0  0  0  0  0  0  0  0  0  0
    0.1789    1.1026    0.5642 O   0  0  0  0  0  0  0  0  0  0  0  0
    0.5186    1.2067    1.9536 C   0  0  0  0  0  0  0  0  0  0  0  0
    0.3751    0.0022    2.8339 C   0  0  0  0  0  0  0  0  0  0  0  0
    1.2178   -1.1900    2.3868 C   0  0  0  0  0  0  0  0  0  0  0  0
    2.7689   -1.1122    2.2726 C   0  0  0  0  0  0  0  0  0  0  0  0
    3.4046   -1.9996    2.8262 O   0  0  0  0  0  0  0  0  0  0  0  0
    3.5355   -0.2202    1.5605 N   0  0  0  0  0  0  0  0  0  0  0  0
    3.3050    0.9178    0.6750 C   0  0  0  0  0  0  0  0  0  0  0  0
    3.4488    2.3171    1.2180 C   0  0  0  0  0  0  0  0  0  0  0  0
    3.0354    3.3881    0.3953 C   0  0  0  0  0  0  0  0  0  0  0  0
    2.9389    4.6770    0.9092 C   0  0  0  0  0  0  0  0  0  0  0  0
    3.1896    4.8981    2.2675 C   0  0  0  0  0  0  0  0  0  0  0  0
    3.4113    3.8090    3.1197 C   0  0  0  0  0  0  0  0  0  0  0  0
    3.6042    2.5404    2.5917 C   0  0  0  0  0  0  0  0  0  0  0  0
    3.3514    6.2856    2.8164 C   0  0  0  0  0  0  0  0  0  0  0  0
    2.4627    6.5857    3.7990 F   0  0  0  0  0  0  0  0  0  0  0  0
    4.5897    6.4463    3.3648 F   0  0  0  0  0  0  0  0  0  0  0  0
    3.2344    7.2612    1.8756 F   0  0  0  0  0  0  0  0  0  0  0  0
    0.2761    0.2069   -1.2867 H   0  0  0  0  0  0  0  0  0  0  0  0
   -0.1887   -0.8752    0.0329 H   0  0  0  0  0  0  0  0  0  0  0  0
    1.4888   -0.4367   -0.2546 H   0  0  0  0  0  0  0  0  0  0  0  0
    1.5391    1.4723    2.1403 H   0  0  0  0  0  0  0  0  0  0  0  0
    0.0311    2.1060    2.3492 H   0  0  0  0  0  0  0  0  0  0  0  0
    0.6970    0.2734    3.8507 H   0  0  0  0  0  0  0  0  0  0  0  0
   -0.6899   -0.2443    2.8958 H   0  0  0  0  0  0  0  0  0  0  0  0
    1.0214   -1.9526    3.1573 H   0  0  0  0  0  0  0  0  0  0  0  0
    0.8187   -1.6827    1.5019 H   0  0  0  0  0  0  0  0  0  0  0  0
    4.5135   -0.4671    1.6456 H   0  0  0  0  0  0  0  0  0  0  0  0
    3.6838    0.7648   -0.3411 H   0  0  0  0  0  0  0  0  0  0  0  0
    2.2692    0.9219    0.5216 H   0  0  0  0  0  0  0  0  0  0  0  0
    2.7217    3.2108   -0.6349 H   0  0  0  0  0  0  0  0  0  0  0  0
    2.6716    5.5029    0.2506 H   0  0  0  0  0  0  0  0  0  0  0  0
    3.4495    3.9509    4.1983 H   0  0  0  0  0  0  0  0  0  0  0  0
    3.7503    1.7035    3.2710 H   0  0  0  0  0  0  0  0  0  0  0  0
  1  2  1  0  0  0  0
  1 20  1  0  0  0  0
  1 21  1  0  0  0  0
  1 22  1  0  0  0  0
  2  3  1  0  0  0  0
  3  4  1  0  0  0  0
  3 23  1  0  0  0  0
  3 24  1  0  0  0  0
  4  5  1  0  0  0  0
  4 25  1  0  0  0  0
  4 26  1  0  0  0  0
  5  6  1  0  0  0  0
  5 27  1  0  0  0  0
  5 28  1  0  0  0  0
  6  7  2  0  0  0  0
  6  8  1  0  0  0  0
  8  9  1  0  0  0  0
  8 29  1  0  0  0  0
  9 10  1  0  0  0  0
  9 30  1  0  0  0  0
  9 31  1  0  0  0  0
 10 11  2  0  0  0  0
 10 15  1  0  0  0  0
 11 12  1  0  0  0  0
 11 32  1  0  0  0  0
 12 13  2  0  0  0  0
 12 33  1  0  0  0  0
 13 14  1  0  0  0  0
 13 16  1  0  0  0  0
 14 15  2  0  0  0  0
 14 34  1  0  0  0  0
 15 35  1  0  0  0  0
 16 17  1  0  0  0  0
 16 18  1  0  0  0  0
 16 19  1  0  0  0  0
M  END
>  <DRUGBANK_ID>
DB12928

>  <COMMON_NAME>
GET-73

>  <CAS_NUMBER>
202402-01-5

>  <UNII>
U5CLZ223FH

$$$$
