
 OpenBabel10282417183D

 45 47  0  0  0  0  0  0  0  0999 V2000
   -2.4277   -0.0035   -0.1201 C   0  0  0  0  0  0  0  0  0  0  0  0
   -1.0252   -0.0341    0.2839 N   0  0  0  0  0  0  0  0  0  0  0  0
   -0.3789   -1.2361   -0.2563 C   0  0  0  0  0  0  0  0  0  0  0  0
    1.0714   -1.2890    0.1869 C   0  0  0  0  0  0  0  0  0  0  0  0
    1.8568   -0.0498   -0.2173 C   0  0  0  0  0  0  0  0  0  0  0  0
    1.0996    1.1924    0.2615 C   0  0  0  0  0  0  0  0  0  0  0  0
   -0.3554    1.1758   -0.1872 C   0  0  0  0  0  0  0  0  0  0  0  0
    3.3237   -0.1341    0.2381 C   0  0  0  0  0  0  0  0  0  0  0  0
    4.2387   -0.0664   -0.5854 O   0  0  0  0  0  0  0  0  0  0  0  0
    3.6680   -0.2357    1.6926 C   0  0  0  0  0  0  0  0  0  0  0  0
    3.1818   -1.2189    2.5239 C   0  0  0  0  0  0  0  0  0  0  0  0
    3.4217   -1.1067    3.8889 C   0  0  0  0  0  0  0  0  0  0  0  0
    4.1588   -0.0269    4.3775 C   0  0  0  0  0  0  0  0  0  0  0  0
    4.6675    0.8876    3.4672 C   0  0  0  0  0  0  0  0  0  0  0  0
    4.4791    0.7375    2.1479 N   0  0  0  0  0  0  0  0  0  0  0  0
    5.3483    2.0255    3.9250 N   0  0  0  0  0  0  0  0  0  0  0  0
    5.8200    3.0965    3.1824 C   0  0  0  0  0  0  0  0  0  0  0  0
    6.4873    3.9729    3.7442 O   0  0  0  0  0  0  0  0  0  0  0  0
    5.5401    3.2433    1.7392 C   0  0  0  0  0  0  0  0  0  0  0  0
    6.5821    3.4288    0.8269 C   0  0  0  0  0  0  0  0  0  0  0  0
    6.3499    3.4223   -0.5511 C   0  0  0  0  0  0  0  0  0  0  0  0
    5.0670    3.2143   -1.0150 C   0  0  0  0  0  0  0  0  0  0  0  0
    4.0178    3.1135   -0.1276 C   0  0  0  0  0  0  0  0  0  0  0  0
    4.2408    3.1719    1.2431 C   0  0  0  0  0  0  0  0  0  0  0  0
    3.1864    3.0445    2.0672 F   0  0  0  0  0  0  0  0  0  0  0  0
    4.8157    3.1337   -2.3274 F   0  0  0  0  0  0  0  0  0  0  0  0
    7.8425    3.6032    1.2463 F   0  0  0  0  0  0  0  0  0  0  0  0
   -2.9282    0.8792    0.2918 H   0  0  0  0  0  0  0  0  0  0  0  0
   -2.5296    0.0154   -1.2107 H   0  0  0  0  0  0  0  0  0  0  0  0
   -2.9513   -0.8824    0.2677 H   0  0  0  0  0  0  0  0  0  0  0  0
   -0.8741   -2.1251    0.1509 H   0  0  0  0  0  0  0  0  0  0  0  0
   -0.4421   -1.2769   -1.3490 H   0  0  0  0  0  0  0  0  0  0  0  0
    1.0287   -1.3539    1.2745 H   0  0  0  0  0  0  0  0  0  0  0  0
    1.5665   -2.1908   -0.1882 H   0  0  0  0  0  0  0  0  0  0  0  0
    1.8878   -0.0115   -1.3182 H   0  0  0  0  0  0  0  0  0  0  0  0
    1.1746    1.3002    1.3492 H   0  0  0  0  0  0  0  0  0  0  0  0
    1.4988    2.0992   -0.1716 H   0  0  0  0  0  0  0  0  0  0  0  0
   -0.4000    1.2485   -1.2830 H   0  0  0  0  0  0  0  0  0  0  0  0
   -0.8453    2.0726    0.2133 H   0  0  0  0  0  0  0  0  0  0  0  0
    2.6395   -2.0710    2.1425 H   0  0  0  0  0  0  0  0  0  0  0  0
    3.0167   -1.8570    4.5622 H   0  0  0  0  0  0  0  0  0  0  0  0
    4.3123    0.0762    5.4464 H   0  0  0  0  0  0  0  0  0  0  0  0
    5.5440    2.1001    4.9147 H   0  0  0  0  0  0  0  0  0  0  0  0
    7.1575    3.5576   -1.2585 H   0  0  0  0  0  0  0  0  0  0  0  0
    3.0440    2.9436   -0.5391 H   0  0  0  0  0  0  0  0  0  0  0  0
  1  2  1  0  0  0  0
  1 28  1  0  0  0  0
  1 29  1  0  0  0  0
  1 30  1  0  0  0  0
  2  3  1  0  0  0  0
  2  7  1  0  0  0  0
  3  4  1  0  0  0  0
  3 31  1  0  0  0  0
  3 32  1  0  0  0  0
  4  5  1  0  0  0  0
  4 33  1  0  0  0  0
  4 34  1  0  0  0  0
  5  6  1  0  0  0  0
  5  8  1  0  0  0  0
  5 35  1  0  0  0  0
  6  7  1  0  0  0  0
  6 36  1  0  0  0  0
  6 37  1  0  0  0  0
  7 38  1  0  0  0  0
  7 39  1  0  0  0  0
  8  9  2  0  0  0  0
  8 10  1  0  0  0  0
 10 11  2  0  0  0  0
 10 15  1  0  0  0  0
 11 12  1  0  0  0  0
 11 40  1  0  0  0  0
 12 13  2  0  0  0  0
 12 41  1  0  0  0  0
 13 14  1  0  0  0  0
 13 42  1  0  0  0  0
 14 15  2  0  0  0  0
 14 16  1  0  0  0  0
 16 17  1  0  0  0  0
 16 43  1  0  0  0  0
 17 18  2  0  0  0  0
 17 19  1  0  0  0  0
 19 20  2  0  0  0  0
 19 24  1  0  0  0  0
 20 21  1  0  0  0  0
 20 27  1  0  0  0  0
 21 22  2  0  0  0  0
 21 44  1  0  0  0  0
 22 23  1  0  0  0  0
 22 26  1  0  0  0  0
 23 24  2  0  0  0  0
 23 45  1  0  0  0  0
 24 25  1  0  0  0  0
M  END
>  <DRUGBANK_ID>
DB11732

>  <COMMON_NAME>
Lasmiditan

>  <CAS_NUMBER>
439239-90-4

>  <UNII>
760I9WM792

>  <SYNONYMS>
Lasmiditan

$$$$
