
 OpenBabel10282417203D

 75 76  0  0  0  0  0  0  0  0999 V2000
    1.3889   -0.2196   -0.0019 C   0  0  0  0  0  0  0  0  0  0  0  0
    0.8842    1.0791   -0.0150 C   0  0  0  0  0  0  0  0  0  0  0  0
   -0.4896    1.2886    0.0197 C   0  0  0  0  0  0  0  0  0  0  0  0
   -1.3613    0.1959   -0.0118 C   0  0  0  0  0  0  0  0  0  0  0  0
   -0.8604   -1.1251   -0.0122 C   0  0  0  0  0  0  0  0  0  0  0  0
    0.5224   -1.3124    0.0001 C   0  0  0  0  0  0  0  0  0  0  0  0
   -3.0480   -2.1543    0.0349 N   0  0  0  0  0  0  0  0  0  0  0  0
   -4.1202   -3.1573    0.1871 C   0  0  3  0  0  0  0  0  0  0  0  0
   -4.9170   -3.0375    1.5303 C   0  0  0  0  0  0  0  0  0  0  0  0
   -5.0969   -3.3247   -1.0236 C   0  0  0  0  0  0  0  0  0  0  0  0
   -5.3924   -4.4650   -1.4000 O   0  0  0  0  0  0  0  0  0  0  0  0
   -5.6804   -2.1894   -1.6070 N   0  0  0  0  0  0  0  0  0  0  0  0
   -5.6675   -1.7686    1.9756 C   0  0  0  0  0  0  0  0  0  0  0  0
   -7.0200   -1.8552    2.3405 C   0  0  0  0  0  0  0  0  0  0  0  0
   -7.7852   -0.7051    2.7075 C   0  0  0  0  0  0  0  0  0  0  0  0
   -7.2817    0.5874    2.4261 C   0  0  0  0  0  0  0  0  0  0  0  0
   -5.9168    0.6889    2.1000 C   0  0  0  0  0  0  0  0  0  0  0  0
   -5.1103   -0.4731    1.9674 C   0  0  0  0  0  0  0  0  0  0  0  0
   -8.0783    1.6332    1.9042 O   0  0  0  0  0  0  0  0  0  0  0  0
   -9.5416    1.5394    1.7449 C   0  0  0  0  0  0  0  0  0  0  0  0
  -10.2990    0.8229    0.4973 C   0  0  0  0  0  0  0  0  0  0  0  0
   -9.9269   -0.5791    0.2552 N   0  0  0  0  0  0  0  0  0  0  0  0
  -10.4872   -1.3833   -0.8314 C   0  0  0  0  0  0  0  0  0  0  0  0
  -10.1979   -0.8796   -2.2457 C   0  0  0  0  0  0  0  0  0  0  0  0
   -8.5458   -0.5818   -0.0514 C   0  0  0  0  0  0  0  0  0  0  0  0
   -8.0253    0.4971   -0.9224 C   0  0  0  0  0  0  0  0  0  0  0  0
   -1.7152   -2.3605    0.0497 C   0  0  0  0  0  0  0  0  0  0  0  0
   -1.2109   -3.4958    0.1357 O   0  0  0  0  0  0  0  0  0  0  0  0
   -5.5877   -0.9104   -0.9930 C   0  0  0  0  0  0  0  0  0  0  0  0
   -5.2257    0.4151   -1.6714 C   0  0  0  0  0  0  0  0  0  0  0  0
   -6.0469    0.9577   -2.8432 C   0  0  0  0  0  0  0  0  0  0  0  0
   -6.6322   -2.3387   -2.6997 C   0  0  0  0  0  0  0  0  0  0  0  0
   -5.8734   -2.2982   -4.0035 C   0  0  0  0  0  0  0  0  0  0  0  0
   -4.9991   -3.5136   -4.0984 C   0  0  0  0  0  0  0  0  0  0  0  0
    2.4615   -0.3885    0.0236 H   0  0  0  0  0  0  0  0  0  0  0  0
    1.5633    1.9268   -0.0483 H   0  0  0  0  0  0  0  0  0  0  0  0
   -0.8839    2.3011    0.0844 H   0  0  0  0  0  0  0  0  0  0  0  0
   -2.4177    0.4360   -0.0240 H   0  0  0  0  0  0  0  0  0  0  0  0
    0.9289   -2.3216    0.0184 H   0  0  0  0  0  0  0  0  0  0  0  0
   -3.2794   -1.2210   -0.2305 H   0  0  0  0  0  0  0  0  0  0  0  0
   -3.5965   -4.1239    0.2197 H   0  0  0  0  0  0  0  0  0  0  0  0
   -5.6392   -3.8701    1.5127 H   0  0  0  0  0  0  0  0  0  0  0  0
   -4.2214   -3.2602    2.3445 H   0  0  0  0  0  0  0  0  0  0  0  0
   -7.5686   -2.7744    2.0988 H   0  0  0  0  0  0  0  0  0  0  0  0
   -8.8670   -0.8583    2.7241 H   0  0  0  0  0  0  0  0  0  0  0  0
   -5.5161    1.6312    1.7190 H   0  0  0  0  0  0  0  0  0  0  0  0
   -4.0928   -0.3288    1.6133 H   0  0  0  0  0  0  0  0  0  0  0  0
   -9.9545    1.1637    2.6770 H   0  0  0  0  0  0  0  0  0  0  0  0
   -9.8510    2.5916    1.6484 H   0  0  0  0  0  0  0  0  0  0  0  0
  -11.3760    0.8746    0.6663 H   0  0  0  0  0  0  0  0  0  0  0  0
  -10.1776    1.4416   -0.3985 H   0  0  0  0  0  0  0  0  0  0  0  0
  -10.0094   -2.3819   -0.7526 H   0  0  0  0  0  0  0  0  0  0  0  0
  -11.5435   -1.5597   -0.6654 H   0  0  0  0  0  0  0  0  0  0  0  0
   -9.1670   -1.0550   -2.5366 H   0  0  0  0  0  0  0  0  0  0  0  0
  -10.7337   -1.4429   -3.0018 H   0  0  0  0  0  0  0  0  0  0  0  0
  -10.3818    0.1933   -2.3361 H   0  0  0  0  0  0  0  0  0  0  0  0
   -8.0657   -0.2464    0.7836 H   0  0  0  0  0  0  0  0  0  0  0  0
   -8.1387   -1.5965   -0.1467 H   0  0  0  0  0  0  0  0  0  0  0  0
   -8.5574    1.4090   -1.1494 H   0  0  0  0  0  0  0  0  0  0  0  0
   -7.1336    0.9098   -0.4594 H   0  0  0  0  0  0  0  0  0  0  0  0
   -7.8267   -0.0261   -1.8257 H   0  0  0  0  0  0  0  0  0  0  0  0
   -6.3948   -0.8918   -0.3033 H   0  0  0  0  0  0  0  0  0  0  0  0
   -4.8387   -0.9776   -0.2664 H   0  0  0  0  0  0  0  0  0  0  0  0
   -5.2241    1.1757   -0.8702 H   0  0  0  0  0  0  0  0  0  0  0  0
   -4.1809    0.3461   -1.9692 H   0  0  0  0  0  0  0  0  0  0  0  0
   -7.0535    1.3294   -2.6597 H   0  0  0  0  0  0  0  0  0  0  0  0
   -5.5943    1.8561   -3.2453 H   0  0  0  0  0  0  0  0  0  0  0  0
   -6.1839    0.2073   -3.6068 H   0  0  0  0  0  0  0  0  0  0  0  0
   -7.2835   -3.2133   -2.5677 H   0  0  0  0  0  0  0  0  0  0  0  0
   -7.3041   -1.4991   -2.7358 H   0  0  0  0  0  0  0  0  0  0  0  0
   -6.5730   -2.2090   -4.8386 H   0  0  0  0  0  0  0  0  0  0  0  0
   -5.2131   -1.4259   -4.0258 H   0  0  0  0  0  0  0  0  0  0  0  0
   -5.6064   -4.4063   -3.9288 H   0  0  0  0  0  0  0  0  0  0  0  0
   -4.4976   -3.5621   -5.0579 H   0  0  0  0  0  0  0  0  0  0  0  0
   -4.2122   -3.4543   -3.3393 H   0  0  0  0  0  0  0  0  0  0  0  0
  1  2  2  0  0  0  0
  1 35  1  0  0  0  0
  2  3  1  0  0  0  0
  2 36  1  0  0  0  0
  3  4  2  0  0  0  0
  3 37  1  0  0  0  0
  4  5  1  0  0  0  0
  4 38  1  0  0  0  0
  5  6  2  0  0  0  0
  6  1  1  0  0  0  0
  6 39  1  0  0  0  0
  7 27  1  0  0  0  0
  7  8  1  0  0  0  0
  7 40  1  0  0  0  0
  8  9  1  0  0  0  0
  8 10  1  0  0  0  0
  8 41  1  0  0  0  0
  9 13  1  0  0  0  0
  9 42  1  0  0  0  0
  9 43  1  0  0  0  0
 10 11  2  0  0  0  0
 10 12  1  0  0  0  0
 12 29  1  0  0  0  0
 12 32  1  0  0  0  0
 13 14  2  0  0  0  0
 14 15  1  0  0  0  0
 14 44  1  0  0  0  0
 15 16  2  0  0  0  0
 15 45  1  0  0  0  0
 16 17  1  0  0  0  0
 16 19  1  0  0  0  0
 17 18  2  0  0  0  0
 17 46  1  0  0  0  0
 18 13  1  0  0  0  0
 18 47  1  0  0  0  0
 19 20  1  0  0  0  0
 20 21  1  0  0  0  0
 20 48  1  0  0  0  0
 20 49  1  0  0  0  0
 21 22  1  0  0  0  0
 21 50  1  0  0  0  0
 21 51  1  0  0  0  0
 22 23  1  0  0  0  0
 22 25  1  0  0  0  0
 23 24  1  0  0  0  0
 23 52  1  0  0  0  0
 23 53  1  0  0  0  0
 24 54  1  0  0  0  0
 24 55  1  0  0  0  0
 24 56  1  0  0  0  0
 25 26  1  0  0  0  0
 25 57  1  0  0  0  0
 25 58  1  0  0  0  0
 26 59  1  0  0  0  0
 26 60  1  0  0  0  0
 26 61  1  0  0  0  0
 27  5  1  0  0  0  0
 27 28  2  0  0  0  0
 29 30  1  0  0  0  0
 29 62  1  0  0  0  0
 29 63  1  0  0  0  0
 30 31  1  0  0  0  0
 30 64  1  0  0  0  0
 30 65  1  0  0  0  0
 31 66  1  0  0  0  0
 31 67  1  0  0  0  0
 31 68  1  0  0  0  0
 32 33  1  0  0  0  0
 32 69  1  0  0  0  0
 32 70  1  0  0  0  0
 33 34  1  0  0  0  0
 33 71  1  0  0  0  0
 33 72  1  0  0  0  0
 34 73  1  0  0  0  0
 34 74  1  0  0  0  0
 34 75  1  0  0  0  0
M  END
>  <DRUGBANK_ID>
DB13091

>  <COMMON_NAME>
Tiropramide

>  <CAS_NUMBER>
55837-29-1

>  <UNII>
R7S0904CN2

>  <SYNONYMS>
Tiropramida; Tiropramide; Tiropramidum

$$$$
