1539
 OpenBabel10282417113D

 34 35  0  0  0  0  0  0  0  0999 V2000
    1.3472   -0.0336    0.2095 N   0  0  0  0  0  0  0  0  0  0  0  0
    2.9377   -0.0147   -2.8829 N   0  0  0  0  0  0  0  0  0  0  0  0
    2.7828   -0.0336   -0.2274 C   0  0  0  0  0  0  0  0  0  0  0  0
    3.4608    1.2007    0.4292 C   0  0  0  0  0  0  0  0  0  0  0  0
    3.5405   -1.3104    0.2499 C   0  0  0  0  0  0  0  0  0  0  0  0
    4.9612    1.2694    0.2065 C   0  0  0  0  0  0  0  0  0  0  0  0
    5.0344   -1.2217   -0.0747 C   0  0  0  0  0  0  0  0  0  0  0  0
    0.6471    1.1832   -0.2667 C   0  0  0  0  0  0  0  0  0  0  0  0
    0.6304   -1.2319   -0.2628 C   0  0  0  0  0  0  0  0  0  0  0  0
    5.6660   -0.0159    0.6023 C   0  0  0  0  0  0  0  0  0  0  0  0
   -0.7828    1.2491    0.2359 C   0  0  0  0  0  0  0  0  0  0  0  0
   -0.8090   -1.2478    0.2333 C   0  0  0  0  0  0  0  0  0  0  0  0
   -1.5524    0.0116   -0.1857 C   0  0  0  0  0  0  0  0  0  0  0  0
    2.8960    0.0133   -1.7247 C   0  0  0  0  0  0  0  0  0  0  0  0
    3.0649    2.1407    0.0318 H   0  0  0  0  0  0  0  0  0  0  0  0
    3.2533    1.2033    1.5107 H   0  0  0  0  0  0  0  0  0  0  0  0
    3.4077   -1.4599    1.3308 H   0  0  0  0  0  0  0  0  0  0  0  0
    3.1593   -2.2120   -0.2453 H   0  0  0  0  0  0  0  0  0  0  0  0
    5.1426    1.4775   -0.8538 H   0  0  0  0  0  0  0  0  0  0  0  0
    5.3688    2.1142    0.7720 H   0  0  0  0  0  0  0  0  0  0  0  0
    5.1719   -1.1395   -1.1601 H   0  0  0  0  0  0  0  0  0  0  0  0
    5.5427   -2.1412    0.2302 H   0  0  0  0  0  0  0  0  0  0  0  0
    0.6478    1.2306   -1.3628 H   0  0  0  0  0  0  0  0  0  0  0  0
    1.1224    2.0976    0.0958 H   0  0  0  0  0  0  0  0  0  0  0  0
    1.1025   -2.1451    0.1112 H   0  0  0  0  0  0  0  0  0  0  0  0
    0.6343   -1.2824   -1.3585 H   0  0  0  0  0  0  0  0  0  0  0  0
    6.7196    0.0559    0.3171 H   0  0  0  0  0  0  0  0  0  0  0  0
    5.6244   -0.1436    1.6904 H   0  0  0  0  0  0  0  0  0  0  0  0
   -1.2598    2.1480   -0.1702 H   0  0  0  0  0  0  0  0  0  0  0  0
   -0.7796    1.3457    1.3282 H   0  0  0  0  0  0  0  0  0  0  0  0
   -0.8140   -1.3386    1.3262 H   0  0  0  0  0  0  0  0  0  0  0  0
   -1.3152   -2.1298   -0.1723 H   0  0  0  0  0  0  0  0  0  0  0  0
   -2.5503    0.0263    0.2592 H   0  0  0  0  0  0  0  0  0  0  0  0
   -1.6724    0.0169   -1.2762 H   0  0  0  0  0  0  0  0  0  0  0  0
  1  3  1  0  0  0  0
  1  8  1  0  0  0  0
  1  9  1  0  0  0  0
  2 14  3  0  0  0  0
  3  4  1  0  0  0  0
  3  5  1  0  0  0  0
  3 14  1  0  0  0  0
  4  6  1  0  0  0  0
  4 15  1  0  0  0  0
  4 16  1  0  0  0  0
  5  7  1  0  0  0  0
  5 17  1  0  0  0  0
  5 18  1  0  0  0  0
  6 10  1  0  0  0  0
  6 19  1  0  0  0  0
  6 20  1  0  0  0  0
  7 10  1  0  0  0  0
  7 21  1  0  0  0  0
  7 22  1  0  0  0  0
  8 11  1  0  0  0  0
  8 23  1  0  0  0  0
  8 24  1  0  0  0  0
  9 12  1  0  0  0  0
  9 25  1  0  0  0  0
  9 26  1  0  0  0  0
 10 27  1  0  0  0  0
 10 28  1  0  0  0  0
 11 13  1  0  0  0  0
 11 29  1  0  0  0  0
 11 30  1  0  0  0  0
 12 13  1  0  0  0  0
 12 31  1  0  0  0  0
 12 32  1  0  0  0  0
 13 33  1  0  0  0  0
 13 34  1  0  0  0  0
M  END
>  <DRUGBANK_ID>
DB01539

>  <COMMON_NAME>
1-Piperidinocyclohexanecarbonitrile

>  <CAS_NUMBER>
3867-15-0

>  <UNII>
03ZI7ZZW5Q

$$$$
