152
 OpenBabel10282417103D

 35 36  0  0  0  0  0  0  0  0999 V2000
   -1.5127   -0.1781    0.2718 S   0  0  0  0  0  0  0  0  0  0  0  0
   -3.1864    1.6711   -1.3367 O   0  0  0  0  0  0  0  0  0  0  0  0
    0.9689   -0.4871    0.0262 N   0  3  0  0  0  0  0  0  0  0  0  0
    1.7618   -3.8565    2.6407 N   0  0  0  0  0  0  0  0  0  0  0  0
    3.5134   -2.4324    3.3576 N   0  0  0  0  0  0  0  0  0  0  0  0
    0.7389   -3.6655    0.6180 N   0  0  0  0  0  0  0  0  0  0  0  0
    0.7897    0.9049    0.0487 C   0  0  0  0  0  0  0  0  0  0  0  0
    2.2795   -1.1888    0.0188 C   0  0  0  0  0  0  0  0  0  0  0  0
   -0.5581    1.2278    0.0738 C   0  0  0  0  0  0  0  0  0  0  0  0
   -1.2873    2.5298   -0.0033 C   0  0  0  0  0  0  0  0  0  0  0  0
    2.4527   -2.0544    1.2337 C   0  0  0  0  0  0  0  0  0  0  0  0
   -0.1705   -1.1387   -0.0568 C   0  0  0  0  0  0  0  0  0  0  0  0
    1.9467    1.8326    0.0112 C   0  0  0  0  0  0  0  0  0  0  0  0
   -2.1292    2.6247   -1.2862 C   0  0  0  0  0  0  0  0  0  0  0  0
    1.7000   -3.1855    1.4930 C   0  0  0  0  0  0  0  0  0  0  0  0
    3.3901   -1.7520    2.2056 C   0  0  0  0  0  0  0  0  0  0  0  0
    2.6697   -3.4581    3.5451 C   0  0  0  0  0  0  0  0  0  0  0  0
    2.7295   -4.2248    4.8265 C   0  0  0  0  0  0  0  0  0  0  0  0
   -2.8055    0.7757   -1.3218 H   0  0  0  0  0  0  0  0  0  0  0  0
    0.2861   -4.4856    1.0249 H   0  0  0  0  0  0  0  0  0  0  0  0
    1.0236   -3.8291   -0.3390 H   0  0  0  0  0  0  0  0  0  0  0  0
    2.3669   -1.7887   -0.8956 H   0  0  0  0  0  0  0  0  0  0  0  0
    3.0946   -0.4585   -0.0278 H   0  0  0  0  0  0  0  0  0  0  0  0
   -1.9258    2.6130    0.8838 H   0  0  0  0  0  0  0  0  0  0  0  0
   -0.5752    3.3587    0.0206 H   0  0  0  0  0  0  0  0  0  0  0  0
   -0.3718   -2.1776   -0.2369 H   0  0  0  0  0  0  0  0  0  0  0  0
    2.5769    1.7052    0.8962 H   0  0  0  0  0  0  0  0  0  0  0  0
    2.5530    1.6895   -0.8889 H   0  0  0  0  0  0  0  0  0  0  0  0
    1.6101    2.8743    0.0055 H   0  0  0  0  0  0  0  0  0  0  0  0
   -2.6012    3.6070   -1.3309 H   0  0  0  0  0  0  0  0  0  0  0  0
   -1.5084    2.4884   -2.1780 H   0  0  0  0  0  0  0  0  0  0  0  0
    4.0976   -0.9323    2.1053 H   0  0  0  0  0  0  0  0  0  0  0  0
    1.7758   -4.1373    5.3564 H   0  0  0  0  0  0  0  0  0  0  0  0
    2.9162   -5.2810    4.6106 H   0  0  0  0  0  0  0  0  0  0  0  0
    3.5273   -3.8507    5.4730 H   0  0  0  0  0  0  0  0  0  0  0  0
  1  9  1  0  0  0  0
  1 12  1  0  0  0  0
  2 14  1  0  0  0  0
  2 19  1  0  0  0  0
  3  7  1  0  0  0  0
  3  8  1  0  0  0  0
  3 12  2  0  0  0  0
  4 15  2  0  0  0  0
  4 17  1  0  0  0  0
  5 16  1  0  0  0  0
  5 17  2  0  0  0  0
  6 15  1  0  0  0  0
  6 20  1  0  0  0  0
  6 21  1  0  0  0  0
  7  9  2  0  0  0  0
  7 13  1  0  0  0  0
  8 11  1  0  0  0  0
  8 22  1  0  0  0  0
  8 23  1  0  0  0  0
  9 10  1  0  0  0  0
 10 14  1  0  0  0  0
 10 24  1  0  0  0  0
 10 25  1  0  0  0  0
 11 15  1  0  0  0  0
 11 16  2  0  0  0  0
 12 26  1  0  0  0  0
 13 27  1  0  0  0  0
 13 28  1  0  0  0  0
 13 29  1  0  0  0  0
 14 30  1  0  0  0  0
 14 31  1  0  0  0  0
 16 32  1  0  0  0  0
 17 18  1  0  0  0  0
 18 33  1  0  0  0  0
 18 34  1  0  0  0  0
 18 35  1  0  0  0  0
M  CHG  1   3   1
M  END
>  <DRUGBANK_ID>
DB00152

>  <SECONDARY_ACCESSION_NUMBERS>
NUTR00009; APRD00552; EXPT03222

>  <COMMON_NAME>
Thiamine

>  <CAS_NUMBER>
70-16-6

>  <UNII>
4ABT0J945J

>  <SYNONYMS>
Aneurin; Antiberiberi factor; Thiamin; Thiamine; thiamine(1+); thiamine(1+) ion; thiaminium; Thiaminum; Tiamina; Vitamin B1

$$$$
