DST
 OpenBabel10282417123D

 28 27  0  0  0  0  0  0  0  0999 V2000
    0.6227    0.4473   -0.5392 O   0  0  0  0  0  0  0  0  0  0  0  0
    0.7482    2.0018   -0.1911 P   0  0  0  0  0  0  0  0  0  0  0  0
   -0.1251    2.0082    1.1408 O   0  0  0  0  0  0  0  0  0  0  0  0
    2.2043    2.3185    0.0368 O   0  0  0  0  0  0  0  0  0  0  0  0
    0.0249    2.9264   -1.3078 O   0  0  0  0  0  0  0  0  0  0  0  0
   -0.1826    2.3472   -2.8002 P   0  0  1  0  0  0  0  0  0  0  0  0
    1.2916    1.7030   -2.9087 O   0  0  0  0  0  0  0  0  0  0  0  0
   -1.2989    1.3599   -2.7668 O   0  0  0  0  0  0  0  0  0  0  0  0
   -0.2957    3.3055   -4.6496 S   0  0  0  0  0  0  0  0  0  0  0  0
   -0.0947    5.0137   -5.1270 C   0  0  0  0  0  0  0  0  0  0  0  0
   -1.1822    5.8998   -4.5392 C   0  0  0  0  0  0  0  0  0  0  0  0
   -1.1400    5.8909   -3.0089 C   0  0  0  0  0  0  0  0  0  0  0  0
    0.2283    6.3420   -2.4970 C   0  0  0  0  0  0  0  0  0  0  0  0
   -2.2619    6.7310   -2.4270 C   0  0  0  0  0  0  0  0  0  0  0  0
    1.4385   -0.0274   -0.2705 H   0  0  0  0  0  0  0  0  0  0  0  0
   -0.9200    1.4401    1.0588 H   0  0  0  0  0  0  0  0  0  0  0  0
    1.9583    2.4159   -2.9012 H   0  0  0  0  0  0  0  0  0  0  0  0
    0.9127    5.3924   -4.9295 H   0  0  0  0  0  0  0  0  0  0  0  0
   -0.1902    5.0552   -6.2228 H   0  0  0  0  0  0  0  0  0  0  0  0
   -1.0623    6.9236   -4.9207 H   0  0  0  0  0  0  0  0  0  0  0  0
   -2.1648    5.5638   -4.9008 H   0  0  0  0  0  0  0  0  0  0  0  0
   -1.3245    4.8745   -2.6527 H   0  0  0  0  0  0  0  0  0  0  0  0
    0.4465    7.3648   -2.8198 H   0  0  0  0  0  0  0  0  0  0  0  0
    0.2698    6.2930   -1.4073 H   0  0  0  0  0  0  0  0  0  0  0  0
    1.0368    5.6999   -2.8630 H   0  0  0  0  0  0  0  0  0  0  0  0
   -3.2331    6.3561   -2.7682 H   0  0  0  0  0  0  0  0  0  0  0  0
   -2.2432    6.6635   -1.3351 H   0  0  0  0  0  0  0  0  0  0  0  0
   -2.1697    7.7798   -2.7192 H   0  0  0  0  0  0  0  0  0  0  0  0
  1  2  1  0  0  0  0
  1 15  1  0  0  0  0
  2  3  1  0  0  0  0
  2  4  2  0  0  0  0
  2  5  1  0  0  0  0
  3 16  1  0  0  0  0
  6  5  1  0  0  0  0
  6  7  1  0  0  0  0
  6  8  2  1  0  0  0
  6  9  1  0  0  0  0
  7 17  1  0  0  0  0
  9 10  1  0  0  0  0
 10 11  1  0  0  0  0
 10 18  1  0  0  0  0
 10 19  1  0  0  0  0
 11 12  1  0  0  0  0
 11 20  1  0  0  0  0
 11 21  1  0  0  0  0
 12 13  1  0  0  0  0
 12 14  1  0  0  0  0
 12 22  1  0  0  0  0
 13 23  1  0  0  0  0
 13 24  1  0  0  0  0
 13 25  1  0  0  0  0
 14 26  1  0  0  0  0
 14 27  1  0  0  0  0
 14 28  1  0  0  0  0
M  END
>  <DRUGBANK_ID>
DB02270

>  <SECONDARY_ACCESSION_NUMBERS>
EXPT01279

>  <COMMON_NAME>
Dimethylallyl S-Thiolodiphosphate

$$$$
