
 OpenBabel10282417123D

 27 28  0  0  0  0  0  0  0  0999 V2000
   -2.2530   -0.6199   -0.1676 C   0  0  0  0  0  0  0  0  0  0  0  0
   -2.1839    0.8669    0.1862 C   0  0  0  0  0  0  0  0  0  0  0  0
   -0.9434   -1.4188   -0.0089 C   0  0  0  0  0  0  0  0  0  0  0  0
    1.5481   -1.2534    0.0654 C   0  0  0  0  0  0  0  0  0  0  0  0
   -0.8732    1.5051   -0.2682 C   0  0  2  0  0  0  0  0  0  0  0  0
    2.4952   -0.1138   -0.3365 C   0  0  2  0  0  0  0  0  0  0  0  0
    0.2949    0.7257    0.3430 C   0  0  2  0  0  0  0  0  0  0  0  0
    1.7117    1.1970   -0.0563 C   0  0  2  0  0  0  0  0  0  0  0  0
    0.2563   -0.6330   -0.1914 N   0  0  3  0  0  0  0  0  0  0  0  0
   -0.8095    2.8783    0.0708 O   0  0  0  0  0  0  0  0  0  0  0  0
    2.8089   -0.2505   -1.7305 O   0  0  0  0  0  0  0  0  0  0  0  0
    1.7440    2.0622   -1.1885 O   0  0  0  0  0  0  0  0  0  0  0  0
   -0.8241    1.4357   -1.3640 H   0  0  0  0  0  0  0  0  0  0  0  0
    3.4338   -0.1463    0.2242 H   0  0  0  0  0  0  0  0  0  0  0  0
    0.2299    0.7416    1.4439 H   0  0  0  0  0  0  0  0  0  0  0  0
    2.1695    1.7350    0.7823 H   0  0  0  0  0  0  0  0  0  0  0  0
   -3.0373   -1.0890    0.4399 H   0  0  0  0  0  0  0  0  0  0  0  0
   -2.5870   -0.7044   -1.2097 H   0  0  0  0  0  0  0  0  0  0  0  0
   -3.0256    1.3972   -0.2780 H   0  0  0  0  0  0  0  0  0  0  0  0
   -2.3073    1.0059    1.2675 H   0  0  0  0  0  0  0  0  0  0  0  0
   -0.9604   -1.9787    0.9332 H   0  0  0  0  0  0  0  0  0  0  0  0
   -0.9403   -2.1704   -0.8100 H   0  0  0  0  0  0  0  0  0  0  0  0
    1.6825   -2.1301   -0.5764 H   0  0  0  0  0  0  0  0  0  0  0  0
    1.6991   -1.5409    1.1133 H   0  0  0  0  0  0  0  0  0  0  0  0
   -1.6101    3.1300    0.5774 H   0  0  0  0  0  0  0  0  0  0  0  0
    1.9551   -0.2558   -2.1979 H   0  0  0  0  0  0  0  0  0  0  0  0
    1.2357    1.6328   -1.8976 H   0  0  0  0  0  0  0  0  0  0  0  0
  1 17  1  0  0  0  0
  1 18  1  0  0  0  0
  2  1  1  0  0  0  0
  2 19  1  0  0  0  0
  2 20  1  0  0  0  0
  3  1  1  0  0  0  0
  3 21  1  0  0  0  0
  3 22  1  0  0  0  0
  4 23  1  0  0  0  0
  4 24  1  0  0  0  0
  5  2  1  0  0  0  0
  5 13  1  6  0  0  0
  5 10  1  0  0  0  0
  6  4  1  0  0  0  0
  6 11  1  0  0  0  0
  6 14  1  1  0  0  0
  7  5  1  0  0  0  0
  7 15  1  1  0  0  0
  8  6  1  0  0  0  0
  8  7  1  0  0  0  0
  8 12  1  0  0  0  0
  8 16  1  1  0  0  0
  9  3  1  0  0  0  0
  9  4  1  0  0  0  0
  9  7  1  0  0  0  0
 10 25  1  0  0  0  0
 11 26  1  0  0  0  0
 12 27  1  0  0  0  0
M  END
>  <DRUGBANK_ID>
DB02034

>  <SECONDARY_ACCESSION_NUMBERS>
EXPT02983; DB06425

>  <COMMON_NAME>
Tridolgosir

>  <CAS_NUMBER>
72741-87-8

>  <UNII>
RSY4RK37KQ

>  <SYNONYMS>
(1S,2R,8R,8AR)-octahydro-1,2,8-indolizinetriol; Swainosine; Tridolgosir

$$$$
