
 OpenBabel10282417193D

 67 72  0  0  1  0  0  0  0  0999 V2000
   -2.0229   -0.6874   -0.0320 C   0  0  0  0  0  0  0  0  0  0  0  0
   -2.0332    0.7129   -0.0793 C   0  0  0  0  0  0  0  0  0  0  0  0
   -0.8352    1.4526   -0.0889 C   0  0  0  0  0  0  0  0  0  0  0  0
    0.3702    0.7340   -0.0512 C   0  0  0  0  0  0  0  0  0  0  0  0
    0.3765   -0.6621   -0.0142 C   0  0  0  0  0  0  0  0  0  0  0  0
   -0.8143   -1.3785   -0.0028 C   0  0  0  0  0  0  0  0  0  0  0  0
    1.5378   -1.3323    0.0196 F   0  0  0  0  0  0  0  0  0  0  0  0
    1.5417    1.3878   -0.0259 F   0  0  0  0  0  0  0  0  0  0  0  0
   -0.8390    2.9919   -0.0514 C   0  0  2  0  0  0  0  0  0  0  0  0
   -1.5350    3.3861    1.2776 C   0  0  0  0  0  0  0  0  0  0  0  0
   -1.4341    4.8502    1.6914 C   0  0  0  0  0  0  0  0  0  0  0  0
   -2.2402    5.7937    0.7952 C   0  0  2  0  0  0  0  0  0  0  0  0
   -1.4543    6.1555   -0.4658 C   0  0  0  0  0  0  0  0  0  0  0  0
   -1.0653    5.1827   -1.4158 C   0  0  0  0  0  0  0  0  0  0  0  0
   -0.2332    5.6400   -2.4612 C   0  0  0  0  0  0  0  0  0  0  0  0
    0.2104    6.9629   -2.5060 C   0  0  0  0  0  0  0  0  0  0  0  0
   -0.2200    7.8250   -1.5263 C   0  0  0  0  0  0  0  0  0  0  0  0
   -1.0734    7.4585   -0.5586 N   0  0  0  0  0  0  0  0  0  0  0  0
   -1.4970    3.7085   -1.2935 C   0  0  1  0  0  0  0  0  0  0  0  0
   -1.2954    2.9437   -2.5382 N   0  0  0  0  0  0  0  0  0  0  0  0
   -2.7599    6.9153    1.5909 O   0  0  0  0  0  0  0  0  0  0  0  0
   -1.9113    7.8133    2.1578 C   0  0  0  0  0  0  0  0  0  0  0  0
   -0.6772    7.7260    2.1556 O   0  0  0  0  0  0  0  0  0  0  0  0
   -2.5748    8.8910    2.7231 N   0  0  0  0  0  0  0  0  0  0  0  0
   -2.0258   10.2151    2.6487 C   0  0  0  0  0  0  0  0  0  0  0  0
   -1.4421   10.6634    3.9865 C   0  0  0  0  0  0  0  0  0  0  0  0
   -2.0895   10.0194    5.4174 C   0  0  3  0  0  0  0  0  0  0  0  0
   -3.1573    8.9576    5.1388 C   0  0  0  0  0  0  0  0  0  0  0  0
   -3.6411    8.7478    3.6845 C   0  0  0  0  0  0  0  0  0  0  0  0
   -1.1467    9.6509    6.8339 N   0  0  0  0  0  0  0  0  0  0  0  0
   -0.0935    8.4420    6.8991 C   0  0  0  0  0  0  0  0  0  0  0  0
    0.6341    7.6852    7.8631 C   0  0  0  0  0  0  0  0  0  0  0  0
    1.8238    6.9417    7.4446 C   0  0  0  0  0  0  0  0  0  0  0  0
    2.3551    7.1690    6.1844 C   0  0  0  0  0  0  0  0  0  0  0  0
    1.9240    8.1852    5.4654 N   0  0  0  0  0  0  0  0  0  0  0  0
    0.8624    8.7970    5.9854 C   0  0  0  0  0  0  0  0  0  0  0  0
    0.6824   10.1353    5.7200 N   0  0  0  0  0  0  0  0  0  0  0  0
   -0.1453   10.6584    6.7410 C   0  0  0  0  0  0  0  0  0  0  0  0
    0.0953   11.5507    7.5279 O   0  0  0  0  0  0  0  0  0  0  0  0
   -2.9621   -1.2359   -0.0170 H   0  0  0  0  0  0  0  0  0  0  0  0
   -2.9933    1.2234   -0.0938 H   0  0  0  0  0  0  0  0  0  0  0  0
   -0.7934   -2.4638    0.0288 H   0  0  0  0  0  0  0  0  0  0  0  0
    0.2083    3.3203    0.0051 H   0  0  0  0  0  0  0  0  0  0  0  0
   -2.5982    3.1120    1.2390 H   0  0  0  0  0  0  0  0  0  0  0  0
   -1.1047    2.7909    2.0946 H   0  0  0  0  0  0  0  0  0  0  0  0
   -1.8107    4.9303    2.7183 H   0  0  0  0  0  0  0  0  0  0  0  0
   -0.3785    5.1454    1.7248 H   0  0  0  0  0  0  0  0  0  0  0  0
   -3.1532    5.2879    0.4545 H   0  0  0  0  0  0  0  0  0  0  0  0
    0.1122    4.9780   -3.2502 H   0  0  0  0  0  0  0  0  0  0  0  0
    0.8838    7.3125   -3.2806 H   0  0  0  0  0  0  0  0  0  0  0  0
    0.1235    8.8540   -1.4736 H   0  0  0  0  0  0  0  0  0  0  0  0
   -2.5857    3.7028   -1.1595 H   0  0  0  0  0  0  0  0  0  0  0  0
   -1.7675    3.4011   -3.3161 H   0  0  0  0  0  0  0  0  0  0  0  0
   -0.3058    2.8738   -2.7656 H   0  0  0  0  0  0  0  0  0  0  0  0
   -2.8117   10.8964    2.3065 H   0  0  0  0  0  0  0  0  0  0  0  0
   -1.2487   10.2450    1.8654 H   0  0  0  0  0  0  0  0  0  0  0  0
   -1.4254   11.7642    4.0341 H   0  0  0  0  0  0  0  0  0  0  0  0
   -0.3997   10.4501    3.7541 H   0  0  0  0  0  0  0  0  0  0  0  0
   -2.6536   10.9185    5.7650 H   0  0  0  0  0  0  0  0  0  0  0  0
   -2.7219    8.0231    5.4801 H   0  0  0  0  0  0  0  0  0  0  0  0
   -4.0415    9.1666    5.7579 H   0  0  0  0  0  0  0  0  0  0  0  0
   -4.0661    7.7442    3.6178 H   0  0  0  0  0  0  0  0  0  0  0  0
   -4.4233    9.4641    3.3990 H   0  0  0  0  0  0  0  0  0  0  0  0
    0.5355    7.7323    8.9564 H   0  0  0  0  0  0  0  0  0  0  0  0
    2.4119    6.2851    8.0897 H   0  0  0  0  0  0  0  0  0  0  0  0
    3.2186    6.6756    5.7514 H   0  0  0  0  0  0  0  0  0  0  0  0
    0.0225    9.8242    5.0435 H   0  0  0  0  0  0  0  0  0  0  0  0
  1  2  2  0  0  0  0
  1  6  1  0  0  0  0
  1 40  1  0  0  0  0
  2  3  1  0  0  0  0
  2 41  1  0  0  0  0
  3  4  2  0  0  0  0
  4  5  1  0  0  0  0
  4  8  1  0  0  0  0
  5  6  2  0  0  0  0
  5  7  1  0  0  0  0
  6 42  1  0  0  0  0
  9  3  1  0  0  0  0
  9 10  1  0  0  0  0
  9 19  1  0  0  0  0
  9 43  1  1  0  0  0
 10 11  1  0  0  0  0
 10 44  1  0  0  0  0
 10 45  1  0  0  0  0
 11 12  1  0  0  0  0
 11 46  1  0  0  0  0
 11 47  1  0  0  0  0
 12 13  1  0  0  0  0
 12 21  1  0  0  0  0
 12 48  1  6  0  0  0
 13 14  2  0  0  0  0
 13 18  1  0  0  0  0
 14 15  1  0  0  0  0
 14 19  1  0  0  0  0
 15 16  2  0  0  0  0
 15 49  1  0  0  0  0
 16 17  1  0  0  0  0
 16 50  1  0  0  0  0
 17 18  2  0  0  0  0
 17 51  1  0  0  0  0
 19 20  1  0  0  0  0
 19 52  1  1  0  0  0
 20 53  1  0  0  0  0
 20 54  1  0  0  0  0
 21 22  1  0  0  0  0
 22 23  2  0  0  0  0
 22 24  1  0  0  0  0
 24 25  1  0  0  0  0
 24 29  1  0  0  0  0
 25 26  1  0  0  0  0
 25 55  1  0  0  0  0
 25 56  1  0  0  0  0
 26 27  1  0  0  0  0
 26 57  1  0  0  0  0
 26 58  1  0  0  0  0
 27 28  1  0  0  0  0
 27 30  1  0  0  0  0
 27 59  1  0  0  0  0
 28 29  1  0  0  0  0
 28 60  1  0  0  0  0
 28 61  1  0  0  0  0
 29 62  1  0  0  0  0
 29 63  1  0  0  0  0
 30 31  1  0  0  0  0
 30 38  1  0  0  0  0
 31 32  2  0  0  0  0
 31 36  1  0  0  0  0
 32 33  1  0  0  0  0
 32 64  1  0  0  0  0
 33 34  2  0  0  0  0
 33 65  1  0  0  0  0
 34 35  1  0  0  0  0
 34 66  1  0  0  0  0
 35 36  2  0  0  0  0
 36 37  1  0  0  0  0
 37 38  1  0  0  0  0
 37 67  1  0  0  0  0
 38 39  2  0  0  0  0
M  END
>  <DRUGBANK_ID>
DB12457

>  <COMMON_NAME>
Rimegepant

>  <CAS_NUMBER>
1289023-67-1

>  <UNII>
997WVV895X

>  <SYNONYMS>
Rimegepant

$$$$
