579
 OpenBabel10282417103D

 33 36  0  0  1  0  0  0  0  0999 V2000
    6.4110    4.7675    1.0428 Cl  0  0  0  0  0  0  0  0  0  0  0  0
   -0.3022    4.8323    2.8310 O   0  0  0  0  0  0  0  0  0  0  0  0
   -0.0256    3.0990    1.2007 N   0  0  0  0  0  0  0  0  0  0  0  0
    1.0063    1.3361    0.0634 N   0  0  0  0  0  0  0  0  0  0  0  0
    0.5010    3.7696    2.3749 C   0  0  3  0  0  0  0  0  0  0  0  0
    0.3292    2.4577    3.2440 C   0  0  0  0  0  0  0  0  0  0  0  0
    0.6662    1.8662    1.1848 C   0  0  0  0  0  0  0  0  0  0  0  0
   -0.0906    3.5721   -0.1564 C   0  0  0  0  0  0  0  0  0  0  0  0
    0.9967    1.4306    2.5619 C   0  0  0  0  0  0  0  0  0  0  0  0
    1.9898    4.2234    2.0698 C   0  0  0  0  0  0  0  0  0  0  0  0
    0.1615    2.1938   -0.8448 C   0  0  0  0  0  0  0  0  0  0  0  0
   -0.8638    2.0159    3.8636 C   0  0  0  0  0  0  0  0  0  0  0  0
    0.8895    0.0723    2.8404 C   0  0  0  0  0  0  0  0  0  0  0  0
    2.6587    3.7547    0.9005 C   0  0  0  0  0  0  0  0  0  0  0  0
    2.7768    5.0401    2.8683 C   0  0  0  0  0  0  0  0  0  0  0  0
   -1.1043    0.6337    4.0581 C   0  0  0  0  0  0  0  0  0  0  0  0
   -0.1854   -0.3282    3.6201 C   0  0  0  0  0  0  0  0  0  0  0  0
    4.0023    3.8137    0.6240 C   0  0  0  0  0  0  0  0  0  0  0  0
    4.1444    5.2475    2.5246 C   0  0  0  0  0  0  0  0  0  0  0  0
    4.7561    4.5846    1.4447 C   0  0  0  0  0  0  0  0  0  0  0  0
   -0.8414    4.4880    3.5595 H   0  0  0  0  0  0  0  0  0  0  0  0
    0.6331    4.3661   -0.3927 H   0  0  0  0  0  0  0  0  0  0  0  0
   -1.0595    3.9725   -0.4594 H   0  0  0  0  0  0  0  0  0  0  0  0
   -0.7849    1.6493   -0.8404 H   0  0  0  0  0  0  0  0  0  0  0  0
    0.5626    2.2396   -1.8555 H   0  0  0  0  0  0  0  0  0  0  0  0
   -1.7221    2.6763    3.9844 H   0  0  0  0  0  0  0  0  0  0  0  0
    1.5166   -0.6446    2.3213 H   0  0  0  0  0  0  0  0  0  0  0  0
    2.1705    3.2814    0.0736 H   0  0  0  0  0  0  0  0  0  0  0  0
    2.3538    5.5522    3.7300 H   0  0  0  0  0  0  0  0  0  0  0  0
   -2.0559    0.2970    4.4709 H   0  0  0  0  0  0  0  0  0  0  0  0
   -0.3736   -1.3880    3.7746 H   0  0  0  0  0  0  0  0  0  0  0  0
    4.3594    3.2753   -0.2520 H   0  0  0  0  0  0  0  0  0  0  0  0
    4.7430    5.9427    3.0997 H   0  0  0  0  0  0  0  0  0  0  0  0
  1 20  1  0  0  0  0
  2  5  1  0  0  0  0
  2 21  1  0  0  0  0
  3  5  1  0  0  0  0
  3  7  1  0  0  0  0
  3  8  1  0  0  0  0
  4  7  2  0  0  0  0
  4 11  1  0  0  0  0
  5  6  1  0  0  0  0
  5 10  1  0  0  0  0
  6  9  1  0  0  0  0
  6 12  2  0  0  0  0
  7  9  1  0  0  0  0
  8 11  1  0  0  0  0
  8 22  1  0  0  0  0
  8 23  1  0  0  0  0
  9 13  2  0  0  0  0
 10 14  2  0  0  0  0
 10 15  1  0  0  0  0
 11 24  1  0  0  0  0
 11 25  1  0  0  0  0
 12 16  1  0  0  0  0
 12 26  1  0  0  0  0
 13 17  1  0  0  0  0
 13 27  1  0  0  0  0
 14 18  1  0  0  0  0
 14 28  1  0  0  0  0
 15 19  2  0  0  0  0
 15 29  1  0  0  0  0
 16 17  2  0  0  0  0
 16 30  1  0  0  0  0
 17 31  1  0  0  0  0
 18 20  2  0  0  0  0
 18 32  1  0  0  0  0
 19 20  1  0  0  0  0
 19 33  1  0  0  0  0
M  END
>  <DRUGBANK_ID>
DB00579

>  <SECONDARY_ACCESSION_NUMBERS>
APRD01085

>  <COMMON_NAME>
Mazindol

>  <CAS_NUMBER>
22232-71-9

>  <UNII>
C56709M5NH

>  <SYNONYMS>
Mazindol; Mazindolo; Mazindolum

$$$$
