
 OpenBabel10282417243D

 73 75  0  0  0  0  0  0  0  0999 V2000
    0.8759   -0.2030   -0.0875 C   0  0  0  0  0  0  0  0  0  0  0  0
    0.5451   -0.1956    1.3960 C   0  0  0  0  0  0  0  0  0  0  0  0
    1.0791    0.9532    2.1515 N   0  0  0  0  0  0  0  0  0  0  0  0
    0.0932    1.8640    2.7704 C   0  0  0  0  0  0  0  0  0  0  0  0
    0.1426    1.9071    4.2814 C   0  0  0  0  0  0  0  0  0  0  0  0
    0.2186    3.1429    4.9446 C   0  0  0  0  0  0  0  0  0  0  0  0
    0.3366    3.1902    6.3330 C   0  0  0  0  0  0  0  0  0  0  0  0
    0.3628    2.0074    7.0715 C   0  0  0  0  0  0  0  0  0  0  0  0
    0.2745    0.7747    6.4265 C   0  0  0  0  0  0  0  0  0  0  0  0
    0.1859    0.7229    5.0369 C   0  0  0  0  0  0  0  0  0  0  0  0
    2.4372    1.2121    2.2843 C   0  0  0  0  0  0  0  0  0  0  0  0
    3.3200    1.1831    1.2011 C   0  0  0  0  0  0  0  0  0  0  0  0
    4.6913    1.4571    1.3174 C   0  0  0  0  0  0  0  0  0  0  0  0
    5.2202    1.8710    2.5355 C   0  0  0  0  0  0  0  0  0  0  0  0
    4.3556    1.9702    3.6112 C   0  0  0  0  0  0  0  0  0  0  0  0
    3.0222    1.5870    3.4988 C   0  0  0  0  0  0  0  0  0  0  0  0
    6.5425    2.2457    2.8039 N   0  0  0  0  0  0  0  0  0  0  0  0
    7.3741    1.8943    1.9576 N   0  0  0  0  0  0  0  0  0  0  0  0
    8.6530    2.2704    2.4144 C   0  0  0  0  0  0  0  0  0  0  0  0
    9.4185    1.4593    3.2505 C   0  0  0  0  0  0  0  0  0  0  0  0
   10.8347    1.6057    3.3445 C   0  0  0  0  0  0  0  0  0  0  0  0
   11.4971    2.5723    2.5736 C   0  0  0  0  0  0  0  0  0  0  0  0
   12.9048    2.5710    2.3159 N   0  0  0  0  0  0  0  0  0  0  0  0
   13.6471    3.1191    1.2777 C   0  0  0  0  0  0  0  0  0  0  0  0
   14.8974    3.1459    1.4129 O   0  0  0  0  0  0  0  0  0  0  0  0
   13.0757    3.5901   -0.1048 C   0  0  0  0  0  0  0  0  0  0  0  0
   12.5316    2.4585   -1.1063 N   0  3  0  0  0  0  0  0  0  0  0  0
   11.4126    1.6147   -0.4791 C   0  0  0  0  0  0  0  0  0  0  0  0
   10.1036    2.3548   -0.5308 C   0  0  0  0  0  0  0  0  0  0  0  0
   11.8611    3.0506   -2.3615 C   0  0  0  0  0  0  0  0  0  0  0  0
   12.6748    3.8691   -3.3023 C   0  0  0  0  0  0  0  0  0  0  0  0
   13.6423    1.4315   -1.3552 C   0  0  0  0  0  0  0  0  0  0  0  0
   14.8013    1.9683   -2.1483 C   0  0  0  0  0  0  0  0  0  0  0  0
   10.6845    3.5145    1.9718 C   0  0  0  0  0  0  0  0  0  0  0  0
    9.2824    3.3723    1.8692 C   0  0  0  0  0  0  0  0  0  0  0  0
    0.6614    0.7665   -0.5500 H   0  0  0  0  0  0  0  0  0  0  0  0
    0.3165   -0.9786   -0.6159 H   0  0  0  0  0  0  0  0  0  0  0  0
    1.9197   -0.4706   -0.2596 H   0  0  0  0  0  0  0  0  0  0  0  0
   -0.5506   -0.2127    1.4694 H   0  0  0  0  0  0  0  0  0  0  0  0
    0.8873   -1.1269    1.8598 H   0  0  0  0  0  0  0  0  0  0  0  0
    0.2356    2.8676    2.3495 H   0  0  0  0  0  0  0  0  0  0  0  0
   -0.9339    1.5799    2.5064 H   0  0  0  0  0  0  0  0  0  0  0  0
    0.2368    4.0712    4.3771 H   0  0  0  0  0  0  0  0  0  0  0  0
    0.4121    4.1498    6.8378 H   0  0  0  0  0  0  0  0  0  0  0  0
    0.4649    2.0452    8.1524 H   0  0  0  0  0  0  0  0  0  0  0  0
    0.2928   -0.1471    7.0013 H   0  0  0  0  0  0  0  0  0  0  0  0
    0.2422   -0.2396    4.5320 H   0  0  0  0  0  0  0  0  0  0  0  0
    2.9662    1.0245    0.1949 H   0  0  0  0  0  0  0  0  0  0  0  0
    5.2995    1.3827    0.4228 H   0  0  0  0  0  0  0  0  0  0  0  0
    4.7183    2.3493    4.5625 H   0  0  0  0  0  0  0  0  0  0  0  0
    2.4838    1.5885    4.4346 H   0  0  0  0  0  0  0  0  0  0  0  0
    8.8902    0.6763    3.7914 H   0  0  0  0  0  0  0  0  0  0  0  0
   11.3632    0.8895    3.9692 H   0  0  0  0  0  0  0  0  0  0  0  0
   13.4986    2.1058    3.0034 H   0  0  0  0  0  0  0  0  0  0  0  0
   12.3474    4.3956   -0.0388 H   0  0  0  0  0  0  0  0  0  0  0  0
   13.8998    4.0742   -0.6486 H   0  0  0  0  0  0  0  0  0  0  0  0
   11.2706    0.7010   -1.0606 H   0  0  0  0  0  0  0  0  0  0  0  0
   11.7556    1.2880    0.5007 H   0  0  0  0  0  0  0  0  0  0  0  0
    9.5810    2.4208   -1.4831 H   0  0  0  0  0  0  0  0  0  0  0  0
    9.4290    1.8111    0.1120 H   0  0  0  0  0  0  0  0  0  0  0  0
   10.2598    3.4084   -0.2846 H   0  0  0  0  0  0  0  0  0  0  0  0
   11.3526    2.2232   -2.8749 H   0  0  0  0  0  0  0  0  0  0  0  0
   11.1107    3.7697   -2.0171 H   0  0  0  0  0  0  0  0  0  0  0  0
   13.3063    3.2558   -3.9296 H   0  0  0  0  0  0  0  0  0  0  0  0
   11.9831    4.3615   -3.9942 H   0  0  0  0  0  0  0  0  0  0  0  0
   13.2350    4.6349   -2.7687 H   0  0  0  0  0  0  0  0  0  0  0  0
   13.9786    1.0764   -0.3730 H   0  0  0  0  0  0  0  0  0  0  0  0
   13.1874    0.5837   -1.8795 H   0  0  0  0  0  0  0  0  0  0  0  0
   15.1804    2.9135   -1.7591 H   0  0  0  0  0  0  0  0  0  0  0  0
   15.6160    1.2446   -2.1603 H   0  0  0  0  0  0  0  0  0  0  0  0
   14.5245    2.0866   -3.1896 H   0  0  0  0  0  0  0  0  0  0  0  0
   11.1408    4.2910    1.3876 H   0  0  0  0  0  0  0  0  0  0  0  0
    8.7356    3.9555    1.1213 H   0  0  0  0  0  0  0  0  0  0  0  0
  1  2  1  0  0  0  0
  1 36  1  0  0  0  0
  1 37  1  0  0  0  0
  1 38  1  0  0  0  0
  2  3  1  0  0  0  0
  2 39  1  0  0  0  0
  2 40  1  0  0  0  0
  3  4  1  0  0  0  0
  3 11  1  0  0  0  0
  4  5  1  0  0  0  0
  4 41  1  0  0  0  0
  4 42  1  0  0  0  0
  5  6  2  0  0  0  0
  5 10  1  0  0  0  0
  6  7  1  0  0  0  0
  6 43  1  0  0  0  0
  7  8  2  0  0  0  0
  7 44  1  0  0  0  0
  8  9  1  0  0  0  0
  8 45  1  0  0  0  0
  9 10  2  0  0  0  0
  9 46  1  0  0  0  0
 10 47  1  0  0  0  0
 11 12  2  0  0  0  0
 11 16  1  0  0  0  0
 12 13  1  0  0  0  0
 12 48  1  0  0  0  0
 13 14  2  0  0  0  0
 13 49  1  0  0  0  0
 14 15  1  0  0  0  0
 14 17  1  0  0  0  0
 15 16  2  0  0  0  0
 15 50  1  0  0  0  0
 16 51  1  0  0  0  0
 17 18  2  0  0  0  0
 18 19  1  0  0  0  0
 19 20  2  0  0  0  0
 19 35  1  0  0  0  0
 20 21  1  0  0  0  0
 20 52  1  0  0  0  0
 21 22  2  0  0  0  0
 21 53  1  0  0  0  0
 22 23  1  0  0  0  0
 22 34  1  0  0  0  0
 23 24  1  0  0  0  0
 23 54  1  0  0  0  0
 24 25  2  0  0  0  0
 24 26  1  0  0  0  0
 26 27  1  0  0  0  0
 26 55  1  0  0  0  0
 26 56  1  0  0  0  0
 27 28  1  0  0  0  0
 27 30  1  0  0  0  0
 27 32  1  0  0  0  0
 28 29  1  0  0  0  0
 28 57  1  0  0  0  0
 28 58  1  0  0  0  0
 29 59  1  0  0  0  0
 29 60  1  0  0  0  0
 29 61  1  0  0  0  0
 30 31  1  0  0  0  0
 30 62  1  0  0  0  0
 30 63  1  0  0  0  0
 31 64  1  0  0  0  0
 31 65  1  0  0  0  0
 31 66  1  0  0  0  0
 32 33  1  0  0  0  0
 32 67  1  0  0  0  0
 32 68  1  0  0  0  0
 33 69  1  0  0  0  0
 33 70  1  0  0  0  0
 33 71  1  0  0  0  0
 34 35  2  0  0  0  0
 34 72  1  0  0  0  0
 35 73  1  0  0  0  0
M  CHG  1  27   1
M  END
>  <DRUGBANK_ID>
DB18465

>  <COMMON_NAME>
KIO-301

>  <CAS_NUMBER>
1224953-72-3

>  <UNII>
57HBP7XKS9

$$$$
