
 OpenBabel10282417123D

 39 41  0  0  1  0  0  0  0  0999 V2000
    1.2665   -0.8600   -0.7669 C   0  0  0  0  0  0  0  0  0  0  0  0
   -1.4517   -3.4230   -0.2689 C   0  0  0  0  0  0  0  0  0  0  0  0
    1.6839    0.0747    2.4963 C   0  0  0  0  0  0  0  0  0  0  0  0
   -1.2936    2.0234   -0.0105 C   0  0  0  0  0  0  0  0  0  0  0  0
   -2.5428   -2.5182    0.5734 C   0  0  2  0  0  0  0  0  0  0  0  0
    0.6491    1.9134    0.8714 C   0  0  0  0  0  0  0  0  0  0  0  0
   -3.5024   -1.9672   -0.4759 C   0  0  2  0  0  0  0  0  0  0  0  0
   -2.9395   -0.5492   -0.7074 C   0  0  2  0  0  0  0  0  0  0  0  0
    2.0616    1.8626    1.0870 C   0  0  0  0  0  0  0  0  0  0  0  0
   -0.1448    0.9814    1.5505 C   0  0  0  0  0  0  0  0  0  0  0  0
   -2.4687   -0.0872    0.7027 C   0  0  2  0  0  0  0  0  0  0  0  0
    2.9925    2.6071    0.3757 N   0  0  0  0  0  0  0  0  0  0  0  0
    2.5634    0.8572    1.8417 N   0  0  0  0  0  0  0  0  0  0  0  0
    0.3346    0.1989    2.5405 N   0  0  0  0  0  0  0  0  0  0  0  0
   -0.1149    2.6141   -0.0309 N   0  0  0  0  0  0  0  0  0  0  0  0
   -1.3282    0.8883    0.7935 N   0  0  0  0  0  0  0  0  0  0  0  0
   -4.8491   -1.8960    0.0085 O   0  0  0  0  0  0  0  0  0  0  0  0
   -3.9623    0.2931   -1.2424 O   0  0  0  0  0  0  0  0  0  0  0  0
    2.0819   -2.7655    0.9255 O   0  0  0  0  0  0  0  0  0  0  0  0
   -0.1231   -1.7703    1.3984 O   0  0  0  0  0  0  0  0  0  0  0  0
   -0.0204   -3.3973   -0.3631 O   0  0  0  0  0  0  0  0  0  0  0  0
   -2.3192   -1.3382    1.4156 O   0  0  0  0  0  0  0  0  0  0  0  0
    0.7233   -2.1698    0.3106 P   0  0  3  0  0  0  0  0  0  0  0  0
   -3.0521   -3.2256    1.2492 H   0  0  0  0  0  0  0  0  0  0  0  0
   -3.5439   -2.5773   -1.3852 H   0  0  0  0  0  0  0  0  0  0  0  0
   -2.1095   -0.5907   -1.4216 H   0  0  0  0  0  0  0  0  0  0  0  0
   -3.2914    0.4718    1.1702 H   0  0  0  0  0  0  0  0  0  0  0  0
    1.2655   -0.1620    0.0338 H   0  0  0  0  0  0  0  0  0  0  0  0
    0.6238   -0.2959   -1.4562 H   0  0  0  0  0  0  0  0  0  0  0  0
    2.3326   -0.7497   -1.0060 H   0  0  0  0  0  0  0  0  0  0  0  0
   -1.6913   -3.2966   -1.3220 H   0  0  0  0  0  0  0  0  0  0  0  0
   -1.7325   -4.4683   -0.0533 H   0  0  0  0  0  0  0  0  0  0  0  0
    2.0974   -0.8649    2.8780 H   0  0  0  0  0  0  0  0  0  0  0  0
   -2.1471    2.3421   -0.5969 H   0  0  0  0  0  0  0  0  0  0  0  0
    2.6617    3.4846    0.0006 H   0  0  0  0  0  0  0  0  0  0  0  0
    3.9344    2.5476    0.7422 H   0  0  0  0  0  0  0  0  0  0  0  0
   -4.8269   -1.5621    0.9220 H   0  0  0  0  0  0  0  0  0  0  0  0
   -4.7779    0.0979   -0.7342 H   0  0  0  0  0  0  0  0  0  0  0  0
    2.8665   -2.6904    0.3721 H   0  0  0  0  0  0  0  0  0  0  0  0
  1 28  1  0  0  0  0
  1 29  1  0  0  0  0
  1 30  1  0  0  0  0
  2 31  1  0  0  0  0
  2 32  1  0  0  0  0
  3 33  1  0  0  0  0
  4 34  1  0  0  0  0
  5  2  1  0  0  0  0
  5 24  1  1  0  0  0
  7  5  1  0  0  0  0
  7 17  1  0  0  0  0
  7 25  1  6  0  0  0
  8  7  1  0  0  0  0
  8 18  1  0  0  0  0
  8 26  1  6  0  0  0
  9  6  2  0  0  0  0
 10  6  1  0  0  0  0
 11  8  1  0  0  0  0
 11 27  1  1  0  0  0
 11 16  1  0  0  0  0
 12  9  1  0  0  0  0
 12 35  1  0  0  0  0
 12 36  1  0  0  0  0
 13  3  2  0  0  0  0
 13  9  1  0  0  0  0
 14  3  1  0  0  0  0
 14 10  2  0  0  0  0
 15  4  2  0  0  0  0
 15  6  1  0  0  0  0
 16  4  1  0  0  0  0
 16 10  1  0  0  0  0
 17 37  1  0  0  0  0
 18 38  1  0  0  0  0
 19 39  1  0  0  0  0
 21  2  1  0  0  0  0
 22  5  1  0  0  0  0
 22 11  1  0  0  0  0
 23  1  1  0  0  0  0
 23 19  1  0  0  0  0
 23 20  2  0  0  0  0
 23 21  1  0  0  0  0
M  END
>  <DRUGBANK_ID>
DB02798

>  <SECONDARY_ACCESSION_NUMBERS>
EXPT00399

>  <COMMON_NAME>
Alpha-Methylene Adenosine Monophosphate

$$$$
