CKI
 OpenBabel10282417133D

 30 31  0  0  0  0  0  0  0  0999 V2000
   -1.2721   -1.3541    0.0718 C   0  0  0  0  0  0  0  0  0  0  0  0
   -2.4486   -0.7212   -0.1073 N   0  0  0  0  0  0  0  0  0  0  0  0
   -2.4118    0.6191   -0.1476 C   0  0  0  0  0  0  0  0  0  0  0  0
   -1.2758    1.3598    0.1001 C   0  0  0  0  0  0  0  0  0  0  0  0
    1.1825    1.4155    0.0859 C   0  0  0  0  0  0  0  0  0  0  0  0
    1.2583    3.1474    0.0946 Cl  0  0  0  0  0  0  0  0  0  0  0  0
    2.3875    0.7413   -0.0665 C   0  0  0  0  0  0  0  0  0  0  0  0
    2.3956   -0.6437   -0.1886 C   0  0  0  0  0  0  0  0  0  0  0  0
    1.2140   -1.3826   -0.0607 C   0  0  0  0  0  0  0  0  0  0  0  0
   -0.0240   -0.7141    0.0669 C   0  0  0  0  0  0  0  0  0  0  0  0
   -0.0378    0.7056    0.1129 C   0  0  0  0  0  0  0  0  0  0  0  0
    1.2433   -3.1636   -0.1333 S   0  0  0  0  0  0  0  0  0  0  0  0
    0.6188   -3.6733    1.0581 O   0  0  0  0  0  0  0  0  0  0  0  0
    0.7454   -3.5532   -1.4403 O   0  0  0  0  0  0  0  0  0  0  0  0
    2.8728   -3.6054   -0.0950 N   0  0  0  0  0  0  0  0  0  0  0  0
    3.7150   -3.2478    1.0744 C   0  0  0  0  0  0  0  0  0  0  0  0
    3.1995   -3.8326    2.3805 C   0  0  0  0  0  0  0  0  0  0  0  0
    3.1730   -5.2905    2.3005 N   0  0  0  0  0  0  0  0  0  0  0  0
   -1.3823   -2.4311    0.1703 H   0  0  0  0  0  0  0  0  0  0  0  0
   -3.3401    1.1056   -0.4266 H   0  0  0  0  0  0  0  0  0  0  0  0
   -1.3608    2.4371    0.1902 H   0  0  0  0  0  0  0  0  0  0  0  0
    3.3222    1.2921   -0.1400 H   0  0  0  0  0  0  0  0  0  0  0  0
    3.3456   -1.1144   -0.4150 H   0  0  0  0  0  0  0  0  0  0  0  0
    2.9685   -4.5887   -0.3631 H   0  0  0  0  0  0  0  0  0  0  0  0
    4.7323   -3.6012    0.8655 H   0  0  0  0  0  0  0  0  0  0  0  0
    3.8034   -2.1705    1.1955 H   0  0  0  0  0  0  0  0  0  0  0  0
    3.8374   -3.4978    3.2022 H   0  0  0  0  0  0  0  0  0  0  0  0
    2.2061   -3.4441    2.6149 H   0  0  0  0  0  0  0  0  0  0  0  0
    2.7113   -5.6434    3.1380 H   0  0  0  0  0  0  0  0  0  0  0  0
    2.5534   -5.5648    1.5367 H   0  0  0  0  0  0  0  0  0  0  0  0
  1  2  2  0  0  0  0
  1 10  1  0  0  0  0
  1 19  1  0  0  0  0
  2  3  1  0  0  0  0
  3  4  2  0  0  0  0
  3 20  1  0  0  0  0
  4 11  1  0  0  0  0
  4 21  1  0  0  0  0
  5  6  1  0  0  0  0
  5  7  2  0  0  0  0
  5 11  1  0  0  0  0
  7  8  1  0  0  0  0
  7 22  1  0  0  0  0
  8  9  2  0  0  0  0
  8 23  1  0  0  0  0
  9 10  1  0  0  0  0
  9 12  1  0  0  0  0
 10 11  2  0  0  0  0
 12 13  2  0  0  0  0
 12 14  2  0  0  0  0
 12 15  1  0  0  0  0
 15 16  1  0  0  0  0
 15 24  1  0  0  0  0
 16 17  1  0  0  0  0
 16 25  1  0  0  0  0
 16 26  1  0  0  0  0
 17 18  1  0  0  0  0
 17 27  1  0  0  0  0
 17 28  1  0  0  0  0
 18 29  1  0  0  0  0
 18 30  1  0  0  0  0
M  END
>  <DRUGBANK_ID>
DB03693

>  <SECONDARY_ACCESSION_NUMBERS>
EXPT00931

>  <COMMON_NAME>
N-(2-Aminoethyl)-5-Chloroisoquinoline-8-Sulfonamide

>  <UNII>
3IE84W82O5

$$$$
