
 OpenBabel10282417143D

  7  6  0  0  0  0  0  0  0  0999 V2000
    0.8441    0.0394   -0.0738 O   0  0  0  0  0  0  0  0  0  0  0  0
    0.2652    1.1889   -0.4264 C   0  0  0  0  0  0  0  0  0  0  0  0
    0.8879    2.1879   -0.7329 O   0  0  0  0  0  0  0  0  0  0  0  0
   -1.2600    1.1438   -0.4126 C   0  0  0  0  0  0  0  0  0  0  0  0
   -1.8938    0.1470   -0.1068 O   0  0  0  0  0  0  0  0  0  0  0  0
    1.8093    0.1900   -0.1200 H   0  0  0  0  0  0  0  0  0  0  0  0
   -1.7286    2.0963   -0.7048 H   0  0  0  0  0  0  0  0  0  0  0  0
  1  2  1  0  0  0  0
  1  6  1  0  0  0  0
  2  3  2  0  0  0  0
  2  4  1  0  0  0  0
  4  5  2  0  0  0  0
  4  7  1  0  0  0  0
M  END
>  <DRUGBANK_ID>
DB04343

>  <SECONDARY_ACCESSION_NUMBERS>
EXPT01614

>  <COMMON_NAME>
Glyoxylic acid

>  <CAS_NUMBER>
298-12-4

>  <UNII>
JQ39C92HH6

$$$$
