
 OpenBabel10282417203D

 85 89  0  0  1  0  0  0  0  0999 V2000
   -4.8850    4.7155   -2.9358 C   0  0  0  0  0  0  0  0  0  0  0  0
   -4.3969    3.8134   -4.0134 C   0  0  0  0  0  0  0  0  0  0  0  0
   -4.3375    2.6000   -3.8581 O   0  0  0  0  0  0  0  0  0  0  0  0
   -4.0761    4.4103   -5.1808 O   0  0  0  0  0  0  0  0  0  0  0  0
   -3.2606    5.5919   -5.2905 C   0  0  1  0  0  0  0  0  0  0  0  0
   -3.8950    7.1190   -4.6540 C   0  0  0  0  0  0  0  0  0  0  0  0
   -3.7157    7.3659   -3.0513 C   0  0  0  0  0  0  0  0  0  0  0  0
   -2.2539    6.9147   -2.6734 C   0  0  1  0  0  0  0  0  0  0  0  0
   -1.9250    5.3211   -3.1465 C   0  0  2  0  0  0  0  0  0  0  0  0
   -1.7370    5.2101   -4.8014 C   0  0  0  0  0  0  0  0  0  0  0  0
   -0.8730    6.2224   -5.8287 C   0  0  0  0  0  0  0  0  0  0  0  0
   -0.8142    4.0038   -4.8922 C   0  0  0  0  0  0  0  0  0  0  0  0
   -0.8617    4.8057   -2.2518 C   0  0  0  0  0  0  0  0  0  0  0  0
   -1.3477    5.2406   -0.9406 C   0  0  0  0  0  0  0  0  0  0  0  0
   -1.4205    6.7015   -0.4381 C   0  0  2  0  0  0  0  0  0  0  0  0
   -1.4480    7.7156   -1.6177 C   0  0  2  0  0  0  0  0  0  0  0  0
    0.1610    8.6790   -2.0671 C   0  0  0  0  0  0  0  0  0  0  0  0
    0.4949    9.0932   -3.2075 O   0  0  0  0  0  0  0  0  0  0  0  0
    1.4253    8.7579   -1.1601 C   0  0  0  0  0  0  0  0  0  0  0  0
    0.9474    7.4840   -0.9039 C   0  0  0  0  0  0  0  0  0  0  0  0
   -0.1764    7.3080    0.2310 C   0  0  1  0  0  0  0  0  0  0  0  0
    0.2158    6.1855    1.3310 C   0  0  0  0  0  0  0  0  0  0  0  0
    0.8790    4.6426    0.7037 C   0  0  0  0  0  0  0  0  0  0  0  0
    1.6433    5.0551   -0.8466 C   0  0  2  0  0  0  0  0  0  0  0  0
    1.4445    6.3126   -1.8824 C   0  0  1  0  0  0  0  0  0  0  0  0
    2.6448    6.2047   -2.9094 C   0  0  0  0  0  0  0  0  0  0  0  0
    2.7459    4.8491   -3.7617 C   0  0  1  0  0  0  0  0  0  0  0  0
    3.1812    3.8424   -2.6448 C   0  0  0  0  0  0  0  0  0  0  0  0
    2.3319    3.8184   -1.3697 C   0  0  0  0  0  0  0  0  0  0  0  0
    2.2043    3.6616   -4.6197 C   0  0  0  0  0  0  0  0  0  0  0  0
    3.2942    5.5641   -5.0267 C   0  0  0  0  0  0  0  0  0  0  0  0
    4.4128    5.9831   -5.2522 O   0  0  0  0  0  0  0  0  0  0  0  0
    2.2697    5.8117   -5.9073 O   0  0  0  0  0  0  0  0  0  0  0  0
    2.6780    5.8086   -0.0684 C   0  0  0  0  0  0  0  0  0  0  0  0
   -0.6563    8.9136    0.6234 C   0  0  0  0  0  0  0  0  0  0  0  0
   -2.4966    6.3895    0.6964 C   0  0  0  0  0  0  0  0  0  0  0  0
   -1.4048    7.4832   -3.6807 C   0  0  0  0  0  0  0  0  0  0  0  0
   -5.5694    4.2146   -2.2680 H   0  0  0  0  0  0  0  0  0  0  0  0
   -5.4017    5.5491   -3.4078 H   0  0  0  0  0  0  0  0  0  0  0  0
   -4.1006    5.0362   -2.2547 H   0  0  0  0  0  0  0  0  0  0  0  0
   -3.2366    5.7928   -6.3783 H   0  0  0  0  0  0  0  0  0  0  0  0
   -4.8310    7.5046   -5.0800 H   0  0  0  0  0  0  0  0  0  0  0  0
   -3.2546    7.9174   -5.1127 H   0  0  0  0  0  0  0  0  0  0  0  0
   -4.0144    8.3981   -2.7746 H   0  0  0  0  0  0  0  0  0  0  0  0
   -4.4212    6.8638   -2.3881 H   0  0  0  0  0  0  0  0  0  0  0  0
   -2.5792    4.4812   -2.8787 H   0  0  0  0  0  0  0  0  0  0  0  0
    0.1181    6.4972   -5.4501 H   0  0  0  0  0  0  0  0  0  0  0  0
   -0.7507    5.7625   -6.8087 H   0  0  0  0  0  0  0  0  0  0  0  0
   -1.3732    7.1790   -6.0495 H   0  0  0  0  0  0  0  0  0  0  0  0
   -1.2122    3.0019   -4.8734 H   0  0  0  0  0  0  0  0  0  0  0  0
    0.1067    4.3292   -5.3662 H   0  0  0  0  0  0  0  0  0  0  0  0
   -0.2377    3.8513   -3.9912 H   0  0  0  0  0  0  0  0  0  0  0  0
    0.0269    5.1396   -2.6906 H   0  0  0  0  0  0  0  0  0  0  0  0
   -0.6130    3.7301   -2.1658 H   0  0  0  0  0  0  0  0  0  0  0  0
   -0.6077    4.9784   -0.3199 H   0  0  0  0  0  0  0  0  0  0  0  0
   -2.0413    4.4517   -0.5949 H   0  0  0  0  0  0  0  0  0  0  0  0
   -2.0971    8.5586   -1.4015 H   0  0  0  0  0  0  0  0  0  0  0  0
    1.5806    9.4989   -0.3798 H   0  0  0  0  0  0  0  0  0  0  0  0
    0.4417    6.7249    2.2655 H   0  0  0  0  0  0  0  0  0  0  0  0
   -0.5427    5.6768    1.9137 H   0  0  0  0  0  0  0  0  0  0  0  0
   -0.0877    4.1633    1.0644 H   0  0  0  0  0  0  0  0  0  0  0  0
    0.5651    3.6761    0.1869 H   0  0  0  0  0  0  0  0  0  0  0  0
    0.7928    6.5115   -2.7206 H   0  0  0  0  0  0  0  0  0  0  0  0
    2.8034    7.1519   -3.4678 H   0  0  0  0  0  0  0  0  0  0  0  0
    3.6000    6.2000   -2.3606 H   0  0  0  0  0  0  0  0  0  0  0  0
    4.2555    3.8075   -2.5085 H   0  0  0  0  0  0  0  0  0  0  0  0
    2.9935    2.7799   -2.8903 H   0  0  0  0  0  0  0  0  0  0  0  0
    3.0028    3.5361   -0.5590 H   0  0  0  0  0  0  0  0  0  0  0  0
    1.5913    3.0018   -1.4456 H   0  0  0  0  0  0  0  0  0  0  0  0
    1.5357    2.9677   -4.1010 H   0  0  0  0  0  0  0  0  0  0  0  0
    1.8140    3.7796   -5.6279 H   0  0  0  0  0  0  0  0  0  0  0  0
    3.1171    3.0728   -4.8689 H   0  0  0  0  0  0  0  0  0  0  0  0
    2.6040    6.0606   -6.7895 H   0  0  0  0  0  0  0  0  0  0  0  0
    3.1922    6.6083   -0.5883 H   0  0  0  0  0  0  0  0  0  0  0  0
    1.8020    6.3174    0.1621 H   0  0  0  0  0  0  0  0  0  0  0  0
    2.7340    5.9583    0.9983 H   0  0  0  0  0  0  0  0  0  0  0  0
   -1.6156    9.2327    0.1821 H   0  0  0  0  0  0  0  0  0  0  0  0
   -0.6599    9.2057    1.6598 H   0  0  0  0  0  0  0  0  0  0  0  0
   -0.0958    9.7202    0.1210 H   0  0  0  0  0  0  0  0  0  0  0  0
   -2.1411    5.5673    1.3552 H   0  0  0  0  0  0  0  0  0  0  0  0
   -2.7000    7.1798    1.4134 H   0  0  0  0  0  0  0  0  0  0  0  0
   -3.3944    5.8753    0.3403 H   0  0  0  0  0  0  0  0  0  0  0  0
   -1.4116    8.4875   -4.0353 H   0  0  0  0  0  0  0  0  0  0  0  0
   -0.4845    6.9396   -3.7375 H   0  0  0  0  0  0  0  0  0  0  0  0
   -1.9751    7.0699   -4.4050 H   0  0  0  0  0  0  0  0  0  0  0  0
  1  2  1  0  0  0  0
  1 38  1  0  0  0  0
  1 39  1  0  0  0  0
  1 40  1  0  0  0  0
  2  3  2  0  0  0  0
  2  4  1  0  0  0  0
  5  6  1  0  0  0  0
  5 10  1  0  0  0  0
  5 41  1  6  0  0  0
  5  4  1  0  0  0  0
  6  7  1  0  0  0  0
  6 42  1  0  0  0  0
  6 43  1  0  0  0  0
  7  8  1  0  0  0  0
  7 44  1  0  0  0  0
  7 45  1  0  0  0  0
  8  9  1  0  0  0  0
  8 16  1  0  0  0  0
  8 37  1  1  0  0  0
  9 10  1  0  0  0  0
  9 13  1  0  0  0  0
  9 46  1  6  0  0  0
 10 11  1  0  0  0  0
 10 12  1  0  0  0  0
 11 47  1  0  0  0  0
 11 48  1  0  0  0  0
 11 49  1  0  0  0  0
 12 50  1  0  0  0  0
 12 51  1  0  0  0  0
 12 52  1  0  0  0  0
 13 14  1  0  0  0  0
 13 53  1  0  0  0  0
 13 54  1  0  0  0  0
 14 15  1  0  0  0  0
 14 55  1  0  0  0  0
 14 56  1  0  0  0  0
 15 16  1  0  0  0  0
 15 21  1  0  0  0  0
 15 36  1  1  0  0  0
 16 17  1  0  0  0  0
 16 57  1  6  0  0  0
 17 19  1  0  0  0  0
 17 18  2  0  0  0  0
 19 20  2  0  0  0  0
 19 58  1  0  0  0  0
 20 21  1  0  0  0  0
 21 22  1  0  0  0  0
 21 35  1  6  0  0  0
 22 23  1  0  0  0  0
 22 59  1  0  0  0  0
 22 60  1  0  0  0  0
 23 24  1  0  0  0  0
 23 61  1  0  0  0  0
 23 62  1  0  0  0  0
 24 25  1  0  0  0  0
 24 29  1  0  0  0  0
 24 34  1  1  0  0  0
 25 20  1  0  0  0  0
 25 26  1  0  0  0  0
 25 63  1  1  0  0  0
 26 27  1  0  0  0  0
 26 64  1  0  0  0  0
 26 65  1  0  0  0  0
 27 28  1  0  0  0  0
 27 31  1  6  0  0  0
 27 30  1  0  0  0  0
 28 29  1  0  0  0  0
 28 66  1  0  0  0  0
 28 67  1  0  0  0  0
 29 68  1  0  0  0  0
 29 69  1  0  0  0  0
 30 70  1  0  0  0  0
 30 71  1  0  0  0  0
 30 72  1  0  0  0  0
 31 32  2  0  0  0  0
 31 33  1  0  0  0  0
 33 73  1  0  0  0  0
 34 74  1  0  0  0  0
 34 75  1  0  0  0  0
 34 76  1  0  0  0  0
 35 77  1  0  0  0  0
 35 78  1  0  0  0  0
 35 79  1  0  0  0  0
 36 80  1  0  0  0  0
 36 81  1  0  0  0  0
 36 82  1  0  0  0  0
 37 83  1  0  0  0  0
 37 84  1  0  0  0  0
 37 85  1  0  0  0  0
M  END
>  <DRUGBANK_ID>
DB13640

>  <COMMON_NAME>
Acetoxolone

>  <CAS_NUMBER>
6277-14-1

>  <UNII>
CWW961Q19K

$$$$
