HPH
 OpenBabel10282417163D

 25 25  0  0  0  0  0  0  0  0999 V2000
    1.0350    0.0389   -0.0264 C   0  0  0  0  0  0  0  0  0  0  0  0
    0.4873    1.2941   -0.3651 O   0  0  0  0  0  0  0  0  0  0  0  0
    0.6065   -0.8229   -1.0705 O   0  0  0  0  0  0  0  0  0  0  0  0
    0.5513   -0.5348    1.3423 C   0  0  1  0  0  0  0  0  0  0  0  0
    1.0215   -1.9321    1.5142 N   0  0  0  0  0  0  0  0  0  0  0  0
    1.0338    0.2930    2.5522 C   0  0  0  0  0  0  0  0  0  0  0  0
    0.5187    1.7116    2.5717 C   0  0  0  0  0  0  0  0  0  0  0  0
   -0.8585    1.9595    2.6053 C   0  0  0  0  0  0  0  0  0  0  0  0
    1.4086    2.7936    2.4781 C   0  0  0  0  0  0  0  0  0  0  0  0
   -1.3448    3.2647    2.5454 C   0  0  0  0  0  0  0  0  0  0  0  0
    0.9185    4.1006    2.4438 C   0  0  0  0  0  0  0  0  0  0  0  0
   -0.4531    4.3336    2.4727 C   0  0  0  0  0  0  0  0  0  0  0  0
   -0.5458   -0.5685    1.3311 H   0  0  0  0  0  0  0  0  0  0  0  0
    2.1286    0.0964   -0.0546 H   0  0  0  0  0  0  0  0  0  0  0  0
    0.8364    1.9507    0.2590 H   0  0  0  0  0  0  0  0  0  0  0  0
    0.8486   -0.3248   -1.8696 H   0  0  0  0  0  0  0  0  0  0  0  0
    0.5732   -2.3484    2.3282 H   0  0  0  0  0  0  0  0  0  0  0  0
    0.6856   -2.4547    0.6986 H   0  0  0  0  0  0  0  0  0  0  0  0
    0.7045   -0.1843    3.4860 H   0  0  0  0  0  0  0  0  0  0  0  0
    2.1312    0.2902    2.5851 H   0  0  0  0  0  0  0  0  0  0  0  0
   -1.5692    1.1355    2.6400 H   0  0  0  0  0  0  0  0  0  0  0  0
    2.4787    2.6267    2.3867 H   0  0  0  0  0  0  0  0  0  0  0  0
   -2.4153    3.4427    2.5463 H   0  0  0  0  0  0  0  0  0  0  0  0
    1.6105    4.9377    2.3832 H   0  0  0  0  0  0  0  0  0  0  0  0
   -0.8351    5.3510    2.4280 H   0  0  0  0  0  0  0  0  0  0  0  0
  1  2  1  0  0  0  0
  1  3  1  0  0  0  0
  1  4  1  0  0  0  0
  1 14  1  0  0  0  0
  2 15  1  0  0  0  0
  3 16  1  0  0  0  0
  4  5  1  0  0  0  0
  4  6  1  0  0  0  0
  4 13  1  1  0  0  0
  5 17  1  0  0  0  0
  5 18  1  0  0  0  0
  6  7  1  0  0  0  0
  6 19  1  0  0  0  0
  6 20  1  0  0  0  0
  7  8  2  0  0  0  0
  7  9  1  0  0  0  0
  8 10  1  0  0  0  0
  8 21  1  0  0  0  0
  9 11  2  0  0  0  0
  9 22  1  0  0  0  0
 10 12  2  0  0  0  0
 10 23  1  0  0  0  0
 11 12  1  0  0  0  0
 11 24  1  0  0  0  0
 12 25  1  0  0  0  0
M  END
>  <DRUGBANK_ID>
DB07910

>  <COMMON_NAME>
(2S)-2-amino-3-phenylpropane-1,1-diol

$$$$
