3B3
 OpenBabel10282417163D

 33 34  0  0  0  0  0  0  0  0999 V2000
    3.2630    7.3796    5.4125 C   0  0  0  0  0  0  0  0  0  0  0  0
    3.3243    5.9981    5.5265 C   0  0  0  0  0  0  0  0  0  0  0  0
    2.7410    5.2740    4.5393 C   0  0  0  0  0  0  0  0  0  0  0  0
    2.1254    5.8583    3.5099 N   0  0  0  0  0  0  0  0  0  0  0  0
    2.0631    7.1910    3.3403 C   0  0  0  0  0  0  0  0  0  0  0  0
    1.4177    7.7039    2.1799 C   0  0  0  0  0  0  0  0  0  0  0  0
    0.7192    6.9024    1.2410 N   0  0  0  0  0  0  0  0  0  0  0  0
    1.0001    5.4669    1.0742 C   0  0  0  0  0  0  0  0  0  0  0  0
    1.3307    9.1010    2.0272 C   0  0  0  0  0  0  0  0  0  0  0  0
    1.8711    9.9659    2.9821 C   0  0  0  0  0  0  0  0  0  0  0  0
    2.5153    9.4526    4.1205 C   0  0  0  0  0  0  0  0  0  0  0  0
    2.6338    8.0432    4.3157 C   0  0  0  0  0  0  0  0  0  0  0  0
   -0.2266    4.5327    1.1311 C   0  0  2  0  0  0  0  0  0  0  0  0
   -0.1965    3.5796   -0.0831 C   0  0  0  0  0  0  0  0  0  0  0  0
   -1.2195    3.9597   -1.0603 N   0  0  0  0  0  0  0  0  0  0  0  0
    3.6111   10.0469    6.1182 O   0  0  0  0  0  0  0  0  0  0  0  0
    2.8772   11.6426    4.8380 O   0  5  0  0  0  0  0  0  0  0  0  0
    3.0407   10.4365    5.0999 N   0  3  0  0  0  0  0  0  0  0  0  0
   -1.4854    5.2171    1.1986 O   0  0  0  0  0  0  0  0  0  0  0  0
   -0.1712    3.9247    2.0442 H   0  0  0  0  0  0  0  0  0  0  0  0
    3.7309    7.9185    6.2266 H   0  0  0  0  0  0  0  0  0  0  0  0
    3.8054    5.5154    6.3653 H   0  0  0  0  0  0  0  0  0  0  0  0
    2.7365    4.1904    4.5224 H   0  0  0  0  0  0  0  0  0  0  0  0
    0.4995    7.3647    0.3636 H   0  0  0  0  0  0  0  0  0  0  0  0
    1.5888    5.3407    0.1597 H   0  0  0  0  0  0  0  0  0  0  0  0
    1.6702    5.0109    1.7872 H   0  0  0  0  0  0  0  0  0  0  0  0
    0.8271    9.5356    1.1639 H   0  0  0  0  0  0  0  0  0  0  0  0
    1.7659   11.0412    2.8322 H   0  0  0  0  0  0  0  0  0  0  0  0
    0.7863    3.5685   -0.5682 H   0  0  0  0  0  0  0  0  0  0  0  0
   -0.3697    2.5509    0.2529 H   0  0  0  0  0  0  0  0  0  0  0  0
   -1.2385    3.2745   -1.8124 H   0  0  0  0  0  0  0  0  0  0  0  0
   -2.1199    3.8758   -0.5761 H   0  0  0  0  0  0  0  0  0  0  0  0
   -1.5237    5.7268    0.3695 H   0  0  0  0  0  0  0  0  0  0  0  0
  1  2  2  0  0  0  0
  1 12  1  0  0  0  0
  1 21  1  0  0  0  0
  2  3  1  0  0  0  0
  2 22  1  0  0  0  0
  3  4  2  0  0  0  0
  3 23  1  0  0  0  0
  4  5  1  0  0  0  0
  5  6  2  0  0  0  0
  5 12  1  0  0  0  0
  6  7  1  0  0  0  0
  6  9  1  0  0  0  0
  7  8  1  0  0  0  0
  7 24  1  0  0  0  0
  8 25  1  0  0  0  0
  8 26  1  0  0  0  0
  9 10  2  0  0  0  0
  9 27  1  0  0  0  0
 10 11  1  0  0  0  0
 10 28  1  0  0  0  0
 11 12  2  0  0  0  0
 11 18  1  0  0  0  0
 13 19  1  0  0  0  0
 13 20  1  1  0  0  0
 13 14  1  0  0  0  0
 13  8  1  0  0  0  0
 14 15  1  0  0  0  0
 14 29  1  0  0  0  0
 14 30  1  0  0  0  0
 15 31  1  0  0  0  0
 15 32  1  0  0  0  0
 16 18  2  0  0  0  0
 17 18  1  0  0  0  0
 19 33  1  0  0  0  0
M  CHG  2  17  -1  18   1
M  END
>  <DRUGBANK_ID>
DB07037

>  <COMMON_NAME>
(2S)-1-AMINO-3-[(5-NITROQUINOLIN-8-YL)AMINO]PROPAN-2-OL

$$$$
