
 OpenBabel10282417223D

  2  1  0  0  0  0  0  0  0  0999 V2000
    0.9891    0.0468   -0.0812 I   0  0  0  0  0  0  0  0  0  0  0  0
    2.6410    0.0468   -0.0812 H   0  0  0  0  0  0  0  0  0  0  0  0
  1  2  1  0  0  0  0
M  END
>  <DRUGBANK_ID>
DB15778

>  <COMMON_NAME>
Hydrogen iodide

>  <CAS_NUMBER>
10034-85-2

>  <UNII>
694C0EFT9Q

>  <SYNONYMS>
Acide iodhydrique; Acido yodhidrico; Hydriodic acid; Hydrogen iodide, anhydrous

$$$$
