
 OpenBabel10282417153D

 94 93  0  0  0  0  0  0  0  0999 V2000
   -1.6424   -7.1571   -1.5371 N   0  0  0  0  0  0  0  0  0  0  0  0
   -1.7821   -6.4239   -2.9105 C   0  0  2  0  0  0  0  0  0  0  0  0
   -3.2759   -5.8345   -3.1813 C   0  0  0  0  0  0  0  0  0  0  0  0
   -3.5923   -4.5542   -2.6842 O   0  0  0  0  0  0  0  0  0  0  0  0
   -3.4298   -4.3496   -1.3463 C   0  0  0  0  0  0  0  0  0  0  0  0
   -4.4956   -5.1707   -0.7172 C   0  0  0  0  0  0  0  0  0  0  0  0
   -3.6836   -5.5994   -4.5230 O   0  0  0  0  0  0  0  0  0  0  0  0
   -2.9344   -4.5344   -5.1041 C   0  0  0  0  0  0  0  0  0  0  0  0
   -2.7644   -3.1238   -4.5713 C   0  0  0  0  0  0  0  0  0  0  0  0
   -1.2493   -7.4219   -3.9324 C   0  0  0  0  0  0  0  0  0  0  0  0
   -1.1811   -6.9158   -5.3608 C   0  0  0  0  0  0  0  0  0  0  0  0
   -0.2781   -5.6762   -5.5382 C   0  0  0  0  0  0  0  0  0  0  0  0
    1.0799   -6.0711   -5.4997 N   0  0  0  0  0  0  0  0  0  0  0  0
    1.9795   -5.7900   -6.4457 C   0  0  0  0  0  0  0  0  0  0  0  0
    3.2169   -6.0777   -6.2727 N   0  0  0  0  0  0  0  0  0  0  0  0
    1.5442   -5.2139   -7.5714 N   0  0  0  0  0  0  0  0  0  0  0  0
   -0.9943   -6.5598   -0.5212 C   0  0  0  0  0  0  0  0  0  0  0  0
   -1.0269   -6.9814    1.1440 C   0  0  1  0  0  0  0  0  0  0  0  0
    0.1101   -6.6102    2.0257 N   0  0  0  0  0  0  0  0  0  0  0  0
    0.2120   -5.6982    3.0997 C   0  0  0  0  0  0  0  0  0  0  0  0
    1.3792   -5.6007    3.5077 O   0  0  0  0  0  0  0  0  0  0  0  0
   -0.9725   -4.7504    3.6994 C   0  0  0  0  0  0  0  0  0  0  0  0
   -1.9191   -3.6657    2.9410 C   0  0  0  0  0  0  0  0  0  0  0  0
   -2.1472   -3.7755    1.5203 C   0  0  0  0  0  0  0  0  0  0  0  0
   -3.2854   -3.5023    1.0636 O   0  0  0  0  0  0  0  0  0  0  0  0
   -1.1246   -4.1398    0.7452 N   0  0  0  0  0  0  0  0  0  0  0  0
    0.3676   -4.0035    0.8899 C   0  0  2  0  0  0  0  0  0  0  0  0
    0.5032   -2.7078    1.6879 C   0  0  0  0  0  0  0  0  0  0  0  0
    0.5642   -2.4268    3.2522 C   0  0  0  0  0  0  0  0  0  0  0  0
    1.6084   -2.8648    3.8012 O   0  5  0  0  0  0  0  0  0  0  0  0
   -0.3595   -1.7644    3.7946 O   0  0  0  0  0  0  0  0  0  0  0  0
    1.3372   -4.4526   -0.3874 C   0  0  0  0  0  0  0  0  0  0  0  0
    2.8353   -4.4755   -0.1592 N   0  3  0  0  0  0  0  0  0  0  0  0
    3.2970   -5.6336    0.7310 C   0  0  0  0  0  0  0  0  0  0  0  0
    3.5173   -4.5807   -1.4992 C   0  0  0  0  0  0  0  0  0  0  0  0
    3.1523   -3.1883    0.4905 C   0  0  0  0  0  0  0  0  0  0  0  0
   -2.1998   -6.6888    2.0956 C   0  0  0  0  0  0  0  0  0  0  0  0
   -3.5827   -6.7999    1.6333 C   0  0  0  0  0  0  0  0  0  0  0  0
   -3.8221   -8.2541    1.5617 C   0  0  0  0  0  0  0  0  0  0  0  0
   -4.6268   -5.9699    2.4457 C   0  0  0  0  0  0  0  0  0  0  0  0
   -0.5339   -5.5181   -0.9772 O   0  0  0  0  0  0  0  0  0  0  0  0
   -1.7973   -8.1471   -1.4635 H   0  0  0  0  0  0  0  0  0  0  0  0
   -1.0996   -5.5556   -2.9621 H   0  0  0  0  0  0  0  0  0  0  0  0
   -3.9433   -6.5921   -2.7788 H   0  0  0  0  0  0  0  0  0  0  0  0
   -2.4508   -4.6985   -1.1671 H   0  0  0  0  0  0  0  0  0  0  0  0
   -3.3926   -3.2826   -1.1084 H   0  0  0  0  0  0  0  0  0  0  0  0
   -4.3098   -6.2300   -0.9333 H   0  0  0  0  0  0  0  0  0  0  0  0
   -4.5064   -5.0231    0.3370 H   0  0  0  0  0  0  0  0  0  0  0  0
   -5.4948   -4.9438   -1.0539 H   0  0  0  0  0  0  0  0  0  0  0  0
   -1.9805   -4.8368   -4.8096 H   0  0  0  0  0  0  0  0  0  0  0  0
   -2.9853   -4.6056   -6.1891 H   0  0  0  0  0  0  0  0  0  0  0  0
   -2.2797   -3.1079   -3.5814 H   0  0  0  0  0  0  0  0  0  0  0  0
   -2.0341   -2.5930   -5.1912 H   0  0  0  0  0  0  0  0  0  0  0  0
   -3.7198   -2.6186   -4.5165 H   0  0  0  0  0  0  0  0  0  0  0  0
   -0.2364   -7.7316   -3.6404 H   0  0  0  0  0  0  0  0  0  0  0  0
   -1.8880   -8.3047   -3.8672 H   0  0  0  0  0  0  0  0  0  0  0  0
   -0.8575   -7.7126   -6.0324 H   0  0  0  0  0  0  0  0  0  0  0  0
   -2.2021   -6.7391   -5.7029 H   0  0  0  0  0  0  0  0  0  0  0  0
   -0.6092   -5.1743   -6.4534 H   0  0  0  0  0  0  0  0  0  0  0  0
   -0.2947   -4.8795   -4.7807 H   0  0  0  0  0  0  0  0  0  0  0  0
    1.4014   -6.3336   -4.5785 H   0  0  0  0  0  0  0  0  0  0  0  0
    3.3075   -6.5318   -5.3651 H   0  0  0  0  0  0  0  0  0  0  0  0
    0.5936   -4.9522   -7.7704 H   0  0  0  0  0  0  0  0  0  0  0  0
    2.2020   -5.1089   -8.3256 H   0  0  0  0  0  0  0  0  0  0  0  0
   -0.9390   -8.0583    1.0403 H   0  0  0  0  0  0  0  0  0  0  0  0
    1.0244   -6.9140    1.7158 H   0  0  0  0  0  0  0  0  0  0  0  0
   -1.6380   -5.4727    4.1889 H   0  0  0  0  0  0  0  0  0  0  0  0
   -0.5620   -4.2701    4.5929 H   0  0  0  0  0  0  0  0  0  0  0  0
   -2.8798   -3.5528    3.4531 H   0  0  0  0  0  0  0  0  0  0  0  0
   -1.6551   -2.6368    2.7424 H   0  0  0  0  0  0  0  0  0  0  0  0
   -1.5094   -4.8268    0.1421 H   0  0  0  0  0  0  0  0  0  0  0  0
    0.7802   -4.7664    1.4724 H   0  0  0  0  0  0  0  0  0  0  0  0
    1.4715   -2.3270    1.5316 H   0  0  0  0  0  0  0  0  0  0  0  0
   -0.1318   -2.0124    1.1400 H   0  0  0  0  0  0  0  0  0  0  0  0
    1.2823   -5.5161   -0.6891 H   0  0  0  0  0  0  0  0  0  0  0  0
    1.1054   -3.8436   -1.2699 H   0  0  0  0  0  0  0  0  0  0  0  0
    3.1140   -6.5898    0.2226 H   0  0  0  0  0  0  0  0  0  0  0  0
    4.3601   -5.4965    0.9339 H   0  0  0  0  0  0  0  0  0  0  0  0
    2.7552   -5.6185    1.6688 H   0  0  0  0  0  0  0  0  0  0  0  0
    3.0937   -3.8212   -2.1616 H   0  0  0  0  0  0  0  0  0  0  0  0
    4.5805   -4.4105   -1.3344 H   0  0  0  0  0  0  0  0  0  0  0  0
    3.3407   -5.5800   -1.9156 H   0  0  0  0  0  0  0  0  0  0  0  0
    2.5433   -2.4311   -0.0269 H   0  0  0  0  0  0  0  0  0  0  0  0
    2.9318   -3.3443    1.5450 H   0  0  0  0  0  0  0  0  0  0  0  0
    4.2013   -2.9562    0.4043 H   0  0  0  0  0  0  0  0  0  0  0  0
   -2.0499   -7.1856    3.0615 H   0  0  0  0  0  0  0  0  0  0  0  0
   -2.2336   -5.6738    2.3468 H   0  0  0  0  0  0  0  0  0  0  0  0
   -3.4553   -6.4743    0.6301 H   0  0  0  0  0  0  0  0  0  0  0  0
   -3.6749   -8.6740    2.5576 H   0  0  0  0  0  0  0  0  0  0  0  0
   -4.8040   -8.4253    1.1451 H   0  0  0  0  0  0  0  0  0  0  0  0
   -3.0658   -8.6635    0.8821 H   0  0  0  0  0  0  0  0  0  0  0  0
   -4.5114   -4.8748    2.4086 H   0  0  0  0  0  0  0  0  0  0  0  0
   -5.6360   -6.1363    2.0556 H   0  0  0  0  0  0  0  0  0  0  0  0
   -4.5977   -6.1895    3.5144 H   0  0  0  0  0  0  0  0  0  0  0  0
  1 17  1  0  0  0  0
  1 42  1  0  0  0  0
  2 10  1  0  0  0  0
  2 43  1  1  0  0  0
  2  3  1  0  0  0  0
  2  1  1  0  0  0  0
  3  4  1  0  0  0  0
  3  7  1  0  0  0  0
  3 44  1  0  0  0  0
  4  5  1  0  0  0  0
  5  6  1  0  0  0  0
  5 45  1  0  0  0  0
  5 46  1  0  0  0  0
  6 47  1  0  0  0  0
  6 48  1  0  0  0  0
  6 49  1  0  0  0  0
  7  8  1  0  0  0  0
  8  9  1  0  0  0  0
  8 50  1  0  0  0  0
  8 51  1  0  0  0  0
  9 52  1  0  0  0  0
  9 53  1  0  0  0  0
  9 54  1  0  0  0  0
 10 55  1  0  0  0  0
 10 56  1  0  0  0  0
 11 10  1  0  0  0  0
 11 12  1  0  0  0  0
 11 57  1  0  0  0  0
 11 58  1  0  0  0  0
 12 13  1  0  0  0  0
 12 59  1  0  0  0  0
 12 60  1  0  0  0  0
 13 14  1  0  0  0  0
 13 61  1  0  0  0  0
 14 15  2  0  0  0  0
 14 16  1  0  0  0  0
 15 62  1  0  0  0  0
 16 63  1  0  0  0  0
 16 64  1  0  0  0  0
 17 18  1  0  0  0  0
 18 19  1  0  0  0  0
 18 37  1  0  0  0  0
 18 65  1  6  0  0  0
 19 66  1  0  0  0  0
 20 19  1  0  0  0  0
 20 21  2  0  0  0  0
 22 20  1  0  0  0  0
 22 67  1  0  0  0  0
 22 68  1  0  0  0  0
 23 22  1  0  0  0  0
 23 69  1  0  0  0  0
 23 70  1  0  0  0  0
 24 23  1  0  0  0  0
 24 25  2  0  0  0  0
 26 24  1  0  0  0  0
 26 71  1  0  0  0  0
 27 72  1  1  0  0  0
 27 28  1  0  0  0  0
 27 26  1  0  0  0  0
 28 29  1  0  0  0  0
 28 73  1  0  0  0  0
 28 74  1  0  0  0  0
 29 30  1  0  0  0  0
 29 31  2  0  0  0  0
 32 27  1  0  0  0  0
 32 75  1  0  0  0  0
 32 76  1  0  0  0  0
 33 32  1  0  0  0  0
 33 34  1  0  0  0  0
 33 35  1  0  0  0  0
 34 77  1  0  0  0  0
 34 78  1  0  0  0  0
 34 79  1  0  0  0  0
 35 80  1  0  0  0  0
 35 81  1  0  0  0  0
 35 82  1  0  0  0  0
 36 33  1  0  0  0  0
 36 83  1  0  0  0  0
 36 84  1  0  0  0  0
 36 85  1  0  0  0  0
 37 38  1  0  0  0  0
 37 86  1  0  0  0  0
 37 87  1  0  0  0  0
 38 40  1  0  0  0  0
 38 88  1  0  0  0  0
 39 38  1  0  0  0  0
 39 89  1  0  0  0  0
 39 90  1  0  0  0  0
 39 91  1  0  0  0  0
 40 92  1  0  0  0  0
 40 93  1  0  0  0  0
 40 94  1  0  0  0  0
 41 17  2  0  0  0  0
M  CHG  2  30  -1  33   1
M  END
>  <DRUGBANK_ID>
DB06124

>  <COMMON_NAME>
L-aminocarnityl-succinyl-leucyl-argininal-diethylacetal

>  <CAS_NUMBER>
1006685-44-4

>  <UNII>
BK727F83NO

$$$$
