
 OpenBabel10282417103D

 81 84  0  0  0  0  0  0  0  0999 V2000
    0.3638    1.5658   -1.0985 C   0  0  0  0  0  0  0  0  0  0  0  0
    0.6983    2.7001   -2.4000 C   0  0  0  0  0  0  0  0  0  0  0  0
    1.3861    1.6493   -2.6773 C   0  0  0  0  0  0  0  0  0  0  0  0
    2.6359    1.1142   -2.0074 C   0  0  2  0  0  0  0  0  0  0  0  0
    2.7990    1.4851   -0.5260 C   0  0  2  0  0  0  0  0  0  0  0  0
    3.8596    0.4379   -0.2224 C   0  0  0  0  0  0  0  0  0  0  0  0
    4.2544    0.5827    1.1893 C   0  0  2  0  0  0  0  0  0  0  0  0
    5.3879   -0.3659    1.2507 C   0  0  0  0  0  0  0  0  0  0  0  0
    5.9269   -0.6190    2.5712 C   0  0  0  0  0  0  0  0  0  0  0  0
    7.2892   -0.9450    2.6349 C   0  0  0  0  0  0  0  0  0  0  0  0
    7.7147   -1.1269    3.9398 C   0  0  0  0  0  0  0  0  0  0  0  0
    6.9019   -1.0400    5.0881 C   0  0  0  0  0  0  0  0  0  0  0  0
    5.5401   -0.7349    4.9443 C   0  0  0  0  0  0  0  0  0  0  0  0
    5.0290   -0.5255    3.6626 C   0  0  0  0  0  0  0  0  0  0  0  0
    3.5574   -0.2071    3.4260 C   0  0  0  0  0  0  0  0  0  0  0  0
    3.0948    0.2544    2.0388 C   0  0  0  0  0  0  0  0  0  0  0  0
    1.8161    0.4563    1.5767 C   0  0  0  0  0  0  0  0  0  0  0  0
    1.4631    1.3020    0.2071 C   0  0  2  0  0  0  0  0  0  0  0  0
    1.5781    3.4698   -3.6828 C   0  0  0  0  0  0  0  0  0  0  0  0
    2.7058    3.2016   -4.1241 O   0  0  0  0  0  0  0  0  0  0  0  0
    1.4691    4.4547   -4.6016 N   0  0  0  0  0  0  0  0  0  0  0  0
    2.8081   -0.2464    4.3982 O   0  0  0  0  0  0  0  0  0  0  0  0
   -0.6289    0.8245   -1.1896 O   0  0  0  0  0  0  0  0  0  0  0  0
    0.8560    2.4616    0.8435 O   0  0  0  0  0  0  0  0  0  0  0  0
    0.7971    0.1474    2.4683 O   0  0  0  0  0  0  0  0  0  0  0  0
    4.7496   -0.6396    6.0639 O   0  0  0  0  0  0  0  0  0  0  0  0
    0.9149    0.6530   -3.5376 O   0  0  0  0  0  0  0  0  0  0  0  0
    7.4605   -1.2749    6.3704 N   0  0  0  0  0  0  0  0  0  0  0  0
    8.1641   -1.0831    1.5535 N   0  0  0  0  0  0  0  0  0  0  0  0
    7.9178   -0.9725    0.1055 C   0  0  0  0  0  0  0  0  0  0  0  0
    9.5880   -1.3540    1.8180 C   0  0  0  0  0  0  0  0  0  0  0  0
    3.7792    1.3354   -2.9272 N   0  0  0  0  0  0  0  0  0  0  0  0
    3.4113    1.0283   -4.4492 C   0  0  0  0  0  0  0  0  0  0  0  0
    4.2627    2.7326   -2.5447 C   0  0  0  0  0  0  0  0  0  0  0  0
    3.1613    2.4819   -0.2528 H   0  0  0  0  0  0  0  0  0  0  0  0
    4.6274    1.5962    1.3799 H   0  0  0  0  0  0  0  0  0  0  0  0
    8.7988   -1.5873    6.5967 C   0  0  0  0  0  0  0  0  0  0  0  0
    9.1815   -1.7967    8.0383 C   0  0  0  0  0  0  0  0  0  0  0  0
    9.6906   -1.6893    5.7539 O   0  0  0  0  0  0  0  0  0  0  0  0
    9.7747   -3.1366    8.2036 N   0  0  0  0  0  0  0  0  0  0  0  0
   10.3086   -3.3813    9.5471 C   0  0  0  0  0  0  0  0  0  0  0  0
    9.1808   -3.2615   10.5785 C   0  0  0  0  0  0  0  0  0  0  0  0
   10.8801   -4.8093    9.6045 C   0  0  0  0  0  0  0  0  0  0  0  0
   11.4463   -2.3980    9.8679 C   0  0  0  0  0  0  0  0  0  0  0  0
    2.4704    0.0309   -1.9286 H   0  0  0  0  0  0  0  0  0  0  0  0
    3.5231   -0.6035   -0.4097 H   0  0  0  0  0  0  0  0  0  0  0  0
    4.7428    0.5526   -0.8696 H   0  0  0  0  0  0  0  0  0  0  0  0
    6.1373    0.2431    0.7473 H   0  0  0  0  0  0  0  0  0  0  0  0
    5.1939   -1.3412    0.7775 H   0  0  0  0  0  0  0  0  0  0  0  0
    8.7561   -1.3584    4.0513 H   0  0  0  0  0  0  0  0  0  0  0  0
    0.9126    5.1869   -4.9904 H   0  0  0  0  0  0  0  0  0  0  0  0
    2.3675    4.3924   -5.1366 H   0  0  0  0  0  0  0  0  0  0  0  0
    1.5519    3.0636    1.1234 H   0  0  0  0  0  0  0  0  0  0  0  0
   -0.0484    0.5028    2.1591 H   0  0  0  0  0  0  0  0  0  0  0  0
    3.8269   -0.4571    5.7552 H   0  0  0  0  0  0  0  0  0  0  0  0
    1.6725    0.0552   -3.5835 H   0  0  0  0  0  0  0  0  0  0  0  0
    6.8028   -1.2033    7.1429 H   0  0  0  0  0  0  0  0  0  0  0  0
    8.3672   -0.0462   -0.2744 H   0  0  0  0  0  0  0  0  0  0  0  0
    8.3418   -1.8348   -0.4126 H   0  0  0  0  0  0  0  0  0  0  0  0
    6.8992   -1.0070   -0.2681 H   0  0  0  0  0  0  0  0  0  0  0  0
   10.0444   -0.5668    2.4276 H   0  0  0  0  0  0  0  0  0  0  0  0
    9.7105   -2.3330    2.2909 H   0  0  0  0  0  0  0  0  0  0  0  0
   10.1600   -1.3854    0.8819 H   0  0  0  0  0  0  0  0  0  0  0  0
    2.4577    1.4205   -4.8909 H   0  0  0  0  0  0  0  0  0  0  0  0
    4.1509    1.3611   -5.1801 H   0  0  0  0  0  0  0  0  0  0  0  0
    3.2177   -0.0449   -4.6226 H   0  0  0  0  0  0  0  0  0  0  0  0
    3.4663    3.4778   -2.3184 H   0  0  0  0  0  0  0  0  0  0  0  0
    4.7380    2.7600   -1.5581 H   0  0  0  0  0  0  0  0  0  0  0  0
    4.9469    3.1743   -3.2632 H   0  0  0  0  0  0  0  0  0  0  0  0
    9.9261   -1.0167    8.2248 H   0  0  0  0  0  0  0  0  0  0  0  0
    8.3199   -1.6314    8.6843 H   0  0  0  0  0  0  0  0  0  0  0  0
    9.0996   -3.8520    7.9339 H   0  0  0  0  0  0  0  0  0  0  0  0
    8.3685   -3.9617   10.3495 H   0  0  0  0  0  0  0  0  0  0  0  0
    9.5459   -3.4718   11.5864 H   0  0  0  0  0  0  0  0  0  0  0  0
    8.7563   -2.2531   10.6060 H   0  0  0  0  0  0  0  0  0  0  0  0
   11.7056   -4.9489    8.8962 H   0  0  0  0  0  0  0  0  0  0  0  0
   11.2704   -5.0232   10.6072 H   0  0  0  0  0  0  0  0  0  0  0  0
   10.1159   -5.5631    9.3836 H   0  0  0  0  0  0  0  0  0  0  0  0
   12.2651   -2.4866    9.1431 H   0  0  0  0  0  0  0  0  0  0  0  0
   11.1105   -1.3567    9.8661 H   0  0  0  0  0  0  0  0  0  0  0  0
   11.8545   -2.5870   10.8652 H   0  0  0  0  0  0  0  0  0  0  0  0
  2  1  1  0  0  0  0
  3  2  2  0  0  0  0
  4  3  1  0  0  0  0
  4 32  1  0  0  0  0
  4 45  1  1  0  0  0
  5  4  1  0  0  0  0
  5 35  1  1  0  0  0
  6  5  1  0  0  0  0
  6 46  1  0  0  0  0
  6 47  1  0  0  0  0
  7  6  1  0  0  0  0
  7 36  1  1  0  0  0
  8  7  1  0  0  0  0
  8 48  1  0  0  0  0
  8 49  1  0  0  0  0
  9  8  1  0  0  0  0
 10  9  1  0  0  0  0
 11 10  2  0  0  0  0
 11 50  1  0  0  0  0
 12 11  1  0  0  0  0
 13 12  2  0  0  0  0
 14  9  2  0  0  0  0
 14 13  1  0  0  0  0
 15 14  1  0  0  0  0
 16  7  1  0  0  0  0
 16 15  1  0  0  0  0
 17 16  2  0  0  0  0
 18  1  1  0  0  0  0
 18  5  1  0  0  0  0
 18 17  1  0  0  0  0
 18 24  1  1  0  0  0
 19  2  1  0  0  0  0
 20 19  2  0  0  0  0
 21 19  1  0  0  0  0
 21 51  1  0  0  0  0
 21 52  1  0  0  0  0
 22 15  2  0  0  0  0
 23  1  2  0  0  0  0
 24 53  1  0  0  0  0
 25 17  1  0  0  0  0
 25 54  1  0  0  0  0
 26 13  1  0  0  0  0
 26 55  1  0  0  0  0
 27  3  1  0  0  0  0
 27 56  1  0  0  0  0
 28 12  1  0  0  0  0
 28 37  1  0  0  0  0
 28 57  1  0  0  0  0
 29 10  1  0  0  0  0
 30 29  1  0  0  0  0
 30 58  1  0  0  0  0
 30 59  1  0  0  0  0
 30 60  1  0  0  0  0
 31 29  1  0  0  0  0
 31 61  1  0  0  0  0
 31 62  1  0  0  0  0
 31 63  1  0  0  0  0
 33 32  1  0  0  0  0
 33 64  1  0  0  0  0
 33 65  1  0  0  0  0
 33 66  1  0  0  0  0
 34 32  1  0  0  0  0
 34 67  1  0  0  0  0
 34 68  1  0  0  0  0
 34 69  1  0  0  0  0
 37 38  1  0  0  0  0
 37 39  2  0  0  0  0
 38 40  1  0  0  0  0
 38 70  1  0  0  0  0
 38 71  1  0  0  0  0
 40 41  1  0  0  0  0
 40 72  1  0  0  0  0
 41 42  1  0  0  0  0
 41 43  1  0  0  0  0
 41 44  1  0  0  0  0
 42 73  1  0  0  0  0
 42 74  1  0  0  0  0
 42 75  1  0  0  0  0
 43 76  1  0  0  0  0
 43 77  1  0  0  0  0
 43 78  1  0  0  0  0
 44 79  1  0  0  0  0
 44 80  1  0  0  0  0
 44 81  1  0  0  0  0
M  END
>  <DRUGBANK_ID>
DB00560

>  <SECONDARY_ACCESSION_NUMBERS>
APRD01307

>  <COMMON_NAME>
Tigecycline

>  <CAS_NUMBER>
220620-09-7

>  <UNII>
70JE2N95KR

>  <SYNONYMS>
(4S,4aS,5aR,12aS)-9-(2-(tert-butylamino)acetamido)-4,7-bis(dimethylamino)-1,4,4a,5,5a,6,11,12a-octahydro-3,10,12,12a-tetrahydroxy-1,11-dioxo-2-naphthacenecarboxamide; Tigeciclina; Tigecycline; Tigecyclinum

$$$$
