1434
 OpenBabel10282417113D

 44 47  0  0  1  0  0  0  0  0999 V2000
    2.6180   -0.9732    0.0722 C   0  0  2  0  0  0  0  0  0  0  0  0
    3.1864   -2.0926    0.9679 C   0  0  0  0  0  0  0  0  0  0  0  0
    1.1535   -1.6045    0.3107 C   0  0  2  0  0  0  0  0  0  0  0  0
    2.6254    0.4780    0.7026 C   0  0  0  0  0  0  0  0  0  0  0  0
    3.2646   -0.7632   -1.3251 C   0  0  0  0  0  0  0  0  0  0  0  0
    2.6164   -1.8911    2.3343 C   0  0  0  0  0  0  0  0  0  0  0  0
    0.0188   -0.7510   -0.2495 C   0  0  1  0  0  0  0  0  0  0  0  0
    1.1594   -1.6751    1.8947 C   0  0  0  0  0  0  0  0  0  0  0  0
    1.5303    1.2697    0.0504 C   0  0  0  0  0  0  0  0  0  0  0  0
    0.1476    0.6567    0.2567 C   0  0  2  0  0  0  0  0  0  0  0  0
   -1.4615   -1.0743    0.0821 C   0  0  0  0  0  0  0  0  0  0  0  0
   -0.8077    1.4759   -0.5099 C   0  0  2  0  0  0  0  0  0  0  0  0
   -2.5844    0.0978   -0.5762 C   0  0  0  0  0  0  0  0  0  0  0  0
   -2.2018    1.7525   -0.6118 C   0  0  0  0  0  0  0  0  0  0  0  0
   -0.7424    1.2513   -2.1683 C   0  0  0  0  0  0  0  0  0  0  0  0
   -2.0390    3.0446   -1.2769 C   0  0  0  0  0  0  0  0  0  0  0  0
    0.2096    2.2920   -2.5942 C   0  0  0  0  0  0  0  0  0  0  0  0
   -0.3630    3.3743   -1.6528 C   0  0  0  0  0  0  0  0  0  0  0  0
    0.3141    4.1823   -0.9712 O   0  0  0  0  0  0  0  0  0  0  0  0
    1.0981   -2.5929   -0.1799 H   0  0  0  0  0  0  0  0  0  0  0  0
    0.1883   -0.8269   -1.3233 H   0  0  0  0  0  0  0  0  0  0  0  0
   -0.1312    0.7437    1.3188 H   0  0  0  0  0  0  0  0  0  0  0  0
   -0.6795    2.3625    0.1583 H   0  0  0  0  0  0  0  0  0  0  0  0
    3.5792   -3.1965    0.5948 O   0  0  0  0  0  0  0  0  0  0  0  0
    3.5844    0.9788    0.5317 H   0  0  0  0  0  0  0  0  0  0  0  0
    2.4595    0.5800    1.7723 H   0  0  0  0  0  0  0  0  0  0  0  0
    3.6135    0.2847   -1.4269 H   0  0  0  0  0  0  0  0  0  0  0  0
    4.1938   -1.3146   -1.4975 H   0  0  0  0  0  0  0  0  0  0  0  0
    2.5768   -0.8664   -2.1683 H   0  0  0  0  0  0  0  0  0  0  0  0
    2.8649   -2.6555    3.0673 H   0  0  0  0  0  0  0  0  0  0  0  0
    3.0273   -0.9582    2.7185 H   0  0  0  0  0  0  0  0  0  0  0  0
    0.4106   -2.1787    2.5144 H   0  0  0  0  0  0  0  0  0  0  0  0
    0.9074   -0.6623    2.1798 H   0  0  0  0  0  0  0  0  0  0  0  0
    1.5868    2.3388    0.2932 H   0  0  0  0  0  0  0  0  0  0  0  0
    1.7614    1.2095   -0.9920 H   0  0  0  0  0  0  0  0  0  0  0  0
   -1.7881   -2.0646   -0.2666 H   0  0  0  0  0  0  0  0  0  0  0  0
   -1.4609   -1.2084    1.1767 H   0  0  0  0  0  0  0  0  0  0  0  0
   -3.5546   -0.1136   -0.1287 H   0  0  0  0  0  0  0  0  0  0  0  0
   -2.6193   -0.2623   -1.6121 H   0  0  0  0  0  0  0  0  0  0  0  0
   -1.6811    1.4421   -2.7575 H   0  0  0  0  0  0  0  0  0  0  0  0
   -0.6146    0.2242   -2.4928 H   0  0  0  0  0  0  0  0  0  0  0  0
   -2.3175    3.5044   -2.2451 H   0  0  0  0  0  0  0  0  0  0  0  0
    0.2029    2.5902   -3.6323 H   0  0  0  0  0  0  0  0  0  0  0  0
    1.1352    1.7447   -2.4678 H   0  0  0  0  0  0  0  0  0  0  0  0
  1  2  1  0  0  0  0
  1  3  1  0  0  0  0
  1  4  1  0  0  0  0
  1  5  1  1  0  0  0
  2  6  1  0  0  0  0
  2 24  2  0  0  0  0
  3  7  1  0  0  0  0
  3  8  1  0  0  0  0
  3 20  1  6  0  0  0
  4  9  1  0  0  0  0
  4 25  1  0  0  0  0
  4 26  1  0  0  0  0
  5 27  1  0  0  0  0
  5 28  1  0  0  0  0
  5 29  1  0  0  0  0
  6  8  1  0  0  0  0
  6 30  1  0  0  0  0
  6 31  1  0  0  0  0
  7 10  1  0  0  0  0
  7 11  1  0  0  0  0
  7 21  1  1  0  0  0
  8 32  1  0  0  0  0
  8 33  1  0  0  0  0
  9 10  1  0  0  0  0
  9 34  1  0  0  0  0
  9 35  1  0  0  0  0
 10 12  1  0  0  0  0
 10 22  1  6  0  0  0
 11 13  1  0  0  0  0
 11 36  1  0  0  0  0
 11 37  1  0  0  0  0
 12 14  1  0  0  0  0
 12 15  1  0  0  0  0
 12 23  1  1  0  0  0
 13 14  1  0  0  0  0
 13 38  1  0  0  0  0
 13 39  1  0  0  0  0
 14 16  2  0  0  0  0
 15 17  1  0  0  0  0
 15 40  1  0  0  0  0
 15 41  1  0  0  0  0
 16 18  1  0  0  0  0
 16 42  1  0  0  0  0
 17 18  1  0  0  0  0
 17 43  1  0  0  0  0
 17 44  1  0  0  0  0
 18 19  2  0  0  0  0
M  END
>  <DRUGBANK_ID>
DB01434

>  <COMMON_NAME>
19-norandrostenedione

>  <CAS_NUMBER>
734-32-7

>  <UNII>
U90987PVU5

>  <SYNONYMS>
delta,4-Estrene-3,17-dione; delta4-Estrene-3,17-dione

$$$$
