
 OpenBabel10282417183D

 35 36  0  0  0  0  0  0  0  0999 V2000
    1.0156    0.3757    1.3865 F   0  0  0  0  0  0  0  0  0  0  0  0
    6.1492    3.2914    0.8914 O   0  0  0  0  0  0  0  0  0  0  0  0
    6.3507   -0.0566    0.6433 O   0  0  0  0  0  0  0  0  0  0  0  0
    2.3112   -2.0121    0.9985 O   0  0  0  0  0  0  0  0  0  0  0  0
    0.8024   -0.3657   -1.2084 O   0  0  0  0  0  0  0  0  0  0  0  0
    4.0078    2.1197   -2.2632 O   0  0  0  0  0  0  0  0  0  0  0  0
    4.4974    1.3997    0.7706 N   0  0  0  0  0  0  0  0  0  0  0  0
    4.3286   -0.9662    1.2695 N   0  0  0  0  0  0  0  0  0  0  0  0
    2.6024    0.8823   -1.3983 N   0  0  0  0  0  0  0  0  0  0  0  0
    2.8911   -1.3793   -1.4494 N   0  0  0  0  0  0  0  0  0  0  0  0
    5.1759    0.1485    0.9478 C   0  0  0  0  0  0  0  0  0  0  0  0
    5.1445    2.7793    0.0147 C   0  0  3  0  0  0  0  0  0  0  0  0
    2.3680    0.3302    1.4603 C   0  0  0  0  0  0  0  0  0  0  0  0
    3.1229    1.4266    1.2172 C   0  0  0  0  0  0  0  0  0  0  0  0
    2.9534   -1.0035    1.2985 C   0  0  0  0  0  0  0  0  0  0  0  0
    5.8776    3.0592   -1.5042 C   0  0  0  0  0  0  0  0  0  0  0  0
    7.2389    3.8420    0.1195 C   0  0  0  0  0  0  0  0  0  0  0  0
    6.8093    4.1974   -1.2696 C   0  0  0  0  0  0  0  0  0  0  0  0
    2.0079   -0.3045   -1.4103 C   0  0  0  0  0  0  0  0  0  0  0  0
    3.8234    1.0229   -1.8884 C   0  0  0  0  0  0  0  0  0  0  0  0
    4.8050   -0.0708   -1.8091 C   0  0  0  0  0  0  0  0  0  0  0  0
    4.2725   -1.2554   -1.5326 C   0  0  0  0  0  0  0  0  0  0  0  0
    4.6501   -1.8724    0.9406 H   0  0  0  0  0  0  0  0  0  0  0  0
    2.1884    1.7597   -1.1132 H   0  0  0  0  0  0  0  0  0  0  0  0
    2.5046   -2.1630   -0.9273 H   0  0  0  0  0  0  0  0  0  0  0  0
    4.2878    3.4760    0.0074 H   0  0  0  0  0  0  0  0  0  0  0  0
    2.5765    2.3587    1.1619 H   0  0  0  0  0  0  0  0  0  0  0  0
    6.4202    2.2208   -1.9618 H   0  0  0  0  0  0  0  0  0  0  0  0
    5.2654    3.5226   -2.3139 H   0  0  0  0  0  0  0  0  0  0  0  0
    8.0370    3.0932    0.0593 H   0  0  0  0  0  0  0  0  0  0  0  0
    7.5727    4.7323    0.6363 H   0  0  0  0  0  0  0  0  0  0  0  0
    7.6105    4.2619   -2.0244 H   0  0  0  0  0  0  0  0  0  0  0  0
    6.2413    5.1373   -1.3256 H   0  0  0  0  0  0  0  0  0  0  0  0
    5.8499    0.1817   -1.6334 H   0  0  0  0  0  0  0  0  0  0  0  0
    4.9328   -2.0430   -1.1481 H   0  0  0  0  0  0  0  0  0  0  0  0
  1 13  1  0  0  0  0
  2 12  1  0  0  0  0
  2 17  1  0  0  0  0
  3 11  2  0  0  0  0
  4 15  2  0  0  0  0
  5 19  2  0  0  0  0
  6 20  2  0  0  0  0
  7 11  1  0  0  0  0
  7 12  1  0  0  0  0
  7 14  1  0  0  0  0
  8 11  1  0  0  0  0
  8 15  1  0  0  0  0
  8 23  1  0  0  0  0
  9 19  1  0  0  0  0
  9 20  1  0  0  0  0
  9 24  1  0  0  0  0
 10 19  1  0  0  0  0
 10 22  1  0  0  0  0
 10 25  1  0  0  0  0
 12 16  1  0  0  0  0
 12 26  1  0  0  0  0
 13 14  2  0  0  0  0
 13 15  1  0  0  0  0
 14 27  1  0  0  0  0
 16 18  1  0  0  0  0
 16 28  1  0  0  0  0
 16 29  1  0  0  0  0
 17 18  1  0  0  0  0
 17 30  1  0  0  0  0
 17 31  1  0  0  0  0
 18 32  1  0  0  0  0
 18 33  1  0  0  0  0
 20 21  1  0  0  0  0
 21 22  2  0  0  0  0
 21 34  1  0  0  0  0
 22 35  1  0  0  0  0
M  END
>  <DRUGBANK_ID>
DB09327

>  <COMMON_NAME>
Tegafur-uracil

>  <CAS_NUMBER>
74578-38-4

>  <UNII>
HMI5GR78FR

>  <SYNONYMS>
Tegafur/uracil; UFT; UFUR

$$$$
