
 OpenBabel10282417123D

 22 23  0  0  0  0  0  0  0  0999 V2000
    0.9559    0.1468    0.0953 O   0  0  0  0  0  0  0  0  0  0  0  0
    4.9399    0.2423    0.1550 N   0  0  0  0  0  0  0  0  0  0  0  0
    2.8743    1.3867   -0.0041 N   0  0  0  0  0  0  0  0  0  0  0  0
    4.8634    2.4990   -0.1056 N   0  0  0  0  0  0  0  0  0  0  0  0
    4.3342   -1.0184    0.1500 C   0  0  0  0  0  0  0  0  0  0  0  0
    2.9363   -1.0833    0.1375 C   0  0  0  0  0  0  0  0  0  0  0  0
    5.0644   -2.2150    0.2039 C   0  0  0  0  0  0  0  0  0  0  0  0
    2.2686   -2.3088    0.0860 C   0  0  0  0  0  0  0  0  0  0  0  0
    4.3922   -3.4327    0.0094 C   0  0  0  0  0  0  0  0  0  0  0  0
    2.1879    0.1976    0.0927 C   0  0  0  0  0  0  0  0  0  0  0  0
    3.0043   -3.4694   -0.1138 C   0  0  0  0  0  0  0  0  0  0  0  0
    6.5396   -2.2199    0.4714 C   0  0  0  0  0  0  0  0  0  0  0  0
    4.1677    1.3499    0.0144 C   0  0  0  0  0  0  0  0  0  0  0  0
    5.9349    0.2978    0.0130 H   0  0  0  0  0  0  0  0  0  0  0  0
    5.8670    2.5693   -0.0839 H   0  0  0  0  0  0  0  0  0  0  0  0
    4.3231    3.3545   -0.1577 H   0  0  0  0  0  0  0  0  0  0  0  0
    1.1849   -2.3514    0.1611 H   0  0  0  0  0  0  0  0  0  0  0  0
    4.9462   -4.3684   -0.0316 H   0  0  0  0  0  0  0  0  0  0  0  0
    2.4979   -4.3996   -0.3581 H   0  0  0  0  0  0  0  0  0  0  0  0
    7.0741   -1.6822   -0.3156 H   0  0  0  0  0  0  0  0  0  0  0  0
    6.7358   -1.7466    1.4404 H   0  0  0  0  0  0  0  0  0  0  0  0
    6.9346   -3.2394    0.5201 H   0  0  0  0  0  0  0  0  0  0  0  0
  1 10  2  0  0  0  0
  2  5  1  0  0  0  0
  2 13  1  0  0  0  0
  2 14  1  0  0  0  0
  3 10  1  0  0  0  0
  3 13  2  0  0  0  0
  4 13  1  0  0  0  0
  4 15  1  0  0  0  0
  4 16  1  0  0  0  0
  5  6  1  0  0  0  0
  5  7  2  0  0  0  0
  6  8  2  0  0  0  0
  6 10  1  0  0  0  0
  7  9  1  0  0  0  0
  7 12  1  0  0  0  0
  8 11  1  0  0  0  0
  8 17  1  0  0  0  0
  9 11  2  0  0  0  0
  9 18  1  0  0  0  0
 11 19  1  0  0  0  0
 12 20  1  0  0  0  0
 12 21  1  0  0  0  0
 12 22  1  0  0  0  0
M  END
>  <DRUGBANK_ID>
DB01825

>  <SECONDARY_ACCESSION_NUMBERS>
EXPT02114

>  <COMMON_NAME>
2-amino-8-methyl-4(1H)-quinazolinone

>  <CAS_NUMBER>
116836-27-2

>  <UNII>
X6X2DD92TW

$$$$
