
 OpenBabel10282417193D

 57 60  0  0  0  0  0  0  0  0999 V2000
    1.1072   -0.0213    0.0815 C   0  0  0  0  0  0  0  0  0  0  0  0
   -7.1232   -0.5409   -0.5549 C   0  0  0  0  0  0  0  0  0  0  0  0
   -7.0022    0.4277   -1.5245 C   0  0  0  0  0  0  0  0  0  0  0  0
    1.8217    1.3163   -4.8145 C   0  0  0  0  0  0  0  0  0  0  0  0
    2.7552    1.2696   -3.7723 C   0  0  0  0  0  0  0  0  0  0  0  0
   -5.9833   -3.9694   -3.8716 C   0  0  0  0  0  0  0  0  0  0  0  0
   -7.1619   -1.8660   -0.9836 C   0  0  0  0  0  0  0  0  0  0  0  0
   -6.6376   -3.6013   -2.6857 C   0  0  0  0  0  0  0  0  0  0  0  0
   -6.8992    0.0217   -2.8646 C   0  0  0  0  0  0  0  0  0  0  0  0
    0.5317    0.9329   -4.5551 C   0  0  0  0  0  0  0  0  0  0  0  0
    2.4383    0.7593   -2.5015 C   0  0  0  0  0  0  0  0  0  0  0  0
   -5.4435   -2.9875   -4.7174 C   0  0  0  0  0  0  0  0  0  0  0  0
   -2.3762    0.3286   -0.8050 C   0  0  0  0  0  0  0  0  0  0  0  0
   -2.5528   -1.4886   -2.4204 C   0  0  0  0  0  0  0  0  0  0  0  0
   -1.6334    1.2200   -1.7848 C   0  0  0  0  0  0  0  0  0  0  0  0
   -1.6458   -0.7708   -3.4095 C   0  0  0  0  0  0  0  0  0  0  0  0
   -4.2074    0.3254   -2.2952 C   0  0  0  0  0  0  0  0  0  0  0  0
   -4.0956   -0.0219   -4.8902 C   0  0  0  0  0  0  0  0  0  0  0  0
   -6.8134   -2.2730   -2.3062 C   0  0  0  0  0  0  0  0  0  0  0  0
   -4.1854    1.0172   -3.7531 C   0  0  3  0  0  0  0  0  0  0  0  0
   -6.5486   -1.2834   -3.2831 C   0  0  0  0  0  0  0  0  0  0  0  0
    0.2149    0.5692   -3.2463 C   0  0  0  0  0  0  0  0  0  0  0  0
   -5.7687   -1.6463   -4.4520 C   0  0  0  0  0  0  0  0  0  0  0  0
    1.1622    0.3401   -2.2616 C   0  0  0  0  0  0  0  0  0  0  0  0
   -3.2664   -0.5415   -1.5533 N   0  0  0  0  0  0  0  0  0  0  0  0
   -1.0884    0.4390   -2.8945 N   0  0  0  0  0  0  0  0  0  0  0  0
   -5.2343    1.9375   -4.1529 O   0  0  0  0  0  0  0  0  0  0  0  0
    0.7207   -0.4213   -1.2127 O   0  0  0  0  0  0  0  0  0  0  0  0
   -5.3294   -0.6332   -5.3196 O   0  0  0  0  0  0  0  0  0  0  0  0
    0.6687   -0.7384    0.7858 H   0  0  0  0  0  0  0  0  0  0  0  0
    0.7044    0.9668    0.3245 H   0  0  0  0  0  0  0  0  0  0  0  0
    2.1885   -0.0603    0.1824 H   0  0  0  0  0  0  0  0  0  0  0  0
   -7.1454   -0.2469    0.4899 H   0  0  0  0  0  0  0  0  0  0  0  0
   -6.7625    1.4585   -1.2519 H   0  0  0  0  0  0  0  0  0  0  0  0
    2.0794    1.6788   -5.8035 H   0  0  0  0  0  0  0  0  0  0  0  0
    3.7651    1.6037   -3.9646 H   0  0  0  0  0  0  0  0  0  0  0  0
   -5.8943   -5.0255   -4.1181 H   0  0  0  0  0  0  0  0  0  0  0  0
   -7.3649   -2.6208   -0.2241 H   0  0  0  0  0  0  0  0  0  0  0  0
   -7.0050   -4.3811   -2.0157 H   0  0  0  0  0  0  0  0  0  0  0  0
   -6.7441    0.8376   -3.5396 H   0  0  0  0  0  0  0  0  0  0  0  0
   -0.2354    0.9504   -5.3295 H   0  0  0  0  0  0  0  0  0  0  0  0
    3.1842    0.6766   -1.7286 H   0  0  0  0  0  0  0  0  0  0  0  0
   -4.8197   -3.3100   -5.5531 H   0  0  0  0  0  0  0  0  0  0  0  0
   -2.9837    0.9353   -0.1203 H   0  0  0  0  0  0  0  0  0  0  0  0
   -1.7122   -0.2626   -0.1721 H   0  0  0  0  0  0  0  0  0  0  0  0
   -1.9737   -2.2004   -1.8144 H   0  0  0  0  0  0  0  0  0  0  0  0
   -3.2684   -2.1372   -2.9442 H   0  0  0  0  0  0  0  0  0  0  0  0
   -2.3266    1.9600   -2.1917 H   0  0  0  0  0  0  0  0  0  0  0  0
   -0.9106    1.8595   -1.2774 H   0  0  0  0  0  0  0  0  0  0  0  0
   -2.1067   -0.2399   -4.2057 H   0  0  0  0  0  0  0  0  0  0  0  0
   -1.0707   -1.4753   -4.0307 H   0  0  0  0  0  0  0  0  0  0  0  0
   -4.8655   -0.4924   -2.3510 H   0  0  0  0  0  0  0  0  0  0  0  0
   -4.6047    1.0485   -1.5804 H   0  0  0  0  0  0  0  0  0  0  0  0
   -3.5689    0.4884   -5.7192 H   0  0  0  0  0  0  0  0  0  0  0  0
   -3.5209   -0.8882   -4.6426 H   0  0  0  0  0  0  0  0  0  0  0  0
   -3.3751    1.7399   -3.7210 H   0  0  0  0  0  0  0  0  0  0  0  0
   -5.7133    1.5087   -4.9003 H   0  0  0  0  0  0  0  0  0  0  0  0
  1 30  1  0  0  0  0
  1 31  1  0  0  0  0
  1 32  1  0  0  0  0
  2 33  1  0  0  0  0
  3  2  2  0  0  0  0
  3 34  1  0  0  0  0
  4 35  1  0  0  0  0
  5  4  2  0  0  0  0
  5 36  1  0  0  0  0
  6 37  1  0  0  0  0
  7  2  1  0  0  0  0
  7 38  1  0  0  0  0
  8  6  2  0  0  0  0
  8 39  1  0  0  0  0
  9  3  1  0  0  0  0
  9 40  1  0  0  0  0
 10  4  1  0  0  0  0
 10 41  1  0  0  0  0
 11  5  1  0  0  0  0
 11 42  1  0  0  0  0
 12  6  1  0  0  0  0
 12 43  1  0  0  0  0
 13 44  1  0  0  0  0
 13 45  1  0  0  0  0
 14 46  1  0  0  0  0
 14 47  1  0  0  0  0
 15 13  1  0  0  0  0
 15 48  1  0  0  0  0
 15 49  1  0  0  0  0
 16 14  1  0  0  0  0
 16 50  1  0  0  0  0
 16 51  1  0  0  0  0
 17 52  1  0  0  0  0
 17 53  1  0  0  0  0
 18 54  1  0  0  0  0
 18 55  1  0  0  0  0
 19  7  2  0  0  0  0
 19  8  1  0  0  0  0
 20 17  1  0  0  0  0
 20 18  1  0  0  0  0
 20 56  1  0  0  0  0
 21  9  2  0  0  0  0
 21 19  1  0  0  0  0
 22 10  2  0  0  0  0
 23 12  2  0  0  0  0
 23 21  1  0  0  0  0
 24 11  2  0  0  0  0
 24 22  1  0  0  0  0
 25 13  1  0  0  0  0
 25 14  1  0  0  0  0
 25 17  1  0  0  0  0
 26 15  1  0  0  0  0
 26 16  1  0  0  0  0
 26 22  1  0  0  0  0
 27 20  1  0  0  0  0
 27 57  1  0  0  0  0
 28  1  1  0  0  0  0
 28 24  1  0  0  0  0
 29 18  1  0  0  0  0
 29 23  1  0  0  0  0
M  END
>  <DRUGBANK_ID>
DB12092

>  <COMMON_NAME>
Naftopidil

>  <CAS_NUMBER>
57149-07-2

>  <UNII>
R9PHW59SFN

>  <SYNONYMS>
Naftopidil

$$$$
