
 OpenBabel10282417213D

 73 77  0  0  0  0  0  0  0  0999 V2000
    8.7647   -8.0968   13.2072 S   0  0  0  0  0  0  0  0  0  0  0  0
    9.0973    1.3717    8.6065 F   0  0  0  0  0  0  0  0  0  0  0  0
   11.5361   -2.1799   10.4951 O   0  0  0  0  0  0  0  0  0  0  0  0
   10.6013    2.9488    7.2102 O   0  0  0  0  0  0  0  0  0  0  0  0
   13.6272   -3.7172    9.9804 O   0  0  0  0  0  0  0  0  0  0  0  0
   10.4391   -4.5030    8.2816 O   0  0  0  0  0  0  0  0  0  0  0  0
    6.9416   -1.4454    4.5094 O   0  0  0  0  0  0  0  0  0  0  0  0
    8.3307   -4.6149    9.2677 O   0  0  0  0  0  0  0  0  0  0  0  0
    8.9834   -9.6116   12.6717 O   0  0  0  0  0  0  0  0  0  0  0  0
    9.4249   -8.0034   14.5542 O   0  0  0  0  0  0  0  0  0  0  0  0
    7.4419   -7.7430   12.9853 O   0  0  0  0  0  0  0  0  0  0  0  0
   11.1668    0.4407   10.6303 C   0  0  1  0  0  0  0  0  0  0  0  0
   10.6496   -0.1812    9.2564 C   0  0  1  0  0  0  0  0  0  0  0  0
   12.4625    0.7818    9.9372 C   0  0  1  0  0  0  0  0  0  0  0  0
   10.1837    0.6969    8.0969 C   0  0  2  0  0  0  0  0  0  0  0  0
   12.7510   -1.1909   10.0235 C   0  0  1  0  0  0  0  0  0  0  0  0
    9.7570   -0.1551    6.8622 C   0  0  2  0  0  0  0  0  0  0  0  0
   11.1976    1.7427    7.7247 C   0  0  2  0  0  0  0  0  0  0  0  0
   11.7580    2.0597    9.0348 C   0  0  0  0  0  0  0  0  0  0  0  0
   11.7277   -0.3181   11.9700 C   0  0  0  0  0  0  0  0  0  0  0  0
   13.0604   -0.9988   11.4690 C   0  0  1  0  0  0  0  0  0  0  0  0
    9.5953   -1.1756    9.4992 C   0  0  0  0  0  0  0  0  0  0  0  0
    9.8549   -1.7389    6.7214 C   0  0  0  0  0  0  0  0  0  0  0  0
   12.9102   -2.9152    9.3211 C   0  0  0  0  0  0  0  0  0  0  0  0
   13.1739    2.0013   10.8853 C   0  0  0  0  0  0  0  0  0  0  0  0
    9.8291   -2.1363    8.2979 C   0  0  0  0  0  0  0  0  0  0  0  0
    9.5846    0.6683    5.5360 C   0  0  0  0  0  0  0  0  0  0  0  0
    8.3171   -0.4599    7.3081 C   0  0  0  0  0  0  0  0  0  0  0  0
    9.0923   -2.3592    5.6812 C   0  0  0  0  0  0  0  0  0  0  0  0
   14.3701   -1.6999   11.6800 C   0  0  0  0  0  0  0  0  0  0  0  0
   11.8640   -3.9173    8.2272 C   0  0  0  0  0  0  0  0  0  0  0  0
    8.7509    0.2132    4.5630 C   0  0  0  0  0  0  0  0  0  0  0  0
    8.1637   -1.2832    4.6624 C   0  0  0  0  0  0  0  0  0  0  0  0
    9.5462   -4.8220    9.2911 C   0  0  0  0  0  0  0  0  0  0  0  0
   10.0708   -5.6442   10.3573 C   0  0  0  0  0  0  0  0  0  0  0  0
    9.2403   -6.2043   11.3194 C   0  0  0  0  0  0  0  0  0  0  0  0
   11.3973   -6.0166   10.2785 C   0  0  0  0  0  0  0  0  0  0  0  0
    9.8149   -7.1811   12.1301 C   0  0  0  0  0  0  0  0  0  0  0  0
   11.9602   -6.9651   11.0770 C   0  0  0  0  0  0  0  0  0  0  0  0
   11.1628   -7.5544   12.0190 C   0  0  0  0  0  0  0  0  0  0  0  0
   10.4503    1.1988   10.9502 H   0  0  0  0  0  0  0  0  0  0  0  0
   11.4944   -0.5938    8.6571 H   0  0  0  0  0  0  0  0  0  0  0  0
   11.8197   -2.9346   11.0673 H   0  0  0  0  0  0  0  0  0  0  0  0
    9.6700    2.9836    7.5143 H   0  0  0  0  0  0  0  0  0  0  0  0
    8.4969   -9.6982   11.8211 H   0  0  0  0  0  0  0  0  0  0  0  0
   12.0290    1.4688    7.0733 H   0  0  0  0  0  0  0  0  0  0  0  0
   12.3499    2.9729    8.8707 H   0  0  0  0  0  0  0  0  0  0  0  0
   10.9291    2.5291    9.6303 H   0  0  0  0  0  0  0  0  0  0  0  0
   12.0462    0.3873   12.7544 H   0  0  0  0  0  0  0  0  0  0  0  0
   10.8591   -0.8134   12.4229 H   0  0  0  0  0  0  0  0  0  0  0  0
   13.5975   -0.0786   11.6033 H   0  0  0  0  0  0  0  0  0  0  0  0
    9.6587   -1.6620   10.4796 H   0  0  0  0  0  0  0  0  0  0  0  0
    8.6383   -0.6843    9.5973 H   0  0  0  0  0  0  0  0  0  0  0  0
   13.4207    2.8932   10.2687 H   0  0  0  0  0  0  0  0  0  0  0  0
   12.4330    2.4821   11.5627 H   0  0  0  0  0  0  0  0  0  0  0  0
   14.1451    1.8647   11.3490 H   0  0  0  0  0  0  0  0  0  0  0  0
   10.8552   -2.3309    8.4298 H   0  0  0  0  0  0  0  0  0  0  0  0
    9.0989   -2.8629    8.5471 H   0  0  0  0  0  0  0  0  0  0  0  0
    9.8501    1.7412    5.5362 H   0  0  0  0  0  0  0  0  0  0  0  0
    7.9390   -1.4687    7.5975 H   0  0  0  0  0  0  0  0  0  0  0  0
    7.5307    0.2399    7.2987 H   0  0  0  0  0  0  0  0  0  0  0  0
    8.1620   -0.6621    6.3383 H   0  0  0  0  0  0  0  0  0  0  0  0
    8.4650   -3.2741    5.8823 H   0  0  0  0  0  0  0  0  0  0  0  0
   14.3537   -2.7690   11.8568 H   0  0  0  0  0  0  0  0  0  0  0  0
   14.9136   -1.5520   10.7154 H   0  0  0  0  0  0  0  0  0  0  0  0
   15.0025   -1.1933   12.4050 H   0  0  0  0  0  0  0  0  0  0  0  0
   12.4263   -4.8317    7.9738 H   0  0  0  0  0  0  0  0  0  0  0  0
   11.9319   -3.4425    7.2411 H   0  0  0  0  0  0  0  0  0  0  0  0
    8.2671    0.9467    3.9044 H   0  0  0  0  0  0  0  0  0  0  0  0
    8.1841   -5.9393   11.3931 H   0  0  0  0  0  0  0  0  0  0  0  0
   12.0686   -5.6203    9.5617 H   0  0  0  0  0  0  0  0  0  0  0  0
   12.9984   -7.2108   10.8913 H   0  0  0  0  0  0  0  0  0  0  0  0
   11.6051   -8.3116   12.6562 H   0  0  0  0  0  0  0  0  0  0  0  0
  1  9  1  0  0  0  0
  1 10  2  0  0  0  0
  1 11  2  0  0  0  0
  1 38  1  0  0  0  0
  3 43  1  0  0  0  0
  4 44  1  0  0  0  0
  5 24  2  0  0  0  0
  6 31  1  0  0  0  0
  6 34  1  0  0  0  0
  7 33  2  0  0  0  0
  8 34  2  0  0  0  0
  9 45  1  0  0  0  0
 12 13  1  0  0  0  0
 12 14  1  0  0  0  0
 12 20  1  0  0  0  0
 12 41  1  6  0  0  0
 13 15  1  0  0  0  0
 13 22  1  0  0  0  0
 13 42  1  1  0  0  0
 14 16  1  0  0  0  0
 14 19  1  0  0  0  0
 14 25  1  1  0  0  0
 15 17  1  0  0  0  0
 15 18  1  0  0  0  0
 15  2  1  6  0  0  0
 16 21  1  0  0  0  0
 16 24  1  6  0  0  0
 16  3  1  0  0  0  0
 17 23  1  0  0  0  0
 17 27  1  0  0  0  0
 17 28  1  1  0  0  0
 18 19  1  0  0  0  0
 18 46  1  6  0  0  0
 18  4  1  0  0  0  0
 19 47  1  0  0  0  0
 19 48  1  0  0  0  0
 20 21  1  0  0  0  0
 20 49  1  0  0  0  0
 20 50  1  0  0  0  0
 21 30  1  0  0  0  0
 21 51  1  6  0  0  0
 22 26  1  0  0  0  0
 22 52  1  0  0  0  0
 22 53  1  0  0  0  0
 23 26  1  0  0  0  0
 23 29  2  0  0  0  0
 24 31  1  0  0  0  0
 25 54  1  0  0  0  0
 25 55  1  0  0  0  0
 25 56  1  0  0  0  0
 26 57  1  0  0  0  0
 26 58  1  0  0  0  0
 27 32  2  0  0  0  0
 27 59  1  0  0  0  0
 28 60  1  0  0  0  0
 28 61  1  0  0  0  0
 28 62  1  0  0  0  0
 29 33  1  0  0  0  0
 29 63  1  0  0  0  0
 30 64  1  0  0  0  0
 30 65  1  0  0  0  0
 30 66  1  0  0  0  0
 31 67  1  0  0  0  0
 31 68  1  0  0  0  0
 32 33  1  0  0  0  0
 32 69  1  0  0  0  0
 34 35  1  0  0  0  0
 35 36  1  0  0  0  0
 35 37  2  0  0  0  0
 36 38  2  0  0  0  0
 36 70  1  0  0  0  0
 37 39  1  0  0  0  0
 37 71  1  0  0  0  0
 38 40  1  0  0  0  0
 39 40  2  0  0  0  0
 39 72  1  0  0  0  0
 40 73  1  0  0  0  0
M  END
>  <DRUGBANK_ID>
DB14703

>  <COMMON_NAME>
Dexamethasone metasulfobenzoate

>  <CAS_NUMBER>
16978-57-7

>  <UNII>
C67221CB9Q

>  <SYNONYMS>
Dexamethasone m-sulfobenzoate; Dexamethasone-21-sulfobenzoate

$$$$
