OA5
 OpenBabel10282417173D

 31 32  0  0  0  0  0  0  0  0999 V2000
   -2.3161   -0.9722    0.5638 N   0  0  0  0  0  0  0  0  0  0  0  0
   -1.1431   -0.3067    0.9291 C   0  0  0  0  0  0  0  0  0  0  0  0
   -0.0245   -1.0161    0.9553 N   0  0  0  0  0  0  0  0  0  0  0  0
    1.0987   -0.3129    1.1155 C   0  0  0  0  0  0  0  0  0  0  0  0
    2.2829   -1.0161    0.8743 N   0  0  0  0  0  0  0  0  0  0  0  0
    1.1274    1.0168    1.2335 N   0  0  0  0  0  0  0  0  0  0  0  0
   -1.2379    1.0060    1.0673 N   0  0  0  0  0  0  0  0  0  0  0  0
   -0.0674    1.6295    1.1673 C   0  0  0  0  0  0  0  0  0  0  0  0
   -0.0322    2.9738    0.7842 O   0  0  0  0  0  0  0  0  0  0  0  0
   -1.2546    3.5884    0.2803 C   0  0  0  0  0  0  0  0  0  0  0  0
   -1.8981    3.3062   -1.1582 C   0  0  0  0  0  0  0  0  0  0  0  0
   -2.2706    1.9696   -1.5780 O   0  0  0  0  0  0  0  0  0  0  0  0
   -1.2449    1.1676   -2.0266 C   0  0  0  0  0  0  0  0  0  0  0  0
    0.0764    1.4966   -1.7480 C   0  0  0  0  0  0  0  0  0  0  0  0
    1.0961    0.5595   -1.7573 C   0  0  0  0  0  0  0  0  0  0  0  0
    0.8067   -0.7492   -2.0641 C   0  0  0  0  0  0  0  0  0  0  0  0
   -0.4870   -1.0797   -2.4803 C   0  0  0  0  0  0  0  0  0  0  0  0
   -1.5013   -0.1023   -2.5287 C   0  0  0  0  0  0  0  0  0  0  0  0
   -2.0954   -1.8130    0.0478 H   0  0  0  0  0  0  0  0  0  0  0  0
   -2.9296   -0.3271    0.0783 H   0  0  0  0  0  0  0  0  0  0  0  0
    2.0688   -1.8887    0.4005 H   0  0  0  0  0  0  0  0  0  0  0  0
    2.9585   -0.4476    0.3750 H   0  0  0  0  0  0  0  0  0  0  0  0
   -2.0141    3.5337    1.0617 H   0  0  0  0  0  0  0  0  0  0  0  0
   -0.9891    4.6607    0.2178 H   0  0  0  0  0  0  0  0  0  0  0  0
   -2.8446    3.8712   -1.1614 H   0  0  0  0  0  0  0  0  0  0  0  0
   -1.3293    3.7779   -1.9747 H   0  0  0  0  0  0  0  0  0  0  0  0
    0.3124    2.4286   -1.2781 H   0  0  0  0  0  0  0  0  0  0  0  0
    2.0325    0.8529   -1.2791 H   0  0  0  0  0  0  0  0  0  0  0  0
    1.5418   -1.5232   -1.8610 H   0  0  0  0  0  0  0  0  0  0  0  0
   -0.7153   -2.1251   -2.6519 H   0  0  0  0  0  0  0  0  0  0  0  0
   -2.4979   -0.3909   -2.8595 H   0  0  0  0  0  0  0  0  0  0  0  0
  1  2  1  0  0  0  0
  1 19  1  0  0  0  0
  1 20  1  0  0  0  0
  2  3  1  0  0  0  0
  2  7  2  0  0  0  0
  3  4  2  0  0  0  0
  4  5  1  0  0  0  0
  4  6  1  0  0  0  0
  5 21  1  0  0  0  0
  5 22  1  0  0  0  0
  6  8  2  0  0  0  0
  7  8  1  0  0  0  0
  8  9  1  0  0  0  0
  9 10  1  0  0  0  0
 10 11  1  0  0  0  0
 10 23  1  0  0  0  0
 10 24  1  0  0  0  0
 11 12  1  0  0  0  0
 11 25  1  0  0  0  0
 11 26  1  0  0  0  0
 12 13  1  0  0  0  0
 13 14  1  0  0  0  0
 13 18  2  0  0  0  0
 14 15  2  0  0  0  0
 14 27  1  0  0  0  0
 15 16  1  0  0  0  0
 15 28  1  0  0  0  0
 16 17  2  0  0  0  0
 16 29  1  0  0  0  0
 17 18  1  0  0  0  0
 17 30  1  0  0  0  0
 18 31  1  0  0  0  0
M  END
>  <DRUGBANK_ID>
DB08318

>  <COMMON_NAME>
6-(2-phenoxyethoxy)-1,3,5-triazine-2,4-diamine

$$$$
