
 OpenBabel10282417133D

 81 82  0  0  1  0  0  0  0  0999 V2000
    0.9515    0.0320   -0.0987 C   0  0  0  0  0  0  0  0  0  0  0  0
    0.5439   -1.3707    0.3128 C   0  0  0  0  0  0  0  0  0  0  0  0
    1.0802   -1.6648    1.7143 C   0  0  0  0  0  0  0  0  0  0  0  0
    0.4982   -0.6725    2.7281 C   0  0  0  0  0  0  0  0  0  0  0  0
   -1.0247   -0.7768    2.6923 C   0  0  0  0  0  0  0  0  0  0  0  0
   -1.3713   -2.2543    2.9641 C   0  0  0  0  0  0  0  0  0  0  0  0
   -0.7862   -2.6543    4.3472 C   0  0  0  0  0  0  0  0  0  0  0  0
   -1.3269   -1.6810    5.3514 C   0  0  0  0  0  0  0  0  0  0  0  0
   -2.8000   -1.7763    5.0798 C   0  0  0  0  0  0  0  0  0  0  0  0
   -3.3140   -3.1381    5.5695 C   0  0  0  0  0  0  0  0  0  0  0  0
   -3.0183   -3.5937    6.9770 C   0  0  0  0  0  0  0  0  0  0  0  0
   -3.8045   -2.8471    8.0041 C   0  0  0  0  0  0  0  0  0  0  0  0
   -7.5829   -1.7630   10.8370 C   0  0  0  0  0  0  0  0  0  0  0  0
   -8.8713   -0.1851    7.7693 C   0  0  0  0  0  0  0  0  0  0  0  0
   -6.6148   -0.5778   10.5665 C   0  0  2  0  0  0  0  0  0  0  0  0
   -7.3821   -0.4316    7.5291 C   0  0  2  0  0  0  0  0  0  0  0  0
   -5.1503   -1.0532   10.5317 C   0  0  2  0  0  0  0  0  0  0  0  0
   -4.2835   -0.0773    9.6966 C   0  0  1  0  0  0  0  0  0  0  0  0
   -5.2899    0.8867    6.8921 C   0  0  2  0  0  0  0  0  0  0  0  0
   -4.5819    1.4003   10.0048 C   0  0  2  0  0  0  0  0  0  0  0  0
   -4.8672   -0.4401    6.3357 C   0  0  2  0  0  0  0  0  0  0  0  0
   -6.6785    0.9512    7.4490 C   0  0  2  0  0  0  0  0  0  0  0  0
   -5.6851   -1.7317    6.5879 C   0  0  1  0  0  0  0  0  0  0  0  0
   -6.1079    1.6465    9.9547 C   0  0  2  0  0  0  0  0  0  0  0  0
   -8.9314   -1.4092   11.0409 O   0  0  0  0  0  0  0  0  0  0  0  0
   -9.5830   -1.3578    8.1285 O   0  0  0  0  0  0  0  0  0  0  0  0
   -5.1691   -2.4169   10.1249 O   0  0  0  0  0  0  0  0  0  0  0  0
   -2.8641   -0.2140    9.5638 O   0  0  0  0  0  0  0  0  0  0  0  0
   -4.8099    2.0430    6.1943 O   0  0  0  0  0  0  0  0  0  0  0  0
   -3.8005    2.3696    9.2776 O   0  0  0  0  0  0  0  0  0  0  0  0
   -3.6025   -0.6273    6.9444 O   0  0  0  0  0  0  0  0  0  0  0  0
   -5.2439   -2.5598    7.7251 O   0  0  0  0  0  0  0  0  0  0  0  0
   -6.7671    0.7747   10.9615 O   0  0  0  0  0  0  0  0  0  0  0  0
   -7.0927   -1.3549    6.5038 O   0  0  0  0  0  0  0  0  0  0  0  0
   -6.7766    1.7784    8.6518 O   0  0  0  0  0  0  0  0  0  0  0  0
   -7.0246   -0.3477    9.6361 H   0  0  0  0  0  0  0  0  0  0  0  0
   -7.0170   -1.0775    8.2904 H   0  0  0  0  0  0  0  0  0  0  0  0
   -4.7075   -1.1033   11.5147 H   0  0  0  0  0  0  0  0  0  0  0  0
   -4.6447   -0.3634    8.7406 H   0  0  0  0  0  0  0  0  0  0  0  0
   -4.6594    1.0391    7.7253 H   0  0  0  0  0  0  0  0  0  0  0  0
   -4.2341    1.5192   11.0347 H   0  0  0  0  0  0  0  0  0  0  0  0
   -4.8505   -0.3316    5.2423 H   0  0  0  0  0  0  0  0  0  0  0  0
   -7.2205    1.5128    6.6750 H   0  0  0  0  0  0  0  0  0  0  0  0
   -5.7138   -2.4127    5.7526 H   0  0  0  0  0  0  0  0  0  0  0  0
   -6.2388    2.6493   10.3705 H   0  0  0  0  0  0  0  0  0  0  0  0
    0.5350    0.7962    0.5669 H   0  0  0  0  0  0  0  0  0  0  0  0
    0.5942    0.2617   -1.1013 H   0  0  0  0  0  0  0  0  0  0  0  0
    2.0409    0.1166   -0.0644 H   0  0  0  0  0  0  0  0  0  0  0  0
   -0.5490   -1.4655    0.2608 H   0  0  0  0  0  0  0  0  0  0  0  0
    0.9254   -2.1141   -0.3897 H   0  0  0  0  0  0  0  0  0  0  0  0
    0.8412   -2.7023    1.9803 H   0  0  0  0  0  0  0  0  0  0  0  0
    2.1691   -1.6318    1.7458 H   0  0  0  0  0  0  0  0  0  0  0  0
    0.8945   -0.8880    3.7266 H   0  0  0  0  0  0  0  0  0  0  0  0
    0.8172    0.3549    2.5512 H   0  0  0  0  0  0  0  0  0  0  0  0
   -1.4621   -0.0659    3.4070 H   0  0  0  0  0  0  0  0  0  0  0  0
   -1.4665   -0.4470    1.7487 H   0  0  0  0  0  0  0  0  0  0  0  0
   -2.4478   -2.3978    2.8333 H   0  0  0  0  0  0  0  0  0  0  0  0
   -1.0396   -2.9609    2.2112 H   0  0  0  0  0  0  0  0  0  0  0  0
   -1.0689   -3.6740    4.6070 H   0  0  0  0  0  0  0  0  0  0  0  0
    0.2984   -2.6655    4.4023 H   0  0  0  0  0  0  0  0  0  0  0  0
   -1.0845   -1.8848    6.3987 H   0  0  0  0  0  0  0  0  0  0  0  0
   -0.9590   -0.6487    5.2384 H   0  0  0  0  0  0  0  0  0  0  0  0
   -3.0295   -0.7307    5.2239 H   0  0  0  0  0  0  0  0  0  0  0  0
   -3.2846   -1.6708    4.1082 H   0  0  0  0  0  0  0  0  0  0  0  0
   -4.3502   -3.2894    5.3402 H   0  0  0  0  0  0  0  0  0  0  0  0
   -2.9216   -3.9162    4.9180 H   0  0  0  0  0  0  0  0  0  0  0  0
   -3.2926   -4.6460    7.0875 H   0  0  0  0  0  0  0  0  0  0  0  0
   -1.9460   -3.5599    7.2268 H   0  0  0  0  0  0  0  0  0  0  0  0
   -3.7185   -3.4524    8.9231 H   0  0  0  0  0  0  0  0  0  0  0  0
   -3.2275   -1.9887    8.3318 H   0  0  0  0  0  0  0  0  0  0  0  0
   -7.5918   -2.4217    9.9412 H   0  0  0  0  0  0  0  0  0  0  0  0
   -7.2265   -2.3969   11.6458 H   0  0  0  0  0  0  0  0  0  0  0  0
   -8.9912    0.5209    8.5996 H   0  0  0  0  0  0  0  0  0  0  0  0
   -9.3384    0.2432    6.8818 H   0  0  0  0  0  0  0  0  0  0  0  0
   -9.0097   -0.4472   10.9488 H   0  0  0  0  0  0  0  0  0  0  0  0
   -9.0804   -2.1388    7.8426 H   0  0  0  0  0  0  0  0  0  0  0  0
   -5.6073   -2.5149    9.2421 H   0  0  0  0  0  0  0  0  0  0  0  0
   -2.4666   -0.6907   10.2959 H   0  0  0  0  0  0  0  0  0  0  0  0
   -4.6655    1.8473    5.2548 H   0  0  0  0  0  0  0  0  0  0  0  0
   -4.2126    2.6215    8.4293 H   0  0  0  0  0  0  0  0  0  0  0  0
   -3.0427    0.1867    7.1226 H   0  0  0  0  0  0  0  0  0  0  0  0
  1 46  1  0  0  0  0
  1 47  1  0  0  0  0
  1 48  1  0  0  0  0
  2  1  1  0  0  0  0
  2 49  1  0  0  0  0
  2 50  1  0  0  0  0
  3  2  1  0  0  0  0
  3 51  1  0  0  0  0
  3 52  1  0  0  0  0
  4  3  1  0  0  0  0
  4 53  1  0  0  0  0
  4 54  1  0  0  0  0
  5  4  1  0  0  0  0
  5 55  1  0  0  0  0
  5 56  1  0  0  0  0
  6  5  1  0  0  0  0
  6 57  1  0  0  0  0
  6 58  1  0  0  0  0
  7  6  1  0  0  0  0
  7 59  1  0  0  0  0
  7 60  1  0  0  0  0
  8  7  1  0  0  0  0
  8 61  1  0  0  0  0
  8 62  1  0  0  0  0
  9  8  1  0  0  0  0
  9 63  1  0  0  0  0
  9 64  1  0  0  0  0
 10  9  1  0  0  0  0
 10 65  1  0  0  0  0
 10 66  1  0  0  0  0
 11 10  1  0  0  0  0
 11 67  1  0  0  0  0
 11 68  1  0  0  0  0
 12 11  1  0  0  0  0
 12 69  1  0  0  0  0
 12 70  1  0  0  0  0
 13 71  1  0  0  0  0
 13 72  1  0  0  0  0
 14 73  1  0  0  0  0
 14 74  1  0  0  0  0
 15 13  1  0  0  0  0
 15 36  1  6  0  0  0
 16 14  1  0  0  0  0
 16 37  1  1  0  0  0
 17 15  1  0  0  0  0
 17 27  1  0  0  0  0
 17 38  1  1  0  0  0
 18 17  1  0  0  0  0
 18 28  1  0  0  0  0
 18 39  1  6  0  0  0
 19 29  1  0  0  0  0
 19 40  1  1  0  0  0
 20 18  1  0  0  0  0
 20 30  1  0  0  0  0
 20 41  1  1  0  0  0
 21 19  1  0  0  0  0
 21 31  1  0  0  0  0
 21 42  1  6  0  0  0
 22 16  1  0  0  0  0
 22 19  1  0  0  0  0
 22 35  1  0  0  0  0
 22 43  1  6  0  0  0
 23 21  1  0  0  0  0
 23 32  1  0  0  0  0
 23 44  1  6  0  0  0
 24 20  1  0  0  0  0
 24 35  1  0  0  0  0
 24 45  1  1  0  0  0
 25 13  1  0  0  0  0
 25 75  1  0  0  0  0
 26 14  1  0  0  0  0
 26 76  1  0  0  0  0
 27 77  1  0  0  0  0
 28 78  1  0  0  0  0
 29 79  1  0  0  0  0
 30 80  1  0  0  0  0
 31 81  1  0  0  0  0
 32 12  1  0  0  0  0
 33 15  1  0  0  0  0
 33 24  1  0  0  0  0
 34 16  1  0  0  0  0
 34 23  1  0  0  0  0
M  END
>  <DRUGBANK_ID>
DB03279

>  <SECONDARY_ACCESSION_NUMBERS>
EXPT02044

>  <COMMON_NAME>
Dodecyl-Alpha-D-Maltoside

$$$$
