
 OpenBabel10282417133D

 73 77  0  0  0  0  0  0  0  0999 V2000
   -1.5206    0.6684    0.0114 C   0  0  2  0  0  0  0  0  0  0  0  0
   -2.7956    1.4321   -0.4815 C   0  0  0  0  0  0  0  0  0  0  0  0
   -3.0799    1.6155   -1.9623 C   0  0  0  0  0  0  0  0  0  0  0  0
   -3.3052    0.5229   -2.7467 C   0  0  0  0  0  0  0  0  0  0  0  0
   -3.6750    0.4317   -4.0915 C   0  0  0  0  0  0  0  0  0  0  0  0
   -3.7507    1.5674   -4.7920 C   0  0  0  0  0  0  0  0  0  0  0  0
   -3.6019    2.7340   -4.0599 C   0  0  0  0  0  0  0  0  0  0  0  0
   -3.2287    2.7705   -2.6788 C   0  0  0  0  0  0  0  0  0  0  0  0
   -0.2490    1.4271   -0.4685 C   0  0  2  0  0  0  0  0  0  0  0  0
    0.0488    1.0683   -1.8164 O   0  0  0  0  0  0  0  0  0  0  0  0
    0.9593    1.1742    0.4609 C   0  0  0  0  0  0  0  0  0  0  0  0
    1.7365   -0.0778    0.0987 N   0  0  0  0  0  0  0  0  0  0  0  0
    2.8088   -0.4720    1.4324 S   0  0  0  0  0  0  0  0  0  0  0  0
    1.9841   -0.9609    2.5174 O   0  0  0  0  0  0  0  0  0  0  0  0
    0.8931   -1.2221   -0.2439 N   0  0  0  0  0  0  0  0  0  0  0  0
   -1.3906   -0.8155   -0.2315 N   0  0  0  0  0  0  0  0  0  0  0  0
   -0.3186   -1.4231    0.4103 C   0  0  0  0  0  0  0  0  0  0  0  0
   -0.4473   -2.1067    1.4194 O   0  0  0  0  0  0  0  0  0  0  0  0
   -2.4437   -1.7198   -0.7943 C   0  0  0  0  0  0  0  0  0  0  0  0
    1.3689   -2.0135   -1.3644 C   0  0  0  0  0  0  0  0  0  0  0  0
    3.8281   -1.8143    0.8517 C   0  0  0  0  0  0  0  0  0  0  0  0
   -1.1170   -3.3719   -2.2714 C   0  0  0  0  0  0  0  0  0  0  0  0
   -0.2721   -3.5950   -3.3991 C   0  0  0  0  0  0  0  0  0  0  0  0
   -0.3598   -2.7993   -4.5208 C   0  0  0  0  0  0  0  0  0  0  0  0
   -1.4111   -1.9421   -4.5651 C   0  0  0  0  0  0  0  0  0  0  0  0
   -2.2641   -1.9376   -3.4398 C   0  0  0  0  0  0  0  0  0  0  0  0
   -1.9565   -2.3230   -2.1579 C   0  0  0  0  0  0  0  0  0  0  0  0
    0.7252   -4.2485   -0.2001 C   0  0  0  0  0  0  0  0  0  0  0  0
    0.9373   -5.5748    0.1271 C   0  0  0  0  0  0  0  0  0  0  0  0
    2.1623   -6.1031   -0.1743 C   0  0  0  0  0  0  0  0  0  0  0  0
    3.0570   -5.3894   -0.9631 C   0  0  0  0  0  0  0  0  0  0  0  0
    2.7340   -4.1247   -1.4682 C   0  0  0  0  0  0  0  0  0  0  0  0
    1.6022   -3.4742   -0.9977 C   0  0  0  0  0  0  0  0  0  0  0  0
    0.4664   -2.9313   -5.5839 O   0  0  0  0  0  0  0  0  0  0  0  0
    2.5284   -7.3091    0.3309 O   0  0  0  0  0  0  0  0  0  0  0  0
    4.7548   -1.6084   -0.1813 C   0  0  0  0  0  0  0  0  0  0  0  0
    3.8010   -3.0286    1.5455 C   0  0  0  0  0  0  0  0  0  0  0  0
    3.6886    0.6587    1.6384 O   0  0  0  0  0  0  0  0  0  0  0  0
    5.6690   -2.6233   -0.5014 C   0  0  0  0  0  0  0  0  0  0  0  0
    4.7595   -4.0047    1.2706 C   0  0  0  0  0  0  0  0  0  0  0  0
    5.6665   -3.8211    0.2228 C   0  0  0  0  0  0  0  0  0  0  0  0
    6.6414   -2.4336   -1.5584 C   0  0  0  0  0  0  0  0  0  0  0  0
    7.4191   -2.2873   -2.3804 N   0  0  0  0  0  0  0  0  0  0  0  0
   -1.5402    0.7804    1.1143 H   0  0  0  0  0  0  0  0  0  0  0  0
   -3.6569    0.9380   -0.0060 H   0  0  0  0  0  0  0  0  0  0  0  0
   -2.7720    2.4315   -0.0262 H   0  0  0  0  0  0  0  0  0  0  0  0
   -3.0049   -0.3399   -2.2638 H   0  0  0  0  0  0  0  0  0  0  0  0
   -3.8216   -0.4871   -4.6498 H   0  0  0  0  0  0  0  0  0  0  0  0
   -3.9201    1.4741   -5.8569 H   0  0  0  0  0  0  0  0  0  0  0  0
   -3.8298    3.6459   -4.5817 H   0  0  0  0  0  0  0  0  0  0  0  0
   -3.0437    3.7163   -2.1947 H   0  0  0  0  0  0  0  0  0  0  0  0
   -0.4514    2.5039   -0.4661 H   0  0  0  0  0  0  0  0  0  0  0  0
    0.1377    0.0992   -1.7889 H   0  0  0  0  0  0  0  0  0  0  0  0
    1.6374    2.0318    0.3802 H   0  0  0  0  0  0  0  0  0  0  0  0
    0.6168    1.1140    1.4995 H   0  0  0  0  0  0  0  0  0  0  0  0
   -2.7142   -2.5178   -0.0982 H   0  0  0  0  0  0  0  0  0  0  0  0
   -3.3861   -1.1582   -0.8065 H   0  0  0  0  0  0  0  0  0  0  0  0
    0.6602   -1.8337   -2.1649 H   0  0  0  0  0  0  0  0  0  0  0  0
    2.2706   -1.5747   -1.8151 H   0  0  0  0  0  0  0  0  0  0  0  0
   -1.0921   -3.9802   -1.4038 H   0  0  0  0  0  0  0  0  0  0  0  0
    0.5408   -4.3014   -3.3036 H   0  0  0  0  0  0  0  0  0  0  0  0
   -1.6234   -1.3556   -5.4568 H   0  0  0  0  0  0  0  0  0  0  0  0
   -3.3196   -1.7872   -3.5757 H   0  0  0  0  0  0  0  0  0  0  0  0
   -0.2177   -3.8803    0.1861 H   0  0  0  0  0  0  0  0  0  0  0  0
    0.1652   -6.1070    0.6735 H   0  0  0  0  0  0  0  0  0  0  0  0
    4.0562   -5.7798   -1.1132 H   0  0  0  0  0  0  0  0  0  0  0  0
    3.4248   -3.6168   -2.1352 H   0  0  0  0  0  0  0  0  0  0  0  0
    1.0644   -3.6778   -5.4116 H   0  0  0  0  0  0  0  0  0  0  0  0
    1.7615   -7.6694    0.8099 H   0  0  0  0  0  0  0  0  0  0  0  0
    4.7610   -0.6698   -0.7317 H   0  0  0  0  0  0  0  0  0  0  0  0
    3.0227   -3.2335    2.2799 H   0  0  0  0  0  0  0  0  0  0  0  0
    4.7672   -4.9316    1.8406 H   0  0  0  0  0  0  0  0  0  0  0  0
    6.3287   -4.6433   -0.0499 H   0  0  0  0  0  0  0  0  0  0  0  0
  1  9  1  0  0  0  0
  1 16  1  0  0  0  0
  1 44  1  1  0  0  0
  1  2  1  0  0  0  0
  2  3  1  0  0  0  0
  2 45  1  0  0  0  0
  2 46  1  0  0  0  0
  3  4  2  0  0  0  0
  3  8  1  0  0  0  0
  4  5  1  0  0  0  0
  4 47  1  0  0  0  0
  5  6  2  0  0  0  0
  5 48  1  0  0  0  0
  6  7  1  0  0  0  0
  6 49  1  0  0  0  0
  7  8  2  0  0  0  0
  7 50  1  0  0  0  0
  8 51  1  0  0  0  0
  9 10  1  0  0  0  0
  9 52  1  1  0  0  0
 10 53  1  0  0  0  0
 11  9  1  0  0  0  0
 11 12  1  0  0  0  0
 11 54  1  0  0  0  0
 11 55  1  0  0  0  0
 12 13  1  0  0  0  0
 12 15  1  0  0  0  0
 14 13  2  0  0  0  0
 17 15  1  0  0  0  0
 17 16  1  0  0  0  0
 17 18  2  0  0  0  0
 19 16  1  0  0  0  0
 19 27  1  0  0  0  0
 19 56  1  0  0  0  0
 19 57  1  0  0  0  0
 20 15  1  0  0  0  0
 20 33  1  0  0  0  0
 20 58  1  0  0  0  0
 20 59  1  0  0  0  0
 21 13  1  0  0  0  0
 21 36  2  0  0  0  0
 21 37  1  0  0  0  0
 22 23  2  0  0  0  0
 22 27  1  0  0  0  0
 22 60  1  0  0  0  0
 23 24  1  0  0  0  0
 23 61  1  0  0  0  0
 24 25  2  0  0  0  0
 24 34  1  0  0  0  0
 25 26  1  0  0  0  0
 25 62  1  0  0  0  0
 26 27  2  0  0  0  0
 26 63  1  0  0  0  0
 28 29  2  0  0  0  0
 28 33  1  0  0  0  0
 28 64  1  0  0  0  0
 29 30  1  0  0  0  0
 29 65  1  0  0  0  0
 30 31  2  0  0  0  0
 30 35  1  0  0  0  0
 31 32  1  0  0  0  0
 31 66  1  0  0  0  0
 32 33  2  0  0  0  0
 32 67  1  0  0  0  0
 34 68  1  0  0  0  0
 35 69  1  0  0  0  0
 36 39  1  0  0  0  0
 36 70  1  0  0  0  0
 37 40  2  0  0  0  0
 37 71  1  0  0  0  0
 38 13  2  0  0  0  0
 40 72  1  0  0  0  0
 41 39  2  0  0  0  0
 41 40  1  0  0  0  0
 41 73  1  0  0  0  0
 42 39  1  0  0  0  0
 42 43  3  0  0  0  0
M  END
>  <DRUGBANK_ID>
DB03141

>  <SECONDARY_ACCESSION_NUMBERS>
EXPT00690

>  <COMMON_NAME>
3-{[(5R,6R)-5-Benzyl-6-hydroxy-2,4-bis(4-hydroxybenzyl)-3-oxo-1,2,4-triazepan-1-yl]sulfonyl}benzonitril

$$$$
