
 OpenBabel10282417203D

 39 42  0  0  0  0  0  0  0  0999 V2000
    2.0207    1.0972    0.0182 C   0  0  0  0  0  0  0  0  0  0  0  0
    2.2868   -0.2802    0.0017 C   0  0  0  0  0  0  0  0  0  0  0  0
    0.6952    1.6024    0.0292 C   0  0  0  0  0  0  0  0  0  0  0  0
    1.2275   -1.1682   -0.0105 C   0  0  0  0  0  0  0  0  0  0  0  0
   -3.9174    1.9547   -1.3966 C   0  0  0  0  0  0  0  0  0  0  0  0
   -1.6903    2.5870   -2.0346 C   0  0  0  0  0  0  0  0  0  0  0  0
   -1.9382    1.2571    2.5698 C   0  0  0  0  0  0  0  0  0  0  0  0
   -3.3010    2.7863    1.3482 C   0  0  0  0  0  0  0  0  0  0  0  0
   -4.4355    3.0790   -2.0758 C   0  0  0  0  0  0  0  0  0  0  0  0
   -2.2236    3.5939   -2.8471 C   0  0  0  0  0  0  0  0  0  0  0  0
   -2.2603    1.9655    3.7411 C   0  0  0  0  0  0  0  0  0  0  0  0
   -3.7629    3.3746    2.5191 C   0  0  0  0  0  0  0  0  0  0  0  0
   -2.5106    1.7784   -1.2382 C   0  0  0  0  0  0  0  0  0  0  0  0
   -2.3955    1.6929    1.3201 C   0  0  0  0  0  0  0  0  0  0  0  0
   -3.5754    3.8943   -2.7946 C   0  0  0  0  0  0  0  0  0  0  0  0
   -3.1766    3.0122    3.7054 C   0  0  0  0  0  0  0  0  0  0  0  0
   -0.3882    0.7242   -0.0206 C   0  0  0  0  0  0  0  0  0  0  0  0
   -0.0541   -0.6284   -0.0313 C   0  0  0  0  0  0  0  0  0  0  0  0
   -1.9340    0.9880   -0.0078 C   0  0  0  0  0  0  0  0  0  0  0  0
   -3.9928    5.0187   -3.4424 O   0  0  0  0  0  0  0  0  0  0  0  0
   -3.5171    3.7354    4.8056 O   0  0  0  0  0  0  0  0  0  0  0  0
   -1.5319   -2.2433   -1.3232 O   0  0  0  0  0  0  0  0  0  0  0  0
   -1.5296   -2.2819    1.2205 O   0  0  0  0  0  0  0  0  0  0  0  0
   -2.5547   -0.3298   -0.0224 O   0  0  0  0  0  0  0  0  0  0  0  0
   -1.4933   -1.5745   -0.0490 S   0  0  0  0  0  0  0  0  0  0  0  0
    2.8662    1.7844    0.0236 H   0  0  0  0  0  0  0  0  0  0  0  0
    3.3091   -0.6565   -0.0003 H   0  0  0  0  0  0  0  0  0  0  0  0
    0.5525    2.6798    0.0596 H   0  0  0  0  0  0  0  0  0  0  0  0
    1.3847   -2.2437   -0.0084 H   0  0  0  0  0  0  0  0  0  0  0  0
   -4.6155    1.3590   -0.8033 H   0  0  0  0  0  0  0  0  0  0  0  0
   -0.6114    2.5106   -1.9970 H   0  0  0  0  0  0  0  0  0  0  0  0
   -1.3031    0.3787    2.6510 H   0  0  0  0  0  0  0  0  0  0  0  0
   -3.6916    3.2627    0.4604 H   0  0  0  0  0  0  0  0  0  0  0  0
   -5.4862    3.3401   -1.9647 H   0  0  0  0  0  0  0  0  0  0  0  0
   -1.5617    4.1868   -3.4703 H   0  0  0  0  0  0  0  0  0  0  0  0
   -1.7879    1.6775    4.6731 H   0  0  0  0  0  0  0  0  0  0  0  0
   -4.5365    4.1369    2.4773 H   0  0  0  0  0  0  0  0  0  0  0  0
   -4.9329    5.1773   -3.2576 H   0  0  0  0  0  0  0  0  0  0  0  0
   -2.9409    3.4722    5.5392 H   0  0  0  0  0  0  0  0  0  0  0  0
  1 26  1  0  0  0  0
  2  1  2  0  0  0  0
  2 27  1  0  0  0  0
  3  1  1  0  0  0  0
  3 28  1  0  0  0  0
  4  2  1  0  0  0  0
  4 29  1  0  0  0  0
  5 30  1  0  0  0  0
  6 31  1  0  0  0  0
  7 32  1  0  0  0  0
  8 33  1  0  0  0  0
  9  5  1  0  0  0  0
  9 34  1  0  0  0  0
 10  6  2  0  0  0  0
 10 35  1  0  0  0  0
 11  7  1  0  0  0  0
 11 36  1  0  0  0  0
 12  8  2  0  0  0  0
 12 37  1  0  0  0  0
 13  5  2  0  0  0  0
 13  6  1  0  0  0  0
 14  7  2  0  0  0  0
 14  8  1  0  0  0  0
 15  9  2  0  0  0  0
 15 10  1  0  0  0  0
 16 11  2  0  0  0  0
 16 12  1  0  0  0  0
 17  3  2  0  0  0  0
 18  4  2  0  0  0  0
 18 17  1  0  0  0  0
 19 13  1  0  0  0  0
 19 14  1  0  0  0  0
 19 17  1  0  0  0  0
 20 15  1  0  0  0  0
 20 38  1  0  0  0  0
 21 16  1  0  0  0  0
 21 39  1  0  0  0  0
 24 19  1  0  0  0  0
 25 18  1  0  0  0  0
 25 22  2  0  0  0  0
 25 23  2  0  0  0  0
 25 24  1  0  0  0  0
M  END
>  <DRUGBANK_ID>
DB13212

>  <COMMON_NAME>
Phenolsulfonphthalein

>  <CAS_NUMBER>
143-74-8

>  <UNII>
I6G9Y0J1OJ

>  <SYNONYMS>
Phenolsulfonphthalein

$$$$
