DR4
 OpenBabel10282417143D

 54 54  0  0  0  0  0  0  0  0999 V2000
    0.8133   -2.1674  -15.7046 C   0  0  0  0  0  0  0  0  0  0  0  0
    0.7799   -2.4098  -14.2957 O   0  0  0  0  0  0  0  0  0  0  0  0
    1.8982   -2.9573  -13.7552 C   0  0  0  0  0  0  0  0  0  0  0  0
    2.8492   -3.3882  -14.4126 O   0  0  0  0  0  0  0  0  0  0  0  0
    1.8560   -2.9843  -12.2445 C   0  0  0  0  0  0  0  0  0  0  0  0
    1.8511   -1.5791  -11.6419 C   0  0  0  0  0  0  0  0  0  0  0  0
    0.5823   -0.8121  -12.0156 C   0  0  0  0  0  0  0  0  0  0  0  0
   -0.6558   -1.6033  -11.5712 C   0  0  0  0  0  0  0  0  0  0  0  0
   -0.6536   -1.7356  -10.0447 C   0  0  0  0  0  0  0  0  0  0  0  0
   -0.6281   -0.3442   -9.4321 C   0  0  0  0  0  0  0  0  0  0  0  0
   -1.8248    0.4207   -9.9714 C   0  0  0  0  0  0  0  0  0  0  0  0
   -3.0852   -0.2762   -9.4153 C   0  0  0  0  0  0  0  0  0  0  0  0
   -2.9336   -0.2928   -7.9641 O   0  0  0  0  0  0  0  0  0  0  0  0
   -3.4641    0.9306   -7.4686 C   0  0  2  0  0  0  0  0  0  0  0  0
   -3.2293    1.8938   -8.4772 O   0  0  0  0  0  0  0  0  0  0  0  0
   -4.0962    2.9867   -8.5333 C   0  0  2  0  0  0  0  0  0  0  0  0
   -3.8466    3.6754   -9.8795 C   0  0  0  0  0  0  0  0  0  0  0  0
   -4.1484    2.7966  -10.9701 O   0  0  0  0  0  0  0  0  0  0  0  0
   -3.6874    3.8084   -7.3254 C   0  0  2  0  0  0  0  0  0  0  0  0
   -2.3245    4.2644   -7.4387 O   0  0  0  0  0  0  0  0  0  0  0  0
   -3.8028    2.9103   -6.0682 C   0  0  2  0  0  0  0  0  0  0  0  0
   -3.4764    3.6689   -4.9091 O   0  0  0  0  0  0  0  0  0  0  0  0
   -2.9633    1.5835   -6.1616 C   0  0  1  0  0  0  0  0  0  0  0  0
   -3.1981    0.7684   -5.0126 O   0  0  0  0  0  0  0  0  0  0  0  0
   -4.5159    0.6762   -7.3215 H   0  0  0  0  0  0  0  0  0  0  0  0
   -5.1227    2.6065   -8.4943 H   0  0  0  0  0  0  0  0  0  0  0  0
   -4.3160    4.6970   -7.2543 H   0  0  0  0  0  0  0  0  0  0  0  0
   -4.8558    2.6219   -5.9620 H   0  0  0  0  0  0  0  0  0  0  0  0
   -1.8874    1.8118   -6.1718 H   0  0  0  0  0  0  0  0  0  0  0  0
   -0.0733   -1.5837  -15.9776 H   0  0  0  0  0  0  0  0  0  0  0  0
    0.7813   -3.1196  -16.2360 H   0  0  0  0  0  0  0  0  0  0  0  0
    1.6960   -1.5833  -15.9871 H   0  0  0  0  0  0  0  0  0  0  0  0
    1.0066   -3.5935  -11.9151 H   0  0  0  0  0  0  0  0  0  0  0  0
    2.7364   -3.5188  -11.8762 H   0  0  0  0  0  0  0  0  0  0  0  0
    1.9361   -1.6552  -10.5486 H   0  0  0  0  0  0  0  0  0  0  0  0
    2.7320   -1.0128  -11.9549 H   0  0  0  0  0  0  0  0  0  0  0  0
    0.6166    0.1937  -11.5835 H   0  0  0  0  0  0  0  0  0  0  0  0
    0.5332   -0.5925  -13.0813 H   0  0  0  0  0  0  0  0  0  0  0  0
   -1.5585   -1.1165  -11.9544 H   0  0  0  0  0  0  0  0  0  0  0  0
   -0.7248   -2.5944  -12.0210 H   0  0  0  0  0  0  0  0  0  0  0  0
   -1.5266   -2.3094   -9.7206 H   0  0  0  0  0  0  0  0  0  0  0  0
    0.1910   -2.3139   -9.6672 H   0  0  0  0  0  0  0  0  0  0  0  0
   -0.6431   -0.4027   -8.3391 H   0  0  0  0  0  0  0  0  0  0  0  0
    0.2899    0.2104   -9.6449 H   0  0  0  0  0  0  0  0  0  0  0  0
   -1.6493    1.4507   -9.6559 H   0  0  0  0  0  0  0  0  0  0  0  0
   -1.8839    0.5317  -11.0581 H   0  0  0  0  0  0  0  0  0  0  0  0
   -4.0195    0.2169   -9.7223 H   0  0  0  0  0  0  0  0  0  0  0  0
   -3.2090   -1.2933   -9.7979 H   0  0  0  0  0  0  0  0  0  0  0  0
   -4.4997    4.5420   -9.9746 H   0  0  0  0  0  0  0  0  0  0  0  0
   -2.8041    3.9898  -10.0020 H   0  0  0  0  0  0  0  0  0  0  0  0
   -3.4534    2.1151  -10.9814 H   0  0  0  0  0  0  0  0  0  0  0  0
   -1.7588    3.4975   -7.6572 H   0  0  0  0  0  0  0  0  0  0  0  0
   -2.5761    4.0171   -5.0455 H   0  0  0  0  0  0  0  0  0  0  0  0
   -4.1581    0.6485   -4.9248 H   0  0  0  0  0  0  0  0  0  0  0  0
  1  2  1  0  0  0  0
  1 30  1  0  0  0  0
  1 31  1  0  0  0  0
  1 32  1  0  0  0  0
  2  3  1  0  0  0  0
  3  4  2  0  0  0  0
  3  5  1  0  0  0  0
  5  6  1  0  0  0  0
  5 33  1  0  0  0  0
  5 34  1  0  0  0  0
  6  7  1  0  0  0  0
  6 35  1  0  0  0  0
  6 36  1  0  0  0  0
  7  8  1  0  0  0  0
  7 37  1  0  0  0  0
  7 38  1  0  0  0  0
  8  9  1  0  0  0  0
  8 39  1  0  0  0  0
  8 40  1  0  0  0  0
  9 10  1  0  0  0  0
  9 41  1  0  0  0  0
  9 42  1  0  0  0  0
 10 11  1  0  0  0  0
 10 43  1  0  0  0  0
 10 44  1  0  0  0  0
 11 12  1  0  0  0  0
 11 45  1  0  0  0  0
 11 46  1  0  0  0  0
 12 13  1  0  0  0  0
 12 47  1  0  0  0  0
 12 48  1  0  0  0  0
 14 15  1  0  0  0  0
 14 23  1  0  0  0  0
 14 25  1  1  0  0  0
 14 13  1  0  0  0  0
 15 16  1  0  0  0  0
 16 17  1  0  0  0  0
 16 19  1  0  0  0  0
 16 26  1  1  0  0  0
 17 18  1  0  0  0  0
 17 49  1  0  0  0  0
 17 50  1  0  0  0  0
 18 51  1  0  0  0  0
 19 20  1  0  0  0  0
 19 21  1  0  0  0  0
 19 27  1  1  0  0  0
 20 52  1  0  0  0  0
 21 22  1  0  0  0  0
 21 23  1  0  0  0  0
 21 28  1  1  0  0  0
 22 53  1  0  0  0  0
 23 24  1  0  0  0  0
 23 29  1  6  0  0  0
 24 54  1  0  0  0  0
M  END
>  <DRUGBANK_ID>
DB04680

>  <COMMON_NAME>
GALACTOSE GREASE

$$$$
