TPB
 OpenBabel10282417173D

 44 46  0  0  0  0  0  0  0  0999 V2000
    1.3597   -0.5396   -0.0136 C   0  0  0  0  0  0  0  0  0  0  0  0
    2.7053   -0.9977   -0.2016 N   0  0  0  0  0  0  0  0  0  0  0  0
    1.1039    0.8616   -0.0112 C   0  0  0  0  0  0  0  0  0  0  0  0
    2.2232    1.8774    0.0284 C   0  0  0  0  0  0  0  0  0  0  0  0
   -0.2335    1.3520    0.0072 C   0  0  0  0  0  0  0  0  0  0  0  0
   -1.3268    0.4797   -0.0055 C   0  0  0  0  0  0  0  0  0  0  0  0
   -1.0724   -0.8837    0.0061 C   0  0  0  0  0  0  0  0  0  0  0  0
    0.2334   -1.4020    0.0416 C   0  0  0  0  0  0  0  0  0  0  0  0
    0.2580   -2.8946    0.1886 C   0  0  0  0  0  0  0  0  0  0  0  0
    3.1674   -2.3299   -0.2152 C   0  0  0  0  0  0  0  0  0  0  0  0
    3.8107   -2.8183    0.8576 N   0  0  0  0  0  0  0  0  0  0  0  0
    3.9812   -4.1548    0.9385 C   0  0  0  0  0  0  0  0  0  0  0  0
    4.7016   -4.6807    2.0109 N   0  0  0  0  0  0  0  0  0  0  0  0
    3.5344   -5.0204    0.0099 N   0  0  0  0  0  0  0  0  0  0  0  0
    2.9296   -4.4871   -1.0700 C   0  0  0  0  0  0  0  0  0  0  0  0
    2.7642   -3.1390   -1.2544 C   0  0  0  0  0  0  0  0  0  0  0  0
    5.1064   -4.0122    3.1701 C   0  0  0  0  0  0  0  0  0  0  0  0
    4.1901   -3.2851    3.9406 C   0  0  0  0  0  0  0  0  0  0  0  0
    4.5864   -2.6362    5.1129 C   0  0  0  0  0  0  0  0  0  0  0  0
    5.9158   -2.7012    5.5309 C   0  0  0  0  0  0  0  0  0  0  0  0
    6.8535   -3.3737    4.7420 C   0  0  0  0  0  0  0  0  0  0  0  0
    6.4467   -4.0335    3.5735 C   0  0  0  0  0  0  0  0  0  0  0  0
    6.2973   -2.1202    6.7896 C   0  0  0  0  0  0  0  0  0  0  0  0
    6.5832   -1.6829    7.8200 N   0  0  0  0  0  0  0  0  0  0  0  0
   -2.7590    0.9304    0.0029 C   0  0  0  0  0  0  0  0  0  0  0  0
    3.3983   -0.4215    0.2593 H   0  0  0  0  0  0  0  0  0  0  0  0
    2.1461    2.5824   -0.8041 H   0  0  0  0  0  0  0  0  0  0  0  0
    2.2014    2.4192    0.9801 H   0  0  0  0  0  0  0  0  0  0  0  0
    3.2158    1.4307   -0.0483 H   0  0  0  0  0  0  0  0  0  0  0  0
   -0.4152    2.4268    0.0339 H   0  0  0  0  0  0  0  0  0  0  0  0
   -1.9088   -1.5828    0.0139 H   0  0  0  0  0  0  0  0  0  0  0  0
   -0.3524   -3.2247    1.0301 H   0  0  0  0  0  0  0  0  0  0  0  0
   -0.0604   -3.3770   -0.7425 H   0  0  0  0  0  0  0  0  0  0  0  0
    1.2173   -3.2697    0.4916 H   0  0  0  0  0  0  0  0  0  0  0  0
    4.8414   -5.6785    1.9527 H   0  0  0  0  0  0  0  0  0  0  0  0
    2.4772   -5.1849   -1.7684 H   0  0  0  0  0  0  0  0  0  0  0  0
    2.1653   -2.7290   -2.0570 H   0  0  0  0  0  0  0  0  0  0  0  0
    3.1469   -3.2347    3.6358 H   0  0  0  0  0  0  0  0  0  0  0  0
    3.8445   -2.0961    5.6971 H   0  0  0  0  0  0  0  0  0  0  0  0
    7.9022   -3.3974    5.0328 H   0  0  0  0  0  0  0  0  0  0  0  0
    7.1935   -4.5337    2.9606 H   0  0  0  0  0  0  0  0  0  0  0  0
   -2.9864    1.5008    0.9076 H   0  0  0  0  0  0  0  0  0  0  0  0
   -2.9907    1.5202   -0.8876 H   0  0  0  0  0  0  0  0  0  0  0  0
   -3.4351    0.0638   -0.0043 H   0  0  0  0  0  0  0  0  0  0  0  0
  1  2  1  0  0  0  0
  1  3  2  0  0  0  0
  1  8  1  0  0  0  0
  2 10  1  0  0  0  0
  2 26  1  0  0  0  0
  3  4  1  0  0  0  0
  3  5  1  0  0  0  0
  4 27  1  0  0  0  0
  4 28  1  0  0  0  0
  4 29  1  0  0  0  0
  5  6  2  0  0  0  0
  5 30  1  0  0  0  0
  6  7  1  0  0  0  0
  6 25  1  0  0  0  0
  7  8  2  0  0  0  0
  7 31  1  0  0  0  0
  8  9  1  0  0  0  0
  9 32  1  0  0  0  0
  9 33  1  0  0  0  0
  9 34  1  0  0  0  0
 10 11  2  0  0  0  0
 10 16  1  0  0  0  0
 11 12  1  0  0  0  0
 12 13  1  0  0  0  0
 12 14  2  0  0  0  0
 13 17  1  0  0  0  0
 13 35  1  0  0  0  0
 14 15  1  0  0  0  0
 15 16  2  0  0  0  0
 15 36  1  0  0  0  0
 16 37  1  0  0  0  0
 17 18  2  0  0  0  0
 17 22  1  0  0  0  0
 18 19  1  0  0  0  0
 18 38  1  0  0  0  0
 19 20  2  0  0  0  0
 19 39  1  0  0  0  0
 20 21  1  0  0  0  0
 20 23  1  0  0  0  0
 21 22  2  0  0  0  0
 21 40  1  0  0  0  0
 22 41  1  0  0  0  0
 23 24  3  0  0  0  0
 25 42  1  0  0  0  0
 25 43  1  0  0  0  0
 25 44  1  0  0  0  0
M  END
>  <DRUGBANK_ID>
DB08639

>  <SECONDARY_ACCESSION_NUMBERS>
DB11908

>  <COMMON_NAME>
Dapivirine

>  <CAS_NUMBER>
244767-67-7

>  <UNII>
TCN4MG2VXS

>  <SYNONYMS>
Dapivirine

$$$$
