
 OpenBabel10282417233D

 84 87  0  0  1  0  0  0  0  0999 V2000
    1.4600    1.2854    4.1129 H   0  0  0  0  0  0  0  0  0  0  0  0
    0.6017    1.6416    3.6297 C   0  0  2  0  0  0  0  0  0  0  0  0
   -1.1866    0.9876    4.3245 C   0  0  0  0  0  0  0  0  0  0  0  0
   -1.8540    1.9403    5.3597 C   0  0  0  0  0  0  0  0  0  0  0  0
   -0.4508    2.1698    5.5009 C   0  0  2  0  0  0  0  0  0  0  0  0
    0.0792    2.9981    6.4688 O   0  0  0  0  0  0  0  0  0  0  0  0
    1.3773    3.3164    6.3573 C   0  0  0  0  0  0  0  0  0  0  0  0
    1.7894    4.3208    6.9320 O   0  0  0  0  0  0  0  0  0  0  0  0
    2.2802    2.6689    5.3641 C   0  0  0  0  0  0  0  0  0  0  0  0
    2.7515    1.0714    5.3741 C   0  0  0  0  0  0  0  0  0  0  0  0
    1.6940   -0.1292    5.1590 C   0  0  0  0  0  0  0  0  0  0  0  0
    1.0558   -0.5278    3.7169 C   0  0  0  0  0  0  0  0  0  0  0  0
    1.8879   -0.6064    2.4481 C   0  0  0  0  0  0  0  0  0  0  0  0
    1.8319   -2.0488    2.5464 C   0  0  0  0  0  0  0  0  0  0  0  0
    0.2846   -2.5067    2.5314 C   0  0  0  0  0  0  0  0  0  0  0  0
   -0.4924   -2.0508    1.2719 C   0  0  0  0  0  0  0  0  0  0  0  0
    0.3212   -2.4590    0.0715 C   0  0  0  0  0  0  0  0  0  0  0  0
    0.6404   -3.9290    0.2342 C   0  0  0  0  0  0  0  0  0  0  0  0
   -0.3271    2.5492    3.7575 C   0  0  2  0  0  0  0  0  0  0  0  0
   -0.7395    1.5314    2.3669 C   0  0  0  0  0  0  0  0  0  0  0  0
   -0.2149    3.8417    3.1022 C   0  0  0  0  0  0  0  0  0  0  0  0
    0.7034    3.8775    1.6469 C   0  0  2  0  0  0  0  0  0  0  0  0
    0.2667    2.7380    0.4908 C   0  0  0  0  0  0  0  0  0  0  0  0
    2.3682    4.0140    2.0829 C   0  0  2  0  0  0  0  0  0  0  0  0
    2.3118    4.6403    2.9689 H   0  0  0  0  0  0  0  0  0  0  0  0
    4.0036    4.8067    1.2758 C   0  0  1  0  0  0  0  0  0  0  0  0
    3.5106    5.4103    0.5032 H   0  0  0  0  0  0  0  0  0  0  0  0
    5.8131    5.6341    1.4766 C   0  0  0  0  0  0  0  0  0  0  0  0
    6.9114    5.4796    0.1274 C   0  0  0  0  0  0  0  0  0  0  0  0
    6.7037    4.0560    0.2136 C   0  0  0  0  0  0  0  0  0  0  0  0
    7.3541    3.4011    1.0223 O   0  0  0  0  0  0  0  0  0  0  0  0
    5.3676    3.7719   -0.3811 C   0  0  0  0  0  0  0  0  0  0  0  0
    4.5179    3.5442    0.6346 C   0  0  0  0  0  0  0  0  0  0  0  0
    4.6517    2.2951    1.4407 C   0  0  0  0  0  0  0  0  0  0  0  0
    3.9016    2.1476    2.7870 C   0  0  1  0  0  0  0  0  0  0  0  0
    4.5961    3.1472    3.7459 C   0  0  0  0  0  0  0  0  0  0  0  0
    2.1854    2.3614    2.5470 C   0  0  1  0  0  0  0  0  0  0  0  0
    2.1557    1.7462    1.6484 H   0  0  0  0  0  0  0  0  0  0  0  0
   -1.9513    0.1275    4.4679 H   0  0  0  0  0  0  0  0  0  0  0  0
   -2.0059    0.9516    3.5503 H   0  0  0  0  0  0  0  0  0  0  0  0
   -2.4161    1.4350    6.1593 H   0  0  0  0  0  0  0  0  0  0  0  0
   -2.4240    2.7273    4.8760 H   0  0  0  0  0  0  0  0  0  0  0  0
   -0.3017    1.1539    5.9988 H   0  0  0  0  0  0  0  0  0  0  0  0
    1.9320    3.1241    4.4375 H   0  0  0  0  0  0  0  0  0  0  0  0
    3.1540    3.3006    5.4400 H   0  0  0  0  0  0  0  0  0  0  0  0
    3.4568    0.8437    4.5891 H   0  0  0  0  0  0  0  0  0  0  0  0
    3.2781    0.9436    6.3008 H   0  0  0  0  0  0  0  0  0  0  0  0
    1.9258   -1.1048    5.5404 H   0  0  0  0  0  0  0  0  0  0  0  0
    1.0049    0.1990    5.9135 H   0  0  0  0  0  0  0  0  0  0  0  0
    0.0418   -0.8072    4.0368 H   0  0  0  0  0  0  0  0  0  0  0  0
    0.4558   -0.1547    2.9108 H   0  0  0  0  0  0  0  0  0  0  0  0
    1.5186   -0.2713    1.4226 H   0  0  0  0  0  0  0  0  0  0  0  0
    2.8121   -0.0703    2.5420 H   0  0  0  0  0  0  0  0  0  0  0  0
    2.4529   -2.3594    1.7224 H   0  0  0  0  0  0  0  0  0  0  0  0
    2.3283   -2.2050    3.5135 H   0  0  0  0  0  0  0  0  0  0  0  0
    0.3146   -3.5662    2.7387 H   0  0  0  0  0  0  0  0  0  0  0  0
   -0.3875   -2.2411    3.3601 H   0  0  0  0  0  0  0  0  0  0  0  0
   -1.4879   -2.5104    1.2949 H   0  0  0  0  0  0  0  0  0  0  0  0
   -0.7126   -0.9788    1.1665 H   0  0  0  0  0  0  0  0  0  0  0  0
   -0.2266   -2.2463   -0.8455 H   0  0  0  0  0  0  0  0  0  0  0  0
    1.2466   -1.8744    0.0095 H   0  0  0  0  0  0  0  0  0  0  0  0
   -0.2961   -4.4853    0.3241 H   0  0  0  0  0  0  0  0  0  0  0  0
    1.2484   -4.2804   -0.5868 H   0  0  0  0  0  0  0  0  0  0  0  0
    1.2244   -4.1391    1.1376 H   0  0  0  0  0  0  0  0  0  0  0  0
    0.1764    1.2992    1.8764 H   0  0  0  0  0  0  0  0  0  0  0  0
   -0.9225    0.4419    2.4849 H   0  0  0  0  0  0  0  0  0  0  0  0
   -1.6676    1.6172    1.8487 H   0  0  0  0  0  0  0  0  0  0  0  0
   -1.2927    3.8902    2.8918 H   0  0  0  0  0  0  0  0  0  0  0  0
    0.0974    4.5551    3.8620 H   0  0  0  0  0  0  0  0  0  0  0  0
    0.3077    4.7917    1.2518 H   0  0  0  0  0  0  0  0  0  0  0  0
   -0.8288    2.5585    0.5033 H   0  0  0  0  0  0  0  0  0  0  0  0
    0.5571    2.9530   -0.5149 H   0  0  0  0  0  0  0  0  0  0  0  0
    0.7121    1.7146    0.4763 H   0  0  0  0  0  0  0  0  0  0  0  0
    6.3877    6.6145    1.2564 H   0  0  0  0  0  0  0  0  0  0  0  0
    6.0176    6.1011    2.4716 H   0  0  0  0  0  0  0  0  0  0  0  0
    8.0132    5.4288   -0.0785 H   0  0  0  0  0  0  0  0  0  0  0  0
    6.5898    6.1827   -0.6792 H   0  0  0  0  0  0  0  0  0  0  0  0
    5.1571    4.7242   -0.8972 H   0  0  0  0  0  0  0  0  0  0  0  0
    4.3911    1.4615    0.7848 H   0  0  0  0  0  0  0  0  0  0  0  0
    5.7071    2.1588    1.6921 H   0  0  0  0  0  0  0  0  0  0  0  0
    4.2442    1.1346    3.0423 H   0  0  0  0  0  0  0  0  0  0  0  0
    4.0039    4.0544    3.8200 H   0  0  0  0  0  0  0  0  0  0  0  0
    4.7418    2.6959    4.7293 H   0  0  0  0  0  0  0  0  0  0  0  0
    5.5904    3.5105    3.4737 H   0  0  0  0  0  0  0  0  0  0  0  0
  2  1  1  1  0  0  0
  2  3  1  0  0  0  0
  2 19  1  0  0  0  0
  3  4  1  0  0  0  0
  3 39  1  0  0  0  0
  3 40  1  0  0  0  0
  4 41  1  0  0  0  0
  4 42  1  0  0  0  0
  5  4  1  0  0  0  0
  5 43  1  1  0  0  0
  5  6  1  0  0  0  0
  6  7  1  0  0  0  0
  7  8  2  0  0  0  0
  7  9  1  0  0  0  0
  9 10  1  0  0  0  0
  9 44  1  0  0  0  0
  9 45  1  0  0  0  0
 10 11  1  0  0  0  0
 10 46  1  0  0  0  0
 10 47  1  0  0  0  0
 11 12  1  0  0  0  0
 11 48  1  0  0  0  0
 11 49  1  0  0  0  0
 12 13  1  0  0  0  0
 12 50  1  0  0  0  0
 12 51  1  0  0  0  0
 13 14  1  0  0  0  0
 13 52  1  0  0  0  0
 13 53  1  0  0  0  0
 14 15  1  0  0  0  0
 14 54  1  0  0  0  0
 14 55  1  0  0  0  0
 15 16  1  0  0  0  0
 15 56  1  0  0  0  0
 15 57  1  0  0  0  0
 16 17  1  0  0  0  0
 16 58  1  0  0  0  0
 16 59  1  0  0  0  0
 17 18  1  0  0  0  0
 17 60  1  0  0  0  0
 17 61  1  0  0  0  0
 18 62  1  0  0  0  0
 18 63  1  0  0  0  0
 18 64  1  0  0  0  0
 19  5  1  0  0  0  0
 19 20  1  6  0  0  0
 19 21  1  0  0  0  0
 20 65  1  0  0  0  0
 20 66  1  0  0  0  0
 20 67  1  0  0  0  0
 21 68  1  0  0  0  0
 21 69  1  0  0  0  0
 22 21  1  0  0  0  0
 22 23  1  0  0  0  0
 22 70  1  6  0  0  0
 23 71  1  0  0  0  0
 23 72  1  0  0  0  0
 23 73  1  0  0  0  0
 24 22  1  0  0  0  0
 24 25  1  1  0  0  0
 24 26  1  0  0  0  0
 24 37  1  0  0  0  0
 26 27  1  6  0  0  0
 26 28  1  0  0  0  0
 26 33  1  0  0  0  0
 28 29  1  0  0  0  0
 28 74  1  0  0  0  0
 28 75  1  0  0  0  0
 29 30  1  0  0  0  0
 29 76  1  0  0  0  0
 29 77  1  0  0  0  0
 30 31  2  0  0  0  0
 30 32  1  0  0  0  0
 32 33  2  0  0  0  0
 32 78  1  0  0  0  0
 33 34  1  0  0  0  0
 34 79  1  0  0  0  0
 34 80  1  0  0  0  0
 35 34  1  0  0  0  0
 35 81  1  1  0  0  0
 35 36  1  0  0  0  0
 36 82  1  0  0  0  0
 36 83  1  0  0  0  0
 36 84  1  0  0  0  0
 37 35  1  0  0  0  0
 37  2  1  0  0  0  0
 37 38  1  6  0  0  0
M  END
>  <DRUGBANK_ID>
DB16141

>  <COMMON_NAME>
Dimethandrolone Undecanoate

>  <CAS_NUMBER>
366472-45-9

>  <UNII>
VMT7Z23GLM

$$$$
