
 OpenBabel10282417153D

 39 39  0  0  1  0  0  0  0  0999 V2000
   -5.8163    0.8429    5.4180 O   0  0  0  0  0  0  0  0  0  0  0  0
   -2.7030   -1.9865   -1.3368 N   0  0  0  0  0  0  0  0  0  0  0  0
   -3.9709   -1.4404    1.4029 C   0  0  1  0  0  0  0  0  0  0  0  0
   -2.9156   -2.6344    1.1601 C   0  0  2  0  0  0  0  0  0  0  0  0
   -2.0335   -2.4643   -0.1174 C   0  0  0  0  0  0  0  0  0  0  0  0
   -5.1094   -1.5982    0.4026 C   0  0  0  0  0  0  0  0  0  0  0  0
   -4.5382   -1.3991    2.8114 C   0  0  0  0  0  0  0  0  0  0  0  0
   -3.4383   -4.0986    1.0434 C   0  0  0  0  0  0  0  0  0  0  0  0
   -6.4496   -0.9324    0.3714 C   0  0  0  0  0  0  0  0  0  0  0  0
   -4.8546   -0.2137    3.4684 C   0  0  0  0  0  0  0  0  0  0  0  0
   -4.8632   -2.5985    3.4550 C   0  0  0  0  0  0  0  0  0  0  0  0
   -1.7394   -1.7411   -2.4012 C   0  0  0  0  0  0  0  0  0  0  0  0
   -3.7484   -2.8419   -1.9179 C   0  0  0  0  0  0  0  0  0  0  0  0
   -5.4705   -0.2771    4.7298 C   0  0  0  0  0  0  0  0  0  0  0  0
   -5.4755   -2.6632    4.6935 C   0  0  0  0  0  0  0  0  0  0  0  0
   -5.7731   -1.4987    5.3344 C   0  0  0  0  0  0  0  0  0  0  0  0
   -5.5787    1.6142    4.8793 H   0  0  0  0  0  0  0  0  0  0  0  0
   -3.4485   -0.4847    1.2167 H   0  0  0  0  0  0  0  0  0  0  0  0
   -2.2339   -2.6035    2.0269 H   0  0  0  0  0  0  0  0  0  0  0  0
   -1.2140   -1.7815    0.1495 H   0  0  0  0  0  0  0  0  0  0  0  0
   -1.5429   -3.4247   -0.3341 H   0  0  0  0  0  0  0  0  0  0  0  0
   -4.7041   -1.2480   -0.5396 H   0  0  0  0  0  0  0  0  0  0  0  0
   -5.3631   -2.6588    0.4051 H   0  0  0  0  0  0  0  0  0  0  0  0
   -2.6078   -4.7942    1.1917 H   0  0  0  0  0  0  0  0  0  0  0  0
   -4.2239   -4.4452    1.6962 H   0  0  0  0  0  0  0  0  0  0  0  0
   -3.8530   -4.3191    0.0666 H   0  0  0  0  0  0  0  0  0  0  0  0
   -6.3634    0.1173    0.0894 H   0  0  0  0  0  0  0  0  0  0  0  0
   -7.0018   -1.4364   -0.4394 H   0  0  0  0  0  0  0  0  0  0  0  0
   -7.0092   -1.0726    1.2914 H   0  0  0  0  0  0  0  0  0  0  0  0
   -4.6467    0.7484    3.0022 H   0  0  0  0  0  0  0  0  0  0  0  0
   -4.6815   -3.5459    3.0312 H   0  0  0  0  0  0  0  0  0  0  0  0
   -1.3607   -2.6891   -2.7973 H   0  0  0  0  0  0  0  0  0  0  0  0
   -2.2367   -1.1944   -3.2094 H   0  0  0  0  0  0  0  0  0  0  0  0
   -0.8980   -1.1317   -2.0645 H   0  0  0  0  0  0  0  0  0  0  0  0
   -3.3634   -3.7789   -2.3168 H   0  0  0  0  0  0  0  0  0  0  0  0
   -4.5601   -3.1342   -1.2604 H   0  0  0  0  0  0  0  0  0  0  0  0
   -4.2754   -2.2696   -2.6905 H   0  0  0  0  0  0  0  0  0  0  0  0
   -5.7002   -3.6488    5.0943 H   0  0  0  0  0  0  0  0  0  0  0  0
   -6.2496   -1.5393    6.3093 H   0  0  0  0  0  0  0  0  0  0  0  0
  1 14  1  0  0  0  0
  1 17  1  0  0  0  0
  2  5  1  0  0  0  0
  2 12  1  0  0  0  0
  2 13  1  0  0  0  0
  3  6  1  0  0  0  0
  3  7  1  0  0  0  0
  3 18  1  6  0  0  0
  4  8  1  0  0  0  0
  4 19  1  1  0  0  0
  4  5  1  0  0  0  0
  4  3  1  0  0  0  0
  5 20  1  0  0  0  0
  5 21  1  0  0  0  0
  6  9  1  0  0  0  0
  6 22  1  0  0  0  0
  6 23  1  0  0  0  0
  7 10  2  0  0  0  0
  7 11  1  0  0  0  0
  8 24  1  0  0  0  0
  8 25  1  0  0  0  0
  8 26  1  0  0  0  0
  9 27  1  0  0  0  0
  9 28  1  0  0  0  0
  9 29  1  0  0  0  0
 10 14  1  0  0  0  0
 10 30  1  0  0  0  0
 11 15  2  0  0  0  0
 11 31  1  0  0  0  0
 12 32  1  0  0  0  0
 12 33  1  0  0  0  0
 12 34  1  0  0  0  0
 13 35  1  0  0  0  0
 13 36  1  0  0  0  0
 13 37  1  0  0  0  0
 14 16  2  0  0  0  0
 15 16  1  0  0  0  0
 15 38  1  0  0  0  0
 16 39  1  0  0  0  0
M  END
>  <DRUGBANK_ID>
DB06204

>  <COMMON_NAME>
Tapentadol

>  <CAS_NUMBER>
175591-23-8

>  <UNII>
H8A007M585

>  <SYNONYMS>
3-[(1R,2R)-3-(Dimethylamino)-1-ethyl-2-methylpropyl]phenol; PHENOL, 3-((1R,2R)-3-(DIMETHYLAMINO)-1-ETHYL-2-METHYLPROPYL)-; Tapentadol

$$$$
