N22
 OpenBabel10282417173D

 43 44  0  0  0  0  0  0  0  0999 V2000
    1.1093   -0.2096    0.2083 C   0  0  0  0  0  0  0  0  0  0  0  0
    0.6303   -0.3261   -1.2171 C   0  0  0  0  0  0  0  0  0  0  0  0
    1.2683   -1.4110   -2.1012 C   0  0  0  0  0  0  0  0  0  0  0  0
    0.6967   -2.5895   -1.7107 N   0  0  0  0  0  0  0  0  0  0  0  0
    0.9744   -3.7043   -2.3770 C   0  0  0  0  0  0  0  0  0  0  0  0
    0.4282   -4.8678   -1.9106 N   0  0  0  0  0  0  0  0  0  0  0  0
    1.7439   -3.7529   -3.4645 N   0  0  0  0  0  0  0  0  0  0  0  0
    2.3180   -2.6036   -3.8802 C   0  0  0  0  0  0  0  0  0  0  0  0
    3.1457   -2.6991   -4.9974 N   0  0  0  0  0  0  0  0  0  0  0  0
    2.1914   -1.3744   -3.2171 C   0  0  0  0  0  0  0  0  0  0  0  0
    3.0014   -0.2395   -3.8641 C   0  0  0  0  0  0  0  0  0  0  0  0
    3.4359    0.7911   -4.3312 C   0  0  0  0  0  0  0  0  0  0  0  0
    3.6197    2.3263   -4.6873 C   0  0  0  0  0  0  0  0  0  0  0  0
    2.9006    3.5430   -3.8974 C   0  0  0  0  0  0  0  0  0  0  0  0
    3.3477    4.8451   -4.2237 C   0  0  0  0  0  0  0  0  0  0  0  0
    2.8513    6.0051   -3.5650 C   0  0  0  0  0  0  0  0  0  0  0  0
    3.2165    7.2996   -3.8037 O   0  0  0  0  0  0  0  0  0  0  0  0
    4.1880    7.4997   -4.8089 C   0  0  0  0  0  0  0  0  0  0  0  0
    1.9056    5.9158   -2.5522 C   0  0  0  0  0  0  0  0  0  0  0  0
    1.4056    4.6913   -2.2372 C   0  0  0  0  0  0  0  0  0  0  0  0
    1.8284    3.5697   -2.9474 C   0  0  0  0  0  0  0  0  0  0  0  0
    0.8958    2.6265   -2.6193 O   0  0  0  0  0  0  0  0  0  0  0  0
    1.2919    1.5060   -3.2696 C   0  0  0  0  0  0  0  0  0  0  0  0
    0.7728   -1.0418    0.8200 H   0  0  0  0  0  0  0  0  0  0  0  0
    0.7128    0.7229    0.6435 H   0  0  0  0  0  0  0  0  0  0  0  0
    2.1974   -0.1215    0.2097 H   0  0  0  0  0  0  0  0  0  0  0  0
   -0.4723   -0.4176   -1.2638 H   0  0  0  0  0  0  0  0  0  0  0  0
    0.7562    0.6992   -1.4714 H   0  0  0  0  0  0  0  0  0  0  0  0
    0.6919   -5.7208   -2.3698 H   0  0  0  0  0  0  0  0  0  0  0  0
   -0.1257   -4.8504   -1.0707 H   0  0  0  0  0  0  0  0  0  0  0  0
    3.3850   -1.8529   -5.4957 H   0  0  0  0  0  0  0  0  0  0  0  0
    3.1749   -3.5760   -5.4912 H   0  0  0  0  0  0  0  0  0  0  0  0
    4.6949    2.5114   -4.5692 H   0  0  0  0  0  0  0  0  0  0  0  0
    3.3845    2.4759   -5.7559 H   0  0  0  0  0  0  0  0  0  0  0  0
    4.0787    4.9563   -5.0190 H   0  0  0  0  0  0  0  0  0  0  0  0
    5.1208    6.9886   -4.5534 H   0  0  0  0  0  0  0  0  0  0  0  0
    3.8051    7.1780   -5.7817 H   0  0  0  0  0  0  0  0  0  0  0  0
    4.3903    8.5718   -4.8583 H   0  0  0  0  0  0  0  0  0  0  0  0
    1.5168    6.7817   -2.0295 H   0  0  0  0  0  0  0  0  0  0  0  0
    0.6282    4.5717   -1.4831 H   0  0  0  0  0  0  0  0  0  0  0  0
    1.3363    1.6670   -4.3437 H   0  0  0  0  0  0  0  0  0  0  0  0
    2.2058    1.2768   -2.6719 H   0  0  0  0  0  0  0  0  0  0  0  0
    0.5970    0.6833   -3.2487 H   0  0  0  0  0  0  0  0  0  0  0  0
  1  2  1  0  0  0  0
  1 24  1  0  0  0  0
  1 25  1  0  0  0  0
  1 26  1  0  0  0  0
  2  3  1  0  0  0  0
  2 27  1  0  0  0  0
  2 28  1  0  0  0  0
  3  4  2  0  0  0  0
  3 10  1  0  0  0  0
  4  5  1  0  0  0  0
  5  6  1  0  0  0  0
  5  7  2  0  0  0  0
  6 29  1  0  0  0  0
  6 30  1  0  0  0  0
  7  8  1  0  0  0  0
  8  9  1  0  0  0  0
  8 10  2  0  0  0  0
  9 31  1  0  0  0  0
  9 32  1  0  0  0  0
 10 11  1  0  0  0  0
 11 12  3  0  0  0  0
 12 13  1  0  0  0  0
 13 14  1  0  0  0  0
 13 33  1  0  0  0  0
 13 34  1  0  0  0  0
 14 15  2  0  0  0  0
 14 21  1  0  0  0  0
 15 16  1  0  0  0  0
 15 35  1  0  0  0  0
 16 17  1  0  0  0  0
 16 19  2  0  0  0  0
 17 18  1  0  0  0  0
 18 36  1  0  0  0  0
 18 37  1  0  0  0  0
 18 38  1  0  0  0  0
 19 20  1  0  0  0  0
 19 39  1  0  0  0  0
 20 21  2  0  0  0  0
 20 40  1  0  0  0  0
 21 22  1  0  0  0  0
 22 23  1  0  0  0  0
 23 41  1  0  0  0  0
 23 42  1  0  0  0  0
 23 43  1  0  0  0  0
M  END
>  <DRUGBANK_ID>
DB08234

>  <COMMON_NAME>
5-[3-(2,5-dimethoxyphenyl)prop-1-yn-1-yl]-6-ethylpyrimidine-2,4-diamine

>  <UNII>
GEW9C9EK4M

$$$$
