613
 OpenBabel10282417103D

 47 49  0  0  0  0  0  0  0  0999 V2000
    3.2263    0.4176    0.0040 Cl  0  0  0  0  0  0  0  0  0  0  0  0
   -8.2927   -4.0793    0.2089 O   0  0  0  0  0  0  0  0  0  0  0  0
   -7.5443   -0.9155   -2.1300 N   0  0  0  0  0  0  0  0  0  0  0  0
   -2.9598   -2.5180   -0.0029 N   0  0  0  0  0  0  0  0  0  0  0  0
   -1.6734    1.5129   -0.0111 N   0  0  0  0  0  0  0  0  0  0  0  0
   -7.3959   -2.3817   -2.1330 C   0  0  0  0  0  0  0  0  0  0  0  0
   -6.5209   -2.9238   -1.0267 C   0  0  0  0  0  0  0  0  0  0  0  0
   -8.3378   -0.4430   -3.2772 C   0  0  0  0  0  0  0  0  0  0  0  0
   -7.9513   -0.3416   -0.8372 C   0  0  0  0  0  0  0  0  0  0  0  0
   -5.1566   -2.5881   -1.0436 C   0  0  0  0  0  0  0  0  0  0  0  0
   -4.2902   -2.9688   -0.0121 C   0  0  0  0  0  0  0  0  0  0  0  0
   -6.9966   -3.6790    0.0521 C   0  0  0  0  0  0  0  0  0  0  0  0
   -9.7944   -0.9025   -3.3472 C   0  0  0  0  0  0  0  0  0  0  0  0
   -9.3037   -0.7754   -0.2830 C   0  0  0  0  0  0  0  0  0  0  0  0
   -4.7944   -3.7172    1.0522 C   0  0  0  0  0  0  0  0  0  0  0  0
   -2.5016   -1.1790    0.0117 C   0  0  0  0  0  0  0  0  0  0  0  0
   -6.1449   -4.0627    1.0858 C   0  0  0  0  0  0  0  0  0  0  0  0
   -1.1189   -0.8511   -0.0101 C   0  0  0  0  0  0  0  0  0  0  0  0
   -0.7692    0.5198   -0.0163 C   0  0  0  0  0  0  0  0  0  0  0  0
   -3.4236   -0.1247    0.0298 C   0  0  0  0  0  0  0  0  0  0  0  0
   -0.0767   -1.8127   -0.0082 C   0  0  0  0  0  0  0  0  0  0  0  0
    0.5683    0.8882   -0.0193 C   0  0  0  0  0  0  0  0  0  0  0  0
   -2.9735    1.1745    0.0141 C   0  0  0  0  0  0  0  0  0  0  0  0
    1.2616   -1.4203   -0.0003 C   0  0  0  0  0  0  0  0  0  0  0  0
    1.5770   -0.0716   -0.0070 C   0  0  0  0  0  0  0  0  0  0  0  0
   -8.8232   -3.8415   -0.5636 H   0  0  0  0  0  0  0  0  0  0  0  0
   -2.2805   -3.2488    0.1562 H   0  0  0  0  0  0  0  0  0  0  0  0
   -6.9555   -2.7063   -3.0864 H   0  0  0  0  0  0  0  0  0  0  0  0
   -8.3719   -2.8611   -2.0960 H   0  0  0  0  0  0  0  0  0  0  0  0
   -8.3076    0.6536   -3.3110 H   0  0  0  0  0  0  0  0  0  0  0  0
   -7.8386   -0.7681   -4.1996 H   0  0  0  0  0  0  0  0  0  0  0  0
   -7.1874   -0.5743   -0.0847 H   0  0  0  0  0  0  0  0  0  0  0  0
   -7.9263    0.7534   -0.9057 H   0  0  0  0  0  0  0  0  0  0  0  0
   -4.7673   -1.9781   -1.8587 H   0  0  0  0  0  0  0  0  0  0  0  0
  -10.4213   -0.3766   -2.6305 H   0  0  0  0  0  0  0  0  0  0  0  0
  -10.2290   -0.6750   -4.3225 H   0  0  0  0  0  0  0  0  0  0  0  0
   -9.9039   -1.9771   -3.1793 H   0  0  0  0  0  0  0  0  0  0  0  0
   -9.4725   -1.8472   -0.3873 H   0  0  0  0  0  0  0  0  0  0  0  0
   -9.3901   -0.5242    0.7759 H   0  0  0  0  0  0  0  0  0  0  0  0
  -10.1254   -0.2553   -0.7701 H   0  0  0  0  0  0  0  0  0  0  0  0
   -4.1589   -3.9926    1.8888 H   0  0  0  0  0  0  0  0  0  0  0  0
   -6.5490   -4.6117    1.9323 H   0  0  0  0  0  0  0  0  0  0  0  0
   -4.4921   -0.3005    0.0707 H   0  0  0  0  0  0  0  0  0  0  0  0
   -0.2896   -2.8752   -0.0047 H   0  0  0  0  0  0  0  0  0  0  0  0
    0.8217    1.9439   -0.0241 H   0  0  0  0  0  0  0  0  0  0  0  0
   -3.6778    2.0023    0.0275 H   0  0  0  0  0  0  0  0  0  0  0  0
    2.0448   -2.1740    0.0135 H   0  0  0  0  0  0  0  0  0  0  0  0
  1 25  1  0  0  0  0
  2 12  1  0  0  0  0
  2 26  1  0  0  0  0
  3  6  1  0  0  0  0
  3  8  1  0  0  0  0
  3  9  1  0  0  0  0
  4 11  1  0  0  0  0
  4 16  1  0  0  0  0
  4 27  1  0  0  0  0
  5 19  2  0  0  0  0
  5 23  1  0  0  0  0
  6  7  1  0  0  0  0
  6 28  1  0  0  0  0
  6 29  1  0  0  0  0
  7 10  1  0  0  0  0
  7 12  2  0  0  0  0
  8 13  1  0  0  0  0
  8 30  1  0  0  0  0
  8 31  1  0  0  0  0
  9 14  1  0  0  0  0
  9 32  1  0  0  0  0
  9 33  1  0  0  0  0
 10 11  2  0  0  0  0
 10 34  1  0  0  0  0
 11 15  1  0  0  0  0
 12 17  1  0  0  0  0
 13 35  1  0  0  0  0
 13 36  1  0  0  0  0
 13 37  1  0  0  0  0
 14 38  1  0  0  0  0
 14 39  1  0  0  0  0
 14 40  1  0  0  0  0
 15 17  2  0  0  0  0
 15 41  1  0  0  0  0
 16 18  2  0  0  0  0
 16 20  1  0  0  0  0
 17 42  1  0  0  0  0
 18 19  1  0  0  0  0
 18 21  1  0  0  0  0
 19 22  1  0  0  0  0
 20 23  2  0  0  0  0
 20 43  1  0  0  0  0
 21 24  2  0  0  0  0
 21 44  1  0  0  0  0
 22 25  2  0  0  0  0
 22 45  1  0  0  0  0
 23 46  1  0  0  0  0
 24 25  1  0  0  0  0
 24 47  1  0  0  0  0
M  END
>  <DRUGBANK_ID>
DB00613

>  <SECONDARY_ACCESSION_NUMBERS>
APRD00796

>  <COMMON_NAME>
Amodiaquine

>  <CAS_NUMBER>
86-42-0

>  <UNII>
220236ED28

>  <SYNONYMS>
Amodiaquina; Amodiaquine; Amodiaquinum

$$$$
