
 OpenBabel10282417233D

 42 41  0  0  0  0  0  0  0  0999 V2000
    0.4269   -1.2376    0.7707 C   0  0  0  0  0  0  0  0  0  0  0  0
    2.8991   -0.5994    1.9637 N   0  0  0  0  0  0  0  0  0  0  0  0
    2.0966   -0.8435    0.6355 C   0  0  1  0  0  0  0  0  0  0  0  0
    2.9316   -1.4543   -0.6105 C   0  0  0  0  0  0  0  0  0  0  0  0
    2.7345   -1.2220   -2.2522 C   0  0  0  0  0  0  0  0  0  0  0  0
    3.0955    0.1091   -3.0058 C   0  0  0  0  0  0  0  0  0  0  0  0
    4.5183    0.2949   -3.0616 N   0  0  0  0  0  0  0  0  0  0  0  0
    5.2531    0.4303   -4.1820 C   0  0  0  0  0  0  0  0  0  0  0  0
    6.5372    0.4494   -4.1685 N   0  0  0  0  0  0  0  0  0  0  0  0
    4.5960    0.5267   -5.3426 N   0  0  0  0  0  0  0  0  0  0  0  0
   -0.1060   -1.5070    1.8510 O   0  0  0  0  0  0  0  0  0  0  0  0
   -0.4708   -1.0557   -0.2575 O   0  0  0  0  0  0  0  0  0  0  0  0
    1.1929    1.1844   -0.7907 C   0  0  0  0  0  0  0  0  0  0  0  0
    0.7412    2.8324    0.8538 N   0  0  0  0  0  0  0  0  0  0  0  0
    0.3556    1.5244    0.5302 C   0  0  1  0  0  0  0  0  0  0  0  0
   -1.1704    1.4495    0.5005 C   0  0  0  0  0  0  0  0  0  0  0  0
   -1.5877    2.7735    1.0796 C   0  0  0  0  0  0  0  0  0  0  0  0
   -0.3571    3.6031    0.8848 C   0  0  0  0  0  0  0  0  0  0  0  0
    0.8624    0.3311   -1.5724 O   0  0  0  0  0  0  0  0  0  0  0  0
    2.5354    1.6232   -0.6450 O   0  0  0  0  0  0  0  0  0  0  0  0
   -0.3049    4.8556    0.7601 O   0  0  0  0  0  0  0  0  0  0  0  0
    3.8795   -0.3728    1.7419 H   0  0  0  0  0  0  0  0  0  0  0  0
    2.6373    0.3185    2.4014 H   0  0  0  0  0  0  0  0  0  0  0  0
    2.1561    0.2060    0.6290 H   0  0  0  0  0  0  0  0  0  0  0  0
    4.0094   -1.3234   -0.4190 H   0  0  0  0  0  0  0  0  0  0  0  0
    2.7361   -2.5193   -0.4595 H   0  0  0  0  0  0  0  0  0  0  0  0
    3.3105   -2.0152   -2.7697 H   0  0  0  0  0  0  0  0  0  0  0  0
    1.7168   -1.4737   -2.5824 H   0  0  0  0  0  0  0  0  0  0  0  0
    2.6147    0.0706   -3.9923 H   0  0  0  0  0  0  0  0  0  0  0  0
    2.6785    1.0590   -2.6855 H   0  0  0  0  0  0  0  0  0  0  0  0
    5.0155    0.2585   -2.1855 H   0  0  0  0  0  0  0  0  0  0  0  0
    6.8701    0.3524   -3.2101 H   0  0  0  0  0  0  0  0  0  0  0  0
    3.5978    0.5813   -5.4322 H   0  0  0  0  0  0  0  0  0  0  0  0
    5.1380    0.6207   -6.1867 H   0  0  0  0  0  0  0  0  0  0  0  0
   -0.3704   -0.6542   -1.1622 H   0  0  0  0  0  0  0  0  0  0  0  0
    1.7036    3.1418    0.7286 H   0  0  0  0  0  0  0  0  0  0  0  0
    0.6602    0.9908    1.4338 H   0  0  0  0  0  0  0  0  0  0  0  0
   -1.6016    0.6412    1.1227 H   0  0  0  0  0  0  0  0  0  0  0  0
   -1.6062    1.3168   -0.4932 H   0  0  0  0  0  0  0  0  0  0  0  0
   -1.8401    2.6625    2.1425 H   0  0  0  0  0  0  0  0  0  0  0  0
   -2.4427    3.1365    0.5139 H   0  0  0  0  0  0  0  0  0  0  0  0
    3.2614    0.9366   -0.5990 H   0  0  0  0  0  0  0  0  0  0  0  0
  1 11  2  0  0  0  0
  1 12  1  0  0  0  0
  1  3  1  0  0  0  0
  2 22  1  0  0  0  0
  2 23  1  0  0  0  0
  3  2  1  0  0  0  0
  3  4  1  0  0  0  0
  3 24  1  6  0  0  0
  4  5  1  0  0  0  0
  4 25  1  0  0  0  0
  4 26  1  0  0  0  0
  5  6  1  0  0  0  0
  5 27  1  0  0  0  0
  5 28  1  0  0  0  0
  6  7  1  0  0  0  0
  6 29  1  0  0  0  0
  6 30  1  0  0  0  0
  7  8  1  0  0  0  0
  7 31  1  0  0  0  0
  8  9  2  0  0  0  0
  8 10  1  0  0  0  0
  9 32  1  0  0  0  0
 10 33  1  0  0  0  0
 10 34  1  0  0  0  0
 12 35  1  0  0  0  0
 13 19  2  0  0  0  0
 13 20  1  0  0  0  0
 14 15  1  0  0  0  0
 14 18  1  0  0  0  0
 14 36  1  0  0  0  0
 15 13  1  0  0  0  0
 15 16  1  0  0  0  0
 15 37  1  1  0  0  0
 16 17  1  0  0  0  0
 16 38  1  0  0  0  0
 16 39  1  0  0  0  0
 17 18  1  0  0  0  0
 17 40  1  0  0  0  0
 17 41  1  0  0  0  0
 18 21  2  0  0  0  0
 20 42  1  0  0  0  0
M  END
>  <DRUGBANK_ID>
DB16025

>  <COMMON_NAME>
Arginine PCA

>  <CAS_NUMBER>
56265-06-6

>  <UNII>
808T94CEU6

>  <SYNONYMS>
Arginine pidolate; Arginine pyroglutamate; L-arginine L-2-pyrrolidone-5-carboxylate

$$$$
