
 OpenBabel10282417213D

 97101  0  0  1  0  0  0  0  0999 V2000
  -14.6012   -8.6139    1.8643 C   0  0  0  0  0  0  0  0  0  0  0  0
  -13.5624   -7.6213    1.4665 C   0  0  0  0  0  0  0  0  0  0  0  0
  -13.9761   -6.3907    0.9541 C   0  0  0  0  0  0  0  0  0  0  0  0
  -13.0641   -5.4218    0.5699 C   0  0  0  0  0  0  0  0  0  0  0  0
  -13.5822   -4.1061    0.0340 C   0  0  0  0  0  0  0  0  0  0  0  0
  -11.6839   -5.6914    0.6670 C   0  0  0  0  0  0  0  0  0  0  0  0
  -11.2590   -6.9821    1.1512 C   0  0  0  0  0  0  0  0  0  0  0  0
   -9.8266   -7.4096    1.3031 C   0  0  0  0  0  0  0  0  0  0  0  0
  -12.2075   -7.9116    1.5929 C   0  0  0  0  0  0  0  0  0  0  0  0
  -10.8123   -4.6008    0.1831 C   0  0  0  0  0  0  0  0  0  0  0  0
  -10.9296   -3.2637    0.6232 C   0  0  0  0  0  0  0  0  0  0  0  0
  -10.1761   -2.1692    0.1179 C   0  0  0  0  0  0  0  0  0  0  0  0
   -9.2022   -2.4174   -0.8517 C   0  0  0  0  0  0  0  0  0  0  0  0
   -8.0975   -1.5029   -1.1008 N   0  0  0  0  0  0  0  0  0  0  0  0
   -6.7600   -1.8143   -1.5031 C   0  0  0  0  0  0  0  0  0  0  0  0
   -5.9117   -0.9318   -1.2922 O   0  0  0  0  0  0  0  0  0  0  0  0
   -6.3443   -3.3059   -1.9068 C   0  0  2  0  0  0  0  0  0  0  0  0
   -6.2154   -4.4238   -0.7269 C   0  0  0  0  0  0  0  0  0  0  0  0
   -6.8702   -4.2698    0.6292 C   0  0  0  0  0  0  0  0  0  0  0  0
   -7.3957   -5.2584    1.3897 C   0  0  0  0  0  0  0  0  0  0  0  0
   -8.2808   -4.9102    2.4579 C   0  0  0  0  0  0  0  0  0  0  0  0
   -8.7650   -3.6225    2.7599 C   0  0  0  0  0  0  0  0  0  0  0  0
   -8.0612   -2.6367    2.1284 C   0  0  0  0  0  0  0  0  0  0  0  0
   -7.1474   -3.0238    1.1364 C   0  0  0  0  0  0  0  0  0  0  0  0
  -10.0895   -3.2435    3.4514 C   0  0  0  0  0  0  0  0  0  0  0  0
  -10.4892   -2.0748    3.4676 O   0  0  0  0  0  0  0  0  0  0  0  0
  -10.9690   -4.1767    3.9588 N   0  0  0  0  0  0  0  0  0  0  0  0
  -10.8441   -5.6012    4.0253 C   0  0  0  0  0  0  0  0  0  0  0  0
  -10.1554   -6.0624    5.2781 C   0  0  0  0  0  0  0  0  0  0  0  0
  -11.3473   -6.0126    6.5985 S   0  0  0  0  0  0  0  0  0  0  0  0
  -12.4007   -7.0698    5.9595 O   0  0  0  0  0  0  0  0  0  0  0  0
  -10.7855   -6.5613    7.7753 O   0  0  0  0  0  0  0  0  0  0  0  0
  -12.0195   -4.7025    6.5626 O   0  0  0  0  0  0  0  0  0  0  0  0
   -5.0940   -3.5037   -2.7606 C   0  0  0  0  0  0  0  0  0  0  0  0
   -4.3533   -2.4110   -3.1821 C   0  0  0  0  0  0  0  0  0  0  0  0
   -3.1186   -2.5908   -3.7581 C   0  0  0  0  0  0  0  0  0  0  0  0
   -2.6426   -3.8754   -4.0034 C   0  0  0  0  0  0  0  0  0  0  0  0
   -3.3940   -4.9911   -3.6332 C   0  0  0  0  0  0  0  0  0  0  0  0
   -4.6495   -4.8083   -3.0868 C   0  0  0  0  0  0  0  0  0  0  0  0
   -1.3906   -4.0489   -4.6939 C   0  0  0  0  0  0  0  0  0  0  0  0
   -0.2223   -3.5214   -4.1564 C   0  0  0  0  0  0  0  0  0  0  0  0
    0.9795   -3.7305   -4.8036 C   0  0  0  0  0  0  0  0  0  0  0  0
    1.0390   -4.4628   -6.0008 C   0  0  0  0  0  0  0  0  0  0  0  0
   -0.1461   -5.0146   -6.5121 C   0  0  0  0  0  0  0  0  0  0  0  0
   -1.3576   -4.7572   -5.8976 C   0  0  0  0  0  0  0  0  0  0  0  0
    2.3396   -4.6079   -6.7849 C   0  0  0  0  0  0  0  0  0  0  0  0
    2.7047   -6.0942   -6.9227 C   0  0  0  0  0  0  0  0  0  0  0  0
    2.1522   -3.9910   -8.1863 C   0  0  0  0  0  0  0  0  0  0  0  0
    3.5066   -3.8751   -6.0965 C   0  0  0  0  0  0  0  0  0  0  0  0
   -9.1945   -3.7287   -1.3325 C   0  0  0  0  0  0  0  0  0  0  0  0
   -9.9473   -4.7984   -0.8501 C   0  0  0  0  0  0  0  0  0  0  0  0
  -14.4385   -9.5586    1.3396 H   0  0  0  0  0  0  0  0  0  0  0  0
  -14.5744   -8.7625    2.9459 H   0  0  0  0  0  0  0  0  0  0  0  0
  -15.5936   -8.2429    1.5897 H   0  0  0  0  0  0  0  0  0  0  0  0
  -15.0333   -6.1787    0.8317 H   0  0  0  0  0  0  0  0  0  0  0  0
  -13.4082   -3.2999    0.7525 H   0  0  0  0  0  0  0  0  0  0  0  0
  -13.0977   -3.8644   -0.9205 H   0  0  0  0  0  0  0  0  0  0  0  0
  -14.6567   -4.1116   -0.1289 H   0  0  0  0  0  0  0  0  0  0  0  0
   -9.5354   -7.5766    2.3511 H   0  0  0  0  0  0  0  0  0  0  0  0
   -9.5321   -8.2957    0.7415 H   0  0  0  0  0  0  0  0  0  0  0  0
   -9.2442   -6.6103    0.8950 H   0  0  0  0  0  0  0  0  0  0  0  0
  -11.8850   -8.8589    2.0292 H   0  0  0  0  0  0  0  0  0  0  0  0
  -11.5879   -3.0767    1.4716 H   0  0  0  0  0  0  0  0  0  0  0  0
  -10.2672   -1.2443    0.6940 H   0  0  0  0  0  0  0  0  0  0  0  0
   -8.0708   -0.6744   -0.4898 H   0  0  0  0  0  0  0  0  0  0  0  0
   -7.0633   -3.5410   -2.6922 H   0  0  0  0  0  0  0  0  0  0  0  0
   -6.5586   -5.3825   -1.1613 H   0  0  0  0  0  0  0  0  0  0  0  0
   -5.1494   -4.5916   -0.5048 H   0  0  0  0  0  0  0  0  0  0  0  0
   -7.3006   -6.2941    1.0686 H   0  0  0  0  0  0  0  0  0  0  0  0
   -8.6267   -5.7682    2.9775 H   0  0  0  0  0  0  0  0  0  0  0  0
   -8.3720   -1.5901    2.1170 H   0  0  0  0  0  0  0  0  0  0  0  0
   -6.9430   -2.2730    0.4451 H   0  0  0  0  0  0  0  0  0  0  0  0
  -11.7704   -3.7686    4.4416 H   0  0  0  0  0  0  0  0  0  0  0  0
  -11.8084   -6.0760    3.8460 H   0  0  0  0  0  0  0  0  0  0  0  0
  -10.3051   -5.8925    3.1652 H   0  0  0  0  0  0  0  0  0  0  0  0
   -9.7949   -7.0928    5.1865 H   0  0  0  0  0  0  0  0  0  0  0  0
   -9.3067   -5.4235    5.5459 H   0  0  0  0  0  0  0  0  0  0  0  0
  -13.0072   -6.6352    5.3230 H   0  0  0  0  0  0  0  0  0  0  0  0
   -4.6973   -1.3948   -3.0543 H   0  0  0  0  0  0  0  0  0  0  0  0
   -2.5311   -1.7117   -4.0032 H   0  0  0  0  0  0  0  0  0  0  0  0
   -2.9852   -5.9938   -3.7535 H   0  0  0  0  0  0  0  0  0  0  0  0
   -5.2360   -5.7021   -2.8778 H   0  0  0  0  0  0  0  0  0  0  0  0
   -0.2450   -2.9424   -3.2360 H   0  0  0  0  0  0  0  0  0  0  0  0
    1.8589   -3.3001   -4.3375 H   0  0  0  0  0  0  0  0  0  0  0  0
   -0.1442   -5.6362   -7.4033 H   0  0  0  0  0  0  0  0  0  0  0  0
   -2.2812   -5.0994   -6.3607 H   0  0  0  0  0  0  0  0  0  0  0  0
    1.9350   -6.6597   -7.4602 H   0  0  0  0  0  0  0  0  0  0  0  0
    3.6404   -6.2135   -7.4785 H   0  0  0  0  0  0  0  0  0  0  0  0
    2.8283   -6.5621   -5.9394 H   0  0  0  0  0  0  0  0  0  0  0  0
    1.8772   -2.9312   -8.1185 H   0  0  0  0  0  0  0  0  0  0  0  0
    3.0736   -4.0650   -8.7724 H   0  0  0  0  0  0  0  0  0  0  0  0
    1.3640   -4.4938   -8.7588 H   0  0  0  0  0  0  0  0  0  0  0  0
    3.2907   -2.8035   -5.9914 H   0  0  0  0  0  0  0  0  0  0  0  0
    3.6917   -4.2825   -5.0946 H   0  0  0  0  0  0  0  0  0  0  0  0
    4.4345   -3.9666   -6.6656 H   0  0  0  0  0  0  0  0  0  0  0  0
   -8.4619   -4.1128   -1.9898 H   0  0  0  0  0  0  0  0  0  0  0  0
   -9.7528   -5.7923   -1.2418 H   0  0  0  0  0  0  0  0  0  0  0  0
  1  2  1  0  0  0  0
  1 52  1  0  0  0  0
  1 53  1  0  0  0  0
  1 54  1  0  0  0  0
  2  3  2  0  0  0  0
  2  9  1  0  0  0  0
  3  4  1  0  0  0  0
  3 55  1  0  0  0  0
  4  5  1  0  0  0  0
  4  6  2  0  0  0  0
  5 56  1  0  0  0  0
  5 57  1  0  0  0  0
  5 58  1  0  0  0  0
  6  7  1  0  0  0  0
  6 10  1  0  0  0  0
  7  8  1  0  0  0  0
  7  9  2  0  0  0  0
  8 59  1  0  0  0  0
  8 60  1  0  0  0  0
  8 61  1  0  0  0  0
  9 62  1  0  0  0  0
 10 11  2  0  0  0  0
 10 51  1  0  0  0  0
 11 12  1  0  0  0  0
 11 63  1  0  0  0  0
 12 13  2  0  0  0  0
 12 64  1  0  0  0  0
 13 14  1  0  0  0  0
 13 50  1  0  0  0  0
 14 15  1  0  0  0  0
 14 65  1  0  0  0  0
 15 16  2  0  0  0  0
 17 34  1  0  0  0  0
 17 66  1  6  0  0  0
 17 18  1  0  0  0  0
 17 15  1  0  0  0  0
 18 19  1  0  0  0  0
 18 67  1  0  0  0  0
 18 68  1  0  0  0  0
 19 20  2  0  0  0  0
 19 24  1  0  0  0  0
 20 21  1  0  0  0  0
 20 69  1  0  0  0  0
 21 22  2  0  0  0  0
 21 70  1  0  0  0  0
 22 23  1  0  0  0  0
 22 25  1  0  0  0  0
 23 24  2  0  0  0  0
 23 71  1  0  0  0  0
 24 72  1  0  0  0  0
 25 26  2  0  0  0  0
 25 27  1  0  0  0  0
 27 28  1  0  0  0  0
 27 73  1  0  0  0  0
 28 29  1  0  0  0  0
 28 74  1  0  0  0  0
 28 75  1  0  0  0  0
 29 30  1  0  0  0  0
 29 76  1  0  0  0  0
 29 77  1  0  0  0  0
 30 31  1  0  0  0  0
 30 32  2  0  0  0  0
 30 33  2  0  0  0  0
 31 78  1  0  0  0  0
 34 35  2  0  0  0  0
 34 39  1  0  0  0  0
 35 36  1  0  0  0  0
 35 79  1  0  0  0  0
 36 37  2  0  0  0  0
 36 80  1  0  0  0  0
 37 38  1  0  0  0  0
 37 40  1  0  0  0  0
 38 39  2  0  0  0  0
 38 81  1  0  0  0  0
 39 82  1  0  0  0  0
 40 41  2  0  0  0  0
 40 45  1  0  0  0  0
 41 42  1  0  0  0  0
 41 83  1  0  0  0  0
 42 43  2  0  0  0  0
 42 84  1  0  0  0  0
 43 44  1  0  0  0  0
 43 46  1  0  0  0  0
 44 45  2  0  0  0  0
 44 85  1  0  0  0  0
 45 86  1  0  0  0  0
 46 47  1  0  0  0  0
 46 48  1  0  0  0  0
 46 49  1  0  0  0  0
 47 87  1  0  0  0  0
 47 88  1  0  0  0  0
 47 89  1  0  0  0  0
 48 90  1  0  0  0  0
 48 91  1  0  0  0  0
 48 92  1  0  0  0  0
 49 93  1  0  0  0  0
 49 94  1  0  0  0  0
 49 95  1  0  0  0  0
 50 51  2  0  0  0  0
 50 96  1  0  0  0  0
 51 97  1  0  0  0  0
M  END
>  <DRUGBANK_ID>
DB14779

>  <COMMON_NAME>
LGD-6972

>  <CAS_NUMBER>
1207989-09-0

>  <UNII>
6IJ842I0Z2

$$$$
