
 OpenBabel10282417133D

 48 50  0  0  1  0  0  0  0  0999 V2000
    1.2017   -1.5078    2.0236 N   0  0  0  0  0  0  0  0  0  0  0  0
   -0.3315   -0.8639    1.9312 C   0  0  0  0  0  0  0  0  0  0  0  0
    1.8364   -2.9178    1.0226 C   0  0  2  0  0  0  0  0  0  0  0  0
    1.9326   -0.1758    2.2070 C   0  0  0  0  0  0  0  0  0  0  0  0
   -0.2061    0.5573    1.8410 C   0  0  0  0  0  0  0  0  0  0  0  0
   -1.4281   -1.5181    1.3315 N   0  0  0  0  0  0  0  0  0  0  0  0
    3.0277   -3.1485    1.7403 O   0  0  0  0  0  0  0  0  0  0  0  0
    2.4639   -3.6249   -0.6947 C   0  0  1  0  0  0  0  0  0  0  0  0
    1.1766    0.9052    1.9077 N   0  0  0  0  0  0  0  0  0  0  0  0
   -1.4179    1.3174    1.2210 C   0  0  0  0  0  0  0  0  0  0  0  0
   -2.2793   -0.8230    0.6452 C   0  0  0  0  0  0  0  0  0  0  0  0
    4.1571   -3.6455    1.0062 C   0  0  1  0  0  0  0  0  0  0  0  0
    3.8031   -4.2729   -0.3588 C   0  0  1  0  0  0  0  0  0  0  0  0
    1.6168   -3.8688   -1.8164 O   0  0  0  0  0  0  0  0  0  0  0  0
   -2.3238    0.5584    0.5638 N   0  0  0  0  0  0  0  0  0  0  0  0
   -1.6668    2.5839    1.1760 O   0  0  0  0  0  0  0  0  0  0  0  0
   -3.2888   -1.3925   -0.0940 N   0  0  0  0  0  0  0  0  0  0  0  0
    5.3541   -2.5935    1.1015 C   0  0  0  0  0  0  0  0  0  0  0  0
    3.4957   -5.6415   -0.3452 O   0  0  0  0  0  0  0  0  0  0  0  0
    5.1851   -1.1835    0.7032 O   0  0  0  0  0  0  0  0  0  0  0  0
    4.7256   -1.1117   -0.9631 P   0  0  3  0  0  0  0  0  0  0  0  0
    3.5691    0.1200   -0.5911 O   0  0  0  0  0  0  0  0  0  0  0  0
    6.0831   -0.2114   -1.1004 O   0  0  0  0  0  0  0  0  0  0  0  0
    4.3143   -1.0474   -2.4545 O   0  0  0  0  0  0  0  0  0  0  0  0
    2.0506   -0.6128   -0.2039 P   0  0  3  0  0  0  0  0  0  0  0  0
    1.2773    0.3491   -1.4162 O   0  0  0  0  0  0  0  0  0  0  0  0
    2.4645   -1.6351   -1.2076 O   0  0  0  0  0  0  0  0  0  0  0  0
    0.6915   -1.2687    0.1426 O   0  0  0  0  0  0  0  0  0  0  0  0
    0.7383    1.8361   -0.7154 P   0  0  0  0  0  0  0  0  0  0  0  0
    1.2830    2.5306   -2.1037 O   0  0  0  0  0  0  0  0  0  0  0  0
   -0.6973    1.4051   -1.4042 O   0  0  0  0  0  0  0  0  0  0  0  0
    0.2560    3.1671   -0.0882 O   0  0  0  0  0  0  0  0  0  0  0  0
    0.9041   -3.4894    1.0767 H   0  0  0  0  0  0  0  0  0  0  0  0
    3.0341   -0.1179    2.1160 H   0  0  0  0  0  0  0  0  0  0  0  0
    3.1956   -3.1580   -1.4367 H   0  0  0  0  0  0  0  0  0  0  0  0
    4.4635   -4.5057    1.5961 H   0  0  0  0  0  0  0  0  0  0  0  0
    4.6667   -4.1209   -1.0658 H   0  0  0  0  0  0  0  0  0  0  0  0
    1.3191   -4.7628   -1.9915 H   0  0  0  0  0  0  0  0  0  0  0  0
   -3.0068    1.0460   -0.0043 H   0  0  0  0  0  0  0  0  0  0  0  0
   -3.3315   -2.3927    0.0460 H   0  0  0  0  0  0  0  0  0  0  0  0
   -4.2001   -0.9599   -0.0173 H   0  0  0  0  0  0  0  0  0  0  0  0
    5.6155   -2.5416    2.1632 H   0  0  0  0  0  0  0  0  0  0  0  0
    6.2264   -2.9806    0.5618 H   0  0  0  0  0  0  0  0  0  0  0  0
    2.5240   -5.6818   -0.2734 H   0  0  0  0  0  0  0  0  0  0  0  0
    6.8276   -0.5847   -0.5924 H   0  0  0  0  0  0  0  0  0  0  0  0
    2.9899   -1.9191   -0.4404 H   0  0  0  0  0  0  0  0  0  0  0  0
    2.1428    2.9674   -2.0211 H   0  0  0  0  0  0  0  0  0  0  0  0
   -0.7936    0.4342   -1.3316 H   0  0  0  0  0  0  0  0  0  0  0  0
  1  2  1  0  0  0  0
  1  4  1  0  0  0  0
  2  5  2  0  0  0  0
  2  6  1  0  0  0  0
  3  1  1  0  0  0  0
  3  7  1  0  0  0  0
  3  8  1  0  0  0  0
  3 33  1  1  0  0  0
  4  9  2  0  0  0  0
  4 34  1  0  0  0  0
  5 10  1  0  0  0  0
  5  9  1  0  0  0  0
  6 11  2  0  0  0  0
  7 12  1  0  0  0  0
  8 13  1  0  0  0  0
  8 14  1  0  0  0  0
  8 35  1  6  0  0  0
 10 15  1  0  0  0  0
 10 16  2  0  0  0  0
 11 17  1  0  0  0  0
 11 15  1  0  0  0  0
 12 13  1  0  0  0  0
 12 36  1  1  0  0  0
 12 18  1  0  0  0  0
 13 19  1  0  0  0  0
 13 37  1  6  0  0  0
 14 38  1  0  0  0  0
 15 39  1  0  0  0  0
 17 40  1  0  0  0  0
 17 41  1  0  0  0  0
 18 20  1  0  0  0  0
 18 42  1  0  0  0  0
 18 43  1  0  0  0  0
 19 44  1  0  0  0  0
 20 21  1  0  0  0  0
 21 22  1  0  0  0  0
 21 23  1  0  0  0  0
 21 24  2  0  0  0  0
 22 25  1  0  0  0  0
 23 45  1  0  0  0  0
 25 26  1  0  0  0  0
 25 27  1  0  0  0  0
 25 28  2  0  0  0  0
 26 29  1  0  0  0  0
 27 46  1  0  0  0  0
 29 30  1  0  0  0  0
 29 31  1  0  0  0  0
 29 32  2  0  0  0  0
 30 47  1  0  0  0  0
 31 48  1  0  0  0  0
M  END
>  <DRUGBANK_ID>
DB04137

>  <SECONDARY_ACCESSION_NUMBERS>
EXPT01660

>  <COMMON_NAME>
Guanosine-5'-Triphosphate

>  <CAS_NUMBER>
86-01-1

>  <UNII>
01WV7J708X

$$$$
