
 OpenBabel10282417183D

 38 38  0  0  0  0  0  0  0  0999 V2000
    0.9190   -0.0341    0.0478 Hg  0  0  0  0  0  0  0  0  0  0  0  0
    7.1440    0.7564   -2.0985 O   0  0  0  0  0  0  0  0  0  0  0  0
    6.7845   -2.9883   -1.4621 O   0  0  0  0  0  0  0  0  0  0  0  0
    3.0324    1.5412   -1.7641 O   0  0  0  0  0  0  0  0  0  0  0  0
    5.0340   -1.5043   -0.7475 O   0  0  0  0  0  0  0  0  0  0  0  0
    4.2756    0.6433   -1.2465 O   0  0  0  0  0  0  0  0  0  0  0  0
   -1.0610   -0.0341    0.0478 O   0  0  0  0  0  0  0  0  0  0  0  0
    5.5157   -1.0520   -0.9280 N   0  0  0  0  0  0  0  0  0  0  0  0
    6.7280   -1.3070   -3.2020 C   0  0  0  0  0  0  0  0  0  0  0  0
    7.1191   -0.0400   -3.2739 C   0  0  0  0  0  0  0  0  0  0  0  0
    6.3608   -1.8479   -1.8298 C   0  0  0  0  0  0  0  0  0  0  0  0
    6.5430   -2.0678   -4.3445 C   0  0  0  0  0  0  0  0  0  0  0  0
    7.4998    0.5073   -4.4753 C   0  0  0  0  0  0  0  0  0  0  0  0
    7.0787   -1.4825   -5.5160 C   0  0  0  0  0  0  0  0  0  0  0  0
    7.3993   -0.2071   -5.6368 C   0  0  0  0  0  0  0  0  0  0  0  0
    5.0257    0.2670   -1.3533 C   0  0  0  0  0  0  0  0  0  0  0  0
    3.5057    0.2670   -1.3533 C   0  0  3  0  0  0  0  0  0  0  0  0
    6.7519    0.1972   -0.8536 C   0  0  0  0  0  0  0  0  0  0  0  0
    5.3114   -0.2796   -0.9435 C   0  0  0  0  0  0  0  0  0  0  0  0
    2.9990   -0.0341    0.0478 C   0  0  0  0  0  0  0  0  0  0  0  0
    1.6124    1.5412   -1.7641 C   0  0  0  0  0  0  0  0  0  0  0  0
    3.3279    0.3296   -1.3057 H   0  0  0  0  0  0  0  0  0  0  0  0
   -1.3943    0.8255    0.4352 H   0  0  0  0  0  0  0  0  0  0  0  0
    5.2693   -1.4150   -0.0072 H   0  0  0  0  0  0  0  0  0  0  0  0
    6.0405   -3.0125   -4.3415 H   0  0  0  0  0  0  0  0  0  0  0  0
    7.8804    1.5069   -4.5023 H   0  0  0  0  0  0  0  0  0  0  0  0
    7.2350   -2.1174   -6.3630 H   0  0  0  0  0  0  0  0  0  0  0  0
    7.5712    0.2430   -6.5922 H   0  0  0  0  0  0  0  0  0  0  0  0
    5.3824    0.4790   -2.3396 H   0  0  0  0  0  0  0  0  0  0  0  0
    5.3824    1.0152   -0.6766 H   0  0  0  0  0  0  0  0  0  0  0  0
    3.1490   -0.4811   -2.0300 H   0  0  0  0  0  0  0  0  0  0  0  0
    7.3876   -0.6307   -0.6183 H   0  0  0  0  0  0  0  0  0  0  0  0
    6.8347    0.9395   -0.0873 H   0  0  0  0  0  0  0  0  0  0  0  0
    3.3557    0.7141    0.7245 H   0  0  0  0  0  0  0  0  0  0  0  0
    3.3557   -0.9942    0.3574 H   0  0  0  0  0  0  0  0  0  0  0  0
    1.2557    0.7931   -2.4408 H   0  0  0  0  0  0  0  0  0  0  0  0
    1.2557    1.3293   -0.7778 H   0  0  0  0  0  0  0  0  0  0  0  0
    1.2557    2.5014   -2.0737 H   0  0  0  0  0  0  0  0  0  0  0  0
  1  7  1  0  0  0  0
  1 20  1  0  0  0  0
  2 10  1  0  0  0  0
  2 18  1  0  0  0  0
  3 11  2  0  0  0  0
  4 17  1  0  0  0  0
  4 21  1  0  0  0  0
  5 19  2  0  0  0  0
  6 19  1  0  0  0  0
  6 22  1  0  0  0  0
  7 23  1  0  0  0  0
  8 11  1  0  0  0  0
  8 16  1  0  0  0  0
  8 24  1  0  0  0  0
  9 10  1  0  0  0  0
  9 11  1  0  0  0  0
  9 12  2  0  0  0  0
 10 13  2  0  0  0  0
 12 14  1  0  0  0  0
 12 25  1  0  0  0  0
 13 15  1  0  0  0  0
 13 26  1  0  0  0  0
 14 15  2  0  0  0  0
 14 27  1  0  0  0  0
 15 28  1  0  0  0  0
 16 17  1  0  0  0  0
 16 29  1  0  0  0  0
 16 30  1  0  0  0  0
 17 20  1  0  0  0  0
 17 31  1  0  0  0  0
 18 19  1  0  0  0  0
 18 32  1  0  0  0  0
 18 33  1  0  0  0  0
 20 34  1  0  0  0  0
 20 35  1  0  0  0  0
 21 36  1  0  0  0  0
 21 37  1  0  0  0  0
 21 38  1  0  0  0  0
M  END
>  <DRUGBANK_ID>
DB09338

>  <COMMON_NAME>
Mersalyl

>  <CAS_NUMBER>
486-67-9

>  <UNII>
7RDI07K19U

>  <SYNONYMS>
Acidum mersalylicum; Mersal

$$$$
