
 OpenBabel10282417123D

 48 49  0  0  1  0  0  0  0  0999 V2000
   -4.1626    0.6950    0.9228 C   0  0  0  0  0  0  0  0  0  0  0  0
   -2.7189    0.5498    1.3757 C   0  0  0  0  0  0  0  0  0  0  0  0
   -2.4584    0.2647    2.5865 O   0  0  0  0  0  0  0  0  0  0  0  0
   -1.6240    0.7391    0.4133 N   0  0  0  0  0  0  0  0  0  0  0  0
   -1.9239    1.0697   -0.9873 C   0  0  2  0  0  0  0  0  0  0  0  0
   -0.7705    0.6239   -1.8713 C   0  0  0  0  0  0  0  0  0  0  0  0
    0.5556    0.7255   -1.1353 C   0  0  0  0  0  0  0  0  0  0  0  0
    1.1503   -0.4294   -0.6930 C   0  0  0  0  0  0  0  0  0  0  0  0
    2.4015   -0.3823   -0.0380 C   0  0  0  0  0  0  0  0  0  0  0  0
    3.0171    0.8222    0.1600 C   0  0  0  0  0  0  0  0  0  0  0  0
    2.4666    2.0303   -0.3392 C   0  0  0  0  0  0  0  0  0  0  0  0
    1.1908    1.9827   -0.9899 C   0  0  0  0  0  0  0  0  0  0  0  0
    0.6433    3.2098   -1.4677 C   0  0  0  0  0  0  0  0  0  0  0  0
    1.3225    4.3769   -1.3276 C   0  0  0  0  0  0  0  0  0  0  0  0
    2.5722    4.4378   -0.6903 C   0  0  0  0  0  0  0  0  0  0  0  0
    3.1263    3.2589   -0.2199 C   0  0  0  0  0  0  0  0  0  0  0  0
   -2.1256    2.6505   -1.1308 B   0  5  0  0  0  0  0  0  0  0  0  0
   -2.4316    2.9878   -2.5600 O   0  0  0  0  0  0  0  0  0  0  0  0
   -3.2639    3.0904   -0.2585 O   0  0  0  0  0  0  0  0  0  0  0  0
   -0.8706    3.3551   -0.7083 O   0  0  0  0  0  0  0  0  0  0  0  0
   -1.0497    4.7580   -0.8356 C   0  0  0  0  0  0  0  0  0  0  0  0
   -1.4169    5.0968   -2.2712 C   0  0  2  0  0  0  0  0  0  0  0  0
   -0.1919    5.2191   -3.0745 N   0  0  0  0  0  0  0  0  0  0  0  0
   -2.1769    6.4128   -2.3026 C   0  0  0  0  0  0  0  0  0  0  0  0
   -3.4992    6.4569   -2.8184 O   0  0  0  0  0  0  0  0  0  0  0  0
   -1.6289    7.4737   -1.8673 O   0  0  0  0  0  0  0  0  0  0  0  0
   -4.8158    0.5234    1.7527 H   0  0  0  0  0  0  0  0  0  0  0  0
   -4.3685   -0.0194    0.1532 H   0  0  0  0  0  0  0  0  0  0  0  0
   -4.3198    1.6831    0.5435 H   0  0  0  0  0  0  0  0  0  0  0  0
   -0.6553    0.6417    0.7172 H   0  0  0  0  0  0  0  0  0  0  0  0
   -2.8191    0.5671   -1.2887 H   0  0  0  0  0  0  0  0  0  0  0  0
   -0.9066   -0.3769   -2.2245 H   0  0  0  0  0  0  0  0  0  0  0  0
   -0.7700    1.2984   -2.7019 H   0  0  0  0  0  0  0  0  0  0  0  0
    0.6642   -1.3704   -0.8450 H   0  0  0  0  0  0  0  0  0  0  0  0
    2.8649   -1.2851    0.3014 H   0  0  0  0  0  0  0  0  0  0  0  0
    3.9372    0.8543    0.7052 H   0  0  0  0  0  0  0  0  0  0  0  0
   -0.3154    3.2107   -1.9429 H   0  0  0  0  0  0  0  0  0  0  0  0
    0.8927    5.2772   -1.7144 H   0  0  0  0  0  0  0  0  0  0  0  0
    3.0829    5.3704   -0.5712 H   0  0  0  0  0  0  0  0  0  0  0  0
    4.0877    3.2882    0.2489 H   0  0  0  0  0  0  0  0  0  0  0  0
   -1.6728    2.6945   -3.1415 H   0  0  0  0  0  0  0  0  0  0  0  0
   -4.1005    2.6207   -0.5401 H   0  0  0  0  0  0  0  0  0  0  0  0
   -1.8616    5.0718   -0.2134 H   0  0  0  0  0  0  0  0  0  0  0  0
   -0.1545    5.2606   -0.5343 H   0  0  0  0  0  0  0  0  0  0  0  0
   -2.0321    4.3200   -2.6748 H   0  0  0  0  0  0  0  0  0  0  0  0
    0.5546    4.6743   -2.6430 H   0  0  0  0  0  0  0  0  0  0  0  0
    0.0867    6.1992   -3.1226 H   0  0  0  0  0  0  0  0  0  0  0  0
   -3.9304    5.6222   -3.1609 H   0  0  0  0  0  0  0  0  0  0  0  0
  1  2  1  0  0  0  0
  1 27  1  0  0  0  0
  1 28  1  0  0  0  0
  1 29  1  0  0  0  0
  2  3  2  0  0  0  0
  2  4  1  0  0  0  0
  4 30  1  0  0  0  0
  5 17  1  0  0  0  0
  5 31  1  6  0  0  0
  5  6  1  0  0  0  0
  5  4  1  0  0  0  0
  6  7  1  0  0  0  0
  6 32  1  0  0  0  0
  6 33  1  0  0  0  0
  7  8  2  0  0  0  0
  7 12  1  0  0  0  0
  8  9  1  0  0  0  0
  8 34  1  0  0  0  0
  9 10  2  0  0  0  0
  9 35  1  0  0  0  0
 10 11  1  0  0  0  0
 10 36  1  0  0  0  0
 11 12  2  0  0  0  0
 11 16  1  0  0  0  0
 12 13  1  0  0  0  0
 13 14  2  0  0  0  0
 13 37  1  0  0  0  0
 14 15  1  0  0  0  0
 14 38  1  0  0  0  0
 15 16  2  0  0  0  0
 15 39  1  0  0  0  0
 16 40  1  0  0  0  0
 17 18  1  0  0  0  0
 17 19  1  0  0  0  0
 17 20  1  0  0  0  0
 18 41  1  0  0  0  0
 19 42  1  0  0  0  0
 20 21  1  0  0  0  0
 21 43  1  0  0  0  0
 21 44  1  0  0  0  0
 22 24  1  0  0  0  0
 22 45  1  6  0  0  0
 22 23  1  0  0  0  0
 22 21  1  0  0  0  0
 23 46  1  0  0  0  0
 23 47  1  0  0  0  0
 24 25  1  0  0  0  0
 24 26  2  0  0  0  0
 25 48  1  0  0  0  0
M  CHG  1  17  -1
M  END
>  <DRUGBANK_ID>
DB02677

>  <SECONDARY_ACCESSION_NUMBERS>
EXPT02852

>  <COMMON_NAME>
D-naphthyl-1-acetamido boronic acid alanine

$$$$
