
 OpenBabel10282417103D

 59 62  0  0  0  0  0  0  0  0999 V2000
    1.7668   -0.4957    0.0948 C   0  0  0  0  0  0  0  0  0  0  0  0
    1.3216    0.8154   -0.0019 C   0  0  0  0  0  0  0  0  0  0  0  0
    2.0619    2.0869   -0.1990 C   0  0  0  0  0  0  0  0  0  0  0  0
    1.9715    3.2405    0.6363 C   0  0  0  0  0  0  0  0  0  0  0  0
    1.3600    3.1691    1.9609 C   0  0  0  0  0  0  0  0  0  0  0  0
    0.3865    3.9930    2.4640 N   0  0  0  0  0  0  0  0  0  0  0  0
   -0.5286   -1.4332   -0.0141 C   0  0  0  0  0  0  0  0  0  0  0  0
    0.8388   -1.6149    0.1696 C   0  0  0  0  0  0  0  0  0  0  0  0
   -0.0022    0.8843   -0.2704 C   0  0  0  0  0  0  0  0  0  0  0  0
   -0.7484   -0.2504   -0.6401 C   0  0  0  0  0  0  0  0  0  0  0  0
    2.5754    4.4518    0.2261 C   0  0  0  0  0  0  0  0  0  0  0  0
    3.3188    4.5075   -0.9554 C   0  0  0  0  0  0  0  0  0  0  0  0
    3.3531    3.4085   -1.8040 C   0  0  0  0  0  0  0  0  0  0  0  0
    2.6931    2.2355   -1.4476 C   0  0  0  0  0  0  0  0  0  0  0  0
    0.0790    3.6338    3.7190 N   0  0  0  0  0  0  0  0  0  0  0  0
    0.8630    2.5998    3.9826 N   0  0  0  0  0  0  0  0  0  0  0  0
    1.6574    2.2999    2.9066 N   0  0  0  0  0  0  0  0  0  0  0  0
   -1.7872   -2.2920    0.1860 C   0  0  0  0  0  0  0  0  0  0  0  0
   -3.6096   -1.1049    1.8083 C   0  0  0  0  0  0  0  0  0  0  0  0
   -4.1507   -1.4551    2.9554 N   0  0  0  0  0  0  0  0  0  0  0  0
   -2.6207   -2.1201    1.4352 N   0  0  0  0  0  0  0  0  0  0  0  0
   -4.2948    0.1884    1.1976 C   0  0  0  0  0  0  0  0  0  0  0  0
   -3.5658    1.5412    1.2172 C   0  0  0  0  0  0  0  0  0  0  0  0
   -2.6762    1.3600    0.0929 C   0  0  0  0  0  0  0  0  0  0  0  0
   -2.7105   -3.1550    2.4477 C   0  0  0  0  0  0  0  0  0  0  0  0
   -2.0988   -4.4840    2.6602 C   0  0  0  0  0  0  0  0  0  0  0  0
   -2.3915   -5.2586    3.5875 O   0  0  0  0  0  0  0  0  0  0  0  0
   -1.1591   -4.9423    1.8247 O   0  0  0  0  0  0  0  0  0  0  0  0
   -3.6292   -2.6370    3.3730 C   0  0  0  0  0  0  0  0  0  0  0  0
   -4.1134   -3.1988    4.7117 C   0  0  0  0  0  0  0  0  0  0  0  0
   -2.9479   -3.3340    5.7044 C   0  0  0  0  0  0  0  0  0  0  0  0
   -5.1629   -2.2983    5.3891 C   0  0  0  0  0  0  0  0  0  0  0  0
   -4.7733   -4.4612    4.5426 O   0  0  0  0  0  0  0  0  0  0  0  0
    2.8367   -0.6581    0.1290 H   0  0  0  0  0  0  0  0  0  0  0  0
   -0.1135    4.7632    2.0394 H   0  0  0  0  0  0  0  0  0  0  0  0
    1.2569   -2.6100    0.2686 H   0  0  0  0  0  0  0  0  0  0  0  0
   -0.4140    1.8773   -0.1371 H   0  0  0  0  0  0  0  0  0  0  0  0
   -1.7088   -0.2022   -1.1323 H   0  0  0  0  0  0  0  0  0  0  0  0
    2.5285    5.3505    0.8415 H   0  0  0  0  0  0  0  0  0  0  0  0
    3.8881    5.3995   -1.2085 H   0  0  0  0  0  0  0  0  0  0  0  0
    3.8942    3.4511   -2.7454 H   0  0  0  0  0  0  0  0  0  0  0  0
    2.6509    1.4152   -2.1622 H   0  0  0  0  0  0  0  0  0  0  0  0
   -2.4992   -2.2069   -0.6476 H   0  0  0  0  0  0  0  0  0  0  0  0
   -1.4903   -3.3250    0.0936 H   0  0  0  0  0  0  0  0  0  0  0  0
   -4.6920   -0.0353    0.1998 H   0  0  0  0  0  0  0  0  0  0  0  0
   -5.1747    0.4242    1.8124 H   0  0  0  0  0  0  0  0  0  0  0  0
   -4.1056    2.4483    0.9334 H   0  0  0  0  0  0  0  0  0  0  0  0
   -2.9643    1.7334    2.1180 H   0  0  0  0  0  0  0  0  0  0  0  0
   -3.1533    0.9132   -0.7883 H   0  0  0  0  0  0  0  0  0  0  0  0
   -2.1651    2.2518   -0.2409 H   0  0  0  0  0  0  0  0  0  0  0  0
   -2.0500    0.6605    0.6440 H   0  0  0  0  0  0  0  0  0  0  0  0
   -0.8182   -4.4208    1.0994 H   0  0  0  0  0  0  0  0  0  0  0  0
   -2.5072   -2.3554    5.9230 H   0  0  0  0  0  0  0  0  0  0  0  0
   -3.2793   -3.8025    6.6360 H   0  0  0  0  0  0  0  0  0  0  0  0
   -2.1270   -3.9543    5.3445 H   0  0  0  0  0  0  0  0  0  0  0  0
   -4.7611   -1.3047    5.6115 H   0  0  0  0  0  0  0  0  0  0  0  0
   -6.0572   -2.1824    4.7660 H   0  0  0  0  0  0  0  0  0  0  0  0
   -5.5024   -2.7506    6.3300 H   0  0  0  0  0  0  0  0  0  0  0  0
   -5.4650   -4.3254    3.8736 H   0  0  0  0  0  0  0  0  0  0  0  0
  1  2  1  0  0  0  0
  1 34  1  0  0  0  0
  2  9  2  0  0  0  0
  2  3  1  0  0  0  0
  3 14  1  0  0  0  0
  3  4  2  0  0  0  0
  4 11  1  0  0  0  0
  4  5  1  0  0  0  0
  5 17  2  0  0  0  0
  5  6  1  0  0  0  0
  6 15  1  0  0  0  0
  6 35  1  0  0  0  0
  7  8  1  0  0  0  0
  7 10  2  0  0  0  0
  8  1  2  0  0  0  0
  8 36  1  0  0  0  0
  9 10  1  0  0  0  0
  9 37  1  0  0  0  0
 10 38  1  0  0  0  0
 11 12  2  0  0  0  0
 11 39  1  0  0  0  0
 12 13  1  0  0  0  0
 12 40  1  0  0  0  0
 13 14  2  0  0  0  0
 13 41  1  0  0  0  0
 14 42  1  0  0  0  0
 15 16  2  0  0  0  0
 16 17  1  0  0  0  0
 18  7  1  0  0  0  0
 18 43  1  0  0  0  0
 18 44  1  0  0  0  0
 19 20  2  0  0  0  0
 19 21  1  0  0  0  0
 19 22  1  0  0  0  0
 20 29  1  0  0  0  0
 21 18  1  0  0  0  0
 22 23  1  0  0  0  0
 22 45  1  0  0  0  0
 22 46  1  0  0  0  0
 23 24  1  0  0  0  0
 23 47  1  0  0  0  0
 23 48  1  0  0  0  0
 24 49  1  0  0  0  0
 24 50  1  0  0  0  0
 24 51  1  0  0  0  0
 25 21  1  0  0  0  0
 25 26  1  0  0  0  0
 26 28  1  0  0  0  0
 26 27  2  0  0  0  0
 28 52  1  0  0  0  0
 29 25  2  0  0  0  0
 29 30  1  0  0  0  0
 30 33  1  0  0  0  0
 30 31  1  0  0  0  0
 30 32  1  0  0  0  0
 31 53  1  0  0  0  0
 31 54  1  0  0  0  0
 31 55  1  0  0  0  0
 32 56  1  0  0  0  0
 32 57  1  0  0  0  0
 32 58  1  0  0  0  0
 33 59  1  0  0  0  0
M  END
>  <DRUGBANK_ID>
DB00275

>  <SECONDARY_ACCESSION_NUMBERS>
APRD00223

>  <COMMON_NAME>
Olmesartan

>  <CAS_NUMBER>
144689-24-7

>  <UNII>
8W1IQP3U10

>  <SYNONYMS>
4-(1-hydroxy-1-methylethyl)-2-propyl-1-{[2'-(1H-tetrazol-5-yl)biphenyl-4-yl]methyl}-1H-imidazole-5-carboxylic acid; 4-(hydroxy-1-methylethyl)-2-propyl-1-{[2'-(1H-tetrazol-5-yl)-1,1'-biphenyl-4-yl]methyl}-1H-imidazole-5-carboxylic acid; Olmesartan

$$$$
