
 OpenBabel10282417233D

 46 49  0  0  0  0  0  0  0  0999 V2000
   -3.1715    0.5987    0.1916 Cl  0  0  0  0  0  0  0  0  0  0  0  0
   -1.5590   -0.0347    0.0158 C   0  0  0  0  0  0  0  0  0  0  0  0
   -1.2126   -1.3359   -0.0818 C   0  0  0  0  0  0  0  0  0  0  0  0
   -2.0681   -2.4349   -0.1715 N   0  0  0  0  0  0  0  0  0  0  0  0
   -3.5136   -2.4341   -0.3268 C   0  0  0  0  0  0  0  0  0  0  0  0
   -3.9392   -2.8833   -1.6844 C   0  0  0  0  0  0  0  0  0  0  0  0
   -3.6282   -4.1786   -2.0067 C   0  0  0  0  0  0  0  0  0  0  0  0
   -3.8830   -4.6056   -3.2832 C   0  0  0  0  0  0  0  0  0  0  0  0
   -4.7524   -3.9547   -4.1514 C   0  0  0  0  0  0  0  0  0  0  0  0
   -5.1067   -2.6440   -3.8197 C   0  0  0  0  0  0  0  0  0  0  0  0
   -4.6160   -2.0805   -2.6265 C   0  0  0  0  0  0  0  0  0  0  0  0
   -5.2027   -4.5963   -5.4339 C   0  0  0  0  0  0  0  0  0  0  0  0
   -5.7424   -3.8960   -6.2846 O   0  0  0  0  0  0  0  0  0  0  0  0
   -4.9448   -5.9356   -5.7397 N   0  0  0  0  0  0  0  0  0  0  0  0
   -4.4489   -6.9863   -4.9376 C   0  0  0  0  0  0  0  0  0  0  0  0
   -4.8747   -7.1940   -3.6206 C   0  0  0  0  0  0  0  0  0  0  0  0
   -4.1365   -8.0234   -2.7752 C   0  0  0  0  0  0  0  0  0  0  0  0
   -3.0826   -8.7377   -3.3161 C   0  0  0  0  0  0  0  0  0  0  0  0
   -2.7003   -8.6395   -4.6089 N   0  0  0  0  0  0  0  0  0  0  0  0
   -3.3827   -7.7617   -5.3891 C   0  0  0  0  0  0  0  0  0  0  0  0
    0.2852   -1.6707   -0.0453 C   0  0  0  0  0  0  0  0  0  0  0  0
    0.6757   -2.8393   -0.0218 O   0  0  0  0  0  0  0  0  0  0  0  0
    1.2682   -0.5590   -0.0124 C   0  0  0  0  0  0  0  0  0  0  0  0
    0.8202    0.7541   -0.0137 C   0  0  0  0  0  0  0  0  0  0  0  0
    1.7067    1.8357   -0.0151 C   0  0  0  0  0  0  0  0  0  0  0  0
    3.0706    1.6092   -0.0030 C   0  0  0  0  0  0  0  0  0  0  0  0
    3.5447    0.2990    0.0155 C   0  0  0  0  0  0  0  0  0  0  0  0
    2.6517   -0.7860    0.0129 C   0  0  0  0  0  0  0  0  0  0  0  0
   -0.5928    1.0661    0.0037 C   0  0  0  0  0  0  0  0  0  0  0  0
   -0.9500    2.2479    0.0025 O   0  0  0  0  0  0  0  0  0  0  0  0
   -1.5833   -3.3313   -0.2912 H   0  0  0  0  0  0  0  0  0  0  0  0
   -3.9619   -3.0674    0.4449 H   0  0  0  0  0  0  0  0  0  0  0  0
   -3.9839   -1.4802   -0.1926 H   0  0  0  0  0  0  0  0  0  0  0  0
   -3.1139   -4.8314   -1.3086 H   0  0  0  0  0  0  0  0  0  0  0  0
   -3.3491   -5.4962   -3.5500 H   0  0  0  0  0  0  0  0  0  0  0  0
   -5.7157   -2.0421   -4.4946 H   0  0  0  0  0  0  0  0  0  0  0  0
   -4.7712   -1.0184   -2.4397 H   0  0  0  0  0  0  0  0  0  0  0  0
   -4.9853   -6.1011   -6.7398 H   0  0  0  0  0  0  0  0  0  0  0  0
   -5.6768   -6.5931   -3.1980 H   0  0  0  0  0  0  0  0  0  0  0  0
   -4.3438   -8.0573   -1.7105 H   0  0  0  0  0  0  0  0  0  0  0  0
   -2.4961   -9.4163   -2.7021 H   0  0  0  0  0  0  0  0  0  0  0  0
   -2.9595   -7.6288   -6.3814 H   0  0  0  0  0  0  0  0  0  0  0  0
    1.3216    2.8551   -0.0250 H   0  0  0  0  0  0  0  0  0  0  0  0
    3.7497    2.4575   -0.0053 H   0  0  0  0  0  0  0  0  0  0  0  0
    4.6187    0.1279    0.0272 H   0  0  0  0  0  0  0  0  0  0  0  0
    3.0513   -1.7987    0.0286 H   0  0  0  0  0  0  0  0  0  0  0  0
  1  2  1  0  0  0  0
  2  3  2  0  0  0  0
  2 29  1  0  0  0  0
  3  4  1  0  0  0  0
  3 21  1  0  0  0  0
  4  5  1  0  0  0  0
  4 31  1  0  0  0  0
  5  6  1  0  0  0  0
  5 32  1  0  0  0  0
  5 33  1  0  0  0  0
  6  7  2  0  0  0  0
  6 11  1  0  0  0  0
  7  8  1  0  0  0  0
  7 34  1  0  0  0  0
  8  9  2  0  0  0  0
  8 35  1  0  0  0  0
  9 10  1  0  0  0  0
  9 12  1  0  0  0  0
 10 11  2  0  0  0  0
 10 36  1  0  0  0  0
 11 37  1  0  0  0  0
 12 13  2  0  0  0  0
 12 14  1  0  0  0  0
 14 15  1  0  0  0  0
 14 38  1  0  0  0  0
 15 16  2  0  0  0  0
 15 20  1  0  0  0  0
 16 17  1  0  0  0  0
 16 39  1  0  0  0  0
 17 18  2  0  0  0  0
 17 40  1  0  0  0  0
 18 19  1  0  0  0  0
 18 41  1  0  0  0  0
 19 20  2  0  0  0  0
 20 42  1  0  0  0  0
 21 22  2  0  0  0  0
 21 23  1  0  0  0  0
 23 24  2  0  0  0  0
 23 28  1  0  0  0  0
 24 25  1  0  0  0  0
 24 29  1  0  0  0  0
 25 26  2  0  0  0  0
 25 43  1  0  0  0  0
 26 27  1  0  0  0  0
 26 44  1  0  0  0  0
 27 28  2  0  0  0  0
 27 45  1  0  0  0  0
 28 46  1  0  0  0  0
 29 30  2  0  0  0  0
M  END
>  <DRUGBANK_ID>
DB17136

>  <COMMON_NAME>
MPT-0L055

>  <CAS_NUMBER>
2069950-14-5

>  <UNII>
U1DMN1EU6W

>  <SYNONYMS>
4-(((3-chloro-1,4-dihydro-1,4-dioxo-2-naphthalenyl)amino)methyl)-n-3-pyridinylbenzamide; 4-(((3-chloro-1,4-dioxo-1,4 dihydronaphthalen-2-yl)amino)methyl)-n-(pyridine-3-yl)benzamide; Benzamide, 4-(((3-chloro-1,4-dihydro-1,4-dioxo-2-naphthalenyl)amino)methyl)-n-3-pyridinyl-

$$$$
