
 OpenBabel10282417123D

 47 49  0  0  0  0  0  0  0  0999 V2000
   -0.3404   -1.2574   -0.0407 C   0  0  0  0  0  0  0  0  0  0  0  0
    0.9512   -0.6952    0.0126 N   0  0  0  0  0  0  0  0  0  0  0  0
    0.9182    0.6598    0.1417 N   0  0  0  0  0  0  0  0  0  0  0  0
   -1.1878   -0.1619   -0.0346 C   0  0  0  0  0  0  0  0  0  0  0  0
   -0.3680    0.9998    0.0305 C   0  0  0  0  0  0  0  0  0  0  0  0
   -0.7157   -2.6276   -0.0751 N   0  0  0  0  0  0  0  0  0  0  0  0
    0.1433   -3.6260    0.3489 C   0  0  0  0  0  0  0  0  0  0  0  0
   -0.7670    2.4763    0.0166 C   0  0  0  0  0  0  0  0  0  0  0  0
   -0.1842   -4.9213   -0.0224 N   0  0  0  0  0  0  0  0  0  0  0  0
    2.2158   -1.2998   -0.1658 C   0  0  0  0  0  0  0  0  0  0  0  0
    1.1653   -3.3658    0.9734 O   0  0  0  0  0  0  0  0  0  0  0  0
    0.7464   -6.0081    0.0805 C   0  0  0  0  0  0  0  0  0  0  0  0
    2.6035   -8.1362    0.2339 C   0  0  0  0  0  0  0  0  0  0  0  0
    3.7564   -9.4095    0.3078 Cl  0  0  0  0  0  0  0  0  0  0  0  0
    1.8688   -5.9614    0.9251 C   0  0  0  0  0  0  0  0  0  0  0  0
    0.5719   -7.1619   -0.6934 C   0  0  0  0  0  0  0  0  0  0  0  0
    1.4902   -8.2284   -0.6018 C   0  0  0  0  0  0  0  0  0  0  0  0
    2.7948   -7.0022    1.0008 C   0  0  0  0  0  0  0  0  0  0  0  0
   -0.2208    3.2044    1.2630 C   0  0  0  0  0  0  0  0  0  0  0  0
   -0.2152    3.1934   -1.2373 C   0  0  0  0  0  0  0  0  0  0  0  0
   -2.3007    2.6317    0.0077 C   0  0  0  0  0  0  0  0  0  0  0  0
    2.4288   -2.1579   -1.2502 C   0  0  0  0  0  0  0  0  0  0  0  0
    3.1634   -1.1856    0.8643 C   0  0  0  0  0  0  0  0  0  0  0  0
    4.3265   -1.9541    0.8072 C   0  0  0  0  0  0  0  0  0  0  0  0
    3.5772   -2.9462   -1.2770 C   0  0  0  0  0  0  0  0  0  0  0  0
    4.5219   -2.8446   -0.2521 C   0  0  0  0  0  0  0  0  0  0  0  0
   -2.2672   -0.1842   -0.0573 H   0  0  0  0  0  0  0  0  0  0  0  0
   -1.7065   -2.8281   -0.0690 H   0  0  0  0  0  0  0  0  0  0  0  0
   -1.1080   -5.1284   -0.3758 H   0  0  0  0  0  0  0  0  0  0  0  0
    2.0662   -5.1212    1.5811 H   0  0  0  0  0  0  0  0  0  0  0  0
   -0.2305   -7.2368   -1.4226 H   0  0  0  0  0  0  0  0  0  0  0  0
    1.3435   -9.1276   -1.1949 H   0  0  0  0  0  0  0  0  0  0  0  0
    3.6480   -6.9008    1.6663 H   0  0  0  0  0  0  0  0  0  0  0  0
    0.8751    3.1864    1.2953 H   0  0  0  0  0  0  0  0  0  0  0  0
   -0.5278    4.2575    1.2744 H   0  0  0  0  0  0  0  0  0  0  0  0
   -0.5868    2.7390    2.1846 H   0  0  0  0  0  0  0  0  0  0  0  0
   -0.5833    2.7301   -2.1596 H   0  0  0  0  0  0  0  0  0  0  0  0
   -0.5192    4.2484   -1.2547 H   0  0  0  0  0  0  0  0  0  0  0  0
    0.8804    3.1729   -1.2711 H   0  0  0  0  0  0  0  0  0  0  0  0
   -2.7401    2.1641   -0.8815 H   0  0  0  0  0  0  0  0  0  0  0  0
   -2.7487    2.1602    0.8898 H   0  0  0  0  0  0  0  0  0  0  0  0
   -2.5999    3.6859    0.0067 H   0  0  0  0  0  0  0  0  0  0  0  0
    1.6710   -2.2773   -2.0180 H   0  0  0  0  0  0  0  0  0  0  0  0
    2.9375   -0.6185    1.7656 H   0  0  0  0  0  0  0  0  0  0  0  0
    5.0492   -1.9065    1.6173 H   0  0  0  0  0  0  0  0  0  0  0  0
    3.7048   -3.6830   -2.0643 H   0  0  0  0  0  0  0  0  0  0  0  0
    5.3921   -3.4951   -0.2565 H   0  0  0  0  0  0  0  0  0  0  0  0
  2  1  1  0  0  0  0
  3  2  1  0  0  0  0
  3  5  2  0  0  0  0
  4  1  2  0  0  0  0
  4 27  1  0  0  0  0
  5  4  1  0  0  0  0
  6  1  1  0  0  0  0
  6 28  1  0  0  0  0
  7  6  1  0  0  0  0
  8  5  1  0  0  0  0
  9  7  1  0  0  0  0
  9 29  1  0  0  0  0
 10  2  1  0  0  0  0
 11  7  2  0  0  0  0
 12  9  1  0  0  0  0
 13 17  2  0  0  0  0
 13 18  1  0  0  0  0
 14 13  1  0  0  0  0
 15 12  1  0  0  0  0
 15 30  1  0  0  0  0
 16 12  2  0  0  0  0
 16 31  1  0  0  0  0
 17 16  1  0  0  0  0
 17 32  1  0  0  0  0
 18 15  2  0  0  0  0
 18 33  1  0  0  0  0
 19  8  1  0  0  0  0
 19 34  1  0  0  0  0
 19 35  1  0  0  0  0
 19 36  1  0  0  0  0
 20  8  1  0  0  0  0
 20 37  1  0  0  0  0
 20 38  1  0  0  0  0
 20 39  1  0  0  0  0
 21  8  1  0  0  0  0
 21 40  1  0  0  0  0
 21 41  1  0  0  0  0
 21 42  1  0  0  0  0
 22 10  2  0  0  0  0
 22 43  1  0  0  0  0
 23 10  1  0  0  0  0
 23 44  1  0  0  0  0
 24 23  2  0  0  0  0
 24 45  1  0  0  0  0
 25 22  1  0  0  0  0
 25 46  1  0  0  0  0
 26 24  1  0  0  0  0
 26 25  2  0  0  0  0
 26 47  1  0  0  0  0
M  END
>  <DRUGBANK_ID>
DB01807

>  <SECONDARY_ACCESSION_NUMBERS>
EXPT01987

>  <COMMON_NAME>
N-[(3Z)-5-Tert-butyl-2-phenyl-1,2-dihydro-3H-pyrazol-3-ylidene]-N'-(4-chlorophenyl)urea

$$$$
