
 OpenBabel10282417233D

 51 54  0  0  0  0  0  0  0  0999 V2000
   -1.7751   -0.0028    0.7173 O   0  0  0  0  0  0  0  0  0  0  0  0
   -1.0358    0.0242   -0.5174 C   0  0  0  0  0  0  0  0  0  0  0  0
   -2.0528    0.0161   -1.6952 C   0  0  0  0  0  0  0  0  0  0  0  0
   -1.4442   -0.0095   -3.0795 C   0  0  0  0  0  0  0  0  0  0  0  0
   -0.7580   -1.1491   -3.5141 C   0  0  0  0  0  0  0  0  0  0  0  0
   -0.1327   -1.1845   -4.7449 C   0  0  0  0  0  0  0  0  0  0  0  0
   -0.2367   -0.0970   -5.6049 C   0  0  0  0  0  0  0  0  0  0  0  0
   -0.9889    1.0114   -5.2313 C   0  0  0  0  0  0  0  0  0  0  0  0
   -1.5566    1.0765   -3.9563 C   0  0  0  0  0  0  0  0  0  0  0  0
   -0.2002    1.3100   -0.5599 C   0  0  0  0  0  0  0  0  0  0  0  0
    0.9469    1.2710    0.4388 C   0  0  0  0  0  0  0  0  0  0  0  0
    1.7674    0.0747    0.2704 N   0  0  0  0  0  0  0  0  0  0  0  0
    1.0238   -1.1731    0.4696 C   0  0  0  0  0  0  0  0  0  0  0  0
   -0.1272   -1.2209   -0.5177 C   0  0  0  0  0  0  0  0  0  0  0  0
    3.0672    0.0420   -0.2412 C   0  0  0  0  0  0  0  0  0  0  0  0
    3.6675   -1.0095   -0.4915 O   0  0  0  0  0  0  0  0  0  0  0  0
    3.7875    1.3155   -0.4854 C   0  0  0  0  0  0  0  0  0  0  0  0
    3.9767    2.2136    0.5718 C   0  0  0  0  0  0  0  0  0  0  0  0
    4.6363    3.4181    0.3476 C   0  0  0  0  0  0  0  0  0  0  0  0
    5.1289    3.6687   -0.9194 C   0  0  0  0  0  0  0  0  0  0  0  0
    5.0060    2.8067   -1.9501 N   0  0  0  0  0  0  0  0  0  0  0  0
    4.3426    1.6326   -1.7301 C   0  0  0  0  0  0  0  0  0  0  0  0
    4.2323    0.7927   -2.9258 C   0  0  0  0  0  0  0  0  0  0  0  0
    2.9934    0.4040   -3.4155 C   0  0  0  0  0  0  0  0  0  0  0  0
    2.9787   -0.3580   -4.5655 C   0  0  0  0  0  0  0  0  0  0  0  0
    4.0468   -0.7914   -5.2526 N   0  0  0  0  0  0  0  0  0  0  0  0
    5.2306   -0.4139   -4.7643 C   0  0  0  0  0  0  0  0  0  0  0  0
    5.3713    0.3783   -3.6352 C   0  0  0  0  0  0  0  0  0  0  0  0
   -2.3484    0.7825    0.7610 H   0  0  0  0  0  0  0  0  0  0  0  0
   -2.7233   -0.8481   -1.6062 H   0  0  0  0  0  0  0  0  0  0  0  0
   -2.7154    0.8889   -1.6017 H   0  0  0  0  0  0  0  0  0  0  0  0
   -0.6513   -2.0303   -2.8890 H   0  0  0  0  0  0  0  0  0  0  0  0
    0.4970   -2.0420   -4.9811 H   0  0  0  0  0  0  0  0  0  0  0  0
    0.3083   -0.1009   -6.5462 H   0  0  0  0  0  0  0  0  0  0  0  0
   -1.1281    1.8221   -5.9403 H   0  0  0  0  0  0  0  0  0  0  0  0
   -2.0899    1.9779   -3.6646 H   0  0  0  0  0  0  0  0  0  0  0  0
    0.2192    1.4582   -1.5608 H   0  0  0  0  0  0  0  0  0  0  0  0
   -0.8296    2.1811   -0.3397 H   0  0  0  0  0  0  0  0  0  0  0  0
    1.5205    2.1845    0.3075 H   0  0  0  0  0  0  0  0  0  0  0  0
    0.5667    1.2521    1.4643 H   0  0  0  0  0  0  0  0  0  0  0  0
    1.6611   -2.0481    0.2924 H   0  0  0  0  0  0  0  0  0  0  0  0
    0.6654   -1.2160    1.5011 H   0  0  0  0  0  0  0  0  0  0  0  0
   -0.7251   -2.1301   -0.3779 H   0  0  0  0  0  0  0  0  0  0  0  0
    0.4023   -1.2845   -1.4633 H   0  0  0  0  0  0  0  0  0  0  0  0
    3.5941    1.9801    1.5614 H   0  0  0  0  0  0  0  0  0  0  0  0
    4.7668    4.1419    1.1440 H   0  0  0  0  0  0  0  0  0  0  0  0
    5.6553    4.5922   -1.1464 H   0  0  0  0  0  0  0  0  0  0  0  0
    2.0622    0.6872   -2.9359 H   0  0  0  0  0  0  0  0  0  0  0  0
    2.0632   -0.6505   -5.0200 H   0  0  0  0  0  0  0  0  0  0  0  0
    6.0813   -0.7738   -5.3296 H   0  0  0  0  0  0  0  0  0  0  0  0
    6.3633    0.6626   -3.3076 H   0  0  0  0  0  0  0  0  0  0  0  0
  1  2  1  0  0  0  0
  1 29  1  0  0  0  0
  2  3  1  0  0  0  0
  2 10  1  0  0  0  0
  2 14  1  0  0  0  0
  3  4  1  0  0  0  0
  3 30  1  0  0  0  0
  3 31  1  0  0  0  0
  4  5  2  0  0  0  0
  4  9  1  0  0  0  0
  5  6  1  0  0  0  0
  5 32  1  0  0  0  0
  6  7  2  0  0  0  0
  6 33  1  0  0  0  0
  7  8  1  0  0  0  0
  7 34  1  0  0  0  0
  8  9  2  0  0  0  0
  8 35  1  0  0  0  0
  9 36  1  0  0  0  0
 10 11  1  0  0  0  0
 10 37  1  0  0  0  0
 10 38  1  0  0  0  0
 11 12  1  0  0  0  0
 11 39  1  0  0  0  0
 11 40  1  0  0  0  0
 12 13  1  0  0  0  0
 12 15  1  0  0  0  0
 13 14  1  0  0  0  0
 13 41  1  0  0  0  0
 13 42  1  0  0  0  0
 14 43  1  0  0  0  0
 14 44  1  0  0  0  0
 15 16  2  0  0  0  0
 15 17  1  0  0  0  0
 17 18  2  0  0  0  0
 17 22  1  0  0  0  0
 18 19  1  0  0  0  0
 18 45  1  0  0  0  0
 19 20  2  0  0  0  0
 19 46  1  0  0  0  0
 20 21  1  0  0  0  0
 20 47  1  0  0  0  0
 21 22  2  0  0  0  0
 22 23  1  0  0  0  0
 23 24  2  0  0  0  0
 23 28  1  0  0  0  0
 24 25  1  0  0  0  0
 24 48  1  0  0  0  0
 25 26  2  0  0  0  0
 25 49  1  0  0  0  0
 26 27  1  0  0  0  0
 27 28  2  0  0  0  0
 27 50  1  0  0  0  0
 28 51  1  0  0  0  0
M  END
>  <DRUGBANK_ID>
DB16987

>  <COMMON_NAME>
Soticlestat

>  <CAS_NUMBER>
1429505-03-2

>  <UNII>
1766MU795L

$$$$
