
 OpenBabel10282417203D

 58 62  0  0  1  0  0  0  0  0999 V2000
    3.4098    0.9874    1.2916 C   0  0  0  0  0  0  0  0  0  0  0  0
    3.0211    0.7394   -0.1849 C   0  0  2  0  0  0  0  0  0  0  0  0
    2.1265    1.8835   -0.6840 C   0  0  0  0  0  0  0  0  0  0  0  0
    0.7501    1.8681    0.0155 C   0  0  0  0  0  0  0  0  0  0  0  0
    0.0176    0.5007   -0.0693 C   0  0  1  0  0  0  0  0  0  0  0  0
    0.9438   -0.6735    0.3588 C   0  0  2  0  0  0  0  0  0  0  0  0
    2.2442   -0.5760   -0.4234 C   0  0  2  0  0  0  0  0  0  0  0  0
    3.2609   -1.6648   -0.1585 C   0  0  0  0  0  0  0  0  0  0  0  0
    4.5557   -1.0565   -0.6624 C   0  0  0  0  0  0  0  0  0  0  0  0
    4.2964    0.4383   -1.0214 C   0  0  2  0  0  0  0  0  0  0  0  0
    5.4089    1.3075   -0.7352 O   0  0  0  0  0  0  0  0  0  0  0  0
    6.5958    0.9954   -1.3598 C   0  0  0  0  0  0  0  0  0  0  0  0
    6.8799   -0.0593   -2.1317 C   0  0  0  0  0  0  0  0  0  0  0  0
    8.3027   -0.1572   -2.5041 C   0  0  0  0  0  0  0  0  0  0  0  0
    8.8184    1.2318   -2.1679 C   0  0  0  0  0  0  0  0  0  0  0  0
    7.7974    1.8805   -1.2104 C   0  0  0  0  0  0  0  0  0  0  0  0
    0.2596   -2.0311    0.1205 C   0  0  0  0  0  0  0  0  0  0  0  0
   -1.0905   -2.1221    0.8210 C   0  0  0  0  0  0  0  0  0  0  0  0
   -1.9531   -0.9447    0.4425 C   0  0  0  0  0  0  0  0  0  0  0  0
   -3.1444   -1.1388   -0.1509 C   0  0  0  0  0  0  0  0  0  0  0  0
   -3.9667   -0.0091   -0.6249 C   0  0  0  0  0  0  0  0  0  0  0  0
   -5.0382   -0.1966   -1.1972 O   0  0  0  0  0  0  0  0  0  0  0  0
   -3.4515    1.3519   -0.3959 C   0  0  0  0  0  0  0  0  0  0  0  0
   -2.2706    1.5468    0.2052 C   0  0  0  0  0  0  0  0  0  0  0  0
   -1.3490    0.4423    0.6965 C   0  0  2  0  0  0  0  0  0  0  0  0
   -1.1793    0.6491    2.2176 C   0  0  0  0  0  0  0  0  0  0  0  0
    3.9482    0.1398    1.7252 H   0  0  0  0  0  0  0  0  0  0  0  0
    4.0590    1.8651    1.3784 H   0  0  0  0  0  0  0  0  0  0  0  0
    2.5437    1.1646    1.9336 H   0  0  0  0  0  0  0  0  0  0  0  0
    1.9609    1.7921   -1.7656 H   0  0  0  0  0  0  0  0  0  0  0  0
    2.6054    2.8556   -0.5213 H   0  0  0  0  0  0  0  0  0  0  0  0
    0.1357    2.6473   -0.4478 H   0  0  0  0  0  0  0  0  0  0  0  0
    0.8742    2.1615    1.0617 H   0  0  0  0  0  0  0  0  0  0  0  0
   -0.2048    0.3537   -1.1400 H   0  0  0  0  0  0  0  0  0  0  0  0
    1.1739   -0.5995    1.4275 H   0  0  0  0  0  0  0  0  0  0  0  0
    1.9861   -0.6371   -1.4948 H   0  0  0  0  0  0  0  0  0  0  0  0
    3.3443   -1.9250    0.9006 H   0  0  0  0  0  0  0  0  0  0  0  0
    3.0272   -2.5816   -0.7108 H   0  0  0  0  0  0  0  0  0  0  0  0
    5.3628   -1.1707    0.0684 H   0  0  0  0  0  0  0  0  0  0  0  0
    4.8097   -1.6354   -1.5514 H   0  0  0  0  0  0  0  0  0  0  0  0
    4.0602    0.5469   -2.0897 H   0  0  0  0  0  0  0  0  0  0  0  0
    6.2169   -0.8324   -2.4575 H   0  0  0  0  0  0  0  0  0  0  0  0
    8.3909   -0.4009   -3.5655 H   0  0  0  0  0  0  0  0  0  0  0  0
    8.7869   -0.9434   -1.9140 H   0  0  0  0  0  0  0  0  0  0  0  0
    9.8224    1.1811   -1.7359 H   0  0  0  0  0  0  0  0  0  0  0  0
    8.8902    1.8148   -3.0943 H   0  0  0  0  0  0  0  0  0  0  0  0
    8.1784    1.9021   -0.1845 H   0  0  0  0  0  0  0  0  0  0  0  0
    7.5888    2.9078   -1.5296 H   0  0  0  0  0  0  0  0  0  0  0  0
    0.8973   -2.8465    0.4817 H   0  0  0  0  0  0  0  0  0  0  0  0
    0.1237   -2.1909   -0.9577 H   0  0  0  0  0  0  0  0  0  0  0  0
   -0.9487   -2.1497    1.9070 H   0  0  0  0  0  0  0  0  0  0  0  0
   -1.5659   -3.0726    0.5513 H   0  0  0  0  0  0  0  0  0  0  0  0
   -3.5505   -2.1254   -0.3416 H   0  0  0  0  0  0  0  0  0  0  0  0
   -4.0742    2.1726   -0.7289 H   0  0  0  0  0  0  0  0  0  0  0  0
   -1.9518    2.5734    0.3706 H   0  0  0  0  0  0  0  0  0  0  0  0
   -0.5282   -0.1000    2.6786 H   0  0  0  0  0  0  0  0  0  0  0  0
   -0.7484    1.6281    2.4506 H   0  0  0  0  0  0  0  0  0  0  0  0
   -2.1444    0.5880    2.7344 H   0  0  0  0  0  0  0  0  0  0  0  0
  1 27  1  0  0  0  0
  1 28  1  0  0  0  0
  1 29  1  0  0  0  0
  2  1  1  1  0  0  0
  2  3  1  0  0  0  0
  2  7  1  0  0  0  0
  2 10  1  0  0  0  0
  3  4  1  0  0  0  0
  3 30  1  0  0  0  0
  3 31  1  0  0  0  0
  4 32  1  0  0  0  0
  4 33  1  0  0  0  0
  5  4  1  0  0  0  0
  5  6  1  0  0  0  0
  5 25  1  0  0  0  0
  5 34  1  6  0  0  0
  6  7  1  0  0  0  0
  6 17  1  0  0  0  0
  6 35  1  1  0  0  0
  7  8  1  0  0  0  0
  7 36  1  6  0  0  0
  8  9  1  0  0  0  0
  8 37  1  0  0  0  0
  8 38  1  0  0  0  0
  9 10  1  0  0  0  0
  9 39  1  0  0  0  0
  9 40  1  0  0  0  0
 10 41  1  6  0  0  0
 10 11  1  0  0  0  0
 11 12  1  0  0  0  0
 12 13  2  0  0  0  0
 12 16  1  0  0  0  0
 13 14  1  0  0  0  0
 13 42  1  0  0  0  0
 14 15  1  0  0  0  0
 14 43  1  0  0  0  0
 14 44  1  0  0  0  0
 15 16  1  0  0  0  0
 15 45  1  0  0  0  0
 15 46  1  0  0  0  0
 16 47  1  0  0  0  0
 16 48  1  0  0  0  0
 17 18  1  0  0  0  0
 17 49  1  0  0  0  0
 17 50  1  0  0  0  0
 18 19  1  0  0  0  0
 18 51  1  0  0  0  0
 18 52  1  0  0  0  0
 19 20  2  0  0  0  0
 19 25  1  0  0  0  0
 20 21  1  0  0  0  0
 20 53  1  0  0  0  0
 21 22  2  0  0  0  0
 21 23  1  0  0  0  0
 23 24  2  0  0  0  0
 23 54  1  0  0  0  0
 24 25  1  0  0  0  0
 24 55  1  0  0  0  0
 25 26  1  1  0  0  0
 26 56  1  0  0  0  0
 26 57  1  0  0  0  0
 26 58  1  0  0  0  0
M  END
>  <DRUGBANK_ID>
DB13484

>  <COMMON_NAME>
Quinbolone

>  <CAS_NUMBER>
2487-63-0

>  <UNII>
W59598KWLX

>  <SYNONYMS>
Quinbolone

$$$$
