
 OpenBabel10282417243D

 37 39  0  0  0  0  0  0  0  0999 V2000
    1.1798   -0.1305    0.0859 C   0  0  0  0  0  0  0  0  0  0  0  0
    0.4651   -1.1404   -0.6798 N   0  0  0  0  0  0  0  0  0  0  0  0
   -1.0012   -0.9597   -0.7058 C   0  0  0  0  0  0  0  0  0  0  0  0
   -1.4946    0.2864   -1.4443 C   0  0  0  0  0  0  0  0  0  0  0  0
   -2.5161    0.2433   -2.3870 C   0  0  0  0  0  0  0  0  0  0  0  0
   -2.8404    1.3992   -3.1566 C   0  0  0  0  0  0  0  0  0  0  0  0
   -2.1181    2.6211   -3.0980 C   0  0  0  0  0  0  0  0  0  0  0  0
   -1.2925    2.7136   -1.9816 C   0  0  0  0  0  0  0  0  0  0  0  0
   -1.0165    1.5771   -1.1737 C   0  0  0  0  0  0  0  0  0  0  0  0
   -2.4349    3.7568   -4.0277 C   0  0  0  0  0  0  0  0  0  0  0  0
   -1.8801    4.7981   -4.8002 C   0  0  0  0  0  0  0  0  0  0  0  0
   -2.9756    5.6799   -5.1811 C   0  0  0  0  0  0  0  0  0  0  0  0
   -3.1810    6.9680   -5.7435 C   0  0  0  0  0  0  0  0  0  0  0  0
   -4.4984    7.4796   -5.7492 C   0  0  0  0  0  0  0  0  0  0  0  0
   -4.7100    8.7542   -6.1124 F   0  0  0  0  0  0  0  0  0  0  0  0
   -5.5963    6.7082   -5.3810 C   0  0  0  0  0  0  0  0  0  0  0  0
   -5.4158    5.3694   -5.0411 C   0  0  0  0  0  0  0  0  0  0  0  0
   -6.5368    4.4314   -4.8751 C   0  0  0  0  0  0  0  0  0  0  0  0
   -6.2411    3.1113   -4.7015 N   0  0  0  0  0  0  0  0  0  0  0  0
   -7.7058    4.8228   -4.9549 O   0  0  0  0  0  0  0  0  0  0  0  0
   -4.1041    4.9566   -4.8495 C   0  0  0  0  0  0  0  0  0  0  0  0
   -3.7746    3.8017   -4.2406 O   0  0  0  0  0  0  0  0  0  0  0  0
    0.6963    0.0648    1.0500 H   0  0  0  0  0  0  0  0  0  0  0  0
    1.2702    0.7931   -0.4878 H   0  0  0  0  0  0  0  0  0  0  0  0
    2.2166   -0.4168    0.2752 H   0  0  0  0  0  0  0  0  0  0  0  0
    0.8129   -1.1438   -1.6375 H   0  0  0  0  0  0  0  0  0  0  0  0
   -1.3877   -1.8639   -1.2048 H   0  0  0  0  0  0  0  0  0  0  0  0
   -1.4044   -1.0109    0.3135 H   0  0  0  0  0  0  0  0  0  0  0  0
   -3.0819   -0.6765   -2.5415 H   0  0  0  0  0  0  0  0  0  0  0  0
   -3.7183    1.3234   -3.7936 H   0  0  0  0  0  0  0  0  0  0  0  0
   -0.8828    3.6592   -1.6361 H   0  0  0  0  0  0  0  0  0  0  0  0
   -0.3981    1.7482   -0.3008 H   0  0  0  0  0  0  0  0  0  0  0  0
   -0.8455    5.0192   -5.0411 H   0  0  0  0  0  0  0  0  0  0  0  0
   -2.3746    7.6203   -6.0719 H   0  0  0  0  0  0  0  0  0  0  0  0
   -6.5924    7.1425   -5.3590 H   0  0  0  0  0  0  0  0  0  0  0  0
   -6.9859    2.4394   -4.5970 H   0  0  0  0  0  0  0  0  0  0  0  0
   -5.2818    2.7848   -4.6195 H   0  0  0  0  0  0  0  0  0  0  0  0
  1  2  1  0  0  0  0
  1 23  1  0  0  0  0
  1 24  1  0  0  0  0
  1 25  1  0  0  0  0
  2  3  1  0  0  0  0
  2 26  1  0  0  0  0
  3  4  1  0  0  0  0
  3 27  1  0  0  0  0
  3 28  1  0  0  0  0
  4  5  2  0  0  0  0
  4  9  1  0  0  0  0
  5  6  1  0  0  0  0
  5 29  1  0  0  0  0
  6  7  2  0  0  0  0
  6 30  1  0  0  0  0
  7  8  1  0  0  0  0
  7 10  1  0  0  0  0
  8  9  2  0  0  0  0
  8 31  1  0  0  0  0
  9 32  1  0  0  0  0
 10 11  2  0  0  0  0
 10 22  1  0  0  0  0
 11 12  1  0  0  0  0
 11 33  1  0  0  0  0
 12 13  2  0  0  0  0
 12 21  1  0  0  0  0
 13 14  1  0  0  0  0
 13 34  1  0  0  0  0
 14 15  1  0  0  0  0
 14 16  2  0  0  0  0
 16 17  1  0  0  0  0
 16 35  1  0  0  0  0
 17 18  1  0  0  0  0
 17 21  2  0  0  0  0
 18 19  1  0  0  0  0
 18 20  2  0  0  0  0
 19 36  1  0  0  0  0
 19 37  1  0  0  0  0
 21 22  1  0  0  0  0
M  END
>  <DRUGBANK_ID>
DB18248

>  <COMMON_NAME>
Mefuparib

>  <CAS_NUMBER>
1392502-82-7

>  <UNII>
9NN2OZ1YX4

>  <SYNONYMS>
5-fluoro-2-(4-((methylamino)methyl)phenyl)-7-benzofurancarboxamide; Cvl-218 free base

$$$$
