
 OpenBabel10282417223D

 25 25  0  0  0  0  0  0  0  0999 V2000
    1.1125    0.0210    0.0873 C   0  0  0  0  0  0  0  0  0  0  0  0
    0.6023   -0.5642   -1.1438 N   0  0  0  0  0  0  0  0  0  0  0  0
   -0.8755   -0.5707   -1.2344 C   0  0  3  0  0  0  0  0  0  0  0  0
   -1.4527    0.8439   -1.2094 C   0  0  0  0  0  0  0  0  0  0  0  0
   -1.3652   -1.2863   -2.5218 C   0  0  0  0  0  0  0  0  0  0  0  0
   -2.1546   -2.2369   -2.4817 O   0  0  0  0  0  0  0  0  0  0  0  0
   -0.9864   -0.7456   -3.8621 C   0  0  0  0  0  0  0  0  0  0  0  0
    0.3484   -0.4659   -4.1649 C   0  0  0  0  0  0  0  0  0  0  0  0
    0.7094    0.1144   -5.3740 C   0  0  0  0  0  0  0  0  0  0  0  0
   -0.2536    0.3030   -6.3538 C   0  0  0  0  0  0  0  0  0  0  0  0
   -1.5772   -0.0703   -6.1094 C   0  0  0  0  0  0  0  0  0  0  0  0
   -1.9589   -0.5485   -4.8491 C   0  0  0  0  0  0  0  0  0  0  0  0
    0.7505   -0.5029    0.9730 H   0  0  0  0  0  0  0  0  0  0  0  0
    0.8610    1.0836    0.1474 H   0  0  0  0  0  0  0  0  0  0  0  0
    2.2057   -0.0320    0.0683 H   0  0  0  0  0  0  0  0  0  0  0  0
    0.9552    0.0533   -1.8682 H   0  0  0  0  0  0  0  0  0  0  0  0
   -1.2744   -1.1471   -0.3886 H   0  0  0  0  0  0  0  0  0  0  0  0
   -1.0824    1.4372   -2.0529 H   0  0  0  0  0  0  0  0  0  0  0  0
   -2.5444    0.8198   -1.2692 H   0  0  0  0  0  0  0  0  0  0  0  0
   -1.1924    1.3737   -0.2890 H   0  0  0  0  0  0  0  0  0  0  0  0
    1.1527   -0.7396   -3.4972 H   0  0  0  0  0  0  0  0  0  0  0  0
    1.7506    0.3687   -5.5518 H   0  0  0  0  0  0  0  0  0  0  0  0
    0.0388    0.7101   -7.3176 H   0  0  0  0  0  0  0  0  0  0  0  0
   -2.3074    0.0027   -6.9117 H   0  0  0  0  0  0  0  0  0  0  0  0
   -3.0054   -0.7770   -4.6552 H   0  0  0  0  0  0  0  0  0  0  0  0
  1  2  1  0  0  0  0
  1 13  1  0  0  0  0
  1 14  1  0  0  0  0
  1 15  1  0  0  0  0
  2  3  1  0  0  0  0
  2 16  1  0  0  0  0
  3  4  1  0  0  0  0
  3  5  1  0  0  0  0
  3 17  1  0  0  0  0
  4 18  1  0  0  0  0
  4 19  1  0  0  0  0
  4 20  1  0  0  0  0
  5  6  2  0  0  0  0
  5  7  1  0  0  0  0
  7  8  2  0  0  0  0
  7 12  1  0  0  0  0
  8  9  1  0  0  0  0
  8 21  1  0  0  0  0
  9 10  2  0  0  0  0
  9 22  1  0  0  0  0
 10 11  1  0  0  0  0
 10 23  1  0  0  0  0
 11 12  2  0  0  0  0
 11 24  1  0  0  0  0
 12 25  1  0  0  0  0
M  END
>  <DRUGBANK_ID>
DB15339

>  <COMMON_NAME>
Methcathinone

>  <CAS_NUMBER>
5650-44-2

>  <UNII>
386QA522QG

>  <SYNONYMS>
COSMOS

$$$$
