
 OpenBabel10282417213D

 20 19  0  0  0  0  0  0  0  0999 V2000
    2.9243   -3.9040   -0.7745 S   0  0  0  0  0  0  0  0  0  0  0  0
   -0.3822   -4.5949    1.4812 O   0  0  0  0  0  0  0  0  0  0  0  0
    0.8553    0.9145    1.9070 O   0  0  0  0  0  0  0  0  0  0  0  0
    0.6031   -1.2206    1.2964 N   0  0  0  0  0  0  0  0  0  0  0  0
    0.6477   -3.4848    3.1392 N   0  0  0  0  0  0  0  0  0  0  0  0
    0.8749   -2.6148    0.8291 C   0  0  1  0  0  0  0  0  0  0  0  0
    2.3545   -2.9420    0.6444 C   0  0  0  0  0  0  0  0  0  0  0  0
    0.2746   -3.6260    1.8285 C   0  0  0  0  0  0  0  0  0  0  0  0
    1.3942   -0.1502    1.6174 C   0  0  0  0  0  0  0  0  0  0  0  0
    2.8992   -0.2586    1.6273 C   0  0  0  0  0  0  0  0  0  0  0  0
   -0.3805   -0.9594    1.3078 H   0  0  0  0  0  0  0  0  0  0  0  0
    1.2039   -2.7149    3.4817 H   0  0  0  0  0  0  0  0  0  0  0  0
    0.3282   -4.1841    3.7992 H   0  0  0  0  0  0  0  0  0  0  0  0
    2.4186   -5.0783   -0.4138 H   0  0  0  0  0  0  0  0  0  0  0  0
    0.3221   -2.7178   -0.1126 H   0  0  0  0  0  0  0  0  0  0  0  0
    2.8282   -3.2604    1.5819 H   0  0  0  0  0  0  0  0  0  0  0  0
    2.8214   -2.0368    0.3228 H   0  0  0  0  0  0  0  0  0  0  0  0
    3.2072   -1.1189    2.2280 H   0  0  0  0  0  0  0  0  0  0  0  0
    3.2820   -0.2971    0.6017 H   0  0  0  0  0  0  0  0  0  0  0  0
    3.3652    0.6211    2.0700 H   0  0  0  0  0  0  0  0  0  0  0  0
  1  7  1  0  0  0  0
  1 14  1  0  0  0  0
  2  8  2  0  0  0  0
  3  9  2  0  0  0  0
  4  9  1  0  0  0  0
  4 11  1  0  0  0  0
  5  8  1  0  0  0  0
  5 12  1  0  0  0  0
  5 13  1  0  0  0  0
  6  8  1  0  0  0  0
  6 15  1  6  0  0  0
  6  7  1  0  0  0  0
  6  4  1  0  0  0  0
  7 16  1  0  0  0  0
  7 17  1  0  0  0  0
  9 10  1  0  0  0  0
 10 18  1  0  0  0  0
 10 19  1  0  0  0  0
 10 20  1  0  0  0  0
M  END
>  <DRUGBANK_ID>
DB14480

>  <SECONDARY_ACCESSION_NUMBERS>
DBSALT001544

>  <COMMON_NAME>
Acetylcysteine amide

>  <CAS_NUMBER>
38520-57-9

>  <UNII>
4N69717RKW

>  <SYNONYMS>
N-Acetyl cysteine amide; N-Acetyl-cysteine-amide; N-Acetyl-L-cysteinamide; N-Acetyl-L-cysteine amide; N-Acetylcysteinamide; N-Acetylcysteine amide; Nac amide; NACA

$$$$
