
 OpenBabel10282417173D

 73 77  0  0  0  0  0  0  0  0999 V2000
    1.7420   -0.5066    0.1516 C   0  0  0  0  0  0  0  0  0  0  0  0
    0.7512   -1.6997    0.1836 C   0  0  0  0  0  0  0  0  0  0  0  0
   -0.5425   -1.6125    0.7393 C   0  0  0  0  0  0  0  0  0  0  0  0
   -0.5072   -0.4016    1.4317 C   0  0  0  0  0  0  0  0  0  0  0  0
    0.4386    0.7482    1.5339 C   0  0  0  0  0  0  0  0  0  0  0  0
    1.4749    0.8134    0.6514 C   0  0  0  0  0  0  0  0  0  0  0  0
   -1.8842   -2.2664    0.1002 N   0  0  0  0  0  0  0  0  0  0  0  0
   -3.4734   -2.0442   -0.2060 C   0  0  0  0  0  0  0  0  0  0  0  0
   -4.3458   -2.8160   -1.0316 C   0  0  0  0  0  0  0  0  0  0  0  0
   -4.3128   -0.7753    0.0623 C   0  0  0  0  0  0  0  0  0  0  0  0
   -4.4045    0.1187   -1.0146 C   0  0  0  0  0  0  0  0  0  0  0  0
   -5.0908    1.3886   -0.9660 C   0  0  0  0  0  0  0  0  0  0  0  0
   -5.8168    1.7815    0.0984 C   0  0  0  0  0  0  0  0  0  0  0  0
   -6.0517    0.7907    1.0183 C   0  0  0  0  0  0  0  0  0  0  0  0
   -5.2675   -0.4367    1.0583 C   0  0  0  0  0  0  0  0  0  0  0  0
   -5.1155   -2.0502   -2.4480 C   0  0  0  0  0  0  0  0  0  0  0  0
   -6.2846   -1.6036   -1.9786 N   0  0  0  0  0  0  0  0  0  0  0  0
   -6.6936   -2.3210   -0.9466 C   0  0  0  0  0  0  0  0  0  0  0  0
   -5.7594   -3.1059   -0.2825 C   0  0  0  0  0  0  0  0  0  0  0  0
   -4.8351   -1.3903   -3.4301 O   0  0  0  0  0  0  0  0  0  0  0  0
   -7.9867   -2.0093   -0.7042 C   0  0  0  0  0  0  0  0  0  0  0  0
   -8.5304   -2.6357    0.3318 C   0  0  0  0  0  0  0  0  0  0  0  0
   -7.7363   -3.5256    1.0957 C   0  0  0  0  0  0  0  0  0  0  0  0
   -6.3126   -3.7133    0.8365 C   0  0  0  0  0  0  0  0  0  0  0  0
    2.0361    2.1546    0.0969 N   0  0  0  0  0  0  0  0  0  0  0  0
    1.4688    3.5237   -0.2071 C   0  0  0  0  0  0  0  0  0  0  0  0
    3.3899    2.0128   -0.4051 C   0  0  0  0  0  0  0  0  0  0  0  0
    2.2365    4.4373   -0.5762 O   0  0  0  0  0  0  0  0  0  0  0  0
   -0.0787    3.9870   -0.2330 C   0  0  0  0  0  0  0  0  0  0  0  0
   -0.8369    3.2264   -1.2224 N   0  0  0  0  0  0  0  0  0  0  0  0
   -0.5029    1.8570   -0.8161 C   0  0  0  0  0  0  0  0  0  0  0  0
   -1.1651    0.6264   -1.2887 C   0  0  0  0  0  0  0  0  0  0  0  0
   -2.4207    1.0855   -0.8160 N   0  0  0  0  0  0  0  0  0  0  0  0
   -2.6897    2.1350   -1.8623 C   0  0  0  0  0  0  0  0  0  0  0  0
   -2.3023    3.3727   -1.1241 C   0  0  0  0  0  0  0  0  0  0  0  0
   -2.7988    1.2242    0.7768 C   0  0  0  0  0  0  0  0  0  0  0  0
   -9.9227   -2.1471    0.4428 C   0  0  0  0  0  0  0  0  0  0  0  0
  -10.4044   -1.3103   -0.2411 O   0  0  0  0  0  0  0  0  0  0  0  0
  -10.5013   -2.8201    1.4727 O   0  0  0  0  0  0  0  0  0  0  0  0
  -11.8368   -2.3769    1.5875 C   0  0  0  0  0  0  0  0  0  0  0  0
    2.7070   -0.6920   -0.3146 H   0  0  0  0  0  0  0  0  0  0  0  0
    1.0681   -2.6081   -0.3179 H   0  0  0  0  0  0  0  0  0  0  0  0
   -1.4110   -0.0132    1.1594 H   0  0  0  0  0  0  0  0  0  0  0  0
    0.0695    1.7148    1.9013 H   0  0  0  0  0  0  0  0  0  0  0  0
   -1.6291   -3.2280   -0.1467 H   0  0  0  0  0  0  0  0  0  0  0  0
   -3.7278   -0.1366   -1.8584 H   0  0  0  0  0  0  0  0  0  0  0  0
   -4.8904    2.2579   -1.5746 H   0  0  0  0  0  0  0  0  0  0  0  0
   -6.0334    2.8470    0.1788 H   0  0  0  0  0  0  0  0  0  0  0  0
   -6.8266    1.0327    1.7283 H   0  0  0  0  0  0  0  0  0  0  0  0
   -5.4314   -1.0905    1.9043 H   0  0  0  0  0  0  0  0  0  0  0  0
   -5.9354   -0.7462   -1.5885 H   0  0  0  0  0  0  0  0  0  0  0  0
   -8.4538   -1.2830   -1.3681 H   0  0  0  0  0  0  0  0  0  0  0  0
   -8.2248   -4.0668    1.9001 H   0  0  0  0  0  0  0  0  0  0  0  0
   -5.7371   -4.2958    1.5543 H   0  0  0  0  0  0  0  0  0  0  0  0
    3.9472    1.5628    0.4117 H   0  0  0  0  0  0  0  0  0  0  0  0
    3.4148    1.3808   -1.3004 H   0  0  0  0  0  0  0  0  0  0  0  0
    3.8572    2.9684   -0.6569 H   0  0  0  0  0  0  0  0  0  0  0  0
   -0.1710    5.0113   -0.6188 H   0  0  0  0  0  0  0  0  0  0  0  0
   -0.4897    3.9833    0.7807 H   0  0  0  0  0  0  0  0  0  0  0  0
    0.4778    1.6922   -1.1614 H   0  0  0  0  0  0  0  0  0  0  0  0
   -0.7403    1.9555    0.2390 H   0  0  0  0  0  0  0  0  0  0  0  0
   -0.9334    0.5085   -2.3614 H   0  0  0  0  0  0  0  0  0  0  0  0
   -0.9958   -0.3834   -0.9961 H   0  0  0  0  0  0  0  0  0  0  0  0
   -2.0785    1.9374   -2.7728 H   0  0  0  0  0  0  0  0  0  0  0  0
   -3.5674    2.0841   -2.5052 H   0  0  0  0  0  0  0  0  0  0  0  0
   -2.6816    3.3188   -0.0904 H   0  0  0  0  0  0  0  0  0  0  0  0
   -2.7622    4.2742   -1.5196 H   0  0  0  0  0  0  0  0  0  0  0  0
   -2.2595    1.8698    1.4801 H   0  0  0  0  0  0  0  0  0  0  0  0
   -3.7963    1.5382    0.9893 H   0  0  0  0  0  0  0  0  0  0  0  0
   -2.9020    0.2478    1.3389 H   0  0  0  0  0  0  0  0  0  0  0  0
  -11.8696   -1.3082    1.8280 H   0  0  0  0  0  0  0  0  0  0  0  0
  -12.3884   -2.5809    0.6629 H   0  0  0  0  0  0  0  0  0  0  0  0
  -12.2699   -2.9483    2.4029 H   0  0  0  0  0  0  0  0  0  0  0  0
  1  2  2  0  0  0  0
  1 41  1  0  0  0  0
  2  3  1  0  0  0  0
  2 42  1  0  0  0  0
  3  4  2  0  0  0  0
  3  7  1  0  0  0  0
  4  5  1  0  0  0  0
  4 43  1  0  0  0  0
  5  6  2  0  0  0  0
  5 44  1  0  0  0  0
  6  1  1  0  0  0  0
  6 25  1  0  0  0  0
  7  8  1  0  0  0  0
  7 45  1  0  0  0  0
  8  9  2  0  0  0  0
  8 10  1  0  0  0  0
  9 16  1  0  0  0  0
  9 19  1  0  0  0  0
 10 11  2  0  0  0  0
 10 15  1  0  0  0  0
 11 12  1  0  0  0  0
 11 46  1  0  0  0  0
 12 13  2  0  0  0  0
 12 47  1  0  0  0  0
 13 14  1  0  0  0  0
 13 48  1  0  0  0  0
 14 15  2  0  0  0  0
 14 49  1  0  0  0  0
 15 50  1  0  0  0  0
 16 17  1  0  0  0  0
 16 20  2  0  0  0  0
 17 18  1  0  0  0  0
 17 51  1  0  0  0  0
 18 19  1  0  0  0  0
 18 21  2  0  0  0  0
 19 24  2  0  0  0  0
 21 22  1  0  0  0  0
 21 52  1  0  0  0  0
 22 23  2  0  0  0  0
 22 37  1  0  0  0  0
 23 24  1  0  0  0  0
 23 53  1  0  0  0  0
 24 54  1  0  0  0  0
 25 26  1  0  0  0  0
 25 27  1  0  0  0  0
 26 28  2  0  0  0  0
 26 29  1  0  0  0  0
 27 55  1  0  0  0  0
 27 56  1  0  0  0  0
 27 57  1  0  0  0  0
 29 30  1  0  0  0  0
 29 58  1  0  0  0  0
 29 59  1  0  0  0  0
 30 31  1  0  0  0  0
 30 35  1  0  0  0  0
 31 32  1  0  0  0  0
 31 60  1  0  0  0  0
 31 61  1  0  0  0  0
 32 33  1  0  0  0  0
 32 62  1  0  0  0  0
 32 63  1  0  0  0  0
 33 34  1  0  0  0  0
 33 36  1  0  0  0  0
 34 35  1  0  0  0  0
 34 64  1  0  0  0  0
 34 65  1  0  0  0  0
 35 66  1  0  0  0  0
 35 67  1  0  0  0  0
 36 68  1  0  0  0  0
 36 69  1  0  0  0  0
 36 70  1  0  0  0  0
 38 37  2  0  0  0  0
 39 37  1  0  0  0  0
 40 39  1  0  0  0  0
 40 71  1  0  0  0  0
 40 72  1  0  0  0  0
 40 73  1  0  0  0  0
M  END
>  <DRUGBANK_ID>
DB09079

>  <COMMON_NAME>
Nintedanib

>  <CAS_NUMBER>
656247-17-5

>  <UNII>
G6HRD2P839

>  <SYNONYMS>
methyl (3Z)-3-[(4-{methyl[(4-methylpiperazin-1-yl)acetyl]amino}anilino)(phenyl)methylidene]-2-oxo-2,3-dihydro-1H-indole-6-carboxylate; Nintedanib

$$$$
