
 OpenBabel10282417223D

 67 69  0  0  0  0  0  0  0  0999 V2000
    5.1711   -5.7469   12.8426 C   0  0  1  0  0  0  0  0  0  0  0  0
    3.8335   -5.9739   11.9841 C   0  0  2  0  0  0  0  0  0  0  0  0
    4.1018   -4.9943   10.7504 C   0  0  2  0  0  0  0  0  0  0  0  0
    3.8598   -5.4415    9.2915 C   0  0  2  0  0  0  0  0  0  0  0  0
    3.2488   -4.3706    8.4587 C   0  0  0  0  0  0  0  0  0  0  0  0
    4.0956   -4.4442    7.2157 C   0  0  0  0  0  0  0  0  0  0  0  0
    4.3263   -5.7920    6.5536 C   0  0  0  0  0  0  0  0  0  0  0  0
    3.4282   -6.9838    6.8826 C   0  0  1  0  0  0  0  0  0  0  0  0
    3.3800   -6.8386    8.7537 C   0  0  1  0  0  0  0  0  0  0  0  0
    4.2605   -7.7753    9.8773 C   0  0  2  0  0  0  0  0  0  0  0  0
    3.6847   -7.4432   11.3972 C   0  0  0  0  0  0  0  0  0  0  0  0
    5.7020   -7.8718    9.6664 O   0  0  0  0  0  0  0  0  0  0  0  0
    2.3429   -7.0653    8.9899 H   0  0  0  0  0  0  0  0  0  0  0  0
    2.3849   -6.8717    5.3222 C   0  0  0  0  0  0  0  0  0  0  0  0
    2.9156   -6.5614    4.0763 C   0  0  0  0  0  0  0  0  0  0  0  0
    3.4836   -5.2611    4.5484 C   0  0  0  0  0  0  0  0  0  0  0  0
    2.9461   -4.2163    4.5196 O   0  0  0  0  0  0  0  0  0  0  0  0
    4.7490   -5.6543    5.2898 C   0  0  0  0  0  0  0  0  0  0  0  0
    4.2148   -8.3608    6.8925 C   0  0  0  0  0  0  0  0  0  0  0  0
    4.9098   -5.4535    8.9904 H   0  0  0  0  0  0  0  0  0  0  0  0
    3.5309   -4.0719   10.9541 H   0  0  0  0  0  0  0  0  0  0  0  0
    5.7664   -4.6972   10.7952 C   0  0  0  0  0  0  0  0  0  0  0  0
    6.1448   -5.7974   11.7500 C   0  0  1  0  0  0  0  0  0  0  0  0
    7.3110   -6.5948   12.0202 O   0  0  0  0  0  0  0  0  0  0  0  0
    7.0668   -7.0227   13.3890 C   0  0  0  0  0  0  0  0  0  0  0  0
    5.6424   -6.9077   13.5293 O   0  0  0  0  0  0  0  0  0  0  0  0
    7.4839   -8.3361   14.0503 C   0  0  0  0  0  0  0  0  0  0  0  0
    8.0940   -6.1940   14.1410 C   0  0  0  0  0  0  0  0  0  0  0  0
    5.7034   -6.5660   11.1892 H   0  0  0  0  0  0  0  0  0  0  0  0
    2.6998   -5.6038   13.0172 C   0  0  0  0  0  0  0  0  0  0  0  0
    5.2275   -4.1524   13.2160 C   0  0  0  0  0  0  0  0  0  0  0  0
    4.4118   -3.2817   12.8668 O   0  0  0  0  0  0  0  0  0  0  0  0
    6.5387   -3.6562   13.6987 C   0  0  0  0  0  0  0  0  0  0  0  0
    6.8722   -4.5605   14.7085 O   0  0  0  0  0  0  0  0  0  0  0  0
    5.6207   -4.4306   15.8959 P   0  0  0  0  0  0  0  0  0  0  0  0
    4.8557   -5.5636   15.2455 O   0  0  0  0  0  0  0  0  0  0  0  0
    6.7401   -4.7083   16.9149 O   0  5  0  0  0  0  0  0  0  0  0  0
    4.3693   -4.3008   17.0833 O   0  5  0  0  0  0  0  0  0  0  0  0
    0.1149   -0.9796    2.0619 Na  0  3  0  0  0  0  0  0  0  0  0  0
    1.8040    0.8939   -2.0270 Na  0  3  0  0  0  0  0  0  0  0  0  0
    3.3462   -3.3544    8.8636 H   0  0  0  0  0  0  0  0  0  0  0  0
    2.1816   -4.5633    8.2995 H   0  0  0  0  0  0  0  0  0  0  0  0
    5.1087   -4.0891    7.4329 H   0  0  0  0  0  0  0  0  0  0  0  0
    3.6403   -3.7279    6.5470 H   0  0  0  0  0  0  0  0  0  0  0  0
    4.0224   -8.8338    9.7646 H   0  0  0  0  0  0  0  0  0  0  0  0
    4.0915   -8.1443   12.1394 H   0  0  0  0  0  0  0  0  0  0  0  0
    2.6112   -7.6744   11.3454 H   0  0  0  0  0  0  0  0  0  0  0  0
    6.2751   -7.0941    9.7993 H   0  0  0  0  0  0  0  0  0  0  0  0
    1.4908   -6.1693    5.1029 H   0  0  0  0  0  0  0  0  0  0  0  0
    3.7592   -6.8484    3.4311 H   0  0  0  0  0  0  0  0  0  0  0  0
    5.4393   -4.9173    4.9597 H   0  0  0  0  0  0  0  0  0  0  0  0
    3.5372   -9.2127    7.0223 H   0  0  0  0  0  0  0  0  0  0  0  0
    4.9971   -8.5185    6.1464 H   0  0  0  0  0  0  0  0  0  0  0  0
    4.8345   -8.4539    7.7828 H   0  0  0  0  0  0  0  0  0  0  0  0
    6.5466   -5.0656   10.1185 H   0  0  0  0  0  0  0  0  0  0  0  0
    5.9331   -3.7597   10.2389 H   0  0  0  0  0  0  0  0  0  0  0  0
    8.5778   -8.4310   14.0643 H   0  0  0  0  0  0  0  0  0  0  0  0
    7.1815   -8.3017   15.1221 H   0  0  0  0  0  0  0  0  0  0  0  0
    7.0450   -9.2263   13.6249 H   0  0  0  0  0  0  0  0  0  0  0  0
    8.2016   -5.2912   13.5434 H   0  0  0  0  0  0  0  0  0  0  0  0
    7.8016   -6.1739   15.2034 H   0  0  0  0  0  0  0  0  0  0  0  0
    9.1598   -6.3940   14.1889 H   0  0  0  0  0  0  0  0  0  0  0  0
    2.8156   -6.1902   13.9423 H   0  0  0  0  0  0  0  0  0  0  0  0
    2.7410   -4.5652   13.3705 H   0  0  0  0  0  0  0  0  0  0  0  0
    1.6765   -5.7291   12.6655 H   0  0  0  0  0  0  0  0  0  0  0  0
    7.2499   -3.6720   12.8684 H   0  0  0  0  0  0  0  0  0  0  0  0
    6.4451   -2.6296   14.0553 H   0  0  0  0  0  0  0  0  0  0  0  0
  1 26  1  0  0  0  0
  1 31  1  6  0  0  0
  2 30  1  6  0  0  0
  2  1  1  0  0  0  0
  3  2  1  0  0  0  0
  3 21  1  1  0  0  0
  3 22  1  0  0  0  0
  4  3  1  0  0  0  0
  4  9  1  0  0  0  0
  4 20  1  6  0  0  0
  5  4  1  0  0  0  0
  5 41  1  0  0  0  0
  5 42  1  0  0  0  0
  6  5  1  0  0  0  0
  6 43  1  0  0  0  0
  6 44  1  0  0  0  0
  7  6  1  0  0  0  0
  7  8  1  0  0  0  0
  8  9  1  0  0  0  0
  8 19  1  6  0  0  0
  9 10  1  0  0  0  0
  9 13  1  1  0  0  0
 10 11  1  0  0  0  0
 10 12  1  0  0  0  0
 10 45  1  6  0  0  0
 11  2  1  0  0  0  0
 11 46  1  0  0  0  0
 11 47  1  0  0  0  0
 12 48  1  0  0  0  0
 14  8  1  0  0  0  0
 14 49  1  0  0  0  0
 15 14  2  0  0  0  0
 15 50  1  0  0  0  0
 16 15  1  0  0  0  0
 17 16  2  0  0  0  0
 18 16  1  0  0  0  0
 18  7  2  0  0  0  0
 18 51  1  0  0  0  0
 19 52  1  0  0  0  0
 19 53  1  0  0  0  0
 19 54  1  0  0  0  0
 22 23  1  0  0  0  0
 22 55  1  0  0  0  0
 22 56  1  0  0  0  0
 23  1  1  0  0  0  0
 23 24  1  0  0  0  0
 23 29  1  6  0  0  0
 24 25  1  0  0  0  0
 25 26  1  0  0  0  0
 27 25  1  0  0  0  0
 27 57  1  0  0  0  0
 27 58  1  0  0  0  0
 27 59  1  0  0  0  0
 28 25  1  0  0  0  0
 28 60  1  0  0  0  0
 28 61  1  0  0  0  0
 28 62  1  0  0  0  0
 30 63  1  0  0  0  0
 30 64  1  0  0  0  0
 30 65  1  0  0  0  0
 32 31  2  0  0  0  0
 33 31  1  0  0  0  0
 33 66  1  0  0  0  0
 33 67  1  0  0  0  0
 34 33  1  0  0  0  0
 34 35  1  0  0  0  0
 35 36  2  0  0  0  0
 35 37  1  0  0  0  0
 35 38  1  0  0  0  0
M  CHG  4  37  -1  38  -1  39   1  40   1
M  END
>  <DRUGBANK_ID>
DB15835

>  <COMMON_NAME>
Desonide sodium phosphate

>  <CAS_NUMBER>
94087-98-6

>  <UNII>
36H4OGY275

$$$$
