H22
 OpenBabel10282417163D

 52 55  0  0  0  0  0  0  0  0999 V2000
    3.0595    0.0821   -0.0453 F   0  0  0  0  0  0  0  0  0  0  0  0
    1.7329    0.1139   -0.0882 C   0  0  0  0  0  0  0  0  0  0  0  0
    1.0793    1.5159    0.0446 C   0  0  0  0  0  0  0  0  0  0  0  0
   -0.2576    1.7435    0.2326 C   0  0  0  0  0  0  0  0  0  0  0  0
   -1.1012    2.9584    0.3976 N   0  0  0  0  0  0  0  0  0  0  0  0
   -1.1647    3.8497   -0.6762 C   0  0  0  0  0  0  0  0  0  0  0  0
   -1.8774    4.9862   -0.6670 C   0  0  0  0  0  0  0  0  0  0  0  0
   -2.7557    5.3116    0.4240 C   0  0  0  0  0  0  0  0  0  0  0  0
   -2.9688    4.3878    1.3722 C   0  0  0  0  0  0  0  0  0  0  0  0
   -2.1577    3.0913    1.3938 C   0  0  0  0  0  0  0  0  0  0  0  0
   -2.5346    2.2211    2.1915 O   0  0  0  0  0  0  0  0  0  0  0  0
   -0.8121    0.5610   -0.0569 C   0  0  0  0  0  0  0  0  0  0  0  0
   -0.2063   -0.7392   -0.3029 C   0  0  0  0  0  0  0  0  0  0  0  0
    1.0311   -1.0941   -0.1795 C   0  0  0  0  0  0  0  0  0  0  0  0
    1.2639   -2.5386   -0.1141 N   0  0  0  0  0  0  0  0  0  0  0  0
    0.4166   -3.7015   -0.0042 C   0  0  0  0  0  0  0  0  0  0  0  0
    1.0176   -4.7972    0.0108 O   0  0  0  0  0  0  0  0  0  0  0  0
   -1.2002   -3.8173    0.0873 C   0  0  0  0  0  0  0  0  0  0  0  0
   -1.9191   -3.3267    1.3050 N   0  0  0  0  0  0  0  0  0  0  0  0
   -3.1600   -2.5644    0.9648 C   0  0  0  0  0  0  0  0  0  0  0  0
   -2.7154   -1.1857    0.6005 C   0  0  1  0  0  0  0  0  0  0  0  0
   -1.5110   -1.0935    1.8880 C   0  0  0  0  0  0  0  0  0  0  0  0
   -1.0951   -2.5205    2.1950 C   0  0  0  0  0  0  0  0  0  0  0  0
   -2.5479   -1.1612   -1.1599 N   0  0  0  0  0  0  0  0  0  0  0  0
   -2.3840   -0.1496   -2.1542 C   0  0  0  0  0  0  0  0  0  0  0  0
   -1.4747   -0.3029   -3.0142 O   0  0  0  0  0  0  0  0  0  0  0  0
   -3.1799    1.0415   -2.0593 C   0  0  0  0  0  0  0  0  0  0  0  0
   -3.6140    1.6222   -0.8928 C   0  0  0  0  0  0  0  0  0  0  0  0
   -4.2311    2.8438   -1.0549 C   0  0  0  0  0  0  0  0  0  0  0  0
   -3.7180    1.9883   -3.3992 S   0  0  0  0  0  0  0  0  0  0  0  0
   -4.4374    3.1193   -2.3587 C   0  0  0  0  0  0  0  0  0  0  0  0
   -5.3183    4.5052   -2.8186 Cl  0  0  0  0  0  0  0  0  0  0  0  0
   -3.4299   -0.4074    0.8432 H   0  0  0  0  0  0  0  0  0  0  0  0
    1.7027    2.3940    0.0380 H   0  0  0  0  0  0  0  0  0  0  0  0
   -0.7348    3.4954   -1.6070 H   0  0  0  0  0  0  0  0  0  0  0  0
   -1.9741    5.5802   -1.5721 H   0  0  0  0  0  0  0  0  0  0  0  0
   -3.4279    6.1627    0.3009 H   0  0  0  0  0  0  0  0  0  0  0  0
   -3.8699    4.4564    1.9873 H   0  0  0  0  0  0  0  0  0  0  0  0
   -1.8475    0.5841    0.0002 H   0  0  0  0  0  0  0  0  0  0  0  0
   -0.7957   -1.6253   -0.3090 H   0  0  0  0  0  0  0  0  0  0  0  0
    2.2343   -2.8144   -0.0631 H   0  0  0  0  0  0  0  0  0  0  0  0
   -1.6558   -3.5037   -0.8501 H   0  0  0  0  0  0  0  0  0  0  0  0
   -1.4685   -4.8898    0.0808 H   0  0  0  0  0  0  0  0  0  0  0  0
   -3.8133   -2.4308    1.8375 H   0  0  0  0  0  0  0  0  0  0  0  0
   -3.7422   -2.9748    0.1410 H   0  0  0  0  0  0  0  0  0  0  0  0
   -0.5651   -0.5273    1.8587 H   0  0  0  0  0  0  0  0  0  0  0  0
   -1.9552   -0.6120    2.7695 H   0  0  0  0  0  0  0  0  0  0  0  0
   -0.0190   -2.6865    2.0595 H   0  0  0  0  0  0  0  0  0  0  0  0
   -1.2283   -2.7428    3.2606 H   0  0  0  0  0  0  0  0  0  0  0  0
   -1.9408   -1.8780   -1.5550 H   0  0  0  0  0  0  0  0  0  0  0  0
   -3.3997    1.3177    0.1044 H   0  0  0  0  0  0  0  0  0  0  0  0
   -4.4861    3.4744   -0.2292 H   0  0  0  0  0  0  0  0  0  0  0  0
  1  2  1  0  0  0  0
  2  3  1  0  0  0  0
  2 14  2  0  0  0  0
  3  4  2  0  0  0  0
  3 34  1  0  0  0  0
  4  5  1  0  0  0  0
  4 12  1  0  0  0  0
  5  6  1  0  0  0  0
  5 10  1  0  0  0  0
  6  7  2  0  0  0  0
  6 35  1  0  0  0  0
  7  8  1  0  0  0  0
  7 36  1  0  0  0  0
  8  9  2  0  0  0  0
  8 37  1  0  0  0  0
  9 10  1  0  0  0  0
  9 38  1  0  0  0  0
 10 11  2  0  0  0  0
 12 13  2  0  0  0  0
 12 39  1  0  0  0  0
 13 14  1  0  0  0  0
 13 40  1  0  0  0  0
 14 15  1  0  0  0  0
 15 16  1  0  0  0  0
 15 41  1  0  0  0  0
 16 17  2  0  0  0  0
 16 18  1  0  0  0  0
 18 19  1  0  0  0  0
 18 42  1  0  0  0  0
 18 43  1  0  0  0  0
 19 20  1  0  0  0  0
 19 23  1  0  0  0  0
 20 21  1  0  0  0  0
 20 44  1  0  0  0  0
 20 45  1  0  0  0  0
 21 24  1  0  0  0  0
 21 33  1  1  0  0  0
 22 21  1  0  0  0  0
 22 23  1  0  0  0  0
 22 46  1  0  0  0  0
 22 47  1  0  0  0  0
 23 48  1  0  0  0  0
 23 49  1  0  0  0  0
 24 25  1  0  0  0  0
 24 50  1  0  0  0  0
 25 26  2  0  0  0  0
 25 27  1  0  0  0  0
 27 28  2  0  0  0  0
 27 30  1  0  0  0  0
 28 29  1  0  0  0  0
 28 51  1  0  0  0  0
 29 31  2  0  0  0  0
 29 52  1  0  0  0  0
 30 31  1  0  0  0  0
 31 32  1  0  0  0  0
M  END
>  <DRUGBANK_ID>
DB07872

>  <COMMON_NAME>
5-chloro-N-[(3R)-1-(2-{[2-fluoro-4-(2-oxopyridin-1(2H)-yl)phenyl]amino}-2-oxoethyl)pyrrolidin-3-yl]thiophene-2-carboxamide

$$$$
