
 OpenBabel10282417133D

 26 25  0  0  1  0  0  0  0  0999 V2000
    1.0303   -0.0410   -0.0860 C   0  0  0  0  0  0  0  0  0  0  0  0
    0.5237    1.3875    0.0276 C   0  0  0  0  0  0  0  0  0  0  0  0
    2.9370    2.3553   -1.3780 C   0  0  0  0  0  0  0  0  0  0  0  0
    3.4437    2.9711   -0.0840 C   0  0  1  0  0  0  0  0  0  0  0  0
    2.9370    2.1585    1.0964 C   0  0  0  0  0  0  0  0  0  0  0  0
    0.4970   -0.6893   -1.4481 B   0  5  0  0  0  0  0  0  0  0  0  0
    4.9137    2.9711   -0.0840 N   0  0  0  0  0  0  0  0  0  0  0  0
    3.7629    1.6107    1.8920 O   0  0  0  0  0  0  0  0  0  0  0  0
    1.5409    2.0113    1.3101 O   0  0  0  0  0  0  0  0  0  0  0  0
    0.9970   -2.0991   -1.5602 O   0  0  0  0  0  0  0  0  0  0  0  0
   -1.0030   -0.6893   -1.4481 O   0  0  0  0  0  0  0  0  0  0  0  0
    0.9970    0.1127   -2.6129 O   0  0  0  0  0  0  0  0  0  0  0  0
    1.1270    2.3553   -1.3780 S   0  0  0  0  0  0  0  0  0  0  0  0
    3.0870    3.9768   -0.0040 H   0  0  0  0  0  0  0  0  0  0  0  0
    0.6737   -0.6131    0.7449 H   0  0  0  0  0  0  0  0  0  0  0  0
    2.1003   -0.0410   -0.0860 H   0  0  0  0  0  0  0  0  0  0  0  0
   -0.5463    1.3875    0.0276 H   0  0  0  0  0  0  0  0  0  0  0  0
    0.8803    1.8211    0.9385 H   0  0  0  0  0  0  0  0  0  0  0  0
    3.2937    1.3496   -1.4579 H   0  0  0  0  0  0  0  0  0  0  0  0
    3.2937    2.9273   -2.2089 H   0  0  0  0  0  0  0  0  0  0  0  0
    5.2537    3.3844    0.7843 H   0  0  0  0  0  0  0  0  0  0  0  0
    5.2537    2.0125   -0.1602 H   0  0  0  0  0  0  0  0  0  0  0  0
    1.2076    1.4767    2.0867 H   0  0  0  0  0  0  0  0  0  0  0  0
    1.9970   -2.0991   -1.5602 H   0  0  0  0  0  0  0  0  0  0  0  0
   -1.3363   -1.2240   -0.6715 H   0  0  0  0  0  0  0  0  0  0  0  0
    0.6637   -0.2925   -3.4642 H   0  0  0  0  0  0  0  0  0  0  0  0
  1 15  1  0  0  0  0
  1 16  1  0  0  0  0
  2  1  1  0  0  0  0
  2 17  1  0  0  0  0
  2 18  1  0  0  0  0
  3 19  1  0  0  0  0
  3 20  1  0  0  0  0
  4  3  1  0  0  0  0
  4  7  1  0  0  0  0
  4 14  1  1  0  0  0
  5  4  1  0  0  0  0
  6  1  1  0  0  0  0
  7 21  1  0  0  0  0
  7 22  1  0  0  0  0
  8  5  2  0  0  0  0
  9  5  1  0  0  0  0
  9 23  1  0  0  0  0
 10  6  1  0  0  0  0
 10 24  1  0  0  0  0
 11  6  1  0  0  0  0
 11 25  1  0  0  0  0
 12  6  1  0  0  0  0
 12 26  1  0  0  0  0
 13  2  1  0  0  0  0
 13  3  1  0  0  0  0
M  CHG  1   6  -1
M  END
>  <DRUGBANK_ID>
DB03731

>  <SECONDARY_ACCESSION_NUMBERS>
EXPT02831

>  <COMMON_NAME>
S-2-(Boronoethyl)-L-Cysteine

$$$$
