4823
 OpenBabel10282417143D

 39 42  0  0  0  0  0  0  0  0999 V2000
    3.1924    0.1212    0.0111 O   0  0  0  0  0  0  0  0  0  0  0  0
    2.0885   -5.0360   -4.2404 O   0  0  0  0  0  0  0  0  0  0  0  0
    2.5574   -4.3726    4.5821 O   0  0  0  0  0  0  0  0  0  0  0  0
    1.0878    1.0748   -0.0292 N   0  0  0  0  0  0  0  0  0  0  0  0
    1.1216   -1.3356   -0.0433 C   0  0  0  0  0  0  0  0  0  0  0  0
   -0.2919   -0.7410    0.0105 C   0  0  0  0  0  0  0  0  0  0  0  0
    1.9711   -0.0004   -0.0215 C   0  0  0  0  0  0  0  0  0  0  0  0
    1.4194   -2.1136   -1.3529 C   0  0  0  0  0  0  0  0  0  0  0  0
    1.4263   -2.1768    1.2241 C   0  0  0  0  0  0  0  0  0  0  0  0
   -0.2295    0.6506   -0.0161 C   0  0  0  0  0  0  0  0  0  0  0  0
   -1.5225   -1.3849    0.0803 C   0  0  0  0  0  0  0  0  0  0  0  0
   -1.3607    1.4399   -0.0101 C   0  0  0  0  0  0  0  0  0  0  0  0
    2.7363   -2.5579   -1.6188 C   0  0  0  0  0  0  0  0  0  0  0  0
    1.1913   -1.6582    2.5091 C   0  0  0  0  0  0  0  0  0  0  0  0
    0.3925   -2.5855   -2.1855 C   0  0  0  0  0  0  0  0  0  0  0  0
    1.9905   -3.4670    1.1438 C   0  0  0  0  0  0  0  0  0  0  0  0
   -2.6814   -0.6091    0.0499 C   0  0  0  0  0  0  0  0  0  0  0  0
   -2.6003    0.7928    0.0072 C   0  0  0  0  0  0  0  0  0  0  0  0
    2.9801   -3.5546   -2.5665 C   0  0  0  0  0  0  0  0  0  0  0  0
    1.5521   -2.3849    3.6494 C   0  0  0  0  0  0  0  0  0  0  0  0
    0.6420   -3.5459   -3.1589 C   0  0  0  0  0  0  0  0  0  0  0  0
    2.3976   -4.1674    2.2675 C   0  0  0  0  0  0  0  0  0  0  0  0
    1.9233   -4.0440   -3.3229 C   0  0  0  0  0  0  0  0  0  0  0  0
    2.1669   -3.6265    3.5137 C   0  0  0  0  0  0  0  0  0  0  0  0
    3.0247   -5.2891   -4.2561 H   0  0  0  0  0  0  0  0  0  0  0  0
    2.2994   -3.9073    5.3915 H   0  0  0  0  0  0  0  0  0  0  0  0
    1.4040    2.0329   -0.0212 H   0  0  0  0  0  0  0  0  0  0  0  0
   -1.5855   -2.4697    0.1096 H   0  0  0  0  0  0  0  0  0  0  0  0
   -1.3023    2.5219   -0.0273 H   0  0  0  0  0  0  0  0  0  0  0  0
    3.5594   -2.2446   -0.9721 H   0  0  0  0  0  0  0  0  0  0  0  0
    0.7273   -0.6811    2.6351 H   0  0  0  0  0  0  0  0  0  0  0  0
   -0.6363   -2.2653   -2.0728 H   0  0  0  0  0  0  0  0  0  0  0  0
    2.1574   -3.9758    0.2019 H   0  0  0  0  0  0  0  0  0  0  0  0
   -3.6540   -1.0967    0.0506 H   0  0  0  0  0  0  0  0  0  0  0  0
   -3.5169    1.3778   -0.0114 H   0  0  0  0  0  0  0  0  0  0  0  0
    3.9809   -3.9666   -2.6490 H   0  0  0  0  0  0  0  0  0  0  0  0
    1.3592   -1.9563    4.6264 H   0  0  0  0  0  0  0  0  0  0  0  0
   -0.1790   -3.9295   -3.7560 H   0  0  0  0  0  0  0  0  0  0  0  0
    2.8908   -5.1272    2.1515 H   0  0  0  0  0  0  0  0  0  0  0  0
  1  7  2  0  0  0  0
  2 23  1  0  0  0  0
  2 25  1  0  0  0  0
  3 24  1  0  0  0  0
  3 26  1  0  0  0  0
  4  7  1  0  0  0  0
  4 10  1  0  0  0  0
  4 27  1  0  0  0  0
  5  6  1  0  0  0  0
  5  7  1  0  0  0  0
  5  8  1  0  0  0  0
  5  9  1  0  0  0  0
  6 10  1  0  0  0  0
  6 11  2  0  0  0  0
  8 13  2  0  0  0  0
  8 15  1  0  0  0  0
  9 14  2  0  0  0  0
  9 16  1  0  0  0  0
 10 12  2  0  0  0  0
 11 17  1  0  0  0  0
 11 28  1  0  0  0  0
 12 18  1  0  0  0  0
 12 29  1  0  0  0  0
 13 19  1  0  0  0  0
 13 30  1  0  0  0  0
 14 20  1  0  0  0  0
 14 31  1  0  0  0  0
 15 21  2  0  0  0  0
 15 32  1  0  0  0  0
 16 22  2  0  0  0  0
 16 33  1  0  0  0  0
 17 18  2  0  0  0  0
 17 34  1  0  0  0  0
 18 35  1  0  0  0  0
 19 23  2  0  0  0  0
 19 36  1  0  0  0  0
 20 24  2  0  0  0  0
 20 37  1  0  0  0  0
 21 23  1  0  0  0  0
 21 38  1  0  0  0  0
 22 24  1  0  0  0  0
 22 39  1  0  0  0  0
M  END
>  <DRUGBANK_ID>
DB04823

>  <COMMON_NAME>
Oxyphenisatin

>  <CAS_NUMBER>
125-13-3

>  <UNII>
3BT0VQG2GQ

>  <SYNONYMS>
1,3-Dihydro-3,3-bis(4-hydroxyphenyl)-2H-indol-2-one; 3,3-Bis(4-hydroxyphenyl)oxindole; 3,3-Bis(p-hydroxyphenyl)-2-indolinone; 3,3-Bis(p-hydroxyphenyl)oxindole; 4,4'-Dihydroxydiphenylisatin; Dihydroxyphenoloxindol; Oxifenisatina; Oxyphenisatine; Oxyphenisatinum

$$$$
