SYR
 OpenBabel10282417173D

 27 27  0  0  0  0  0  0  0  0999 V2000
    1.0734    0.0637   -0.0996 O   0  0  0  0  0  0  0  0  0  0  0  0
    2.3018    0.0498   -0.0497 C   0  0  0  0  0  0  0  0  0  0  0  0
    2.9787    0.8389    0.8237 O   0  0  0  0  0  0  0  0  0  0  0  0
    4.4057    1.0190    0.8259 C   0  0  0  0  0  0  0  0  0  0  0  0
    3.0537   -0.8096   -0.9997 C   0  0  0  0  0  0  0  0  0  0  0  0
    2.6109   -0.8928   -2.3236 C   0  0  0  0  0  0  0  0  0  0  0  0
    3.3305   -1.6455   -3.2561 C   0  0  0  0  0  0  0  0  0  0  0  0
    2.9998   -1.7756   -4.5832 O   0  0  0  0  0  0  0  0  0  0  0  0
    1.8308   -1.0751   -5.0088 C   0  0  0  0  0  0  0  0  0  0  0  0
    4.1543   -1.5657   -0.5921 C   0  0  0  0  0  0  0  0  0  0  0  0
    4.9202   -2.2804   -1.5099 C   0  0  0  0  0  0  0  0  0  0  0  0
    6.0715   -2.9489   -1.1817 O   0  0  0  0  0  0  0  0  0  0  0  0
    6.5202   -2.8410    0.1672 C   0  0  0  0  0  0  0  0  0  0  0  0
    4.4938   -2.3208   -2.8424 C   0  0  0  0  0  0  0  0  0  0  0  0
    5.2215   -3.0492   -3.7516 O   0  0  0  0  0  0  0  0  0  0  0  0
    4.8888    0.1359    1.2440 H   0  0  0  0  0  0  0  0  0  0  0  0
    4.7802    1.2589   -0.1729 H   0  0  0  0  0  0  0  0  0  0  0  0
    4.6526    1.8362    1.5075 H   0  0  0  0  0  0  0  0  0  0  0  0
    1.6997   -0.3649   -2.5906 H   0  0  0  0  0  0  0  0  0  0  0  0
    0.9390   -1.4497   -4.4942 H   0  0  0  0  0  0  0  0  0  0  0  0
    1.9426    0.0058   -4.8647 H   0  0  0  0  0  0  0  0  0  0  0  0
    1.6973   -1.2540   -6.0792 H   0  0  0  0  0  0  0  0  0  0  0  0
    4.4012   -1.5983    0.4585 H   0  0  0  0  0  0  0  0  0  0  0  0
    6.7426   -1.8001    0.4324 H   0  0  0  0  0  0  0  0  0  0  0  0
    5.7873   -3.2707    0.8591 H   0  0  0  0  0  0  0  0  0  0  0  0
    7.4451   -3.4144    0.2709 H   0  0  0  0  0  0  0  0  0  0  0  0
    4.7439   -2.9914   -4.5992 H   0  0  0  0  0  0  0  0  0  0  0  0
  1  2  2  0  0  0  0
  2  3  1  0  0  0  0
  2  5  1  0  0  0  0
  3  4  1  0  0  0  0
  4 16  1  0  0  0  0
  4 17  1  0  0  0  0
  4 18  1  0  0  0  0
  5  6  2  0  0  0  0
  5 10  1  0  0  0  0
  6  7  1  0  0  0  0
  6 19  1  0  0  0  0
  7  8  1  0  0  0  0
  7 14  2  0  0  0  0
  8  9  1  0  0  0  0
  9 20  1  0  0  0  0
  9 21  1  0  0  0  0
  9 22  1  0  0  0  0
 10 11  2  0  0  0  0
 10 23  1  0  0  0  0
 11 12  1  0  0  0  0
 11 14  1  0  0  0  0
 12 13  1  0  0  0  0
 13 24  1  0  0  0  0
 13 25  1  0  0  0  0
 13 26  1  0  0  0  0
 14 15  1  0  0  0  0
 15 27  1  0  0  0  0
M  END
>  <DRUGBANK_ID>
DB08589

>  <COMMON_NAME>
SYRINGATE

>  <UNII>
W5A196MP8A

$$$$
