
 OpenBabel10282417183D

 58 59  0  0  0  0  0  0  0  0999 V2000
   -7.4757    6.3712   -0.6846 C   0  0  0  0  0  0  0  0  0  0  0  0
   -8.5819    5.3471   -0.6005 C   0  0  0  0  0  0  0  0  0  0  0  0
   -8.4897    4.3153   -1.7183 C   0  0  0  0  0  0  0  0  0  0  0  0
   -7.1594    3.5762   -1.7142 C   0  0  0  0  0  0  0  0  0  0  0  0
   -6.9573    2.7755   -0.4496 C   0  0  0  0  0  0  0  0  0  0  0  0
   -6.8680    1.4409   -0.3787 C   0  0  0  0  0  0  0  0  0  0  0  0
   -6.9886    0.5789   -1.5776 C   0  0  0  0  0  0  0  0  0  0  0  0
   -5.7670   -0.2505   -1.8680 C   0  0  1  0  0  0  0  0  0  0  0  0
   -5.6777   -1.5604   -1.0374 C   0  0  1  0  0  0  0  0  0  0  0  0
   -6.2322   -2.6659   -1.9685 C   0  0  2  0  0  0  0  0  0  0  0  0
   -6.5557   -2.0579   -3.3351 C   0  0  0  0  0  0  0  0  0  0  0  0
   -5.9621   -0.6859   -3.3434 C   0  0  1  0  0  0  0  0  0  0  0  0
   -6.5408    0.0314   -4.4185 O   0  0  0  0  0  0  0  0  0  0  0  0
   -7.4405   -3.2040   -1.4716 O   0  0  0  0  0  0  0  0  0  0  0  0
   -4.1153   -2.1677   -0.0815 S   0  0  0  0  0  0  0  0  0  0  0  0
   -2.6953   -2.1682   -1.2679 C   0  0  0  0  0  0  0  0  0  0  0  0
   -2.5755   -2.9962   -2.5712 C   0  0  1  0  0  0  0  0  0  0  0  0
   -3.4906   -2.3497   -3.5823 C   0  0  0  0  0  0  0  0  0  0  0  0
   -3.0217   -1.0805   -4.2702 O   0  0  0  0  0  0  0  0  0  0  0  0
   -2.9568    0.1678   -3.6113 C   0  0  0  0  0  0  0  0  0  0  0  0
   -1.9975    0.3568   -2.6319 C   0  0  0  0  0  0  0  0  0  0  0  0
   -2.0999    1.4030   -1.6987 C   0  0  0  0  0  0  0  0  0  0  0  0
   -3.0189    2.4323   -1.8513 C   0  0  0  0  0  0  0  0  0  0  0  0
   -3.8725    2.3842   -2.9439 C   0  0  0  0  0  0  0  0  0  0  0  0
   -3.8258    1.2752   -3.8322 C   0  0  0  0  0  0  0  0  0  0  0  0
   -1.1549    1.3105   -0.2625 Cl  0  0  0  0  0  0  0  0  0  0  0  0
   -1.3052   -2.9302   -3.2127 O   0  0  0  0  0  0  0  0  0  0  0  0
   -6.2620    6.0970   -0.5999 O   0  0  0  0  0  0  0  0  0  0  0  0
   -7.8748    7.6355   -0.8610 O   0  0  0  0  0  0  0  0  0  0  0  0
   -8.5278    4.8646    0.3816 H   0  0  0  0  0  0  0  0  0  0  0  0
   -9.5623    5.8307   -0.6439 H   0  0  0  0  0  0  0  0  0  0  0  0
   -9.3065    3.5845   -1.6281 H   0  0  0  0  0  0  0  0  0  0  0  0
   -8.6171    4.8011   -2.6937 H   0  0  0  0  0  0  0  0  0  0  0  0
   -7.1356    2.9960   -2.6356 H   0  0  0  0  0  0  0  0  0  0  0  0
   -6.3101    4.2470   -1.8444 H   0  0  0  0  0  0  0  0  0  0  0  0
   -6.8672    3.3320    0.4822 H   0  0  0  0  0  0  0  0  0  0  0  0
   -6.6965    0.9587    0.5799 H   0  0  0  0  0  0  0  0  0  0  0  0
   -7.8801   -0.0447   -1.5463 H   0  0  0  0  0  0  0  0  0  0  0  0
   -7.1143    1.2148   -2.4410 H   0  0  0  0  0  0  0  0  0  0  0  0
   -4.8816    0.3517   -1.6507 H   0  0  0  0  0  0  0  0  0  0  0  0
   -6.3448   -1.4279   -0.1789 H   0  0  0  0  0  0  0  0  0  0  0  0
   -5.5189   -3.4945   -2.0510 H   0  0  0  0  0  0  0  0  0  0  0  0
   -6.1016   -2.6150   -4.1670 H   0  0  0  0  0  0  0  0  0  0  0  0
   -7.6165   -1.9850   -3.5657 H   0  0  0  0  0  0  0  0  0  0  0  0
   -4.9942   -0.7681   -3.7266 H   0  0  0  0  0  0  0  0  0  0  0  0
   -6.8022    0.9321   -4.2038 H   0  0  0  0  0  0  0  0  0  0  0  0
   -7.2954   -3.3952   -0.5317 H   0  0  0  0  0  0  0  0  0  0  0  0
   -2.9448   -1.1874   -1.5816 H   0  0  0  0  0  0  0  0  0  0  0  0
   -1.7143   -2.0788   -0.7855 H   0  0  0  0  0  0  0  0  0  0  0  0
   -2.8102   -4.0475   -2.3378 H   0  0  0  0  0  0  0  0  0  0  0  0
   -3.8824   -3.0843   -4.3061 H   0  0  0  0  0  0  0  0  0  0  0  0
   -4.2972   -2.1389   -2.9392 H   0  0  0  0  0  0  0  0  0  0  0  0
   -1.2585   -0.4170   -2.4692 H   0  0  0  0  0  0  0  0  0  0  0  0
   -3.0727    3.2515   -1.1357 H   0  0  0  0  0  0  0  0  0  0  0  0
   -4.6260    3.1658   -3.0536 H   0  0  0  0  0  0  0  0  0  0  0  0
   -4.5926    1.2879   -4.6043 H   0  0  0  0  0  0  0  0  0  0  0  0
   -1.4160   -2.2825   -3.9470 H   0  0  0  0  0  0  0  0  0  0  0  0
   -8.8421    7.7615   -0.8691 H   0  0  0  0  0  0  0  0  0  0  0  0
  1  2  1  0  0  0  0
  1 28  2  0  0  0  0
  1 29  1  0  0  0  0
  2  3  1  0  0  0  0
  2 30  1  0  0  0  0
  2 31  1  0  0  0  0
  3  4  1  0  0  0  0
  3 32  1  0  0  0  0
  3 33  1  0  0  0  0
  4  5  1  0  0  0  0
  4 34  1  0  0  0  0
  4 35  1  0  0  0  0
  5  6  2  0  0  0  0
  5 36  1  0  0  0  0
  6  7  1  0  0  0  0
  6 37  1  0  0  0  0
  7 38  1  0  0  0  0
  7 39  1  0  0  0  0
  8  9  1  0  0  0  0
  8 12  1  0  0  0  0
  8 40  1  1  0  0  0
  8  7  1  0  0  0  0
  9 10  1  0  0  0  0
  9 15  1  0  0  0  0
  9 41  1  1  0  0  0
 10 11  1  0  0  0  0
 10 42  1  6  0  0  0
 10 14  1  0  0  0  0
 11 43  1  0  0  0  0
 11 44  1  0  0  0  0
 12 11  1  0  0  0  0
 12 13  1  0  0  0  0
 12 45  1  6  0  0  0
 13 46  1  0  0  0  0
 14 47  1  0  0  0  0
 15 16  1  0  0  0  0
 16 48  1  0  0  0  0
 16 49  1  0  0  0  0
 17 16  1  0  0  0  0
 17 18  1  0  0  0  0
 17 27  1  0  0  0  0
 17 50  1  1  0  0  0
 18 19  1  0  0  0  0
 18 51  1  0  0  0  0
 18 52  1  0  0  0  0
 19 20  1  0  0  0  0
 20 21  2  0  0  0  0
 20 25  1  0  0  0  0
 21 22  1  0  0  0  0
 21 53  1  0  0  0  0
 22 23  2  0  0  0  0
 22 26  1  0  0  0  0
 23 24  1  0  0  0  0
 23 54  1  0  0  0  0
 24 25  2  0  0  0  0
 24 55  1  0  0  0  0
 25 56  1  0  0  0  0
 27 57  1  0  0  0  0
 29 58  1  0  0  0  0
M  END
>  <DRUGBANK_ID>
DB11425

>  <COMMON_NAME>
Luprostiol

>  <CAS_NUMBER>
67110-79-6

>  <UNII>
HWR60H5GZB

>  <SYNONYMS>
Luprostiol; Luprostiolum

$$$$
