9HP
 OpenBabel10282417133D

 33 36  0  0  0  0  0  0  0  0999 V2000
    0.7225   -0.3712   -0.0018 C   0  0  0  0  0  0  0  0  0  0  0  0
    1.4048    0.8592   -0.0003 C   0  0  0  0  0  0  0  0  0  0  0  0
    2.8060    0.8800    0.0007 C   0  0  0  0  0  0  0  0  0  0  0  0
    3.4927   -0.3222    0.0002 C   0  0  0  0  0  0  0  0  0  0  0  0
    2.8914   -1.5228   -0.0005 N   0  0  0  0  0  0  0  0  0  0  0  0
    1.5382   -1.5180   -0.0015 C   0  0  0  0  0  0  0  0  0  0  0  0
   -0.7095   -0.3927   -0.0041 C   0  0  0  0  0  0  0  0  0  0  0  0
   -1.4339    0.8210   -0.0069 C   0  0  0  0  0  0  0  0  0  0  0  0
   -0.7282    2.0143   -0.0024 C   0  0  0  0  0  0  0  0  0  0  0  0
    0.6694    2.0492    0.0002 C   0  0  0  0  0  0  0  0  0  0  0  0
   -1.4695   -1.5817   -0.0021 C   0  0  0  0  0  0  0  0  0  0  0  0
   -2.8627   -1.5704   -0.0025 C   0  0  0  0  0  0  0  0  0  0  0  0
   -3.4567   -0.3156   -0.0102 C   0  0  0  0  0  0  0  0  0  0  0  0
   -2.7785    0.8595   -0.0134 N   0  0  0  0  0  0  0  0  0  0  0  0
   -5.2994   -4.3227   -0.9113 C   0  0  0  0  0  0  0  0  0  0  0  0
   -4.5210   -3.1623   -0.9906 C   0  0  0  0  0  0  0  0  0  0  0  0
   -3.6365   -2.8147    0.0429 C   0  0  0  0  0  0  0  0  0  0  0  0
   -3.5205   -3.6882    1.1380 C   0  0  0  0  0  0  0  0  0  0  0  0
   -4.3659   -4.7920    1.2633 C   0  0  0  0  0  0  0  0  0  0  0  0
   -5.2572   -5.0945    0.2439 C   0  0  0  0  0  0  0  0  0  0  0  0
   -6.0832   -6.1633    0.4245 O   0  0  0  0  0  0  0  0  0  0  0  0
    3.3611    1.8111    0.0016 H   0  0  0  0  0  0  0  0  0  0  0  0
    4.5778   -0.3500    0.0004 H   0  0  0  0  0  0  0  0  0  0  0  0
    1.1168   -2.5176   -0.0027 H   0  0  0  0  0  0  0  0  0  0  0  0
   -1.2788    2.9543   -0.0009 H   0  0  0  0  0  0  0  0  0  0  0  0
    1.1730    3.0133    0.0018 H   0  0  0  0  0  0  0  0  0  0  0  0
   -0.9797   -2.5517   -0.0024 H   0  0  0  0  0  0  0  0  0  0  0  0
   -4.5392   -0.2100    0.0039 H   0  0  0  0  0  0  0  0  0  0  0  0
   -5.9325   -4.5967   -1.7491 H   0  0  0  0  0  0  0  0  0  0  0  0
   -4.6044   -2.5294   -1.8722 H   0  0  0  0  0  0  0  0  0  0  0  0
   -2.7901   -3.4981    1.9221 H   0  0  0  0  0  0  0  0  0  0  0  0
   -4.3357   -5.4055    2.1592 H   0  0  0  0  0  0  0  0  0  0  0  0
   -6.7080   -6.2077   -0.3175 H   0  0  0  0  0  0  0  0  0  0  0  0
  1  2  2  0  0  0  0
  1  6  1  0  0  0  0
  1  7  1  0  0  0  0
  2  3  1  0  0  0  0
  2 10  1  0  0  0  0
  3  4  2  0  0  0  0
  3 22  1  0  0  0  0
  4  5  1  0  0  0  0
  4 23  1  0  0  0  0
  5  6  2  0  0  0  0
  6 24  1  0  0  0  0
  7  8  2  0  0  0  0
  7 11  1  0  0  0  0
  8  9  1  0  0  0  0
  8 14  1  0  0  0  0
  9 10  2  0  0  0  0
  9 25  1  0  0  0  0
 10 26  1  0  0  0  0
 11 12  2  0  0  0  0
 11 27  1  0  0  0  0
 12 13  1  0  0  0  0
 12 17  1  0  0  0  0
 13 14  2  0  0  0  0
 13 28  1  0  0  0  0
 15 16  2  0  0  0  0
 15 20  1  0  0  0  0
 15 29  1  0  0  0  0
 16 17  1  0  0  0  0
 16 30  1  0  0  0  0
 17 18  2  0  0  0  0
 18 19  1  0  0  0  0
 18 31  1  0  0  0  0
 19 20  2  0  0  0  0
 19 32  1  0  0  0  0
 20 21  1  0  0  0  0
 21 33  1  0  0  0  0
M  END
>  <DRUGBANK_ID>
DB03623

>  <SECONDARY_ACCESSION_NUMBERS>
EXPT00358

>  <COMMON_NAME>
9-(4-Hydroxyphenyl)-2,7-Phenanthroline

$$$$
