
 OpenBabel10282417183D

 39 40  0  0  0  0  0  0  0  0999 V2000
    1.4875   -0.1924    0.2131 C   0  0  0  0  0  0  0  0  0  0  0  0
    0.6095   -1.2826    0.1005 C   0  0  0  0  0  0  0  0  0  0  0  0
   -0.7742   -1.0808    0.0157 C   0  0  0  0  0  0  0  0  0  0  0  0
   -1.2901    0.2123    0.0188 C   0  0  0  0  0  0  0  0  0  0  0  0
   -0.4187    1.3014    0.0693 C   0  0  0  0  0  0  0  0  0  0  0  0
    0.9698    1.1027    0.1265 C   0  0  0  0  0  0  0  0  0  0  0  0
    2.9506   -0.4424    0.2506 C   0  0  0  0  0  0  0  0  0  0  0  0
    3.4505   -1.3014   -0.6076 N   0  0  0  0  0  0  0  0  0  0  0  0
    4.8750   -1.2352   -0.4709 O   0  0  0  0  0  0  0  0  0  0  0  0
    5.1402   -0.2414    0.4385 C   0  0  0  0  0  0  0  0  0  0  0  0
    3.9453    0.1595    1.0124 N   0  0  0  0  0  0  0  0  0  0  0  0
    6.3954    0.0510    0.6413 N   0  0  0  0  0  0  0  0  0  0  0  0
    3.7622    0.8116    2.3699 C   0  0  0  0  0  0  0  0  0  0  0  0
    4.0106    0.0274    3.7901 C   0  0  0  0  0  0  0  0  0  0  0  0
    5.3529   -0.5214    4.0957 N   0  0  0  0  0  0  0  0  0  0  0  0
    5.6754   -1.1207    5.3802 C   0  0  0  0  0  0  0  0  0  0  0  0
    5.7841   -1.4122    3.0465 C   0  0  0  0  0  0  0  0  0  0  0  0
    4.8798   -2.5445    2.5597 C   0  0  0  0  0  0  0  0  0  0  0  0
    4.9217   -2.4111    5.6367 C   0  0  0  0  0  0  0  0  0  0  0  0
    0.9963   -2.2986    0.0585 H   0  0  0  0  0  0  0  0  0  0  0  0
   -1.4496   -1.9311   -0.0548 H   0  0  0  0  0  0  0  0  0  0  0  0
   -2.3658    0.3710   -0.0427 H   0  0  0  0  0  0  0  0  0  0  0  0
   -0.8279    2.3091    0.0522 H   0  0  0  0  0  0  0  0  0  0  0  0
    1.6300    1.9621    0.0484 H   0  0  0  0  0  0  0  0  0  0  0  0
    6.9528   -0.6984    0.2108 H   0  0  0  0  0  0  0  0  0  0  0  0
    4.3571    1.7318    2.4040 H   0  0  0  0  0  0  0  0  0  0  0  0
    2.7141    1.1324    2.4387 H   0  0  0  0  0  0  0  0  0  0  0  0
    3.7868    0.7577    4.5869 H   0  0  0  0  0  0  0  0  0  0  0  0
    3.2427   -0.7442    3.9039 H   0  0  0  0  0  0  0  0  0  0  0  0
    6.7552   -1.3539    5.3716 H   0  0  0  0  0  0  0  0  0  0  0  0
    5.5518   -0.4082    6.1997 H   0  0  0  0  0  0  0  0  0  0  0  0
    5.7749   -0.6480    2.3429 H   0  0  0  0  0  0  0  0  0  0  0  0
    6.8447   -1.6764    3.0529 H   0  0  0  0  0  0  0  0  0  0  0  0
    3.8126   -2.3130    2.6395 H   0  0  0  0  0  0  0  0  0  0  0  0
    5.0764   -2.7762    1.5123 H   0  0  0  0  0  0  0  0  0  0  0  0
    5.0598   -3.4717    3.0970 H   0  0  0  0  0  0  0  0  0  0  0  0
    5.2727   -3.2047    4.9769 H   0  0  0  0  0  0  0  0  0  0  0  0
    5.1038   -2.7881    6.6408 H   0  0  0  0  0  0  0  0  0  0  0  0
    3.8495   -2.2733    5.4799 H   0  0  0  0  0  0  0  0  0  0  0  0
  1  2  2  0  0  0  0
  1  6  1  0  0  0  0
  1  7  1  0  0  0  0
  2  3  1  0  0  0  0
  2 20  1  0  0  0  0
  3  4  2  0  0  0  0
  3 21  1  0  0  0  0
  4  5  1  0  0  0  0
  4 22  1  0  0  0  0
  5  6  2  0  0  0  0
  5 23  1  0  0  0  0
  6 24  1  0  0  0  0
  7  8  2  0  0  0  0
  7 11  1  0  0  0  0
  8  9  1  0  0  0  0
  9 10  1  0  0  0  0
 10 11  1  0  0  0  0
 10 12  2  0  0  0  0
 11 13  1  0  0  0  0
 12 25  1  0  0  0  0
 13 14  1  0  0  0  0
 13 26  1  0  0  0  0
 13 27  1  0  0  0  0
 14 15  1  0  0  0  0
 14 28  1  0  0  0  0
 14 29  1  0  0  0  0
 15 16  1  0  0  0  0
 15 17  1  0  0  0  0
 16 19  1  0  0  0  0
 16 30  1  0  0  0  0
 16 31  1  0  0  0  0
 17 18  1  0  0  0  0
 17 32  1  0  0  0  0
 17 33  1  0  0  0  0
 18 34  1  0  0  0  0
 18 35  1  0  0  0  0
 18 36  1  0  0  0  0
 19 37  1  0  0  0  0
 19 38  1  0  0  0  0
 19 39  1  0  0  0  0
M  END
>  <DRUGBANK_ID>
DB09284

>  <COMMON_NAME>
Imolamine

>  <CAS_NUMBER>
318-23-0

>  <UNII>
K5F4RU5VQJ

>  <SYNONYMS>
3-Phenyl-4-diethylaminoethyl-5-imino-1,2,4-oxadiazol; Imolamina; Imolamine; Imolaminum

$$$$
