52P
 OpenBabel10282417163D

 37 40  0  0  0  0  0  0  0  0999 V2000
    2.3395    0.9227    0.0128 F   0  0  0  0  0  0  0  0  0  0  0  0
    1.1904    0.2363    0.0090 C   0  0  0  0  0  0  0  0  0  0  0  0
    1.2270   -1.1511    0.0027 C   0  0  0  0  0  0  0  0  0  0  0  0
    0.0354   -1.8800   -0.0329 C   0  0  0  0  0  0  0  0  0  0  0  0
   -1.2044   -1.2307   -0.0446 C   0  0  0  0  0  0  0  0  0  0  0  0
   -2.7672   -2.0936   -0.1346 S   0  0  0  0  0  0  0  0  0  0  0  0
   -2.4189   -3.8109   -0.1739 C   0  0  0  0  0  0  0  0  0  0  0  0
   -1.8188   -4.3371    1.0644 C   0  0  0  0  0  0  0  0  0  0  0  0
   -1.8484   -5.6633    1.1969 C   0  0  0  0  0  0  0  0  0  0  0  0
   -2.1877   -6.5392    0.0788 C   0  0  0  0  0  0  0  0  0  0  0  0
   -2.0295   -7.8887    0.1207 C   0  0  0  0  0  0  0  0  0  0  0  0
   -1.5358   -8.5872    1.3319 C   0  0  0  0  0  0  0  0  0  0  0  0
   -0.2896   -9.2418    1.3561 C   0  0  0  0  0  0  0  0  0  0  0  0
    0.7050   -9.4681   -0.0435 Cl  0  0  0  0  0  0  0  0  0  0  0  0
    0.2710   -9.6372    2.5701 C   0  0  0  0  0  0  0  0  0  0  0  0
   -0.3003   -9.2092    3.7622 C   0  0  0  0  0  0  0  0  0  0  0  0
   -1.5889   -8.6900    3.7562 C   0  0  0  0  0  0  0  0  0  0  0  0
   -2.2432   -8.4754    2.5450 C   0  0  0  0  0  0  0  0  0  0  0  0
   -3.8954   -7.9520    2.6142 Cl  0  0  0  0  0  0  0  0  0  0  0  0
   -2.2806   -8.6704   -1.1391 C   0  0  0  0  0  0  0  0  0  0  0  0
   -2.1436   -9.8982   -1.1259 O   0  0  0  0  0  0  0  0  0  0  0  0
   -2.6644   -7.9949   -2.2690 N   0  0  0  0  0  0  0  0  0  0  0  0
   -2.8198   -6.7134   -2.1906 C   0  0  0  0  0  0  0  0  0  0  0  0
   -2.6086   -5.9025   -1.0935 N   0  0  0  0  0  0  0  0  0  0  0  0
   -2.7951   -4.5247   -1.1905 N   0  0  0  0  0  0  0  0  0  0  0  0
   -1.2030    0.1783   -0.0123 C   0  0  0  0  0  0  0  0  0  0  0  0
   -2.3586    0.8626   -0.0054 F   0  0  0  0  0  0  0  0  0  0  0  0
   -0.0177    0.9133    0.0061 C   0  0  0  0  0  0  0  0  0  0  0  0
    2.1833   -1.6653    0.0106 H   0  0  0  0  0  0  0  0  0  0  0  0
    0.1173   -2.9601   -0.0645 H   0  0  0  0  0  0  0  0  0  0  0  0
   -1.4271   -3.6933    1.8387 H   0  0  0  0  0  0  0  0  0  0  0  0
   -1.5629   -6.0643    2.1603 H   0  0  0  0  0  0  0  0  0  0  0  0
    1.1839  -10.2274    2.5880 H   0  0  0  0  0  0  0  0  0  0  0  0
    0.2556   -9.2946    4.6913 H   0  0  0  0  0  0  0  0  0  0  0  0
   -2.0777   -8.4439    4.6952 H   0  0  0  0  0  0  0  0  0  0  0  0
   -3.1490   -6.1578   -3.0830 H   0  0  0  0  0  0  0  0  0  0  0  0
   -0.0378    1.9975    0.0112 H   0  0  0  0  0  0  0  0  0  0  0  0
  2  1  1  0  0  0  0
  2  3  1  0  0  0  0
  3 29  1  0  0  0  0
  4  3  2  0  0  0  0
  4 30  1  0  0  0  0
  5  4  1  0  0  0  0
  6  5  1  0  0  0  0
  6  7  1  0  0  0  0
  7 25  2  0  0  0  0
  8  7  1  0  0  0  0
  8  9  2  0  0  0  0
  8 31  1  0  0  0  0
  9 10  1  0  0  0  0
  9 32  1  0  0  0  0
 10 11  2  0  0  0  0
 10 24  1  0  0  0  0
 11 20  1  0  0  0  0
 12 11  1  0  0  0  0
 12 13  1  0  0  0  0
 13 14  1  0  0  0  0
 15 13  2  0  0  0  0
 15 33  1  0  0  0  0
 16 15  1  0  0  0  0
 16 34  1  0  0  0  0
 17 16  2  0  0  0  0
 17 18  1  0  0  0  0
 17 35  1  0  0  0  0
 18 12  2  0  0  0  0
 19 18  1  0  0  0  0
 20 21  2  0  0  0  0
 20 22  1  0  0  0  0
 23 22  2  0  0  0  0
 23 36  1  0  0  0  0
 24 23  1  0  0  0  0
 25 24  1  0  0  0  0
 26  5  2  0  0  0  0
 26 28  1  0  0  0  0
 27 26  1  0  0  0  0
 28  2  2  0  0  0  0
 28 37  1  0  0  0  0
M  END
>  <DRUGBANK_ID>
DB07138

>  <SECONDARY_ACCESSION_NUMBERS>
DB12790

>  <COMMON_NAME>
Neflamapimod

>  <CAS_NUMBER>
209410-46-8

>  <UNII>
TYL52QM320

>  <SYNONYMS>
Neflamapimod

$$$$
