LYD
 OpenBabel10282417173D

 52 54  0  0  0  0  0  0  0  0999 V2000
    1.4814   -0.1756   -0.0750 C   0  0  0  0  0  0  0  0  0  0  0  0
    0.6596   -1.2820   -0.2983 C   0  0  0  0  0  0  0  0  0  0  0  0
   -0.6373   -1.0389   -0.7233 C   0  0  0  0  0  0  0  0  0  0  0  0
   -1.1713    0.2509   -0.7087 C   0  0  0  0  0  0  0  0  0  0  0  0
   -0.4307    1.3517   -0.2576 C   0  0  0  0  0  0  0  0  0  0  0  0
    0.9449    1.1283   -0.0920 C   0  0  0  0  0  0  0  0  0  0  0  0
   -0.9458    2.7297    0.1506 C   0  0  0  0  0  0  0  0  0  0  0  0
   -0.1487    3.6091    0.4828 O   0  0  0  0  0  0  0  0  0  0  0  0
   -2.2725    3.0871    0.2523 N   0  0  0  0  0  0  0  0  0  0  0  0
   -3.4039    2.2425    0.2627 C   0  0  1  0  0  0  0  0  0  0  0  0
   -4.0579    2.1870    1.6268 C   0  0  0  0  0  0  0  0  0  0  0  0
   -5.0016    3.2264    2.1419 C   0  0  0  0  0  0  0  0  0  0  0  0
   -5.0126    1.0913    1.4251 C   0  0  0  0  0  0  0  0  0  0  0  0
    1.0864   -2.7133   -0.0887 C   0  0  0  0  0  0  0  0  0  0  0  0
    0.5500   -3.4279    1.1810 C   0  0  0  0  0  0  0  0  0  0  0  0
   -0.9409   -3.6371    1.2733 C   0  0  0  0  0  0  0  0  0  0  0  0
   -4.3709    2.2815   -0.9300 C   0  0  0  0  0  0  0  0  0  0  0  0
   -4.4997    1.3981   -1.7661 O   0  0  0  0  0  0  0  0  0  0  0  0
   -5.2266    3.3159   -0.8850 O   0  0  0  0  0  0  0  0  0  0  0  0
   -1.6254   -4.8417    1.1716 C   0  0  0  0  0  0  0  0  0  0  0  0
   -2.9676   -4.6055    1.1903 N   0  0  0  0  0  0  0  0  0  0  0  0
   -3.1750   -3.2987    1.3751 C   0  0  0  0  0  0  0  0  0  0  0  0
   -1.9564   -2.6916    1.5717 C   0  0  0  0  0  0  0  0  0  0  0  0
   -1.9997   -1.3307    1.9423 C   0  0  0  0  0  0  0  0  0  0  0  0
   -1.0231   -0.6070    2.2229 O   0  0  0  0  0  0  0  0  0  0  0  0
   -3.2954   -0.8595    1.9392 N   0  0  0  0  0  0  0  0  0  0  0  0
   -4.5335   -1.6107    1.7383 C   0  0  0  0  0  0  0  0  0  0  0  0
   -4.4342   -2.8644    1.4354 N   0  0  0  0  0  0  0  0  0  0  0  0
   -5.8696   -1.2107    1.8046 N   0  0  0  0  0  0  0  0  0  0  0  0
   -2.9970    1.2524    0.1906 H   0  0  0  0  0  0  0  0  0  0  0  0
    2.5339   -0.3091    0.1601 H   0  0  0  0  0  0  0  0  0  0  0  0
   -1.3121   -1.8700   -0.9257 H   0  0  0  0  0  0  0  0  0  0  0  0
   -2.2112    0.2522   -0.9946 H   0  0  0  0  0  0  0  0  0  0  0  0
    1.6091    1.9765    0.0652 H   0  0  0  0  0  0  0  0  0  0  0  0
   -2.4309    3.9988    0.6605 H   0  0  0  0  0  0  0  0  0  0  0  0
   -3.3275    1.9293    2.4203 H   0  0  0  0  0  0  0  0  0  0  0  0
   -5.8280    3.3479    1.4373 H   0  0  0  0  0  0  0  0  0  0  0  0
   -5.4698    2.8594    3.0727 H   0  0  0  0  0  0  0  0  0  0  0  0
   -4.4803    4.1521    2.3153 H   0  0  0  0  0  0  0  0  0  0  0  0
   -4.6050    0.3586    0.7202 H   0  0  0  0  0  0  0  0  0  0  0  0
   -5.1622    0.7469    2.4574 H   0  0  0  0  0  0  0  0  0  0  0  0
   -5.9382    1.3339    0.9050 H   0  0  0  0  0  0  0  0  0  0  0  0
    0.7832   -3.2784   -0.9792 H   0  0  0  0  0  0  0  0  0  0  0  0
    2.1828   -2.7479   -0.0654 H   0  0  0  0  0  0  0  0  0  0  0  0
    1.0019   -4.4302    1.1812 H   0  0  0  0  0  0  0  0  0  0  0  0
    0.9109   -2.9260    2.0857 H   0  0  0  0  0  0  0  0  0  0  0  0
   -5.8829    3.1264   -1.5869 H   0  0  0  0  0  0  0  0  0  0  0  0
   -1.2831   -5.8557    1.0864 H   0  0  0  0  0  0  0  0  0  0  0  0
   -3.7514   -5.2361    1.1557 H   0  0  0  0  0  0  0  0  0  0  0  0
   -3.1586    0.1292    1.9568 H   0  0  0  0  0  0  0  0  0  0  0  0
   -6.6064   -1.8875    1.6703 H   0  0  0  0  0  0  0  0  0  0  0  0
   -6.3279   -0.3137    1.8682 H   0  0  0  0  0  0  0  0  0  0  0  0
  1  2  2  0  0  0  0
  1  6  1  0  0  0  0
  1 31  1  0  0  0  0
  2  3  1  0  0  0  0
  2 14  1  0  0  0  0
  3  4  2  0  0  0  0
  3 32  1  0  0  0  0
  4  5  1  0  0  0  0
  4 33  1  0  0  0  0
  5  6  2  0  0  0  0
  5  7  1  0  0  0  0
  6 34  1  0  0  0  0
  7  8  2  0  0  0  0
  7  9  1  0  0  0  0
  9 35  1  0  0  0  0
 10  9  1  0  0  0  0
 10 11  1  0  0  0  0
 10 17  1  0  0  0  0
 10 30  1  6  0  0  0
 11 12  1  0  0  0  0
 11 13  1  0  0  0  0
 11 36  1  0  0  0  0
 12 37  1  0  0  0  0
 12 38  1  0  0  0  0
 12 39  1  0  0  0  0
 13 40  1  0  0  0  0
 13 41  1  0  0  0  0
 13 42  1  0  0  0  0
 14 15  1  0  0  0  0
 14 43  1  0  0  0  0
 14 44  1  0  0  0  0
 15 16  1  0  0  0  0
 15 45  1  0  0  0  0
 15 46  1  0  0  0  0
 16 20  2  0  0  0  0
 16 23  1  0  0  0  0
 17 18  2  0  0  0  0
 17 19  1  0  0  0  0
 19 47  1  0  0  0  0
 20 21  1  0  0  0  0
 20 48  1  0  0  0  0
 21 22  1  0  0  0  0
 21 49  1  0  0  0  0
 22 23  2  0  0  0  0
 22 28  1  0  0  0  0
 23 24  1  0  0  0  0
 24 25  2  0  0  0  0
 24 26  1  0  0  0  0
 26 27  1  0  0  0  0
 26 50  1  0  0  0  0
 27 28  2  0  0  0  0
 27 29  1  0  0  0  0
 29 51  1  0  0  0  0
 29 52  1  0  0  0  0
M  END
>  <DRUGBANK_ID>
DB08131

>  <COMMON_NAME>
2-{4-[2-(2-AMINO-4-OXO-4,7-DIHYDRO-3H-PYRROLO[2,3-D]PYRIMIDIN-5-YL)-ETHYL]-BENZOYLAMINO}-3-METHYL-BUTYRIC ACID

$$$$
