
 OpenBabel10282417133D

 21 21  0  0  1  0  0  0  0  0999 V2000
   -0.8938    0.1608    2.8827 O   0  0  0  0  0  0  0  0  0  0  0  0
   -0.1968    1.4017    2.8851 C   0  0  0  0  0  0  0  0  0  0  0  0
    0.9922    1.4834    1.9156 C   0  0  1  0  0  0  0  0  0  0  0  0
    1.6180    2.7712    2.0816 O   0  0  0  0  0  0  0  0  0  0  0  0
    2.6145    2.9689    1.0267 N   0  0  0  0  0  0  0  0  0  0  0  0
    3.7309    2.0847    1.3700 C   0  0  0  0  0  0  0  0  0  0  0  0
    3.2607    0.6311    1.2646 C   0  0  1  0  0  0  0  0  0  0  0  0
    4.2947   -0.2895    1.6312 O   0  0  0  0  0  0  0  0  0  0  0  0
    2.0449    0.3985    2.1767 C   0  0  2  0  0  0  0  0  0  0  0  0
    1.5178   -0.9091    1.9167 O   0  0  0  0  0  0  0  0  0  0  0  0
   -0.5968   -0.3599    2.1126 H   0  0  0  0  0  0  0  0  0  0  0  0
   -0.9248    2.1784    2.6290 H   0  0  0  0  0  0  0  0  0  0  0  0
    0.1286    1.6120    3.9101 H   0  0  0  0  0  0  0  0  0  0  0  0
    0.6019    1.3789    0.8940 H   0  0  0  0  0  0  0  0  0  0  0  0
    2.8902    3.9407    1.1892 H   0  0  0  0  0  0  0  0  0  0  0  0
    4.5662    2.2515    0.6807 H   0  0  0  0  0  0  0  0  0  0  0  0
    4.1144    2.2993    2.3755 H   0  0  0  0  0  0  0  0  0  0  0  0
    2.9844    0.3935    0.2291 H   0  0  0  0  0  0  0  0  0  0  0  0
    5.0461   -0.1291    1.0325 H   0  0  0  0  0  0  0  0  0  0  0  0
    2.3724    0.4274    3.2251 H   0  0  0  0  0  0  0  0  0  0  0  0
    2.3037   -1.4952    1.8901 H   0  0  0  0  0  0  0  0  0  0  0  0
  1  2  1  0  0  0  0
  1 11  1  0  0  0  0
  2 12  1  0  0  0  0
  2 13  1  0  0  0  0
  3  4  1  0  0  0  0
  3  9  1  0  0  0  0
  3 14  1  6  0  0  0
  3  2  1  0  0  0  0
  4  5  1  0  0  0  0
  5  6  1  0  0  0  0
  5 15  1  0  0  0  0
  6  7  1  0  0  0  0
  6 16  1  0  0  0  0
  6 17  1  0  0  0  0
  7  9  1  0  0  0  0
  7 18  1  6  0  0  0
  7  8  1  0  0  0  0
  8 19  1  0  0  0  0
  9 20  1  1  0  0  0
  9 10  1  0  0  0  0
 10 21  1  0  0  0  0
M  END
>  <DRUGBANK_ID>
DB03862

>  <SECONDARY_ACCESSION_NUMBERS>
EXPT02466

>  <COMMON_NAME>
Tetrahydrooxazine

$$$$
