
 OpenBabel10282417153D

208220  0  0  1  0  0  0  0  0999 V2000
  -11.0958    0.0376    0.5480 C   0  0  2  0  0  0  0  0  0  0  0  0
  -10.8473    0.9218   -0.4871 O   0  0  0  0  0  0  0  0  0  0  0  0
   -9.7732    1.6629   -0.0049 C   0  0  1  0  0  0  0  0  0  0  0  0
   -9.9050    3.0823   -0.2970 C   0  0  2  0  0  0  0  0  0  0  0  0
   -8.8846    4.0732    0.4665 C   0  0  2  0  0  0  0  0  0  0  0  0
   -7.6937    4.4439   -0.2845 O   0  0  0  0  0  0  0  0  0  0  0  0
   -6.8427    3.3605   -0.5411 C   0  0  1  0  0  0  0  0  0  0  0  0
   -7.6051    2.5522   -1.5280 C   0  0  2  0  0  0  0  0  0  0  0  0
   -7.0925    1.3488   -1.9332 C   0  0  1  0  0  0  0  0  0  0  0  0
   -7.7256    0.0807   -2.5009 O   0  0  0  0  0  0  0  0  0  0  0  0
   -5.6588    1.5641   -2.2936 C   0  0  1  0  0  0  0  0  0  0  0  0
   -4.9086    2.5486   -1.4301 C   0  0  2  0  0  0  0  0  0  0  0  0
   -5.6572    3.6755   -1.1887 O   0  0  0  0  0  0  0  0  0  0  0  0
   -3.6507    2.7670   -2.2048 C   0  0  0  0  0  0  0  0  0  0  0  0
   -3.1444    1.5686   -2.6112 O   0  0  0  0  0  0  0  0  0  0  0  0
   -2.6118    1.1517   -1.4509 C   0  0  0  0  0  0  0  0  0  0  0  0
   -4.8885    0.4287   -2.1166 O   0  0  0  0  0  0  0  0  0  0  0  0
   -4.3847    0.0454   -0.4425 C   0  0  1  0  0  0  0  0  0  0  0  0
   -5.2461    0.0113    0.8067 C   0  0  1  0  0  0  0  0  0  0  0  0
   -5.1473   -0.8086    2.0493 C   0  0  1  0  0  0  0  0  0  0  0  0
   -6.8095   -1.4514    2.6019 O   0  0  0  0  0  0  0  0  0  0  0  0
   -7.8172   -2.9046    1.5531 C   0  0  1  0  0  0  0  0  0  0  0  0
   -8.7441   -3.0794   -0.6762 C   0  0  2  0  0  0  0  0  0  0  0  0
   -7.4349   -3.7637   -1.2194 C   0  0  1  0  0  0  0  0  0  0  0  0
   -7.1338   -2.7186   -2.6090 O   0  0  0  0  0  0  0  0  0  0  0  0
   -5.9875   -3.0623   -2.4786 C   0  0  1  0  0  0  0  0  0  0  0  0
   -5.8903   -3.6917   -4.3705 O   0  0  0  0  0  0  0  0  0  0  0  0
   -4.1179   -4.5477   -4.6863 C   0  0  2  0  0  0  0  0  0  0  0  0
   -3.6211   -5.8133   -3.1587 C   0  0  0  0  0  0  0  0  0  0  0  0
   -2.5090   -3.2029   -4.7542 C   0  0  2  0  0  0  0  0  0  0  0  0
   -1.9136   -2.8477   -2.6400 C   0  0  1  0  0  0  0  0  0  0  0  0
   -4.2232   -2.0933   -2.1364 C   0  0  0  0  0  0  0  0  0  0  0  0
   -1.0055   -4.5132   -1.8233 O   0  0  0  0  0  0  0  0  0  0  0  0
   -2.9821   -1.4686   -4.9337 O   0  0  0  0  0  0  0  0  0  0  0  0
   -4.0410   -0.8779   -3.9350 C   0  0  2  0  0  0  0  0  0  0  0  0
   -3.4225   -0.8381   -2.3742 O   0  0  0  0  0  0  0  0  0  0  0  0
   -3.1809   -2.8780   -1.5530 C   0  0  2  0  0  0  0  0  0  0  0  0
   -2.2926   -3.6667   -1.1348 C   0  0  0  0  0  0  0  0  0  0  0  0
   -4.3493   -3.7426   -1.7936 C   0  0  2  0  0  0  0  0  0  0  0  0
   -4.7776   -3.8481   -3.1464 C   0  0  1  0  0  0  0  0  0  0  0  0
   -5.2302   -1.9189   -3.9682 C   0  0  0  0  0  0  0  0  0  0  0  0
   -3.5995   -3.9802   -3.0919 O   0  0  0  0  0  0  0  0  0  0  0  0
   -3.1812   -2.7792   -3.3177 C   0  0  1  0  0  0  0  0  0  0  0  0
   -2.1080   -1.5008   -1.7204 C   0  0  0  0  0  0  0  0  0  0  0  0
   -0.7034   -1.0452   -1.6111 C   0  0  1  0  0  0  0  0  0  0  0  0
   -0.8767    0.1099   -2.6953 N   0  3  0  0  0  0  0  0  0  0  0  0
   -0.4981    1.1935   -2.3244 O   0  5  0  0  0  0  0  0  0  0  0  0
   -1.5957    0.0846   -3.7056 O   0  0  0  0  0  0  0  0  0  0  0  0
   -0.7163   -0.6730   -0.1963 C   0  0  0  0  0  0  0  0  0  0  0  0
    0.2554   -2.3042   -2.0283 C   0  0  2  0  0  0  0  0  0  0  0  0
   -0.0687   -3.0549   -3.4493 C   0  0  1  0  0  0  0  0  0  0  0  0
   -1.6078   -4.1279   -3.5625 O   0  0  0  0  0  0  0  0  0  0  0  0
   -0.2452   -1.9329   -4.4741 C   0  0  0  0  0  0  0  0  0  0  0  0
    0.5189   -3.3700   -1.1411 O   0  0  0  0  0  0  0  0  0  0  0  0
    0.7927   -3.0896    0.1524 C   0  0  0  0  0  0  0  0  0  0  0  0
   -3.8208   -2.6361   -4.0348 H   0  0  0  0  0  0  0  0  0  0  0  0
   -5.7600   -3.2452   -0.7589 O   0  0  0  0  0  0  0  0  0  0  0  0
   -6.3838   -2.8011    0.2969 C   0  0  0  0  0  0  0  0  0  0  0  0
   -6.7347   -4.9241    1.2154 C   0  0  0  0  0  0  0  0  0  0  0  0
   -4.7048   -5.4033    0.9169 C   0  0  0  0  0  0  0  0  0  0  0  0
   -4.1346   -6.2799    1.8859 C   0  0  0  0  0  0  0  0  0  0  0  0
   -2.5968   -5.9496    2.6117 Cl  0  0  0  0  0  0  0  0  0  0  0  0
   -5.5001   -6.9732    2.7239 C   0  0  0  0  0  0  0  0  0  0  0  0
   -7.1320   -6.5951    2.6053 C   0  0  0  0  0  0  0  0  0  0  0  0
   -7.7364   -5.6069    1.9088 C   0  0  0  0  0  0  0  0  0  0  0  0
   -9.0999   -5.3901    1.6195 C   0  0  0  0  0  0  0  0  0  0  0  0
   -8.3994   -7.5368    3.0110 Cl  0  0  0  0  0  0  0  0  0  0  0  0
   -5.2527   -7.8279    3.6231 O   0  0  0  0  0  0  0  0  0  0  0  0
   -3.8406   -4.0182    0.4518 O   0  0  0  0  0  0  0  0  0  0  0  0
   -4.5349   -2.2242    0.2039 C   0  0  0  0  0  0  0  0  0  0  0  0
   -6.7044   -1.6514    0.7078 O   0  0  0  0  0  0  0  0  0  0  0  0
   -4.2724    0.0925   -4.2190 H   0  0  0  0  0  0  0  0  0  0  0  0
   -5.6348   -4.8007   -1.5033 O   0  0  0  0  0  0  0  0  0  0  0  0
   -5.9088   -4.9574   -0.1819 C   0  0  2  0  0  0  0  0  0  0  0  0
   -5.5410   -4.7221    2.2010 C   0  0  2  0  0  0  0  0  0  0  0  0
   -7.2319   -4.0813    2.9912 O   0  0  0  0  0  0  0  0  0  0  0  0
   -4.4294   -3.9196    2.9786 C   0  0  0  0  0  0  0  0  0  0  0  0
   -5.9278   -6.0570   -0.5816 H   0  0  0  0  0  0  0  0  0  0  0  0
   -8.4965   -2.4045    0.2510 C   0  0  0  0  0  0  0  0  0  0  0  0
   -8.9131   -2.5632   -2.1777 O   0  0  0  0  0  0  0  0  0  0  0  0
   -8.5627   -2.5281    2.5242 H   0  0  0  0  0  0  0  0  0  0  0  0
   -3.7414   -1.9782    1.9738 C   0  0  2  0  0  0  0  0  0  0  0  0
   -2.6246   -1.7281    1.1194 C   0  0  2  0  0  0  0  0  0  0  0  0
   -3.0731   -0.2599    0.2481 O   0  0  0  0  0  0  0  0  0  0  0  0
   -1.9259   -3.2649    0.9006 C   0  0  0  0  0  0  0  0  0  0  0  0
   -4.8432   -3.2553    1.4012 O   0  0  0  0  0  0  0  0  0  0  0  0
   -6.0151   -3.1998    1.8033 C   0  0  0  0  0  0  0  0  0  0  0  0
   -6.3025    0.7479    1.0395 O   0  0  0  0  0  0  0  0  0  0  0  0
   -4.2819    0.9313   -0.1508 H   0  0  0  0  0  0  0  0  0  0  0  0
   -8.1996    2.8310   -2.7100 O   0  0  0  0  0  0  0  0  0  0  0  0
   -8.7830    1.6725   -3.3639 C   0  0  0  0  0  0  0  0  0  0  0  0
   -6.6356    2.9142    0.4497 H   0  0  0  0  0  0  0  0  0  0  0  0
   -8.5446    3.6660    1.8269 O   0  0  0  0  0  0  0  0  0  0  0  0
   -8.4110    2.2650    2.1024 C   0  0  0  0  0  0  0  0  0  0  0  0
   -9.6237    1.6287    1.5018 C   0  0  2  0  0  0  0  0  0  0  0  0
  -10.0597    0.4106    1.8821 O   0  0  0  0  0  0  0  0  0  0  0  0
  -10.4539    2.0623    1.9552 H   0  0  0  0  0  0  0  0  0  0  0  0
  -11.2082    3.3129    0.0555 O   0  0  0  0  0  0  0  0  0  0  0  0
   -9.0514    1.2069   -0.6816 H   0  0  0  0  0  0  0  0  0  0  0  0
  -12.5999   -1.0902    1.1215 C   0  0  1  0  0  0  0  0  0  0  0  0
  -12.6116   -1.6513   -0.2530 C   0  0  2  0  0  0  0  0  0  0  0  0
  -11.8464   -2.7008   -0.8522 C   0  0  2  0  0  0  0  0  0  0  0  0
  -11.6192   -3.8091   -0.0067 O   0  0  0  0  0  0  0  0  0  0  0  0
  -11.0238   -3.8849    1.1352 C   0  0  0  0  0  0  0  0  0  0  0  0
   -9.9974   -3.2283    0.5499 C   0  0  0  0  0  0  0  0  0  0  0  0
   -9.6758   -1.4380    1.1501 C   0  0  0  0  0  0  0  0  0  0  0  0
   -8.4284   -0.2805    0.3455 C   0  0  0  0  0  0  0  0  0  0  0  0
   -7.5185   -0.6476   -0.7042 C   0  0  0  0  0  0  0  0  0  0  0  0
   -7.3912   -2.1593   -0.8453 C   0  0  0  0  0  0  0  0  0  0  0  0
   -8.1487   -3.9176    0.1996 C   0  0  0  0  0  0  0  0  0  0  0  0
   -7.9066   -5.6533   -0.5202 C   0  0  0  0  0  0  0  0  0  0  0  0
   -6.3482   -0.0424   -1.0280 O   0  0  0  0  0  0  0  0  0  0  0  0
  -10.6595   -1.6445    1.8264 O   0  0  0  0  0  0  0  0  0  0  0  0
  -11.0454   -4.8059    1.8800 O   0  0  0  0  0  0  0  0  0  0  0  0
  -10.8431   -1.9927   -1.5485 C   0  0  0  0  0  0  0  0  0  0  0  0
  -10.3340   -0.9804   -0.6881 O   0  0  0  0  0  0  0  0  0  0  0  0
  -13.7547   -1.4689   -0.9682 O   0  0  0  0  0  0  0  0  0  0  0  0
  -14.6854   -1.7136    0.0281 C   0  0  0  0  0  0  0  0  0  0  0  0
  -14.0420   -1.3518    1.2810 O   0  0  0  0  0  0  0  0  0  0  0  0
  -12.1533   -0.7786   -0.5590 H   0  0  0  0  0  0  0  0  0  0  0  0
  -12.2708   -1.5902    2.1048 H   0  0  0  0  0  0  0  0  0  0  0  0
   -9.8170    3.2141   -1.3836 H   0  0  0  0  0  0  0  0  0  0  0  0
   -9.4193    5.0392    0.5057 H   0  0  0  0  0  0  0  0  0  0  0  0
   -8.3060    2.4945   -0.8234 H   0  0  0  0  0  0  0  0  0  0  0  0
   -7.3452    1.2298   -0.8661 H   0  0  0  0  0  0  0  0  0  0  0  0
   -6.9982   -0.2732   -3.0095 H   0  0  0  0  0  0  0  0  0  0  0  0
   -5.7990    1.7370   -3.3326 H   0  0  0  0  0  0  0  0  0  0  0  0
   -4.6963    2.2358   -0.4206 H   0  0  0  0  0  0  0  0  0  0  0  0
   -4.0237    3.2250   -3.0698 H   0  0  0  0  0  0  0  0  0  0  0  0
   -2.7449    3.2290   -1.8282 H   0  0  0  0  0  0  0  0  0  0  0  0
   -1.7423    1.3823   -0.9464 H   0  0  0  0  0  0  0  0  0  0  0  0
   -2.9910    1.4584   -0.5506 H   0  0  0  0  0  0  0  0  0  0  0  0
   -2.4548    0.1667   -1.4632 H   0  0  0  0  0  0  0  0  0  0  0  0
   -5.6477   -0.6174    0.1797 H   0  0  0  0  0  0  0  0  0  0  0  0
   -4.5534   -0.0865    2.4161 H   0  0  0  0  0  0  0  0  0  0  0  0
   -8.3276   -4.0229   -1.8004 H   0  0  0  0  0  0  0  0  0  0  0  0
   -3.9187   -4.1764   -5.5893 H   0  0  0  0  0  0  0  0  0  0  0  0
   -3.5769   -5.5651   -1.9224 H   0  0  0  0  0  0  0  0  0  0  0  0
   -4.5495   -6.2156   -2.8786 H   0  0  0  0  0  0  0  0  0  0  0  0
   -2.5532   -5.9470   -3.1247 H   0  0  0  0  0  0  0  0  0  0  0  0
   -1.5080   -3.2368   -4.8111 H   0  0  0  0  0  0  0  0  0  0  0  0
   -1.3095   -1.9400   -2.8923 H   0  0  0  0  0  0  0  0  0  0  0  0
   -4.8857   -1.2905   -1.7234 H   0  0  0  0  0  0  0  0  0  0  0  0
   -3.4324   -2.3227   -0.4881 H   0  0  0  0  0  0  0  0  0  0  0  0
   -1.8624   -5.2006   -1.1975 H   0  0  0  0  0  0  0  0  0  0  0  0
   -3.5315   -1.3406   -1.0232 H   0  0  0  0  0  0  0  0  0  0  0  0
   -1.2941   -3.0548   -1.1132 H   0  0  0  0  0  0  0  0  0  0  0  0
   -2.8107   -4.1929   -0.6174 H   0  0  0  0  0  0  0  0  0  0  0  0
   -2.5006   -4.3137   -2.0315 H   0  0  0  0  0  0  0  0  0  0  0  0
   -4.0754   -4.3202   -1.1435 H   0  0  0  0  0  0  0  0  0  0  0  0
   -5.8265   -4.6425   -3.0367 H   0  0  0  0  0  0  0  0  0  0  0  0
   -6.1297   -1.4348   -3.6222 H   0  0  0  0  0  0  0  0  0  0  0  0
   -5.2581   -2.1120   -5.0238 H   0  0  0  0  0  0  0  0  0  0  0  0
   -2.6411   -1.6626   -3.1258 H   0  0  0  0  0  0  0  0  0  0  0  0
   -2.0903   -1.9440   -0.6662 H   0  0  0  0  0  0  0  0  0  0  0  0
   -0.8983   -1.4745    0.4661 H   0  0  0  0  0  0  0  0  0  0  0  0
    0.1722   -0.2248   -0.0645 H   0  0  0  0  0  0  0  0  0  0  0  0
   -1.4561   -0.0336    0.1345 H   0  0  0  0  0  0  0  0  0  0  0  0
    1.1202   -1.7686   -2.1331 H   0  0  0  0  0  0  0  0  0  0  0  0
    0.5809   -3.8037   -3.7051 H   0  0  0  0  0  0  0  0  0  0  0  0
    0.3828   -1.0994   -4.3468 H   0  0  0  0  0  0  0  0  0  0  0  0
   -0.6938   -2.1165   -5.4386 H   0  0  0  0  0  0  0  0  0  0  0  0
   -1.1765   -1.5270   -4.2179 H   0  0  0  0  0  0  0  0  0  0  0  0
    1.7266   -2.6952   -0.0302 H   0  0  0  0  0  0  0  0  0  0  0  0
    0.3052   -2.2960    0.6255 H   0  0  0  0  0  0  0  0  0  0  0  0
    0.6033   -3.8998    0.8407 H   0  0  0  0  0  0  0  0  0  0  0  0
   -9.5890   -5.9467    0.8155 H   0  0  0  0  0  0  0  0  0  0  0  0
   -9.2342   -4.7113    2.4627 H   0  0  0  0  0  0  0  0  0  0  0  0
   -9.4358   -4.9265    0.5990 H   0  0  0  0  0  0  0  0  0  0  0  0
   -4.3288   -7.5897    3.5277 H   0  0  0  0  0  0  0  0  0  0  0  0
   -4.7845   -2.2747   -0.6566 H   0  0  0  0  0  0  0  0  0  0  0  0
   -5.1843   -1.8051    0.6354 H   0  0  0  0  0  0  0  0  0  0  0  0
   -4.1275   -1.3841    0.5000 H   0  0  0  0  0  0  0  0  0  0  0  0
   -5.7541   -5.6209    2.1637 H   0  0  0  0  0  0  0  0  0  0  0  0
   -4.5414   -3.2799    3.7497 H   0  0  0  0  0  0  0  0  0  0  0  0
   -3.5512   -3.9902    2.2631 H   0  0  0  0  0  0  0  0  0  0  0  0
   -4.8574   -2.6308    2.8750 H   0  0  0  0  0  0  0  0  0  0  0  0
   -8.0527   -1.4453    1.4853 H   0  0  0  0  0  0  0  0  0  0  0  0
   -8.9640   -1.6515   -0.2562 H   0  0  0  0  0  0  0  0  0  0  0  0
   -9.0991   -3.3149    1.5731 H   0  0  0  0  0  0  0  0  0  0  0  0
   -9.1263   -1.9126   -1.5706 H   0  0  0  0  0  0  0  0  0  0  0  0
   -3.2224   -2.4997    2.6743 H   0  0  0  0  0  0  0  0  0  0  0  0
   -2.0990   -1.0019    1.5831 H   0  0  0  0  0  0  0  0  0  0  0  0
   -1.3628   -3.4615    1.6893 H   0  0  0  0  0  0  0  0  0  0  0  0
   -2.1459   -4.4030    0.5875 H   0  0  0  0  0  0  0  0  0  0  0  0
   -1.1775   -3.2363    0.2318 H   0  0  0  0  0  0  0  0  0  0  0  0
   -6.2156   -3.0338    2.7225 H   0  0  0  0  0  0  0  0  0  0  0  0
   -5.8348   -2.3126    1.7535 H   0  0  0  0  0  0  0  0  0  0  0  0
   -6.6216   -3.9468    0.4492 H   0  0  0  0  0  0  0  0  0  0  0  0
   -5.8571    1.5326    0.8759 H   0  0  0  0  0  0  0  0  0  0  0  0
   -8.0090    1.0106   -3.7749 H   0  0  0  0  0  0  0  0  0  0  0  0
   -9.5387    1.1138   -2.7784 H   0  0  0  0  0  0  0  0  0  0  0  0
   -9.0401    1.9748   -4.3164 H   0  0  0  0  0  0  0  0  0  0  0  0
   -7.4671    1.9143    1.7501 H   0  0  0  0  0  0  0  0  0  0  0  0
   -8.3303    2.0083    3.1660 H   0  0  0  0  0  0  0  0  0  0  0  0
  -11.1385    4.1518   -0.3949 H   0  0  0  0  0  0  0  0  0  0  0  0
  -12.1439   -3.2390   -1.6986 H   0  0  0  0  0  0  0  0  0  0  0  0
   -8.1916    0.6540    0.5893 H   0  0  0  0  0  0  0  0  0  0  0  0
   -6.3086   -1.6946   -1.0572 H   0  0  0  0  0  0  0  0  0  0  0  0
   -7.3076   -5.5073   -1.3750 H   0  0  0  0  0  0  0  0  0  0  0  0
   -7.0271   -6.3933    0.2780 H   0  0  0  0  0  0  0  0  0  0  0  0
   -8.2365   -6.2537    0.1824 H   0  0  0  0  0  0  0  0  0  0  0  0
   -6.0250    0.8514   -0.5730 H   0  0  0  0  0  0  0  0  0  0  0  0
  -11.0607   -1.8787    0.9297 H   0  0  0  0  0  0  0  0  0  0  0  0
  -10.5203   -1.3004   -2.3018 H   0  0  0  0  0  0  0  0  0  0  0  0
  -10.3985   -3.0504   -1.7594 H   0  0  0  0  0  0  0  0  0  0  0  0
  -15.5802   -1.1199   -0.1831 H   0  0  0  0  0  0  0  0  0  0  0  0
  -15.0288   -2.7652   -0.0734 H   0  0  0  0  0  0  0  0  0  0  0  0
  1  2  1  1  0  0  0
  1 96  1  0  0  0  0
  3  2  1  0  0  0  0
  3 99  1  6  0  0  0
  4  3  1  0  0  0  0
  4122  1  6  0  0  0
  4 98  1  0  0  0  0
  5  4  1  0  0  0  0
  5  6  1  0  0  0  0
  5123  1  1  0  0  0
  7 92  1  1  0  0  0
  7  6  1  0  0  0  0
  8  7  1  0  0  0  0
  8124  1  1  0  0  0
  8 90  1  0  0  0  0
  9  8  1  0  0  0  0
  9125  1  1  0  0  0
  9 10  1  0  0  0  0
 10126  1  0  0  0  0
 11  9  1  0  0  0  0
 11 12  1  0  0  0  0
 11 17  1  0  0  0  0
 11127  1  6  0  0  0
 12 13  1  0  0  0  0
 12128  1  1  0  0  0
 12 14  1  0  0  0  0
 13  7  1  0  0  0  0
 14129  1  0  0  0  0
 14130  1  0  0  0  0
 15 14  1  0  0  0  0
 16 15  1  0  0  0  0
 16131  1  0  0  0  0
 16132  1  0  0  0  0
 16133  1  0  0  0  0
 18 89  1  1  0  0  0
 18 17  1  0  0  0  0
 19 18  1  0  0  0  0
 19 88  1  0  0  0  0
 19134  1  6  0  0  0
 20 19  1  0  0  0  0
 20135  1  1  0  0  0
 20 21  1  0  0  0  0
 22 21  1  0  0  0  0
 22 81  1  1  0  0  0
 23 22  1  0  0  0  0
 23 80  1  0  0  0  0
 23136  1  1  0  0  0
 24 23  1  0  0  0  0
 24 79  1  6  0  0  0
 25 24  1  0  0  0  0
 26 25  1  1  0  0  0
 27 26  1  0  0  0  0
 28 27  1  0  0  0  0
 28 30  1  0  0  0  0
 28137  1  6  0  0  0
 28 29  1  0  0  0  0
 29138  1  0  0  0  0
 29139  1  0  0  0  0
 29140  1  0  0  0  0
 30 31  1  0  0  0  0
 30141  1  6  0  0  0
 30 34  1  0  0  0  0
 31 32  1  0  0  0  0
 31 33  1  0  0  0  0
 31142  1  1  0  0  0
 32 26  1  0  0  0  0
 32143  1  0  0  0  0
 32144  1  0  0  0  0
 33145  1  0  0  0  0
 35 34  1  0  0  0  0
 35 72  1  6  0  0  0
 36 35  1  0  0  0  0
 37 36  1  0  0  0  0
 37 38  1  0  0  0  0
 37 39  1  0  0  0  0
 37146  1  1  0  0  0
 38147  1  0  0  0  0
 38148  1  0  0  0  0
 38149  1  0  0  0  0
 39 40  1  0  0  0  0
 39150  1  1  0  0  0
 39 57  1  0  0  0  0
 40 41  1  0  0  0  0
 40 42  1  0  0  0  0
 40151  1  6  0  0  0
 41 35  1  0  0  0  0
 41152  1  0  0  0  0
 41153  1  0  0  0  0
 43 56  1  6  0  0  0
 43 42  1  0  0  0  0
 44 43  1  0  0  0  0
 44154  1  0  0  0  0
 44155  1  0  0  0  0
 45 44  1  0  0  0  0
 45 46  1  6  0  0  0
 45 49  1  0  0  0  0
 47 46  1  0  0  0  0
 48 46  2  0  0  0  0
 49156  1  0  0  0  0
 49157  1  0  0  0  0
 49158  1  0  0  0  0
 50 45  1  0  0  0  0
 50 51  1  0  0  0  0
 50159  1  6  0  0  0
 50 54  1  0  0  0  0
 51 52  1  0  0  0  0
 51 53  1  0  0  0  0
 51160  1  6  0  0  0
 52 43  1  0  0  0  0
 53161  1  0  0  0  0
 53162  1  0  0  0  0
 53163  1  0  0  0  0
 55 54  1  0  0  0  0
 55164  1  0  0  0  0
 55165  1  0  0  0  0
 55166  1  0  0  0  0
 58 57  1  0  0  0  0
 59 58  1  0  0  0  0
 60 59  2  0  0  0  0
 61 60  1  0  0  0  0
 62 61  1  0  0  0  0
 63 61  2  0  0  0  0
 63 64  1  0  0  0  0
 64 65  2  0  0  0  0
 65 59  1  0  0  0  0
 66 65  1  0  0  0  0
 66167  1  0  0  0  0
 66168  1  0  0  0  0
 66169  1  0  0  0  0
 67 64  1  0  0  0  0
 68 63  1  0  0  0  0
 68170  1  0  0  0  0
 69 60  1  0  0  0  0
 70 69  1  0  0  0  0
 70171  1  0  0  0  0
 70172  1  0  0  0  0
 70173  1  0  0  0  0
 71 58  2  0  0  0  0
 73 26  1  0  0  0  0
 73 74  1  0  0  0  0
 74 75  1  0  0  0  0
 74 78  1  1  0  0  0
 74 24  1  0  0  0  0
 75 76  1  0  0  0  0
 75 77  1  0  0  0  0
 75174  1  1  0  0  0
 76 22  1  0  0  0  0
 77175  1  0  0  0  0
 77176  1  0  0  0  0
 77177  1  0  0  0  0
 79178  1  0  0  0  0
 79179  1  0  0  0  0
 79180  1  0  0  0  0
 80181  1  0  0  0  0
 82 20  1  0  0  0  0
 82 83  1  0  0  0  0
 82182  1  1  0  0  0
 82 86  1  0  0  0  0
 83 84  1  0  0  0  0
 83183  1  1  0  0  0
 83 85  1  0  0  0  0
 84 18  1  0  0  0  0
 85184  1  0  0  0  0
 85185  1  0  0  0  0
 85186  1  0  0  0  0
 87 86  1  0  0  0  0
 87187  1  0  0  0  0
 87188  1  0  0  0  0
 87189  1  0  0  0  0
 88190  1  0  0  0  0
 91 90  1  0  0  0  0
 91191  1  0  0  0  0
 91192  1  0  0  0  0
 91193  1  0  0  0  0
 93  5  1  0  0  0  0
 93 94  1  0  0  0  0
 94 95  1  0  0  0  0
 94194  1  0  0  0  0
 94195  1  0  0  0  0
 95 96  1  0  0  0  0
 95 97  1  1  0  0  0
 95  3  1  0  0  0  0
 98196  1  0  0  0  0
100  1  1  0  0  0  0
100121  1  6  0  0  0
101100  1  0  0  0  0
101120  1  1  0  0  0
102101  1  0  0  0  0
102197  1  6  0  0  0
102103  1  0  0  0  0
104103  1  0  0  0  0
105104  1  0  0  0  0
106105  2  0  0  0  0
107106  1  0  0  0  0
107198  1  0  0  0  0
108107  2  0  0  0  0
108109  1  0  0  0  0
109110  2  0  0  0  0
109199  1  0  0  0  0
110105  1  0  0  0  0
111110  1  0  0  0  0
111200  1  0  0  0  0
111201  1  0  0  0  0
111202  1  0  0  0  0
112108  1  0  0  0  0
112203  1  0  0  0  0
113106  1  0  0  0  0
113204  1  0  0  0  0
114104  2  0  0  0  0
115102  1  0  0  0  0
115116  1  0  0  0  0
115205  1  0  0  0  0
115206  1  0  0  0  0
116  1  1  0  0  0  0
117101  1  0  0  0  0
118117  1  0  0  0  0
118119  1  0  0  0  0
118207  1  0  0  0  0
118208  1  0  0  0  0
119100  1  0  0  0  0
M  CHG  2  46   1  47  -1
M  END
>  <DRUGBANK_ID>
DB06431

>  <COMMON_NAME>
Evernimicin

>  <CAS_NUMBER>
109545-84-8

>  <UNII>
5X287491KH

>  <SYNONYMS>
Evernimicin

$$$$
