
 OpenBabel10282417123D

 20 20  0  0  0  0  0  0  0  0999 V2000
    2.2747   -0.0503    0.0121 O   0  0  0  0  0  0  0  0  0  0  0  0
    0.9081   -0.0364    0.0123 C   0  0  0  0  0  0  0  0  0  0  0  0
    0.1905   -1.2322    0.0108 C   0  0  0  0  0  0  0  0  0  0  0  0
   -1.2058   -1.2032    0.0002 C   0  0  0  0  0  0  0  0  0  0  0  0
   -1.8805    0.0154   -0.0040 C   0  0  0  0  0  0  0  0  0  0  0  0
   -1.1579    1.2072    0.0107 C   0  0  0  0  0  0  0  0  0  0  0  0
    0.2484    1.1962    0.0119 C   0  0  0  0  0  0  0  0  0  0  0  0
    1.0076    2.5010    0.0316 C   0  0  0  0  0  0  0  0  0  0  0  0
    0.6834    3.3638   -1.1558 C   0  0  0  0  0  0  0  0  0  0  0  0
    0.1424    4.5861   -1.0530 C   0  0  0  0  0  0  0  0  0  0  0  0
    2.5863   -0.9682   -0.0219 H   0  0  0  0  0  0  0  0  0  0  0  0
    0.6980   -2.1913    0.0182 H   0  0  0  0  0  0  0  0  0  0  0  0
   -1.7708   -2.1313   -0.0051 H   0  0  0  0  0  0  0  0  0  0  0  0
   -2.9670    0.0419   -0.0191 H   0  0  0  0  0  0  0  0  0  0  0  0
   -1.6951    2.1538    0.0109 H   0  0  0  0  0  0  0  0  0  0  0  0
    0.7744    3.0144    0.9730 H   0  0  0  0  0  0  0  0  0  0  0  0
    2.0907    2.3360    0.0403 H   0  0  0  0  0  0  0  0  0  0  0  0
    0.8945    2.9461   -2.1377 H   0  0  0  0  0  0  0  0  0  0  0  0
   -0.0921    5.1678   -1.9367 H   0  0  0  0  0  0  0  0  0  0  0  0
   -0.0814    5.0179   -0.0832 H   0  0  0  0  0  0  0  0  0  0  0  0
  1  2  1  0  0  0  0
  1 11  1  0  0  0  0
  2  3  2  0  0  0  0
  2  7  1  0  0  0  0
  3  4  1  0  0  0  0
  3 12  1  0  0  0  0
  4  5  2  0  0  0  0
  4 13  1  0  0  0  0
  5  6  1  0  0  0  0
  5 14  1  0  0  0  0
  6  7  2  0  0  0  0
  6 15  1  0  0  0  0
  7  8  1  0  0  0  0
  8  9  1  0  0  0  0
  8 16  1  0  0  0  0
  8 17  1  0  0  0  0
  9 10  2  0  0  0  0
  9 18  1  0  0  0  0
 10 19  1  0  0  0  0
 10 20  1  0  0  0  0
M  END
>  <DRUGBANK_ID>
DB02534

>  <SECONDARY_ACCESSION_NUMBERS>
EXPT00127

>  <COMMON_NAME>
2-Allylphenol

>  <CAS_NUMBER>
1745-81-9

>  <UNII>
O04F145ZJZ

$$$$
