P63
 OpenBabel10282417173D

 45 48  0  0  0  0  0  0  0  0999 V2000
    1.5357   -1.0615   -0.0810 N   0  0  0  0  0  0  0  0  0  0  0  0
    2.3056    0.0212   -0.0215 C   0  0  0  0  0  0  0  0  0  0  0  0
    1.5459    1.1980   -0.0026 C   0  0  0  0  0  0  0  0  0  0  0  0
    0.2305    0.7868   -0.0093 C   0  0  0  0  0  0  0  0  0  0  0  0
    0.2736   -0.5804   -0.0215 N   0  0  0  0  0  0  0  0  0  0  0  0
   -0.9586    1.4242   -0.0130 N   0  0  0  0  0  0  0  0  0  0  0  0
   -2.0577    0.7115   -0.0210 C   0  0  0  0  0  0  0  0  0  0  0  0
   -2.0566   -0.6841    0.0064 N   0  0  0  0  0  0  0  0  0  0  0  0
   -0.9164   -1.3440    0.0078 C   0  0  0  0  0  0  0  0  0  0  0  0
   -0.9027   -2.7372    0.0110 N   0  0  0  0  0  0  0  0  0  0  0  0
    0.2199   -3.5882    0.0389 C   0  0  0  0  0  0  0  0  0  0  0  0
    0.4779   -4.4675   -1.0209 C   0  0  0  0  0  0  0  0  0  0  0  0
    1.6690   -5.2050   -1.0598 C   0  0  0  0  0  0  0  0  0  0  0  0
    2.6094   -5.0780   -0.0388 C   0  0  0  0  0  0  0  0  0  0  0  0
    2.3504   -4.2345    1.0357 C   0  0  0  0  0  0  0  0  0  0  0  0
    1.1514   -3.5202    1.0855 C   0  0  0  0  0  0  0  0  0  0  0  0
   -3.2823    1.3445   -0.0495 N   0  0  0  0  0  0  0  0  0  0  0  0
   -3.4708    2.7429   -0.0140 C   0  0  0  0  0  0  0  0  0  0  0  0
   -2.9324    3.5886   -1.0220 C   0  0  0  0  0  0  0  0  0  0  0  0
   -3.0657    4.9827   -0.9359 C   0  0  0  0  0  0  0  0  0  0  0  0
   -3.7361    5.4695    0.1817 C   0  0  0  0  0  0  0  0  0  0  0  0
   -4.2771    4.6757    1.1711 C   0  0  0  0  0  0  0  0  0  0  0  0
   -4.1542    3.3095    1.0738 C   0  0  0  0  0  0  0  0  0  0  0  0
    2.0374    2.5238    0.0056 C   0  0  0  0  0  0  0  0  0  0  0  0
    2.5015    3.5948    0.0046 N   0  0  0  0  0  0  0  0  0  0  0  0
   -2.5352    5.8425   -1.9363 N   0  0  0  0  0  0  0  0  0  0  0  0
   -2.5452    7.2235   -2.0232 C   0  0  0  0  0  0  0  0  0  0  0  0
   -2.0252    7.7891   -2.9877 O   0  0  0  0  0  0  0  0  0  0  0  0
   -3.1949    8.0520   -0.9455 C   0  0  0  0  0  0  0  0  0  0  0  0
    3.3820   -0.1050   -0.0117 H   0  0  0  0  0  0  0  0  0  0  0  0
   -1.7939   -3.2073   -0.0827 H   0  0  0  0  0  0  0  0  0  0  0  0
   -0.2103   -4.5471   -1.8582 H   0  0  0  0  0  0  0  0  0  0  0  0
    1.8797   -5.8592   -1.9023 H   0  0  0  0  0  0  0  0  0  0  0  0
    3.5466   -5.6265   -0.0855 H   0  0  0  0  0  0  0  0  0  0  0  0
    3.0919   -4.0984    1.8181 H   0  0  0  0  0  0  0  0  0  0  0  0
    0.9885   -2.8299    1.9096 H   0  0  0  0  0  0  0  0  0  0  0  0
   -4.1068    0.7840    0.1068 H   0  0  0  0  0  0  0  0  0  0  0  0
   -2.4212    3.1228   -1.8632 H   0  0  0  0  0  0  0  0  0  0  0  0
   -3.8977    6.4997    0.4041 H   0  0  0  0  0  0  0  0  0  0  0  0
   -4.7642    5.1766    2.0029 H   0  0  0  0  0  0  0  0  0  0  0  0
   -4.5629    2.7186    1.8850 H   0  0  0  0  0  0  0  0  0  0  0  0
   -2.0548    5.4106   -2.7219 H   0  0  0  0  0  0  0  0  0  0  0  0
   -4.2655    7.8142   -0.9102 H   0  0  0  0  0  0  0  0  0  0  0  0
   -2.6668    7.8840    0.0015 H   0  0  0  0  0  0  0  0  0  0  0  0
   -3.1373    9.1228   -1.1291 H   0  0  0  0  0  0  0  0  0  0  0  0
  1  2  2  0  0  0  0
  1  5  1  0  0  0  0
  2  3  1  0  0  0  0
  2 30  1  0  0  0  0
  3 24  1  0  0  0  0
  3  4  2  0  0  0  0
  4  6  1  0  0  0  0
  4  5  1  0  0  0  0
  5  9  1  0  0  0  0
  6  7  2  0  0  0  0
  7 17  1  0  0  0  0
  7  8  1  0  0  0  0
  8  9  2  0  0  0  0
  9 10  1  0  0  0  0
 10 11  1  0  0  0  0
 10 31  1  0  0  0  0
 11 16  2  0  0  0  0
 11 12  1  0  0  0  0
 12 13  2  0  0  0  0
 12 32  1  0  0  0  0
 13 14  1  0  0  0  0
 13 33  1  0  0  0  0
 14 15  2  0  0  0  0
 14 34  1  0  0  0  0
 15 16  1  0  0  0  0
 15 35  1  0  0  0  0
 16 36  1  0  0  0  0
 17 18  1  0  0  0  0
 17 37  1  0  0  0  0
 18 19  2  0  0  0  0
 18 23  1  0  0  0  0
 19 20  1  0  0  0  0
 19 38  1  0  0  0  0
 20 26  1  0  0  0  0
 20 21  2  0  0  0  0
 21 22  1  0  0  0  0
 21 39  1  0  0  0  0
 22 23  2  0  0  0  0
 22 40  1  0  0  0  0
 23 41  1  0  0  0  0
 24 25  3  0  0  0  0
 26 27  1  0  0  0  0
 26 42  1  0  0  0  0
 27 28  2  0  0  0  0
 27 29  1  0  0  0  0
 29 43  1  0  0  0  0
 29 44  1  0  0  0  0
 29 45  1  0  0  0  0
M  END
>  <DRUGBANK_ID>
DB08362

>  <COMMON_NAME>
N-(3-(8-CYANO-4-(PHENYLAMINO)PYRAZOLO[1,5-A][1,3,5]TRIAZIN-2-YLAMINO)PHENYL)ACETAMIDE

$$$$
