
 OpenBabel10282417173D

 39 39  0  0  0  0  0  0  0  0999 V2000
   -1.0967    0.9409    0.0974 C   0  0  0  0  0  0  0  0  0  0  0  0
    0.3548    1.2019    0.0002 C   0  0  0  0  0  0  0  0  0  0  0  0
   -1.4103   -0.7317   -0.0251 S   0  0  0  0  0  0  0  0  0  0  0  0
    1.1921    2.3910   -0.0026 N   0  0  0  0  0  0  0  0  0  0  0  0
    1.0949   -0.0737   -0.0185 C   0  0  0  0  0  0  0  0  0  0  0  0
    0.8988    3.7405   -0.0205 C   0  0  0  0  0  0  0  0  0  0  0  0
   -2.3291    1.7780    0.2971 C   0  0  0  0  0  0  0  0  0  0  0  0
    0.2280   -1.1420   -0.0212 C   0  0  0  0  0  0  0  0  0  0  0  0
    1.7650    4.6167    0.0022 O   0  0  0  0  0  0  0  0  0  0  0  0
   -2.2966    3.0029    0.2865 O   0  0  0  0  0  0  0  0  0  0  0  0
   -0.5462    4.0808   -0.0249 C   0  0  3  0  0  0  0  0  0  0  0  0
   -3.6643    1.4844    0.5424 O   0  0  0  0  0  0  0  0  0  0  0  0
   -1.0559    3.4870   -1.5433 N   0  0  0  0  0  0  0  0  0  0  0  0
    2.5943   -0.2861   -0.0060 C   0  0  0  0  0  0  0  0  0  0  0  0
   -2.5307    3.5362   -1.9185 C   0  0  0  0  0  0  0  0  0  0  0  0
   -0.8754    3.5981    1.6930 C   0  0  0  0  0  0  0  0  0  0  0  0
   -4.4487    2.8305    0.5908 C   0  0  0  0  0  0  0  0  0  0  0  0
   -3.1388    4.8994   -1.5831 C   0  0  0  0  0  0  0  0  0  0  0  0
   -2.6623    5.7462   -2.7109 C   0  0  0  0  0  0  0  0  0  0  0  0
    2.2022    2.2661   -0.0084 H   0  0  0  0  0  0  0  0  0  0  0  0
    0.4867   -2.1887   -0.0174 H   0  0  0  0  0  0  0  0  0  0  0  0
   -0.7523    5.1493   -0.0574 H   0  0  0  0  0  0  0  0  0  0  0  0
   -0.5446    4.0151   -2.2512 H   0  0  0  0  0  0  0  0  0  0  0  0
    3.0765    0.1459   -0.8890 H   0  0  0  0  0  0  0  0  0  0  0  0
    3.0544    0.1393    0.8934 H   0  0  0  0  0  0  0  0  0  0  0  0
    2.8333   -1.3593   -0.0035 H   0  0  0  0  0  0  0  0  0  0  0  0
   -2.7635    3.2036   -2.9467 H   0  0  0  0  0  0  0  0  0  0  0  0
   -3.1185    2.7115   -1.5221 H   0  0  0  0  0  0  0  0  0  0  0  0
   -0.3792    4.1901    2.4524 H   0  0  0  0  0  0  0  0  0  0  0  0
   -1.9366    3.6646    2.0186 H   0  0  0  0  0  0  0  0  0  0  0  0
   -0.6046    2.5445    1.9016 H   0  0  0  0  0  0  0  0  0  0  0  0
   -4.0318    3.6281    1.2642 H   0  0  0  0  0  0  0  0  0  0  0  0
   -4.3887    3.3257   -0.3753 H   0  0  0  0  0  0  0  0  0  0  0  0
   -5.5213    2.7248    0.6379 H   0  0  0  0  0  0  0  0  0  0  0  0
   -4.2369    4.9320   -1.5572 H   0  0  0  0  0  0  0  0  0  0  0  0
   -2.8286    5.2830   -0.6010 H   0  0  0  0  0  0  0  0  0  0  0  0
   -3.0271    5.2662   -3.6254 H   0  0  0  0  0  0  0  0  0  0  0  0
   -3.0441    6.7553   -2.6279 H   0  0  0  0  0  0  0  0  0  0  0  0
   -1.5708    5.7530   -2.7173 H   0  0  0  0  0  0  0  0  0  0  0  0
  2  1  2  0  0  0  0
  3  1  1  0  0  0  0
  4  2  1  0  0  0  0
  4 20  1  0  0  0  0
  5  2  1  0  0  0  0
  5  8  2  0  0  0  0
  6  4  1  0  0  0  0
  7  1  1  0  0  0  0
  8  3  1  0  0  0  0
  8 21  1  0  0  0  0
  9  6  2  0  0  0  0
 10  7  2  0  0  0  0
 11  6  1  0  0  0  0
 11 22  1  0  0  0  0
 12  7  1  0  0  0  0
 13 11  1  0  0  0  0
 13 23  1  0  0  0  0
 14  5  1  0  0  0  0
 14 24  1  0  0  0  0
 14 25  1  0  0  0  0
 14 26  1  0  0  0  0
 15 13  1  0  0  0  0
 15 27  1  0  0  0  0
 15 28  1  0  0  0  0
 16 11  1  0  0  0  0
 16 29  1  0  0  0  0
 16 30  1  0  0  0  0
 16 31  1  0  0  0  0
 17 12  1  0  0  0  0
 17 32  1  0  0  0  0
 17 33  1  0  0  0  0
 17 34  1  0  0  0  0
 18 15  1  0  0  0  0
 18 35  1  0  0  0  0
 18 36  1  0  0  0  0
 19 18  1  0  0  0  0
 19 37  1  0  0  0  0
 19 38  1  0  0  0  0
 19 39  1  0  0  0  0
M  END
>  <DRUGBANK_ID>
DB09009

>  <COMMON_NAME>
Articaine

>  <CAS_NUMBER>
23964-58-1

>  <UNII>
D3SQ406G9X

>  <SYNONYMS>
Artica√≠na; Articaine; Articainum

$$$$
