
 OpenBabel10282417153D

166172  0  0  1  0  0  0  0  0999 V2000
    0.4659   -5.6992    5.7706 O   0  0  0  0  0  0  0  0  0  0  0  0
    2.2972   -5.4819    3.1870 O   0  0  0  0  0  0  0  0  0  0  0  0
    3.3542   -2.7708    2.5290 O   0  0  0  0  0  0  0  0  0  0  0  0
    1.0941   -3.0835    0.9864 O   0  0  0  0  0  0  0  0  0  0  0  0
   -0.7882   -2.2413    5.8156 O   0  0  0  0  0  0  0  0  0  0  0  0
    3.8958    0.7547    5.0909 O   0  0  0  0  0  0  0  0  0  0  0  0
    0.9226    1.3409    5.2345 O   0  0  0  0  0  0  0  0  0  0  0  0
    3.9854    1.0521   -0.1972 O   0  0  0  0  0  0  0  0  0  0  0  0
    2.9600   -6.6123    1.1470 O   0  0  0  0  0  0  0  0  0  0  0  0
    3.1168   -2.1760    4.3253 O   0  0  0  0  0  0  0  0  0  0  0  0
    6.0050    0.6851    5.8045 O   0  0  0  0  0  0  0  0  0  0  0  0
    3.5362    2.9204   -1.1981 O   0  0  0  0  0  0  0  0  0  0  0  0
    1.3257    3.1632    0.6407 O   0  0  0  0  0  0  0  0  0  0  0  0
    0.3996    4.9392    1.6554 O   0  0  0  0  0  0  0  0  0  0  0  0
   -2.7685   -0.7786    1.2556 O   0  0  0  0  0  0  0  0  0  0  0  0
   -0.7857    0.0769    0.6201 N   0  0  0  0  0  0  0  0  0  0  0  0
    1.4030   -3.2326    4.0531 C   0  0  2  0  0  0  0  0  0  0  0  0
    1.4159   -4.6216    4.2985 C   0  0  2  0  0  0  0  0  0  0  0  0
    1.2727   -1.4226    5.3031 C   0  0  1  0  0  0  0  0  0  0  0  0
    0.8282   -4.3330    5.9297 C   0  0  1  0  0  0  0  0  0  0  0  0
    2.1854   -2.9973    2.1735 C   0  0  1  0  0  0  0  0  0  0  0  0
    1.6646   -1.4737    1.2596 C   0  0  2  0  0  0  0  0  0  0  0  0
    0.3943   -1.8965    6.3992 C   0  0  2  0  0  0  0  0  0  0  0  0
    1.2859   -3.1287    6.6954 C   0  0  0  0  0  0  0  0  0  0  0  0
    1.0880    0.2691    2.3502 C   0  0  0  0  0  0  0  0  0  0  0  0
    0.0315   -5.1547    4.3986 C   0  0  0  0  0  0  0  0  0  0  0  0
    1.5462    0.3158    4.9347 C   0  0  0  0  0  0  0  0  0  0  0  0
    3.0426   -1.3462    0.2748 C   0  0  0  0  0  0  0  0  0  0  0  0
    2.5762    0.5675    2.8355 C   0  0  0  0  0  0  0  0  0  0  0  0
    1.8133   -0.3227    6.8035 C   0  0  0  0  0  0  0  0  0  0  0  0
    2.8017    0.4782    4.2712 C   0  0  1  0  0  0  0  0  0  0  0  0
    3.3957    0.1090    0.5729 C   0  0  1  0  0  0  0  0  0  0  0  0
    3.5274    0.1733    1.9480 C   0  0  0  0  0  0  0  0  0  0  0  0
    0.8988    1.9416    2.3758 C   0  0  0  0  0  0  0  0  0  0  0  0
   -0.6067    1.3009    2.8043 C   0  0  0  0  0  0  0  0  0  0  0  0
    4.5754   -0.8010    2.0203 C   0  0  0  0  0  0  0  0  0  0  0  0
    2.0539   -6.2956    1.9475 C   0  0  0  0  0  0  0  0  0  0  0  0
    2.4998   -1.9814    3.2358 C   0  0  0  0  0  0  0  0  0  0  0  0
    0.7279   -6.9605    1.6750 C   0  0  0  0  0  0  0  0  0  0  0  0
    5.1347    0.2270    5.0889 C   0  0  0  0  0  0  0  0  0  0  0  0
    3.0294    1.9856   -0.5813 C   0  0  0  0  0  0  0  0  0  0  0  0
    0.3866   -1.8556    2.9416 C   0  0  0  0  0  0  0  0  0  0  0  0
    1.2292    1.8766   -0.1132 C   0  0  1  0  0  0  0  0  0  0  0  0
    5.5989   -0.6068    4.0250 C   0  0  0  0  0  0  0  0  0  0  0  0
   -0.6461   -2.9898    2.4990 C   0  0  0  0  0  0  0  0  0  0  0  0
   -0.4111   -1.0288    3.5886 C   0  0  0  0  0  0  0  0  0  0  0  0
    0.5672    0.5212   -0.0281 C   0  0  2  0  0  0  0  0  0  0  0  0
   -2.0069   -3.1439    2.7226 C   0  0  0  0  0  0  0  0  0  0  0  0
   -1.7685   -1.1355    3.9277 C   0  0  0  0  0  0  0  0  0  0  0  0
   -2.5409   -2.1737    3.4877 C   0  0  0  0  0  0  0  0  0  0  0  0
    0.8990   -0.0735   -1.3097 C   0  0  0  0  0  0  0  0  0  0  0  0
    0.5229    4.2554    0.6470 C   0  0  0  0  0  0  0  0  0  0  0  0
    2.1463   -0.3494   -1.8513 C   0  0  0  0  0  0  0  0  0  0  0  0
   -0.1238   -0.3325   -2.0793 C   0  0  0  0  0  0  0  0  0  0  0  0
   -1.7893   -0.8754    0.5273 C   0  0  0  0  0  0  0  0  0  0  0  0
   -0.1351    4.5784   -0.6522 C   0  0  0  0  0  0  0  0  0  0  0  0
    2.4806   -1.2777   -2.7819 C   0  0  0  0  0  0  0  0  0  0  0  0
    0.2041   -1.3853   -2.8837 C   0  0  0  0  0  0  0  0  0  0  0  0
   -1.6001   -2.0771   -0.3369 C   0  0  0  0  0  0  0  0  0  0  0  0
    0.9104    4.6114   -1.7437 C   0  0  0  0  0  0  0  0  0  0  0  0
    1.4460   -1.9396   -3.2501 C   0  0  0  0  0  0  0  0  0  0  0  0
   -0.3106   -2.5065   -0.4603 C   0  0  0  0  0  0  0  0  0  0  0  0
   -2.3039   -2.4351   -1.4438 C   0  0  0  0  0  0  0  0  0  0  0  0
    1.2239    3.2701   -2.1168 C   0  0  0  0  0  0  0  0  0  0  0  0
    0.4706   -3.5973   -1.3220 C   0  0  0  0  0  0  0  0  0  0  0  0
   -1.7541   -3.4790   -2.4430 C   0  0  0  0  0  0  0  0  0  0  0  0
    1.3022    2.3082   -2.9873 C   0  0  0  0  0  0  0  0  0  0  0  0
   -0.3318   -4.0872   -2.3837 C   0  0  0  0  0  0  0  0  0  0  0  0
    0.9045    2.8065   -4.2284 C   0  0  0  0  0  0  0  0  0  0  0  0
    2.0467    2.6789   -5.1306 C   0  0  0  0  0  0  0  0  0  0  0  0
    1.8368    2.0199   -6.2593 C   0  0  0  0  0  0  0  0  0  0  0  0
    0.5236    1.3701   -6.5130 C   0  0  0  0  0  0  0  0  0  0  0  0
   -0.1343    1.9385   -7.7109 C   0  0  0  0  0  0  0  0  0  0  0  0
   -0.4601    1.1610   -8.7428 C   0  0  0  0  0  0  0  0  0  0  0  0
   -0.1700   -0.2975   -8.7347 C   0  0  0  0  0  0  0  0  0  0  0  0
   -1.4018   -1.1081   -8.9267 C   0  0  0  0  0  0  0  0  0  0  0  0
   -1.5127   -1.9764   -9.9342 C   0  0  0  0  0  0  0  0  0  0  0  0
   -0.4177   -2.1620  -10.9243 C   0  0  0  0  0  0  0  0  0  0  0  0
    0.0468   -3.5740  -10.9815 C   0  0  0  0  0  0  0  0  0  0  0  0
    0.0237   -4.2699  -12.1207 C   0  0  0  0  0  0  0  0  0  0  0  0
   -0.4866   -3.6785  -13.3888 C   0  0  0  0  0  0  0  0  0  0  0  0
    0.5300   -3.7261  -14.4741 C   0  0  0  0  0  0  0  0  0  0  0  0
    0.3002   -4.3568  -15.6317 C   0  0  0  0  0  0  0  0  0  0  0  0
   -0.9881   -5.0678  -15.9309 C   0  0  0  0  0  0  0  0  0  0  0  0
   -1.6882   -4.4480  -17.1139 C   0  0  0  0  0  0  0  0  0  0  0  0
    0.9651   -3.6506    3.0897 H   0  0  0  0  0  0  0  0  0  0  0  0
   -0.2195   -4.0835    6.3654 H   0  0  0  0  0  0  0  0  0  0  0  0
    0.3288   -3.6467    0.6642 H   0  0  0  0  0  0  0  0  0  0  0  0
   -0.4389   -2.5076    4.9652 H   0  0  0  0  0  0  0  0  0  0  0  0
   -0.7798    0.0008    1.6182 H   0  0  0  0  0  0  0  0  0  0  0  0
    2.5539   -3.8528    1.2857 H   0  0  0  0  0  0  0  0  0  0  0  0
   -0.0471   -1.1961    7.1412 H   0  0  0  0  0  0  0  0  0  0  0  0
    2.0126   -2.9933    7.4787 H   0  0  0  0  0  0  0  0  0  0  0  0
    2.1174   -3.0089    6.0079 H   0  0  0  0  0  0  0  0  0  0  0  0
   -0.9654   -5.2420    3.9756 H   0  0  0  0  0  0  0  0  0  0  0  0
   -0.4084   -4.1200    4.4199 H   0  0  0  0  0  0  0  0  0  0  0  0
    3.3367   -1.5986   -0.7461 H   0  0  0  0  0  0  0  0  0  0  0  0
    3.6883   -2.2432    0.4322 H   0  0  0  0  0  0  0  0  0  0  0  0
    1.0201    0.5504    7.0180 H   0  0  0  0  0  0  0  0  0  0  0  0
    1.7092   -0.6501    7.8500 H   0  0  0  0  0  0  0  0  0  0  0  0
    2.6620    0.4151    6.8258 H   0  0  0  0  0  0  0  0  0  0  0  0
    2.8595   -0.5199    4.3150 H   0  0  0  0  0  0  0  0  0  0  0  0
    2.6477    0.7713    0.8201 H   0  0  0  0  0  0  0  0  0  0  0  0
    1.6995    2.6501    2.4049 H   0  0  0  0  0  0  0  0  0  0  0  0
   -0.0106    2.2835    1.4621 H   0  0  0  0  0  0  0  0  0  0  0  0
    0.6575    2.4262    3.5104 H   0  0  0  0  0  0  0  0  0  0  0  0
   -0.7622    2.6707    2.7891 H   0  0  0  0  0  0  0  0  0  0  0  0
   -1.5217    1.3028    2.1763 H   0  0  0  0  0  0  0  0  0  0  0  0
   -0.9373    1.2094    3.8172 H   0  0  0  0  0  0  0  0  0  0  0  0
    4.8173   -1.8221    1.7294 H   0  0  0  0  0  0  0  0  0  0  0  0
    5.4414   -0.2511    1.7720 H   0  0  0  0  0  0  0  0  0  0  0  0
    4.1311   -1.0147    2.9467 H   0  0  0  0  0  0  0  0  0  0  0  0
    0.3875   -7.3048    2.6363 H   0  0  0  0  0  0  0  0  0  0  0  0
    0.0209   -6.3244    1.1399 H   0  0  0  0  0  0  0  0  0  0  0  0
    0.8326   -7.8789    1.0411 H   0  0  0  0  0  0  0  0  0  0  0  0
    0.3109    2.0786   -0.7049 H   0  0  0  0  0  0  0  0  0  0  0  0
    5.1833   -1.6442    4.0209 H   0  0  0  0  0  0  0  0  0  0  0  0
    5.2382    0.2945    3.4291 H   0  0  0  0  0  0  0  0  0  0  0  0
    6.5014   -0.7230    3.4271 H   0  0  0  0  0  0  0  0  0  0  0  0
   -0.3955   -4.0308    2.1721 H   0  0  0  0  0  0  0  0  0  0  0  0
   -0.0275   -0.2169    4.1119 H   0  0  0  0  0  0  0  0  0  0  0  0
    1.2701    0.0672    0.5185 H   0  0  0  0  0  0  0  0  0  0  0  0
   -2.5162   -4.0417    2.3801 H   0  0  0  0  0  0  0  0  0  0  0  0
   -2.0528   -0.5594    4.8139 H   0  0  0  0  0  0  0  0  0  0  0  0
   -3.5870   -2.1107    3.6727 H   0  0  0  0  0  0  0  0  0  0  0  0
    3.0354    0.1232   -1.5669 H   0  0  0  0  0  0  0  0  0  0  0  0
   -1.0564   -0.2218   -1.5295 H   0  0  0  0  0  0  0  0  0  0  0  0
   -0.9629    3.8818   -0.8335 H   0  0  0  0  0  0  0  0  0  0  0  0
   -0.4873    5.5987   -0.5621 H   0  0  0  0  0  0  0  0  0  0  0  0
    3.5136   -1.5460   -2.9072 H   0  0  0  0  0  0  0  0  0  0  0  0
   -0.4113   -2.0916   -2.4487 H   0  0  0  0  0  0  0  0  0  0  0  0
    0.6251    5.0705   -2.6521 H   0  0  0  0  0  0  0  0  0  0  0  0
    1.8651    4.9998   -1.3339 H   0  0  0  0  0  0  0  0  0  0  0  0
    1.6636   -2.9660   -3.5418 H   0  0  0  0  0  0  0  0  0  0  0  0
    0.1381   -1.8236    0.2584 H   0  0  0  0  0  0  0  0  0  0  0  0
   -2.9448   -1.5740   -1.7367 H   0  0  0  0  0  0  0  0  0  0  0  0
    1.6865    3.1670   -1.2355 H   0  0  0  0  0  0  0  0  0  0  0  0
    1.6395   -3.6966   -1.2548 H   0  0  0  0  0  0  0  0  0  0  0  0
   -2.2986   -3.4954   -3.4106 H   0  0  0  0  0  0  0  0  0  0  0  0
    1.7293    1.3311   -2.9329 H   0  0  0  0  0  0  0  0  0  0  0  0
    0.1750   -4.4337   -3.3407 H   0  0  0  0  0  0  0  0  0  0  0  0
   -0.0196    2.2660   -4.3315 H   0  0  0  0  0  0  0  0  0  0  0  0
    0.6455    3.8441   -4.1387 H   0  0  0  0  0  0  0  0  0  0  0  0
    3.0018    3.1389   -4.8725 H   0  0  0  0  0  0  0  0  0  0  0  0
    2.6317    1.9481   -6.9846 H   0  0  0  0  0  0  0  0  0  0  0  0
    0.7367    0.3095   -6.4985 H   0  0  0  0  0  0  0  0  0  0  0  0
   -0.2422    1.4140   -5.7462 H   0  0  0  0  0  0  0  0  0  0  0  0
   -0.3689    3.0004   -7.7191 H   0  0  0  0  0  0  0  0  0  0  0  0
   -0.9120    1.5967   -9.6287 H   0  0  0  0  0  0  0  0  0  0  0  0
    0.6221   -0.4280   -9.4627 H   0  0  0  0  0  0  0  0  0  0  0  0
    0.2920   -0.7027   -7.8414 H   0  0  0  0  0  0  0  0  0  0  0  0
   -2.2069   -1.0018   -8.2038 H   0  0  0  0  0  0  0  0  0  0  0  0
   -2.4315   -2.5416  -10.0708 H   0  0  0  0  0  0  0  0  0  0  0  0
   -0.7978   -1.7354  -11.8456 H   0  0  0  0  0  0  0  0  0  0  0  0
    0.4828   -1.5777  -10.7719 H   0  0  0  0  0  0  0  0  0  0  0  0
    0.4439   -4.0229  -10.0739 H   0  0  0  0  0  0  0  0  0  0  0  0
    0.3500   -5.3072  -12.1344 H   0  0  0  0  0  0  0  0  0  0  0  0
   -1.4222   -4.1888  -13.5861 H   0  0  0  0  0  0  0  0  0  0  0  0
   -0.8085   -2.6434  -13.3437 H   0  0  0  0  0  0  0  0  0  0  0  0
    1.4673   -3.1926  -14.3106 H   0  0  0  0  0  0  0  0  0  0  0  0
    1.0712   -4.3537  -16.3987 H   0  0  0  0  0  0  0  0  0  0  0  0
   -0.7945   -6.1309  -16.0787 H   0  0  0  0  0  0  0  0  0  0  0  0
   -1.7082   -5.0313  -15.1169 H   0  0  0  0  0  0  0  0  0  0  0  0
   -1.0756   -4.5577  -18.0094 H   0  0  0  0  0  0  0  0  0  0  0  0
   -2.6481   -4.9482  -17.2715 H   0  0  0  0  0  0  0  0  0  0  0  0
   -1.8854   -3.3833  -16.9409 H   0  0  0  0  0  0  0  0  0  0  0  0
  1 20  1  0  0  0  0
  1 26  1  0  0  0  0
  2 37  1  0  0  0  0
  3 38  1  0  0  0  0
  4 88  1  0  0  0  0
  5 89  1  0  0  0  0
  6 40  1  0  0  0  0
  7 27  2  0  0  0  0
  8 41  1  0  0  0  0
  9 37  2  0  0  0  0
 10 38  2  0  0  0  0
 11 40  2  0  0  0  0
 12 41  2  0  0  0  0
 13 52  1  0  0  0  0
 14 52  2  0  0  0  0
 15 55  2  0  0  0  0
 16 55  1  0  0  0  0
 16 90  1  0  0  0  0
 17 18  1  0  0  0  0
 17 19  1  0  0  0  0
 17 21  1  0  0  0  0
 17 86  1  1  0  0  0
 18 20  1  0  0  0  0
 18 26  1  0  0  0  0
 18  2  1  6  0  0  0
 19 23  1  0  0  0  0
 19 27  1  0  0  0  0
 19 30  1  6  0  0  0
 20 24  1  0  0  0  0
 20 87  1  1  0  0  0
 21 22  1  0  0  0  0
 21 91  1  6  0  0  0
 21  3  1  0  0  0  0
 22 25  1  0  0  0  0
 22 28  1  0  0  0  0
 22  4  1  6  0  0  0
 23 24  1  0  0  0  0
 23 92  1  1  0  0  0
 23  5  1  0  0  0  0
 24 93  1  0  0  0  0
 24 94  1  0  0  0  0
 25 29  1  0  0  0  0
 25 34  1  0  0  0  0
 25 35  1  0  0  0  0
 26 95  1  0  0  0  0
 26 96  1  0  0  0  0
 27 31  1  0  0  0  0
 28 32  1  0  0  0  0
 28 97  1  0  0  0  0
 28 98  1  0  0  0  0
 29 31  1  0  0  0  0
 29 33  2  0  0  0  0
 30 99  1  0  0  0  0
 30100  1  0  0  0  0
 30101  1  0  0  0  0
 31  6  1  0  0  0  0
 31102  1  6  0  0  0
 32 33  1  0  0  0  0
 32  8  1  0  0  0  0
 32103  1  6  0  0  0
 33 36  1  0  0  0  0
 34104  1  0  0  0  0
 34105  1  0  0  0  0
 34106  1  0  0  0  0
 35107  1  0  0  0  0
 35108  1  0  0  0  0
 35109  1  0  0  0  0
 36110  1  0  0  0  0
 36111  1  0  0  0  0
 36112  1  0  0  0  0
 37 39  1  0  0  0  0
 38 42  1  0  0  0  0
 39113  1  0  0  0  0
 39114  1  0  0  0  0
 39115  1  0  0  0  0
 40 44  1  0  0  0  0
 42 45  2  0  0  0  0
 42 46  1  0  0  0  0
 43 47  1  0  0  0  0
 43116  1  6  0  0  0
 43 41  1  0  0  0  0
 43 13  1  0  0  0  0
 44117  1  0  0  0  0
 44118  1  0  0  0  0
 44119  1  0  0  0  0
 45 48  1  0  0  0  0
 45120  1  0  0  0  0
 46 49  2  0  0  0  0
 46121  1  0  0  0  0
 47 16  1  0  0  0  0
 47 51  1  0  0  0  0
 47122  1  1  0  0  0
 48 50  2  0  0  0  0
 48123  1  0  0  0  0
 49 50  1  0  0  0  0
 49124  1  0  0  0  0
 50125  1  0  0  0  0
 51 53  2  0  0  0  0
 51 54  1  0  0  0  0
 52 56  1  0  0  0  0
 53 57  1  0  0  0  0
 53126  1  0  0  0  0
 54 58  2  0  0  0  0
 54127  1  0  0  0  0
 55 59  1  0  0  0  0
 56 60  1  0  0  0  0
 56128  1  0  0  0  0
 56129  1  0  0  0  0
 57 61  2  0  0  0  0
 57130  1  0  0  0  0
 58 61  1  0  0  0  0
 58131  1  0  0  0  0
 59 62  2  0  0  0  0
 59 63  1  0  0  0  0
 60 64  1  0  0  0  0
 60132  1  0  0  0  0
 60133  1  0  0  0  0
 61134  1  0  0  0  0
 62 65  1  0  0  0  0
 62135  1  0  0  0  0
 63 66  2  0  0  0  0
 63136  1  0  0  0  0
 64 67  2  0  0  0  0
 64137  1  0  0  0  0
 65 68  2  0  0  0  0
 65138  1  0  0  0  0
 66 68  1  0  0  0  0
 66139  1  0  0  0  0
 67 69  1  0  0  0  0
 67140  1  0  0  0  0
 68141  1  0  0  0  0
 69 70  1  0  0  0  0
 69142  1  0  0  0  0
 69143  1  0  0  0  0
 70 71  2  0  0  0  0
 70144  1  0  0  0  0
 71 72  1  0  0  0  0
 71145  1  0  0  0  0
 72 73  1  0  0  0  0
 72146  1  0  0  0  0
 72147  1  0  0  0  0
 73 74  2  0  0  0  0
 73148  1  0  0  0  0
 74 75  1  0  0  0  0
 74149  1  0  0  0  0
 75 76  1  0  0  0  0
 75150  1  0  0  0  0
 75151  1  0  0  0  0
 76 77  2  0  0  0  0
 76152  1  0  0  0  0
 77 78  1  0  0  0  0
 77153  1  0  0  0  0
 78 79  1  0  0  0  0
 78154  1  0  0  0  0
 78155  1  0  0  0  0
 79 80  2  0  0  0  0
 79156  1  0  0  0  0
 80 81  1  0  0  0  0
 80157  1  0  0  0  0
 81 82  1  0  0  0  0
 81158  1  0  0  0  0
 81159  1  0  0  0  0
 82 83  2  0  0  0  0
 82160  1  0  0  0  0
 83 84  1  0  0  0  0
 83161  1  0  0  0  0
 84 85  1  0  0  0  0
 84162  1  0  0  0  0
 84163  1  0  0  0  0
 85164  1  0  0  0  0
 85165  1  0  0  0  0
 85166  1  0  0  0  0
M  END
>  <DRUGBANK_ID>
DB05297

>  <COMMON_NAME>
Paclitaxel docosahexaenoic acid

>  <CAS_NUMBER>
199796-52-6

>  <UNII>
OJE5810C4F

>  <SYNONYMS>
DHA Paclitaxel; DHA-paclitaxel; Paclitaxel 2'-(all-cis-4,7,10,13,16,19-docosahexaenoate); Paclitaxel docosahexaenoic acid ester; PACLITAXEL-DHA

$$$$
