1445
 OpenBabel10282417113D

 31 32  0  0  0  0  0  0  0  0999 V2000
    3.1910   -0.5884    0.0464 O   0  0  0  0  0  0  0  0  0  0  0  0
   -4.0598   -3.0114    1.3584 N   0  0  0  0  0  0  0  0  0  0  0  0
   -2.0301    0.9037   -0.1885 N   0  0  0  0  0  0  0  0  0  0  0  0
   -1.9202   -2.8104   -0.1355 C   0  0  0  0  0  0  0  0  0  0  0  0
   -1.6801   -1.3035   -0.2389 C   0  0  0  0  0  0  0  0  0  0  0  0
   -0.4287   -0.6289   -0.0879 C   0  0  0  0  0  0  0  0  0  0  0  0
   -2.6339   -3.3753    1.1560 C   0  0  0  0  0  0  0  0  0  0  0  0
   -0.6729    0.7438   -0.0790 C   0  0  0  0  0  0  0  0  0  0  0  0
   -2.5490   -0.2879   -0.6286 C   0  0  0  0  0  0  0  0  0  0  0  0
    0.8980   -1.0721    0.0138 C   0  0  0  0  0  0  0  0  0  0  0  0
    0.3232    1.7126    0.0165 C   0  0  0  0  0  0  0  0  0  0  0  0
    1.9094   -0.1183    0.0428 C   0  0  0  0  0  0  0  0  0  0  0  0
   -4.7001   -3.6318    2.5084 C   0  0  0  0  0  0  0  0  0  0  0  0
   -4.1836   -1.5844    1.5662 C   0  0  0  0  0  0  0  0  0  0  0  0
    1.6394    1.2481    0.0435 C   0  0  0  0  0  0  0  0  0  0  0  0
    3.7908    0.1722    0.0167 H   0  0  0  0  0  0  0  0  0  0  0  0
   -2.5315    1.7690   -0.0946 H   0  0  0  0  0  0  0  0  0  0  0  0
   -2.4428   -3.1626   -1.0317 H   0  0  0  0  0  0  0  0  0  0  0  0
   -0.9343   -3.2997   -0.1622 H   0  0  0  0  0  0  0  0  0  0  0  0
   -2.5875   -4.4726    1.0722 H   0  0  0  0  0  0  0  0  0  0  0  0
   -2.0392   -3.1170    2.0429 H   0  0  0  0  0  0  0  0  0  0  0  0
   -3.5822   -0.2968   -0.9611 H   0  0  0  0  0  0  0  0  0  0  0  0
    1.1343   -2.1291   -0.0119 H   0  0  0  0  0  0  0  0  0  0  0  0
    0.0884    2.7706    0.0081 H   0  0  0  0  0  0  0  0  0  0  0  0
   -4.2160   -3.3479    3.4489 H   0  0  0  0  0  0  0  0  0  0  0  0
   -5.7412   -3.2788    2.5533 H   0  0  0  0  0  0  0  0  0  0  0  0
   -4.7430   -4.7178    2.4197 H   0  0  0  0  0  0  0  0  0  0  0  0
   -3.5347   -1.1812    2.3518 H   0  0  0  0  0  0  0  0  0  0  0  0
   -3.9180   -1.1895    0.6312 H   0  0  0  0  0  0  0  0  0  0  0  0
   -5.2027   -1.2045    1.6511 H   0  0  0  0  0  0  0  0  0  0  0  0
    2.4403    1.9784    0.0519 H   0  0  0  0  0  0  0  0  0  0  0  0
  1 12  1  0  0  0  0
  1 16  1  0  0  0  0
  2  7  1  0  0  0  0
  2 13  1  0  0  0  0
  2 14  1  0  0  0  0
  3  8  1  0  0  0  0
  3  9  1  0  0  0  0
  3 17  1  0  0  0  0
  4  5  1  0  0  0  0
  4  7  1  0  0  0  0
  4 18  1  0  0  0  0
  4 19  1  0  0  0  0
  5  6  1  0  0  0  0
  5  9  2  0  0  0  0
  6  8  2  0  0  0  0
  6 10  1  0  0  0  0
  7 20  1  0  0  0  0
  7 21  1  0  0  0  0
  8 11  1  0  0  0  0
  9 22  1  0  0  0  0
 10 12  2  0  0  0  0
 10 23  1  0  0  0  0
 11 15  2  0  0  0  0
 11 24  1  0  0  0  0
 12 15  1  0  0  0  0
 13 25  1  0  0  0  0
 13 26  1  0  0  0  0
 13 27  1  0  0  0  0
 14 28  1  0  0  0  0
 14 29  1  0  0  0  0
 14 30  1  0  0  0  0
 15 31  1  0  0  0  0
M  END
>  <DRUGBANK_ID>
DB01445

>  <COMMON_NAME>
Bufotenine

>  <CAS_NUMBER>
487-93-4

>  <UNII>
0A31347TZK

>  <SYNONYMS>
3-[2-(dimethylamino)ethyl]-5-indolol; 3-[2-(dimethylamino)ethyl]indol-5-ol; 3-[Î²-(dimethylamino)ethyl]-5-hydroxyindole; 5-hydroxy-N,N-dimethyltryptamine; Bufotenin; DM5-HT; N,N-dimethylserotonin

$$$$
