
 OpenBabel10282417203D

 54 57  0  0  1  0  0  0  0  0999 V2000
    2.4946    1.1431   -1.1286 C   0  0  0  0  0  0  0  0  0  0  0  0
    1.5947    0.6238   -0.0296 C   0  0  0  0  0  0  0  0  0  0  0  0
    0.3044    1.5002    0.1007 C   0  0  1  0  0  0  0  0  0  0  0  0
   -0.7916    0.6062    0.3980 N   0  0  0  0  0  0  0  0  0  0  0  0
   -0.4559   -0.7981    0.3392 C   0  0  2  0  0  0  0  0  0  0  0  0
    1.0001   -1.0002   -0.6678 S   0  0  0  0  0  0  0  0  0  0  0  0
   -1.8226   -1.0672   -0.2448 C   0  0  1  0  0  0  0  0  0  0  0  0
   -1.9450    0.4458   -0.3036 C   0  0  0  0  0  0  0  0  0  0  0  0
   -2.7984    1.2411   -0.6560 O   0  0  0  0  0  0  0  0  0  0  0  0
   -1.9484   -2.0092   -1.3674 N   0  0  0  0  0  0  0  0  0  0  0  0
   -2.1973   -3.3673   -1.2974 C   0  0  0  0  0  0  0  0  0  0  0  0
   -2.2256   -3.9694   -2.3798 O   0  0  0  0  0  0  0  0  0  0  0  0
   -2.4677   -4.1486    0.0306 C   0  0  3  0  0  0  0  0  0  0  0  0
   -1.3044   -4.1875    1.0462 C   0  0  0  0  0  0  0  0  0  0  0  0
   -0.4635   -5.2877    1.2468 C   0  0  0  0  0  0  0  0  0  0  0  0
    0.6856   -5.1912    2.0710 C   0  0  0  0  0  0  0  0  0  0  0  0
    1.0751   -3.9820    2.6272 C   0  0  0  0  0  0  0  0  0  0  0  0
    0.2208   -2.9251    2.4990 C   0  0  0  0  0  0  0  0  0  0  0  0
   -1.0126   -3.0978    1.8543 C   0  0  0  0  0  0  0  0  0  0  0  0
   -3.8393   -3.8593    0.6380 C   0  0  0  0  0  0  0  0  0  0  0  0
   -4.7053   -4.6992    0.8457 O   0  0  0  0  0  0  0  0  0  0  0  0
   -3.9697   -2.5132    0.9640 O   0  0  0  0  0  0  0  0  0  0  0  0
   -4.9669   -1.9199    1.7589 C   0  0  0  0  0  0  0  0  0  0  0  0
   -5.4770   -2.5994    2.8521 C   0  0  0  0  0  0  0  0  0  0  0  0
   -6.4772   -2.0015    3.6053 C   0  0  0  0  0  0  0  0  0  0  0  0
   -6.9012   -0.7052    3.3043 C   0  0  0  0  0  0  0  0  0  0  0  0
   -6.2947    0.0161    2.2740 C   0  0  0  0  0  0  0  0  0  0  0  0
   -5.3373   -0.6021    1.4725 C   0  0  0  0  0  0  0  0  0  0  0  0
    0.3553    2.6660    1.0946 C   0  0  0  0  0  0  0  0  0  0  0  0
   -0.3648    3.6515    1.0720 O   0  0  0  0  0  0  0  0  0  0  0  0
    1.2450    2.5250    2.0947 O   0  0  0  0  0  0  0  0  0  0  0  0
    2.3885    0.3442    1.2621 C   0  0  0  0  0  0  0  0  0  0  0  0
    2.8506    2.1421   -0.8755 H   0  0  0  0  0  0  0  0  0  0  0  0
    3.3594    0.4863   -1.2730 H   0  0  0  0  0  0  0  0  0  0  0  0
    1.9518    1.2039   -2.0802 H   0  0  0  0  0  0  0  0  0  0  0  0
    0.0519    1.9273   -0.8748 H   0  0  0  0  0  0  0  0  0  0  0  0
   -0.2868   -0.9923    1.3798 H   0  0  0  0  0  0  0  0  0  0  0  0
   -2.5167   -1.3406    0.5123 H   0  0  0  0  0  0  0  0  0  0  0  0
   -1.7911   -1.6792   -2.3187 H   0  0  0  0  0  0  0  0  0  0  0  0
   -2.5796   -5.1910   -0.3142 H   0  0  0  0  0  0  0  0  0  0  0  0
   -0.6984   -6.2547    0.8085 H   0  0  0  0  0  0  0  0  0  0  0  0
    1.2967   -6.0633    2.2772 H   0  0  0  0  0  0  0  0  0  0  0  0
    1.9821   -3.8466    3.2079 H   0  0  0  0  0  0  0  0  0  0  0  0
    0.5291   -1.9545    2.8851 H   0  0  0  0  0  0  0  0  0  0  0  0
   -1.7243   -2.2936    1.9579 H   0  0  0  0  0  0  0  0  0  0  0  0
   -5.1173   -3.5909    3.1034 H   0  0  0  0  0  0  0  0  0  0  0  0
   -6.9263   -2.5557    4.4231 H   0  0  0  0  0  0  0  0  0  0  0  0
   -7.7099   -0.2583    3.8754 H   0  0  0  0  0  0  0  0  0  0  0  0
   -6.5800    1.0502    2.0923 H   0  0  0  0  0  0  0  0  0  0  0  0
   -4.9098   -0.0559    0.6340 H   0  0  0  0  0  0  0  0  0  0  0  0
    1.2826    3.3573    2.6079 H   0  0  0  0  0  0  0  0  0  0  0  0
    3.1659   -0.4171    1.1420 H   0  0  0  0  0  0  0  0  0  0  0  0
    2.9351    1.2390    1.5765 H   0  0  0  0  0  0  0  0  0  0  0  0
    1.7430    0.0332    2.0947 H   0  0  0  0  0  0  0  0  0  0  0  0
  1  2  1  0  0  0  0
  1 33  1  0  0  0  0
  1 34  1  0  0  0  0
  1 35  1  0  0  0  0
  2  3  1  0  0  0  0
  2  6  1  0  0  0  0
  2 32  1  0  0  0  0
  3  4  1  0  0  0  0
  3 36  1  6  0  0  0
  3 29  1  0  0  0  0
  4  8  1  0  0  0  0
  5  4  1  0  0  0  0
  5  6  1  0  0  0  0
  5  7  1  0  0  0  0
  5 37  1  1  0  0  0
  7  8  1  0  0  0  0
  7 38  1  1  0  0  0
  7 10  1  0  0  0  0
  8  9  2  0  0  0  0
 10 11  1  0  0  0  0
 10 39  1  0  0  0  0
 11 12  2  0  0  0  0
 11 13  1  0  0  0  0
 13 14  1  0  0  0  0
 13 20  1  0  0  0  0
 13 40  1  0  0  0  0
 14 15  2  0  0  0  0
 14 19  1  0  0  0  0
 15 16  1  0  0  0  0
 15 41  1  0  0  0  0
 16 17  2  0  0  0  0
 16 42  1  0  0  0  0
 17 18  1  0  0  0  0
 17 43  1  0  0  0  0
 18 19  2  0  0  0  0
 18 44  1  0  0  0  0
 19 45  1  0  0  0  0
 20 21  2  0  0  0  0
 20 22  1  0  0  0  0
 22 23  1  0  0  0  0
 23 24  2  0  0  0  0
 23 28  1  0  0  0  0
 24 25  1  0  0  0  0
 24 46  1  0  0  0  0
 25 26  2  0  0  0  0
 25 47  1  0  0  0  0
 26 27  1  0  0  0  0
 26 48  1  0  0  0  0
 27 28  2  0  0  0  0
 27 49  1  0  0  0  0
 28 50  1  0  0  0  0
 29 30  2  0  0  0  0
 29 31  1  0  0  0  0
 31 51  1  0  0  0  0
 32 52  1  0  0  0  0
 32 53  1  0  0  0  0
 32 54  1  0  0  0  0
M  END
>  <DRUGBANK_ID>
DB13506

>  <COMMON_NAME>
Carfecillin

>  <CAS_NUMBER>
27025-49-6

>  <UNII>
9UU4XDB74X

>  <SYNONYMS>
Carbenicillin phenyl; Carfecilina; Carfecillin; Carfecilline; Carfecillinum

$$$$
