
 OpenBabel10282417233D

 53 56  0  0  0  0  0  0  0  0999 V2000
    2.2873    1.6026    0.2451 N   0  0  0  0  0  0  0  0  0  0  0  0
    1.0734    1.0034   -0.0142 C   0  0  0  0  0  0  0  0  0  0  0  0
    0.0023    1.8214   -0.1403 N   0  0  0  0  0  0  0  0  0  0  0  0
   -1.2538    1.2911   -0.1801 C   0  0  0  0  0  0  0  0  0  0  0  0
   -2.5404    2.4988   -0.5015 S   0  0  0  0  0  0  0  0  0  0  0  0
   -4.0950    1.5529   -0.8310 C   0  0  0  0  0  0  0  0  0  0  0  0
   -4.0260    0.5815   -1.9881 C   0  0  0  0  0  0  0  0  0  0  0  0
   -4.1749   -0.7990   -1.9732 C   0  0  0  0  0  0  0  0  0  0  0  0
   -3.9983   -1.4776   -3.5243 S   0  0  0  0  0  0  0  0  0  0  0  0
   -3.8868    0.1082   -4.1506 C   0  0  0  0  0  0  0  0  0  0  0  0
   -3.8424    1.0839   -3.2673 N   0  0  0  0  0  0  0  0  0  0  0  0
   -3.8307    0.2721   -5.5890 C   0  0  0  0  0  0  0  0  0  0  0  0
   -2.7449    0.9349   -6.1650 C   0  0  0  0  0  0  0  0  0  0  0  0
   -2.6958    1.1074   -7.5456 C   0  0  0  0  0  0  0  0  0  0  0  0
   -3.7330    0.6213   -8.3427 C   0  0  0  0  0  0  0  0  0  0  0  0
   -3.6849    0.8681  -10.0426 Cl  0  0  0  0  0  0  0  0  0  0  0  0
   -4.8120   -0.0551   -7.7773 C   0  0  0  0  0  0  0  0  0  0  0  0
   -4.8621   -0.2288   -6.3983 C   0  0  0  0  0  0  0  0  0  0  0  0
   -1.4336   -0.0686    0.0236 C   0  0  0  0  0  0  0  0  0  0  0  0
   -2.6451   -0.5923    0.5685 C   0  0  0  0  0  0  0  0  0  0  0  0
   -3.6167   -1.0073    1.0351 N   0  0  0  0  0  0  0  0  0  0  0  0
   -0.3374   -0.9381   -0.0486 C   0  0  0  0  0  0  0  0  0  0  0  0
   -0.5207   -2.3957   -0.0926 C   0  0  0  0  0  0  0  0  0  0  0  0
   -1.0366   -2.9999   -1.2405 C   0  0  0  0  0  0  0  0  0  0  0  0
   -1.0170   -4.3841   -1.3741 C   0  0  0  0  0  0  0  0  0  0  0  0
   -0.6691   -5.1948   -0.2983 C   0  0  0  0  0  0  0  0  0  0  0  0
   -0.9475   -6.5306   -0.2020 O   0  0  0  0  0  0  0  0  0  0  0  0
   -1.7528   -7.1304   -1.2303 C   0  0  0  0  0  0  0  0  0  0  0  0
   -3.2395   -6.7062   -1.2514 C   0  0  0  0  0  0  0  0  0  0  0  0
   -3.4986   -5.3275   -1.4844 O   0  0  0  0  0  0  0  0  0  0  0  0
   -0.1135   -4.6046    0.8328 C   0  0  0  0  0  0  0  0  0  0  0  0
   -0.0784   -3.2141    0.9528 C   0  0  0  0  0  0  0  0  0  0  0  0
    0.9452   -0.3790   -0.0546 C   0  0  0  0  0  0  0  0  0  0  0  0
    2.1161   -1.2088   -0.0335 C   0  0  0  0  0  0  0  0  0  0  0  0
    3.0711   -1.8620    0.0113 N   0  0  0  0  0  0  0  0  0  0  0  0
    3.1583    1.0874    0.2376 H   0  0  0  0  0  0  0  0  0  0  0  0
    2.3134    2.6122    0.2666 H   0  0  0  0  0  0  0  0  0  0  0  0
   -4.4179    1.0920    0.1026 H   0  0  0  0  0  0  0  0  0  0  0  0
   -4.8863    2.2844   -1.0351 H   0  0  0  0  0  0  0  0  0  0  0  0
   -4.3497   -1.4942   -1.1701 H   0  0  0  0  0  0  0  0  0  0  0  0
   -1.9406    1.3116   -5.5356 H   0  0  0  0  0  0  0  0  0  0  0  0
   -1.8512    1.6254   -7.9892 H   0  0  0  0  0  0  0  0  0  0  0  0
   -5.6165   -0.4417   -8.3958 H   0  0  0  0  0  0  0  0  0  0  0  0
   -5.7114   -0.7463   -5.9539 H   0  0  0  0  0  0  0  0  0  0  0  0
   -1.4728   -2.4164   -2.0476 H   0  0  0  0  0  0  0  0  0  0  0  0
   -1.4050   -4.7987   -2.3003 H   0  0  0  0  0  0  0  0  0  0  0  0
   -1.2568   -7.0154   -2.1999 H   0  0  0  0  0  0  0  0  0  0  0  0
   -1.7484   -8.2085   -1.0180 H   0  0  0  0  0  0  0  0  0  0  0  0
   -3.7495   -7.2413   -2.0568 H   0  0  0  0  0  0  0  0  0  0  0  0
   -3.7159   -6.9429   -0.2991 H   0  0  0  0  0  0  0  0  0  0  0  0
   -3.1435   -4.8570   -0.7062 H   0  0  0  0  0  0  0  0  0  0  0  0
    0.2970   -5.2219    1.6272 H   0  0  0  0  0  0  0  0  0  0  0  0
    0.3065   -2.7706    1.8685 H   0  0  0  0  0  0  0  0  0  0  0  0
  1  2  1  0  0  0  0
  1 36  1  0  0  0  0
  1 37  1  0  0  0  0
  2  3  2  0  0  0  0
  2 33  1  0  0  0  0
  3  4  1  0  0  0  0
  4  5  1  0  0  0  0
  4 19  2  0  0  0  0
  5  6  1  0  0  0  0
  6  7  1  0  0  0  0
  6 38  1  0  0  0  0
  6 39  1  0  0  0  0
  7  8  2  0  0  0  0
  7 11  1  0  0  0  0
  8  9  1  0  0  0  0
  8 40  1  0  0  0  0
  9 10  1  0  0  0  0
 10 11  2  0  0  0  0
 10 12  1  0  0  0  0
 12 13  2  0  0  0  0
 12 18  1  0  0  0  0
 13 14  1  0  0  0  0
 13 41  1  0  0  0  0
 14 15  2  0  0  0  0
 14 42  1  0  0  0  0
 15 16  1  0  0  0  0
 15 17  1  0  0  0  0
 17 18  2  0  0  0  0
 17 43  1  0  0  0  0
 18 44  1  0  0  0  0
 19 20  1  0  0  0  0
 19 22  1  0  0  0  0
 20 21  3  0  0  0  0
 22 23  1  0  0  0  0
 22 33  2  0  0  0  0
 23 24  2  0  0  0  0
 23 32  1  0  0  0  0
 24 25  1  0  0  0  0
 24 45  1  0  0  0  0
 25 26  2  0  0  0  0
 25 46  1  0  0  0  0
 26 27  1  0  0  0  0
 26 31  1  0  0  0  0
 27 28  1  0  0  0  0
 28 29  1  0  0  0  0
 28 47  1  0  0  0  0
 28 48  1  0  0  0  0
 29 30  1  0  0  0  0
 29 49  1  0  0  0  0
 29 50  1  0  0  0  0
 30 51  1  0  0  0  0
 31 32  2  0  0  0  0
 31 52  1  0  0  0  0
 32 53  1  0  0  0  0
 33 34  1  0  0  0  0
 34 35  3  0  0  0  0
M  END
>  <DRUGBANK_ID>
DB16118

>  <COMMON_NAME>
Capadenoson

>  <CAS_NUMBER>
544417-40-5

>  <UNII>
O519NVW73R

>  <SYNONYMS>
Capadenoson

$$$$
