1413
 OpenBabel10282417113D

 56 59  0  0  1  0  0  0  0  0999 V2000
    1.5478    0.9982    0.6011 S   0  0  0  0  0  0  0  0  0  0  0  0
   -5.0446    6.5527   -3.3130 S   0  0  0  0  0  0  0  0  0  0  0  0
   -2.6314   -0.3033    0.7346 O   0  0  0  0  0  0  0  0  0  0  0  0
   -2.0084   -2.8678   -0.6871 O   0  5  0  0  0  0  0  0  0  0  0  0
   -0.0638   -3.9040   -1.2387 O   0  0  0  0  0  0  0  0  0  0  0  0
   -2.2043    4.8626    0.4885 O   0  0  0  0  0  0  0  0  0  0  0  0
   -2.1000    1.6543   -2.4074 O   0  0  0  0  0  0  0  0  0  0  0  0
    1.3032   -3.6638    1.6348 N   0  3  0  0  0  0  0  0  0  0  0  0
   -0.5203   -0.3726   -0.3959 N   0  0  0  0  0  0  0  0  0  0  0  0
   -1.3354    2.8108    0.5289 N   0  0  0  0  0  0  0  0  0  0  0  0
   -2.8574    2.7776   -2.6159 N   0  0  0  0  0  0  0  0  0  0  0  0
   -2.8610    6.2463   -1.9958 N   0  0  0  0  0  0  0  0  0  0  0  0
   -3.3125    8.4533   -2.6336 N   0  0  0  0  0  0  0  0  0  0  0  0
   -0.2400   -4.0437    1.6956 C   0  0  0  0  0  0  0  0  0  0  0  0
    1.4043   -2.6809    2.8142 C   0  0  0  0  0  0  0  0  0  0  0  0
    1.8992   -3.0203    0.3032 C   0  0  0  0  0  0  0  0  0  0  0  0
   -0.9339   -2.7648    2.1214 C   0  0  0  0  0  0  0  0  0  0  0  0
    0.0086   -2.1070    3.0834 C   0  0  0  0  0  0  0  0  0  0  0  0
    2.1497   -4.9228    1.7735 C   0  0  0  0  0  0  0  0  0  0  0  0
    1.3471   -1.6976   -0.1283 C   0  0  0  0  0  0  0  0  0  0  0  0
    0.1738    0.8944   -0.5443 C   0  0  1  0  0  0  0  0  0  0  0  0
   -1.0997    1.5064   -0.0144 C   0  0  1  0  0  0  0  0  0  0  0  0
    0.0628   -1.5952   -0.5428 C   0  0  0  0  0  0  0  0  0  0  0  0
    2.2942   -0.5246    0.0026 C   0  0  0  0  0  0  0  0  0  0  0  0
   -1.6392    0.1271    0.2333 C   0  0  0  0  0  0  0  0  0  0  0  0
   -0.7739   -2.9077   -0.9063 C   0  0  0  0  0  0  0  0  0  0  0  0
   -2.0595    3.8250   -0.1649 C   0  0  0  0  0  0  0  0  0  0  0  0
   -2.7497    3.7282   -1.6794 C   0  0  0  0  0  0  0  0  0  0  0  0
   -3.4277    4.9741   -2.1284 C   0  0  0  0  0  0  0  0  0  0  0  0
   -4.6323    4.9727   -2.8120 C   0  0  0  0  0  0  0  0  0  0  0  0
   -3.6137    7.1504   -2.5775 C   0  0  0  0  0  0  0  0  0  0  0  0
   -2.1715    0.4494   -3.1174 C   0  0  0  0  0  0  0  0  0  0  0  0
    0.4029    1.0737   -1.6056 H   0  0  0  0  0  0  0  0  0  0  0  0
   -1.0284    3.0452    1.4654 H   0  0  0  0  0  0  0  0  0  0  0  0
   -3.9193    9.1260   -3.0828 H   0  0  0  0  0  0  0  0  0  0  0  0
   -2.4898    8.8022   -2.1605 H   0  0  0  0  0  0  0  0  0  0  0  0
   -0.3566   -4.7860    2.4962 H   0  0  0  0  0  0  0  0  0  0  0  0
   -0.6188   -4.5497    0.8099 H   0  0  0  0  0  0  0  0  0  0  0  0
    2.1353   -1.8998    2.5865 H   0  0  0  0  0  0  0  0  0  0  0  0
    1.7416   -3.2325    3.6956 H   0  0  0  0  0  0  0  0  0  0  0  0
    1.9529   -3.7691   -0.4926 H   0  0  0  0  0  0  0  0  0  0  0  0
    2.9679   -2.8733    0.5373 H   0  0  0  0  0  0  0  0  0  0  0  0
   -1.0376   -2.0483    1.3370 H   0  0  0  0  0  0  0  0  0  0  0  0
   -1.9690   -2.8760    2.4580 H   0  0  0  0  0  0  0  0  0  0  0  0
   -0.0007   -1.0175    2.9426 H   0  0  0  0  0  0  0  0  0  0  0  0
   -0.3307   -2.3084    4.1009 H   0  0  0  0  0  0  0  0  0  0  0  0
    2.0386   -5.5230    0.8608 H   0  0  0  0  0  0  0  0  0  0  0  0
    3.2019   -4.6248    1.8714 H   0  0  0  0  0  0  0  0  0  0  0  0
    1.8384   -5.4928    2.6478 H   0  0  0  0  0  0  0  0  0  0  0  0
   -1.6906    1.7603   -0.8012 H   0  0  0  0  0  0  0  0  0  0  0  0
    2.7506   -0.3478   -0.9778 H   0  0  0  0  0  0  0  0  0  0  0  0
    3.0978   -0.7225    0.7140 H   0  0  0  0  0  0  0  0  0  0  0  0
   -5.2545    4.1228   -3.0518 H   0  0  0  0  0  0  0  0  0  0  0  0
   -3.1578    0.0016   -3.2083 H   0  0  0  0  0  0  0  0  0  0  0  0
   -1.5577    0.5369   -4.0081 H   0  0  0  0  0  0  0  0  0  0  0  0
   -1.6166   -0.2768   -2.5083 H   0  0  0  0  0  0  0  0  0  0  0  0
  1 21  1  0  0  0  0
  1 24  1  0  0  0  0
  2 30  1  0  0  0  0
  2 31  1  0  0  0  0
  3 25  2  0  0  0  0
  4 26  1  0  0  0  0
  5 26  2  0  0  0  0
  6 27  2  0  0  0  0
  7 11  1  0  0  0  0
  7 32  1  0  0  0  0
  8 14  1  0  0  0  0
  8 15  1  0  0  0  0
  8 16  1  0  0  0  0
  8 19  1  0  0  0  0
  9 21  1  0  0  0  0
  9 23  1  0  0  0  0
  9 25  1  0  0  0  0
 10 27  1  0  0  0  0
 10 34  1  0  0  0  0
 11 28  2  0  0  0  0
 12 29  1  0  0  0  0
 12 31  2  0  0  0  0
 13 31  1  0  0  0  0
 13 35  1  0  0  0  0
 13 36  1  0  0  0  0
 14 17  1  0  0  0  0
 14 37  1  0  0  0  0
 14 38  1  0  0  0  0
 15 18  1  0  0  0  0
 15 39  1  0  0  0  0
 15 40  1  0  0  0  0
 16 20  1  0  0  0  0
 16 41  1  0  0  0  0
 16 42  1  0  0  0  0
 17 18  1  0  0  0  0
 17 43  1  0  0  0  0
 17 44  1  0  0  0  0
 18 45  1  0  0  0  0
 18 46  1  0  0  0  0
 19 47  1  0  0  0  0
 19 48  1  0  0  0  0
 19 49  1  0  0  0  0
 20 23  2  0  0  0  0
 20 24  1  0  0  0  0
 21 22  1  0  0  0  0
 21 33  1  6  0  0  0
 22 10  1  0  0  0  0
 22 25  1  0  0  0  0
 22 50  1  6  0  0  0
 23 26  1  0  0  0  0
 24 51  1  0  0  0  0
 24 52  1  0  0  0  0
 27 28  1  0  0  0  0
 28 29  1  0  0  0  0
 29 30  2  0  0  0  0
 30 53  1  0  0  0  0
 32 54  1  0  0  0  0
 32 55  1  0  0  0  0
 32 56  1  0  0  0  0
M  CHG  2   4  -1   8   1
M  END
>  <DRUGBANK_ID>
DB01413

>  <COMMON_NAME>
Cefepime

>  <CAS_NUMBER>
88040-23-7

>  <UNII>
807PW4VQE3

>  <SYNONYMS>
(6R,7R)-7-{[(2Z)-2-(2-amino-1,3-thiazol-4-yl)-2-(methoxyimino)acetyl]amino}-3-[(1-methylpyrrolidinium-1-yl)methyl]-8-oxo-5-thia-1-azabicyclo[4.2.0]oct-2-ene-2-carboxylate; Cefepima; Cefepime; Cefepimum

$$$$
