
 OpenBabel10282417143D

 97 99  0  0  0  0  0  0  0  0999 V2000
    1.1521    0.1346    0.7953 O   0  0  0  0  0  0  0  0  0  0  0  0
    3.7816    4.5162    1.2065 O   0  0  0  0  0  0  0  0  0  0  0  0
    4.3426   -0.1381    4.3423 O   0  0  0  0  0  0  0  0  0  0  0  0
    5.4534   -1.6819   -1.9763 O   0  0  0  0  0  0  0  0  0  0  0  0
    6.0792    0.0946    2.9843 O   0  0  0  0  0  0  0  0  0  0  0  0
    6.8371   -4.7925    1.7160 O   0  0  0  0  0  0  0  0  0  0  0  0
    3.8009   -5.5260    2.0664 O   0  0  0  0  0  0  0  0  0  0  0  0
    2.9521   -0.9945    0.2609 N   0  0  0  0  0  0  0  0  0  0  0  0
    4.5793    1.8111    3.0592 N   0  0  0  0  0  0  0  0  0  0  0  0
    3.9738   -3.2116   -1.2356 N   0  0  0  0  0  0  0  0  0  0  0  0
    6.0363   -4.0130   -0.1789 N   0  0  0  0  0  0  0  0  0  0  0  0
    4.7186   -6.4487    0.2782 N   0  0  0  0  0  0  0  0  0  0  0  0
    2.9030    1.4372   -0.2422 C   0  0  2  0  0  0  0  0  0  0  0  0
    2.6390    2.4805    0.8286 C   0  0  0  0  0  0  0  0  0  0  0  0
    2.5450    1.8603   -1.6788 C   0  0  0  0  0  0  0  0  0  0  0  0
    5.0893    2.5966    1.9409 C   0  0  2  0  0  0  0  0  0  0  0  0
    4.3586   -1.2218    0.0871 C   0  0  1  0  0  0  0  0  0  0  0  0
    2.2919    0.1775    0.3306 C   0  0  0  0  0  0  0  0  0  0  0  0
    3.8381    3.2840    1.2943 C   0  0  0  0  0  0  0  0  0  0  0  0
    5.0105   -1.7053    1.3786 C   0  0  0  0  0  0  0  0  0  0  0  0
    5.9095    1.7766    0.9556 C   0  0  0  0  0  0  0  0  0  0  0  0
    1.3342    1.2497   -2.3194 C   0  0  0  0  0  0  0  0  0  0  0  0
    4.5549   -1.9575   -1.1778 C   0  0  0  0  0  0  0  0  0  0  0  0
    5.0282   -3.1031    1.9161 C   0  0  0  0  0  0  0  0  0  0  0  0
    6.2153    2.3616   -0.3807 C   0  0  0  0  0  0  0  0  0  0  0  0
    3.2869   -4.1827   -0.1267 C   0  0  1  0  0  0  0  0  0  0  0  0
    0.6234    1.9661   -3.2734 C   0  0  0  0  0  0  0  0  0  0  0  0
    0.9562   -0.0817   -2.1051 C   0  0  0  0  0  0  0  0  0  0  0  0
    2.0423   -4.7589   -0.7025 C   0  0  0  0  0  0  0  0  0  0  0  0
    5.0904    0.5795    3.4442 C   0  0  0  0  0  0  0  0  0  0  0  0
    3.7137    0.4928    5.4568 C   0  0  0  0  0  0  0  0  0  0  0  0
    6.5413    1.5314   -1.4605 C   0  0  0  0  0  0  0  0  0  0  0  0
    6.1040    3.7328   -0.5777 C   0  0  0  0  0  0  0  0  0  0  0  0
    6.0787   -3.9980    1.1792 C   0  0  0  0  0  0  0  0  0  0  0  0
   -0.4547    1.3608   -3.9240 C   0  0  0  0  0  0  0  0  0  0  0  0
   -0.1581   -0.6609   -2.6694 C   0  0  0  0  0  0  0  0  0  0  0  0
    2.4760   -5.8797   -1.5896 C   0  0  0  0  0  0  0  0  0  0  0  0
    3.9478   -5.4679    0.8403 C   0  0  0  0  0  0  0  0  0  0  0  0
   -0.8704    0.0679   -3.5905 C   0  0  0  0  0  0  0  0  0  0  0  0
    4.7239    1.4641    6.0789 C   0  0  0  0  0  0  0  0  0  0  0  0
    2.3856    1.0943    4.9973 C   0  0  0  0  0  0  0  0  0  0  0  0
    3.3966   -0.5821    6.5112 C   0  0  0  0  0  0  0  0  0  0  0  0
    6.6837    2.0768   -2.7300 C   0  0  0  0  0  0  0  0  0  0  0  0
    6.1454    4.2608   -1.8507 C   0  0  0  0  0  0  0  0  0  0  0  0
    6.4816    3.4424   -2.9207 C   0  0  0  0  0  0  0  0  0  0  0  0
    3.4319   -5.7446   -2.6154 C   0  0  0  0  0  0  0  0  0  0  0  0
    2.0513   -7.1500   -1.2259 C   0  0  0  0  0  0  0  0  0  0  0  0
    3.9352   -6.8389   -3.2860 C   0  0  0  0  0  0  0  0  0  0  0  0
    2.5312   -8.2471   -1.9184 C   0  0  0  0  0  0  0  0  0  0  0  0
    3.4250   -8.0847   -2.9785 C   0  0  0  0  0  0  0  0  0  0  0  0
    2.3381   -1.7680    0.4546 H   0  0  0  0  0  0  0  0  0  0  0  0
    4.1076    2.3677    3.7445 H   0  0  0  0  0  0  0  0  0  0  0  0
    4.4858   -3.6062   -2.0196 H   0  0  0  0  0  0  0  0  0  0  0  0
    5.2630   -3.4726   -0.4503 H   0  0  0  0  0  0  0  0  0  0  0  0
    5.8572   -4.9037   -0.6359 H   0  0  0  0  0  0  0  0  0  0  0  0
    4.8267   -6.6337   -0.7044 H   0  0  0  0  0  0  0  0  0  0  0  0
    5.3178   -6.9899    0.9055 H   0  0  0  0  0  0  0  0  0  0  0  0
    3.9509    1.2930   -0.3802 H   0  0  0  0  0  0  0  0  0  0  0  0
    1.8685    3.1672    0.4630 H   0  0  0  0  0  0  0  0  0  0  0  0
    2.2237    2.0339    1.7385 H   0  0  0  0  0  0  0  0  0  0  0  0
    2.5059    2.9598   -1.7150 H   0  0  0  0  0  0  0  0  0  0  0  0
    3.3875    1.6124   -2.3469 H   0  0  0  0  0  0  0  0  0  0  0  0
    5.7284    3.3757    2.3631 H   0  0  0  0  0  0  0  0  0  0  0  0
    4.8436   -0.3111   -0.1864 H   0  0  0  0  0  0  0  0  0  0  0  0
    6.0642   -1.4345    1.3657 H   0  0  0  0  0  0  0  0  0  0  0  0
    4.4326   -1.1896    2.1405 H   0  0  0  0  0  0  0  0  0  0  0  0
    6.8285    1.3416    1.3476 H   0  0  0  0  0  0  0  0  0  0  0  0
    5.2600    0.9392    0.8401 H   0  0  0  0  0  0  0  0  0  0  0  0
    5.3090   -3.1439    2.9725 H   0  0  0  0  0  0  0  0  0  0  0  0
    3.9745   -3.3731    2.0314 H   0  0  0  0  0  0  0  0  0  0  0  0
    2.9106   -3.4782    0.6017 H   0  0  0  0  0  0  0  0  0  0  0  0
    0.9255    2.9772   -3.5397 H   0  0  0  0  0  0  0  0  0  0  0  0
    1.5021   -0.7638   -1.4855 H   0  0  0  0  0  0  0  0  0  0  0  0
    1.4673   -5.1175    0.1672 H   0  0  0  0  0  0  0  0  0  0  0  0
    1.4624   -3.9856   -1.2044 H   0  0  0  0  0  0  0  0  0  0  0  0
    6.6725    0.4585   -1.3288 H   0  0  0  0  0  0  0  0  0  0  0  0
    5.9345    4.4094    0.2534 H   0  0  0  0  0  0  0  0  0  0  0  0
   -0.9660    1.8956   -4.7149 H   0  0  0  0  0  0  0  0  0  0  0  0
   -0.4064   -1.6807   -2.3940 H   0  0  0  0  0  0  0  0  0  0  0  0
   -1.7246   -0.3941   -4.0673 H   0  0  0  0  0  0  0  0  0  0  0  0
    5.1037    2.2141    5.3831 H   0  0  0  0  0  0  0  0  0  0  0  0
    4.2959    1.9959    6.9242 H   0  0  0  0  0  0  0  0  0  0  0  0
    5.6232    0.9143    6.3901 H   0  0  0  0  0  0  0  0  0  0  0  0
    1.7271    0.3071    4.6086 H   0  0  0  0  0  0  0  0  0  0  0  0
    1.8955    1.6233    5.8133 H   0  0  0  0  0  0  0  0  0  0  0  0
    2.4665    1.7915    4.1670 H   0  0  0  0  0  0  0  0  0  0  0  0
    2.7152   -1.3492    6.1254 H   0  0  0  0  0  0  0  0  0  0  0  0
    4.2992   -1.1072    6.8446 H   0  0  0  0  0  0  0  0  0  0  0  0
    2.9285   -0.1176    7.3866 H   0  0  0  0  0  0  0  0  0  0  0  0
    6.9310    1.4331   -3.5695 H   0  0  0  0  0  0  0  0  0  0  0  0
    5.9103    5.3107   -1.9855 H   0  0  0  0  0  0  0  0  0  0  0  0
    6.6050    3.8823   -3.9029 H   0  0  0  0  0  0  0  0  0  0  0  0
    3.8422   -4.8083   -2.9463 H   0  0  0  0  0  0  0  0  0  0  0  0
    1.3836   -7.2799   -0.3755 H   0  0  0  0  0  0  0  0  0  0  0  0
    4.6890   -6.6959   -4.0565 H   0  0  0  0  0  0  0  0  0  0  0  0
    2.2008   -9.2350   -1.6238 H   0  0  0  0  0  0  0  0  0  0  0  0
    3.7072   -8.9338   -3.5869 H   0  0  0  0  0  0  0  0  0  0  0  0
  1 18  2  0  0  0  0
  2 19  2  0  0  0  0
  3 30  1  0  0  0  0
  3 31  1  0  0  0  0
  4 23  2  0  0  0  0
  5 30  2  0  0  0  0
  6 34  2  0  0  0  0
  7 38  2  0  0  0  0
  8 18  1  0  0  0  0
  8 51  1  0  0  0  0
  9 30  1  0  0  0  0
  9 52  1  0  0  0  0
 10 23  1  0  0  0  0
 10 53  1  0  0  0  0
 11 34  1  0  0  0  0
 11 54  1  0  0  0  0
 11 55  1  0  0  0  0
 12 38  1  0  0  0  0
 12 56  1  0  0  0  0
 12 57  1  0  0  0  0
 13 18  1  0  0  0  0
 13 58  1  1  0  0  0
 13 15  1  0  0  0  0
 13 14  1  0  0  0  0
 14 19  1  0  0  0  0
 14 59  1  0  0  0  0
 14 60  1  0  0  0  0
 15 22  1  0  0  0  0
 15 61  1  0  0  0  0
 15 62  1  0  0  0  0
 16  9  1  0  0  0  0
 16 19  1  0  0  0  0
 16 21  1  0  0  0  0
 16 63  1  1  0  0  0
 17  8  1  0  0  0  0
 17 20  1  0  0  0  0
 17 23  1  0  0  0  0
 17 64  1  6  0  0  0
 20 24  1  0  0  0  0
 20 65  1  0  0  0  0
 20 66  1  0  0  0  0
 21 25  1  0  0  0  0
 21 67  1  0  0  0  0
 21 68  1  0  0  0  0
 22 27  2  0  0  0  0
 22 28  1  0  0  0  0
 24 34  1  0  0  0  0
 24 69  1  0  0  0  0
 24 70  1  0  0  0  0
 25 32  2  0  0  0  0
 25 33  1  0  0  0  0
 26 10  1  0  0  0  0
 26 29  1  0  0  0  0
 26 38  1  0  0  0  0
 26 71  1  1  0  0  0
 27 35  1  0  0  0  0
 27 72  1  0  0  0  0
 28 36  2  0  0  0  0
 28 73  1  0  0  0  0
 29 37  1  0  0  0  0
 29 74  1  0  0  0  0
 29 75  1  0  0  0  0
 31 40  1  0  0  0  0
 31 41  1  0  0  0  0
 31 42  1  0  0  0  0
 32 43  1  0  0  0  0
 32 76  1  0  0  0  0
 33 44  2  0  0  0  0
 33 77  1  0  0  0  0
 35 39  2  0  0  0  0
 35 78  1  0  0  0  0
 36 39  1  0  0  0  0
 36 79  1  0  0  0  0
 37 46  2  0  0  0  0
 37 47  1  0  0  0  0
 39 80  1  0  0  0  0
 40 81  1  0  0  0  0
 40 82  1  0  0  0  0
 40 83  1  0  0  0  0
 41 84  1  0  0  0  0
 41 85  1  0  0  0  0
 41 86  1  0  0  0  0
 42 87  1  0  0  0  0
 42 88  1  0  0  0  0
 42 89  1  0  0  0  0
 43 45  2  0  0  0  0
 43 90  1  0  0  0  0
 44 45  1  0  0  0  0
 44 91  1  0  0  0  0
 45 92  1  0  0  0  0
 46 48  1  0  0  0  0
 46 93  1  0  0  0  0
 47 49  2  0  0  0  0
 47 94  1  0  0  0  0
 48 50  2  0  0  0  0
 48 95  1  0  0  0  0
 49 50  1  0  0  0  0
 49 96  1  0  0  0  0
 50 97  1  0  0  0  0
M  END
>  <DRUGBANK_ID>
DB04353

>  <SECONDARY_ACCESSION_NUMBERS>
EXPT02729

>  <COMMON_NAME>
Tert-butyl N-[(2S,5R)-6-[[(2S)-5-amino-1-[[(2S)-1-amino-1-oxo-3-phenylpropan-2-yl]amino]-1,5-dioxopentan-2-yl]amino]-5-benzyl-3,6-dioxo-1-phenylhexan-2-yl]carbamate

$$$$
