3585
 OpenBabel10282417133D

 44 46  0  0  1  0  0  0  0  0999 V2000
    1.2233   -0.1755   -0.3168 O   0  0  0  0  0  0  0  0  0  0  0  0
    5.2421    1.2093    1.5544 O   0  0  0  0  0  0  0  0  0  0  0  0
    2.3660   -6.0226   -2.7594 O   0  0  0  0  0  0  0  0  0  0  0  0
    3.2565   -1.3066    0.1408 N   0  0  0  0  0  0  0  0  0  0  0  0
    4.4625   -0.8806    0.7771 N   0  0  0  0  0  0  0  0  0  0  0  0
    3.3050    1.0212    0.0904 C   0  0  3  0  0  0  0  0  0  0  0  0
    2.6624    2.3314    0.5475 C   0  0  0  0  0  0  0  0  0  0  0  0
    2.4173   -0.1906   -0.0406 C   0  0  0  0  0  0  0  0  0  0  0  0
    4.4446    0.5140    0.9360 C   0  0  0  0  0  0  0  0  0  0  0  0
    3.6237    3.5380    0.4638 C   0  0  0  0  0  0  0  0  0  0  0  0
    4.1741    3.7939   -0.9435 C   0  0  0  0  0  0  0  0  0  0  0  0
    3.1206   -2.5024   -0.6220 C   0  0  0  0  0  0  0  0  0  0  0  0
    5.3017   -1.7042    1.5703 C   0  0  0  0  0  0  0  0  0  0  0  0
    3.0617    4.1389   -1.9201 C   0  0  0  0  0  0  0  0  0  0  0  0
    3.1163   -3.7395    0.0328 C   0  0  0  0  0  0  0  0  0  0  0  0
    2.9061   -2.4907   -2.0128 C   0  0  0  0  0  0  0  0  0  0  0  0
    6.1293   -2.6270    0.9254 C   0  0  0  0  0  0  0  0  0  0  0  0
    5.4909   -1.4787    2.9449 C   0  0  0  0  0  0  0  0  0  0  0  0
    2.8605   -4.9331   -0.6646 C   0  0  0  0  0  0  0  0  0  0  0  0
    2.6835   -3.6887   -2.7167 C   0  0  0  0  0  0  0  0  0  0  0  0
    7.1396   -3.2931    1.6276 C   0  0  0  0  0  0  0  0  0  0  0  0
    6.5201   -2.1285    3.6413 C   0  0  0  0  0  0  0  0  0  0  0  0
    2.6386   -4.8985   -2.0359 C   0  0  0  0  0  0  0  0  0  0  0  0
    7.3359   -3.0459    2.9845 C   0  0  0  0  0  0  0  0  0  0  0  0
    2.2984   -6.7895   -2.1665 H   0  0  0  0  0  0  0  0  0  0  0  0
    3.6920    1.1602   -0.9279 H   0  0  0  0  0  0  0  0  0  0  0  0
    1.7767    2.5443   -0.0653 H   0  0  0  0  0  0  0  0  0  0  0  0
    2.2864    2.2421    1.5726 H   0  0  0  0  0  0  0  0  0  0  0  0
    3.1090    4.4408    0.8166 H   0  0  0  0  0  0  0  0  0  0  0  0
    4.4644    3.4006    1.1509 H   0  0  0  0  0  0  0  0  0  0  0  0
    4.8975    4.6169   -0.9096 H   0  0  0  0  0  0  0  0  0  0  0  0
    4.7336    2.9260   -1.3086 H   0  0  0  0  0  0  0  0  0  0  0  0
    2.5400    5.0440   -1.5939 H   0  0  0  0  0  0  0  0  0  0  0  0
    3.4650    4.3082   -2.9213 H   0  0  0  0  0  0  0  0  0  0  0  0
    2.3272    3.3321   -1.9986 H   0  0  0  0  0  0  0  0  0  0  0  0
    3.2585   -3.7796    1.1091 H   0  0  0  0  0  0  0  0  0  0  0  0
    2.9311   -1.5660   -2.5841 H   0  0  0  0  0  0  0  0  0  0  0  0
    6.0416   -2.7834   -0.1457 H   0  0  0  0  0  0  0  0  0  0  0  0
    4.8500   -0.7930    3.4952 H   0  0  0  0  0  0  0  0  0  0  0  0
    2.8235   -5.8683   -0.1146 H   0  0  0  0  0  0  0  0  0  0  0  0
    2.5304   -3.6817   -3.7943 H   0  0  0  0  0  0  0  0  0  0  0  0
    7.8028   -3.9750    1.1021 H   0  0  0  0  0  0  0  0  0  0  0  0
    6.7070   -1.8974    4.6885 H   0  0  0  0  0  0  0  0  0  0  0  0
    8.1307   -3.5568    3.5242 H   0  0  0  0  0  0  0  0  0  0  0  0
  1  8  2  0  0  0  0
  2  9  2  0  0  0  0
  3 23  1  0  0  0  0
  3 25  1  0  0  0  0
  4  5  1  0  0  0  0
  4  8  1  0  0  0  0
  4 12  1  0  0  0  0
  5  9  1  0  0  0  0
  5 13  1  0  0  0  0
  6  7  1  0  0  0  0
  6  8  1  0  0  0  0
  6  9  1  0  0  0  0
  6 26  1  0  0  0  0
  7 10  1  0  0  0  0
  7 27  1  0  0  0  0
  7 28  1  0  0  0  0
 10 11  1  0  0  0  0
 10 29  1  0  0  0  0
 10 30  1  0  0  0  0
 11 14  1  0  0  0  0
 11 31  1  0  0  0  0
 11 32  1  0  0  0  0
 12 15  2  0  0  0  0
 12 16  1  0  0  0  0
 13 17  2  0  0  0  0
 13 18  1  0  0  0  0
 14 33  1  0  0  0  0
 14 34  1  0  0  0  0
 14 35  1  0  0  0  0
 15 19  1  0  0  0  0
 15 36  1  0  0  0  0
 16 20  2  0  0  0  0
 16 37  1  0  0  0  0
 17 21  1  0  0  0  0
 17 38  1  0  0  0  0
 18 22  2  0  0  0  0
 18 39  1  0  0  0  0
 19 23  2  0  0  0  0
 19 40  1  0  0  0  0
 20 23  1  0  0  0  0
 20 41  1  0  0  0  0
 21 24  2  0  0  0  0
 21 42  1  0  0  0  0
 22 24  1  0  0  0  0
 22 43  1  0  0  0  0
 24 44  1  0  0  0  0
M  END
>  <DRUGBANK_ID>
DB03585

>  <SECONDARY_ACCESSION_NUMBERS>
EXPT02440

>  <COMMON_NAME>
Oxyphenbutazone

>  <CAS_NUMBER>
129-20-4

>  <UNII>
A7D84513GV

>  <SYNONYMS>
Oxifenbutazona; Oxiphenbutazone; Oxyphenbutazone; Oxyphenbutazonum

$$$$
