691
 OpenBabel10282417103D

 70 72  0  0  1  0  0  0  0  0999 V2000
    1.0395    0.1831    0.2268 O   0  0  0  0  0  0  0  0  0  0  0  0
    0.3295    3.1023    0.7087 O   0  0  0  0  0  0  0  0  0  0  0  0
    7.6846    5.4324   -1.2710 O   0  0  0  0  0  0  0  0  0  0  0  0
    8.7630    2.7605   -1.2471 O   0  0  0  0  0  0  0  0  0  0  0  0
    0.3914    2.5220   -1.4781 O   0  0  0  0  0  0  0  0  0  0  0  0
    2.4757   -3.6744    4.5676 O   0  0  0  0  0  0  0  0  0  0  0  0
    2.3400   -1.4445    4.7411 O   0  0  0  0  0  0  0  0  0  0  0  0
    2.9854    1.1715   -0.4871 N   0  0  0  0  0  0  0  0  0  0  0  0
    2.7012   -1.2415    1.9875 N   0  0  0  0  0  0  0  0  0  0  0  0
    2.4974    2.5502   -0.2452 C   0  0  1  0  0  0  0  0  0  0  0  0
    3.1421    3.6004   -1.1889 C   0  0  0  0  0  0  0  0  0  0  0  0
    4.1348    0.9847   -1.3721 C   0  0  0  0  0  0  0  0  0  0  0  0
    4.6396    3.4322   -1.2374 C   0  0  0  0  0  0  0  0  0  0  0  0
    5.1222    2.1197   -1.2853 C   0  0  0  0  0  0  0  0  0  0  0  0
    3.0431   -1.0893    0.5709 C   0  0  2  0  0  0  0  0  0  0  0  0
    2.2542    0.1138    0.0423 C   0  0  0  0  0  0  0  0  0  0  0  0
    3.4269   -2.2982    2.7037 C   0  0  1  0  0  0  0  0  0  0  0  0
    5.5410    4.5060   -1.2597 C   0  0  0  0  0  0  0  0  0  0  0  0
    0.9817    2.7105   -0.4119 C   0  0  0  0  0  0  0  0  0  0  0  0
    6.5006    1.8908   -1.3024 C   0  0  0  0  0  0  0  0  0  0  0  0
    4.9465   -2.0728    2.6369 C   0  0  0  0  0  0  0  0  0  0  0  0
    2.6643   -2.3501   -0.1894 C   0  0  0  0  0  0  0  0  0  0  0  0
    6.9311    4.2788   -1.2722 C   0  0  0  0  0  0  0  0  0  0  0  0
    7.4112    2.9543   -1.2750 C   0  0  0  0  0  0  0  0  0  0  0  0
    5.4068   -0.8110    3.3567 C   0  0  0  0  0  0  0  0  0  0  0  0
    2.7038   -2.4239    4.0894 C   0  0  0  0  0  0  0  0  0  0  0  0
    5.2107   -0.9242    4.8445 C   0  0  0  0  0  0  0  0  0  0  0  0
    5.2186   -2.1792    5.4859 C   0  0  0  0  0  0  0  0  0  0  0  0
    4.9068    0.2113    5.5983 C   0  0  0  0  0  0  0  0  0  0  0  0
    9.1053    5.2981   -1.2846 C   0  0  0  0  0  0  0  0  0  0  0  0
    9.2816    1.4445   -1.2333 C   0  0  0  0  0  0  0  0  0  0  0  0
    2.1811   -4.7657    3.6835 C   0  0  0  0  0  0  0  0  0  0  0  0
    4.8451   -2.3113    6.8137 C   0  0  0  0  0  0  0  0  0  0  0  0
    4.6658    0.0875    6.9667 C   0  0  0  0  0  0  0  0  0  0  0  0
    4.5967   -1.1730    7.5626 C   0  0  0  0  0  0  0  0  0  0  0  0
    1.1151   -4.4127    2.6552 C   0  0  0  0  0  0  0  0  0  0  0  0
    0.8505    3.0772    1.5347 H   0  0  0  0  0  0  0  0  0  0  0  0
    2.7701   -0.3649    2.5111 H   0  0  0  0  0  0  0  0  0  0  0  0
    2.7905    2.7833    0.7892 H   0  0  0  0  0  0  0  0  0  0  0  0
    2.7531    3.4767   -2.2091 H   0  0  0  0  0  0  0  0  0  0  0  0
    2.8700    4.6106   -0.8618 H   0  0  0  0  0  0  0  0  0  0  0  0
    4.6317    0.0289   -1.1939 H   0  0  0  0  0  0  0  0  0  0  0  0
    3.7430    0.9345   -2.3957 H   0  0  0  0  0  0  0  0  0  0  0  0
    4.1040   -0.8708    0.4850 H   0  0  0  0  0  0  0  0  0  0  0  0
    3.3017   -3.2425    2.1874 H   0  0  0  0  0  0  0  0  0  0  0  0
    5.1711    5.5306   -1.2561 H   0  0  0  0  0  0  0  0  0  0  0  0
    6.8500    0.8651   -1.3310 H   0  0  0  0  0  0  0  0  0  0  0  0
    5.4795   -2.9646    2.9800 H   0  0  0  0  0  0  0  0  0  0  0  0
    5.2715   -2.0158    1.5902 H   0  0  0  0  0  0  0  0  0  0  0  0
    2.8857   -2.2460   -1.2515 H   0  0  0  0  0  0  0  0  0  0  0  0
    3.2182   -3.2250    0.1669 H   0  0  0  0  0  0  0  0  0  0  0  0
    1.5951   -2.5667   -0.0804 H   0  0  0  0  0  0  0  0  0  0  0  0
    6.4659   -0.6315    3.1472 H   0  0  0  0  0  0  0  0  0  0  0  0
    4.8637    0.0560    2.9535 H   0  0  0  0  0  0  0  0  0  0  0  0
    5.3566   -3.1057    4.9376 H   0  0  0  0  0  0  0  0  0  0  0  0
    4.7874    1.1828    5.1232 H   0  0  0  0  0  0  0  0  0  0  0  0
    9.4615    4.8031   -0.3735 H   0  0  0  0  0  0  0  0  0  0  0  0
    9.4463    4.7877   -2.1933 H   0  0  0  0  0  0  0  0  0  0  0  0
    9.5592    6.2927   -1.2958 H   0  0  0  0  0  0  0  0  0  0  0  0
    8.9571    0.9053   -0.3385 H   0  0  0  0  0  0  0  0  0  0  0  0
    9.0112    0.9130   -2.1498 H   0  0  0  0  0  0  0  0  0  0  0  0
   10.3721    1.5241   -1.2001 H   0  0  0  0  0  0  0  0  0  0  0  0
    3.1164   -5.1280    3.2444 H   0  0  0  0  0  0  0  0  0  0  0  0
    1.7924   -5.5760    4.3101 H   0  0  0  0  0  0  0  0  0  0  0  0
    4.7050   -3.3043    7.2306 H   0  0  0  0  0  0  0  0  0  0  0  0
    4.4847    0.9740    7.5652 H   0  0  0  0  0  0  0  0  0  0  0  0
    4.3097   -1.2734    8.6031 H   0  0  0  0  0  0  0  0  0  0  0  0
    1.3826   -3.5701    2.0222 H   0  0  0  0  0  0  0  0  0  0  0  0
    0.9283   -5.2534    1.9866 H   0  0  0  0  0  0  0  0  0  0  0  0
    0.1941   -4.0950    3.1491 H   0  0  0  0  0  0  0  0  0  0  0  0
  1 16  2  0  0  0  0
  2 19  1  0  0  0  0
  2 37  1  0  0  0  0
  3 23  1  0  0  0  0
  3 30  1  0  0  0  0
  4 24  1  0  0  0  0
  4 31  1  0  0  0  0
  5 19  2  0  0  0  0
  6 26  1  0  0  0  0
  6 32  1  0  0  0  0
  7 26  2  0  0  0  0
  8 10  1  0  0  0  0
  8 12  1  0  0  0  0
  8 16  1  0  0  0  0
  9 38  1  0  0  0  0
 10 11  1  0  0  0  0
 10 19  1  0  0  0  0
 10 39  1  1  0  0  0
 11 13  1  0  0  0  0
 11 40  1  0  0  0  0
 11 41  1  0  0  0  0
 12 14  1  0  0  0  0
 12 42  1  0  0  0  0
 12 43  1  0  0  0  0
 13 14  1  0  0  0  0
 13 18  2  0  0  0  0
 14 20  2  0  0  0  0
 15  9  1  0  0  0  0
 15 16  1  0  0  0  0
 15 22  1  0  0  0  0
 15 44  1  6  0  0  0
 17  9  1  0  0  0  0
 17 21  1  0  0  0  0
 17 26  1  0  0  0  0
 17 45  1  6  0  0  0
 18 23  1  0  0  0  0
 18 46  1  0  0  0  0
 20 24  1  0  0  0  0
 20 47  1  0  0  0  0
 21 25  1  0  0  0  0
 21 48  1  0  0  0  0
 21 49  1  0  0  0  0
 22 50  1  0  0  0  0
 22 51  1  0  0  0  0
 22 52  1  0  0  0  0
 23 24  2  0  0  0  0
 25 27  1  0  0  0  0
 25 53  1  0  0  0  0
 25 54  1  0  0  0  0
 27 28  2  0  0  0  0
 27 29  1  0  0  0  0
 28 33  1  0  0  0  0
 28 55  1  0  0  0  0
 29 34  2  0  0  0  0
 29 56  1  0  0  0  0
 30 57  1  0  0  0  0
 30 58  1  0  0  0  0
 30 59  1  0  0  0  0
 31 60  1  0  0  0  0
 31 61  1  0  0  0  0
 31 62  1  0  0  0  0
 32 36  1  0  0  0  0
 32 63  1  0  0  0  0
 32 64  1  0  0  0  0
 33 35  2  0  0  0  0
 33 65  1  0  0  0  0
 34 35  1  0  0  0  0
 34 66  1  0  0  0  0
 35 67  1  0  0  0  0
 36 68  1  0  0  0  0
 36 69  1  0  0  0  0
 36 70  1  0  0  0  0
M  END
>  <DRUGBANK_ID>
DB00691

>  <SECONDARY_ACCESSION_NUMBERS>
APRD01120

>  <COMMON_NAME>
Moexipril

>  <CAS_NUMBER>
103775-10-6

>  <UNII>
WT87C52TJZ

>  <SYNONYMS>
Moexipril; Moexiprilum

$$$$
