
 OpenBabel10282417163D

 61 63  0  0  0  0  0  0  0  0999 V2000
    1.2066   -0.4805    0.8276 Cl  0  0  0  0  0  0  0  0  0  0  0  0
    9.5319   -0.2502   -1.1239 F   0  0  0  0  0  0  0  0  0  0  0  0
    9.4117   -2.4181   -1.1210 F   0  0  0  0  0  0  0  0  0  0  0  0
    5.0419    1.8466   -1.1395 O   0  0  0  0  0  0  0  0  0  0  0  0
    2.6767    0.0201   -4.8652 N   0  0  0  0  0  0  0  0  0  0  0  0
    0.7024    1.5221   -1.1490 N   0  0  0  0  0  0  0  0  0  0  0  0
    4.2948    1.1635   -6.0865 N   0  0  0  0  0  0  0  0  0  0  0  0
    3.3414    1.0739    0.3084 N   0  0  0  0  0  0  0  0  0  0  0  0
    6.9354   -0.0622    0.2295 N   0  0  0  0  0  0  0  0  0  0  0  0
    4.9729   -1.2982    0.0471 N   0  0  0  0  0  0  0  0  0  0  0  0
    7.4433   -0.0400   -2.9337 N   0  0  0  0  0  0  0  0  0  0  0  0
    0.9188    1.3686   -3.6785 C   0  0  3  0  0  0  0  0  0  0  0  0
    1.7578    0.0535   -3.6951 C   0  0  3  0  0  0  0  0  0  0  0  0
    1.7885    2.6160   -3.8853 C   0  0  0  0  0  0  0  0  0  0  0  0
    2.6958    2.4903   -5.0595 C   0  0  0  0  0  0  0  0  0  0  0  0
    3.4986    1.2114   -4.8962 C   0  0  1  0  0  0  0  0  0  0  0  0
    0.0258    1.5340   -2.4323 C   0  0  0  0  0  0  0  0  0  0  0  0
    0.8403   -1.1837   -3.7143 C   0  0  0  0  0  0  0  0  0  0  0  0
    1.7297    2.5227   -0.8943 C   0  0  0  0  0  0  0  0  0  0  0  0
    2.5733    2.3367    0.3711 C   0  0  0  0  0  0  0  0  0  0  0  0
    4.7819    1.2331    0.1132 C   0  0  3  0  0  0  0  0  0  0  0  0
    2.8505   -0.2285    0.3663 C   0  0  0  0  0  0  0  0  0  0  0  0
    5.5571   -0.1355    0.1372 C   0  0  0  0  0  0  0  0  0  0  0  0
    3.6014   -1.3036    0.1533 C   0  0  0  0  0  0  0  0  0  0  0  0
    7.7819   -1.2473    0.0927 C   0  0  0  0  0  0  0  0  0  0  0  0
    8.6383   -1.2874   -1.1799 C   0  0  0  0  0  0  0  0  0  0  0  0
    7.7729   -1.2556   -2.4205 C   0  0  0  0  0  0  0  0  0  0  0  0
    7.3215   -2.4538   -2.9761 C   0  0  0  0  0  0  0  0  0  0  0  0
    6.5277   -2.4114   -4.1092 C   0  0  0  0  0  0  0  0  0  0  0  0
    6.6835   -0.0332   -4.0406 C   0  0  0  0  0  0  0  0  0  0  0  0
    6.2130   -1.1814   -4.6554 C   0  0  0  0  0  0  0  0  0  0  0  0
    4.8237    1.1553   -1.7890 H   0  0  0  0  0  0  0  0  0  0  0  0
    2.1192    0.0189   -5.7170 H   0  0  0  0  0  0  0  0  0  0  0  0
    1.1568    0.6140   -1.0474 H   0  0  0  0  0  0  0  0  0  0  0  0
    4.5736    0.2138   -6.2675 H   0  0  0  0  0  0  0  0  0  0  0  0
    5.1315    1.7241   -5.9321 H   0  0  0  0  0  0  0  0  0  0  0  0
    7.3667    0.8259   -0.0216 H   0  0  0  0  0  0  0  0  0  0  0  0
    0.2365    1.3203   -4.5397 H   0  0  0  0  0  0  0  0  0  0  0  0
    2.3713   -0.0235   -2.7879 H   0  0  0  0  0  0  0  0  0  0  0  0
    1.1966    3.5329   -3.8748 H   0  0  0  0  0  0  0  0  0  0  0  0
    2.5474    2.7572   -3.1403 H   0  0  0  0  0  0  0  0  0  0  0  0
    2.1147    2.5069   -5.9830 H   0  0  0  0  0  0  0  0  0  0  0  0
    3.3775    3.3519   -5.0537 H   0  0  0  0  0  0  0  0  0  0  0  0
    4.1297    1.2295   -3.9958 H   0  0  0  0  0  0  0  0  0  0  0  0
   -0.7014    0.7109   -2.4051 H   0  0  0  0  0  0  0  0  0  0  0  0
   -0.5862    2.4381   -2.5119 H   0  0  0  0  0  0  0  0  0  0  0  0
    1.4137   -2.1172   -3.7155 H   0  0  0  0  0  0  0  0  0  0  0  0
    0.1972   -1.2223   -2.8269 H   0  0  0  0  0  0  0  0  0  0  0  0
    0.1858   -1.1817   -4.5928 H   0  0  0  0  0  0  0  0  0  0  0  0
    1.3288    3.5365   -0.9969 H   0  0  0  0  0  0  0  0  0  0  0  0
    2.5310    2.3709   -1.5873 H   0  0  0  0  0  0  0  0  0  0  0  0
    1.9827    2.4210    1.2819 H   0  0  0  0  0  0  0  0  0  0  0  0
    3.2814    3.1823    0.3658 H   0  0  0  0  0  0  0  0  0  0  0  0
    5.1982    1.8671    0.9027 H   0  0  0  0  0  0  0  0  0  0  0  0
    3.1447   -2.2927    0.1612 H   0  0  0  0  0  0  0  0  0  0  0  0
    8.4488   -1.2683    0.9597 H   0  0  0  0  0  0  0  0  0  0  0  0
    7.1920   -2.1692    0.1498 H   0  0  0  0  0  0  0  0  0  0  0  0
    7.5841   -3.4093   -2.5353 H   0  0  0  0  0  0  0  0  0  0  0  0
    6.1572   -3.3213   -4.5712 H   0  0  0  0  0  0  0  0  0  0  0  0
    6.4613    0.9586   -4.4160 H   0  0  0  0  0  0  0  0  0  0  0  0
    5.6045   -1.1543   -5.5449 H   0  0  0  0  0  0  0  0  0  0  0  0
  1 22  1  0  0  0  0
  2 26  1  0  0  0  0
  3 26  1  0  0  0  0
  4 21  1  0  0  0  0
  4 32  1  0  0  0  0
  5 13  1  0  0  0  0
  5 16  1  0  0  0  0
  5 33  1  0  0  0  0
  6 17  1  0  0  0  0
  6 19  1  0  0  0  0
  6 34  1  0  0  0  0
  7 35  1  0  0  0  0
  7 36  1  0  0  0  0
  8 20  1  0  0  0  0
  8 21  1  0  0  0  0
  8 22  1  0  0  0  0
  9 23  1  0  0  0  0
  9 25  1  0  0  0  0
  9 37  1  0  0  0  0
 10 23  2  0  0  0  0
 10 24  1  0  0  0  0
 11 27  1  0  0  0  0
 11 30  2  0  0  0  0
 12 13  1  0  0  0  0
 12 14  1  0  0  0  0
 12 17  1  0  0  0  0
 12 38  1  0  0  0  0
 13 18  1  0  0  0  0
 13 39  1  0  0  0  0
 14 15  1  0  0  0  0
 14 40  1  0  0  0  0
 14 41  1  0  0  0  0
 15 16  1  0  0  0  0
 15 42  1  0  0  0  0
 15 43  1  0  0  0  0
 16 44  1  1  0  0  0
 16  7  1  0  0  0  0
 17 45  1  0  0  0  0
 17 46  1  0  0  0  0
 18 47  1  0  0  0  0
 18 48  1  0  0  0  0
 18 49  1  0  0  0  0
 19 20  1  0  0  0  0
 19 50  1  0  0  0  0
 19 51  1  0  0  0  0
 20 52  1  0  0  0  0
 20 53  1  0  0  0  0
 21 23  1  0  0  0  0
 21 54  1  0  0  0  0
 22 24  2  0  0  0  0
 24 55  1  0  0  0  0
 25 26  1  0  0  0  0
 25 56  1  0  0  0  0
 25 57  1  0  0  0  0
 26 27  1  0  0  0  0
 27 28  2  0  0  0  0
 28 29  1  0  0  0  0
 28 58  1  0  0  0  0
 29 31  2  0  0  0  0
 29 59  1  0  0  0  0
 30 31  1  0  0  0  0
 30 60  1  0  0  0  0
 31 61  1  0  0  0  0
M  END
>  <DRUGBANK_ID>
DB07515

>  <COMMON_NAME>
1-(2-{[(6-amino-2-methylpyridin-3-yl)methyl]amino}ethyl)-6-chloro-3-[(2,2-difluoro-2-pyridin-2-ylethyl)amino]-1,4-dihydropyrazin-2-ol

$$$$
