210
 OpenBabel10282417103D

 59 64  0  0  0  0  0  0  0  0999 V2000
    0.9027    0.1538    0.0576 O   0  0  0  0  0  0  0  0  0  0  0  0
   -4.6567   -6.4391   -3.8590 O   0  0  0  0  0  0  0  0  0  0  0  0
   -5.1778   -8.1870   -5.0365 O   0  0  0  0  0  0  0  0  0  0  0  0
    1.9810   -2.6518   -0.6616 C   0  0  3  0  0  0  0  0  0  0  0  0
    3.4783   -3.0769    1.3767 C   0  0  3  0  0  0  0  0  0  0  0  0
    4.5406   -2.4186   -0.8297 C   0  0  3  0  0  0  0  0  0  0  0  0
    3.5315   -4.6877   -0.5501 C   0  0  3  0  0  0  0  0  0  0  0  0
    2.0870   -2.6159    0.9108 C   0  0  0  0  0  0  0  0  0  0  0  0
    3.1931   -1.9752   -1.4105 C   0  0  0  0  0  0  0  0  0  0  0  0
    2.1627   -4.1525   -1.0298 C   0  0  0  0  0  0  0  0  0  0  0  0
    4.6079   -2.2733    0.7045 C   0  0  0  0  0  0  0  0  0  0  0  0
    3.6199   -4.5481    0.9784 C   0  0  0  0  0  0  0  0  0  0  0  0
    4.6758   -3.8906   -1.2036 C   0  0  0  0  0  0  0  0  0  0  0  0
    0.6582   -2.0288   -1.1681 C   0  0  0  0  0  0  0  0  0  0  0  0
    0.3357   -0.6986   -0.8677 C   0  0  0  0  0  0  0  0  0  0  0  0
   -0.2962   -2.7824   -2.0118 C   0  0  0  0  0  0  0  0  0  0  0  0
   -1.4856   -2.2417   -2.6652 C   0  0  0  0  0  0  0  0  0  0  0  0
   -0.8509   -0.1938   -1.4266 C   0  0  0  0  0  0  0  0  0  0  0  0
   -1.7190   -0.9277   -2.2954 C   0  0  0  0  0  0  0  0  0  0  0  0
   -2.4865   -3.0606   -3.5578 C   0  0  0  0  0  0  0  0  0  0  0  0
    2.3015    0.4134    0.1133 C   0  0  0  0  0  0  0  0  0  0  0  0
   -3.3797   -2.7849   -4.7027 C   0  0  0  0  0  0  0  0  0  0  0  0
   -2.4936   -4.3841   -3.3429 C   0  0  0  0  0  0  0  0  0  0  0  0
   -4.1571   -3.9401   -5.5650 C   0  0  0  0  0  0  0  0  0  0  0  0
   -2.4773   -5.1797   -4.4905 C   0  0  0  0  0  0  0  0  0  0  0  0
   -3.1394   -4.7407   -5.6760 C   0  0  0  0  0  0  0  0  0  0  0  0
   -5.4960   -4.7727   -6.3111 C   0  0  0  0  0  0  0  0  0  0  0  0
   -3.2268   -5.5675   -6.7696 C   0  0  0  0  0  0  0  0  0  0  0  0
   -5.3176   -5.9620   -7.0894 C   0  0  0  0  0  0  0  0  0  0  0  0
   -4.2206   -6.4999   -6.5306 C   0  0  0  0  0  0  0  0  0  0  0  0
   -4.6486   -7.1335   -5.0619 C   0  0  0  0  0  0  0  0  0  0  0  0
   -4.5343   -5.4828   -3.7218 H   0  0  0  0  0  0  0  0  0  0  0  0
    3.5532   -2.9707    2.4666 H   0  0  0  0  0  0  0  0  0  0  0  0
    5.3470   -1.8291   -1.2839 H   0  0  0  0  0  0  0  0  0  0  0  0
    3.6198   -5.7395   -0.8334 H   0  0  0  0  0  0  0  0  0  0  0  0
    1.8655   -1.6592    1.3880 H   0  0  0  0  0  0  0  0  0  0  0  0
    1.3067   -3.2564    1.3476 H   0  0  0  0  0  0  0  0  0  0  0  0
    3.1304   -2.1985   -2.4858 H   0  0  0  0  0  0  0  0  0  0  0  0
    3.2041   -0.8967   -1.4585 H   0  0  0  0  0  0  0  0  0  0  0  0
    1.3614   -4.7511   -0.5814 H   0  0  0  0  0  0  0  0  0  0  0  0
    2.0991   -4.2770   -2.1178 H   0  0  0  0  0  0  0  0  0  0  0  0
    5.5792   -2.6409    1.0622 H   0  0  0  0  0  0  0  0  0  0  0  0
    4.5839   -1.2214    1.0114 H   0  0  0  0  0  0  0  0  0  0  0  0
    4.5750   -4.9414    1.3410 H   0  0  0  0  0  0  0  0  0  0  0  0
    2.8216   -5.1310    1.4523 H   0  0  0  0  0  0  0  0  0  0  0  0
    4.6300   -3.9890   -2.2956 H   0  0  0  0  0  0  0  0  0  0  0  0
    5.6508   -4.2698   -0.8825 H   0  0  0  0  0  0  0  0  0  0  0  0
   -0.1115   -3.8556   -2.1091 H   0  0  0  0  0  0  0  0  0  0  0  0
   -1.1270    0.8256   -1.1654 H   0  0  0  0  0  0  0  0  0  0  0  0
   -2.6436   -0.4581   -2.6050 H   0  0  0  0  0  0  0  0  0  0  0  0
    2.5645    1.0566    0.9576 H   0  0  0  0  0  0  0  0  0  0  0  0
    2.8713   -0.4628    0.3582 H   0  0  0  0  0  0  0  0  0  0  0  0
    2.6785    0.8584   -0.8095 H   0  0  0  0  0  0  0  0  0  0  0  0
   -2.7997   -2.1304   -5.4178 H   0  0  0  0  0  0  0  0  0  0  0  0
   -2.4336   -4.7845   -2.3382 H   0  0  0  0  0  0  0  0  0  0  0  0
   -2.2726   -6.2335   -4.4078 H   0  0  0  0  0  0  0  0  0  0  0  0
   -6.2245   -5.2951   -5.5906 H   0  0  0  0  0  0  0  0  0  0  0  0
   -3.4149   -4.8895   -7.6833 H   0  0  0  0  0  0  0  0  0  0  0  0
   -5.4279   -5.9477   -8.1889 H   0  0  0  0  0  0  0  0  0  0  0  0
  1 15  1  0  0  0  0
  1 21  1  0  0  0  0
  2 31  1  0  0  0  0
  2 32  1  0  0  0  0
  3 31  2  0  0  0  0
  4  8  1  0  0  0  0
  4  9  1  0  0  0  0
  4 10  1  0  0  0  0
  4 14  1  0  0  0  0
  5  8  1  0  0  0  0
  5 11  1  0  0  0  0
  5 12  1  0  0  0  0
  5 33  1  0  0  0  0
  6  9  1  0  0  0  0
  6 11  1  0  0  0  0
  6 13  1  0  0  0  0
  6 34  1  0  0  0  0
  7 10  1  0  0  0  0
  7 12  1  0  0  0  0
  7 13  1  0  0  0  0
  7 35  1  0  0  0  0
  8 36  1  0  0  0  0
  8 37  1  0  0  0  0
  9 38  1  0  0  0  0
  9 39  1  0  0  0  0
 10 40  1  0  0  0  0
 10 41  1  0  0  0  0
 11 42  1  0  0  0  0
 11 43  1  0  0  0  0
 12 44  1  0  0  0  0
 12 45  1  0  0  0  0
 13 46  1  0  0  0  0
 13 47  1  0  0  0  0
 14 15  2  0  0  0  0
 14 16  1  0  0  0  0
 15 18  1  0  0  0  0
 16 17  2  0  0  0  0
 16 48  1  0  0  0  0
 17 19  1  0  0  0  0
 17 20  1  0  0  0  0
 18 19  2  0  0  0  0
 18 49  1  0  0  0  0
 19 50  1  0  0  0  0
 20 22  2  0  0  0  0
 20 23  1  0  0  0  0
 21 51  1  0  0  0  0
 21 52  1  0  0  0  0
 21 53  1  0  0  0  0
 22 24  1  0  0  0  0
 22 54  1  0  0  0  0
 23 25  2  0  0  0  0
 23 55  1  0  0  0  0
 24 26  2  0  0  0  0
 24 27  1  0  0  0  0
 25 26  1  0  0  0  0
 25 56  1  0  0  0  0
 26 28  1  0  0  0  0
 27 29  2  0  0  0  0
 27 57  1  0  0  0  0
 28 30  2  0  0  0  0
 28 58  1  0  0  0  0
 29 30  1  0  0  0  0
 29 59  1  0  0  0  0
 30 31  1  0  0  0  0
M  END
>  <DRUGBANK_ID>
DB00210

>  <SECONDARY_ACCESSION_NUMBERS>
APRD00780

>  <COMMON_NAME>
Adapalene

>  <CAS_NUMBER>
106685-40-9

>  <UNII>
1L4806J2QF

>  <SYNONYMS>
6-(3-(1-Adamantyl)-4-methoxyphenyl)-2-naphthoic acid; Adapalene; Adapal√®ne; Adapaleno; Adapalenum

$$$$
