
 OpenBabel10282417143D

 18 17  0  0  0  0  0  0  0  0999 V2000
    1.0609    0.0057    0.0740 O   0  0  0  0  0  0  0  0  0  0  0  0
    3.9723   -1.0839   -1.4142 N   0  0  0  0  0  0  0  0  0  0  0  0
    4.6912   -2.9458    0.7169 N   0  0  0  0  0  0  0  0  0  0  0  0
    3.0832   -1.8853    2.2425 C   0  0  0  0  0  0  0  0  0  0  0  0
    3.9543   -1.6972    1.0039 C   0  0  2  0  0  0  0  0  0  0  0  0
    3.1044   -1.2791   -0.2224 C   0  0  1  0  0  0  0  0  0  0  0  0
    2.2874   -0.0130    0.0551 C   0  0  0  0  0  0  0  0  0  0  0  0
    3.0260    1.0972    0.2845 O   0  0  0  0  0  0  0  0  0  0  0  0
    4.4149   -1.9955   -1.5778 H   0  0  0  0  0  0  0  0  0  0  0  0
    3.3560   -0.9615   -2.2234 H   0  0  0  0  0  0  0  0  0  0  0  0
    4.9437   -3.4101    1.5898 H   0  0  0  0  0  0  0  0  0  0  0  0
    5.5760   -2.7119    0.2642 H   0  0  0  0  0  0  0  0  0  0  0  0
    2.2427   -2.5563    2.0391 H   0  0  0  0  0  0  0  0  0  0  0  0
    3.6622   -2.2963    3.0757 H   0  0  0  0  0  0  0  0  0  0  0  0
    2.6806   -0.9230    2.5769 H   0  0  0  0  0  0  0  0  0  0  0  0
    4.6964   -0.9195    1.2284 H   0  0  0  0  0  0  0  0  0  0  0  0
    2.3899   -2.0803   -0.4541 H   0  0  0  0  0  0  0  0  0  0  0  0
    3.9792    0.9370    0.1335 H   0  0  0  0  0  0  0  0  0  0  0  0
  2  9  1  0  0  0  0
  2 10  1  0  0  0  0
  3 11  1  0  0  0  0
  3 12  1  0  0  0  0
  4 13  1  0  0  0  0
  4 14  1  0  0  0  0
  4 15  1  0  0  0  0
  5 16  1  1  0  0  0
  5  4  1  0  0  0  0
  5  3  1  0  0  0  0
  6  2  1  0  0  0  0
  6  5  1  0  0  0  0
  6  7  1  0  0  0  0
  6 17  1  6  0  0  0
  7  1  2  0  0  0  0
  7  8  1  0  0  0  0
  8 18  1  0  0  0  0
M  END
>  <DRUGBANK_ID>
DB04804

>  <COMMON_NAME>
(2S)-2,3-Diaminobutanoic acid

>  <CAS_NUMBER>
25023-80-7

>  <UNII>
0CA9BP8DFV

>  <SYNONYMS>
(2S,3R)-2,3-Diaminobutanoic acid; L-threo-2,3-diamino-butyric acid; L-Threo-alpha,beta-diaminobutyric acid

$$$$
