
 OpenBabel10282417123D

 12 11  0  0  0  0  0  0  0  0999 V2000
    0.9246   -0.1149    0.1166 N   0  0  0  0  0  0  0  0  0  0  0  0
    0.2116   -1.2508   -0.1414 C   0  0  0  0  0  0  0  0  0  0  0  0
   -1.0138   -1.2366   -0.0980 O   0  0  0  0  0  0  0  0  0  0  0  0
    1.0147   -2.5015   -0.3706 C   0  0  0  0  0  0  0  0  0  0  0  0
    1.8328   -2.4351   -1.6243 C   0  0  0  0  0  0  0  0  0  0  0  0
    3.1618   -2.6142   -1.4475 O   0  0  0  0  0  0  0  0  0  0  0  0
    1.3638   -2.2223   -2.7345 O   0  0  0  0  0  0  0  0  0  0  0  0
    0.3926    0.7438    0.2053 H   0  0  0  0  0  0  0  0  0  0  0  0
    1.9259   -0.0331    0.0123 H   0  0  0  0  0  0  0  0  0  0  0  0
    1.6318   -2.7004    0.5115 H   0  0  0  0  0  0  0  0  0  0  0  0
    0.3258   -3.3488   -0.4718 H   0  0  0  0  0  0  0  0  0  0  0  0
    3.4655   -2.8052   -0.5407 H   0  0  0  0  0  0  0  0  0  0  0  0
  1  2  1  0  0  0  0
  1  8  1  0  0  0  0
  1  9  1  0  0  0  0
  2  3  2  0  0  0  0
  2  4  1  0  0  0  0
  4  5  1  0  0  0  0
  4 10  1  0  0  0  0
  4 11  1  0  0  0  0
  5  6  1  0  0  0  0
  5  7  2  0  0  0  0
  6 12  1  0  0  0  0
M  END
>  <DRUGBANK_ID>
DB02649

>  <SECONDARY_ACCESSION_NUMBERS>
EXPT02184

>  <COMMON_NAME>
3-Amino-3-Oxopropanoic Acid

>  <CAS_NUMBER>
2345-56-4

>  <UNII>
30H7L7X07N

$$$$
