2EQ
 OpenBabel10282417163D

 56 59  0  0  0  0  0  0  0  0999 V2000
   -1.1365    1.1666    0.4349 C   0  0  0  0  0  0  0  0  0  0  0  0
    0.3435    1.2863    0.3473 C   0  0  0  0  0  0  0  0  0  0  0  0
    1.0296    0.1595    0.9440 O   0  0  0  0  0  0  0  0  0  0  0  0
    0.6194   -1.0849    0.3709 C   0  0  0  0  0  0  0  0  0  0  0  0
   -0.8984   -1.2220    0.3973 C   0  0  0  0  0  0  0  0  0  0  0  0
   -1.5764   -0.0754   -0.2356 N   0  0  0  0  0  0  0  0  0  0  0  0
   -1.6148   -0.0874   -1.7366 C   0  0  0  0  0  0  0  0  0  0  0  0
   -0.3922   -0.3303   -2.6524 C   0  0  0  0  0  0  0  0  0  0  0  0
    0.3519   -1.5202   -2.6296 C   0  0  0  0  0  0  0  0  0  0  0  0
    1.6908   -1.5251   -3.0812 C   0  0  0  0  0  0  0  0  0  0  0  0
    0.0559    0.6480   -3.5555 C   0  0  0  0  0  0  0  0  0  0  0  0
    1.2477    0.4820   -4.3048 C   0  0  0  0  0  0  0  0  0  0  0  0
    2.1701   -0.5037   -3.9141 C   0  0  0  0  0  0  0  0  0  0  0  0
    3.6455   -0.3254   -4.1682 C   0  0  0  0  0  0  0  0  0  0  0  0
    4.7278    0.6757   -3.9054 C   0  0  0  0  0  0  0  0  0  0  0  0
    4.8378    2.0318   -3.1933 C   0  0  0  0  0  0  0  0  0  0  0  0
    5.9104    2.6847   -3.1444 O   0  0  0  0  0  0  0  0  0  0  0  0
    3.7889    2.6386   -2.5399 N   0  0  0  0  0  0  0  0  0  0  0  0
    2.6321    1.9319   -2.2756 C   0  0  0  0  0  0  0  0  0  0  0  0
    2.6570    1.1336   -1.0454 C   0  0  0  0  0  0  0  0  0  0  0  0
    5.8735    0.1882   -4.4337 N   0  0  0  0  0  0  0  0  0  0  0  0
    5.6056   -1.0563   -4.9608 O   0  0  0  0  0  0  0  0  0  0  0  0
    4.3048   -1.3593   -4.7832 C   0  0  0  0  0  0  0  0  0  0  0  0
    3.7819   -2.6030   -5.3051 C   0  0  0  0  0  0  0  0  0  0  0  0
    2.6279   -2.5003   -6.1112 C   0  0  0  0  0  0  0  0  0  0  0  0
    1.9380   -3.6244   -6.5259 C   0  0  0  0  0  0  0  0  0  0  0  0
    0.5054   -3.4273   -7.4590 Cl  0  0  0  0  0  0  0  0  0  0  0  0
    2.4279   -4.8776   -6.1842 C   0  0  0  0  0  0  0  0  0  0  0  0
    1.7893   -6.0235   -6.5665 O   0  0  0  0  0  0  0  0  0  0  0  0
    3.5818   -5.0018   -5.4075 C   0  0  0  0  0  0  0  0  0  0  0  0
    4.2155   -3.8653   -4.9040 C   0  0  0  0  0  0  0  0  0  0  0  0
    5.1778   -4.0704   -3.9536 O   0  0  0  0  0  0  0  0  0  0  0  0
   -1.3584    1.1685    1.5081 H   0  0  0  0  0  0  0  0  0  0  0  0
   -1.5802    2.0636   -0.0090 H   0  0  0  0  0  0  0  0  0  0  0  0
    0.4688    1.4095   -0.7307 H   0  0  0  0  0  0  0  0  0  0  0  0
    0.7462    2.1964    0.7992 H   0  0  0  0  0  0  0  0  0  0  0  0
    1.1475   -1.9486    0.7920 H   0  0  0  0  0  0  0  0  0  0  0  0
    0.9898   -1.0863   -0.6270 H   0  0  0  0  0  0  0  0  0  0  0  0
   -1.1817   -1.2623    1.4572 H   0  0  0  0  0  0  0  0  0  0  0  0
   -1.2445   -2.1557   -0.0531 H   0  0  0  0  0  0  0  0  0  0  0  0
   -2.3280   -0.8720   -2.0058 H   0  0  0  0  0  0  0  0  0  0  0  0
   -2.0899    0.8526   -2.0480 H   0  0  0  0  0  0  0  0  0  0  0  0
    0.0225   -2.3505   -2.0072 H   0  0  0  0  0  0  0  0  0  0  0  0
    2.3774   -2.2435   -2.6255 H   0  0  0  0  0  0  0  0  0  0  0  0
   -0.4185    1.6303   -3.5714 H   0  0  0  0  0  0  0  0  0  0  0  0
    1.6001    1.3094   -4.9229 H   0  0  0  0  0  0  0  0  0  0  0  0
    3.9284    3.4811   -2.0035 H   0  0  0  0  0  0  0  0  0  0  0  0
    1.7209    2.4646   -2.5504 H   0  0  0  0  0  0  0  0  0  0  0  0
    2.7370    1.1790   -2.9633 H   0  0  0  0  0  0  0  0  0  0  0  0
    2.4810    1.8440   -0.2518 H   0  0  0  0  0  0  0  0  0  0  0  0
    1.8743    0.4136   -1.2412 H   0  0  0  0  0  0  0  0  0  0  0  0
    3.4940    0.4929   -0.7855 H   0  0  0  0  0  0  0  0  0  0  0  0
    2.2164   -1.5207   -6.3508 H   0  0  0  0  0  0  0  0  0  0  0  0
    0.9623   -5.7622   -7.0143 H   0  0  0  0  0  0  0  0  0  0  0  0
    3.9704   -5.9874   -5.1737 H   0  0  0  0  0  0  0  0  0  0  0  0
    5.4298   -3.2285   -3.5334 H   0  0  0  0  0  0  0  0  0  0  0  0
  1  2  1  0  0  0  0
  1  6  1  0  0  0  0
  1 33  1  0  0  0  0
  1 34  1  0  0  0  0
  2  3  1  0  0  0  0
  2 35  1  0  0  0  0
  2 36  1  0  0  0  0
  3  4  1  0  0  0  0
  4  5  1  0  0  0  0
  4 37  1  0  0  0  0
  4 38  1  0  0  0  0
  5  6  1  0  0  0  0
  5 39  1  0  0  0  0
  5 40  1  0  0  0  0
  6  7  1  0  0  0  0
  7  8  1  0  0  0  0
  7 41  1  0  0  0  0
  7 42  1  0  0  0  0
  8  9  1  0  0  0  0
  8 11  2  0  0  0  0
  9 10  2  0  0  0  0
  9 43  1  0  0  0  0
 10 13  1  0  0  0  0
 10 44  1  0  0  0  0
 11 12  1  0  0  0  0
 11 45  1  0  0  0  0
 12 13  2  0  0  0  0
 12 46  1  0  0  0  0
 13 14  1  0  0  0  0
 14 15  1  0  0  0  0
 14 23  2  0  0  0  0
 15 16  1  0  0  0  0
 15 21  2  0  0  0  0
 16 17  2  0  0  0  0
 16 18  1  0  0  0  0
 18 19  1  0  0  0  0
 18 47  1  0  0  0  0
 19 20  1  0  0  0  0
 19 48  1  0  0  0  0
 19 49  1  0  0  0  0
 20 50  1  0  0  0  0
 20 51  1  0  0  0  0
 20 52  1  0  0  0  0
 21 22  1  0  0  0  0
 22 23  1  0  0  0  0
 23 24  1  0  0  0  0
 24 25  1  0  0  0  0
 24 31  2  0  0  0  0
 25 26  2  0  0  0  0
 25 53  1  0  0  0  0
 26 27  1  0  0  0  0
 26 28  1  0  0  0  0
 28 29  1  0  0  0  0
 28 30  2  0  0  0  0
 29 54  1  0  0  0  0
 30 31  1  0  0  0  0
 30 55  1  0  0  0  0
 31 32  1  0  0  0  0
 32 56  1  0  0  0  0
M  END
>  <DRUGBANK_ID>
DB06961

>  <COMMON_NAME>
5-(5-chloro-2,4-dihydroxyphenyl)-N-ethyl-4-[4-(morpholin-4-ylmethyl)phenyl]isoxazole-3-carboxamide

$$$$
