
 OpenBabel10282417143D

 86 89  0  0  0  0  0  0  0  0999 V2000
    0.8227   -0.1098    0.0523 P   0  3  0  0  0  0  0  0  0  0  0  0
    0.0972   -1.3771   -1.0873 C   0  0  0  0  0  0  0  0  0  0  0  0
    0.2673   -2.7708   -0.8723 C   0  0  0  0  0  0  0  0  0  0  0  0
    0.1534   -3.7228   -1.8704 C   0  0  0  0  0  0  0  0  0  0  0  0
   -0.5410   -3.3846   -2.9975 C   0  0  0  0  0  0  0  0  0  0  0  0
   -1.0017   -2.0787   -3.1334 C   0  0  0  0  0  0  0  0  0  0  0  0
   -0.5690   -1.0637   -2.2655 C   0  0  0  0  0  0  0  0  0  0  0  0
    0.3207   -0.4670    1.7333 C   0  0  0  0  0  0  0  0  0  0  0  0
    0.3098   -1.7826    2.2084 C   0  0  0  0  0  0  0  0  0  0  0  0
    0.0399   -2.1236    3.5209 C   0  0  0  0  0  0  0  0  0  0  0  0
   -0.2105   -1.1170    4.4253 C   0  0  0  0  0  0  0  0  0  0  0  0
   -0.1983    0.2110    3.9965 C   0  0  0  0  0  0  0  0  0  0  0  0
    0.0240    0.5354    2.6522 C   0  0  0  0  0  0  0  0  0  0  0  0
    0.3337    1.5632   -0.3908 C   0  0  0  0  0  0  0  0  0  0  0  0
   -0.9696    1.8057   -0.8341 C   0  0  0  0  0  0  0  0  0  0  0  0
   -1.4068    3.0903   -1.1438 C   0  0  0  0  0  0  0  0  0  0  0  0
   -0.5723    4.1772   -0.9178 C   0  0  0  0  0  0  0  0  0  0  0  0
    0.7085    3.9705   -0.4156 C   0  0  0  0  0  0  0  0  0  0  0  0
    1.1796    2.6705   -0.2118 C   0  0  0  0  0  0  0  0  0  0  0  0
    2.7145   -0.0471    0.1315 C   0  0  0  0  0  0  0  0  0  0  0  0
    3.4190   -1.3470    0.5177 C   0  0  0  0  0  0  0  0  0  0  0  0
    3.1207   -2.3365   -0.5665 C   0  0  0  0  0  0  0  0  0  0  0  0
    3.5194   -2.0353   -1.9898 C   0  0  0  0  0  0  0  0  0  0  0  0
    5.0111   -2.1069   -2.0104 C   0  0  0  0  0  0  0  0  0  0  0  0
    5.4098   -3.5286   -1.5988 C   0  0  0  0  0  0  0  0  0  0  0  0
    4.8194   -4.5724   -2.5685 C   0  0  0  0  0  0  0  0  0  0  0  0
    5.2585   -4.3113   -4.0195 C   0  0  0  0  0  0  0  0  0  0  0  0
    6.7734   -4.2301   -4.0988 C   0  0  0  0  0  0  0  0  0  0  0  0
    7.4520   -5.5092   -3.6034 C   0  0  0  0  0  0  0  0  0  0  0  0
    8.6173   -5.4224   -2.6371 C   0  0  0  0  0  0  0  0  0  0  0  0
    9.1313   -6.5553   -2.1122 C   0  0  0  0  0  0  0  0  0  0  0  0
    8.5984   -7.9292   -2.4452 C   0  0  0  0  0  0  0  0  0  0  0  0
   10.2853   -6.5150   -1.1792 C   0  0  0  0  0  0  0  0  0  0  0  0
   10.7067   -7.5686   -0.6987 O   0  0  0  0  0  0  0  0  0  0  0  0
   10.9061   -5.1964   -0.8508 C   0  0  0  0  0  0  0  0  0  0  0  0
   12.0310   -5.0880   -0.0595 O   0  0  0  0  0  0  0  0  0  0  0  0
   12.6867   -6.2256    0.4502 C   0  0  0  0  0  0  0  0  0  0  0  0
   10.3627   -4.0591   -1.3297 C   0  0  0  0  0  0  0  0  0  0  0  0
   10.7939   -2.7633   -1.0863 O   0  0  0  0  0  0  0  0  0  0  0  0
   11.9246   -2.5384   -0.2673 C   0  0  0  0  0  0  0  0  0  0  0  0
    9.2021   -4.1145   -2.2389 C   0  0  0  0  0  0  0  0  0  0  0  0
    8.7789   -3.0277   -2.6597 O   0  0  0  0  0  0  0  0  0  0  0  0
    0.7958   -3.1691   -0.0184 H   0  0  0  0  0  0  0  0  0  0  0  0
    0.6394   -4.6869   -1.7386 H   0  0  0  0  0  0  0  0  0  0  0  0
   -0.7219   -4.1373   -3.7527 H   0  0  0  0  0  0  0  0  0  0  0  0
   -1.6723   -1.8359   -3.9483 H   0  0  0  0  0  0  0  0  0  0  0  0
   -0.7681   -0.0418   -2.5601 H   0  0  0  0  0  0  0  0  0  0  0  0
    0.5420   -2.6178    1.5885 H   0  0  0  0  0  0  0  0  0  0  0  0
    0.0604   -3.1712    3.8061 H   0  0  0  0  0  0  0  0  0  0  0  0
   -0.4122   -1.3731    5.4582 H   0  0  0  0  0  0  0  0  0  0  0  0
   -0.3495    1.0029    4.7219 H   0  0  0  0  0  0  0  0  0  0  0  0
   -0.0224    1.5762    2.3434 H   0  0  0  0  0  0  0  0  0  0  0  0
   -1.6686    0.9821   -0.9381 H   0  0  0  0  0  0  0  0  0  0  0  0
   -2.4124    3.2344   -1.5266 H   0  0  0  0  0  0  0  0  0  0  0  0
   -0.9257    5.1835   -1.1196 H   0  0  0  0  0  0  0  0  0  0  0  0
    1.3371    4.8222   -0.1674 H   0  0  0  0  0  0  0  0  0  0  0  0
    2.2059    2.5540    0.1237 H   0  0  0  0  0  0  0  0  0  0  0  0
    3.0779    0.3151   -0.8372 H   0  0  0  0  0  0  0  0  0  0  0  0
    3.0136    0.7050    0.8677 H   0  0  0  0  0  0  0  0  0  0  0  0
    4.4958   -1.2322    0.6642 H   0  0  0  0  0  0  0  0  0  0  0  0
    3.0069   -1.7167    1.4619 H   0  0  0  0  0  0  0  0  0  0  0  0
    3.1663   -3.3861   -0.2557 H   0  0  0  0  0  0  0  0  0  0  0  0
    2.1192   -2.1365   -0.6880 H   0  0  0  0  0  0  0  0  0  0  0  0
    3.0276   -2.7461   -2.6685 H   0  0  0  0  0  0  0  0  0  0  0  0
    3.1388   -1.0727   -2.3424 H   0  0  0  0  0  0  0  0  0  0  0  0
    5.3714   -1.8141   -2.9974 H   0  0  0  0  0  0  0  0  0  0  0  0
    5.4223   -1.3711   -1.3137 H   0  0  0  0  0  0  0  0  0  0  0  0
    6.4934   -3.5795   -1.5162 H   0  0  0  0  0  0  0  0  0  0  0  0
    5.0862   -3.7778   -0.5817 H   0  0  0  0  0  0  0  0  0  0  0  0
    5.1059   -5.5652   -2.2158 H   0  0  0  0  0  0  0  0  0  0  0  0
    3.7253   -4.6049   -2.5313 H   0  0  0  0  0  0  0  0  0  0  0  0
    4.8674   -5.0708   -4.6982 H   0  0  0  0  0  0  0  0  0  0  0  0
    4.8525   -3.3529   -4.3700 H   0  0  0  0  0  0  0  0  0  0  0  0
    7.1243   -3.9806   -5.1028 H   0  0  0  0  0  0  0  0  0  0  0  0
    7.0105   -3.3540   -3.5134 H   0  0  0  0  0  0  0  0  0  0  0  0
    7.7665   -6.0643   -4.4947 H   0  0  0  0  0  0  0  0  0  0  0  0
    6.7070   -6.1687   -3.1444 H   0  0  0  0  0  0  0  0  0  0  0  0
    7.5578   -8.0332   -2.1183 H   0  0  0  0  0  0  0  0  0  0  0  0
    8.6502   -8.1084   -3.5245 H   0  0  0  0  0  0  0  0  0  0  0  0
    9.1562   -8.7400   -1.9687 H   0  0  0  0  0  0  0  0  0  0  0  0
   12.0383   -6.7529    1.1522 H   0  0  0  0  0  0  0  0  0  0  0  0
   13.0500   -6.8619   -0.3600 H   0  0  0  0  0  0  0  0  0  0  0  0
   13.5546   -5.8607    1.0063 H   0  0  0  0  0  0  0  0  0  0  0  0
   11.7414   -2.9095    0.7461 H   0  0  0  0  0  0  0  0  0  0  0  0
   12.8145   -2.9832   -0.7236 H   0  0  0  0  0  0  0  0  0  0  0  0
   12.0972   -1.4633   -0.1957 H   0  0  0  0  0  0  0  0  0  0  0  0
  1  2  1  0  0  0  0
  1  8  1  0  0  0  0
  1 14  1  0  0  0  0
  1 20  1  0  0  0  0
  2  3  1  0  0  0  0
  2  7  2  0  0  0  0
  3  4  2  0  0  0  0
  3 43  1  0  0  0  0
  4  5  1  0  0  0  0
  4 44  1  0  0  0  0
  5 45  1  0  0  0  0
  6  5  2  0  0  0  0
  6 46  1  0  0  0  0
  7  6  1  0  0  0  0
  7 47  1  0  0  0  0
  8  9  1  0  0  0  0
  8 13  2  0  0  0  0
  9 10  2  0  0  0  0
  9 48  1  0  0  0  0
 10 11  1  0  0  0  0
 10 49  1  0  0  0  0
 11 50  1  0  0  0  0
 12 11  2  0  0  0  0
 12 51  1  0  0  0  0
 13 12  1  0  0  0  0
 13 52  1  0  0  0  0
 14 15  1  0  0  0  0
 14 19  2  0  0  0  0
 15 16  2  0  0  0  0
 15 53  1  0  0  0  0
 16 17  1  0  0  0  0
 16 54  1  0  0  0  0
 17 55  1  0  0  0  0
 18 17  2  0  0  0  0
 18 56  1  0  0  0  0
 19 18  1  0  0  0  0
 19 57  1  0  0  0  0
 20 21  1  0  0  0  0
 20 58  1  0  0  0  0
 20 59  1  0  0  0  0
 21 22  1  0  0  0  0
 21 60  1  0  0  0  0
 21 61  1  0  0  0  0
 22 23  1  0  0  0  0
 22 62  1  0  0  0  0
 22 63  1  0  0  0  0
 23 24  1  0  0  0  0
 23 64  1  0  0  0  0
 23 65  1  0  0  0  0
 24 25  1  0  0  0  0
 24 66  1  0  0  0  0
 24 67  1  0  0  0  0
 25 26  1  0  0  0  0
 25 68  1  0  0  0  0
 25 69  1  0  0  0  0
 26 27  1  0  0  0  0
 26 70  1  0  0  0  0
 26 71  1  0  0  0  0
 27 28  1  0  0  0  0
 27 72  1  0  0  0  0
 27 73  1  0  0  0  0
 28 29  1  0  0  0  0
 28 74  1  0  0  0  0
 28 75  1  0  0  0  0
 29 30  1  0  0  0  0
 29 76  1  0  0  0  0
 29 77  1  0  0  0  0
 30 31  2  0  0  0  0
 30 41  1  0  0  0  0
 31 32  1  0  0  0  0
 31 33  1  0  0  0  0
 32 78  1  0  0  0  0
 32 79  1  0  0  0  0
 32 80  1  0  0  0  0
 33 34  2  0  0  0  0
 33 35  1  0  0  0  0
 35 36  1  0  0  0  0
 36 37  1  0  0  0  0
 37 81  1  0  0  0  0
 37 82  1  0  0  0  0
 37 83  1  0  0  0  0
 38 35  2  0  0  0  0
 38 39  1  0  0  0  0
 39 40  1  0  0  0  0
 40 84  1  0  0  0  0
 40 85  1  0  0  0  0
 40 86  1  0  0  0  0
 41 38  1  0  0  0  0
 41 42  2  0  0  0  0
M  CHG  1   1   1
M  END
>  <DRUGBANK_ID>
DB05063

>  <COMMON_NAME>
Mitoquinone

>  <CAS_NUMBER>
444890-41-9

>  <UNII>
47BYS17IY0

>  <SYNONYMS>
Mitoquinone cation; Mitoquinone ion

$$$$
