1625
 OpenBabel10282417123D

 59 60  0  0  0  0  0  0  0  0999 V2000
    1.1823    0.4302   -0.1423 O   0  0  0  0  0  0  0  0  0  0  0  0
    0.5802   -1.5418    3.0294 N   0  3  0  0  0  0  0  0  0  0  0  0
    3.0597    0.7904   -1.2700 N   0  0  0  0  0  0  0  0  0  0  0  0
    1.2075   -0.0999    2.8478 C   0  0  0  0  0  0  0  0  0  0  0  0
    1.4958   -2.4346    3.9783 C   0  0  0  0  0  0  0  0  0  0  0  0
   -0.9928   -1.7165    3.0390 C   0  0  0  0  0  0  0  0  0  0  0  0
    2.7127   -0.1738    2.2806 C   0  0  0  0  0  0  0  0  0  0  0  0
    0.8623   -2.0006    1.7495 C   0  0  0  0  0  0  0  0  0  0  0  0
    3.1628   -0.8225    0.6748 C   0  0  0  0  0  0  0  0  0  0  0  0
    1.2569   -1.9445    5.3596 C   0  0  0  0  0  0  0  0  0  0  0  0
    1.4059   -3.9637    3.8880 C   0  0  0  0  0  0  0  0  0  0  0  0
   -1.6429   -0.9610    1.8458 C   0  0  0  0  0  0  0  0  0  0  0  0
   -1.4743   -3.1933    2.8247 C   0  0  0  0  0  0  0  0  0  0  0  0
    2.8426   -2.4901    0.0675 C   0  0  0  0  0  0  0  0  0  0  0  0
    4.7231   -0.5121    0.7432 C   0  0  0  0  0  0  0  0  0  0  0  0
    2.4107    0.1718   -0.2722 C   0  0  0  0  0  0  0  0  0  0  0  0
    3.7864   -3.4910    0.2795 C   0  0  0  0  0  0  0  0  0  0  0  0
    5.2160    0.8053    0.7742 C   0  0  0  0  0  0  0  0  0  0  0  0
    1.5958   -3.1314   -0.2302 C   0  0  0  0  0  0  0  0  0  0  0  0
    5.7123   -1.4929    0.9004 C   0  0  0  0  0  0  0  0  0  0  0  0
    3.5620   -4.8371    0.6536 C   0  0  0  0  0  0  0  0  0  0  0  0
    6.5933    1.0679    0.7083 C   0  0  0  0  0  0  0  0  0  0  0  0
    1.3021   -4.4626    0.3047 C   0  0  0  0  0  0  0  0  0  0  0  0
    7.0744   -1.2594    0.8008 C   0  0  0  0  0  0  0  0  0  0  0  0
    2.2874   -5.3186    0.7489 C   0  0  0  0  0  0  0  0  0  0  0  0
    7.5186    0.0302    0.6637 C   0  0  0  0  0  0  0  0  0  0  0  0
    4.0734    0.8101   -1.3382 H   0  0  0  0  0  0  0  0  0  0  0  0
    2.5442    1.4514   -1.8395 H   0  0  0  0  0  0  0  0  0  0  0  0
    1.1090    0.4165    3.8097 H   0  0  0  0  0  0  0  0  0  0  0  0
    0.6055    0.4810    2.1438 H   0  0  0  0  0  0  0  0  0  0  0  0
    2.5425   -2.2481    3.6962 H   0  0  0  0  0  0  0  0  0  0  0  0
   -1.3227   -1.3313    3.9986 H   0  0  0  0  0  0  0  0  0  0  0  0
    3.3623   -0.6282    3.0414 H   0  0  0  0  0  0  0  0  0  0  0  0
    3.0276    0.8873    2.3112 H   0  0  0  0  0  0  0  0  0  0  0  0
    0.5617   -1.2827    0.9861 H   0  0  0  0  0  0  0  0  0  0  0  0
    1.9070   -2.1695    1.8348 H   0  0  0  0  0  0  0  0  0  0  0  0
    0.3843   -2.9323    1.6335 H   0  0  0  0  0  0  0  0  0  0  0  0
    0.1968   -2.0577    5.5770 H   0  0  0  0  0  0  0  0  0  0  0  0
    1.8528   -2.5219    6.0641 H   0  0  0  0  0  0  0  0  0  0  0  0
    1.5456   -0.8955    5.4292 H   0  0  0  0  0  0  0  0  0  0  0  0
    1.6417   -4.3487    2.9034 H   0  0  0  0  0  0  0  0  0  0  0  0
    2.1487   -4.4245    4.5494 H   0  0  0  0  0  0  0  0  0  0  0  0
    0.4692   -4.3845    4.2211 H   0  0  0  0  0  0  0  0  0  0  0  0
   -1.3930   -1.4038    0.8653 H   0  0  0  0  0  0  0  0  0  0  0  0
   -2.7276   -1.0471    1.9051 H   0  0  0  0  0  0  0  0  0  0  0  0
   -1.3673    0.0912    1.8067 H   0  0  0  0  0  0  0  0  0  0  0  0
   -1.0984   -3.9026    3.5434 H   0  0  0  0  0  0  0  0  0  0  0  0
   -2.5581   -3.2552    2.8999 H   0  0  0  0  0  0  0  0  0  0  0  0
   -1.2710   -3.6040    1.8223 H   0  0  0  0  0  0  0  0  0  0  0  0
    4.7421   -3.3475   -0.2007 H   0  0  0  0  0  0  0  0  0  0  0  0
    4.5481    1.6654    0.8257 H   0  0  0  0  0  0  0  0  0  0  0  0
    0.6939   -2.5884   -0.5338 H   0  0  0  0  0  0  0  0  0  0  0  0
    5.5345   -2.5233    1.1353 H   0  0  0  0  0  0  0  0  0  0  0  0
    4.4131   -5.4941    0.7992 H   0  0  0  0  0  0  0  0  0  0  0  0
    6.9485    2.0931    0.6761 H   0  0  0  0  0  0  0  0  0  0  0  0
    0.2837   -4.7435    0.6135 H   0  0  0  0  0  0  0  0  0  0  0  0
    7.7513   -2.1095    0.8488 H   0  0  0  0  0  0  0  0  0  0  0  0
    2.0589   -6.3221    1.1033 H   0  0  0  0  0  0  0  0  0  0  0  0
    8.5824    0.2097    0.5622 H   0  0  0  0  0  0  0  0  0  0  0  0
  1 16  2  0  0  0  0
  2  4  1  0  0  0  0
  2  5  1  0  0  0  0
  2  6  1  0  0  0  0
  2  8  1  0  0  0  0
  3 16  1  0  0  0  0
  3 27  1  0  0  0  0
  3 28  1  0  0  0  0
  4  7  1  0  0  0  0
  4 29  1  0  0  0  0
  4 30  1  0  0  0  0
  5 10  1  0  0  0  0
  5 11  1  0  0  0  0
  5 31  1  0  0  0  0
  6 12  1  0  0  0  0
  6 13  1  0  0  0  0
  6 32  1  0  0  0  0
  7  9  1  0  0  0  0
  7 33  1  0  0  0  0
  7 34  1  0  0  0  0
  8 35  1  0  0  0  0
  8 36  1  0  0  0  0
  8 37  1  0  0  0  0
  9 14  1  0  0  0  0
  9 15  1  0  0  0  0
  9 16  1  0  0  0  0
 10 38  1  0  0  0  0
 10 39  1  0  0  0  0
 10 40  1  0  0  0  0
 11 41  1  0  0  0  0
 11 42  1  0  0  0  0
 11 43  1  0  0  0  0
 12 44  1  0  0  0  0
 12 45  1  0  0  0  0
 12 46  1  0  0  0  0
 13 47  1  0  0  0  0
 13 48  1  0  0  0  0
 13 49  1  0  0  0  0
 14 17  2  0  0  0  0
 14 19  1  0  0  0  0
 15 18  2  0  0  0  0
 15 20  1  0  0  0  0
 17 21  1  0  0  0  0
 17 50  1  0  0  0  0
 18 22  1  0  0  0  0
 18 51  1  0  0  0  0
 19 23  2  0  0  0  0
 19 52  1  0  0  0  0
 20 24  2  0  0  0  0
 20 53  1  0  0  0  0
 21 25  2  0  0  0  0
 21 54  1  0  0  0  0
 22 26  2  0  0  0  0
 22 55  1  0  0  0  0
 23 25  1  0  0  0  0
 23 56  1  0  0  0  0
 24 26  1  0  0  0  0
 24 57  1  0  0  0  0
 25 58  1  0  0  0  0
 26 59  1  0  0  0  0
M  CHG  1   2   1
M  END
>  <DRUGBANK_ID>
DB01625

>  <COMMON_NAME>
Isopropamide

>  <CAS_NUMBER>
7492-32-2

>  <UNII>
8B9I31H724

>  <SYNONYMS>
Isopropamide

$$$$
