
 OpenBabel10282417123D

 72 74  0  0  0  0  0  0  0  0999 V2000
   -0.7935    1.3083   -0.3884 C   0  0  2  0  0  0  0  0  0  0  0  0
   -1.3507   -0.0477   -0.5677 O   0  0  0  0  0  0  0  0  0  0  0  0
    0.5315    1.3039    0.4105 C   0  0  0  0  0  0  0  0  0  0  0  0
   -1.8416    2.0931    0.2469 O   0  0  0  0  0  0  0  0  0  0  0  0
   -0.4966    1.9639   -1.8811 C   0  0  0  0  0  0  0  0  0  0  0  0
   -0.6297   -1.3128   -0.3270 C   0  0  2  0  0  0  0  0  0  0  0  0
    1.3504    0.0407    0.3155 C   0  0  1  0  0  0  0  0  0  0  0  0
   -1.7409    2.3200    1.8426 P   0  0  3  0  0  0  0  0  0  0  0  0
   -1.3193    1.4255   -2.8525 O   0  0  0  0  0  0  0  0  0  0  0  0
    0.3954    2.7123   -2.1734 O   0  0  0  0  0  0  0  0  0  0  0  0
    0.5645   -1.2461    0.6665 C   0  0  1  0  0  0  0  0  0  0  0  0
    2.0597   -0.0298   -0.9039 O   0  0  0  0  0  0  0  0  0  0  0  0
   -1.4078    0.8135    2.2913 O   0  0  0  0  0  0  0  0  0  0  0  0
   -0.6027    3.4257    1.6970 O   0  0  0  0  0  0  0  0  0  0  0  0
   -2.6760    2.9346    2.8038 O   0  0  0  0  0  0  0  0  0  0  0  0
   -2.3890   -0.1239    1.8329 C   0  0  0  0  0  0  0  0  0  0  0  0
   -3.6236   -0.3597    2.6313 C   0  0  1  0  0  0  0  0  0  0  0  0
   -4.0550    0.8742    3.2030 O   0  0  0  0  0  0  0  0  0  0  0  0
   -4.7206   -0.8188    1.6596 C   0  0  2  0  0  0  0  0  0  0  0  0
   -5.1551    1.4304    2.4288 C   0  0  2  0  0  0  0  0  0  0  0  0
   -5.3693    0.5001    1.2373 C   0  0  2  0  0  0  0  0  0  0  0  0
   -5.6475   -1.6619    2.3303 O   0  0  0  0  0  0  0  0  0  0  0  0
   -5.0684    2.9078    2.1481 N   0  0  0  0  0  0  0  0  0  0  0  0
   -6.7543    0.3625    0.9645 O   0  0  0  0  0  0  0  0  0  0  0  0
   -4.4073    3.4520    1.0360 C   0  0  0  0  0  0  0  0  0  0  0  0
   -5.3826    3.7648    3.1916 C   0  0  0  0  0  0  0  0  0  0  0  0
   -3.8940    4.7329    1.0586 N   0  0  0  0  0  0  0  0  0  0  0  0
   -4.1809    2.7607    0.0197 O   0  0  0  0  0  0  0  0  0  0  0  0
   -4.8749    4.9948    3.2662 C   0  0  0  0  0  0  0  0  0  0  0  0
   -4.0874    5.4711    2.1136 C   0  0  0  0  0  0  0  0  0  0  0  0
   -3.5722    6.7430    2.1182 N   0  0  0  0  0  0  0  0  0  0  0  0
   -0.1323   -1.7486   -1.7238 C   0  0  1  0  0  0  0  0  0  0  0  0
   -1.1663   -2.4152   -2.6339 C   0  0  1  0  0  0  0  0  0  0  0  0
   -2.6019   -1.8400   -2.6294 C   0  0  0  0  0  0  0  0  0  0  0  0
   -2.6582   -0.5648   -3.2621 O   0  0  0  0  0  0  0  0  0  0  0  0
    0.1957   -1.4567    2.1004 N   0  0  0  0  0  0  0  0  0  0  0  0
   -1.3730   -2.0581   -0.0002 H   0  0  0  0  0  0  0  0  0  0  0  0
   -0.6497   -2.3430   -3.9777 O   0  0  0  0  0  0  0  0  0  0  0  0
    0.1337   -0.5126   -2.3733 O   0  0  0  0  0  0  0  0  0  0  0  0
    0.7864   -1.0367    3.2609 C   0  0  0  0  0  0  0  0  0  0  0  0
    0.1924   -1.1712    4.3283 O   0  0  0  0  0  0  0  0  0  0  0  0
    2.1524   -0.4472    3.1810 C   0  0  0  0  0  0  0  0  0  0  0  0
    0.4045    1.4163    1.4836 H   0  0  0  0  0  0  0  0  0  0  0  0
    1.1071    2.2024    0.1710 H   0  0  0  0  0  0  0  0  0  0  0  0
    2.1722    0.1407    0.9955 H   0  0  0  0  0  0  0  0  0  0  0  0
   -1.0201    0.6093   -3.3449 H   0  0  0  0  0  0  0  0  0  0  0  0
    1.1733   -2.1316    0.4687 H   0  0  0  0  0  0  0  0  0  0  0  0
    1.4582    0.1144   -1.6607 H   0  0  0  0  0  0  0  0  0  0  0  0
   -1.1390    4.1723    1.3093 H   0  0  0  0  0  0  0  0  0  0  0  0
   -2.7539    0.1346    0.8452 H   0  0  0  0  0  0  0  0  0  0  0  0
   -1.9576   -1.1045    1.7200 H   0  0  0  0  0  0  0  0  0  0  0  0
   -3.3876   -1.1167    3.3926 H   0  0  0  0  0  0  0  0  0  0  0  0
   -4.3478   -1.3741    0.7821 H   0  0  0  0  0  0  0  0  0  0  0  0
   -5.9820    1.3088    3.1326 H   0  0  0  0  0  0  0  0  0  0  0  0
   -4.8704    0.8233    0.3281 H   0  0  0  0  0  0  0  0  0  0  0  0
   -5.7951   -1.2788    3.2108 H   0  0  0  0  0  0  0  0  0  0  0  0
   -7.1335   -0.0904    1.7388 H   0  0  0  0  0  0  0  0  0  0  0  0
   -6.0116    3.3649    3.9759 H   0  0  0  0  0  0  0  0  0  0  0  0
   -4.9841    5.6284    4.1333 H   0  0  0  0  0  0  0  0  0  0  0  0
   -4.0184    7.4382    2.7056 H   0  0  0  0  0  0  0  0  0  0  0  0
   -3.2770    7.0997    1.2144 H   0  0  0  0  0  0  0  0  0  0  0  0
    0.8091   -2.2991   -1.6912 H   0  0  0  0  0  0  0  0  0  0  0  0
   -1.2069   -3.4643   -2.3504 H   0  0  0  0  0  0  0  0  0  0  0  0
   -3.2293   -2.5054   -3.2268 H   0  0  0  0  0  0  0  0  0  0  0  0
   -3.0425   -1.7811   -1.6286 H   0  0  0  0  0  0  0  0  0  0  0  0
   -2.8615    0.1387   -2.6073 H   0  0  0  0  0  0  0  0  0  0  0  0
   -0.5724   -2.0754    2.3527 H   0  0  0  0  0  0  0  0  0  0  0  0
   -0.6654   -1.3988   -4.2401 H   0  0  0  0  0  0  0  0  0  0  0  0
   -0.6642   -0.0915   -1.9944 H   0  0  0  0  0  0  0  0  0  0  0  0
    2.7620   -1.0977    2.5432 H   0  0  0  0  0  0  0  0  0  0  0  0
    2.0884    0.5769    2.8108 H   0  0  0  0  0  0  0  0  0  0  0  0
    2.6203   -0.3905    4.1601 H   0  0  0  0  0  0  0  0  0  0  0  0
  1  2  1  0  0  0  0
  1  3  1  0  0  0  0
  1  4  1  1  0  0  0
  1  5  1  0  0  0  0
  2  6  1  0  0  0  0
  3  7  1  0  0  0  0
  3 43  1  0  0  0  0
  3 44  1  0  0  0  0
  4  8  1  0  0  0  0
  5  9  1  0  0  0  0
  5 10  2  0  0  0  0
  6 11  1  0  0  0  0
  6 37  1  1  0  0  0
  6 32  1  0  0  0  0
  7 12  1  0  0  0  0
  7 11  1  0  0  0  0
  7 45  1  1  0  0  0
  8 13  1  0  0  0  0
  8 14  1  0  0  0  0
  8 15  2  0  0  0  0
  9 46  1  0  0  0  0
 11 47  1  6  0  0  0
 11 36  1  0  0  0  0
 12 48  1  0  0  0  0
 13 16  1  0  0  0  0
 14 49  1  0  0  0  0
 16 50  1  0  0  0  0
 16 51  1  0  0  0  0
 17 16  1  0  0  0  0
 17 18  1  0  0  0  0
 17 19  1  0  0  0  0
 17 52  1  1  0  0  0
 18 20  1  0  0  0  0
 19 21  1  0  0  0  0
 19 22  1  0  0  0  0
 19 53  1  6  0  0  0
 20 21  1  0  0  0  0
 20 54  1  1  0  0  0
 20 23  1  0  0  0  0
 21 24  1  0  0  0  0
 21 55  1  6  0  0  0
 22 56  1  0  0  0  0
 23 25  1  0  0  0  0
 23 26  1  0  0  0  0
 24 57  1  0  0  0  0
 25 27  1  0  0  0  0
 25 28  2  0  0  0  0
 26 29  2  0  0  0  0
 26 58  1  0  0  0  0
 27 30  2  0  0  0  0
 29 30  1  0  0  0  0
 29 59  1  0  0  0  0
 30 31  1  0  0  0  0
 31 60  1  0  0  0  0
 31 61  1  0  0  0  0
 32 33  1  0  0  0  0
 32 39  1  0  0  0  0
 32 62  1  1  0  0  0
 33 34  1  0  0  0  0
 33 38  1  0  0  0  0
 33 63  1  1  0  0  0
 34 35  1  0  0  0  0
 34 64  1  0  0  0  0
 34 65  1  0  0  0  0
 35 66  1  0  0  0  0
 36 40  1  0  0  0  0
 36 67  1  0  0  0  0
 38 68  1  0  0  0  0
 39 69  1  0  0  0  0
 40 41  2  0  0  0  0
 40 42  1  0  0  0  0
 42 70  1  0  0  0  0
 42 71  1  0  0  0  0
 42 72  1  0  0  0  0
M  END
>  <DRUGBANK_ID>
DB02485

>  <SECONDARY_ACCESSION_NUMBERS>
EXPT02309

>  <COMMON_NAME>
Cytidine-5'-Monophosphate-5-N-Acetylneuraminic Acid

>  <UNII>
T8I6M8AXA0

$$$$
