
 OpenBabel10282417203D

 46 49  0  0  0  0  0  0  0  0999 V2000
   -1.1780   -1.1839   -0.0742 C   0  0  0  0  0  0  0  0  0  0  0  0
    0.2254   -1.2232   -0.0224 C   0  0  0  0  0  0  0  0  0  0  0  0
    0.9796   -0.0438   -0.0076 C   0  0  0  0  0  0  0  0  0  0  0  0
    0.3381    1.1787   -0.0464 C   0  0  0  0  0  0  0  0  0  0  0  0
   -1.0565    1.2145   -0.1380 C   0  0  0  0  0  0  0  0  0  0  0  0
   -1.8558    0.0446   -0.1160 C   0  0  0  0  0  0  0  0  0  0  0  0
   -3.3924    0.1222    0.0251 C   0  0  0  0  0  0  0  0  0  0  0  0
   -3.9302   -0.5945    1.2448 C   0  0  0  0  0  0  0  0  0  0  0  0
   -5.0188   -1.3722    0.8505 C   0  0  0  0  0  0  0  0  0  0  0  0
   -5.7580   -2.1399    1.7495 C   0  0  0  0  0  0  0  0  0  0  0  0
   -5.3892   -2.1018    3.1100 C   0  0  0  0  0  0  0  0  0  0  0  0
   -4.2820   -1.3223    3.5294 C   0  0  0  0  0  0  0  0  0  0  0  0
   -3.5299   -0.5874    2.5879 C   0  0  0  0  0  0  0  0  0  0  0  0
   -1.9366    0.3098    3.1654 Br  0  0  0  0  0  0  0  0  0  0  0  0
   -3.7920   -1.2587    5.3908 Br  0  0  0  0  0  0  0  0  0  0  0  0
   -6.3624   -3.1369    4.4014 Br  0  0  0  0  0  0  0  0  0  0  0  0
   -7.1949   -3.2296    1.1360 Br  0  0  0  0  0  0  0  0  0  0  0  0
   -5.1508   -1.2595   -0.6038 C   0  0  0  0  0  0  0  0  0  0  0  0
   -6.0579   -1.6489   -1.3160 O   0  0  0  0  0  0  0  0  0  0  0  0
   -4.0156   -0.6408   -1.0382 O   0  0  0  0  0  0  0  0  0  0  0  0
   -3.9256    1.5721   -0.0753 C   0  0  0  0  0  0  0  0  0  0  0  0
   -3.6190    2.4933    0.9442 C   0  0  0  0  0  0  0  0  0  0  0  0
   -3.8892    3.8480    0.8402 C   0  0  0  0  0  0  0  0  0  0  0  0
   -4.5520    4.3224   -0.2763 C   0  0  0  0  0  0  0  0  0  0  0  0
   -4.9219    3.4390   -1.2883 C   0  0  0  0  0  0  0  0  0  0  0  0
   -4.5930    2.0703   -1.2068 C   0  0  0  0  0  0  0  0  0  0  0  0
   -5.8387    3.9745   -2.7014 S   0  0  0  0  0  0  0  0  0  0  0  0
   -4.9896    3.8182   -3.8628 O   0  0  0  0  0  0  0  0  0  0  0  0
   -7.1338    3.3312   -2.6314 O   0  0  0  0  0  0  0  0  0  0  0  0
   -6.1160    5.5537   -2.5489 O   0  0  0  0  0  0  0  0  0  0  0  0
   -4.8108    5.6534   -0.3472 O   0  0  0  0  0  0  0  0  0  0  0  0
    1.1739    2.7396    0.0434 S   0  0  0  0  0  0  0  0  0  0  0  0
    0.9050    3.4434   -1.1929 O   0  0  0  0  0  0  0  0  0  0  0  0
    0.8339    3.3448    1.3160 O   0  0  0  0  0  0  0  0  0  0  0  0
    2.7604    2.4699    0.0763 O   0  0  0  0  0  0  0  0  0  0  0  0
    2.3353   -0.1044    0.0364 O   0  0  0  0  0  0  0  0  0  0  0  0
   -1.7306   -2.1225   -0.0420 H   0  0  0  0  0  0  0  0  0  0  0  0
    0.7171   -2.1911    0.0273 H   0  0  0  0  0  0  0  0  0  0  0  0
   -1.4978    2.2063   -0.1759 H   0  0  0  0  0  0  0  0  0  0  0  0
   -3.0312    2.2051    1.8012 H   0  0  0  0  0  0  0  0  0  0  0  0
   -3.5380    4.5030    1.6326 H   0  0  0  0  0  0  0  0  0  0  0  0
   -4.8446    1.4150   -2.0436 H   0  0  0  0  0  0  0  0  0  0  0  0
   -6.6320    5.8696   -3.3123 H   0  0  0  0  0  0  0  0  0  0  0  0
   -4.4674    6.1129    0.4358 H   0  0  0  0  0  0  0  0  0  0  0  0
    3.2354    3.3217    0.0882 H   0  0  0  0  0  0  0  0  0  0  0  0
    2.6462   -1.0197   -0.0277 H   0  0  0  0  0  0  0  0  0  0  0  0
  1  2  2  0  0  0  0
  1  6  1  0  0  0  0
  1 37  1  0  0  0  0
  2  3  1  0  0  0  0
  2 38  1  0  0  0  0
  3  4  2  0  0  0  0
  3 36  1  0  0  0  0
  4  5  1  0  0  0  0
  4 32  1  0  0  0  0
  5  6  2  0  0  0  0
  5 39  1  0  0  0  0
  6  7  1  0  0  0  0
  7  8  1  0  0  0  0
  7 20  1  0  0  0  0
  7 21  1  0  0  0  0
  8  9  2  0  0  0  0
  8 13  1  0  0  0  0
  9 10  1  0  0  0  0
  9 18  1  0  0  0  0
 10 11  2  0  0  0  0
 10 17  1  0  0  0  0
 11 12  1  0  0  0  0
 11 16  1  0  0  0  0
 12 13  2  0  0  0  0
 12 15  1  0  0  0  0
 13 14  1  0  0  0  0
 18 19  2  0  0  0  0
 18 20  1  0  0  0  0
 21 22  2  0  0  0  0
 21 26  1  0  0  0  0
 22 23  1  0  0  0  0
 22 40  1  0  0  0  0
 23 24  2  0  0  0  0
 23 41  1  0  0  0  0
 24 25  1  0  0  0  0
 24 31  1  0  0  0  0
 25 26  2  0  0  0  0
 25 27  1  0  0  0  0
 26 42  1  0  0  0  0
 27 28  2  0  0  0  0
 27 29  2  0  0  0  0
 27 30  1  0  0  0  0
 30 43  1  0  0  0  0
 31 44  1  0  0  0  0
 32 33  2  0  0  0  0
 32 34  2  0  0  0  0
 32 35  1  0  0  0  0
 35 45  1  0  0  0  0
 36 46  1  0  0  0  0
M  END
>  <DRUGBANK_ID>
DB13215

>  <COMMON_NAME>
Sulfobromophthalein

>  <CAS_NUMBER>
297-83-6

>  <UNII>
0C2P5QKL36

$$$$
