
 OpenBabel10282417153D

 29 28  0  0  0  0  0  0  0  0999 V2000
    0.5646   -0.1419    0.2776 N   0  3  0  0  0  0  0  0  0  0  0  0
    3.4552   -0.3425   -1.8670 N   0  3  0  0  0  0  0  0  0  0  0  0
    1.8000    2.4563   -1.4873 C   0  0  0  0  0  0  0  0  0  0  0  0
    2.3016   -0.7540   -1.8607 O   0  5  0  0  0  0  0  0  0  0  0  0
   -0.2920   -0.5745    1.0198 O   0  5  0  0  0  0  0  0  0  0  0  0
    4.4076   -0.8493   -2.4494 O   0  0  0  0  0  0  0  0  0  0  0  0
    1.7893   -0.2756    0.4028 O   0  0  0  0  0  0  0  0  0  0  0  0
    3.8226    0.8954   -1.2087 O   0  0  0  0  0  0  0  0  0  0  0  0
    0.0304    0.7649   -0.6944 O   0  0  0  0  0  0  0  0  0  0  0  0
    0.7594    1.3618   -1.7681 C   0  0  0  0  0  0  0  0  0  0  0  0
    2.9144    1.8446   -0.6086 C   0  0  0  0  0  0  0  0  0  0  0  0
    2.5472    2.9853   -2.7715 C   0  0  0  0  0  0  0  0  0  0  0  0
    1.0118    3.6005   -0.7536 C   0  0  0  0  0  0  0  0  0  0  0  0
   -0.0370    4.1499   -1.5667 O   0  0  0  0  0  0  0  0  0  0  0  0
    0.3346    5.2735   -2.3518 N   0  3  0  0  0  0  0  0  0  0  0  0
    1.4762    5.7042   -2.2011 O   0  0  0  0  0  0  0  0  0  0  0  0
   -0.5316    5.5894   -3.1645 O   0  5  0  0  0  0  0  0  0  0  0  0
    1.8213    3.6165   -3.8201 O   0  0  0  0  0  0  0  0  0  0  0  0
    0.9301    2.8325   -4.5779 N   0  3  0  0  0  0  0  0  0  0  0  0
    1.0738    1.6235   -4.5463 O   0  0  0  0  0  0  0  0  0  0  0  0
    0.0724    3.5165   -5.1432 O   0  5  0  0  0  0  0  0  0  0  0  0
    1.1194    0.6794   -2.5230 H   0  0  0  0  0  0  0  0  0  0  0  0
   -0.0464    1.8492   -2.3264 H   0  0  0  0  0  0  0  0  0  0  0  0
    3.5856    2.6717   -0.3274 H   0  0  0  0  0  0  0  0  0  0  0  0
    2.5650    1.5980    0.3960 H   0  0  0  0  0  0  0  0  0  0  0  0
    3.1935    3.7980   -2.3917 H   0  0  0  0  0  0  0  0  0  0  0  0
    3.2692    2.2705   -3.1776 H   0  0  0  0  0  0  0  0  0  0  0  0
    0.4813    3.1505    0.0986 H   0  0  0  0  0  0  0  0  0  0  0  0
    1.6433    4.3712   -0.2980 H   0  0  0  0  0  0  0  0  0  0  0  0
  4  2  1  0  0  0  0
  5  1  1  0  0  0  0
  6  2  2  0  0  0  0
  7  1  2  0  0  0  0
  8  2  1  0  0  0  0
  9  1  1  0  0  0  0
 10  3  1  0  0  0  0
 10  9  1  0  0  0  0
 10 22  1  0  0  0  0
 10 23  1  0  0  0  0
 11  3  1  0  0  0  0
 11  8  1  0  0  0  0
 11 24  1  0  0  0  0
 11 25  1  0  0  0  0
 12  3  1  0  0  0  0
 12 18  1  0  0  0  0
 12 26  1  0  0  0  0
 12 27  1  0  0  0  0
 13  3  1  0  0  0  0
 13 14  1  0  0  0  0
 13 28  1  0  0  0  0
 13 29  1  0  0  0  0
 14 15  1  0  0  0  0
 15 16  2  0  0  0  0
 15 17  1  0  0  0  0
 18 19  1  0  0  0  0
 19 20  2  0  0  0  0
 19 21  1  0  0  0  0
M  CHG  8   1   1   2   1   4  -1   5  -1  15   1  17  -1  19   1  21  -1
M  END
>  <DRUGBANK_ID>
DB06154

>  <COMMON_NAME>
Pentaerythritol tetranitrate

>  <CAS_NUMBER>
78-11-5

>  <UNII>
10L39TRG1Z

>  <SYNONYMS>
Corpent; PENT; PENTA; Pentaerithrityl tetranitrate; pentaerithrityli tetranitras; Pentaerythritol tetranitrate; Penthrite; TEN; Tetranitrate de pentaerithrityle; Tetranitrato de pentaeritritilo

$$$$
