
 OpenBabel10282417103D

 52 54  0  0  0  0  0  0  0  0999 V2000
    1.4501   -0.1683   -0.1265 C   0  0  0  0  0  0  0  0  0  0  0  0
    0.5831   -1.2405   -0.3476 C   0  0  0  0  0  0  0  0  0  0  0  0
   -0.7358   -0.9502   -0.7154 C   0  0  0  0  0  0  0  0  0  0  0  0
   -1.2423    0.3503   -0.5901 C   0  0  0  0  0  0  0  0  0  0  0  0
   -0.4100    1.3985   -0.1992 C   0  0  0  0  0  0  0  0  0  0  0  0
    0.9653    1.1490   -0.1121 C   0  0  0  0  0  0  0  0  0  0  0  0
    1.0132   -2.6734   -0.1096 C   0  0  0  0  0  0  0  0  0  0  0  0
    0.4876   -3.3557    1.1871 C   0  0  0  0  0  0  0  0  0  0  0  0
   -1.0147   -3.4391    1.3241 C   0  0  0  0  0  0  0  0  0  0  0  0
   -1.9400   -2.3852    1.6389 C   0  0  0  0  0  0  0  0  0  0  0  0
   -3.1946   -2.8578    1.3504 C   0  0  0  0  0  0  0  0  0  0  0  0
   -3.1284   -4.2026    1.1583 N   0  0  0  0  0  0  0  0  0  0  0  0
   -1.7980   -4.5741    1.1526 C   0  0  0  0  0  0  0  0  0  0  0  0
   -1.7870   -0.9779    2.0286 C   0  0  0  0  0  0  0  0  0  0  0  0
   -2.9158   -0.1764    1.8473 N   0  0  0  0  0  0  0  0  0  0  0  0
   -4.0429   -0.7005    1.4696 C   0  0  0  0  0  0  0  0  0  0  0  0
   -4.2675   -2.0447    1.2786 N   0  0  0  0  0  0  0  0  0  0  0  0
   -5.0775    0.1189    1.1422 N   0  0  0  0  0  0  0  0  0  0  0  0
   -1.0512    2.6843    0.2433 C   0  0  0  0  0  0  0  0  0  0  0  0
   -0.2091    3.7369    0.5265 N   0  0  0  0  0  0  0  0  0  0  0  0
   -0.7079    5.0897    0.7602 C   0  0  1  0  0  0  0  0  0  0  0  0
   -0.0319    5.6715    2.0186 C   0  0  0  0  0  0  0  0  0  0  0  0
    1.5050    5.7323    2.0325 C   0  0  0  0  0  0  0  0  0  0  0  0
    2.1734    6.6423    1.0199 C   0  0  0  0  0  0  0  0  0  0  0  0
    2.4972    7.8711    1.4778 O   0  0  0  0  0  0  0  0  0  0  0  0
   -2.2695    2.7897    0.3659 O   0  0  0  0  0  0  0  0  0  0  0  0
   -0.5525    5.8972   -0.5493 C   0  0  0  0  0  0  0  0  0  0  0  0
   -1.5408    6.7858   -0.8006 O   0  0  0  0  0  0  0  0  0  0  0  0
    0.3518    5.7438   -1.3526 O   0  0  0  0  0  0  0  0  0  0  0  0
    2.4807    6.2922   -0.0915 O   0  0  0  0  0  0  0  0  0  0  0  0
   -0.7201   -0.5392    2.4339 O   0  0  0  0  0  0  0  0  0  0  0  0
    2.4983   -0.3443    0.1030 H   0  0  0  0  0  0  0  0  0  0  0  0
   -1.4382   -1.7614   -0.8973 H   0  0  0  0  0  0  0  0  0  0  0  0
   -2.3206    0.5000   -0.6332 H   0  0  0  0  0  0  0  0  0  0  0  0
    1.6823    1.9451    0.0401 H   0  0  0  0  0  0  0  0  0  0  0  0
    0.7222   -3.2637   -0.9866 H   0  0  0  0  0  0  0  0  0  0  0  0
    2.1120   -2.7107   -0.0804 H   0  0  0  0  0  0  0  0  0  0  0  0
    0.8862   -4.3828    1.1792 H   0  0  0  0  0  0  0  0  0  0  0  0
    0.9115   -2.8788    2.0777 H   0  0  0  0  0  0  0  0  0  0  0  0
   -3.9059   -4.8351    1.0308 H   0  0  0  0  0  0  0  0  0  0  0  0
   -1.5153   -5.6076    0.9929 H   0  0  0  0  0  0  0  0  0  0  0  0
   -5.2077   -2.3522    1.0762 H   0  0  0  0  0  0  0  0  0  0  0  0
   -6.0344   -0.1529    1.3068 H   0  0  0  0  0  0  0  0  0  0  0  0
   -4.8882    1.1010    1.3429 H   0  0  0  0  0  0  0  0  0  0  0  0
    0.7626    3.6686    0.2604 H   0  0  0  0  0  0  0  0  0  0  0  0
   -1.7854    5.0279    0.9587 H   0  0  0  0  0  0  0  0  0  0  0  0
   -0.4604    6.6479    2.2689 H   0  0  0  0  0  0  0  0  0  0  0  0
   -0.3115    5.0039    2.8538 H   0  0  0  0  0  0  0  0  0  0  0  0
    1.8491    6.0113    3.0352 H   0  0  0  0  0  0  0  0  0  0  0  0
    1.9170    4.7307    1.8645 H   0  0  0  0  0  0  0  0  0  0  0  0
    2.7391    7.8910    2.4188 H   0  0  0  0  0  0  0  0  0  0  0  0
   -2.4189    6.4453   -0.5490 H   0  0  0  0  0  0  0  0  0  0  0  0
  1  2  2  0  0  0  0
  1  6  1  0  0  0  0
  1 32  1  0  0  0  0
  2  3  1  0  0  0  0
  2  7  1  0  0  0  0
  3  4  2  0  0  0  0
  3 33  1  0  0  0  0
  4  5  1  0  0  0  0
  4 34  1  0  0  0  0
  5  6  2  0  0  0  0
  5 19  1  0  0  0  0
  6 35  1  0  0  0  0
  7  8  1  0  0  0  0
  7 36  1  0  0  0  0
  7 37  1  0  0  0  0
  8  9  1  0  0  0  0
  8 38  1  0  0  0  0
  8 39  1  0  0  0  0
  9 10  1  0  0  0  0
  9 13  2  0  0  0  0
 10 11  2  0  0  0  0
 10 14  1  0  0  0  0
 11 12  1  0  0  0  0
 11 17  1  0  0  0  0
 12 13  1  0  0  0  0
 12 40  1  0  0  0  0
 13 41  1  0  0  0  0
 14 15  1  0  0  0  0
 14 31  2  0  0  0  0
 15 16  2  0  0  0  0
 16 17  1  0  0  0  0
 16 18  1  0  0  0  0
 17 42  1  0  0  0  0
 18 43  1  0  0  0  0
 18 44  1  0  0  0  0
 19 20  1  0  0  0  0
 19 26  2  0  0  0  0
 20 21  1  0  0  0  0
 20 45  1  0  0  0  0
 21 22  1  0  0  0  0
 21 27  1  0  0  0  0
 21 46  1  1  0  0  0
 22 23  1  0  0  0  0
 22 47  1  0  0  0  0
 22 48  1  0  0  0  0
 23 24  1  0  0  0  0
 23 49  1  0  0  0  0
 23 50  1  0  0  0  0
 24 25  1  0  0  0  0
 24 30  2  0  0  0  0
 25 51  1  0  0  0  0
 27 28  1  0  0  0  0
 27 29  2  0  0  0  0
 28 52  1  0  0  0  0
M  END
>  <DRUGBANK_ID>
DB00642

>  <SECONDARY_ACCESSION_NUMBERS>
APRD00573; EXPT02075

>  <COMMON_NAME>
Pemetrexed

>  <CAS_NUMBER>
137281-23-3

>  <UNII>
04Q9AIZ7NO

>  <SYNONYMS>
Pemetrexed

$$$$
