TYC
 OpenBabel10282417133D

 25 25  0  0  0  0  0  0  0  0999 V2000
    0.9524   -1.8168    1.6649 N   0  0  0  0  0  0  0  0  0  0  0  0
    0.4962   -1.3950    0.3151 C   0  0  2  0  0  0  0  0  0  0  0  0
    1.2166   -0.0776   -0.0612 C   0  0  0  0  0  0  0  0  0  0  0  0
    1.6931    0.1384   -1.1747 O   0  0  0  0  0  0  0  0  0  0  0  0
   -1.0398   -1.3380    0.2750 C   0  0  0  0  0  0  0  0  0  0  0  0
   -1.5685   -0.9900   -1.0959 C   0  0  0  0  0  0  0  0  0  0  0  0
   -1.5701    0.3454   -1.5240 C   0  0  0  0  0  0  0  0  0  0  0  0
   -1.9882   -1.9899   -1.9833 C   0  0  0  0  0  0  0  0  0  0  0  0
   -1.9331    0.6754   -2.8296 C   0  0  0  0  0  0  0  0  0  0  0  0
   -2.3704   -1.6574   -3.2841 C   0  0  0  0  0  0  0  0  0  0  0  0
   -2.6759   -0.0653   -4.9923 O   0  0  0  0  0  0  0  0  0  0  0  0
   -2.3263   -0.3326   -3.7017 C   0  0  0  0  0  0  0  0  0  0  0  0
    1.3586    0.8659    0.9170 N   0  0  0  0  0  0  0  0  0  0  0  0
    0.8481   -2.1509   -0.3974 H   0  0  0  0  0  0  0  0  0  0  0  0
    0.6529   -1.1325    2.3540 H   0  0  0  0  0  0  0  0  0  0  0  0
    1.9739   -1.7882    1.6637 H   0  0  0  0  0  0  0  0  0  0  0  0
   -1.4411   -2.3208    0.5654 H   0  0  0  0  0  0  0  0  0  0  0  0
   -1.4400   -0.6272    1.0091 H   0  0  0  0  0  0  0  0  0  0  0  0
   -1.2438    1.1355   -0.8517 H   0  0  0  0  0  0  0  0  0  0  0  0
   -2.0037   -3.0345   -1.6801 H   0  0  0  0  0  0  0  0  0  0  0  0
   -1.8820    1.7128   -3.1425 H   0  0  0  0  0  0  0  0  0  0  0  0
   -2.6838   -2.4315   -3.9783 H   0  0  0  0  0  0  0  0  0  0  0  0
   -2.5520    0.8835   -5.1566 H   0  0  0  0  0  0  0  0  0  0  0  0
    0.8773    0.8491    1.8023 H   0  0  0  0  0  0  0  0  0  0  0  0
    1.9302    1.6704    0.6901 H   0  0  0  0  0  0  0  0  0  0  0  0
  1 15  1  0  0  0  0
  1 16  1  0  0  0  0
  2  5  1  0  0  0  0
  2 14  1  6  0  0  0
  2  3  1  0  0  0  0
  2  1  1  0  0  0  0
  3  4  2  0  0  0  0
  3 13  1  0  0  0  0
  5  6  1  0  0  0  0
  5 17  1  0  0  0  0
  5 18  1  0  0  0  0
  6  7  2  0  0  0  0
  6  8  1  0  0  0  0
  7  9  1  0  0  0  0
  7 19  1  0  0  0  0
  8 10  2  0  0  0  0
  8 20  1  0  0  0  0
  9 12  2  0  0  0  0
  9 21  1  0  0  0  0
 10 12  1  0  0  0  0
 10 22  1  0  0  0  0
 11 12  1  0  0  0  0
 11 23  1  0  0  0  0
 13 24  1  0  0  0  0
 13 25  1  0  0  0  0
M  END
>  <DRUGBANK_ID>
DB03380

>  <SECONDARY_ACCESSION_NUMBERS>
EXPT03135

>  <COMMON_NAME>
L-tyrosinamide

>  <CAS_NUMBER>
4985-46-0

>  <UNII>
05LU01CS4T

>  <SYNONYMS>
(2S)-2-amino-3-(4-hydroxyphenyl)propanamide; L-Tyrosine amide; Tyrosinamide; Tyrosine amide

$$$$
