
 OpenBabel10282417183D

412411  0  0  0  0  0  0  0  0999 V2000
    0.9295   -0.1197    0.0650 C   0  0  0  0  0  0  0  0  0  0  0  0
   -0.8039   -1.8815   -0.3728 N   0  0  0  0  0  0  0  0  0  0  0  0
    0.1420   -0.9112   -0.9895 C   0  0  1  0  0  0  0  0  0  0  0  0
   -0.5720    0.1023   -1.8921 C   0  0  0  0  0  0  0  0  0  0  0  0
    0.3183    1.0682   -2.6447 C   0  0  0  0  0  0  0  0  0  0  0  0
    1.2425    0.3361   -3.6142 C   0  0  0  0  0  0  0  0  0  0  0  0
    0.4920   -0.5117   -4.6501 C   0  0  0  0  0  0  0  0  0  0  0  0
   -0.3819    0.3218   -5.4629 N   0  0  0  0  0  0  0  0  0  0  0  0
    0.3832    0.5299    0.9749 O   0  0  0  0  0  0  0  0  0  0  0  0
    2.2742   -0.1484   -0.0449 O   0  0  0  0  0  0  0  0  0  0  0  0
   -2.1904   -1.8087   -0.4866 C   0  0  0  0  0  0  0  0  0  0  0  0
   -4.0874   -2.2438    1.0307 N   0  0  0  0  0  0  0  0  0  0  0  0
   -3.0247   -2.8923    0.2115 C   0  0  1  0  0  0  0  0  0  0  0  0
   -3.6160   -3.7789   -0.8935 C   0  0  0  0  0  0  0  0  0  0  0  0
   -2.6429   -4.5132   -1.7994 C   0  0  0  0  0  0  0  0  0  0  0  0
   -1.7722   -5.4391   -0.9688 C   0  0  0  0  0  0  0  0  0  0  0  0
   -3.4550   -5.3027   -2.8293 C   0  0  0  0  0  0  0  0  0  0  0  0
   -2.7896   -0.9664   -1.1539 O   0  0  0  0  0  0  0  0  0  0  0  0
   -5.4498   -2.2921    0.7381 C   0  0  0  0  0  0  0  0  0  0  0  0
   -7.3696   -0.7368    0.9223 N   0  0  0  0  0  0  0  0  0  0  0  0
   -6.4090   -1.5725    1.6985 C   0  0  1  0  0  0  0  0  0  0  0  0
   -7.1268   -2.6690    2.4984 C   0  0  0  0  0  0  0  0  0  0  0  0
   -6.2694   -3.5914    3.3476 C   0  0  0  0  0  0  0  0  0  0  0  0
   -5.5137   -2.7759    4.3817 C   0  0  0  0  0  0  0  0  0  0  0  0
   -7.1903   -4.6122    4.0201 C   0  0  0  0  0  0  0  0  0  0  0  0
   -5.9459   -2.9380   -0.1844 O   0  0  0  0  0  0  0  0  0  0  0  0
   -8.7312   -1.0082    0.7954 C   0  0  0  0  0  0  0  0  0  0  0  0
  -10.4321   -0.7897   -0.9937 N   0  0  0  0  0  0  0  0  0  0  0  0
   -9.5763   -0.0311   -0.0365 C   0  0  1  0  0  0  0  0  0  0  0  0
  -10.4191    0.7751    0.9623 C   0  0  0  0  0  0  0  0  0  0  0  0
   -9.6766    1.6091    1.9918 C   0  0  0  0  0  0  0  0  0  0  0  0
   -8.8085    2.6352    1.2856 C   0  0  0  0  0  0  0  0  0  0  0  0
  -10.7123    2.2911    2.8889 C   0  0  0  0  0  0  0  0  0  0  0  0
   -9.3212   -1.9241    1.3679 O   0  0  0  0  0  0  0  0  0  0  0  0
  -11.8186   -0.8991   -0.8997 C   0  0  0  0  0  0  0  0  0  0  0  0
  -13.5040   -2.6595   -1.3431 N   0  0  0  0  0  0  0  0  0  0  0  0
  -12.5419   -1.7153   -1.9814 C   0  0  1  0  0  0  0  0  0  0  0  0
  -13.2593   -0.7023   -2.8853 C   0  0  0  0  0  0  0  0  0  0  0  0
  -12.4026    0.3191   -3.6117 C   0  0  0  0  0  0  0  0  0  0  0  0
  -11.4197   -0.3962   -4.5208 C   0  0  0  0  0  0  0  0  0  0  0  0
  -13.3305    1.2324   -4.4163 C   0  0  0  0  0  0  0  0  0  0  0  0
  -12.5146   -0.3221   -0.0645 O   0  0  0  0  0  0  0  0  0  0  0  0
  -14.8907   -2.5360   -1.4106 C   0  0  0  0  0  0  0  0  0  0  0  0
  -16.7971   -2.9722    0.1122 N   0  0  0  0  0  0  0  0  0  0  0  0
  -15.7377   -3.6109   -0.7159 C   0  0  1  0  0  0  0  0  0  0  0  0
  -16.3310   -4.4643   -1.8499 C   0  0  0  0  0  0  0  0  0  0  0  0
  -15.3341   -5.2051   -2.7160 C   0  0  0  0  0  0  0  0  0  0  0  0
  -14.5181   -6.1885   -1.8846 C   0  0  0  0  0  0  0  0  0  0  0  0
  -15.3856   -7.2144   -1.1442 C   0  0  0  0  0  0  0  0  0  0  0  0
  -16.1589   -8.0115   -2.0882 N   0  0  0  0  0  0  0  0  0  0  0  0
  -15.4915   -1.6846   -2.0658 O   0  0  0  0  0  0  0  0  0  0  0  0
  -18.1595   -3.0234   -0.1740 C   0  0  0  0  0  0  0  0  0  0  0  0
  -20.0770   -1.4701    0.0137 N   0  0  0  0  0  0  0  0  0  0  0  0
  -19.1160   -2.3059    0.7892 C   0  0  1  0  0  0  0  0  0  0  0  0
  -19.8333   -3.4037    1.5880 C   0  0  0  0  0  0  0  0  0  0  0  0
  -18.9757   -4.3266    2.4365 C   0  0  0  0  0  0  0  0  0  0  0  0
  -18.2200   -3.5114    3.4706 C   0  0  0  0  0  0  0  0  0  0  0  0
  -19.8966   -5.3476    3.1089 C   0  0  0  0  0  0  0  0  0  0  0  0
  -18.6593   -3.6701   -1.0944 O   0  0  0  0  0  0  0  0  0  0  0  0
  -21.4377   -1.7433   -0.1156 C   0  0  0  0  0  0  0  0  0  0  0  0
  -23.1392   -1.5253   -1.9047 N   0  0  0  0  0  0  0  0  0  0  0  0
  -22.2829   -0.7665   -0.9477 C   0  0  1  0  0  0  0  0  0  0  0  0
  -23.1256    0.0397    0.0512 C   0  0  0  0  0  0  0  0  0  0  0  0
  -22.3831    0.8737    1.0807 C   0  0  0  0  0  0  0  0  0  0  0  0
  -21.5150    1.8998    0.3746 C   0  0  0  0  0  0  0  0  0  0  0  0
  -23.4188    1.5556    1.9778 C   0  0  0  0  0  0  0  0  0  0  0  0
  -22.0278   -2.6598    0.4560 O   0  0  0  0  0  0  0  0  0  0  0  0
  -24.5257   -1.6350   -1.8109 C   0  0  0  0  0  0  0  0  0  0  0  0
  -26.2085   -3.3997   -2.2560 N   0  0  0  0  0  0  0  0  0  0  0  0
  -25.2489   -2.4520   -2.8928 C   0  0  1  0  0  0  0  0  0  0  0  0
  -25.9676   -1.4388   -3.7957 C   0  0  0  0  0  0  0  0  0  0  0  0
  -25.1102   -0.4170   -4.5220 C   0  0  0  0  0  0  0  0  0  0  0  0
  -24.1268   -1.1318   -5.4314 C   0  0  0  0  0  0  0  0  0  0  0  0
  -26.0374    0.4967   -5.3270 C   0  0  0  0  0  0  0  0  0  0  0  0
  -25.2220   -1.0570   -0.9764 O   0  0  0  0  0  0  0  0  0  0  0  0
  -27.5961   -3.2865   -2.3252 C   0  0  0  0  0  0  0  0  0  0  0  0
  -29.5001   -3.7121   -0.7987 N   0  0  0  0  0  0  0  0  0  0  0  0
  -28.4329   -4.3607   -1.6143 C   0  0  1  0  0  0  0  0  0  0  0  0
  -29.0261   -5.2511   -2.7158 C   0  0  0  0  0  0  0  0  0  0  0  0
  -28.0549   -5.9860   -3.6222 C   0  0  0  0  0  0  0  0  0  0  0  0
  -27.1846   -6.9112   -2.7909 C   0  0  0  0  0  0  0  0  0  0  0  0
  -28.8682   -6.7744   -4.6514 C   0  0  0  0  0  0  0  0  0  0  0  0
  -28.2010   -2.4401   -2.9831 O   0  0  0  0  0  0  0  0  0  0  0  0
  -30.8601   -3.7597   -1.1000 C   0  0  0  0  0  0  0  0  0  0  0  0
  -32.7862   -2.2119   -0.9050 N   0  0  0  0  0  0  0  0  0  0  0  0
  -31.8289   -3.0569   -0.1395 C   0  0  1  0  0  0  0  0  0  0  0  0
  -32.5425   -4.1852    0.6246 C   0  0  0  0  0  0  0  0  0  0  0  0
  -31.6611   -5.0677    1.4832 C   0  0  0  0  0  0  0  0  0  0  0  0
  -30.9674   -4.2511    2.5676 C   0  0  0  0  0  0  0  0  0  0  0  0
  -31.9497   -3.5021    3.4771 C   0  0  0  0  0  0  0  0  0  0  0  0
  -32.8322   -4.4376    4.1632 N   0  0  0  0  0  0  0  0  0  0  0  0
  -31.3553   -4.4036   -2.0250 O   0  0  0  0  0  0  0  0  0  0  0  0
  -34.1475   -2.4792   -1.0311 C   0  0  0  0  0  0  0  0  0  0  0  0
  -35.8463   -2.2594   -2.8174 N   0  0  0  0  0  0  0  0  0  0  0  0
  -34.9905   -1.5002   -1.8608 C   0  0  1  0  0  0  0  0  0  0  0  0
  -35.8325   -0.6951   -0.8604 C   0  0  0  0  0  0  0  0  0  0  0  0
  -35.0895    0.1382    0.1695 C   0  0  0  0  0  0  0  0  0  0  0  0
  -34.2213    1.1644   -0.5364 C   0  0  0  0  0  0  0  0  0  0  0  0
  -36.1251    0.8201    1.0668 C   0  0  0  0  0  0  0  0  0  0  0  0
  -34.7390   -3.3946   -0.4590 O   0  0  0  0  0  0  0  0  0  0  0  0
  -37.2325   -2.3705   -2.7223 C   0  0  0  0  0  0  0  0  0  0  0  0
  -38.9156   -4.1350   -3.1666 N   0  0  0  0  0  0  0  0  0  0  0  0
  -37.9559   -3.1875   -3.8039 C   0  0  1  0  0  0  0  0  0  0  0  0
  -38.6743   -2.1742   -4.7068 C   0  0  0  0  0  0  0  0  0  0  0  0
  -37.8168   -1.1524   -5.4330 C   0  0  0  0  0  0  0  0  0  0  0  0
  -36.8333   -1.8672   -6.3424 C   0  0  0  0  0  0  0  0  0  0  0  0
  -38.7439   -0.2387   -6.2380 C   0  0  0  0  0  0  0  0  0  0  0  0
  -37.9280   -1.7937   -1.8865 O   0  0  0  0  0  0  0  0  0  0  0  0
  -40.3034   -4.0221   -3.2358 C   0  0  0  0  0  0  0  0  0  0  0  0
  -42.2053   -4.4494   -1.7047 N   0  0  0  0  0  0  0  0  0  0  0  0
  -41.1402   -5.0964   -2.5242 C   0  0  1  0  0  0  0  0  0  0  0  0
  -41.7345   -5.9859   -3.6260 C   0  0  0  0  0  0  0  0  0  0  0  0
  -40.7626   -6.7207   -4.5327 C   0  0  0  0  0  0  0  0  0  0  0  0
  -39.8917   -7.6462   -3.7019 C   0  0  0  0  0  0  0  0  0  0  0  0
  -41.5751   -7.5096   -5.5622 C   0  0  0  0  0  0  0  0  0  0  0  0
  -40.9080   -3.1761   -3.8945 O   0  0  0  0  0  0  0  0  0  0  0  0
  -43.5675   -4.4988   -1.9959 C   0  0  0  0  0  0  0  0  0  0  0  0
  -45.4897   -2.9473   -1.8112 N   0  0  0  0  0  0  0  0  0  0  0  0
  -44.5261   -3.7799   -1.0348 C   0  0  1  0  0  0  0  0  0  0  0  0
  -45.2437   -4.8759   -0.2338 C   0  0  0  0  0  0  0  0  0  0  0  0
  -44.3876   -5.7982    0.6154 C   0  0  0  0  0  0  0  0  0  0  0  0
  -43.6326   -4.9823    1.6492 C   0  0  0  0  0  0  0  0  0  0  0  0
  -45.3094   -6.8186    1.2874 C   0  0  0  0  0  0  0  0  0  0  0  0
  -44.0670   -5.1453   -2.9165 O   0  0  0  0  0  0  0  0  0  0  0  0
  -46.8485   -3.2296   -1.9406 C   0  0  0  0  0  0  0  0  0  0  0  0
  -48.5562   -3.0025   -3.7225 N   0  0  0  0  0  0  0  0  0  0  0  0
  -47.7058   -2.2533   -2.7573 C   0  0  1  0  0  0  0  0  0  0  0  0
  -48.5483   -1.4830   -1.7263 C   0  0  0  0  0  0  0  0  0  0  0  0
  -47.7764   -0.6398   -0.7334 C   0  0  0  0  0  0  0  0  0  0  0  0
  -46.9689    0.4375   -1.4484 C   0  0  0  0  0  0  0  0  0  0  0  0
  -47.8342    1.3632   -2.3129 C   0  0  0  0  0  0  0  0  0  0  0  0
  -48.8202    2.0587   -1.4953 N   0  0  0  0  0  0  0  0  0  0  0  0
  -47.4346   -4.1498   -1.3706 O   0  0  0  0  0  0  0  0  0  0  0  0
  -49.9423   -3.1104   -3.6333 C   0  0  0  0  0  0  0  0  0  0  0  0
  -51.6223   -4.8721   -4.0790 N   0  0  0  0  0  0  0  0  0  0  0  0
  -50.6634   -3.9251   -4.7167 C   0  0  1  0  0  0  0  0  0  0  0  0
  -51.3809   -2.9102   -5.6185 C   0  0  0  0  0  0  0  0  0  0  0  0
  -50.5231   -1.8880   -6.3439 C   0  0  0  0  0  0  0  0  0  0  0  0
  -49.5396   -2.6026   -7.2534 C   0  0  0  0  0  0  0  0  0  0  0  0
  -51.4502   -0.9741   -7.1489 C   0  0  0  0  0  0  0  0  0  0  0  0
  -50.6386   -2.5326   -2.7988 O   0  0  0  0  0  0  0  0  0  0  0  0
  -53.0099   -4.7579   -4.1470 C   0  0  0  0  0  0  0  0  0  0  0  0
  -54.9110   -5.1843   -2.6159 N   0  0  0  0  0  0  0  0  0  0  0  0
  -53.8469   -5.8318   -3.4352 C   0  0  1  0  0  0  0  0  0  0  0  0
  -54.4409   -6.7213   -4.5372 C   0  0  0  0  0  0  0  0  0  0  0  0
  -53.4689   -7.4561   -5.4438 C   0  0  0  0  0  0  0  0  0  0  0  0
  -52.5981   -8.3816   -4.6129 C   0  0  0  0  0  0  0  0  0  0  0  0
  -54.2815   -8.2450   -6.4733 C   0  0  0  0  0  0  0  0  0  0  0  0
  -53.6132   -3.9108   -4.8053 O   0  0  0  0  0  0  0  0  0  0  0  0
  -56.2735   -5.2345   -2.9065 C   0  0  0  0  0  0  0  0  0  0  0  0
  -58.1870   -3.6763   -2.7181 N   0  0  0  0  0  0  0  0  0  0  0  0
  -57.2305   -4.5149   -1.9445 C   0  0  1  0  0  0  0  0  0  0  0  0
  -57.9504   -5.6111   -1.1454 C   0  0  0  0  0  0  0  0  0  0  0  0
  -57.0943   -6.5338   -0.2960 C   0  0  0  0  0  0  0  0  0  0  0  0
  -56.3392   -5.7179    0.7380 C   0  0  0  0  0  0  0  0  0  0  0  0
  -58.0160   -7.5540    0.3762 C   0  0  0  0  0  0  0  0  0  0  0  0
  -56.7717   -5.8815   -3.8274 O   0  0  0  0  0  0  0  0  0  0  0  0
  -59.5482   -3.9447   -2.8417 C   0  0  0  0  0  0  0  0  0  0  0  0
  -61.2218   -3.7277   -4.6257 N   0  0  0  0  0  0  0  0  0  0  0  0
  -60.3846   -2.9645   -3.6724 C   0  0  1  0  0  0  0  0  0  0  0  0
  -61.2346   -2.1634   -2.6755 C   0  0  0  0  0  0  0  0  0  0  0  0
  -60.4976   -1.3299   -1.6457 C   0  0  0  0  0  0  0  0  0  0  0  0
  -59.6320   -0.3039   -2.3551 C   0  0  0  0  0  0  0  0  0  0  0  0
  -60.1381   -4.8605   -2.2698 O   0  0  0  0  0  0  0  0  0  0  0  0
  -62.6057   -3.8040   -4.5484 C   0  0  0  0  0  0  0  0  0  0  0  0
  -64.1692   -5.6384   -4.9424 N   0  0  0  0  0  0  0  0  0  0  0  0
  -63.3031   -4.6569   -5.6065 C   0  0  1  0  0  0  0  0  0  0  0  0
  -64.1638   -3.6842   -6.4338 C   0  0  0  0  0  0  0  0  0  0  0  0
  -63.2976   -2.6616   -7.1855 C   0  0  0  0  0  0  0  0  0  0  0  0
  -62.3286   -3.3410   -8.1602 C   0  0  0  0  0  0  0  0  0  0  0  0
  -63.0515   -4.1930   -9.2051 C   0  0  0  0  0  0  0  0  0  0  0  0
  -63.9208   -3.3594  -10.0249 N   0  0  0  0  0  0  0  0  0  0  0  0
  -63.3073   -3.1625   -3.7671 O   0  0  0  0  0  0  0  0  0  0  0  0
  -61.5372   -0.6495   -0.7528 C   0  0  0  0  0  0  0  0  0  0  0  0
   -0.3911   -2.5686    0.2486 H   0  0  0  0  0  0  0  0  0  0  0  0
    0.8483   -1.5275   -1.5617 H   0  0  0  0  0  0  0  0  0  0  0  0
   -1.1818   -0.4383   -2.6242 H   0  0  0  0  0  0  0  0  0  0  0  0
   -1.2577    0.7071   -1.2869 H   0  0  0  0  0  0  0  0  0  0  0  0
   -0.3293    1.7708   -3.1837 H   0  0  0  0  0  0  0  0  0  0  0  0
    0.8918    1.6792   -1.9413 H   0  0  0  0  0  0  0  0  0  0  0  0
    1.8748    1.0737   -4.1180 H   0  0  0  0  0  0  0  0  0  0  0  0
    1.9226   -0.3127   -3.0508 H   0  0  0  0  0  0  0  0  0  0  0  0
    1.2150   -1.0250   -5.2894 H   0  0  0  0  0  0  0  0  0  0  0  0
   -0.0971   -1.3013   -4.1687 H   0  0  0  0  0  0  0  0  0  0  0  0
   -0.9197   -0.2602   -6.1025 H   0  0  0  0  0  0  0  0  0  0  0  0
   -1.0775    0.7822   -4.8737 H   0  0  0  0  0  0  0  0  0  0  0  0
    2.6697   -0.6592   -0.7786 H   0  0  0  0  0  0  0  0  0  0  0  0
   -3.7548   -1.5775    1.7190 H   0  0  0  0  0  0  0  0  0  0  0  0
   -2.3976   -3.4579    0.9081 H   0  0  0  0  0  0  0  0  0  0  0  0
   -4.2718   -4.5232   -0.4232 H   0  0  0  0  0  0  0  0  0  0  0  0
   -4.2272   -3.1521   -1.5591 H   0  0  0  0  0  0  0  0  0  0  0  0
   -2.0196   -3.7902   -2.3385 H   0  0  0  0  0  0  0  0  0  0  0  0
   -2.3921   -6.1548   -0.4175 H   0  0  0  0  0  0  0  0  0  0  0  0
   -1.0773   -5.9878   -1.6057 H   0  0  0  0  0  0  0  0  0  0  0  0
   -1.1824   -4.8784   -0.2384 H   0  0  0  0  0  0  0  0  0  0  0  0
   -4.0906   -4.6360   -3.4252 H   0  0  0  0  0  0  0  0  0  0  0  0
   -2.7924   -5.8393   -3.5119 H   0  0  0  0  0  0  0  0  0  0  0  0
   -4.1121   -6.0306   -2.3391 H   0  0  0  0  0  0  0  0  0  0  0  0
   -6.9426   -0.0509    0.3096 H   0  0  0  0  0  0  0  0  0  0  0  0
   -5.8506   -0.8854    2.3423 H   0  0  0  0  0  0  0  0  0  0  0  0
   -7.8660   -2.1904    3.1535 H   0  0  0  0  0  0  0  0  0  0  0  0
   -7.6618   -3.3238    1.7950 H   0  0  0  0  0  0  0  0  0  0  0  0
   -5.5658   -4.1378    2.7088 H   0  0  0  0  0  0  0  0  0  0  0  0
   -6.2131   -2.2183    5.0143 H   0  0  0  0  0  0  0  0  0  0  0  0
   -4.9037   -3.4243    5.0116 H   0  0  0  0  0  0  0  0  0  0  0  0
   -4.8470   -2.0518    3.9054 H   0  0  0  0  0  0  0  0  0  0  0  0
   -7.7423   -5.1967    3.2737 H   0  0  0  0  0  0  0  0  0  0  0  0
   -6.6114   -5.3058    4.6338 H   0  0  0  0  0  0  0  0  0  0  0  0
   -7.9289   -4.1152    4.6597 H   0  0  0  0  0  0  0  0  0  0  0  0
   -9.9282   -1.4087   -1.6191 H   0  0  0  0  0  0  0  0  0  0  0  0
   -8.9254    0.6073   -0.6425 H   0  0  0  0  0  0  0  0  0  0  0  0
  -11.0817    1.4419    0.3958 H   0  0  0  0  0  0  0  0  0  0  0  0
  -11.0436    0.0770    1.5390 H   0  0  0  0  0  0  0  0  0  0  0  0
   -9.0579    0.9587    2.6210 H   0  0  0  0  0  0  0  0  0  0  0  0
   -9.4217    3.2794    0.6458 H   0  0  0  0  0  0  0  0  0  0  0  0
   -8.2787    3.2545    2.0103 H   0  0  0  0  0  0  0  0  0  0  0  0
   -8.0605    2.1521    0.6510 H   0  0  0  0  0  0  0  0  0  0  0  0
  -11.3450    1.5505    3.3936 H   0  0  0  0  0  0  0  0  0  0  0  0
  -10.2194    2.8943    3.6543 H   0  0  0  0  0  0  0  0  0  0  0  0
  -11.3721    2.9425    2.3042 H   0  0  0  0  0  0  0  0  0  0  0  0
  -13.0924   -3.2966   -0.6700 H   0  0  0  0  0  0  0  0  0  0  0  0
  -11.8234   -2.3299   -2.5332 H   0  0  0  0  0  0  0  0  0  0  0  0
  -13.8387   -1.2576   -3.6343 H   0  0  0  0  0  0  0  0  0  0  0  0
  -13.9596   -0.1178   -2.2707 H   0  0  0  0  0  0  0  0  0  0  0  0
  -11.8647    0.9374   -2.8837 H   0  0  0  0  0  0  0  0  0  0  0  0
  -11.9538   -1.0253   -5.2415 H   0  0  0  0  0  0  0  0  0  0  0  0
  -10.8049    0.3229   -5.0631 H   0  0  0  0  0  0  0  0  0  0  0  0
  -10.7491   -1.0430   -3.9485 H   0  0  0  0  0  0  0  0  0  0  0  0
  -14.0465    1.7433   -3.7606 H   0  0  0  0  0  0  0  0  0  0  0  0
  -12.7541    1.9931   -4.9472 H   0  0  0  0  0  0  0  0  0  0  0  0
  -13.9089    0.6590   -5.1500 H   0  0  0  0  0  0  0  0  0  0  0  0
  -16.4591   -2.3081    0.8006 H   0  0  0  0  0  0  0  0  0  0  0  0
  -15.1152   -4.1915   -0.0264 H   0  0  0  0  0  0  0  0  0  0  0  0
  -17.0286   -5.1900   -1.4206 H   0  0  0  0  0  0  0  0  0  0  0  0
  -16.9154   -3.8283   -2.5278 H   0  0  0  0  0  0  0  0  0  0  0  0
  -15.8930   -5.7265   -3.5029 H   0  0  0  0  0  0  0  0  0  0  0  0
  -14.6846   -4.4992   -3.2433 H   0  0  0  0  0  0  0  0  0  0  0  0
  -13.8046   -6.6956   -2.5404 H   0  0  0  0  0  0  0  0  0  0  0  0
  -13.9180   -5.6368   -1.1520 H   0  0  0  0  0  0  0  0  0  0  0  0
  -14.7446   -7.8647   -0.5445 H   0  0  0  0  0  0  0  0  0  0  0  0
  -16.0651   -6.7272   -0.4345 H   0  0  0  0  0  0  0  0  0  0  0  0
  -16.7795   -8.6377   -1.5789 H   0  0  0  0  0  0  0  0  0  0  0  0
  -16.7800   -7.4045   -2.6262 H   0  0  0  0  0  0  0  0  0  0  0  0
  -19.6482   -0.7874   -0.6017 H   0  0  0  0  0  0  0  0  0  0  0  0
  -18.5569   -1.6193    1.4330 H   0  0  0  0  0  0  0  0  0  0  0  0
  -20.5729   -2.9259    2.2432 H   0  0  0  0  0  0  0  0  0  0  0  0
  -20.3680   -4.0583    0.8842 H   0  0  0  0  0  0  0  0  0  0  0  0
  -18.2722   -4.8729    1.7973 H   0  0  0  0  0  0  0  0  0  0  0  0
  -18.9194   -2.9537    4.1033 H   0  0  0  0  0  0  0  0  0  0  0  0
  -17.6101   -4.1599    4.1006 H   0  0  0  0  0  0  0  0  0  0  0  0
  -17.5532   -2.7874    2.9944 H   0  0  0  0  0  0  0  0  0  0  0  0
  -20.4486   -5.9321    2.3625 H   0  0  0  0  0  0  0  0  0  0  0  0
  -19.3177   -6.0412    3.7227 H   0  0  0  0  0  0  0  0  0  0  0  0
  -20.6352   -4.8507    3.7485 H   0  0  0  0  0  0  0  0  0  0  0  0
  -22.6345   -2.1438   -2.5301 H   0  0  0  0  0  0  0  0  0  0  0  0
  -21.6319   -0.1282   -1.5537 H   0  0  0  0  0  0  0  0  0  0  0  0
  -23.7882    0.7065   -0.5153 H   0  0  0  0  0  0  0  0  0  0  0  0
  -23.7502   -0.6584    0.6278 H   0  0  0  0  0  0  0  0  0  0  0  0
  -21.7645    0.2233    1.7100 H   0  0  0  0  0  0  0  0  0  0  0  0
  -22.1282    2.5440   -0.2652 H   0  0  0  0  0  0  0  0  0  0  0  0
  -20.9852    2.5191    1.0993 H   0  0  0  0  0  0  0  0  0  0  0  0
  -20.7669    1.4167   -0.2600 H   0  0  0  0  0  0  0  0  0  0  0  0
  -24.0515    0.8151    2.4826 H   0  0  0  0  0  0  0  0  0  0  0  0
  -22.9259    2.1589    2.7433 H   0  0  0  0  0  0  0  0  0  0  0  0
  -24.0786    2.2071    1.3931 H   0  0  0  0  0  0  0  0  0  0  0  0
  -25.7965   -4.0333   -1.5798 H   0  0  0  0  0  0  0  0  0  0  0  0
  -24.5294   -3.0648   -3.4451 H   0  0  0  0  0  0  0  0  0  0  0  0
  -26.5464   -1.9939   -4.5452 H   0  0  0  0  0  0  0  0  0  0  0  0
  -26.6691   -0.8559   -3.1810 H   0  0  0  0  0  0  0  0  0  0  0  0
  -24.5721    0.2013   -3.7942 H   0  0  0  0  0  0  0  0  0  0  0  0
  -24.6605   -1.7609   -6.1524 H   0  0  0  0  0  0  0  0  0  0  0  0
  -23.5120   -0.4125   -5.9736 H   0  0  0  0  0  0  0  0  0  0  0  0
  -23.4558   -1.7785   -4.8593 H   0  0  0  0  0  0  0  0  0  0  0  0
  -26.7533    1.0079   -4.6715 H   0  0  0  0  0  0  0  0  0  0  0  0
  -25.4606    1.2572   -5.8579 H   0  0  0  0  0  0  0  0  0  0  0  0
  -26.6156   -0.0765   -6.0609 H   0  0  0  0  0  0  0  0  0  0  0  0
  -29.1646   -3.0472   -0.1104 H   0  0  0  0  0  0  0  0  0  0  0  0
  -27.8070   -4.9245   -0.9151 H   0  0  0  0  0  0  0  0  0  0  0  0
  -29.6822   -5.9936   -2.2435 H   0  0  0  0  0  0  0  0  0  0  0  0
  -29.6369   -4.6248   -3.3825 H   0  0  0  0  0  0  0  0  0  0  0  0
  -27.4321   -5.2636   -4.1624 H   0  0  0  0  0  0  0  0  0  0  0  0
  -27.8049   -7.6264   -2.2395 H   0  0  0  0  0  0  0  0  0  0  0  0
  -26.4896   -7.4596   -3.4277 H   0  0  0  0  0  0  0  0  0  0  0  0
  -26.5952   -6.3504   -2.0603 H   0  0  0  0  0  0  0  0  0  0  0  0
  -29.5036   -6.1071   -5.2469 H   0  0  0  0  0  0  0  0  0  0  0  0
  -28.2059   -7.3109   -5.3343 H   0  0  0  0  0  0  0  0  0  0  0  0
  -29.5254   -7.5019   -4.1610 H   0  0  0  0  0  0  0  0  0  0  0  0
  -32.3560   -1.5262   -1.5164 H   0  0  0  0  0  0  0  0  0  0  0  0
  -31.2772   -2.3781    0.5199 H   0  0  0  0  0  0  0  0  0  0  0  0
  -33.3219   -3.7486    1.2566 H   0  0  0  0  0  0  0  0  0  0  0  0
  -33.0493   -4.8528   -0.0848 H   0  0  0  0  0  0  0  0  0  0  0  0
  -32.2930   -5.8484    1.9242 H   0  0  0  0  0  0  0  0  0  0  0  0
  -30.9332   -5.6017    0.8641 H   0  0  0  0  0  0  0  0  0  0  0  0
  -30.3340   -4.9185    3.1591 H   0  0  0  0  0  0  0  0  0  0  0  0
  -30.2915   -3.5252    2.1016 H   0  0  0  0  0  0  0  0  0  0  0  0
  -31.3898   -2.9135    4.2077 H   0  0  0  0  0  0  0  0  0  0  0  0
  -32.5511   -2.7812    2.9101 H   0  0  0  0  0  0  0  0  0  0  0  0
  -33.5212   -3.9217    4.7068 H   0  0  0  0  0  0  0  0  0  0  0  0
  -33.3768   -4.9649    3.4785 H   0  0  0  0  0  0  0  0  0  0  0  0
  -35.3414   -2.8787   -3.4420 H   0  0  0  0  0  0  0  0  0  0  0  0
  -34.3391   -0.8620   -2.4664 H   0  0  0  0  0  0  0  0  0  0  0  0
  -36.4955   -0.0280   -1.4261 H   0  0  0  0  0  0  0  0  0  0  0  0
  -36.4565   -1.3935   -0.2837 H   0  0  0  0  0  0  0  0  0  0  0  0
  -34.4709   -0.5126    0.7985 H   0  0  0  0  0  0  0  0  0  0  0  0
  -34.8345    1.8086   -1.1762 H   0  0  0  0  0  0  0  0  0  0  0  0
  -33.6916    1.7836    0.1884 H   0  0  0  0  0  0  0  0  0  0  0  0
  -33.4733    0.6812   -1.1710 H   0  0  0  0  0  0  0  0  0  0  0  0
  -36.7578    0.0795    1.5716 H   0  0  0  0  0  0  0  0  0  0  0  0
  -35.6322    1.4233    1.8323 H   0  0  0  0  0  0  0  0  0  0  0  0
  -36.7850    1.4716    0.4822 H   0  0  0  0  0  0  0  0  0  0  0  0
  -38.5033   -4.7692   -2.4913 H   0  0  0  0  0  0  0  0  0  0  0  0
  -37.2364   -3.8005   -4.3562 H   0  0  0  0  0  0  0  0  0  0  0  0
  -39.2530   -2.7292   -5.4563 H   0  0  0  0  0  0  0  0  0  0  0  0
  -39.3758   -1.5913   -4.0920 H   0  0  0  0  0  0  0  0  0  0  0  0
  -37.2787   -0.5341   -4.7052 H   0  0  0  0  0  0  0  0  0  0  0  0
  -37.3670   -2.4963   -7.0634 H   0  0  0  0  0  0  0  0  0  0  0  0
  -36.2185   -1.1480   -6.8846 H   0  0  0  0  0  0  0  0  0  0  0  0
  -36.1624   -2.5139   -5.7703 H   0  0  0  0  0  0  0  0  0  0  0  0
  -39.4598    0.2725   -5.5825 H   0  0  0  0  0  0  0  0  0  0  0  0
  -38.1671    0.5218   -6.7689 H   0  0  0  0  0  0  0  0  0  0  0  0
  -39.3221   -0.8119   -6.9720 H   0  0  0  0  0  0  0  0  0  0  0  0
  -41.8693   -3.7812   -1.0198 H   0  0  0  0  0  0  0  0  0  0  0  0
  -40.5131   -5.6608   -1.8266 H   0  0  0  0  0  0  0  0  0  0  0  0
  -42.3900   -6.7290   -3.1539 H   0  0  0  0  0  0  0  0  0  0  0  0
  -42.3468   -5.3594   -4.2913 H   0  0  0  0  0  0  0  0  0  0  0  0
  -40.1396   -5.9984   -5.0729 H   0  0  0  0  0  0  0  0  0  0  0  0
  -40.5117   -8.3617   -3.1504 H   0  0  0  0  0  0  0  0  0  0  0  0
  -39.1967   -8.1945   -4.3388 H   0  0  0  0  0  0  0  0  0  0  0  0
  -39.3020   -7.0856   -2.9713 H   0  0  0  0  0  0  0  0  0  0  0  0
  -42.2104   -6.8424   -6.1579 H   0  0  0  0  0  0  0  0  0  0  0  0
  -40.9124   -8.0459   -6.2449 H   0  0  0  0  0  0  0  0  0  0  0  0
  -42.2321   -8.2372   -5.0720 H   0  0  0  0  0  0  0  0  0  0  0  0
  -45.0623   -2.2614   -2.4239 H   0  0  0  0  0  0  0  0  0  0  0  0
  -43.9687   -3.0914   -0.3915 H   0  0  0  0  0  0  0  0  0  0  0  0
  -45.9836   -4.3969    0.4205 H   0  0  0  0  0  0  0  0  0  0  0  0
  -45.7777   -5.5319   -0.9368 H   0  0  0  0  0  0  0  0  0  0  0  0
  -43.6842   -6.3447   -0.0236 H   0  0  0  0  0  0  0  0  0  0  0  0
  -44.3323   -4.4246    2.2814 H   0  0  0  0  0  0  0  0  0  0  0  0
  -43.0227   -5.6305    2.2793 H   0  0  0  0  0  0  0  0  0  0  0  0
  -42.9661   -4.2581    1.1727 H   0  0  0  0  0  0  0  0  0  0  0  0
  -45.8615   -7.4028    0.5407 H   0  0  0  0  0  0  0  0  0  0  0  0
  -44.7310   -7.5124    1.9011 H   0  0  0  0  0  0  0  0  0  0  0  0
  -46.0482   -6.3214    1.9266 H   0  0  0  0  0  0  0  0  0  0  0  0
  -48.0498   -3.6180   -4.3500 H   0  0  0  0  0  0  0  0  0  0  0  0
  -47.0623   -1.5994   -3.3561 H   0  0  0  0  0  0  0  0  0  0  0  0
  -49.2564   -0.8386   -2.2564 H   0  0  0  0  0  0  0  0  0  0  0  0
  -49.1463   -2.1874   -1.1332 H   0  0  0  0  0  0  0  0  0  0  0  0
  -48.4976   -0.1925   -0.0383 H   0  0  0  0  0  0  0  0  0  0  0  0
  -47.1318   -1.2708   -0.1133 H   0  0  0  0  0  0  0  0  0  0  0  0
  -46.4187    1.0178   -0.7020 H   0  0  0  0  0  0  0  0  0  0  0  0
  -46.2113   -0.0355   -2.0836 H   0  0  0  0  0  0  0  0  0  0  0  0
  -47.1933    2.0877   -2.8209 H   0  0  0  0  0  0  0  0  0  0  0  0
  -48.3454    0.8070   -3.1081 H   0  0  0  0  0  0  0  0  0  0  0  0
  -49.4302    2.6130   -2.0929 H   0  0  0  0  0  0  0  0  0  0  0  0
  -49.4374    1.3798   -1.0459 H   0  0  0  0  0  0  0  0  0  0  0  0
  -51.2106   -5.5055   -3.4023 H   0  0  0  0  0  0  0  0  0  0  0  0
  -49.9433   -4.5375   -5.2688 H   0  0  0  0  0  0  0  0  0  0  0  0
  -51.9600   -3.4643   -6.3683 H   0  0  0  0  0  0  0  0  0  0  0  0
  -52.0819   -2.3271   -5.0033 H   0  0  0  0  0  0  0  0  0  0  0  0
  -49.9851   -1.2699   -5.6157 H   0  0  0  0  0  0  0  0  0  0  0  0
  -50.0733   -3.2316   -7.9744 H   0  0  0  0  0  0  0  0  0  0  0  0
  -48.9248   -1.8832   -7.7956 H   0  0  0  0  0  0  0  0  0  0  0  0
  -48.8686   -3.2492   -6.6812 H   0  0  0  0  0  0  0  0  0  0  0  0
  -52.1661   -0.4630   -6.4934 H   0  0  0  0  0  0  0  0  0  0  0  0
  -50.8734   -0.2135   -7.6797 H   0  0  0  0  0  0  0  0  0  0  0  0
  -52.0284   -1.5472   -7.8829 H   0  0  0  0  0  0  0  0  0  0  0  0
  -54.5763   -4.5168   -1.9299 H   0  0  0  0  0  0  0  0  0  0  0  0
  -53.2199   -6.3962   -2.7376 H   0  0  0  0  0  0  0  0  0  0  0  0
  -55.0962   -7.4645   -4.0652 H   0  0  0  0  0  0  0  0  0  0  0  0
  -55.0529   -6.0948   -5.2026 H   0  0  0  0  0  0  0  0  0  0  0  0
  -52.8459   -6.7339   -5.9840 H   0  0  0  0  0  0  0  0  0  0  0  0
  -53.2181   -9.0971   -4.0615 H   0  0  0  0  0  0  0  0  0  0  0  0
  -51.9031   -8.9300   -5.2497 H   0  0  0  0  0  0  0  0  0  0  0  0
  -52.0085   -7.8210   -3.8823 H   0  0  0  0  0  0  0  0  0  0  0  0
  -54.9168   -7.5778   -7.0690 H   0  0  0  0  0  0  0  0  0  0  0  0
  -53.6189   -8.7814   -7.1559 H   0  0  0  0  0  0  0  0  0  0  0  0
  -54.9386   -8.9726   -5.9830 H   0  0  0  0  0  0  0  0  0  0  0  0
  -57.7614   -2.9949   -3.3362 H   0  0  0  0  0  0  0  0  0  0  0  0
  -56.6721   -3.8288   -1.3001 H   0  0  0  0  0  0  0  0  0  0  0  0
  -58.6894   -5.1323   -0.4899 H   0  0  0  0  0  0  0  0  0  0  0  0
  -58.4859   -6.2656   -1.8489 H   0  0  0  0  0  0  0  0  0  0  0  0
  -56.3908   -7.0802   -0.9349 H   0  0  0  0  0  0  0  0  0  0  0  0
  -57.0389   -5.1601    1.3702 H   0  0  0  0  0  0  0  0  0  0  0  0
  -55.7293   -6.3661    1.3681 H   0  0  0  0  0  0  0  0  0  0  0  0
  -55.6725   -4.9937    0.2617 H   0  0  0  0  0  0  0  0  0  0  0  0
  -58.5681   -8.1383   -0.3704 H   0  0  0  0  0  0  0  0  0  0  0  0
  -57.4374   -8.2477    0.9900 H   0  0  0  0  0  0  0  0  0  0  0  0
  -58.7546   -7.0568    1.0155 H   0  0  0  0  0  0  0  0  0  0  0  0
  -60.7268   -4.3657   -5.2370 H   0  0  0  0  0  0  0  0  0  0  0  0
  -59.7355   -2.3254   -4.2778 H   0  0  0  0  0  0  0  0  0  0  0  0
  -61.8910   -1.4904   -3.2426 H   0  0  0  0  0  0  0  0  0  0  0  0
  -61.8649   -2.8629   -2.1052 H   0  0  0  0  0  0  0  0  0  0  0  0
  -59.8794   -1.9803   -1.0167 H   0  0  0  0  0  0  0  0  0  0  0  0
  -60.2468    0.3380   -2.9961 H   0  0  0  0  0  0  0  0  0  0  0  0
  -59.1024    0.3165   -1.6321 H   0  0  0  0  0  0  0  0  0  0  0  0
  -58.8844   -0.7869   -2.9904 H   0  0  0  0  0  0  0  0  0  0  0  0
  -64.6474   -6.2143   -5.6259 H   0  0  0  0  0  0  0  0  0  0  0  0
  -63.6019   -6.2395   -4.3468 H   0  0  0  0  0  0  0  0  0  0  0  0
  -62.5802   -5.2029   -6.2171 H   0  0  0  0  0  0  0  0  0  0  0  0
  -64.8002   -4.2388   -7.1316 H   0  0  0  0  0  0  0  0  0  0  0  0
  -64.8634   -3.1331   -5.7899 H   0  0  0  0  0  0  0  0  0  0  0  0
  -63.9471   -1.9553   -7.7147 H   0  0  0  0  0  0  0  0  0  0  0  0
  -62.7305   -2.0430   -6.4793 H   0  0  0  0  0  0  0  0  0  0  0  0
  -61.7094   -2.5810   -8.6493 H   0  0  0  0  0  0  0  0  0  0  0  0
  -61.6220   -3.9736   -7.6102 H   0  0  0  0  0  0  0  0  0  0  0  0
  -62.3186   -4.7011   -9.8370 H   0  0  0  0  0  0  0  0  0  0  0  0
  -63.6425   -4.9832   -8.7283 H   0  0  0  0  0  0  0  0  0  0  0  0
  -64.4589   -3.9434  -10.6605 H   0  0  0  0  0  0  0  0  0  0  0  0
  -64.6096   -2.8906   -9.4357 H   0  0  0  0  0  0  0  0  0  0  0  0
  -62.1704   -1.3908   -0.2496 H   0  0  0  0  0  0  0  0  0  0  0  0
  -61.0465   -0.0454    0.0131 H   0  0  0  0  0  0  0  0  0  0  0  0
  -62.1968    0.0006   -1.3394 H   0  0  0  0  0  0  0  0  0  0  0  0
  1  3  1  0  0  0  0
  1  9  2  0  0  0  0
  1 10  1  0  0  0  0
  2 11  1  0  0  0  0
  2175  1  0  0  0  0
  3  2  1  0  0  0  0
  3  4  1  0  0  0  0
  3176  1  6  0  0  0
  4  5  1  0  0  0  0
  4177  1  0  0  0  0
  4178  1  0  0  0  0
  5  6  1  0  0  0  0
  5179  1  0  0  0  0
  5180  1  0  0  0  0
  6  7  1  0  0  0  0
  6181  1  0  0  0  0
  6182  1  0  0  0  0
  7  8  1  0  0  0  0
  7183  1  0  0  0  0
  7184  1  0  0  0  0
  8185  1  0  0  0  0
  8186  1  0  0  0  0
 10187  1  0  0  0  0
 11 13  1  0  0  0  0
 11 18  2  0  0  0  0
 12 19  1  0  0  0  0
 12188  1  0  0  0  0
 13 12  1  0  0  0  0
 13 14  1  0  0  0  0
 13189  1  1  0  0  0
 14 15  1  0  0  0  0
 14190  1  0  0  0  0
 14191  1  0  0  0  0
 15 16  1  0  0  0  0
 15 17  1  0  0  0  0
 15192  1  0  0  0  0
 16193  1  0  0  0  0
 16194  1  0  0  0  0
 16195  1  0  0  0  0
 17196  1  0  0  0  0
 17197  1  0  0  0  0
 17198  1  0  0  0  0
 19 21  1  0  0  0  0
 19 26  2  0  0  0  0
 20 27  1  0  0  0  0
 20199  1  0  0  0  0
 21 20  1  0  0  0  0
 21 22  1  0  0  0  0
 21200  1  1  0  0  0
 22 23  1  0  0  0  0
 22201  1  0  0  0  0
 22202  1  0  0  0  0
 23 24  1  0  0  0  0
 23 25  1  0  0  0  0
 23203  1  0  0  0  0
 24204  1  0  0  0  0
 24205  1  0  0  0  0
 24206  1  0  0  0  0
 25207  1  0  0  0  0
 25208  1  0  0  0  0
 25209  1  0  0  0  0
 27 29  1  0  0  0  0
 27 34  2  0  0  0  0
 28 35  1  0  0  0  0
 28210  1  0  0  0  0
 29 28  1  0  0  0  0
 29 30  1  0  0  0  0
 29211  1  6  0  0  0
 30 31  1  0  0  0  0
 30212  1  0  0  0  0
 30213  1  0  0  0  0
 31 32  1  0  0  0  0
 31 33  1  0  0  0  0
 31214  1  0  0  0  0
 32215  1  0  0  0  0
 32216  1  0  0  0  0
 32217  1  0  0  0  0
 33218  1  0  0  0  0
 33219  1  0  0  0  0
 33220  1  0  0  0  0
 35 37  1  0  0  0  0
 35 42  2  0  0  0  0
 36 43  1  0  0  0  0
 36221  1  0  0  0  0
 37 36  1  0  0  0  0
 37 38  1  0  0  0  0
 37222  1  6  0  0  0
 38 39  1  0  0  0  0
 38223  1  0  0  0  0
 38224  1  0  0  0  0
 39 40  1  0  0  0  0
 39 41  1  0  0  0  0
 39225  1  0  0  0  0
 40226  1  0  0  0  0
 40227  1  0  0  0  0
 40228  1  0  0  0  0
 41229  1  0  0  0  0
 41230  1  0  0  0  0
 41231  1  0  0  0  0
 43 45  1  0  0  0  0
 43 51  2  0  0  0  0
 44 52  1  0  0  0  0
 44232  1  0  0  0  0
 45 44  1  0  0  0  0
 45 46  1  0  0  0  0
 45233  1  1  0  0  0
 46 47  1  0  0  0  0
 46234  1  0  0  0  0
 46235  1  0  0  0  0
 47 48  1  0  0  0  0
 47236  1  0  0  0  0
 47237  1  0  0  0  0
 48 49  1  0  0  0  0
 48238  1  0  0  0  0
 48239  1  0  0  0  0
 49 50  1  0  0  0  0
 49240  1  0  0  0  0
 49241  1  0  0  0  0
 50242  1  0  0  0  0
 50243  1  0  0  0  0
 52 54  1  0  0  0  0
 52 59  2  0  0  0  0
 53 60  1  0  0  0  0
 53244  1  0  0  0  0
 54 53  1  0  0  0  0
 54 55  1  0  0  0  0
 54245  1  1  0  0  0
 55 56  1  0  0  0  0
 55246  1  0  0  0  0
 55247  1  0  0  0  0
 56 57  1  0  0  0  0
 56 58  1  0  0  0  0
 56248  1  0  0  0  0
 57249  1  0  0  0  0
 57250  1  0  0  0  0
 57251  1  0  0  0  0
 58252  1  0  0  0  0
 58253  1  0  0  0  0
 58254  1  0  0  0  0
 60 62  1  0  0  0  0
 60 67  2  0  0  0  0
 61 68  1  0  0  0  0
 61255  1  0  0  0  0
 62 61  1  0  0  0  0
 62 63  1  0  0  0  0
 62256  1  6  0  0  0
 63 64  1  0  0  0  0
 63257  1  0  0  0  0
 63258  1  0  0  0  0
 64 65  1  0  0  0  0
 64 66  1  0  0  0  0
 64259  1  0  0  0  0
 65260  1  0  0  0  0
 65261  1  0  0  0  0
 65262  1  0  0  0  0
 66263  1  0  0  0  0
 66264  1  0  0  0  0
 66265  1  0  0  0  0
 68 70  1  0  0  0  0
 68 75  2  0  0  0  0
 69 76  1  0  0  0  0
 69266  1  0  0  0  0
 70 69  1  0  0  0  0
 70 71  1  0  0  0  0
 70267  1  6  0  0  0
 71 72  1  0  0  0  0
 71268  1  0  0  0  0
 71269  1  0  0  0  0
 72 73  1  0  0  0  0
 72 74  1  0  0  0  0
 72270  1  0  0  0  0
 73271  1  0  0  0  0
 73272  1  0  0  0  0
 73273  1  0  0  0  0
 74274  1  0  0  0  0
 74275  1  0  0  0  0
 74276  1  0  0  0  0
 76 78  1  0  0  0  0
 76 83  2  0  0  0  0
 77 84  1  0  0  0  0
 77277  1  0  0  0  0
 78 77  1  0  0  0  0
 78 79  1  0  0  0  0
 78278  1  1  0  0  0
 79 80  1  0  0  0  0
 79279  1  0  0  0  0
 79280  1  0  0  0  0
 80 81  1  0  0  0  0
 80 82  1  0  0  0  0
 80281  1  0  0  0  0
 81282  1  0  0  0  0
 81283  1  0  0  0  0
 81284  1  0  0  0  0
 82285  1  0  0  0  0
 82286  1  0  0  0  0
 82287  1  0  0  0  0
 84 86  1  0  0  0  0
 84 92  2  0  0  0  0
 85 93  1  0  0  0  0
 85288  1  0  0  0  0
 86 85  1  0  0  0  0
 86 87  1  0  0  0  0
 86289  1  1  0  0  0
 87 88  1  0  0  0  0
 87290  1  0  0  0  0
 87291  1  0  0  0  0
 88 89  1  0  0  0  0
 88292  1  0  0  0  0
 88293  1  0  0  0  0
 89 90  1  0  0  0  0
 89294  1  0  0  0  0
 89295  1  0  0  0  0
 90 91  1  0  0  0  0
 90296  1  0  0  0  0
 90297  1  0  0  0  0
 91298  1  0  0  0  0
 91299  1  0  0  0  0
 93 95  1  0  0  0  0
 93100  2  0  0  0  0
 94101  1  0  0  0  0
 94300  1  0  0  0  0
 95 94  1  0  0  0  0
 95 96  1  0  0  0  0
 95301  1  6  0  0  0
 96 97  1  0  0  0  0
 96302  1  0  0  0  0
 96303  1  0  0  0  0
 97 98  1  0  0  0  0
 97 99  1  0  0  0  0
 97304  1  0  0  0  0
 98305  1  0  0  0  0
 98306  1  0  0  0  0
 98307  1  0  0  0  0
 99308  1  0  0  0  0
 99309  1  0  0  0  0
 99310  1  0  0  0  0
101103  1  0  0  0  0
101108  2  0  0  0  0
102109  1  0  0  0  0
102311  1  0  0  0  0
103102  1  0  0  0  0
103104  1  0  0  0  0
103312  1  6  0  0  0
104105  1  0  0  0  0
104313  1  0  0  0  0
104314  1  0  0  0  0
105106  1  0  0  0  0
105107  1  0  0  0  0
105315  1  0  0  0  0
106316  1  0  0  0  0
106317  1  0  0  0  0
106318  1  0  0  0  0
107319  1  0  0  0  0
107320  1  0  0  0  0
107321  1  0  0  0  0
109111  1  0  0  0  0
109116  2  0  0  0  0
110117  1  0  0  0  0
110322  1  0  0  0  0
111110  1  0  0  0  0
111112  1  0  0  0  0
111323  1  1  0  0  0
112113  1  0  0  0  0
112324  1  0  0  0  0
112325  1  0  0  0  0
113114  1  0  0  0  0
113115  1  0  0  0  0
113326  1  0  0  0  0
114327  1  0  0  0  0
114328  1  0  0  0  0
114329  1  0  0  0  0
115330  1  0  0  0  0
115331  1  0  0  0  0
115332  1  0  0  0  0
117119  1  0  0  0  0
117124  2  0  0  0  0
118125  1  0  0  0  0
118333  1  0  0  0  0
119118  1  0  0  0  0
119120  1  0  0  0  0
119334  1  1  0  0  0
120121  1  0  0  0  0
120335  1  0  0  0  0
120336  1  0  0  0  0
121122  1  0  0  0  0
121123  1  0  0  0  0
121337  1  0  0  0  0
122338  1  0  0  0  0
122339  1  0  0  0  0
122340  1  0  0  0  0
123341  1  0  0  0  0
123342  1  0  0  0  0
123343  1  0  0  0  0
125127  1  0  0  0  0
125133  2  0  0  0  0
126134  1  0  0  0  0
126344  1  0  0  0  0
127126  1  0  0  0  0
127128  1  0  0  0  0
127345  1  6  0  0  0
128129  1  0  0  0  0
128346  1  0  0  0  0
128347  1  0  0  0  0
129130  1  0  0  0  0
129348  1  0  0  0  0
129349  1  0  0  0  0
130131  1  0  0  0  0
130350  1  0  0  0  0
130351  1  0  0  0  0
131132  1  0  0  0  0
131352  1  0  0  0  0
131353  1  0  0  0  0
132354  1  0  0  0  0
132355  1  0  0  0  0
134136  1  0  0  0  0
134141  2  0  0  0  0
135142  1  0  0  0  0
135356  1  0  0  0  0
136135  1  0  0  0  0
136137  1  0  0  0  0
136357  1  6  0  0  0
137138  1  0  0  0  0
137358  1  0  0  0  0
137359  1  0  0  0  0
138139  1  0  0  0  0
138140  1  0  0  0  0
138360  1  0  0  0  0
139361  1  0  0  0  0
139362  1  0  0  0  0
139363  1  0  0  0  0
140364  1  0  0  0  0
140365  1  0  0  0  0
140366  1  0  0  0  0
142144  1  0  0  0  0
142149  2  0  0  0  0
143150  1  0  0  0  0
143367  1  0  0  0  0
144143  1  0  0  0  0
144145  1  0  0  0  0
144368  1  1  0  0  0
145146  1  0  0  0  0
145369  1  0  0  0  0
145370  1  0  0  0  0
146147  1  0  0  0  0
146148  1  0  0  0  0
146371  1  0  0  0  0
147372  1  0  0  0  0
147373  1  0  0  0  0
147374  1  0  0  0  0
148375  1  0  0  0  0
148376  1  0  0  0  0
148377  1  0  0  0  0
150152  1  0  0  0  0
150157  2  0  0  0  0
151158  1  0  0  0  0
151378  1  0  0  0  0
152151  1  0  0  0  0
152153  1  0  0  0  0
152379  1  1  0  0  0
153154  1  0  0  0  0
153380  1  0  0  0  0
153381  1  0  0  0  0
154155  1  0  0  0  0
154156  1  0  0  0  0
154382  1  0  0  0  0
155383  1  0  0  0  0
155384  1  0  0  0  0
155385  1  0  0  0  0
156386  1  0  0  0  0
156387  1  0  0  0  0
156388  1  0  0  0  0
158160  1  0  0  0  0
158164  2  0  0  0  0
159165  1  0  0  0  0
159389  1  0  0  0  0
160159  1  0  0  0  0
160161  1  0  0  0  0
160390  1  6  0  0  0
161162  1  0  0  0  0
161391  1  0  0  0  0
161392  1  0  0  0  0
162163  1  0  0  0  0
162174  1  0  0  0  0
162393  1  0  0  0  0
163394  1  0  0  0  0
163395  1  0  0  0  0
163396  1  0  0  0  0
165167  1  0  0  0  0
165173  2  0  0  0  0
166397  1  0  0  0  0
166398  1  0  0  0  0
167166  1  0  0  0  0
167168  1  0  0  0  0
167399  1  6  0  0  0
168169  1  0  0  0  0
168400  1  0  0  0  0
168401  1  0  0  0  0
169170  1  0  0  0  0
169402  1  0  0  0  0
169403  1  0  0  0  0
170171  1  0  0  0  0
170404  1  0  0  0  0
170405  1  0  0  0  0
171172  1  0  0  0  0
171406  1  0  0  0  0
171407  1  0  0  0  0
172408  1  0  0  0  0
172409  1  0  0  0  0
174410  1  0  0  0  0
174411  1  0  0  0  0
174412  1  0  0  0  0
M  END
>  <DRUGBANK_ID>
DB11332

>  <SECONDARY_ACCESSION_NUMBERS>
DB05534

>  <COMMON_NAME>
Sinapultide

>  <CAS_NUMBER>
138531-07-4

>  <UNII>
040X3AX99T

>  <SYNONYMS>
Sinapultida; Sinapultide; Sinapultidum

$$$$
