
 OpenBabel10282417123D

 88 92  0  0  0  0  0  0  0  0999 V2000
    0.9968    0.1943   -0.0787 C   0  0  0  0  0  0  0  0  0  0  0  0
    0.5441   -0.8197   -1.1161 C   0  0  0  0  0  0  0  0  0  0  0  0
    1.0224   -2.2194   -0.7403 C   0  0  0  0  0  0  0  0  0  0  0  0
    0.4760   -2.6436    0.6289 C   0  0  0  0  0  0  0  0  0  0  0  0
   -1.0685   -2.6117    0.6513 C   0  0  0  0  0  0  0  0  0  0  0  0
   -1.6041   -3.5690   -0.3672 C   0  0  0  0  0  0  0  0  0  0  0  0
   -1.2007   -4.8618   -0.1734 C   0  0  0  0  0  0  0  0  0  0  0  0
   -1.6579   -5.8390   -1.0084 C   0  0  0  0  0  0  0  0  0  0  0  0
   -2.3683   -5.6152   -2.1873 C   0  0  0  0  0  0  0  0  0  0  0  0
   -2.8240   -4.3042   -2.3531 C   0  0  0  0  0  0  0  0  0  0  0  0
   -2.4385   -3.2820   -1.4548 C   0  0  0  0  0  0  0  0  0  0  0  0
   -2.6282   -6.6611   -3.2648 C   0  0  0  0  0  0  0  0  0  0  0  0
   -3.3830   -6.3214   -4.2137 O   0  0  0  0  0  0  0  0  0  0  0  0
   -2.0063   -7.9255   -3.2694 N   0  0  0  0  0  0  0  0  0  0  0  0
   -1.2090   -8.3204   -2.1140 C   0  0  0  0  0  0  0  0  0  0  0  0
   -1.9751   -9.0918   -1.0281 C   0  0  0  0  0  0  0  0  0  0  0  0
   -1.8856  -10.4051   -1.2454 C   0  0  0  0  0  0  0  0  0  0  0  0
   -2.5647  -11.5418   -0.7178 C   0  0  0  0  0  0  0  0  0  0  0  0
   -2.9103  -11.4720    0.5519 C   0  0  0  0  0  0  0  0  0  0  0  0
   -3.0046  -10.1438    0.9841 C   0  0  0  0  0  0  0  0  0  0  0  0
   -2.6716   -8.9583    0.1459 C   0  0  0  0  0  0  0  0  0  0  0  0
   -2.9169  -12.7642    1.2556 C   0  0  0  0  0  0  0  0  0  0  0  0
   -1.8402  -13.7172    1.3798 C   0  0  0  0  0  0  0  0  0  0  0  0
   -1.9566  -14.8492    2.1826 C   0  0  0  0  0  0  0  0  0  0  0  0
   -3.1672  -15.0393    2.8315 C   0  0  0  0  0  0  0  0  0  0  0  0
   -3.3996  -16.1680    3.7804 C   0  0  0  0  0  0  0  0  0  0  0  0
   -3.8412  -15.6634    5.1366 C   0  0  0  0  0  0  0  0  0  0  0  0
   -4.9438  -15.8753    5.6084 O   0  0  0  0  0  0  0  0  0  0  0  0
   -2.8588  -14.9245    5.7320 O   0  0  0  0  0  0  0  0  0  0  0  0
   -3.2333  -14.3908    7.0017 C   0  0  0  0  0  0  0  0  0  0  0  0
   -4.2500  -14.1798    2.5883 C   0  0  0  0  0  0  0  0  0  0  0  0
   -4.1491  -13.1239    1.7245 C   0  0  0  0  0  0  0  0  0  0  0  0
   -2.2523   -8.9169   -4.4224 C   0  0  0  0  0  0  0  0  0  0  0  0
   -3.3937   -9.9217   -4.2071 C   0  0  0  0  0  0  0  0  0  0  0  0
   -2.9394  -11.1705   -3.4081 C   0  0  0  0  0  0  0  0  0  0  0  0
   -1.4575  -11.7343   -3.5412 N   0  0  0  0  0  0  0  0  0  0  0  0
   -0.4773  -10.8026   -4.0980 C   0  0  0  0  0  0  0  0  0  0  0  0
   -1.0375   -9.6958   -4.9732 C   0  0  0  0  0  0  0  0  0  0  0  0
   -0.6220  -12.6406   -2.4109 C   0  0  0  0  0  0  0  0  0  0  0  0
    0.2075  -11.9848   -0.9719 C   0  0  0  0  0  0  0  0  0  0  0  0
   -0.3371  -11.6446    0.2029 N   0  0  0  0  0  0  0  0  0  0  0  0
    0.2763  -10.5381    0.7214 C   0  0  0  0  0  0  0  0  0  0  0  0
    1.5499  -10.6283    0.2755 C   0  0  0  0  0  0  0  0  0  0  0  0
    1.5127  -11.5592   -0.7672 N   0  0  0  0  0  0  0  0  0  0  0  0
    0.6005   -0.0293    0.9172 H   0  0  0  0  0  0  0  0  0  0  0  0
    0.6458    1.1931   -0.3381 H   0  0  0  0  0  0  0  0  0  0  0  0
    2.0886    0.1962   -0.0123 H   0  0  0  0  0  0  0  0  0  0  0  0
   -0.5477   -0.7906   -1.2049 H   0  0  0  0  0  0  0  0  0  0  0  0
    0.9275   -0.5536   -2.1048 H   0  0  0  0  0  0  0  0  0  0  0  0
    0.7122   -2.9307   -1.5177 H   0  0  0  0  0  0  0  0  0  0  0  0
    2.1172   -2.2590   -0.7262 H   0  0  0  0  0  0  0  0  0  0  0  0
    0.8784   -3.6376    0.8645 H   0  0  0  0  0  0  0  0  0  0  0  0
    0.8644   -2.0131    1.4334 H   0  0  0  0  0  0  0  0  0  0  0  0
   -1.4205   -2.9392    1.6385 H   0  0  0  0  0  0  0  0  0  0  0  0
   -1.4760   -1.6107    0.5017 H   0  0  0  0  0  0  0  0  0  0  0  0
   -0.5336   -5.1544    0.6343 H   0  0  0  0  0  0  0  0  0  0  0  0
   -1.3999   -6.7737   -0.5663 H   0  0  0  0  0  0  0  0  0  0  0  0
   -3.5044   -4.0729   -3.1718 H   0  0  0  0  0  0  0  0  0  0  0  0
   -2.7773   -2.2660   -1.6368 H   0  0  0  0  0  0  0  0  0  0  0  0
   -0.3472   -8.8428   -2.5277 H   0  0  0  0  0  0  0  0  0  0  0  0
   -0.5298   -7.5455   -1.7765 H   0  0  0  0  0  0  0  0  0  0  0  0
   -1.0933  -10.5528   -1.9296 H   0  0  0  0  0  0  0  0  0  0  0  0
   -2.4217  -12.5511   -1.0746 H   0  0  0  0  0  0  0  0  0  0  0  0
   -3.1397  -10.0063    2.0456 H   0  0  0  0  0  0  0  0  0  0  0  0
   -2.8366   -7.9825    0.5679 H   0  0  0  0  0  0  0  0  0  0  0  0
   -0.8769  -13.6206    0.8778 H   0  0  0  0  0  0  0  0  0  0  0  0
   -1.1114  -15.5255    2.3279 H   0  0  0  0  0  0  0  0  0  0  0  0
   -4.2119  -16.7660    3.3509 H   0  0  0  0  0  0  0  0  0  0  0  0
   -2.5318  -16.8243    3.8818 H   0  0  0  0  0  0  0  0  0  0  0  0
   -4.0893  -13.7141    6.9065 H   0  0  0  0  0  0  0  0  0  0  0  0
   -3.4580  -15.2044    7.6974 H   0  0  0  0  0  0  0  0  0  0  0  0
   -2.3870  -13.8216    7.3964 H   0  0  0  0  0  0  0  0  0  0  0  0
   -5.1932  -14.2914    3.1064 H   0  0  0  0  0  0  0  0  0  0  0  0
   -5.0092  -12.5380    1.4282 H   0  0  0  0  0  0  0  0  0  0  0  0
   -2.5941   -8.2912   -5.2582 H   0  0  0  0  0  0  0  0  0  0  0  0
   -4.2025   -9.3687   -3.6812 H   0  0  0  0  0  0  0  0  0  0  0  0
   -3.8463  -10.2742   -5.1358 H   0  0  0  0  0  0  0  0  0  0  0  0
   -3.3019  -10.6701   -2.5166 H   0  0  0  0  0  0  0  0  0  0  0  0
   -3.6780  -11.9810   -3.3277 H   0  0  0  0  0  0  0  0  0  0  0  0
    0.2689  -11.3923   -4.6362 H   0  0  0  0  0  0  0  0  0  0  0  0
    0.1544  -10.3562   -3.3312 H   0  0  0  0  0  0  0  0  0  0  0  0
   -1.3397  -10.1843   -5.9100 H   0  0  0  0  0  0  0  0  0  0  0  0
   -0.2327   -8.9971   -5.2145 H   0  0  0  0  0  0  0  0  0  0  0  0
   -1.3146  -13.4546   -2.1540 H   0  0  0  0  0  0  0  0  0  0  0  0
    0.1711  -13.1570   -2.9547 H   0  0  0  0  0  0  0  0  0  0  0  0
   -0.2121   -9.8354    1.4079 H   0  0  0  0  0  0  0  0  0  0  0  0
    2.4270  -10.1308    0.6565 H   0  0  0  0  0  0  0  0  0  0  0  0
    2.3185  -12.0040   -1.1544 H   0  0  0  0  0  0  0  0  0  0  0  0
  1  2  1  0  0  0  0
  1 45  1  0  0  0  0
  1 46  1  0  0  0  0
  1 47  1  0  0  0  0
  2  3  1  0  0  0  0
  2 48  1  0  0  0  0
  2 49  1  0  0  0  0
  3  4  1  0  0  0  0
  3 50  1  0  0  0  0
  3 51  1  0  0  0  0
  4  5  1  0  0  0  0
  4 52  1  0  0  0  0
  4 53  1  0  0  0  0
  5  6  1  0  0  0  0
  5 54  1  0  0  0  0
  5 55  1  0  0  0  0
  6  7  2  0  0  0  0
  6 11  1  0  0  0  0
  7  8  1  0  0  0  0
  7 56  1  0  0  0  0
  8  9  2  0  0  0  0
  8 57  1  0  0  0  0
  9 10  1  0  0  0  0
  9 12  1  0  0  0  0
 10 11  2  0  0  0  0
 10 58  1  0  0  0  0
 11 59  1  0  0  0  0
 12 13  2  0  0  0  0
 12 14  1  0  0  0  0
 14 15  1  0  0  0  0
 14 33  1  0  0  0  0
 15 16  1  0  0  0  0
 15 60  1  0  0  0  0
 15 61  1  0  0  0  0
 16 17  2  0  0  0  0
 16 21  1  0  0  0  0
 17 18  1  0  0  0  0
 17 62  1  0  0  0  0
 18 19  2  0  0  0  0
 18 63  1  0  0  0  0
 19 20  1  0  0  0  0
 19 22  1  0  0  0  0
 20 21  2  0  0  0  0
 20 64  1  0  0  0  0
 21 65  1  0  0  0  0
 22 23  2  0  0  0  0
 22 32  1  0  0  0  0
 23 24  1  0  0  0  0
 23 66  1  0  0  0  0
 24 25  2  0  0  0  0
 24 67  1  0  0  0  0
 25 26  1  0  0  0  0
 25 31  1  0  0  0  0
 26 27  1  0  0  0  0
 26 68  1  0  0  0  0
 26 69  1  0  0  0  0
 27 28  2  0  0  0  0
 27 29  1  0  0  0  0
 29 30  1  0  0  0  0
 30 70  1  0  0  0  0
 30 71  1  0  0  0  0
 30 72  1  0  0  0  0
 31 32  2  0  0  0  0
 31 73  1  0  0  0  0
 32 74  1  0  0  0  0
 33 34  1  0  0  0  0
 33 38  1  0  0  0  0
 33 75  1  0  0  0  0
 34 35  1  0  0  0  0
 34 76  1  0  0  0  0
 34 77  1  0  0  0  0
 35 36  1  0  0  0  0
 35 78  1  0  0  0  0
 35 79  1  0  0  0  0
 36 37  1  0  0  0  0
 36 39  1  0  0  0  0
 37 38  1  0  0  0  0
 37 80  1  0  0  0  0
 37 81  1  0  0  0  0
 38 82  1  0  0  0  0
 38 83  1  0  0  0  0
 39 40  1  0  0  0  0
 39 84  1  0  0  0  0
 39 85  1  0  0  0  0
 40 41  2  0  0  0  0
 40 44  1  0  0  0  0
 41 42  1  0  0  0  0
 42 43  2  0  0  0  0
 42 86  1  0  0  0  0
 43 44  1  0  0  0  0
 43 87  1  0  0  0  0
 44 88  1  0  0  0  0
M  END
>  <DRUGBANK_ID>
DB02505

>  <SECONDARY_ACCESSION_NUMBERS>
EXPT01851

>  <COMMON_NAME>
N-(R-Carboxy-Ethyl)-Alpha-(S)-(2-Phenylethyl)

$$$$
