
 OpenBabel10282417133D

195202  0  0  0  0  0  0  0  0999 V2000
   17.7818   18.1107   28.8175 O   0  0  0  0  0  0  0  0  0  0  0  0
   14.4554   -5.4288   19.9733 O   0  0  0  0  0  0  0  0  0  0  0  0
   18.2870   16.5007   30.6714 O   0  0  0  0  0  0  0  0  0  0  0  0
   14.8343   19.2908   28.5621 O   0  0  0  0  0  0  0  0  0  0  0  0
   14.2361   18.1923   31.0726 O   0  0  0  0  0  0  0  0  0  0  0  0
   13.5278   -7.6409   20.2814 O   0  0  0  0  0  0  0  0  0  0  0  0
   12.6064   -3.3414   19.6323 O   0  0  0  0  0  0  0  0  0  0  0  0
   10.4117   -4.8816   20.4358 O   0  0  0  0  0  0  0  0  0  0  0  0
   16.5549   19.8248   30.6896 O   0  0  0  0  0  0  0  0  0  0  0  0
   11.8279   -6.5220   22.3159 O   0  0  0  0  0  0  0  0  0  0  0  0
   17.8868   17.3181   26.1318 O   0  0  0  0  0  0  0  0  0  0  0  0
   15.8185   -5.0366   17.4272 O   0  0  0  0  0  0  0  0  0  0  0  0
   14.9495   13.4899   27.0336 O   0  0  0  0  0  0  0  0  0  0  0  0
   18.8804   -8.0856   19.4941 O   0  0  0  0  0  0  0  0  0  0  0  0
   16.8666   13.1591   20.2031 O   0  0  0  0  0  0  0  0  0  0  0  0
   21.7086    2.1261   21.1020 O   0  0  0  0  0  0  0  0  0  0  0  0
   17.0827   11.9524   17.2706 O   0  0  0  0  0  0  0  0  0  0  0  0
   19.0226    3.4630   20.1151 O   0  0  0  0  0  0  0  0  0  0  0  0
   16.2717   12.5888   32.9435 O   0  5  0  0  0  0  0  0  0  0  0  0
   15.4944   11.3621   31.2945 O   0  0  0  0  0  0  0  0  0  0  0  0
   14.7134  -12.4035   19.3430 O   0  5  0  0  0  0  0  0  0  0  0  0
   16.9052  -12.4385   19.4512 O   0  0  0  0  0  0  0  0  0  0  0  0
   16.0021    5.4629   19.6843 O   0  0  0  0  0  0  0  0  0  0  0  0
   14.0762    1.7450   17.9861 O   0  0  0  0  0  0  0  0  0  0  0  0
   17.0068    7.3704   19.8990 O   0  0  0  0  0  0  0  0  0  0  0  0
   16.0773    1.7734   18.9622 O   0  0  0  0  0  0  0  0  0  0  0  0
   14.9029    9.0139   24.9072 N   0  0  0  0  0  0  0  0  0  0  0  0
   21.1409   -4.2489   20.3464 N   0  0  0  0  0  0  0  0  0  0  0  0
   15.4870   11.9448   24.9087 N   0  0  0  0  0  0  0  0  0  0  0  0
   21.3557   -6.9887   19.3555 N   0  0  0  0  0  0  0  0  0  0  0  0
   15.8069   10.2833   21.2833 N   0  0  0  0  0  0  0  0  0  0  0  0
   20.4043   -0.8529   20.6005 N   0  0  0  0  0  0  0  0  0  0  0  0
   16.6504   14.8892   26.2829 N   0  0  0  0  0  0  0  0  0  0  0  0
   18.3668   -7.0261   21.6560 N   0  0  0  0  0  0  0  0  0  0  0  0
   15.8418    9.0995   18.4036 N   0  0  0  0  0  0  0  0  0  0  0  0
   17.6995    0.4206   19.7259 N   0  0  0  0  0  0  0  0  0  0  0  0
   15.9494   12.4165   31.7637 N   0  3  0  0  0  0  0  0  0  0  0  0
   15.8150  -11.8473   19.4196 N   0  3  0  0  0  0  0  0  0  0  0  0
   16.9046    6.3826   17.7954 N   0  0  0  0  0  0  0  0  0  0  0  0
   14.4861    0.4227   19.8488 N   0  0  0  0  0  0  0  0  0  0  0  0
   14.9883    5.1031   16.7358 N   0  0  0  0  0  0  0  0  0  0  0  0
   14.1913    9.9440   25.8472 C   0  0  0  0  0  0  0  0  0  0  0  0
   16.2678    9.5462   24.7319 C   0  0  0  0  0  0  0  0  0  0  0  0
   22.3796   -5.0199   20.5845 C   0  0  0  0  0  0  0  0  0  0  0  0
   20.0127   -5.0333   19.8195 C   0  0  0  0  0  0  0  0  0  0  0  0
   14.1733   11.4478   25.4498 C   0  0  0  0  0  0  0  0  0  0  0  0
   16.0506   10.8822   24.1372 C   0  0  0  0  0  0  0  0  0  0  0  0
   22.5800   -6.1563   19.5607 C   0  0  0  0  0  0  0  0  0  0  0  0
   20.3621   -5.9753   18.7337 C   0  0  0  0  0  0  0  0  0  0  0  0
   14.2025    8.8614   23.5576 C   0  0  0  0  0  0  0  0  0  0  0  0
   21.4193   -3.2700   19.2964 C   0  0  0  0  0  0  0  0  0  0  0  0
   16.7924   12.3465   25.3866 C   0  0  0  0  0  0  0  0  0  0  0  0
   21.1845   -7.7529   20.7199 C   0  0  0  0  0  0  0  0  0  0  0  0
   15.2630   17.9737   28.8725 C   0  0  3  0  0  0  0  0  0  0  0  0
   15.3983   17.7357   30.3924 C   0  0  3  0  0  0  0  0  0  0  0  0
   12.4030   -4.6421   19.0468 C   0  0  2  0  0  0  0  0  0  0  0  0
   11.6332   -5.5114   20.0600 C   0  0  1  0  0  0  0  0  0  0  0  0
   16.5807   17.6399   28.1874 C   0  0  3  0  0  0  0  0  0  0  0  0
   16.6519   18.4065   30.9515 C   0  0  3  0  0  0  0  0  0  0  0  0
   13.7537   -5.2823   18.7224 C   0  0  1  0  0  0  0  0  0  0  0  0
   12.4691   -5.7240   21.3219 C   0  0  2  0  0  0  0  0  0  0  0  0
   17.8892   17.8285   30.2355 C   0  0  3  0  0  0  0  0  0  0  0  0
   13.7734   -6.3439   20.8789 C   0  0  2  0  0  0  0  0  0  0  0  0
   13.7045   10.0560   22.5490 C   0  0  0  0  0  0  0  0  0  0  0  0
   20.1272   -2.5857   18.9120 C   0  0  0  0  0  0  0  0  0  0  0  0
   17.2109   13.5043   24.4669 C   0  0  0  0  0  0  0  0  0  0  0  0
   20.7765   -7.1712   22.1265 C   0  0  0  0  0  0  0  0  0  0  0  0
   16.6431   17.7823   26.6704 C   0  0  0  0  0  0  0  0  0  0  0  0
   14.7223   11.0550   21.8420 C   0  0  0  0  0  0  0  0  0  0  0  0
   19.5547   -1.9414   20.1497 C   0  0  0  0  0  0  0  0  0  0  0  0
   14.5813   -4.4074   17.7676 C   0  0  0  0  0  0  0  0  0  0  0  0
   16.4175   14.7280   24.8547 C   0  0  0  0  0  0  0  0  0  0  0  0
   19.5084   -6.3257   22.2657 C   0  0  0  0  0  0  0  0  0  0  0  0
   17.5865   15.4000   30.2865 C   0  0  0  0  0  0  0  0  0  0  0  0
   14.6827   -8.3353   20.0711 C   0  0  0  0  0  0  0  0  0  0  0  0
   16.3152   10.7091   20.1715 C   0  0  0  0  0  0  0  0  0  0  0  0
   19.9960    0.3813   20.5299 C   0  0  0  0  0  0  0  0  0  0  0  0
   17.5515   14.9799   28.9701 C   0  0  0  0  0  0  0  0  0  0  0  0
   15.8983   -7.7481   20.3381 C   0  0  0  0  0  0  0  0  0  0  0  0
   16.5161   14.1348   28.5748 C   0  0  0  0  0  0  0  0  0  0  0  0
   17.0357   -8.4744   20.2446 C   0  0  0  0  0  0  0  0  0  0  0  0
   16.2960   10.2156   18.9116 C   0  0  0  0  0  0  0  0  0  0  0  0
   18.8156    0.9440   20.1656 C   0  0  0  0  0  0  0  0  0  0  0  0
   16.0392   14.2393   27.1931 C   0  0  0  0  0  0  0  0  0  0  0  0
   18.2155   -7.7461   20.6053 C   0  0  0  0  0  0  0  0  0  0  0  0
   16.9248   14.6377   31.2425 C   0  0  0  0  0  0  0  0  0  0  0  0
   14.6319   -9.6631   19.6455 C   0  0  0  0  0  0  0  0  0  0  0  0
   16.7234   12.0390   19.7208 C   0  0  0  0  0  0  0  0  0  0  0  0
   20.6361    1.6862   20.7462 C   0  0  0  0  0  0  0  0  0  0  0  0
   16.8124   11.4723   18.3683 C   0  0  0  0  0  0  0  0  0  0  0  0
   19.3760    2.3111   20.2591 C   0  0  0  0  0  0  0  0  0  0  0  0
   16.2220   13.4988   30.8294 C   0  0  0  0  0  0  0  0  0  0  0  0
   15.9081   13.3019   29.4969 C   0  0  0  0  0  0  0  0  0  0  0  0
   15.8287  -10.3938   19.5578 C   0  0  0  0  0  0  0  0  0  0  0  0
   17.0488   -9.7825   19.7847 C   0  0  0  0  0  0  0  0  0  0  0  0
   16.1515    8.6353   17.0733 C   0  0  0  0  0  0  0  0  0  0  0  0
   16.8044   -0.4807   20.4686 C   0  0  0  0  0  0  0  0  0  0  0  0
   17.2690    7.5733   17.0512 C   0  0  0  0  0  0  0  0  0  0  0  0
   15.4641    0.1154   20.9232 C   0  0  0  0  0  0  0  0  0  0  0  0
   16.7337    6.3833   19.0519 C   0  0  0  0  0  0  0  0  0  0  0  0
   14.8541    1.2718   18.9701 C   0  0  0  0  0  0  0  0  0  0  0  0
   14.6965    4.1938   17.8377 C   0  0  3  0  0  0  0  0  0  0  0  0
   15.8049    4.2589   18.9490 C   0  0  0  0  0  0  0  0  0  0  0  0
   14.5397    2.8140   17.1349 C   0  0  0  0  0  0  0  0  0  0  0  0
   15.6138   19.8619   28.4845 H   0  0  0  0  0  0  0  0  0  0  0  0
   14.1651   19.1334   30.8229 H   0  0  0  0  0  0  0  0  0  0  0  0
   13.3170   -3.4053   20.2994 H   0  0  0  0  0  0  0  0  0  0  0  0
   10.6643   -4.0079   20.7941 H   0  0  0  0  0  0  0  0  0  0  0  0
   16.9594   19.9749   29.8156 H   0  0  0  0  0  0  0  0  0  0  0  0
   11.0254   -6.9049   21.9206 H   0  0  0  0  0  0  0  0  0  0  0  0
   18.6179   17.7342   26.6141 H   0  0  0  0  0  0  0  0  0  0  0  0
   16.2968   -5.1792   18.2626 H   0  0  0  0  0  0  0  0  0  0  0  0
   15.1581   12.5548   27.2321 H   0  0  0  0  0  0  0  0  0  0  0  0
   19.7804   -7.7830   19.3417 H   0  0  0  0  0  0  0  0  0  0  0  0
   16.6129    7.1419   20.7536 H   0  0  0  0  0  0  0  0  0  0  0  0
   16.3807    2.1975   18.1539 H   0  0  0  0  0  0  0  0  0  0  0  0
   16.1107    9.4320   21.7518 H   0  0  0  0  0  0  0  0  0  0  0  0
   21.3278   -1.1224   20.9258 H   0  0  0  0  0  0  0  0  0  0  0  0
   15.6459    8.3477   19.0635 H   0  0  0  0  0  0  0  0  0  0  0  0
   17.1860    0.8846   18.9984 H   0  0  0  0  0  0  0  0  0  0  0  0
   14.1967    5.3234   16.1454 H   0  0  0  0  0  0  0  0  0  0  0  0
   15.3400    5.9762   17.1353 H   0  0  0  0  0  0  0  0  0  0  0  0
   13.1853    9.5528   26.0324 H   0  0  0  0  0  0  0  0  0  0  0  0
   14.7091    9.9364   26.8152 H   0  0  0  0  0  0  0  0  0  0  0  0
   16.8480    9.6293   25.6580 H   0  0  0  0  0  0  0  0  0  0  0  0
   16.8648    9.0031   23.9958 H   0  0  0  0  0  0  0  0  0  0  0  0
   23.2584   -4.3650   20.6069 H   0  0  0  0  0  0  0  0  0  0  0  0
   22.3998   -5.3862   21.6072 H   0  0  0  0  0  0  0  0  0  0  0  0
   19.6685   -5.8118   20.4097 H   0  0  0  0  0  0  0  0  0  0  0  0
   19.0401   -4.5163   19.8317 H   0  0  0  0  0  0  0  0  0  0  0  0
   13.4151   11.5558   24.6544 H   0  0  0  0  0  0  0  0  0  0  0  0
   13.6174   12.0455   26.1865 H   0  0  0  0  0  0  0  0  0  0  0  0
   15.1780   10.7319   23.6423 H   0  0  0  0  0  0  0  0  0  0  0  0
   16.8294   11.1745   23.4263 H   0  0  0  0  0  0  0  0  0  0  0  0
   22.8530   -5.6992   18.6034 H   0  0  0  0  0  0  0  0  0  0  0  0
   23.4214   -6.7968   19.8323 H   0  0  0  0  0  0  0  0  0  0  0  0
   20.7372   -5.4593   17.8450 H   0  0  0  0  0  0  0  0  0  0  0  0
   19.4042   -6.3606   18.3510 H   0  0  0  0  0  0  0  0  0  0  0  0
   14.8417    8.1903   22.9670 H   0  0  0  0  0  0  0  0  0  0  0  0
   13.3073    8.2789   23.7925 H   0  0  0  0  0  0  0  0  0  0  0  0
   21.8422   -3.7497   18.4150 H   0  0  0  0  0  0  0  0  0  0  0  0
   22.1558   -2.5525   19.6607 H   0  0  0  0  0  0  0  0  0  0  0  0
   17.6132   11.6294   25.2221 H   0  0  0  0  0  0  0  0  0  0  0  0
   16.9191   12.3958   26.4548 H   0  0  0  0  0  0  0  0  0  0  0  0
   20.5542   -8.6484   20.6126 H   0  0  0  0  0  0  0  0  0  0  0  0
   22.1243   -8.3082   20.8407 H   0  0  0  0  0  0  0  0  0  0  0  0
   14.4890   17.2920   28.4972 H   0  0  0  0  0  0  0  0  0  0  0  0
   15.4444   16.6669   30.5978 H   0  0  0  0  0  0  0  0  0  0  0  0
   11.8139   -4.4964   18.1384 H   0  0  0  0  0  0  0  0  0  0  0  0
   11.3786   -6.4760   19.6043 H   0  0  0  0  0  0  0  0  0  0  0  0
   16.5307   16.5987   28.3113 H   0  0  0  0  0  0  0  0  0  0  0  0
   16.7157   18.2845   32.0373 H   0  0  0  0  0  0  0  0  0  0  0  0
   13.6381   -6.2693   18.2552 H   0  0  0  0  0  0  0  0  0  0  0  0
   12.6882   -4.7627   21.7998 H   0  0  0  0  0  0  0  0  0  0  0  0
   18.7333   18.4547   30.5609 H   0  0  0  0  0  0  0  0  0  0  0  0
   14.3719   -6.4658   21.7964 H   0  0  0  0  0  0  0  0  0  0  0  0
   13.1377    9.5848   21.7430 H   0  0  0  0  0  0  0  0  0  0  0  0
   12.9683   10.6532   23.0832 H   0  0  0  0  0  0  0  0  0  0  0  0
   19.3712   -3.2705   18.4939 H   0  0  0  0  0  0  0  0  0  0  0  0
   20.2845   -1.8928   18.0894 H   0  0  0  0  0  0  0  0  0  0  0  0
   17.0629   13.2992   23.3897 H   0  0  0  0  0  0  0  0  0  0  0  0
   18.2929   13.6399   24.5713 H   0  0  0  0  0  0  0  0  0  0  0  0
   20.6062   -8.0190   22.7973 H   0  0  0  0  0  0  0  0  0  0  0  0
   21.6338   -6.6811   22.5808 H   0  0  0  0  0  0  0  0  0  0  0  0
   15.8386   17.1743   26.2417 H   0  0  0  0  0  0  0  0  0  0  0  0
   16.5087   18.8059   26.3414 H   0  0  0  0  0  0  0  0  0  0  0  0
   14.2009   11.8153   21.2542 H   0  0  0  0  0  0  0  0  0  0  0  0
   15.2639   11.8381   22.3902 H   0  0  0  0  0  0  0  0  0  0  0  0
   19.3329   -2.5955   21.0023 H   0  0  0  0  0  0  0  0  0  0  0  0
   18.5840   -1.6539   19.7882 H   0  0  0  0  0  0  0  0  0  0  0  0
   14.0306   -4.2458   16.8355 H   0  0  0  0  0  0  0  0  0  0  0  0
   14.8219   -3.4366   18.2096 H   0  0  0  0  0  0  0  0  0  0  0  0
   15.3636   14.6475   24.5623 H   0  0  0  0  0  0  0  0  0  0  0  0
   16.8365   15.5689   24.2862 H   0  0  0  0  0  0  0  0  0  0  0  0
   19.2669   -6.0280   23.2937 H   0  0  0  0  0  0  0  0  0  0  0  0
   19.6704   -5.2747   21.9808 H   0  0  0  0  0  0  0  0  0  0  0  0
   18.1154   15.5138   28.2023 H   0  0  0  0  0  0  0  0  0  0  0  0
   16.0461   -6.7184   20.6395 H   0  0  0  0  0  0  0  0  0  0  0  0
   16.9624   14.9170   32.2903 H   0  0  0  0  0  0  0  0  0  0  0  0
   13.6764  -10.1285   19.4245 H   0  0  0  0  0  0  0  0  0  0  0  0
   15.2334   12.5030   29.2020 H   0  0  0  0  0  0  0  0  0  0  0  0
   17.9982  -10.2937   19.6393 H   0  0  0  0  0  0  0  0  0  0  0  0
   15.2192    8.2233   16.6710 H   0  0  0  0  0  0  0  0  0  0  0  0
   16.4427    9.4739   16.4418 H   0  0  0  0  0  0  0  0  0  0  0  0
   17.3290   -0.8489   21.3558 H   0  0  0  0  0  0  0  0  0  0  0  0
   16.5744   -1.3278   19.8114 H   0  0  0  0  0  0  0  0  0  0  0  0
   17.3537    7.2620   16.0010 H   0  0  0  0  0  0  0  0  0  0  0  0
   18.2420    7.9454   17.3678 H   0  0  0  0  0  0  0  0  0  0  0  0
   15.6155    0.9815   21.5770 H   0  0  0  0  0  0  0  0  0  0  0  0
   14.9904   -0.6595   21.5402 H   0  0  0  0  0  0  0  0  0  0  0  0
   13.7556    4.4762   18.3158 H   0  0  0  0  0  0  0  0  0  0  0  0
   16.7814    3.9612   18.5377 H   0  0  0  0  0  0  0  0  0  0  0  0
   15.5021    3.5963   19.7570 H   0  0  0  0  0  0  0  0  0  0  0  0
   13.7850    2.9038   16.3468 H   0  0  0  0  0  0  0  0  0  0  0  0
   15.4568    2.5099   16.6009 H   0  0  0  0  0  0  0  0  0  0  0  0
  1 58  1  0  0  0  0
  1 62  1  0  0  0  0
  2 60  1  0  0  0  0
  2 63  1  0  0  0  0
  3 62  1  0  0  0  0
  3 74  1  0  0  0  0
  4 54  1  0  0  0  0
  4105  1  0  0  0  0
  5 55  1  0  0  0  0
  5106  1  0  0  0  0
  6 75  1  0  0  0  0
  7107  1  0  0  0  0
  8108  1  0  0  0  0
  9 59  1  0  0  0  0
  9109  1  0  0  0  0
 10110  1  0  0  0  0
 11 68  1  0  0  0  0
 11111  1  0  0  0  0
 12 71  1  0  0  0  0
 12112  1  0  0  0  0
 13 84  1  0  0  0  0
 13113  1  0  0  0  0
 14 85  1  0  0  0  0
 14114  1  0  0  0  0
 15 88  2  0  0  0  0
 16 89  2  0  0  0  0
 17 90  2  0  0  0  0
 18 91  2  0  0  0  0
 19 37  1  0  0  0  0
 20 37  2  0  0  0  0
 21 38  1  0  0  0  0
 22 38  2  0  0  0  0
 23100  1  0  0  0  0
 23103  1  0  0  0  0
 24101  1  0  0  0  0
 24104  1  0  0  0  0
 25100  1  0  0  0  0
 25115  1  0  0  0  0
 26101  1  0  0  0  0
 26116  1  0  0  0  0
 27 42  1  0  0  0  0
 27 43  1  0  0  0  0
 27 50  1  0  0  0  0
 28 44  1  0  0  0  0
 28 45  1  0  0  0  0
 28 51  1  0  0  0  0
 29 46  1  0  0  0  0
 29 47  1  0  0  0  0
 29 52  1  0  0  0  0
 30 48  1  0  0  0  0
 30 49  1  0  0  0  0
 30 53  1  0  0  0  0
 31 69  1  0  0  0  0
 31 76  1  0  0  0  0
 31117  1  0  0  0  0
 32 70  1  0  0  0  0
 32 77  1  0  0  0  0
 32118  1  0  0  0  0
 33 72  1  0  0  0  0
 33 84  2  0  0  0  0
 34 73  1  0  0  0  0
 34 85  2  0  0  0  0
 35 82  1  0  0  0  0
 35 96  1  0  0  0  0
 35119  1  0  0  0  0
 36 83  1  0  0  0  0
 36 97  1  0  0  0  0
 36120  1  0  0  0  0
 37 92  1  0  0  0  0
 38 94  1  0  0  0  0
 39 98  1  0  0  0  0
 39100  2  0  0  0  0
 40 99  1  0  0  0  0
 40101  2  0  0  0  0
 41102  1  0  0  0  0
 41121  1  0  0  0  0
 41122  1  0  0  0  0
 42 46  1  0  0  0  0
 42123  1  0  0  0  0
 42124  1  0  0  0  0
 43 47  1  0  0  0  0
 43125  1  0  0  0  0
 43126  1  0  0  0  0
 44 48  1  0  0  0  0
 44127  1  0  0  0  0
 44128  1  0  0  0  0
 45 49  1  0  0  0  0
 45129  1  0  0  0  0
 45130  1  0  0  0  0
 46131  1  0  0  0  0
 46132  1  0  0  0  0
 47133  1  0  0  0  0
 47134  1  0  0  0  0
 48135  1  0  0  0  0
 48136  1  0  0  0  0
 49137  1  0  0  0  0
 49138  1  0  0  0  0
 50 64  1  0  0  0  0
 50139  1  0  0  0  0
 50140  1  0  0  0  0
 51 65  1  0  0  0  0
 51141  1  0  0  0  0
 51142  1  0  0  0  0
 52 66  1  0  0  0  0
 52143  1  0  0  0  0
 52144  1  0  0  0  0
 53 67  1  0  0  0  0
 53145  1  0  0  0  0
 53146  1  0  0  0  0
 54 55  1  0  0  0  0
 54 58  1  0  0  0  0
 54147  1  0  0  0  0
 55 59  1  0  0  0  0
 55148  1  0  0  0  0
 56  7  1  0  0  0  0
 56 57  1  0  0  0  0
 56 60  1  0  0  0  0
 56149  1  6  0  0  0
 57  8  1  0  0  0  0
 57 61  1  0  0  0  0
 57150  1  6  0  0  0
 58 68  1  0  0  0  0
 58151  1  0  0  0  0
 59 62  1  0  0  0  0
 59152  1  0  0  0  0
 60 71  1  0  0  0  0
 60153  1  6  0  0  0
 61 63  1  0  0  0  0
 61154  1  1  0  0  0
 61 10  1  0  0  0  0
 62155  1  0  0  0  0
 63156  1  1  0  0  0
 63  6  1  0  0  0  0
 64 69  1  0  0  0  0
 64157  1  0  0  0  0
 64158  1  0  0  0  0
 65 70  1  0  0  0  0
 65159  1  0  0  0  0
 65160  1  0  0  0  0
 66 72  1  0  0  0  0
 66161  1  0  0  0  0
 66162  1  0  0  0  0
 67 73  1  0  0  0  0
 67163  1  0  0  0  0
 67164  1  0  0  0  0
 68165  1  0  0  0  0
 68166  1  0  0  0  0
 69167  1  0  0  0  0
 69168  1  0  0  0  0
 70169  1  0  0  0  0
 70170  1  0  0  0  0
 71171  1  0  0  0  0
 71172  1  0  0  0  0
 72173  1  0  0  0  0
 72174  1  0  0  0  0
 73175  1  0  0  0  0
 73176  1  0  0  0  0
 74 78  2  0  0  0  0
 74 86  1  0  0  0  0
 75 79  2  0  0  0  0
 75 87  1  0  0  0  0
 76 82  2  0  0  0  0
 76 88  1  0  0  0  0
 77 83  2  0  0  0  0
 77 89  1  0  0  0  0
 78 80  1  0  0  0  0
 78177  1  0  0  0  0
 79 81  1  0  0  0  0
 79178  1  0  0  0  0
 80 84  1  0  0  0  0
 80 93  2  0  0  0  0
 81 85  1  0  0  0  0
 81 95  2  0  0  0  0
 82 90  1  0  0  0  0
 83 91  1  0  0  0  0
 86 92  2  0  0  0  0
 86179  1  0  0  0  0
 87 94  2  0  0  0  0
 87180  1  0  0  0  0
 88 90  1  0  0  0  0
 89 91  1  0  0  0  0
 92 93  1  0  0  0  0
 93181  1  0  0  0  0
 94 95  1  0  0  0  0
 95182  1  0  0  0  0
 96 98  1  0  0  0  0
 96183  1  0  0  0  0
 96184  1  0  0  0  0
 97 99  1  0  0  0  0
 97185  1  0  0  0  0
 97186  1  0  0  0  0
 98187  1  0  0  0  0
 98188  1  0  0  0  0
 99189  1  0  0  0  0
 99190  1  0  0  0  0
102103  1  0  0  0  0
102104  1  0  0  0  0
102191  1  0  0  0  0
103192  1  0  0  0  0
103193  1  0  0  0  0
104194  1  0  0  0  0
104195  1  0  0  0  0
M  CHG  4  19  -1  21  -1  37   1  38   1
M  END
>  <DRUGBANK_ID>
DB02903

>  <SECONDARY_ACCESSION_NUMBERS>
EXPT00781

>  <COMMON_NAME>
1,3-bis-([[3-(4-{3-[3-nitro-5-(galactopyranosyloxy)-benzoylamino]-propyl}-piperazin-1-yl)-propylamino-3,4-dioxo-cyclobutenyl]-amino-ethyl]-amino-carbonyloxy)-2-amino-propane

$$$$
