
 OpenBabel10282417193D

 54 57  0  0  0  0  0  0  0  0999 V2000
   -0.9601   -0.2712    1.4001 N   0  0  0  0  0  0  0  0  0  0  0  0
   -1.7074   -0.5475    0.1620 C   0  0  0  0  0  0  0  0  0  0  0  0
   -1.1075   -0.0023   -1.1511 C   0  0  0  0  0  0  0  0  0  0  0  0
    0.2297   -0.3981   -1.4384 O   0  0  0  0  0  0  0  0  0  0  0  0
    0.4062   -0.8041    1.3603 C   0  0  2  0  0  0  0  0  0  0  0  0
    0.5675   -2.3014    1.1902 C   0  0  0  0  0  0  0  0  0  0  0  0
    1.6847   -2.7415    1.9021 C   0  0  0  0  0  0  0  0  0  0  0  0
    2.3831   -1.5839    2.5634 C   0  0  0  0  0  0  0  0  0  0  0  0
    1.2741   -0.5145    2.6021 C   0  0  0  0  0  0  0  0  0  0  0  0
    2.0468   -4.0919    1.8789 C   0  0  0  0  0  0  0  0  0  0  0  0
    1.2432   -5.0143    1.1895 C   0  0  0  0  0  0  0  0  0  0  0  0
    0.1470   -4.5831    0.4654 C   0  0  0  0  0  0  0  0  0  0  0  0
   -0.1390   -3.2284    0.4150 C   0  0  0  0  0  0  0  0  0  0  0  0
    3.2015   -4.5719    2.5925 C   0  0  0  0  0  0  0  0  0  0  0  0
    3.3350   -4.3613    3.9357 N   0  0  0  0  0  0  0  0  0  0  0  0
    4.4970   -4.9105    4.1814 C   0  0  0  0  0  0  0  0  0  0  0  0
    5.0737   -5.4984    3.0997 O   0  0  0  0  0  0  0  0  0  0  0  0
    4.1984   -5.2755    2.0310 N   0  0  0  0  0  0  0  0  0  0  0  0
    5.1250   -5.0989    5.4610 C   0  0  0  0  0  0  0  0  0  0  0  0
    4.3695   -5.7425    6.4315 C   0  0  0  0  0  0  0  0  0  0  0  0
    4.8479   -5.9356    7.7180 C   0  0  0  0  0  0  0  0  0  0  0  0
    3.9228   -6.6891    8.5168 C   0  0  0  0  0  0  0  0  0  0  0  0
    3.1865   -7.3139    9.1815 N   0  0  0  0  0  0  0  0  0  0  0  0
    6.1138   -5.4138    8.0747 C   0  0  0  0  0  0  0  0  0  0  0  0
    6.8731   -4.7458    7.0896 C   0  0  0  0  0  0  0  0  0  0  0  0
    6.3888   -4.6082    5.7824 C   0  0  0  0  0  0  0  0  0  0  0  0
    6.7523   -5.4555    9.2909 O   0  0  0  0  0  0  0  0  0  0  0  0
    6.1194   -6.1024   10.4021 C   0  0  0  0  0  0  0  0  0  0  0  0
    4.8652   -5.3172   10.8413 C   0  0  0  0  0  0  0  0  0  0  0  0
    6.0482   -7.6239   10.1604 C   0  0  0  0  0  0  0  0  0  0  0  0
   -0.9389    0.7377    1.5383 H   0  0  0  0  0  0  0  0  0  0  0  0
   -1.8830   -1.6075    0.0898 H   0  0  0  0  0  0  0  0  0  0  0  0
   -2.7424   -0.2020    0.2586 H   0  0  0  0  0  0  0  0  0  0  0  0
   -1.6938   -0.3787   -1.9908 H   0  0  0  0  0  0  0  0  0  0  0  0
   -1.1515    1.0887   -1.1420 H   0  0  0  0  0  0  0  0  0  0  0  0
    0.8255    0.2605   -1.0418 H   0  0  0  0  0  0  0  0  0  0  0  0
    0.9774   -0.2709    0.6144 H   0  0  0  0  0  0  0  0  0  0  0  0
    3.2356   -1.2545    1.9532 H   0  0  0  0  0  0  0  0  0  0  0  0
    2.7286   -1.8129    3.5721 H   0  0  0  0  0  0  0  0  0  0  0  0
    0.7008   -0.5822    3.5325 H   0  0  0  0  0  0  0  0  0  0  0  0
    1.7051    0.4969    2.5571 H   0  0  0  0  0  0  0  0  0  0  0  0
    1.4631   -6.0771    1.2044 H   0  0  0  0  0  0  0  0  0  0  0  0
   -0.4903   -5.2758   -0.0784 H   0  0  0  0  0  0  0  0  0  0  0  0
   -0.9302   -2.9969   -0.2785 H   0  0  0  0  0  0  0  0  0  0  0  0
    3.3721   -6.1129    6.1925 H   0  0  0  0  0  0  0  0  0  0  0  0
    7.8491   -4.3216    7.3363 H   0  0  0  0  0  0  0  0  0  0  0  0
    6.9827   -4.0891    5.0328 H   0  0  0  0  0  0  0  0  0  0  0  0
    6.8044   -6.0029   11.2554 H   0  0  0  0  0  0  0  0  0  0  0  0
    4.1757   -5.0487   10.0409 H   0  0  0  0  0  0  0  0  0  0  0  0
    4.2961   -5.8494   11.6055 H   0  0  0  0  0  0  0  0  0  0  0  0
    5.1421   -4.3200   11.1986 H   0  0  0  0  0  0  0  0  0  0  0  0
    7.0513   -8.0602   10.1255 H   0  0  0  0  0  0  0  0  0  0  0  0
    5.4402   -8.1277   10.9139 H   0  0  0  0  0  0  0  0  0  0  0  0
    5.6856   -7.9200    9.1757 H   0  0  0  0  0  0  0  0  0  0  0  0
  1  2  1  0  0  0  0
  1 31  1  0  0  0  0
  2  3  1  0  0  0  0
  2 32  1  0  0  0  0
  2 33  1  0  0  0  0
  3  4  1  0  0  0  0
  3 34  1  0  0  0  0
  3 35  1  0  0  0  0
  4 36  1  0  0  0  0
  5  6  1  0  0  0  0
  5  9  1  0  0  0  0
  5 37  1  6  0  0  0
  5  1  1  0  0  0  0
  6  7  1  0  0  0  0
  6 13  2  0  0  0  0
  7  8  1  0  0  0  0
  7 10  2  0  0  0  0
  8 38  1  0  0  0  0
  8 39  1  0  0  0  0
  9  8  1  0  0  0  0
  9 40  1  0  0  0  0
  9 41  1  0  0  0  0
 10 11  1  0  0  0  0
 10 14  1  0  0  0  0
 11 42  1  0  0  0  0
 12 11  2  0  0  0  0
 12 43  1  0  0  0  0
 13 12  1  0  0  0  0
 13 44  1  0  0  0  0
 14 15  1  0  0  0  0
 14 18  2  0  0  0  0
 15 16  2  0  0  0  0
 16 17  1  0  0  0  0
 16 19  1  0  0  0  0
 18 17  1  0  0  0  0
 19 20  2  0  0  0  0
 19 26  1  0  0  0  0
 20 21  1  0  0  0  0
 20 45  1  0  0  0  0
 21 22  1  0  0  0  0
 21 24  2  0  0  0  0
 22 23  3  0  0  0  0
 24 27  1  0  0  0  0
 25 24  1  0  0  0  0
 25 46  1  0  0  0  0
 26 25  2  0  0  0  0
 26 47  1  0  0  0  0
 27 28  1  0  0  0  0
 28 29  1  0  0  0  0
 28 30  1  0  0  0  0
 28 48  1  0  0  0  0
 29 49  1  0  0  0  0
 29 50  1  0  0  0  0
 29 51  1  0  0  0  0
 30 52  1  0  0  0  0
 30 53  1  0  0  0  0
 30 54  1  0  0  0  0
M  END
>  <DRUGBANK_ID>
DB12612

>  <COMMON_NAME>
Ozanimod

>  <CAS_NUMBER>
1306760-87-1

>  <UNII>
Z80293URPV

>  <SYNONYMS>
Ozanimod; Ozanimodum

$$$$
