
 OpenBabel10282417183D

 53 55  0  0  1  0  0  0  0  0999 V2000
    4.1337    0.1623   -3.5713 C   0  0  0  0  0  0  0  0  0  0  0  0
    2.7003    0.7120   -3.5375 C   0  0  0  0  0  0  0  0  0  0  0  0
    1.9601    0.2063   -2.2814 C   0  0  0  0  0  0  0  0  0  0  0  0
    2.7300    2.2436   -3.6479 C   0  0  0  0  0  0  0  0  0  0  0  0
    2.3349    2.8666   -4.6336 O   0  0  0  0  0  0  0  0  0  0  0  0
    3.1653    2.9981   -2.6054 N   0  0  0  0  0  0  0  0  0  0  0  0
    3.8807    2.5731   -1.4138 C   0  0  0  0  0  0  0  0  0  0  0  0
    5.3538    2.9315   -1.3890 C   0  0  0  0  0  0  0  0  0  0  0  0
    5.4927    4.4304   -1.2721 C   0  0  0  0  0  0  0  0  0  0  0  0
    4.8599    4.8837   -0.1609 F   0  0  0  0  0  0  0  0  0  0  0  0
    6.7794    4.8253   -1.2056 F   0  0  0  0  0  0  0  0  0  0  0  0
    4.9203    5.0643   -2.3272 F   0  0  0  0  0  0  0  0  0  0  0  0
    5.9247    2.2840   -0.3349 F   0  0  0  0  0  0  0  0  0  0  0  0
    5.9692    2.4513   -2.5030 F   0  0  0  0  0  0  0  0  0  0  0  0
    1.9855    0.1218   -4.7414 C   0  0  0  0  0  0  0  0  0  0  0  0
    2.5261   -0.6770   -5.5224 O   0  0  0  0  0  0  0  0  0  0  0  0
    0.6947    0.4202   -4.9755 N   0  0  0  0  0  0  0  0  0  0  0  0
   -0.2620    1.2823   -4.2632 C   0  0  1  0  0  0  0  0  0  0  0  0
   -0.9797    2.2155   -5.2100 C   0  0  0  0  0  0  0  0  0  0  0  0
   -0.9511    3.6006   -4.9791 C   0  0  0  0  0  0  0  0  0  0  0  0
   -1.6338    4.4569   -5.8329 C   0  0  0  0  0  0  0  0  0  0  0  0
   -2.3425    3.9372   -6.9130 C   0  0  0  0  0  0  0  0  0  0  0  0
   -2.3783    2.5623   -7.1417 C   0  0  0  0  0  0  0  0  0  0  0  0
   -1.7106    1.6808   -6.2922 C   0  0  0  0  0  0  0  0  0  0  0  0
   -1.7639    0.2254   -6.5193 C   0  0  0  0  0  0  0  0  0  0  0  0
   -1.3876   -0.3074   -7.7628 C   0  0  0  0  0  0  0  0  0  0  0  0
   -1.3049   -1.6864   -7.9548 C   0  0  0  0  0  0  0  0  0  0  0  0
   -1.5857   -2.5575   -6.9040 C   0  0  0  0  0  0  0  0  0  0  0  0
   -1.9609   -2.0551   -5.6588 C   0  0  0  0  0  0  0  0  0  0  0  0
   -2.0484   -0.6730   -5.4674 C   0  0  0  0  0  0  0  0  0  0  0  0
   -2.2909   -0.2075   -4.1613 N   0  0  0  0  0  0  0  0  0  0  0  0
   -1.3074    0.4589   -3.4613 C   0  0  0  0  0  0  0  0  0  0  0  0
   -1.2702    0.3369   -2.2332 O   0  0  0  0  0  0  0  0  0  0  0  0
    4.7538    0.4953   -2.7448 H   0  0  0  0  0  0  0  0  0  0  0  0
    4.6481    0.4696   -4.4897 H   0  0  0  0  0  0  0  0  0  0  0  0
    4.1298   -0.9314   -3.5248 H   0  0  0  0  0  0  0  0  0  0  0  0
    2.3722    0.5006   -1.3220 H   0  0  0  0  0  0  0  0  0  0  0  0
    0.9628    0.6145   -2.2108 H   0  0  0  0  0  0  0  0  0  0  0  0
    1.8786   -0.8832   -2.2721 H   0  0  0  0  0  0  0  0  0  0  0  0
    3.1174    3.9933   -2.8234 H   0  0  0  0  0  0  0  0  0  0  0  0
    3.3307    2.9523   -0.5489 H   0  0  0  0  0  0  0  0  0  0  0  0
    3.8695    1.4986   -1.3128 H   0  0  0  0  0  0  0  0  0  0  0  0
    0.3868   -0.0462   -5.8162 H   0  0  0  0  0  0  0  0  0  0  0  0
    0.2651    1.9047   -3.5387 H   0  0  0  0  0  0  0  0  0  0  0  0
   -0.3905    4.0164   -4.1427 H   0  0  0  0  0  0  0  0  0  0  0  0
   -1.6059    5.5290   -5.6613 H   0  0  0  0  0  0  0  0  0  0  0  0
   -2.8724    4.6025   -7.5863 H   0  0  0  0  0  0  0  0  0  0  0  0
   -2.9412    2.1717   -7.9846 H   0  0  0  0  0  0  0  0  0  0  0  0
   -1.0970    0.3575   -8.5747 H   0  0  0  0  0  0  0  0  0  0  0  0
   -0.9929   -2.0773   -8.9203 H   0  0  0  0  0  0  0  0  0  0  0  0
   -1.4833   -3.6300   -7.0507 H   0  0  0  0  0  0  0  0  0  0  0  0
   -2.0904   -2.7432   -4.8262 H   0  0  0  0  0  0  0  0  0  0  0  0
   -2.8820   -0.7545   -3.5513 H   0  0  0  0  0  0  0  0  0  0  0  0
  1  2  1  0  0  0  0
  1 34  1  0  0  0  0
  1 35  1  0  0  0  0
  1 36  1  0  0  0  0
  2  3  1  0  0  0  0
  2  4  1  0  0  0  0
  2 15  1  0  0  0  0
  3 37  1  0  0  0  0
  3 38  1  0  0  0  0
  3 39  1  0  0  0  0
  4  5  2  0  0  0  0
  4  6  1  0  0  0  0
  6  7  1  0  0  0  0
  6 40  1  0  0  0  0
  7  8  1  0  0  0  0
  7 41  1  0  0  0  0
  7 42  1  0  0  0  0
  8  9  1  0  0  0  0
  8 13  1  0  0  0  0
  8 14  1  0  0  0  0
  9 10  1  0  0  0  0
  9 11  1  0  0  0  0
  9 12  1  0  0  0  0
 15 16  2  0  0  0  0
 15 17  1  0  0  0  0
 17 43  1  0  0  0  0
 18 19  1  0  0  0  0
 18 32  1  0  0  0  0
 18 44  1  1  0  0  0
 18 17  1  0  0  0  0
 19 20  2  0  0  0  0
 19 24  1  0  0  0  0
 20 21  1  0  0  0  0
 20 45  1  0  0  0  0
 21 22  2  0  0  0  0
 21 46  1  0  0  0  0
 22 23  1  0  0  0  0
 22 47  1  0  0  0  0
 23 24  2  0  0  0  0
 23 48  1  0  0  0  0
 24 25  1  0  0  0  0
 25 26  2  0  0  0  0
 25 30  1  0  0  0  0
 26 27  1  0  0  0  0
 26 49  1  0  0  0  0
 27 28  2  0  0  0  0
 27 50  1  0  0  0  0
 28 29  1  0  0  0  0
 28 51  1  0  0  0  0
 29 30  2  0  0  0  0
 29 52  1  0  0  0  0
 30 31  1  0  0  0  0
 31 32  1  0  0  0  0
 31 53  1  0  0  0  0
 32 33  2  0  0  0  0
M  END
>  <DRUGBANK_ID>
DB11870

>  <COMMON_NAME>
RG-4733

>  <CAS_NUMBER>
847925-91-1

>  <UNII>
KK8645V7LE

$$$$
