
 OpenBabel10282417213D

 39 42  0  0  0  0  0  0  0  0999 V2000
   -1.7619    0.0311   -0.3812 C   0  0  2  0  0  0  0  0  0  0  0  0
   -1.0044    1.3336   -0.1087 C   0  0  0  0  0  0  0  0  0  0  0  0
    0.4095   -0.0268    1.3506 N   0  0  0  0  0  0  0  0  0  0  0  0
   -1.0542   -1.3016   -0.1033 C   0  0  0  0  0  0  0  0  0  0  0  0
    1.3441    0.7572   -0.6715 C   0  0  0  0  0  0  0  0  0  0  0  0
    1.3147   -0.7698   -0.7048 C   0  0  0  0  0  0  0  0  0  0  0  0
    0.5763   -0.0433    2.7249 C   0  0  0  0  0  0  0  0  0  0  0  0
   -0.3784    0.5876    3.5451 C   0  0  0  0  0  0  0  0  0  0  0  0
   -0.3049    0.5630    4.9510 C   0  0  0  0  0  0  0  0  0  0  0  0
    0.7523   -0.0765    5.5999 C   0  0  0  0  0  0  0  0  0  0  0  0
    0.7841   -0.0857    7.0456 C   0  0  0  0  0  0  0  0  0  0  0  0
    0.8355   -0.1142    8.2014 N   0  0  0  0  0  0  0  0  0  0  0  0
   -2.1854    0.0605   -1.7498 O   0  0  0  0  0  0  0  0  0  0  0  0
    1.6655   -0.6867    3.4034 C   0  0  0  0  0  0  0  0  0  0  0  0
    1.7601   -0.6986    4.8384 C   0  0  0  0  0  0  0  0  0  0  0  0
    2.8696   -1.3269    5.4630 C   0  0  0  0  0  0  0  0  0  0  0  0
    3.8750   -1.9356    4.7221 C   0  0  0  0  0  0  0  0  0  0  0  0
    3.7962   -1.9262    3.3422 C   0  0  0  0  0  0  0  0  0  0  0  0
    2.7197   -1.3048    2.7054 C   0  0  0  0  0  0  0  0  0  0  0  0
    0.3738   -1.1773    0.4459 C   0  0  1  0  0  0  0  0  0  0  0  0
    0.6766   -2.1293    0.8928 H   0  0  0  0  0  0  0  0  0  0  0  0
    0.3954    1.1554    0.4834 C   0  0  1  0  0  0  0  0  0  0  0  0
    0.7342    2.0802    0.9622 H   0  0  0  0  0  0  0  0  0  0  0  0
   -2.6753    0.0550    0.2262 H   0  0  0  0  0  0  0  0  0  0  0  0
   -0.9434    1.9280   -1.0313 H   0  0  0  0  0  0  0  0  0  0  0  0
   -1.6074    1.9318    0.5828 H   0  0  0  0  0  0  0  0  0  0  0  0
   -1.6534   -1.8393    0.6407 H   0  0  0  0  0  0  0  0  0  0  0  0
   -1.0554   -1.9288   -1.0045 H   0  0  0  0  0  0  0  0  0  0  0  0
    1.0434    1.1765   -1.6403 H   0  0  0  0  0  0  0  0  0  0  0  0
    2.3638    1.1085   -0.4812 H   0  0  0  0  0  0  0  0  0  0  0  0
    0.9827   -1.1485   -1.6791 H   0  0  0  0  0  0  0  0  0  0  0  0
    2.3260   -1.1600   -0.5507 H   0  0  0  0  0  0  0  0  0  0  0  0
   -1.2368    1.0790    3.0931 H   0  0  0  0  0  0  0  0  0  0  0  0
   -1.0874    1.0412    5.5401 H   0  0  0  0  0  0  0  0  0  0  0  0
   -3.0438   -0.3935   -1.8012 H   0  0  0  0  0  0  0  0  0  0  0  0
    2.9763   -1.3476    6.5486 H   0  0  0  0  0  0  0  0  0  0  0  0
    4.7164   -2.4061    5.2235 H   0  0  0  0  0  0  0  0  0  0  0  0
    4.5741   -2.3937    2.7464 H   0  0  0  0  0  0  0  0  0  0  0  0
    2.7269   -1.2954    1.6242 H   0  0  0  0  0  0  0  0  0  0  0  0
  1  2  1  0  0  0  0
  1 24  1  1  0  0  0
  1 13  1  0  0  0  0
  2 22  1  0  0  0  0
  2 25  1  0  0  0  0
  2 26  1  0  0  0  0
  3 20  1  0  0  0  0
  3  7  1  0  0  0  0
  4  1  1  0  0  0  0
  4 27  1  0  0  0  0
  4 28  1  0  0  0  0
  5  6  1  0  0  0  0
  5 29  1  0  0  0  0
  5 30  1  0  0  0  0
  6 31  1  0  0  0  0
  6 32  1  0  0  0  0
  7  8  2  0  0  0  0
  8  9  1  0  0  0  0
  8 33  1  0  0  0  0
  9 10  2  0  0  0  0
  9 34  1  0  0  0  0
 10 15  1  0  0  0  0
 10 11  1  0  0  0  0
 11 12  3  0  0  0  0
 13 35  1  0  0  0  0
 14  7  1  0  0  0  0
 14 15  1  0  0  0  0
 15 16  2  0  0  0  0
 16 17  1  0  0  0  0
 16 36  1  0  0  0  0
 17 18  2  0  0  0  0
 17 37  1  0  0  0  0
 18 19  1  0  0  0  0
 18 38  1  0  0  0  0
 19 14  2  0  0  0  0
 19 39  1  0  0  0  0
 20  4  1  0  0  0  0
 20  6  1  0  0  0  0
 20 21  1  1  0  0  0
 22  3  1  0  0  0  0
 22  5  1  0  0  0  0
 22 23  1  1  0  0  0
M  END
>  <DRUGBANK_ID>
DB13935

>  <COMMON_NAME>
AC-262536

>  <CAS_NUMBER>
870888-46-3

>  <UNII>
U8VS41J5O6

$$$$
