CMZ
 OpenBabel10282417163D

 42 43  0  0  0  0  0  0  0  0999 V2000
    3.3609   -0.2584   -0.0234 C   0  0  0  0  0  0  0  0  0  0  0  0
    1.8856   -0.3793   -0.0366 C   0  0  0  0  0  0  0  0  0  0  0  0
    1.3241    0.8395    0.0126 C   0  0  0  0  0  0  0  0  0  0  0  0
   -0.0100    0.7384    0.1827 C   0  0  0  0  0  0  0  0  0  0  0  0
   -0.6918   -0.5140   -0.0462 C   0  0  0  0  0  0  0  0  0  0  0  0
   -2.0038   -0.5500   -0.6559 C   0  0  0  0  0  0  0  0  0  0  0  0
   -0.2293   -1.7302    0.0771 C   0  0  0  0  0  0  0  0  0  0  0  0
   -1.0509   -2.8391    0.1802 O   0  0  0  0  0  0  0  0  0  0  0  0
   -2.5856   -2.8196    0.2662 C   0  0  0  0  0  0  0  0  0  0  0  0
   -3.3903   -1.8967    1.4412 C   0  0  1  0  0  0  0  0  0  0  0  0
   -2.8960   -2.4419    2.6804 O   0  0  0  0  0  0  0  0  0  0  0  0
   -3.4273   -0.1232    1.4573 C   0  0  0  0  0  0  0  0  0  0  0  0
   -4.0647    0.8036    0.1285 N   0  0  0  0  0  0  0  0  0  0  0  0
   -3.1595    1.5985   -1.0803 C   0  0  0  0  0  0  0  0  0  0  0  0
   -2.2165    2.6138   -0.4531 C   0  0  0  0  0  0  0  0  0  0  0  0
   -2.8788    3.6466    0.2193 O   0  0  0  0  0  0  0  0  0  0  0  0
   -3.6061    2.9964    1.2910 C   0  0  0  0  0  0  0  0  0  0  0  0
   -4.6542    2.0206    0.7168 C   0  0  0  0  0  0  0  0  0  0  0  0
    1.1625   -1.6629    0.0364 C   0  0  0  0  0  0  0  0  0  0  0  0
   -4.4596   -2.1640    1.3917 H   0  0  0  0  0  0  0  0  0  0  0  0
    3.6849   -0.6886    0.9180 H   0  0  0  0  0  0  0  0  0  0  0  0
    3.7260   -0.7226   -0.9292 H   0  0  0  0  0  0  0  0  0  0  0  0
    3.6636    0.8032   -0.0275 H   0  0  0  0  0  0  0  0  0  0  0  0
    1.7810    1.8268    0.0258 H   0  0  0  0  0  0  0  0  0  0  0  0
   -0.3160    1.7077    0.4898 H   0  0  0  0  0  0  0  0  0  0  0  0
   -2.1531   -0.6800   -1.7132 H   0  0  0  0  0  0  0  0  0  0  0  0
   -2.8990   -0.9789   -0.3173 H   0  0  0  0  0  0  0  0  0  0  0  0
   -2.1274    0.3346   -0.1175 H   0  0  0  0  0  0  0  0  0  0  0  0
   -3.0246   -2.6540   -0.7456 H   0  0  0  0  0  0  0  0  0  0  0  0
   -2.8846   -3.8708    0.3925 H   0  0  0  0  0  0  0  0  0  0  0  0
   -3.2039   -1.9178    3.4321 H   0  0  0  0  0  0  0  0  0  0  0  0
   -3.9870    0.1741    2.3660 H   0  0  0  0  0  0  0  0  0  0  0  0
   -2.4102    0.1772    1.7702 H   0  0  0  0  0  0  0  0  0  0  0  0
   -3.8116    1.9723   -1.8691 H   0  0  0  0  0  0  0  0  0  0  0  0
   -2.4838    1.0474   -1.7608 H   0  0  0  0  0  0  0  0  0  0  0  0
   -1.8321    2.0924    0.3933 H   0  0  0  0  0  0  0  0  0  0  0  0
   -1.3439    2.8926   -1.0719 H   0  0  0  0  0  0  0  0  0  0  0  0
   -4.0702    3.7934    1.8516 H   0  0  0  0  0  0  0  0  0  0  0  0
   -2.9099    2.4761    1.9756 H   0  0  0  0  0  0  0  0  0  0  0  0
   -5.1641    2.5085   -0.1218 H   0  0  0  0  0  0  0  0  0  0  0  0
   -5.3861    1.7144    1.4539 H   0  0  0  0  0  0  0  0  0  0  0  0
    1.7159   -2.5740    0.0403 H   0  0  0  0  0  0  0  0  0  0  0  0
  1  2  1  0  0  0  0
  1 21  1  0  0  0  0
  1 22  1  0  0  0  0
  1 23  1  0  0  0  0
  2  3  1  0  0  0  0
  3  4  2  0  0  0  0
  3 24  1  0  0  0  0
  4 25  1  0  0  0  0
  5  4  1  0  0  0  0
  5  6  1  0  0  0  0
  6 26  1  0  0  0  0
  6 27  1  0  0  0  0
  6 28  1  0  0  0  0
  7  5  2  0  0  0  0
  8  7  1  0  0  0  0
  9 10  1  0  0  0  0
  9  8  1  0  0  0  0
  9 29  1  0  0  0  0
  9 30  1  0  0  0  0
 10 12  1  0  0  0  0
 10 20  1  6  0  0  0
 10 11  1  0  0  0  0
 11 31  1  0  0  0  0
 12 32  1  0  0  0  0
 12 33  1  0  0  0  0
 13 12  1  0  0  0  0
 13 14  1  0  0  0  0
 13 18  1  0  0  0  0
 14 34  1  0  0  0  0
 14 35  1  0  0  0  0
 15 14  1  0  0  0  0
 15 16  1  0  0  0  0
 15 36  1  0  0  0  0
 15 37  1  0  0  0  0
 17 18  1  0  0  0  0
 17 16  1  0  0  0  0
 17 38  1  0  0  0  0
 17 39  1  0  0  0  0
 18 40  1  0  0  0  0
 18 41  1  0  0  0  0
 19  2  2  0  0  0  0
 19  7  1  0  0  0  0
 19 42  1  0  0  0  0
M  END
>  <DRUGBANK_ID>
DB07573

>  <COMMON_NAME>
(2S)-1-(2,5-dimethylphenoxy)-3-morpholin-4-ylpropan-2-ol

$$$$
