
 OpenBabel10282417203D

 24 24  0  0  0  0  0  0  0  0999 V2000
   -1.9010   -0.0191   -0.0588 C   0  0  0  0  0  0  0  0  0  0  0  0
   -3.6892   -0.0203    0.0271 S   0  0  0  0  0  0  0  0  0  0  0  0
   -1.2019    1.1935   -0.0398 C   0  0  0  0  0  0  0  0  0  0  0  0
   -1.2005   -1.2253   -0.0368 C   0  0  0  0  0  0  0  0  0  0  0  0
   -4.1639   -0.9744   -1.2997 N   0  0  0  0  0  0  0  0  0  0  0  0
   -3.9946   -0.6393    1.3027 O   0  0  0  0  0  0  0  0  0  0  0  0
   -4.1189    1.3268   -0.2707 O   0  0  0  0  0  0  0  0  0  0  0  0
    0.2005    1.1916   -0.0277 C   0  0  0  0  0  0  0  0  0  0  0  0
    0.2028   -1.2112   -0.0205 C   0  0  0  0  0  0  0  0  0  0  0  0
   -5.0398   -2.0507   -1.2200 C   0  0  0  0  0  0  0  0  0  0  0  0
    0.9179   -0.0076    0.0020 C   0  0  0  0  0  0  0  0  0  0  0  0
   -5.4772   -2.5516   -2.3877 N   0  0  0  0  0  0  0  0  0  0  0  0
   -5.3849   -2.5430   -0.0953 N   0  0  0  0  0  0  0  0  0  0  0  0
    2.3022   -0.0038   -0.1231 N   0  0  0  0  0  0  0  0  0  0  0  0
   -1.7300    2.1440   -0.0063 H   0  0  0  0  0  0  0  0  0  0  0  0
   -1.7333   -2.1726   -0.0044 H   0  0  0  0  0  0  0  0  0  0  0  0
   -4.0771   -0.4697   -2.1761 H   0  0  0  0  0  0  0  0  0  0  0  0
    0.7309    2.1413   -0.0231 H   0  0  0  0  0  0  0  0  0  0  0  0
    0.7393   -2.1567   -0.0052 H   0  0  0  0  0  0  0  0  0  0  0  0
   -6.0696   -3.3722   -2.3767 H   0  0  0  0  0  0  0  0  0  0  0  0
   -5.2173   -2.2018   -3.2962 H   0  0  0  0  0  0  0  0  0  0  0  0
   -6.0257   -3.3229   -0.2058 H   0  0  0  0  0  0  0  0  0  0  0  0
    2.8111   -0.8608    0.0585 H   0  0  0  0  0  0  0  0  0  0  0  0
    2.8058    0.8573    0.0566 H   0  0  0  0  0  0  0  0  0  0  0  0
  1  2  1  0  0  0  0
  1  3  1  0  0  0  0
  1  4  2  0  0  0  0
  2  5  1  0  0  0  0
  2  6  2  0  0  0  0
  2  7  2  0  0  0  0
  3  8  2  0  0  0  0
  3 15  1  0  0  0  0
  4  9  1  0  0  0  0
  4 16  1  0  0  0  0
  5 10  1  0  0  0  0
  5 17  1  0  0  0  0
  8 11  1  0  0  0  0
  8 18  1  0  0  0  0
  9 11  2  0  0  0  0
  9 19  1  0  0  0  0
 10 12  1  0  0  0  0
 10 13  2  0  0  0  0
 11 14  1  0  0  0  0
 12 20  1  0  0  0  0
 12 21  1  0  0  0  0
 13 22  1  0  0  0  0
 14 23  1  0  0  0  0
 14 24  1  0  0  0  0
M  END
>  <DRUGBANK_ID>
DB13726

>  <COMMON_NAME>
Sulfaguanidine

>  <CAS_NUMBER>
57-67-0

>  <UNII>
15XQ8043FN

>  <SYNONYMS>
Sulfaguanidina; Sulfaguanidine; Sulfaguanidinum

$$$$
