
 OpenBabel10282417133D

 59 58  0  0  1  0  0  0  0  0999 V2000
    2.8054    1.4524   11.7179 C   0  0  0  0  0  0  0  0  0  0  0  0
    2.4804    0.6461   10.5513 C   0  0  0  0  0  0  0  0  0  0  0  0
    2.8585    0.9300    9.4014 O   0  0  0  0  0  0  0  0  0  0  0  0
    1.7110   -0.3950   10.8854 O   0  0  0  0  0  0  0  0  0  0  0  0
    1.3337   -1.0759    9.7089 C   0  0  0  0  0  0  0  0  0  0  0  0
    0.2501   -0.1932    8.8919 C   0  0  0  0  0  0  0  0  0  0  0  0
    0.7625    0.8067    8.0203 N   0  0  0  0  0  0  0  0  0  0  0  0
    0.8379    0.7747    6.6699 C   0  0  0  0  0  0  0  0  0  0  0  0
    1.4355    1.6782    6.0913 O   0  0  0  0  0  0  0  0  0  0  0  0
    0.1590   -0.3459    5.9076 C   0  0  0  0  0  0  0  0  0  0  0  0
    0.8535   -1.7018    6.0113 C   0  0  0  0  0  0  0  0  0  0  0  0
    0.6139   -2.4667    7.2171 N   0  0  0  0  0  0  0  0  0  0  0  0
   -0.0875   -3.5503    7.6071 C   0  0  0  0  0  0  0  0  0  0  0  0
   -0.0828   -3.8586    8.8022 O   0  0  0  0  0  0  0  0  0  0  0  0
   -0.8419   -4.3889    6.6164 C   0  0  2  0  0  0  0  0  0  0  0  0
   -0.4014   -4.2570    5.2732 O   0  0  0  0  0  0  0  0  0  0  0  0
   -2.3790   -4.2864    6.7721 C   0  0  0  0  0  0  0  0  0  0  0  0
   -2.9639   -5.1116    5.6135 C   0  0  0  0  0  0  0  0  0  0  0  0
   -2.8294   -4.9862    8.0687 C   0  0  0  0  0  0  0  0  0  0  0  0
   -2.9252   -2.8230    6.7416 C   0  0  0  0  0  0  0  0  0  0  0  0
   -2.5284   -2.0216    7.8976 O   0  0  0  0  0  0  0  0  0  0  0  0
   -3.2101   -2.1999    9.0810 C   0  0  0  0  0  0  0  0  0  0  0  0
   -4.2125   -2.8955    9.1902 O   0  0  0  0  0  0  0  0  0  0  0  0
   -2.6372   -1.4330   10.2784 C   0  0  0  0  0  0  0  0  0  0  0  0
   -1.2021   -1.7552   10.5255 C   0  0  0  0  0  0  0  0  0  0  0  0
   -2.9253    0.0518   10.0181 C   0  0  0  0  0  0  0  0  0  0  0  0
   -3.1414   -1.9247   11.6222 C   0  0  0  0  0  0  0  0  0  0  0  0
    3.3225    2.3325   11.3363 H   0  0  0  0  0  0  0  0  0  0  0  0
    3.4576    0.8545   12.3524 H   0  0  0  0  0  0  0  0  0  0  0  0
    1.8852    1.7525   12.2242 H   0  0  0  0  0  0  0  0  0  0  0  0
    2.2316   -1.3673    9.1512 H   0  0  0  0  0  0  0  0  0  0  0  0
    0.9922   -2.0549   10.0734 H   0  0  0  0  0  0  0  0  0  0  0  0
   -0.4375   -0.7575    8.2639 H   0  0  0  0  0  0  0  0  0  0  0  0
   -0.3790    0.3726    9.5803 H   0  0  0  0  0  0  0  0  0  0  0  0
    1.3109    1.5365    8.4596 H   0  0  0  0  0  0  0  0  0  0  0  0
   -0.9091   -0.3840    6.1497 H   0  0  0  0  0  0  0  0  0  0  0  0
    0.2181   -0.0502    4.8532 H   0  0  0  0  0  0  0  0  0  0  0  0
    0.5425   -2.2768    5.1590 H   0  0  0  0  0  0  0  0  0  0  0  0
    1.9391   -1.5876    5.9615 H   0  0  0  0  0  0  0  0  0  0  0  0
    1.1755   -2.1676    7.9741 H   0  0  0  0  0  0  0  0  0  0  0  0
   -0.5321   -5.4027    6.8921 H   0  0  0  0  0  0  0  0  0  0  0  0
   -0.8074   -3.4638    4.8926 H   0  0  0  0  0  0  0  0  0  0  0  0
   -2.6048   -6.1467    5.6962 H   0  0  0  0  0  0  0  0  0  0  0  0
   -4.0541   -5.1261    5.6359 H   0  0  0  0  0  0  0  0  0  0  0  0
   -2.6482   -4.7341    4.6362 H   0  0  0  0  0  0  0  0  0  0  0  0
   -2.4165   -4.5198    8.9656 H   0  0  0  0  0  0  0  0  0  0  0  0
   -3.9233   -4.9722    8.1358 H   0  0  0  0  0  0  0  0  0  0  0  0
   -2.5163   -6.0307    8.1097 H   0  0  0  0  0  0  0  0  0  0  0  0
   -2.5507   -2.3149    5.8393 H   0  0  0  0  0  0  0  0  0  0  0  0
   -4.0190   -2.7990    6.6516 H   0  0  0  0  0  0  0  0  0  0  0  0
   -0.8149   -1.9402    9.5544 H   0  0  0  0  0  0  0  0  0  0  0  0
   -0.7145   -0.9650   11.1128 H   0  0  0  0  0  0  0  0  0  0  0  0
   -0.9493   -2.6970   11.0240 H   0  0  0  0  0  0  0  0  0  0  0  0
   -4.0067    0.2127    9.9980 H   0  0  0  0  0  0  0  0  0  0  0  0
   -2.4880    0.7071   10.7788 H   0  0  0  0  0  0  0  0  0  0  0  0
   -2.5555    0.3960    9.0403 H   0  0  0  0  0  0  0  0  0  0  0  0
   -4.2184   -1.9204   11.6865 H   0  0  0  0  0  0  0  0  0  0  0  0
   -2.7976   -2.9607   11.7831 H   0  0  0  0  0  0  0  0  0  0  0  0
   -2.6901   -1.3245   12.4270 H   0  0  0  0  0  0  0  0  0  0  0  0
  1  2  1  0  0  0  0
  1 28  1  0  0  0  0
  1 29  1  0  0  0  0
  1 30  1  0  0  0  0
  2  3  2  0  0  0  0
  2  4  1  0  0  0  0
  4  5  1  0  0  0  0
  5  6  1  0  0  0  0
  5 31  1  0  0  0  0
  5 32  1  0  0  0  0
  6  7  1  0  0  0  0
  6 33  1  0  0  0  0
  6 34  1  0  0  0  0
  7  8  1  0  0  0  0
  7 35  1  0  0  0  0
  8  9  2  0  0  0  0
  8 10  1  0  0  0  0
 10 11  1  0  0  0  0
 10 36  1  0  0  0  0
 10 37  1  0  0  0  0
 11 12  1  0  0  0  0
 11 38  1  0  0  0  0
 11 39  1  0  0  0  0
 12 13  1  0  0  0  0
 12 40  1  0  0  0  0
 13 14  2  0  0  0  0
 15 17  1  0  0  0  0
 15 41  1  1  0  0  0
 15 16  1  0  0  0  0
 15 13  1  0  0  0  0
 16 42  1  0  0  0  0
 17 18  1  0  0  0  0
 17 19  1  0  0  0  0
 17 20  1  0  0  0  0
 18 43  1  0  0  0  0
 18 44  1  0  0  0  0
 18 45  1  0  0  0  0
 19 46  1  0  0  0  0
 19 47  1  0  0  0  0
 19 48  1  0  0  0  0
 20 21  1  0  0  0  0
 20 49  1  0  0  0  0
 20 50  1  0  0  0  0
 21 22  1  0  0  0  0
 22 23  2  0  0  0  0
 22 24  1  0  0  0  0
 24 25  1  0  0  0  0
 24 26  1  0  0  0  0
 24 27  1  0  0  0  0
 25 51  1  0  0  0  0
 25 52  1  0  0  0  0
 25 53  1  0  0  0  0
 26 54  1  0  0  0  0
 26 55  1  0  0  0  0
 26 56  1  0  0  0  0
 27 57  1  0  0  0  0
 27 58  1  0  0  0  0
 27 59  1  0  0  0  0
M  END
>  <DRUGBANK_ID>
DB03045

>  <SECONDARY_ACCESSION_NUMBERS>
EXPT00046

>  <COMMON_NAME>
Pantothenyl-Aminoethanol-Acetate Pivalic Acid

$$$$
