
 OpenBabel10282417203D

 33 33  0  0  1  0  0  0  0  0999 V2000
   -0.0087   -1.9233    0.2198 C   0  0  0  0  0  0  0  0  0  0  0  0
    1.2597   -1.1601   -0.1563 C   0  0  0  0  0  0  0  0  0  0  0  0
    1.2968    0.2288    0.4903 C   0  0  2  0  0  0  0  0  0  0  0  0
   -0.0124    0.9637    0.1615 C   0  0  1  0  0  0  0  0  0  0  0  0
   -1.3073    0.2279    0.5180 C   0  0  2  0  0  0  0  0  0  0  0  0
   -1.2750   -1.1540   -0.1480 C   0  0  0  0  0  0  0  0  0  0  0  0
   -2.4340    0.9453   -0.0038 O   0  0  0  0  0  0  0  0  0  0  0  0
   -0.0073    2.3788    0.4617 N   0  0  0  0  0  0  0  0  0  0  0  0
    0.0021    3.5189   -0.2773 C   0  0  0  0  0  0  0  0  0  0  0  0
    0.0007    4.5420    0.4047 O   0  0  0  0  0  0  0  0  0  0  0  0
    0.0284    3.5346   -1.6682 N   0  0  0  0  0  0  0  0  0  0  0  0
    0.0405    2.4573   -2.6821 C   0  0  0  0  0  0  0  0  0  0  0  0
   -1.3031    2.1695   -3.3536 C   0  0  0  0  0  0  0  0  0  0  0  0
   -1.6240    3.1508   -4.7934 Cl  0  0  0  0  0  0  0  0  0  0  0  0
    0.0958    4.8554   -2.1821 N   0  0  0  0  0  0  0  0  0  0  0  0
    0.3452    4.9219   -3.3904 O   0  0  0  0  0  0  0  0  0  0  0  0
    2.4240    0.9368   -0.0408 O   0  0  0  0  0  0  0  0  0  0  0  0
   -0.0124   -2.8919   -0.2903 H   0  0  0  0  0  0  0  0  0  0  0  0
   -0.0074   -2.1127    1.2978 H   0  0  0  0  0  0  0  0  0  0  0  0
    1.3122   -1.0575   -1.2512 H   0  0  0  0  0  0  0  0  0  0  0  0
    2.1544   -1.7270    0.1227 H   0  0  0  0  0  0  0  0  0  0  0  0
    1.4446    0.1564    1.5725 H   0  0  0  0  0  0  0  0  0  0  0  0
   -0.0680    0.8863   -0.8875 H   0  0  0  0  0  0  0  0  0  0  0  0
   -1.4381    0.1536    1.6000 H   0  0  0  0  0  0  0  0  0  0  0  0
   -1.3245   -1.0422   -1.2432 H   0  0  0  0  0  0  0  0  0  0  0  0
   -2.1728   -1.7177    0.1232 H   0  0  0  0  0  0  0  0  0  0  0  0
   -2.4214    0.9052   -0.9736 H   0  0  0  0  0  0  0  0  0  0  0  0
    0.0032    2.6237    1.4484 H   0  0  0  0  0  0  0  0  0  0  0  0
    0.8850    2.5933   -3.3649 H   0  0  0  0  0  0  0  0  0  0  0  0
    0.3409    1.5174   -2.2725 H   0  0  0  0  0  0  0  0  0  0  0  0
   -1.3011    1.1319   -3.7053 H   0  0  0  0  0  0  0  0  0  0  0  0
   -2.1439    2.2793   -2.6630 H   0  0  0  0  0  0  0  0  0  0  0  0
    2.3775    0.9489   -1.0115 H   0  0  0  0  0  0  0  0  0  0  0  0
  1  2  1  0  0  0  0
  1  6  1  0  0  0  0
  1 18  1  0  0  0  0
  1 19  1  0  0  0  0
  2  3  1  0  0  0  0
  2 20  1  0  0  0  0
  2 21  1  0  0  0  0
  3  4  1  0  0  0  0
  3 17  1  0  0  0  0
  3 22  1  1  0  0  0
  4  5  1  0  0  0  0
  4  8  1  0  0  0  0
  4 23  1  6  0  0  0
  5  6  1  0  0  0  0
  5  7  1  0  0  0  0
  5 24  1  1  0  0  0
  6 25  1  0  0  0  0
  6 26  1  0  0  0  0
  7 27  1  0  0  0  0
  8  9  1  0  0  0  0
  8 28  1  0  0  0  0
  9 10  2  0  0  0  0
  9 11  1  0  0  0  0
 11 12  1  0  0  0  0
 11 15  1  0  0  0  0
 12 13  1  0  0  0  0
 12 29  1  0  0  0  0
 12 30  1  0  0  0  0
 13 14  1  0  0  0  0
 13 31  1  0  0  0  0
 13 32  1  0  0  0  0
 15 16  2  0  0  0  0
 17 33  1  0  0  0  0
M  END
>  <DRUGBANK_ID>
DB12968

>  <COMMON_NAME>
DONU

>  <CAS_NUMBER>
58484-17-6

>  <UNII>
4093G4WO6Q

$$$$
