
 OpenBabel10282417213D

  7  6  0  0  0  0  0  0  0  0999 V2000
    0.9235    0.0737    0.0219 C   0  0  0  0  0  0  0  0  0  0  0  0
    0.4128   -0.6063    1.2805 C   0  0  0  0  0  0  0  0  0  0  0  0
   -0.3042    0.1141    2.0292 O   0  5  0  0  0  0  0  0  0  0  0  0
    0.7726   -1.8092    1.4163 O   0  0  0  0  0  0  0  0  0  0  0  0
    0.5790    1.1105   -0.0382 H   0  0  0  0  0  0  0  0  0  0  0  0
    0.5637   -0.4618   -0.8618 H   0  0  0  0  0  0  0  0  0  0  0  0
    2.0176    0.0722    0.0167 H   0  0  0  0  0  0  0  0  0  0  0  0
  1  5  1  0  0  0  0
  1  6  1  0  0  0  0
  1  7  1  0  0  0  0
  2  1  1  0  0  0  0
  3  2  1  0  0  0  0
  4  2  2  0  0  0  0
M  CHG  1   3  -1
M  END
>  <DRUGBANK_ID>
DB14511

>  <COMMON_NAME>
Acetate

>  <CAS_NUMBER>
71-50-1

>  <UNII>
569DQM74SC

>  <SYNONYMS>
Acetate; Acetate anion; Acetate ion; Acetate ion (1-); Acetic acid anion; Acetic acid, ion(1-); Acetoxy ion; Azetat

$$$$
