774
 OpenBabel10282417113D

 28 29  0  0  0  0  0  0  0  0999 V2000
    1.2759   -0.5246   -0.0572 S   0  0  0  0  0  0  0  0  0  0  0  0
   -3.6873   -2.8722    0.3159 S   0  0  0  0  0  0  0  0  0  0  0  0
   -5.1644    0.9179    0.8614 F   0  0  0  0  0  0  0  0  0  0  0  0
   -5.0719    0.7019   -1.2958 F   0  0  0  0  0  0  0  0  0  0  0  0
   -5.5510   -0.9995   -0.0537 F   0  0  0  0  0  0  0  0  0  0  0  0
    1.6747   -1.6574    0.7424 O   0  0  0  0  0  0  0  0  0  0  0  0
    1.7360   -0.3586   -1.4210 O   0  0  0  0  0  0  0  0  0  0  0  0
   -4.3255   -2.7216    1.6009 O   0  0  0  0  0  0  0  0  0  0  0  0
   -4.4040   -3.1148   -0.9131 O   0  0  0  0  0  0  0  0  0  0  0  0
   -0.2537    2.0283    0.0916 N   0  0  0  0  0  0  0  0  0  0  0  0
    1.7103    0.8517    0.7913 N   0  0  0  0  0  0  0  0  0  0  0  0
   -2.6460   -4.1778    0.5018 N   0  0  0  0  0  0  0  0  0  0  0  0
   -0.4732   -0.4028   -0.0358 C   0  0  0  0  0  0  0  0  0  0  0  0
   -1.0106    0.8819   -0.0579 C   0  0  0  0  0  0  0  0  0  0  0  0
   -2.6584   -1.4398    0.0684 C   0  0  0  0  0  0  0  0  0  0  0  0
   -3.2507   -0.1685   -0.0484 C   0  0  0  0  0  0  0  0  0  0  0  0
   -1.2637   -1.5606    0.0545 C   0  0  0  0  0  0  0  0  0  0  0  0
    1.1862    2.0534    0.1815 C   0  0  0  0  0  0  0  0  0  0  0  0
   -2.4067    0.9734   -0.0992 C   0  0  0  0  0  0  0  0  0  0  0  0
   -4.7428    0.0807   -0.1274 C   0  0  0  0  0  0  0  0  0  0  0  0
   -0.6957    2.9225   -0.0913 H   0  0  0  0  0  0  0  0  0  0  0  0
    2.7190    0.8666    0.9247 H   0  0  0  0  0  0  0  0  0  0  0  0
   -2.1283   -4.1303    1.3788 H   0  0  0  0  0  0  0  0  0  0  0  0
   -3.2218   -5.0268    0.4847 H   0  0  0  0  0  0  0  0  0  0  0  0
   -0.7771   -2.5302    0.1251 H   0  0  0  0  0  0  0  0  0  0  0  0
    1.4690    2.8982    0.8209 H   0  0  0  0  0  0  0  0  0  0  0  0
    1.6533    2.2386   -0.7919 H   0  0  0  0  0  0  0  0  0  0  0  0
   -2.8692    1.9612   -0.1540 H   0  0  0  0  0  0  0  0  0  0  0  0
  1  6  2  0  0  0  0
  1  7  2  0  0  0  0
  1 11  1  0  0  0  0
  1 13  1  0  0  0  0
  2  8  2  0  0  0  0
  2  9  2  0  0  0  0
  2 12  1  0  0  0  0
  2 15  1  0  0  0  0
  3 20  1  0  0  0  0
  4 20  1  0  0  0  0
  5 20  1  0  0  0  0
 10 14  1  0  0  0  0
 10 18  1  0  0  0  0
 10 21  1  0  0  0  0
 11 18  1  0  0  0  0
 11 22  1  0  0  0  0
 12 23  1  0  0  0  0
 12 24  1  0  0  0  0
 13 14  2  0  0  0  0
 13 17  1  0  0  0  0
 14 19  1  0  0  0  0
 15 16  1  0  0  0  0
 15 17  2  0  0  0  0
 16 19  2  0  0  0  0
 16 20  1  0  0  0  0
 17 25  1  0  0  0  0
 18 26  1  0  0  0  0
 18 27  1  0  0  0  0
 19 28  1  0  0  0  0
M  END
>  <DRUGBANK_ID>
DB00774

>  <SECONDARY_ACCESSION_NUMBERS>
APRD01020

>  <COMMON_NAME>
Hydroflumethiazide

>  <CAS_NUMBER>
135-09-1

>  <UNII>
501CFL162R

>  <SYNONYMS>
Dihydroflumethazide; Hidroflumetiazid; Hidroflumetiazida; Hydroflum√©thiazide; Hydroflumethiazide; Hydroflumethiazidum; Idroflumetiazide; Metforylthiadiazin

$$$$
