
 OpenBabel10282417173D

 50 51  0  0  0  0  0  0  0  0999 V2000
    1.0266    0.0704   -0.0274 S   0  0  0  0  0  0  0  0  0  0  0  0
    7.2721    3.0393    2.4897 F   0  0  0  0  0  0  0  0  0  0  0  0
    5.6563    4.0311    1.4083 F   0  0  0  0  0  0  0  0  0  0  0  0
    5.5856    1.9143    1.8103 F   0  0  0  0  0  0  0  0  0  0  0  0
    0.5923   -0.6341   -1.2040 O   0  0  0  0  0  0  0  0  0  0  0  0
    0.6832   -0.4337    1.3031 O   0  0  0  0  0  0  0  0  0  0  0  0
    6.5460    3.0544   -1.1835 O   0  0  0  0  0  0  0  0  0  0  0  0
    9.0632    1.1779    0.0618 O   0  0  0  0  0  0  0  0  0  0  0  0
    0.4084    1.6902   -0.1915 N   0  0  0  0  0  0  0  0  0  0  0  0
    7.0854    0.1345   -0.0233 N   0  0  0  0  0  0  0  0  0  0  0  0
    2.8025   -0.0364   -0.0765 C   0  0  0  0  0  0  0  0  0  0  0  0
    5.6876   -0.0632   -0.1302 C   0  0  0  0  0  0  0  0  0  0  0  0
    4.9836   -1.2609   -0.0222 C   0  0  0  0  0  0  0  0  0  0  0  0
    1.1352    2.9618    0.0714 C   0  0  0  0  0  0  0  0  0  0  0  0
    3.5306   -1.2415   -0.0013 C   0  0  0  0  0  0  0  0  0  0  0  0
    7.2108    2.7330    0.0836 C   0  0  2  0  0  0  0  0  0  0  0  0
   -1.0380    1.8552   -0.0998 C   0  0  0  0  0  0  0  0  0  0  0  0
    3.5435    1.0716   -0.2479 C   0  0  0  0  0  0  0  0  0  0  0  0
    4.8957    1.0166   -0.3321 C   0  0  0  0  0  0  0  0  0  0  0  0
    7.8321    1.3037    0.0535 C   0  0  0  0  0  0  0  0  0  0  0  0
    5.6955   -2.5762    0.0255 C   0  0  0  0  0  0  0  0  0  0  0  0
    1.2665    3.7853   -1.2219 C   0  0  0  0  0  0  0  0  0  0  0  0
    6.4206    2.9075    1.4430 C   0  0  0  0  0  0  0  0  0  0  0  0
    8.2212    3.8670    0.0705 C   0  0  0  0  0  0  0  0  0  0  0  0
   -1.8216    1.2454    0.8764 C   0  0  0  0  0  0  0  0  0  0  0  0
   -1.6366    2.8468   -0.8914 C   0  0  0  0  0  0  0  0  0  0  0  0
   -3.1703    1.5946    1.0126 C   0  0  0  0  0  0  0  0  0  0  0  0
   -2.9286    3.3006   -0.6619 C   0  0  0  0  0  0  0  0  0  0  0  0
   -3.7172    2.6308    0.2559 C   0  0  0  0  0  0  0  0  0  0  0  0
    7.6727   -0.6889    0.0530 H   0  0  0  0  0  0  0  0  0  0  0  0
    7.0609    2.6565   -1.9120 H   0  0  0  0  0  0  0  0  0  0  0  0
    0.7172    3.5532    0.8902 H   0  0  0  0  0  0  0  0  0  0  0  0
    2.0999    2.8085    0.4958 H   0  0  0  0  0  0  0  0  0  0  0  0
    2.9814   -2.1793    0.0677 H   0  0  0  0  0  0  0  0  0  0  0  0
    3.2669    2.0878   -0.3418 H   0  0  0  0  0  0  0  0  0  0  0  0
    5.2181    2.0069   -0.4492 H   0  0  0  0  0  0  0  0  0  0  0  0
    5.4022   -3.1363    0.9156 H   0  0  0  0  0  0  0  0  0  0  0  0
    5.4579   -3.1370   -0.8822 H   0  0  0  0  0  0  0  0  0  0  0  0
    6.7818   -2.4593    0.0558 H   0  0  0  0  0  0  0  0  0  0  0  0
    0.4017    4.4410   -1.3662 H   0  0  0  0  0  0  0  0  0  0  0  0
    2.1197    4.4651   -1.1908 H   0  0  0  0  0  0  0  0  0  0  0  0
    1.3671    3.1478   -2.1113 H   0  0  0  0  0  0  0  0  0  0  0  0
    8.8665    3.8507    0.9456 H   0  0  0  0  0  0  0  0  0  0  0  0
    8.8270    3.8314   -0.8398 H   0  0  0  0  0  0  0  0  0  0  0  0
    7.6741    4.8217    0.0406 H   0  0  0  0  0  0  0  0  0  0  0  0
   -1.4230    0.4919    1.5464 H   0  0  0  0  0  0  0  0  0  0  0  0
   -1.1063    3.2900   -1.7220 H   0  0  0  0  0  0  0  0  0  0  0  0
   -3.7888    1.0660    1.7319 H   0  0  0  0  0  0  0  0  0  0  0  0
   -3.3057    4.1547   -1.2175 H   0  0  0  0  0  0  0  0  0  0  0  0
   -4.7610    2.9054    0.3651 H   0  0  0  0  0  0  0  0  0  0  0  0
  1  5  2  0  0  0  0
  1  6  2  0  0  0  0
  1  9  1  0  0  0  0
  1 11  1  0  0  0  0
  2 23  1  0  0  0  0
  3 23  1  0  0  0  0
  4 23  1  0  0  0  0
  7 31  1  0  0  0  0
  8 20  2  0  0  0  0
  9 14  1  0  0  0  0
  9 17  1  0  0  0  0
 10 12  1  0  0  0  0
 10 20  1  0  0  0  0
 10 30  1  0  0  0  0
 11 15  2  0  0  0  0
 11 18  1  0  0  0  0
 12 13  2  0  0  0  0
 12 19  1  0  0  0  0
 13 15  1  0  0  0  0
 13 21  1  0  0  0  0
 14 22  1  0  0  0  0
 14 32  1  0  0  0  0
 14 33  1  0  0  0  0
 15 34  1  0  0  0  0
 16  7  1  6  0  0  0
 16 20  1  0  0  0  0
 16 23  1  0  0  0  0
 16 24  1  0  0  0  0
 17 25  2  0  0  0  0
 17 26  1  0  0  0  0
 18 19  2  0  0  0  0
 18 35  1  0  0  0  0
 19 36  1  0  0  0  0
 21 37  1  0  0  0  0
 21 38  1  0  0  0  0
 21 39  1  0  0  0  0
 22 40  1  0  0  0  0
 22 41  1  0  0  0  0
 22 42  1  0  0  0  0
 24 43  1  0  0  0  0
 24 44  1  0  0  0  0
 24 45  1  0  0  0  0
 25 27  1  0  0  0  0
 25 46  1  0  0  0  0
 26 28  2  0  0  0  0
 26 47  1  0  0  0  0
 27 29  2  0  0  0  0
 27 48  1  0  0  0  0
 28 29  1  0  0  0  0
 28 49  1  0  0  0  0
 29 50  1  0  0  0  0
M  END
>  <DRUGBANK_ID>
DB08609

>  <COMMON_NAME>
(2R)-N-{4-[Ethyl(phenyl)sulfamoyl]-2-methylphenyl}-3,3,3-trifluoro-2-hydroxy-2-methylpropanamide

$$$$
