
 OpenBabel10282417243D

 49 50  0  0  0  0  0  0  0  0999 V2000
    2.7296   -1.1068    0.0164 C   0  0  0  0  0  0  0  0  0  0  0  0
    1.3627   -0.4509    0.0177 C   0  0  0  0  0  0  0  0  0  0  0  0
    0.1543   -1.0740    0.1352 C   0  0  0  0  0  0  0  0  0  0  0  0
    0.0912   -2.5224    0.3816 C   0  0  0  0  0  0  0  0  0  0  0  0
   -0.9515   -3.3035    0.7046 C   0  0  0  0  0  0  0  0  0  0  0  0
   -0.9636   -4.7867    0.8150 C   0  0  0  0  0  0  0  0  0  0  0  0
   -2.0540   -5.3502    0.7168 O   0  0  0  0  0  0  0  0  0  0  0  0
    0.2224   -5.4713    0.8785 N   0  0  0  0  0  0  0  0  0  0  0  0
    1.4100   -5.1006    1.6618 C   0  0  0  0  0  0  0  0  0  0  0  0
    2.6738   -5.2122    0.7882 C   0  0  0  0  0  0  0  0  0  0  0  0
    2.7518   -6.5309    0.1395 N   0  0  0  0  0  0  0  0  0  0  0  0
    1.5413   -6.8876   -0.6169 C   0  0  0  0  0  0  0  0  0  0  0  0
    0.2974   -6.8024    0.2830 C   0  0  0  0  0  0  0  0  0  0  0  0
    3.8800   -7.2887    0.2935 C   0  0  0  0  0  0  0  0  0  0  0  0
    3.9076   -8.4985   -0.3049 N   0  0  0  0  0  0  0  0  0  0  0  0
    4.8573   -6.9356    0.9526 O   0  0  0  0  0  0  0  0  0  0  0  0
   -1.1726   -0.2851   -0.0119 C   0  0  0  0  0  0  0  0  0  0  0  0
   -2.1282   -0.9119   -1.0629 C   0  0  0  0  0  0  0  0  0  0  0  0
   -1.8605   -0.1759    1.3679 C   0  0  0  0  0  0  0  0  0  0  0  0
   -0.9299    1.1567   -0.5471 C   0  0  0  0  0  0  0  0  0  0  0  0
    0.2362    1.8407    0.1347 C   0  0  0  0  0  0  0  0  0  0  0  0
    1.5059    1.0548   -0.1391 C   0  0  0  0  0  0  0  0  0  0  0  0
    3.2263   -0.9124   -0.9408 H   0  0  0  0  0  0  0  0  0  0  0  0
    3.3503   -0.6998    0.8210 H   0  0  0  0  0  0  0  0  0  0  0  0
    2.7323   -2.1858    0.1458 H   0  0  0  0  0  0  0  0  0  0  0  0
    1.0338   -3.0257    0.2821 H   0  0  0  0  0  0  0  0  0  0  0  0
   -1.9595   -2.9231    0.7840 H   0  0  0  0  0  0  0  0  0  0  0  0
    1.3026   -4.1154    2.1231 H   0  0  0  0  0  0  0  0  0  0  0  0
    1.4690   -5.8183    2.4895 H   0  0  0  0  0  0  0  0  0  0  0  0
    2.6277   -4.4860   -0.0308 H   0  0  0  0  0  0  0  0  0  0  0  0
    3.5660   -4.9845    1.3783 H   0  0  0  0  0  0  0  0  0  0  0  0
    1.4621   -6.1556   -1.4319 H   0  0  0  0  0  0  0  0  0  0  0  0
    1.6024   -7.8748   -1.0711 H   0  0  0  0  0  0  0  0  0  0  0  0
    0.3623   -7.5271    1.1017 H   0  0  0  0  0  0  0  0  0  0  0  0
   -0.5996   -7.0192   -0.3055 H   0  0  0  0  0  0  0  0  0  0  0  0
    4.7526   -9.0410   -0.1902 H   0  0  0  0  0  0  0  0  0  0  0  0
    3.1912   -8.8763   -0.8977 H   0  0  0  0  0  0  0  0  0  0  0  0
   -2.4694   -1.9207   -0.8377 H   0  0  0  0  0  0  0  0  0  0  0  0
   -3.0384   -0.3108   -1.1649 H   0  0  0  0  0  0  0  0  0  0  0  0
   -1.6440   -0.9656   -2.0459 H   0  0  0  0  0  0  0  0  0  0  0  0
   -2.7960    0.3879    1.2986 H   0  0  0  0  0  0  0  0  0  0  0  0
   -2.1118   -1.1446    1.8037 H   0  0  0  0  0  0  0  0  0  0  0  0
   -1.2174    0.3258    2.0995 H   0  0  0  0  0  0  0  0  0  0  0  0
   -0.7223    1.1257   -1.6267 H   0  0  0  0  0  0  0  0  0  0  0  0
   -1.8355    1.7641   -0.4279 H   0  0  0  0  0  0  0  0  0  0  0  0
    0.3451    2.8633   -0.2439 H   0  0  0  0  0  0  0  0  0  0  0  0
    0.0656    1.9238    1.2136 H   0  0  0  0  0  0  0  0  0  0  0  0
    2.2844    1.4283    0.5385 H   0  0  0  0  0  0  0  0  0  0  0  0
    1.8489    1.2637   -1.1608 H   0  0  0  0  0  0  0  0  0  0  0  0
  1  2  1  0  0  0  0
  1 23  1  0  0  0  0
  1 24  1  0  0  0  0
  1 25  1  0  0  0  0
  2  3  2  0  0  0  0
  2 22  1  0  0  0  0
  3  4  1  0  0  0  0
  3 17  1  0  0  0  0
  4  5  2  0  0  0  0
  4 26  1  0  0  0  0
  5  6  1  0  0  0  0
  5 27  1  0  0  0  0
  6  7  2  0  0  0  0
  6  8  1  0  0  0  0
  8  9  1  0  0  0  0
  8 13  1  0  0  0  0
  9 10  1  0  0  0  0
  9 28  1  0  0  0  0
  9 29  1  0  0  0  0
 10 11  1  0  0  0  0
 10 30  1  0  0  0  0
 10 31  1  0  0  0  0
 11 12  1  0  0  0  0
 11 14  1  0  0  0  0
 12 13  1  0  0  0  0
 12 32  1  0  0  0  0
 12 33  1  0  0  0  0
 13 34  1  0  0  0  0
 13 35  1  0  0  0  0
 14 15  1  0  0  0  0
 14 16  2  0  0  0  0
 15 36  1  0  0  0  0
 15 37  1  0  0  0  0
 17 18  1  0  0  0  0
 17 19  1  0  0  0  0
 17 20  1  0  0  0  0
 18 38  1  0  0  0  0
 18 39  1  0  0  0  0
 18 40  1  0  0  0  0
 19 41  1  0  0  0  0
 19 42  1  0  0  0  0
 19 43  1  0  0  0  0
 20 21  1  0  0  0  0
 20 44  1  0  0  0  0
 20 45  1  0  0  0  0
 21 22  1  0  0  0  0
 21 46  1  0  0  0  0
 21 47  1  0  0  0  0
 22 48  1  0  0  0  0
 22 49  1  0  0  0  0
M  END
>  <DRUGBANK_ID>
DB17820

>  <COMMON_NAME>
BC9KBY85WY

>  <CAS_NUMBER>
1259013-14-3

>  <UNII>
BC9KBY85WY

>  <SYNONYMS>
1-piperazinecarboxamide, 4-((2e)-1-oxo-3-(2,6,6-trimethyl-1-cyclohexen-1-yl)-2-propen-1-yl)-; 4-((2E)-1-Oxo-3-(2,6,6-trimethyl-1-cyclohexen-1-yl)-2-propen-1-yl)-1-piperazinecarboxamide

$$$$
