
 OpenBabel10282417103D

 57 61  0  0  0  0  0  0  0  0999 V2000
    0.3165   -0.4512   -0.7746 C   0  0  0  0  0  0  0  0  0  0  0  0
    0.1558    0.7315   -0.1008 C   0  0  0  0  0  0  0  0  0  0  0  0
    1.4313   -1.0995   -0.3392 C   0  0  0  0  0  0  0  0  0  0  0  0
    1.1870    1.6600    0.0636 C   0  0  0  0  0  0  0  0  0  0  0  0
   -2.5255   -0.5996   -0.9015 C   0  0  0  0  0  0  0  0  0  0  0  0
    2.5728   -0.3191   -0.0018 C   0  0  0  0  0  0  0  0  0  0  0  0
   -1.6958   -1.2601    1.1088 C   0  0  0  0  0  0  0  0  0  0  0  0
    2.4403    1.1016    0.0220 C   0  0  0  0  0  0  0  0  0  0  0  0
   -2.9474   -0.2508    2.5257 C   0  0  0  0  0  0  0  0  0  0  0  0
   -2.5491    0.7168    0.4547 C   0  0  2  0  0  0  0  0  0  0  0  0
   -3.1881    1.5622    0.1926 H   0  0  0  0  0  0  0  0  0  0  0  0
   -1.1729    0.5446    0.2249 C   0  0  1  0  0  0  0  0  0  0  0  0
   -0.8461   -1.2995   -1.1417 C   0  0  0  0  0  0  0  0  0  0  0  0
   -0.3321   -2.5481   -0.7673 C   0  0  0  0  0  0  0  0  0  0  0  0
   -2.0989    0.7665    1.9722 N   0  0  0  0  0  0  0  0  0  0  0  0
   -0.6578    0.5954    2.5530 C   0  0  0  0  0  0  0  0  0  0  0  0
   -3.1894   -1.4068    1.7107 C   0  0  2  0  0  0  0  0  0  0  0  0
   -4.1930   -2.1705    2.6271 C   0  0  0  0  0  0  0  0  0  0  0  0
   -0.7664    2.4374   -1.8726 C   0  0  0  0  0  0  0  0  0  0  0  0
   -1.5831    1.4105   -1.2004 O   0  0  0  0  0  0  0  0  0  0  0  0
   -5.5334   -1.3264    2.6319 O   0  0  0  0  0  0  0  0  0  0  0  0
   -5.9037   -0.0219    2.9978 C   0  0  0  0  0  0  0  0  0  0  0  0
   -6.9960    0.4160    2.6473 O   0  0  0  0  0  0  0  0  0  0  0  0
   -5.0344    0.9206    3.8354 C   0  0  0  0  0  0  0  0  0  0  0  0
   -5.2447    1.1921    5.1518 C   0  0  0  0  0  0  0  0  0  0  0  0
   -4.0813    1.8041    3.3446 C   0  0  0  0  0  0  0  0  0  0  0  0
   -2.9498    2.1747    4.0325 N   0  0  0  0  0  0  0  0  0  0  0  0
   -2.9787    2.0384    5.3420 C   0  0  0  0  0  0  0  0  0  0  0  0
   -4.2137    1.8048    5.9016 C   0  0  0  0  0  0  0  0  0  0  0  0
   -4.6168    2.6983    7.5013 Br  0  0  0  0  0  0  0  0  0  0  0  0
    0.9895   -2.3945   -0.3049 N   0  0  0  0  0  0  0  0  0  0  0  0
    1.7824   -3.5219    0.0878 C   0  0  0  0  0  0  0  0  0  0  0  0
    1.0234    2.7299    0.2053 H   0  0  0  0  0  0  0  0  0  0  0  0
   -3.2112   -1.4184   -0.7053 H   0  0  0  0  0  0  0  0  0  0  0  0
   -2.8493   -0.1647   -1.8501 H   0  0  0  0  0  0  0  0  0  0  0  0
    3.5302   -0.7654    0.2081 H   0  0  0  0  0  0  0  0  0  0  0  0
   -1.7973   -2.2081    0.6224 H   0  0  0  0  0  0  0  0  0  0  0  0
   -1.0091   -1.5632    1.9128 H   0  0  0  0  0  0  0  0  0  0  0  0
    3.3054    1.7564    0.1104 H   0  0  0  0  0  0  0  0  0  0  0  0
   -2.7967   -0.4872    3.5825 H   0  0  0  0  0  0  0  0  0  0  0  0
   -3.8935    0.1165    2.2205 H   0  0  0  0  0  0  0  0  0  0  0  0
   -0.8707   -3.4350   -0.4290 H   0  0  0  0  0  0  0  0  0  0  0  0
   -0.0135   -0.2070    2.1468 H   0  0  0  0  0  0  0  0  0  0  0  0
   -0.0192    1.4619    2.3823 H   0  0  0  0  0  0  0  0  0  0  0  0
   -0.6645    0.3338    3.6138 H   0  0  0  0  0  0  0  0  0  0  0  0
   -3.9076   -1.2685    0.8952 H   0  0  0  0  0  0  0  0  0  0  0  0
   -4.4745   -3.1463    2.2012 H   0  0  0  0  0  0  0  0  0  0  0  0
   -3.9795   -2.2943    3.6905 H   0  0  0  0  0  0  0  0  0  0  0  0
   -0.7444    3.4173   -1.3690 H   0  0  0  0  0  0  0  0  0  0  0  0
    0.2532    2.1143   -2.1146 H   0  0  0  0  0  0  0  0  0  0  0  0
   -1.1769    2.6419   -2.8771 H   0  0  0  0  0  0  0  0  0  0  0  0
   -6.2576    1.0904    5.5075 H   0  0  0  0  0  0  0  0  0  0  0  0
   -3.9948    2.0192    2.2809 H   0  0  0  0  0  0  0  0  0  0  0  0
   -2.0706    2.3380    5.8584 H   0  0  0  0  0  0  0  0  0  0  0  0
    2.4953   -3.6034   -0.7277 H   0  0  0  0  0  0  0  0  0  0  0  0
    2.2660   -3.3541    1.0531 H   0  0  0  0  0  0  0  0  0  0  0  0
    1.1356   -4.4007    0.1339 H   0  0  0  0  0  0  0  0  0  0  0  0
  1  2  2  0  0  0  0
  1 13  1  0  0  0  0
  1  3  1  0  0  0  0
  2 12  1  0  0  0  0
  2  4  1  0  0  0  0
  3 31  1  0  0  0  0
  3  6  2  0  0  0  0
  4  8  2  0  0  0  0
  4 33  1  0  0  0  0
  5 10  1  0  0  0  0
  5 34  1  0  0  0  0
  5 35  1  0  0  0  0
  6  8  1  0  0  0  0
  6 36  1  0  0  0  0
  7 17  1  0  0  0  0
  7 37  1  0  0  0  0
  7 38  1  0  0  0  0
  8 39  1  0  0  0  0
  9 40  1  0  0  0  0
  9 41  1  0  0  0  0
 10 15  1  0  0  0  0
 10 11  1  6  0  0  0
 12 10  1  0  0  0  0
 12  7  1  0  0  0  0
 12 20  1  6  0  0  0
 13  5  1  0  0  0  0
 13 14  2  0  0  0  0
 14 31  1  0  0  0  0
 14 42  1  0  0  0  0
 15  9  1  0  0  0  0
 15 16  1  0  0  0  0
 16 43  1  0  0  0  0
 16 44  1  0  0  0  0
 16 45  1  0  0  0  0
 17  9  1  0  0  0  0
 17 18  1  0  0  0  0
 17 46  1  6  0  0  0
 18 21  1  0  0  0  0
 18 47  1  0  0  0  0
 18 48  1  0  0  0  0
 19 49  1  0  0  0  0
 19 50  1  0  0  0  0
 19 51  1  0  0  0  0
 20 19  1  0  0  0  0
 21 22  1  0  0  0  0
 22 24  1  0  0  0  0
 22 23  2  0  0  0  0
 24 25  1  0  0  0  0
 25 29  2  0  0  0  0
 25 52  1  0  0  0  0
 26 24  2  0  0  0  0
 26 53  1  0  0  0  0
 27 26  1  0  0  0  0
 27 28  2  0  0  0  0
 28 54  1  0  0  0  0
 29 28  1  0  0  0  0
 29 30  1  0  0  0  0
 31 32  1  0  0  0  0
 32 55  1  0  0  0  0
 32 56  1  0  0  0  0
 32 57  1  0  0  0  0
M  END
>  <DRUGBANK_ID>
DB00699

>  <SECONDARY_ACCESSION_NUMBERS>
APRD00617

>  <COMMON_NAME>
Nicergoline

>  <CAS_NUMBER>
27848-84-6

>  <UNII>
JCV8365FWN

>  <SYNONYMS>
(8β)-10-methoxy-1,6-dimethylergoline-8-methanol 5-bromo-3-pyridinecarboxylate (ester); 10-methoxy-1,6-dimethylergoline-8β-methanol 5-bromonicotinate; Nicergolin; Nicergolina; Nicergoline; Nicergolinum

$$$$
