969
 OpenBabel10282417113D

 40 43  0  0  0  0  0  0  0  0999 V2000
    1.1891    0.1096   -0.2371 O   0  0  0  0  0  0  0  0  0  0  0  0
    3.1416   -1.1406   -0.0793 N   0  0  0  0  0  0  0  0  0  0  0  0
    5.0119    2.4783    0.6138 N   0  0  0  0  0  0  0  0  0  0  0  0
    0.4989   -2.3120   -1.4401 N   0  0  0  0  0  0  0  0  0  0  0  0
    0.3602   -4.4976   -1.1593 N   0  0  0  0  0  0  0  0  0  0  0  0
    4.5598    1.1826    0.5112 C   0  0  0  0  0  0  0  0  0  0  0  0
    5.3245   -0.0880    0.6735 C   0  0  0  0  0  0  0  0  0  0  0  0
    3.2114    1.2178    0.2029 C   0  0  0  0  0  0  0  0  0  0  0  0
    4.3032   -1.2447    0.8140 C   0  0  0  0  0  0  0  0  0  0  0  0
    2.8329    2.5728    0.0950 C   0  0  0  0  0  0  0  0  0  0  0  0
    3.9649    3.3531    0.3541 C   0  0  0  0  0  0  0  0  0  0  0  0
    2.3992    0.0326   -0.0365 C   0  0  0  0  0  0  0  0  0  0  0  0
    3.0143   -1.9872   -1.2580 C   0  0  0  0  0  0  0  0  0  0  0  0
    6.3690    2.8653    0.9376 C   0  0  0  0  0  0  0  0  0  0  0  0
    1.6100    3.1898   -0.2261 C   0  0  0  0  0  0  0  0  0  0  0  0
    3.8890    4.7565    0.3140 C   0  0  0  0  0  0  0  0  0  0  0  0
    1.7669   -2.8193   -1.2492 C   0  0  0  0  0  0  0  0  0  0  0  0
    1.5286    4.5760   -0.2659 C   0  0  0  0  0  0  0  0  0  0  0  0
    2.6539    5.3465    0.0033 C   0  0  0  0  0  0  0  0  0  0  0  0
    1.6979   -4.1930   -1.1328 C   0  0  0  0  0  0  0  0  0  0  0  0
    2.7828   -5.1819   -1.0017 C   0  0  0  0  0  0  0  0  0  0  0  0
   -0.3241   -3.3278   -1.3248 C   0  0  0  0  0  0  0  0  0  0  0  0
   -0.0562   -5.4140   -1.0713 H   0  0  0  0  0  0  0  0  0  0  0  0
    5.9589   -0.2568   -0.2028 H   0  0  0  0  0  0  0  0  0  0  0  0
    5.9627   -0.0551    1.5638 H   0  0  0  0  0  0  0  0  0  0  0  0
    4.7760   -2.2285    0.7365 H   0  0  0  0  0  0  0  0  0  0  0  0
    3.8707   -1.1812    1.8229 H   0  0  0  0  0  0  0  0  0  0  0  0
    3.0774   -1.3950   -2.1784 H   0  0  0  0  0  0  0  0  0  0  0  0
    3.8872   -2.6469   -1.2720 H   0  0  0  0  0  0  0  0  0  0  0  0
    6.6167    2.4704    1.9264 H   0  0  0  0  0  0  0  0  0  0  0  0
    7.0423    2.4543    0.1807 H   0  0  0  0  0  0  0  0  0  0  0  0
    6.4645    3.9531    0.9520 H   0  0  0  0  0  0  0  0  0  0  0  0
    0.7371    2.5771   -0.4412 H   0  0  0  0  0  0  0  0  0  0  0  0
    4.7503    5.3839    0.5138 H   0  0  0  0  0  0  0  0  0  0  0  0
    0.5775    5.0404   -0.5086 H   0  0  0  0  0  0  0  0  0  0  0  0
    2.5693    6.4294   -0.0307 H   0  0  0  0  0  0  0  0  0  0  0  0
    2.7156   -5.7045   -0.0465 H   0  0  0  0  0  0  0  0  0  0  0  0
    2.7634   -5.8921   -1.8311 H   0  0  0  0  0  0  0  0  0  0  0  0
    3.7604   -4.6910   -1.0302 H   0  0  0  0  0  0  0  0  0  0  0  0
   -1.4061   -3.2785   -1.3574 H   0  0  0  0  0  0  0  0  0  0  0  0
  1 12  2  0  0  0  0
  2  9  1  0  0  0  0
  2 12  1  0  0  0  0
  2 13  1  0  0  0  0
  3  6  1  0  0  0  0
  3 11  1  0  0  0  0
  3 14  1  0  0  0  0
  4 17  1  0  0  0  0
  4 22  2  0  0  0  0
  5 20  1  0  0  0  0
  5 22  1  0  0  0  0
  5 23  1  0  0  0  0
  6  7  1  0  0  0  0
  6  8  2  0  0  0  0
  7  9  1  0  0  0  0
  7 24  1  0  0  0  0
  7 25  1  0  0  0  0
  8 10  1  0  0  0  0
  8 12  1  0  0  0  0
  9 26  1  0  0  0  0
  9 27  1  0  0  0  0
 10 11  1  0  0  0  0
 10 15  2  0  0  0  0
 11 16  2  0  0  0  0
 13 17  1  0  0  0  0
 13 28  1  0  0  0  0
 13 29  1  0  0  0  0
 14 30  1  0  0  0  0
 14 31  1  0  0  0  0
 14 32  1  0  0  0  0
 15 18  1  0  0  0  0
 15 33  1  0  0  0  0
 16 19  1  0  0  0  0
 16 34  1  0  0  0  0
 17 20  2  0  0  0  0
 18 19  2  0  0  0  0
 18 35  1  0  0  0  0
 19 36  1  0  0  0  0
 20 21  1  0  0  0  0
 21 37  1  0  0  0  0
 21 38  1  0  0  0  0
 21 39  1  0  0  0  0
 22 40  1  0  0  0  0
M  END
>  <DRUGBANK_ID>
DB00969

>  <SECONDARY_ACCESSION_NUMBERS>
APRD00580

>  <COMMON_NAME>
Alosetron

>  <CAS_NUMBER>
122852-42-0

>  <UNII>
13Z9HTH115

>  <SYNONYMS>
2,3,4,5-Tetrahydro-5-methyl-2-((5-methyl-1H-imidazol-4-yl)methyl)-1H-pyrido(4,3-b)indol-1-one; Alosetron

$$$$
