
 OpenBabel10282417133D

 86 90  0  0  0  0  0  0  0  0999 V2000
    0.7533    0.1086   -0.0831 C   0  0  0  0  0  0  0  0  0  0  0  0
    3.3373   -3.4247    0.5991 C   0  0  0  0  0  0  0  0  0  0  0  0
    3.0717   -1.1159    1.3942 C   0  0  0  0  0  0  0  0  0  0  0  0
    1.1312   -2.2706    0.1165 C   0  0  2  0  0  0  0  0  0  0  0  0
    0.2239   -3.5511    0.1424 C   0  0  2  0  0  0  0  0  0  0  0  0
   -0.1948   -3.6248    1.5722 C   0  0  2  0  0  0  0  0  0  0  0  0
    1.0141   -3.9381    2.4680 C   0  0  1  0  0  0  0  0  0  0  0  0
    2.3201   -2.4243    1.1423 C   0  0  0  0  0  0  0  0  0  0  0  0
    1.9419   -3.4359    6.2466 Cl  0  0  0  0  0  0  0  0  0  0  0  0
   -0.1383   -3.6067    4.5132 C   0  0  0  0  0  0  0  0  0  0  0  0
    0.3256   -3.1278    5.7356 C   0  0  0  0  0  0  0  0  0  0  0  0
   -0.5603   -2.4140    6.5289 C   0  0  0  0  0  0  0  0  0  0  0  0
   -1.0197   -0.9341    8.3988 C   0  0  0  0  0  0  0  0  0  0  0  0
   -2.4778   -0.9106    8.0002 C   0  0  0  0  0  0  0  0  0  0  0  0
   -2.8575   -1.6378    6.9444 C   0  0  0  0  0  0  0  0  0  0  0  0
   -1.9004   -2.3825    6.1974 C   0  0  0  0  0  0  0  0  0  0  0  0
   -2.3783   -2.9957    5.0686 C   0  0  0  0  0  0  0  0  0  0  0  0
   -1.4786   -3.4466    4.1766 C   0  0  0  0  0  0  0  0  0  0  0  0
   -4.7010   -0.0014    8.5904 C   0  0  0  0  0  0  0  0  0  0  0  0
   -5.4469    0.7559    9.5516 C   0  0  0  0  0  0  0  0  0  0  0  0
   -5.0605    2.0496    9.8283 C   0  0  0  0  0  0  0  0  0  0  0  0
   -5.8748    2.8006   10.6611 C   0  0  0  0  0  0  0  0  0  0  0  0
   -6.9224    2.1501   11.3435 C   0  0  0  0  0  0  0  0  0  0  0  0
   -7.2690    0.8369   11.0741 C   0  0  0  0  0  0  0  0  0  0  0  0
   -6.6223    0.1913   10.0501 C   0  0  0  0  0  0  0  0  0  0  0  0
   -5.5648    4.2616   10.7717 C   0  0  0  0  0  0  0  0  0  0  0  0
   -6.7490    5.1042   10.3950 C   0  0  0  0  0  0  0  0  0  0  0  0
   -7.3767    5.9224   11.2589 C   0  0  0  0  0  0  0  0  0  0  0  0
   -8.5967    6.6928   10.8522 C   0  0  0  0  0  0  0  0  0  0  0  0
   -6.8932    6.0893   12.6766 C   0  0  0  0  0  0  0  0  0  0  0  0
   -3.3385   -0.1392    8.7700 N   0  0  0  0  0  0  0  0  0  0  0  0
    0.3335   -1.1176    0.5068 O   0  0  0  0  0  0  0  0  0  0  0  0
    0.8757   -4.7832   -0.3934 O   0  0  0  0  0  0  0  0  0  0  0  0
    1.8821   -2.8093    2.4686 O   0  0  0  0  0  0  0  0  0  0  0  0
    0.6694   -4.4039    3.7700 O   0  0  0  0  0  0  0  0  0  0  0  0
   -4.0974   -1.7637    6.3799 O   0  0  0  0  0  0  0  0  0  0  0  0
   -0.1303   -1.7170    7.6625 O   0  0  0  0  0  0  0  0  0  0  0  0
   -0.6322   -0.2776    9.3638 O   0  0  0  0  0  0  0  0  0  0  0  0
   -5.4154   -0.4562    7.7058 O   0  0  0  0  0  0  0  0  0  0  0  0
   -7.7057    2.7486   12.2804 O   0  0  0  0  0  0  0  0  0  0  0  0
   -1.6891   -7.1088    2.3173 C   0  0  0  0  0  0  0  0  0  0  0  0
   -1.2670   -6.8010    0.9856 C   0  0  0  0  0  0  0  0  0  0  0  0
    0.1176   -6.6705    0.9993 C   0  0  0  0  0  0  0  0  0  0  0  0
    0.5235   -7.2280    2.2110 N   0  0  0  0  0  0  0  0  0  0  0  0
   -0.5591   -7.3792    3.0578 C   0  0  0  0  0  0  0  0  0  0  0  0
   -0.4215   -7.7335    4.4983 C   0  0  0  0  0  0  0  0  0  0  0  0
    1.0261   -6.0978    0.0197 C   0  0  0  0  0  0  0  0  0  0  0  0
    2.0112   -6.7306   -0.3832 O   0  0  0  0  0  0  0  0  0  0  0  0
   -1.3163   -4.4553    1.6239 O   0  0  0  0  0  0  0  0  0  0  0  0
    0.3782    0.9493    0.5103 H   0  0  0  0  0  0  0  0  0  0  0  0
    0.3746    0.1556   -1.1011 H   0  0  0  0  0  0  0  0  0  0  0  0
    1.8341    0.2194   -0.1381 H   0  0  0  0  0  0  0  0  0  0  0  0
    3.6659   -3.1265   -0.4006 H   0  0  0  0  0  0  0  0  0  0  0  0
    4.1936   -3.5050    1.2706 H   0  0  0  0  0  0  0  0  0  0  0  0
    2.9477   -4.4343    0.5282 H   0  0  0  0  0  0  0  0  0  0  0  0
    2.4210   -0.3668    1.8619 H   0  0  0  0  0  0  0  0  0  0  0  0
    3.8916   -1.2542    2.1041 H   0  0  0  0  0  0  0  0  0  0  0  0
    3.4972   -0.7327    0.4627 H   0  0  0  0  0  0  0  0  0  0  0  0
    1.4718   -2.1134   -0.9095 H   0  0  0  0  0  0  0  0  0  0  0  0
   -0.6583   -3.4031   -0.4919 H   0  0  0  0  0  0  0  0  0  0  0  0
   -0.5898   -2.6562    1.8788 H   0  0  0  0  0  0  0  0  0  0  0  0
    1.6207   -4.7659    2.1051 H   0  0  0  0  0  0  0  0  0  0  0  0
   -3.4309   -3.0440    4.7933 H   0  0  0  0  0  0  0  0  0  0  0  0
   -1.9875   -3.6247    3.2528 H   0  0  0  0  0  0  0  0  0  0  0  0
   -4.1955    2.4822    9.3313 H   0  0  0  0  0  0  0  0  0  0  0  0
   -8.0574    0.3437   11.6312 H   0  0  0  0  0  0  0  0  0  0  0  0
   -7.0207   -0.7372    9.6480 H   0  0  0  0  0  0  0  0  0  0  0  0
   -5.2111    4.4293   11.7900 H   0  0  0  0  0  0  0  0  0  0  0  0
   -4.7345    4.5424   10.1105 H   0  0  0  0  0  0  0  0  0  0  0  0
   -7.1246    4.9898    9.3757 H   0  0  0  0  0  0  0  0  0  0  0  0
   -9.4502    6.4120   11.4773 H   0  0  0  0  0  0  0  0  0  0  0  0
   -8.4112    7.7646   10.9606 H   0  0  0  0  0  0  0  0  0  0  0  0
   -8.8755    6.5044    9.8091 H   0  0  0  0  0  0  0  0  0  0  0  0
   -6.9148    5.1439   13.2295 H   0  0  0  0  0  0  0  0  0  0  0  0
   -5.8595    6.4495   12.6799 H   0  0  0  0  0  0  0  0  0  0  0  0
   -7.5094    6.7929   13.2367 H   0  0  0  0  0  0  0  0  0  0  0  0
   -2.8911    0.3111    9.5685 H   0  0  0  0  0  0  0  0  0  0  0  0
   -4.7562   -1.2204    6.8365 H   0  0  0  0  0  0  0  0  0  0  0  0
   -7.6230    3.7026   12.1589 H   0  0  0  0  0  0  0  0  0  0  0  0
   -2.6858   -6.9635    2.7249 H   0  0  0  0  0  0  0  0  0  0  0  0
   -1.9043   -6.3834    0.2131 H   0  0  0  0  0  0  0  0  0  0  0  0
    1.4891   -7.3033    2.5090 H   0  0  0  0  0  0  0  0  0  0  0  0
   -0.0501   -8.7582    4.5814 H   0  0  0  0  0  0  0  0  0  0  0  0
    0.2644   -7.0679    5.0336 H   0  0  0  0  0  0  0  0  0  0  0  0
   -1.3904   -7.6871    5.0112 H   0  0  0  0  0  0  0  0  0  0  0  0
   -1.1822   -4.9933    2.4292 H   0  0  0  0  0  0  0  0  0  0  0  0
  1 32  1  0  0  0  0
  1 50  1  0  0  0  0
  1 51  1  0  0  0  0
  1 52  1  0  0  0  0
  2 53  1  0  0  0  0
  2 54  1  0  0  0  0
  2 55  1  0  0  0  0
  3  8  1  0  0  0  0
  3 56  1  0  0  0  0
  3 57  1  0  0  0  0
  3 58  1  0  0  0  0
  4  5  1  0  0  0  0
  4  8  1  0  0  0  0
  4 32  1  0  0  0  0
  4 59  1  6  0  0  0
  5  6  1  0  0  0  0
  5 60  1  6  0  0  0
  5 33  1  0  0  0  0
  6  7  1  0  0  0  0
  6 61  1  1  0  0  0
  6 49  1  0  0  0  0
  7 34  1  0  0  0  0
  7 35  1  0  0  0  0
  7 62  1  6  0  0  0
  8  2  1  0  0  0  0
  8 34  1  0  0  0  0
 10 11  2  0  0  0  0
 10 18  1  0  0  0  0
 10 35  1  0  0  0  0
 11  9  1  0  0  0  0
 11 12  1  0  0  0  0
 12 37  1  0  0  0  0
 13 14  1  0  0  0  0
 13 37  1  0  0  0  0
 13 38  2  0  0  0  0
 14 15  2  0  0  0  0
 14 31  1  0  0  0  0
 15 36  1  0  0  0  0
 16 12  2  0  0  0  0
 16 15  1  0  0  0  0
 16 17  1  0  0  0  0
 17 18  2  0  0  0  0
 17 63  1  0  0  0  0
 18 64  1  0  0  0  0
 19 20  1  0  0  0  0
 19 31  1  0  0  0  0
 19 39  2  0  0  0  0
 20 21  2  0  0  0  0
 20 25  1  0  0  0  0
 21 22  1  0  0  0  0
 21 65  1  0  0  0  0
 22 23  2  0  0  0  0
 22 26  1  0  0  0  0
 23 24  1  0  0  0  0
 23 40  1  0  0  0  0
 24 25  2  0  0  0  0
 24 66  1  0  0  0  0
 25 67  1  0  0  0  0
 26 27  1  0  0  0  0
 26 68  1  0  0  0  0
 26 69  1  0  0  0  0
 27 28  2  0  0  0  0
 27 70  1  0  0  0  0
 28 29  1  0  0  0  0
 28 30  1  0  0  0  0
 29 71  1  0  0  0  0
 29 72  1  0  0  0  0
 29 73  1  0  0  0  0
 30 74  1  0  0  0  0
 30 75  1  0  0  0  0
 30 76  1  0  0  0  0
 31 77  1  0  0  0  0
 36 78  1  0  0  0  0
 40 79  1  0  0  0  0
 41 42  1  0  0  0  0
 41 45  2  0  0  0  0
 41 80  1  0  0  0  0
 42 43  2  0  0  0  0
 42 81  1  0  0  0  0
 43 44  1  0  0  0  0
 44 82  1  0  0  0  0
 45 44  1  0  0  0  0
 45 46  1  0  0  0  0
 46 83  1  0  0  0  0
 46 84  1  0  0  0  0
 46 85  1  0  0  0  0
 47 33  1  0  0  0  0
 47 43  1  0  0  0  0
 47 48  2  0  0  0  0
 49 86  1  0  0  0  0
M  END
>  <DRUGBANK_ID>
DB03966

>  <SECONDARY_ACCESSION_NUMBERS>
EXPT00847

>  <COMMON_NAME>
Clorobiocin

>  <CAS_NUMBER>
39868-96-7

>  <SYNONYMS>
Chlorobiocin

$$$$
