1275
 OpenBabel10282417113D

 20 21  0  0  0  0  0  0  0  0999 V2000
    0.9630   -0.0139    0.1577 N   0  0  0  0  0  0  0  0  0  0  0  0
   -0.7775   -1.6514   -0.3398 N   0  0  0  0  0  0  0  0  0  0  0  0
   -1.4254   -2.8325   -0.0585 N   0  0  0  0  0  0  0  0  0  0  0  0
    0.2710    1.0431   -0.4407 N   0  0  0  0  0  0  0  0  0  0  0  0
    0.7238   -2.0124    1.5006 C   0  0  0  0  0  0  0  0  0  0  0  0
    0.0415   -3.2099    1.8053 C   0  0  0  0  0  0  0  0  0  0  0  0
    0.2831   -1.2513    0.4017 C   0  0  0  0  0  0  0  0  0  0  0  0
    1.7659   -1.5986    2.3573 C   0  0  0  0  0  0  0  0  0  0  0  0
    0.4237   -3.9608    2.9304 C   0  0  0  0  0  0  0  0  0  0  0  0
    2.1129   -2.3310    3.4874 C   0  0  0  0  0  0  0  0  0  0  0  0
   -1.0159   -3.5762    0.9855 C   0  0  0  0  0  0  0  0  0  0  0  0
    1.4439   -3.5164    3.7716 C   0  0  0  0  0  0  0  0  0  0  0  0
    1.9242   -0.1971   -0.1374 H   0  0  0  0  0  0  0  0  0  0  0  0
   -0.4132    1.3904    0.2411 H   0  0  0  0  0  0  0  0  0  0  0  0
    0.8944    1.8352   -0.6076 H   0  0  0  0  0  0  0  0  0  0  0  0
    2.2943   -0.6644    2.1692 H   0  0  0  0  0  0  0  0  0  0  0  0
   -0.0912   -4.8889    3.1750 H   0  0  0  0  0  0  0  0  0  0  0  0
    2.8932   -1.9647    4.1481 H   0  0  0  0  0  0  0  0  0  0  0  0
   -1.5912   -4.4821    1.1580 H   0  0  0  0  0  0  0  0  0  0  0  0
    1.7103   -4.0859    4.6573 H   0  0  0  0  0  0  0  0  0  0  0  0
  1  4  1  0  0  0  0
  1  7  1  0  0  0  0
  1 13  1  0  0  0  0
  2  3  1  0  0  0  0
  2  7  2  0  0  0  0
  3 11  2  0  0  0  0
  4 14  1  0  0  0  0
  4 15  1  0  0  0  0
  5  6  1  0  0  0  0
  5  7  1  0  0  0  0
  5  8  2  0  0  0  0
  6  9  2  0  0  0  0
  6 11  1  0  0  0  0
  8 10  1  0  0  0  0
  8 16  1  0  0  0  0
  9 12  1  0  0  0  0
  9 17  1  0  0  0  0
 10 12  2  0  0  0  0
 10 18  1  0  0  0  0
 11 19  1  0  0  0  0
 12 20  1  0  0  0  0
M  END
>  <DRUGBANK_ID>
DB01275

>  <COMMON_NAME>
Hydralazine

>  <CAS_NUMBER>
86-54-4

>  <UNII>
26NAK24LS8

>  <SYNONYMS>
(1Z)-1(2H)-Phthalazinone hydrazone; (2H)-Phthalazinone hydrazone; 1-Hydrazinophthalazine; 1-Phthalazinylhydrazine; 6-Hydralazine; Hidralazina; Hydralazin; Hydralazine; Hydralazinum; Hydrallazine; Hydrazinophthalazine; Hydrazone 1(2H)-phthalazinone; Hypophthalin; Idralazina; Phthalazin-1-ylhydrazine

$$$$
