
 OpenBabel10282417193D

 50 53  0  0  1  0  0  0  0  0999 V2000
    2.8192   -0.0654   -0.2491 C   0  0  0  0  0  0  0  0  0  0  0  0
    2.4010    1.2441   -0.2030 C   0  0  0  0  0  0  0  0  0  0  0  0
    1.0337    1.5238   -0.1616 C   0  0  0  0  0  0  0  0  0  0  0  0
    0.0818    0.4910   -0.0985 C   0  0  0  0  0  0  0  0  0  0  0  0
    0.4873   -0.8315   -0.1487 C   0  0  0  0  0  0  0  0  0  0  0  0
    1.8633   -1.0673   -0.3301 C   0  0  0  0  0  0  0  0  0  0  0  0
   -0.5272   -1.9458    0.1393 C   0  0  1  0  0  0  0  0  0  0  0  0
   -1.9053   -1.6674   -0.4916 C   0  0  2  0  0  0  0  0  0  0  0  0
   -2.2566   -0.2616    0.0620 N   0  0  0  0  0  0  0  0  0  0  0  0
   -1.3497    0.8079    0.0421 C   0  0  0  0  0  0  0  0  0  0  0  0
   -1.6843    1.9817    0.1714 O   0  0  0  0  0  0  0  0  0  0  0  0
   -3.6526    0.1490    0.2166 C   0  0  0  0  0  0  0  0  0  0  0  0
   -4.3744    0.1636   -1.1221 C   0  0  0  0  0  0  0  0  0  0  0  0
   -3.7939   -0.7044   -1.9820 F   0  0  0  0  0  0  0  0  0  0  0  0
   -5.6689   -0.1870   -0.9567 F   0  0  0  0  0  0  0  0  0  0  0  0
   -4.3192    1.3228   -1.7930 F   0  0  0  0  0  0  0  0  0  0  0  0
   -3.0052   -2.7490   -0.2028 C   0  0  0  0  0  0  0  0  0  0  0  0
   -4.2676   -2.8350   -0.8371 C   0  0  0  0  0  0  0  0  0  0  0  0
   -5.2954   -3.6561   -0.4011 C   0  0  0  0  0  0  0  0  0  0  0  0
   -4.9745   -4.5946    0.5331 C   0  0  0  0  0  0  0  0  0  0  0  0
   -3.7581   -4.6757    1.1026 N   0  0  0  0  0  0  0  0  0  0  0  0
   -2.8323   -3.7471    0.7474 C   0  0  0  0  0  0  0  0  0  0  0  0
    0.1256   -3.3144   -0.0597 C   0  0  0  0  0  0  0  0  0  0  0  0
   -0.1054   -4.0148   -1.0422 O   0  0  0  0  0  0  0  0  0  0  0  0
    1.1512   -3.6383    0.8573 N   0  0  0  0  0  0  0  0  0  0  0  0
    1.4699   -2.8517    2.0126 C   0  0  0  0  0  0  0  0  0  0  0  0
    2.7312   -2.2559    2.2018 C   0  0  0  0  0  0  0  0  0  0  0  0
    2.9204   -1.2988    3.2152 C   0  0  0  0  0  0  0  0  0  0  0  0
    1.8783   -0.9926    4.0829 C   0  0  0  0  0  0  0  0  0  0  0  0
    0.6397   -1.5963    3.9315 C   0  0  0  0  0  0  0  0  0  0  0  0
    0.4530   -2.5344    2.9137 C   0  0  0  0  0  0  0  0  0  0  0  0
   -0.4344   -1.3043    4.8058 C   0  0  0  0  0  0  0  0  0  0  0  0
   -1.3584   -1.1307    5.5125 N   0  0  0  0  0  0  0  0  0  0  0  0
    2.0949   -0.1414    5.0938 F   0  0  0  0  0  0  0  0  0  0  0  0
    3.8725   -0.3342   -0.2081 H   0  0  0  0  0  0  0  0  0  0  0  0
    3.1404    2.0366   -0.2279 H   0  0  0  0  0  0  0  0  0  0  0  0
    0.7085    2.5599   -0.1680 H   0  0  0  0  0  0  0  0  0  0  0  0
    2.2693   -2.0666   -0.4274 H   0  0  0  0  0  0  0  0  0  0  0  0
   -0.7979   -1.8619    1.1865 H   0  0  0  0  0  0  0  0  0  0  0  0
   -1.7569   -1.5758   -1.5759 H   0  0  0  0  0  0  0  0  0  0  0  0
   -4.0859   -0.5302    0.9615 H   0  0  0  0  0  0  0  0  0  0  0  0
   -3.7415    1.1466    0.6692 H   0  0  0  0  0  0  0  0  0  0  0  0
   -4.5957   -2.3082   -1.7204 H   0  0  0  0  0  0  0  0  0  0  0  0
   -6.2848   -3.5615   -0.8389 H   0  0  0  0  0  0  0  0  0  0  0  0
   -5.6991   -5.3439    0.8203 H   0  0  0  0  0  0  0  0  0  0  0  0
   -1.9072   -3.8892    1.2866 H   0  0  0  0  0  0  0  0  0  0  0  0
    1.8906   -4.1584    0.3911 H   0  0  0  0  0  0  0  0  0  0  0  0
    3.5436   -2.3790    1.4863 H   0  0  0  0  0  0  0  0  0  0  0  0
    3.8647   -0.7677    3.3187 H   0  0  0  0  0  0  0  0  0  0  0  0
   -0.5302   -2.9844    2.8037 H   0  0  0  0  0  0  0  0  0  0  0  0
  1  2  2  0  0  0  0
  1  6  1  0  0  0  0
  1 35  1  0  0  0  0
  2  3  1  0  0  0  0
  2 36  1  0  0  0  0
  3  4  2  0  0  0  0
  3 37  1  0  0  0  0
  4  5  1  0  0  0  0
  4 10  1  0  0  0  0
  5  6  2  0  0  0  0
  5  7  1  0  0  0  0
  6 38  1  0  0  0  0
  7  8  1  0  0  0  0
  7 39  1  1  0  0  0
  7 23  1  0  0  0  0
  8  9  1  0  0  0  0
  8 17  1  0  0  0  0
  8 40  1  6  0  0  0
  9 10  1  0  0  0  0
  9 12  1  0  0  0  0
 10 11  2  0  0  0  0
 12 13  1  0  0  0  0
 12 41  1  0  0  0  0
 12 42  1  0  0  0  0
 13 14  1  0  0  0  0
 13 15  1  0  0  0  0
 13 16  1  0  0  0  0
 17 18  2  0  0  0  0
 17 22  1  0  0  0  0
 18 19  1  0  0  0  0
 18 43  1  0  0  0  0
 19 20  2  0  0  0  0
 19 44  1  0  0  0  0
 20 21  1  0  0  0  0
 20 45  1  0  0  0  0
 21 22  2  0  0  0  0
 22 46  1  0  0  0  0
 23 24  2  0  0  0  0
 23 25  1  0  0  0  0
 25 26  1  0  0  0  0
 25 47  1  0  0  0  0
 26 27  2  0  0  0  0
 26 31  1  0  0  0  0
 27 28  1  0  0  0  0
 27 48  1  0  0  0  0
 28 29  2  0  0  0  0
 28 49  1  0  0  0  0
 29 30  1  0  0  0  0
 29 34  1  0  0  0  0
 30 31  2  0  0  0  0
 30 32  1  0  0  0  0
 31 50  1  0  0  0  0
 32 33  3  0  0  0  0
M  END
>  <DRUGBANK_ID>
DB12659

>  <COMMON_NAME>
SJ-733

>  <CAS_NUMBER>
1424799-20-1

>  <UNII>
VT3A7NA96K

$$$$
