
 OpenBabel10282417243D

 54 57  0  0  1  0  0  0  0  0999 V2000
    0.1086   -0.2717   -2.0422 C   0  0  0  0  0  0  0  0  0  0  0  0
    0.6004    0.6341   -0.8990 C   0  0  1  0  0  0  0  0  0  0  0  0
    1.5827    1.6462   -1.5214 C   0  0  0  0  0  0  0  0  0  0  0  0
    2.0083    2.7552   -0.6709 N   0  0  3  0  0  0  0  0  0  0  0  0
    0.7850    3.4176   -0.0985 C   0  0  1  0  0  0  0  0  0  0  0  0
   -0.1708    4.3420   -0.9967 C   0  0  0  0  0  0  0  0  0  0  0  0
   -0.7819    3.7472   -2.2747 C   0  0  0  0  0  0  0  0  0  0  0  0
   -1.7648    2.7659   -2.1655 C   0  0  0  0  0  0  0  0  0  0  0  0
   -2.0930    1.9351   -3.2451 C   0  0  0  0  0  0  0  0  0  0  0  0
   -1.4363    2.0681   -4.4616 C   0  0  0  0  0  0  0  0  0  0  0  0
   -1.6811    0.9143   -5.7121 Cl  0  0  0  0  0  0  0  0  0  0  0  0
   -0.5541    3.1178   -4.6382 C   0  0  0  0  0  0  0  0  0  0  0  0
   -0.3193    4.0096   -3.5754 C   0  0  0  0  0  0  0  0  0  0  0  0
   -0.0721    2.3378    0.6282 C   0  0  0  0  0  0  0  0  0  0  0  0
   -0.4977    1.2651   -0.2300 O   0  0  0  0  0  0  0  0  0  0  0  0
    3.0365    3.6809   -1.2237 C   0  0  0  0  0  0  0  0  0  0  0  0
    2.6139    4.5108   -2.4367 C   0  0  0  0  0  0  0  0  0  0  0  0
    2.6886    3.7596   -3.7511 C   0  0  0  0  0  0  0  0  0  0  0  0
    4.0664    3.4152   -3.9355 N   0  0  0  0  0  0  0  0  0  0  0  0
    4.5526    2.4479   -2.9654 C   0  0  0  0  0  0  0  0  0  0  0  0
    4.4553    3.1320   -1.5835 C   0  0  0  0  0  0  0  0  0  0  0  0
    4.5654    3.5115   -5.1874 C   0  0  0  0  0  0  0  0  0  0  0  0
    5.0787    2.6382   -5.9944 N   0  0  0  0  0  0  0  0  0  0  0  0
    5.4862    3.4005   -7.0519 C   0  0  0  0  0  0  0  0  0  0  0  0
    6.0836    2.8225   -8.0701 N   0  0  0  0  0  0  0  0  0  0  0  0
    5.2541    4.7092   -6.9435 N   0  0  0  0  0  0  0  0  0  0  0  0
    4.6402    4.7581   -5.7586 N   0  0  0  0  0  0  0  0  0  0  0  0
    0.9292   -0.5538   -2.7117 H   0  0  0  0  0  0  0  0  0  0  0  0
   -0.6230    0.2109   -2.6772 H   0  0  0  0  0  0  0  0  0  0  0  0
   -0.3866   -1.1709   -1.6752 H   0  0  0  0  0  0  0  0  0  0  0  0
    1.1112    0.0087   -0.1639 H   0  0  0  0  0  0  0  0  0  0  0  0
    2.4328    1.0616   -1.8644 H   0  0  0  0  0  0  0  0  0  0  0  0
    1.0855    2.0506   -2.3913 H   0  0  0  0  0  0  0  0  0  0  0  0
    1.1550    4.0729    0.7067 H   0  0  0  0  0  0  0  0  0  0  0  0
   -1.0004    4.6884   -0.3687 H   0  0  0  0  0  0  0  0  0  0  0  0
    0.3377    5.2951   -1.1840 H   0  0  0  0  0  0  0  0  0  0  0  0
   -2.1986    2.5385   -1.1958 H   0  0  0  0  0  0  0  0  0  0  0  0
   -2.7455    1.0849   -3.0653 H   0  0  0  0  0  0  0  0  0  0  0  0
   -0.0006    3.2156   -5.5715 H   0  0  0  0  0  0  0  0  0  0  0  0
    0.3219    4.8574   -3.7842 H   0  0  0  0  0  0  0  0  0  0  0  0
    0.4634    1.9077    1.4821 H   0  0  0  0  0  0  0  0  0  0  0  0
   -0.9711    2.8203    1.0337 H   0  0  0  0  0  0  0  0  0  0  0  0
    3.2235    4.3827   -0.3970 H   0  0  0  0  0  0  0  0  0  0  0  0
    1.6320    4.8925   -2.3191 H   0  0  0  0  0  0  0  0  0  0  0  0
    3.2153    5.4250   -2.4868 H   0  0  0  0  0  0  0  0  0  0  0  0
    2.1006    2.8416   -3.7861 H   0  0  0  0  0  0  0  0  0  0  0  0
    2.2953    4.3882   -4.5576 H   0  0  0  0  0  0  0  0  0  0  0  0
    3.9619    1.5302   -2.9935 H   0  0  0  0  0  0  0  0  0  0  0  0
    5.5879    2.1672   -3.1741 H   0  0  0  0  0  0  0  0  0  0  0  0
    5.1076    4.0220   -1.6435 H   0  0  0  0  0  0  0  0  0  0  0  0
    4.8739    2.5111   -0.7882 H   0  0  0  0  0  0  0  0  0  0  0  0
    6.2246    1.8217   -8.0826 H   0  0  0  0  0  0  0  0  0  0  0  0
    6.5069    3.3775   -8.7998 H   0  0  0  0  0  0  0  0  0  0  0  0
    4.3576    5.6378   -5.3592 H   0  0  0  0  0  0  0  0  0  0  0  0
  1 28  1  0  0  0  0
  1 29  1  0  0  0  0
  1 30  1  0  0  0  0
  2  3  1  0  0  0  0
  2 15  1  0  0  0  0
  2 31  1  1  0  0  0
  2  1  1  0  0  0  0
  3  4  1  0  0  0  0
  3 32  1  0  0  0  0
  3 33  1  0  0  0  0
  4 16  1  0  0  0  0
  5  4  1  0  0  0  0
  5 14  1  0  0  0  0
  5 34  1  1  0  0  0
  5  6  1  0  0  0  0
  6  7  1  0  0  0  0
  6 35  1  0  0  0  0
  6 36  1  0  0  0  0
  7  8  2  0  0  0  0
  7 13  1  0  0  0  0
  8  9  1  0  0  0  0
  8 37  1  0  0  0  0
  9 10  2  0  0  0  0
  9 38  1  0  0  0  0
 10 11  1  0  0  0  0
 10 12  1  0  0  0  0
 12 13  2  0  0  0  0
 12 39  1  0  0  0  0
 13 40  1  0  0  0  0
 14 15  1  0  0  0  0
 14 41  1  0  0  0  0
 14 42  1  0  0  0  0
 16 17  1  0  0  0  0
 16 21  1  0  0  0  0
 16 43  1  0  0  0  0
 17 18  1  0  0  0  0
 17 44  1  0  0  0  0
 17 45  1  0  0  0  0
 18 19  1  0  0  0  0
 18 46  1  0  0  0  0
 18 47  1  0  0  0  0
 19 20  1  0  0  0  0
 19 22  1  0  0  0  0
 20 21  1  0  0  0  0
 20 48  1  0  0  0  0
 20 49  1  0  0  0  0
 21 50  1  0  0  0  0
 21 51  1  0  0  0  0
 22 23  2  0  0  0  0
 22 27  1  0  0  0  0
 23 24  1  0  0  0  0
 24 25  1  0  0  0  0
 24 26  2  0  0  0  0
 25 52  1  0  0  0  0
 25 53  1  0  0  0  0
 26 27  1  0  0  0  0
 27 54  1  0  0  0  0
M  END
>  <DRUGBANK_ID>
DB18065

>  <COMMON_NAME>
5-(4-((2S,5S)-5-(4-chlorobenzyl)-2-methylmorpholino)piperidin-1-yl)-1H-1,2,4-triazol-3-amine

>  <CAS_NUMBER>
2088453-21-6

>  <UNII>
X4D0G881CN

>  <SYNONYMS>
1H-1,2,4-Triazol-3-amine, 5-[4-[(2S,5S)-5-[(4-chlorophenyl)methyl]-2-methyl-4-morpholinyl]-1-piperidinyl]-; 5-[4-[(2S,5S)-5-[(4-Chlorophenyl)methyl]-2-methyl-4-morpholinyl]-1-piperidinyl]-1H-1,2,4-triazol-3-amine

$$$$
