TNS
 OpenBabel10282417173D

 48 49  0  0  0  0  0  0  0  0999 V2000
    0.9289    0.1623   -0.5056 O   0  0  0  0  0  0  0  0  0  0  0  0
    2.1326    0.1695   -0.4078 C   0  0  0  0  0  0  0  0  0  0  0  0
    2.9452    1.0093   -1.0832 O   0  0  0  0  0  0  0  0  0  0  0  0
    2.8709   -0.6965    0.5367 C   0  0  0  0  0  0  0  0  0  0  0  0
    2.3783   -0.3346    1.9090 C   0  0  0  0  0  0  0  0  0  0  0  0
    1.0049   -0.7478    2.4168 C   0  0  0  0  0  0  0  0  0  0  0  0
    0.7833   -2.2532    2.2324 C   0  0  0  0  0  0  0  0  0  0  0  0
    1.5407   -3.1040    3.2020 N   0  0  0  0  0  0  0  0  0  0  0  0
    0.7650   -4.0646    3.9676 C   0  0  0  0  0  0  0  0  0  0  0  0
    2.9218   -3.1987    3.3539 C   0  0  0  0  0  0  0  0  0  0  0  0
    3.7151   -2.1231    3.7897 C   0  0  0  0  0  0  0  0  0  0  0  0
    5.0819   -2.0466    3.5137 C   0  0  0  0  0  0  0  0  0  0  0  0
    3.6251   -4.3778    3.1534 C   0  0  0  0  0  0  0  0  0  0  0  0
    5.0211   -4.4029    3.2750 C   0  0  0  0  0  0  0  0  0  0  0  0
    5.7692   -3.2217    3.3165 C   0  0  0  0  0  0  0  0  0  0  0  0
    7.2269   -3.1635    3.2419 C   0  0  0  0  0  0  0  0  0  0  0  0
    7.9849   -4.2654    3.2554 C   0  0  0  0  0  0  0  0  0  0  0  0
    9.4373   -4.2337    3.2910 C   0  0  0  0  0  0  0  0  0  0  0  0
   10.1100   -3.3528    4.1451 C   0  0  0  0  0  0  0  0  0  0  0  0
   10.1480   -5.1847    2.5534 C   0  0  0  0  0  0  0  0  0  0  0  0
   11.5304   -5.2774    2.6919 C   0  0  0  0  0  0  0  0  0  0  0  0
   12.2020   -4.3540    3.5044 C   0  0  0  0  0  0  0  0  0  0  0  0
   11.4957   -3.4000    4.2461 C   0  0  0  0  0  0  0  0  0  0  0  0
   13.6667   -4.3419    3.5263 N   0  3  0  0  0  0  0  0  0  0  0  0
   14.2597   -5.1817    2.8349 O   0  0  0  0  0  0  0  0  0  0  0  0
   14.2248   -3.4736    4.2122 O   0  5  0  0  0  0  0  0  0  0  0  0
    3.8900    0.8909   -0.8723 H   0  0  0  0  0  0  0  0  0  0  0  0
    2.7276   -1.7570    0.2975 H   0  0  0  0  0  0  0  0  0  0  0  0
    3.9634   -0.5585    0.5169 H   0  0  0  0  0  0  0  0  0  0  0  0
    2.9987   -1.0477    2.3362 H   0  0  0  0  0  0  0  0  0  0  0  0
    2.7479    0.6051    2.3304 H   0  0  0  0  0  0  0  0  0  0  0  0
    0.9146   -0.5185    3.4885 H   0  0  0  0  0  0  0  0  0  0  0  0
    0.2300   -0.1563    1.9162 H   0  0  0  0  0  0  0  0  0  0  0  0
   -0.2963   -2.4217    2.3598 H   0  0  0  0  0  0  0  0  0  0  0  0
    0.9772   -2.5576    1.1970 H   0  0  0  0  0  0  0  0  0  0  0  0
    0.9935   -5.0999    3.6974 H   0  0  0  0  0  0  0  0  0  0  0  0
    0.9745   -3.9075    5.0288 H   0  0  0  0  0  0  0  0  0  0  0  0
   -0.3108   -3.9252    3.8243 H   0  0  0  0  0  0  0  0  0  0  0  0
    3.2461   -1.2074    4.1469 H   0  0  0  0  0  0  0  0  0  0  0  0
    5.5757   -1.0755    3.4928 H   0  0  0  0  0  0  0  0  0  0  0  0
    3.1156   -5.3055    2.9164 H   0  0  0  0  0  0  0  0  0  0  0  0
    5.4994   -5.3722    3.3295 H   0  0  0  0  0  0  0  0  0  0  0  0
    7.6845   -2.1752    3.2082 H   0  0  0  0  0  0  0  0  0  0  0  0
    7.5535   -5.2587    3.2922 H   0  0  0  0  0  0  0  0  0  0  0  0
    9.5556   -2.6291    4.7396 H   0  0  0  0  0  0  0  0  0  0  0  0
    9.6283   -5.8494    1.8646 H   0  0  0  0  0  0  0  0  0  0  0  0
   12.0629   -6.0637    2.1628 H   0  0  0  0  0  0  0  0  0  0  0  0
   11.9984   -2.6975    4.9058 H   0  0  0  0  0  0  0  0  0  0  0  0
  1  2  2  0  0  0  0
  2  3  1  0  0  0  0
  2  4  1  0  0  0  0
  3 27  1  0  0  0  0
  4  5  1  0  0  0  0
  4 28  1  0  0  0  0
  4 29  1  0  0  0  0
  5  6  1  0  0  0  0
  5 30  1  0  0  0  0
  5 31  1  0  0  0  0
  6  7  1  0  0  0  0
  6 32  1  0  0  0  0
  6 33  1  0  0  0  0
  7  8  1  0  0  0  0
  7 34  1  0  0  0  0
  7 35  1  0  0  0  0
  8  9  1  0  0  0  0
  8 10  1  0  0  0  0
  9 36  1  0  0  0  0
  9 37  1  0  0  0  0
  9 38  1  0  0  0  0
 10 11  1  0  0  0  0
 10 13  2  0  0  0  0
 11 12  2  0  0  0  0
 11 39  1  0  0  0  0
 12 15  1  0  0  0  0
 12 40  1  0  0  0  0
 13 14  1  0  0  0  0
 13 41  1  0  0  0  0
 14 15  2  0  0  0  0
 14 42  1  0  0  0  0
 15 16  1  0  0  0  0
 16 17  2  0  0  0  0
 16 43  1  0  0  0  0
 17 18  1  0  0  0  0
 17 44  1  0  0  0  0
 18 19  2  0  0  0  0
 18 20  1  0  0  0  0
 19 23  1  0  0  0  0
 19 45  1  0  0  0  0
 20 21  2  0  0  0  0
 20 46  1  0  0  0  0
 21 22  1  0  0  0  0
 21 47  1  0  0  0  0
 22 23  2  0  0  0  0
 22 24  1  0  0  0  0
 23 48  1  0  0  0  0
 24 25  2  0  0  0  0
 24 26  1  0  0  0  0
M  CHG  2  24   1  26  -1
M  END
>  <DRUGBANK_ID>
DB08635

>  <COMMON_NAME>
N-(TRANS-4'-NITRO-4-STILBENYL)-N-METHYL-5-AMINO-PENTANOIC ACID

$$$$
