L03
 OpenBabel10282417173D

 22 23  0  0  0  0  0  0  0  0999 V2000
    1.0032    0.1317   -0.0601 C   0  0  0  0  0  0  0  0  0  0  0  0
    0.5203   -0.1298   -1.7851 S   0  0  0  0  0  0  0  0  0  0  0  0
    0.9767    1.3405   -2.5577 C   0  0  0  0  0  0  0  0  0  0  0  0
    0.6729    2.5714   -2.2265 N   0  0  0  0  0  0  0  0  0  0  0  0
    1.1646    3.3953   -3.2223 N   0  0  0  0  0  0  0  0  0  0  0  0
    1.7349    2.6456   -4.1520 C   0  0  0  0  0  0  0  0  0  0  0  0
    1.6464    1.3365   -3.7454 N   0  0  0  0  0  0  0  0  0  0  0  0
    2.3864    3.1234   -5.3721 C   0  0  0  0  0  0  0  0  0  0  0  0
    2.0237    2.6557   -6.6448 C   0  0  0  0  0  0  0  0  0  0  0  0
    2.6174    3.1931   -7.7982 C   0  0  0  0  0  0  0  0  0  0  0  0
    3.5836    4.1916   -7.6863 C   0  0  0  0  0  0  0  0  0  0  0  0
    4.3117    4.8480   -9.1010 Cl  0  0  0  0  0  0  0  0  0  0  0  0
    3.9560    4.6650   -6.4320 C   0  0  0  0  0  0  0  0  0  0  0  0
    3.3557    4.1352   -5.2830 C   0  0  0  0  0  0  0  0  0  0  0  0
    0.6311   -0.7079    0.5390 H   0  0  0  0  0  0  0  0  0  0  0  0
    0.5944    1.0526    0.3652 H   0  0  0  0  0  0  0  0  0  0  0  0
    2.0931    0.1401    0.0284 H   0  0  0  0  0  0  0  0  0  0  0  0
    2.0181    0.5229   -4.2140 H   0  0  0  0  0  0  0  0  0  0  0  0
    1.2453    1.9055   -6.7626 H   0  0  0  0  0  0  0  0  0  0  0  0
    2.3090    2.8448   -8.7816 H   0  0  0  0  0  0  0  0  0  0  0  0
    4.6976    5.4546   -6.3390 H   0  0  0  0  0  0  0  0  0  0  0  0
    3.6405    4.5298   -4.3087 H   0  0  0  0  0  0  0  0  0  0  0  0
  1  2  1  0  0  0  0
  1 15  1  0  0  0  0
  1 16  1  0  0  0  0
  1 17  1  0  0  0  0
  2  3  1  0  0  0  0
  3  4  2  0  0  0  0
  3  7  1  0  0  0  0
  4  5  1  0  0  0  0
  5  6  2  0  0  0  0
  6  7  1  0  0  0  0
  6  8  1  0  0  0  0
  7 18  1  0  0  0  0
  8  9  2  0  0  0  0
  8 14  1  0  0  0  0
  9 10  1  0  0  0  0
  9 19  1  0  0  0  0
 10 11  2  0  0  0  0
 10 20  1  0  0  0  0
 11 12  1  0  0  0  0
 11 13  1  0  0  0  0
 13 14  2  0  0  0  0
 13 21  1  0  0  0  0
 14 22  1  0  0  0  0
M  END
>  <DRUGBANK_ID>
DB08062

>  <COMMON_NAME>
3-(4-CHLOROPHENYL)-5-(METHYLTHIO)-4H-1,2,4-TRIAZOLE

$$$$
