C3M
 OpenBabel10282417163D

 48 50  0  0  0  0  0  0  0  0999 V2000
   -1.0397   -1.3227   -0.5242 N   0  0  0  0  0  0  0  0  0  0  0  0
   -1.3439   -1.0289    0.8996 C   0  0  1  0  0  0  0  0  0  0  0  0
   -0.7766   -2.1497    1.8165 C   0  0  0  0  0  0  0  0  0  0  0  0
    0.7313   -2.2089    1.8848 C   0  0  0  0  0  0  0  0  0  0  0  0
    1.5544   -1.3337    1.1672 C   0  0  0  0  0  0  0  0  0  0  0  0
    2.9056   -1.1729    1.3701 C   0  0  0  0  0  0  0  0  0  0  0  0
    3.5271   -2.0761    2.1883 C   0  0  0  0  0  0  0  0  0  0  0  0
    2.7649   -3.0477    2.8491 C   0  0  0  0  0  0  0  0  0  0  0  0
    1.3735   -3.1243    2.6986 C   0  0  0  0  0  0  0  0  0  0  0  0
   -1.0244    0.4545    1.3738 C   0  0  2  0  0  0  0  0  0  0  0  0
    0.3372    0.9125    1.4610 O   0  0  0  0  0  0  0  0  0  0  0  0
   -1.5348    0.6457    2.8007 C   0  0  0  0  0  0  0  0  0  0  0  0
   -1.0520    1.9517    3.2944 N   0  0  0  0  0  0  0  0  0  0  0  0
   -1.4575    2.3302    4.8652 S   0  0  0  0  0  0  0  0  0  0  0  0
   -1.1419    1.1663    5.6908 O   0  0  0  0  0  0  0  0  0  0  0  0
   -0.9169    3.6260    5.1657 O   0  0  0  0  0  0  0  0  0  0  0  0
   -3.2038    2.4954    4.7698 C   0  0  0  0  0  0  0  0  0  0  0  0
   -4.0222    1.5341    5.2535 C   0  0  0  0  0  0  0  0  0  0  0  0
   -5.1285    2.1194    5.9047 C   0  0  0  0  0  0  0  0  0  0  0  0
   -5.4149    3.6662    6.0888 C   0  0  0  0  0  0  0  0  0  0  0  0
   -5.3986    5.2814    6.6114 C   0  0  0  0  0  0  0  0  0  0  0  0
   -6.0473    6.3402    5.9006 C   0  0  0  0  0  0  0  0  0  0  0  0
   -5.8374    6.0711    4.5867 C   0  0  0  0  0  0  0  0  0  0  0  0
   -6.2291    4.7756    4.3794 C   0  0  0  0  0  0  0  0  0  0  0  0
   -5.2316    3.8931    4.8104 C   0  0  0  0  0  0  0  0  0  0  0  0
   -3.8240    3.7104    4.4796 C   0  0  0  0  0  0  0  0  0  0  0  0
   -2.4394   -1.1173    0.9514 H   0  0  0  0  0  0  0  0  0  0  0  0
   -1.5095    1.1524    0.6857 H   0  0  0  0  0  0  0  0  0  0  0  0
   -0.0349   -1.3528   -0.6795 H   0  0  0  0  0  0  0  0  0  0  0  0
   -1.2886   -2.2992   -0.7099 H   0  0  0  0  0  0  0  0  0  0  0  0
   -1.1905   -2.0267    2.8294 H   0  0  0  0  0  0  0  0  0  0  0  0
   -1.1633   -3.1268    1.4946 H   0  0  0  0  0  0  0  0  0  0  0  0
    1.1764   -0.6815    0.4073 H   0  0  0  0  0  0  0  0  0  0  0  0
    3.4178   -0.3579    0.8664 H   0  0  0  0  0  0  0  0  0  0  0  0
    4.6053   -2.0403    2.2702 H   0  0  0  0  0  0  0  0  0  0  0  0
    3.2679   -3.7482    3.5030 H   0  0  0  0  0  0  0  0  0  0  0  0
    0.8066   -3.9092    3.1920 H   0  0  0  0  0  0  0  0  0  0  0  0
    0.6616    1.1113    0.5690 H   0  0  0  0  0  0  0  0  0  0  0  0
   -2.6214    0.5794    2.8084 H   0  0  0  0  0  0  0  0  0  0  0  0
   -1.1020   -0.1088    3.4649 H   0  0  0  0  0  0  0  0  0  0  0  0
   -0.0280    1.9941    3.1704 H   0  0  0  0  0  0  0  0  0  0  0  0
   -3.8687    0.4725    5.0446 H   0  0  0  0  0  0  0  0  0  0  0  0
   -6.0329    1.4991    5.7151 H   0  0  0  0  0  0  0  0  0  0  0  0
   -4.3614    5.7379    6.6987 H   0  0  0  0  0  0  0  0  0  0  0  0
   -7.0682    6.6653    6.1625 H   0  0  0  0  0  0  0  0  0  0  0  0
   -4.7608    6.1979    4.3304 H   0  0  0  0  0  0  0  0  0  0  0  0
   -7.2200    4.5364    4.8727 H   0  0  0  0  0  0  0  0  0  0  0  0
   -3.1998    4.5661    4.2510 H   0  0  0  0  0  0  0  0  0  0  0  0
  1 29  1  0  0  0  0
  1 30  1  0  0  0  0
  2  1  1  0  0  0  0
  2  3  1  0  0  0  0
  2 27  1  1  0  0  0
  3  4  1  0  0  0  0
  3 31  1  0  0  0  0
  3 32  1  0  0  0  0
  4  5  2  0  0  0  0
  4  9  1  0  0  0  0
  5  6  1  0  0  0  0
  5 33  1  0  0  0  0
  6  7  2  0  0  0  0
  6 34  1  0  0  0  0
  7  8  1  0  0  0  0
  7 35  1  0  0  0  0
  8  9  2  0  0  0  0
  8 36  1  0  0  0  0
  9 37  1  0  0  0  0
 10 12  1  0  0  0  0
 10 28  1  6  0  0  0
 10 11  1  0  0  0  0
 10  2  1  0  0  0  0
 11 38  1  0  0  0  0
 12 13  1  0  0  0  0
 12 39  1  0  0  0  0
 12 40  1  0  0  0  0
 13 14  1  0  0  0  0
 13 41  1  0  0  0  0
 14 15  2  0  0  0  0
 14 16  2  0  0  0  0
 14 17  1  0  0  0  0
 17 18  2  0  0  0  0
 17 26  1  0  0  0  0
 18 19  1  0  0  0  0
 18 42  1  0  0  0  0
 19 20  2  0  0  0  0
 19 43  1  0  0  0  0
 20 21  1  0  0  0  0
 20 25  1  0  0  0  0
 21 22  2  0  0  0  0
 21 44  1  0  0  0  0
 22 23  1  0  0  0  0
 22 45  1  0  0  0  0
 23 24  2  0  0  0  0
 23 46  1  0  0  0  0
 24 25  1  0  0  0  0
 24 47  1  0  0  0  0
 25 26  2  0  0  0  0
 26 48  1  0  0  0  0
M  END
>  <DRUGBANK_ID>
DB07522

>  <COMMON_NAME>
N-[(2R,3S)-3-AMINO-2-HYDROXY-4-PHENYLBUTYL]NAPHTHALENE-2-SULFONAMIDE

$$$$
