
 OpenBabel10282417193D

 32 35  0  0  1  0  0  0  0  0999 V2000
    3.4990    1.0941   -0.0595 C   0  0  0  0  0  0  0  0  0  0  0  0
    2.2510    1.5068   -0.4677 C   0  0  0  0  0  0  0  0  0  0  0  0
    1.2732    0.5501   -0.4601 C   0  0  0  0  0  0  0  0  0  0  0  0
    1.4801   -0.7220    0.0102 C   0  0  0  0  0  0  0  0  0  0  0  0
    2.6679   -1.1704    0.4149 N   0  0  0  0  0  0  0  0  0  0  0  0
    3.6615   -0.2383    0.3432 C   0  0  0  0  0  0  0  0  0  0  0  0
    0.3032   -1.4763    0.0646 O   0  0  0  0  0  0  0  0  0  0  0  0
   -0.7366   -0.4863   -0.2069 C   0  0  1  0  0  0  0  0  0  0  0  0
   -0.0821    0.6985   -0.9483 C   0  0  0  0  0  0  0  0  0  0  0  0
   -2.1970   -1.2688   -1.1117 C   0  0  0  0  0  0  0  0  0  0  0  0
   -3.6786   -0.3589   -0.8871 N   0  0  3  0  0  0  0  0  0  0  0  0
   -4.1484    0.5293    0.5024 C   0  0  0  0  0  0  0  0  0  0  0  0
   -2.6158    1.3081    1.3855 C   0  0  0  0  0  0  0  0  0  0  0  0
   -1.2633    0.2569    1.1868 C   0  0  3  0  0  0  0  0  0  0  0  0
   -2.3864   -0.5496    0.9313 C   0  0  0  0  0  0  0  0  0  0  0  0
   -2.6997    0.5691   -0.6745 C   0  0  0  0  0  0  0  0  0  0  0  0
    4.3236    1.7945   -0.0737 H   0  0  0  0  0  0  0  0  0  0  0  0
    2.0252    2.5179   -0.7860 H   0  0  0  0  0  0  0  0  0  0  0  0
    4.6471   -0.5915    0.6306 H   0  0  0  0  0  0  0  0  0  0  0  0
   -0.1171    0.5987   -2.0326 H   0  0  0  0  0  0  0  0  0  0  0  0
   -0.4711    1.6710   -0.6208 H   0  0  0  0  0  0  0  0  0  0  0  0
   -2.3927   -2.3125   -0.8259 H   0  0  0  0  0  0  0  0  0  0  0  0
   -1.9375   -1.2827   -2.1829 H   0  0  0  0  0  0  0  0  0  0  0  0
   -4.8150    1.3523    0.2048 H   0  0  0  0  0  0  0  0  0  0  0  0
   -4.6946   -0.1824    1.1332 H   0  0  0  0  0  0  0  0  0  0  0  0
   -2.3347    2.2945    0.9859 H   0  0  0  0  0  0  0  0  0  0  0  0
   -2.8834    1.4182    2.4434 H   0  0  0  0  0  0  0  0  0  0  0  0
   -0.7068    0.0307    2.0936 H   0  0  0  0  0  0  0  0  0  0  0  0
   -3.0042   -0.5700    1.8622 H   0  0  0  0  0  0  0  0  0  0  0  0
   -2.3682   -1.6432    0.8641 H   0  0  0  0  0  0  0  0  0  0  0  0
   -2.0904    0.6525   -1.5869 H   0  0  0  0  0  0  0  0  0  0  0  0
   -2.9757    1.6504   -0.6666 H   0  0  0  0  0  0  0  0  0  0  0  0
  1  2  2  0  0  0  0
  1  6  1  0  0  0  0
  1 17  1  0  0  0  0
  2  3  1  0  0  0  0
  2 18  1  0  0  0  0
  3  4  2  0  0  0  0
  3  9  1  0  0  0  0
  4  5  1  0  0  0  0
  4  7  1  0  0  0  0
  5  6  2  0  0  0  0
  6 19  1  0  0  0  0
  8  7  1  1  0  0  0
  8  9  1  0  0  0  0
  8 10  1  0  0  0  0
  8 14  1  0  0  0  0
  9 20  1  0  0  0  0
  9 21  1  0  0  0  0
 10 11  1  0  0  0  0
 10 22  1  0  0  0  0
 10 23  1  0  0  0  0
 11 12  1  0  0  0  0
 11 16  1  0  0  0  0
 12 13  1  0  0  0  0
 12 24  1  0  0  0  0
 12 25  1  0  0  0  0
 13 14  1  0  0  0  0
 13 26  1  0  0  0  0
 13 27  1  0  0  0  0
 14 15  1  0  0  0  0
 14 28  1  0  0  0  0
 15 16  1  0  0  0  0
 15 29  1  0  0  0  0
 15 30  1  0  0  0  0
 16 31  1  0  0  0  0
 16 32  1  0  0  0  0
M  END
>  <DRUGBANK_ID>
DB12145

>  <COMMON_NAME>
AZD-0328

>  <CAS_NUMBER>
220099-91-2

>  <UNII>
2B218X5QIY

$$$$
