
 OpenBabel10282417183D

 59 60  0  0  0  0  0  0  0  0999 V2000
    0.9193    0.0626    0.0109 C   0  0  0  0  0  0  0  0  0  0  0  0
    2.3628    0.3473   -0.0245 N   0  0  0  0  0  0  0  0  0  0  0  0
    2.9051    0.2837   -1.3550 C   0  0  0  0  0  0  0  0  0  0  0  0
    2.6999    1.1036   -2.5600 C   0  0  3  0  0  0  0  0  0  0  0  0
    3.3769    0.3312   -3.6792 C   0  0  0  0  0  0  0  0  0  0  0  0
    3.1721   -1.1144   -3.5457 O   0  0  0  0  0  0  0  0  0  0  0  0
    3.4445   -2.0601   -2.5711 C   0  0  0  0  0  0  0  0  0  0  0  0
    3.4677   -2.2335   -1.2065 C   0  0  0  0  0  0  0  0  0  0  0  0
    3.2745   -3.4289   -0.4042 C   0  0  0  0  0  0  0  0  0  0  0  0
    3.1794   -4.6062   -0.9793 C   0  0  0  0  0  0  0  0  0  0  0  0
    2.6880   -4.3587   -2.1715 C   0  0  0  0  0  0  0  0  0  0  0  0
    3.0528   -3.2763   -2.8519 C   0  0  0  0  0  0  0  0  0  0  0  0
    3.0542    2.4089   -2.2135 O   0  0  0  0  0  0  0  0  0  0  0  0
    0.2090    1.0568   -0.8973 C   0  0  0  0  0  0  0  0  0  0  0  0
    0.4408   -1.3765   -0.3819 C   0  0  0  0  0  0  0  0  0  0  0  0
    0.4963    0.3228    1.4360 C   0  0  0  0  0  0  0  0  0  0  0  0
    3.2254   -5.9509   -0.7634 N   0  0  0  0  0  0  0  0  0  0  0  0
    3.3867   -7.0445   -1.6284 C   0  0  0  0  0  0  0  0  0  0  0  0
    3.5458   -8.1312   -1.0680 O   0  0  0  0  0  0  0  0  0  0  0  0
    3.4189   -7.0388   -3.0391 N   0  0  0  0  0  0  0  0  0  0  0  0
    3.2871   -6.0283   -4.2739 C   0  0  0  0  0  0  0  0  0  0  0  0
    4.5500   -4.9644   -4.2280 C   0  0  0  0  0  0  0  0  0  0  0  0
    4.2222   -3.5081   -5.1126 C   0  0  0  0  0  0  0  0  0  0  0  0
    2.4490   -2.9891   -5.2870 C   0  0  0  0  0  0  0  0  0  0  0  0
    1.3892   -4.1544   -5.2010 C   0  0  0  0  0  0  0  0  0  0  0  0
    1.6470   -5.4918   -4.4064 C   0  0  0  0  0  0  0  0  0  0  0  0
    2.7260    1.1219    0.5098 H   0  0  0  0  0  0  0  0  0  0  0  0
    3.9892    0.0455   -1.3050 H   0  0  0  0  0  0  0  0  0  0  0  0
    2.2619   -0.4981   -1.7256 H   0  0  0  0  0  0  0  0  0  0  0  0
    1.6663    1.0774   -2.8780 H   0  0  0  0  0  0  0  0  0  0  0  0
    2.8766    0.7282   -4.5958 H   0  0  0  0  0  0  0  0  0  0  0  0
    4.4377    0.4873   -3.8317 H   0  0  0  0  0  0  0  0  0  0  0  0
    3.1912   -1.5049   -0.5148 H   0  0  0  0  0  0  0  0  0  0  0  0
    2.8570   -3.2485    0.5762 H   0  0  0  0  0  0  0  0  0  0  0  0
    2.4998   -5.2430   -2.6303 H   0  0  0  0  0  0  0  0  0  0  0  0
    2.9680   -3.7518   -3.7575 H   0  0  0  0  0  0  0  0  0  0  0  0
    2.7543    2.4649   -1.2796 H   0  0  0  0  0  0  0  0  0  0  0  0
    0.2385    0.7276   -1.9334 H   0  0  0  0  0  0  0  0  0  0  0  0
   -0.8548    1.1155   -0.7026 H   0  0  0  0  0  0  0  0  0  0  0  0
    0.6616    2.0495   -0.7915 H   0  0  0  0  0  0  0  0  0  0  0  0
    0.8203   -2.1461    0.2979 H   0  0  0  0  0  0  0  0  0  0  0  0
   -0.6529   -1.4312   -0.3441 H   0  0  0  0  0  0  0  0  0  0  0  0
    0.6920   -1.6828   -1.4064 H   0  0  0  0  0  0  0  0  0  0  0  0
    0.8958   -0.4313    2.1216 H   0  0  0  0  0  0  0  0  0  0  0  0
    0.8454    1.3112    1.7485 H   0  0  0  0  0  0  0  0  0  0  0  0
   -0.5937    0.3074    1.4846 H   0  0  0  0  0  0  0  0  0  0  0  0
    3.3138   -6.1527    0.2203 H   0  0  0  0  0  0  0  0  0  0  0  0
    3.5542   -7.9959   -3.3651 H   0  0  0  0  0  0  0  0  0  0  0  0
    3.4339   -6.5619   -5.2237 H   0  0  0  0  0  0  0  0  0  0  0  0
    4.8129   -4.7483   -3.1552 H   0  0  0  0  0  0  0  0  0  0  0  0
    5.5594   -5.3960   -4.4176 H   0  0  0  0  0  0  0  0  0  0  0  0
    4.8562   -2.7139   -4.6163 H   0  0  0  0  0  0  0  0  0  0  0  0
    4.6362   -3.6319   -6.1047 H   0  0  0  0  0  0  0  0  0  0  0  0
    1.9387   -2.4629   -4.4207 H   0  0  0  0  0  0  0  0  0  0  0  0
    2.3345   -2.0710   -5.8823 H   0  0  0  0  0  0  0  0  0  0  0  0
    0.4526   -3.7297   -4.7473 H   0  0  0  0  0  0  0  0  0  0  0  0
    1.2188   -4.4034   -6.2265 H   0  0  0  0  0  0  0  0  0  0  0  0
    0.9847   -6.3061   -4.7351 H   0  0  0  0  0  0  0  0  0  0  0  0
    1.0944   -5.4087   -3.4245 H   0  0  0  0  0  0  0  0  0  0  0  0
  1 14  1  0  0  0  0
  1 15  1  0  0  0  0
  1 16  1  0  0  0  0
  1  2  1  0  0  0  0
  2  3  1  0  0  0  0
  2 27  1  0  0  0  0
  3  4  1  0  0  0  0
  3 28  1  0  0  0  0
  3 29  1  0  0  0  0
  4 13  1  0  0  0  0
  4  5  1  0  0  0  0
  4 30  1  0  0  0  0
  5  6  1  0  0  0  0
  5 31  1  0  0  0  0
  5 32  1  0  0  0  0
  6  7  1  0  0  0  0
  7  8  2  0  0  0  0
  8  9  1  0  0  0  0
  8 33  1  0  0  0  0
  9 10  2  0  0  0  0
  9 34  1  0  0  0  0
 10 17  1  0  0  0  0
 10 11  1  0  0  0  0
 11 12  2  0  0  0  0
 11 35  1  0  0  0  0
 12  7  1  0  0  0  0
 12 36  1  0  0  0  0
 13 37  1  0  0  0  0
 14 38  1  0  0  0  0
 14 39  1  0  0  0  0
 14 40  1  0  0  0  0
 15 41  1  0  0  0  0
 15 42  1  0  0  0  0
 15 43  1  0  0  0  0
 16 44  1  0  0  0  0
 16 45  1  0  0  0  0
 16 46  1  0  0  0  0
 17 18  1  0  0  0  0
 17 47  1  0  0  0  0
 18 19  2  0  0  0  0
 18 20  1  0  0  0  0
 20 21  1  0  0  0  0
 20 48  1  0  0  0  0
 21 22  1  0  0  0  0
 21 26  1  0  0  0  0
 21 49  1  0  0  0  0
 22 23  1  0  0  0  0
 22 50  1  0  0  0  0
 22 51  1  0  0  0  0
 23 24  1  0  0  0  0
 23 52  1  0  0  0  0
 23 53  1  0  0  0  0
 24 25  1  0  0  0  0
 24 54  1  0  0  0  0
 24 55  1  0  0  0  0
 25 26  1  0  0  0  0
 25 56  1  0  0  0  0
 25 57  1  0  0  0  0
 26 58  1  0  0  0  0
 26 59  1  0  0  0  0
M  END
>  <DRUGBANK_ID>
DB11770

>  <COMMON_NAME>
Talinolol

>  <CAS_NUMBER>
57460-41-0

>  <UNII>
3S82268BKG

>  <SYNONYMS>
Talinolol; Talinololum

$$$$
