
 OpenBabel10282417103D

 30 29  0  0  1  0  0  0  0  0999 V2000
   -2.4152   -2.0739   -6.6427 C   0  0  0  0  0  0  0  0  0  0  0  0
   -1.0139   -1.6039   -7.0275 C   0  0  1  0  0  0  0  0  0  0  0  0
   -0.0758   -1.6799   -5.8185 C   0  0  2  0  0  0  0  0  0  0  0  0
   -0.4959   -0.6561   -4.7513 C   0  0  1  0  0  0  0  0  0  0  0  0
    0.2082    0.7043   -4.8309 C   0  0  2  0  0  0  0  0  0  0  0  0
   -2.6983   -3.2284   -6.3367 O   0  0  0  0  0  0  0  0  0  0  0  0
    1.2984   -1.4693   -6.1705 O   0  0  0  0  0  0  0  0  0  0  0  0
   -1.9006   -0.3655   -4.8682 O   0  0  0  0  0  0  0  0  0  0  0  0
    0.0026    1.3131   -3.5385 O   0  0  0  0  0  0  0  0  0  0  0  0
   -3.1799   -1.2747   -6.5880 H   0  0  0  0  0  0  0  0  0  0  0  0
   -0.4292    1.6282   -5.8893 C   0  0  0  0  0  0  0  0  0  0  0  0
   -0.0091    2.9726   -5.6727 O   0  0  0  0  0  0  0  0  0  0  0  0
   -0.5741   -2.2830   -8.2327 N   0  0  0  0  0  0  0  0  0  0  0  0
    0.0869   -3.4468   -8.4268 C   0  0  0  0  0  0  0  0  0  0  0  0
    0.2496   -3.8062   -9.6018 O   0  0  0  0  0  0  0  0  0  0  0  0
    0.6526   -4.2467   -7.2829 C   0  0  0  0  0  0  0  0  0  0  0  0
   -1.0832   -0.5602   -7.3446 H   0  0  0  0  0  0  0  0  0  0  0  0
   -0.1573   -2.6784   -5.3655 H   0  0  0  0  0  0  0  0  0  0  0  0
   -0.3423   -1.1075   -3.7631 H   0  0  0  0  0  0  0  0  0  0  0  0
    1.2949    0.6344   -4.9701 H   0  0  0  0  0  0  0  0  0  0  0  0
    1.4441   -1.7688   -7.0877 H   0  0  0  0  0  0  0  0  0  0  0  0
   -2.3893   -0.8610   -4.1940 H   0  0  0  0  0  0  0  0  0  0  0  0
    0.4563    2.1707   -3.5849 H   0  0  0  0  0  0  0  0  0  0  0  0
   -0.1664    1.3332   -6.9095 H   0  0  0  0  0  0  0  0  0  0  0  0
   -1.5230    1.6454   -5.8250 H   0  0  0  0  0  0  0  0  0  0  0  0
   -0.5696    3.2916   -4.9408 H   0  0  0  0  0  0  0  0  0  0  0  0
   -1.0013   -1.9444   -9.0896 H   0  0  0  0  0  0  0  0  0  0  0  0
    1.4016   -3.7102   -6.7014 H   0  0  0  0  0  0  0  0  0  0  0  0
   -0.1444   -4.5963   -6.6243 H   0  0  0  0  0  0  0  0  0  0  0  0
    1.1891   -5.1059   -7.6895 H   0  0  0  0  0  0  0  0  0  0  0  0
  2 17  1  6  0  0  0
  2 13  1  0  0  0  0
  2  1  1  0  0  0  0
  3  2  1  0  0  0  0
  3  7  1  0  0  0  0
  3 18  1  1  0  0  0
  4 19  1  1  0  0  0
  4  8  1  0  0  0  0
  4  3  1  0  0  0  0
  5 20  1  6  0  0  0
  5  9  1  0  0  0  0
  5  4  1  0  0  0  0
  6  1  2  0  0  0  0
  7 21  1  0  0  0  0
  8 22  1  0  0  0  0
  9 23  1  0  0  0  0
 10  1  1  0  0  0  0
 11  5  1  0  0  0  0
 11 12  1  0  0  0  0
 11 24  1  0  0  0  0
 11 25  1  0  0  0  0
 12 26  1  0  0  0  0
 13 14  1  0  0  0  0
 13 27  1  0  0  0  0
 15 14  2  0  0  0  0
 16 14  1  0  0  0  0
 16 28  1  0  0  0  0
 16 29  1  0  0  0  0
 16 30  1  0  0  0  0
M  END
>  <DRUGBANK_ID>
DB00141

>  <SECONDARY_ACCESSION_NUMBERS>
NUTR00040

>  <COMMON_NAME>
N-Acetylglucosamine

>  <CAS_NUMBER>
7512-17-6

>  <UNII>
V956696549

>  <SYNONYMS>
2-Acetamido-2-deoxy-D-glucose; aldehydo-N-acetyl-D-glucosamine; D-GlcNAc; N-Acetyl-D-glucosamine; N-Acetylchitosamine

$$$$
