
 OpenBabel10282417173D

 56 56  0  0  0  0  0  0  0  0999 V2000
    1.5409    0.1593    0.1289 C   0  0  0  0  0  0  0  0  0  0  0  0
    0.5246    1.2789    0.0992 C   0  0  0  0  0  0  0  0  0  0  0  0
   -0.8835    0.8219    0.1302 C   0  0  0  0  0  0  0  0  0  0  0  0
   -1.2961   -0.5595    0.1348 C   0  0  0  0  0  0  0  0  0  0  0  0
   -0.2604   -1.5195    0.0017 C   0  0  0  0  0  0  0  0  0  0  0  0
    1.1337   -1.2201    0.0960 C   0  0  0  0  0  0  0  0  0  0  0  0
    2.1400   -2.3234    0.1852 C   0  0  0  0  0  0  0  0  0  0  0  0
   -2.6786    2.1930    0.0141 I   0  0  0  0  0  0  0  0  0  0  0  0
    4.1095    0.1864    0.0227 I   0  0  0  0  0  0  0  0  0  0  0  0
   -2.7079   -0.9246    0.2339 N   0  0  0  0  0  0  0  0  0  0  0  0
   -3.1901   -2.1562    0.6814 C   0  0  0  0  0  0  0  0  0  0  0  0
   -4.6914   -2.4697    0.4744 C   0  0  0  0  0  0  0  0  0  0  0  0
   -4.9908   -3.3077   -0.6366 O   0  0  0  0  0  0  0  0  0  0  0  0
   -4.7790   -2.6682   -1.8830 C   0  0  0  0  0  0  0  0  0  0  0  0
   -2.4761   -3.0041    1.2159 O   0  0  0  0  0  0  0  0  0  0  0  0
    0.7042    2.8982    0.0517 C   0  0  0  0  0  0  0  0  0  0  0  0
    1.9414    3.4866   -0.1118 N   0  0  0  0  0  0  0  0  0  0  0  0
    2.3541    4.8695   -0.0114 C   0  0  0  0  0  0  0  0  0  0  0  0
    3.2942    5.1705    1.1967 C   0  0  3  0  0  0  0  0  0  0  0  0
    4.6632    4.4372    1.2731 C   0  0  0  0  0  0  0  0  0  0  0  0
    5.4608    4.6693    0.1042 O   0  0  0  0  0  0  0  0  0  0  0  0
    2.9756    2.6287   -0.2504 C   0  0  0  0  0  0  0  0  0  0  0  0
    3.5972    6.5688    1.1334 O   0  0  0  0  0  0  0  0  0  0  0  0
   -0.2304    3.6843    0.1456 O   0  0  0  0  0  0  0  0  0  0  0  0
    1.7974   -3.6113    0.2740 N   0  0  0  0  0  0  0  0  0  0  0  0
    3.3671   -2.2009    0.2220 O   0  0  0  0  0  0  0  0  0  0  0  0
    2.8595   -4.6005    0.2628 C   0  0  0  0  0  0  0  0  0  0  0  0
   -0.7815   -3.3767   -1.3049 I   0  0  0  0  0  0  0  0  0  0  0  0
    2.7541   -5.4299    1.5185 C   0  0  3  0  0  0  0  0  0  0  0  0
    1.3898   -6.1198    1.5424 C   0  0  0  0  0  0  0  0  0  0  0  0
    1.2374   -6.9461    0.3836 O   0  0  0  0  0  0  0  0  0  0  0  0
    3.8067   -6.3882    1.5245 O   0  0  0  0  0  0  0  0  0  0  0  0
   -3.3743   -0.1525    0.2342 H   0  0  0  0  0  0  0  0  0  0  0  0
   -4.9800   -3.0487    1.3622 H   0  0  0  0  0  0  0  0  0  0  0  0
   -5.3301   -1.5804    0.4697 H   0  0  0  0  0  0  0  0  0  0  0  0
   -5.3983   -1.7714   -1.9523 H   0  0  0  0  0  0  0  0  0  0  0  0
   -3.7278   -2.4060   -2.0072 H   0  0  0  0  0  0  0  0  0  0  0  0
   -5.0526   -3.3569   -2.6876 H   0  0  0  0  0  0  0  0  0  0  0  0
    2.8902    5.0865   -0.9468 H   0  0  0  0  0  0  0  0  0  0  0  0
    1.4794    5.5206   -0.0009 H   0  0  0  0  0  0  0  0  0  0  0  0
    2.7496    4.9680    2.1255 H   0  0  0  0  0  0  0  0  0  0  0  0
    5.2588    4.8107    2.1094 H   0  0  0  0  0  0  0  0  0  0  0  0
    4.5744    3.3632    1.4710 H   0  0  0  0  0  0  0  0  0  0  0  0
    4.9835    4.4144   -0.7025 H   0  0  0  0  0  0  0  0  0  0  0  0
    2.9688    2.2075    0.7690 H   0  0  0  0  0  0  0  0  0  0  0  0
    2.7123    2.0271   -1.1197 H   0  0  0  0  0  0  0  0  0  0  0  0
    3.9531    3.0095   -0.4749 H   0  0  0  0  0  0  0  0  0  0  0  0
    4.2295    6.6673    0.3946 H   0  0  0  0  0  0  0  0  0  0  0  0
    0.8194   -3.8693    0.2485 H   0  0  0  0  0  0  0  0  0  0  0  0
    2.7752   -5.1558   -0.6741 H   0  0  0  0  0  0  0  0  0  0  0  0
    3.8797   -4.1859    0.2141 H   0  0  0  0  0  0  0  0  0  0  0  0
    2.8684   -4.7826    2.3981 H   0  0  0  0  0  0  0  0  0  0  0  0
    1.3051   -6.7521    2.4242 H   0  0  0  0  0  0  0  0  0  0  0  0
    0.5627   -5.4000    1.5712 H   0  0  0  0  0  0  0  0  0  0  0  0
    1.1731   -6.3730   -0.4015 H   0  0  0  0  0  0  0  0  0  0  0  0
    3.6381   -6.9746    0.7645 H   0  0  0  0  0  0  0  0  0  0  0  0
  1  2  2  0  0  0  0
  1  9  1  0  0  0  0
  2 16  1  0  0  0  0
  2  3  1  0  0  0  0
  3  8  1  0  0  0  0
  3  4  2  0  0  0  0
  4 10  1  0  0  0  0
  4  5  1  0  0  0  0
  5 28  1  0  0  0  0
  5  6  2  0  0  0  0
  6  1  1  0  0  0  0
  6  7  1  0  0  0  0
  7 25  1  0  0  0  0
  7 26  2  0  0  0  0
 10 11  1  0  0  0  0
 10 33  1  0  0  0  0
 11 12  1  0  0  0  0
 11 15  2  0  0  0  0
 12 13  1  0  0  0  0
 12 34  1  0  0  0  0
 12 35  1  0  0  0  0
 13 14  1  0  0  0  0
 14 36  1  0  0  0  0
 14 37  1  0  0  0  0
 14 38  1  0  0  0  0
 16 17  1  0  0  0  0
 16 24  2  0  0  0  0
 17 18  1  0  0  0  0
 17 22  1  0  0  0  0
 18 19  1  0  0  0  0
 18 39  1  0  0  0  0
 18 40  1  0  0  0  0
 19 20  1  0  0  0  0
 19 23  1  0  0  0  0
 19 41  1  0  0  0  0
 20 21  1  0  0  0  0
 20 42  1  0  0  0  0
 20 43  1  0  0  0  0
 21 44  1  0  0  0  0
 22 45  1  0  0  0  0
 22 46  1  0  0  0  0
 22 47  1  0  0  0  0
 23 48  1  0  0  0  0
 25 27  1  0  0  0  0
 25 49  1  0  0  0  0
 27 29  1  0  0  0  0
 27 50  1  0  0  0  0
 27 51  1  0  0  0  0
 29 30  1  0  0  0  0
 29 32  1  0  0  0  0
 29 52  1  0  0  0  0
 30 31  1  0  0  0  0
 30 53  1  0  0  0  0
 30 54  1  0  0  0  0
 31 55  1  0  0  0  0
 32 56  1  0  0  0  0
M  END
>  <DRUGBANK_ID>
DB09156

>  <COMMON_NAME>
Iopromide

>  <CAS_NUMBER>
73334-07-3

>  <UNII>
712BAC33MZ

>  <SYNONYMS>
Iopromida; Iopromide; N,N'-bis(2,3-dihydroxypropyl)-2,4,6-triiodo-5-[(methoxyacetyl)amino]-N-methylisophthalamide

$$$$
