
 OpenBabel10282417113D

 32 32  0  0  1  0  0  0  0  0999 V2000
    0.9029    0.0102   -0.0547 C   0  0  0  0  0  0  0  0  0  0  0  0
    0.4055   -1.4066    0.0655 C   0  0  0  0  0  0  0  0  0  0  0  0
    1.1819   -2.4696   -0.4160 C   0  0  0  0  0  0  0  0  0  0  0  0
    0.7384   -3.7912   -0.2849 C   0  0  0  0  0  0  0  0  0  0  0  0
    0.4926    0.8027    0.9740 F   0  0  0  0  0  0  0  0  0  0  0  0
    0.4805    0.6205   -1.1944 F   0  0  0  0  0  0  0  0  0  0  0  0
    1.6363   -4.9478   -0.6742 C   0  0  0  0  0  0  0  0  0  0  0  0
    0.9793   -6.4206    1.2605 N   0  0  0  0  0  0  0  0  0  0  0  0
   -0.8270   -1.6702    0.6841 C   0  0  0  0  0  0  0  0  0  0  0  0
    2.1115   -5.8029    0.5380 C   0  0  1  0  0  0  0  0  0  0  0  0
   -1.2698   -2.9822    0.8257 C   0  0  0  0  0  0  0  0  0  0  0  0
   -0.5284   -4.0145    0.2746 C   0  0  0  0  0  0  0  0  0  0  0  0
    3.0903   -6.8738    0.0568 C   0  0  0  0  0  0  0  0  0  0  0  0
    2.2634    0.0931   -0.0644 F   0  0  0  0  0  0  0  0  0  0  0  0
    1.3263   -7.1836    2.4549 C   0  0  0  0  0  0  0  0  0  0  0  0
    2.0069   -6.3099    3.4967 C   0  0  0  0  0  0  0  0  0  0  0  0
    2.1469   -2.2642   -0.8796 H   0  0  0  0  0  0  0  0  0  0  0  0
    1.1297   -5.5664   -1.4243 H   0  0  0  0  0  0  0  0  0  0  0  0
    2.5329   -4.5453   -1.1686 H   0  0  0  0  0  0  0  0  0  0  0  0
    0.4002   -5.6569    1.6066 H   0  0  0  0  0  0  0  0  0  0  0  0
   -1.4438   -0.8604    1.0606 H   0  0  0  0  0  0  0  0  0  0  0  0
    2.6392   -5.1130    1.2072 H   0  0  0  0  0  0  0  0  0  0  0  0
   -2.1836   -3.2016    1.3722 H   0  0  0  0  0  0  0  0  0  0  0  0
   -0.9354   -5.0253    0.3285 H   0  0  0  0  0  0  0  0  0  0  0  0
    3.9528   -6.4171   -0.4372 H   0  0  0  0  0  0  0  0  0  0  0  0
    3.4865   -7.4666    0.8870 H   0  0  0  0  0  0  0  0  0  0  0  0
    2.6059   -7.5565   -0.6491 H   0  0  0  0  0  0  0  0  0  0  0  0
    0.3889   -7.5662    2.8772 H   0  0  0  0  0  0  0  0  0  0  0  0
    1.9217   -8.0657    2.2081 H   0  0  0  0  0  0  0  0  0  0  0  0
    1.3620   -5.4693    3.7783 H   0  0  0  0  0  0  0  0  0  0  0  0
    2.2289   -6.8921    4.3926 H   0  0  0  0  0  0  0  0  0  0  0  0
    2.9534   -5.9006    3.1314 H   0  0  0  0  0  0  0  0  0  0  0  0
  1 14  1  0  0  0  0
  2  1  1  0  0  0  0
  3  2  2  0  0  0  0
  3 17  1  0  0  0  0
  4  3  1  0  0  0  0
  5  1  1  0  0  0  0
  6  1  1  0  0  0  0
  7  4  1  0  0  0  0
  7 18  1  0  0  0  0
  7 19  1  0  0  0  0
  8 15  1  0  0  0  0
  8 20  1  0  0  0  0
  9  2  1  0  0  0  0
  9 21  1  0  0  0  0
 10  7  1  0  0  0  0
 10  8  1  0  0  0  0
 10 22  1  1  0  0  0
 11  9  2  0  0  0  0
 11 23  1  0  0  0  0
 12  4  2  0  0  0  0
 12 11  1  0  0  0  0
 12 24  1  0  0  0  0
 13 10  1  0  0  0  0
 13 25  1  0  0  0  0
 13 26  1  0  0  0  0
 13 27  1  0  0  0  0
 15 16  1  0  0  0  0
 15 28  1  0  0  0  0
 15 29  1  0  0  0  0
 16 30  1  0  0  0  0
 16 31  1  0  0  0  0
 16 32  1  0  0  0  0
M  END
>  <DRUGBANK_ID>
DB01191

>  <SECONDARY_ACCESSION_NUMBERS>
APRD00648

>  <COMMON_NAME>
Dexfenfluramine

>  <CAS_NUMBER>
3239-44-9

>  <UNII>
E35R3G56OV

>  <SYNONYMS>
(+)-fenfluramine; (S)-fenfluramine; (S)-N-ethyl-1-[3-(trifluoromethyl)phenyl]propan-2-amine; d-N-ethyl-Î±-methyl-m-trifluoromethylphenethylamine; Dexfenfluramina; Dexfenfluramine; Dexfenfluraminum; Dextrofenfluramine

$$$$
