7X5
 OpenBabel10282417163D

 43 46  0  0  0  0  0  0  0  0999 V2000
    0.7948   -0.0594   -0.0160 N   0  0  0  0  0  0  0  0  0  0  0  0
    0.1758   -0.9325    0.8599 C   0  0  0  0  0  0  0  0  0  0  0  0
   -0.8307   -1.6708    0.3769 N   0  0  0  0  0  0  0  0  0  0  0  0
   -1.3804   -2.5578    1.2079 C   0  0  0  0  0  0  0  0  0  0  0  0
   -1.0285   -2.6670    2.5283 C   0  0  0  0  0  0  0  0  0  0  0  0
   -0.0110   -1.8432    2.9652 C   0  0  0  0  0  0  0  0  0  0  0  0
    0.2663   -1.7857    4.3492 N   0  0  0  0  0  0  0  0  0  0  0  0
    1.2518   -0.9653    4.9326 C   0  0  0  0  0  0  0  0  0  0  0  0
    2.4006   -1.4976    5.5136 C   0  0  0  0  0  0  0  0  0  0  0  0
    2.6942   -2.8243    5.6726 O   0  0  0  0  0  0  0  0  0  0  0  0
    3.9205   -2.7463    6.4344 C   0  0  0  0  0  0  0  0  0  0  0  0
    4.4498   -1.4100    6.5197 O   0  0  0  0  0  0  0  0  0  0  0  0
    3.4128   -0.6952    6.0037 C   0  0  0  0  0  0  0  0  0  0  0  0
    3.3455    0.6805    5.9583 C   0  0  0  0  0  0  0  0  0  0  0  0
    2.1976    1.2529    5.4105 C   0  0  0  0  0  0  0  0  0  0  0  0
    1.1688    0.4429    4.8955 C   0  0  0  0  0  0  0  0  0  0  0  0
   -0.2554    1.2490    4.3181 Cl  0  0  0  0  0  0  0  0  0  0  0  0
    0.6394   -1.0262    2.1117 N   0  0  0  0  0  0  0  0  0  0  0  0
   -4.1017    2.8441   -0.5911 C   0  0  0  0  0  0  0  0  0  0  0  0
   -2.6273    3.7114   -1.0392 S   0  0  0  0  0  0  0  0  0  0  0  0
   -2.0978    4.3477    0.1458 O   0  0  0  0  0  0  0  0  0  0  0  0
   -2.9505    4.5059   -2.2181 O   0  0  0  0  0  0  0  0  0  0  0  0
   -1.4451    2.4776   -1.5446 C   0  0  0  0  0  0  0  0  0  0  0  0
   -0.9017    2.5462   -2.8303 C   0  0  0  0  0  0  0  0  0  0  0  0
    0.1463    1.6999   -3.1883 C   0  0  0  0  0  0  0  0  0  0  0  0
    0.6838    0.8222   -2.2501 C   0  0  0  0  0  0  0  0  0  0  0  0
    0.1744    0.7722   -0.9503 C   0  0  0  0  0  0  0  0  0  0  0  0
   -0.9446    1.5573   -0.6171 C   0  0  0  0  0  0  0  0  0  0  0  0
    1.7928    0.0037    0.1042 H   0  0  0  0  0  0  0  0  0  0  0  0
   -2.1426   -3.1855    0.7605 H   0  0  0  0  0  0  0  0  0  0  0  0
   -1.5359   -3.3635    3.1781 H   0  0  0  0  0  0  0  0  0  0  0  0
    0.0413   -2.6161    4.8784 H   0  0  0  0  0  0  0  0  0  0  0  0
    3.7192   -3.1004    7.4534 H   0  0  0  0  0  0  0  0  0  0  0  0
    4.6740   -3.4034    5.9842 H   0  0  0  0  0  0  0  0  0  0  0  0
    4.1473    1.2986    6.3460 H   0  0  0  0  0  0  0  0  0  0  0  0
    2.0921    2.3345    5.3862 H   0  0  0  0  0  0  0  0  0  0  0  0
   -3.8981    2.1916    0.2584 H   0  0  0  0  0  0  0  0  0  0  0  0
   -4.8491    3.5903   -0.3027 H   0  0  0  0  0  0  0  0  0  0  0  0
   -4.4670    2.2793   -1.4494 H   0  0  0  0  0  0  0  0  0  0  0  0
   -1.2688    3.2711   -3.5527 H   0  0  0  0  0  0  0  0  0  0  0  0
    0.5691    1.7443   -4.1879 H   0  0  0  0  0  0  0  0  0  0  0  0
    1.4936    0.1555   -2.5376 H   0  0  0  0  0  0  0  0  0  0  0  0
   -1.3663    1.4947    0.3839 H   0  0  0  0  0  0  0  0  0  0  0  0
  1  2  1  0  0  0  0
  1 27  1  0  0  0  0
  1 29  1  0  0  0  0
  2  3  1  0  0  0  0
  2 18  2  0  0  0  0
  3  4  2  0  0  0  0
  4  5  1  0  0  0  0
  4 30  1  0  0  0  0
  5  6  2  0  0  0  0
  5 31  1  0  0  0  0
  6  7  1  0  0  0  0
  6 18  1  0  0  0  0
  7  8  1  0  0  0  0
  7 32  1  0  0  0  0
  8  9  1  0  0  0  0
  8 16  2  0  0  0  0
  9 10  1  0  0  0  0
  9 13  2  0  0  0  0
 10 11  1  0  0  0  0
 11 12  1  0  0  0  0
 11 33  1  0  0  0  0
 11 34  1  0  0  0  0
 12 13  1  0  0  0  0
 13 14  1  0  0  0  0
 14 15  2  0  0  0  0
 14 35  1  0  0  0  0
 15 16  1  0  0  0  0
 15 36  1  0  0  0  0
 16 17  1  0  0  0  0
 19 20  1  0  0  0  0
 19 37  1  0  0  0  0
 19 38  1  0  0  0  0
 19 39  1  0  0  0  0
 20 21  2  0  0  0  0
 20 22  2  0  0  0  0
 20 23  1  0  0  0  0
 23 24  1  0  0  0  0
 23 28  2  0  0  0  0
 24 25  2  0  0  0  0
 24 40  1  0  0  0  0
 25 26  1  0  0  0  0
 25 41  1  0  0  0  0
 26 27  2  0  0  0  0
 26 42  1  0  0  0  0
 27 28  1  0  0  0  0
 28 43  1  0  0  0  0
M  END
>  <DRUGBANK_ID>
DB07253

>  <COMMON_NAME>
N'-(5-chloro-1,3-benzodioxol-4-yl)-N-(3-methylsulfonylphenyl)pyrimidine-2,4-diamine

$$$$
