128
 OpenBabel10282417103D

 16 15  0  0  1  0  0  0  0  0999 V2000
    0.8930   -0.0515   -0.0944 O   0  0  0  0  0  0  0  0  0  0  0  0
   -2.1514    1.8400   -3.3493 O   0  0  0  0  0  0  0  0  0  0  0  0
    1.0137   -1.3320   -1.9271 O   0  0  0  0  0  0  0  0  0  0  0  0
   -0.0163    1.5665   -2.7205 O   0  0  0  0  0  0  0  0  0  0  0  0
   -1.7292   -1.3277    0.1096 N   0  0  0  0  0  0  0  0  0  0  0  0
   -1.2067   -0.6783   -1.1177 C   0  0  1  0  0  0  0  0  0  0  0  0
   -1.7333    0.7524   -1.2345 C   0  0  0  0  0  0  0  0  0  0  0  0
    0.3274   -0.7223   -1.1187 C   0  0  0  0  0  0  0  0  0  0  0  0
   -1.2071    1.4127   -2.4859 C   0  0  0  0  0  0  0  0  0  0  0  0
    1.8569   -0.1329   -0.2468 H   0  0  0  0  0  0  0  0  0  0  0  0
   -3.0808    1.7134   -3.0851 H   0  0  0  0  0  0  0  0  0  0  0  0
   -2.7447   -1.3788    0.0840 H   0  0  0  0  0  0  0  0  0  0  0  0
   -1.3893   -2.2903    0.1465 H   0  0  0  0  0  0  0  0  0  0  0  0
   -1.5475   -1.2640   -1.9804 H   0  0  0  0  0  0  0  0  0  0  0  0
   -2.8300    0.7511   -1.2406 H   0  0  0  0  0  0  0  0  0  0  0  0
   -1.4236    1.3679   -0.3813 H   0  0  0  0  0  0  0  0  0  0  0  0
  1  8  1  0  0  0  0
  1 10  1  0  0  0  0
  2  9  1  0  0  0  0
  2 11  1  0  0  0  0
  3  8  2  0  0  0  0
  4  9  2  0  0  0  0
  5 12  1  0  0  0  0
  5 13  1  0  0  0  0
  6  5  1  0  0  0  0
  6  7  1  0  0  0  0
  6  8  1  0  0  0  0
  6 14  1  6  0  0  0
  7  9  1  0  0  0  0
  7 15  1  0  0  0  0
  7 16  1  0  0  0  0
M  END
>  <DRUGBANK_ID>
DB00128

>  <SECONDARY_ACCESSION_NUMBERS>
NUTR00016; EXPT01823

>  <COMMON_NAME>
Aspartic acid

>  <CAS_NUMBER>
56-84-8

>  <UNII>
30KYC7MIAI

>  <SYNONYMS>
(S)-2-aminobutanedioic acid; (S)-2-aminosuccinic acid; 2-Aminosuccinic acid; ácido aspártico; Acidum asparticum; Asp; Aspartic acid; D; L-Asp; L-Asparaginsäure; L-Aspartate; L-Aspartic acid

$$$$
