
 OpenBabel10282417123D

 26 26  0  0  0  0  0  0  0  0999 V2000
    1.0919    0.0059    0.0389 N   0  3  0  0  0  0  0  0  0  0  0  0
    0.6019   -0.6933    1.2355 C   0  0  0  0  0  0  0  0  0  0  0  0
    1.1086    0.0167    2.4803 C   0  0  0  0  0  0  0  0  0  0  0  0
    0.6019    1.4498    2.4878 C   0  0  0  0  0  0  0  0  0  0  0  0
   -0.9181    1.4498    2.4878 C   0  0  0  0  0  0  0  0  0  0  0  0
   -1.3914    0.7743    3.6437 O   0  0  0  0  0  0  0  0  0  0  0  0
   -0.8914   -0.6399    3.6363 B   0  0  0  0  0  0  0  0  0  0  0  0
    0.4273   -0.9597    3.7673 O   0  0  0  0  0  0  0  0  0  0  0  0
    0.5132   -2.3913    3.9458 C   0  0  0  0  0  0  0  0  0  0  0  0
   -0.8758   -2.9175    3.5243 C   0  0  0  0  0  0  0  0  0  0  0  0
   -1.7083   -1.7294    3.4979 O   0  0  0  0  0  0  0  0  0  0  0  0
    0.7519    0.9675    0.0439 H   0  0  0  0  0  0  0  0  0  0  0  0
    0.7520   -0.4706   -0.7965 H   0  0  0  0  0  0  0  0  0  0  0  0
    2.1119    0.0059    0.0389 H   0  0  0  0  0  0  0  0  0  0  0  0
   -0.4681   -0.6933    1.2355 H   0  0  0  0  0  0  0  0  0  0  0  0
    0.9586   -1.7021    1.2302 H   0  0  0  0  0  0  0  0  0  0  0  0
    0.7519   -0.4922    3.3513 H   0  0  0  0  0  0  0  0  0  0  0  0
    2.1786    0.0167    2.4803 H   0  0  0  0  0  0  0  0  0  0  0  0
    0.9586    1.9496    3.3640 H   0  0  0  0  0  0  0  0  0  0  0  0
    0.9586    1.9587    1.6168 H   0  0  0  0  0  0  0  0  0  0  0  0
   -1.2747    2.4586    2.4930 H   0  0  0  0  0  0  0  0  0  0  0  0
   -1.2747    0.9499    1.6115 H   0  0  0  0  0  0  0  0  0  0  0  0
    1.3044   -2.8262    3.3716 H   0  0  0  0  0  0  0  0  0  0  0  0
    0.7150   -2.6335    4.9683 H   0  0  0  0  0  0  0  0  0  0  0  0
   -0.8550   -3.4268    2.5835 H   0  0  0  0  0  0  0  0  0  0  0  0
   -1.2461   -3.6257    4.2359 H   0  0  0  0  0  0  0  0  0  0  0  0
  1  2  1  0  0  0  0
  1 12  1  0  0  0  0
  1 13  1  0  0  0  0
  1 14  1  0  0  0  0
  2  3  1  0  0  0  0
  2 15  1  0  0  0  0
  2 16  1  0  0  0  0
  3  4  1  0  0  0  0
  3 17  1  0  0  0  0
  3 18  1  0  0  0  0
  4  5  1  0  0  0  0
  4 19  1  0  0  0  0
  4 20  1  0  0  0  0
  5  6  1  0  0  0  0
  5 21  1  0  0  0  0
  5 22  1  0  0  0  0
  6  7  1  0  0  0  0
  7  8  1  0  0  0  0
  7 11  1  0  0  0  0
  8  9  1  0  0  0  0
  9 10  1  0  0  0  0
  9 23  1  0  0  0  0
  9 24  1  0  0  0  0
 10 11  1  0  0  0  0
 10 25  1  0  0  0  0
 10 26  1  0  0  0  0
M  CHG  1   1   1
M  END
>  <DRUGBANK_ID>
DB02308

>  <SECONDARY_ACCESSION_NUMBERS>
EXPT01310

>  <COMMON_NAME>
4-(1,3,2-Dioxaborolan-2-Yloxy)Butan-1-Aminium

$$$$
