1414
 OpenBabel10282417113D

 36 37  0  0  1  0  0  0  0  0999 V2000
    1.3255    0.9869    0.5027 S   0  0  0  0  0  0  0  0  0  0  0  0
   -2.7086   -0.4180    0.6188 O   0  0  0  0  0  0  0  0  0  0  0  0
    1.5996   -3.6770    1.5736 O   0  0  0  0  0  0  0  0  0  0  0  0
   -2.1934   -2.8704   -0.3698 O   0  0  0  0  0  0  0  0  0  0  0  0
   -0.4141   -4.1168    0.0453 O   0  0  0  0  0  0  0  0  0  0  0  0
   -2.1504    4.8096    0.5277 O   0  0  0  0  0  0  0  0  0  0  0  0
    2.1965   -1.8617    2.8263 O   0  0  0  0  0  0  0  0  0  0  0  0
   -0.6487   -0.5230   -0.4683 N   0  0  0  0  0  0  0  0  0  0  0  0
   -1.4583    2.6733    0.2464 N   0  0  0  0  0  0  0  0  0  0  0  0
   -0.7750    3.2899   -3.4765 N   0  0  0  0  0  0  0  0  0  0  0  0
    0.0468    0.7373   -0.7398 C   0  0  1  0  0  0  0  0  0  0  0  0
   -1.3328    1.4134   -0.5280 C   0  0  1  0  0  0  0  0  0  0  0  0
   -1.7536    0.0631    0.0642 C   0  0  0  0  0  0  0  0  0  0  0  0
   -0.0458   -1.7197   -0.1692 C   0  0  0  0  0  0  0  0  0  0  0  0
    1.2983   -1.7672    0.0289 C   0  0  0  0  0  0  0  0  0  0  0  0
    2.2004   -0.5408    0.0183 C   0  0  0  0  0  0  0  0  0  0  0  0
    2.0567   -3.0465    0.3597 C   0  0  0  0  0  0  0  0  0  0  0  0
   -0.8773   -2.9974   -0.1112 C   0  0  0  0  0  0  0  0  0  0  0  0
   -2.0918    3.8189   -0.1994 C   0  0  0  0  0  0  0  0  0  0  0  0
   -2.7427    3.8064   -1.5804 C   0  0  0  0  0  0  0  0  0  0  0  0
    1.6786   -2.9647    2.7214 C   0  0  0  0  0  0  0  0  0  0  0  0
   -1.6672    3.5241   -2.6168 C   0  0  0  0  0  0  0  0  0  0  0  0
    1.0201   -3.6836    3.8614 C   0  0  0  0  0  0  0  0  0  0  0  0
    0.4024    0.8401   -1.7716 H   0  0  0  0  0  0  0  0  0  0  0  0
   -2.5670   -1.9717   -0.3132 H   0  0  0  0  0  0  0  0  0  0  0  0
   -1.0381    2.7686    1.1718 H   0  0  0  0  0  0  0  0  0  0  0  0
   -1.8795    1.4890   -1.4700 H   0  0  0  0  0  0  0  0  0  0  0  0
    2.6372   -0.4155   -0.9801 H   0  0  0  0  0  0  0  0  0  0  0  0
    3.0318   -0.6520    0.7204 H   0  0  0  0  0  0  0  0  0  0  0  0
    1.9294   -3.7554   -0.4696 H   0  0  0  0  0  0  0  0  0  0  0  0
    3.1388   -2.8928    0.4327 H   0  0  0  0  0  0  0  0  0  0  0  0
   -3.5248    3.0417   -1.6049 H   0  0  0  0  0  0  0  0  0  0  0  0
   -3.2034    4.7787   -1.7803 H   0  0  0  0  0  0  0  0  0  0  0  0
   -0.0516   -3.8069    3.6813 H   0  0  0  0  0  0  0  0  0  0  0  0
    1.4973   -4.6509    4.0330 H   0  0  0  0  0  0  0  0  0  0  0  0
    1.1437   -3.0771    4.7643 H   0  0  0  0  0  0  0  0  0  0  0  0
  1 11  1  0  0  0  0
  1 16  1  0  0  0  0
  2 13  2  0  0  0  0
  3 17  1  0  0  0  0
  3 21  1  0  0  0  0
  4 18  1  0  0  0  0
  4 25  1  0  0  0  0
  5 18  2  0  0  0  0
  6 19  2  0  0  0  0
  7 21  2  0  0  0  0
  8 11  1  0  0  0  0
  8 13  1  0  0  0  0
  8 14  1  0  0  0  0
  9 19  1  0  0  0  0
  9 26  1  0  0  0  0
 10 22  3  0  0  0  0
 11 12  1  0  0  0  0
 11 24  1  6  0  0  0
 12  9  1  0  0  0  0
 12 13  1  0  0  0  0
 12 27  1  6  0  0  0
 14 15  2  0  0  0  0
 14 18  1  0  0  0  0
 15 16  1  0  0  0  0
 15 17  1  0  0  0  0
 16 28  1  0  0  0  0
 16 29  1  0  0  0  0
 17 30  1  0  0  0  0
 17 31  1  0  0  0  0
 19 20  1  0  0  0  0
 20 22  1  0  0  0  0
 20 32  1  0  0  0  0
 20 33  1  0  0  0  0
 21 23  1  0  0  0  0
 23 34  1  0  0  0  0
 23 35  1  0  0  0  0
 23 36  1  0  0  0  0
M  END
>  <DRUGBANK_ID>
DB01414

>  <COMMON_NAME>
Cefacetrile

>  <CAS_NUMBER>
10206-21-0

>  <UNII>
FDM21QQ344

>  <SYNONYMS>
Cefacetrile; Cefacetrilo; Cefacetrilum; Cephacetrile

$$$$
