
 OpenBabel10282417193D

133135  0  0  0  0  0  0  0  0999 V2000
   -9.0501    2.9617    1.4899 N   0  0  0  0  0  0  0  0  0  0  0  0
   -9.1279    4.3348    0.0264 C   0  0  1  0  0  0  0  0  0  0  0  0
   -9.4346    6.2523    0.3807 C   0  0  0  0  0  0  0  0  0  0  0  0
   -7.6914    7.1299    1.1143 C   0  0  0  0  0  0  0  0  0  0  0  0
   -6.2697    6.7617    1.0907 C   0  0  0  0  0  0  0  0  0  0  0  0
   -4.6932    6.4608    2.3902 C   0  0  0  0  0  0  0  0  0  0  0  0
   -4.6642    7.2490    3.6426 C   0  0  0  0  0  0  0  0  0  0  0  0
   -3.3081    7.5773    3.8218 O   0  0  0  0  0  0  0  0  0  0  0  0
   -6.0835    8.4783    3.6551 C   0  0  0  0  0  0  0  0  0  0  0  0
   -7.3736    8.1879    2.3788 C   0  0  0  0  0  0  0  0  0  0  0  0
   -7.8235    4.7013   -1.1634 C   0  0  0  0  0  0  0  0  0  0  0  0
   -7.8728    4.7261   -2.3860 O   0  0  0  0  0  0  0  0  0  0  0  0
   -6.6424    5.0792   -0.6796 N   0  0  0  0  0  0  0  0  0  0  0  0
   -5.4893    5.3552    1.0962 C   0  0  2  0  0  0  0  0  0  0  0  0
   -3.9091    4.4215    1.4576 C   0  0  0  0  0  0  0  0  0  0  0  0
   -2.8335    4.9633    1.9659 N   0  0  0  0  0  0  0  0  0  0  0  0
   -2.2352    3.9215    2.6904 C   0  0  2  0  0  0  0  0  0  0  0  0
   -2.3249    2.4778    1.8024 C   0  0  0  0  0  0  0  0  0  0  0  0
   -2.7681    1.4800    2.4005 O   0  0  0  0  0  0  0  0  0  0  0  0
   -2.5212    2.5990    0.3336 N   0  0  0  0  0  0  0  0  0  0  0  0
   -1.8620    3.5742   -0.5152 C   0  0  2  0  0  0  0  0  0  0  0  0
   -1.2156    4.8314    0.0781 C   0  0  0  0  0  0  0  0  0  0  0  0
   -1.6022    6.0762   -0.3681 N   0  0  0  0  0  0  0  0  0  0  0  0
   -1.0208    7.2767    0.2467 C   0  0  1  0  0  0  0  0  0  0  0  0
   -0.0923    8.0382   -0.6671 C   0  0  0  0  0  0  0  0  0  0  0  0
   -0.4192    9.3084   -1.0247 O   0  0  0  0  0  0  0  0  0  0  0  0
    0.9063    7.4967   -1.1153 O   0  0  0  0  0  0  0  0  0  0  0  0
   -2.0909    8.1766    0.6557 C   0  0  0  0  0  0  0  0  0  0  0  0
   -0.4270    4.7271    1.0162 O   0  0  0  0  0  0  0  0  0  0  0  0
   -2.8487    3.8723   -1.6376 C   0  0  0  0  0  0  0  0  0  0  0  0
   -3.6577    2.5863   -1.8245 C   0  0  0  0  0  0  0  0  0  0  0  0
   -3.6288    1.8971   -0.4491 C   0  0  0  0  0  0  0  0  0  0  0  0
   -2.6762    3.7849    4.1552 C   0  0  0  0  0  0  0  0  0  0  0  0
   -1.7399    2.8125    4.7381 C   0  0  0  0  0  0  0  0  0  0  0  0
   -0.4939    2.9893    5.2741 C   0  0  0  0  0  0  0  0  0  0  0  0
    0.0703    1.7866    5.5829 N   0  0  0  0  0  0  0  0  0  0  0  0
   -0.7990    0.8774    5.2001 C   0  0  0  0  0  0  0  0  0  0  0  0
   -1.9133    1.4513    4.6722 N   0  0  0  0  0  0  0  0  0  0  0  0
   -4.1418    3.2300    1.5582 O   0  0  0  0  0  0  0  0  0  0  0  0
   -4.5011    6.1404    0.6995 H   0  0  0  0  0  0  0  0  0  0  0  0
   -7.3420    4.7596    1.9769 C   0  0  1  0  0  0  0  0  0  0  0  0
   -8.6508    5.5485    2.0281 C   0  0  0  0  0  0  0  0  0  0  0  0
   -7.3364    3.5703    1.1327 C   0  0  0  0  0  0  0  0  0  0  0  0
   -6.2300    2.1309    1.7272 C   0  0  0  0  0  0  0  0  0  0  0  0
   -7.5846    2.9493    2.8108 C   0  0  0  0  0  0  0  0  0  0  0  0
   -7.6846    2.4991    3.9552 O   0  0  0  0  0  0  0  0  0  0  0  0
   -5.8323    4.0908    2.1085 C   0  0  1  0  0  0  0  0  0  0  0  0
   -5.1921    4.3682   -0.0655 N   0  0  0  0  0  0  0  0  0  0  0  0
   -5.3624    6.3154   -0.7976 C   0  0  0  0  0  0  0  0  0  0  0  0
   -4.8685    6.5624   -1.9452 O   0  0  0  0  0  0  0  0  0  0  0  0
   -6.8623    7.8687   -0.5349 C   0  0  1  0  0  0  0  0  0  0  0  0
   -8.6724    8.3969    0.3360 N   0  0  0  0  0  0  0  0  0  0  0  0
   -9.3679    8.2007    2.1847 C   0  0  0  0  0  0  0  0  0  0  0  0
  -10.4222    7.5221    2.5110 O   0  0  0  0  0  0  0  0  0  0  0  0
   -8.2872    8.2966    4.0239 C   0  0  0  0  0  0  0  0  0  0  0  0
   -6.8221    7.2534    4.9159 N   0  0  0  0  0  0  0  0  0  0  0  0
   -5.3031    7.7643    5.5929 C   0  0  0  0  0  0  0  0  0  0  0  0
   -6.2062    8.9798    0.2907 C   0  0  0  0  0  0  0  0  0  0  0  0
   -4.4971    9.2056    0.5634 C   0  0  0  0  0  0  0  0  0  0  0  0
   -4.7645   10.2136   -0.3172 C   0  0  0  0  0  0  0  0  0  0  0  0
   -5.5093   11.1230    0.5107 N   0  0  0  0  0  0  0  0  0  0  0  0
   -5.0540   12.3198    0.7513 C   0  0  0  0  0  0  0  0  0  0  0  0
   -5.7741   13.2274    1.2787 N   0  0  0  0  0  0  0  0  0  0  0  0
   -3.7942   12.4971    0.3431 N   0  0  0  0  0  0  0  0  0  0  0  0
   -6.3439    6.1170    2.8794 C   0  0  0  0  0  0  0  0  0  0  0  0
   -7.8202    5.7221    4.1766 C   0  0  0  0  0  0  0  0  0  0  0  0
   -5.3613    8.0284    2.1248 C   0  0  0  0  0  0  0  0  0  0  0  0
   -9.1095    2.0346    1.1481 H   0  0  0  0  0  0  0  0  0  0  0  0
   -9.9779    4.2596   -0.5950 H   0  0  0  0  0  0  0  0  0  0  0  0
  -10.1860    6.9673    0.0333 H   0  0  0  0  0  0  0  0  0  0  0  0
  -10.2522    5.8588    1.1421 H   0  0  0  0  0  0  0  0  0  0  0  0
   -6.8611    5.6894    0.7103 H   0  0  0  0  0  0  0  0  0  0  0  0
   -4.3782    5.5866    2.9258 H   0  0  0  0  0  0  0  0  0  0  0  0
   -2.8806    6.7132    3.8824 H   0  0  0  0  0  0  0  0  0  0  0  0
   -6.1364    9.4261    4.2110 H   0  0  0  0  0  0  0  0  0  0  0  0
   -7.9337    9.1638    2.1868 H   0  0  0  0  0  0  0  0  0  0  0  0
   -5.8663    4.8430   -1.3984 H   0  0  0  0  0  0  0  0  0  0  0  0
   -2.7947    5.9559    2.1502 H   0  0  0  0  0  0  0  0  0  0  0  0
   -1.2725    4.3262    2.7398 H   0  0  0  0  0  0  0  0  0  0  0  0
   -1.0504    2.9695   -0.8890 H   0  0  0  0  0  0  0  0  0  0  0  0
   -2.0913    6.1693   -1.2526 H   0  0  0  0  0  0  0  0  0  0  0  0
   -0.5235    7.0178    1.1787 H   0  0  0  0  0  0  0  0  0  0  0  0
   -1.2187    9.7673   -0.7016 H   0  0  0  0  0  0  0  0  0  0  0  0
   -2.7030    7.6314    1.3643 H   0  0  0  0  0  0  0  0  0  0  0  0
   -1.8318    9.1044    1.1623 H   0  0  0  0  0  0  0  0  0  0  0  0
   -2.5781    8.4447   -0.2987 H   0  0  0  0  0  0  0  0  0  0  0  0
   -3.4732    4.7299   -1.3826 H   0  0  0  0  0  0  0  0  0  0  0  0
   -2.3506    4.2036   -2.5381 H   0  0  0  0  0  0  0  0  0  0  0  0
   -4.6734    2.7823   -2.2200 H   0  0  0  0  0  0  0  0  0  0  0  0
   -3.1629    1.9342   -2.5277 H   0  0  0  0  0  0  0  0  0  0  0  0
   -4.6542    1.9159   -0.0789 H   0  0  0  0  0  0  0  0  0  0  0  0
   -3.4309    0.8464   -0.4667 H   0  0  0  0  0  0  0  0  0  0  0  0
   -2.5640    4.7559    4.6687 H   0  0  0  0  0  0  0  0  0  0  0  0
   -3.7180    3.4827    4.3158 H   0  0  0  0  0  0  0  0  0  0  0  0
   -0.0039    3.9365    5.4446 H   0  0  0  0  0  0  0  0  0  0  0  0
   -0.6842   -0.1942    5.2856 H   0  0  0  0  0  0  0  0  0  0  0  0
   -2.6676    0.9747    4.1776 H   0  0  0  0  0  0  0  0  0  0  0  0
   -7.0200    4.5469    3.2129 H   0  0  0  0  0  0  0  0  0  0  0  0
   -8.2108    5.4873    0.8735 H   0  0  0  0  0  0  0  0  0  0  0  0
   -9.4744    5.4029    2.6955 H   0  0  0  0  0  0  0  0  0  0  0  0
   -8.9004    6.5190    2.1416 H   0  0  0  0  0  0  0  0  0  0  0  0
   -8.3070    4.0750    2.0828 H   0  0  0  0  0  0  0  0  0  0  0  0
   -7.3264    3.4366    0.1376 H   0  0  0  0  0  0  0  0  0  0  0  0
   -5.7166    2.4065    2.8753 H   0  0  0  0  0  0  0  0  0  0  0  0
   -6.9599    1.3622    1.7886 H   0  0  0  0  0  0  0  0  0  0  0  0
   -5.7384    2.4914    0.8961 H   0  0  0  0  0  0  0  0  0  0  0  0
   -5.2023    4.2163    3.0560 H   0  0  0  0  0  0  0  0  0  0  0  0
   -4.5038    3.7387   -0.3176 H   0  0  0  0  0  0  0  0  0  0  0  0
   -6.9019    8.6615   -1.2616 H   0  0  0  0  0  0  0  0  0  0  0  0
   -8.8335    7.6280   -0.4403 H   0  0  0  0  0  0  0  0  0  0  0  0
   -7.9003    9.4076    3.8724 H   0  0  0  0  0  0  0  0  0  0  0  0
   -8.7961    8.1718    4.9513 H   0  0  0  0  0  0  0  0  0  0  0  0
   -6.2355    6.3577    4.4691 H   0  0  0  0  0  0  0  0  0  0  0  0
   -6.1425    7.8706    6.1653 H   0  0  0  0  0  0  0  0  0  0  0  0
   -4.6621    6.7967    5.4997 H   0  0  0  0  0  0  0  0  0  0  0  0
   -4.7093    8.6604    4.9961 H   0  0  0  0  0  0  0  0  0  0  0  0
   -6.9077    9.5663    0.9107 H   0  0  0  0  0  0  0  0  0  0  0  0
   -6.4289    8.4269    1.0073 H   0  0  0  0  0  0  0  0  0  0  0  0
   -3.9564    9.5939    1.5337 H   0  0  0  0  0  0  0  0  0  0  0  0
   -4.0280    8.2621    0.2343 H   0  0  0  0  0  0  0  0  0  0  0  0
   -3.7272   10.3179   -0.4471 H   0  0  0  0  0  0  0  0  0  0  0  0
   -5.2234    9.5929   -1.0766 H   0  0  0  0  0  0  0  0  0  0  0  0
   -6.4557   10.9594    0.8603 H   0  0  0  0  0  0  0  0  0  0  0  0
   -6.7174   12.9179    1.5309 H   0  0  0  0  0  0  0  0  0  0  0  0
   -3.1869   11.8084   -0.0585 H   0  0  0  0  0  0  0  0  0  0  0  0
   -3.4081   13.4119    0.3983 H   0  0  0  0  0  0  0  0  0  0  0  0
   -7.1070    6.2323    2.3073 H   0  0  0  0  0  0  0  0  0  0  0  0
   -7.3472    5.4451    5.1462 H   0  0  0  0  0  0  0  0  0  0  0  0
   -8.5805    6.4769    4.1676 H   0  0  0  0  0  0  0  0  0  0  0  0
   -8.5102    4.9167    4.0682 H   0  0  0  0  0  0  0  0  0  0  0  0
   -4.8488    7.7158    1.2669 H   0  0  0  0  0  0  0  0  0  0  0  0
   -5.7102    9.2304    2.1713 H   0  0  0  0  0  0  0  0  0  0  0  0
   -4.3759    8.5682    2.6011 H   0  0  0  0  0  0  0  0  0  0  0  0
  1 45  1  0  0  0  0
  1 68  1  0  0  0  0
  2  1  1  0  0  0  0
  2 69  1  6  0  0  0
  3  2  1  0  0  0  0
  3 70  1  0  0  0  0
  3 71  1  0  0  0  0
  4  3  1  0  0  0  0
  4  5  2  0  0  0  0
  5 72  1  0  0  0  0
  6  5  1  0  0  0  0
  6 73  1  0  0  0  0
  7  6  2  0  0  0  0
  7  8  1  0  0  0  0
  8 74  1  0  0  0  0
  9  7  1  0  0  0  0
  9 10  2  0  0  0  0
  9 75  1  0  0  0  0
 10  4  1  0  0  0  0
 10 76  1  0  0  0  0
 11  2  1  0  0  0  0
 11 12  2  0  0  0  0
 13 11  1  0  0  0  0
 13 77  1  0  0  0  0
 14 13  1  0  0  0  0
 14 15  1  0  0  0  0
 14 40  1  1  0  0  0
 14 41  1  0  0  0  0
 15 39  2  0  0  0  0
 16 15  1  0  0  0  0
 16 78  1  0  0  0  0
 17 33  1  0  0  0  0
 17 79  1  1  0  0  0
 17 18  1  0  0  0  0
 17 16  1  0  0  0  0
 18 19  2  0  0  0  0
 18 20  1  0  0  0  0
 20 21  1  0  0  0  0
 20 32  1  0  0  0  0
 21 30  1  0  0  0  0
 21 80  1  6  0  0  0
 21 22  1  0  0  0  0
 22 23  1  0  0  0  0
 22 29  2  0  0  0  0
 23 24  1  0  0  0  0
 23 81  1  0  0  0  0
 24 25  1  0  0  0  0
 24 28  1  0  0  0  0
 24 82  1  1  0  0  0
 25 26  1  0  0  0  0
 25 27  2  0  0  0  0
 26 83  1  0  0  0  0
 28 84  1  0  0  0  0
 28 85  1  0  0  0  0
 28 86  1  0  0  0  0
 30 31  1  0  0  0  0
 30 87  1  0  0  0  0
 30 88  1  0  0  0  0
 31 89  1  0  0  0  0
 31 90  1  0  0  0  0
 32 31  1  0  0  0  0
 32 91  1  0  0  0  0
 32 92  1  0  0  0  0
 33 34  1  0  0  0  0
 33 93  1  0  0  0  0
 33 94  1  0  0  0  0
 34 35  2  0  0  0  0
 34 38  1  0  0  0  0
 35 36  1  0  0  0  0
 35 95  1  0  0  0  0
 36 37  2  0  0  0  0
 37 96  1  0  0  0  0
 38 37  1  0  0  0  0
 38 97  1  0  0  0  0
 41 42  1  0  0  0  0
 41 43  1  0  0  0  0
 41 98  1  1  0  0  0
 42 99  1  0  0  0  0
 42100  1  0  0  0  0
 42101  1  0  0  0  0
 43 44  1  0  0  0  0
 43102  1  0  0  0  0
 43103  1  0  0  0  0
 44104  1  0  0  0  0
 44105  1  0  0  0  0
 44106  1  0  0  0  0
 45 46  2  0  0  0  0
 47 45  1  0  0  0  0
 47 48  1  0  0  0  0
 47107  1  1  0  0  0
 48 49  1  0  0  0  0
 48108  1  0  0  0  0
 49 50  2  0  0  0  0
 51 49  1  0  0  0  0
 51 52  1  0  0  0  0
 51109  1  6  0  0  0
 52 53  1  0  0  0  0
 52110  1  0  0  0  0
 53 54  2  0  0  0  0
 53 55  1  0  0  0  0
 55 56  1  0  0  0  0
 55111  1  0  0  0  0
 55112  1  0  0  0  0
 56 57  1  0  0  0  0
 56113  1  0  0  0  0
 57114  1  0  0  0  0
 57115  1  0  0  0  0
 57116  1  0  0  0  0
 58 51  1  0  0  0  0
 58117  1  0  0  0  0
 58118  1  0  0  0  0
 59 58  1  0  0  0  0
 59 60  1  0  0  0  0
 59119  1  0  0  0  0
 59120  1  0  0  0  0
 60 61  1  0  0  0  0
 60121  1  0  0  0  0
 60122  1  0  0  0  0
 61 62  1  0  0  0  0
 61123  1  0  0  0  0
 62 63  2  0  0  0  0
 62 64  1  0  0  0  0
 63124  1  0  0  0  0
 64125  1  0  0  0  0
 64126  1  0  0  0  0
 65 47  1  0  0  0  0
 65 66  1  0  0  0  0
 65 67  1  0  0  0  0
 65127  1  0  0  0  0
 66128  1  0  0  0  0
 66129  1  0  0  0  0
 66130  1  0  0  0  0
 67131  1  0  0  0  0
 67132  1  0  0  0  0
 67133  1  0  0  0  0
M  END
>  <DRUGBANK_ID>
DB12199

>  <COMMON_NAME>
TRV-120027

>  <CAS_NUMBER>
1234510-46-3

>  <UNII>
J1J4P3PQZD

$$$$
