
 OpenBabel10282417233D

 40 42  0  0  0  0  0  0  0  0999 V2000
   -1.1170   -1.2324    0.0096 C   0  0  0  0  0  0  0  0  0  0  0  0
   -1.7326    2.4562   -1.9357 C   0  0  0  0  0  0  0  0  0  0  0  0
   -4.4191   -0.1165    2.7368 C   0  0  0  0  0  0  0  0  0  0  0  0
   -1.7684   -0.0091    0.1819 C   0  0  0  0  0  0  0  0  0  0  0  0
   -3.1269    2.4641   -1.7729 C   0  0  0  0  0  0  0  0  0  0  0  0
    0.2692   -1.2748    0.0267 C   0  0  0  0  0  0  0  0  0  0  0  0
   -0.9748    3.5914   -1.6096 C   0  0  0  0  0  0  0  0  0  0  0  0
   -5.7620    0.0196    2.4309 C   0  0  0  0  0  0  0  0  0  0  0  0
   -3.5569    0.8308    2.2594 C   0  0  0  0  0  0  0  0  0  0  0  0
    0.3250    1.1185    0.3965 C   0  0  0  0  0  0  0  0  0  0  0  0
   -3.0146    4.8160   -1.1843 C   0  0  0  0  0  0  0  0  0  0  0  0
   -1.0611    1.1557    0.5498 C   0  0  0  0  0  0  0  0  0  0  0  0
   -3.7673    3.6452   -1.3844 C   0  0  0  0  0  0  0  0  0  0  0  0
    0.9727   -0.0813    0.1307 C   0  0  0  0  0  0  0  0  0  0  0  0
   -1.6233    4.7703   -1.2595 C   0  0  0  0  0  0  0  0  0  0  0  0
   -6.1967    0.9989    1.5163 C   0  0  0  0  0  0  0  0  0  0  0  0
   -3.9693    1.7962    1.3430 C   0  0  0  0  0  0  0  0  0  0  0  0
   -5.2811    1.8607    0.8972 C   0  0  0  0  0  0  0  0  0  0  0  0
   -1.6297    2.4982    1.0359 C   0  0  0  0  0  0  0  0  0  0  0  0
   -5.2185    3.6803   -1.0802 C   0  0  0  0  0  0  0  0  0  0  0  0
   -7.5156    1.1077    1.3009 F   0  0  0  0  0  0  0  0  0  0  0  0
    2.3246   -0.0271   -0.0107 O   0  0  0  0  0  0  0  0  0  0  0  0
   -0.9235    5.8698   -0.8544 O   0  0  0  0  0  0  0  0  0  0  0  0
   -0.8843    3.3917    1.3879 O   0  0  0  0  0  0  0  0  0  0  0  0
   -5.9224    4.4855   -1.6633 O   0  0  0  0  0  0  0  0  0  0  0  0
   -3.0099    2.7381    0.9923 O   0  0  0  0  0  0  0  0  0  0  0  0
   -5.7456    2.7855   -0.1041 O   0  0  0  0  0  0  0  0  0  0  0  0
   -1.7010   -2.1402   -0.1336 H   0  0  0  0  0  0  0  0  0  0  0  0
   -1.2191    1.5057   -2.0900 H   0  0  0  0  0  0  0  0  0  0  0  0
   -4.0127   -0.8820    3.3875 H   0  0  0  0  0  0  0  0  0  0  0  0
   -2.8428   -0.0256    0.0273 H   0  0  0  0  0  0  0  0  0  0  0  0
   -3.6713    1.5214   -1.7701 H   0  0  0  0  0  0  0  0  0  0  0  0
    0.7738   -2.2289   -0.0817 H   0  0  0  0  0  0  0  0  0  0  0  0
    0.0984    3.4895   -1.4431 H   0  0  0  0  0  0  0  0  0  0  0  0
   -6.4705   -0.6198    2.9439 H   0  0  0  0  0  0  0  0  0  0  0  0
   -2.5210    0.7792    2.5727 H   0  0  0  0  0  0  0  0  0  0  0  0
    0.9084    2.0348    0.4451 H   0  0  0  0  0  0  0  0  0  0  0  0
   -3.4924    5.7282   -0.8392 H   0  0  0  0  0  0  0  0  0  0  0  0
    2.6745   -0.9310   -0.0527 H   0  0  0  0  0  0  0  0  0  0  0  0
    0.0117    5.6300   -0.7310 H   0  0  0  0  0  0  0  0  0  0  0  0
  1 28  1  0  0  0  0
  2 29  1  0  0  0  0
  3 30  1  0  0  0  0
  4  1  2  0  0  0  0
  4 31  1  0  0  0  0
  5  2  2  0  0  0  0
  5 32  1  0  0  0  0
  6  1  1  0  0  0  0
  6 33  1  0  0  0  0
  7  2  1  0  0  0  0
  7 34  1  0  0  0  0
  8  3  2  0  0  0  0
  8 35  1  0  0  0  0
  9  3  1  0  0  0  0
  9 36  1  0  0  0  0
 10 37  1  0  0  0  0
 11 38  1  0  0  0  0
 12  4  1  0  0  0  0
 12 10  2  0  0  0  0
 13  5  1  0  0  0  0
 13 11  2  0  0  0  0
 14  6  2  0  0  0  0
 14 10  1  0  0  0  0
 15  7  2  0  0  0  0
 15 11  1  0  0  0  0
 16  8  1  0  0  0  0
 17  9  2  0  0  0  0
 18 16  2  0  0  0  0
 18 17  1  0  0  0  0
 19 12  1  0  0  0  0
 20 13  1  0  0  0  0
 21 16  1  0  0  0  0
 22 14  1  0  0  0  0
 22 39  1  0  0  0  0
 23 15  1  0  0  0  0
 23 40  1  0  0  0  0
 24 19  2  0  0  0  0
 25 20  2  0  0  0  0
 26 17  1  0  0  0  0
 26 19  1  0  0  0  0
 27 18  1  0  0  0  0
 27 20  1  0  0  0  0
M  END
>  <DRUGBANK_ID>
DB16764

>  <COMMON_NAME>
WZB-117

>  <CAS_NUMBER>
1223397-11-2

>  <SYNONYMS>
WZB 117; WZB117

$$$$
