
 OpenBabel10282417203D

 43 45  0  0  0  0  0  0  0  0999 V2000
    0.9150    0.1173   -0.1184 C   0  0  0  0  0  0  0  0  0  0  0  0
    0.4887   -1.2266   -0.6233 C   0  0  0  0  0  0  0  0  0  0  0  0
    0.9731   -2.4450   -0.1601 C   0  0  0  0  0  0  0  0  0  0  0  0
    0.3715   -3.4749   -0.9246 C   0  0  0  0  0  0  0  0  0  0  0  0
    0.5012   -4.8884   -0.9281 C   0  0  0  0  0  0  0  0  0  0  0  0
   -0.2416   -5.6686   -1.8188 C   0  0  0  0  0  0  0  0  0  0  0  0
   -1.0858   -5.0445   -2.7140 C   0  0  0  0  0  0  0  0  0  0  0  0
   -1.1781   -3.6615   -2.7554 C   0  0  0  0  0  0  0  0  0  0  0  0
   -0.4922   -2.8597   -1.8329 C   0  0  0  0  0  0  0  0  0  0  0  0
   -0.4765   -1.4670   -1.6157 N   0  0  0  0  0  0  0  0  0  0  0  0
   -1.2843   -0.4960   -2.2938 C   0  0  0  0  0  0  0  0  0  0  0  0
   -1.1249    0.7000   -2.0339 O   0  0  0  0  0  0  0  0  0  0  0  0
   -2.2961   -0.8001   -3.3295 C   0  0  0  0  0  0  0  0  0  0  0  0
   -3.3850   -1.6300   -3.0345 C   0  0  0  0  0  0  0  0  0  0  0  0
   -4.1020   -2.2092   -4.0873 C   0  0  0  0  0  0  0  0  0  0  0  0
   -3.8501   -1.8125   -5.4008 C   0  0  0  0  0  0  0  0  0  0  0  0
   -2.8990   -0.8282   -5.6710 C   0  0  0  0  0  0  0  0  0  0  0  0
   -2.0795   -0.3579   -4.6408 C   0  0  0  0  0  0  0  0  0  0  0  0
   -4.6712   -2.5892   -6.6972 Cl  0  0  0  0  0  0  0  0  0  0  0  0
   -0.0556   -7.0230   -1.7560 O   0  0  0  0  0  0  0  0  0  0  0  0
   -0.8239   -7.7835   -2.6876 C   0  0  0  0  0  0  0  0  0  0  0  0
    1.9474   -2.6456    0.9633 C   0  0  0  0  0  0  0  0  0  0  0  0
    1.3674   -3.5021    2.0760 C   0  0  0  0  0  0  0  0  0  0  0  0
    1.9042   -4.5652    2.3985 O   0  0  0  0  0  0  0  0  0  0  0  0
    0.2625   -3.0799    2.7474 N   0  0  0  0  0  0  0  0  0  0  0  0
   -0.4456   -1.8921    2.5400 O   0  0  0  0  0  0  0  0  0  0  0  0
    0.5457    0.2764    0.9004 H   0  0  0  0  0  0  0  0  0  0  0  0
    0.6138    0.9678   -0.7206 H   0  0  0  0  0  0  0  0  0  0  0  0
    2.0101    0.1438   -0.0720 H   0  0  0  0  0  0  0  0  0  0  0  0
    1.1867   -5.3770   -0.2386 H   0  0  0  0  0  0  0  0  0  0  0  0
   -1.6865   -5.5910   -3.4324 H   0  0  0  0  0  0  0  0  0  0  0  0
   -1.7879   -3.2673   -3.5470 H   0  0  0  0  0  0  0  0  0  0  0  0
   -3.5749   -1.9511   -2.0128 H   0  0  0  0  0  0  0  0  0  0  0  0
   -4.7987   -3.0189   -3.8810 H   0  0  0  0  0  0  0  0  0  0  0  0
   -2.7627   -0.4605   -6.6850 H   0  0  0  0  0  0  0  0  0  0  0  0
   -1.2543    0.3140   -4.8699 H   0  0  0  0  0  0  0  0  0  0  0  0
   -1.8975   -7.6523   -2.5058 H   0  0  0  0  0  0  0  0  0  0  0  0
   -0.5693   -7.5168   -3.7210 H   0  0  0  0  0  0  0  0  0  0  0  0
   -0.5883   -8.8404   -2.5501 H   0  0  0  0  0  0  0  0  0  0  0  0
    2.8473   -3.1339    0.5684 H   0  0  0  0  0  0  0  0  0  0  0  0
    2.2710   -1.6957    1.4005 H   0  0  0  0  0  0  0  0  0  0  0  0
   -0.1198   -3.6935    3.4587 H   0  0  0  0  0  0  0  0  0  0  0  0
   -0.0506   -1.4794    1.7580 H   0  0  0  0  0  0  0  0  0  0  0  0
  1  2  1  0  0  0  0
  1 27  1  0  0  0  0
  1 28  1  0  0  0  0
  1 29  1  0  0  0  0
  2  3  2  0  0  0  0
  2 10  1  0  0  0  0
  3  4  1  0  0  0  0
  3 22  1  0  0  0  0
  4  5  2  0  0  0  0
  4  9  1  0  0  0  0
  5  6  1  0  0  0  0
  5 30  1  0  0  0  0
  6  7  2  0  0  0  0
  6 20  1  0  0  0  0
  7  8  1  0  0  0  0
  7 31  1  0  0  0  0
  8  9  2  0  0  0  0
  8 32  1  0  0  0  0
  9 10  1  0  0  0  0
 10 11  1  0  0  0  0
 11 12  2  0  0  0  0
 11 13  1  0  0  0  0
 13 14  2  0  0  0  0
 13 18  1  0  0  0  0
 14 15  1  0  0  0  0
 14 33  1  0  0  0  0
 15 16  2  0  0  0  0
 15 34  1  0  0  0  0
 16 17  1  0  0  0  0
 16 19  1  0  0  0  0
 17 18  2  0  0  0  0
 17 35  1  0  0  0  0
 18 36  1  0  0  0  0
 20 21  1  0  0  0  0
 21 37  1  0  0  0  0
 21 38  1  0  0  0  0
 21 39  1  0  0  0  0
 22 23  1  0  0  0  0
 22 40  1  0  0  0  0
 22 41  1  0  0  0  0
 23 24  2  0  0  0  0
 23 25  1  0  0  0  0
 25 26  1  0  0  0  0
 25 42  1  0  0  0  0
 26 43  1  0  0  0  0
M  END
>  <DRUGBANK_ID>
DB13308

>  <COMMON_NAME>
Oxametacin

>  <CAS_NUMBER>
27035-30-9

>  <UNII>
8G02RSW5CM

>  <SYNONYMS>
Oxametacin

$$$$
