
 OpenBabel10282417133D

 38 37  0  0  0  0  0  0  0  0999 V2000
    1.0656    0.1063    0.0156 C   0  0  0  0  0  0  0  0  0  0  0  0
   -1.5357   -3.2884    1.9816 C   0  0  0  0  0  0  0  0  0  0  0  0
    0.6095   -1.3385   -0.1983 C   0  0  0  0  0  0  0  0  0  0  0  0
   -0.9611   -1.9039    2.2564 C   0  0  0  0  0  0  0  0  0  0  0  0
    1.1195   -2.2966    0.8798 C   0  0  0  0  0  0  0  0  0  0  0  0
    0.5686   -2.0245    2.2781 C   0  0  0  0  0  0  0  0  0  0  0  0
    1.0376    2.1865    1.5536 C   0  0  0  0  0  0  0  0  0  0  0  0
   -1.5351   -3.7749    4.4591 C   0  0  0  0  0  0  0  0  0  0  0  0
    0.5398    0.7930    1.2821 C   0  0  0  0  0  0  0  0  0  0  0  0
   -1.0898   -4.2611    3.0782 C   0  0  0  0  0  0  0  0  0  0  0  0
    0.5538    3.1166    0.4886 C   0  0  0  0  0  0  0  0  0  0  0  0
   -0.2869    4.0685    0.9469 O   0  0  0  0  0  0  0  0  0  0  0  0
    0.8581    3.0181   -0.6805 O   0  0  0  0  0  0  0  0  0  0  0  0
   -3.0507   -3.7025    4.5086 C   0  0  0  0  0  0  0  0  0  0  0  0
    0.7297    0.6582   -0.8647 H   0  0  0  0  0  0  0  0  0  0  0  0
    2.1606    0.1250    0.0202 H   0  0  0  0  0  0  0  0  0  0  0  0
   -2.6246   -3.2335    1.9012 H   0  0  0  0  0  0  0  0  0  0  0  0
   -1.2097   -3.6508    1.0010 H   0  0  0  0  0  0  0  0  0  0  0  0
   -0.4818   -1.3781   -0.3030 H   0  0  0  0  0  0  0  0  0  0  0  0
    0.9821   -1.6863   -1.1704 H   0  0  0  0  0  0  0  0  0  0  0  0
   -1.3257   -1.4673    3.1923 H   0  0  0  0  0  0  0  0  0  0  0  0
   -1.3520   -1.2137    1.5038 H   0  0  0  0  0  0  0  0  0  0  0  0
    0.8506   -3.3194    0.5874 H   0  0  0  0  0  0  0  0  0  0  0  0
    2.2125   -2.2775    0.9077 H   0  0  0  0  0  0  0  0  0  0  0  0
    0.9260   -2.7926    2.9610 H   0  0  0  0  0  0  0  0  0  0  0  0
    1.0426   -1.1968    2.7848 H   0  0  0  0  0  0  0  0  0  0  0  0
    0.6788    2.4810    2.5501 H   0  0  0  0  0  0  0  0  0  0  0  0
    2.1307    2.1941    1.6076 H   0  0  0  0  0  0  0  0  0  0  0  0
   -1.1532   -4.4523    5.2267 H   0  0  0  0  0  0  0  0  0  0  0  0
   -1.1108   -2.7934    4.7078 H   0  0  0  0  0  0  0  0  0  0  0  0
   -0.5519    0.7421    1.3418 H   0  0  0  0  0  0  0  0  0  0  0  0
    0.9483    0.3236    2.1547 H   0  0  0  0  0  0  0  0  0  0  0  0
   -1.4770   -5.2584    2.8649 H   0  0  0  0  0  0  0  0  0  0  0  0
   -0.0032   -4.3970    3.0770 H   0  0  0  0  0  0  0  0  0  0  0  0
   -0.4493    4.0416    1.9069 H   0  0  0  0  0  0  0  0  0  0  0  0
   -3.4686   -4.6870    4.2806 H   0  0  0  0  0  0  0  0  0  0  0  0
   -3.3934   -3.3771    5.4903 H   0  0  0  0  0  0  0  0  0  0  0  0
   -3.4529   -2.9900    3.7804 H   0  0  0  0  0  0  0  0  0  0  0  0
  1  9  1  0  0  0  0
  1 15  1  0  0  0  0
  1 16  1  0  0  0  0
  2 10  1  0  0  0  0
  2 17  1  0  0  0  0
  2 18  1  0  0  0  0
  3  1  1  0  0  0  0
  3 19  1  0  0  0  0
  3 20  1  0  0  0  0
  4  2  1  0  0  0  0
  4 21  1  0  0  0  0
  4 22  1  0  0  0  0
  5  3  1  0  0  0  0
  5 23  1  0  0  0  0
  5 24  1  0  0  0  0
  6  4  1  0  0  0  0
  6  5  1  0  0  0  0
  6 25  1  0  0  0  0
  6 26  1  0  0  0  0
  7 11  1  0  0  0  0
  7 27  1  0  0  0  0
  7 28  1  0  0  0  0
  8 14  1  0  0  0  0
  8 29  1  0  0  0  0
  8 30  1  0  0  0  0
  9  7  1  0  0  0  0
  9 31  1  0  0  0  0
  9 32  1  0  0  0  0
 10  8  1  0  0  0  0
 10 33  1  0  0  0  0
 10 34  1  0  0  0  0
 11 12  1  0  0  0  0
 11 13  2  0  0  0  0
 12 35  1  0  0  0  0
 14 36  1  0  0  0  0
 14 37  1  0  0  0  0
 14 38  1  0  0  0  0
M  END
>  <DRUGBANK_ID>
DB03017

>  <SECONDARY_ACCESSION_NUMBERS>
EXPT01112; EXPT02006

>  <COMMON_NAME>
Lauric acid

>  <CAS_NUMBER>
143-07-7

>  <UNII>
1160N9NU9U

>  <SYNONYMS>
1-undecanecarboxylic acid; ABL; C12 fatty acid; C12:0; Coconut oil fatty acids; DAO; Dodecanoic acid; Dodecoic acid; Dodecylcarboxylate; Dodecylic acid; Duodecyclic acid; Duodecylic acid; Laurins√§ure; Laurostearic acid; n-dodecanoic acid; Undecane-1-carboxylic acid; Vulvic acid

$$$$
