
 OpenBabel10282417213D

 97101  0  0  1  0  0  0  0  0999 V2000
    0.5896   -0.5874    0.3982 C   0  0  0  0  0  0  0  0  0  0  0  0
    0.3996   -0.7451    1.8219 C   0  0  0  0  0  0  0  0  0  0  0  0
    1.0223    0.3503    2.4870 O   0  0  0  0  0  0  0  0  0  0  0  0
    2.3935    0.4924    2.4226 C   0  0  0  0  0  0  0  0  0  0  0  0
    3.2136    0.7998    1.3003 C   0  0  0  0  0  0  0  0  0  0  0  0
    4.5824    1.0230    1.5029 C   0  0  0  0  0  0  0  0  0  0  0  0
    5.1097    1.0411    2.7902 C   0  0  0  0  0  0  0  0  0  0  0  0
    4.2922    0.8750    3.9149 C   0  0  0  0  0  0  0  0  0  0  0  0
    2.9552    0.5060    3.7062 C   0  0  0  0  0  0  0  0  0  0  0  0
    4.7942    1.2191    5.3198 C   0  0  0  0  0  0  0  0  0  0  0  0
    3.9224    2.3571    5.8999 C   0  0  0  0  0  0  0  0  0  0  0  0
    4.7151   -0.0119    6.2306 C   0  0  0  0  0  0  0  0  0  0  0  0
    6.2520    1.7274    5.2966 C   0  0  0  0  0  0  0  0  0  0  0  0
    2.7338    0.8818   -0.1217 C   0  0  0  0  0  0  0  0  0  0  0  0
    1.7806    1.6782   -0.5373 N   0  0  0  0  0  0  0  0  0  0  0  0
    1.3502    1.2096   -1.9309 C   0  0  1  0  0  0  0  0  0  0  0  0
    0.0134    0.3054   -2.0480 C   0  0  0  0  0  0  0  0  0  0  0  0
    0.9672    2.4236   -2.7671 C   0  0  0  0  0  0  0  0  0  0  0  0
    1.8323    3.4963   -2.9176 C   0  0  0  0  0  0  0  0  0  0  0  0
    1.5918    4.4888   -3.8459 C   0  0  0  0  0  0  0  0  0  0  0  0
    0.3922    4.4906   -4.5387 C   0  0  0  0  0  0  0  0  0  0  0  0
   -0.0130    5.8118   -5.5423 Cl  0  0  0  0  0  0  0  0  0  0  0  0
   -0.5417    3.4956   -4.3381 C   0  0  0  0  0  0  0  0  0  0  0  0
   -0.2756    2.5184   -3.4128 C   0  0  0  0  0  0  0  0  0  0  0  0
    2.5893    0.3685   -2.3896 C   0  0  2  0  0  0  0  0  0  0  0  0
    2.0139   -0.7603   -3.2694 C   0  0  0  0  0  0  0  0  0  0  0  0
    3.1805   -0.0475   -1.0900 N   0  0  0  0  0  0  0  0  0  0  0  0
    3.9474   -1.2048   -0.9054 C   0  0  0  0  0  0  0  0  0  0  0  0
    4.2124   -1.7262    0.1760 O   0  0  0  0  0  0  0  0  0  0  0  0
    4.1012   -1.8820   -2.0936 N   0  0  0  0  0  0  0  0  0  0  0  0
    5.0804   -1.5141   -3.1276 C   0  0  0  0  0  0  0  0  0  0  0  0
    4.6588   -2.0472   -4.5413 C   0  0  0  0  0  0  0  0  0  0  0  0
    4.2872   -3.4708   -4.5854 N   0  0  0  0  0  0  0  0  0  0  0  0
    5.4763   -4.3083   -4.7100 C   0  0  0  0  0  0  0  0  0  0  0  0
    6.3726   -4.4957   -3.4785 C   0  0  0  0  0  0  0  0  0  0  0  0
    5.7723   -5.2519   -2.2918 C   0  0  0  0  0  0  0  0  0  0  0  0
    5.2290   -6.8762   -2.4962 S   0  0  0  0  0  0  0  0  0  0  0  0
    6.8055   -7.5738   -2.6434 C   0  0  0  0  0  0  0  0  0  0  0  0
    4.5890   -7.2645   -1.2820 O   0  0  0  0  0  0  0  0  0  0  0  0
    4.5236   -6.9808   -3.7850 O   0  0  0  0  0  0  0  0  0  0  0  0
    3.3338   -3.8212   -3.5050 C   0  0  0  0  0  0  0  0  0  0  0  0
    3.7603   -3.2539   -2.1108 C   0  0  0  0  0  0  0  0  0  0  0  0
    3.6842    1.2063   -3.0793 C   0  0  0  0  0  0  0  0  0  0  0  0
    4.4376    2.1164   -2.3011 C   0  0  0  0  0  0  0  0  0  0  0  0
    5.3558    2.9752   -2.8633 C   0  0  0  0  0  0  0  0  0  0  0  0
    5.6828    2.8078   -4.1927 C   0  0  0  0  0  0  0  0  0  0  0  0
    6.7866    3.8958   -4.9178 Cl  0  0  0  0  0  0  0  0  0  0  0  0
    5.0761    1.8134   -4.9558 C   0  0  0  0  0  0  0  0  0  0  0  0
    4.0046    1.0950   -4.4349 C   0  0  0  0  0  0  0  0  0  0  0  0
    0.2419    0.4307    0.1933 H   0  0  0  0  0  0  0  0  0  0  0  0
    0.1699   -1.3600   -0.2140 H   0  0  0  0  0  0  0  0  0  0  0  0
    1.6294   -0.7847    0.2613 H   0  0  0  0  0  0  0  0  0  0  0  0
   -0.6868   -0.6893    1.9335 H   0  0  0  0  0  0  0  0  0  0  0  0
    0.8046   -1.7252    2.0618 H   0  0  0  0  0  0  0  0  0  0  0  0
    5.2607    1.2248    0.6795 H   0  0  0  0  0  0  0  0  0  0  0  0
    6.1729    1.2395    2.8872 H   0  0  0  0  0  0  0  0  0  0  0  0
    2.3042    0.2815    4.5514 H   0  0  0  0  0  0  0  0  0  0  0  0
    2.8696    2.0678    5.9965 H   0  0  0  0  0  0  0  0  0  0  0  0
    4.2697    2.6524    6.8958 H   0  0  0  0  0  0  0  0  0  0  0  0
    3.9552    3.2462    5.2571 H   0  0  0  0  0  0  0  0  0  0  0  0
    5.3162   -0.8337    5.8259 H   0  0  0  0  0  0  0  0  0  0  0  0
    5.0869    0.2209    7.2343 H   0  0  0  0  0  0  0  0  0  0  0  0
    3.6878   -0.3766    6.3392 H   0  0  0  0  0  0  0  0  0  0  0  0
    6.9302    0.9594    4.9052 H   0  0  0  0  0  0  0  0  0  0  0  0
    6.3470    2.6187    4.6612 H   0  0  0  0  0  0  0  0  0  0  0  0
    6.6088    2.0012    6.2925 H   0  0  0  0  0  0  0  0  0  0  0  0
   -0.2733    0.1736   -3.1055 H   0  0  0  0  0  0  0  0  0  0  0  0
    0.0158   -0.7565   -1.8246 H   0  0  0  0  0  0  0  0  0  0  0  0
   -0.8324    0.7282   -1.4975 H   0  0  0  0  0  0  0  0  0  0  0  0
    2.7084    3.5932   -2.2978 H   0  0  0  0  0  0  0  0  0  0  0  0
    2.3435    5.2549   -3.9841 H   0  0  0  0  0  0  0  0  0  0  0  0
   -1.4911    3.4543   -4.8551 H   0  0  0  0  0  0  0  0  0  0  0  0
   -1.1125    1.8545   -3.2165 H   0  0  0  0  0  0  0  0  0  0  0  0
    1.5972   -0.4056   -4.2113 H   0  0  0  0  0  0  0  0  0  0  0  0
    2.7524   -1.4302   -3.5736 H   0  0  0  0  0  0  0  0  0  0  0  0
    1.3535   -1.4871   -2.7909 H   0  0  0  0  0  0  0  0  0  0  0  0
    5.2784   -0.4580   -3.0783 H   0  0  0  0  0  0  0  0  0  0  0  0
    6.0554   -1.8882   -2.8324 H   0  0  0  0  0  0  0  0  0  0  0  0
    3.7721   -1.5642   -4.9547 H   0  0  0  0  0  0  0  0  0  0  0  0
    5.3975   -1.7725   -5.2964 H   0  0  0  0  0  0  0  0  0  0  0  0
    5.2009   -5.2745   -5.1300 H   0  0  0  0  0  0  0  0  0  0  0  0
    6.0891   -3.8680   -5.5104 H   0  0  0  0  0  0  0  0  0  0  0  0
    7.3093   -4.9624   -3.7915 H   0  0  0  0  0  0  0  0  0  0  0  0
    6.7364   -3.5213   -3.1543 H   0  0  0  0  0  0  0  0  0  0  0  0
    6.3270   -5.0489   -1.3659 H   0  0  0  0  0  0  0  0  0  0  0  0
    4.7636   -5.0415   -2.0069 H   0  0  0  0  0  0  0  0  0  0  0  0
    7.3197   -7.3281   -1.7114 H   0  0  0  0  0  0  0  0  0  0  0  0
    6.6527   -8.6295   -2.8033 H   0  0  0  0  0  0  0  0  0  0  0  0
    7.2912   -7.0929   -3.4929 H   0  0  0  0  0  0  0  0  0  0  0  0
    2.3304   -3.4439   -3.7574 H   0  0  0  0  0  0  0  0  0  0  0  0
    3.1616   -4.9037   -3.4878 H   0  0  0  0  0  0  0  0  0  0  0  0
    4.7729   -3.4769   -1.8625 H   0  0  0  0  0  0  0  0  0  0  0  0
    3.1681   -3.6552   -1.2780 H   0  0  0  0  0  0  0  0  0  0  0  0
    4.1989    2.3060   -1.2591 H   0  0  0  0  0  0  0  0  0  0  0  0
    5.7436    3.7825   -2.2515 H   0  0  0  0  0  0  0  0  0  0  0  0
    5.4062    1.6119   -5.9686 H   0  0  0  0  0  0  0  0  0  0  0  0
    3.4733    0.4201   -5.0970 H   0  0  0  0  0  0  0  0  0  0  0  0
  1  2  1  0  0  0  0
  1 50  1  0  0  0  0
  1 51  1  0  0  0  0
  1 52  1  0  0  0  0
  2  3  1  0  0  0  0
  2 53  1  0  0  0  0
  2 54  1  0  0  0  0
  3  4  1  0  0  0  0
  4  5  2  0  0  0  0
  4  9  1  0  0  0  0
  5  6  1  0  0  0  0
  5 14  1  0  0  0  0
  6  7  2  0  0  0  0
  6 55  1  0  0  0  0
  7  8  1  0  0  0  0
  7 56  1  0  0  0  0
  8  9  2  0  0  0  0
  8 10  1  0  0  0  0
  9 57  1  0  0  0  0
 10 11  1  0  0  0  0
 10 12  1  0  0  0  0
 10 13  1  0  0  0  0
 11 58  1  0  0  0  0
 11 59  1  0  0  0  0
 11 60  1  0  0  0  0
 12 61  1  0  0  0  0
 12 62  1  0  0  0  0
 12 63  1  0  0  0  0
 13 64  1  0  0  0  0
 13 65  1  0  0  0  0
 13 66  1  0  0  0  0
 14 15  2  0  0  0  0
 14 27  1  0  0  0  0
 16 15  1  0  0  0  0
 16 25  1  0  0  0  0
 16 18  1  0  0  0  0
 16 17  1  1  0  0  0
 17 67  1  0  0  0  0
 17 68  1  0  0  0  0
 17 69  1  0  0  0  0
 18 19  2  0  0  0  0
 18 24  1  0  0  0  0
 19 20  1  0  0  0  0
 19 70  1  0  0  0  0
 20 21  2  0  0  0  0
 20 71  1  0  0  0  0
 21 22  1  0  0  0  0
 21 23  1  0  0  0  0
 23 24  2  0  0  0  0
 23 72  1  0  0  0  0
 24 73  1  0  0  0  0
 25 26  1  6  0  0  0
 25 27  1  0  0  0  0
 25 43  1  0  0  0  0
 26 74  1  0  0  0  0
 26 75  1  0  0  0  0
 26 76  1  0  0  0  0
 27 28  1  0  0  0  0
 28 29  2  0  0  0  0
 28 30  1  0  0  0  0
 30 31  1  0  0  0  0
 30 42  1  0  0  0  0
 31 32  1  0  0  0  0
 31 77  1  0  0  0  0
 31 78  1  0  0  0  0
 32 33  1  0  0  0  0
 32 79  1  0  0  0  0
 32 80  1  0  0  0  0
 33 34  1  0  0  0  0
 33 41  1  0  0  0  0
 34 35  1  0  0  0  0
 34 81  1  0  0  0  0
 34 82  1  0  0  0  0
 35 36  1  0  0  0  0
 35 83  1  0  0  0  0
 35 84  1  0  0  0  0
 36 37  1  0  0  0  0
 36 85  1  0  0  0  0
 36 86  1  0  0  0  0
 37 38  1  0  0  0  0
 37 39  2  0  0  0  0
 37 40  2  0  0  0  0
 38 87  1  0  0  0  0
 38 88  1  0  0  0  0
 38 89  1  0  0  0  0
 41 42  1  0  0  0  0
 41 90  1  0  0  0  0
 41 91  1  0  0  0  0
 42 92  1  0  0  0  0
 42 93  1  0  0  0  0
 43 44  2  0  0  0  0
 43 49  1  0  0  0  0
 44 45  1  0  0  0  0
 44 94  1  0  0  0  0
 45 46  2  0  0  0  0
 45 95  1  0  0  0  0
 46 47  1  0  0  0  0
 46 48  1  0  0  0  0
 48 49  2  0  0  0  0
 48 96  1  0  0  0  0
 49 97  1  0  0  0  0
M  END
>  <DRUGBANK_ID>
DB14793

>  <COMMON_NAME>
RO-5045337

>  <CAS_NUMBER>
939981-39-2

>  <UNII>
Q8MI0X869M

$$$$
