
 OpenBabel10282417233D

 50 54  0  0  1  0  0  0  0  0999 V2000
   -0.8399    0.9183    3.5791 C   0  0  0  0  0  0  0  0  0  0  0  0
    0.5892    1.4676    3.7792 C   0  0  0  0  0  0  0  0  0  0  0  0
    1.3341    1.9354    2.5072 C   0  0  1  0  0  0  0  0  0  0  0  0
    0.6748    1.2329    1.4608 O   0  0  0  0  0  0  0  0  0  0  0  0
    1.7902    3.6143    2.7360 C   0  0  0  0  0  0  0  0  0  0  0  0
    1.8468    4.2021    3.8374 O   0  0  0  0  0  0  0  0  0  0  0  0
    2.3509    4.2468    1.6454 O   0  0  0  0  0  0  0  0  0  0  0  0
    2.5565    3.2930    0.6282 C   0  0  0  0  0  0  0  0  0  0  0  0
    3.3566    2.2019    1.2890 C   0  0  0  0  0  0  0  0  0  0  0  0
    2.7243    1.4360    2.2057 C   0  0  0  0  0  0  0  0  0  0  0  0
    3.3572    0.3266    2.8724 C   0  0  0  0  0  0  0  0  0  0  0  0
    4.6850    0.3701    2.9467 C   0  0  0  0  0  0  0  0  0  0  0  0
    5.3908    1.3090    2.2050 N   0  0  0  0  0  0  0  0  0  0  0  0
    6.8162    1.1327    2.3658 C   0  0  3  0  0  0  0  0  0  0  0  0
    7.4815    0.7992    1.1344 O   0  0  0  0  0  0  0  0  0  0  0  0
    6.8652   -0.0635    0.1574 C   0  0  0  0  0  0  0  0  0  0  0  0
    7.0788   -1.5514    0.4220 C   0  0  0  0  0  0  0  0  0  0  0  0
    6.1174   -2.0235    1.3315 O   0  0  0  0  0  0  0  0  0  0  0  0
    6.9099    0.0067    3.3703 C   0  0  0  0  0  0  0  0  0  0  0  0
    8.0093   -0.7844    3.6611 C   0  0  0  0  0  0  0  0  0  0  0  0
    7.7889   -2.0580    4.2134 C   0  0  0  0  0  0  0  0  0  0  0  0
    8.8747   -2.9087    4.4678 C   0  0  0  0  0  0  0  0  0  0  0  0
    8.6718   -4.1534    5.0542 C   0  0  0  0  0  0  0  0  0  0  0  0
    7.3764   -4.5935    5.2975 C   0  0  0  0  0  0  0  0  0  0  0  0
    6.2837   -3.7843    4.9542 C   0  0  0  0  0  0  0  0  0  0  0  0
    6.4515   -2.4904    4.4591 C   0  0  0  0  0  0  0  0  0  0  0  0
    5.3790   -1.6970    4.1854 N   0  0  0  0  0  0  0  0  0  0  0  0
    5.6357   -0.4689    3.6828 C   0  0  0  0  0  0  0  0  0  0  0  0
    4.8295    2.2833    1.4131 C   0  0  0  0  0  0  0  0  0  0  0  0
    5.4501    3.2068    0.8892 O   0  0  0  0  0  0  0  0  0  0  0  0
   -1.4740    1.5795    2.9777 H   0  0  0  0  0  0  0  0  0  0  0  0
   -1.3139    0.7993    4.5584 H   0  0  0  0  0  0  0  0  0  0  0  0
   -0.8478   -0.0750    3.1099 H   0  0  0  0  0  0  0  0  0  0  0  0
    0.5151    2.3040    4.4758 H   0  0  0  0  0  0  0  0  0  0  0  0
    1.1502    0.6777    4.2799 H   0  0  0  0  0  0  0  0  0  0  0  0
    0.9284    0.2864    1.5802 H   0  0  0  0  0  0  0  0  0  0  0  0
    2.9811    3.6854   -0.2989 H   0  0  0  0  0  0  0  0  0  0  0  0
    1.5290    3.0318    0.3472 H   0  0  0  0  0  0  0  0  0  0  0  0
    2.7785   -0.4916    3.2905 H   0  0  0  0  0  0  0  0  0  0  0  0
    7.2485    2.0542    2.7712 H   0  0  0  0  0  0  0  0  0  0  0  0
    5.8065    0.1709    0.0108 H   0  0  0  0  0  0  0  0  0  0  0  0
    7.3761    0.1445   -0.7886 H   0  0  0  0  0  0  0  0  0  0  0  0
    6.9029   -2.1758   -0.4501 H   0  0  0  0  0  0  0  0  0  0  0  0
    8.0819   -1.7361    0.8226 H   0  0  0  0  0  0  0  0  0  0  0  0
    6.4656   -1.7151    2.1706 H   0  0  0  0  0  0  0  0  0  0  0  0
    8.9930   -0.4964    3.2996 H   0  0  0  0  0  0  0  0  0  0  0  0
    9.8912   -2.5915    4.2446 H   0  0  0  0  0  0  0  0  0  0  0  0
    9.5243   -4.7672    5.3355 H   0  0  0  0  0  0  0  0  0  0  0  0
    7.2140   -5.5588    5.7726 H   0  0  0  0  0  0  0  0  0  0  0  0
    5.2782   -4.1729    5.1052 H   0  0  0  0  0  0  0  0  0  0  0  0
  1  2  1  0  0  0  0
  1 31  1  0  0  0  0
  1 32  1  0  0  0  0
  1 33  1  0  0  0  0
  2 34  1  0  0  0  0
  2 35  1  0  0  0  0
  3  5  1  0  0  0  0
  3 10  1  0  0  0  0
  3  4  1  6  0  0  0
  3  2  1  0  0  0  0
  4 36  1  0  0  0  0
  5  6  2  0  0  0  0
  5  7  1  0  0  0  0
  7  8  1  0  0  0  0
  8  9  1  0  0  0  0
  8 37  1  0  0  0  0
  8 38  1  0  0  0  0
  9 10  2  0  0  0  0
  9 29  1  0  0  0  0
 10 11  1  0  0  0  0
 11 12  2  0  0  0  0
 11 39  1  0  0  0  0
 12 13  1  0  0  0  0
 12 28  1  0  0  0  0
 13 14  1  0  0  0  0
 13 29  1  0  0  0  0
 14 15  1  0  0  0  0
 14 19  1  0  0  0  0
 14 40  1  0  0  0  0
 15 16  1  0  0  0  0
 16 17  1  0  0  0  0
 16 41  1  0  0  0  0
 16 42  1  0  0  0  0
 17 18  1  0  0  0  0
 17 43  1  0  0  0  0
 17 44  1  0  0  0  0
 18 45  1  0  0  0  0
 19 20  2  0  0  0  0
 19 28  1  0  0  0  0
 20 21  1  0  0  0  0
 20 46  1  0  0  0  0
 21 22  2  0  0  0  0
 21 26  1  0  0  0  0
 22 23  1  0  0  0  0
 22 47  1  0  0  0  0
 23 24  2  0  0  0  0
 23 48  1  0  0  0  0
 24 25  1  0  0  0  0
 24 49  1  0  0  0  0
 25 26  2  0  0  0  0
 25 50  1  0  0  0  0
 26 27  1  0  0  0  0
 27 28  2  0  0  0  0
 29 30  2  0  0  0  0
M  END
>  <DRUGBANK_ID>
DB17152

>  <COMMON_NAME>
DRF-1042

>  <CAS_NUMBER>
200619-13-2

>  <UNII>
461WVF206P

>  <SYNONYMS>
1h-pyrano(3',4':6,7)indolizino(1,2-b)quinoline-3,14(4h,12h)-dione, 4-ethyl-4-hydroxy-12-(2-hydroxyethoxy)-, (4s)-; 5-(2'-hydroxyethoxy)-20(s)-camptothecin

$$$$
