
 OpenBabel10282417143D

 34 34  0  0  0  0  0  0  0  0999 V2000
    0.6785   -0.0152   -0.0049 F   0  0  0  0  0  0  0  0  0  0  0  0
    3.9875    1.2620    0.6580 O   0  0  0  0  0  0  0  0  0  0  0  0
    4.6184   -1.2595   -0.8017 O   0  0  0  0  0  0  0  0  0  0  0  0
    2.1006   -1.5853    1.8325 O   0  0  0  0  0  0  0  0  0  0  0  0
    2.2294    2.3909   -0.2264 O   0  0  0  0  0  0  0  0  0  0  0  0
    5.1522    1.1970    3.3894 O   0  0  0  0  0  0  0  0  0  0  0  0
    5.2406   -1.0654    4.8477 O   0  0  0  0  0  0  0  0  0  0  0  0
    0.9423    0.7135    2.4173 O   0  0  0  0  0  0  0  0  0  0  0  0
    7.3276   -0.6846    2.6795 O   0  0  0  0  0  0  0  0  0  0  0  0
    2.3690    2.3971    2.7989 O   0  0  0  0  0  0  0  0  0  0  0  0
    4.5950    0.0857    1.2333 C   0  0  2  0  0  0  0  0  0  0  0  0
    4.1062   -1.1988    0.5341 C   0  0  1  0  0  0  0  0  0  0  0  0
    2.5903   -1.2630    0.5290 C   0  0  2  0  0  0  0  0  0  0  0  0
    2.0385    0.0279   -0.0665 C   0  0  2  0  0  0  0  0  0  0  0  0
    2.5619    1.2915    0.6260 C   0  0  1  0  0  0  0  0  0  0  0  0
    4.5310    0.0483    2.7971 C   0  0  1  0  0  0  0  0  0  0  0  0
    5.0694   -1.2515    3.4375 C   0  0  1  0  0  0  0  0  0  0  0  0
    1.9359    1.5613    2.0367 C   0  0  0  0  0  0  0  0  0  0  0  0
    6.3990   -1.7475    2.8633 C   0  0  0  0  0  0  0  0  0  0  0  0
    5.6279    0.2332    0.9201 H   0  0  0  0  0  0  0  0  0  0  0  0
    2.3255    0.0706   -1.1262 H   0  0  0  0  0  0  0  0  0  0  0  0
    4.5123   -0.3995   -1.2471 H   0  0  0  0  0  0  0  0  0  0  0  0
    2.0386   -0.8307    2.4459 H   0  0  0  0  0  0  0  0  0  0  0  0
    2.6099    3.1790    0.2046 H   0  0  0  0  0  0  0  0  0  0  0  0
    5.8039    1.6009    2.8001 H   0  0  0  0  0  0  0  0  0  0  0  0
    6.1003   -0.6114    4.9481 H   0  0  0  0  0  0  0  0  0  0  0  0
    0.5205    0.1685    1.7118 H   0  0  0  0  0  0  0  0  0  0  0  0
    7.0738   -0.1460    1.9162 H   0  0  0  0  0  0  0  0  0  0  0  0
    4.4791   -2.0964    1.0246 H   0  0  0  0  0  0  0  0  0  0  0  0
    2.2649   -2.0962   -0.1014 H   0  0  0  0  0  0  0  0  0  0  0  0
    3.5083    0.1302    3.1523 H   0  0  0  0  0  0  0  0  0  0  0  0
    4.3113   -2.0389    3.3420 H   0  0  0  0  0  0  0  0  0  0  0  0
    6.8618   -2.4333    3.5744 H   0  0  0  0  0  0  0  0  0  0  0  0
    6.2715   -2.2897    1.9235 H   0  0  0  0  0  0  0  0  0  0  0  0
  1 14  1  0  0  0  0
  2 11  1  0  0  0  0
  2 15  1  0  0  0  0
  3 22  1  0  0  0  0
  4 23  1  0  0  0  0
  5 24  1  0  0  0  0
  6 25  1  0  0  0  0
  7 26  1  0  0  0  0
  8 18  1  0  0  0  0
  8 27  1  0  0  0  0
  9 19  1  0  0  0  0
  9 28  1  0  0  0  0
 10 18  2  0  0  0  0
 11 12  1  0  0  0  0
 11 20  1  6  0  0  0
 11 16  1  0  0  0  0
 12  3  1  0  0  0  0
 12 13  1  0  0  0  0
 12 29  1  1  0  0  0
 13 14  1  0  0  0  0
 13 30  1  6  0  0  0
 13  4  1  0  0  0  0
 14 15  1  0  0  0  0
 14 21  1  6  0  0  0
 15 18  1  1  0  0  0
 15  5  1  0  0  0  0
 16 31  1  1  0  0  0
 16 17  1  0  0  0  0
 16  6  1  0  0  0  0
 17 32  1  6  0  0  0
 17 19  1  0  0  0  0
 17  7  1  0  0  0  0
 19 33  1  0  0  0  0
 19 34  1  0  0  0  0
M  END
>  <DRUGBANK_ID>
DB04694

>  <COMMON_NAME>
2,6-anhydro-3-deoxy-3-fluoronononic acid

>  <SYNONYMS>
3-deoxy-3-fluoro-D-erythro-Î±-L-manno-non-2-ulopyranosonic acid

$$$$
