
 OpenBabel10282417193D

 85 89  0  0  1  0  0  0  0  0999 V2000
    1.2298   -0.1821    0.2595 C   0  0  0  0  0  0  0  0  0  0  0  0
    0.9890   -0.7862    1.7107 C   0  0  1  0  0  0  0  0  0  0  0  0
    1.2703    0.2497    2.7732 C   0  0  0  0  0  0  0  0  0  0  0  0
    0.4479    0.6024    3.5748 O   0  0  0  0  0  0  0  0  0  0  0  0
    2.5237    0.7408    2.6344 O   0  0  0  0  0  0  0  0  0  0  0  0
    2.8128    1.7020    3.6389 C   0  0  0  0  0  0  0  0  0  0  0  0
    2.3064    3.1196    3.2798 C   0  0  0  0  0  0  0  0  0  0  0  0
    0.7783    3.2539    3.2590 C   0  0  0  0  0  0  0  0  0  0  0  0
    2.8263    4.0816    4.3443 C   0  0  0  0  0  0  0  0  0  0  0  0
    2.8139    3.5054    1.8848 C   0  0  0  0  0  0  0  0  0  0  0  0
   -0.4041   -1.0144    1.9001 N   0  0  0  0  0  0  0  0  0  0  0  0
   -1.6440   -1.1249    2.9607 P   0  0  3  0  0  0  0  0  0  0  0  0
   -2.5733    0.0395    2.9500 O   0  0  0  0  0  0  0  0  0  0  0  0
   -2.3177   -2.3211    2.1171 O   0  0  0  0  0  0  0  0  0  0  0  0
   -2.4768   -2.1598    0.7198 C   0  0  0  0  0  0  0  0  0  0  0  0
   -3.1142   -0.8061    0.2330 C   0  0  2  0  0  0  0  0  0  0  0  0
   -2.2998    0.4837    0.2606 C   0  0  2  0  0  0  0  0  0  0  0  0
   -3.1070    1.7081    0.6658 C   0  0  1  0  0  0  0  0  0  0  0  0
   -4.4933    1.0023    0.7138 C   0  0  1  0  0  0  0  0  0  0  0  0
   -4.3248   -0.4400    0.8847 O   0  0  0  0  0  0  0  0  0  0  0  0
   -5.3912    1.5311    1.7143 N   0  0  0  0  0  0  0  0  0  0  0  0
   -5.5657    2.8928    1.8511 C   0  0  0  0  0  0  0  0  0  0  0  0
   -6.3174    3.1887    2.8767 N   0  0  0  0  0  0  0  0  0  0  0  0
   -6.7486    1.9662    3.3405 C   0  0  0  0  0  0  0  0  0  0  0  0
   -6.2469    0.9065    2.5980 C   0  0  0  0  0  0  0  0  0  0  0  0
   -6.6453   -0.3897    2.7084 N   0  0  0  0  0  0  0  0  0  0  0  0
   -7.6000   -0.5800    3.6563 C   0  0  0  0  0  0  0  0  0  0  0  0
   -8.0536    0.3539    4.4994 N   0  0  0  0  0  0  0  0  0  0  0  0
   -7.6561    1.6344    4.3333 C   0  0  0  0  0  0  0  0  0  0  0  0
   -8.2713    2.6450    5.0380 O   0  0  0  0  0  0  0  0  0  0  0  0
   -9.1787    2.1572    6.0090 C   0  0  0  0  0  0  0  0  0  0  0  0
   -8.1870   -1.8342    3.8995 N   0  0  0  0  0  0  0  0  0  0  0  0
   -2.6508    2.4463    2.0152 C   0  0  0  0  0  0  0  0  0  0  0  0
   -2.8336    2.6981   -0.3333 O   0  0  0  0  0  0  0  0  0  0  0  0
   -1.4056    0.4923   -0.8284 O   0  0  0  0  0  0  0  0  0  0  0  0
   -1.7650   -1.7162    4.4710 O   0  0  0  0  0  0  0  0  0  0  0  0
   -3.1037   -1.7251    4.9632 C   0  0  0  0  0  0  0  0  0  0  0  0
   -4.0696   -2.3110    4.1686 C   0  0  0  0  0  0  0  0  0  0  0  0
   -5.3780   -2.2859    4.5519 C   0  0  0  0  0  0  0  0  0  0  0  0
   -5.7997   -1.7265    5.7693 C   0  0  0  0  0  0  0  0  0  0  0  0
   -4.8749   -1.1282    6.6296 C   0  0  0  0  0  0  0  0  0  0  0  0
   -3.5693   -1.0089    6.1333 C   0  0  0  0  0  0  0  0  0  0  0  0
   -2.8583   -0.0310    6.8313 C   0  0  0  0  0  0  0  0  0  0  0  0
   -3.4197    0.7915    7.8557 C   0  0  0  0  0  0  0  0  0  0  0  0
   -4.2373    0.1389    8.7132 C   0  0  0  0  0  0  0  0  0  0  0  0
   -5.1719   -0.5967    7.9614 C   0  0  0  0  0  0  0  0  0  0  0  0
    0.8799    0.8599    0.1421 H   0  0  0  0  0  0  0  0  0  0  0  0
    0.7384   -0.7637   -0.5379 H   0  0  0  0  0  0  0  0  0  0  0  0
    2.2929   -0.1414    0.0057 H   0  0  0  0  0  0  0  0  0  0  0  0
    1.4814   -1.7379    1.8254 H   0  0  0  0  0  0  0  0  0  0  0  0
    2.4411    1.3615    4.6152 H   0  0  0  0  0  0  0  0  0  0  0  0
    3.9038    1.6928    3.7052 H   0  0  0  0  0  0  0  0  0  0  0  0
    0.3294    2.8991    4.1940 H   0  0  0  0  0  0  0  0  0  0  0  0
    0.4465    4.2883    3.1201 H   0  0  0  0  0  0  0  0  0  0  0  0
    0.3763    2.6949    2.4131 H   0  0  0  0  0  0  0  0  0  0  0  0
    3.9192    4.0832    4.3698 H   0  0  0  0  0  0  0  0  0  0  0  0
    2.4813    5.1004    4.1456 H   0  0  0  0  0  0  0  0  0  0  0  0
    2.4607    3.7896    5.3365 H   0  0  0  0  0  0  0  0  0  0  0  0
    3.9065    3.4919    1.8484 H   0  0  0  0  0  0  0  0  0  0  0  0
    2.4443    2.8116    1.1190 H   0  0  0  0  0  0  0  0  0  0  0  0
    2.4675    4.5060    1.6083 H   0  0  0  0  0  0  0  0  0  0  0  0
   -0.5983   -0.1247    1.5059 H   0  0  0  0  0  0  0  0  0  0  0  0
   -1.4953   -2.3613    0.2656 H   0  0  0  0  0  0  0  0  0  0  0  0
   -3.0955   -3.0109    0.4221 H   0  0  0  0  0  0  0  0  0  0  0  0
   -3.3318   -1.0167   -0.8195 H   0  0  0  0  0  0  0  0  0  0  0  0
   -1.7538    0.5999    1.1346 H   0  0  0  0  0  0  0  0  0  0  0  0
   -4.9681    1.1468   -0.2587 H   0  0  0  0  0  0  0  0  0  0  0  0
   -5.0737    3.6156    1.2058 H   0  0  0  0  0  0  0  0  0  0  0  0
   -9.9323    1.4893    5.5756 H   0  0  0  0  0  0  0  0  0  0  0  0
   -8.6321    1.6632    6.8181 H   0  0  0  0  0  0  0  0  0  0  0  0
   -9.7036    3.0211    6.4218 H   0  0  0  0  0  0  0  0  0  0  0  0
   -7.6396   -2.6562    3.7082 H   0  0  0  0  0  0  0  0  0  0  0  0
   -8.5140   -1.8556    4.8587 H   0  0  0  0  0  0  0  0  0  0  0  0
   -1.5670    2.5681    2.0474 H   0  0  0  0  0  0  0  0  0  0  0  0
   -3.0460    3.4612    2.0979 H   0  0  0  0  0  0  0  0  0  0  0  0
   -2.9471    2.0030    2.9681 H   0  0  0  0  0  0  0  0  0  0  0  0
   -1.8927    2.9422   -0.2018 H   0  0  0  0  0  0  0  0  0  0  0  0
   -0.8957    1.3112   -0.8769 H   0  0  0  0  0  0  0  0  0  0  0  0
   -3.9565   -2.6820    3.1585 H   0  0  0  0  0  0  0  0  0  0  0  0
   -5.9781   -2.6381    3.7245 H   0  0  0  0  0  0  0  0  0  0  0  0
   -6.8519   -1.6525    6.0302 H   0  0  0  0  0  0  0  0  0  0  0  0
   -1.7949   -0.0244    6.6555 H   0  0  0  0  0  0  0  0  0  0  0  0
   -4.1029    1.6263    7.5864 H   0  0  0  0  0  0  0  0  0  0  0  0
   -3.4856   -0.1552    9.4694 H   0  0  0  0  0  0  0  0  0  0  0  0
   -6.2312   -0.4080    8.1814 H   0  0  0  0  0  0  0  0  0  0  0  0
  1 47  1  0  0  0  0
  1 48  1  0  0  0  0
  1 49  1  0  0  0  0
  2  1  1  0  0  0  0
  2  3  1  0  0  0  0
  2 11  1  0  0  0  0
  2 50  1  1  0  0  0
  3  4  2  0  0  0  0
  3  5  1  0  0  0  0
  5  6  1  0  0  0  0
  6  7  1  0  0  0  0
  6 51  1  0  0  0  0
  6 52  1  0  0  0  0
  7  8  1  0  0  0  0
  7  9  1  0  0  0  0
  7 10  1  0  0  0  0
  8 53  1  0  0  0  0
  8 54  1  0  0  0  0
  8 55  1  0  0  0  0
  9 56  1  0  0  0  0
  9 57  1  0  0  0  0
  9 58  1  0  0  0  0
 10 59  1  0  0  0  0
 10 60  1  0  0  0  0
 10 61  1  0  0  0  0
 11 12  1  0  0  0  0
 11 62  1  0  0  0  0
 12 13  2  0  0  0  0
 12 14  1  0  0  0  0
 12 36  1  0  0  0  0
 14 15  1  0  0  0  0
 15 63  1  0  0  0  0
 15 64  1  0  0  0  0
 16 15  1  0  0  0  0
 16 17  1  0  0  0  0
 16 20  1  0  0  0  0
 16 65  1  6  0  0  0
 17 18  1  0  0  0  0
 17 66  1  1  0  0  0
 17 35  1  0  0  0  0
 18 19  1  0  0  0  0
 18 33  1  0  0  0  0
 18 34  1  6  0  0  0
 19 20  1  0  0  0  0
 19 21  1  0  0  0  0
 19 67  1  6  0  0  0
 21 22  1  0  0  0  0
 21 25  1  0  0  0  0
 22 23  2  0  0  0  0
 22 68  1  0  0  0  0
 23 24  1  0  0  0  0
 24 25  1  0  0  0  0
 24 29  2  0  0  0  0
 25 26  2  0  0  0  0
 26 27  1  0  0  0  0
 27 28  2  0  0  0  0
 27 32  1  0  0  0  0
 28 29  1  0  0  0  0
 29 30  1  0  0  0  0
 30 31  1  0  0  0  0
 31 69  1  0  0  0  0
 31 70  1  0  0  0  0
 31 71  1  0  0  0  0
 32 72  1  0  0  0  0
 32 73  1  0  0  0  0
 33 74  1  0  0  0  0
 33 75  1  0  0  0  0
 33 76  1  0  0  0  0
 34 77  1  0  0  0  0
 35 78  1  0  0  0  0
 36 37  1  0  0  0  0
 37 38  1  0  0  0  0
 37 42  2  0  0  0  0
 38 39  2  0  0  0  0
 38 79  1  0  0  0  0
 39 40  1  0  0  0  0
 39 80  1  0  0  0  0
 40 41  2  0  0  0  0
 40 81  1  0  0  0  0
 41 42  1  0  0  0  0
 41 46  1  0  0  0  0
 42 43  1  0  0  0  0
 43 44  2  0  0  0  0
 43 82  1  0  0  0  0
 44 45  1  0  0  0  0
 44 83  1  0  0  0  0
 45 46  2  0  0  0  0
 45 84  1  0  0  0  0
 46 85  1  0  0  0  0
M  END
>  <DRUGBANK_ID>
DB11966

>  <COMMON_NAME>
BMS-986094

>  <CAS_NUMBER>
1234490-83-5

>  <UNII>
62F4AD749Y

$$$$
