
 OpenBabel10282417113D

 17 12  0  0  0  0  0  0  0  0999 V2000
    0.9195    0.0365    0.0468 O   0  0  0  0  0  0  0  0  0  0  0  0
    0.9462   -0.0579   -0.0612 O   0  0  0  0  0  0  0  0  0  0  0  0
    1.0544    0.0503    0.0671 O   0  5  0  0  0  0  0  0  0  0  0  0
    2.8244    0.0503    0.0671 Si  0  0  0  0  0  0  0  0  0  0  0  0
    3.4144    0.7609   -1.4428 O   0  5  0  0  0  0  0  0  0  0  0  0
    3.4144    1.0027    1.4374 O   0  5  0  0  0  0  0  0  0  0  0  0
    3.4144   -1.6126    0.2067 O   0  0  0  0  0  0  0  0  0  0  0  0
    5.1844   -1.6126    0.2067 Si  0  0  0  0  0  0  0  0  0  0  0  0
    5.7744   -0.9020   -1.3032 O   0  5  0  0  0  0  0  0  0  0  0  0
    5.7744   -0.6602    1.5771 O   0  5  0  0  0  0  0  0  0  0  0  0
    5.7744   -3.2755    0.3464 O   0  5  0  0  0  0  0  0  0  0  0  0
    1.0287    0.0958    0.0002 Al  0  1  0  0  0  0  0  0  0  0  0  0
    1.0681   -0.0463   -0.0567 Al  0  1  0  0  0  0  0  0  0  0  0  0
    0.5862    0.3349   -0.8475 H   0  0  0  0  0  0  0  0  0  0  0  0
    1.9195    0.0365    0.0468 H   0  0  0  0  0  0  0  0  0  0  0  0
    0.6128    0.5418   -0.7886 H   0  0  0  0  0  0  0  0  0  0  0  0
    1.9462   -0.0579   -0.0612 H   0  0  0  0  0  0  0  0  0  0  0  0
  1 14  1  0  0  0  0
  1 15  1  0  0  0  0
  2 16  1  0  0  0  0
  2 17  1  0  0  0  0
  3  4  1  0  0  0  0
  4  5  1  0  0  0  0
  4  6  1  0  0  0  0
  4  7  1  0  0  0  0
  7  8  1  0  0  0  0
  8  9  1  0  0  0  0
  8 10  1  0  0  0  0
  8 11  1  0  0  0  0
M  CHG  8   3  -1   5  -1   6  -1   9  -1  10  -1  11  -1  12   3  13   3
M  END
>  <DRUGBANK_ID>
DB01575

>  <COMMON_NAME>
Kaolin

>  <CAS_NUMBER>
1332-58-7

>  <UNII>
24H4NWX5CO

>  <SYNONYMS>
Kaolin; Kaolin, light

$$$$
