
 OpenBabel10282417233D

 82 82  0  0  1  0  0  0  0  0999 V2000
   -2.1555   -0.0224   -9.2938 C   0  0  0  0  0  0  0  0  0  0  0  0
   -3.0705   -0.6691   -8.2799 C   0  0  0  0  0  0  0  0  0  0  0  0
   -3.4429    0.3447   -7.2134 C   0  0  0  0  0  0  0  0  0  0  0  0
   -4.2253    1.5398   -7.7757 C   0  0  0  0  0  0  0  0  0  0  0  0
   -5.5421    1.1263   -8.4556 C   0  0  0  0  0  0  0  0  0  0  0  0
   -6.5248    0.3990   -7.5187 C   0  0  2  0  0  0  0  0  0  0  0  0
   -7.8556    0.6861   -7.9091 O   0  0  0  0  0  0  0  0  0  0  0  0
   -6.3574    0.8434   -6.1025 C   0  0  0  0  0  0  0  0  0  0  0  0
   -5.8930    0.0396   -5.1338 C   0  0  0  0  0  0  0  0  0  0  0  0
   -5.3514    0.5074   -3.8090 C   0  0  1  0  0  0  0  0  0  0  0  0
   -5.8584    1.9202   -3.4243 C   0  0  2  0  0  0  0  0  0  0  0  0
   -4.9543    2.9508   -3.8078 O   0  0  0  0  0  0  0  0  0  0  0  0
   -6.0669    1.8952   -1.9298 C   0  0  0  0  0  0  0  0  0  0  0  0
   -6.2810    0.4430   -1.6899 C   0  0  0  0  0  0  0  0  0  0  0  0
   -6.8972    0.1768   -0.4817 O   0  0  0  0  0  0  0  0  0  0  0  0
   -7.8727   -0.7936   -0.4776 C   0  0  0  0  0  0  0  0  0  0  0  0
   -8.4296   -1.1906   -1.4463 O   0  0  0  0  0  0  0  0  0  0  0  0
   -8.0591   -1.3269    0.9707 C   0  0  0  0  0  0  0  0  0  0  0  0
   -6.7851   -1.0867    1.8192 C   0  0  0  0  0  0  0  0  0  0  0  0
   -6.5726    0.2997    2.2611 C   0  0  0  0  0  0  0  0  0  0  0  0
   -5.8132   -0.3655   -2.6721 C   0  0  0  0  0  0  0  0  0  0  0  0
   -5.6912   -1.8802   -2.8603 C   0  0  0  0  0  0  0  0  0  0  0  0
   -4.8049   -2.6256   -1.8689 C   0  0  0  0  0  0  0  0  0  0  0  0
   -5.3372   -2.5127   -0.5024 C   0  0  0  0  0  0  0  0  0  0  0  0
   -6.6614   -3.2427   -0.3677 C   0  0  0  0  0  0  0  0  0  0  0  0
   -6.9080   -4.6840   -0.1896 C   0  0  0  0  0  0  0  0  0  0  0  0
   -6.1185   -5.0420    1.0543 C   0  0  0  0  0  0  0  0  0  0  0  0
   -6.6615   -4.7603    2.4783 C   0  0  0  0  0  0  0  0  0  0  0  0
   -6.8673   -5.7599    3.1586 O   0  0  0  0  0  0  0  0  0  0  0  0
   -6.8173   -3.4576    2.9147 O   0  0  0  0  0  0  0  0  0  0  0  0
   -7.4973   -2.7883    4.1772 C   0  0  0  0  0  0  0  0  0  0  0  0
   -9.0035   -2.9790    4.1224 C   0  0  0  0  0  0  0  0  0  0  0  0
   -9.2234   -4.4604    4.0674 C   0  0  0  0  0  0  0  0  0  0  0  0
   -8.3575   -5.0964    5.1660 C   0  0  0  0  0  0  0  0  0  0  0  0
   -2.6428    0.8188   -9.7956 H   0  0  0  0  0  0  0  0  0  0  0  0
   -1.8700   -0.7385  -10.0625 H   0  0  0  0  0  0  0  0  0  0  0  0
   -1.2612    0.3563   -8.7899 H   0  0  0  0  0  0  0  0  0  0  0  0
   -3.9669   -1.0696   -8.7676 H   0  0  0  0  0  0  0  0  0  0  0  0
   -2.5819   -1.5268   -7.8059 H   0  0  0  0  0  0  0  0  0  0  0  0
   -4.0081   -0.2119   -6.4758 H   0  0  0  0  0  0  0  0  0  0  0  0
   -2.5610    0.7035   -6.6722 H   0  0  0  0  0  0  0  0  0  0  0  0
   -4.4258    2.2632   -6.9756 H   0  0  0  0  0  0  0  0  0  0  0  0
   -3.6120    2.1046   -8.4841 H   0  0  0  0  0  0  0  0  0  0  0  0
   -6.0100    2.0107   -8.9040 H   0  0  0  0  0  0  0  0  0  0  0  0
   -5.3385    0.4725   -9.3135 H   0  0  0  0  0  0  0  0  0  0  0  0
   -6.3753   -0.6843   -7.6043 H   0  0  0  0  0  0  0  0  0  0  0  0
   -7.9291    1.6536   -7.9612 H   0  0  0  0  0  0  0  0  0  0  0  0
   -6.4072    1.9150   -5.9377 H   0  0  0  0  0  0  0  0  0  0  0  0
   -5.7513   -1.0100   -5.3854 H   0  0  0  0  0  0  0  0  0  0  0  0
   -4.2513    0.4781   -3.8405 H   0  0  0  0  0  0  0  0  0  0  0  0
   -6.8317    2.1334   -3.8818 H   0  0  0  0  0  0  0  0  0  0  0  0
   -4.1054    2.7840   -3.3649 H   0  0  0  0  0  0  0  0  0  0  0  0
   -5.2125    2.2754   -1.3604 H   0  0  0  0  0  0  0  0  0  0  0  0
   -6.9552    2.4735   -1.6559 H   0  0  0  0  0  0  0  0  0  0  0  0
   -8.9895   -0.9546    1.3845 H   0  0  0  0  0  0  0  0  0  0  0  0
   -8.3281   -2.4008    1.0279 H   0  0  0  0  0  0  0  0  0  0  0  0
   -7.0124   -1.4811    2.7408 H   0  0  0  0  0  0  0  0  0  0  0  0
   -5.8395   -1.6280    1.6578 H   0  0  0  0  0  0  0  0  0  0  0  0
   -7.5730    0.6836    2.4541 H   0  0  0  0  0  0  0  0  0  0  0  0
   -5.9910    0.2946    3.1874 H   0  0  0  0  0  0  0  0  0  0  0  0
   -6.0216    0.8201    1.4922 H   0  0  0  0  0  0  0  0  0  0  0  0
   -6.6897   -2.3228   -2.9527 H   0  0  0  0  0  0  0  0  0  0  0  0
   -5.2189   -2.1275   -3.8167 H   0  0  0  0  0  0  0  0  0  0  0  0
   -4.7625   -3.6958   -2.0839 H   0  0  0  0  0  0  0  0  0  0  0  0
   -3.7864   -2.2281   -1.8749 H   0  0  0  0  0  0  0  0  0  0  0  0
   -4.6274   -2.8463    0.2532 H   0  0  0  0  0  0  0  0  0  0  0  0
   -5.3829   -1.4486   -0.2577 H   0  0  0  0  0  0  0  0  0  0  0  0
   -6.7939   -2.9940    0.6474 H   0  0  0  0  0  0  0  0  0  0  0  0
   -7.5110   -2.9517   -0.9694 H   0  0  0  0  0  0  0  0  0  0  0  0
   -7.9947   -4.8287   -0.0428 H   0  0  0  0  0  0  0  0  0  0  0  0
   -6.6363   -5.1729   -1.1293 H   0  0  0  0  0  0  0  0  0  0  0  0
   -6.0291   -6.1239    0.9748 H   0  0  0  0  0  0  0  0  0  0  0  0
   -5.1108   -4.6347    0.9987 H   0  0  0  0  0  0  0  0  0  0  0  0
   -6.9116   -3.0163    5.0692 H   0  0  0  0  0  0  0  0  0  0  0  0
   -7.4324   -1.6829    4.2649 H   0  0  0  0  0  0  0  0  0  0  0  0
   -9.4973   -2.5233    4.9908 H   0  0  0  0  0  0  0  0  0  0  0  0
   -9.4397   -2.4881    3.2392 H   0  0  0  0  0  0  0  0  0  0  0  0
  -10.2724   -4.7190    4.1820 H   0  0  0  0  0  0  0  0  0  0  0  0
   -8.9748   -4.7810    3.0489 H   0  0  0  0  0  0  0  0  0  0  0  0
   -8.6677   -4.7246    6.1416 H   0  0  0  0  0  0  0  0  0  0  0  0
   -8.3713   -6.1784    5.1046 H   0  0  0  0  0  0  0  0  0  0  0  0
   -7.2871   -4.8455    5.1202 H   0  0  0  0  0  0  0  0  0  0  0  0
  1  2  1  0  0  0  0
  1 35  1  0  0  0  0
  1 36  1  0  0  0  0
  1 37  1  0  0  0  0
  2  3  1  0  0  0  0
  2 38  1  0  0  0  0
  2 39  1  0  0  0  0
  3  4  1  0  0  0  0
  3 40  1  0  0  0  0
  3 41  1  0  0  0  0
  4  5  1  0  0  0  0
  4 42  1  0  0  0  0
  4 43  1  0  0  0  0
  5 44  1  0  0  0  0
  5 45  1  0  0  0  0
  6  8  1  0  0  0  0
  6 46  1  6  0  0  0
  6  7  1  0  0  0  0
  6  5  1  0  0  0  0
  7 47  1  0  0  0  0
  8  9  2  0  0  0  0
  8 48  1  0  0  0  0
  9 49  1  0  0  0  0
 10 11  1  0  0  0  0
 10 21  1  0  0  0  0
 10 50  1  6  0  0  0
 10  9  1  0  0  0  0
 11 12  1  0  0  0  0
 11 13  1  0  0  0  0
 11 51  1  6  0  0  0
 12 52  1  0  0  0  0
 13 14  1  0  0  0  0
 13 53  1  0  0  0  0
 13 54  1  0  0  0  0
 14 15  1  0  0  0  0
 14 21  2  0  0  0  0
 15 16  1  0  0  0  0
 16 17  2  0  0  0  0
 16 18  1  0  0  0  0
 18 19  1  0  0  0  0
 18 55  1  0  0  0  0
 18 56  1  0  0  0  0
 19 20  1  0  0  0  0
 19 57  1  0  0  0  0
 19 58  1  0  0  0  0
 20 59  1  0  0  0  0
 20 60  1  0  0  0  0
 20 61  1  0  0  0  0
 21 22  1  0  0  0  0
 22 23  1  0  0  0  0
 22 62  1  0  0  0  0
 22 63  1  0  0  0  0
 23 24  1  0  0  0  0
 23 64  1  0  0  0  0
 23 65  1  0  0  0  0
 24 25  1  0  0  0  0
 24 66  1  0  0  0  0
 24 67  1  0  0  0  0
 25 26  1  0  0  0  0
 25 68  1  0  0  0  0
 25 69  1  0  0  0  0
 26 27  1  0  0  0  0
 26 70  1  0  0  0  0
 26 71  1  0  0  0  0
 27 28  1  0  0  0  0
 27 72  1  0  0  0  0
 27 73  1  0  0  0  0
 28 29  2  0  0  0  0
 28 30  1  0  0  0  0
 30 31  1  0  0  0  0
 31 32  1  0  0  0  0
 31 74  1  0  0  0  0
 31 75  1  0  0  0  0
 32 33  1  0  0  0  0
 32 76  1  0  0  0  0
 32 77  1  0  0  0  0
 33 34  1  0  0  0  0
 33 78  1  0  0  0  0
 33 79  1  0  0  0  0
 34 80  1  0  0  0  0
 34 81  1  0  0  0  0
 34 82  1  0  0  0  0
M  END
>  <DRUGBANK_ID>
DB16148

>  <COMMON_NAME>
Ecraprost

>  <CAS_NUMBER>
136892-64-3

>  <UNII>
Q2XM6VR8DO

>  <SYNONYMS>
Circulase; Ecraprost

$$$$
