
 OpenBabel10282417193D

 55 58  0  0  1  0  0  0  0  0999 V2000
    1.0948   -0.0597   -0.0909 C   0  0  0  0  0  0  0  0  0  0  0  0
   -1.8091   -2.1810    0.1340 C   0  0  0  0  0  0  0  0  0  0  0  0
    3.9900   -3.6979   -2.5148 C   0  0  0  0  0  0  0  0  0  0  0  0
    4.1190   -4.6158   -3.7271 C   0  0  0  0  0  0  0  0  0  0  0  0
    2.1904  -10.7194   -5.4059 C   0  0  0  0  0  0  0  0  0  0  0  0
    2.2273   -2.4699   -1.2316 C   0  0  0  0  0  0  0  0  0  0  0  0
    0.2729   -4.2938   -1.9330 C   0  0  0  0  0  0  0  0  0  0  0  0
    1.2108   -6.9540   -2.8468 C   0  0  0  0  0  0  0  0  0  0  0  0
    4.3114  -11.4989   -6.4706 C   0  0  0  0  0  0  0  0  0  0  0  0
    4.2436   -9.7714   -4.6372 C   0  0  0  0  0  0  0  0  0  0  0  0
    4.1144   -7.0055   -3.2022 C   0  0  0  0  0  0  0  0  0  0  0  0
    3.5783  -10.3268   -5.8774 C   0  0  2  0  0  0  0  0  0  0  0  0
    2.5635   -3.5408   -2.0641 C   0  0  0  0  0  0  0  0  0  0  0  0
    1.5900   -4.4887   -2.3985 C   0  0  0  0  0  0  0  0  0  0  0  0
    2.0597   -7.9103   -2.0045 C   0  0  1  0  0  0  0  0  0  0  0  0
    1.9277   -5.6727   -3.2924 C   0  0  1  0  0  0  0  0  0  0  0  0
    3.3485   -8.2755   -2.7725 C   0  0  1  0  0  0  0  0  0  0  0  0
    0.9319   -2.3227   -0.7279 C   0  0  0  0  0  0  0  0  0  0  0  0
   -0.0623   -3.2402   -1.0806 C   0  0  0  0  0  0  0  0  0  0  0  0
    1.9221   -9.7377   -4.3250 C   0  0  0  0  0  0  0  0  0  0  0  0
    3.6031  -11.9491   -7.5394 F   0  0  0  0  0  0  0  0  0  0  0  0
    2.2957   -7.3489   -0.6625 N   0  0  0  0  0  0  0  0  0  0  0  0
    3.3505   -5.8387   -3.5829 N   0  0  3  0  0  0  0  0  0  0  0  0
    3.1330   -9.1931   -3.9100 N   0  0  0  0  0  0  0  0  0  0  0  0
    0.7878   -9.5536   -3.8984 O   0  0  0  0  0  0  0  0  0  0  0  0
    0.6755   -1.3779    0.2253 O   0  0  0  0  0  0  0  0  0  0  0  0
   -1.3757   -3.2579   -0.6838 O   0  0  0  0  0  0  0  0  0  0  0  0
    3.4745   -9.5271   -6.6238 H   0  0  0  0  0  0  0  0  0  0  0  0
    1.4927   -8.8284   -1.8169 H   0  0  0  0  0  0  0  0  0  0  0  0
    1.4934   -5.4058   -4.2673 H   0  0  0  0  0  0  0  0  0  0  0  0
    4.0014   -8.8332   -2.0841 H   0  0  0  0  0  0  0  0  0  0  0  0
    0.6947    0.5903    0.6924 H   0  0  0  0  0  0  0  0  0  0  0  0
    0.6881    0.2758   -1.0509 H   0  0  0  0  0  0  0  0  0  0  0  0
    2.1829    0.0270   -0.0669 H   0  0  0  0  0  0  0  0  0  0  0  0
   -1.2960   -2.1970    1.1011 H   0  0  0  0  0  0  0  0  0  0  0  0
   -1.6859   -1.2258   -0.3882 H   0  0  0  0  0  0  0  0  0  0  0  0
   -2.8745   -2.3017    0.3420 H   0  0  0  0  0  0  0  0  0  0  0  0
    4.5756   -4.0937   -1.6753 H   0  0  0  0  0  0  0  0  0  0  0  0
    4.4014   -2.7159   -2.7777 H   0  0  0  0  0  0  0  0  0  0  0  0
    5.1823   -4.8262   -3.9047 H   0  0  0  0  0  0  0  0  0  0  0  0
    3.7628   -4.1011   -4.6260 H   0  0  0  0  0  0  0  0  0  0  0  0
    2.1461  -11.7131   -4.9508 H   0  0  0  0  0  0  0  0  0  0  0  0
    1.4399  -10.6178   -6.1934 H   0  0  0  0  0  0  0  0  0  0  0  0
    3.0088   -1.7779   -0.9391 H   0  0  0  0  0  0  0  0  0  0  0  0
   -0.5244   -4.9838   -2.2072 H   0  0  0  0  0  0  0  0  0  0  0  0
    0.8657   -7.4062   -3.7777 H   0  0  0  0  0  0  0  0  0  0  0  0
    0.2847   -6.7894   -2.2912 H   0  0  0  0  0  0  0  0  0  0  0  0
    5.3046  -11.2065   -6.8183 H   0  0  0  0  0  0  0  0  0  0  0  0
    4.4079  -12.3212   -5.7552 H   0  0  0  0  0  0  0  0  0  0  0  0
    4.7304  -10.5311   -4.0149 H   0  0  0  0  0  0  0  0  0  0  0  0
    4.9890   -9.0219   -4.9135 H   0  0  0  0  0  0  0  0  0  0  0  0
    4.8397   -6.7641   -2.4147 H   0  0  0  0  0  0  0  0  0  0  0  0
    4.7194   -7.2286   -4.0861 H   0  0  0  0  0  0  0  0  0  0  0  0
    2.3188   -6.3312   -0.7073 H   0  0  0  0  0  0  0  0  0  0  0  0
    3.1887   -7.6563   -0.2914 H   0  0  0  0  0  0  0  0  0  0  0  0
  1 32  1  0  0  0  0
  1 33  1  0  0  0  0
  1 34  1  0  0  0  0
  2 35  1  0  0  0  0
  2 36  1  0  0  0  0
  2 37  1  0  0  0  0
  3 38  1  0  0  0  0
  3 39  1  0  0  0  0
  4  3  1  0  0  0  0
  4 40  1  0  0  0  0
  4 41  1  0  0  0  0
  5 42  1  0  0  0  0
  5 43  1  0  0  0  0
  6 44  1  0  0  0  0
  7 45  1  0  0  0  0
  8 46  1  0  0  0  0
  8 47  1  0  0  0  0
  9 48  1  0  0  0  0
  9 49  1  0  0  0  0
 10 50  1  0  0  0  0
 10 51  1  0  0  0  0
 11 52  1  0  0  0  0
 11 53  1  0  0  0  0
 12  5  1  0  0  0  0
 12  9  1  0  0  0  0
 12 10  1  0  0  0  0
 12 28  1  6  0  0  0
 13  3  1  0  0  0  0
 13  6  2  0  0  0  0
 14  7  2  0  0  0  0
 14 13  1  0  0  0  0
 15  8  1  0  0  0  0
 15 29  1  1  0  0  0
 15 22  1  0  0  0  0
 16  8  1  0  0  0  0
 16 14  1  0  0  0  0
 16 30  1  6  0  0  0
 17 11  1  0  0  0  0
 17 15  1  0  0  0  0
 17 31  1  1  0  0  0
 17 24  1  0  0  0  0
 18  6  1  0  0  0  0
 19  7  1  0  0  0  0
 19 18  2  0  0  0  0
 20  5  1  0  0  0  0
 21  9  1  0  0  0  0
 22 54  1  0  0  0  0
 22 55  1  0  0  0  0
 23  4  1  0  0  0  0
 23 11  1  0  0  0  0
 23 16  1  0  0  0  0
 24 10  1  0  0  0  0
 24 20  1  0  0  0  0
 25 20  2  0  0  0  0
 26  1  1  0  0  0  0
 26 18  1  0  0  0  0
 27  2  1  0  0  0  0
 27 19  1  0  0  0  0
M  END
>  <DRUGBANK_ID>
DB12268

>  <COMMON_NAME>
Carmegliptin

>  <CAS_NUMBER>
813452-18-5

>  <UNII>
9Z723VGH7J

>  <SYNONYMS>
Carmegliptin

$$$$
