A84
 OpenBabel10282417163D

 55 57  0  0  0  0  0  0  0  0999 V2000
    2.5694   -0.8384   -0.2833 C   0  0  0  0  0  0  0  0  0  0  0  0
    1.3961   -1.7759    0.0588 C   0  0  0  0  0  0  0  0  0  0  0  0
    0.0577   -1.1180    0.2197 C   0  0  0  0  0  0  0  0  0  0  0  0
    0.0285    0.2249    0.5912 C   0  0  0  0  0  0  0  0  0  0  0  0
    1.2162    1.1304    0.2609 C   0  0  0  0  0  0  0  0  0  0  0  0
    2.5335    0.4550    0.5154 C   0  0  0  0  0  0  0  0  0  0  0  0
   -1.1512   -1.8320    0.1261 C   0  0  0  0  0  0  0  0  0  0  0  0
   -2.3621   -1.1343    0.1274 C   0  0  0  0  0  0  0  0  0  0  0  0
   -2.3155    0.2593    0.2498 C   0  0  0  0  0  0  0  0  0  0  0  0
   -1.1999    0.7844    0.9244 C   0  0  0  0  0  0  0  0  0  0  0  0
   -1.0952    2.1767    1.1841 C   0  0  0  0  0  0  0  0  0  0  0  0
   -1.0641    2.7270    0.1395 O   0  0  0  0  0  0  0  0  0  0  0  0
   -0.6779    2.9673    2.1551 O   0  0  0  0  0  0  0  0  0  0  0  0
   -3.1120    0.9516   -0.8340 N   0  0  0  0  0  0  0  0  0  0  0  0
   -3.3306    2.6435   -1.0065 S   0  0  0  0  0  0  0  0  0  0  0  0
   -4.4387    2.8073   -1.9151 O   0  0  0  0  0  0  0  0  0  0  0  0
   -3.4789    2.8316    0.4331 O   0  0  0  0  0  0  0  0  0  0  0  0
   -2.0334    4.0519   -1.4785 C   0  0  0  0  0  0  0  0  0  0  0  0
   -2.0949    5.3297   -0.7584 C   0  0  0  0  0  0  0  0  0  0  0  0
   -0.8334    5.9670   -0.4689 C   0  0  0  0  0  0  0  0  0  0  0  0
    0.3924    5.3511   -0.7262 C   0  0  0  0  0  0  0  0  0  0  0  0
    0.4421    4.1655   -1.4472 C   0  0  0  0  0  0  0  0  0  0  0  0
   -0.7574    3.5716   -1.9467 C   0  0  0  0  0  0  0  0  0  0  0  0
    1.5159    5.8744   -0.2044 F   0  0  0  0  0  0  0  0  0  0  0  0
   -3.2656    6.2010   -0.2820 C   0  0  0  0  0  0  0  0  0  0  0  0
   -4.5482    6.0638    0.1651 C   0  0  0  0  0  0  0  0  0  0  0  0
   -5.3421    4.7878    0.3124 C   0  0  0  0  0  0  0  0  0  0  0  0
   -5.7512    4.1574    1.5900 N   0  0  0  0  0  0  0  0  0  0  0  0
   -5.9938    2.6820    1.4730 C   0  0  0  0  0  0  0  0  0  0  0  0
   -4.7605    4.3203    2.6592 C   0  0  0  0  0  0  0  0  0  0  0  0
    2.5666   -0.5879   -1.3537 H   0  0  0  0  0  0  0  0  0  0  0  0
    3.5108   -1.3535   -0.0771 H   0  0  0  0  0  0  0  0  0  0  0  0
    1.3431   -2.5809   -0.6807 H   0  0  0  0  0  0  0  0  0  0  0  0
    1.5919   -2.2125    1.0412 H   0  0  0  0  0  0  0  0  0  0  0  0
    1.2280    2.0941    0.7823 H   0  0  0  0  0  0  0  0  0  0  0  0
    1.1366    1.3825   -0.8081 H   0  0  0  0  0  0  0  0  0  0  0  0
    2.6488    0.2695    1.5883 H   0  0  0  0  0  0  0  0  0  0  0  0
    3.3464    1.1246    0.2077 H   0  0  0  0  0  0  0  0  0  0  0  0
   -1.1541   -2.8990   -0.0899 H   0  0  0  0  0  0  0  0  0  0  0  0
   -3.2785   -1.6565   -0.1498 H   0  0  0  0  0  0  0  0  0  0  0  0
   -0.7253    3.7675    1.5519 H   0  0  0  0  0  0  0  0  0  0  0  0
   -4.0859    0.7208   -0.5630 H   0  0  0  0  0  0  0  0  0  0  0  0
   -0.7640    6.9328    0.0402 H   0  0  0  0  0  0  0  0  0  0  0  0
    1.3794    3.6020   -1.4291 H   0  0  0  0  0  0  0  0  0  0  0  0
   -0.6802    2.5373   -2.2897 H   0  0  0  0  0  0  0  0  0  0  0  0
   -2.9506    7.2544   -0.2874 H   0  0  0  0  0  0  0  0  0  0  0  0
   -5.1119    6.9741    0.3754 H   0  0  0  0  0  0  0  0  0  0  0  0
   -6.1216    4.6845   -0.4510 H   0  0  0  0  0  0  0  0  0  0  0  0
   -4.5875    4.2148   -0.0923 H   0  0  0  0  0  0  0  0  0  0  0  0
   -5.1077    2.0412    1.6224 H   0  0  0  0  0  0  0  0  0  0  0  0
   -6.6685    2.3467    2.2683 H   0  0  0  0  0  0  0  0  0  0  0  0
   -6.4383    2.3778    0.5179 H   0  0  0  0  0  0  0  0  0  0  0  0
   -3.8450    3.7338    2.5155 H   0  0  0  0  0  0  0  0  0  0  0  0
   -4.4783    5.3660    2.7801 H   0  0  0  0  0  0  0  0  0  0  0  0
   -5.1926    3.9939    3.6122 H   0  0  0  0  0  0  0  0  0  0  0  0
  1  2  1  0  0  0  0
  1  6  1  0  0  0  0
  1 31  1  0  0  0  0
  1 32  1  0  0  0  0
  2  3  1  0  0  0  0
  2 33  1  0  0  0  0
  2 34  1  0  0  0  0
  3  4  1  0  0  0  0
  3  7  2  0  0  0  0
  4  5  1  0  0  0  0
  4 10  2  0  0  0  0
  5  6  1  0  0  0  0
  5 35  1  0  0  0  0
  5 36  1  0  0  0  0
  6 37  1  0  0  0  0
  6 38  1  0  0  0  0
  7  8  1  0  0  0  0
  7 39  1  0  0  0  0
  8  9  2  0  0  0  0
  8 40  1  0  0  0  0
  9 10  1  0  0  0  0
  9 14  1  0  0  0  0
 10 11  1  0  0  0  0
 11 12  2  0  0  0  0
 11 13  1  0  0  0  0
 13 41  1  0  0  0  0
 14 15  1  0  0  0  0
 14 42  1  0  0  0  0
 15 16  2  0  0  0  0
 15 17  2  0  0  0  0
 15 18  1  0  0  0  0
 18 19  1  0  0  0  0
 18 23  2  0  0  0  0
 19 20  2  0  0  0  0
 19 25  1  0  0  0  0
 20 21  1  0  0  0  0
 20 43  1  0  0  0  0
 21 22  2  0  0  0  0
 21 24  1  0  0  0  0
 22 23  1  0  0  0  0
 22 44  1  0  0  0  0
 23 45  1  0  0  0  0
 25 26  2  0  0  0  0
 25 46  1  0  0  0  0
 26 27  1  0  0  0  0
 26 47  1  0  0  0  0
 27 28  1  0  0  0  0
 27 48  1  0  0  0  0
 27 49  1  0  0  0  0
 28 29  1  0  0  0  0
 28 30  1  0  0  0  0
 29 50  1  0  0  0  0
 29 51  1  0  0  0  0
 29 52  1  0  0  0  0
 30 53  1  0  0  0  0
 30 54  1  0  0  0  0
 30 55  1  0  0  0  0
M  END
>  <DRUGBANK_ID>
DB07323

>  <COMMON_NAME>
2-[({2-[(1Z)-3-(DIMETHYLAMINO)PROP-1-ENYL]-4-FLUOROPHENYL}SULFONYL)AMINO]-5,6,7,8-TETRAHYDRONAPHTHALENE-1-CARBOXYLIC ACID

$$$$
