
 OpenBabel10282417123D

132131  0  0  1  0  0  0  0  0999 V2000
    0.7439    0.0870   -0.2844 C   0  0  0  0  0  0  0  0  0  0  0  0
    0.1641   -1.5536   -0.3686 C   0  0  1  0  0  0  0  0  0  0  0  0
    0.3629   -2.8092    1.1395 C   0  0  0  0  0  0  0  0  0  0  0  0
    0.5572    0.5595    1.2057 O   0  0  0  0  0  0  0  0  0  0  0  0
    0.0469   -2.0608    2.9576 O   0  0  0  0  0  0  0  0  0  0  0  0
   -1.2650   -1.4027   -0.4957 O   0  0  0  0  0  0  0  0  0  0  0  0
    1.1339   -0.4709    2.4701 P   0  0  3  0  0  0  0  0  0  0  0  0
   -0.2307    0.4262    2.9299 O   0  5  0  0  0  0  0  0  0  0  0  0
    1.1656   -1.2438    1.2937 O   0  0  0  0  0  0  0  0  0  0  0  0
    1.7105   -1.5013    3.7344 O   0  0  0  0  0  0  0  0  0  0  0  0
    3.1145   -1.1812    4.1363 C   0  0  0  0  0  0  0  0  0  0  0  0
    4.2666   -1.3360    3.0296 C   0  0  0  0  0  0  0  0  0  0  0  0
    4.1131   -0.4392    1.8141 N   0  3  0  0  0  0  0  0  0  0  0  0
    4.1461    1.0223    2.2269 C   0  0  0  0  0  0  0  0  0  0  0  0
    4.7634   -0.5160    0.4930 C   0  0  0  0  0  0  0  0  0  0  0  0
    3.0910   -1.1822    1.2050 C   0  0  0  0  0  0  0  0  0  0  0  0
    3.6872   12.2748    4.9962 C   0  0  0  0  0  0  0  0  0  0  0  0
    4.0816   11.5245    3.7376 C   0  0  0  0  0  0  0  0  0  0  0  0
    4.8292   10.2477    4.1100 C   0  0  0  0  0  0  0  0  0  0  0  0
    3.9430    9.3422    4.9663 C   0  0  0  0  0  0  0  0  0  0  0  0
    2.6715    8.9782    4.1994 C   0  0  0  0  0  0  0  0  0  0  0  0
    3.0451    8.2366    2.9179 C   0  0  0  0  0  0  0  0  0  0  0  0
    3.8144    6.9690    3.2798 C   0  0  0  0  0  0  0  0  0  0  0  0
    2.9313    6.0973    4.1640 C   0  0  0  0  0  0  0  0  0  0  0  0
    1.6554    5.7878    3.3900 C   0  0  0  0  0  0  0  0  0  0  0  0
    2.0664    5.0979    2.0933 C   0  0  0  0  0  0  0  0  0  0  0  0
    2.8759    3.8999    2.5053 C   0  0  0  0  0  0  0  0  0  0  0  0
    1.9775    3.2511    3.5024 C   0  0  0  0  0  0  0  0  0  0  0  0
    0.6137    3.1216    2.8191 C   0  0  0  0  0  0  0  0  0  0  0  0
    0.9629    2.3574    1.6899 C   0  0  0  0  0  0  0  0  0  0  0  0
    1.3312    1.1251    3.2604 C   0  0  0  0  0  0  0  0  0  0  0  0
    0.3298   -0.4599    4.1205 C   0  0  0  0  0  0  0  0  0  0  0  0
    0.5931   -0.6010    5.4061 O   0  0  0  0  0  0  0  0  0  0  0  0
   -7.1758    6.6438   13.2447 C   0  0  0  0  0  0  0  0  0  0  0  0
   -8.1681    6.1586   12.2035 C   0  0  0  0  0  0  0  0  0  0  0  0
   -7.8515    6.7781   10.8434 C   0  0  0  0  0  0  0  0  0  0  0  0
   -6.4562    6.3841   10.3799 C   0  0  0  0  0  0  0  0  0  0  0  0
   -6.3420    4.8733   10.3108 C   0  0  0  0  0  0  0  0  0  0  0  0
   -7.2832    4.3134    9.2829 C   0  0  0  0  0  0  0  0  0  0  0  0
   -6.8554    3.6480    8.2111 C   0  0  0  0  0  0  0  0  0  0  0  0
   -5.4126    3.3900    7.9976 C   0  0  0  0  0  0  0  0  0  0  0  0
   -5.1429    1.9372    7.9223 C   0  0  0  0  0  0  0  0  0  0  0  0
   -4.5973    1.4053    6.8324 C   0  0  0  0  0  0  0  0  0  0  0  0
   -4.1899    2.2435    5.6538 C   0  0  0  0  0  0  0  0  0  0  0  0
   -2.7029    2.1525    5.4398 C   0  0  0  0  0  0  0  0  0  0  0  0
   -2.3826    0.7196    5.1202 C   0  0  0  0  0  0  0  0  0  0  0  0
   -3.1877    0.2636    3.8849 C   0  0  0  0  0  0  0  0  0  0  0  0
   -3.1666    1.1856    2.6384 C   0  0  0  0  0  0  0  0  0  0  0  0
   -1.8965    1.1412    2.0011 C   0  0  0  0  0  0  0  0  0  0  0  0
   -1.6974   -0.4283    1.7430 C   0  0  0  0  0  0  0  0  0  0  0  0
   -2.1006   -1.0049    0.5040 C   0  0  0  0  0  0  0  0  0  0  0  0
   -3.3087   -1.1616    0.4182 O   0  0  0  0  0  0  0  0  0  0  0  0
    0.6946   -1.8677   -1.3320 H   0  0  0  0  0  0  0  0  0  0  0  0
    0.3081    0.8250   -0.9763 H   0  0  0  0  0  0  0  0  0  0  0  0
    1.8012    0.2390   -0.6365 H   0  0  0  0  0  0  0  0  0  0  0  0
    0.0576   -3.8398    0.8163 H   0  0  0  0  0  0  0  0  0  0  0  0
    1.5489   -3.0726    0.8307 H   0  0  0  0  0  0  0  0  0  0  0  0
    3.1072   -0.1723    4.5545 H   0  0  0  0  0  0  0  0  0  0  0  0
    3.3723   -1.8479    4.9553 H   0  0  0  0  0  0  0  0  0  0  0  0
    5.2407   -1.0711    3.3690 H   0  0  0  0  0  0  0  0  0  0  0  0
    4.1956   -2.3753    2.6663 H   0  0  0  0  0  0  0  0  0  0  0  0
    5.1245    1.3819    2.4821 H   0  0  0  0  0  0  0  0  0  0  0  0
    3.6604    1.6292    1.4606 H   0  0  0  0  0  0  0  0  0  0  0  0
    3.8014    1.1435    3.2481 H   0  0  0  0  0  0  0  0  0  0  0  0
    4.6904   -1.5514    0.1063 H   0  0  0  0  0  0  0  0  0  0  0  0
    4.1906    0.1472   -0.2114 H   0  0  0  0  0  0  0  0  0  0  0  0
    5.7424   -0.1991    0.7088 H   0  0  0  0  0  0  0  0  0  0  0  0
    3.1598   -2.1989    0.8369 H   0  0  0  0  0  0  0  0  0  0  0  0
    2.6539   -1.6528    2.0381 H   0  0  0  0  0  0  0  0  0  0  0  0
    2.5801   -0.5207    0.5484 H   0  0  0  0  0  0  0  0  0  0  0  0
    4.5837   12.5242    5.5707 H   0  0  0  0  0  0  0  0  0  0  0  0
    3.1423   13.1834    4.7470 H   0  0  0  0  0  0  0  0  0  0  0  0
    3.0290   11.6805    5.6378 H   0  0  0  0  0  0  0  0  0  0  0  0
    4.7087   12.1490    3.0990 H   0  0  0  0  0  0  0  0  0  0  0  0
    3.1855   11.3009    3.1476 H   0  0  0  0  0  0  0  0  0  0  0  0
    5.7477   10.4849    4.6514 H   0  0  0  0  0  0  0  0  0  0  0  0
    5.1517    9.7328    3.1978 H   0  0  0  0  0  0  0  0  0  0  0  0
    3.6799    9.8159    5.9125 H   0  0  0  0  0  0  0  0  0  0  0  0
    4.5033    8.4535    5.2688 H   0  0  0  0  0  0  0  0  0  0  0  0
    2.0717    9.8558    3.9547 H   0  0  0  0  0  0  0  0  0  0  0  0
    2.0108    8.3874    4.8391 H   0  0  0  0  0  0  0  0  0  0  0  0
    3.6432    8.8489    2.2432 H   0  0  0  0  0  0  0  0  0  0  0  0
    2.1434    8.0244    2.3377 H   0  0  0  0  0  0  0  0  0  0  0  0
    4.7520    7.1768    3.7919 H   0  0  0  0  0  0  0  0  0  0  0  0
    4.1333    6.4575    2.3680 H   0  0  0  0  0  0  0  0  0  0  0  0
    2.6726    6.5610    5.1119 H   0  0  0  0  0  0  0  0  0  0  0  0
    3.4860    5.2041    4.4708 H   0  0  0  0  0  0  0  0  0  0  0  0
    1.0416    6.6431    3.1517 H   0  0  0  0  0  0  0  0  0  0  0  0
    0.9806    5.2022    4.0262 H   0  0  0  0  0  0  0  0  0  0  0  0
    2.6510    5.6753    1.3987 H   0  0  0  0  0  0  0  0  0  0  0  0
    1.1764    4.8511    1.5009 H   0  0  0  0  0  0  0  0  0  0  0  0
    3.8375    4.0188    2.9846 H   0  0  0  0  0  0  0  0  0  0  0  0
    3.1327    3.3750    1.5873 H   0  0  0  0  0  0  0  0  0  0  0  0
    1.7028    3.5969    4.4762 H   0  0  0  0  0  0  0  0  0  0  0  0
    2.5368    2.4039    3.9310 H   0  0  0  0  0  0  0  0  0  0  0  0
   -0.1007    3.8290    2.4569 H   0  0  0  0  0  0  0  0  0  0  0  0
    0.0274    2.5720    3.5258 H   0  0  0  0  0  0  0  0  0  0  0  0
    1.7711    2.5177    0.8635 H   0  0  0  0  0  0  0  0  0  0  0  0
    0.1601    2.3022    0.8478 H   0  0  0  0  0  0  0  0  0  0  0  0
    2.3579    0.7966    3.1281 H   0  0  0  0  0  0  0  0  0  0  0  0
    2.0072    1.0989    2.0399 H   0  0  0  0  0  0  0  0  0  0  0  0
   -7.2240    7.7338   13.3178 H   0  0  0  0  0  0  0  0  0  0  0  0
   -7.3903    6.1996   14.2158 H   0  0  0  0  0  0  0  0  0  0  0  0
   -6.1475    6.3662   12.9919 H   0  0  0  0  0  0  0  0  0  0  0  0
   -9.1871    6.4163   12.4960 H   0  0  0  0  0  0  0  0  0  0  0  0
   -8.1423    5.0639   12.1579 H   0  0  0  0  0  0  0  0  0  0  0  0
   -7.9268    7.8664   10.8933 H   0  0  0  0  0  0  0  0  0  0  0  0
   -8.5942    6.4490   10.1092 H   0  0  0  0  0  0  0  0  0  0  0  0
   -5.6920    6.7647   11.0665 H   0  0  0  0  0  0  0  0  0  0  0  0
   -6.2246    6.8373    9.4096 H   0  0  0  0  0  0  0  0  0  0  0  0
   -6.5189    4.3760   11.2651 H   0  0  0  0  0  0  0  0  0  0  0  0
   -5.2928    4.6709   10.1326 H   0  0  0  0  0  0  0  0  0  0  0  0
   -8.3524    4.4737    9.3968 H   0  0  0  0  0  0  0  0  0  0  0  0
   -7.5599    3.2969    7.4582 H   0  0  0  0  0  0  0  0  0  0  0  0
   -4.7294    3.7703    8.7464 H   0  0  0  0  0  0  0  0  0  0  0  0
   -5.1383    3.9869    7.1366 H   0  0  0  0  0  0  0  0  0  0  0  0
   -5.3763    1.3103    8.7795 H   0  0  0  0  0  0  0  0  0  0  0  0
   -4.4107    0.3325    6.8157 H   0  0  0  0  0  0  0  0  0  0  0  0
   -4.3962    3.3000    5.7262 H   0  0  0  0  0  0  0  0  0  0  0  0
   -4.7779    1.9455    4.7855 H   0  0  0  0  0  0  0  0  0  0  0  0
   -2.1340    2.4938    6.3099 H   0  0  0  0  0  0  0  0  0  0  0  0
   -2.4021    2.8173    4.6221 H   0  0  0  0  0  0  0  0  0  0  0  0
   -2.5964    0.0397    5.9539 H   0  0  0  0  0  0  0  0  0  0  0  0
   -1.3074    0.6794    5.0676 H   0  0  0  0  0  0  0  0  0  0  0  0
   -4.2443    0.2103    4.0943 H   0  0  0  0  0  0  0  0  0  0  0  0
   -2.9492   -0.7889    3.7299 H   0  0  0  0  0  0  0  0  0  0  0  0
   -3.2756    2.2428    2.8628 H   0  0  0  0  0  0  0  0  0  0  0  0
   -3.7248    0.8507    1.7898 H   0  0  0  0  0  0  0  0  0  0  0  0
   -1.4658    1.7781    2.8288 H   0  0  0  0  0  0  0  0  0  0  0  0
   -1.4948    1.7562    1.2163 H   0  0  0  0  0  0  0  0  0  0  0  0
   -1.7020   -1.1177    2.6045 H   0  0  0  0  0  0  0  0  0  0  0  0
   -0.7348   -0.6342    1.4823 H   0  0  0  0  0  0  0  0  0  0  0  0
  1  4  1  0  0  0  0
  1 54  1  0  0  0  0
  1 55  1  0  0  0  0
  2  1  1  0  0  0  0
  2  6  1  0  0  0  0
  2 53  1  6  0  0  0
  3  2  1  0  0  0  0
  3  5  1  0  0  0  0
  3 56  1  0  0  0  0
  3 57  1  0  0  0  0
  4  7  1  0  0  0  0
  6 51  1  0  0  0  0
  7  8  1  0  0  0  0
  7  9  2  0  0  0  0
  7 10  1  0  0  0  0
 10 11  1  0  0  0  0
 11 12  1  0  0  0  0
 11 58  1  0  0  0  0
 11 59  1  0  0  0  0
 12 13  1  0  0  0  0
 12 60  1  0  0  0  0
 12 61  1  0  0  0  0
 13 14  1  0  0  0  0
 13 15  1  0  0  0  0
 13 16  1  0  0  0  0
 14 62  1  0  0  0  0
 14 63  1  0  0  0  0
 14 64  1  0  0  0  0
 15 65  1  0  0  0  0
 15 66  1  0  0  0  0
 15 67  1  0  0  0  0
 16 68  1  0  0  0  0
 16 69  1  0  0  0  0
 16 70  1  0  0  0  0
 17 18  1  0  0  0  0
 17 71  1  0  0  0  0
 17 72  1  0  0  0  0
 17 73  1  0  0  0  0
 18 19  1  0  0  0  0
 18 74  1  0  0  0  0
 18 75  1  0  0  0  0
 19 20  1  0  0  0  0
 19 76  1  0  0  0  0
 19 77  1  0  0  0  0
 20 21  1  0  0  0  0
 20 78  1  0  0  0  0
 20 79  1  0  0  0  0
 21 22  1  0  0  0  0
 21 80  1  0  0  0  0
 21 81  1  0  0  0  0
 22 23  1  0  0  0  0
 22 82  1  0  0  0  0
 22 83  1  0  0  0  0
 23 24  1  0  0  0  0
 23 84  1  0  0  0  0
 23 85  1  0  0  0  0
 24 25  1  0  0  0  0
 24 86  1  0  0  0  0
 24 87  1  0  0  0  0
 25 26  1  0  0  0  0
 25 88  1  0  0  0  0
 25 89  1  0  0  0  0
 26 27  1  0  0  0  0
 26 90  1  0  0  0  0
 26 91  1  0  0  0  0
 27 28  1  0  0  0  0
 27 92  1  0  0  0  0
 27 93  1  0  0  0  0
 28 29  1  0  0  0  0
 28 94  1  0  0  0  0
 28 95  1  0  0  0  0
 29 30  1  0  0  0  0
 29 96  1  0  0  0  0
 29 97  1  0  0  0  0
 30 31  1  0  0  0  0
 30 98  1  0  0  0  0
 30 99  1  0  0  0  0
 31 32  1  0  0  0  0
 31100  1  0  0  0  0
 31101  1  0  0  0  0
 32  5  1  0  0  0  0
 32 33  2  0  0  0  0
 34102  1  0  0  0  0
 34103  1  0  0  0  0
 34104  1  0  0  0  0
 35 34  1  0  0  0  0
 35105  1  0  0  0  0
 35106  1  0  0  0  0
 36 35  1  0  0  0  0
 36107  1  0  0  0  0
 36108  1  0  0  0  0
 37 36  1  0  0  0  0
 37109  1  0  0  0  0
 37110  1  0  0  0  0
 38 37  1  0  0  0  0
 38111  1  0  0  0  0
 38112  1  0  0  0  0
 39 38  1  0  0  0  0
 39113  1  0  0  0  0
 40 39  2  0  0  0  0
 40114  1  0  0  0  0
 41 40  1  0  0  0  0
 41115  1  0  0  0  0
 41116  1  0  0  0  0
 42 41  1  0  0  0  0
 42117  1  0  0  0  0
 43 42  2  0  0  0  0
 43118  1  0  0  0  0
 44 43  1  0  0  0  0
 44119  1  0  0  0  0
 44120  1  0  0  0  0
 45 44  1  0  0  0  0
 45121  1  0  0  0  0
 45122  1  0  0  0  0
 46 45  1  0  0  0  0
 46123  1  0  0  0  0
 46124  1  0  0  0  0
 47 46  1  0  0  0  0
 47125  1  0  0  0  0
 47126  1  0  0  0  0
 48 47  1  0  0  0  0
 48127  1  0  0  0  0
 48128  1  0  0  0  0
 49 48  1  0  0  0  0
 49129  1  0  0  0  0
 49130  1  0  0  0  0
 50 49  1  0  0  0  0
 50131  1  0  0  0  0
 50132  1  0  0  0  0
 51 50  1  0  0  0  0
 52 51  2  0  0  0  0
M  CHG  2   8  -1  13   1
M  END
>  <DRUGBANK_ID>
DB02306

>  <SECONDARY_ACCESSION_NUMBERS>
EXPT01000

>  <COMMON_NAME>
Palmitoyl-Linoleoyl Phosphatidylcholine

>  <UNII>
6UCA7I41S8

$$$$
