
 OpenBabel10282417123D

 21 20  0  0  1  0  0  0  0  0999 V2000
    3.0827    0.6901   -1.0647 O   0  0  0  0  0  0  0  0  0  0  0  0
    2.5747    0.3005   -2.3417 C   0  0  1  0  0  0  0  0  0  0  0  0
    1.0348    0.2819   -2.3098 C   0  0  2  0  0  0  0  0  0  0  0  0
    0.5168   -0.5881   -1.1411 C   0  0  0  0  0  0  0  0  0  0  0  0
   -0.1928    0.2589   -0.1168 C   0  0  0  0  0  0  0  0  0  0  0  0
   -1.4225   -0.1722    0.2272 O   0  0  0  0  0  0  0  0  0  0  0  0
    0.2970    1.2737    0.3630 O   0  0  0  0  0  0  0  0  0  0  0  0
    0.5581   -0.3063   -3.6140 C   0  0  0  0  0  0  0  0  0  0  0  0
   -0.2262    0.4901   -4.3625 O   0  0  0  0  0  0  0  0  0  0  0  0
    0.8652   -1.4355   -3.9759 O   0  0  0  0  0  0  0  0  0  0  0  0
    3.0702    1.2903   -3.3968 C   0  0  0  0  0  0  0  0  0  0  0  0
    3.8351    0.7645   -4.3753 O   0  0  0  0  0  0  0  0  0  0  0  0
    2.7744    2.4789   -3.3666 O   0  0  0  0  0  0  0  0  0  0  0  0
    2.7312    1.5805   -0.8566 H   0  0  0  0  0  0  0  0  0  0  0  0
    2.9766   -0.6972   -2.5508 H   0  0  0  0  0  0  0  0  0  0  0  0
    0.6550    1.3078   -2.2189 H   0  0  0  0  0  0  0  0  0  0  0  0
   -0.1469   -1.3871   -1.4880 H   0  0  0  0  0  0  0  0  0  0  0  0
    1.3407   -1.0837   -0.6136 H   0  0  0  0  0  0  0  0  0  0  0  0
   -1.7349   -0.9992   -0.1874 H   0  0  0  0  0  0  0  0  0  0  0  0
   -0.3792    1.4062   -4.0537 H   0  0  0  0  0  0  0  0  0  0  0  0
    4.0339   -0.1905   -4.3085 H   0  0  0  0  0  0  0  0  0  0  0  0
  1 14  1  0  0  0  0
  2  1  1  0  0  0  0
  2 11  1  0  0  0  0
  2 15  1  6  0  0  0
  3  8  1  0  0  0  0
  3 16  1  1  0  0  0
  3  4  1  0  0  0  0
  3  2  1  0  0  0  0
  4  5  1  0  0  0  0
  4 17  1  0  0  0  0
  4 18  1  0  0  0  0
  5  6  1  0  0  0  0
  5  7  2  0  0  0  0
  6 19  1  0  0  0  0
  8  9  1  0  0  0  0
  8 10  2  0  0  0  0
  9 20  1  0  0  0  0
 11 12  1  0  0  0  0
 11 13  2  0  0  0  0
 12 21  1  0  0  0  0
M  END
>  <DRUGBANK_ID>
DB01727

>  <SECONDARY_ACCESSION_NUMBERS>
EXPT01834

>  <COMMON_NAME>
Isocitric Acid

>  <CAS_NUMBER>
320-77-4

>  <UNII>
9RW6G5D4MQ

$$$$
