CTF
 OpenBabel10282417163D

 56 59  0  0  0  0  0  0  0  0999 V2000
   -4.5871   -0.1432   -0.2304 C   0  0  0  0  0  0  0  0  0  0  0  0
   -6.8965   -2.0772   -1.4065 O   0  0  0  0  0  0  0  0  0  0  0  0
   -7.0097   -1.7557    1.1164 O   0  0  0  0  0  0  0  0  0  0  0  0
   -3.9761   -1.3867   -0.0119 C   0  0  0  0  0  0  0  0  0  0  0  0
   -2.6079   -1.4730    0.1879 C   0  0  0  0  0  0  0  0  0  0  0  0
   -1.7872   -0.3454    0.1617 C   0  0  0  0  0  0  0  0  0  0  0  0
   -7.0049   -1.2314   -0.2339 S   0  0  0  0  0  0  0  0  0  0  0  0
   -8.5620   -0.6201   -0.4140 N   0  0  0  0  0  0  0  0  0  0  0  0
   -5.9628    0.0350   -0.3648 O   0  0  0  0  0  0  0  0  0  0  0  0
   -2.3714    0.9133   -0.0854 C   0  0  0  0  0  0  0  0  0  0  0  0
   -3.7687    1.0017   -0.3013 C   0  0  0  0  0  0  0  0  0  0  0  0
   -4.7625   -2.4869   -0.0035 O   0  0  0  0  0  0  0  0  0  0  0  0
   -4.2555   -3.7813    0.2209 C   0  0  0  0  0  0  0  0  0  0  0  0
   -0.3173   -0.4945    0.5180 C   0  0  2  0  0  0  0  0  0  0  0  0
    0.4998    0.7023   -0.0285 C   0  0  1  0  0  0  0  0  0  0  0  0
   -0.1386    1.9852    0.5042 C   0  0  0  0  0  0  0  0  0  0  0  0
   -1.5144    2.1634   -0.1457 C   0  0  0  0  0  0  0  0  0  0  0  0
    0.3041   -1.8622    0.1422 C   0  0  0  0  0  0  0  0  0  0  0  0
    1.7988   -1.9506    0.4643 C   0  0  0  0  0  0  0  0  0  0  0  0
    2.5607   -0.7768   -0.1534 C   0  0  2  0  0  0  0  0  0  0  0  0
    1.9556    0.5377    0.3919 C   0  0  1  0  0  0  0  0  0  0  0  0
    2.5012   -0.8893   -1.6984 C   0  0  0  0  0  0  0  0  0  0  0  0
    4.0203   -0.6117    0.3248 C   0  0  2  0  0  0  0  0  0  0  0  0
    4.3163    0.8783    0.0157 C   0  0  0  0  0  0  0  0  0  0  0  0
    2.9598    1.5999   -0.0419 C   0  0  0  0  0  0  0  0  0  0  0  0
    5.0591   -1.5362   -0.3194 C   0  0  0  0  0  0  0  0  0  0  0  0
    5.1428   -2.8340    0.3555 C   0  0  0  0  0  0  0  0  0  0  0  0
    5.2292   -3.8638    0.8921 N   0  0  0  0  0  0  0  0  0  0  0  0
   -0.2853   -0.4494    1.6179 H   0  0  0  0  0  0  0  0  0  0  0  0
    0.4399    0.7325   -1.1243 H   0  0  0  0  0  0  0  0  0  0  0  0
    1.9741    0.5203    1.4942 H   0  0  0  0  0  0  0  0  0  0  0  0
    4.0578   -0.7363    1.4186 H   0  0  0  0  0  0  0  0  0  0  0  0
   -2.1795   -2.4444    0.3903 H   0  0  0  0  0  0  0  0  0  0  0  0
   -8.6692   -0.2592   -1.3581 H   0  0  0  0  0  0  0  0  0  0  0  0
   -9.1728   -1.4341   -0.2843 H   0  0  0  0  0  0  0  0  0  0  0  0
   -4.2080    1.9770   -0.5062 H   0  0  0  0  0  0  0  0  0  0  0  0
   -3.5614   -4.0609   -0.5743 H   0  0  0  0  0  0  0  0  0  0  0  0
   -3.8067   -3.8554    1.2141 H   0  0  0  0  0  0  0  0  0  0  0  0
   -5.1097   -4.4640    0.1832 H   0  0  0  0  0  0  0  0  0  0  0  0
   -0.2473    1.9232    1.5955 H   0  0  0  0  0  0  0  0  0  0  0  0
    0.4880    2.8577    0.2935 H   0  0  0  0  0  0  0  0  0  0  0  0
   -1.3690    2.4373   -1.1991 H   0  0  0  0  0  0  0  0  0  0  0  0
   -2.0263    2.9944    0.3504 H   0  0  0  0  0  0  0  0  0  0  0  0
   -0.1835   -2.6711    0.6978 H   0  0  0  0  0  0  0  0  0  0  0  0
    0.1274   -2.0743   -0.9194 H   0  0  0  0  0  0  0  0  0  0  0  0
    2.1868   -2.9073    0.0982 H   0  0  0  0  0  0  0  0  0  0  0  0
    1.9226   -1.9575    1.5554 H   0  0  0  0  0  0  0  0  0  0  0  0
    2.9165   -1.8456   -2.0319 H   0  0  0  0  0  0  0  0  0  0  0  0
    1.4861   -0.8534   -2.0969 H   0  0  0  0  0  0  0  0  0  0  0  0
    3.0651   -0.0913   -2.1895 H   0  0  0  0  0  0  0  0  0  0  0  0
    4.9642    1.3093    0.7862 H   0  0  0  0  0  0  0  0  0  0  0  0
    4.8333    0.9912   -0.9440 H   0  0  0  0  0  0  0  0  0  0  0  0
    2.9439    2.4756    0.6147 H   0  0  0  0  0  0  0  0  0  0  0  0
    2.7616    1.9521   -1.0609 H   0  0  0  0  0  0  0  0  0  0  0  0
    4.8699   -1.6945   -1.3849 H   0  0  0  0  0  0  0  0  0  0  0  0
    6.0375   -1.0496   -0.2706 H   0  0  0  0  0  0  0  0  0  0  0  0
  1  4  2  0  0  0  0
  1  9  1  0  0  0  0
  1 11  1  0  0  0  0
  2  7  2  0  0  0  0
  3  7  2  0  0  0  0
  4  5  1  0  0  0  0
  4 12  1  0  0  0  0
  5  6  2  0  0  0  0
  5 33  1  0  0  0  0
  6 10  1  0  0  0  0
  6 14  1  0  0  0  0
  7  8  1  0  0  0  0
  7  9  1  0  0  0  0
  8 34  1  0  0  0  0
  8 35  1  0  0  0  0
 10 11  2  0  0  0  0
 10 17  1  0  0  0  0
 11 36  1  0  0  0  0
 12 13  1  0  0  0  0
 13 37  1  0  0  0  0
 13 38  1  0  0  0  0
 13 39  1  0  0  0  0
 14 15  1  0  0  0  0
 14 18  1  0  0  0  0
 14 29  1  1  0  0  0
 15 16  1  0  0  0  0
 15 21  1  0  0  0  0
 15 30  1  6  0  0  0
 16 17  1  0  0  0  0
 16 40  1  0  0  0  0
 16 41  1  0  0  0  0
 17 42  1  0  0  0  0
 17 43  1  0  0  0  0
 18 19  1  0  0  0  0
 18 44  1  0  0  0  0
 18 45  1  0  0  0  0
 19 20  1  0  0  0  0
 19 46  1  0  0  0  0
 19 47  1  0  0  0  0
 20 21  1  0  0  0  0
 20 22  1  6  0  0  0
 20 23  1  0  0  0  0
 21 25  1  0  0  0  0
 21 31  1  1  0  0  0
 22 48  1  0  0  0  0
 22 49  1  0  0  0  0
 22 50  1  0  0  0  0
 23 24  1  0  0  0  0
 23 32  1  1  0  0  0
 23 26  1  0  0  0  0
 24 25  1  0  0  0  0
 24 51  1  0  0  0  0
 24 52  1  0  0  0  0
 25 53  1  0  0  0  0
 25 54  1  0  0  0  0
 26 27  1  0  0  0  0
 26 55  1  0  0  0  0
 26 56  1  0  0  0  0
 27 28  3  0  0  0  0
M  END
>  <DRUGBANK_ID>
DB07596

>  <COMMON_NAME>
(17beta)-17-(cyanomethyl)-2-methoxyestra-1(10),2,4-trien-3-yl sulfamate

$$$$
