
 OpenBabel10282417123D

 48 48  0  0  0  0  0  0  0  0999 V2000
   -1.3878    0.3320   -0.6978 C   0  0  1  0  0  0  0  0  0  0  0  0
   -0.7832   -0.7915    0.2018 C   0  0  1  0  0  0  0  0  0  0  0  0
   -0.3676    1.6175   -0.3154 C   0  0  1  0  0  0  0  0  0  0  0  0
    0.3362   -1.7619   -0.0551 C   0  0  2  0  0  0  0  0  0  0  0  0
    1.3847    0.9867   -0.0857 C   0  0  1  0  0  0  0  0  0  0  0  0
    1.2282   -0.8271    0.6899 C   0  0  1  0  0  0  0  0  0  0  0  0
    0.3536    0.8408   -3.6235 O   0  0  0  0  0  0  0  0  0  0  0  0
   -0.5788   -1.5821   -3.5569 O   0  0  0  0  0  0  0  0  0  0  0  0
   -1.7070    0.2790   -4.7445 O   0  0  0  0  0  0  0  0  0  0  0  0
    2.5777    0.2675    2.1494 O   0  0  0  0  0  0  0  0  0  0  0  0
    1.1379    2.3619    2.2494 O   0  0  0  0  0  0  0  0  0  0  0  0
    1.0318    0.5802    3.9342 O   0  0  0  0  0  0  0  0  0  0  0  0
    0.4015    3.0988   -2.9625 O   0  0  0  0  0  0  0  0  0  0  0  0
   -1.9015    2.2690   -2.7228 O   0  0  0  0  0  0  0  0  0  0  0  0
   -1.4075    4.6863   -2.3450 O   0  0  0  0  0  0  0  0  0  0  0  0
    0.6626   -0.0087   -1.7024 O   0  0  0  0  0  0  0  0  0  0  0  0
    2.6692   -1.1024   -1.1259 O   0  0  0  0  0  0  0  0  0  0  0  0
    1.8113   -1.2319   -3.4950 O   0  0  0  0  0  0  0  0  0  0  0  0
    4.5776    2.0552   -1.7994 O   0  0  0  0  0  0  0  0  0  0  0  0
    4.2237   -0.2514   -2.3952 O   0  0  0  0  0  0  0  0  0  0  0  0
    3.2317    1.5736   -3.7415 O   0  0  0  0  0  0  0  0  0  0  0  0
   -1.5225    1.0542    3.0104 O   0  0  0  0  0  0  0  0  0  0  0  0
   -2.2858   -1.2866    2.5649 O   0  0  0  0  0  0  0  0  0  0  0  0
   -1.0064   -0.7580    4.6573 O   0  0  0  0  0  0  0  0  0  0  0  0
   -1.7805    0.0371   -2.1088 O   0  0  0  0  0  0  0  0  0  0  0  0
   -0.3378    0.3018    1.4503 O   0  0  0  0  0  0  0  0  0  0  0  0
   -0.5973    2.9367   -0.7607 O   0  0  0  0  0  0  0  0  0  0  0  0
    0.5935   -2.2258   -1.3693 O   0  0  0  0  0  0  0  0  0  0  0  0
    2.1773    1.4050   -1.4931 O   0  0  0  0  0  0  0  0  0  0  0  0
    0.5056   -1.2755    2.3283 O   0  0  0  0  0  0  0  0  0  0  0  0
   -0.9797   -0.1900   -3.6087 S   0  0  0  0  0  0  0  0  0  0  0  0
    1.1670    0.9550    2.5524 S   0  0  0  0  0  0  0  0  0  0  0  0
   -1.0301    3.2996   -2.2594 S   0  0  0  0  0  0  0  0  0  0  0  0
    1.6026   -1.2384   -2.0409 S   0  0  0  0  0  0  0  0  0  0  0  0
    3.5694    1.0312   -2.4405 S   0  0  0  0  0  0  0  0  0  0  0  0
   -1.1771   -0.6377    3.2263 S   0  0  0  0  0  0  0  0  0  0  0  0
   -2.3533    0.5447   -0.1708 H   0  0  0  0  0  0  0  0  0  0  0  0
   -1.6325   -1.4969    0.3584 H   0  0  0  0  0  0  0  0  0  0  0  0
   -0.7234    1.8820    0.6915 H   0  0  0  0  0  0  0  0  0  0  0  0
    0.3827   -2.6839    0.5218 H   0  0  0  0  0  0  0  0  0  0  0  0
    1.9031    1.7554    0.4761 H   0  0  0  0  0  0  0  0  0  0  0  0
    2.2230   -1.2755    0.7929 H   0  0  0  0  0  0  0  0  0  0  0  0
    0.9779    1.2863   -2.9645 H   0  0  0  0  0  0  0  0  0  0  0  0
    2.5692   -0.6716    2.4960 H   0  0  0  0  0  0  0  0  0  0  0  0
    1.1643    3.4486   -2.4660 H   0  0  0  0  0  0  0  0  0  0  0  0
    0.0391    0.6120   -2.1262 H   0  0  0  0  0  0  0  0  0  0  0  0
    4.0086    2.8330   -1.7276 H   0  0  0  0  0  0  0  0  0  0  0  0
   -0.8873    1.7638    2.7234 H   0  0  0  0  0  0  0  0  0  0  0  0
  1 25  1  0  0  0  0
  1 37  1  1  0  0  0
  2  1  1  0  0  0  0
  2 26  1  0  0  0  0
  2 38  1  1  0  0  0
  3  1  1  0  0  0  0
  3 27  1  0  0  0  0
  3 39  1  1  0  0  0
  4  2  1  0  0  0  0
  4 40  1  1  0  0  0
  4 28  1  0  0  0  0
  5  3  1  0  0  0  0
  5 41  1  1  0  0  0
  5 29  1  0  0  0  0
  6  4  1  0  0  0  0
  6  5  1  0  0  0  0
  6 30  1  0  0  0  0
  6 42  1  6  0  0  0
  7 43  1  0  0  0  0
 10 44  1  0  0  0  0
 13 45  1  0  0  0  0
 16 46  1  0  0  0  0
 19 47  1  0  0  0  0
 22 48  1  0  0  0  0
 31  7  1  0  0  0  0
 31  8  2  0  0  0  0
 31  9  2  0  0  0  0
 31 25  1  0  0  0  0
 32 10  1  0  0  0  0
 32 11  2  0  0  0  0
 32 12  2  0  0  0  0
 32 26  1  0  0  0  0
 33 13  1  0  0  0  0
 33 14  2  0  0  0  0
 33 15  2  0  0  0  0
 33 27  1  0  0  0  0
 34 16  1  0  0  0  0
 34 17  2  0  0  0  0
 34 18  2  0  0  0  0
 34 28  1  0  0  0  0
 35 19  1  0  0  0  0
 35 20  2  0  0  0  0
 35 21  2  0  0  0  0
 35 29  1  0  0  0  0
 36 22  1  0  0  0  0
 36 23  2  0  0  0  0
 36 24  2  0  0  0  0
 36 30  1  0  0  0  0
M  END
>  <DRUGBANK_ID>
DB01666

>  <SECONDARY_ACCESSION_NUMBERS>
EXPT01854

>  <COMMON_NAME>
D-Myo-Inositol-Hexasulphate

$$$$
