
 OpenBabel10282417203D

 75 79  0  0  1  0  0  0  0  0999 V2000
    5.0008    0.7343   -0.2011 C   0  0  0  0  0  0  0  0  0  0  0  0
    4.5299    9.8115   -3.8522 C   0  0  0  0  0  0  0  0  0  0  0  0
    8.6860   -0.5876    0.8640 C   0  0  0  0  0  0  0  0  0  0  0  0
    4.1256    6.5683   -5.7722 C   0  0  0  0  0  0  0  0  0  0  0  0
    8.8798    3.1682    1.7662 C   0  0  0  0  0  0  0  0  0  0  0  0
    4.7318    1.3485   -1.6964 C   0  0  0  0  0  0  0  0  0  0  0  0
    2.3884    5.9343    0.5084 C   0  0  0  0  0  0  0  0  0  0  0  0
    6.7692    1.9549   -4.2812 C   0  0  0  0  0  0  0  0  0  0  0  0
    3.0370    4.5644    0.7257 C   0  0  0  0  0  0  0  0  0  0  0  0
    7.3678    3.2230   -4.8657 C   0  0  0  0  0  0  0  0  0  0  0  0
    2.5482    3.2288   -2.6294 C   0  0  0  0  0  0  0  0  0  0  0  0
    4.9429    4.7983   -2.1714 C   0  0  0  0  0  0  0  0  0  0  0  0
    3.1623    7.7484   -1.1516 C   0  0  0  0  0  0  0  0  0  0  0  0
    7.5579    0.7530   -2.2440 C   0  0  0  0  0  0  0  0  0  0  0  0
    2.6387    6.0546   -3.2880 C   0  0  0  0  0  0  0  0  0  0  0  0
    7.9064    3.1922   -0.7418 C   0  0  0  0  0  0  0  0  0  0  0  0
    5.7636    4.0703   -3.9069 C   0  0  0  0  0  0  0  0  0  0  0  0
    5.1558    2.9062   -2.2769 C   0  0  1  0  0  0  0  0  0  0  0  0
    2.6224    6.4792   -0.8798 C   0  0  0  0  0  0  0  0  0  0  0  0
    7.3695    1.9526   -2.8630 C   0  0  0  0  0  0  0  0  0  0  0  0
    3.9756    3.4939   -2.8247 C   0  0  1  0  0  0  0  0  0  0  0  0
    2.3489    5.6134   -1.9429 C   0  0  0  0  0  0  0  0  0  0  0  0
    7.5117    3.1863   -2.0456 C   0  0  0  0  0  0  0  0  0  0  0  0
    2.0544    4.1382   -1.5531 C   0  0  2  0  0  0  0  0  0  0  0  0
    6.8621    4.4997   -2.4907 C   0  0  1  0  0  0  0  0  0  0  0  0
    3.5572    8.1288   -2.4598 C   0  0  0  0  0  0  0  0  0  0  0  0
    8.0329    0.7680   -0.9310 C   0  0  0  0  0  0  0  0  0  0  0  0
    3.3651    7.2384   -3.5309 C   0  0  0  0  0  0  0  0  0  0  0  0
    8.2168    1.9809   -0.1855 C   0  0  0  0  0  0  0  0  0  0  0  0
    2.7076    3.6143   -0.3243 N   0  0  0  0  0  0  0  0  0  0  0  0
    7.1353    4.3829   -3.9511 N   0  0  3  0  0  0  0  0  0  0  0  0
    4.1243    9.3822   -2.5503 O   0  0  0  0  0  0  0  0  0  0  0  0
    8.1444   -0.5102   -0.4381 O   0  0  0  0  0  0  0  0  0  0  0  0
    4.0834    7.4690   -4.6818 O   0  0  0  0  0  0  0  0  0  0  0  0
    8.6078    1.9341    1.1212 O   0  0  0  0  0  0  0  0  0  0  0  0
    5.3525    3.2704   -1.2378 H   0  0  0  0  0  0  0  0  0  0  0  0
    4.1119    2.7980   -3.6874 H   0  0  0  0  0  0  0  0  0  0  0  0
    0.9834    4.0071   -1.4718 H   0  0  0  0  0  0  0  0  0  0  0  0
    7.2574    5.4148   -2.0304 H   0  0  0  0  0  0  0  0  0  0  0  0
    6.0195    0.5915    0.1325 H   0  0  0  0  0  0  0  0  0  0  0  0
    4.6057   -0.3026   -0.1719 H   0  0  0  0  0  0  0  0  0  0  0  0
    4.4961    1.2277    0.6456 H   0  0  0  0  0  0  0  0  0  0  0  0
    5.4566    9.3000   -4.1406 H   0  0  0  0  0  0  0  0  0  0  0  0
    3.7385    9.6811   -4.6025 H   0  0  0  0  0  0  0  0  0  0  0  0
    4.7451   10.8810   -3.8300 H   0  0  0  0  0  0  0  0  0  0  0  0
    9.6620   -0.0913    0.8920 H   0  0  0  0  0  0  0  0  0  0  0  0
    7.9836   -0.1864    1.6055 H   0  0  0  0  0  0  0  0  0  0  0  0
    8.8419   -1.6353    1.1026 H   0  0  0  0  0  0  0  0  0  0  0  0
    4.6819    5.6794   -5.5332 H   0  0  0  0  0  0  0  0  0  0  0  0
    3.1314    6.2810   -6.1057 H   0  0  0  0  0  0  0  0  0  0  0  0
    4.6909    7.0241   -6.5953 H   0  0  0  0  0  0  0  0  0  0  0  0
    9.5557    3.7994    1.1762 H   0  0  0  0  0  0  0  0  0  0  0  0
    7.9430    3.6901    1.9914 H   0  0  0  0  0  0  0  0  0  0  0  0
    9.3780    2.9288    2.7039 H   0  0  0  0  0  0  0  0  0  0  0  0
    4.9637    0.5823   -2.4227 H   0  0  0  0  0  0  0  0  0  0  0  0
    3.6529    1.3386   -1.5702 H   0  0  0  0  0  0  0  0  0  0  0  0
    1.3066    5.8026    0.6101 H   0  0  0  0  0  0  0  0  0  0  0  0
    2.7316    6.6230    1.2817 H   0  0  0  0  0  0  0  0  0  0  0  0
    5.6684    2.0251   -4.3909 H   0  0  0  0  0  0  0  0  0  0  0  0
    6.8794    1.0462   -4.8642 H   0  0  0  0  0  0  0  0  0  0  0  0
    2.7220    4.1474    1.6914 H   0  0  0  0  0  0  0  0  0  0  0  0
    4.1317    4.6530    0.8129 H   0  0  0  0  0  0  0  0  0  0  0  0
    6.8362    3.4486   -5.8179 H   0  0  0  0  0  0  0  0  0  0  0  0
    8.3963    3.0612   -5.1702 H   0  0  0  0  0  0  0  0  0  0  0  0
    2.0718    3.4203   -3.6047 H   0  0  0  0  0  0  0  0  0  0  0  0
    2.3132    2.1617   -2.4989 H   0  0  0  0  0  0  0  0  0  0  0  0
    4.6254    5.5850   -2.8081 H   0  0  0  0  0  0  0  0  0  0  0  0
    4.7845    5.1300   -1.1708 H   0  0  0  0  0  0  0  0  0  0  0  0
    3.3148    8.4421   -0.3292 H   0  0  0  0  0  0  0  0  0  0  0  0
    7.1902   -0.1560   -2.7199 H   0  0  0  0  0  0  0  0  0  0  0  0
    2.6442    5.3287   -4.0970 H   0  0  0  0  0  0  0  0  0  0  0  0
    7.8477    4.1283   -0.1952 H   0  0  0  0  0  0  0  0  0  0  0  0
    5.6786    5.2325   -3.9199 H   0  0  0  0  0  0  0  0  0  0  0  0
    5.2129    4.0107   -4.8214 H   0  0  0  0  0  0  0  0  0  0  0  0
    2.2027    2.8096    0.0440 H   0  0  0  0  0  0  0  0  0  0  0  0
  1 40  1  0  0  0  0
  1 41  1  0  0  0  0
  1 42  1  0  0  0  0
  2 43  1  0  0  0  0
  2 44  1  0  0  0  0
  2 45  1  0  0  0  0
  3 46  1  0  0  0  0
  3 47  1  0  0  0  0
  3 48  1  0  0  0  0
  4 49  1  0  0  0  0
  4 50  1  0  0  0  0
  4 51  1  0  0  0  0
  5 52  1  0  0  0  0
  5 53  1  0  0  0  0
  5 54  1  0  0  0  0
  6  1  1  0  0  0  0
  6 55  1  0  0  0  0
  6 56  1  0  0  0  0
  7 57  1  0  0  0  0
  7 58  1  0  0  0  0
  8 59  1  0  0  0  0
  8 60  1  0  0  0  0
  9  7  1  0  0  0  0
  9 61  1  0  0  0  0
  9 62  1  0  0  0  0
 10  8  1  0  0  0  0
 10 63  1  0  0  0  0
 10 64  1  0  0  0  0
 11 65  1  0  0  0  0
 11 66  1  0  0  0  0
 12 67  1  0  0  0  0
 12 68  1  0  0  0  0
 13 69  1  0  0  0  0
 14 70  1  0  0  0  0
 15 71  1  0  0  0  0
 16 72  1  0  0  0  0
 17 73  1  0  0  0  0
 17 74  1  0  0  0  0
 18  6  1  0  0  0  0
 18 17  1  0  0  0  0
 18 36  1  1  0  0  0
 19  7  1  0  0  0  0
 19 13  2  0  0  0  0
 20  8  1  0  0  0  0
 20 14  2  0  0  0  0
 21 11  1  0  0  0  0
 21 12  1  0  0  0  0
 21 18  1  0  0  0  0
 21 37  1  6  0  0  0
 22 15  2  0  0  0  0
 22 19  1  0  0  0  0
 23 16  2  0  0  0  0
 23 20  1  0  0  0  0
 24 22  1  0  0  0  0
 24 38  1  1  0  0  0
 24 11  1  0  0  0  0
 25 12  1  0  0  0  0
 25 23  1  0  0  0  0
 25 39  1  1  0  0  0
 26 13  1  0  0  0  0
 27 14  1  0  0  0  0
 28 15  1  0  0  0  0
 28 26  2  0  0  0  0
 29 16  1  0  0  0  0
 29 27  2  0  0  0  0
 30  9  1  0  0  0  0
 30 24  1  0  0  0  0
 30 75  1  0  0  0  0
 31 10  1  0  0  0  0
 31 17  1  0  0  0  0
 31 25  1  0  0  0  0
 32  2  1  0  0  0  0
 32 26  1  0  0  0  0
 33  3  1  0  0  0  0
 33 27  1  0  0  0  0
 34  4  1  0  0  0  0
 34 28  1  0  0  0  0
 35  5  1  0  0  0  0
 35 29  1  0  0  0  0
M  END
>  <DRUGBANK_ID>
DB13393

>  <COMMON_NAME>
Emetine

>  <CAS_NUMBER>
483-18-1

>  <UNII>
X8D5EPO80M

$$$$
