
 OpenBabel10282417163D

 49 49  0  0  0  0  0  0  0  0999 V2000
    1.1268    0.1424    0.3049 O   0  0  0  0  0  0  0  0  0  0  0  0
    6.5032    1.0605    5.7214 O   0  0  0  0  0  0  0  0  0  0  0  0
    5.7784    3.6181    5.2092 O   0  0  0  0  0  0  0  0  0  0  0  0
    3.0893   -0.3519    1.2230 N   0  0  0  0  0  0  0  0  0  0  0  0
    1.1615   -0.5118   -2.6143 C   0  0  0  0  0  0  0  0  0  0  0  0
    2.6423   -0.6103   -2.2355 C   0  0  0  0  0  0  0  0  0  0  0  0
    0.7509    0.9008   -3.0361 C   0  0  0  0  0  0  0  0  0  0  0  0
    3.0386    0.3806   -1.1464 C   0  0  0  0  0  0  0  0  0  0  0  0
    1.6312    1.9479   -6.6740 C   0  0  0  0  0  0  0  0  0  0  0  0
    1.4962    1.3147   -4.2673 C   0  0  0  0  0  0  0  0  0  0  0  0
    2.3509    0.0604    0.1656 C   0  0  0  0  0  0  0  0  0  0  0  0
    0.8836    1.6035   -5.4196 C   0  0  0  0  0  0  0  0  0  0  0  0
    4.5252   -0.3286    1.3702 C   0  0  0  0  0  0  0  0  0  0  0  0
    4.9283    0.7155    2.3714 C   0  0  0  0  0  0  0  0  0  0  0  0
    1.2783    0.9462   -7.7686 C   0  0  0  0  0  0  0  0  0  0  0  0
    1.2784    3.3673   -7.0970 C   0  0  0  0  0  0  0  0  0  0  0  0
    5.5769    0.3467    3.5582 C   0  0  0  0  0  0  0  0  0  0  0  0
    4.6376    2.0676    2.1324 C   0  0  0  0  0  0  0  0  0  0  0  0
    5.8865    1.3089    4.5216 C   0  0  0  0  0  0  0  0  0  0  0  0
    4.9313    3.0303    3.0917 C   0  0  0  0  0  0  0  0  0  0  0  0
    5.5388    2.6439    4.2787 C   0  0  0  0  0  0  0  0  0  0  0  0
    6.8862   -0.2918    5.9594 C   0  0  0  0  0  0  0  0  0  0  0  0
    6.1777    3.1609    5.9725 H   0  0  0  0  0  0  0  0  0  0  0  0
    2.5307   -0.5002    2.0566 H   0  0  0  0  0  0  0  0  0  0  0  0
    0.9471   -1.2246   -3.4196 H   0  0  0  0  0  0  0  0  0  0  0  0
    0.5383   -0.8302   -1.7727 H   0  0  0  0  0  0  0  0  0  0  0  0
    3.2655   -0.4247   -3.1192 H   0  0  0  0  0  0  0  0  0  0  0  0
    2.8760   -1.6342   -1.9212 H   0  0  0  0  0  0  0  0  0  0  0  0
   -0.3312    0.9250   -3.1996 H   0  0  0  0  0  0  0  0  0  0  0  0
    0.9423    1.6333   -2.2453 H   0  0  0  0  0  0  0  0  0  0  0  0
    2.8069    1.4188   -1.4008 H   0  0  0  0  0  0  0  0  0  0  0  0
    4.1224    0.3669   -1.0834 H   0  0  0  0  0  0  0  0  0  0  0  0
    2.7140    1.8961   -6.4981 H   0  0  0  0  0  0  0  0  0  0  0  0
    2.5829    1.3498   -4.2216 H   0  0  0  0  0  0  0  0  0  0  0  0
   -0.2031    1.5794   -5.4650 H   0  0  0  0  0  0  0  0  0  0  0  0
    4.8203   -1.3358    1.6765 H   0  0  0  0  0  0  0  0  0  0  0  0
    5.0472   -0.1197    0.4396 H   0  0  0  0  0  0  0  0  0  0  0  0
    0.2058    0.9639   -7.9927 H   0  0  0  0  0  0  0  0  0  0  0  0
    1.8219    1.1777   -8.6896 H   0  0  0  0  0  0  0  0  0  0  0  0
    1.5422   -0.0745   -7.4684 H   0  0  0  0  0  0  0  0  0  0  0  0
    1.5420    4.0856   -6.3124 H   0  0  0  0  0  0  0  0  0  0  0  0
    1.8226    3.6429   -8.0051 H   0  0  0  0  0  0  0  0  0  0  0  0
    0.2058    3.4655   -7.2977 H   0  0  0  0  0  0  0  0  0  0  0  0
    5.8146   -0.7016    3.7080 H   0  0  0  0  0  0  0  0  0  0  0  0
    4.1559    2.3729    1.2061 H   0  0  0  0  0  0  0  0  0  0  0  0
    4.6728    4.0709    2.9218 H   0  0  0  0  0  0  0  0  0  0  0  0
    6.0115   -0.9514    5.9831 H   0  0  0  0  0  0  0  0  0  0  0  0
    7.6153   -0.6328    5.2157 H   0  0  0  0  0  0  0  0  0  0  0  0
    7.3644   -0.3403    6.9414 H   0  0  0  0  0  0  0  0  0  0  0  0
  1 11  2  0  0  0  0
  2 19  1  0  0  0  0
  2 22  1  0  0  0  0
  3 21  1  0  0  0  0
  3 23  1  0  0  0  0
  4 11  1  0  0  0  0
  4 13  1  0  0  0  0
  4 24  1  0  0  0  0
  5  6  1  0  0  0  0
  5  7  1  0  0  0  0
  5 25  1  0  0  0  0
  5 26  1  0  0  0  0
  6  8  1  0  0  0  0
  6 27  1  0  0  0  0
  6 28  1  0  0  0  0
  7 10  1  0  0  0  0
  7 29  1  0  0  0  0
  7 30  1  0  0  0  0
  8 11  1  0  0  0  0
  8 31  1  0  0  0  0
  8 32  1  0  0  0  0
  9 12  1  0  0  0  0
  9 15  1  0  0  0  0
  9 16  1  0  0  0  0
  9 33  1  0  0  0  0
 10 12  2  0  0  0  0
 10 34  1  0  0  0  0
 12 35  1  0  0  0  0
 13 14  1  0  0  0  0
 13 36  1  0  0  0  0
 13 37  1  0  0  0  0
 14 17  2  0  0  0  0
 14 18  1  0  0  0  0
 15 38  1  0  0  0  0
 15 39  1  0  0  0  0
 15 40  1  0  0  0  0
 16 41  1  0  0  0  0
 16 42  1  0  0  0  0
 16 43  1  0  0  0  0
 17 19  1  0  0  0  0
 17 44  1  0  0  0  0
 18 20  2  0  0  0  0
 18 45  1  0  0  0  0
 19 21  2  0  0  0  0
 20 21  1  0  0  0  0
 20 46  1  0  0  0  0
 22 47  1  0  0  0  0
 22 48  1  0  0  0  0
 22 49  1  0  0  0  0
M  END
>  <DRUGBANK_ID>
DB06774

>  <SECONDARY_ACCESSION_NUMBERS>
DB05674; DB05318

>  <COMMON_NAME>
Capsaicin

>  <CAS_NUMBER>
404-86-4

>  <UNII>
S07O44R1ZM

>  <SYNONYMS>
(E)-8-Methyl-N-vanillyl-6-nonenamide; Capsaicin; Capsaicina; Isodecenoic acid vanillylamide; trans-8-Methyl-N-vanillyl-6-nonenamide

$$$$
