1009
 OpenBabel10282417113D

 33 34  0  0  1  0  0  0  0  0999 V2000
    0.8854    0.1140   -0.0132 O   0  0  0  0  0  0  0  0  0  0  0  0
   -2.2034   -4.4766    3.9207 O   0  0  0  0  0  0  0  0  0  0  0  0
    0.9783   -1.5558   -1.4941 O   0  0  0  0  0  0  0  0  0  0  0  0
   -1.2258   -0.7387   -0.8018 C   0  0  3  0  0  0  0  0  0  0  0  0
   -1.7441   -1.0707    0.5860 C   0  0  0  0  0  0  0  0  0  0  0  0
   -1.7723   -2.4104    0.9788 C   0  0  0  0  0  0  0  0  0  0  0  0
   -2.0217   -2.7591    2.3096 C   0  0  0  0  0  0  0  0  0  0  0  0
   -2.0691   -0.0873    1.5291 C   0  0  0  0  0  0  0  0  0  0  0  0
   -1.7274    0.6039   -1.3167 C   0  0  0  0  0  0  0  0  0  0  0  0
   -2.2976   -1.7591    3.2483 C   0  0  0  0  0  0  0  0  0  0  0  0
   -2.3060   -0.4235    2.8584 C   0  0  0  0  0  0  0  0  0  0  0  0
   -1.9606   -4.1735    2.7567 C   0  0  0  0  0  0  0  0  0  0  0  0
    0.2958   -0.7819   -0.8300 C   0  0  0  0  0  0  0  0  0  0  0  0
   -1.6390   -5.2480    1.7961 C   0  0  0  0  0  0  0  0  0  0  0  0
   -0.4082   -5.2871    1.1274 C   0  0  0  0  0  0  0  0  0  0  0  0
   -2.6074   -6.2244    1.5639 C   0  0  0  0  0  0  0  0  0  0  0  0
   -0.1638   -6.2975    0.1983 C   0  0  0  0  0  0  0  0  0  0  0  0
   -2.3303   -7.2668    0.6831 C   0  0  0  0  0  0  0  0  0  0  0  0
   -1.1238   -7.2868   -0.0199 C   0  0  0  0  0  0  0  0  0  0  0  0
    1.8483   -0.0477   -0.0942 H   0  0  0  0  0  0  0  0  0  0  0  0
   -1.5815   -1.5121   -1.4983 H   0  0  0  0  0  0  0  0  0  0  0  0
   -1.5623   -3.1672    0.2281 H   0  0  0  0  0  0  0  0  0  0  0  0
   -2.1128    0.9629    1.2564 H   0  0  0  0  0  0  0  0  0  0  0  0
   -1.3760    0.7928   -2.3338 H   0  0  0  0  0  0  0  0  0  0  0  0
   -2.8227    0.6268   -1.3108 H   0  0  0  0  0  0  0  0  0  0  0  0
   -1.3666    1.4324   -0.6978 H   0  0  0  0  0  0  0  0  0  0  0  0
   -2.5027   -2.0130    4.2858 H   0  0  0  0  0  0  0  0  0  0  0  0
   -2.4626    0.3644    3.5901 H   0  0  0  0  0  0  0  0  0  0  0  0
    0.3478   -4.5251    1.3022 H   0  0  0  0  0  0  0  0  0  0  0  0
   -3.5717   -6.1662    2.0627 H   0  0  0  0  0  0  0  0  0  0  0  0
    0.7764   -6.3213   -0.3477 H   0  0  0  0  0  0  0  0  0  0  0  0
   -3.0535   -8.0663    0.5488 H   0  0  0  0  0  0  0  0  0  0  0  0
   -0.9318   -8.0793   -0.7390 H   0  0  0  0  0  0  0  0  0  0  0  0
  1 13  1  0  0  0  0
  1 20  1  0  0  0  0
  2 12  2  0  0  0  0
  3 13  2  0  0  0  0
  4  5  1  0  0  0  0
  4  9  1  0  0  0  0
  4 13  1  0  0  0  0
  4 21  1  0  0  0  0
  5  6  2  0  0  0  0
  5  8  1  0  0  0  0
  6  7  1  0  0  0  0
  6 22  1  0  0  0  0
  7 10  2  0  0  0  0
  7 12  1  0  0  0  0
  8 11  2  0  0  0  0
  8 23  1  0  0  0  0
  9 24  1  0  0  0  0
  9 25  1  0  0  0  0
  9 26  1  0  0  0  0
 10 11  1  0  0  0  0
 10 27  1  0  0  0  0
 11 28  1  0  0  0  0
 12 14  1  0  0  0  0
 14 15  2  0  0  0  0
 14 16  1  0  0  0  0
 15 17  1  0  0  0  0
 15 29  1  0  0  0  0
 16 18  2  0  0  0  0
 16 30  1  0  0  0  0
 17 19  2  0  0  0  0
 17 31  1  0  0  0  0
 18 19  1  0  0  0  0
 18 32  1  0  0  0  0
 19 33  1  0  0  0  0
M  END
>  <DRUGBANK_ID>
DB01009

>  <SECONDARY_ACCESSION_NUMBERS>
APRD01059; DB05823; DB05335

>  <COMMON_NAME>
Ketoprofen

>  <CAS_NUMBER>
22071-15-4

>  <UNII>
90Y4QC304K

>  <SYNONYMS>
2-(3-Benzoylphenyl)propionic acid; 3-Benzoyl-alpha-methylbenzeneacetic acid; 3-Benzoyl-Î±-methylbenzeneacetic acid; 3-Benzoylhydratropic acid; Ketoprofen; Ketoprofeno; L'acide (benzoyl-3-phenyl)-2-propionique; m-Benzoylhydratropic acid

$$$$
