
 OpenBabel10282417203D

 27 28  0  0  0  0  0  0  0  0999 V2000
    0.9868   -0.7963    0.0109 C   0  0  0  0  0  0  0  0  0  0  0  0
    1.1102    0.6112    0.0053 C   0  0  0  0  0  0  0  0  0  0  0  0
   -0.1760    1.0906   -0.0055 C   0  0  0  0  0  0  0  0  0  0  0  0
   -1.0960    0.0738   -0.0107 O   0  0  0  0  0  0  0  0  0  0  0  0
   -0.3683   -1.1037    0.0030 C   0  0  0  0  0  0  0  0  0  0  0  0
   -0.9941   -2.4171   -0.0016 C   0  0  0  0  0  0  0  0  0  0  0  0
   -2.2683   -2.6368   -0.1392 N   0  0  0  0  0  0  0  0  0  0  0  0
   -2.6843   -3.9603   -0.1046 N   0  0  0  0  0  0  0  0  0  0  0  0
   -3.7998   -4.4039   -0.9019 C   0  0  0  0  0  0  0  0  0  0  0  0
   -3.9031   -5.8570   -0.4734 C   0  0  0  0  0  0  0  0  0  0  0  0
   -4.6914   -6.6564   -0.9588 O   0  0  0  0  0  0  0  0  0  0  0  0
   -2.9857   -6.1017    0.5096 N   0  0  0  0  0  0  0  0  0  0  0  0
   -2.2302   -4.9827    0.7516 C   0  0  0  0  0  0  0  0  0  0  0  0
   -1.3159   -4.9012    1.5645 O   0  0  0  0  0  0  0  0  0  0  0  0
   -2.7155   -7.3977    1.0726 C   0  0  0  0  0  0  0  0  0  0  0  0
   -3.8554   -7.8712    1.7667 O   0  0  0  0  0  0  0  0  0  0  0  0
   -0.6355    2.4494   -0.0193 N   0  3  0  0  0  0  0  0  0  0  0  0
   -1.8521    2.6631   -0.0252 O   0  0  0  0  0  0  0  0  0  0  0  0
    0.2516    3.3180   -0.0262 O   0  5  0  0  0  0  0  0  0  0  0  0
    1.7984   -1.5111    0.0137 H   0  0  0  0  0  0  0  0  0  0  0  0
    2.0121    1.2098    0.0061 H   0  0  0  0  0  0  0  0  0  0  0  0
   -0.2817   -3.2597    0.0580 H   0  0  0  0  0  0  0  0  0  0  0  0
   -4.7075   -3.8511   -0.6556 H   0  0  0  0  0  0  0  0  0  0  0  0
   -3.5351   -4.3414   -1.9599 H   0  0  0  0  0  0  0  0  0  0  0  0
   -2.4831   -8.1066    0.2709 H   0  0  0  0  0  0  0  0  0  0  0  0
   -1.8732   -7.3610    1.7696 H   0  0  0  0  0  0  0  0  0  0  0  0
   -4.0772   -7.2019    2.4322 H   0  0  0  0  0  0  0  0  0  0  0  0
  1  2  1  0  0  0  0
  1  5  2  0  0  0  0
  1 20  1  0  0  0  0
  2  3  2  0  0  0  0
  2 21  1  0  0  0  0
  3  4  1  0  0  0  0
  3 17  1  0  0  0  0
  4  5  1  0  0  0  0
  5  6  1  0  0  0  0
  6  7  2  0  0  0  0
  6 22  1  0  0  0  0
  7  8  1  0  0  0  0
  8  9  1  0  0  0  0
  8 13  1  0  0  0  0
  9 10  1  0  0  0  0
  9 23  1  0  0  0  0
  9 24  1  0  0  0  0
 10 11  2  0  0  0  0
 10 12  1  0  0  0  0
 12 13  1  0  0  0  0
 12 15  1  0  0  0  0
 13 14  2  0  0  0  0
 15 16  1  0  0  0  0
 15 25  1  0  0  0  0
 15 26  1  0  0  0  0
 16 27  1  0  0  0  0
 17 18  2  0  0  0  0
 17 19  1  0  0  0  0
M  CHG  2  17   1  19  -1
M  END
>  <DRUGBANK_ID>
DB13730

>  <COMMON_NAME>
Nifurtoinol

>  <CAS_NUMBER>
1088-92-2

>  <UNII>
980688H13O

>  <SYNONYMS>
Nifurtoinol

$$$$
