
 OpenBabel10282417223D

 45 48  0  0  0  0  0  0  0  0999 V2000
    1.1324    0.0613    0.4110 F   0  0  0  0  0  0  0  0  0  0  0  0
    2.4894    0.0510    0.3652 C   0  0  0  0  0  0  0  0  0  0  0  0
    2.8512    0.2690   -0.9237 F   0  0  0  0  0  0  0  0  0  0  0  0
    2.9915    1.1214    1.1914 O   0  0  0  0  0  0  0  0  0  0  0  0
    3.8195    0.4247    2.0195 C   0  0  0  0  0  0  0  0  0  0  0  0
    4.5205    0.8994    3.1132 C   0  0  0  0  0  0  0  0  0  0  0  0
    5.1868   -0.0313    3.9371 C   0  0  0  0  0  0  0  0  0  0  0  0
    5.2017   -1.4058    3.6173 C   0  0  0  0  0  0  0  0  0  0  0  0
    5.6391   -2.4513    4.6386 C   0  0  0  0  0  0  0  0  0  0  0  0
    4.6002   -3.2143    5.3614 N   0  0  0  0  0  0  0  0  0  0  0  0
    3.7363   -4.0377    4.5118 C   0  0  0  0  0  0  0  0  0  0  0  0
    2.5841   -3.2248    3.8993 C   0  0  0  0  0  0  0  0  0  0  0  0
    1.7328   -2.6174    4.8712 N   0  0  0  0  0  0  0  0  0  0  0  0
    2.5516   -1.6894    5.6887 C   0  0  0  0  0  0  0  0  0  0  0  0
    3.7494   -2.4576    6.3148 C   0  0  0  0  0  0  0  0  0  0  0  0
    0.3603   -2.5491    4.8335 C   0  0  0  0  0  0  0  0  0  0  0  0
   -0.2448   -1.7459    5.5355 O   0  0  0  0  0  0  0  0  0  0  0  0
   -0.3963   -3.3331    3.9769 N   0  0  0  0  0  0  0  0  0  0  0  0
   -0.0287   -4.3120    3.0138 C   0  0  0  0  0  0  0  0  0  0  0  0
    0.8138   -5.3944    3.2947 C   0  0  0  0  0  0  0  0  0  0  0  0
    0.9716   -5.9841    4.9109 Cl  0  0  0  0  0  0  0  0  0  0  0  0
    1.6508   -5.9017    2.2900 C   0  0  0  0  0  0  0  0  0  0  0  0
    1.4818   -5.4220    1.0030 C   0  0  0  0  0  0  0  0  0  0  0  0
    0.4742   -4.5917    0.6597 N   0  0  0  0  0  0  0  0  0  0  0  0
   -0.2795   -4.0720    1.6660 C   0  0  0  0  0  0  0  0  0  0  0  0
    4.6598   -1.8048    2.3808 C   0  0  0  0  0  0  0  0  0  0  0  0
    3.8750   -0.9024    1.6842 C   0  0  0  0  0  0  0  0  0  0  0  0
    2.9687   -1.2484    0.7270 O   0  0  0  0  0  0  0  0  0  0  0  0
    4.5101    1.9513    3.3798 H   0  0  0  0  0  0  0  0  0  0  0  0
    5.6459    0.3092    4.8648 H   0  0  0  0  0  0  0  0  0  0  0  0
    6.2904   -3.1686    4.1204 H   0  0  0  0  0  0  0  0  0  0  0  0
    6.2841   -1.9861    5.3926 H   0  0  0  0  0  0  0  0  0  0  0  0
    4.3021   -4.5773    3.7427 H   0  0  0  0  0  0  0  0  0  0  0  0
    3.3415   -4.8283    5.1602 H   0  0  0  0  0  0  0  0  0  0  0  0
    2.8879   -2.3500    3.3768 H   0  0  0  0  0  0  0  0  0  0  0  0
    2.1525   -3.6965    3.0505 H   0  0  0  0  0  0  0  0  0  0  0  0
    2.9407   -0.9173    5.0142 H   0  0  0  0  0  0  0  0  0  0  0  0
    1.9714   -1.1498    6.4378 H   0  0  0  0  0  0  0  0  0  0  0  0
    3.3054   -3.1958    7.0004 H   0  0  0  0  0  0  0  0  0  0  0  0
    4.3735   -1.8097    6.9360 H   0  0  0  0  0  0  0  0  0  0  0  0
   -1.3447   -2.9782    3.9289 H   0  0  0  0  0  0  0  0  0  0  0  0
    2.4934   -6.5433    2.5278 H   0  0  0  0  0  0  0  0  0  0  0  0
    2.1744   -5.6766    0.2022 H   0  0  0  0  0  0  0  0  0  0  0  0
   -1.0427   -3.3758    1.3307 H   0  0  0  0  0  0  0  0  0  0  0  0
    4.6134   -2.8546    2.1042 H   0  0  0  0  0  0  0  0  0  0  0  0
  1  2  1  0  0  0  0
  2  3  1  0  0  0  0
  2  4  1  0  0  0  0
  2 28  1  0  0  0  0
  4  5  1  0  0  0  0
  5  6  2  0  0  0  0
  5 27  1  0  0  0  0
  6  7  1  0  0  0  0
  6 29  1  0  0  0  0
  7  8  2  0  0  0  0
  7 30  1  0  0  0  0
  8  9  1  0  0  0  0
  8 26  1  0  0  0  0
  9 10  1  0  0  0  0
  9 31  1  0  0  0  0
  9 32  1  0  0  0  0
 10 11  1  0  0  0  0
 10 15  1  0  0  0  0
 11 12  1  0  0  0  0
 11 33  1  0  0  0  0
 11 34  1  0  0  0  0
 12 13  1  0  0  0  0
 12 35  1  0  0  0  0
 12 36  1  0  0  0  0
 13 14  1  0  0  0  0
 13 16  1  0  0  0  0
 14 15  1  0  0  0  0
 14 37  1  0  0  0  0
 14 38  1  0  0  0  0
 15 39  1  0  0  0  0
 15 40  1  0  0  0  0
 16 17  2  0  0  0  0
 16 18  1  0  0  0  0
 18 19  1  0  0  0  0
 18 41  1  0  0  0  0
 19 20  2  0  0  0  0
 19 25  1  0  0  0  0
 20 21  1  0  0  0  0
 20 22  1  0  0  0  0
 22 23  2  0  0  0  0
 22 42  1  0  0  0  0
 23 24  1  0  0  0  0
 23 43  1  0  0  0  0
 24 25  2  0  0  0  0
 25 44  1  0  0  0  0
 26 27  2  0  0  0  0
 26 45  1  0  0  0  0
 27 28  1  0  0  0  0
M  END
>  <DRUGBANK_ID>
DB15173

>  <COMMON_NAME>
JNJ-42165279

>  <CAS_NUMBER>
1346528-50-4

>  <UNII>
AH2E5UQ11Y

$$$$
