1298
 OpenBabel10282417113D

 34 35  0  0  0  0  0  0  0  0999 V2000
    1.0199    0.1745   -0.0764 S   0  0  0  0  0  0  0  0  0  0  0  0
    0.5851   -0.3686   -1.3463 O   0  0  0  0  0  0  0  0  0  0  0  0
    0.5361   -0.4126    1.1591 O   0  0  0  0  0  0  0  0  0  0  0  0
    3.9999    4.2195   -1.6947 O   0  0  0  0  0  0  0  0  0  0  0  0
    3.1546    4.7717    0.3686 N   0  0  0  0  0  0  0  0  0  0  0  0
    0.4796    1.7955   -0.0564 N   0  0  0  0  0  0  0  0  0  0  0  0
    2.1153    3.1428   -1.0408 N   0  0  0  0  0  0  0  0  0  0  0  0
    6.9966    0.0954   -0.4614 N   0  0  0  0  0  0  0  0  0  0  0  0
    2.8008    0.0595   -0.0051 C   0  0  0  0  0  0  0  0  0  0  0  0
    1.2497    2.9736   -0.1054 C   0  0  0  0  0  0  0  0  0  0  0  0
    4.1344    5.8603    0.5227 C   0  0  0  0  0  0  0  0  0  0  0  0
    2.1563    4.6199    1.3150 C   0  0  0  0  0  0  0  0  0  0  0  0
    1.0927    3.8488    1.0704 C   0  0  0  0  0  0  0  0  0  0  0  0
    3.5834    1.1753    0.1898 C   0  0  0  0  0  0  0  0  0  0  0  0
    3.4745   -1.1482   -0.1566 C   0  0  0  0  0  0  0  0  0  0  0  0
    3.1057    4.0802   -0.8537 C   0  0  0  0  0  0  0  0  0  0  0  0
    4.9190    1.2230   -0.1803 C   0  0  0  0  0  0  0  0  0  0  0  0
    4.8875   -1.1448   -0.2327 C   0  0  0  0  0  0  0  0  0  0  0  0
    5.6025    0.0472   -0.3979 C   0  0  0  0  0  0  0  0  0  0  0  0
    3.4381    7.2175    0.5157 C   0  0  0  0  0  0  0  0  0  0  0  0
   -0.4937    1.8340    0.2349 H   0  0  0  0  0  0  0  0  0  0  0  0
    7.3526    0.9525   -0.8826 H   0  0  0  0  0  0  0  0  0  0  0  0
    7.4403   -0.7320   -0.8390 H   0  0  0  0  0  0  0  0  0  0  0  0
    4.7117    5.7214    1.4452 H   0  0  0  0  0  0  0  0  0  0  0  0
    4.8538    5.8475   -0.3045 H   0  0  0  0  0  0  0  0  0  0  0  0
    2.2440    5.2088    2.2259 H   0  0  0  0  0  0  0  0  0  0  0  0
    0.2227    3.8139    1.7075 H   0  0  0  0  0  0  0  0  0  0  0  0
    3.1856    2.0488    0.6575 H   0  0  0  0  0  0  0  0  0  0  0  0
    2.9333   -2.0910   -0.1606 H   0  0  0  0  0  0  0  0  0  0  0  0
    5.4160    2.1879   -0.2372 H   0  0  0  0  0  0  0  0  0  0  0  0
    5.4271   -2.0848   -0.1755 H   0  0  0  0  0  0  0  0  0  0  0  0
    2.7641    7.3194    1.3726 H   0  0  0  0  0  0  0  0  0  0  0  0
    4.1636    8.0333    0.5630 H   0  0  0  0  0  0  0  0  0  0  0  0
    2.8383    7.3356   -0.3932 H   0  0  0  0  0  0  0  0  0  0  0  0
  1  2  2  0  0  0  0
  1  3  2  0  0  0  0
  1  6  1  0  0  0  0
  1  9  1  0  0  0  0
  4 16  2  0  0  0  0
  5 11  1  0  0  0  0
  5 12  1  0  0  0  0
  5 16  1  0  0  0  0
  6 10  1  0  0  0  0
  6 21  1  0  0  0  0
  7 10  2  0  0  0  0
  7 16  1  0  0  0  0
  8 19  1  0  0  0  0
  8 22  1  0  0  0  0
  8 23  1  0  0  0  0
  9 14  2  0  0  0  0
  9 15  1  0  0  0  0
 10 13  1  0  0  0  0
 11 20  1  0  0  0  0
 11 24  1  0  0  0  0
 11 25  1  0  0  0  0
 12 13  2  0  0  0  0
 12 26  1  0  0  0  0
 13 27  1  0  0  0  0
 14 17  1  0  0  0  0
 14 28  1  0  0  0  0
 15 18  2  0  0  0  0
 15 29  1  0  0  0  0
 17 19  2  0  0  0  0
 17 30  1  0  0  0  0
 18 19  1  0  0  0  0
 18 31  1  0  0  0  0
 20 32  1  0  0  0  0
 20 33  1  0  0  0  0
 20 34  1  0  0  0  0
M  END
>  <DRUGBANK_ID>
DB01298

>  <COMMON_NAME>
Sulfacytine

>  <CAS_NUMBER>
17784-12-2

>  <UNII>
T795873AJP

>  <SYNONYMS>
1-ethyl N4-sulfanilylcytosin; 1-ethyl-N-sulfanilylcytosine; Sulfacitina; Sulfacitine; Sulfacitinum; Sulfacytine

$$$$
