GT9
 OpenBabel10282417163D

 41 40  0  0  0  0  0  0  0  0999 V2000
    0.5018   -0.5236    0.2671 N   0  0  0  0  0  0  0  0  0  0  0  0
    0.1980   -0.4447    1.6795 C   0  0  1  0  0  0  0  0  0  0  0  0
    0.8310    0.6933    2.5095 C   0  0  0  0  0  0  0  0  0  0  0  0
    0.5121    2.5007    2.1559 S   0  0  0  0  0  0  0  0  0  0  0  0
   -1.3032   -0.4109    1.6799 C   0  0  0  0  0  0  0  0  0  0  0  0
   -2.0426   -1.3795    1.8776 O   0  0  0  0  0  0  0  0  0  0  0  0
   -1.7785    0.7482    1.1784 O   0  0  0  0  0  0  0  0  0  0  0  0
    1.1450    2.8817    0.4681 C   0  0  0  0  0  0  0  0  0  0  0  0
    2.6748    2.9317    0.3740 C   0  0  0  0  0  0  0  0  0  0  0  0
    3.3537    1.5890    0.5533 C   0  0  0  0  0  0  0  0  0  0  0  0
    2.9194    0.6552   -0.5544 C   0  0  0  0  0  0  0  0  0  0  0  0
    3.4102    0.9177   -1.9369 C   0  0  0  0  0  0  0  0  0  0  0  0
    4.9063    0.7965   -1.8741 C   0  0  0  0  0  0  0  0  0  0  0  0
    5.3202   -0.6300   -1.4600 C   0  0  0  0  0  0  0  0  0  0  0  0
    4.7496   -1.6880   -2.4101 C   0  0  0  0  0  0  0  0  0  0  0  0
    5.1724   -1.3634   -3.8314 C   0  0  0  0  0  0  0  0  0  0  0  0
    0.5662   -1.3927    2.0881 H   0  0  0  0  0  0  0  0  0  0  0  0
    0.2822    0.3962   -0.1154 H   0  0  0  0  0  0  0  0  0  0  0  0
    1.4828   -0.7285    0.2122 H   0  0  0  0  0  0  0  0  0  0  0  0
    0.4505    0.5644    3.5299 H   0  0  0  0  0  0  0  0  0  0  0  0
    1.8969    0.5126    2.6639 H   0  0  0  0  0  0  0  0  0  0  0  0
   -2.7394    0.6335    1.0764 H   0  0  0  0  0  0  0  0  0  0  0  0
    0.6671    2.2851   -0.3146 H   0  0  0  0  0  0  0  0  0  0  0  0
    0.7859    3.8920    0.2332 H   0  0  0  0  0  0  0  0  0  0  0  0
    2.9578    3.3262   -0.6099 H   0  0  0  0  0  0  0  0  0  0  0  0
    3.0657    3.6371    1.1099 H   0  0  0  0  0  0  0  0  0  0  0  0
    4.4380    1.6779    0.6370 H   0  0  0  0  0  0  0  0  0  0  0  0
    3.0979    1.1673    1.5129 H   0  0  0  0  0  0  0  0  0  0  0  0
    3.1229   -0.3787   -0.2579 H   0  0  0  0  0  0  0  0  0  0  0  0
    1.8777    0.7926   -0.7509 H   0  0  0  0  0  0  0  0  0  0  0  0
    2.9291    0.1923   -2.6096 H   0  0  0  0  0  0  0  0  0  0  0  0
    3.0545    1.8912   -2.2832 H   0  0  0  0  0  0  0  0  0  0  0  0
    5.3173    1.0975   -2.8353 H   0  0  0  0  0  0  0  0  0  0  0  0
    5.3037    1.5176   -1.1570 H   0  0  0  0  0  0  0  0  0  0  0  0
    6.4099   -0.6775   -1.4327 H   0  0  0  0  0  0  0  0  0  0  0  0
    5.0113   -0.8773   -0.4344 H   0  0  0  0  0  0  0  0  0  0  0  0
    5.1062   -2.6796   -2.1162 H   0  0  0  0  0  0  0  0  0  0  0  0
    3.6539   -1.7457   -2.3499 H   0  0  0  0  0  0  0  0  0  0  0  0
    6.2636   -1.3047   -3.8785 H   0  0  0  0  0  0  0  0  0  0  0  0
    4.8112   -2.1136   -4.5328 H   0  0  0  0  0  0  0  0  0  0  0  0
    4.7706   -0.4010   -4.1660 H   0  0  0  0  0  0  0  0  0  0  0  0
  1 18  1  0  0  0  0
  1 19  1  0  0  0  0
  2  1  1  0  0  0  0
  2  3  1  0  0  0  0
  2  5  1  0  0  0  0
  2 17  1  1  0  0  0
  3  4  1  0  0  0  0
  3 20  1  0  0  0  0
  3 21  1  0  0  0  0
  4  8  1  0  0  0  0
  5  6  2  0  0  0  0
  5  7  1  0  0  0  0
  7 22  1  0  0  0  0
  8  9  1  0  0  0  0
  8 23  1  0  0  0  0
  8 24  1  0  0  0  0
  9 10  1  0  0  0  0
  9 25  1  0  0  0  0
  9 26  1  0  0  0  0
 10 11  1  0  0  0  0
 10 27  1  0  0  0  0
 10 28  1  0  0  0  0
 11 12  1  0  0  0  0
 11 29  1  0  0  0  0
 11 30  1  0  0  0  0
 12 13  1  0  0  0  0
 12 31  1  0  0  0  0
 12 32  1  0  0  0  0
 13 14  1  0  0  0  0
 13 33  1  0  0  0  0
 13 34  1  0  0  0  0
 14 15  1  0  0  0  0
 14 35  1  0  0  0  0
 14 36  1  0  0  0  0
 15 16  1  0  0  0  0
 15 37  1  0  0  0  0
 15 38  1  0  0  0  0
 16 39  1  0  0  0  0
 16 40  1  0  0  0  0
 16 41  1  0  0  0  0
M  END
>  <DRUGBANK_ID>
DB07849

>  <COMMON_NAME>
S-NONYL-CYSTEINE

$$$$
