
 OpenBabel10282417123D

 35 38  0  0  1  0  0  0  0  0999 V2000
    0.1682   -0.6081   -0.0754 C   0  0  0  0  0  0  0  0  0  0  0  0
    1.4603   -1.0575   -0.1119 N   0  0  0  0  0  0  0  0  0  0  0  0
    0.2565    0.7554   -0.0416 C   0  0  0  0  0  0  0  0  0  0  0  0
   -0.9381   -1.3945   -0.0426 N   0  0  0  0  0  0  0  0  0  0  0  0
    1.7898   -2.4435    0.1003 C   0  0  1  0  0  0  0  0  0  0  0  0
    2.2676    0.0515   -0.0562 C   0  0  0  0  0  0  0  0  0  0  0  0
    1.5653    1.1730   -0.0379 N   0  0  0  0  0  0  0  0  0  0  0  0
   -0.9876    1.5137   -0.0046 C   0  0  0  0  0  0  0  0  0  0  0  0
   -2.0530   -0.7188   -0.0082 C   0  0  0  0  0  0  0  0  0  0  0  0
    2.1660   -3.3899   -1.0864 C   0  0  1  0  0  0  0  0  0  0  0  0
    2.8206   -2.5347    1.1256 O   0  0  0  0  0  0  0  0  0  0  0  0
   -2.1017    0.6577   -0.0006 N   0  0  0  0  0  0  0  0  0  0  0  0
   -1.0974    2.7102    0.0129 O   0  0  0  0  0  0  0  0  0  0  0  0
   -3.2406   -1.3663    0.0222 N   0  0  0  0  0  0  0  0  0  0  0  0
    3.4879   -3.9755   -0.5992 C   0  0  1  0  0  0  0  0  0  0  0  0
    1.2351   -4.4576   -1.2283 O   0  0  0  0  0  0  0  0  0  0  0  0
    3.3971   -3.8144    0.9446 C   0  0  1  0  0  0  0  0  0  0  0  0
    3.9349   -5.3486   -0.9040 O   0  0  0  0  0  0  0  0  0  0  0  0
    4.7074   -4.1135    1.7211 C   0  0  0  0  0  0  0  0  0  0  0  0
    5.3228   -5.8525   -0.1572 P   0  0  3  0  0  0  0  0  0  0  0  0
    5.0995   -5.4791    1.4091 O   0  0  0  0  0  0  0  0  0  0  0  0
    6.1016   -4.5270   -0.5263 O   0  0  0  0  0  0  0  0  0  0  0  0
    6.2993   -6.8793   -0.6093 O   0  0  0  0  0  0  0  0  0  0  0  0
    0.8918   -2.8867    0.5388 H   0  0  0  0  0  0  0  0  0  0  0  0
    3.3493    0.0048    0.0020 H   0  0  0  0  0  0  0  0  0  0  0  0
    2.2413   -2.8655   -2.0531 H   0  0  0  0  0  0  0  0  0  0  0  0
   -2.9857    1.1330    0.0068 H   0  0  0  0  0  0  0  0  0  0  0  0
   -3.2424   -2.3792    0.0017 H   0  0  0  0  0  0  0  0  0  0  0  0
   -4.1323   -0.8966    0.0079 H   0  0  0  0  0  0  0  0  0  0  0  0
    4.1940   -3.2551   -1.0642 H   0  0  0  0  0  0  0  0  0  0  0  0
    1.1121   -4.8614   -0.3521 H   0  0  0  0  0  0  0  0  0  0  0  0
    2.6916   -4.5653    1.3098 H   0  0  0  0  0  0  0  0  0  0  0  0
    4.6373   -3.9751    2.8061 H   0  0  0  0  0  0  0  0  0  0  0  0
    5.5302   -3.4308    1.4426 H   0  0  0  0  0  0  0  0  0  0  0  0
    5.3333   -4.0928   -0.2051 H   0  0  0  0  0  0  0  0  0  0  0  0
  1  2  1  0  0  0  0
  1  3  2  0  0  0  0
  1  4  1  0  0  0  0
  2  6  1  0  0  0  0
  3  7  1  0  0  0  0
  3  8  1  0  0  0  0
  4  9  2  0  0  0  0
  5  2  1  0  0  0  0
  5 10  1  0  0  0  0
  5 11  1  0  0  0  0
  5 24  1  1  0  0  0
  6  7  2  0  0  0  0
  6 25  1  0  0  0  0
  8 12  1  0  0  0  0
  8 13  2  0  0  0  0
  9 14  1  0  0  0  0
  9 12  1  0  0  0  0
 10 15  1  0  0  0  0
 10 16  1  0  0  0  0
 10 26  1  6  0  0  0
 11 17  1  0  0  0  0
 12 27  1  0  0  0  0
 14 28  1  0  0  0  0
 14 29  1  0  0  0  0
 15 18  1  0  0  0  0
 15 17  1  0  0  0  0
 15 30  1  6  0  0  0
 16 31  1  0  0  0  0
 17 19  1  0  0  0  0
 17 32  1  1  0  0  0
 18 20  1  0  0  0  0
 19 21  1  0  0  0  0
 19 33  1  0  0  0  0
 19 34  1  0  0  0  0
 20 22  1  0  0  0  0
 20 23  2  0  0  0  0
 20 21  1  0  0  0  0
 22 35  1  0  0  0  0
M  END
>  <DRUGBANK_ID>
DB02315

>  <SECONDARY_ACCESSION_NUMBERS>
EXPT02518; DB04536

>  <COMMON_NAME>
Cyclic GMP

>  <CAS_NUMBER>
7665-99-8

>  <UNII>
H2D2X058MU

>  <SYNONYMS>
3',5'-cyclic GMP; cGMP; Cyclic GMP; Cyclic guanosine monophosphate; Guanosine 3',5'-cyclic monophosphate; Guanosine 3',5'-cyclic phosphate; Guanosine cyclic monophosphate

$$$$
