644
 OpenBabel10282417103D

160165  0  0  1  0  0  0  0  0999 V2000
    0.8735   -0.1460   -0.8004 O   0  0  0  0  0  0  0  0  0  0  0  0
    2.8655    0.4358   -4.1226 O   0  0  0  0  0  0  0  0  0  0  0  0
    1.7377    4.4127    0.6055 O   0  0  0  0  0  0  0  0  0  0  0  0
    7.9067   -2.2507   -3.2337 O   0  0  0  0  0  0  0  0  0  0  0  0
    0.2298   -0.4637    3.6461 O   0  0  0  0  0  0  0  0  0  0  0  0
    3.0624    1.4184   10.0858 O   0  0  0  0  0  0  0  0  0  0  0  0
    7.3221   -2.4043    9.4746 O   0  0  0  0  0  0  0  0  0  0  0  0
    6.2477    4.1671    6.8562 O   0  0  0  0  0  0  0  0  0  0  0  0
    4.0139   -1.6002    6.0500 O   0  0  0  0  0  0  0  0  0  0  0  0
    5.0853    2.4692    2.7014 O   0  0  0  0  0  0  0  0  0  0  0  0
    0.8300    3.1438    5.9753 O   0  0  0  0  0  0  0  0  0  0  0  0
    3.0009    4.0084    7.9058 O   0  0  0  0  0  0  0  0  0  0  0  0
   10.3980   -1.1934    5.1736 O   0  0  0  0  0  0  0  0  0  0  0  0
    2.9460   -1.1024   -1.1350 N   0  0  0  0  0  0  0  0  0  0  0  0
    2.3002    2.2719    0.1965 N   0  0  0  0  0  0  0  0  0  0  0  0
    4.8750   -0.2177   -3.5041 N   0  0  0  0  0  0  0  0  0  0  0  0
    0.6022    1.7057    2.9911 N   0  0  0  0  0  0  0  0  0  0  0  0
    5.7738   -0.4951    2.7617 N   0  0  0  0  0  0  0  0  0  0  0  0
    6.0394   -2.8563   -4.3270 N   0  0  0  0  0  0  0  0  0  0  0  0
    6.1485   -0.8925   10.8320 N   0  0  0  0  0  0  0  0  0  0  0  0
    4.3892    3.0014    9.8499 N   0  0  0  0  0  0  0  0  0  0  0  0
    3.6756    0.8167    3.4108 N   0  0  0  0  0  0  0  0  0  0  0  0
    6.0147    1.9569    7.2772 N   0  0  0  0  0  0  0  0  0  0  0  0
    2.7843    0.2040    6.7055 N   0  0  0  0  0  0  0  0  0  0  0  0
    2.9094    2.8397    5.2411 N   0  0  0  0  0  0  0  0  0  0  0  0
    5.5936    1.0803    1.1135 N   0  0  0  0  0  0  0  0  0  0  0  0
    7.2322    1.4474    2.6022 N   0  0  0  0  0  0  0  0  0  0  0  0
    4.4921   -3.2823    9.5912 N   0  0  0  0  0  0  0  0  0  0  0  0
    9.1601    2.7796    9.1917 N   0  0  0  0  0  0  0  0  0  0  0  0
    9.7619    4.8879    8.9269 N   0  0  0  0  0  0  0  0  0  0  0  0
    2.7199   -1.3533   -2.4973 C   0  0  3  0  0  0  0  0  0  0  0  0
    2.9851   -2.8346   -2.5541 C   0  0  0  0  0  0  0  0  0  0  0  0
    4.1550   -3.0935   -1.6243 C   0  0  0  0  0  0  0  0  0  0  0  0
    4.0253   -1.9587   -0.6229 C   0  0  0  0  0  0  0  0  0  0  0  0
    2.0903   -0.1548   -0.6316 C   0  0  0  0  0  0  0  0  0  0  0  0
    2.7500    0.8006    0.2527 C   0  0  3  0  0  0  0  0  0  0  0  0
    3.5144   -0.3408   -3.4095 C   0  0  0  0  0  0  0  0  0  0  0  0
    2.3846    0.0212    1.4585 C   0  0  0  0  0  0  0  0  0  0  0  0
    3.1273   -1.2830    2.0349 C   0  0  0  0  0  0  0  0  0  0  0  0
    1.2832    3.0494    2.4676 C   0  0  3  0  0  0  0  0  0  0  0  0
    1.6187    3.2279    0.9716 C   0  0  0  0  0  0  0  0  0  0  0  0
    2.7448    3.2435    2.8027 C   0  0  0  0  0  0  0  0  0  0  0  0
    4.7722   -1.4556    2.1502 C   0  0  0  0  0  0  0  0  0  0  0  0
    5.9606   -0.8756   -2.8220 C   0  0  0  0  0  0  0  0  0  0  0  0
    3.9210    4.5049    3.1839 C   0  0  0  0  0  0  0  0  0  0  0  0
    3.3942    5.4994    4.1772 C   0  0  0  0  0  0  0  0  0  0  0  0
    5.6466    4.4853    3.6042 C   0  0  0  0  0  0  0  0  0  0  0  0
    6.7412   -1.9929   -3.5232 C   0  0  0  0  0  0  0  0  0  0  0  0
    1.0015    0.5014    3.5860 C   0  0  0  0  0  0  0  0  0  0  0  0
    5.7351    0.5840   10.8109 C   0  0  3  0  0  0  0  0  0  0  0  0
    7.0460    0.7758   10.0890 C   0  0  0  0  0  0  0  0  0  0  0  0
    2.4569    0.3012    4.0963 C   0  0  0  0  0  0  0  0  0  0  0  0
    8.0961   -0.2558    9.9209 C   0  0  0  0  0  0  0  0  0  0  0  0
    5.5023    3.6357    9.0938 C   0  0  3  0  0  0  0  0  0  0  0  0
    5.4091    0.2158    7.3774 C   0  0  3  0  0  0  0  0  0  0  0  0
    6.2858    0.5336    2.1512 C   0  0  0  0  0  0  0  0  0  0  0  0
    4.2660    1.7190   10.3020 C   0  0  0  0  0  0  0  0  0  0  0  0
    4.5765    0.0690    8.5240 C   0  0  0  0  0  0  0  0  0  0  0  0
    7.1986   -1.4049   10.0205 C   0  0  0  0  0  0  0  0  0  0  0  0
    6.7386    3.1782    9.7002 C   0  0  0  0  0  0  0  0  0  0  0  0
    5.8799    3.2932    7.6533 C   0  0  0  0  0  0  0  0  0  0  0  0
    4.1328   -1.1780    9.1029 C   0  0  0  0  0  0  0  0  0  0  0  0
    4.3885    2.4192    4.8937 C   0  0  3  0  0  0  0  0  0  0  0  0
    4.0148   -0.4938    6.5994 C   0  0  0  0  0  0  0  0  0  0  0  0
    4.4382    1.9114    3.5914 C   0  0  0  0  0  0  0  0  0  0  0  0
    3.5416   -1.3676   10.4387 C   0  0  0  0  0  0  0  0  0  0  0  0
    2.3207    1.6359    7.1305 C   0  0  3  0  0  0  0  0  0  0  0  0
    8.0804    3.5956    9.4630 C   0  0  0  0  0  0  0  0  0  0  0  0
    5.2082    1.1524    5.1659 C   0  0  0  0  0  0  0  0  0  0  0  0
    3.8988   -2.6924   10.7206 C   0  0  0  0  0  0  0  0  0  0  0  0
    4.6106   -2.3657    8.5943 C   0  0  0  0  0  0  0  0  0  0  0  0
    1.8766    2.5041    6.0480 C   0  0  0  0  0  0  0  0  0  0  0  0
    3.3372    2.6990    7.4882 C   0  0  0  0  0  0  0  0  0  0  0  0
    3.2954   -0.5087   11.6095 C   0  0  0  0  0  0  0  0  0  0  0  0
    6.6884    0.6003    5.2108 C   0  0  0  0  0  0  0  0  0  0  0  0
    3.9697   -3.0772   12.0676 C   0  0  0  0  0  0  0  0  0  0  0  0
    8.4437    4.8575    9.1988 C   0  0  0  0  0  0  0  0  0  0  0  0
    3.3915   -0.8707   12.9237 C   0  0  0  0  0  0  0  0  0  0  0  0
    3.6520   -2.1851   13.1252 C   0  0  0  0  0  0  0  0  0  0  0  0
   10.1807    3.6389    8.9634 C   0  0  0  0  0  0  0  0  0  0  0  0
    6.8248   -0.8230    5.2088 C   0  0  0  0  0  0  0  0  0  0  0  0
    7.8713    1.3520    5.4170 C   0  0  0  0  0  0  0  0  0  0  0  0
    8.0465   -1.4362    5.3264 C   0  0  0  0  0  0  0  0  0  0  0  0
    9.1069    0.7431    5.3879 C   0  0  0  0  0  0  0  0  0  0  0  0
    9.1731   -0.6350    5.3153 C   0  0  0  0  0  0  0  0  0  0  0  0
    3.4205    4.6154    7.2439 H   0  0  0  0  0  0  0  0  0  0  0  0
   10.2353   -2.1442    5.0651 H   0  0  0  0  0  0  0  0  0  0  0  0
    2.7981    2.7766   -0.5315 H   0  0  0  0  0  0  0  0  0  0  0  0
    5.1719    0.4789   -4.1748 H   0  0  0  0  0  0  0  0  0  0  0  0
   -0.3089    1.5514    2.5751 H   0  0  0  0  0  0  0  0  0  0  0  0
    5.0310   -2.9178   -4.3431 H   0  0  0  0  0  0  0  0  0  0  0  0
    6.5357   -3.6746   -4.6606 H   0  0  0  0  0  0  0  0  0  0  0  0
    5.5058   -1.5847   10.5819 H   0  0  0  0  0  0  0  0  0  0  0  0
    3.4449    3.2751    9.4999 H   0  0  0  0  0  0  0  0  0  0  0  0
    4.2371    0.1869    2.8898 H   0  0  0  0  0  0  0  0  0  0  0  0
    6.3700    2.2295    6.3763 H   0  0  0  0  0  0  0  0  0  0  0  0
    2.0258   -0.4093    6.4220 H   0  0  0  0  0  0  0  0  0  0  0  0
    2.5309    3.6720    4.8191 H   0  0  0  0  0  0  0  0  0  0  0  0
    5.6316    2.1078    1.1821 H   0  0  0  0  0  0  0  0  0  0  0  0
    4.6362    1.0467    1.4451 H   0  0  0  0  0  0  0  0  0  0  0  0
    7.8293    1.1434    3.3551 H   0  0  0  0  0  0  0  0  0  0  0  0
    6.8416    2.3331    2.9627 H   0  0  0  0  0  0  0  0  0  0  0  0
    5.1916   -4.0102    9.6203 H   0  0  0  0  0  0  0  0  0  0  0  0
    9.2245    1.7654    9.0974 H   0  0  0  0  0  0  0  0  0  0  0  0
    1.6612   -1.1452   -2.6872 H   0  0  0  0  0  0  0  0  0  0  0  0
    2.1299   -3.3663   -2.1179 H   0  0  0  0  0  0  0  0  0  0  0  0
    3.1398   -3.1357   -3.5786 H   0  0  0  0  0  0  0  0  0  0  0  0
    4.2171   -4.0713   -1.1405 H   0  0  0  0  0  0  0  0  0  0  0  0
    5.0762   -3.1048   -2.1778 H   0  0  0  0  0  0  0  0  0  0  0  0
    3.8465   -2.4866    0.2965 H   0  0  0  0  0  0  0  0  0  0  0  0
    4.9156   -1.3379   -0.4828 H   0  0  0  0  0  0  0  0  0  0  0  0
    3.7896    0.7860   -0.0500 H   0  0  0  0  0  0  0  0  0  0  0  0
    2.4281    0.8649    2.0661 H   0  0  0  0  0  0  0  0  0  0  0  0
    1.2952   -0.1325    1.4645 H   0  0  0  0  0  0  0  0  0  0  0  0
    2.7233   -1.6280    2.9928 H   0  0  0  0  0  0  0  0  0  0  0  0
    2.6342   -2.0946    1.4913 H   0  0  0  0  0  0  0  0  0  0  0  0
    0.7730    3.8385    3.0280 H   0  0  0  0  0  0  0  0  0  0  0  0
    2.5550    2.5144    3.5256 H   0  0  0  0  0  0  0  0  0  0  0  0
    3.2631    2.6708    2.0564 H   0  0  0  0  0  0  0  0  0  0  0  0
    4.9663   -2.4402    2.5919 H   0  0  0  0  0  0  0  0  0  0  0  0
    5.1735   -1.4122    1.1815 H   0  0  0  0  0  0  0  0  0  0  0  0
    6.5835   -0.2148   -2.2087 H   0  0  0  0  0  0  0  0  0  0  0  0
    5.4565   -1.3777   -2.0687 H   0  0  0  0  0  0  0  0  0  0  0  0
    4.0478    4.8522    2.1626 H   0  0  0  0  0  0  0  0  0  0  0  0
    3.3940    5.1531    5.2169 H   0  0  0  0  0  0  0  0  0  0  0  0
    4.0933    6.3281    4.2190 H   0  0  0  0  0  0  0  0  0  0  0  0
    2.3810    5.7601    3.9003 H   0  0  0  0  0  0  0  0  0  0  0  0
    6.2229    4.2952    2.7019 H   0  0  0  0  0  0  0  0  0  0  0  0
    6.0202    5.4180    4.0353 H   0  0  0  0  0  0  0  0  0  0  0  0
    6.1151    3.7651    4.3067 H   0  0  0  0  0  0  0  0  0  0  0  0
    5.7696    0.9225   11.8343 H   0  0  0  0  0  0  0  0  0  0  0  0
    7.5725    1.4859   10.6819 H   0  0  0  0  0  0  0  0  0  0  0  0
    6.8748    0.8362    9.0252 H   0  0  0  0  0  0  0  0  0  0  0  0
    2.3996    0.8876    4.9284 H   0  0  0  0  0  0  0  0  0  0  0  0
    2.6411   -0.7065    4.4713 H   0  0  0  0  0  0  0  0  0  0  0  0
    8.7684   -0.2059   10.7514 H   0  0  0  0  0  0  0  0  0  0  0  0
    8.5348   -0.1915    8.9173 H   0  0  0  0  0  0  0  0  0  0  0  0
    5.3073    4.6996    9.1409 H   0  0  0  0  0  0  0  0  0  0  0  0
    6.3311   -0.3871    7.4290 H   0  0  0  0  0  0  0  0  0  0  0  0
    5.1461    0.8008    8.9622 H   0  0  0  0  0  0  0  0  0  0  0  0
    3.6598    0.5504    8.4041 H   0  0  0  0  0  0  0  0  0  0  0  0
    6.4926    2.9211   10.7143 H   0  0  0  0  0  0  0  0  0  0  0  0
    6.9562    2.3907    9.0241 H   0  0  0  0  0  0  0  0  0  0  0  0
    4.8677    3.3086    5.2174 H   0  0  0  0  0  0  0  0  0  0  0  0
    1.5790    1.5317    7.9043 H   0  0  0  0  0  0  0  0  0  0  0  0
    4.7225    1.2767    6.0753 H   0  0  0  0  0  0  0  0  0  0  0  0
    4.7495    0.2260    4.8760 H   0  0  0  0  0  0  0  0  0  0  0  0
    5.3185   -2.5216    7.7696 H   0  0  0  0  0  0  0  0  0  0  0  0
    4.0587    2.1955    8.0299 H   0  0  0  0  0  0  0  0  0  0  0  0
    4.0519    2.9959    6.7713 H   0  0  0  0  0  0  0  0  0  0  0  0
    3.2743    0.5730   11.7040 H   0  0  0  0  0  0  0  0  0  0  0  0
    4.3557   -4.0516   12.3133 H   0  0  0  0  0  0  0  0  0  0  0  0
    7.7055    5.6436    9.1674 H   0  0  0  0  0  0  0  0  0  0  0  0
    3.2985   -0.1053   13.7029 H   0  0  0  0  0  0  0  0  0  0  0  0
    3.5958   -2.5242   14.1455 H   0  0  0  0  0  0  0  0  0  0  0  0
   11.1851    3.2826    8.8095 H   0  0  0  0  0  0  0  0  0  0  0  0
    5.9740   -1.5034    5.1308 H   0  0  0  0  0  0  0  0  0  0  0  0
    7.9092    2.4343    5.5291 H   0  0  0  0  0  0  0  0  0  0  0  0
    8.0653   -2.5202    5.3643 H   0  0  0  0  0  0  0  0  0  0  0  0
    9.9862    1.3761    5.3316 H   0  0  0  0  0  0  0  0  0  0  0  0
  1 35  2  0  0  0  0
  2 37  2  0  0  0  0
  3 41  2  0  0  0  0
  4 48  2  0  0  0  0
  5 49  2  0  0  0  0
  6 57  2  0  0  0  0
  7 59  2  0  0  0  0
  8 61  2  0  0  0  0
  9 64  2  0  0  0  0
 10 65  2  0  0  0  0
 11 72  2  0  0  0  0
 12 73  1  0  0  0  0
 12 86  1  0  0  0  0
 13 85  1  0  0  0  0
 13 87  1  0  0  0  0
 14 31  1  0  0  0  0
 14 34  1  0  0  0  0
 14 35  1  0  0  0  0
 15 36  1  0  0  0  0
 15 41  1  0  0  0  0
 15 88  1  0  0  0  0
 16 37  1  0  0  0  0
 16 44  1  0  0  0  0
 16 89  1  0  0  0  0
 17 40  1  0  0  0  0
 17 49  1  0  0  0  0
 17 90  1  0  0  0  0
 18 43  1  0  0  0  0
 18 56  2  0  0  0  0
 19 48  1  0  0  0  0
 19 91  1  0  0  0  0
 19 92  1  0  0  0  0
 20 50  1  0  0  0  0
 20 59  1  0  0  0  0
 20 93  1  0  0  0  0
 21 54  1  0  0  0  0
 21 57  1  0  0  0  0
 21 94  1  0  0  0  0
 22 52  1  0  0  0  0
 22 65  1  0  0  0  0
 22 95  1  0  0  0  0
 23 55  1  0  0  0  0
 23 61  1  0  0  0  0
 23 96  1  0  0  0  0
 24 64  1  0  0  0  0
 24 67  1  0  0  0  0
 24 97  1  0  0  0  0
 25 63  1  0  0  0  0
 25 72  1  0  0  0  0
 25 98  1  0  0  0  0
 26 56  1  0  0  0  0
 26 99  1  0  0  0  0
 26100  1  0  0  0  0
 27 56  1  0  0  0  0
 27101  1  0  0  0  0
 27102  1  0  0  0  0
 28 70  1  0  0  0  0
 28 71  1  0  0  0  0
 28103  1  0  0  0  0
 29 68  1  0  0  0  0
 29 80  1  0  0  0  0
 29104  1  0  0  0  0
 30 77  1  0  0  0  0
 30 80  2  0  0  0  0
 31 32  1  0  0  0  0
 31 37  1  0  0  0  0
 31105  1  0  0  0  0
 32 33  1  0  0  0  0
 32106  1  0  0  0  0
 32107  1  0  0  0  0
 33 34  1  0  0  0  0
 33108  1  0  0  0  0
 33109  1  0  0  0  0
 34110  1  0  0  0  0
 34111  1  0  0  0  0
 35 36  1  0  0  0  0
 36 38  1  0  0  0  0
 36112  1  0  0  0  0
 38 39  1  0  0  0  0
 38113  1  0  0  0  0
 38114  1  0  0  0  0
 39 43  1  0  0  0  0
 39115  1  0  0  0  0
 39116  1  0  0  0  0
 40 41  1  0  0  0  0
 40 42  1  0  0  0  0
 40117  1  0  0  0  0
 42 45  1  0  0  0  0
 42118  1  0  0  0  0
 42119  1  0  0  0  0
 43120  1  0  0  0  0
 43121  1  0  0  0  0
 44 48  1  0  0  0  0
 44122  1  0  0  0  0
 44123  1  0  0  0  0
 45 46  1  0  0  0  0
 45 47  1  0  0  0  0
 45124  1  0  0  0  0
 46125  1  0  0  0  0
 46126  1  0  0  0  0
 46127  1  0  0  0  0
 47128  1  0  0  0  0
 47129  1  0  0  0  0
 47130  1  0  0  0  0
 49 52  1  0  0  0  0
 50 51  1  0  0  0  0
 50 57  1  0  0  0  0
 50131  1  0  0  0  0
 51 53  1  0  0  0  0
 51132  1  0  0  0  0
 51133  1  0  0  0  0
 52134  1  0  0  0  0
 52135  1  0  0  0  0
 53 59  1  0  0  0  0
 53136  1  0  0  0  0
 53137  1  0  0  0  0
 54 60  1  0  0  0  0
 54 61  1  0  0  0  0
 54138  1  0  0  0  0
 55 58  1  0  0  0  0
 55 64  1  0  0  0  0
 55139  1  0  0  0  0
 58 62  1  0  0  0  0
 58140  1  0  0  0  0
 58141  1  0  0  0  0
 60 68  1  0  0  0  0
 60142  1  0  0  0  0
 60143  1  0  0  0  0
 62 66  1  0  0  0  0
 62 71  2  0  0  0  0
 63 65  1  0  0  0  0
 63 69  1  0  0  0  0
 63144  1  0  0  0  0
 66 70  1  0  0  0  0
 66 74  2  0  0  0  0
 67 72  1  0  0  0  0
 67 73  1  0  0  0  0
 67145  1  0  0  0  0
 68 77  2  0  0  0  0
 69 75  1  0  0  0  0
 69146  1  0  0  0  0
 69147  1  0  0  0  0
 70 76  2  0  0  0  0
 71148  1  0  0  0  0
 73149  1  0  0  0  0
 73150  1  0  0  0  0
 74 78  1  0  0  0  0
 74151  1  0  0  0  0
 75 81  2  0  0  0  0
 75 82  1  0  0  0  0
 76 79  1  0  0  0  0
 76152  1  0  0  0  0
 77153  1  0  0  0  0
 78 79  2  0  0  0  0
 78154  1  0  0  0  0
 79155  1  0  0  0  0
 80156  1  0  0  0  0
 81 83  1  0  0  0  0
 81157  1  0  0  0  0
 82 84  2  0  0  0  0
 82158  1  0  0  0  0
 83 85  2  0  0  0  0
 83159  1  0  0  0  0
 84 85  1  0  0  0  0
 84160  1  0  0  0  0
M  END
>  <DRUGBANK_ID>
DB00644

>  <SECONDARY_ACCESSION_NUMBERS>
APRD01001

>  <COMMON_NAME>
Gonadorelin

>  <CAS_NUMBER>
33515-09-2

>  <UNII>
9O7312W37G

>  <SYNONYMS>
GnRH; Gonadorelin; Gonadorelina; Gonador√©line; Gonadorelinum; Gonadotropin-releasing hormone

$$$$
