
 OpenBabel10282417113D

 88 91  0  0  0  0  0  0  0  0999 V2000
    2.4985    1.5829    0.3338 C   0  0  0  0  0  0  0  0  0  0  0  0
    3.8657    1.5593    0.0557 C   0  0  0  0  0  0  0  0  0  0  0  0
    4.4685    0.3430   -0.3043 C   0  0  0  0  0  0  0  0  0  0  0  0
    3.6977   -0.7830   -0.4150 C   0  0  0  0  0  0  0  0  0  0  0  0
    2.3088   -0.7438   -0.1991 C   0  0  0  0  0  0  0  0  0  0  0  0
    1.6862    0.4576    0.2090 C   0  0  0  0  0  0  0  0  0  0  0  0
    0.2125    0.4469    0.5958 C   0  0  2  0  0  0  0  0  0  0  0  0
    1.5347   -2.0233   -0.3073 C   0  0  0  0  0  0  0  0  0  0  0  0
    0.1357   -2.0608    0.3834 C   0  0  2  0  0  0  0  0  0  0  0  0
   -0.5462   -0.7622   -0.0482 C   0  0  1  0  0  0  0  0  0  0  0  0
   -2.0010    1.7331    0.6099 C   0  0  0  0  0  0  0  0  0  0  0  0
   -0.4927    1.7842    0.3366 C   0  0  0  0  0  0  0  0  0  0  0  0
   -2.0269   -0.7211    0.3144 C   0  0  1  0  0  0  0  0  0  0  0  0
   -2.6799    0.5836   -0.1465 C   0  0  1  0  0  0  0  0  0  0  0  0
   -4.1270    0.2953    0.2931 C   0  0  2  0  0  0  0  0  0  0  0  0
   -2.9561   -1.8134   -0.2137 C   0  0  0  0  0  0  0  0  0  0  0  0
   -4.3551   -1.1865   -0.0736 C   0  0  0  0  0  0  0  0  0  0  0  0
    5.7996    0.2537   -0.5437 O   0  0  0  0  0  0  0  0  0  0  0  0
    0.1866    0.3343    1.6888 H   0  0  0  0  0  0  0  0  0  0  0  0
   -2.1198   -0.7511    1.4086 H   0  0  0  0  0  0  0  0  0  0  0  0
    0.0257   -2.2077    1.9287 C   0  0  0  0  0  0  0  0  0  0  0  0
    0.4399   -3.5630    2.4234 C   0  0  0  0  0  0  0  0  0  0  0  0
    1.8772   -3.8130    2.0211 C   0  0  0  0  0  0  0  0  0  0  0  0
    2.8673   -2.6016    2.3308 C   0  0  0  0  0  0  0  0  0  0  0  0
    3.1098   -2.3178    3.7924 C   0  0  0  0  0  0  0  0  0  0  0  0
    3.7953   -3.5407    4.2568 C   0  0  0  0  0  0  0  0  0  0  0  0
    5.1544   -4.0663    3.9031 C   0  0  0  0  0  0  0  0  0  0  0  0
    6.1200   -3.3992    4.8084 C   0  0  0  0  0  0  0  0  0  0  0  0
    5.8196   -3.7161    6.2871 C   0  0  0  0  0  0  0  0  0  0  0  0
    6.1232   -5.4007    6.9286 S   0  0  3  0  0  0  0  0  0  0  0  0
    5.9606   -5.3191    8.4260 O   0  0  0  0  0  0  0  0  0  0  0  0
    4.8859   -6.6232    6.3547 C   0  0  0  0  0  0  0  0  0  0  0  0
    3.4548   -6.6182    6.9489 C   0  0  0  0  0  0  0  0  0  0  0  0
    2.5436   -5.5468    6.4311 C   0  0  0  0  0  0  0  0  0  0  0  0
    2.1870   -5.7735    4.9763 C   0  0  0  0  0  0  0  0  0  0  0  0
    1.3606   -6.8317    4.3132 C   0  0  0  0  0  0  0  0  0  0  0  0
    1.6070   -4.5887    4.6345 F   0  0  0  0  0  0  0  0  0  0  0  0
    3.3782   -5.9527    4.3278 F   0  0  0  0  0  0  0  0  0  0  0  0
    0.0472   -6.6756    4.5448 F   0  0  0  0  0  0  0  0  0  0  0  0
    1.5344   -6.7554    2.9578 F   0  0  0  0  0  0  0  0  0  0  0  0
   -5.0826    1.1532   -0.2956 O   0  0  0  0  0  0  0  0  0  0  0  0
   -2.5810    0.8199   -1.6702 C   0  0  0  0  0  0  0  0  0  0  0  0
   -0.4495   -0.7103   -1.1403 H   0  0  0  0  0  0  0  0  0  0  0  0
    1.7457   -8.0706    4.6703 F   0  0  0  0  0  0  0  0  0  0  0  0
    2.0732    2.5367    0.6631 H   0  0  0  0  0  0  0  0  0  0  0  0
    4.4474    2.4607    0.1312 H   0  0  0  0  0  0  0  0  0  0  0  0
    4.1931   -1.7412   -0.6287 H   0  0  0  0  0  0  0  0  0  0  0  0
    1.4250   -2.3044   -1.3592 H   0  0  0  0  0  0  0  0  0  0  0  0
    2.2415   -2.7611    0.0317 H   0  0  0  0  0  0  0  0  0  0  0  0
   -0.3925   -2.9266   -0.0375 H   0  0  0  0  0  0  0  0  0  0  0  0
   -2.1474    1.6056    1.6921 H   0  0  0  0  0  0  0  0  0  0  0  0
   -2.4483    2.6944    0.3432 H   0  0  0  0  0  0  0  0  0  0  0  0
   -0.0656    2.5518    0.9916 H   0  0  0  0  0  0  0  0  0  0  0  0
   -0.2927    2.1031   -0.6902 H   0  0  0  0  0  0  0  0  0  0  0  0
   -4.2212    0.4065    1.3812 H   0  0  0  0  0  0  0  0  0  0  0  0
   -2.7452   -2.0572   -1.2614 H   0  0  0  0  0  0  0  0  0  0  0  0
   -2.8765   -2.7453    0.3572 H   0  0  0  0  0  0  0  0  0  0  0  0
   -4.9344   -1.3058   -0.9949 H   0  0  0  0  0  0  0  0  0  0  0  0
   -4.9162   -1.6834    0.7265 H   0  0  0  0  0  0  0  0  0  0  0  0
    6.1821    1.1469   -0.5206 H   0  0  0  0  0  0  0  0  0  0  0  0
    0.6004   -1.4499    2.4669 H   0  0  0  0  0  0  0  0  0  0  0  0
   -0.9963   -2.0684    2.2917 H   0  0  0  0  0  0  0  0  0  0  0  0
    0.2802   -3.5776    3.5034 H   0  0  0  0  0  0  0  0  0  0  0  0
   -0.2179   -4.3416    2.0172 H   0  0  0  0  0  0  0  0  0  0  0  0
    2.2201   -4.7670    2.4023 H   0  0  0  0  0  0  0  0  0  0  0  0
    1.8597   -4.1200    0.9760 H   0  0  0  0  0  0  0  0  0  0  0  0
    3.8246   -2.8145    1.8479 H   0  0  0  0  0  0  0  0  0  0  0  0
    2.5389   -1.6417    1.9648 H   0  0  0  0  0  0  0  0  0  0  0  0
    3.6839   -1.4247    4.0441 H   0  0  0  0  0  0  0  0  0  0  0  0
    2.1393   -2.2151    4.3099 H   0  0  0  0  0  0  0  0  0  0  0  0
    3.5646   -3.5756    5.2971 H   0  0  0  0  0  0  0  0  0  0  0  0
    3.2531   -4.2672    3.7264 H   0  0  0  0  0  0  0  0  0  0  0  0
    5.2393   -5.1343    4.1114 H   0  0  0  0  0  0  0  0  0  0  0  0
    5.3473   -4.0208    2.8281 H   0  0  0  0  0  0  0  0  0  0  0  0
    7.1280   -3.6864    4.5130 H   0  0  0  0  0  0  0  0  0  0  0  0
    6.0051   -2.3212    4.6214 H   0  0  0  0  0  0  0  0  0  0  0  0
    6.5216   -3.0804    6.8358 H   0  0  0  0  0  0  0  0  0  0  0  0
    4.8498   -3.3591    6.6400 H   0  0  0  0  0  0  0  0  0  0  0  0
    4.9448   -6.7588    5.2754 H   0  0  0  0  0  0  0  0  0  0  0  0
    5.3002   -7.5744    6.7159 H   0  0  0  0  0  0  0  0  0  0  0  0
    2.9542   -7.5607    6.7041 H   0  0  0  0  0  0  0  0  0  0  0  0
    3.4914   -6.5394    8.0368 H   0  0  0  0  0  0  0  0  0  0  0  0
    1.6380   -5.3274    6.9991 H   0  0  0  0  0  0  0  0  0  0  0  0
    3.1171   -4.6354    6.6133 H   0  0  0  0  0  0  0  0  0  0  0  0
   -5.0771    1.0076   -1.2560 H   0  0  0  0  0  0  0  0  0  0  0  0
   -2.9844   -0.0180   -2.2463 H   0  0  0  0  0  0  0  0  0  0  0  0
   -3.1332    1.7193   -1.9564 H   0  0  0  0  0  0  0  0  0  0  0  0
   -1.5523    0.9623   -2.0120 H   0  0  0  0  0  0  0  0  0  0  0  0
  1  2  1  0  0  0  0
  1  6  2  0  0  0  0
  1 45  1  0  0  0  0
  2  3  2  0  0  0  0
  2 46  1  0  0  0  0
  3  4  1  0  0  0  0
  3 18  1  0  0  0  0
  4  5  2  0  0  0  0
  4 47  1  0  0  0  0
  5  8  1  0  0  0  0
  6  5  1  0  0  0  0
  7  6  1  0  0  0  0
  7 12  1  0  0  0  0
  7 10  1  0  0  0  0
  7 19  1  1  0  0  0
  8  9  1  0  0  0  0
  8 48  1  0  0  0  0
  8 49  1  0  0  0  0
  9 10  1  0  0  0  0
  9 50  1  6  0  0  0
  9 21  1  0  0  0  0
 10 13  1  0  0  0  0
 10 43  1  6  0  0  0
 11 12  1  0  0  0  0
 11 14  1  0  0  0  0
 11 51  1  0  0  0  0
 11 52  1  0  0  0  0
 12 53  1  0  0  0  0
 12 54  1  0  0  0  0
 13 16  1  0  0  0  0
 13 20  1  1  0  0  0
 14 13  1  0  0  0  0
 14 42  1  6  0  0  0
 15 14  1  0  0  0  0
 15 17  1  0  0  0  0
 15 41  1  0  0  0  0
 15 55  1  1  0  0  0
 16 17  1  0  0  0  0
 16 56  1  0  0  0  0
 16 57  1  0  0  0  0
 17 58  1  0  0  0  0
 17 59  1  0  0  0  0
 18 60  1  0  0  0  0
 21 22  1  0  0  0  0
 21 61  1  0  0  0  0
 21 62  1  0  0  0  0
 22 23  1  0  0  0  0
 22 63  1  0  0  0  0
 22 64  1  0  0  0  0
 23 24  1  0  0  0  0
 23 65  1  0  0  0  0
 23 66  1  0  0  0  0
 24 25  1  0  0  0  0
 24 67  1  0  0  0  0
 24 68  1  0  0  0  0
 25 26  1  0  0  0  0
 25 69  1  0  0  0  0
 25 70  1  0  0  0  0
 26 27  1  0  0  0  0
 26 71  1  0  0  0  0
 26 72  1  0  0  0  0
 27 28  1  0  0  0  0
 27 73  1  0  0  0  0
 27 74  1  0  0  0  0
 28 29  1  0  0  0  0
 28 75  1  0  0  0  0
 28 76  1  0  0  0  0
 29 30  1  0  0  0  0
 29 77  1  0  0  0  0
 29 78  1  0  0  0  0
 30 31  2  0  0  0  0
 30 32  1  0  0  0  0
 32 33  1  0  0  0  0
 32 79  1  0  0  0  0
 32 80  1  0  0  0  0
 33 34  1  0  0  0  0
 33 81  1  0  0  0  0
 33 82  1  0  0  0  0
 34 35  1  0  0  0  0
 34 83  1  0  0  0  0
 34 84  1  0  0  0  0
 35 36  1  0  0  0  0
 35 37  1  0  0  0  0
 35 38  1  0  0  0  0
 36 39  1  0  0  0  0
 36 40  1  0  0  0  0
 36 44  1  0  0  0  0
 41 85  1  0  0  0  0
 42 86  1  0  0  0  0
 42 87  1  0  0  0  0
 42 88  1  0  0  0  0
M  END
>  <DRUGBANK_ID>
DB00947

>  <SECONDARY_ACCESSION_NUMBERS>
APRD00654

>  <COMMON_NAME>
Fulvestrant

>  <CAS_NUMBER>
129453-61-8

>  <UNII>
22X328QOC4

>  <SYNONYMS>
(7α,17β)-7-{9-[(4,4,5,5,5-pentafluoropentyl)sulfinyl]nonyl}estra-1(10),2,4-triene-3,17-diol; Fulvestrant

$$$$
