
 OpenBabel10282417143D

 25 25  0  0  0  0  0  0  0  0999 V2000
   -0.5072   -0.9871   -0.0670 C   0  0  2  0  0  0  0  0  0  0  0  0
    1.0077   -1.1512   -0.0374 C   0  0  2  0  0  0  0  0  0  0  0  0
   -0.7270    0.3150    0.5274 O   0  0  0  0  0  0  0  0  0  0  0  0
    1.5173    0.3077    0.0060 C   0  0  2  0  0  0  0  0  0  0  0  0
    1.3898   -1.8699   -1.2053 O   0  0  0  0  0  0  0  0  0  0  0  0
    0.2373    1.1348   -0.1200 C   0  0  2  0  0  0  0  0  0  0  0  0
    2.5006    0.6302   -0.9671 O   0  0  0  0  0  0  0  0  0  0  0  0
    0.3518    2.3839    0.5269 O   0  0  0  0  0  0  0  0  0  0  0  0
   -1.3615   -2.1175    0.5795 C   0  0  0  0  0  0  0  0  0  0  0  0
   -2.2833   -2.7633   -0.3635 O   0  0  0  0  0  0  0  0  0  0  0  0
   -3.1378   -1.6265   -1.3486 P   0  0  0  0  0  0  0  0  0  0  0  0
   -4.5455   -2.3666   -0.9937 O   0  0  0  0  0  0  0  0  0  0  0  0
   -3.0625   -0.4894   -0.3380 O   0  0  0  0  0  0  0  0  0  0  0  0
   -3.9924   -0.4898   -2.3337 O   0  0  0  0  0  0  0  0  0  0  0  0
   -0.7811   -0.9089   -1.1274 H   0  0  0  0  0  0  0  0  0  0  0  0
    1.3388   -1.6848    0.8595 H   0  0  0  0  0  0  0  0  0  0  0  0
    1.9553    0.5043    0.9922 H   0  0  0  0  0  0  0  0  0  0  0  0
    1.9130   -2.6403   -0.9200 H   0  0  0  0  0  0  0  0  0  0  0  0
   -0.0509    1.3180   -1.1642 H   0  0  0  0  0  0  0  0  0  0  0  0
    2.6865    1.5827   -0.8666 H   0  0  0  0  0  0  0  0  0  0  0  0
    0.0020    2.2188    1.4196 H   0  0  0  0  0  0  0  0  0  0  0  0
   -0.7329   -2.9077    0.9962 H   0  0  0  0  0  0  0  0  0  0  0  0
   -1.9732   -1.7241    1.4024 H   0  0  0  0  0  0  0  0  0  0  0  0
   -4.8622   -3.0259   -1.6239 H   0  0  0  0  0  0  0  0  0  0  0  0
   -3.3814   -0.0582   -2.9538 H   0  0  0  0  0  0  0  0  0  0  0  0
  1  2  1  0  0  0  0
  1  3  1  0  0  0  0
  1 15  1  6  0  0  0
  1  9  1  0  0  0  0
  2  4  1  0  0  0  0
  2 16  1  1  0  0  0
  2  5  1  0  0  0  0
  3  6  1  0  0  0  0
  4  6  1  0  0  0  0
  4 17  1  1  0  0  0
  4  7  1  0  0  0  0
  5 18  1  0  0  0  0
  6  8  1  0  0  0  0
  6 19  1  6  0  0  0
  7 20  1  0  0  0  0
  8 21  1  0  0  0  0
  9 10  1  0  0  0  0
  9 22  1  0  0  0  0
  9 23  1  0  0  0  0
 10 11  1  0  0  0  0
 11 12  1  0  0  0  0
 11 13  2  0  0  0  0
 11 14  1  0  0  0  0
 12 24  1  0  0  0  0
 14 25  1  0  0  0  0
M  END
>  <DRUGBANK_ID>
DB04352

>  <SECONDARY_ACCESSION_NUMBERS>
EXPT02809

>  <COMMON_NAME>
beta-D-Ribose-5-phosphate

>  <CAS_NUMBER>
34980-66-0

>  <UNII>
BVJ0IQF3T8

>  <SYNONYMS>
5-O-phosphono-beta-D-ribofuranose; 5-O-phosphono-β-D-ribofuranose; β-D-ribofuranose 5-phosphate

$$$$
