
 OpenBabel10282417123D

 14 13  0  0  1  0  0  0  0  0999 V2000
    0.9774    2.3051   -0.6712 N   0  3  0  0  0  0  0  0  0  0  0  0
    0.5233    1.2962    0.3577 C   0  0  2  0  0  0  0  0  0  0  0  0
    1.2301    0.0014    0.0656 C   0  0  0  0  0  0  0  0  0  0  0  0
    2.5718   -0.0572    0.0484 C   0  0  0  0  0  0  0  0  0  0  0  0
   -1.0329    1.2057    0.3647 C   0  0  0  0  0  0  0  0  0  0  0  0
   -1.5773    1.5743    1.4420 O   0  5  0  0  0  0  0  0  0  0  0  0
   -1.5132    1.0156   -0.7876 O   0  0  0  0  0  0  0  0  0  0  0  0
    0.6929    1.9089   -1.5774 H   0  0  0  0  0  0  0  0  0  0  0  0
    1.9764    2.4895   -0.6337 H   0  0  0  0  0  0  0  0  0  0  0  0
    0.4186    3.1528   -0.5394 H   0  0  0  0  0  0  0  0  0  0  0  0
    0.8622    1.6785    1.3269 H   0  0  0  0  0  0  0  0  0  0  0  0
    0.6308   -0.8846   -0.1519 H   0  0  0  0  0  0  0  0  0  0  0  0
    3.1126   -0.9672   -0.1851 H   0  0  0  0  0  0  0  0  0  0  0  0
    3.1643    0.8213    0.2881 H   0  0  0  0  0  0  0  0  0  0  0  0
  1  8  1  0  0  0  0
  1  9  1  0  0  0  0
  1 10  1  0  0  0  0
  2  5  1  0  0  0  0
  2 11  1  1  0  0  0
  2  3  1  0  0  0  0
  2  1  1  0  0  0  0
  3  4  2  0  0  0  0
  3 12  1  0  0  0  0
  4 13  1  0  0  0  0
  4 14  1  0  0  0  0
  5  6  1  0  0  0  0
  5  7  2  0  0  0  0
M  CHG  2   1   1   6  -1
M  END
>  <DRUGBANK_ID>
DB01804

>  <SECONDARY_ACCESSION_NUMBERS>
EXPT00367

>  <COMMON_NAME>
2-Ammoniobut-3-Enoate, 2-Amino-3-Butenoate

$$$$
