
 OpenBabel10282417183D

 48 52  0  0  0  0  0  0  0  0999 V2000
   -2.0337   -0.7810   -0.0124 C   0  0  0  0  0  0  0  0  0  0  0  0
   -0.9153   -1.4396   -0.0464 N   0  0  0  0  0  0  0  0  0  0  0  0
    0.2324   -0.6721   -0.0182 N   0  0  0  0  0  0  0  0  0  0  0  0
    0.2502    0.7171   -0.0001 C   0  0  0  0  0  0  0  0  0  0  0  0
   -0.9271    1.4204   -0.0001 N   0  0  0  0  0  0  0  0  0  0  0  0
   -2.0235    0.7249   -0.0055 C   0  0  0  0  0  0  0  0  0  0  0  0
    1.5012    1.1558   -0.0009 N   0  0  0  0  0  0  0  0  0  0  0  0
    2.3077    0.0451   -0.0024 C   0  0  0  0  0  0  0  0  0  0  0  0
    1.5500   -1.1059    0.0003 C   0  0  0  0  0  0  0  0  0  0  0  0
   -3.3598   -1.4741    0.0139 C   0  0  0  0  0  0  0  0  0  0  0  0
    2.0263   -2.5226    0.0399 C   0  0  0  0  0  0  0  0  0  0  0  0
    1.5340   -3.2612    1.3099 C   0  0  0  0  0  0  0  0  0  0  0  0
    0.0629   -3.5393    1.6289 C   0  0  0  0  0  0  0  0  0  0  0  0
   -0.7350   -4.1320    2.8446 C   0  0  0  0  0  0  0  0  0  0  0  0
    0.4808   -4.0766    3.7896 C   0  0  0  0  0  0  0  0  0  0  0  0
    1.8865   -3.6888    3.5302 C   0  0  0  0  0  0  0  0  0  0  0  0
    2.4525   -3.5821    2.2653 C   0  0  0  0  0  0  0  0  0  0  0  0
   -2.5040   -4.7446    3.3123 C   0  0  0  0  0  0  0  0  0  0  0  0
   -1.6952   -4.8239    4.2561 C   0  0  0  0  0  0  0  0  0  0  0  0
   -0.8939   -4.9531    5.3011 C   0  0  0  0  0  0  0  0  0  0  0  0
    0.2955   -4.5106    5.0365 N   0  0  0  0  0  0  0  0  0  0  0  0
   -4.2812   -1.2798   -1.0027 C   0  0  0  0  0  0  0  0  0  0  0  0
   -5.4903   -1.9938   -0.9943 C   0  0  0  0  0  0  0  0  0  0  0  0
   -5.9382   -2.6536    0.1498 C   0  0  0  0  0  0  0  0  0  0  0  0
   -5.0881   -2.6234    1.2483 C   0  0  0  0  0  0  0  0  0  0  0  0
   -3.7329   -2.2995    1.0651 C   0  0  0  0  0  0  0  0  0  0  0  0
   -7.2468   -3.3910    0.1371 C   0  0  0  0  0  0  0  0  0  0  0  0
   -7.6578   -4.0601    1.2898 N   0  0  0  0  0  0  0  0  0  0  0  0
   -8.9144   -4.7970    1.3141 C   0  0  0  0  0  0  0  0  0  0  0  0
   -6.2205   -1.9925   -2.1150 F   0  0  0  0  0  0  0  0  0  0  0  0
   -7.9132   -3.4199   -0.8928 O   0  0  0  0  0  0  0  0  0  0  0  0
   -3.0235    1.1967   -0.0076 H   0  0  0  0  0  0  0  0  0  0  0  0
    3.3962    0.0921    0.0027 H   0  0  0  0  0  0  0  0  0  0  0  0
    1.7367   -3.0312   -0.8837 H   0  0  0  0  0  0  0  0  0  0  0  0
    3.1457   -2.4937    0.0005 H   0  0  0  0  0  0  0  0  0  0  0  0
   -0.4885   -3.2310    0.7593 H   0  0  0  0  0  0  0  0  0  0  0  0
    2.5657   -3.4577    4.3747 H   0  0  0  0  0  0  0  0  0  0  0  0
    3.5207   -3.7294    2.0573 H   0  0  0  0  0  0  0  0  0  0  0  0
   -3.2355   -5.2571    4.3062 H   0  0  0  0  0  0  0  0  0  0  0  0
   -2.1871   -4.5415    3.0134 H   0  0  0  0  0  0  0  0  0  0  0  0
   -1.3803   -5.3678    6.1446 H   0  0  0  0  0  0  0  0  0  0  0  0
   -4.0451   -0.6347   -1.8371 H   0  0  0  0  0  0  0  0  0  0  0  0
   -5.4663   -2.8298    2.2419 H   0  0  0  0  0  0  0  0  0  0  0  0
   -2.9800   -2.6980    1.7311 H   0  0  0  0  0  0  0  0  0  0  0  0
   -7.1066   -4.0591    2.1357 H   0  0  0  0  0  0  0  0  0  0  0  0
   -8.7301   -5.8497    1.5527 H   0  0  0  0  0  0  0  0  0  0  0  0
   -9.5752   -4.3803    2.0811 H   0  0  0  0  0  0  0  0  0  0  0  0
   -9.4178   -4.7390    0.3483 H   0  0  0  0  0  0  0  0  0  0  0  0
  1  6  1  0  0  0  0
  1 10  1  0  0  0  0
  2  1  2  0  0  0  0
  3  2  1  0  0  0  0
  3  9  1  0  0  0  0
  4  3  1  0  0  0  0
  4  7  2  0  0  0  0
  5  4  1  0  0  0  0
  6  5  2  0  0  0  0
  6 32  1  0  0  0  0
  7  8  1  0  0  0  0
  8  9  2  0  0  0  0
  8 33  1  0  0  0  0
  9 11  1  0  0  0  0
 10 26  1  0  0  0  0
 11 12  1  0  0  0  0
 11 34  1  0  0  0  0
 11 35  1  0  0  0  0
 12 17  1  0  0  0  0
 13 12  2  0  0  0  0
 13 36  1  0  0  0  0
 14 13  1  0  0  0  0
 14 18  1  0  0  0  0
 15 14  2  0  0  0  0
 15 21  1  0  0  0  0
 16 15  1  0  0  0  0
 16 37  1  0  0  0  0
 17 16  2  0  0  0  0
 17 38  1  0  0  0  0
 18 39  1  0  0  0  0
 19 18  2  0  0  0  0
 19 40  1  0  0  0  0
 20 19  1  0  0  0  0
 20 41  1  0  0  0  0
 21 20  2  0  0  0  0
 22 10  2  0  0  0  0
 22 42  1  0  0  0  0
 23 22  1  0  0  0  0
 23 30  1  0  0  0  0
 24 23  2  0  0  0  0
 24 27  1  0  0  0  0
 25 24  1  0  0  0  0
 25 43  1  0  0  0  0
 26 25  2  0  0  0  0
 26 44  1  0  0  0  0
 27 28  1  0  0  0  0
 27 31  2  0  0  0  0
 28 29  1  0  0  0  0
 28 45  1  0  0  0  0
 29 46  1  0  0  0  0
 29 47  1  0  0  0  0
 29 48  1  0  0  0  0
M  END
>  <DRUGBANK_ID>
DB11791

>  <COMMON_NAME>
Capmatinib

>  <CAS_NUMBER>
1029712-80-8

>  <UNII>
TY34L4F9OZ

>  <SYNONYMS>
Capmatinib

$$$$
