
 OpenBabel10282417183D

 78 80  0  0  0  0  0  0  0  0999 V2000
   -1.1491    0.3462    1.0381 N   0  0  0  0  0  0  0  0  0  0  0  0
   -0.7646   -1.2546    0.5542 C   0  0  1  0  0  0  0  0  0  0  0  0
   -2.3559    0.0448    0.1566 C   0  0  0  0  0  0  0  0  0  0  0  0
   -2.0771   -1.3992   -0.1198 C   0  0  1  0  0  0  0  0  0  0  0  0
    0.3415    1.6405    1.1377 C   0  0  2  0  0  0  0  0  0  0  0  0
    1.5251   -1.7961    0.4472 S   0  0  0  0  0  0  0  0  0  0  0  0
    1.9634    0.7860    0.9445 C   0  0  0  0  0  0  0  0  0  0  0  0
   -2.0817   -2.0974   -1.3690 N   0  0  0  0  0  0  0  0  0  0  0  0
    0.4612    2.9454    1.7540 C   0  0  0  0  0  0  0  0  0  0  0  0
   -2.1989   -3.4732   -1.3898 C   0  0  0  0  0  0  0  0  0  0  0  0
    0.7548   -0.0041    0.0450 C   0  0  0  0  0  0  0  0  0  0  0  0
   -3.2209    0.7091   -0.4013 O   0  0  0  0  0  0  0  0  0  0  0  0
   -0.4591    1.2170   -0.8416 C   0  0  0  0  0  0  0  0  0  0  0  0
   -0.1329    3.9764    1.5198 O   0  0  0  0  0  0  0  0  0  0  0  0
   -2.1910   -4.0384   -2.4819 O   0  0  0  0  0  0  0  0  0  0  0  0
    0.6129   -0.2795    1.5500 O   0  0  0  0  0  0  0  0  0  0  0  0
   -2.4267   -4.2565   -0.0540 C   0  0  0  0  0  0  0  0  0  0  0  0
   -1.3693    2.1638   -0.1633 C   0  0  0  0  0  0  0  0  0  0  0  0
   -0.4336    1.7074   -2.0793 C   0  0  0  0  0  0  0  0  0  0  0  0
    2.7405   -0.3048   -0.1229 O   0  0  0  0  0  0  0  0  0  0  0  0
    1.4800    2.7711    2.5593 O   0  0  0  0  0  0  0  0  0  0  0  0
   -1.4246    3.6428   -1.8500 C   0  0  0  0  0  0  0  0  0  0  0  0
    2.0989    1.3540   -0.7780 C   0  0  0  0  0  0  0  0  0  0  0  0
    2.7965    0.6689    2.0318 C   0  0  0  0  0  0  0  0  0  0  0  0
    1.7272    1.1169   -3.0379 N   0  0  0  0  0  0  0  0  0  0  0  0
   -1.8639    4.7856   -2.4036 N   0  0  0  0  0  0  0  0  0  0  0  0
   -1.9006    3.2685   -0.6514 C   0  0  0  0  0  0  0  0  0  0  0  0
   -0.4715    2.9773   -2.4872 C   0  0  0  0  0  0  0  0  0  0  0  0
   -1.2919   -4.2854    0.9447 C   0  0  0  0  0  0  0  0  0  0  0  0
    4.0236    1.0276   -0.6224 C   0  0  0  0  0  0  0  0  0  0  0  0
    3.5089    1.2512   -2.5477 C   0  0  0  0  0  0  0  0  0  0  0  0
    1.2497    1.3750   -4.3630 C   0  0  0  0  0  0  0  0  0  0  0  0
    0.7748   -0.3148   -2.5062 C   0  0  0  0  0  0  0  0  0  0  0  0
   -0.4409   -5.3148    1.2238 C   0  0  0  0  0  0  0  0  0  0  0  0
   -1.1250   -3.2950    1.8611 C   0  0  0  0  0  0  0  0  0  0  0  0
    1.5051    0.0168   -4.8401 C   0  0  0  0  0  0  0  0  0  0  0  0
    1.0492   -1.7124   -2.5911 C   0  0  0  0  0  0  0  0  0  0  0  0
    0.1013   -3.0163    2.5221 C   0  0  0  0  0  0  0  0  0  0  0  0
    0.6888   -5.1548    2.0784 C   0  0  0  0  0  0  0  0  0  0  0  0
    1.0385   -3.9603    2.6441 C   0  0  0  0  0  0  0  0  0  0  0  0
   -0.8192   -1.4154    1.5667 H   0  0  0  0  0  0  0  0  0  0  0  0
   -2.8951   -1.8300    0.4734 H   0  0  0  0  0  0  0  0  0  0  0  0
    0.5898    2.3970    0.1157 H   0  0  0  0  0  0  0  0  0  0  0  0
   -1.8800   -1.6206   -2.2403 H   0  0  0  0  0  0  0  0  0  0  0  0
   -3.3316   -3.8694    0.4394 H   0  0  0  0  0  0  0  0  0  0  0  0
   -2.6508   -5.2894   -0.3208 H   0  0  0  0  0  0  0  0  0  0  0  0
   -1.6431    2.1538    0.9317 H   0  0  0  0  0  0  0  0  0  0  0  0
   -0.2844    1.1491   -2.9258 H   0  0  0  0  0  0  0  0  0  0  0  0
    1.6755    3.5957    2.9812 H   0  0  0  0  0  0  0  0  0  0  0  0
    2.3681    2.3429   -1.0997 H   0  0  0  0  0  0  0  0  0  0  0  0
    2.7850    0.3401   -1.4283 H   0  0  0  0  0  0  0  0  0  0  0  0
    1.9773    0.5541   -1.4547 H   0  0  0  0  0  0  0  0  0  0  0  0
    3.4689   -0.1427    1.8623 H   0  0  0  0  0  0  0  0  0  0  0  0
    3.1822    1.6511    2.0587 H   0  0  0  0  0  0  0  0  0  0  0  0
    2.0469    0.3905    2.7471 H   0  0  0  0  0  0  0  0  0  0  0  0
   -2.7162    5.0427   -1.9351 H   0  0  0  0  0  0  0  0  0  0  0  0
   -1.6858    4.8363   -3.3954 H   0  0  0  0  0  0  0  0  0  0  0  0
   -2.5419    3.7615    0.0407 H   0  0  0  0  0  0  0  0  0  0  0  0
   -0.0292    3.2693   -3.4318 H   0  0  0  0  0  0  0  0  0  0  0  0
    3.7488    1.9783    0.0736 H   0  0  0  0  0  0  0  0  0  0  0  0
    4.9971    0.6320   -0.3993 H   0  0  0  0  0  0  0  0  0  0  0  0
    3.7243    2.2481   -2.8993 H   0  0  0  0  0  0  0  0  0  0  0  0
    3.6404    0.2616   -2.9668 H   0  0  0  0  0  0  0  0  0  0  0  0
    0.1309    1.5011   -4.4881 H   0  0  0  0  0  0  0  0  0  0  0  0
    1.6996    2.2989   -4.6807 H   0  0  0  0  0  0  0  0  0  0  0  0
    0.8213   -0.2915   -1.5191 H   0  0  0  0  0  0  0  0  0  0  0  0
   -0.3545   -0.3414   -2.3646 H   0  0  0  0  0  0  0  0  0  0  0  0
   -0.7079   -6.2953    0.8747 H   0  0  0  0  0  0  0  0  0  0  0  0
   -1.9225   -2.5669    1.9140 H   0  0  0  0  0  0  0  0  0  0  0  0
    0.7268   -0.6237   -4.4608 H   0  0  0  0  0  0  0  0  0  0  0  0
    1.2254   -0.1354   -5.8410 H   0  0  0  0  0  0  0  0  0  0  0  0
    2.4527   -0.3670   -4.4475 H   0  0  0  0  0  0  0  0  0  0  0  0
    2.1178   -1.6939   -2.4372 H   0  0  0  0  0  0  0  0  0  0  0  0
    0.4236   -2.2089   -1.8511 H   0  0  0  0  0  0  0  0  0  0  0  0
    0.4289   -1.9086   -3.4301 H   0  0  0  0  0  0  0  0  0  0  0  0
    0.4529   -2.0266    2.8388 H   0  0  0  0  0  0  0  0  0  0  0  0
    1.3110   -5.9879    2.3275 H   0  0  0  0  0  0  0  0  0  0  0  0
    1.8919   -3.6968    3.2523 H   0  0  0  0  0  0  0  0  0  0  0  0
  2  1  1  0  0  0  0
  2 41  1  1  0  0  0
  3  1  1  0  0  0  0
  4  3  1  0  0  0  0
  4  2  1  0  0  0  0
  4 42  1  1  0  0  0
  4  8  1  0  0  0  0
  5  1  1  0  0  0  0
  5 43  1  6  0  0  0
  5  9  1  0  0  0  0
  6  2  1  0  0  0  0
  6  7  1  0  0  0  0
  7  5  1  0  0  0  0
  8 44  1  0  0  0  0
 10  8  1  0  0  0  0
 12  3  2  0  0  0  0
 13 11  1  0  0  0  0
 14  9  2  0  0  0  0
 15 10  2  0  0  0  0
 16 11  2  0  0  0  0
 17 10  1  0  0  0  0
 17 45  1  0  0  0  0
 17 46  1  0  0  0  0
 18 13  1  0  0  0  0
 18 47  1  0  0  0  0
 19 13  2  0  0  0  0
 19 48  1  0  0  0  0
 20 11  1  0  0  0  0
 21  9  1  0  0  0  0
 21 49  1  0  0  0  0
 22 28  2  0  0  0  0
 22 27  1  0  0  0  0
 23  7  1  0  0  0  0
 23 50  1  0  0  0  0
 23 51  1  0  0  0  0
 23 52  1  0  0  0  0
 24  7  1  0  0  0  0
 24 53  1  0  0  0  0
 24 54  1  0  0  0  0
 24 55  1  0  0  0  0
 25 31  1  0  0  0  0
 26 22  1  0  0  0  0
 26 56  1  0  0  0  0
 26 57  1  0  0  0  0
 27 18  2  0  0  0  0
 27 58  1  0  0  0  0
 28 19  1  0  0  0  0
 28 59  1  0  0  0  0
 29 17  1  0  0  0  0
 30 20  1  0  0  0  0
 30 60  1  0  0  0  0
 30 61  1  0  0  0  0
 31 30  1  0  0  0  0
 31 62  1  0  0  0  0
 31 63  1  0  0  0  0
 32 25  1  0  0  0  0
 32 64  1  0  0  0  0
 32 65  1  0  0  0  0
 33 25  1  0  0  0  0
 33 66  1  0  0  0  0
 33 67  1  0  0  0  0
 34 29  1  0  0  0  0
 34 68  1  0  0  0  0
 35 29  2  0  0  0  0
 35 69  1  0  0  0  0
 36 32  1  0  0  0  0
 36 70  1  0  0  0  0
 36 71  1  0  0  0  0
 36 72  1  0  0  0  0
 37 33  1  0  0  0  0
 37 73  1  0  0  0  0
 37 74  1  0  0  0  0
 37 75  1  0  0  0  0
 38 35  1  0  0  0  0
 38 76  1  0  0  0  0
 39 34  2  0  0  0  0
 39 77  1  0  0  0  0
 40 38  2  0  0  0  0
 40 39  1  0  0  0  0
 40 78  1  0  0  0  0
M  END
>  <DRUGBANK_ID>
DB09320

>  <COMMON_NAME>
Procaine benzylpenicillin

>  <CAS_NUMBER>
54-35-3

>  <UNII>
1LW5K9CIR1

>  <SYNONYMS>
Bencilpenicilina proca√≠na; Penicillin G procaine

$$$$
