
 OpenBabel10282417163D

 56 60  0  0  0  0  0  0  0  0999 V2000
    0.2231   -0.7466    0.0018 C   0  0  0  0  0  0  0  0  0  0  0  0
    0.3231    0.6234    0.0209 C   0  0  0  0  0  0  0  0  0  0  0  0
    1.6599    0.9691    0.0076 N   0  0  0  0  0  0  0  0  0  0  0  0
    1.5014   -1.2179    0.0141 N   0  0  0  0  0  0  0  0  0  0  0  0
    2.3393   -0.1499    0.0191 C   0  0  0  0  0  0  0  0  0  0  0  0
   -0.8799   -1.4650   -0.0092 N   0  0  0  0  0  0  0  0  0  0  0  0
   -2.0486    0.6432    0.0319 N   0  0  0  0  0  0  0  0  0  0  0  0
   -2.0019   -0.7185   -0.0054 C   0  0  0  0  0  0  0  0  0  0  0  0
   -0.8820    1.3630    0.0617 C   0  0  0  0  0  0  0  0  0  0  0  0
   -3.3305   -2.8249   -0.0641 C   0  0  0  0  0  0  0  0  0  0  0  0
   -3.9764   -3.5004   -1.0977 C   0  0  0  0  0  0  0  0  0  0  0  0
   -4.0712   -4.9031   -1.0883 C   0  0  0  0  0  0  0  0  0  0  0  0
   -3.5021   -5.6772   -0.0693 C   0  0  0  0  0  0  0  0  0  0  0  0
   -2.8592   -4.9917    0.9655 C   0  0  0  0  0  0  0  0  0  0  0  0
   -2.7609   -3.5919    0.9599 C   0  0  0  0  0  0  0  0  0  0  0  0
   -3.1972   -1.4288   -0.0877 N   0  0  0  0  0  0  0  0  0  0  0  0
   -0.9445    2.7482    0.1444 N   0  0  0  0  0  0  0  0  0  0  0  0
    0.2401    3.6092    0.0997 C   0  0  0  0  0  0  0  0  0  0  0  0
    0.9704    3.4807   -1.2537 C   0  0  0  0  0  0  0  0  0  0  0  0
    2.3381    4.1470   -1.2655 C   0  0  0  0  0  0  0  0  0  0  0  0
    3.1900    3.7671   -0.0594 C   0  0  0  0  0  0  0  0  0  0  0  0
    2.4800    4.0844    1.2525 C   0  0  0  0  0  0  0  0  0  0  0  0
    1.1086    3.4304    1.3644 C   0  0  0  0  0  0  0  0  0  0  0  0
   -3.5858   -7.0496   -0.0980 N   0  0  0  0  0  0  0  0  0  0  0  0
   -2.5718   -9.6582    0.4536 O   0  0  0  0  0  0  0  0  0  0  0  0
   -4.1040   -7.8226    1.0309 C   0  0  0  0  0  0  0  0  0  0  0  0
   -2.9989   -7.8533   -1.1787 C   0  0  0  0  0  0  0  0  0  0  0  0
   -3.0444   -8.8179    1.5223 C   0  0  0  0  0  0  0  0  0  0  0  0
   -1.9831   -8.8533   -0.5857 C   0  0  0  0  0  0  0  0  0  0  0  0
    1.7587   -2.1927    0.0330 H   0  0  0  0  0  0  0  0  0  0  0  0
    3.4167   -0.2182    0.0382 H   0  0  0  0  0  0  0  0  0  0  0  0
   -4.3715   -2.9492   -1.9466 H   0  0  0  0  0  0  0  0  0  0  0  0
   -4.6337   -5.3948   -1.8776 H   0  0  0  0  0  0  0  0  0  0  0  0
   -2.3945   -5.5375    1.7815 H   0  0  0  0  0  0  0  0  0  0  0  0
   -2.2215   -3.0971    1.7651 H   0  0  0  0  0  0  0  0  0  0  0  0
   -4.0201   -0.8541   -0.1611 H   0  0  0  0  0  0  0  0  0  0  0  0
   -1.8660    3.1644    0.1174 H   0  0  0  0  0  0  0  0  0  0  0  0
   -0.1138    4.6496    0.1421 H   0  0  0  0  0  0  0  0  0  0  0  0
    1.1141    2.4462   -1.5671 H   0  0  0  0  0  0  0  0  0  0  0  0
    0.3400    3.8877   -2.0537 H   0  0  0  0  0  0  0  0  0  0  0  0
    2.8647    3.8632   -2.1847 H   0  0  0  0  0  0  0  0  0  0  0  0
    2.2054    5.2332   -1.2913 H   0  0  0  0  0  0  0  0  0  0  0  0
    3.4552    2.7047   -0.1008 H   0  0  0  0  0  0  0  0  0  0  0  0
    4.1392    4.3129   -0.1001 H   0  0  0  0  0  0  0  0  0  0  0  0
    3.1049    3.7540    2.0913 H   0  0  0  0  0  0  0  0  0  0  0  0
    2.3633    5.1687    1.3470 H   0  0  0  0  0  0  0  0  0  0  0  0
    0.5740    3.8220    2.2387 H   0  0  0  0  0  0  0  0  0  0  0  0
    1.2628    2.3859    1.6364 H   0  0  0  0  0  0  0  0  0  0  0  0
   -4.9725   -8.3840    0.6637 H   0  0  0  0  0  0  0  0  0  0  0  0
   -4.4491   -7.1867    1.8523 H   0  0  0  0  0  0  0  0  0  0  0  0
   -3.8075   -8.4174   -1.6590 H   0  0  0  0  0  0  0  0  0  0  0  0
   -2.5098   -7.2418   -1.9450 H   0  0  0  0  0  0  0  0  0  0  0  0
   -2.1883   -8.2965    1.9654 H   0  0  0  0  0  0  0  0  0  0  0  0
   -3.4763   -9.4691    2.2887 H   0  0  0  0  0  0  0  0  0  0  0  0
   -1.6246   -9.5357   -1.3637 H   0  0  0  0  0  0  0  0  0  0  0  0
   -1.1106   -8.3333   -0.1722 H   0  0  0  0  0  0  0  0  0  0  0  0
  2  1  2  0  0  0  0
  3  2  1  0  0  0  0
  4  1  1  0  0  0  0
  4 30  1  0  0  0  0
  5  3  2  0  0  0  0
  5  4  1  0  0  0  0
  5 31  1  0  0  0  0
  6  1  1  0  0  0  0
  8  6  2  0  0  0  0
  8  7  1  0  0  0  0
  9  2  1  0  0  0  0
  9  7  2  0  0  0  0
 11 10  1  0  0  0  0
 11 32  1  0  0  0  0
 12 11  2  0  0  0  0
 12 33  1  0  0  0  0
 13 12  1  0  0  0  0
 13 24  1  0  0  0  0
 14 13  2  0  0  0  0
 14 34  1  0  0  0  0
 15 10  2  0  0  0  0
 15 14  1  0  0  0  0
 15 35  1  0  0  0  0
 16  8  1  0  0  0  0
 16 10  1  0  0  0  0
 16 36  1  0  0  0  0
 17  9  1  0  0  0  0
 17 37  1  0  0  0  0
 18 17  1  0  0  0  0
 18 38  1  0  0  0  0
 19 18  1  0  0  0  0
 19 39  1  0  0  0  0
 19 40  1  0  0  0  0
 20 19  1  0  0  0  0
 20 41  1  0  0  0  0
 20 42  1  0  0  0  0
 21 20  1  0  0  0  0
 21 43  1  0  0  0  0
 21 44  1  0  0  0  0
 22 21  1  0  0  0  0
 22 45  1  0  0  0  0
 22 46  1  0  0  0  0
 23 18  1  0  0  0  0
 23 22  1  0  0  0  0
 23 47  1  0  0  0  0
 23 48  1  0  0  0  0
 26 24  1  0  0  0  0
 26 49  1  0  0  0  0
 26 50  1  0  0  0  0
 27 24  1  0  0  0  0
 27 51  1  0  0  0  0
 27 52  1  0  0  0  0
 28 25  1  0  0  0  0
 28 26  1  0  0  0  0
 28 53  1  0  0  0  0
 28 54  1  0  0  0  0
 29 25  1  0  0  0  0
 29 27  1  0  0  0  0
 29 55  1  0  0  0  0
 29 56  1  0  0  0  0
M  END
>  <DRUGBANK_ID>
DB07340

>  <COMMON_NAME>
Reversine

>  <CAS_NUMBER>
656820-32-5

>  <UNII>
Z499CLJ023

>  <SYNONYMS>
2-(4-morpholinoanilino)-6-cyclohexylaminopurine

$$$$
