
 OpenBabel10282417123D

 39 39  0  0  1  0  0  0  0  0999 V2000
    1.0649    0.1893    0.9816 C   0  0  0  0  0  0  0  0  0  0  0  0
    0.7277    1.7697    0.3126 C   0  0  0  0  0  0  0  0  0  0  0  0
    0.5017    1.8949   -1.4118 C   0  0  0  0  0  0  0  0  0  0  0  0
   -0.2117    0.4557   -2.7486 C   0  0  0  0  0  0  0  0  0  0  0  0
   -1.6204    0.3218   -3.2928 C   0  0  0  0  0  0  0  0  0  0  0  0
   -1.4163    0.5320    0.8563 C   0  0  0  0  0  0  0  0  0  0  0  0
   -0.6933    0.4011   -0.7630 C   0  0  2  0  0  0  0  0  0  0  0  0
    1.2492    0.1608   -1.4776 C   0  0  2  0  0  0  0  0  0  0  0  0
    1.6685    1.3082   -3.1012 C   0  0  1  0  0  0  0  0  0  0  0  0
    0.5426    2.8068   -3.3534 C   0  0  1  0  0  0  0  0  0  0  0  0
   -1.2303    2.4751   -2.8576 C   0  0  1  0  0  0  0  0  0  0  0  0
   -2.8027    0.8827    0.8650 O   0  0  0  0  0  0  0  0  0  0  0  0
    1.7750   -1.1805   -1.5127 O   0  0  0  0  0  0  0  0  0  0  0  0
    3.0493    1.4977   -3.3011 O   0  0  0  0  0  0  0  0  0  0  0  0
    1.1375    4.0375   -2.7604 O   0  0  0  0  0  0  0  0  0  0  0  0
   -1.8744    1.6024   -3.7771 O   0  0  0  0  0  0  0  0  0  0  0  0
   -1.5896    1.8172   -1.3904 O   0  0  0  0  0  0  0  0  0  0  0  0
   -1.3483   -0.4347   -1.0416 H   0  0  0  0  0  0  0  0  0  0  0  0
    2.0721    0.6060   -0.8633 H   0  0  0  0  0  0  0  0  0  0  0  0
    1.4032    1.0128   -4.1284 H   0  0  0  0  0  0  0  0  0  0  0  0
    0.5242    3.0379   -4.4203 H   0  0  0  0  0  0  0  0  0  0  0  0
   -1.7238    3.4567   -2.8473 H   0  0  0  0  0  0  0  0  0  0  0  0
    0.5628   -0.6682    0.4614 H   0  0  0  0  0  0  0  0  0  0  0  0
    0.7287   -0.0096    1.9976 H   0  0  0  0  0  0  0  0  0  0  0  0
    2.1141   -0.0914    0.8849 H   0  0  0  0  0  0  0  0  0  0  0  0
   -0.2152    2.2908    0.5363 H   0  0  0  0  0  0  0  0  0  0  0  0
    1.3958    2.5340    0.7072 H   0  0  0  0  0  0  0  0  0  0  0  0
   -0.0050    2.8759   -1.3556 H   0  0  0  0  0  0  0  0  0  0  0  0
    1.5789    2.2522   -1.4840 H   0  0  0  0  0  0  0  0  0  0  0  0
    0.2739    0.0922   -3.7086 H   0  0  0  0  0  0  0  0  0  0  0  0
   -0.0262   -0.6612   -2.5092 H   0  0  0  0  0  0  0  0  0  0  0  0
   -1.6477   -0.4794   -4.0448 H   0  0  0  0  0  0  0  0  0  0  0  0
   -2.3148   -0.0379   -2.5330 H   0  0  0  0  0  0  0  0  0  0  0  0
   -1.3173   -0.4373    1.3278 H   0  0  0  0  0  0  0  0  0  0  0  0
   -1.0048    1.2542    1.5884 H   0  0  0  0  0  0  0  0  0  0  0  0
   -2.8617    1.8265    0.6144 H   0  0  0  0  0  0  0  0  0  0  0  0
    1.0542   -1.7753   -1.2589 H   0  0  0  0  0  0  0  0  0  0  0  0
    3.3557    1.9857   -2.5328 H   0  0  0  0  0  0  0  0  0  0  0  0
    1.1476    4.0623   -1.7816 H   0  0  0  0  0  0  0  0  0  0  0  0
  1 23  1  0  0  0  0
  1 24  1  0  0  0  0
  1 25  1  0  0  0  0
  2  1  1  0  0  0  0
  2 26  1  0  0  0  0
  2 27  1  0  0  0  0
  3  2  1  0  0  0  0
  3 28  1  0  0  0  0
  3 29  1  0  0  0  0
  4  3  1  0  0  0  0
  4 30  1  0  0  0  0
  4 31  1  0  0  0  0
  5  4  1  0  0  0  0
  5 32  1  0  0  0  0
  5 33  1  0  0  0  0
  6 34  1  0  0  0  0
  6 35  1  0  0  0  0
  7  6  1  0  0  0  0
  7 18  1  6  0  0  0
  8  7  1  0  0  0  0
  8 13  1  0  0  0  0
  8 19  1  1  0  0  0
  9  8  1  0  0  0  0
  9 14  1  0  0  0  0
  9 20  1  6  0  0  0
 10  9  1  0  0  0  0
 10 15  1  0  0  0  0
 10 21  1  6  0  0  0
 11 10  1  0  0  0  0
 11 16  1  0  0  0  0
 11 22  1  6  0  0  0
 12  6  1  0  0  0  0
 12 36  1  0  0  0  0
 13 37  1  0  0  0  0
 14 38  1  0  0  0  0
 15 39  1  0  0  0  0
 16  5  1  0  0  0  0
 17  7  1  0  0  0  0
 17 11  1  0  0  0  0
M  END
>  <DRUGBANK_ID>
DB02695

>  <SECONDARY_ACCESSION_NUMBERS>
EXPT02444

>  <COMMON_NAME>
O1-Pentyl-Mannose

$$$$
