
 OpenBabel10282417173D

 39 39  0  0  0  0  0  0  0  0999 V2000
    1.1452   -0.1752   -0.1857 C   0  0  0  0  0  0  0  0  0  0  0  0
   -1.5189   -1.4508   -0.1944 C   0  0  0  0  0  0  0  0  0  0  0  0
    1.4423    1.5994    4.0212 C   0  0  0  0  0  0  0  0  0  0  0  0
    1.1674    2.2119    1.7548 C   0  0  0  0  0  0  0  0  0  0  0  0
   -0.7177   -2.1885    4.6706 C   0  0  0  0  0  0  0  0  0  0  0  0
   -1.5384    0.0141    4.1479 C   0  0  0  0  0  0  0  0  0  0  0  0
   -0.3370   -1.7331    5.9382 C   0  0  0  0  0  0  0  0  0  0  0  0
   -1.1672    0.4675    5.4116 C   0  0  0  0  0  0  0  0  0  0  0  0
   -1.5555   -1.7353    2.3065 C   0  0  0  0  0  0  0  0  0  0  0  0
    1.2785   -0.1729    2.3551 C   0  0  0  0  0  0  0  0  0  0  0  0
    0.5888   -0.8081    1.1036 C   0  0  3  0  0  0  0  0  0  0  0  0
   -1.2938   -1.3000    3.7367 C   0  0  0  0  0  0  0  0  0  0  0  0
   -0.5497   -0.4102    6.3036 C   0  0  0  0  0  0  0  0  0  0  0  0
   -0.9828   -0.8620    1.1293 C   0  0  3  0  0  0  0  0  0  0  0  0
    0.0597    0.1956    7.7937 Cl  0  0  0  0  0  0  0  0  0  0  0  0
    0.8788    1.1871    2.7419 N   0  0  0  0  0  0  0  0  0  0  0  0
   -1.5367    0.4592    1.1332 O   0  0  0  0  0  0  0  0  0  0  0  0
    0.6466    0.7587   -0.4451 H   0  0  0  0  0  0  0  0  0  0  0  0
    1.0022   -0.8310   -1.0483 H   0  0  0  0  0  0  0  0  0  0  0  0
    2.2201    0.0138   -0.0978 H   0  0  0  0  0  0  0  0  0  0  0  0
   -1.1388   -2.4577   -0.3839 H   0  0  0  0  0  0  0  0  0  0  0  0
   -2.6153   -1.4792   -0.1895 H   0  0  0  0  0  0  0  0  0  0  0  0
   -1.2625   -0.8075   -1.0452 H   0  0  0  0  0  0  0  0  0  0  0  0
    2.5190    1.7676    3.9704 H   0  0  0  0  0  0  0  0  0  0  0  0
    0.9472    2.5235    4.3474 H   0  0  0  0  0  0  0  0  0  0  0  0
    1.2721    0.8615    4.8032 H   0  0  0  0  0  0  0  0  0  0  0  0
    2.2206    2.1915    1.4592 H   0  0  0  0  0  0  0  0  0  0  0  0
    0.5272    2.1254    0.8809 H   0  0  0  0  0  0  0  0  0  0  0  0
    0.9307    3.2062    2.1463 H   0  0  0  0  0  0  0  0  0  0  0  0
   -0.4903   -3.2130    4.3903 H   0  0  0  0  0  0  0  0  0  0  0  0
   -1.8752    0.7663    3.4339 H   0  0  0  0  0  0  0  0  0  0  0  0
    0.1817   -2.4071    6.6216 H   0  0  0  0  0  0  0  0  0  0  0  0
   -1.2270    1.5288    5.6294 H   0  0  0  0  0  0  0  0  0  0  0  0
   -2.6483   -1.7942    2.2096 H   0  0  0  0  0  0  0  0  0  0  0  0
   -1.1819   -2.7603    2.1732 H   0  0  0  0  0  0  0  0  0  0  0  0
    1.0978   -0.8520    3.1937 H   0  0  0  0  0  0  0  0  0  0  0  0
    2.3683   -0.2257    2.2346 H   0  0  0  0  0  0  0  0  0  0  0  0
    0.9318   -1.8544    1.0806 H   0  0  0  0  0  0  0  0  0  0  0  0
   -2.4842    0.3926    1.3360 H   0  0  0  0  0  0  0  0  0  0  0  0
  1 18  1  0  0  0  0
  1 19  1  0  0  0  0
  1 20  1  0  0  0  0
  2 21  1  0  0  0  0
  2 22  1  0  0  0  0
  2 23  1  0  0  0  0
  3 24  1  0  0  0  0
  3 25  1  0  0  0  0
  3 26  1  0  0  0  0
  4 27  1  0  0  0  0
  4 28  1  0  0  0  0
  4 29  1  0  0  0  0
  5 30  1  0  0  0  0
  6 31  1  0  0  0  0
  7  5  1  0  0  0  0
  7 32  1  0  0  0  0
  8  6  2  0  0  0  0
  8 33  1  0  0  0  0
  9 34  1  0  0  0  0
  9 35  1  0  0  0  0
 10 36  1  0  0  0  0
 10 37  1  0  0  0  0
 11  1  1  0  0  0  0
 11 10  1  0  0  0  0
 11 38  1  0  0  0  0
 12  5  2  0  0  0  0
 12  6  1  0  0  0  0
 12  9  1  0  0  0  0
 13  7  2  0  0  0  0
 13  8  1  0  0  0  0
 14  2  1  0  0  0  0
 14  9  1  0  0  0  0
 14 11  1  0  0  0  0
 15 13  1  0  0  0  0
 16  3  1  0  0  0  0
 16  4  1  0  0  0  0
 16 10  1  0  0  0  0
 17 14  1  0  0  0  0
 17 39  1  0  0  0  0
M  END
>  <DRUGBANK_ID>
DB09004

>  <COMMON_NAME>
Clobutinol

>  <CAS_NUMBER>
14860-49-2

>  <UNII>
1NY2IX043A

>  <SYNONYMS>
Clobutinol

$$$$
