
 OpenBabel10282417173D

 46 48  0  0  0  0  0  0  0  0999 V2000
    1.1951    0.1299   -0.1055 O   0  0  0  0  0  0  0  0  0  0  0  0
    0.6252   -1.0088   -0.7381 C   0  0  0  0  0  0  0  0  0  0  0  0
    1.0414   -1.1060   -2.2057 C   0  0  3  0  0  0  0  0  0  0  0  0
    2.4720   -1.1493   -2.2783 O   0  0  0  0  0  0  0  0  0  0  0  0
    0.4343   -2.3369   -2.9003 C   0  0  0  0  0  0  0  0  0  0  0  0
   -1.0149   -2.3009   -2.8881 O   0  0  0  0  0  0  0  0  0  0  0  0
   -1.6185   -2.6477   -1.6912 C   0  0  0  0  0  0  0  0  0  0  0  0
   -1.0937   -3.0489   -0.7115 O   0  0  0  0  0  0  0  0  0  0  0  0
   -3.0789   -2.4586   -1.7835 C   0  0  0  0  0  0  0  0  0  0  0  0
   -3.6865   -3.2852   -2.7811 C   0  0  0  0  0  0  0  0  0  0  0  0
   -5.0616   -3.4623   -2.8406 C   0  0  0  0  0  0  0  0  0  0  0  0
   -5.8165   -2.5996   -2.1074 C   0  0  0  0  0  0  0  0  0  0  0  0
   -5.1750   -1.6347   -1.3230 C   0  0  0  0  0  0  0  0  0  0  0  0
   -3.8636   -1.7485   -0.8559 C   0  0  0  0  0  0  0  0  0  0  0  0
   -3.4575   -1.2466    0.4989 N   0  0  0  0  0  0  0  0  0  0  0  0
   -4.4845   -0.9381    1.8285 C   0  0  0  0  0  0  0  0  0  0  0  0
   -4.7334   -2.2284    2.6134 C   0  0  0  0  0  0  0  0  0  0  0  0
   -4.9536   -3.2244    1.7843 C   0  0  0  0  0  0  0  0  0  0  0  0
   -5.8814   -2.7524    1.0013 N   0  0  0  0  0  0  0  0  0  0  0  0
   -6.3781   -1.4490    1.0733 C   0  0  0  0  0  0  0  0  0  0  0  0
   -7.6798   -1.4108    0.7545 C   0  0  0  0  0  0  0  0  0  0  0  0
   -8.4017   -0.2125    0.7690 C   0  0  0  0  0  0  0  0  0  0  0  0
   -7.7560    1.0225    0.8335 C   0  0  0  0  0  0  0  0  0  0  0  0
   -6.3758    1.0280    1.1099 C   0  0  0  0  0  0  0  0  0  0  0  0
   -5.6864   -0.3008    1.3935 C   0  0  0  0  0  0  0  0  0  0  0  0
   -8.2427   -2.7806    0.5398 C   0  0  0  0  0  0  0  0  0  0  0  0
   -8.8152   -3.2091    1.6923 F   0  0  0  0  0  0  0  0  0  0  0  0
   -9.1725   -2.7600   -0.4392 F   0  0  0  0  0  0  0  0  0  0  0  0
   -7.4379   -3.8214    0.1434 F   0  0  0  0  0  0  0  0  0  0  0  0
    2.1204   -0.0923    0.0763 H   0  0  0  0  0  0  0  0  0  0  0  0
    0.9308   -1.9129   -0.1954 H   0  0  0  0  0  0  0  0  0  0  0  0
   -0.4497   -0.8530   -0.6671 H   0  0  0  0  0  0  0  0  0  0  0  0
    0.7146   -0.1977   -2.7245 H   0  0  0  0  0  0  0  0  0  0  0  0
    2.7872   -0.3392   -1.8386 H   0  0  0  0  0  0  0  0  0  0  0  0
    0.7648   -2.3423   -3.9513 H   0  0  0  0  0  0  0  0  0  0  0  0
    0.8128   -3.2793   -2.4828 H   0  0  0  0  0  0  0  0  0  0  0  0
   -3.0729   -3.8892   -3.4423 H   0  0  0  0  0  0  0  0  0  0  0  0
   -5.5488   -4.2237   -3.4399 H   0  0  0  0  0  0  0  0  0  0  0  0
   -6.9012   -2.6847   -2.0565 H   0  0  0  0  0  0  0  0  0  0  0  0
   -5.8554   -0.9159   -0.9314 H   0  0  0  0  0  0  0  0  0  0  0  0
   -2.9915   -0.3471    0.3632 H   0  0  0  0  0  0  0  0  0  0  0  0
   -5.7993   -2.2303    3.1592 H   0  0  0  0  0  0  0  0  0  0  0  0
   -4.7193   -4.2852    1.7827 H   0  0  0  0  0  0  0  0  0  0  0  0
   -9.4827   -0.2913    0.7073 H   0  0  0  0  0  0  0  0  0  0  0  0
   -8.3518    1.9314    0.6932 H   0  0  0  0  0  0  0  0  0  0  0  0
   -5.8979    2.0174    1.1622 H   0  0  0  0  0  0  0  0  0  0  0  0
  1  2  1  0  0  0  0
  1 30  1  0  0  0  0
  2  3  1  0  0  0  0
  2 31  1  0  0  0  0
  2 32  1  0  0  0  0
  3  4  1  0  0  0  0
  3  5  1  0  0  0  0
  3 33  1  0  0  0  0
  4 34  1  0  0  0  0
  5  6  1  0  0  0  0
  5 35  1  0  0  0  0
  5 36  1  0  0  0  0
  6  7  1  0  0  0  0
  7  8  2  0  0  0  0
  7  9  1  0  0  0  0
  9 10  2  0  0  0  0
  9 14  1  0  0  0  0
 10 11  1  0  0  0  0
 10 37  1  0  0  0  0
 11 12  2  0  0  0  0
 11 38  1  0  0  0  0
 12 13  1  0  0  0  0
 12 39  1  0  0  0  0
 13 14  2  0  0  0  0
 13 40  1  0  0  0  0
 14 15  1  0  0  0  0
 15 16  1  0  0  0  0
 15 41  1  0  0  0  0
 16 17  2  0  0  0  0
 16 25  1  0  0  0  0
 17 18  1  0  0  0  0
 17 42  1  0  0  0  0
 18 19  2  0  0  0  0
 18 43  1  0  0  0  0
 19 20  1  0  0  0  0
 20 21  2  0  0  0  0
 20 25  1  0  0  0  0
 21 22  1  0  0  0  0
 21 26  1  0  0  0  0
 22 23  2  0  0  0  0
 22 44  1  0  0  0  0
 23 24  1  0  0  0  0
 23 45  1  0  0  0  0
 24 25  2  0  0  0  0
 24 46  1  0  0  0  0
 26 27  1  0  0  0  0
 26 28  1  0  0  0  0
 26 29  1  0  0  0  0
M  END
>  <DRUGBANK_ID>
DB08976

>  <COMMON_NAME>
Floctafenine

>  <CAS_NUMBER>
23779-99-9

>  <UNII>
O04HVX6A9Q

>  <SYNONYMS>
Floctafenina; Floctafenine; Floctafeninum

$$$$
