
 OpenBabel10282417103D

 23 23  0  0  0  0  0  0  0  0999 V2000
    1.8723   -0.4256    0.0041 C   0  0  0  0  0  0  0  0  0  0  0  0
    1.7491    0.9642    0.0344 C   0  0  0  0  0  0  0  0  0  0  0  0
    0.8320   -1.2846   -0.0128 N   0  0  0  0  0  0  0  0  0  0  0  0
    0.4467    1.5166    0.0278 C   0  0  0  0  0  0  0  0  0  0  0  0
   -0.6450    0.6289    0.0107 C   0  0  0  0  0  0  0  0  0  0  0  0
   -0.4132   -0.7540   -0.0008 C   0  0  0  0  0  0  0  0  0  0  0  0
    3.0128    1.7839    0.0668 C   0  0  0  0  0  0  0  0  0  0  0  0
    3.7514    1.4834    1.2440 O   0  0  0  0  0  0  0  0  0  0  0  0
   -1.5397   -1.7476    0.0116 C   0  0  0  0  0  0  0  0  0  0  0  0
   -1.9497    1.0361    0.0119 O   0  0  0  0  0  0  0  0  0  0  0  0
    0.2746    3.0132    0.0257 C   0  0  0  0  0  0  0  0  0  0  0  0
    0.8025    3.5729    1.2206 O   0  0  0  0  0  0  0  0  0  0  0  0
    2.8515   -0.9012   -0.0011 H   0  0  0  0  0  0  0  0  0  0  0  0
    3.6334    1.5536   -0.8051 H   0  0  0  0  0  0  0  0  0  0  0  0
    2.8395    2.8612    0.0500 H   0  0  0  0  0  0  0  0  0  0  0  0
    3.1718    1.6951    1.9966 H   0  0  0  0  0  0  0  0  0  0  0  0
   -1.4859   -2.3819   -0.8786 H   0  0  0  0  0  0  0  0  0  0  0  0
   -1.4620   -2.3790    0.9025 H   0  0  0  0  0  0  0  0  0  0  0  0
   -2.5265   -1.2764    0.0258 H   0  0  0  0  0  0  0  0  0  0  0  0
   -2.0411    1.9977   -0.0305 H   0  0  0  0  0  0  0  0  0  0  0  0
    0.7869    3.4474   -0.8400 H   0  0  0  0  0  0  0  0  0  0  0  0
   -0.7634    3.3381   -0.0434 H   0  0  0  0  0  0  0  0  0  0  0  0
    0.4124    3.0847    1.9662 H   0  0  0  0  0  0  0  0  0  0  0  0
  1  3  2  0  0  0  0
  1 13  1  0  0  0  0
  2  1  1  0  0  0  0
  4  2  2  0  0  0  0
  5  4  1  0  0  0  0
  6  3  1  0  0  0  0
  6  5  2  0  0  0  0
  7  2  1  0  0  0  0
  7 14  1  0  0  0  0
  7 15  1  0  0  0  0
  8  7  1  0  0  0  0
  8 16  1  0  0  0  0
  9  6  1  0  0  0  0
  9 17  1  0  0  0  0
  9 18  1  0  0  0  0
  9 19  1  0  0  0  0
 10  5  1  0  0  0  0
 10 20  1  0  0  0  0
 11  4  1  0  0  0  0
 11 12  1  0  0  0  0
 11 21  1  0  0  0  0
 11 22  1  0  0  0  0
 12 23  1  0  0  0  0
M  END
>  <DRUGBANK_ID>
DB00165

>  <SECONDARY_ACCESSION_NUMBERS>
NUTR00002; APRD00204

>  <COMMON_NAME>
Pyridoxine

>  <CAS_NUMBER>
65-23-6

>  <UNII>
KV2JZ1BI6Z

>  <SYNONYMS>
2-methyl-3-hydroxy-4,5-dihydroxymethylpyridine; 3-hydroxy-4,5-bis(hydroxymethyl)-2-methylpyridine; 3-hydroxy-4,5-dimethylol-Î±-picoline; 5-hydroxy-6-methyl-3,4-pyridinedimethanol; Piridoxina; Pyridoxine; Pyridoxinum; Pyridoxol; Vitamin B6

$$$$
