
 OpenBabel10282417243D

 67 69  0  0  1  0  0  0  0  0999 V2000
    1.0346    0.0691    0.1607 C   0  0  0  0  0  0  0  0  0  0  0  0
    0.6116    0.3627   -1.2662 C   0  0  0  0  0  0  0  0  0  0  0  0
    1.0456   -0.7586   -2.2071 C   0  0  0  0  0  0  0  0  0  0  0  0
    0.4047   -2.0741   -1.7897 C   0  0  0  0  0  0  0  0  0  0  0  0
   -1.1315   -1.9114   -1.7391 C   0  0  0  0  0  0  0  0  0  0  0  0
   -1.6467   -1.8418   -3.1320 C   0  0  0  0  0  0  0  0  0  0  0  0
   -1.8068   -2.9441   -3.8680 C   0  0  0  0  0  0  0  0  0  0  0  0
   -1.5557   -4.2646   -3.5183 N   0  0  0  0  0  0  0  0  0  0  0  0
   -1.0994   -4.8373   -2.2836 C   0  0  0  0  0  0  0  0  0  0  0  0
   -2.1840   -5.5413   -1.5316 C   0  0  0  0  0  0  0  0  0  0  0  0
   -2.0899   -6.9289   -1.5304 C   0  0  0  0  0  0  0  0  0  0  0  0
   -2.9139   -7.6857   -0.7193 C   0  0  0  0  0  0  0  0  0  0  0  0
   -3.8429   -7.0600    0.1076 C   0  0  0  0  0  0  0  0  0  0  0  0
   -3.9574   -5.6711    0.1161 C   0  0  0  0  0  0  0  0  0  0  0  0
   -3.1639   -4.9085   -0.7416 C   0  0  0  0  0  0  0  0  0  0  0  0
   -2.3521   -2.7532   -5.2434 C   0  0  0  0  0  0  0  0  0  0  0  0
   -2.9438   -3.6964   -5.7427 O   0  0  0  0  0  0  0  0  0  0  0  0
   -2.0810   -1.4490   -5.9293 C   0  0  0  0  0  0  0  0  0  0  0  0
   -2.1589   -1.3788   -7.4346 C   0  0  2  0  0  0  0  0  0  0  0  0
   -3.5192   -1.8462   -7.8811 C   0  0  0  0  0  0  0  0  0  0  0  0
   -3.7106   -3.0601   -8.4336 C   0  0  0  0  0  0  0  0  0  0  0  0
   -5.0438   -3.4865   -8.9505 C   0  0  0  0  0  0  0  0  0  0  0  0
   -2.5768   -4.0547   -8.6616 C   0  0  0  0  0  0  0  0  0  0  0  0
   -1.2063   -3.6514   -8.0960 C   0  0  0  0  0  0  0  0  0  0  0  0
   -0.9932   -2.1300   -8.1469 C   0  0  1  0  0  0  0  0  0  0  0  0
   -0.8159   -1.6618   -9.6041 C   0  0  0  0  0  0  0  0  0  0  0  0
    0.5121   -1.1063  -10.0082 C   0  0  0  0  0  0  0  0  0  0  0  0
   -1.7760   -1.7016  -10.5472 C   0  0  0  0  0  0  0  0  0  0  0  0
   -1.8560   -0.3690   -5.1782 C   0  0  0  0  0  0  0  0  0  0  0  0
   -1.6475    0.8893   -5.7280 O   0  0  0  0  0  0  0  0  0  0  0  0
   -1.8728   -0.4842   -3.7012 C   0  0  0  0  0  0  0  0  0  0  0  0
   -1.9658    0.5277   -3.0341 O   0  0  0  0  0  0  0  0  0  0  0  0
    0.6187   -0.8735    0.5354 H   0  0  0  0  0  0  0  0  0  0  0  0
    0.6689    0.8507    0.8268 H   0  0  0  0  0  0  0  0  0  0  0  0
    2.1226    0.0061    0.2155 H   0  0  0  0  0  0  0  0  0  0  0  0
   -0.4697    0.5010   -1.2569 H   0  0  0  0  0  0  0  0  0  0  0  0
    1.0004    1.3163   -1.6230 H   0  0  0  0  0  0  0  0  0  0  0  0
    0.7603   -0.5286   -3.2409 H   0  0  0  0  0  0  0  0  0  0  0  0
    2.1354   -0.8579   -2.2170 H   0  0  0  0  0  0  0  0  0  0  0  0
    0.7401   -2.8476   -2.4982 H   0  0  0  0  0  0  0  0  0  0  0  0
    0.7812   -2.4195   -0.8201 H   0  0  0  0  0  0  0  0  0  0  0  0
   -1.6309   -2.7070   -1.1976 H   0  0  0  0  0  0  0  0  0  0  0  0
   -1.4743   -1.0828   -1.1263 H   0  0  0  0  0  0  0  0  0  0  0  0
   -1.8785   -4.9351   -4.2219 H   0  0  0  0  0  0  0  0  0  0  0  0
   -0.2554   -5.5021   -2.4985 H   0  0  0  0  0  0  0  0  0  0  0  0
   -0.6275   -4.1787   -1.5700 H   0  0  0  0  0  0  0  0  0  0  0  0
   -1.3349   -7.4070   -2.1485 H   0  0  0  0  0  0  0  0  0  0  0  0
   -2.7992   -8.7627   -0.7224 H   0  0  0  0  0  0  0  0  0  0  0  0
   -4.4825   -7.6627    0.7435 H   0  0  0  0  0  0  0  0  0  0  0  0
   -4.6508   -5.1890    0.8028 H   0  0  0  0  0  0  0  0  0  0  0  0
   -3.3144   -3.8308   -0.7463 H   0  0  0  0  0  0  0  0  0  0  0  0
   -2.0696   -0.3268   -7.7463 H   0  0  0  0  0  0  0  0  0  0  0  0
   -4.3379   -1.1422   -7.7491 H   0  0  0  0  0  0  0  0  0  0  0  0
   -4.9786   -3.6360  -10.0331 H   0  0  0  0  0  0  0  0  0  0  0  0
   -5.3400   -4.4262   -8.4790 H   0  0  0  0  0  0  0  0  0  0  0  0
   -5.8207   -2.7400   -8.7595 H   0  0  0  0  0  0  0  0  0  0  0  0
   -2.8589   -5.0367   -8.2707 H   0  0  0  0  0  0  0  0  0  0  0  0
   -2.4567   -4.1891   -9.7433 H   0  0  0  0  0  0  0  0  0  0  0  0
   -0.4058   -4.1741   -8.6326 H   0  0  0  0  0  0  0  0  0  0  0  0
   -1.0999   -4.0180   -7.0699 H   0  0  0  0  0  0  0  0  0  0  0  0
   -0.0643   -1.9124   -7.5955 H   0  0  0  0  0  0  0  0  0  0  0  0
    0.9446   -1.7263  -10.7993 H   0  0  0  0  0  0  0  0  0  0  0  0
    0.3737   -0.0880  -10.3880 H   0  0  0  0  0  0  0  0  0  0  0  0
    1.2216   -1.0603   -9.1794 H   0  0  0  0  0  0  0  0  0  0  0  0
   -2.7805   -2.0494  -10.3606 H   0  0  0  0  0  0  0  0  0  0  0  0
   -1.6117   -1.4018  -11.5721 H   0  0  0  0  0  0  0  0  0  0  0  0
   -1.5723    1.5172   -4.9797 H   0  0  0  0  0  0  0  0  0  0  0  0
  1  2  1  0  0  0  0
  1 33  1  0  0  0  0
  1 34  1  0  0  0  0
  1 35  1  0  0  0  0
  2  3  1  0  0  0  0
  2 36  1  0  0  0  0
  2 37  1  0  0  0  0
  3  4  1  0  0  0  0
  3 38  1  0  0  0  0
  3 39  1  0  0  0  0
  4  5  1  0  0  0  0
  4 40  1  0  0  0  0
  4 41  1  0  0  0  0
  5  6  1  0  0  0  0
  5 42  1  0  0  0  0
  5 43  1  0  0  0  0
  6  7  2  0  0  0  0
  6 31  1  0  0  0  0
  7  8  1  0  0  0  0
  7 16  1  0  0  0  0
  8  9  1  0  0  0  0
  8 44  1  0  0  0  0
  9 10  1  0  0  0  0
  9 45  1  0  0  0  0
  9 46  1  0  0  0  0
 10 11  2  0  0  0  0
 10 15  1  0  0  0  0
 11 12  1  0  0  0  0
 11 47  1  0  0  0  0
 12 13  2  0  0  0  0
 12 48  1  0  0  0  0
 13 14  1  0  0  0  0
 13 49  1  0  0  0  0
 14 15  2  0  0  0  0
 14 50  1  0  0  0  0
 15 51  1  0  0  0  0
 16 17  2  0  0  0  0
 16 18  1  0  0  0  0
 18 29  2  0  0  0  0
 19 18  1  0  0  0  0
 19 20  1  0  0  0  0
 19 25  1  0  0  0  0
 19 52  1  6  0  0  0
 20 21  2  0  0  0  0
 20 53  1  0  0  0  0
 21 22  1  0  0  0  0
 21 23  1  0  0  0  0
 22 54  1  0  0  0  0
 22 55  1  0  0  0  0
 22 56  1  0  0  0  0
 23 24  1  0  0  0  0
 23 57  1  0  0  0  0
 23 58  1  0  0  0  0
 24 59  1  0  0  0  0
 24 60  1  0  0  0  0
 25 24  1  0  0  0  0
 25 26  1  0  0  0  0
 25 61  1  1  0  0  0
 26 27  1  0  0  0  0
 26 28  2  0  0  0  0
 27 62  1  0  0  0  0
 27 63  1  0  0  0  0
 27 64  1  0  0  0  0
 28 65  1  0  0  0  0
 28 66  1  0  0  0  0
 29 30  1  0  0  0  0
 29 31  1  0  0  0  0
 30 67  1  0  0  0  0
 31 32  2  0  0  0  0
M  END
>  <DRUGBANK_ID>
DB18008

>  <COMMON_NAME>
Etrinabdione

>  <CAS_NUMBER>
1818428-24-8

>  <UNII>
KTJCIKNF3F

>  <SYNONYMS>
(1'r,6'r)-3-(benzylamine)-6-hydroxy-3'-methyl-4-pentyl-6'-(prop-1-en-2-yl)-(1,1'-bi(cyclohexane))-2',3,6-triene-2,5-dione; (1'r,6'r)-3-(benzylamino)-6-hydroxy-3'-methyl-4-pentyl-6'-(prop-1-en-2-yl)-(1,1'-bi(cyclohexane))-2',3,6-triene-2,5-dione; 2,5-cyclohexadiene-1,4-dione, 2-hydroxy-3-((1r,6r)-3-methyl-6-(1-methylethenyl)-2-cyclohexen-1-yl)-6-pentyl-5-((phenylmethyl)amino)-

$$$$
