
 OpenBabel10282417173D

 55 58  0  0  0  0  0  0  0  0999 V2000
  -38.1216    2.4652    2.5122 C   0  0  1  0  0  0  0  0  0  0  0  0
  -37.0445   -0.3199    3.7543 C   0  0  2  0  0  0  0  0  0  0  0  0
  -36.6161   -1.9928    4.3933 C   0  0  2  0  0  0  0  0  0  0  0  0
  -38.8095    1.7763    3.6037 C   0  0  2  0  0  0  0  0  0  0  0  0
  -38.9463    4.0644    2.8755 C   0  0  2  0  0  0  0  0  0  0  0  0
  -37.1029    1.1109    4.2463 C   0  0  2  0  0  0  0  0  0  0  0  0
  -39.5682    3.6061    1.6865 C   0  0  0  0  0  0  0  0  0  0  0  0
  -35.6951   -1.5340    5.4865 C   0  0  0  0  0  0  0  0  0  0  0  0
  -37.1557   -0.1032    1.9834 C   0  0  2  0  0  0  0  0  0  0  0  0
  -38.3488    0.7703    1.8474 C   0  0  0  0  0  0  0  0  0  0  0  0
  -40.0638    2.3001    2.1782 C   0  0  0  0  0  0  0  0  0  0  0  0
  -36.0019   -3.6593    4.0153 C   0  0  0  0  0  0  0  0  0  0  0  0
  -35.3773   -2.5675    6.2998 C   0  0  0  0  0  0  0  0  0  0  0  0
  -40.5148    4.6640    3.2081 C   0  0  0  0  0  0  0  0  0  0  0  0
  -36.6529    0.8970    5.7945 C   0  0  0  0  0  0  0  0  0  0  0  0
  -35.4373   -4.5329    4.8892 C   0  0  0  0  0  0  0  0  0  0  0  0
  -36.1399   -3.7850    5.9597 C   0  0  0  0  0  0  0  0  0  0  0  0
  -35.3800   -0.0929    5.9089 C   0  0  0  0  0  0  0  0  0  0  0  0
  -38.9935    4.1876    0.6133 C   0  0  0  0  0  0  0  0  0  0  0  0
  -38.3812   -0.3766    4.4506 F   0  0  0  0  0  0  0  0  0  0  0  0
  -41.0885    5.4683    2.4429 O   0  0  0  0  0  0  0  0  0  0  0  0
  -37.3936   -3.9442    6.1612 O   0  0  0  0  0  0  0  0  0  0  0  0
  -38.8743    4.1326    4.2712 O   0  0  0  0  0  0  0  0  0  0  0  0
  -36.7351    2.9347    2.1510 C   0  0  0  0  0  0  0  0  0  0  0  0
  -36.2831   -0.8263    1.0659 O   0  0  0  0  0  0  0  0  0  0  0  0
  -37.4211   -2.1800    3.1952 C   0  0  0  0  0  0  0  0  0  0  0  0
  -41.2806    4.3759    4.5597 C   0  0  0  0  0  0  0  0  0  0  0  0
  -41.8817    3.1185    4.7800 O   0  0  0  0  0  0  0  0  0  0  0  0
  -36.2479    1.6849    3.8671 H   0  0  0  0  0  0  0  0  0  0  0  0
  -39.2002    2.1930    4.5122 H   0  0  0  0  0  0  0  0  0  0  0  0
  -37.8669   -0.7427    1.4675 H   0  0  0  0  0  0  0  0  0  0  0  0
  -38.9486    0.4656    0.9441 H   0  0  0  0  0  0  0  0  0  0  0  0
  -39.0951    0.1764    2.5473 H   0  0  0  0  0  0  0  0  0  0  0  0
  -40.8575    2.2724    1.3624 H   0  0  0  0  0  0  0  0  0  0  0  0
  -39.9693    1.5482    1.4139 H   0  0  0  0  0  0  0  0  0  0  0  0
  -36.4829   -4.3317    3.2740 H   0  0  0  0  0  0  0  0  0  0  0  0
  -34.6088   -2.6333    7.0454 H   0  0  0  0  0  0  0  0  0  0  0  0
  -36.5247    1.8747    6.2861 H   0  0  0  0  0  0  0  0  0  0  0  0
  -37.3656    0.3839    6.4486 H   0  0  0  0  0  0  0  0  0  0  0  0
  -34.9194   -5.0391    5.7026 H   0  0  0  0  0  0  0  0  0  0  0  0
  -34.4633    0.3272    5.4645 H   0  0  0  0  0  0  0  0  0  0  0  0
  -35.1199   -0.2085    6.9757 H   0  0  0  0  0  0  0  0  0  0  0  0
  -38.5745    3.5831   -0.1824 H   0  0  0  0  0  0  0  0  0  0  0  0
  -38.4338    5.1126    0.8324 H   0  0  0  0  0  0  0  0  0  0  0  0
  -37.9446    4.1811    4.5048 H   0  0  0  0  0  0  0  0  0  0  0  0
  -36.7419    3.6181    1.2977 H   0  0  0  0  0  0  0  0  0  0  0  0
  -36.3555    3.5160    2.9873 H   0  0  0  0  0  0  0  0  0  0  0  0
  -36.0751    2.1317    1.8382 H   0  0  0  0  0  0  0  0  0  0  0  0
  -36.6338   -1.7668    0.9989 H   0  0  0  0  0  0  0  0  0  0  0  0
  -38.3973   -1.7275    3.3698 H   0  0  0  0  0  0  0  0  0  0  0  0
  -36.4950   -1.8781    2.6887 H   0  0  0  0  0  0  0  0  0  0  0  0
  -37.8061   -2.7782    2.3867 H   0  0  0  0  0  0  0  0  0  0  0  0
  -40.6449    4.6150    5.4173 H   0  0  0  0  0  0  0  0  0  0  0  0
  -42.0725    5.1398    4.6355 H   0  0  0  0  0  0  0  0  0  0  0  0
  -42.5589    3.0021    4.0931 H   0  0  0  0  0  0  0  0  0  0  0  0
  1 24  1  6  0  0  0
  2  9  1  0  0  0  0
  2  6  1  0  0  0  0
  2 20  1  6  0  0  0
  3  2  1  0  0  0  0
  3 26  1  1  0  0  0
  4  1  1  0  0  0  0
  4 30  1  1  0  0  0
  5  1  1  0  0  0  0
  5 14  1  6  0  0  0
  5 23  1  0  0  0  0
  6  4  1  0  0  0  0
  6 29  1  1  0  0  0
  7  5  1  0  0  0  0
  8  3  1  0  0  0  0
  8 18  1  0  0  0  0
  9 10  1  0  0  0  0
  9 31  1  1  0  0  0
  9 25  1  0  0  0  0
 10  1  1  0  0  0  0
 10 32  1  0  0  0  0
 10 33  1  0  0  0  0
 11  4  1  0  0  0  0
 11  7  1  0  0  0  0
 11 34  1  0  0  0  0
 11 35  1  0  0  0  0
 12  3  1  0  0  0  0
 12 36  1  0  0  0  0
 13  8  2  0  0  0  0
 13 17  1  0  0  0  0
 13 37  1  0  0  0  0
 15  6  1  0  0  0  0
 15 38  1  0  0  0  0
 15 39  1  0  0  0  0
 16 12  2  0  0  0  0
 16 40  1  0  0  0  0
 17 16  1  0  0  0  0
 18 15  1  0  0  0  0
 18 41  1  0  0  0  0
 18 42  1  0  0  0  0
 19 43  1  0  0  0  0
 19 44  1  0  0  0  0
 19  7  2  0  0  0  0
 21 14  2  0  0  0  0
 22 17  2  0  0  0  0
 23 45  1  0  0  0  0
 24 46  1  0  0  0  0
 24 47  1  0  0  0  0
 24 48  1  0  0  0  0
 25 49  1  0  0  0  0
 26 50  1  0  0  0  0
 26 51  1  0  0  0  0
 26 52  1  0  0  0  0
 27 14  1  0  0  0  0
 27 53  1  0  0  0  0
 27 54  1  0  0  0  0
 28 27  1  0  0  0  0
 28 55  1  0  0  0  0
M  END
>  <DRUGBANK_ID>
DB08970

>  <COMMON_NAME>
Fluprednidene

>  <CAS_NUMBER>
2193-87-5

>  <UNII>
FA517NS3N7

>  <SYNONYMS>
Fluprednidene

$$$$
