
 OpenBabel10282417123D

 21 21  0  0  1  0  0  0  0  0999 V2000
   -1.6094   -1.5129   -0.1992 O   0  0  0  0  0  0  0  0  0  0  0  0
   -0.5363   -0.7049    0.2853 C   0  0  1  0  0  0  0  0  0  0  0  0
    0.8007   -1.3401   -0.0894 C   0  0  0  0  0  0  0  0  0  0  0  0
    1.8997   -0.5184    0.2857 O   0  0  0  0  0  0  0  0  0  0  0  0
    1.8930    0.7480   -0.3783 C   0  0  1  0  0  0  0  0  0  0  0  0
    0.6263    1.5265   -0.0264 C   0  0  0  0  0  0  0  0  0  0  0  0
   -0.6303    0.7102   -0.3100 C   0  0  2  0  0  0  0  0  0  0  0  0
   -1.7587    1.4188    0.2128 O   0  0  0  0  0  0  0  0  0  0  0  0
    3.1162    1.5538    0.0780 C   0  0  0  0  0  0  0  0  0  0  0  0
    3.9776    1.8904   -0.9115 O   0  0  0  0  0  0  0  0  0  0  0  0
    3.3168    1.8955    1.2376 O   0  0  0  0  0  0  0  0  0  0  0  0
   -1.5334   -2.3910    0.2130 H   0  0  0  0  0  0  0  0  0  0  0  0
   -0.6348   -0.6405    1.3755 H   0  0  0  0  0  0  0  0  0  0  0  0
    0.9022   -2.3020    0.4256 H   0  0  0  0  0  0  0  0  0  0  0  0
    0.8515   -1.5606   -1.1625 H   0  0  0  0  0  0  0  0  0  0  0  0
    1.9480    0.5732   -1.4595 H   0  0  0  0  0  0  0  0  0  0  0  0
    0.6316    1.8041    1.0365 H   0  0  0  0  0  0  0  0  0  0  0  0
    0.5898    2.4751   -0.5768 H   0  0  0  0  0  0  0  0  0  0  0  0
   -0.7886    0.6433   -1.3930 H   0  0  0  0  0  0  0  0  0  0  0  0
   -1.7620    1.3154    1.1804 H   0  0  0  0  0  0  0  0  0  0  0  0
    3.7715    1.5473   -1.8001 H   0  0  0  0  0  0  0  0  0  0  0  0
  1 12  1  0  0  0  0
  2  1  1  0  0  0  0
  2  3  1  0  0  0  0
  2  7  1  0  0  0  0
  2 13  1  1  0  0  0
  3  4  1  0  0  0  0
  3 14  1  0  0  0  0
  3 15  1  0  0  0  0
  4  5  1  0  0  0  0
  5  6  1  0  0  0  0
  5  9  1  0  0  0  0
  5 16  1  6  0  0  0
  6  7  1  0  0  0  0
  6 17  1  0  0  0  0
  6 18  1  0  0  0  0
  7  8  1  0  0  0  0
  7 19  1  6  0  0  0
  8 20  1  0  0  0  0
  9 10  1  0  0  0  0
  9 11  2  0  0  0  0
 10 21  1  0  0  0  0
M  END
>  <DRUGBANK_ID>
DB02227

>  <SECONDARY_ACCESSION_NUMBERS>
EXPT01564

>  <COMMON_NAME>
4,5-Dihydroxy-Tetrahydro-Pyran-2-Carboxylic Acid

$$$$
