
 OpenBabel10282417213D

 49 52  0  0  0  0  0  0  0  0999 V2000
    2.2850    0.4977    0.1502 C   0  0  2  0  0  0  0  0  0  0  0  0
    1.5673   -0.7740   -0.3564 C   0  0  2  0  0  0  0  0  0  0  0  0
    0.1058   -0.8396    0.0965 C   0  0  1  0  0  0  0  0  0  0  0  0
   -0.6160    0.3992   -0.4945 C   0  0  1  0  0  0  0  0  0  0  0  0
   -2.1009    0.3734   -0.1922 C   0  0  0  0  0  0  0  0  0  0  0  0
   -2.7991   -0.8239    0.0681 C   0  0  0  0  0  0  0  0  0  0  0  0
    1.5818    1.7309   -0.4135 C   0  0  0  0  0  0  0  0  0  0  0  0
    0.0894    1.7163   -0.0754 C   0  0  0  0  0  0  0  0  0  0  0  0
   -0.6189   -2.1006   -0.3831 C   0  0  0  0  0  0  0  0  0  0  0  0
    2.5366   -1.8919    0.0195 C   0  0  0  0  0  0  0  0  0  0  0  0
   -2.8204    1.5627   -0.2606 C   0  0  0  0  0  0  0  0  0  0  0  0
    3.6798    0.2426   -0.4446 C   0  0  2  0  0  0  0  0  0  0  0  0
   -7.0338    1.6521    0.4566 C   0  0  0  0  0  0  0  0  0  0  0  0
   -4.1995   -0.7824    0.3039 C   0  0  0  0  0  0  0  0  0  0  0  0
   -2.0601   -2.1431    0.1474 C   0  0  0  0  0  0  0  0  0  0  0  0
   -4.8899    0.4383    0.2553 C   0  0  0  0  0  0  0  0  0  0  0  0
   -6.2945    0.4586    0.4925 O   0  0  0  0  0  0  0  0  0  0  0  0
    3.9325   -1.2424   -0.1244 C   0  0  0  0  0  0  0  0  0  0  0  0
   -6.6201    2.7870    0.2312 O   0  0  0  0  0  0  0  0  0  0  0  0
   -4.1812    1.5947   -0.0300 C   0  0  0  0  0  0  0  0  0  0  0  0
    2.3484    0.6100    1.6949 C   0  0  0  0  0  0  0  0  0  0  0  0
    4.6910    1.1008    0.0433 O   0  0  0  0  0  0  0  0  0  0  0  0
   -8.4820    1.4394    0.7345 C   0  0  0  0  0  0  0  0  0  0  0  0
    0.0500   -0.8191    1.1926 H   0  0  0  0  0  0  0  0  0  0  0  0
    1.5491   -0.7513   -1.4594 H   0  0  0  0  0  0  0  0  0  0  0  0
   -0.5472    0.3417   -1.5922 H   0  0  0  0  0  0  0  0  0  0  0  0
    2.0350    2.6516   -0.0278 H   0  0  0  0  0  0  0  0  0  0  0  0
    1.6885    1.7655   -1.5055 H   0  0  0  0  0  0  0  0  0  0  0  0
   -0.0645    1.8908    0.9967 H   0  0  0  0  0  0  0  0  0  0  0  0
   -0.3474    2.5784   -0.5895 H   0  0  0  0  0  0  0  0  0  0  0  0
   -0.6324   -2.1212   -1.4807 H   0  0  0  0  0  0  0  0  0  0  0  0
   -0.0883   -3.0017   -0.0555 H   0  0  0  0  0  0  0  0  0  0  0  0
    2.4304   -2.7601   -0.6383 H   0  0  0  0  0  0  0  0  0  0  0  0
    2.3760   -2.2334    1.0480 H   0  0  0  0  0  0  0  0  0  0  0  0
   -2.3552    2.5123   -0.4996 H   0  0  0  0  0  0  0  0  0  0  0  0
    3.6549    0.3721   -1.5344 H   0  0  0  0  0  0  0  0  0  0  0  0
   -4.7332   -1.7057    0.5206 H   0  0  0  0  0  0  0  0  0  0  0  0
   -2.6098   -2.9064   -0.4159 H   0  0  0  0  0  0  0  0  0  0  0  0
   -2.0378   -2.4562    1.1988 H   0  0  0  0  0  0  0  0  0  0  0  0
    4.5072   -1.7122   -0.9293 H   0  0  0  0  0  0  0  0  0  0  0  0
    4.5138   -1.3655    0.7961 H   0  0  0  0  0  0  0  0  0  0  0  0
   -4.6223    2.5761   -0.0969 H   0  0  0  0  0  0  0  0  0  0  0  0
    2.8835    1.5174    1.9956 H   0  0  0  0  0  0  0  0  0  0  0  0
    1.3583    0.6600    2.1552 H   0  0  0  0  0  0  0  0  0  0  0  0
    2.8647   -0.2374    2.1554 H   0  0  0  0  0  0  0  0  0  0  0  0
    4.7734    0.9839    1.0034 H   0  0  0  0  0  0  0  0  0  0  0  0
   -8.9370    0.8107   -0.0306 H   0  0  0  0  0  0  0  0  0  0  0  0
   -8.6318    1.0531    1.7426 H   0  0  0  0  0  0  0  0  0  0  0  0
   -8.9601    2.4273    0.6818 H   0  0  0  0  0  0  0  0  0  0  0  0
  1 21  1  1  0  0  0
  2  1  1  0  0  0  0
  2 25  1  6  0  0  0
  3  2  1  0  0  0  0
  3 24  1  1  0  0  0
  4  3  1  0  0  0  0
  4 26  1  6  0  0  0
  5  4  1  0  0  0  0
  6  5  1  0  0  0  0
  7  1  1  0  0  0  0
  7 27  1  0  0  0  0
  7 28  1  0  0  0  0
  8  7  1  0  0  0  0
  8  4  1  0  0  0  0
  8 29  1  0  0  0  0
  8 30  1  0  0  0  0
  9  3  1  0  0  0  0
  9 31  1  0  0  0  0
  9 32  1  0  0  0  0
 10  2  1  0  0  0  0
 10 33  1  0  0  0  0
 10 34  1  0  0  0  0
 11  5  2  0  0  0  0
 11 35  1  0  0  0  0
 12  1  1  0  0  0  0
 12 22  1  0  0  0  0
 12 36  1  6  0  0  0
 13 17  1  0  0  0  0
 14  6  2  0  0  0  0
 14 37  1  0  0  0  0
 15  9  1  0  0  0  0
 15  6  1  0  0  0  0
 15 38  1  0  0  0  0
 15 39  1  0  0  0  0
 16 14  1  0  0  0  0
 16 20  2  0  0  0  0
 17 16  1  0  0  0  0
 18 12  1  0  0  0  0
 18 10  1  0  0  0  0
 18 40  1  0  0  0  0
 18 41  1  0  0  0  0
 19 13  2  0  0  0  0
 20 11  1  0  0  0  0
 20 42  1  0  0  0  0
 21 43  1  0  0  0  0
 21 44  1  0  0  0  0
 21 45  1  0  0  0  0
 22 46  1  0  0  0  0
 23 13  1  0  0  0  0
 23 47  1  0  0  0  0
 23 48  1  0  0  0  0
 23 49  1  0  0  0  0
M  END
>  <DRUGBANK_ID>
DB13952

>  <SECONDARY_ACCESSION_NUMBERS>
DBSALT000065

>  <COMMON_NAME>
Estradiol acetate

>  <CAS_NUMBER>
4245-41-4

>  <UNII>
5R97F5H93P

>  <SYNONYMS>
E3A; Estradiol 3-acetate; Estradiol acetate; Estradiol-3-acetate

$$$$
