
 OpenBabel10282417203D

 23 23  0  0  1  0  0  0  0  0999 V2000
    0.8340    0.0405   -0.0878 C   0  0  0  0  0  0  0  0  0  0  0  0
   -1.4359    1.0488   -4.1793 C   0  0  0  0  0  0  0  0  0  0  0  0
   -1.5227   -0.0813   -2.0671 C   0  0  0  0  0  0  0  0  0  0  0  0
    0.3954    1.1748   -0.9782 C   0  0  0  0  0  0  0  0  0  0  0  0
   -1.7776   -0.3022   -3.5571 C   0  0  2  0  0  0  0  0  0  0  0  0
   -0.2425    1.5367   -3.3404 C   0  0  1  0  0  0  0  0  0  0  0  0
   -0.1298    3.0569   -3.3458 C   0  0  0  0  0  0  0  0  0  0  0  0
   -0.4352    0.8894   -2.0338 N   0  0  0  0  0  0  0  0  0  0  0  0
    0.8496    2.3047   -0.8005 O   0  0  0  0  0  0  0  0  0  0  0  0
   -0.9084   -1.3115   -4.0708 O   0  0  0  0  0  0  0  0  0  0  0  0
    0.7952    3.6901   -3.8434 O   0  0  0  0  0  0  0  0  0  0  0  0
   -1.1848    3.6987   -2.8094 O   0  0  0  0  0  0  0  0  0  0  0  0
   -2.8050   -0.6148   -3.7653 H   0  0  0  0  0  0  0  0  0  0  0  0
    0.6891    1.1319   -3.7570 H   0  0  0  0  0  0  0  0  0  0  0  0
    0.5317   -0.9385   -0.4589 H   0  0  0  0  0  0  0  0  0  0  0  0
    0.4693    0.1860    0.9304 H   0  0  0  0  0  0  0  0  0  0  0  0
    1.9314    0.0448   -0.0763 H   0  0  0  0  0  0  0  0  0  0  0  0
   -1.1813    0.9731   -5.2415 H   0  0  0  0  0  0  0  0  0  0  0  0
   -2.2926    1.7266   -4.0803 H   0  0  0  0  0  0  0  0  0  0  0  0
   -2.3852    0.3978   -1.5903 H   0  0  0  0  0  0  0  0  0  0  0  0
   -1.2747   -0.9976   -1.5298 H   0  0  0  0  0  0  0  0  0  0  0  0
   -0.0030   -1.1212   -3.7680 H   0  0  0  0  0  0  0  0  0  0  0  0
   -0.9090    4.6398   -2.8167 H   0  0  0  0  0  0  0  0  0  0  0  0
  1 15  1  0  0  0  0
  1 16  1  0  0  0  0
  1 17  1  0  0  0  0
  2 18  1  0  0  0  0
  2 19  1  0  0  0  0
  3 20  1  0  0  0  0
  3 21  1  0  0  0  0
  4  1  1  0  0  0  0
  5  2  1  0  0  0  0
  5  3  1  0  0  0  0
  5 10  1  0  0  0  0
  5 13  1  6  0  0  0
  6  2  1  0  0  0  0
  6  7  1  0  0  0  0
  6 14  1  6  0  0  0
  8  3  1  0  0  0  0
  8  4  1  0  0  0  0
  8  6  1  0  0  0  0
  9  4  2  0  0  0  0
 10 22  1  0  0  0  0
 11  7  2  0  0  0  0
 12  7  1  0  0  0  0
 12 23  1  0  0  0  0
M  END
>  <DRUGBANK_ID>
DB13363

>  <COMMON_NAME>
Oxaceprol

>  <CAS_NUMBER>
33996-33-7

>  <UNII>
Q0XV76B96L

>  <SYNONYMS>
Oxaceprol

$$$$
