113
 OpenBabel10282417123D

 37 39  0  0  0  0  0  0  0  0999 V2000
    3.5980   -0.7383   -0.0271 C   0  0  0  0  0  0  0  0  0  0  0  0
    2.3899   -1.3842   -0.0390 C   0  0  0  0  0  0  0  0  0  0  0  0
    1.2375   -0.6118   -0.0206 C   0  0  0  0  0  0  0  0  0  0  0  0
    1.2834    0.8094    0.0337 C   0  0  0  0  0  0  0  0  0  0  0  0
    2.5495    1.4964    0.0500 C   0  0  0  0  0  0  0  0  0  0  0  0
    3.6968    0.6635    0.0143 C   0  0  0  0  0  0  0  0  0  0  0  0
    0.0884   -1.3672   -0.0856 O   0  0  0  0  0  0  0  0  0  0  0  0
   -1.1192   -0.7213   -0.0803 C   0  0  0  0  0  0  0  0  0  0  0  0
   -1.2543    0.6032    0.0409 C   0  0  0  0  0  0  0  0  0  0  0  0
   -0.0649    1.4629    0.0577 C   0  0  0  0  0  0  0  0  0  0  0  0
   -2.3291   -1.6173   -0.1717 C   0  0  0  0  0  0  0  0  0  0  0  0
   -3.5469   -0.8374    0.2945 C   0  0  1  0  0  0  0  0  0  0  0  0
   -3.6112    0.4368   -0.3492 O   0  0  0  0  0  0  0  0  0  0  0  0
   -2.5768    1.3150    0.1063 C   0  0  1  0  0  0  0  0  0  0  0  0
    5.0196    1.0202    0.0118 O   0  0  0  0  0  0  0  0  0  0  0  0
    4.7354   -1.5016   -0.0655 O   0  0  0  0  0  0  0  0  0  0  0  0
    2.6279    3.0224    0.0941 C   0  0  0  0  0  0  0  0  0  0  0  0
    3.7942    3.6785    0.1059 O   0  0  0  0  0  0  0  0  0  0  0  0
   -2.7629    1.7847    1.4499 O   0  0  0  0  0  0  0  0  0  0  0  0
   -4.0656    1.6342    1.9842 C   0  0  0  0  0  0  0  0  0  0  0  0
   -4.9044   -1.4831    0.1157 C   0  0  0  0  0  0  0  0  0  0  0  0
    1.6701    3.7751    0.1189 O   0  0  0  0  0  0  0  0  0  0  0  0
   -0.2834    2.6555    0.0502 O   0  0  0  0  0  0  0  0  0  0  0  0
   -3.3872   -0.7335    1.3680 H   0  0  0  0  0  0  0  0  0  0  0  0
   -2.5808    2.1816   -0.5697 H   0  0  0  0  0  0  0  0  0  0  0  0
    2.3492   -2.4695   -0.0720 H   0  0  0  0  0  0  0  0  0  0  0  0
   -2.2043   -2.4849    0.4855 H   0  0  0  0  0  0  0  0  0  0  0  0
   -2.4499   -1.9628   -1.2017 H   0  0  0  0  0  0  0  0  0  0  0  0
    5.1217    1.9645    0.0441 H   0  0  0  0  0  0  0  0  0  0  0  0
    5.4734   -0.8588   -0.0608 H   0  0  0  0  0  0  0  0  0  0  0  0
    4.7296    3.4825    0.1101 H   0  0  0  0  0  0  0  0  0  0  0  0
   -4.8377    2.0045    1.3068 H   0  0  0  0  0  0  0  0  0  0  0  0
   -4.2693    0.5943    2.2298 H   0  0  0  0  0  0  0  0  0  0  0  0
   -4.1158    2.1393    2.9487 H   0  0  0  0  0  0  0  0  0  0  0  0
   -5.1494   -2.0863    0.9943 H   0  0  0  0  0  0  0  0  0  0  0  0
   -5.6814   -0.7131    0.0171 H   0  0  0  0  0  0  0  0  0  0  0  0
   -4.9478   -2.1166   -0.7717 H   0  0  0  0  0  0  0  0  0  0  0  0
  1  2  2  0  0  0  0
  1  6  1  0  0  0  0
  1 16  1  0  0  0  0
  2  3  1  0  0  0  0
  2 26  1  0  0  0  0
  3  4  2  0  0  0  0
  3  7  1  0  0  0  0
  4  5  1  0  0  0  0
  4 10  1  0  0  0  0
  5  6  2  0  0  0  0
  5 17  1  0  0  0  0
  6 15  1  0  0  0  0
  7  8  1  0  0  0  0
  8  9  2  0  0  0  0
  8 11  1  0  0  0  0
  9 10  1  0  0  0  0
  9 14  1  0  0  0  0
 10 23  2  0  0  0  0
 11 12  1  0  0  0  0
 11 27  1  0  0  0  0
 11 28  1  0  0  0  0
 12 13  1  0  0  0  0
 12 24  1  1  0  0  0
 12 21  1  0  0  0  0
 13 14  1  0  0  0  0
 14 25  1  6  0  0  0
 14 19  1  0  0  0  0
 15 29  1  0  0  0  0
 16 30  1  0  0  0  0
 17 18  1  0  0  0  0
 17 22  2  0  0  0  0
 18 31  1  0  0  0  0
 19 20  1  0  0  0  0
 20 32  1  0  0  0  0
 20 33  1  0  0  0  0
 20 34  1  0  0  0  0
 21 35  1  0  0  0  0
 21 36  1  0  0  0  0
 21 37  1  0  0  0  0
M  END
>  <DRUGBANK_ID>
DB02593

>  <SECONDARY_ACCESSION_NUMBERS>
EXPT00011

>  <COMMON_NAME>
7,8-Dihydroxy-1-Methoxy-3-Methyl-10-Oxo-4,10-Dihydro-1h,3h-Pyrano[4,3-B]Chromene-9-Carboxylic Acid

$$$$
