
 OpenBabel10282417173D

 80 81  0  0  0  0  0  0  0  0999 V2000
   -1.4158    6.1946   12.7201 O   0  0  0  0  0  0  0  0  0  0  0  0
   -0.4916    6.0754   11.7473 C   0  0  0  0  0  0  0  0  0  0  0  0
    0.9408    6.2622   12.2393 C   0  0  1  0  0  0  0  0  0  0  0  0
   -0.8109    6.0387   10.5585 O   0  0  0  0  0  0  0  0  0  0  0  0
    1.8647    5.0503   11.7893 C   0  0  0  0  0  0  0  0  0  0  0  0
    1.1763    7.6470   11.7953 N   0  0  0  0  0  0  0  0  0  0  0  0
    1.7953    4.4768   10.3374 C   0  0  0  0  0  0  0  0  0  0  0  0
    2.4637    5.4853    9.5237 C   0  0  0  0  0  0  0  0  0  0  0  0
    2.6470    3.2831    9.9543 C   0  0  0  0  0  0  0  0  0  0  0  0
    1.6689    8.7349   12.5270 C   0  0  0  0  0  0  0  0  0  0  0  0
    1.7579   10.1366   11.7239 C   0  0  2  0  0  0  0  0  0  0  0  0
    2.1174    8.5902   13.6622 O   0  0  0  0  0  0  0  0  0  0  0  0
    1.9913   11.2879   12.6995 C   0  0  0  0  0  0  0  0  0  0  0  0
    0.5988   10.1381   10.8347 N   0  0  0  0  0  0  0  0  0  0  0  0
    1.7444   12.6989   12.2310 C   0  0  0  0  0  0  0  0  0  0  0  0
    1.0203   13.0089   11.0923 C   0  0  0  0  0  0  0  0  0  0  0  0
    2.1252   13.7878   12.9852 C   0  0  0  0  0  0  0  0  0  0  0  0
    1.6563   15.0669   12.6374 C   0  0  0  0  0  0  0  0  0  0  0  0
    0.6064   14.2501   10.6771 C   0  0  0  0  0  0  0  0  0  0  0  0
    0.9073   15.2991   11.4818 C   0  0  0  0  0  0  0  0  0  0  0  0
    0.6418   10.5652    9.5073 C   0  0  0  0  0  0  0  0  0  0  0  0
    1.6606   10.7756    8.8564 O   0  0  0  0  0  0  0  0  0  0  0  0
   -0.7606   10.9022    9.0212 C   0  0  0  0  0  0  0  0  0  0  0  0
   -0.8691   12.1591    8.2878 N   0  0  0  0  0  0  0  0  0  0  0  0
   -1.0364   12.2701    6.9136 C   0  0  0  0  0  0  0  0  0  0  0  0
   -1.1647   13.3317    6.3673 O   0  0  0  0  0  0  0  0  0  0  0  0
   -1.1051   10.8915    6.2493 C   0  0  2  0  0  0  0  0  0  0  0  0
    0.1852   10.2097    6.2730 N   0  0  0  0  0  0  0  0  0  0  0  0
   -1.8271   10.7020    4.9580 C   0  0  0  0  0  0  0  0  0  0  0  0
    0.2340    8.8985    6.6882 C   0  0  0  0  0  0  0  0  0  0  0  0
    1.6082    8.2699    6.8719 C   0  0  2  0  0  0  0  0  0  0  0  0
   -0.7884    8.2786    6.9882 O   0  0  0  0  0  0  0  0  0  0  0  0
    1.7306    7.8602    8.3159 C   0  0  0  0  0  0  0  0  0  0  0  0
    3.2008    7.9038    8.8595 C   0  0  0  0  0  0  0  0  0  0  0  0
    2.6967    9.1585    6.5713 N   0  0  0  0  0  0  0  0  0  0  0  0
    5.7273    7.9888   10.2074 C   0  0  0  0  0  0  0  0  0  0  0  0
    4.3227    7.3686    8.2747 C   0  0  0  0  0  0  0  0  0  0  0  0
    3.4554    8.3643   10.1316 C   0  0  0  0  0  0  0  0  0  0  0  0
    5.5784    7.4325    8.9303 C   0  0  0  0  0  0  0  0  0  0  0  0
    4.6334    8.4527   10.8541 C   0  0  0  0  0  0  0  0  0  0  0  0
    6.9045    8.0733   10.8732 O   0  0  0  0  0  0  0  0  0  0  0  0
   -1.0189    6.4213   13.5834 H   0  0  0  0  0  0  0  0  0  0  0  0
    0.9982    6.2997   13.3291 H   0  0  0  0  0  0  0  0  0  0  0  0
    2.9060    5.3295   12.0091 H   0  0  0  0  0  0  0  0  0  0  0  0
    1.6065    4.2090   12.4332 H   0  0  0  0  0  0  0  0  0  0  0  0
    0.8699    7.8317   10.8445 H   0  0  0  0  0  0  0  0  0  0  0  0
    0.7691    4.3511    9.9804 H   0  0  0  0  0  0  0  0  0  0  0  0
    3.5161    5.5831    9.8050 H   0  0  0  0  0  0  0  0  0  0  0  0
    2.3869    5.3286    8.4395 H   0  0  0  0  0  0  0  0  0  0  0  0
    1.9337    6.3499    9.8647 H   0  0  0  0  0  0  0  0  0  0  0  0
    2.3155    2.3825   10.4485 H   0  0  0  0  0  0  0  0  0  0  0  0
    2.5887    3.1386    8.8595 H   0  0  0  0  0  0  0  0  0  0  0  0
    3.7078    3.4759   10.1669 H   0  0  0  0  0  0  0  0  0  0  0  0
    2.6295   10.2858   11.0764 H   0  0  0  0  0  0  0  0  0  0  0  0
    1.3761   11.0993   13.5798 H   0  0  0  0  0  0  0  0  0  0  0  0
    3.0457   11.2032   13.0178 H   0  0  0  0  0  0  0  0  0  0  0  0
   -0.3014   10.0901   11.2868 H   0  0  0  0  0  0  0  0  0  0  0  0
    0.7093   12.2782   10.4256 H   0  0  0  0  0  0  0  0  0  0  0  0
    2.7575   13.6495   13.8564 H   0  0  0  0  0  0  0  0  0  0  0  0
    1.8591   15.9028   13.2903 H   0  0  0  0  0  0  0  0  0  0  0  0
    0.0501   14.3619    9.7565 H   0  0  0  0  0  0  0  0  0  0  0  0
    0.5594   16.2763   11.1810 H   0  0  0  0  0  0  0  0  0  0  0  0
   -1.0106   10.0295    8.4506 H   0  0  0  0  0  0  0  0  0  0  0  0
   -1.5084   10.9096    9.8111 H   0  0  0  0  0  0  0  0  0  0  0  0
   -0.9386   13.0371    8.7801 H   0  0  0  0  0  0  0  0  0  0  0  0
   -1.8198   10.3764    6.8981 H   0  0  0  0  0  0  0  0  0  0  0  0
    1.0534   10.7454    6.3349 H   0  0  0  0  0  0  0  0  0  0  0  0
   -1.9328    9.6182    4.8099 H   0  0  0  0  0  0  0  0  0  0  0  0
   -2.8348   11.1203    5.0342 H   0  0  0  0  0  0  0  0  0  0  0  0
   -1.2879   11.1301    4.1190 H   0  0  0  0  0  0  0  0  0  0  0  0
    1.6240    7.3515    6.2751 H   0  0  0  0  0  0  0  0  0  0  0  0
    1.0450    8.3966    8.9773 H   0  0  0  0  0  0  0  0  0  0  0  0
    1.1909    6.9013    8.3355 H   0  0  0  0  0  0  0  0  0  0  0  0
    3.0318    9.2922    5.6420 H   0  0  0  0  0  0  0  0  0  0  0  0
    3.0409    9.7181    7.3502 H   0  0  0  0  0  0  0  0  0  0  0  0
    4.1991    6.8234    7.3491 H   0  0  0  0  0  0  0  0  0  0  0  0
    2.5711    8.5977   10.6042 H   0  0  0  0  0  0  0  0  0  0  0  0
    6.4282    7.0134    8.4163 H   0  0  0  0  0  0  0  0  0  0  0  0
    4.6608    8.8544   11.8665 H   0  0  0  0  0  0  0  0  0  0  0  0
    7.5930    7.7116   10.2991 H   0  0  0  0  0  0  0  0  0  0  0  0
  1  2  1  0  0  0  0
  1 42  1  0  0  0  0
  2  3  1  0  0  0  0
  2  4  2  0  0  0  0
  3  5  1  0  0  0  0
  3  6  1  0  0  0  0
  3 43  1  1  0  0  0
  5  7  1  0  0  0  0
  5 44  1  0  0  0  0
  5 45  1  0  0  0  0
  6 10  1  0  0  0  0
  6 46  1  0  0  0  0
  7  8  1  0  0  0  0
  7  9  1  0  0  0  0
  7 47  1  0  0  0  0
  8 48  1  0  0  0  0
  8 49  1  0  0  0  0
  8 50  1  0  0  0  0
  9 51  1  0  0  0  0
  9 52  1  0  0  0  0
  9 53  1  0  0  0  0
 10 12  2  0  0  0  0
 11 14  1  0  0  0  0
 11 54  1  6  0  0  0
 11 13  1  0  0  0  0
 11 10  1  0  0  0  0
 13 15  1  0  0  0  0
 13 55  1  0  0  0  0
 13 56  1  0  0  0  0
 14 21  1  0  0  0  0
 14 57  1  0  0  0  0
 15 16  2  0  0  0  0
 15 17  1  0  0  0  0
 16 19  1  0  0  0  0
 16 58  1  0  0  0  0
 17 18  2  0  0  0  0
 17 59  1  0  0  0  0
 18 20  1  0  0  0  0
 18 60  1  0  0  0  0
 19 20  2  0  0  0  0
 19 61  1  0  0  0  0
 20 62  1  0  0  0  0
 21 23  1  0  0  0  0
 21 22  2  0  0  0  0
 23 24  1  0  0  0  0
 23 63  1  0  0  0  0
 23 64  1  0  0  0  0
 24 25  1  0  0  0  0
 24 65  1  0  0  0  0
 25 26  2  0  0  0  0
 27 29  1  0  0  0  0
 27 66  1  1  0  0  0
 27 28  1  0  0  0  0
 27 25  1  0  0  0  0
 28 30  1  0  0  0  0
 28 67  1  0  0  0  0
 29 68  1  0  0  0  0
 29 69  1  0  0  0  0
 29 70  1  0  0  0  0
 30 32  2  0  0  0  0
 31 35  1  0  0  0  0
 31 71  1  6  0  0  0
 31 33  1  0  0  0  0
 31 30  1  0  0  0  0
 33 34  1  0  0  0  0
 33 72  1  0  0  0  0
 33 73  1  0  0  0  0
 34 37  2  0  0  0  0
 34 38  1  0  0  0  0
 35 74  1  0  0  0  0
 35 75  1  0  0  0  0
 36 40  1  0  0  0  0
 36 41  1  0  0  0  0
 36 39  2  0  0  0  0
 37 39  1  0  0  0  0
 37 76  1  0  0  0  0
 38 40  2  0  0  0  0
 38 77  1  0  0  0  0
 39 78  1  0  0  0  0
 40 79  1  0  0  0  0
 41 80  1  0  0  0  0
M  END
>  <DRUGBANK_ID>
DB08856

>  <COMMON_NAME>
DADLE

>  <CAS_NUMBER>
63631-40-3

>  <UNII>
CQK2YXW6EZ

>  <SYNONYMS>
[D-Ala2, D-Leu5]-Enkephalin; H-Tyr-D-Ala-Gly-Phe-D-Leu; L-Tyrosyl-D-alanylglycyl-L-phenylalanyl-D-leucine

$$$$
