
 OpenBabel10282417243D

 70 75  0  0  0  0  0  0  0  0999 V2000
    1.1961   -0.5762   -0.8402 C   0  0  0  0  0  0  0  0  0  0  0  0
    0.2922   -1.6879   -1.1645 C   0  0  0  0  0  0  0  0  0  0  0  0
    0.8532   -2.8514   -0.3485 C   0  0  0  0  0  0  0  0  0  0  0  0
   -1.0925   -1.2537   -0.9157 O   0  0  0  0  0  0  0  0  0  0  0  0
   -1.7231   -1.3904    0.3308 C   0  0  0  0  0  0  0  0  0  0  0  0
   -2.6702   -2.3284    0.5002 C   0  0  0  0  0  0  0  0  0  0  0  0
   -3.2486   -2.6000    1.8174 C   0  0  0  0  0  0  0  0  0  0  0  0
   -3.0253   -1.7781    2.8664 C   0  0  0  0  0  0  0  0  0  0  0  0
   -3.6896   -1.8132    4.2225 C   0  0  0  0  0  0  0  0  0  0  0  0
   -4.4320   -2.7549    4.4877 O   0  0  0  0  0  0  0  0  0  0  0  0
   -3.4805   -0.8235    5.2010 N   0  0  0  0  0  0  0  0  0  0  0  0
   -2.6865    0.3631    5.1678 C   0  0  0  0  0  0  0  0  0  0  0  0
   -2.7331    1.2187    4.0678 C   0  0  0  0  0  0  0  0  0  0  0  0
   -1.7009    2.1442    3.8293 C   0  0  0  0  0  0  0  0  0  0  0  0
   -0.6085    2.2680    4.6933 C   0  0  0  0  0  0  0  0  0  0  0  0
    0.5145    3.0696    4.5092 O   0  0  0  0  0  0  0  0  0  0  0  0
    0.6507    3.8650    3.3822 C   0  0  0  0  0  0  0  0  0  0  0  0
   -0.4153    4.7057    3.0117 C   0  0  0  0  0  0  0  0  0  0  0  0
   -0.4773    5.1911    1.7005 C   0  0  0  0  0  0  0  0  0  0  0  0
   -1.4441    5.8214    0.8886 C   0  0  0  0  0  0  0  0  0  0  0  0
   -1.0354    5.9678   -0.3815 N   0  0  0  0  0  0  0  0  0  0  0  0
    0.2311    5.4816   -0.3598 N   0  0  0  0  0  0  0  0  0  0  0  0
    1.0636    5.3831   -1.5403 C   0  0  0  0  0  0  0  0  0  0  0  0
    0.6318    5.0518    0.8891 C   0  0  0  0  0  0  0  0  0  0  0  0
    1.8449    4.5008    1.3636 C   0  0  0  0  0  0  0  0  0  0  0  0
    1.8515    3.8594    2.6419 C   0  0  0  0  0  0  0  0  0  0  0  0
    3.0421    3.0667    3.0460 C   0  0  0  0  0  0  0  0  0  0  0  0
    4.4030    3.1503    2.6531 C   0  0  0  0  0  0  0  0  0  0  0  0
    5.0852    2.0114    2.8310 N   0  0  0  0  0  0  0  0  0  0  0  0
    4.1827    1.2014    3.3911 N   0  0  0  0  0  0  0  0  0  0  0  0
    3.0156    1.8541    3.7208 C   0  0  0  0  0  0  0  0  0  0  0  0
   -0.6221    1.4703    5.8432 C   0  0  0  0  0  0  0  0  0  0  0  0
    0.4472    1.4784    6.6583 F   0  0  0  0  0  0  0  0  0  0  0  0
   -1.6810    0.5777    6.1271 C   0  0  0  0  0  0  0  0  0  0  0  0
   -1.7689   -1.0778    2.6969 C   0  0  0  0  0  0  0  0  0  0  0  0
   -1.0501   -1.0090    3.7268 O   0  0  0  0  0  0  0  0  0  0  0  0
   -1.4300   -0.5747    1.4476 N   0  0  0  0  0  0  0  0  0  0  0  0
   -0.4511    0.4447    1.4654 C   0  0  0  0  0  0  0  0  0  0  0  0
   -0.4356    1.4885    0.5379 C   0  0  0  0  0  0  0  0  0  0  0  0
    0.8017    2.0412    0.2111 C   0  0  0  0  0  0  0  0  0  0  0  0
    1.9743    1.5260    0.7588 C   0  0  0  0  0  0  0  0  0  0  0  0
    3.1622    1.8991    0.2696 F   0  0  0  0  0  0  0  0  0  0  0  0
    1.9103    0.5270    1.7086 C   0  0  0  0  0  0  0  0  0  0  0  0
    0.6998    0.1140    2.1933 C   0  0  0  0  0  0  0  0  0  0  0  0
    1.0378   -0.6562    0.2048 H   0  0  0  0  0  0  0  0  0  0  0  0
    0.8240    0.3382   -1.2850 H   0  0  0  0  0  0  0  0  0  0  0  0
    2.2851   -0.6309   -0.8924 H   0  0  0  0  0  0  0  0  0  0  0  0
    0.4565   -1.7880   -2.2396 H   0  0  0  0  0  0  0  0  0  0  0  0
    0.5360   -2.8211    0.7002 H   0  0  0  0  0  0  0  0  0  0  0  0
    0.5593   -3.7917   -0.7970 H   0  0  0  0  0  0  0  0  0  0  0  0
    1.9572   -2.8098   -0.3208 H   0  0  0  0  0  0  0  0  0  0  0  0
   -3.0628   -2.8716   -0.3556 H   0  0  0  0  0  0  0  0  0  0  0  0
   -3.8518   -3.4950    1.9250 H   0  0  0  0  0  0  0  0  0  0  0  0
   -3.7784   -1.1399    6.1175 H   0  0  0  0  0  0  0  0  0  0  0  0
   -3.4836    1.0769    3.2948 H   0  0  0  0  0  0  0  0  0  0  0  0
   -1.7410    2.6612    2.8783 H   0  0  0  0  0  0  0  0  0  0  0  0
   -1.2472    4.8482    3.6906 H   0  0  0  0  0  0  0  0  0  0  0  0
   -2.4379    6.1299    1.1983 H   0  0  0  0  0  0  0  0  0  0  0  0
    2.0204    5.8469   -1.2913 H   0  0  0  0  0  0  0  0  0  0  0  0
    1.2468    4.3282   -1.7577 H   0  0  0  0  0  0  0  0  0  0  0  0
    0.6296    5.8539   -2.4233 H   0  0  0  0  0  0  0  0  0  0  0  0
    2.6635    4.3787    0.6535 H   0  0  0  0  0  0  0  0  0  0  0  0
    4.9116    3.9697    2.1727 H   0  0  0  0  0  0  0  0  0  0  0  0
    4.3345    0.1939    3.3372 H   0  0  0  0  0  0  0  0  0  0  0  0
    2.1879    1.2753    4.1131 H   0  0  0  0  0  0  0  0  0  0  0  0
   -1.5934   -0.0347    7.0193 H   0  0  0  0  0  0  0  0  0  0  0  0
   -1.2982    1.7365   -0.0736 H   0  0  0  0  0  0  0  0  0  0  0  0
    0.8999    2.7008   -0.6344 H   0  0  0  0  0  0  0  0  0  0  0  0
    2.7594   -0.0761    1.9912 H   0  0  0  0  0  0  0  0  0  0  0  0
    0.7569   -0.7373    2.8635 H   0  0  0  0  0  0  0  0  0  0  0  0
  1  2  1  0  0  0  0
  1 45  1  0  0  0  0
  1 46  1  0  0  0  0
  1 47  1  0  0  0  0
  2  3  1  0  0  0  0
  2  4  1  0  0  0  0
  2 48  1  0  0  0  0
  3 49  1  0  0  0  0
  3 50  1  0  0  0  0
  3 51  1  0  0  0  0
  4  5  1  0  0  0  0
  5  6  2  0  0  0  0
  5 37  1  0  0  0  0
  6  7  1  0  0  0  0
  6 52  1  0  0  0  0
  7  8  2  0  0  0  0
  7 53  1  0  0  0  0
  8  9  1  0  0  0  0
  8 35  1  0  0  0  0
  9 10  2  0  0  0  0
  9 11  1  0  0  0  0
 11 12  1  0  0  0  0
 11 54  1  0  0  0  0
 12 13  2  0  0  0  0
 12 34  1  0  0  0  0
 13 14  1  0  0  0  0
 13 55  1  0  0  0  0
 14 15  2  0  0  0  0
 14 56  1  0  0  0  0
 15 16  1  0  0  0  0
 15 32  1  0  0  0  0
 16 17  1  0  0  0  0
 17 18  1  0  0  0  0
 17 26  2  0  0  0  0
 18 19  2  0  0  0  0
 18 57  1  0  0  0  0
 19 20  1  0  0  0  0
 19 24  1  0  0  0  0
 20 21  2  0  0  0  0
 20 58  1  0  0  0  0
 21 22  1  0  0  0  0
 22 23  1  0  0  0  0
 22 24  1  0  0  0  0
 23 59  1  0  0  0  0
 23 60  1  0  0  0  0
 23 61  1  0  0  0  0
 24 25  2  0  0  0  0
 25 26  1  0  0  0  0
 25 62  1  0  0  0  0
 26 27  1  0  0  0  0
 27 28  1  0  0  0  0
 27 31  2  0  0  0  0
 28 29  2  0  0  0  0
 28 63  1  0  0  0  0
 29 30  1  0  0  0  0
 30 31  1  0  0  0  0
 30 64  1  0  0  0  0
 31 65  1  0  0  0  0
 32 33  1  0  0  0  0
 32 34  2  0  0  0  0
 34 66  1  0  0  0  0
 35 36  2  0  0  0  0
 35 37  1  0  0  0  0
 37 38  1  0  0  0  0
 38 39  2  0  0  0  0
 38 44  1  0  0  0  0
 39 40  1  0  0  0  0
 39 67  1  0  0  0  0
 40 41  2  0  0  0  0
 40 68  1  0  0  0  0
 41 42  1  0  0  0  0
 41 43  1  0  0  0  0
 43 44  2  0  0  0  0
 43 69  1  0  0  0  0
 44 70  1  0  0  0  0
M  END
>  <DRUGBANK_ID>
DB18306

>  <COMMON_NAME>
TSN-084

>  <CAS_NUMBER>
2412309-60-3

>  <UNII>
9FJ3MBL7XW

>  <SYNONYMS>
3-PYRIDINECARBOXAMIDE, N-(3-FLUORO-4-((1-METHYL-6-(1H-PYRAZOL-4-YL)-1H-INDAZOL-5-YL)OXY)PHENYL)-1-(4-FLUOROPHENYL)-1,2-DIHYDRO-6-(1-METHYLETHOXY)-2-OXO-; N-[3-fluoro-4-[[1-methyl-6-(1H-pyrazol-4-yl)-1H-indazol-5-yl]oxy]phenyl]-1-(4-fluorophenyl)-1,2-dihydro-6-(1-methylethoxy)-2-oxo-3-pyridinecarboxamide

$$$$
