
 OpenBabel10282417193D

 72 78  0  0  1  0  0  0  0  0999 V2000
    3.5156    0.4941    0.0807 C   0  0  0  0  0  0  0  0  0  0  0  0
    2.8092    1.5869    0.5745 C   0  0  0  0  0  0  0  0  0  0  0  0
    1.3996    1.6128    0.5306 C   0  0  0  0  0  0  0  0  0  0  0  0
    0.6521    0.5447   -0.0041 C   0  0  0  0  0  0  0  0  0  0  0  0
    1.4017   -0.5750   -0.4758 C   0  0  0  0  0  0  0  0  0  0  0  0
    2.8144   -0.5876   -0.4376 C   0  0  0  0  0  0  0  0  0  0  0  0
    0.6873   -1.7729   -1.0547 C   0  0  0  0  0  0  0  0  0  0  0  0
   -0.1057   -2.5773   -0.0201 C   0  0  0  0  0  0  0  0  0  0  0  0
   -0.8936   -1.7530    1.0109 C   0  0  0  0  0  0  0  0  0  0  0  0
   -1.6132   -0.5477    0.4311 C   0  0  0  0  0  0  0  0  0  0  0  0
   -0.8547    0.5392   -0.0205 C   0  0  0  0  0  0  0  0  0  0  0  0
   -1.5412    1.5788   -0.5471 N   0  0  0  0  0  0  0  0  0  0  0  0
   -3.0097    1.5728   -0.6930 N   0  0  0  0  0  0  0  0  0  0  0  0
   -3.7640    0.5443   -0.2571 C   0  0  0  0  0  0  0  0  0  0  0  0
   -3.0541   -0.5187    0.3431 C   0  0  0  0  0  0  0  0  0  0  0  0
   -5.2433    0.5934   -0.2204 N   0  0  0  0  0  0  0  0  0  0  0  0
   -6.0486    0.4032    0.9144 C   0  0  0  0  0  0  0  0  0  0  0  0
   -7.2926    0.4874    0.6122 N   0  0  0  0  0  0  0  0  0  0  0  0
   -7.3933    0.6849   -0.7801 C   0  0  0  0  0  0  0  0  0  0  0  0
   -6.1357    0.7906   -1.3036 N   0  0  0  0  0  0  0  0  0  0  0  0
   -8.7308    0.8492   -1.2816 N   0  0  0  0  0  0  0  0  0  0  0  0
   -9.5652    0.7051   -2.5551 C   0  0  0  0  0  0  0  0  0  0  0  0
   -9.2526   -0.2802   -3.5272 C   0  0  0  0  0  0  0  0  0  0  0  0
   -9.6563   -0.1594   -4.9737 C   0  0  0  0  0  0  0  0  0  0  0  0
  -10.2982    1.0294   -5.6134 C   0  0  0  0  0  0  0  0  0  0  0  0
  -10.5939    2.1145   -4.6401 C   0  0  0  0  0  0  0  0  0  0  0  0
  -10.3775    1.8462   -3.1063 C   0  0  0  0  0  0  0  0  0  0  0  0
  -10.4298    3.7475   -5.1406 C   0  0  0  0  0  0  0  0  0  0  0  0
   -9.0279    4.5145   -5.7670 C   0  0  0  0  0  0  0  0  0  0  0  0
   -8.2109    3.7758   -6.9023 C   0  0  2  0  0  0  0  0  0  0  0  0
   -9.4440    2.9567   -7.7925 C   0  0  0  0  0  0  0  0  0  0  0  0
   -9.7899    1.3872   -7.2859 C   0  0  0  0  0  0  0  0  0  0  0  0
   -7.1056    2.8219   -6.4252 N   0  0  0  0  0  0  0  0  0  0  0  0
   -7.8806    1.9803   -5.6169 C   0  0  0  0  0  0  0  0  0  0  0  0
   -7.8780    2.4344   -4.2276 C   0  0  0  0  0  0  0  0  0  0  0  0
   -6.4855    2.4187   -3.9552 C   0  0  0  0  0  0  0  0  0  0  0  0
   -6.0386    2.8711   -5.3679 C   0  0  0  0  0  0  0  0  0  0  0  0
   -5.5013    0.2016    2.1811 N   0  0  0  0  0  0  0  0  0  0  0  0
    4.6046    0.4846    0.0956 H   0  0  0  0  0  0  0  0  0  0  0  0
    3.3608    2.4268    0.9941 H   0  0  0  0  0  0  0  0  0  0  0  0
    0.8915    2.4823    0.9416 H   0  0  0  0  0  0  0  0  0  0  0  0
    3.3754   -1.4396   -0.8215 H   0  0  0  0  0  0  0  0  0  0  0  0
    0.0196   -1.4185   -1.8485 H   0  0  0  0  0  0  0  0  0  0  0  0
    1.3989   -2.4423   -1.5567 H   0  0  0  0  0  0  0  0  0  0  0  0
   -0.7966   -3.2314   -0.5656 H   0  0  0  0  0  0  0  0  0  0  0  0
    0.5772   -3.2460    0.5230 H   0  0  0  0  0  0  0  0  0  0  0  0
   -1.6080   -2.4132    1.5144 H   0  0  0  0  0  0  0  0  0  0  0  0
   -0.2088   -1.4178    1.8041 H   0  0  0  0  0  0  0  0  0  0  0  0
   -3.5970   -1.3784    0.7263 H   0  0  0  0  0  0  0  0  0  0  0  0
   -9.3893    0.9113   -0.5052 H   0  0  0  0  0  0  0  0  0  0  0  0
   -8.4520   -0.9872   -3.2692 H   0  0  0  0  0  0  0  0  0  0  0  0
   -9.0931   -0.8487   -5.6232 H   0  0  0  0  0  0  0  0  0  0  0  0
  -10.5059    2.7142   -2.4502 H   0  0  0  0  0  0  0  0  0  0  0  0
  -11.2179    3.9287   -5.8822 H   0  0  0  0  0  0  0  0  0  0  0  0
  -10.6979    4.3628   -4.2694 H   0  0  0  0  0  0  0  0  0  0  0  0
   -9.3117    5.5063   -6.1561 H   0  0  0  0  0  0  0  0  0  0  0  0
   -8.3153    4.8032   -4.9789 H   0  0  0  0  0  0  0  0  0  0  0  0
   -7.7058    4.5009   -7.5604 H   0  0  0  0  0  0  0  0  0  0  0  0
   -9.1295    2.9639   -8.8512 H   0  0  0  0  0  0  0  0  0  0  0  0
  -10.3632    3.5603   -7.7812 H   0  0  0  0  0  0  0  0  0  0  0  0
   -8.7320    1.1073   -7.3910 H   0  0  0  0  0  0  0  0  0  0  0  0
  -10.0152    0.5495   -7.9722 H   0  0  0  0  0  0  0  0  0  0  0  0
   -7.6892    0.9264   -5.8132 H   0  0  0  0  0  0  0  0  0  0  0  0
   -8.8423    2.2737   -5.8319 H   0  0  0  0  0  0  0  0  0  0  0  0
   -8.4124    3.3148   -3.8742 H   0  0  0  0  0  0  0  0  0  0  0  0
   -8.2937    1.6276   -3.7505 H   0  0  0  0  0  0  0  0  0  0  0  0
   -6.3888    3.0628   -3.0861 H   0  0  0  0  0  0  0  0  0  0  0  0
   -6.3272    1.3535   -3.7049 H   0  0  0  0  0  0  0  0  0  0  0  0
   -5.5144    3.8057   -5.3106 H   0  0  0  0  0  0  0  0  0  0  0  0
   -5.3654    2.0379   -5.6332 H   0  0  0  0  0  0  0  0  0  0  0  0
   -6.1462    0.2599    2.9681 H   0  0  0  0  0  0  0  0  0  0  0  0
   -4.5441    0.3590    2.4223 H   0  0  0  0  0  0  0  0  0  0  0  0
  1  2  2  0  0  0  0
  1  6  1  0  0  0  0
  1 39  1  0  0  0  0
  2  3  1  0  0  0  0
  2 40  1  0  0  0  0
  3  4  2  0  0  0  0
  3 41  1  0  0  0  0
  4  5  1  0  0  0  0
  4 11  1  0  0  0  0
  5  6  2  0  0  0  0
  5  7  1  0  0  0  0
  6 42  1  0  0  0  0
  7  8  1  0  0  0  0
  7 43  1  0  0  0  0
  7 44  1  0  0  0  0
  8  9  1  0  0  0  0
  8 45  1  0  0  0  0
  8 46  1  0  0  0  0
  9 10  1  0  0  0  0
  9 47  1  0  0  0  0
  9 48  1  0  0  0  0
 10 11  2  0  0  0  0
 10 15  1  0  0  0  0
 11 12  1  0  0  0  0
 12 13  2  0  0  0  0
 13 14  1  0  0  0  0
 14 15  2  0  0  0  0
 14 16  1  0  0  0  0
 15 49  1  0  0  0  0
 16 17  1  0  0  0  0
 16 20  1  0  0  0  0
 17 18  2  0  0  0  0
 17 38  1  0  0  0  0
 18 19  1  0  0  0  0
 19 20  2  0  0  0  0
 19 21  1  0  0  0  0
 21 22  1  0  0  0  0
 21 50  1  0  0  0  0
 22 23  2  0  0  0  0
 22 27  1  0  0  0  0
 23 24  1  0  0  0  0
 23 51  1  0  0  0  0
 24 25  2  0  0  0  0
 24 52  1  0  0  0  0
 25 26  1  0  0  0  0
 25 32  1  0  0  0  0
 26 27  2  0  0  0  0
 26 28  1  0  0  0  0
 27 53  1  0  0  0  0
 28 29  1  0  0  0  0
 28 54  1  0  0  0  0
 28 55  1  0  0  0  0
 29 30  1  0  0  0  0
 29 56  1  0  0  0  0
 29 57  1  0  0  0  0
 30 31  1  0  0  0  0
 30 58  1  6  0  0  0
 30 33  1  0  0  0  0
 31 32  1  0  0  0  0
 31 59  1  0  0  0  0
 31 60  1  0  0  0  0
 32 61  1  0  0  0  0
 32 62  1  0  0  0  0
 33 34  1  0  0  0  0
 33 37  1  0  0  0  0
 34 35  1  0  0  0  0
 34 63  1  0  0  0  0
 34 64  1  0  0  0  0
 35 36  1  0  0  0  0
 35 65  1  0  0  0  0
 35 66  1  0  0  0  0
 36 37  1  0  0  0  0
 36 67  1  0  0  0  0
 36 68  1  0  0  0  0
 37 69  1  0  0  0  0
 37 70  1  0  0  0  0
 38 71  1  0  0  0  0
 38 72  1  0  0  0  0
M  END
>  <DRUGBANK_ID>
DB12411

>  <COMMON_NAME>
Bemcentinib

>  <CAS_NUMBER>
1037624-75-1

>  <UNII>
0ICW2LX8AS

>  <SYNONYMS>
(S)-1-(6,7-dihydro-5H-benzo[6,7]cyclohepta[1,2-c]pyridazin-3-yl)-N3-(7-(pyrrolidin-1-yl)- 6,7,8,9-tetrahydro-5H-benzo[7]annulen-2-yl)-1H-1,2,4-triazole-3,5-diamine; Bemcentinib

$$$$
