
 OpenBabel10282417183D

 50 50  0  0  1  0  0  0  0  0999 V2000
    1.0256   -1.1403   -0.9126 C   0  0  0  0  0  0  0  0  0  0  0  0
    0.7603   -0.4488   -2.1901 N   0  0  0  0  0  0  0  0  0  0  0  0
   -0.6902   -0.3858   -2.3489 C   0  0  0  0  0  0  0  0  0  0  0  0
    1.2744    1.0257   -2.4589 C   0  0  0  0  0  0  0  0  0  0  0  0
    0.8484    2.5231   -1.7468 C   0  0  0  0  0  0  0  0  0  0  0  0
    1.3744    2.8718   -0.3008 C   0  0  1  0  0  0  0  0  0  0  0  0
    2.8674    2.6910   -0.2193 C   0  0  0  0  0  0  0  0  0  0  0  0
    3.5376    1.4432   -0.2158 C   0  0  0  0  0  0  0  0  0  0  0  0
    4.9086    1.3393   -0.0822 C   0  0  0  0  0  0  0  0  0  0  0  0
    5.6291    2.5116   -0.0198 C   0  0  0  0  0  0  0  0  0  0  0  0
    4.9856    3.7447   -0.0476 C   0  0  0  0  0  0  0  0  0  0  0  0
    3.6174    3.8275   -0.1168 C   0  0  0  0  0  0  0  0  0  0  0  0
    7.3349    2.4520    0.0350 Cl  0  0  0  0  0  0  0  0  0  0  0  0
    0.6199    4.0091    0.3980 C   0  0  0  0  0  0  0  0  0  0  0  0
   -0.2409    3.8520    1.5278 C   0  0  0  0  0  0  0  0  0  0  0  0
   -0.6425    4.9844    2.2253 C   0  0  0  0  0  0  0  0  0  0  0  0
   -0.1284    6.2050    1.8165 C   0  0  0  0  0  0  0  0  0  0  0  0
    0.6840    6.2566    0.6993 C   0  0  0  0  0  0  0  0  0  0  0  0
    0.9770    5.2062   -0.0611 N   0  0  0  0  0  0  0  0  0  0  0  0
    0.5622    0.4486    1.3545 C   0  0  0  0  0  0  0  0  0  0  0  0
   -0.3610    0.9013    0.4540 C   0  0  0  0  0  0  0  0  0  0  0  0
   -1.7993    0.8918    0.0118 C   0  0  0  0  0  0  0  0  0  0  0  0
   -2.2845    1.3272   -1.0209 O   0  0  0  0  0  0  0  0  0  0  0  0
   -2.6058    0.1512    0.7494 O   0  0  0  0  0  0  0  0  0  0  0  0
    0.2865   -0.6792    2.2206 C   0  0  0  0  0  0  0  0  0  0  0  0
    1.0685   -1.3480    2.7966 O   0  0  0  0  0  0  0  0  0  0  0  0
   -0.9984   -0.8894    1.9696 O   0  0  0  0  0  0  0  0  0  0  0  0
    0.9561   -2.2124   -0.6613 H   0  0  0  0  0  0  0  0  0  0  0  0
    0.1712   -0.9654   -0.2866 H   0  0  0  0  0  0  0  0  0  0  0  0
    1.9627   -0.8501   -0.4778 H   0  0  0  0  0  0  0  0  0  0  0  0
   -0.8829    0.6648   -2.2284 H   0  0  0  0  0  0  0  0  0  0  0  0
   -1.1426   -0.5821   -3.3110 H   0  0  0  0  0  0  0  0  0  0  0  0
   -1.2421   -0.9780   -1.6027 H   0  0  0  0  0  0  0  0  0  0  0  0
    2.3632    0.9852   -2.5142 H   0  0  0  0  0  0  0  0  0  0  0  0
    0.9482    1.1655   -3.5073 H   0  0  0  0  0  0  0  0  0  0  0  0
    1.1938    3.3454   -2.4033 H   0  0  0  0  0  0  0  0  0  0  0  0
   -0.2459    2.6751   -1.7840 H   0  0  0  0  0  0  0  0  0  0  0  0
    1.2256    2.2700    0.5564 H   0  0  0  0  0  0  0  0  0  0  0  0
    3.0646    0.4912   -0.3510 H   0  0  0  0  0  0  0  0  0  0  0  0
    5.3750    0.3563   -0.0740 H   0  0  0  0  0  0  0  0  0  0  0  0
    5.5141    4.6831   -0.0428 H   0  0  0  0  0  0  0  0  0  0  0  0
    3.1359    4.7914   -0.1285 H   0  0  0  0  0  0  0  0  0  0  0  0
   -0.5809    2.8971    1.9307 H   0  0  0  0  0  0  0  0  0  0  0  0
   -1.2988    4.9183    3.0931 H   0  0  0  0  0  0  0  0  0  0  0  0
   -0.3499    7.1193    2.3438 H   0  0  0  0  0  0  0  0  0  0  0  0
    1.1857    7.1522    0.3640 H   0  0  0  0  0  0  0  0  0  0  0  0
    1.6518    0.5150    1.2209 H   0  0  0  0  0  0  0  0  0  0  0  0
    0.1943    1.0969   -0.4351 H   0  0  0  0  0  0  0  0  0  0  0  0
   -3.2984   -0.0178    0.0804 H   0  0  0  0  0  0  0  0  0  0  0  0
   -1.6025   -1.4069    2.4853 H   0  0  0  0  0  0  0  0  0  0  0  0
  1  2  1  0  0  0  0
  1 28  1  0  0  0  0
  1 29  1  0  0  0  0
  1 30  1  0  0  0  0
  2  3  1  0  0  0  0
  2  4  1  0  0  0  0
  3 31  1  0  0  0  0
  3 32  1  0  0  0  0
  3 33  1  0  0  0  0
  4  5  1  0  0  0  0
  4 34  1  0  0  0  0
  4 35  1  0  0  0  0
  5 36  1  0  0  0  0
  5 37  1  0  0  0  0
  6  5  1  0  0  0  0
  6  7  1  0  0  0  0
  6 14  1  0  0  0  0
  6 38  1  1  0  0  0
  7  8  2  0  0  0  0
  7 12  1  0  0  0  0
  8  9  1  0  0  0  0
  8 39  1  0  0  0  0
  9 10  2  0  0  0  0
  9 40  1  0  0  0  0
 10 11  1  0  0  0  0
 10 13  1  0  0  0  0
 11 12  2  0  0  0  0
 11 41  1  0  0  0  0
 12 42  1  0  0  0  0
 14 15  2  0  0  0  0
 14 19  1  0  0  0  0
 15 16  1  0  0  0  0
 15 43  1  0  0  0  0
 16 17  2  0  0  0  0
 16 44  1  0  0  0  0
 17 18  1  0  0  0  0
 17 45  1  0  0  0  0
 18 19  2  0  0  0  0
 18 46  1  0  0  0  0
 20 21  2  0  0  0  0
 20 25  1  0  0  0  0
 20 47  1  0  0  0  0
 21 22  1  0  0  0  0
 21 48  1  0  0  0  0
 22 23  2  0  0  0  0
 22 24  1  0  0  0  0
 24 49  1  0  0  0  0
 25 26  2  0  0  0  0
 25 27  1  0  0  0  0
 27 50  1  0  0  0  0
M  END
>  <DRUGBANK_ID>
DB09555

>  <COMMON_NAME>
Dexchlorpheniramine maleate

>  <CAS_NUMBER>
2438-32-6

>  <UNII>
B10YD955QW

>  <SYNONYMS>
Dexchlorpheniramine maleate

$$$$
