
 OpenBabel10282417203D

 79 81  0  0  1  0  0  0  0  0999 V2000
   -0.2836   -2.1598   -0.2872 C   0  0  0  0  0  0  0  0  0  0  0  0
    0.3206   -2.2354   -1.6850 C   0  0  0  0  0  0  0  0  0  0  0  0
    0.8172   -0.8861   -2.3008 C   0  0  2  0  0  0  0  0  0  0  0  0
    0.2773    0.2958   -1.4084 C   0  0  0  0  0  0  0  0  0  0  0  0
    1.1407    1.5301   -1.2885 C   0  0  0  0  0  0  0  0  0  0  0  0
    1.3760    2.1569   -2.6351 C   0  0  1  0  0  0  0  0  0  0  0  0
    0.0364    2.7597   -3.1386 C   0  0  0  0  0  0  0  0  0  0  0  0
    2.4947    3.1298   -2.8633 C   0  0  1  0  0  0  0  0  0  0  0  0
    2.2337    4.3790   -2.0286 C   0  0  0  0  0  0  0  0  0  0  0  0
    3.5597    4.7184   -1.3985 C   0  0  0  0  0  0  0  0  0  0  0  0
    4.5691    3.9658   -2.2610 C   0  0  2  0  0  0  0  0  0  0  0  0
    3.9238    2.6120   -2.5603 C   0  0  2  0  0  0  0  0  0  0  0  0
    4.6522    1.9007   -3.7419 C   0  0  0  0  0  0  0  0  0  0  0  0
    6.1077    1.6378   -3.3635 C   0  0  0  0  0  0  0  0  0  0  0  0
    6.7180    2.9061   -2.8116 C   0  0  0  0  0  0  0  0  0  0  0  0
    5.9397    3.7010   -1.7869 C   0  0  0  0  0  0  0  0  0  0  0  0
    6.4531    4.1909   -0.6246 C   0  0  0  0  0  0  0  0  0  0  0  0
    7.8637    4.1736   -0.3473 C   0  0  0  0  0  0  0  0  0  0  0  0
    8.8337    4.5519   -1.2203 C   0  0  0  0  0  0  0  0  0  0  0  0
   10.2851    4.3604   -0.8687 C   0  0  0  0  0  0  0  0  0  0  0  0
   11.0678    3.5947   -1.9494 C   0  0  2  0  0  0  0  0  0  0  0  0
   10.8339    4.1391   -3.3602 C   0  0  0  0  0  0  0  0  0  0  0  0
    9.3561    4.2251   -3.6798 C   0  0  1  0  0  0  0  0  0  0  0  0
    8.6048    5.0243   -2.6070 C   0  0  0  0  0  0  0  0  0  0  0  0
    7.6799    5.9604   -2.9083 C   0  0  0  0  0  0  0  0  0  0  0  0
    9.1591    4.7529   -4.9880 O   0  0  0  0  0  0  0  0  0  0  0  0
   10.7798    2.1936   -1.8949 O   0  0  0  0  0  0  0  0  0  0  0  0
    4.0594    1.6529   -1.3563 C   0  0  0  0  0  0  0  0  0  0  0  0
    0.4030   -0.8847   -3.8460 C   0  0  0  0  0  0  0  0  0  0  0  0
    0.8498    0.2451   -4.7609 C   0  0  0  0  0  0  0  0  0  0  0  0
    0.9303   -2.0844   -4.6253 C   0  0  0  0  0  0  0  0  0  0  0  0
    0.4710   -1.8601    0.4493 H   0  0  0  0  0  0  0  0  0  0  0  0
   -0.6994   -3.1178    0.0213 H   0  0  0  0  0  0  0  0  0  0  0  0
   -1.1177   -1.4463   -0.2683 H   0  0  0  0  0  0  0  0  0  0  0  0
    1.1548   -2.9484   -1.6750 H   0  0  0  0  0  0  0  0  0  0  0  0
   -0.4541   -2.6643   -2.3275 H   0  0  0  0  0  0  0  0  0  0  0  0
    1.9174   -0.8901   -2.2447 H   0  0  0  0  0  0  0  0  0  0  0  0
   -0.7582    0.5315   -1.6505 H   0  0  0  0  0  0  0  0  0  0  0  0
    0.2847    0.0132   -0.3534 H   0  0  0  0  0  0  0  0  0  0  0  0
    0.7545    2.2503   -0.5624 H   0  0  0  0  0  0  0  0  0  0  0  0
    2.0135    1.1196   -0.8076 H   0  0  0  0  0  0  0  0  0  0  0  0
    1.7890    1.3349   -3.1882 H   0  0  0  0  0  0  0  0  0  0  0  0
   -0.2916    3.6110   -2.5419 H   0  0  0  0  0  0  0  0  0  0  0  0
    0.1144    3.0910   -4.1819 H   0  0  0  0  0  0  0  0  0  0  0  0
   -0.7866    2.0359   -3.0931 H   0  0  0  0  0  0  0  0  0  0  0  0
    2.4839    3.4181   -3.9310 H   0  0  0  0  0  0  0  0  0  0  0  0
    1.4877    4.2151   -1.2465 H   0  0  0  0  0  0  0  0  0  0  0  0
    1.8432    5.1757   -2.6724 H   0  0  0  0  0  0  0  0  0  0  0  0
    3.5537    4.3684   -0.3612 H   0  0  0  0  0  0  0  0  0  0  0  0
    3.7150    5.7993   -1.3986 H   0  0  0  0  0  0  0  0  0  0  0  0
    4.6584    4.5438   -3.1973 H   0  0  0  0  0  0  0  0  0  0  0  0
    4.6331    2.5173   -4.6497 H   0  0  0  0  0  0  0  0  0  0  0  0
    4.1908    0.9403   -3.9945 H   0  0  0  0  0  0  0  0  0  0  0  0
    6.6966    1.3102   -4.2286 H   0  0  0  0  0  0  0  0  0  0  0  0
    6.2113    0.8379   -2.6221 H   0  0  0  0  0  0  0  0  0  0  0  0
    6.8337    3.5561   -3.6861 H   0  0  0  0  0  0  0  0  0  0  0  0
    7.6734    2.5911   -2.4014 H   0  0  0  0  0  0  0  0  0  0  0  0
    5.8223    4.6957    0.0972 H   0  0  0  0  0  0  0  0  0  0  0  0
    8.1170    3.8159    0.6507 H   0  0  0  0  0  0  0  0  0  0  0  0
   10.3788    3.8251    0.0851 H   0  0  0  0  0  0  0  0  0  0  0  0
   10.7214    5.3559   -0.7347 H   0  0  0  0  0  0  0  0  0  0  0  0
   12.1339    3.6842   -1.7246 H   0  0  0  0  0  0  0  0  0  0  0  0
   11.2751    5.1347   -3.4687 H   0  0  0  0  0  0  0  0  0  0  0  0
   11.3110    3.4896   -4.1042 H   0  0  0  0  0  0  0  0  0  0  0  0
    8.9969    3.1947   -3.7470 H   0  0  0  0  0  0  0  0  0  0  0  0
    7.0621    6.4269   -2.1467 H   0  0  0  0  0  0  0  0  0  0  0  0
    7.3823    6.1489   -3.9357 H   0  0  0  0  0  0  0  0  0  0  0  0
    9.3447    5.7034   -4.9416 H   0  0  0  0  0  0  0  0  0  0  0  0
    9.8199    2.0588   -1.9809 H   0  0  0  0  0  0  0  0  0  0  0  0
    3.5759    2.0670   -0.4709 H   0  0  0  0  0  0  0  0  0  0  0  0
    3.6776    0.6634   -1.6372 H   0  0  0  0  0  0  0  0  0  0  0  0
    5.0780    1.4510   -1.0193 H   0  0  0  0  0  0  0  0  0  0  0  0
   -0.6936   -0.8753   -3.8583 H   0  0  0  0  0  0  0  0  0  0  0  0
    1.9420    0.3458   -4.8171 H   0  0  0  0  0  0  0  0  0  0  0  0
    0.4617    0.2251   -5.7798 H   0  0  0  0  0  0  0  0  0  0  0  0
    0.3736    1.1216   -4.4134 H   0  0  0  0  0  0  0  0  0  0  0  0
    0.5681   -3.0360   -4.2487 H   0  0  0  0  0  0  0  0  0  0  0  0
    0.6052   -1.9985   -5.6714 H   0  0  0  0  0  0  0  0  0  0  0  0
    2.0267   -2.0774   -4.6240 H   0  0  0  0  0  0  0  0  0  0  0  0
  1  2  1  0  0  0  0
  1 32  1  0  0  0  0
  1 33  1  0  0  0  0
  1 34  1  0  0  0  0
  2 35  1  0  0  0  0
  2 36  1  0  0  0  0
  3 29  1  0  0  0  0
  3 37  1  1  0  0  0
  3  4  1  0  0  0  0
  3  2  1  0  0  0  0
  4  5  1  0  0  0  0
  4 38  1  0  0  0  0
  4 39  1  0  0  0  0
  5  6  1  0  0  0  0
  5 40  1  0  0  0  0
  5 41  1  0  0  0  0
  6  7  1  0  0  0  0
  6 42  1  6  0  0  0
  7 43  1  0  0  0  0
  7 44  1  0  0  0  0
  7 45  1  0  0  0  0
  8  6  1  0  0  0  0
  8  9  1  0  0  0  0
  8 12  1  0  0  0  0
  8 46  1  6  0  0  0
  9 10  1  0  0  0  0
  9 47  1  0  0  0  0
  9 48  1  0  0  0  0
 10 49  1  0  0  0  0
 10 50  1  0  0  0  0
 11 10  1  0  0  0  0
 11 12  1  0  0  0  0
 11 16  1  0  0  0  0
 11 51  1  6  0  0  0
 12 13  1  0  0  0  0
 12 28  1  1  0  0  0
 13 14  1  0  0  0  0
 13 52  1  0  0  0  0
 13 53  1  0  0  0  0
 14 15  1  0  0  0  0
 14 54  1  0  0  0  0
 14 55  1  0  0  0  0
 15 16  1  0  0  0  0
 15 56  1  0  0  0  0
 15 57  1  0  0  0  0
 16 17  2  0  0  0  0
 17 18  1  0  0  0  0
 17 58  1  0  0  0  0
 18 19  2  0  0  0  0
 18 59  1  0  0  0  0
 19 20  1  0  0  0  0
 19 24  1  0  0  0  0
 20 21  1  0  0  0  0
 20 60  1  0  0  0  0
 20 61  1  0  0  0  0
 21 22  1  0  0  0  0
 21 27  1  0  0  0  0
 21 62  1  1  0  0  0
 22 23  1  0  0  0  0
 22 63  1  0  0  0  0
 22 64  1  0  0  0  0
 23 24  1  0  0  0  0
 23 26  1  0  0  0  0
 23 65  1  1  0  0  0
 24 25  2  0  0  0  0
 25 66  1  0  0  0  0
 25 67  1  0  0  0  0
 26 68  1  0  0  0  0
 27 69  1  0  0  0  0
 28 70  1  0  0  0  0
 28 71  1  0  0  0  0
 28 72  1  0  0  0  0
 29 30  1  0  0  0  0
 29 31  1  0  0  0  0
 29 73  1  0  0  0  0
 30 74  1  0  0  0  0
 30 75  1  0  0  0  0
 30 76  1  0  0  0  0
 31 77  1  0  0  0  0
 31 78  1  0  0  0  0
 31 79  1  0  0  0  0
M  END
>  <DRUGBANK_ID>
DB13097

>  <COMMON_NAME>
1alpha-Hydroxyvitamin D5

>  <CAS_NUMBER>
187935-17-7

>  <UNII>
XY02042OD4

>  <SYNONYMS>
1-Hydroxyvitamin D5; 1alpha-Hydroxy-24-ethylcholecalciferol

$$$$
