
 OpenBabel10282417123D

 18 17  0  0  0  0  0  0  0  0999 V2000
    0.9492   -0.0810    0.0294 C   0  0  0  0  0  0  0  0  0  0  0  0
    0.4426    1.1436    0.7738 C   0  0  0  0  0  0  0  0  0  0  0  0
    0.9492    2.4005    0.0856 C   0  0  0  0  0  0  0  0  0  0  0  0
    0.4426    2.4330   -1.3471 C   0  0  0  0  0  0  0  0  0  0  0  0
   -1.1574    2.4330   -1.3471 B   0  0  0  0  0  0  0  0  0  0  0  0
   -1.9074    3.5724   -1.9710 O   0  0  0  0  0  0  0  0  0  0  0  0
   -1.9074    1.2936   -0.7232 O   0  0  0  0  0  0  0  0  0  0  0  0
    0.5926   -0.0582   -0.9791 H   0  0  0  0  0  0  0  0  0  0  0  0
    0.5926   -0.9658    0.5139 H   0  0  0  0  0  0  0  0  0  0  0  0
    2.0192   -0.0810    0.0294 H   0  0  0  0  0  0  0  0  0  0  0  0
   -0.6274    1.1436    0.7738 H   0  0  0  0  0  0  0  0  0  0  0  0
    0.7992    1.1207    1.7824 H   0  0  0  0  0  0  0  0  0  0  0  0
    0.5926    3.2625    0.6096 H   0  0  0  0  0  0  0  0  0  0  0  0
    2.0192    2.4005    0.0856 H   0  0  0  0  0  0  0  0  0  0  0  0
    0.7992    3.3178   -1.8316 H   0  0  0  0  0  0  0  0  0  0  0  0
    0.7992    1.5710   -1.8712 H   0  0  0  0  0  0  0  0  0  0  0  0
   -1.2576    4.2391   -2.3361 H   0  0  0  0  0  0  0  0  0  0  0  0
   -2.8906    1.4538   -0.8110 H   0  0  0  0  0  0  0  0  0  0  0  0
  1  2  1  0  0  0  0
  1  8  1  0  0  0  0
  1  9  1  0  0  0  0
  1 10  1  0  0  0  0
  2  3  1  0  0  0  0
  2 11  1  0  0  0  0
  2 12  1  0  0  0  0
  3  4  1  0  0  0  0
  3 13  1  0  0  0  0
  3 14  1  0  0  0  0
  4  5  1  0  0  0  0
  4 15  1  0  0  0  0
  4 16  1  0  0  0  0
  5  6  1  0  0  0  0
  5  7  1  0  0  0  0
  6 17  1  0  0  0  0
  7 18  1  0  0  0  0
M  END
>  <DRUGBANK_ID>
DB02664

>  <SECONDARY_ACCESSION_NUMBERS>
EXPT00775

>  <COMMON_NAME>
1-Butane Boronic Acid

$$$$
