
 OpenBabel10282417213D

 36 35  0  0  0  0  0  0  0  0999 V2000
    1.7157    0.0612    0.9205 C   0  0  0  0  0  0  0  0  0  0  0  0
    0.7715    0.4447    2.0278 N   0  3  0  0  0  0  0  0  0  0  0  0
    1.1277    1.9122    2.2664 C   0  0  0  0  0  0  0  0  0  0  0  0
   -0.7615    0.4866    1.9761 C   0  0  0  0  0  0  0  0  0  0  0  0
    1.1343   -0.5720    3.0762 C   0  0  0  0  0  0  0  0  0  0  0  0
    0.6340   -2.0132    2.7164 C   0  0  0  0  0  0  0  0  0  0  0  0
    1.3262   -2.6283    1.6294 O   0  0  0  0  0  0  0  0  0  0  0  0
   -2.1599    0.1213   -0.6266 C   0  0  0  0  0  0  0  0  0  0  0  0
   -1.5649   -1.1309   -0.6988 C   0  0  0  0  0  0  0  0  0  0  0  0
   -0.2704   -1.2151   -1.2035 C   0  0  0  0  0  0  0  0  0  0  0  0
    0.4763   -0.0418   -1.5377 C   0  0  0  0  0  0  0  0  0  0  0  0
   -0.0275    1.2536   -1.2377 C   0  0  0  0  0  0  0  0  0  0  0  0
   -1.3972    1.2844   -0.8782 C   0  0  0  0  0  0  0  0  0  0  0  0
    0.8076    2.5742   -0.9302 C   0  0  0  0  0  0  0  0  0  0  0  0
    0.1143    3.5887   -0.5307 O   0  0  0  0  0  0  0  0  0  0  0  0
    2.0669    2.5345   -0.8135 O   0  5  0  0  0  0  0  0  0  0  0  0
    1.7548   -0.2723   -1.9907 O   0  0  0  0  0  0  0  0  0  0  0  0
    1.9020    0.8557    0.2467 H   0  0  0  0  0  0  0  0  0  0  0  0
    1.3754   -0.8204    0.4279 H   0  0  0  0  0  0  0  0  0  0  0  0
    2.7212   -0.1642    1.2926 H   0  0  0  0  0  0  0  0  0  0  0  0
    0.5502    2.5188    1.5644 H   0  0  0  0  0  0  0  0  0  0  0  0
    0.8162    2.1731    3.2715 H   0  0  0  0  0  0  0  0  0  0  0  0
    2.1934    2.0632    2.0918 H   0  0  0  0  0  0  0  0  0  0  0  0
   -1.1963   -0.4667    1.6870 H   0  0  0  0  0  0  0  0  0  0  0  0
   -1.1126    0.6942    2.9944 H   0  0  0  0  0  0  0  0  0  0  0  0
   -1.1451    1.3270    1.4061 H   0  0  0  0  0  0  0  0  0  0  0  0
    2.2245   -0.5681    3.1463 H   0  0  0  0  0  0  0  0  0  0  0  0
    0.7010   -0.2111    4.0031 H   0  0  0  0  0  0  0  0  0  0  0  0
    0.8234   -2.6482    3.5772 H   0  0  0  0  0  0  0  0  0  0  0  0
   -0.4373   -2.0774    2.5024 H   0  0  0  0  0  0  0  0  0  0  0  0
    0.8153   -2.4618    0.8165 H   0  0  0  0  0  0  0  0  0  0  0  0
   -3.1539    0.2169   -0.1914 H   0  0  0  0  0  0  0  0  0  0  0  0
   -2.0718   -2.0055   -0.2864 H   0  0  0  0  0  0  0  0  0  0  0  0
    0.2062   -2.1973   -1.2038 H   0  0  0  0  0  0  0  0  0  0  0  0
   -1.8260    2.2428   -0.5672 H   0  0  0  0  0  0  0  0  0  0  0  0
    2.3844   -0.5295   -1.2941 H   0  0  0  0  0  0  0  0  0  0  0  0
  1  2  1  0  0  0  0
  1 18  1  0  0  0  0
  1 19  1  0  0  0  0
  1 20  1  0  0  0  0
  2  3  1  0  0  0  0
  2  4  1  0  0  0  0
  2  5  1  0  0  0  0
  3 21  1  0  0  0  0
  3 22  1  0  0  0  0
  3 23  1  0  0  0  0
  4 24  1  0  0  0  0
  4 25  1  0  0  0  0
  4 26  1  0  0  0  0
  5  6  1  0  0  0  0
  5 27  1  0  0  0  0
  5 28  1  0  0  0  0
  6  7  1  0  0  0  0
  6 29  1  0  0  0  0
  6 30  1  0  0  0  0
  7 31  1  0  0  0  0
  8  9  2  0  0  0  0
  8 13  1  0  0  0  0
  8 32  1  0  0  0  0
  9 10  1  0  0  0  0
  9 33  1  0  0  0  0
 10 11  2  0  0  0  0
 10 34  1  0  0  0  0
 11 12  1  0  0  0  0
 11 17  1  0  0  0  0
 12 13  2  0  0  0  0
 12 14  1  0  0  0  0
 13 35  1  0  0  0  0
 14 15  2  0  0  0  0
 14 16  1  0  0  0  0
 17 36  1  0  0  0  0
M  CHG  2   2   1  16  -1
M  END
>  <DRUGBANK_ID>
DB14006

>  <SECONDARY_ACCESSION_NUMBERS>
DBSALT001576

>  <COMMON_NAME>
Choline salicylate

>  <CAS_NUMBER>
2016-36-6

>  <UNII>
KD510K1IQW

>  <SYNONYMS>
Choline salicylate

$$$$
