59A
 OpenBabel10282417163D

 38 38  0  0  0  0  0  0  0  0999 V2000
   -5.9337    0.3856    2.9133 C   0  0  1  0  0  0  0  0  0  0  0  0
   -5.8869   -0.2613    4.1545 O   0  0  0  0  0  0  0  0  0  0  0  0
   -5.2533   -1.1894    3.2660 C   0  0  2  0  0  0  0  0  0  0  0  0
   -3.6931   -1.3622    3.0595 C   0  0  0  0  0  0  0  0  0  0  0  0
   -2.8979   -0.7881    3.7624 O   0  0  0  0  0  0  0  0  0  0  0  0
   -3.1669   -2.1879    1.9776 N   0  0  0  0  0  0  0  0  0  0  0  0
   -3.8052   -2.6558    0.6945 C   0  0  2  0  0  0  0  0  0  0  0  0
   -3.0245   -3.3661   -0.4682 C   0  0  0  0  0  0  0  0  0  0  0  0
   -2.5110   -4.5742   -0.1920 O   0  0  0  0  0  0  0  0  0  0  0  0
   -4.4377   -1.5139   -0.1106 C   0  0  2  0  0  0  0  0  0  0  0  0
   -3.5313   -0.2812   -0.4362 C   0  0  0  0  0  0  0  0  0  0  0  0
   -5.5559   -0.9989    0.6397 C   0  0  0  0  0  0  0  0  0  0  0  0
   -2.9993    0.6200    0.6985 C   0  0  0  0  0  0  0  0  0  0  0  0
   -2.9665   -2.9412   -1.6167 O   0  0  0  0  0  0  0  0  0  0  0  0
   -7.1364    0.6068    1.9391 C   0  0  0  0  0  0  0  0  0  0  0  0
   -6.9987    1.5179    1.1221 O   0  0  0  0  0  0  0  0  0  0  0  0
   -8.1598   -0.3148    1.8021 O   0  0  0  0  0  0  0  0  0  0  0  0
   -9.0869   -0.1181    0.6509 C   0  0  0  0  0  0  0  0  0  0  0  0
   -9.7090    1.2773    0.6036 C   0  0  0  0  0  0  0  0  0  0  0  0
   -5.2186    1.1875    2.7352 H   0  0  0  0  0  0  0  0  0  0  0  0
   -5.7857   -2.1178    3.1576 H   0  0  0  0  0  0  0  0  0  0  0  0
   -4.5756   -3.3697    1.0279 H   0  0  0  0  0  0  0  0  0  0  0  0
   -4.9456   -1.8936   -1.0055 H   0  0  0  0  0  0  0  0  0  0  0  0
   -2.1508   -2.1078    1.9181 H   0  0  0  0  0  0  0  0  0  0  0  0
   -2.6966   -4.9101    0.6975 H   0  0  0  0  0  0  0  0  0  0  0  0
   -2.6725   -0.6159   -1.0100 H   0  0  0  0  0  0  0  0  0  0  0  0
   -4.1329    0.3751   -1.0779 H   0  0  0  0  0  0  0  0  0  0  0  0
   -6.0633   -0.2456    0.0642 H   0  0  0  0  0  0  0  0  0  0  0  0
   -6.2262   -1.7368    1.0900 H   0  0  0  0  0  0  0  0  0  0  0  0
   -4.9819   -0.4750    1.3655 H   0  0  0  0  0  0  0  0  0  0  0  0
   -2.4067    0.0731    1.4282 H   0  0  0  0  0  0  0  0  0  0  0  0
   -2.3379    1.3900    0.2986 H   0  0  0  0  0  0  0  0  0  0  0  0
   -3.7853    1.1674    1.2270 H   0  0  0  0  0  0  0  0  0  0  0  0
   -8.6070   -0.3685   -0.3109 H   0  0  0  0  0  0  0  0  0  0  0  0
   -9.9057   -0.8442    0.7637 H   0  0  0  0  0  0  0  0  0  0  0  0
   -8.9872    2.0404    0.3008 H   0  0  0  0  0  0  0  0  0  0  0  0
  -10.5309    1.3537   -0.1169 H   0  0  0  0  0  0  0  0  0  0  0  0
  -10.0659    1.5439    1.5999 H   0  0  0  0  0  0  0  0  0  0  0  0
  1  2  1  0  0  0  0
  1  3  1  0  0  0  0
  1 15  1  0  0  0  0
  1 20  1  6  0  0  0
  2  3  1  0  0  0  0
  3 21  1  6  0  0  0
  3  4  1  0  0  0  0
  4  5  2  0  0  0  0
  4  6  1  0  0  0  0
  6 24  1  0  0  0  0
  7 22  1  1  0  0  0
  7  8  1  0  0  0  0
  7  6  1  0  0  0  0
  8  9  1  0  0  0  0
  8 14  2  0  0  0  0
  9 25  1  0  0  0  0
 10 12  1  0  0  0  0
 10 23  1  6  0  0  0
 10 11  1  0  0  0  0
 10  7  1  0  0  0  0
 11 13  1  0  0  0  0
 11 26  1  0  0  0  0
 11 27  1  0  0  0  0
 12 28  1  0  0  0  0
 12 29  1  0  0  0  0
 12 30  1  0  0  0  0
 13 31  1  0  0  0  0
 13 32  1  0  0  0  0
 13 33  1  0  0  0  0
 15 16  2  0  0  0  0
 15 17  1  0  0  0  0
 17 18  1  0  0  0  0
 18 19  1  0  0  0  0
 18 34  1  0  0  0  0
 18 35  1  0  0  0  0
 19 36  1  0  0  0  0
 19 37  1  0  0  0  0
 19 38  1  0  0  0  0
M  END
>  <DRUGBANK_ID>
DB07160

>  <COMMON_NAME>
N-{[(2S,3S)-3-(ETHOXYCARBONYL)OXIRAN-2-YL]CARBONYL}-L-ISOLEUCINE

$$$$
