FSN
 OpenBabel10282417163D

 54 58  0  0  0  0  0  0  0  0999 V2000
    2.2948    1.9493    0.1199 O   0  0  0  0  0  0  0  0  0  0  0  0
    1.7575    0.8670   -0.0785 C   0  0  0  0  0  0  0  0  0  0  0  0
    2.1524   -0.3499    0.3733 N   0  0  0  0  0  0  0  0  0  0  0  0
    3.2894   -0.5604    1.2621 C   0  0  0  0  0  0  0  0  0  0  0  0
    4.6153   -0.2334    0.6025 C   0  0  0  0  0  0  0  0  0  0  0  0
    4.9235    1.0797    0.2048 C   0  0  0  0  0  0  0  0  0  0  0  0
    6.0529    1.3822   -0.5405 C   0  0  0  0  0  0  0  0  0  0  0  0
    6.9708    0.3822   -0.7796 C   0  0  0  0  0  0  0  0  0  0  0  0
    8.0931    0.6770   -1.4449 F   0  0  0  0  0  0  0  0  0  0  0  0
    6.7537   -0.9105   -0.3113 C   0  0  0  0  0  0  0  0  0  0  0  0
    5.5669   -1.2279    0.3595 C   0  0  0  0  0  0  0  0  0  0  0  0
    1.2692   -1.3306    0.0196 C   0  0  0  0  0  0  0  0  0  0  0  0
    1.3227   -2.5056    0.3343 O   0  0  0  0  0  0  0  0  0  0  0  0
    0.1533   -0.7256   -0.8051 C   0  0  1  0  0  0  0  0  0  0  0  0
   -1.1562   -0.7783   -0.0340 C   0  0  1  0  0  0  0  0  0  0  0  0
   -1.1896    0.4995    0.7124 N   0  0  2  0  0  0  0  0  0  0  0  0
   -2.5987    0.7214    1.0434 C   0  0  0  0  0  0  0  0  0  0  0  0
   -3.4179    0.0692   -0.0543 C   0  0  0  0  0  0  0  0  0  0  0  0
   -2.4292   -0.7463   -0.8806 C   0  0  0  0  0  0  0  0  0  0  0  0
   -0.6362    1.5104   -0.2140 C   0  0  1  0  0  0  0  0  0  0  0  0
   -0.3055    2.8555    0.4090 C   0  0  0  0  0  0  0  0  0  0  0  0
    0.2655    3.8560   -0.3873 C   0  0  0  0  0  0  0  0  0  0  0  0
    0.4930    5.1374    0.1162 C   0  0  0  0  0  0  0  0  0  0  0  0
    0.1256    5.4777    1.4278 C   0  0  0  0  0  0  0  0  0  0  0  0
   -0.4680    4.4698    2.2078 C   0  0  0  0  0  0  0  0  0  0  0  0
   -0.5999    3.1651    1.7362 C   0  0  0  0  0  0  0  0  0  0  0  0
    0.3993    6.8226    1.9897 C   0  0  0  0  0  0  0  0  0  0  0  0
    0.0544    7.1121    3.2285 N   0  3  0  0  0  0  0  0  0  0  0  0
    1.0178    7.7446    1.2788 N   0  0  0  0  0  0  0  0  0  0  0  0
    0.5109    0.7526   -0.8846 C   0  0  1  0  0  0  0  0  0  0  0  0
    0.1169   -1.2040   -1.7892 H   0  0  0  0  0  0  0  0  0  0  0  0
   -1.2002   -1.6286    0.6557 H   0  0  0  0  0  0  0  0  0  0  0  0
   -1.3757    1.7386   -0.9934 H   0  0  0  0  0  0  0  0  0  0  0  0
    0.7056    1.0872   -1.9097 H   0  0  0  0  0  0  0  0  0  0  0  0
    3.1629    0.0706    2.1510 H   0  0  0  0  0  0  0  0  0  0  0  0
    3.2858   -1.6015    1.6084 H   0  0  0  0  0  0  0  0  0  0  0  0
    4.2900    1.9160    0.4635 H   0  0  0  0  0  0  0  0  0  0  0  0
    6.2106    2.3903   -0.9077 H   0  0  0  0  0  0  0  0  0  0  0  0
    7.5112   -1.6674   -0.4809 H   0  0  0  0  0  0  0  0  0  0  0  0
    5.4017   -2.2494    0.6965 H   0  0  0  0  0  0  0  0  0  0  0  0
   -2.8601    1.7769    1.1681 H   0  0  0  0  0  0  0  0  0  0  0  0
   -2.8010    0.2365    2.0056 H   0  0  0  0  0  0  0  0  0  0  0  0
   -3.9102    0.8273   -0.6734 H   0  0  0  0  0  0  0  0  0  0  0  0
   -4.1913   -0.5685    0.3837 H   0  0  0  0  0  0  0  0  0  0  0  0
   -2.2735   -0.2666   -1.8554 H   0  0  0  0  0  0  0  0  0  0  0  0
   -2.8136   -1.7527   -1.0694 H   0  0  0  0  0  0  0  0  0  0  0  0
    0.5933    3.6232   -1.4002 H   0  0  0  0  0  0  0  0  0  0  0  0
    0.9587    5.8405   -0.5659 H   0  0  0  0  0  0  0  0  0  0  0  0
   -0.8597    4.6472    3.2035 H   0  0  0  0  0  0  0  0  0  0  0  0
   -0.9581    2.3974    2.4208 H   0  0  0  0  0  0  0  0  0  0  0  0
    0.2427    8.0087    3.6517 H   0  0  0  0  0  0  0  0  0  0  0  0
   -0.3983    6.4308    3.8226 H   0  0  0  0  0  0  0  0  0  0  0  0
    1.3309    7.5660    0.3338 H   0  0  0  0  0  0  0  0  0  0  0  0
    1.2406    8.6565    1.6512 H   0  0  0  0  0  0  0  0  0  0  0  0
  1  2  2  0  0  0  0
  2  3  1  0  0  0  0
  2 30  1  0  0  0  0
  3  4  1  0  0  0  0
  3 12  1  0  0  0  0
  4  5  1  0  0  0  0
  4 35  1  0  0  0  0
  4 36  1  0  0  0  0
  5  6  2  0  0  0  0
  5 11  1  0  0  0  0
  6  7  1  0  0  0  0
  6 37  1  0  0  0  0
  7  8  2  0  0  0  0
  7 38  1  0  0  0  0
  8  9  1  0  0  0  0
  8 10  1  0  0  0  0
 10 11  2  0  0  0  0
 10 39  1  0  0  0  0
 11 40  1  0  0  0  0
 12 13  2  0  0  0  0
 12 14  1  0  0  0  0
 14 15  1  0  0  0  0
 14 30  1  0  0  0  0
 14 31  1  6  0  0  0
 15 16  1  0  0  0  0
 15 19  1  0  0  0  0
 15 32  1  1  0  0  0
 16 17  1  6  0  0  0
 16 20  1  0  0  0  0
 17 18  1  0  0  0  0
 17 41  1  0  0  0  0
 17 42  1  0  0  0  0
 18 19  1  0  0  0  0
 18 43  1  0  0  0  0
 18 44  1  0  0  0  0
 19 45  1  0  0  0  0
 19 46  1  0  0  0  0
 20 21  1  0  0  0  0
 20 30  1  0  0  0  0
 20 33  1  6  0  0  0
 21 22  2  0  0  0  0
 21 26  1  0  0  0  0
 22 23  1  0  0  0  0
 22 47  1  0  0  0  0
 23 24  2  0  0  0  0
 23 48  1  0  0  0  0
 24 25  1  0  0  0  0
 24 27  1  0  0  0  0
 25 26  2  0  0  0  0
 25 49  1  0  0  0  0
 26 50  1  0  0  0  0
 27 28  2  0  0  0  0
 27 29  1  0  0  0  0
 28 51  1  0  0  0  0
 28 52  1  0  0  0  0
 29 53  1  0  0  0  0
 29 54  1  0  0  0  0
 30 34  1  6  0  0  0
M  CHG  1  28   1
M  END
>  <DRUGBANK_ID>
DB07796

>  <COMMON_NAME>
(3ASR,4RS,8ASR,8BRS)-4-(2-(4-FLUOROBENZYL)-1,3-DIOXODEACAHYDROPYRROLO[3,4-A] PYRROLIZIN-4-YL)BENZAMIDINE

$$$$
