
 OpenBabel10282417243D

 23 22  0  0  1  0  0  0  0  0999 V2000
    0.7403   -0.8420    0.2393 C   0  0  0  0  0  0  0  0  0  0  0  0
    2.5235   -0.8708    0.1182 S   0  3  1  0  0  0  0  0  0  0  0  0
    2.9770   -0.0320    1.2122 O   0  5  0  0  0  0  0  0  0  0  0  0
    2.9590   -2.3374   -0.0485 N   0  0  0  0  0  0  0  0  0  0  0  0
    2.9978   -0.0070   -1.3965 C   0  0  0  0  0  0  0  0  0  0  0  0
    2.5269   -0.6371   -2.7114 C   0  0  0  0  0  0  0  0  0  0  0  0
    1.0026   -0.5742   -2.8609 C   0  0  2  0  0  0  0  0  0  0  0  0
    0.4182   -1.9192   -2.7454 N   0  0  0  0  0  0  0  0  0  0  0  0
    0.5320    0.0643   -4.1651 C   0  0  0  0  0  0  0  0  0  0  0  0
   -0.2554    1.1504   -3.9942 O   0  0  0  0  0  0  0  0  0  0  0  0
    0.7641   -0.4088   -5.2741 O   0  0  0  0  0  0  0  0  0  0  0  0
    0.4267   -1.2777    1.1874 H   0  0  0  0  0  0  0  0  0  0  0  0
    0.2934   -1.4594   -0.5231 H   0  0  0  0  0  0  0  0  0  0  0  0
    0.3832    0.1880    0.1634 H   0  0  0  0  0  0  0  0  0  0  0  0
    2.7017   -2.9100    0.7561 H   0  0  0  0  0  0  0  0  0  0  0  0
    2.6584    1.0313   -1.3157 H   0  0  0  0  0  0  0  0  0  0  0  0
    4.0967    0.0204   -1.3858 H   0  0  0  0  0  0  0  0  0  0  0  0
    3.0076   -0.1060   -3.5438 H   0  0  0  0  0  0  0  0  0  0  0  0
    2.8996   -1.6684   -2.7699 H   0  0  0  0  0  0  0  0  0  0  0  0
    0.6041    0.0558   -2.0642 H   0  0  0  0  0  0  0  0  0  0  0  0
    0.3090   -2.3149   -3.6852 H   0  0  0  0  0  0  0  0  0  0  0  0
   -0.5239   -1.8817   -2.3619 H   0  0  0  0  0  0  0  0  0  0  0  0
   -0.4394    1.4162   -3.0726 H   0  0  0  0  0  0  0  0  0  0  0  0
  1 12  1  0  0  0  0
  1 13  1  0  0  0  0
  1 14  1  0  0  0  0
  2  1  1  0  0  0  0
  2  3  1  1  0  0  0
  2  4  2  0  0  0  0
  2  5  1  0  0  0  0
  4 15  1  0  0  0  0
  5  6  1  0  0  0  0
  5 16  1  0  0  0  0
  5 17  1  0  0  0  0
  6 18  1  0  0  0  0
  6 19  1  0  0  0  0
  7  9  1  0  0  0  0
  7 20  1  1  0  0  0
  7  8  1  0  0  0  0
  7  6  1  0  0  0  0
  8 21  1  0  0  0  0
  8 22  1  0  0  0  0
  9 10  1  0  0  0  0
  9 11  2  0  0  0  0
 10 23  1  0  0  0  0
M  CHG  2   2   1   3  -1
M  END
>  <DRUGBANK_ID>
DB18529

>  <COMMON_NAME>
Methionine sulfoximine, (S)-

>  <CAS_NUMBER>
21752-32-9

>  <UNII>
DE3D2PZ3TT

>  <SYNONYMS>
(2s)-2-amino-4-((s(s))-s-methylsulfonimidoyl)butanoic acid; Butanoic acid, 2-amino-4-((s(s))-s-methylsulfonimidoyl)-, (2s)-; L-methionine-(s)-sulfoximine; L-S-(3-Amino-3-carboxypropyl)-S-methylsulfoximine

$$$$
